drugbank_target|P42681 Tyrosine-protein kinase TXK (DB12010; DB15035)
 OpenBabel12092121143D

  0  0  0     0  0            999 V3000
M  V30 BEGIN CTAB
M  V30 COUNTS 8567 8676 0 0 0
M  V30 BEGIN ATOM
M  V30 1 H -0.908 1.98254 -0.117106 0
M  V30 2 N 0 1.576 0 0
M  V30 3 C 0.933 2.03868 1.02534 0
M  V30 4 C 1.911 0.928543 1.3348 0
M  V30 5 O 3.095 1.19667 1.45644 0
M  V30 6 C 0.222 2.43627 2.35294 0
M  V30 7 C -0.732 3.65373 2.2001 0
M  V30 8 S 0.101 5.13292 1.52614 0
M  V30 9 C 1.257 5.56322 2.86805 0
M  V30 10 H 1.49 2.90518 0.631377 0
M  V30 11 H -0.977 1.52953 0.210867 0
M  V30 12 H 0.981 2.67203 3.11629 0
M  V30 13 H -0.358 1.57376 2.7183 0
M  V30 14 H -1.165 3.90944 3.18086 0
M  V30 15 H -1.563 3.418 1.51819 0
M  V30 16 H 0.729 5.58782 3.83104 0
M  V30 17 H 1.672 6.56266 2.65933 0
M  V30 18 H 2.08 4.83886 2.90714 0
M  V30 19 N 1.4781 -0.272755 1.55222 0
M  V30 20 C 2.7271 -1.00211 1.75045 0
M  V30 21 C 3.0401 -1.87441 0.559046 0
M  V30 22 O 4.2461 -2.63856 0.639698 0
M  V30 23 C 2.7021 -1.83165 3.09804 0
M  V30 24 C 2.3101 -1.008 4.36513 0
M  V30 25 C 4.0541 -2.55529 3.38977 0
M  V30 26 C 1.9611 -1.83194 5.62311 0
M  V30 27 H 0.8911 -0.377878 0.652476 0
M  V30 28 H 3.5421 -0.257776 1.8168 0
M  V30 29 H 1.9241 -2.61694 2.97207 0
M  V30 30 H 3.0981 -0.266855 4.60027 0
M  V30 31 H 1.4131 -0.398897 4.14485 0
M  V30 32 H 4.0101 -3.17578 4.30172 0
M  V30 33 H 4.3531 -3.25825 2.59121 0
M  V30 34 H 4.8861 -1.84029 3.52673 0
M  V30 35 H 1.6251 -1.17318 6.44916 0
M  V30 36 H 1.1451 -2.54905 5.4294 0
M  V30 37 H 2.8241 -2.40552 6.00619 0
M  V30 38 N 2.9562 -1.48159 -0.537278 0
M  V30 39 C 3.8862 -1.65029 -1.6519 0
M  V30 40 C 4.8672 -0.499281 -1.62607 0
M  V30 41 O 6.0522 -0.730972 -1.79918 0
M  V30 42 C 3.1822 -1.68303 -3.03795 0
M  V30 43 C 2.1362 -2.8283 -3.21234 0
M  V30 44 C 1.4622 -2.71189 -4.60826 0
M  V30 45 C 2.7622 -4.24211 -3.04701 0
M  V30 46 H 4.4562 -2.58341 -1.51328 0
M  V30 47 H 2.0022 -1.24325 -0.726585 0
M  V30 48 H 3.9552 -1.78693 -3.81637 0
M  V30 49 H 2.6792 -0.715635 -3.18663 0
M  V30 50 H 1.3382 -2.71983 -2.45807 0
M  V30 51 H 0.9862 -1.72435 -4.7252 0
M  V30 52 H 0.6862 -3.48035 -4.7344 0
M  V30 53 H 2.2102 -2.83537 -5.40777 0
M  V30 54 H 3.6242 -4.3593 -3.72341 0
M  V30 55 H 2.0212 -5.01998 -3.28813 0
M  V30 56 H 3.0912 -4.41184 -2.01209 0
M  V30 57 N 4.4343 0.785586 -1.36625 0
M  V30 58 C 5.6593 1.57963 -1.34397 0
M  V30 59 C 6.0843 1.87964 0.071526 0
M  V30 60 O 5.4423 1.48182 1.0446 0
M  V30 61 C 5.4903 2.87511 -2.17646 0
M  V30 62 O 4.5943 3.81281 -1.57158 0
M  V30 63 H 3.9353 0.479014 -0.459828 0
M  V30 64 H 6.4653 0.973411 -1.79961 0
M  V30 65 H 6.4753 3.36745 -2.30362 0
M  V30 66 H 5.1503 2.65002 -3.20541 0
M  V30 67 H 3.7273 3.39885 -1.53403 0
M  V30 68 N 5.9124 1.20967 1.01018 0
M  V30 69 C 7.1374 1.0503 1.78839 0
M  V30 70 C 7.5624 -0.395752 1.8389 0
M  V30 71 O 6.9204 -1.28529 1.27867 0
M  V30 72 C 6.9684 1.64602 3.2084 0
M  V30 73 O 6.0724 0.887988 4.02726 0
M  V30 74 H 5.4134 0.369987 0.551367 0
M  V30 75 H 7.9434 1.60399 1.27018 0
M  V30 76 H 7.9534 1.68607 3.71532 0
M  V30 77 H 6.6284 2.69841 3.16479 0
M  V30 78 H 5.2054 0.922648 3.61305 0
M  V30 79 N 7.3905 -1.2043 1.01659 0
M  V30 80 C 8.6205 -1.93496 0.724081 0
M  V30 81 C 9.0285 -1.74998 -0.71918 0
M  V30 82 O 8.3715 -1.06118 -1.49949 0
M  V30 83 C 8.4335 -3.45886 0.97994 0
M  V30 84 C 8.0975 -3.88145 2.41232 0
M  V30 85 C 9.0945 -3.93907 3.39313 0
M  V30 86 C 6.7795 -4.20134 2.75305 0
M  V30 87 C 8.7735 -4.31069 4.6953 0
M  V30 88 C 6.4605 -4.56971 4.05735 0
M  V30 89 C 7.4585 -4.62411 5.02658 0
M  V30 90 O 7.1465 -4.98403 6.30754 0
M  V30 91 H 6.8785 -0.621824 0.265162 0
M  V30 92 H 9.4325 -1.53867 1.36066 0
M  V30 93 H 7.6625 -3.85639 0.286198 0
M  V30 94 H 9.3515 -4.0018 0.679021 0
M  V30 95 H 10.1175 -3.69357 3.14325 0
M  V30 96 H 5.9965 -4.1509 2.00551 0
M  V30 97 H 9.5405 -4.3523 5.45179 0
M  V30 98 H 5.4375 -4.80977 4.30502 0
M  V30 99 H 6.2055 -5.16395 6.35042 0
M  V30 100 N 8.8686 -0.792821 -1.36206 0
M  V30 101 C 9.8166 -0.181555 -2.3189 0
M  V30 102 C 10.8106 0.661025 -1.55971 0
M  V30 103 O 12.0166 0.555728 -1.71206 0
M  V30 104 H 8.3916 -0.0399382 -0.750939 0
M  V30 105 H 10.3626 -1.00394 -2.81005 0
M  V30 106 C 9.1116 0.666444 -3.41253 0
M  V30 107 H 8.4346 0.0274489 -3.99791 0
M  V30 108 H 9.8746 1.06076 -4.10517 0
M  V30 109 C 8.3336 1.82614 -2.83114 0
M  V30 110 O 8.8636 2.9229 -2.75553 0
M  V30 111 N 7.0696 1.63333 -2.40356 0
M  V30 112 H 6.6166 0.741217 -2.46706 0
M  V30 113 H 6.5746 2.41087 -2.01803 0
M  V30 114 N 10.3467 1.47872 -0.545128 0
M  V30 115 C 11.5747 2.06889 -0.021084 0
M  V30 116 C 11.9897 1.39955 1.2672 0
M  V30 117 O 11.3467 0.492036 1.75742 0
M  V30 118 C 11.3977 3.60996 0.190817 0
M  V30 119 O 11.1187 4.25419 -1.04644 0
M  V30 120 C 12.6197 4.36849 0.753521 0
M  V30 121 H 9.8397 0.669785 -0.0403635 0
M  V30 122 H 12.3837 1.90049 -0.755095 0
M  V30 123 H 10.5387 3.77391 0.87492 0
M  V30 124 H 10.9527 5.17785 -0.836611 0
M  V30 125 H 12.4267 5.45399 0.851139 0
M  V30 126 H 12.9037 4.02306 1.762 0
M  V30 127 H 13.5097 4.25169 0.105503 0
M  V30 128 N 11.8248 0.280983 1.55075 0
M  V30 129 C 13.0738 -0.334784 1.98902 0
M  V30 130 C 13.3868 -1.56534 1.17288 0
M  V30 131 O 14.5928 -2.25443 1.51287 0
M  V30 132 C 13.0488 -0.646994 3.54037 0
M  V30 133 C 12.6568 0.564085 4.44435 0
M  V30 134 C 14.4008 -1.22506 4.06439 0
M  V30 135 C 12.3078 0.226137 5.90967 0
M  V30 136 H 11.2378 -0.128866 0.742906 0
M  V30 137 H 13.8888 0.386556 1.79382 0
M  V30 138 H 12.2708 -1.42739 3.6938 0
M  V30 139 H 13.4448 1.34082 4.40861 0
M  V30 140 H 11.7598 1.0594 4.02698 0
M  V30 141 H 14.3568 -1.49182 5.13468 0
M  V30 142 H 14.6998 -2.16085 3.55827 0
M  V30 143 H 15.2328 -0.50682 3.94558 0
M  V30 144 H 11.9718 1.12996 6.45687 0
M  V30 145 H 11.4918 -0.513717 5.97596 0
M  V30 146 H 13.1708 -0.179539 6.46751 0
M  V30 147 N 13.3029 -1.57598 0.00835791 0
M  V30 148 C 14.2349 -2.05811 -1.00868 0
M  V30 149 C 15.2479 -0.977579 -1.30182 0
M  V30 150 O 16.4369 -1.25421 -1.27011 0
M  V30 151 C 13.5369 -2.45016 -2.34137 0
M  V30 152 C 12.7099 -3.75903 -2.23643 0
M  V30 153 C 11.7689 -4.01884 -3.3967 0
M  V30 154 O 10.7949 -4.72433 -3.17483 0
M  V30 155 N 11.9969 -3.50432 -4.62793 0
M  V30 156 H 14.7619 -2.93684 -0.597458 0
M  V30 157 H 12.3229 -1.60909 -0.178852 0
M  V30 158 H 14.3149 -2.59506 -3.10546 0
M  V30 159 H 12.8849 -1.62618 -2.66972 0
M  V30 160 H 12.1049 -3.7141 -1.32091 0
M  V30 161 H 13.3929 -4.61695 -2.13812 0
M  V30 162 H 12.7909 -2.93317 -4.83716 0
M  V30 163 H 11.3479 -3.70236 -5.3644 0
M  V30 164 N 14.781 0.264519 -1.55364 0
M  V30 165 C 16.006 1.01726 -1.80739 0
M  V30 166 C 16.431 1.78836 -0.583044 0
M  V30 167 O 15.789 1.75167 0.467566 0
M  V30 168 C 15.837 1.94482 -3.03659 0
M  V30 169 O 14.941 3.03386 -2.7934 0
M  V30 170 H 14.282 0.290395 -0.597132 0
M  V30 171 H 16.812 0.290854 -2.02522 0
M  V30 172 H 16.822 2.36278 -3.32621 0
M  V30 173 H 15.497 1.37772 -3.92418 0
M  V30 174 H 14.074 2.65844 -2.61498 0
M  V30 175 N 16.2591 1.48442 0.529413 0
M  V30 176 C 17.5051 1.5672 1.28711 0
M  V30 177 C 17.8381 0.2406 1.92704 0
M  V30 178 O 17.1131 -0.753454 1.79313 0
M  V30 179 C 17.3961 2.70587 2.37603 0
M  V30 180 C 17.2491 4.12953 1.78297 0
M  V30 181 C 18.5681 2.80212 3.39366 0
M  V30 182 H 15.6871 0.570474 0.466613 0
M  V30 183 H 18.3291 1.80617 0.589706 0
M  V30 184 H 16.4791 2.50342 2.97088 0
M  V30 185 H 18.1511 4.44639 1.22858 0
M  V30 186 H 16.3941 4.19927 1.0883 0
M  V30 187 H 17.0651 4.88448 2.57144 0
M  V30 188 H 19.5411 2.98553 2.89836 0
M  V30 189 H 18.4171 3.61611 4.12951 0
M  V30 190 H 18.6781 1.88393 3.99951 0
M  V30 191 N 17.7372 -0.778329 1.37039 0
M  V30 192 C 18.9842 -1.53665 1.31884 0
M  V30 193 C 19.3122 -1.9425 -0.0986303 0
M  V30 194 O 18.5672 -1.63832 -1.07041 0
M  V30 195 C 18.8662 -2.81845 2.19768 0
M  V30 196 C 18.5322 -2.60345 3.68146 0
M  V30 197 C 17.1942 -2.5419 4.08584 0
M  V30 198 C 19.5462 -2.40923 4.62175 0
M  V30 199 C 16.8742 -2.26594 5.41177 0
M  V30 200 C 19.2262 -2.14852 5.94997 0
M  V30 201 C 17.8902 -2.07137 6.34547 0
M  V30 202 H 17.1602 -0.562299 0.482598 0
M  V30 203 H 19.8072 -0.897069 1.69189 0
M  V30 204 H 18.1122 -3.50328 1.75436 0
M  V30 205 H 19.8092 -3.39692 2.13097 0
M  V30 206 H 16.3992 -2.65996 3.36072 0
M  V30 207 H 20.5832 -2.44673 4.31797 0
M  V30 208 H 15.8392 -2.19111 5.70789 0
M  V30 209 H 20.0132 -1.98822 6.67415 0
M  V30 210 H 17.6402 -1.85518 7.37216 0
M  V30 211 N 19.2153 -1.21501 -1.00376 0
M  V30 212 C 20.4553 -1.04444 -1.75701 0
M  V30 213 C 20.8193 0.414644 -1.87469 0
M  V30 214 O 22.0203 0.705763 -2.59369 0
M  V30 215 C 20.2913 -1.72389 -3.13077 0
M  V30 216 S 21.8503 -1.70604 -4.04277 0
M  V30 217 H 18.6683 -0.374249 -0.604532 0
M  V30 218 H 21.2703 -1.54267 -1.20091 0
M  V30 219 H 19.9743 -2.77734 -3.02146 0
M  V30 220 H 19.5053 -1.22751 -3.73759 0
M  V30 221 H 21.5203 -0.748012 -4.9053 0
M  V30 222 N 20.6934 1.19889 -1.02296 0
M  V30 223 C 21.9334 1.91125 -0.724602 0
M  V30 224 C 22.2974 1.77464 0.732835 0
M  V30 225 O 23.4984 2.43241 1.144 0
M  V30 226 C 21.7694 3.38187 -1.15604 0
M  V30 227 S 23.3284 4.27702 -0.980621 0
M  V30 228 H 20.1464 0.66018 -0.263976 0
M  V30 229 H 22.7484 1.44978 -1.31155 0
M  V30 230 H 21.4524 3.45653 -2.21251 0
M  V30 231 H 20.9834 3.89363 -0.562131 0
M  V30 232 H 22.9984 4.96073 0.112225 0
M  V30 233 N 22.1715 0.800033 1.35784 0
M  V30 234 C 23.4115 0.382891 2.00782 0
M  V30 235 C 23.7755 -1.02891 1.62103 0
M  V30 236 O 24.9765 -1.54771 2.19771 0
M  V30 237 C 23.2475 0.553299 3.53091 0
M  V30 238 S 24.8065 0.225608 4.3822 0
M  V30 239 H 21.6245 0.145737 0.695904 0
M  V30 240 H 24.2265 1.04085 1.65489 0
M  V30 241 H 22.9305 1.58091 3.78729 0
M  V30 242 H 22.4615 -0.120214 3.93216 0
M  V30 243 H 24.4765 -0.969074 4.86645 0
M  V30 244 N 23.6496 -1.47581 0.552962 0
M  V30 245 C 24.8896 -2.04379 0.0296245 0
M  V30 246 C 25.2536 -1.4185 -1.29393 0
M  V30 247 O 26.4546 -1.89669 -1.90471 0
M  V30 248 C 24.7256 -3.57339 -0.0661371 0
M  V30 249 S 26.2846 -4.35511 -0.536213 0
M  V30 250 H 23.1026 -0.710625 0.0230991 0
M  V30 251 H 25.7046 -1.81005 0.738734 0
M  V30 252 H 24.4086 -4.00374 0.901596 0
M  V30 253 H 23.9396 -3.85202 -0.798931 0
M  V30 254 H 25.9546 -4.6253 -1.79668 0
M  V30 255 N 25.1277 -0.289203 -1.54924 0
M  V30 256 C 26.3677 0.324536 -2.01807 0
M  V30 257 C 26.7317 1.5199 -1.17316 0
M  V30 258 O 27.9327 2.20422 -1.53843 0
M  V30 259 C 26.2037 0.683578 -3.50802 0
M  V30 260 S 27.7627 1.28185 -4.19659 0
M  V30 261 H 24.5807 0.100236 -0.703899 0
M  V30 262 H 27.1827 -0.414325 -1.91059 0
M  V30 263 H 25.8867 -0.195073 -4.09936 0
M  V30 264 H 25.4177 1.45354 -3.65562 0
M  V30 265 H 27.4327 2.57006 -4.24456 0
M  V30 266 N 26.6058 1.57591 -0.0167156 0
M  V30 267 C 27.8458 1.93145 0.668902 0
M  V30 268 C 28.2098 0.892406 1.7 0
M  V30 269 O 29.4108 1.13373 2.43721 0
M  V30 270 C 27.6818 3.33678 1.28039 0
M  V30 271 S 29.2408 3.91142 1.9888 0
M  V30 272 H 26.0588 0.67593 0.220545 0
M  V30 273 H 28.6608 1.95347 -0.0774105 0
M  V30 274 H 27.3648 4.07126 0.517339 0
M  V30 275 H 26.8958 3.3489 2.06427 0
M  V30 276 H 28.9108 3.73571 3.26587 0
M  V30 277 N 28.0839 -0.256276 1.55502 0
M  V30 278 C 29.3089 -1.00766 1.81276 0
M  V30 279 C 29.7339 -1.78524 0.59252 0
M  V30 280 O 29.0919 -1.75413 -0.45827 0
M  V30 281 C 29.1399 -1.92869 3.04687 0
M  V30 282 O 28.2439 -3.019 2.80945 0
M  V30 283 H 27.5849 -0.287224 0.598664 0
M  V30 284 H 30.1149 -0.280109 2.02674 0
M  V30 285 H 30.1249 -2.34511 3.33869 0
M  V30 286 H 28.7999 -1.35689 3.93143 0
M  V30 287 H 27.3769 -2.64454 2.62904 0
M  V30 288 N 29.562 -1.4872 -0.521534 0
M  V30 289 C 30.808 -1.574 -1.27879 0
M  V30 290 C 31.141 -0.250817 -1.92573 0
M  V30 291 O 30.416 0.743934 -1.79711 0
M  V30 292 C 30.699 -2.71843 -2.36164 0
M  V30 293 C 30.552 -4.13893 -1.76105 0
M  V30 294 C 31.871 -2.82008 -3.37875 0
M  V30 295 H 28.99 -0.572941 -0.463581 0
M  V30 296 H 31.632 -1.80927 -0.580119 0
M  V30 297 H 29.782 -2.51914 -2.95756 0
M  V30 298 H 31.454 -4.45284 -1.20499 0
M  V30 299 H 29.697 -4.20498 -1.06601 0
M  V30 300 H 30.368 -4.89804 -2.5455 0
M  V30 301 H 32.844 -3.00086 -2.88249 0
M  V30 302 H 31.72 -3.63796 -4.11028 0
M  V30 303 H 31.981 -1.90511 -3.98946 0
M  V30 304 N 31.0401 0.771051 -1.3745 0
M  V30 305 C 31.9721 1.89352 -1.29146 0
M  V30 306 C 32.9851 1.61477 -0.207124 0
M  V30 307 O 34.1741 1.72382 -0.463324 0
M  V30 308 C 31.2741 3.24596 -0.974195 0
M  V30 309 C 30.4471 3.80111 -2.16413 0
M  V30 310 C 29.5061 4.93832 -1.81703 0
M  V30 311 O 28.5321 5.09382 -2.54006 0
M  V30 312 N 29.7341 5.75483 -0.761573 0
M  V30 313 H 32.4991 1.96991 -2.25864 0
M  V30 314 H 30.0601 0.950191 -1.31084 0
M  V30 315 H 32.0521 3.98193 -0.722828 0
M  V30 316 H 30.6221 3.12454 -0.0955527 0
M  V30 317 H 29.8421 2.98284 -2.57721 0
M  V30 318 H 31.1301 4.13932 -2.95867 0
M  V30 319 H 30.5281 5.65469 -0.161609 0
M  V30 320 H 29.0851 6.49302 -0.570064 0
M  V30 321 N 32.5182 1.22032 0.997298 0
M  V30 322 C 33.4652 0.986467 2.08656 0
M  V30 323 C 34.4352 -0.0902671 1.65855 0
M  V30 324 O 35.6202 0.0584294 1.90711 0
M  V30 325 C 32.7602 0.565569 3.40434 0
M  V30 326 C 31.8732 1.71259 3.96604 0
M  V30 327 C 31.0082 1.24011 5.16522 0
M  V30 328 C 30.0472 2.35896 5.64818 0
M  V30 329 N 29.1842 1.89726 6.7598 0
M  V30 330 H 34.0242 1.91892 2.27994 0
M  V30 331 H 31.5612 0.956199 1.11782 0
M  V30 332 H 33.5192 0.302738 4.161 0
M  V30 333 H 32.1492 -0.329879 3.2111 0
M  V30 334 H 31.2012 2.08986 3.17851 0
M  V30 335 H 32.5132 2.55436 4.28432 0
M  V30 336 H 31.6672 0.934395 5.99461 0
M  V30 337 H 30.4062 0.368487 4.86306 0
M  V30 338 H 29.4112 2.67261 4.8047 0
M  V30 339 H 30.6362 3.23567 5.97061 0
M  V30 340 H 28.5822 1.0492 6.47555 0
M  V30 341 H 28.4992 2.67471 7.07103 0
M  V30 342 H 29.7672 1.62211 7.62435 0
M  V30 343 N 33.9963 -1.19345 1.0293 0
M  V30 344 C 35.4123 -1.41069 0.746446 0
M  V30 345 C 35.6123 -1.90078 -0.668776 0
M  V30 346 O 34.6683 -2.0778 -1.4347 0
M  V30 347 C 35.9813 -2.42141 1.78292 0
M  V30 348 C 37.5293 -2.55887 1.80252 0
M  V30 349 C 38.0043 -3.60214 2.8286 0
M  V30 350 N 39.4953 -3.67711 2.81679 0
M  V30 351 C 40.2303 -4.48128 3.57727 0
M  V30 352 N 39.7263 -5.32248 4.43491 0
M  V30 353 N 41.5193 -4.42782 3.46267 0
M  V30 354 H 33.6703 -0.858536 1.94275 0
M  V30 355 H 35.9333 -0.439541 0.839945 0
M  V30 356 H 35.6393 -2.13155 2.79746 0
M  V30 357 H 35.5133 -3.41323 1.60557 0
M  V30 358 H 37.9003 -2.84196 0.794757 0
M  V30 359 H 37.9813 -1.56858 2.02062 0
M  V30 360 H 37.6253 -3.32647 3.83807 0
M  V30 361 H 37.5553 -4.58895 2.58307 0
M  V30 362 H 40.0463 -3.07634 2.19476 0
M  V30 363 H 40.3593 -5.90729 4.98256 0
M  V30 364 H 38.7043 -5.31707 4.47564 0
M  V30 365 H 41.8953 -3.76107 2.78677 0
M  V30 366 H 42.0683 -5.05215 4.05785 0
M  V30 367 N 35.4744 -0.807222 -1.35358 0
M  V30 368 C 36.4064 -0.175717 -2.28525 0
M  V30 369 C 37.4194 0.625354 -1.5031 0
M  V30 370 O 38.6084 0.457611 -1.72535 0
M  V30 371 C 35.7084 0.773471 -3.29956 0
M  V30 372 C 34.8814 0.0186296 -4.37396 0
M  V30 373 C 33.9404 0.886395 -5.18681 0
M  V30 374 O 32.9664 0.337106 -5.68201 0
M  V30 375 N 34.1684 2.20839 -5.36852 0
M  V30 376 H 36.9334 -0.976091 -2.83359 0
M  V30 377 H 34.4944 -0.662737 -1.47714 0
M  V30 378 H 36.4864 1.35824 -3.81227 0
M  V30 379 H 35.0564 1.47465 -2.75632 0
M  V30 380 H 34.2764 -0.747349 -3.87051 0
M  V30 381 H 35.5644 -0.501577 -5.06322 0
M  V30 382 H 34.9624 2.67858 -4.98265 0
M  V30 383 H 33.5194 2.74237 -5.91301 0
M  V30 384 N 36.9525 1.47285 -0.560781 0
M  V30 385 C 37.8855 2.27009 0.232821 0
M  V30 386 C 38.8635 1.34273 0.917039 0
M  V30 387 O 40.0475 1.63659 0.935315 0
M  V30 388 C 37.1745 3.11406 1.33206 0
M  V30 389 C 36.2205 4.19746 0.756019 0
M  V30 390 S 37.0535 5.34003 -0.400165 0
M  V30 391 C 38.2095 6.21964 0.700805 0
M  V30 392 H 38.4425 2.93971 -0.443683 0
M  V30 393 H 35.9755 1.50446 -0.347181 0
M  V30 394 H 37.9335 3.60601 1.96156 0
M  V30 395 H 36.5945 2.438 1.98041 0
M  V30 396 H 35.7875 4.78541 1.5816 0
M  V30 397 H 35.3895 3.73451 0.202619 0
M  V30 398 H 37.6815 6.58529 1.59202 0
M  V30 399 H 38.6245 7.07941 0.150126 0
M  V30 400 H 39.0325 5.5566 0.995083 0
M  V30 401 N 38.4306 0.297415 1.54768 0
M  V30 402 C 39.8466 -0.0560823 1.59501 0
M  V30 403 C 40.0466 -1.52725 1.31444 0
M  V30 404 O 39.1026 -2.27947 1.08611 0
M  V30 405 C 40.4156 0.338631 2.98787 0
M  V30 406 C 41.9636 0.287097 3.11681 0
M  V30 407 C 42.4386 0.656579 4.53269 0
M  V30 408 N 43.9296 0.608977 4.59179 0
M  V30 409 C 44.6646 0.867385 5.66802 0
M  V30 410 N 44.1606 1.19157 6.82476 0
M  V30 411 N 45.9536 0.794687 5.56454 0
M  V30 412 H 38.1046 1.25624 1.71267 0
M  V30 413 H 40.3676 0.509057 0.799728 0
M  V30 414 H 40.0736 1.36263 3.2423 0
M  V30 415 H 39.9476 -0.309508 3.75928 0
M  V30 416 H 42.3346 -0.727649 2.85988 0
M  V30 417 H 42.4156 0.969809 2.36703 0
M  V30 418 H 42.0596 1.66912 4.7969 0
M  V30 419 H 41.9896 -0.0481649 5.26578 0
M  V30 420 H 44.4806 0.369198 3.76092 0
M  V30 421 H 44.7936 1.37482 7.60473 0
M  V30 422 H 43.1386 1.22958 6.84037 0
M  V30 423 H 46.3296 0.541098 4.64962 0
M  V30 424 H 46.5026 0.999445 6.40246 0
M  V30 425 N 39.9087 -1.5758 0.0250728 0
M  V30 426 C 41.1367 -1.9593 -0.664747 0
M  V30 427 C 41.5517 -0.901352 -1.65895 0
M  V30 428 O 40.9087 0.117255 -1.82123 0
M  V30 429 C 40.9597 -3.34342 -1.37468 0
M  V30 430 O 40.6807 -4.36079 -0.420324 0
M  V30 431 C 42.1817 -3.873 -2.1567 0
M  V30 432 H 39.4017 -0.645405 -0.183557 0
M  V30 433 H 41.9457 -2.04329 0.0836372 0
M  V30 434 H 40.1007 -3.27175 -2.0745 0
M  V30 435 H 40.5147 -5.16297 -0.923991 0
M  V30 436 H 41.9887 -4.86504 -2.60803 0
M  V30 437 H 42.4657 -3.21331 -2.99405 0
M  V30 438 H 43.0717 -3.97723 -1.50654 0
M  V30 439 N 41.3868 0.248026 -1.55636 0
M  V30 440 C 42.3188 1.32993 -1.8667 0
M  V30 441 C 43.3318 1.44345 -0.752877 0
M  V30 442 O 44.5208 1.45715 -1.03098 0
M  V30 443 C 41.6208 2.70863 -2.03682 0
M  V30 444 C 40.7938 2.81792 -3.34532 0
M  V30 445 C 39.8528 4.005 -3.41301 0
M  V30 446 O 38.8788 3.9008 -4.14519 0
M  V30 447 N 40.0808 5.13618 -2.70512 0
M  V30 448 H 42.8458 1.06707 -2.8006 0
M  V30 449 H 40.4068 0.438129 -1.55859 0
M  V30 450 H 42.3988 3.48612 -2.05553 0
M  V30 451 H 40.9688 2.89862 -1.17041 0
M  V30 452 H 40.1888 1.90729 -3.44987 0
M  V30 453 H 41.4768 2.86043 -4.20781 0
M  V30 454 H 40.8748 5.24975 -2.10755 0
M  V30 455 H 39.4318 5.89505 -2.78077 0
M  V30 456 N 42.8649 1.48995 0.513639 0
M  V30 457 C 44.1139 1.57093 1.2651 0
M  V30 458 C 44.4269 0.257091 1.93903 0
M  V30 459 O 45.6329 0.216478 2.70636 0
M  V30 460 C 44.0889 2.77118 2.29638 0
M  V30 461 C 43.6969 4.15209 1.68241 0
M  V30 462 C 45.4409 2.94538 3.05692 0
M  V30 463 C 43.3479 5.26474 2.69406 0
M  V30 464 H 42.2779 0.584876 0.475854 0
M  V30 465 H 44.9289 1.7536 0.540487 0
M  V30 466 H 43.3109 2.52319 3.05207 0
M  V30 467 H 44.4849 4.50094 0.987505 0
M  V30 468 H 42.7999 4.03042 1.04623 0
M  V30 469 H 45.3969 3.74832 3.8132 0
M  V30 470 H 45.7399 2.04614 3.62545 0
M  V30 471 H 46.2729 3.19316 2.37238 0
M  V30 472 H 43.0119 6.18417 2.17351 0
M  V30 473 H 42.5319 4.96058 3.37175 0
M  V30 474 H 44.2109 5.55277 3.32078 0
M  V30 475 N 44.343 -0.763751 1.37857 0
M  V30 476 C 45.568 -1.55805 1.36893 0
M  V30 477 C 45.993 -1.88054 -0.0416135 0
M  V30 478 O 45.351 -1.49825 -1.02089 0
M  V30 479 C 45.399 -2.84012 2.22192 0
M  V30 480 O 44.503 -3.78732 1.63204 0
M  V30 481 H 43.844 -0.471638 0.46739 0
M  V30 482 H 46.374 -0.944657 1.81487 0
M  V30 483 H 46.384 -3.33037 2.35691 0
M  V30 484 H 45.059 -2.59869 3.24716 0
M  V30 485 H 43.636 -3.37402 1.58791 0
M  V30 486 N 45.8211 -1.22559 -0.990812 0
M  V30 487 C 46.7511 -1.0218 -2.09956 0
M  V30 488 C 47.7321 0.0579394 -1.70001 0
M  V30 489 O 48.9171 -0.104684 -1.93918 0
M  V30 490 C 46.0471 -0.601023 -3.4206 0
M  V30 491 C 45.0011 -1.62694 -3.95872 0
M  V30 492 C 44.3271 -1.06193 -5.24049 0
M  V30 493 C 45.6271 -3.01743 -4.2632 0
M  V30 494 H 47.3211 -1.94916 -2.27262 0
M  V30 495 H 44.8671 -0.938566 -1.09211 0
M  V30 496 H 46.8201 -0.445561 -4.19038 0
M  V30 497 H 45.5441 0.362005 -3.24588 0
M  V30 498 H 44.2031 -1.77021 -3.21028 0
M  V30 499 H 43.8511 -0.0901903 -5.02919 0
M  V30 500 H 43.5511 -1.74732 -5.61019 0
M  V30 501 H 45.0751 -0.918092 -6.03658 0
M  V30 502 H 46.4891 -2.90777 -4.94087 0
M  V30 503 H 44.8861 -3.67425 -4.74467 0
M  V30 504 H 45.9561 -3.51518 -3.34011 0
M  V30 505 N 47.2992 1.18797 -1.03562 0
M  V30 506 C 48.5242 1.9314 -0.755764 0
M  V30 507 C 48.9492 1.7537 0.68022 0
M  V30 508 O 48.3072 1.06046 1.47051 0
M  V30 509 C 48.3552 3.42747 -1.12058 0
M  V30 510 O 47.4592 4.11683 -0.243124 0
M  V30 511 H 46.8002 0.602724 -0.278604 0
M  V30 512 H 49.3302 1.50678 -1.3841 0
M  V30 513 H 49.3402 3.93437 -1.08035 0
M  V30 514 H 48.0152 3.55002 -2.16672 0
M  V30 515 H 46.5922 3.71323 -0.342539 0
M  V30 516 N 48.7773 0.814389 1.34928 0
M  V30 517 C 50.0053 0.411136 2.02774 0
M  V30 518 C 50.4203 -0.980316 1.61354 0
M  V30 519 O 49.7773 -1.63299 0.814847 0
M  V30 520 C 49.8283 0.493865 3.58111 0
M  V30 521 O 49.5493 1.83047 3.98027 0
M  V30 522 C 51.0503 0.0844174 4.4322 0
M  V30 523 H 48.2703 0.166037 0.650133 0
M  V30 524 H 50.8143 1.10018 1.72384 0
M  V30 525 H 48.9693 -0.147006 3.87121 0
M  V30 526 H 49.3833 1.79872 4.92693 0
M  V30 527 H 50.8573 0.193404 5.51661 0
M  V30 528 H 51.3343 -0.97113 4.28329 0
M  V30 529 H 51.9403 0.69875 4.19521 0
M  V30 530 N 50.2554 -1.46986 0.568584 0
M  V30 531 C 51.5324 -1.95592 -0.0174074 0
M  V30 532 C 51.9124 -1.51124 -1.47393 0
M  V30 533 O 51.2604 -0.755329 -2.15655 0
M  V30 534 C 51.4704 -3.48719 0.139913 0
M  V30 535 C 52.8184 -4.246 0.000426376 0
M  V30 536 O 53.8424 -3.56135 0.0680316 0
M  V30 537 O 52.7014 -5.46302 -0.146988 0
M  V30 538 H 49.7954 -0.82498 -0.0577599 0
M  V30 539 H 52.3414 -1.57335 0.635909 0
M  V30 540 H 51.1134 -3.73927 1.15301 0
M  V30 541 H 50.7364 -3.93771 -0.550491 0
M  V30 542 N 51.7335 -0.305618 -1.54608 0
M  V30 543 C 52.6435 0.57778 -2.27374 0
M  V30 544 C 53.6595 1.14451 -1.31061 0
M  V30 545 O 54.8355 1.16831 -1.6405 0
M  V30 546 C 51.9005 1.73123 -3.00382 0
M  V30 547 C 50.9615 1.19812 -4.12242 0
M  V30 548 C 50.1945 2.2966 -4.81759 0
M  V30 549 O 50.4175 3.49651 -4.50666 0
M  V30 550 O 49.3515 1.96091 -5.69062 0
M  V30 551 H 53.1775 -0.012624 -3.03697 0
M  V30 552 H 50.7625 -0.0719184 -1.49227 0
M  V30 553 H 52.6445 2.40315 -3.4616 0
M  V30 554 H 51.3195 2.30815 -2.26949 0
M  V30 555 H 50.2265 0.491798 -3.70853 0
M  V30 556 H 51.5595 0.666566 -4.87666 0
M  V30 557 N 53.2116 1.57565 -0.0334293 0
M  V30 558 C 54.1216 2.13943 0.962572 0
M  V30 559 C 55.1376 1.09276 1.35406 0
M  V30 560 O 56.3136 1.41355 1.4346 0
M  V30 561 C 53.3786 2.65887 2.22497 0
M  V30 562 C 52.4396 3.85286 1.8935 0
M  V30 563 C 51.6726 4.34743 3.09571 0
M  V30 564 O 51.8956 3.83352 4.22371 0
M  V30 565 O 50.8296 5.26538 2.91618 0
M  V30 566 H 54.6556 2.99333 0.513169 0
M  V30 567 H 52.2406 1.4822 0.18743 0
M  V30 568 H 54.1226 2.99346 2.96598 0
M  V30 569 H 52.7976 1.83578 2.6661 0
M  V30 570 H 51.7046 3.56746 1.1262 0
M  V30 571 H 53.0376 4.68771 1.5005 0
M  V30 572 N 54.6897 -0.239769 1.55765 0
M  V30 573 C 55.6197 -1.30052 1.9393 0
M  V30 574 C 56.6007 -1.49839 0.805132 0
M  V30 575 O 57.7857 -1.62328 1.06599 0
M  V30 576 C 54.9157 -2.65391 2.2402 0
M  V30 577 C 53.8697 -2.60289 3.39755 0
M  V30 578 C 53.1957 -3.99489 3.55405 0
M  V30 579 C 54.4957 -2.16654 4.75246 0
M  V30 580 H 56.1897 -0.983573 2.82783 0
M  V30 581 H 53.7357 -0.471701 1.36055 0
M  V30 582 H 55.6887 -3.3974 2.49308 0
M  V30 583 H 54.4127 -2.98736 1.32 0
M  V30 584 H 53.0717 -1.88398 3.14487 0
M  V30 585 H 52.7197 -4.30112 2.60793 0
M  V30 586 H 52.4197 -3.96962 4.33238 0
M  V30 587 H 53.9437 -4.75528 3.83022 0
M  V30 588 H 55.3577 -2.80737 4.99859 0
M  V30 589 H 53.7547 -2.25223 5.56232 0
M  V30 590 H 54.8247 -1.11835 4.71827 0
M  V30 591 N 56.1678 -1.49265 -0.50573 0
M  V30 592 C 57.5788 -1.51769 -1.08734 0
M  V30 593 C 57.9298 -0.301192 -1.93874 0
M  V30 594 O 57.0548 0.589456 -2.08217 0
M  V30 595 C 57.6498 -2.75017 -1.97867 0
M  V30 596 C 56.2088 -2.80314 -2.51199 0
M  V30 597 C 55.3558 -2.4562 -1.28709 0
M  V30 598 H 58.3068 -1.56031 -0.289855 0
M  V30 599 H 58.3278 -2.5491 -2.82491 0
M  V30 600 H 57.8398 -3.63539 -1.35873 0
M  V30 601 H 55.9408 -1.96061 -3.16845 0
M  V30 602 H 56.0538 -3.82366 -2.88675 0
M  V30 603 H 54.4178 -1.97297 -1.61078 0
M  V30 604 H 55.2008 -3.36411 -0.6843 0
M  V30 605 N 57.6459 0.756429 -1.3826 0
M  V30 606 C 58.5559 1.9009 -1.37488 0
M  V30 607 C 59.5719 1.71855 -0.272366 0
M  V30 608 O 60.7479 1.94827 -0.510318 0
M  V30 609 C 57.8129 3.25421 -1.19592 0
M  V30 610 C 56.8739 3.56202 -2.39622 0
M  V30 611 C 56.1069 4.85075 -2.2257 0
M  V30 612 O 56.3299 5.57246 -1.21793 0
M  V30 613 O 55.2639 5.15269 -3.11098 0
M  V30 614 H 59.0899 1.93695 -2.33914 0
M  V30 615 H 56.6749 0.901313 -1.1915 0
M  V30 616 H 58.5569 4.06337 -1.11661 0
M  V30 617 H 57.2319 3.22634 -0.262486 0
M  V30 618 H 56.1389 2.75458 -2.53128 0
M  V30 619 H 57.4719 3.63747 -3.31586 0
M  V30 620 N 59.124 1.23083 0.984299 0
M  V30 621 C 60.071 1.00854 2.07598 0
M  V30 622 C 61.041 -0.0726709 1.65941 0
M  V30 623 O 62.226 0.0786535 1.90638 0
M  V30 624 C 59.366 0.601645 3.39815 0
M  V30 625 C 58.479 1.75456 3.94765 0
M  V30 626 C 57.614 1.29482 5.15177 0
M  V30 627 C 56.653 2.41873 5.62284 0
M  V30 628 N 55.79 1.96885 6.73929 0
M  V30 629 H 60.63 1.943 2.25946 0
M  V30 630 H 58.167 0.968001 1.10762 0
M  V30 631 H 60.125 0.346854 4.15756 0
M  V30 632 H 58.755 -0.295803 3.21442 0
M  V30 633 H 57.807 2.12346 3.15616 0
M  V30 634 H 59.119 2.59965 4.25699 0
M  V30 635 H 58.273 0.997923 5.98437 0
M  V30 636 H 57.012 0.420046 4.85888 0
M  V30 637 H 56.017 2.72342 4.77608 0
M  V30 638 H 57.242 3.29881 5.93595 0
M  V30 639 H 55.188 1.11782 6.46406 0
M  V30 640 H 55.105 2.74956 7.04227 0
M  V30 641 H 56.373 1.70289 7.60672 0
M  V30 642 N 60.6021 -1.18246 1.0419 0
M  V30 643 C 61.8321 -1.91916 0.764961 0
M  V30 644 C 62.2401 -1.76485 -0.681898 0
M  V30 645 O 61.5831 -1.09275 -1.47664 0
M  V30 646 C 61.6451 -3.4373 1.05309 0
M  V30 647 C 61.3091 -3.8294 2.4941 0
M  V30 648 C 62.3061 -3.86621 3.47592 0
M  V30 649 C 59.9911 -4.142 2.84155 0
M  V30 650 C 61.9851 -4.21013 4.78568 0
M  V30 651 C 59.6721 -4.48262 4.15337 0
M  V30 652 C 60.6701 -4.51645 5.12353 0
M  V30 653 O 60.3581 -4.84911 6.41183 0
M  V30 654 H 60.0901 -0.61606 0.278292 0
M  V30 655 H 62.6441 -1.50947 1.39299 0
M  V30 656 H 60.8741 -3.84946 0.367933 0
M  V30 657 H 62.5631 -3.9865 0.763752 0
M  V30 658 H 63.3291 -3.62607 3.22089 0
M  V30 659 H 59.2081 -4.10743 2.09311 0
M  V30 660 H 62.7521 -4.23568 5.54289 0
M  V30 661 H 58.6491 -4.71737 4.40607 0
M  V30 662 H 59.4171 -5.02809 6.45852 0
M  V30 663 N 62.0802 -0.821533 -1.34494 0
M  V30 664 C 63.3082 -0.421884 -2.02553 0
M  V30 665 C 63.7232 0.971745 -1.61872 0
M  V30 666 O 63.0802 1.62864 -0.823496 0
M  V30 667 C 63.1312 -0.51285 -3.57844 0
M  V30 668 O 62.8522 -1.85155 -3.97051 0
M  V30 669 C 64.3532 -0.107921 -4.43169 0
M  V30 670 H 61.5732 -0.169482 -0.649243 0
M  V30 671 H 64.1172 -1.1093 -1.71798 0
M  V30 672 H 62.2722 0.126474 -3.87193 0
M  V30 673 H 62.6862 -1.82482 -4.91732 0
M  V30 674 H 64.1602 -0.222657 -5.51551 0
M  V30 675 H 64.6372 0.948401 -4.28838 0
M  V30 676 H 65.2432 -0.720989 -4.19144 0
M  V30 677 N 63.5583 1.46682 -0.576371 0
M  V30 678 C 64.4903 2.28341 0.198231 0
M  V30 679 C 65.5033 1.38141 0.861453 0
M  V30 680 O 66.6923 1.62797 0.732082 0
M  V30 681 C 63.7923 3.12986 1.29972 0
M  V30 682 C 62.9653 4.31271 0.729639 0
M  V30 683 C 62.0243 4.97363 1.71803 0
M  V30 684 O 61.0503 5.55156 1.25658 0
M  V30 685 N 62.2523 4.93796 3.05198 0
M  V30 686 H 65.0173 2.9546 -0.502324 0
M  V30 687 H 62.5783 1.56525 -0.413715 0
M  V30 688 H 64.5703 3.54066 1.96008 0
M  V30 689 H 63.1403 2.47984 1.90323 0
M  V30 690 H 62.3603 3.94052 -0.108012 0
M  V30 691 H 63.6483 5.07739 0.328438 0
M  V30 692 H 63.0463 4.48077 3.45317 0
M  V30 693 H 61.6033 5.38837 3.6674 0
M  V30 694 N 65.0364 0.313813 1.54444 0
M  V30 695 C 66.4524 -0.0391619 1.59552 0
M  V30 696 C 66.6524 -1.51322 1.33056 0
M  V30 697 O 65.7084 -2.26782 1.11022 0
M  V30 698 C 67.0214 0.370302 2.98411 0
M  V30 699 C 68.5694 0.320139 3.11358 0
M  V30 700 C 69.0444 0.704617 4.52547 0
M  V30 701 N 70.5354 0.657645 4.58508 0
M  V30 702 C 71.2704 0.927453 5.6585 0
M  V30 703 N 70.7664 1.26389 6.81174 0
M  V30 704 N 72.5594 0.853662 5.5558 0
M  V30 705 H 64.7104 1.27433 1.69925 0
M  V30 706 H 66.9734 0.517511 0.794284 0
M  V30 707 H 66.6794 1.39694 3.22767 0
M  V30 708 H 66.5534 -0.269619 3.76235 0
M  V30 709 H 68.9404 -0.697275 2.86744 0
M  V30 710 H 69.0214 0.99486 2.35661 0
M  V30 711 H 68.6654 1.7199 4.77893 0
M  V30 712 H 68.5954 0.00768843 5.26599 0
M  V30 713 H 71.0864 0.409067 3.75679 0
M  V30 714 H 71.3994 1.4554 7.58972 0
M  V30 715 H 69.7444 1.30206 6.82694 0
M  V30 716 H 72.9354 0.590383 4.64362 0
M  V30 717 H 73.1084 1.0673 6.3915 0
M  V30 718 N 66.5145 -1.57545 0.0417849 0
M  V30 719 C 67.9305 -1.56467 -0.314704 0
M  V30 720 C 68.1305 -1.04859 -1.72066 0
M  V30 721 O 67.1865 -0.700983 -2.42575 0
M  V30 722 C 68.4995 -3.00317 -0.15174 0
M  V30 723 C 70.0475 -3.12201 -0.223553 0
M  V30 724 C 70.5225 -4.57913 -0.0892295 0
M  V30 725 N 72.0135 -4.6297 -0.145808 0
M  V30 726 C 72.7485 -5.73362 -0.0658459 0
M  V30 727 N 72.2445 -6.92769 0.0659282 0
M  V30 728 N 74.0375 -5.6197 -0.12075 0
M  V30 729 H 66.1885 -1.89416 0.961014 0
M  V30 730 H 68.4515 -0.871862 0.372237 0
M  V30 731 H 68.1575 -3.42073 0.817254 0
M  V30 732 H 68.0315 -3.65892 -0.916692 0
M  V30 733 H 70.4185 -2.70349 -1.18301 0
M  V30 734 H 70.4995 -2.49323 0.571994 0
M  V30 735 H 70.1435 -5.00448 0.866867 0
M  V30 736 H 70.0735 -5.18786 -0.903802 0
M  V30 737 H 72.5645 -3.7709 -0.247286 0
M  V30 738 H 72.8775 -7.72707 0.119905 0
M  V30 739 H 71.2225 -6.94927 0.100885 0
M  V30 740 H 74.4135 -4.67572 -0.222187 0
M  V30 741 H 74.5865 -6.47977 -0.0549735 0
M  V30 742 N 67.9926 0.231505 -1.5589 0
M  V30 743 C 69.4086 0.580748 -1.48659 0
M  V30 744 C 69.6086 1.87617 -0.73498 0
M  V30 745 O 68.6646 2.51046 -0.270586 0
M  V30 746 C 69.9776 0.669202 -2.93159 0
M  V30 747 C 71.5256 0.760499 -3.03621 0
M  V30 748 C 72.0006 0.880383 -4.49459 0
M  V30 749 N 73.4916 0.944861 -4.53461 0
M  V30 750 C 74.2266 1.05716 -5.63571 0
M  V30 751 N 73.7226 1.13403 -6.83456 0
M  V30 752 N 75.5156 1.09152 -5.514 0
M  V30 753 H 67.6666 -0.618695 -2.03189 0
M  V30 754 H 69.9296 -0.215728 -0.923128 0
M  V30 755 H 69.6356 -0.212904 -3.51055 0
M  V30 756 H 69.5096 1.5361 -3.44505 0
M  V30 757 H 71.8966 1.63305 -2.45796 0
M  V30 758 H 71.9776 -0.131864 -2.5546 0
M  V30 759 H 71.6216 0.0123284 -5.07899 0
M  V30 760 H 71.5516 1.78802 -4.95316 0
M  V30 761 H 74.0426 0.896176 -3.6712 0
M  V30 762 H 74.3556 1.21921 -7.63122 0
M  V30 763 H 72.7006 1.10333 -6.86186 0
M  V30 764 H 75.8916 1.02805 -4.56671 0
M  V30 765 H 76.0646 1.17558 -6.37247 0
M  V30 766 N 69.4707 1.49531 0.497807 0
M  V30 767 C 70.8817 1.52344 1.07927 0
M  V30 768 C 71.2327 0.311469 1.93712 0
M  V30 769 O 70.3577 -0.578405 2.08527 0
M  V30 770 C 70.9527 2.76062 1.96405 0
M  V30 771 C 69.5117 2.81643 2.49709 0
M  V30 772 C 68.6587 2.46299 1.27404 0
M  V30 773 H 71.6097 1.56182 0.281576 0
M  V30 774 H 71.6307 2.56405 2.81135 0
M  V30 775 H 71.1427 3.64254 1.33943 0
M  V30 776 H 69.2437 1.97739 3.15801 0
M  V30 777 H 69.3567 3.83891 2.86643 0
M  V30 778 H 67.7207 1.98148 1.60029 0
M  V30 779 H 68.5037 3.36769 0.66645 0
M  V30 780 N 70.9488 -0.749086 1.3866 0
M  V30 781 C 72.1948 -1.50959 1.36319 0
M  V30 782 C 72.5498 -1.92347 -0.0452451 0
M  V30 783 O 71.8428 -1.6289 -1.00884 0
M  V30 784 C 72.0368 -2.7712 2.25697 0
M  V30 785 C 71.8658 -2.48067 3.7509 0
M  V30 786 C 70.6358 -2.41062 4.44091 0
M  V30 787 C 72.8338 -2.14544 4.67414 0
M  V30 788 N 70.8158 -2.04331 5.78897 0
M  V30 789 C 72.1868 -1.88141 5.90765 0
M  V30 790 C 74.2418 -2.00892 4.55573 0
M  V30 791 C 72.9448 -1.49463 7.036 0
M  V30 792 C 74.9708 -1.63616 5.68317 0
M  V30 793 C 74.3328 -1.38088 6.90732 0
M  V30 794 H 70.4318 -0.551804 0.554108 0
M  V30 795 H 73.0158 -0.871886 1.74087 0
M  V30 796 H 71.1868 -3.38693 1.9011 0
M  V30 797 H 72.9188 -3.4321 2.1445 0
M  V30 798 H 69.6738 -2.57685 3.9736 0
M  V30 799 H 70.0978 -1.88598 6.502 0
M  V30 800 H 74.7398 -2.19301 3.61479 0
M  V30 801 H 72.4578 -1.29794 7.97608 0
M  V30 802 H 76.0438 -1.53678 5.61137 0
M  V30 803 H 74.9238 -1.09674 7.76493 0
M  V30 804 N 72.4269 -1.23603 -0.977757 0
M  V30 805 C 73.3569 -1.04401 -2.0886 0
M  V30 806 C 74.3379 0.0399052 -1.70053 0
M  V30 807 O 75.5229 -0.125246 -1.93796 0
M  V30 808 C 72.6529 -0.637269 -3.41403 0
M  V30 809 C 71.6069 -1.66883 -3.94124 0
M  V30 810 C 70.9329 -1.11745 -5.22893 0
M  V30 811 C 72.2329 -3.06247 -4.23096 0
M  V30 812 H 73.9269 -1.97316 -2.25182 0
M  V30 813 H 71.4729 -0.950096 -1.08209 0
M  V30 814 H 73.4259 -0.48998 -4.18542 0
M  V30 815 H 72.1499 0.327557 -3.24953 0
M  V30 816 H 70.8089 -1.80416 -3.19133 0
M  V30 817 H 70.4569 -0.143527 -5.02795 0
M  V30 818 H 70.1569 -1.80672 -5.59134 0
M  V30 819 H 71.6809 -0.982067 -6.02651 0
M  V30 820 H 73.0949 -2.96001 -4.90975 0
M  V30 821 H 71.4919 -3.72436 -4.70544 0
M  V30 822 H 72.5619 -3.55041 -3.30263 0
M  V30 823 N 73.905 1.17692 -1.04816 0
M  V30 824 C 75.13 1.92327 -0.776207 0
M  V30 825 C 75.555 1.76082 0.661581 0
M  V30 826 O 74.913 1.076 1.45917 0
M  V30 827 C 74.961 3.41539 -1.15687 0
M  V30 828 O 74.065 4.11402 -0.286775 0
M  V30 829 H 73.406 0.599735 -0.284981 0
M  V30 830 H 75.936 1.49201 -1.4 0
M  V30 831 H 75.946 3.92269 -1.12202 0
M  V30 832 H 74.621 3.52684 -2.20425 0
M  V30 833 H 73.198 3.70939 -0.381903 0
M  V30 834 N 75.3831 0.828654 1.34056 0
M  V30 835 C 76.3151 0.212052 2.28217 0
M  V30 836 C 77.3281 -0.601362 1.51286 0
M  V30 837 O 78.5171 -0.430104 1.73241 0
M  V30 838 C 75.6171 -0.72088 3.31144 0
M  V30 839 C 74.7901 0.0509587 4.3737 0
M  V30 840 C 73.8491 -0.803766 5.20025 0
M  V30 841 O 72.8751 -0.246667 5.68665 0
M  V30 842 N 74.0771 -2.1227 5.40298 0
M  V30 843 H 76.8421 1.02105 2.81771 0
M  V30 844 H 74.4031 0.686153 1.46641 0
M  V30 845 H 76.3951 -1.29742 3.8334 0
M  V30 846 H 74.9651 -1.43061 2.77943 0
M  V30 847 H 74.1851 0.808831 3.85813 0
M  V30 848 H 75.4731 0.582065 5.0546 0
M  V30 849 H 74.8711 -2.59898 5.02464 0
M  V30 850 H 73.4281 -2.64796 5.95589 0
M  V30 851 N 76.8612 -1.46375 0.584142 0
M  V30 852 C 77.7912 -2.33103 -0.136037 0
M  V30 853 C 78.7722 -1.45431 -0.882255 0
M  V30 854 O 79.9572 -1.74246 -0.857434 0
M  V30 855 C 77.0872 -3.27731 -1.14933 0
M  V30 856 C 76.0412 -4.24855 -0.517862 0
M  V30 857 C 75.3672 -5.09001 -1.63773 0
M  V30 858 C 76.6672 -5.19439 0.545886 0
M  V30 859 H 78.3612 -2.93568 0.588086 0
M  V30 860 H 75.9072 -1.41166 0.284259 0
M  V30 861 H 77.8602 -3.87261 -1.66153 0
M  V30 862 H 76.5842 -2.65377 -1.90375 0
M  V30 863 H 75.2432 -3.6659 -0.0267361 0
M  V30 864 H 74.8912 -4.43031 -2.38185 0
M  V30 865 H 74.5912 -5.74777 -1.22085 0
M  V30 866 H 76.1152 -5.71396 -2.15266 0
M  V30 867 H 77.5292 -5.73177 0.118704 0
M  V30 868 H 75.9262 -5.93566 0.88317 0
M  V30 869 H 76.9962 -4.63285 1.43162 0
M  V30 870 N 78.3393 -0.321999 -1.54275 0
M  V30 871 C 79.5643 0.285791 -2.05422 0
M  V30 872 C 79.9893 1.45124 -1.19669 0
M  V30 873 O 79.3473 1.80132 -0.205441 0
M  V30 874 C 79.3953 0.69956 -3.53749 0
M  V30 875 O 78.4993 1.8021 -3.70942 0
M  V30 876 H 77.8403 0.0518962 -0.661969 0
M  V30 877 H 80.3703 -0.469954 -1.9913 0
M  V30 878 H 80.3803 0.982649 -3.9599 0
M  V30 879 H 79.0553 -0.152864 -4.15619 0
M  V30 880 H 77.6323 1.51794 -3.40607 0
M  V30 881 N 79.8174 1.5752 -0.0501392 0
M  V30 882 C 80.7654 2.12651 0.942459 0
M  V30 883 C 81.7594 1.05807 1.32292 0
M  V30 884 O 82.9654 1.24217 1.3027 0
M  V30 885 H 79.3404 0.679673 0.321789 0
M  V30 886 H 81.3114 2.94951 0.452356 0
M  V30 887 C 80.0604 2.68565 2.20836 0
M  V30 888 H 79.3834 3.50439 1.92439 0
M  V30 889 H 80.8234 3.10761 2.8845 0
M  V30 890 C 79.2824 1.62291 2.95234 0
M  V30 891 O 79.8124 1.03508 3.88135 0
M  V30 892 N 78.0184 1.33836 2.57946 0
M  V30 893 H 77.5654 1.81826 1.82475 0
M  V30 894 H 77.5234 0.629595 3.08032 0
M  V30 895 N 81.2955 -0.223234 1.56011 0
M  V30 896 C 82.2425 -1.27664 1.92277 0
M  V30 897 C 83.2125 -1.46659 0.779763 0
M  V30 898 O 84.3975 -1.60256 1.03551 0
M  V30 899 C 81.5375 -2.62234 2.24338 0
M  V30 900 C 80.6505 -2.51051 3.51564 0
M  V30 901 C 79.7855 -3.78133 3.7308 0
M  V30 902 C 78.8245 -3.61665 4.93827 0
M  V30 903 N 77.9615 -4.80693 5.11741 0
M  V30 904 H 82.8015 -0.960358 2.82101 0
M  V30 905 H 80.3385 -0.462901 1.39627 0
M  V30 906 H 82.2965 -3.40596 2.40936 0
M  V30 907 H 80.9265 -2.91961 1.3769 0
M  V30 908 H 79.9785 -1.64132 3.43169 0
M  V30 909 H 81.2905 -2.34803 4.40079 0
M  V30 910 H 80.4445 -4.64938 3.89766 0
M  V30 911 H 79.1835 -3.97304 2.82844 0
M  V30 912 H 78.1885 -2.73244 4.77093 0
M  V30 913 H 79.4135 -3.43966 5.85546 0
M  V30 914 H 77.3595 -5.00181 4.24446 0
M  V30 915 H 77.2765 -4.67165 5.94384 0
M  V30 916 H 78.5445 -5.6893 5.3286 0
M  V30 917 N 82.7736 -1.49793 -0.48987 0
M  V30 918 C 83.7206 -1.67281 -1.59014 0
M  V30 919 C 84.6906 -0.514177 -1.57941 0
M  V30 920 O 85.8756 -0.742533 -1.75759 0
M  V30 921 C 83.0156 -1.75569 -2.97102 0
M  V30 922 C 82.1286 -3.0281 -3.08107 0
M  V30 923 C 81.2636 -3.02008 -4.36995 0
M  V30 924 C 80.3026 -4.23782 -4.41673 0
M  V30 925 N 79.4396 -4.20826 -5.62005 0
M  V30 926 H 84.2796 -2.61224 -1.43409 0
M  V30 927 H 81.8166 -1.29508 -0.697565 0
M  V30 928 H 83.7746 -1.78354 -3.77155 0
M  V30 929 H 82.4046 -0.850827 -3.11385 0
M  V30 930 H 81.4566 -3.09584 -2.21047 0
M  V30 931 H 82.7686 -3.92801 -3.07423 0
M  V30 932 H 81.9226 -3.03418 -5.25378 0
M  V30 933 H 80.6616 -2.09815 -4.4026 0
M  V30 934 H 79.6666 -4.22604 -3.5169 0
M  V30 935 H 80.8916 -5.17181 -4.40115 0
M  V30 936 H 78.8376 -3.31476 -5.66091 0
M  V30 937 H 78.7546 -5.04564 -5.62984 0
M  V30 938 H 80.0226 -4.26355 -6.52565 0
M  V30 939 N 84.2517 0.741722 -1.39055 0
M  V30 940 C 85.1837 1.8657 -1.33133 0
M  V30 941 C 86.1967 1.61001 -0.241329 0
M  V30 942 O 87.3857 1.7136 -0.499784 0
M  V30 943 C 84.4857 3.22457 -1.04283 0
M  V30 944 C 83.6587 3.75435 -2.24427 0
M  V30 945 C 82.7177 4.89867 -1.92138 0
M  V30 946 O 81.7437 5.03879 -2.64754 0
M  V30 947 N 82.9457 5.73738 -0.88347 0
M  V30 948 H 85.7107 1.92156 -2.29991 0
M  V30 949 H 83.2717 0.922172 -1.3307 0
M  V30 950 H 85.2637 3.9657 -0.807128 0
M  V30 951 H 83.8337 3.12181 -0.161807 0
M  V30 952 H 83.0537 2.92751 -2.6399 0
M  V30 953 H 84.3417 4.07563 -3.04581 0
M  V30 954 H 83.7397 5.64999 -0.281517 0
M  V30 955 H 82.2967 6.47947 -0.707662 0
M  V30 956 N 85.7298 1.2412 0.971189 0
M  V30 957 C 86.9548 1.10667 1.75407 0
M  V30 958 C 87.3798 -0.337048 1.85056 0
M  V30 959 O 86.7378 -1.24396 1.31892 0
M  V30 960 C 86.7858 1.74726 3.15441 0
M  V30 961 O 85.8898 1.01566 3.99697 0
M  V30 962 H 85.2308 0.387341 0.539317 0
M  V30 963 H 87.7608 1.64358 1.2185 0
M  V30 964 H 87.7708 1.80341 3.6598 0
M  V30 965 H 86.4458 2.79773 3.07734 0
M  V30 966 H 85.0228 1.03713 3.58187 0
M  V30 967 N 87.2079 -1.17134 1.05439 0
M  V30 968 C 88.1559 -2.23289 0.651511 0
M  V30 969 C 89.1499 -1.66186 -0.328411 0
M  V30 970 O 90.3559 -1.78949 -0.194206 0
M  V30 971 H 86.7309 -0.726938 0.192523 0
M  V30 972 H 88.7019 -2.54565 1.55689 0
M  V30 973 C 87.4509 -3.47671 0.0448436 0
M  V30 974 H 86.7739 -3.91918 0.78996 0
M  V30 975 H 88.2139 -4.2353 -0.19964 0
M  V30 976 C 86.6729 -3.14453 -1.20918 0
M  V30 977 O 87.2029 -3.29459 -2.29825 0
M  V30 978 N 85.4089 -2.68657 -1.10779 0
M  V30 979 H 84.9559 -2.56646 -0.221526 0
M  V30 980 H 84.9139 -2.46804 -1.9477 0
M  V30 981 N 88.686 -0.835752 -1.33615 0
M  V30 982 C 89.914 -0.443344 -2.02094 0
M  V30 983 C 90.329 0.954522 -1.62894 0
M  V30 984 O 89.686 1.61982 -0.840723 0
M  V30 985 C 89.737 -0.550775 -3.5728 0
M  V30 986 O 89.458 -1.89356 -3.95065 0
M  V30 987 C 90.959 -0.154919 -4.43029 0
M  V30 988 H 88.179 -0.176359 -0.647409 0
M  V30 989 H 90.723 -1.12746 -1.70612 0
M  V30 990 H 88.878 0.0853997 -3.87306 0
M  V30 991 H 89.292 -1.87687 -4.89769 0
M  V30 992 H 90.766 -0.281144 -5.51284 0
M  V30 993 H 91.243 0.902863 -4.2982 0
M  V30 994 H 91.849 -0.765404 -4.18356 0
M  V30 995 N 90.1641 1.46063 -0.591896 0
M  V30 996 C 91.4121 2.01938 -0.0808391 0
M  V30 997 C 91.7331 1.46475 1.28725 0
M  V30 998 O 91.0031 0.652944 1.84698 0
M  V30 999 H 89.5831 0.746516 -0.0268938 0
M  V30 1000 H 92.2451 1.79055 -0.769752 0
M  V30 1001 H 91.3411 3.12094 -0.0187578 0
M  V30 1002 N 91.6422 0.330177 1.54103 0
M  V30 1003 C 93.0582 -0.0222371 1.59585 0
M  V30 1004 C 93.2582 -1.49902 1.34654 0
M  V30 1005 O 92.3142 -2.25592 1.13421 0
M  V30 1006 C 93.6272 0.401932 2.98002 0
M  V30 1007 C 95.1752 0.353145 3.11001 0
M  V30 1008 C 95.6502 0.752576 4.51775 0
M  V30 1009 N 97.1412 0.706239 4.57784 0
M  V30 1010 C 97.8762 0.987417 5.64834 0
M  V30 1011 N 97.3722 1.33607 6.79795 0
M  V30 1012 N 99.1652 0.91254 5.54643 0
M  V30 1013 H 91.3162 1.29228 1.68564 0
M  V30 1014 H 93.5792 0.525906 0.78875 0
M  V30 1015 H 93.2852 1.4311 3.21267 0
M  V30 1016 H 93.1592 -0.229699 3.765 0
M  V30 1017 H 95.5462 -0.666822 2.87467 0
M  V30 1018 H 95.6272 1.0198 2.34593 0
M  V30 1019 H 95.2712 1.77049 4.76042 0
M  V30 1020 H 95.2012 0.0635409 5.26562 0
M  V30 1021 H 97.6922 0.44889 3.75224 0
M  V30 1022 H 98.0052 1.53582 7.57385 0
M  V30 1023 H 96.3502 1.37439 6.81275 0
M  V30 1024 H 99.5412 0.639601 4.6371 0
M  V30 1025 H 99.7142 1.13503 6.37982 0
M  V30 1026 N 93.1203 -1.57491 0.0584922 0
M  V30 1027 C 94.3663 -1.93264 -0.614558 0
M  V30 1028 C 94.6993 -0.937717 -1.7006 0
M  V30 1029 O 93.9743 0.0351652 -1.94468 0
M  V30 1030 C 94.2573 -3.3938 -1.20386 0
M  V30 1031 C 94.1103 -4.49625 -0.125375 0
M  V30 1032 C 95.4293 -3.86039 -2.11334 0
M  V30 1033 H 92.5483 -0.702791 -0.221933 0
M  V30 1034 H 95.1903 -1.8961 0.12175 0
M  V30 1035 H 93.3403 -3.42626 -1.83139 0
M  V30 1036 H 95.0123 -4.58506 0.506971 0
M  V30 1037 H 93.2553 -4.30354 0.545672 0
M  V30 1038 H 93.9263 -5.48967 -0.577861 0
M  V30 1039 H 96.4023 -3.84716 -1.58534 0
M  V30 1040 H 95.2783 -4.88914 -2.49507 0
M  V30 1041 H 95.5393 -3.23215 -3.01636 0
M  V30 1042 N 94.5984 0.214957 -1.56127 0
M  V30 1043 C 95.5304 1.29004 -1.89448 0
M  V30 1044 C 96.5434 1.42716 -0.783326 0
M  V30 1045 O 97.7324 1.43496 -1.06166 0
M  V30 1046 C 94.8324 2.66482 -2.09381 0
M  V30 1047 C 94.0054 2.74633 -3.40434 0
M  V30 1048 C 93.0644 3.9317 -3.49719 0
M  V30 1049 O 92.0904 3.812 -4.227 0
M  V30 1050 N 93.2924 5.07765 -2.81346 0
M  V30 1051 H 96.0574 1.00743 -2.82261 0
M  V30 1052 H 93.6184 0.40497 -1.56753 0
M  V30 1053 H 95.6104 3.44173 -2.12901 0
M  V30 1054 H 94.1804 2.87314 -1.23163 0
M  V30 1055 H 93.4004 1.83368 -3.48955 0
M  V30 1056 H 94.6884 2.77054 -4.26754 0
M  V30 1057 H 94.0864 5.20386 -2.21843 0
M  V30 1058 H 92.6434 5.83474 -2.90519 0
M  V30 1059 N 96.0765 1.50051 0.48192 0
M  V30 1060 C 97.4875 1.5348 1.06305 0
M  V30 1061 C 97.8385 0.331997 1.93371 0
M  V30 1062 O 96.9635 -0.556256 2.09129 0
M  V30 1063 C 97.5585 2.7813 1.93466 0
M  V30 1064 C 96.1175 2.84275 2.46707 0
M  V30 1065 C 95.2645 2.47637 1.24785 0
M  V30 1066 H 98.2155 1.56472 0.264995 0
M  V30 1067 H 98.2365 2.59372 2.78399 0
M  V30 1068 H 97.7485 3.65654 1.30072 0
M  V30 1069 H 95.8495 2.01077 3.13686 0
M  V30 1070 H 95.9625 3.8691 2.82555 0
M  V30 1071 H 94.3265 1.99835 1.57918 0
M  V30 1072 H 95.1095 3.37457 0.630694 0
M  V30 1073 N 97.5546 -0.734337 1.39446 0
M  V30 1074 C 98.7796 -1.52866 1.40167 0
M  V30 1075 C 99.2046 -1.881 -0.00171513 0
M  V30 1076 O 98.5626 -1.51957 -0.988879 0
M  V30 1077 C 98.6106 -2.79235 2.28167 0
M  V30 1078 O 97.7146 -3.75185 1.71201 0
M  V30 1079 H 97.0556 -0.461618 0.477289 0
M  V30 1080 H 99.5856 -0.905949 1.8345 0
M  V30 1081 H 99.5956 -3.27963 2.42702 0
M  V30 1082 H 98.2706 -2.52923 3.30156 0
M  V30 1083 H 96.8476 -3.33958 1.65912 0
M  V30 1084 N 99.0327 -1.24633 -0.964593 0
M  V30 1085 C 99.9797 -1.04144 -2.05968 0
M  V30 1086 C 100.95 0.046262 -1.66036 0
M  V30 1087 O 102.135 -0.108972 -1.90489 0
M  V30 1088 C 99.2747 -0.65563 -3.38815 0
M  V30 1089 C 98.3877 -1.81714 -3.91923 0
M  V30 1090 C 97.5227 -1.37662 -5.13052 0
M  V30 1091 C 96.5617 -2.50788 -5.58365 0
M  V30 1092 N 95.6987 -2.07582 -6.70712 0
M  V30 1093 H 100.539 -1.9787 -2.22827 0
M  V30 1094 H 98.0757 -0.9855 -1.09208 0
M  V30 1095 H 100.034 -0.412954 -4.15151 0
M  V30 1096 H 98.6637 0.244627 -3.21872 0
M  V30 1097 H 97.7157 -2.1734 -3.12198 0
M  V30 1098 H 99.0277 -2.66705 -4.21509 0
M  V30 1099 H 98.1817 -1.093 -5.96773 0
M  V30 1100 H 96.9207 -0.497293 -4.85158 0
M  V30 1101 H 95.9257 -2.79906 -4.73215 0
M  V30 1102 H 97.1507 -3.39283 -5.88272 0
M  V30 1103 H 95.0967 -1.22051 -6.44546 0
M  V30 1104 H 95.0137 -2.86125 -6.99763 0
M  V30 1105 H 96.2817 -1.82369 -7.57867 0
M  V30 1106 N 100.511 1.16574 -1.06058 0
M  V30 1107 C 101.927 1.3904 -0.783585 0
M  V30 1108 C 102.127 1.91784 0.618145 0
M  V30 1109 O 101.183 2.11511 1.37911 0
M  V30 1110 C 102.496 2.37329 -1.84649 0
M  V30 1111 C 104.044 2.51018 -1.86973 0
M  V30 1112 C 104.519 3.52588 -2.92311 0
M  V30 1113 N 106.01 3.60113 -2.91329 0
M  V30 1114 C 106.745 4.38486 -3.69482 0
M  V30 1115 N 106.241 5.20302 -4.57447 0
M  V30 1116 N 108.034 4.33446 -3.57885 0
M  V30 1117 H 100.185 0.806725 -1.96483 0
M  V30 1118 H 102.448 0.417117 -0.851303 0
M  V30 1119 H 102.154 2.05663 -2.85299 0
M  V30 1120 H 102.028 3.36946 -1.6955 0
M  V30 1121 H 104.415 2.81989 -0.869827 0
M  V30 1122 H 104.496 1.51445 -2.0615 0
M  V30 1123 H 104.14 3.22354 -3.92492 0
M  V30 1124 H 104.07 4.51886 -2.70383 0
M  V30 1125 H 106.561 3.01707 -2.27555 0
M  V30 1126 H 106.874 5.77311 -5.13743 0
M  V30 1127 H 105.219 5.19653 -4.61503 0
M  V30 1128 H 108.41 3.68586 -2.88551 0
M  V30 1129 H 108.583 4.94279 -4.19037 0
M  V30 1130 N 101.989 0.842826 1.3317 0
M  V30 1131 C 102.936 0.276885 2.29133 0
M  V30 1132 C 103.906 -0.609527 1.54512 0
M  V30 1133 O 105.091 -0.546955 1.82792 0
M  V30 1134 C 102.231 -0.538707 3.40869 0
M  V30 1135 C 101.344 0.372169 4.30394 0
M  V30 1136 C 100.479 -0.454908 5.29249 0
M  V30 1137 C 99.5179 0.45411 6.10413 0
M  V30 1138 N 98.6549 -0.335075 7.013 0
M  V30 1139 H 103.495 1.10052 2.76934 0
M  V30 1140 H 101.032 0.554161 1.36262 0
M  V30 1141 H 102.99 -1.02709 4.0436 0
M  V30 1142 H 101.62 -1.32727 2.9425 0
M  V30 1143 H 100.672 0.97888 3.6759 0
M  V30 1144 H 101.984 1.0703 4.87182 0
M  V30 1145 H 101.138 -1.00695 5.98285 0
M  V30 1146 H 99.8769 -1.18646 4.73048 0
M  V30 1147 H 98.8819 1.01813 5.40291 0
M  V30 1148 H 100.107 1.18409 6.68697 0
M  V30 1149 H 98.0529 -1.04994 6.47543 0
M  V30 1150 H 97.9699 0.304262 7.55387 0
M  V30 1151 H 99.2379 -0.869224 7.74638 0
M  V30 1152 N 103.467 -1.45747 0.599634 0
M  V30 1153 C 104.878 -1.85853 0.177681 0
M  V30 1154 C 105.229 -1.50102 -1.26348 0
M  V30 1155 O 104.354 -0.923905 -1.95686 0
M  V30 1156 C 104.949 -3.37326 0.315688 0
M  V30 1157 C 103.508 -3.76365 -0.0515144 0
M  V30 1158 C 102.655 -2.69722 0.643822 0
M  V30 1159 H 105.606 -1.36661 0.806814 0
M  V30 1160 H 105.627 -3.77778 -0.454321 0
M  V30 1161 H 105.139 -3.63315 1.36468 0
M  V30 1162 H 103.24 -3.55993 -1.09999 0
M  V30 1163 H 103.353 -4.77916 0.336594 0
M  V30 1164 H 101.717 -2.54567 0.0822881 0
M  V30 1165 H 102.5 -2.98549 1.6948 0
M  V30 1166 N 104.945 -0.338344 -1.53925 0
M  V30 1167 C 105.875 0.51328 -2.27789 0
M  V30 1168 C 106.856 1.107 -1.29149 0
M  V30 1169 O 108.041 1.12937 -1.57984 0
M  V30 1170 C 105.171 1.66697 -3.04679 0
M  V30 1171 C 104.125 1.20183 -4.1078 0
M  V30 1172 C 103.451 2.44363 -4.75595 0
M  V30 1173 C 104.751 0.30605 -5.21403 0
M  V30 1174 H 106.445 -0.102883 -2.99223 0
M  V30 1175 H 103.991 -0.0509219 -1.4391 0
M  V30 1176 H 105.944 2.26915 -3.55088 0
M  V30 1177 H 104.668 2.30995 -2.30887 0
M  V30 1178 H 103.327 0.622499 -3.61276 0
M  V30 1179 H 102.975 3.07057 -3.98403 0
M  V30 1180 H 102.675 2.13925 -5.47275 0
M  V30 1181 H 104.199 3.05317 -5.28786 0
M  V30 1182 H 105.613 0.814929 -5.67478 0
M  V30 1183 H 104.01 0.0937929 -6.00027 0
M  V30 1184 H 105.08 -0.65921 -4.80398 0
M  V30 1185 N 106.423 1.57458 -0.0668435 0
M  V30 1186 C 107.834 1.80776 0.466558 0
M  V30 1187 C 108.185 0.980361 1.69951 0
M  V30 1188 O 107.31 0.201441 2.1546 0
M  V30 1189 C 107.905 3.27881 0.85321 0
M  V30 1190 C 106.464 3.52062 1.3315 0
M  V30 1191 C 105.611 2.75513 0.314264 0
M  V30 1192 H 108.562 1.5598 -0.292588 0
M  V30 1193 H 108.583 3.39659 1.715 0
M  V30 1194 H 108.095 3.88075 -0.0443439 0
M  V30 1195 H 106.196 2.97167 2.24772 0
M  V30 1196 H 106.309 4.60762 1.31285 0
M  V30 1197 H 104.673 2.42123 0.790492 0
M  V30 1198 H 105.456 3.38442 -0.575477 0
M  V30 1199 N 107.901 -0.206675 1.56239 0
M  V30 1200 C 109.312 -0.772383 1.69974 0
M  V30 1201 C 109.663 -1.84353 0.671436 0
M  V30 1202 O 108.788 -2.15695 -0.174491 0
M  V30 1203 C 109.383 -1.40779 3.08167 0
M  V30 1204 C 107.942 -1.92072 3.23706 0
M  V30 1205 C 107.089 -0.786347 2.65917 0
M  V30 1206 H 110.04 0.0182223 1.5869 0
M  V30 1207 H 110.061 -2.27696 3.04852 0
M  V30 1208 H 109.573 -0.627958 3.82986 0
M  V30 1209 H 107.674 -2.7281 2.53782 0
M  V30 1210 H 107.787 -2.09046 4.31087 0
M  V30 1211 H 106.151 -1.1976 2.24788 0
M  V30 1212 H 106.934 -0.0189416 3.43295 0
M  V30 1213 N 109.379 -1.50304 -0.473955 0
M  V30 1214 C 110.309 -1.71886 -1.58042 0
M  V30 1215 C 111.29 -0.567799 -1.60344 0
M  V30 1216 O 112.475 -0.806623 -1.76656 0
M  V30 1217 C 109.605 -1.81036 -2.96384 0
M  V30 1218 C 108.559 -2.962 -3.08949 0
M  V30 1219 C 107.885 -2.9049 -4.48909 0
M  V30 1220 C 109.185 -4.36752 -2.86434 0
M  V30 1221 H 110.879 -2.64527 -1.40234 0
M  V30 1222 H 108.425 -1.27295 -0.673201 0
M  V30 1223 H 110.378 -1.94719 -3.73714 0
M  V30 1224 H 109.102 -0.850147 -3.15341 0
M  V30 1225 H 107.761 -2.82164 -2.3405 0
M  V30 1226 H 107.409 -1.92321 -4.64781 0
M  V30 1227 H 107.109 -3.67802 -4.58253 0
M  V30 1228 H 108.633 -3.06218 -5.28264 0
M  V30 1229 H 110.047 -4.5133 -3.53517 0
M  V30 1230 H 108.444 -5.15493 -3.07225 0
M  V30 1231 H 109.514 -4.49321 -1.82316 0
M  V30 1232 N 110.857 0.726932 -1.39834 0
M  V30 1233 C 112.268 1.30558 -1.3346 0
M  V30 1234 C 112.619 1.962 -0.00273003 0
M  V30 1235 O 111.744 1.96826 0.899371 0
M  V30 1236 C 112.339 2.37404 -2.41713 0
M  V30 1237 C 110.898 2.90921 -2.38835 0
M  V30 1238 C 110.045 1.64578 -2.2318 0
M  V30 1239 H 112.996 0.523862 -1.49804 0
M  V30 1240 H 113.017 3.17984 -2.08966 0
M  V30 1241 H 112.529 1.89599 -3.38635 0
M  V30 1242 H 110.63 3.42985 -1.45575 0
M  V30 1243 H 110.743 3.43487 -3.33997 0
M  V30 1244 H 109.107 1.89219 -1.70494 0
M  V30 1245 H 109.89 1.18814 -3.22084 0
M  V30 1246 N 112.336 1.25143 0.95797 0
M  V30 1247 C 113.747 1.08851 1.51685 0
M  V30 1248 C 114.098 -0.33687 1.93286 0
M  V30 1249 O 113.223 -1.22644 1.7829 0
M  V30 1250 C 113.818 1.96978 2.75654 0
M  V30 1251 C 112.377 1.84881 3.27866 0
M  V30 1252 C 111.524 1.91329 2.0072 0
M  V30 1253 H 114.475 1.38478 0.77522 0
M  V30 1254 H 114.496 1.5078 3.4935 0
M  V30 1255 H 114.008 3.00712 2.45345 0
M  V30 1256 H 112.109 0.840182 3.63004 0
M  V30 1257 H 112.222 2.6951 3.96107 0
M  V30 1258 H 110.586 1.35174 2.15871 0
M  V30 1259 H 111.369 2.96661 1.72764 0
M  V30 1260 N 113.814 -1.1601 1.06675 0
M  V30 1261 C 115.039 -1.91068 0.806706 0
M  V30 1262 C 115.464 -1.77112 -0.633485 0
M  V30 1263 O 114.822 -1.09908 -1.44187 0
M  V30 1264 C 114.87 -3.39655 1.21106 0
M  V30 1265 O 113.974 -4.10893 0.352189 0
M  V30 1266 H 113.315 -0.595125 0.294486 0
M  V30 1267 H 115.845 -1.46955 1.42356 0
M  V30 1268 H 115.855 -3.90434 1.18428 0
M  V30 1269 H 114.53 -3.49132 2.26008 0
M  V30 1270 H 113.107 -3.70285 0.440868 0
M  V30 1271 N 115.292 -0.849877 -1.32721 0
M  V30 1272 C 116.202 -0.293791 -2.32753 0
M  V30 1273 C 117.218 0.585906 -1.63839 0
M  V30 1274 O 118.394 0.487413 -1.95413 0
M  V30 1275 C 115.459 0.512752 -3.42887 0
M  V30 1276 C 114.52 -0.39252 -4.27502 0
M  V30 1277 C 113.753 0.375625 -5.32377 0
M  V30 1278 O 113.976 1.60613 -5.4732 0
M  V30 1279 O 112.91 -0.256094 -6.01355 0
M  V30 1280 H 116.736 -1.12242 -2.82197 0
M  V30 1281 H 114.321 -0.612685 -1.36259 0
M  V30 1282 H 116.203 0.970704 -4.10067 0
M  V30 1283 H 114.878 1.31826 -2.95641 0
M  V30 1284 H 113.785 -0.898547 -3.63149 0
M  V30 1285 H 115.118 -1.16309 -4.7826 0
M  V30 1286 N 116.77 1.45427 -0.607355 0
M  V30 1287 C 118.016 2.0254 -0.102607 0
M  V30 1288 C 118.349 1.47478 1.26348 0
M  V30 1289 O 117.624 0.64939 1.83339 0
M  V30 1290 C 117.907 3.60044 -0.0634347 0
M  V30 1291 C 117.76 4.2544 -1.46017 0
M  V30 1292 C 119.079 4.35646 0.624514 0
M  V30 1293 H 116.198 0.73598 -0.0387607 0
M  V30 1294 H 118.84 1.73284 -0.779282 0
M  V30 1295 H 116.99 3.85101 0.512808 0
M  V30 1296 H 118.662 4.11569 -2.08347 0
M  V30 1297 H 116.905 3.83849 -2.02094 0
M  V30 1298 H 117.576 5.34342 -1.385 0
M  V30 1299 H 120.052 4.15882 0.134723 0
M  V30 1300 H 118.928 5.45376 0.621028 0
M  V30 1301 H 119.189 4.08501 1.69055 0
M  V30 1302 N 118.248 0.346503 1.53744 0
M  V30 1303 C 119.211 -0.496439 2.23759 0
M  V30 1304 C 120.211 -1.0252 1.2388 0
M  V30 1305 O 121.401 -0.913974 1.48297 0
M  V30 1306 C 118.533 -1.69187 2.95954 0
M  V30 1307 H 119.726 0.115952 2.99676 0
M  V30 1308 H 117.279 0.0978939 1.55993 0
M  V30 1309 H 118.014 -2.34288 2.24231 0
M  V30 1310 H 117.799 -1.31989 3.69217 0
M  V30 1311 H 119.289 -2.28969 3.49232 0
M  V30 1312 N 119.726 -1.57421 0.075193 0
M  V30 1313 C 120.636 -2.1642 -0.905511 0
M  V30 1314 C 121.652 -1.12828 -1.32461 0
M  V30 1315 O 122.828 -1.45109 -1.39661 0
M  V30 1316 C 119.893 -2.71693 -2.15369 0
M  V30 1317 C 118.954 -3.90171 -1.79068 0
M  V30 1318 C 118.187 -4.42798 -2.97936 0
M  V30 1319 O 118.41 -3.94416 -4.12058 0
M  V30 1320 O 117.344 -5.34085 -2.77555 0
M  V30 1321 H 121.17 -3.00588 -0.433626 0
M  V30 1322 H 118.755 -1.48664 -0.148067 0
M  V30 1323 H 120.637 -3.07104 -2.88557 0
M  V30 1324 H 119.312 -1.90582 -2.61649 0
M  V30 1325 H 118.219 -3.59606 -1.03122 0
M  V30 1326 H 119.552 -4.72584 -1.37569 0
M  V30 1327 N 121.204 0.198386 -1.56346 0
M  V30 1328 C 122.114 1.2664 -1.97483 0
M  V30 1329 C 123.13 1.49989 -0.882002 0
M  V30 1330 O 124.306 1.62668 -1.18748 0
M  V30 1331 C 121.371 2.59141 -2.30319 0
M  V30 1332 C 120.432 2.43892 -3.53292 0
M  V30 1333 C 119.665 3.70074 -3.84553 0
M  V30 1334 O 119.888 4.74101 -3.1715 0
M  V30 1335 O 118.822 3.658 -4.7799 0
M  V30 1336 H 122.648 0.947304 -2.88548 0
M  V30 1337 H 120.233 0.403123 -1.43859 0
M  V30 1338 H 122.115 3.37352 -2.5253 0
M  V30 1339 H 120.79 2.90684 -1.42423 0
M  V30 1340 H 119.697 1.63803 -3.36332 0
M  V30 1341 H 121.03 2.17282 -4.41644 0
M  V30 1342 N 122.682 1.50554 0.465978 0
M  V30 1343 C 123.629 1.6979 1.56333 0
M  V30 1344 C 124.599 0.539239 1.57103 0
M  V30 1345 O 125.784 0.770401 1.74555 0
M  V30 1346 C 122.924 1.80273 2.94271 0
M  V30 1347 C 122.037 3.07674 3.0325 0
M  V30 1348 C 121.172 3.08922 4.32135 0
M  V30 1349 C 120.211 4.30755 4.34875 0
M  V30 1350 N 119.348 4.29714 5.55239 0
M  V30 1351 H 124.188 2.63472 1.39235 0
M  V30 1352 H 121.725 1.30602 0.676873 0
M  V30 1353 H 123.683 1.84332 3.74269 0
M  V30 1354 H 122.313 0.900258 3.09992 0
M  V30 1355 H 121.365 3.13062 2.16094 0
M  V30 1356 H 122.677 3.97642 3.01135 0
M  V30 1357 H 121.831 3.11738 5.20485 0
M  V30 1358 H 120.57 2.16792 4.36866 0
M  V30 1359 H 119.575 4.28146 3.44922 0
M  V30 1360 H 120.8 5.24117 4.31831 0
M  V30 1361 H 118.746 3.4044 5.60746 0
M  V30 1362 H 118.663 5.13456 5.54886 0
M  V30 1363 H 119.931 4.36683 6.457 0
M  V30 1364 N 124.16 -0.719506 1.40217 0
M  V30 1365 C 125.409 -1.47486 1.37589 0
M  V30 1366 C 125.722 -1.9559 -0.0201568 0
M  V30 1367 O 126.928 -2.70973 -0.169049 0
M  V30 1368 C 125.384 -2.66575 2.41796 0
M  V30 1369 C 124.992 -2.25358 3.87192 0
M  V30 1370 C 126.736 -3.4433 2.48269 0
M  V30 1371 C 124.643 -3.41262 4.83005 0
M  V30 1372 H 123.573 -0.553901 0.511576 0
M  V30 1373 H 126.224 -0.783427 1.65936 0
M  V30 1374 H 124.606 -3.3787 2.06543 0
M  V30 1375 H 125.78 -1.61509 4.31569 0
M  V30 1376 H 124.095 -1.60657 3.84159 0
M  V30 1377 H 126.692 -4.30569 3.17041 0
M  V30 1378 H 127.035 -3.87872 1.51198 0
M  V30 1379 H 127.568 -2.80076 2.82493 0
M  V30 1380 H 124.307 -3.02755 5.81394 0
M  V30 1381 H 123.827 -4.0404 4.43297 0
M  V30 1382 H 125.506 -4.07383 5.02641 0
M  V30 1383 N 125.638 -1.25649 -0.95132 0
M  V30 1384 C 126.57 -1.02112 -2.05197 0
M  V30 1385 C 127.583 0.0150571 -1.62793 0
M  V30 1386 O 128.772 -0.223874 -1.77091 0
M  V30 1387 C 125.872 -0.522361 -3.3485 0
M  V30 1388 C 125.045 -1.62546 -4.06076 0
M  V30 1389 C 124.104 -1.12649 -5.14001 0
M  V30 1390 O 123.13 -1.82156 -5.39266 0
M  V30 1391 N 124.332 0.03047 -5.80492 0
M  V30 1392 H 127.097 -1.96885 -2.25957 0
M  V30 1393 H 124.658 -1.16899 -1.1201 0
M  V30 1394 H 126.65 -0.172961 -4.0433 0
M  V30 1395 H 125.22 0.33151 -3.10837 0
M  V30 1396 H 124.44 -2.14628 -3.30649 0
M  V30 1397 H 125.728 -2.36644 -4.50419 0
M  V30 1398 H 125.126 0.611169 -5.62389 0
M  V30 1399 H 123.683 0.320875 -6.5101 0
M  V30 1400 N 127.117 1.15442 -1.07289 0
M  V30 1401 C 128.363 1.86489 -0.796846 0
M  V30 1402 C 128.696 1.82078 0.675371 0
M  V30 1403 O 127.971 1.24346 1.4956 0
M  V30 1404 C 128.254 3.35626 -1.30489 0
M  V30 1405 C 128.107 3.48673 -2.84161 0
M  V30 1406 C 129.426 4.30357 -0.920907 0
M  V30 1407 H 126.545 0.677144 -0.290939 0
M  V30 1408 H 129.187 1.35633 -1.33056 0
M  V30 1409 H 127.337 3.79068 -0.850883 0
M  V30 1410 H 129.009 3.14099 -3.37846 0
M  V30 1411 H 127.252 2.90253 -3.22391 0
M  V30 1412 H 127.923 4.53453 -3.14777 0
M  V30 1413 H 130.399 3.94871 -1.3121 0
M  V30 1414 H 129.275 5.33193 -1.30372 0
M  V30 1415 H 129.536 4.4176 0.173226 0
M  V30 1416 N 128.595 0.856903 1.32268 0
M  V30 1417 C 129.542 0.301172 2.28827 0
M  V30 1418 C 130.512 -0.593104 1.5515 0
M  V30 1419 O 131.697 -0.527537 1.83362 0
M  V30 1420 C 128.837 -0.502523 3.41422 0
M  V30 1421 C 127.95 0.417797 4.29975 0
M  V30 1422 C 127.085 -0.398749 5.29701 0
M  V30 1423 C 126.124 0.518827 6.09897 0
M  V30 1424 N 125.261 -0.260674 7.01616 0
M  V30 1425 H 130.101 1.12983 2.75751 0
M  V30 1426 H 127.638 0.568582 1.35667 0
M  V30 1427 H 129.596 -0.984141 4.05426 0
M  V30 1428 H 128.226 -1.29599 2.95642 0
M  V30 1429 H 127.278 1.01781 3.66531 0
M  V30 1430 H 128.59 1.12191 4.86019 0
M  V30 1431 H 127.744 -0.943435 5.9932 0
M  V30 1432 H 126.483 -1.13622 4.7428 0
M  V30 1433 H 125.488 1.07538 5.39181 0
M  V30 1434 H 126.713 1.25495 6.67404 0
M  V30 1435 H 124.659 -0.981198 6.4862 0
M  V30 1436 H 124.576 0.384364 7.55022 0
M  V30 1437 H 125.844 -0.787014 7.75517 0
M  V30 1438 N 130.073 -1.45103 0.615059 0
M  V30 1439 C 131.036 -2.29025 -0.0895485 0
M  V30 1440 C 132.036 -1.40174 -0.787906 0
M  V30 1441 O 133.226 -1.62217 -0.634933 0
M  V30 1442 C 130.358 -3.21376 -1.13711 0
M  V30 1443 H 131.551 -2.92807 0.648382 0
M  V30 1444 H 129.104 -1.51749 0.374444 0
M  V30 1445 H 129.839 -2.6241 -1.90556 0
M  V30 1446 H 129.624 -3.86834 -0.640475 0
M  V30 1447 H 131.114 -3.84459 -1.63036 0
M  V30 1448 N 131.551 -0.354651 -1.53558 0
M  V30 1449 C 132.481 0.489091 -2.2832 0
M  V30 1450 C 133.462 1.09324 -1.30316 0
M  V30 1451 O 134.647 1.11255 -1.59173 0
M  V30 1452 C 131.777 1.63456 -3.0643 0
M  V30 1453 C 130.731 1.1582 -4.12031 0
M  V30 1454 C 130.057 2.39305 -4.7816 0
M  V30 1455 C 131.357 0.250731 -5.21698 0
M  V30 1456 H 133.051 -0.134614 -2.99097 0
M  V30 1457 H 130.597 -0.0661826 -1.43848 0
M  V30 1458 H 132.55 2.23136 -3.57475 0
M  V30 1459 H 131.274 2.28533 -2.33325 0
M  V30 1460 H 129.933 0.584146 -3.61916 0
M  V30 1461 H 129.581 3.02814 -4.01637 0
M  V30 1462 H 129.281 2.08109 -5.49513 0
M  V30 1463 H 130.805 2.99691 -5.31994 0
M  V30 1464 H 132.219 0.754695 -5.68311 0
M  V30 1465 H 130.616 0.0301468 -6.00092 0
M  V30 1466 H 131.686 -0.710125 -4.79672 0
M  V30 1467 N 133.029 1.57378 -0.0835403 0
M  V30 1468 C 134.259 1.97975 0.590713 0
M  V30 1469 C 134.667 0.961083 1.62972 0
M  V30 1470 O 134.01 -0.0590879 1.83605 0
M  V30 1471 C 134.072 3.34915 1.3066 0
M  V30 1472 C 133.736 4.55069 0.419698 0
M  V30 1473 C 134.733 5.18868 -0.32749 0
M  V30 1474 C 132.418 5.0114 0.341137 0
M  V30 1475 C 134.412 6.27098 -1.14134 0
M  V30 1476 C 132.099 6.0924 -0.476374 0
M  V30 1477 C 133.097 6.72083 -1.21627 0
M  V30 1478 O 132.785 7.781 -2.02028 0
M  V30 1479 H 132.517 0.655818 0.163947 0
M  V30 1480 H 135.071 2.04807 -0.156021 0
M  V30 1481 H 133.301 3.24733 2.09966 0
M  V30 1482 H 134.99 3.60037 1.87424 0
M  V30 1483 H 135.756 4.84211 -0.276459 0
M  V30 1484 H 131.635 4.51996 0.90668 0
M  V30 1485 H 135.179 6.7608 -1.71935 0
M  V30 1486 H 131.076 6.43329 -0.528927 0
M  V30 1487 H 131.844 7.95034 -1.94586 0
M  V30 1488 N 134.507 -0.190092 1.56449 0
M  V30 1489 C 135.784 -0.935886 1.71757 0
M  V30 1490 C 136.164 -2.01173 0.639726 0
M  V30 1491 O 135.512 -2.25827 -0.348502 0
M  V30 1492 C 135.722 -1.51775 3.1427 0
M  V30 1493 C 137.07 -1.99794 3.74656 0
M  V30 1494 O 138.094 -1.61607 3.1743 0
M  V30 1495 O 136.953 -2.70079 4.751 0
M  V30 1496 H 134.047 -0.439229 0.700719 0
M  V30 1497 H 136.593 -0.179395 1.68749 0
M  V30 1498 H 135.365 -0.742505 3.84191 0
M  V30 1499 H 134.988 -2.33894 3.21527 0
M  V30 1500 N 135.985 -1.50799 -0.457987 0
M  V30 1501 C 137.232 -1.62442 -1.20908 0
M  V30 1502 C 137.56 -0.330865 -1.91665 0
M  V30 1503 O 136.815 0.68401 -1.83357 0
M  V30 1504 C 137.114 -2.76358 -2.2663 0
M  V30 1505 C 136.78 -4.16378 -1.73033 0
M  V30 1506 C 135.442 -4.54473 -1.58138 0
M  V30 1507 C 137.794 -5.03836 -1.33413 0
M  V30 1508 C 135.122 -5.77754 -1.02065 0
M  V30 1509 C 137.474 -6.27676 -0.78778 0
M  V30 1510 C 136.138 -6.64562 -0.625561 0
M  V30 1511 H 135.408 -0.594417 -0.442435 0
M  V30 1512 H 138.055 -1.84772 -0.503136 0
M  V30 1513 H 136.36 -2.48167 -3.03184 0
M  V30 1514 H 138.057 -2.82568 -2.84528 0
M  V30 1515 H 134.647 -3.86331 -1.85598 0
M  V30 1516 H 138.831 -4.75026 -1.4375 0
M  V30 1517 H 134.087 -6.04997 -0.882547 0
M  V30 1518 H 138.261 -6.94797 -0.472177 0
M  V30 1519 H 135.888 -7.59965 -0.188926 0
M  V30 1520 N 137.463 0.71206 -1.40597 0
M  V30 1521 C 138.393 1.83889 -1.43899 0
M  V30 1522 C 139.374 1.67442 -0.299504 0
M  V30 1523 O 140.559 1.87421 -0.508624 0
M  V30 1524 C 137.689 3.21877 -1.30431 0
M  V30 1525 C 136.643 3.53002 -2.42019 0
M  V30 1526 C 135.969 4.90172 -2.13626 0
M  V30 1527 C 137.269 3.53643 -3.84362 0
M  V30 1528 H 138.963 1.81383 -2.38203 0
M  V30 1529 H 136.509 0.871237 -1.14654 0
M  V30 1530 H 138.462 4.00404 -1.31357 0
M  V30 1531 H 137.186 3.24968 -0.326049 0
M  V30 1532 H 135.845 2.76818 -2.40349 0
M  V30 1533 H 135.493 4.89869 -1.14182 0
M  V30 1534 H 135.193 5.11962 -2.88389 0
M  V30 1535 H 136.717 5.71028 -2.1624 0
M  V30 1536 H 138.131 4.22203 -3.87837 0
M  V30 1537 H 136.528 3.86961 -4.58673 0
M  V30 1538 H 137.598 2.52954 -4.13693 0
M  V30 1539 N 138.941 1.26152 0.944643 0
M  V30 1540 C 140.352 1.10454 1.50522 0
M  V30 1541 C 140.703 -0.31635 1.93633 0
M  V30 1542 O 139.828 -1.20746 1.79581 0
M  V30 1543 C 140.423 1.99891 2.73549 0
M  V30 1544 C 138.982 1.88348 3.25886 0
M  V30 1545 C 138.129 1.93447 1.9868 0
M  V30 1546 H 141.08 1.39292 0.760489 0
M  V30 1547 H 141.101 1.54477 3.47732 0
M  V30 1548 H 140.613 3.03297 2.42141 0
M  V30 1549 H 138.714 0.878636 3.62092 0
M  V30 1550 H 138.827 2.73696 3.93227 0
M  V30 1551 H 137.191 1.37456 2.14425 0
M  V30 1552 H 137.974 2.98476 1.69607 0
M  V30 1553 N 140.419 -1.14872 1.07899 0
M  V30 1554 C 141.835 -1.37776 0.805606 0
M  V30 1555 C 142.035 -1.92743 -0.587555 0
M  V30 1556 O 141.091 -2.13678 -1.34528 0
M  V30 1557 C 142.404 -2.34361 1.88402 0
M  V30 1558 C 143.952 -2.48012 1.90942 0
M  V30 1559 C 144.427 -3.47893 2.97883 0
M  V30 1560 N 145.918 -3.55433 2.97021 0
M  V30 1561 C 146.653 -4.32553 3.76412 0
M  V30 1562 N 146.149 -5.12959 4.65666 0
M  V30 1563 N 147.942 -4.27697 3.64735 0
M  V30 1564 H 140.093 -0.775365 1.97742 0
M  V30 1565 H 142.356 -0.403521 0.857831 0
M  V30 1566 H 142.062 -2.01098 2.88535 0
M  V30 1567 H 141.936 -3.34206 1.74889 0
M  V30 1568 H 144.323 -2.8057 0.914579 0
M  V30 1569 H 144.404 -1.48147 2.08534 0
M  V30 1570 H 144.048 -3.16069 3.97571 0
M  V30 1571 H 143.978 -4.47527 2.77538 0
M  V30 1572 H 146.469 -2.98048 2.32326 0
M  V30 1573 H 146.782 -5.69065 5.22862 0
M  V30 1574 H 145.127 -5.12245 4.69712 0
M  V30 1575 H 148.318 -3.63949 2.94378 0
M  V30 1576 H 148.491 -4.8755 4.26848 0
M  V30 1577 N 141.898 -0.863906 -1.31812 0
M  V30 1578 C 142.808 -0.318461 -2.32428 0
M  V30 1579 C 143.824 0.568496 -1.64451 0
M  V30 1580 O 145 0.46666 -1.95919 0
M  V30 1581 C 142.065 0.476355 -3.43412 0
M  V30 1582 C 141.126 -0.43784 -4.27061 0
M  V30 1583 C 140.359 0.319138 -5.32745 0
M  V30 1584 O 140.582 1.54799 -5.48993 0
M  V30 1585 O 139.516 -0.319861 -6.01049 0
M  V30 1586 H 143.342 -1.15229 -2.80991 0
M  V30 1587 H 140.927 -0.627103 -1.35602 0
M  V30 1588 H 142.809 0.927156 -4.11074 0
M  V30 1589 H 141.484 1.28683 -2.97022 0
M  V30 1590 H 140.391 -0.937013 -3.62175 0
M  V30 1591 H 141.724 -1.21375 -4.77 0
M  V30 1592 N 143.376 1.44774 -0.622745 0
M  V30 1593 C 144.787 1.85546 -0.207226 0
M  V30 1594 C 145.138 1.52093 1.23944 0
M  V30 1595 O 144.263 0.95492 1.94191 0
M  V30 1596 C 144.858 3.36781 -0.369313 0
M  V30 1597 C 143.417 3.76399 -0.00836847 0
M  V30 1598 C 142.564 2.68664 -0.686651 0
M  V30 1599 H 145.515 1.3536 -0.828454 0
M  V30 1600 H 145.536 3.78453 0.394162 0
M  V30 1601 H 145.048 3.61098 -1.42231 0
M  V30 1602 H 143.149 3.57698 1.04322 0
M  V30 1603 H 143.262 4.7732 -0.412584 0
M  V30 1604 H 141.626 2.54404 -0.122777 0
M  V30 1605 H 142.409 2.95815 -1.74208 0
M  V30 1606 N 144.854 0.36279 1.53368 0
M  V30 1607 C 146.094 -0.227882 2.03126 0
M  V30 1608 C 146.458 -1.4622 1.24434 0
M  V30 1609 O 147.659 -2.12831 1.64184 0
M  V30 1610 C 145.93 -0.515427 3.53664 0
M  V30 1611 S 147.489 -1.08017 4.25297 0
M  V30 1612 H 144.307 -0.0665377 0.70788 0
M  V30 1613 H 146.909 0.50501 1.88865 0
M  V30 1614 H 145.613 0.390436 4.08539 0
M  V30 1615 H 145.144 -1.27747 3.72081 0
M  V30 1616 H 147.159 -2.36462 4.36234 0
M  V30 1617 N 146.332 -1.57332 0.0918853 0
M  V30 1618 C 147.28 -2.15075 -0.885747 0
M  V30 1619 C 148.274 -1.09277 -1.29441 0
M  V30 1620 O 149.48 -1.27627 -1.26931 0
M  V30 1621 H 145.855 -0.687966 -0.303656 0
M  V30 1622 H 147.826 -2.96047 -0.373995 0
M  V30 1623 C 146.575 -2.74325 -2.13638 0
M  V30 1624 H 145.898 -3.55418 -1.8308 0
M  V30 1625 H 147.338 -3.183 -2.80109 0
M  V30 1626 C 145.797 -1.70062 -2.90827 0
M  V30 1627 O 146.327 -1.13763 -3.85254 0
M  V30 1628 N 144.533 -1.40628 -2.54307 0
M  V30 1629 H 144.08 -1.866 -1.7759 0
M  V30 1630 H 144.038 -0.711043 -3.06254 0
M  V30 1631 N 147.81 0.181792 -1.56548 0
M  V30 1632 C 148.74 1.22765 -1.98623 0
M  V30 1633 C 149.721 1.46747 -0.860189 0
M  V30 1634 O 150.906 1.58259 -1.12551 0
M  V30 1635 C 148.036 2.56894 -2.33715 0
M  V30 1636 C 146.99 2.475 -3.49182 0
M  V30 1637 C 146.316 3.86023 -3.69986 0
M  V30 1638 C 147.616 1.98866 -4.82959 0
M  V30 1639 H 149.31 0.877942 -2.86239 0
M  V30 1640 H 146.856 0.42088 -1.37712 0
M  V30 1641 H 148.809 3.30253 -2.61746 0
M  V30 1642 H 147.533 2.93632 -1.42997 0
M  V30 1643 H 146.192 1.76596 -3.21262 0
M  V30 1644 H 145.84 4.20136 -2.76576 0
M  V30 1645 H 145.54 3.80609 -4.47672 0
M  V30 1646 H 147.064 4.60984 -4.00407 0
M  V30 1647 H 148.478 2.61992 -5.09934 0
M  V30 1648 H 146.875 2.04424 -5.64208 0
M  V30 1649 H 147.945 0.942465 -4.75653 0
M  V30 1650 N 149.288 1.51039 0.449983 0
M  V30 1651 C 150.251 1.70863 1.5277 0
M  V30 1652 C 151.251 0.578846 1.5002 0
M  V30 1653 O 152.441 0.846213 1.52266 0
M  V30 1654 C 149.573 1.75341 2.9235 0
M  V30 1655 H 150.766 2.67034 1.36502 0
M  V30 1656 H 148.319 1.40838 0.677812 0
M  V30 1657 H 149.054 0.809383 3.14037 0
M  V30 1658 H 148.839 2.57436 2.95752 0
M  V30 1659 H 150.329 1.92559 3.70555 0
M  V30 1660 N 150.766 -0.704594 1.40972 0
M  V30 1661 C 151.696 -1.83124 1.44872 0
M  V30 1662 C 152.677 -1.67281 0.30838 0
M  V30 1663 O 153.862 -1.87149 0.518556 0
M  V30 1664 C 150.992 -3.21181 1.32136 0
M  V30 1665 C 149.946 -3.51714 2.43888 0
M  V30 1666 C 149.272 -4.89032 2.16222 0
M  V30 1667 C 150.572 -3.516 3.86232 0
M  V30 1668 H 152.266 -1.80117 2.39161 0
M  V30 1669 H 149.812 -0.865145 1.15114 0
M  V30 1670 H 151.765 -3.99702 1.33479 0
M  V30 1671 H 150.489 -3.24791 0.343279 0
M  V30 1672 H 149.148 -2.75539 2.41813 0
M  V30 1673 H 148.796 -4.89256 1.16778 0
M  V30 1674 H 148.496 -5.10426 2.911 0
M  V30 1675 H 150.02 -5.69873 2.19265 0
M  V30 1676 H 151.434 -4.2014 3.9007 0
M  V30 1677 H 149.831 -3.84523 4.60719 0
M  V30 1678 H 150.901 -2.50757 4.15029 0
M  V30 1679 N 152.244 -1.26651 -0.937939 0
M  V30 1680 C 153.66 -1.03834 -1.21205 0
M  V30 1681 C 153.86 0.234502 -2.00131 0
M  V30 1682 O 152.916 0.942767 -2.3424 0
M  V30 1683 C 154.229 -2.27167 -1.97017 0
M  V30 1684 C 155.777 -2.32101 -2.09996 0
M  V30 1685 C 156.252 -3.55136 -2.8921 0
M  V30 1686 N 157.743 -3.55632 -2.96783 0
M  V30 1687 C 158.478 -4.475 -3.58512 0
M  V30 1688 N 157.974 -5.4966 -4.21717 0
M  V30 1689 N 159.767 -4.35145 -3.55816 0
M  V30 1690 H 151.918 -2.08398 -0.410391 0
M  V30 1691 H 154.181 -0.916031 -0.244114 0
M  V30 1692 H 153.887 -3.19765 -1.46434 0
M  V30 1693 H 153.761 -2.31672 -2.97671 0
M  V30 1694 H 156.148 -1.40015 -2.59769 0
M  V30 1695 H 156.229 -2.31605 -1.08594 0
M  V30 1696 H 155.873 -4.47553 -2.40123 0
M  V30 1697 H 155.803 -3.5288 -3.90875 0
M  V30 1698 H 158.294 -2.81743 -2.51852 0
M  V30 1699 H 158.607 -6.15943 -4.66727 0
M  V30 1700 H 156.952 -5.53514 -4.20294 0
M  V30 1701 H 160.143 -3.5455 -3.05634 0
M  V30 1702 H 160.316 -5.06934 -4.03636 0
M  V30 1703 N 153.722 1.14298 -1.08507 0
M  V30 1704 C 155.138 1.37347 -0.812901 0
M  V30 1705 C 155.338 1.93052 0.577325 0
M  V30 1706 O 154.394 2.14389 1.33393 0
M  V30 1707 C 155.707 2.33359 -1.89642 0
M  V30 1708 C 157.255 2.46996 -1.92255 0
M  V30 1709 C 157.73 3.46309 -2.99724 0
M  V30 1710 N 159.221 3.53853 -2.98902 0
M  V30 1711 C 159.956 4.3055 -3.787 0
M  V30 1712 N 159.452 5.10482 -4.6838 0
M  V30 1713 N 161.245 4.25757 -3.66998 0
M  V30 1714 H 153.396 0.764867 -1.9815 0
M  V30 1715 H 155.659 0.398966 -0.859959 0
M  V30 1716 H 155.365 1.99565 -2.89597 0
M  V30 1717 H 155.239 3.33274 -1.76659 0
M  V30 1718 H 157.626 2.80081 -0.929445 0
M  V30 1719 H 157.707 1.47039 -2.09316 0
M  V30 1720 H 157.351 3.13957 -3.99241 0
M  V30 1721 H 157.281 4.46049 -2.79907 0
M  V30 1722 H 159.772 2.96812 -2.33904 0
M  V30 1723 H 160.085 5.66284 -5.25873 0
M  V30 1724 H 158.43 5.09747 -4.72422 0
M  V30 1725 H 161.621 3.62383 -2.96304 0
M  V30 1726 H 161.794 4.85279 -4.29427 0
M  V30 1727 N 155.201 0.870884 1.31352 0
M  V30 1728 C 156.164 0.332243 2.26779 0
M  V30 1729 C 157.164 -0.517302 1.52252 0
M  V30 1730 O 158.354 -0.326477 1.71113 0
M  V30 1731 C 155.486 -0.528066 3.36785 0
M  V30 1732 H 156.679 1.17469 2.75937 0
M  V30 1733 H 154.232 0.64655 1.423 0
M  V30 1734 H 154.967 -1.39167 2.92922 0
M  V30 1735 H 154.752 0.0802582 3.92018 0
M  V30 1736 H 156.242 -0.897179 4.07849 0
M  V30 1737 N 156.679 -1.44442 0.630414 0
M  V30 1738 C 157.589 -2.34476 -0.0761693 0
M  V30 1739 C 158.605 -1.52576 -0.836449 0
M  V30 1740 O 159.781 -1.85307 -0.788874 0
M  V30 1741 C 156.846 -3.30545 -1.04599 0
M  V30 1742 C 155.907 -4.28352 -0.28516 0
M  V30 1743 C 155.14 -5.19831 -1.20878 0
M  V30 1744 O 155.363 -5.15223 -2.44747 0
M  V30 1745 O 154.297 -5.97892 -0.693491 0
M  V30 1746 H 158.123 -2.96345 0.664324 0
M  V30 1747 H 155.708 -1.44203 0.39061 0
M  V30 1748 H 157.59 -3.89681 -1.60396 0
M  V30 1749 H 156.265 -2.7121 -1.76711 0
M  V30 1750 H 155.172 -3.72764 0.315837 0
M  V30 1751 H 156.505 -4.90605 0.395924 0
M  V30 1752 N 158.157 -0.370918 -1.53173 0
M  V30 1753 C 159.067 0.480823 -2.2962 0
M  V30 1754 C 160.083 1.08789 -1.35798 0
M  V30 1755 O 161.259 1.09768 -1.68858 0
M  V30 1756 C 158.324 1.60227 -3.07454 0
M  V30 1757 C 157.385 1.0222 -4.16953 0
M  V30 1758 C 156.618 2.0902 -4.91066 0
M  V30 1759 O 156.841 3.30222 -4.65091 0
M  V30 1760 O 155.775 1.71778 -5.76867 0
M  V30 1761 H 159.601 -0.141421 -3.03371 0
M  V30 1762 H 157.186 -0.135146 -1.48787 0
M  V30 1763 H 159.068 2.25417 -3.56041 0
M  V30 1764 H 157.743 2.20982 -2.36535 0
M  V30 1765 H 156.65 0.334064 -3.72605 0
M  V30 1766 H 157.983 0.459131 -4.90054 0
M  V30 1767 N 159.635 1.57281 -0.100228 0
M  V30 1768 C 160.865 1.98591 0.569681 0
M  V30 1769 C 161.273 0.978315 1.61943 0
M  V30 1770 O 160.616 -0.0396108 1.83657 0
M  V30 1771 C 160.678 3.36282 1.271 0
M  V30 1772 C 160.342 4.55488 0.371409 0
M  V30 1773 C 161.339 5.18491 -0.382504 0
M  V30 1774 C 159.024 5.01474 0.287965 0
M  V30 1775 C 161.018 6.25852 -1.20779 0
M  V30 1776 C 158.705 6.08701 -0.540965 0
M  V30 1777 C 159.703 6.70755 -1.28749 0
M  V30 1778 O 159.391 7.75914 -2.10269 0
M  V30 1779 H 159.123 0.65752 0.156982 0
M  V30 1780 H 161.677 2.0463 -0.177734 0
M  V30 1781 H 159.907 3.26941 2.0651 0
M  V30 1782 H 161.596 3.62005 1.83595 0
M  V30 1783 H 162.362 4.83891 -0.3278 0
M  V30 1784 H 158.241 4.52932 0.858689 0
M  V30 1785 H 161.785 6.74218 -1.79096 0
M  V30 1786 H 157.682 6.42732 -0.597131 0
M  V30 1787 H 158.45 7.92925 -2.03007 0
M  V30 1788 N 161.113 -0.173488 1.56642 0
M  V30 1789 C 162.043 -1.2171 1.99271 0
M  V30 1790 C 163.024 -1.46289 0.867959 0
M  V30 1791 O 164.209 -1.5766 1.13388 0
M  V30 1792 C 161.339 -2.55651 2.35074 0
M  V30 1793 C 160.293 -2.45645 3.50489 0
M  V30 1794 C 159.619 -3.84056 3.72028 0
M  V30 1795 C 160.919 -1.96302 4.84007 0
M  V30 1796 H 162.613 -0.86275 2.867 0
M  V30 1797 H 160.159 -0.413571 1.37933 0
M  V30 1798 H 162.112 -3.2886 2.63494 0
M  V30 1799 H 160.836 -2.92869 1.44552 0
M  V30 1800 H 159.495 -1.7489 3.22194 0
M  V30 1801 H 159.143 -4.18664 2.788 0
M  V30 1802 H 158.843 -3.7823 4.49684 0
M  V30 1803 H 160.367 -4.58854 4.02846 0
M  V30 1804 H 161.781 -2.59284 5.11317 0
M  V30 1805 H 160.178 -2.01429 5.65284 0
M  V30 1806 H 161.248 -0.917226 4.76146 0
M  V30 1807 N 162.591 -1.51276 -0.441967 0
M  V30 1808 C 163.84 -1.6295 -1.18871 0
M  V30 1809 C 164.153 -0.349312 -1.92456 0
M  V30 1810 O 165.359 -0.345355 -2.69295 0
M  V30 1811 C 163.815 -2.87759 -2.16155 0
M  V30 1812 C 163.423 -4.22764 -1.48239 0
M  V30 1813 C 165.167 -3.08788 -2.91291 0
M  V30 1814 C 163.074 -5.38728 -2.4398 0
M  V30 1815 H 162.004 -0.606913 -0.447406 0
M  V30 1816 H 164.655 -1.77739 -0.456205 0
M  V30 1817 H 163.037 -2.66593 -2.92821 0
M  V30 1818 H 164.211 -4.54293 -0.771635 0
M  V30 1819 H 162.526 -4.07575 -0.852741 0
M  V30 1820 H 165.123 -3.92599 -3.63002 0
M  V30 1821 H 165.466 -2.21679 -3.5237 0
M  V30 1822 H 165.999 -3.30272 -2.21733 0
M  V30 1823 H 162.738 -6.28082 -1.87598 0
M  V30 1824 H 162.258 -5.1158 -3.13123 0
M  V30 1825 H 163.937 -5.70489 -3.05207 0
M  V30 1826 N 164.069 0.697108 -1.41344 0
M  V30 1827 C 164.999 1.82353 -1.45841 0
M  V30 1828 C 165.98 1.67115 -0.317247 0
M  V30 1829 O 167.165 1.86871 -0.528474 0
M  V30 1830 C 164.295 3.20476 -1.33838 0
M  V30 1831 C 163.249 3.50415 -2.4575 0
M  V30 1832 C 162.575 4.87878 -2.18813 0
M  V30 1833 C 163.875 3.49546 -3.88091 0
M  V30 1834 H 165.569 1.78846 -2.40113 0
M  V30 1835 H 163.115 0.859028 -1.15571 0
M  V30 1836 H 165.068 3.98988 -1.35596 0
M  V30 1837 H 163.792 3.24604 -0.360498 0
M  V30 1838 H 162.451 2.74253 -2.43271 0
M  V30 1839 H 162.099 4.8863 -1.19371 0
M  V30 1840 H 161.799 5.08875 -2.93803 0
M  V30 1841 H 163.323 5.68702 -2.22284 0
M  V30 1842 H 164.737 4.18066 -3.92293 0
M  V30 1843 H 163.134 3.82075 -4.62751 0
M  V30 1844 H 164.204 2.48552 -4.16353 0
M  V30 1845 N 165.547 1.27147 0.931209 0
M  V30 1846 C 166.457 1.11372 2.06478 0
M  V30 1847 C 167.473 0.044645 1.73943 0
M  V30 1848 O 168.649 0.250417 1.99837 0
M  V30 1849 C 165.714 0.758838 3.38294 0
M  V30 1850 C 164.775 1.90841 3.84549 0
M  V30 1851 C 164.008 1.57036 5.10074 0
M  V30 1852 O 164.231 0.476645 5.68405 0
M  V30 1853 O 163.165 2.40839 5.51616 0
M  V30 1854 H 166.991 2.06493 2.22698 0
M  V30 1855 H 164.576 1.06301 1.04978 0
M  V30 1856 H 166.458 0.574098 4.17471 0
M  V30 1857 H 165.133 -0.162879 3.2329 0
M  V30 1858 H 164.04 2.14819 3.06274 0
M  V30 1859 H 165.373 2.81021 4.04089 0
M  V30 1860 N 167.025 -1.13721 1.09112 0
M  V30 1861 C 167.972 -2.19031 0.727591 0
M  V30 1862 C 168.942 -1.63555 -0.289656 0
M  V30 1863 O 170.127 -1.90023 -0.172026 0
M  V30 1864 C 167.267 -3.4477 0.15082 0
M  V30 1865 C 166.38 -4.14365 1.22172 0
M  V30 1866 C 165.515 -5.27709 0.608042 0
M  V30 1867 C 164.554 -5.89147 1.66047 0
M  V30 1868 N 163.691 -6.93929 1.06806 0
M  V30 1869 H 168.531 -2.49475 1.62991 0
M  V30 1870 H 166.068 -1.22499 0.81439 0
M  V30 1871 H 168.026 -4.16714 -0.201358 0
M  V30 1872 H 166.656 -3.14787 -0.714783 0
M  V30 1873 H 165.708 -3.40737 1.69122 0
M  V30 1874 H 167.02 -4.56114 2.01895 0
M  V30 1875 H 166.174 -6.06355 0.204523 0
M  V30 1876 H 164.913 -4.872 -0.220769 0
M  V30 1877 H 163.918 -5.09198 2.07357 0
M  V30 1878 H 165.143 -6.31729 2.49189 0
M  V30 1879 H 163.089 -6.55483 0.260476 0
M  V30 1880 H 163.006 -7.34202 1.8023 0
M  V30 1881 H 164.274 -7.76434 0.690644 0
M  V30 1882 N 168.503 -0.877838 -1.30888 0
M  V30 1883 C 169.733 -0.506678 -2.00291 0
M  V30 1884 C 170.141 0.907449 -1.66018 0
M  V30 1885 O 169.484 1.60719 -0.88967 0
M  V30 1886 C 169.546 -0.59323 -3.54572 0
M  V30 1887 C 169.21 -1.97038 -4.12341 0
M  V30 1888 C 170.207 -2.93889 -4.28865 0
M  V30 1889 C 167.892 -2.27383 -4.47886 0
M  V30 1890 C 169.886 -4.19224 -4.80136 0
M  V30 1891 C 167.573 -3.52965 -4.98857 0
M  V30 1892 C 168.571 -4.48701 -5.14934 0
M  V30 1893 O 168.259 -5.72056 -5.64808 0
M  V30 1894 H 167.991 -0.1951 -0.647234 0
M  V30 1895 H 170.545 -1.18301 -1.6791 0
M  V30 1896 H 168.775 0.140057 -3.86446 0
M  V30 1897 H 170.464 -0.234372 -4.05223 0
M  V30 1898 H 171.23 -2.71756 -4.01714 0
M  V30 1899 H 167.109 -1.53639 -4.34645 0
M  V30 1900 H 170.653 -4.93956 -4.92599 0
M  V30 1901 H 166.55 -3.74939 -5.25443 0
M  V30 1902 H 167.318 -5.74337 -5.83163 0
M  V30 1903 N 169.982 1.44106 -0.638065 0
M  V30 1904 C 170.93 2.3248 0.0748149 0
M  V30 1905 C 171.924 1.47746 0.828702 0
M  V30 1906 O 173.13 1.64049 0.740816 0
M  V30 1907 H 169.505 0.750771 0.0429686 0
M  V30 1908 H 171.476 2.90348 -0.688504 0
M  V30 1909 C 170.225 3.31843 1.03805 0
M  V30 1910 H 169.548 3.97059 0.467375 0
M  V30 1911 H 170.988 3.96345 1.50622 0
M  V30 1912 C 169.447 2.61291 2.1267 0
M  V30 1913 O 169.977 2.41702 3.20847 0
M  V30 1914 N 168.183 2.20915 1.88798 0
M  V30 1915 H 167.73 2.37047 1.00829 0
M  V30 1916 H 167.688 1.74038 2.61836 0
M  V30 1917 N 171.46 0.379036 1.52974 0
M  V30 1918 C 172.871 -0.0972525 1.86447 0
M  V30 1919 C 173.222 -1.47027 1.29914 0
M  V30 1920 O 172.347 -2.07135 0.626433 0
M  V30 1921 C 172.942 -0.183248 3.38304 0
M  V30 1922 C 171.501 -0.603812 3.71525 0
M  V30 1923 C 170.648 0.240632 2.76254 0
M  V30 1924 H 173.599 0.597316 1.4703 0
M  V30 1925 H 173.62 -1.00432 3.67006 0
M  V30 1926 H 173.132 0.816191 3.79421 0
M  V30 1927 H 171.233 -1.61099 3.35973 0
M  V30 1928 H 171.346 -0.369086 4.77676 0
M  V30 1929 H 169.71 -0.292548 2.53014 0
M  V30 1930 H 170.493 1.23786 3.20206 0
M  V30 1931 N 172.938 -1.57226 0.108567 0
M  V30 1932 C 173.888 -2.11305 -0.856396 0
M  V30 1933 C 174.872 -1.03129 -1.23504 0
M  V30 1934 O 176.064 -1.29381 -1.20787 0
M  V30 1935 C 173.193 -2.70771 -2.11041 0
M  V30 1936 C 172.279 -3.86011 -1.7566 0
M  V30 1937 N 172.67 -4.93492 -1.10902 0
M  V30 1938 C 170.968 -3.95999 -2.05185 0
M  V30 1939 C 171.669 -5.73984 -0.944308 0
M  V30 1940 N 170.645 -5.2346 -1.46596 0
M  V30 1941 H 174.447 -2.91784 -0.352002 0
M  V30 1942 H 171.961 -1.62126 -0.0942324 0
M  V30 1943 H 173.958 -3.07851 -2.81128 0
M  V30 1944 H 172.618 -1.91751 -2.62034 0
M  V30 1945 H 173.629 -5.1208 -0.774235 0
M  V30 1946 H 170.306 -3.28007 -2.58298 0
M  V30 1947 H 171.696 -6.70479 -0.436813 0
M  V30 1948 N 174.416 0.165178 -1.56732 0
M  V30 1949 C 175.662 0.877389 -1.83503 0
M  V30 1950 C 176.017 1.79602 -0.689996 0
M  V30 1951 O 175.31 1.89023 0.313205 0
M  V30 1952 C 175.504 1.70405 -3.1416 0
M  V30 1953 C 175.333 0.866961 -4.41264 0
M  V30 1954 C 174.103 0.539646 -5.0241 0
M  V30 1955 C 176.301 0.205671 -5.13889 0
M  V30 1956 N 174.283 -0.312946 -6.13102 0
M  V30 1957 C 175.654 -0.507823 -6.17917 0
M  V30 1958 C 177.709 0.124468 -4.97744 0
M  V30 1959 C 176.412 -1.29483 -7.0755 0
M  V30 1960 C 178.438 -0.649222 -5.87826 0
M  V30 1961 C 177.8 -1.35106 -6.91322 0
M  V30 1962 H 173.899 0.299477 -0.722383 0
M  V30 1963 H 176.483 0.143949 -1.94167 0
M  V30 1964 H 174.654 2.40887 -3.04677 0
M  V30 1965 H 176.386 2.35804 -3.28905 0
M  V30 1966 H 173.141 0.871176 -4.65519 0
M  V30 1967 H 173.565 -0.729731 -6.73056 0
M  V30 1968 H 178.207 0.652724 -4.17731 0
M  V30 1969 H 175.925 -1.83441 -7.87004 0
M  V30 1970 H 179.511 -0.713804 -5.77405 0
M  V30 1971 H 178.391 -1.94013 -7.59821 0
M  V30 1972 N 175.894 1.51508 0.433938 0
M  V30 1973 C 177.14 1.65549 1.18173 0
M  V30 1974 C 177.495 0.368751 1.88833 0
M  V30 1975 O 176.788 -0.635616 1.8075 0
M  V30 1976 C 176.982 2.79928 2.22205 0
M  V30 1977 C 176.811 4.19601 1.61756 0
M  V30 1978 C 175.581 4.85489 1.40101 0
M  V30 1979 C 177.779 5.02574 1.09194 0
M  V30 1980 N 175.761 6.09266 0.752859 0
M  V30 1981 C 177.132 6.17381 0.569255 0
M  V30 1982 C 179.187 4.88079 0.984025 0
M  V30 1983 C 177.89 7.19282 -0.0507472 0
M  V30 1984 C 179.916 5.90191 0.377912 0
M  V30 1985 C 179.278 7.04272 -0.134216 0
M  V30 1986 H 175.377 0.659653 0.419979 0
M  V30 1987 H 177.961 1.88746 0.477818 0
M  V30 1988 H 176.132 2.5839 2.89982 0
M  V30 1989 H 177.864 2.83132 2.89168 0
M  V30 1990 H 174.619 4.43417 1.66369 0
M  V30 1991 H 175.043 6.75528 0.446123 0
M  V30 1992 H 179.685 4.00131 1.36583 0
M  V30 1993 H 177.403 8.06876 -0.444676 0
M  V30 1994 H 180.989 5.81045 0.296269 0
M  V30 1995 H 179.869 7.81933 -0.59585 0
M  V30 1996 N 177.372 -0.689602 1.41712 0
M  V30 1997 C 178.319 -1.80345 1.44029 0
M  V30 1998 C 179.289 -1.63478 0.293948 0
M  V30 1999 O 180.474 -1.84244 0.495869 0
M  V30 2000 C 177.614 -3.18272 1.33405 0
M  V30 2001 C 176.727 -3.46529 2.57956 0
M  V30 2002 C 175.862 -4.74103 2.39582 0
M  V30 2003 C 174.901 -4.95347 3.5958 0
M  V30 2004 N 174.038 -6.14151 3.40239 0
M  V30 2005 H 178.878 -1.77698 2.39222 0
M  V30 2006 H 176.415 -0.867688 1.18784 0
M  V30 2007 H 178.373 -3.97956 1.25246 0
M  V30 2008 H 177.003 -3.2008 0.418164 0
M  V30 2009 H 176.055 -2.61207 2.76542 0
M  V30 2010 H 177.367 -3.58126 3.47199 0
M  V30 2011 H 176.521 -5.61853 2.28924 0
M  V30 2012 H 175.26 -4.64763 1.47805 0
M  V30 2013 H 174.265 -4.06044 3.70686 0
M  V30 2014 H 175.49 -5.06542 4.52318 0
M  V30 2015 H 173.436 -6.06013 2.51167 0
M  V30 2016 H 173.353 -6.26543 4.23061 0
M  V30 2017 H 174.621 -7.04619 3.33365 0
M  V30 2018 N 178.85 -1.27639 -0.924453 0
M  V30 2019 C 179.813 -1.10681 -2.00705 0
M  V30 2020 C 180.813 -0.0497823 -1.60723 0
M  V30 2021 O 182.003 -0.294654 -1.7169 0
M  V30 2022 C 179.135 -0.687164 -3.33902 0
M  V30 2023 H 180.328 -2.06817 -2.17179 0
M  V30 2024 H 177.881 -1.10473 -1.10569 0
M  V30 2025 H 178.616 0.275439 -3.23128 0
M  V30 2026 H 178.401 -1.45061 -3.6428 0
M  V30 2027 H 179.891 -0.590853 -4.13399 0
M  V30 2028 N 180.328 1.1314 -1.09713 0
M  V30 2029 C 181.744 1.36477 -0.827423 0
M  V30 2030 C 181.944 1.93654 0.556817 0
M  V30 2031 O 181 2.15791 1.31112 0
M  V30 2032 C 182.313 2.31334 -1.92106 0
M  V30 2033 C 183.861 2.44943 -1.94864 0
M  V30 2034 C 184.336 3.4311 -3.0338 0
M  V30 2035 N 185.827 3.50662 -3.02639 0
M  V30 2036 C 186.562 4.2651 -3.83246 0
M  V30 2037 N 186.058 5.05485 -4.73768 0
M  V30 2038 N 187.851 4.2184 -3.71493 0
M  V30 2039 H 180.002 0.743807 -1.9895 0
M  V30 2040 H 182.265 0.389823 -0.864143 0
M  V30 2041 H 181.971 1.96483 -2.91698 0
M  V30 2042 H 181.845 3.31381 -1.80184 0
M  V30 2043 H 184.232 2.79079 -0.959099 0
M  V30 2044 H 184.313 1.4481 -2.10864 0
M  V30 2045 H 183.957 3.09704 -4.02549 0
M  V30 2046 H 183.887 4.43055 -2.84622 0
M  V30 2047 H 186.378 2.94315 -2.37039 0
M  V30 2048 H 186.691 5.60675 -5.3185 0
M  V30 2049 H 185.036 5.04708 -4.77802 0
M  V30 2050 H 188.227 3.5922 -3.00131 0
M  V30 2051 H 188.4 4.80697 -4.3455 0
M  V30 2052 N 181.806 0.884767 1.30421 0
M  V30 2053 C 183.083 0.423185 1.90967 0
M  V30 2054 C 183.463 -1.09605 1.80416 0
M  V30 2055 O 182.811 -1.93126 1.22125 0
M  V30 2056 C 183.021 0.921056 3.36627 0
M  V30 2057 C 184.369 0.955903 4.137 0
M  V30 2058 O 185.393 0.867706 3.4547 0
M  V30 2059 O 184.252 1.08614 5.35598 0
M  V30 2060 H 181.346 0.129369 0.816819 0
M  V30 2061 H 183.892 0.973653 1.3899 0
M  V30 2062 H 182.664 1.96489 3.3839 0
M  V30 2063 H 182.287 0.349741 3.96059 0
M  V30 2064 N 183.284 -1.43765 0.645699 0
M  V30 2065 C 184.7 -1.56509 0.312591 0
M  V30 2066 C 184.9 -1.6307 -1.18365 0
M  V30 2067 O 183.956 -1.58167 -1.96824 0
M  V30 2068 C 185.269 -2.82968 1.01733 0
M  V30 2069 C 186.817 -2.96701 0.996865 0
M  V30 2070 C 187.292 -4.25982 1.68236 0
M  V30 2071 N 188.783 -4.32829 1.64964 0
M  V30 2072 C 189.518 -5.31613 2.14885 0
M  V30 2073 N 189.014 -6.36718 2.73061 0
M  V30 2074 N 190.807 -5.23217 2.05428 0
M  V30 2075 H 182.958 -1.3775 1.61675 0
M  V30 2076 H 185.221 -0.661067 0.679481 0
M  V30 2077 H 184.927 -2.84156 2.0724 0
M  V30 2078 H 184.801 -3.72957 0.564177 0
M  V30 2079 H 187.188 -2.95058 -0.0497719 0
M  V30 2080 H 187.269 -2.08022 1.48865 0
M  V30 2081 H 186.913 -4.28386 2.72852 0
M  V30 2082 H 186.843 -5.13545 1.16529 0
M  V30 2083 H 189.334 -3.57493 1.22503 0
M  V30 2084 H 189.647 -7.08401 3.08848 0
M  V30 2085 H 187.992 -6.37362 2.77118 0
M  V30 2086 H 191.183 -4.40019 1.59689 0
M  V30 2087 H 191.356 -6.00045 2.44643 0
M  V30 2088 N 184.763 -0.387143 -1.52771 0
M  V30 2089 C 185.693 0.440551 -2.29306 0
M  V30 2090 C 186.674 1.06535 -1.32606 0
M  V30 2091 O 187.859 1.07853 -1.61497 0
M  V30 2092 C 184.989 1.56919 -3.09829 0
M  V30 2093 C 183.943 1.07054 -4.14395 0
M  V30 2094 C 183.269 2.29109 -4.83129 0
M  V30 2095 C 184.569 0.140015 -5.22112 0
M  V30 2096 H 186.263 -0.198026 -2.98744 0
M  V30 2097 H 183.809 -0.09668 -1.43675 0
M  V30 2098 H 185.762 2.15503 -3.62128 0
M  V30 2099 H 184.486 2.23532 -2.3812 0
M  V30 2100 H 183.145 0.507247 -3.63074 0
M  V30 2101 H 182.793 2.94227 -4.0797 0
M  V30 2102 H 182.493 1.96406 -5.53804 0
M  V30 2103 H 184.017 2.88339 -5.38231 0
M  V30 2104 H 185.431 0.633978 -5.69784 0
M  V30 2105 H 183.828 -0.0971485 -6.00021 0
M  V30 2106 H 184.898 -0.811711 -4.78058 0
M  V30 2107 N 186.241 1.57166 -0.116904 0
M  V30 2108 C 187.489 1.94737 0.540533 0
M  V30 2109 C 187.81 1.00096 1.67349 0
M  V30 2110 O 187.08 0.0568854 1.95817 0
M  V30 2111 H 185.66 0.718981 0.202669 0
M  V30 2112 H 188.322 1.94017 -0.185353 0
M  V30 2113 H 187.418 2.97719 0.936483 0
M  V30 2114 N 187.719 -0.156864 1.56817 0
M  V30 2115 C 188.667 -1.21319 1.98455 0
M  V30 2116 C 189.661 -1.45025 0.875444 0
M  V30 2117 O 190.867 -1.45435 1.0606 0
M  V30 2118 H 187.242 -0.408142 0.631605 0
M  V30 2119 H 189.213 -0.835244 2.86472 0
M  V30 2120 C 187.962 -2.54148 2.37285 0
M  V30 2121 H 187.285 -2.36733 3.22176 0
M  V30 2122 H 188.725 -3.26712 2.70251 0
M  V30 2123 C 187.184 -3.13967 1.22173 0
M  V30 2124 O 187.714 -3.98357 0.517149 0
M  V30 2125 N 185.92 -2.7327 0.988536 0
M  V30 2126 H 185.467 -2.04744 1.56326 0
M  V30 2127 H 185.425 -3.13628 0.220209 0
M  V30 2128 N 189.197 -1.51736 -0.425897 0
M  V30 2129 C 190.107 -1.76738 -1.54275 0
M  V30 2130 C 191.123 -0.65211 -1.61318 0
M  V30 2131 O 192.299 -0.935654 -1.78346 0
M  V30 2132 C 189.364 -1.89755 -2.90162 0
M  V30 2133 C 188.425 -3.13633 -2.93143 0
M  V30 2134 C 187.658 -3.2602 -4.22548 0
M  V30 2135 O 187.881 -2.44067 -5.15546 0
M  V30 2136 O 186.815 -4.19071 -4.32046 0
M  V30 2137 H 190.641 -2.71502 -1.36089 0
M  V30 2138 H 188.226 -1.36376 -0.610069 0
M  V30 2139 H 190.108 -2.00236 -3.70788 0
M  V30 2140 H 188.783 -0.981785 -3.08452 0
M  V30 2141 H 187.69 -3.08622 -2.11431 0
M  V30 2142 H 189.023 -4.04936 -2.798 0
M  V30 2143 N 190.675 0.682077 -1.42076 0
M  V30 2144 C 191.923 1.4393 -1.41876 0
M  V30 2145 C 192.244 1.94971 -0.0335599 0
M  V30 2146 O 191.514 1.72591 0.926773 0
M  V30 2147 H 190.094 0.534085 -0.522267 0
M  V30 2148 H 192.756 0.806427 -1.77434 0
M  V30 2149 H 191.852 2.29588 -2.11414 0
M  V30 2150 N 192.153 1.28127 0.917671 0
M  V30 2151 C 193.083 1.14248 2.03641 0
M  V30 2152 C 194.064 0.0412748 1.7005 0
M  V30 2153 O 195.249 0.217566 1.92977 0
M  V30 2154 C 192.379 0.799431 3.37974 0
M  V30 2155 C 191.333 1.85497 3.85713 0
M  V30 2156 C 190.659 1.36565 5.16966 0
M  V30 2157 C 191.959 3.26085 4.08002 0
M  V30 2158 H 193.653 2.07835 2.15511 0
M  V30 2159 H 191.199 1.00064 1.03553 0
M  V30 2160 H 193.152 0.689114 4.15727 0
M  V30 2161 H 191.876 -0.172145 3.26146 0
M  V30 2162 H 190.535 1.95437 3.10161 0
M  V30 2163 H 190.183 0.383253 5.01538 0
M  V30 2164 H 189.883 2.07143 5.49878 0
M  V30 2165 H 191.407 1.26848 5.97279 0
M  V30 2166 H 192.821 3.19089 4.76293 0
M  V30 2167 H 191.218 3.94462 4.52238 0
M  V30 2168 H 192.288 3.70394 3.12948 0
M  V30 2169 N 193.631 -1.12557 1.10312 0
M  V30 2170 C 194.88 -1.83395 0.839588 0
M  V30 2171 C 195.193 -1.84939 -0.636929 0
M  V30 2172 O 196.399 -2.51761 -1.01631 0
M  V30 2173 C 194.855 -3.29303 1.45215 0
M  V30 2174 C 194.463 -3.36122 2.96186 0
M  V30 2175 C 196.207 -4.05121 1.26796 0
M  V30 2176 C 194.114 -4.76357 3.50483 0
M  V30 2177 H 193.044 -0.687133 0.310425 0
M  V30 2178 H 195.695 -1.26746 1.32694 0
M  V30 2179 H 194.077 -3.85812 0.892469 0
M  V30 2180 H 195.251 -2.89559 3.58458 0
M  V30 2181 H 193.566 -2.73776 3.13745 0
M  V30 2182 H 196.163 -5.08668 1.64806 0
M  V30 2183 H 196.506 -4.15773 0.209409 0
M  V30 2184 H 197.039 -3.54967 1.79563 0
M  V30 2185 H 193.778 -4.70899 4.55998 0
M  V30 2186 H 193.298 -5.23377 2.92978 0
M  V30 2187 H 194.977 -5.45294 3.48228 0
M  V30 2188 N 195.109 -0.891671 -1.2995 0
M  V30 2189 C 196.52 -0.563104 -1.78006 0
M  V30 2190 C 196.871 0.920978 -1.73241 0
M  V30 2191 O 195.996 1.71987 -1.31337 0
M  V30 2192 C 196.591 -1.01539 -3.23226 0
M  V30 2193 C 195.15 -0.738124 -3.69092 0
M  V30 2194 C 194.297 -1.19461 -2.50249 0
M  V30 2195 H 197.248 -1.07522 -1.16725 0
M  V30 2196 H 197.269 -0.347217 -3.78912 0
M  V30 2197 H 196.781 -2.09555 -3.26662 0
M  V30 2198 H 194.882 0.329766 -3.71138 0
M  V30 2199 H 194.995 -1.33037 -4.60259 0
M  V30 2200 H 193.359 -0.613787 -2.47194 0
M  V30 2201 H 194.142 -2.28265 -2.56417 0
M  V30 2202 N 196.587 1.43421 -0.653314 0
M  V30 2203 C 197.812 2.06678 -0.172846 0
M  V30 2204 C 198.237 1.48648 1.15262 0
M  V30 2205 O 197.595 0.596457 1.71208 0
M  V30 2206 C 197.643 3.60474 -0.0953184 0
M  V30 2207 O 196.747 4.01487 0.942442 0
M  V30 2208 H 196.088 0.657181 -0.0949155 0
M  V30 2209 H 198.618 1.83925 -0.896265 0
M  V30 2210 H 198.628 4.07905 0.0879728 0
M  V30 2211 H 197.303 4.02088 -1.06291 0
M  V30 2212 H 195.88 3.65646 0.731932 0
M  V30 2213 N 198.065 0.39524 1.52563 0
M  V30 2214 C 199.013 -0.451859 2.28169 0
M  V30 2215 C 200.007 -1.05792 1.32304 0
M  V30 2216 O 201.213 -0.997718 1.49818 0
M  V30 2217 H 197.588 -0.164481 0.733792 0
M  V30 2218 H 199.559 0.207199 2.9768 0
M  V30 2219 C 198.308 -1.56385 3.10546 0
M  V30 2220 H 197.631 -1.10682 3.84174 0
M  V30 2221 H 199.071 -2.13067 3.66577 0
M  V30 2222 C 197.53 -2.52328 2.23231 0
M  V30 2223 O 198.06 -3.5588 1.86312 0
M  V30 2224 N 196.266 -2.22209 1.87274 0
M  V30 2225 H 195.813 -1.38033 2.17496 0
M  V30 2226 H 195.771 -2.86652 1.29143 0
M  V30 2227 N 199.544 -1.57102 0.125237 0
M  V30 2228 C 200.774 -1.99472 -0.538015 0
M  V30 2229 C 201.182 -1.00395 -1.60366 0
M  V30 2230 O 200.525 0.0103875 -1.83697 0
M  V30 2231 C 200.587 -3.38262 -1.21734 0
M  V30 2232 C 200.251 -4.56021 -0.298897 0
M  V30 2233 C 201.248 -5.17817 0.464943 0
M  V30 2234 C 198.933 -5.01869 -0.208149 0
M  V30 2235 C 200.927 -6.23852 1.3072 0
M  V30 2236 C 198.614 -6.07763 0.637736 0
M  V30 2237 C 199.612 -6.68622 1.39403 0
M  V30 2238 O 199.3 -7.7247 2.22586 0
M  V30 2239 H 199.032 -0.659934 -0.146501 0
M  V30 2240 H 201.586 -2.04321 0.210267 0
M  V30 2241 H 199.816 -3.30185 -2.01282 0
M  V30 2242 H 201.505 -3.6488 -1.77813 0
M  V30 2243 H 202.271 -4.83308 0.404741 0
M  V30 2244 H 198.15 -4.54241 -0.786522 0
M  V30 2245 H 201.694 -6.71284 1.898 0
M  V30 2246 H 197.591 -6.41701 0.699309 0
M  V30 2247 H 198.359 -7.89595 2.15596 0
M  V30 2248 N 201.022 0.148545 -1.56898 0
M  V30 2249 C 202.268 0.862694 -1.83536 0
M  V30 2250 C 202.601 1.80889 -0.706604 0
M  V30 2251 O 201.876 1.92328 0.289885 0
M  V30 2252 C 202.159 1.63853 -3.20662 0
M  V30 2253 C 202.012 0.713925 -4.44098 0
M  V30 2254 C 203.331 2.60133 -3.54991 0
M  V30 2255 H 200.45 0.312179 -0.667618 0
M  V30 2256 H 203.092 0.127953 -1.89569 0
M  V30 2257 H 201.242 2.26489 -3.1565 0
M  V30 2258 H 202.914 0.098686 -4.61194 0
M  V30 2259 H 201.157 0.0234019 -4.33794 0
M  V30 2260 H 201.828 1.29278 -5.36648 0
M  V30 2261 H 204.304 2.07616 -3.60603 0
M  V30 2262 H 203.18 3.11468 -4.51972 0
M  V30 2263 H 203.441 3.41417 -2.80868 0
M  V30 2264 N 202.5 1.5196 0.417844 0
M  V30 2265 C 203.728 1.69426 1.18753 0
M  V30 2266 C 204.143 0.399955 1.84515 0
M  V30 2267 O 203.5 -0.623288 1.71527 0
M  V30 2268 C 203.551 2.82375 2.25714 0
M  V30 2269 O 203.272 4.06793 1.62638 0
M  V30 2270 C 204.773 3.11277 3.15628 0
M  V30 2271 H 201.993 0.568031 0.357186 0
M  V30 2272 H 204.537 1.98475 0.49273 0
M  V30 2273 H 202.692 2.5587 2.90877 0
M  V30 2274 H 203.106 4.69667 2.3348 0
M  V30 2275 H 204.58 3.93843 3.86771 0
M  V30 2276 H 205.057 2.24473 3.77503 0
M  V30 2277 H 205.663 3.39515 2.56144 0
M  V30 2278 N 203.978 -0.674533 1.42435 0
M  V30 2279 C 204.888 -1.81751 1.48337 0
M  V30 2280 C 205.904 -1.69975 0.372099 0
M  V30 2281 O 207.08 -1.91521 0.62304 0
M  V30 2282 C 204.145 -3.17895 1.38361 0
M  V30 2283 C 203.206 -3.41625 2.59982 0
M  V30 2284 C 202.439 -4.71274 2.50473 0
M  V30 2285 O 202.662 -5.49197 1.54075 0
M  V30 2286 O 201.596 -4.96254 3.4061 0
M  V30 2287 H 205.422 -1.79728 2.44809 0
M  V30 2288 H 203.007 -0.830312 1.24202 0
M  V30 2289 H 204.889 -3.99136 1.35161 0
M  V30 2290 H 203.564 -3.20555 0.450144 0
M  V30 2291 H 202.471 -2.60231 2.68757 0
M  V30 2292 H 203.804 -3.43796 3.52229 0
M  V30 2293 N 205.456 -1.28612 -0.910864 0
M  V30 2294 C 206.404 -1.1265 -2.03501 0
M  V30 2295 C 207.398 -0.0450054 -1.6934 0
M  V30 2296 O 208.604 -0.203988 -1.7884 0
M  V30 2297 H 204.979 -0.347639 -0.666822 0
M  V30 2298 H 206.95 -2.07849 -2.14106 0
M  V30 2299 C 205.699 -0.808143 -3.38178 0
M  V30 2300 H 205.022 -1.63231 -3.6496 0
M  V30 2301 H 206.462 -0.736426 -4.17556 0
M  V30 2302 C 204.921 0.488226 -3.33344 0
M  V30 2303 O 205.451 1.51766 -3.71927 0
M  V30 2304 N 203.657 0.490009 -2.86439 0
M  V30 2305 H 203.204 -0.348161 -2.55236 0
M  V30 2306 H 203.162 1.35741 -2.83587 0
M  V30 2307 N 206.934 1.1197 -1.10907 0
M  V30 2308 C 207.881 2.17846 -0.762345 0
M  V30 2309 C 208.851 1.63995 0.263599 0
M  V30 2310 O 210.036 1.90273 0.141773 0
M  V30 2311 C 207.176 3.44487 -0.205651 0
M  V30 2312 C 206.289 4.12369 -1.28748 0
M  V30 2313 C 205.424 5.26674 -0.691919 0
M  V30 2314 C 204.463 5.86431 -1.75399 0
M  V30 2315 N 203.6 6.92142 -1.17833 0
M  V30 2316 H 208.44 2.46851 -1.6694 0
M  V30 2317 H 205.977 1.21188 -0.833776 0
M  V30 2318 H 207.935 4.16981 0.135037 0
M  V30 2319 H 206.565 3.15884 0.664613 0
M  V30 2320 H 205.617 3.38003 -1.74522 0
M  V30 2321 H 206.929 4.52844 -2.09125 0
M  V30 2322 H 206.083 6.05953 -0.300963 0
M  V30 2323 H 204.822 4.8749 0.143232 0
M  V30 2324 H 203.827 5.05835 -2.15432 0
M  V30 2325 H 205.052 6.27685 -2.59208 0
M  V30 2326 H 202.998 6.54985 -0.364725 0
M  V30 2327 H 202.915 7.31242 -1.91887 0
M  V30 2328 H 204.183 7.75237 -0.81408 0
M  V30 2329 N 208.412 0.89855 1.29475 0
M  V30 2330 C 209.661 0.519863 1.94885 0
M  V30 2331 C 209.974 -0.9383 1.71625 0
M  V30 2332 O 211.18 -1.42445 2.31131 0
M  V30 2333 C 209.636 0.878836 3.49005 0
M  V30 2334 C 209.244 2.35569 3.81066 0
M  V30 2335 C 210.988 0.570004 4.20656 0
M  V30 2336 C 208.895 2.65558 5.28425 0
M  V30 2337 H 207.825 0.190692 0.729488 0
M  V30 2338 H 210.476 1.09539 1.47219 0
M  V30 2339 H 208.858 0.232253 3.95318 0
M  V30 2340 H 210.032 3.04773 3.45616 0
M  V30 2341 H 208.347 2.63343 3.22552 0
M  V30 2342 H 210.944 0.770925 5.29113 0
M  V30 2343 H 211.287 -0.491404 4.1339 0
M  V30 2344 H 211.82 1.17438 3.8007 0
M  V30 2345 H 208.559 3.70493 5.40754 0
M  V30 2346 H 208.079 2.00977 5.65127 0
M  V30 2347 H 209.758 2.51765 5.96006 0
M  V30 2348 N 209.89 -1.43072 0.660911 0
M  V30 2349 C 211.118 -2.06067 0.185422 0
M  V30 2350 C 211.533 -1.49582 -1.15198 0
M  V30 2351 O 210.89 -0.630134 -1.71276 0
M  V30 2352 C 210.941 -3.61371 0.0966523 0
M  V30 2353 O 210.662 -4.15758 1.38119 0
M  V30 2354 C 212.163 -4.41455 -0.403996 0
M  V30 2355 H 209.383 -0.664459 0.0934604 0
M  V30 2356 H 211.927 -1.83447 0.90373 0
M  V30 2357 H 210.082 -3.8315 -0.572259 0
M  V30 2358 H 210.496 -5.09499 1.24542 0
M  V30 2359 H 211.97 -5.50437 -0.415045 0
M  V30 2360 H 212.447 -4.15036 -1.43674 0
M  V30 2361 H 213.053 -4.24663 0.232691 0
M  V30 2362 N 211.368 -0.403325 -1.52352 0
M  V30 2363 C 212.316 0.439752 -2.28405 0
M  V30 2364 C 213.31 1.05089 -1.32863 0
M  V30 2365 O 214.516 0.989759 -1.50345 0
M  V30 2366 H 210.891 0.160587 -0.734653 0
M  V30 2367 H 212.862 -0.222983 -2.97566 0
M  V30 2368 C 211.611 1.54736 -3.11371 0
M  V30 2369 H 210.934 1.08643 -3.84755 0
M  V30 2370 H 212.374 2.1112 -3.67701 0
M  V30 2371 C 210.833 2.51141 -2.24566 0
M  V30 2372 O 211.363 3.54887 -1.88196 0
M  V30 2373 N 209.569 2.21213 -1.8845 0
M  V30 2374 H 209.116 1.36878 -2.18225 0
M  V30 2375 H 209.074 2.85963 -1.30662 0
M  V30 2376 N 212.846 1.57033 -0.133567 0
M  V30 2377 C 213.776 2.1909 0.807567 0
M  V30 2378 C 214.757 1.13517 1.26681 0
M  V30 2379 O 215.942 1.41809 1.32679 0
M  V30 2380 C 213.072 2.80188 2.05212 0
M  V30 2381 C 212.026 3.91471 1.73015 0
M  V30 2382 C 211.352 4.39443 3.04622 0
M  V30 2383 C 212.652 5.12886 0.987168 0
M  V30 2384 H 214.346 2.97988 0.290403 0
M  V30 2385 H 211.892 1.43335 0.138239 0
M  V30 2386 H 213.845 3.22264 2.71521 0
M  V30 2387 H 212.569 1.98601 2.59278 0
M  V30 2388 H 211.228 3.49993 1.0909 0
M  V30 2389 H 210.876 3.54695 3.56651 0
M  V30 2390 H 210.576 5.14495 2.83847 0
M  V30 2391 H 212.1 4.8418 3.72024 0
M  V30 2392 H 213.514 5.51891 1.55208 0
M  V30 2393 H 211.911 5.93615 0.87985 0
M  V30 2394 H 212.981 4.84894 -0.0235286 0
M  V30 2395 N 214.325 -0.140222 1.56975 0
M  V30 2396 C 215.235 -1.19223 2.02047 0
M  V30 2397 C 216.251 -1.46612 0.937062 0
M  V30 2398 O 217.427 -1.58148 1.24704 0
M  V30 2399 C 214.492 -2.50414 2.39778 0
M  V30 2400 C 213.553 -2.30612 3.621 0
M  V30 2401 C 212.786 -3.55547 3.98023 0
M  V30 2402 O 213.009 -4.62004 3.34528 0
M  V30 2403 O 211.943 -3.47808 4.91237 0
M  V30 2404 H 215.769 -0.839559 2.91865 0
M  V30 2405 H 213.354 -0.349453 1.45256 0
M  V30 2406 H 215.236 -3.27747 2.64877 0
M  V30 2407 H 213.911 -2.85198 1.53114 0
M  V30 2408 H 212.818 -1.51207 3.4218 0
M  V30 2409 H 214.151 -2.00741 4.49404 0
M  V30 2410 N 215.803 -1.52179 -0.40978 0
M  V30 2411 C 217.052 -1.65434 -1.15388 0
M  V30 2412 C 217.365 -0.390056 -1.91671 0
M  V30 2413 O 218.571 -0.402399 -2.68501 0
M  V30 2414 C 217.027 -2.92279 -2.10003 0
M  V30 2415 C 216.635 -4.25813 -1.39239 0
M  V30 2416 C 218.379 -3.14897 -2.84675 0
M  V30 2417 C 216.286 -5.43782 -2.32498 0
M  V30 2418 H 215.216 -0.616267 -0.434432 0
M  V30 2419 H 217.867 -1.78666 -0.418401 0
M  V30 2420 H 216.249 -2.72744 -2.871 0
M  V30 2421 H 217.423 -4.55828 -0.675099 0
M  V30 2422 H 215.738 -4.09292 -0.766097 0
M  V30 2423 H 218.335 -4.0021 -3.54593 0
M  V30 2424 H 218.678 -2.29103 -3.47588 0
M  V30 2425 H 219.211 -3.34901 -2.14677 0
M  V30 2426 H 215.95 -6.3192 -1.74233 0
M  V30 2427 H 215.47 -5.18106 -3.02201 0
M  V30 2428 H 217.149 -5.76834 -2.93038 0
M  V30 2429 N 217.281 0.66697 -1.42791 0
M  V30 2430 C 218.511 1.45294 -1.46878 0
M  V30 2431 C 218.919 1.89027 -0.0809861 0
M  V30 2432 O 218.262 1.59219 0.916246 0
M  V30 2433 C 218.324 2.72908 -2.34012 0
M  V30 2434 C 217.988 2.51203 -3.81767 0
M  V30 2435 C 218.985 2.15302 -4.73224 0
M  V30 2436 C 216.67 2.65954 -4.26115 0
M  V30 2437 C 218.664 1.94431 -6.07022 0
M  V30 2438 C 216.351 2.44699 -5.59969 0
M  V30 2439 C 217.349 2.08992 -6.5024 0
M  V30 2440 O 217.037 1.87948 -7.81621 0
M  V30 2441 H 216.769 0.453306 -0.501487 0
M  V30 2442 H 219.323 0.826232 -1.88049 0
M  V30 2443 H 217.553 3.38089 -1.87703 0
M  V30 2444 H 219.242 3.34816 -2.29462 0
M  V30 2445 H 220.008 2.03495 -4.40244 0
M  V30 2446 H 215.887 2.92724 -3.56137 0
M  V30 2447 H 219.431 1.66484 -6.77443 0
M  V30 2448 H 215.328 2.56105 -5.9252 0
M  V30 2449 H 216.096 2.02483 -7.93059 0
M  V30 2450 N 218.759 1.29093 0.90403 0
M  V30 2451 C 219.669 1.15727 2.0407 0
M  V30 2452 C 220.685 0.0815308 1.73809 0
M  V30 2453 O 221.861 0.292749 1.99261 0
M  V30 2454 C 218.926 0.830424 3.36608 0
M  V30 2455 C 217.987 1.98955 3.80415 0
M  V30 2456 C 217.22 1.6782 5.06628 0
M  V30 2457 O 217.443 0.597105 5.67266 0
M  V30 2458 O 216.377 2.52486 5.46383 0
M  V30 2459 H 220.203 2.11171 2.18267 0
M  V30 2460 H 217.788 1.08504 1.027 0
M  V30 2461 H 219.67 0.662521 4.16159 0
M  V30 2462 H 218.345 -0.0942678 3.23563 0
M  V30 2463 H 217.252 2.21267 3.01648 0
M  V30 2464 H 218.585 2.89529 3.98037 0
M  V30 2465 N 220.237 -1.11381 1.11499 0
M  V30 2466 C 221.483 -1.83597 0.875423 0
M  V30 2467 C 221.838 -1.83048 -0.592555 0
M  V30 2468 O 221.131 -1.27304 -1.43193 0
M  V30 2469 C 221.325 -3.30026 1.37177 0
M  V30 2470 C 221.154 -3.44837 2.88647 0
M  V30 2471 C 219.924 -3.57825 3.56776 0
M  V30 2472 C 222.122 -3.3907 3.86699 0
M  V30 2473 N 220.104 -3.61113 4.96458 0
M  V30 2474 C 221.475 -3.48986 5.12454 0
M  V30 2475 C 223.53 -3.22605 3.7925 0
M  V30 2476 C 222.233 -3.44135 6.31636 0
M  V30 2477 C 224.259 -3.19072 4.97943 0
M  V30 2478 C 223.621 -3.29559 6.22551 0
M  V30 2479 H 219.72 -0.687044 0.37349 0
M  V30 2480 H 222.304 -1.33265 1.41946 0
M  V30 2481 H 220.475 -3.78874 0.854919 0
M  V30 2482 H 222.207 -3.90153 1.07529 0
M  V30 2483 H 218.962 -3.60414 3.07244 0
M  V30 2484 H 219.386 -3.66394 5.69284 0
M  V30 2485 H 224.028 -3.13382 2.83816 0
M  V30 2486 H 221.746 -3.52126 7.27347 0
M  V30 2487 H 225.332 -3.07498 4.93899 0
M  V30 2488 H 224.212 -3.26815 7.12855 0
M  V30 2489 N 221.715 -0.905404 -1.28997 0
M  V30 2490 C 222.945 -0.549049 -1.99171 0
M  V30 2491 C 223.353 0.87203 -1.67906 0
M  V30 2492 O 222.696 1.58796 -0.923561 0
M  V30 2493 C 222.758 -0.668306 -3.53234 0
M  V30 2494 C 222.422 -2.0574 -4.08069 0
M  V30 2495 C 223.419 -3.0292 -4.22534 0
M  V30 2496 C 221.104 -2.36833 -4.42962 0
M  V30 2497 C 223.098 -4.29314 -4.71135 0
M  V30 2498 C 220.785 -3.63467 -4.91258 0
M  V30 2499 C 221.783 -4.59522 -5.053 0
M  V30 2500 O 221.471 -5.83907 -5.52546 0
M  V30 2501 H 221.203 -0.208784 -0.64295 0
M  V30 2502 H 223.757 -1.21836 -1.65363 0
M  V30 2503 H 221.987 0.0580547 -3.86656 0
M  V30 2504 H 223.676 -0.320273 -4.04634 0
M  V30 2505 H 224.442 -2.80216 -3.95859 0
M  V30 2506 H 220.321 -1.62824 -4.31288 0
M  V30 2507 H 223.865 -5.04293 -4.8201 0
M  V30 2508 H 219.762 -3.86 -5.17372 0
M  V30 2509 H 220.53 -5.86578 -5.70849 0
M  V30 2510 N 223.193 1.4272 -0.668489 0
M  V30 2511 C 224.143 2.27971 0.0363806 0
M  V30 2512 C 225.127 1.40741 0.779794 0
M  V30 2513 O 226.319 1.64245 0.659745 0
M  V30 2514 C 223.448 3.28673 0.991398 0
M  V30 2515 C 222.534 4.23388 0.245658 0
M  V30 2516 N 222.925 5.00267 -0.746069 0
M  V30 2517 C 221.223 4.43355 0.484988 0
M  V30 2518 C 221.924 5.69396 -1.19009 0
M  V30 2519 N 220.9 5.41095 -0.521287 0
M  V30 2520 H 224.702 2.84833 -0.724394 0
M  V30 2521 H 222.216 1.54607 -0.497028 0
M  V30 2522 H 224.213 3.88543 1.51129 0
M  V30 2523 H 222.873 2.73373 1.75207 0
M  V30 2524 H 223.884 5.05525 -1.12537 0
M  V30 2525 H 220.561 3.99104 1.22565 0
M  V30 2526 H 221.951 6.41083 -2.01153 0
M  V30 2527 N 224.671 0.411399 1.52136 0
M  V30 2528 C 226.087 0.0623865 1.59478 0
M  V30 2529 C 226.287 -1.42554 1.4241 0
M  V30 2530 O 225.343 -2.19263 1.2522 0
M  V30 2531 C 226.656 0.559331 2.95452 0
M  V30 2532 C 228.204 0.517503 3.08692 0
M  V30 2533 C 228.679 0.990994 4.4715 0
M  V30 2534 N 230.17 0.947908 4.53397 0
M  V30 2535 C 230.905 1.28544 5.58806 0
M  V30 2536 N 230.401 1.69454 6.71757 0
M  V30 2537 N 232.194 1.20526 5.49026 0
M  V30 2538 H 224.345 1.37982 1.61477 0
M  V30 2539 H 226.608 0.566977 0.759764 0
M  V30 2540 H 226.314 1.59938 3.1323 0
M  V30 2541 H 226.188 -0.0298014 3.77188 0
M  V30 2542 H 228.575 -0.513505 2.90598 0
M  V30 2543 H 228.656 1.14272 2.28857 0
M  V30 2544 H 228.3 2.02034 4.65988 0
M  V30 2545 H 228.23 0.34257 5.25485 0
M  V30 2546 H 230.721 0.647157 3.72317 0
M  V30 2547 H 231.034 1.93513 7.48179 0
M  V30 2548 H 229.379 1.73359 6.73032 0
M  V30 2549 H 232.57 0.884505 4.59667 0
M  V30 2550 H 232.743 1.47161 6.31069 0
M  V30 2551 N 226.149 -1.5696 0.141893 0
M  V30 2552 C 227.097 -2.17784 -0.816874 0
M  V30 2553 C 228.091 -1.1334 -1.25899 0
M  V30 2554 O 229.297 -1.316 -1.22806 0
M  V30 2555 H 225.672 -0.697278 -0.281615 0
M  V30 2556 H 227.643 -2.97087 -0.279621 0
M  V30 2557 C 226.392 -2.80983 -2.04802 0
M  V30 2558 H 225.715 -3.61062 -1.7168 0
M  V30 2559 H 227.155 -3.2705 -2.69841 0
M  V30 2560 C 225.614 -1.79228 -2.8527 0
M  V30 2561 O 226.144 -1.25962 -3.8144 0
M  V30 2562 N 224.35 -1.48647 -2.49704 0
M  V30 2563 H 223.897 -1.92155 -1.71564 0
M  V30 2564 H 223.855 -0.808115 -3.03837 0
M  V30 2565 N 227.627 0.131896 -1.57047 0
M  V30 2566 C 228.876 0.84044 -1.83356 0
M  V30 2567 C 229.189 1.81646 -0.725535 0
M  V30 2568 O 230.395 2.57025 -0.874659 0
M  V30 2569 C 228.851 1.54528 -3.25037 0
M  V30 2570 C 228.459 0.610902 -4.43815 0
M  V30 2571 C 230.203 2.23972 -3.60606 0
M  V30 2572 C 228.11 1.31823 -5.76521 0
M  V30 2573 H 227.04 0.317599 -0.683847 0
M  V30 2574 H 229.691 0.0931561 -1.83263 0
M  V30 2575 H 228.073 2.33873 -3.19561 0
M  V30 2576 H 229.247 -0.148407 -4.60561 0
M  V30 2577 H 227.562 0.0241016 -4.16393 0
M  V30 2578 H 230.159 2.77558 -4.57018 0
M  V30 2579 H 230.502 3.01173 -2.87403 0
M  V30 2580 H 231.035 1.51529 -3.6781 0
M  V30 2581 H 227.774 0.587771 -6.52859 0
M  V30 2582 H 227.294 2.04987 -5.63685 0
M  V30 2583 H 228.973 1.855 -6.19838 0
M  V30 2584 N 229.106 1.52395 0.401703 0
M  V30 2585 C 230.334 1.70676 1.16949 0
M  V30 2586 C 230.749 0.419503 1.8408 0
M  V30 2587 O 230.106 -0.605061 1.72178 0
M  V30 2588 C 230.157 2.84753 2.22706 0
M  V30 2589 O 229.878 4.08495 1.58314 0
M  V30 2590 C 231.379 3.14608 3.12309 0
M  V30 2591 H 228.599 0.571787 0.351142 0
M  V30 2592 H 231.143 1.98987 0.471652 0
M  V30 2593 H 229.298 2.58941 2.88147 0
M  V30 2594 H 229.712 4.72117 2.28485 0
M  V30 2595 H 231.186 3.97923 3.82572 0
M  V30 2596 H 231.663 2.28464 3.75101 0
M  V30 2597 H 232.269 3.42212 2.52529 0
M  V30 2598 N 230.584 -0.659388 1.43143 0
M  V30 2599 C 232 -0.974337 1.26407 0
M  V30 2600 C 232.2 -2.007 0.179341 0
M  V30 2601 O 231.256 -2.4856 -0.444295 0
M  V30 2602 C 232.569 -1.46447 2.62628 0
M  V30 2603 C 234.117 -1.58144 2.7011 0
M  V30 2604 C 234.592 -2.1055 4.06734 0
M  V30 2605 N 236.083 -2.17861 4.08767 0
M  V30 2606 C 236.818 -2.59519 5.1131 0
M  V30 2607 N 236.314 -3.00518 6.24228 0
M  V30 2608 N 238.107 -2.59404 4.98664 0
M  V30 2609 H 230.258 0.0240528 2.12386 0
M  V30 2610 H 232.521 -0.0518065 0.946583 0
M  V30 2611 H 232.227 -0.780123 3.42939 0
M  V30 2612 H 232.101 -2.44058 2.87603 0
M  V30 2613 H 234.488 -2.25682 1.90136 0
M  V30 2614 H 234.569 -0.589828 2.48907 0
M  V30 2615 H 234.213 -1.43616 4.87172 0
M  V30 2616 H 234.143 -3.10531 4.25298 0
M  V30 2617 H 236.634 -1.88975 3.27257 0
M  V30 2618 H 236.947 -3.31036 6.98309 0
M  V30 2619 H 235.292 -2.98337 6.2771 0
M  V30 2620 H 238.483 -2.26747 4.09516 0
M  V30 2621 H 238.656 -2.91548 5.78709 0
M  V30 2622 N 232.062 -1.29571 -0.897171 0
M  V30 2623 C 233.01 -1.14802 -2.02295 0
M  V30 2624 C 234.004 -0.0629637 -1.69283 0
M  V30 2625 O 235.21 -0.222945 -1.78614 0
M  V30 2626 H 231.585 -0.354692 -0.663097 0
M  V30 2627 H 233.556 -2.10108 -2.11889 0
M  V30 2628 C 232.305 -0.843966 -3.37302 0
M  V30 2629 H 231.628 -1.67093 -3.63208 0
M  V30 2630 H 233.068 -0.780672 -4.16751 0
M  V30 2631 C 231.527 0.452843 -3.33843 0
M  V30 2632 O 232.057 1.47813 -3.73516 0
M  V30 2633 N 230.263 0.459601 -2.86943 0
M  V30 2634 H 229.81 -0.375213 -2.54853 0
M  V30 2635 H 229.768 1.32726 -2.85011 0
M  V30 2636 N 233.54 1.10788 -1.12088 0
M  V30 2637 C 234.472 2.16816 -0.743213 0
M  V30 2638 C 235.485 1.6119 0.228412 0
M  V30 2639 O 236.674 1.78497 0.0102931 0
M  V30 2640 C 233.774 3.38809 -0.0787313 0
M  V30 2641 C 232.947 4.23885 -1.0789 0
M  V30 2642 C 232.006 5.24334 -0.442713 0
M  V30 2643 O 231.032 5.58497 -1.09864 0
M  V30 2644 N 232.234 5.75079 0.791457 0
M  V30 2645 H 234.999 2.49825 -1.65552 0
M  V30 2646 H 232.56 1.26373 -1.012 0
M  V30 2647 H 234.552 4.03107 0.358766 0
M  V30 2648 H 233.122 3.03805 0.736275 0
M  V30 2649 H 232.342 3.55939 -1.69414 0
M  V30 2650 H 233.63 4.77562 -1.75533 0
M  V30 2651 H 233.028 5.49517 1.3434 0
M  V30 2652 H 231.585 6.4118 1.17183 0
M  V30 2653 N 235.018 0.912232 1.28515 0
M  V30 2654 C 235.981 0.404223 2.25607 0
M  V30 2655 C 236.981 -0.468602 1.53821 0
M  V30 2656 O 238.171 -0.271873 1.72065 0
M  V30 2657 C 235.303 -0.420653 3.38295 0
M  V30 2658 H 236.496 1.26188 2.7206 0
M  V30 2659 H 234.049 0.691495 1.40171 0
M  V30 2660 H 234.784 -1.29777 2.97201 0
M  V30 2661 H 234.569 0.204935 3.91564 0
M  V30 2662 H 236.059 -0.766971 4.10496 0
M  V30 2663 N 236.496 -1.42363 0.676048 0
M  V30 2664 C 237.406 -2.346 -0.00153389 0
M  V30 2665 C 238.422 -1.5516 -0.787485 0
M  V30 2666 O 239.598 -1.87723 -0.729521 0
M  V30 2667 C 236.663 -3.33705 -0.940298 0
M  V30 2668 C 235.724 -4.29042 -0.148739 0
M  V30 2669 C 234.957 -5.23413 -1.04279 0
M  V30 2670 O 235.18 -5.22749 -2.28232 0
M  V30 2671 O 234.114 -5.99795 -0.502925 0
M  V30 2672 H 237.94 -2.94082 0.758268 0
M  V30 2673 H 235.525 -1.42888 0.436289 0
M  V30 2674 H 237.407 -3.94586 -1.47917 0
M  V30 2675 H 236.082 -2.76695 -1.67993 0
M  V30 2676 H 234.989 -3.71571 0.43427 0
M  V30 2677 H 236.322 -4.89097 0.551805 0
M  V30 2678 N 237.974 -0.419461 -1.51915 0
M  V30 2679 C 238.924 0.418496 -2.24126 0
M  V30 2680 C 239.908 1.00495 -1.25656 0
M  V30 2681 O 241.1 0.926058 -1.50842 0
M  V30 2682 C 238.229 1.52899 -3.07371 0
M  V30 2683 C 237.315 0.952797 -4.13258 0
M  V30 2684 N 237.706 0.104175 -5.05693 0
M  V30 2685 C 236.004 1.22224 -4.28926 0
M  V30 2686 C 236.705 -0.21752 -5.81293 0
M  V30 2687 N 235.681 0.394293 -5.42168 0
M  V30 2688 H 239.483 -0.236048 -2.92951 0
M  V30 2689 H 236.997 -0.230481 -1.60756 0
M  V30 2690 H 238.994 2.14199 -3.57665 0
M  V30 2691 H 237.654 2.18605 -2.40088 0
M  V30 2692 H 238.665 -0.260924 -5.17242 0
M  V30 2693 H 235.342 1.87812 -3.72871 0
M  V30 2694 H 236.732 -0.906992 -6.6575 0
M  V30 2695 N 239.452 1.56882 -0.150215 0
M  V30 2696 C 240.382 2.19935 0.784284 0
M  V30 2697 C 241.363 1.14854 1.25469 0
M  V30 2698 O 242.548 1.43209 1.31168 0
M  V30 2699 C 239.678 2.82349 2.02229 0
M  V30 2700 C 238.632 3.93285 1.68853 0
M  V30 2701 C 237.958 4.42649 2.99944 0
M  V30 2702 C 239.258 5.13904 0.932714 0
M  V30 2703 H 240.952 2.9828 0.258781 0
M  V30 2704 H 238.498 1.43473 0.123029 0
M  V30 2705 H 240.451 3.25126 2.68088 0
M  V30 2706 H 239.175 2.0134 2.57157 0
M  V30 2707 H 237.834 3.5113 1.05371 0
M  V30 2708 H 237.482 3.58458 3.52869 0
M  V30 2709 H 237.182 5.17476 2.78374 0
M  V30 2710 H 238.706 4.88099 3.66868 0
M  V30 2711 H 240.12 5.53506 1.49345 0
M  V30 2712 H 238.517 5.94515 0.81684 0
M  V30 2713 H 239.587 4.84842 -0.0749568 0
M  V30 2714 N 240.93 -0.123565 1.57115 0
M  V30 2715 C 241.86 -1.15309 2.03042 0
M  V30 2716 C 242.841 -1.43454 0.914061 0
M  V30 2717 O 244.026 -1.53973 1.18347 0
M  V30 2718 C 241.156 -2.48043 2.43089 0
M  V30 2719 C 240.11 -2.3437 3.58127 0
M  V30 2720 C 239.436 -3.72026 3.84059 0
M  V30 2721 C 240.736 -1.80804 4.90007 0
M  V30 2722 H 242.43 -0.771102 2.893 0
M  V30 2723 H 239.976 -0.369479 1.39179 0
M  V30 2724 H 241.929 -3.20311 2.73823 0
M  V30 2725 H 240.653 -2.88122 1.53796 0
M  V30 2726 H 239.312 -1.64551 3.27595 0
M  V30 2727 H 238.96 -4.09582 2.91979 0
M  V30 2728 H 238.66 -3.63732 4.6149 0
M  V30 2729 H 240.184 -4.45806 4.1724 0
M  V30 2730 H 241.598 -2.42886 5.19307 0
M  V30 2731 H 239.995 -1.83343 5.71407 0
M  V30 2732 H 241.065 -0.76528 4.78823 0
M  V30 2733 N 242.408 -1.52605 -0.393616 0
M  V30 2734 C 243.824 -1.41753 -0.733357 0
M  V30 2735 C 244.024 -0.534293 -1.94287 0
M  V30 2736 O 243.08 -0.0059787 -2.52499 0
M  V30 2737 C 244.393 -2.84531 -0.972772 0
M  V30 2738 C 245.941 -2.93978 -1.07453 0
M  V30 2739 C 246.416 -4.37756 -1.3466 0
M  V30 2740 N 247.907 -4.4106 -1.41492 0
M  V30 2741 C 248.642 -5.49387 -1.642 0
M  V30 2742 N 248.138 -6.67806 -1.8441 0
M  V30 2743 N 249.931 -5.36923 -1.66342 0
M  V30 2744 H 242.082 -2.08555 0.402328 0
M  V30 2745 H 244.345 -0.940654 0.117789 0
M  V30 2746 H 244.051 -3.51353 -0.156204 0
M  V30 2747 H 243.925 -3.26508 -1.88871 0
M  V30 2748 H 246.312 -2.27326 -1.88167 0
M  V30 2749 H 246.393 -2.55435 -0.136605 0
M  V30 2750 H 246.037 -5.04972 -0.544581 0
M  V30 2751 H 245.967 -4.73848 -2.2973 0
M  V30 2752 H 248.458 -3.55705 -1.27601 0
M  V30 2753 H 248.771 -7.46141 -2.01231 0
M  V30 2754 H 247.116 -6.70843 -1.81644 0
M  V30 2755 H 250.307 -4.43381 -1.50102 0
M  V30 2756 H 250.48 -6.21416 -1.837 0
M  V30 2757 N 243.887 0.651787 -1.4349 0
M  V30 2758 C 244.819 1.77725 -1.44729 0
M  V30 2759 C 245.832 1.59141 -0.343231 0
M  V30 2760 O 247.021 1.67835 -0.607751 0
M  V30 2761 C 244.121 3.15172 -1.24579 0
M  V30 2762 C 243.294 3.60402 -2.47849 0
M  V30 2763 C 242.353 4.76656 -2.22902 0
M  V30 2764 O 241.379 4.86022 -2.96263 0
M  V30 2765 N 242.581 5.66958 -1.24656 0
M  V30 2766 H 245.346 1.77141 -2.41746 0
M  V30 2767 H 242.907 0.835678 -1.38665 0
M  V30 2768 H 244.899 3.90634 -1.0577 0
M  V30 2769 H 243.469 3.1052 -0.360015 0
M  V30 2770 H 242.689 2.75369 -2.82073 0
M  V30 2771 H 243.977 3.87368 -3.29884 0
M  V30 2772 H 243.375 5.62065 -0.640265 0
M  V30 2773 H 241.932 6.42135 -1.1183 0
M  V30 2774 N 245.365 1.30045 0.890287 0
M  V30 2775 C 246.275 1.17885 2.02831 0
M  V30 2776 C 247.291 0.0999609 1.73713 0
M  V30 2777 O 248.467 0.313867 1.98939 0
M  V30 2778 C 245.532 0.866079 3.35708 0
M  V30 2779 C 244.593 2.02979 3.78283 0
M  V30 2780 C 243.826 1.73184 5.0482 0
M  V30 2781 O 244.049 0.657237 5.66601 0
M  V30 2782 O 242.983 2.58267 5.43674 0
M  V30 2783 H 246.809 2.13474 2.16015 0
M  V30 2784 H 244.394 1.09587 1.01543 0
M  V30 2785 H 246.276 0.706623 4.15433 0
M  V30 2786 H 244.951 -0.0599443 3.23644 0
M  V30 2787 H 243.858 2.24454 2.99285 0
M  V30 2788 H 245.191 2.93734 3.94944 0
M  V30 2789 N 246.843 -1.10192 1.12674 0
M  V30 2790 C 248.068 -1.86523 0.906853 0
M  V30 2791 C 248.493 -1.80221 -0.538711 0
M  V30 2792 O 247.851 -1.17396 -1.38158 0
M  V30 2793 C 247.899 -3.32758 1.3894 0
M  V30 2794 O 247.003 -4.08449 0.5695 0
M  V30 2795 H 246.344 -0.578678 0.325619 0
M  V30 2796 H 248.874 -1.39203 1.49946 0
M  V30 2797 H 248.884 -3.83608 1.38958 0
M  V30 2798 H 247.559 -3.36661 2.44197 0
M  V30 2799 H 246.136 -3.67427 0.636528 0
M  V30 2800 N 248.321 -0.919034 -1.28029 0
M  V30 2801 C 249.268 -0.410005 -2.27129 0
M  V30 2802 C 250.238 0.518405 -1.57803 0
M  V30 2803 O 251.423 0.439451 -1.8567 0
M  V30 2804 C 248.563 0.339054 -3.4343 0
M  V30 2805 C 247.676 -0.622468 -4.27492 0
M  V30 2806 C 246.811 0.145567 -5.31001 0
M  V30 2807 C 245.85 -0.809226 -6.06727 0
M  V30 2808 N 244.987 -0.0743728 -7.02061 0
M  V30 2809 H 249.827 -1.26011 -2.70047 0
M  V30 2810 H 247.364 -0.632663 -1.328 0
M  V30 2811 H 249.322 0.789586 -4.0966 0
M  V30 2812 H 247.952 1.15346 -3.01488 0
M  V30 2813 H 247.004 -1.19153 -3.61257 0
M  V30 2814 H 248.316 -1.35252 -4.80113 0
M  V30 2815 H 247.47 0.656417 -6.03139 0
M  V30 2816 H 246.209 0.908643 -4.79161 0
M  V30 2817 H 245.214 -1.3314 -5.33436 0
M  V30 2818 H 246.439 -1.57194 -6.60656 0
M  V30 2819 H 244.385 0.670616 -6.52563 0
M  V30 2820 H 244.302 -0.744157 -7.52329 0
M  V30 2821 H 245.57 0.416109 -7.78389 0
M  V30 2822 N 249.799 1.42003 -0.683588 0
M  V30 2823 C 250.709 2.34597 -0.0109075 0
M  V30 2824 C 251.725 1.55576 0.779245 0
M  V30 2825 O 252.901 1.88107 0.719555 0
M  V30 2826 C 249.966 3.34199 0.922588 0
M  V30 2827 C 249.027 4.29115 0.125984 0
M  V30 2828 C 248.26 5.23959 1.01502 0
M  V30 2829 O 248.483 5.23952 2.25456 0
M  V30 2830 O 247.417 6.00053 0.47111 0
M  V30 2831 H 251.243 2.93675 -0.773853 0
M  V30 2832 H 248.828 1.42654 -0.443861 0
M  V30 2833 H 250.71 3.95365 1.45823 0
M  V30 2834 H 249.385 2.77582 1.66523 0
M  V30 2835 H 248.292 3.71335 -0.453969 0
M  V30 2836 H 249.625 4.88798 -0.577736 0
M  V30 2837 N 251.277 0.427512 1.51691 0
M  V30 2838 C 252.525 -0.141948 2.01601 0
M  V30 2839 C 252.846 -1.44067 1.31414 0
M  V30 2840 O 252.116 -1.90763 0.445658 0
M  V30 2841 H 250.696 -0.0554468 0.744939 0
M  V30 2842 H 253.358 0.567968 1.86441 0
M  V30 2843 H 252.454 -0.324913 3.10404 0
M  V30 2844 N 252.755 -1.56801 0.158532 0
M  V30 2845 C 253.718 -2.16138 -0.762705 0
M  V30 2846 C 254.718 -1.1061 -1.16713 0
M  V30 2847 O 255.908 -1.36191 -1.08617 0
M  V30 2848 C 253.04 -2.73386 -2.03649 0
M  V30 2849 H 254.233 -2.98886 -0.246354 0
M  V30 2850 H 251.786 -1.56035 -0.0909744 0
M  V30 2851 H 252.521 -1.94335 -2.59623 0
M  V30 2852 H 252.306 -3.50601 -1.75559 0
M  V30 2853 H 253.796 -3.19065 -2.6942 0
M  V30 2854 N 254.233 0.115231 -1.57178 0
M  V30 2855 C 255.48 0.822351 -1.8505 0
M  V30 2856 C 255.808 1.79701 -0.744168 0
M  V30 2857 O 255.063 1.93909 0.26414 0
M  V30 2858 C 255.362 1.60324 -3.19423 0
M  V30 2859 C 255.028 0.772536 -4.44233 0
M  V30 2860 C 253.69 0.543468 -4.78121 0
M  V30 2861 C 256.042 0.193746 -5.2084 0
M  V30 2862 C 253.37 -0.274583 -5.86057 0
M  V30 2863 C 255.722 -0.611517 -6.29637 0
M  V30 2864 C 254.386 -0.850867 -6.62055 0
M  V30 2865 H 253.656 0.30092 -0.677147 0
M  V30 2866 H 256.303 0.0845802 -1.91313 0
M  V30 2867 H 254.608 2.41203 -3.08753 0
M  V30 2868 H 256.305 2.1544 -3.38211 0
M  V30 2869 H 252.895 0.96117 -4.17683 0
M  V30 2870 H 257.079 0.357926 -4.95008 0
M  V30 2871 H 252.335 -0.469206 -6.09597 0
M  V30 2872 H 256.509 -1.06697 -6.88178 0
M  V30 2873 H 254.136 -1.48657 -7.45523 0
M  V30 2874 N 255.711 1.52812 0.385517 0
M  V30 2875 C 256.96 1.67249 1.12741 0
M  V30 2876 C 257.273 0.4205 1.91027 0
M  V30 2877 O 258.479 0.445064 2.67827 0
M  V30 2878 C 256.935 2.95583 2.05326 0
M  V30 2879 C 256.543 4.27974 1.32447 0
M  V30 2880 C 258.287 3.19386 2.7963 0
M  V30 2881 C 256.194 5.47412 2.23818 0
M  V30 2882 H 255.124 0.6231 0.424573 0
M  V30 2883 H 257.775 1.79309 0.389924 0
M  V30 2884 H 256.157 2.77277 2.82725 0
M  V30 2885 H 257.331 4.56844 0.602495 0
M  V30 2886 H 255.646 4.10459 0.700885 0
M  V30 2887 H 258.243 4.05801 3.48181 0
M  V30 2888 H 258.586 2.34604 3.43899 0
M  V30 2889 H 259.119 3.38274 2.09322 0
M  V30 2890 H 255.858 6.34612 1.64157 0
M  V30 2891 H 255.378 5.22849 2.93921 0
M  V30 2892 H 257.057 5.81423 2.83824 0
M  V30 2893 N 257.189 -0.644168 1.43834 0
M  V30 2894 C 258.435 -1.40603 1.46146 0
M  V30 2895 C 258.768 -1.93997 0.0887717 0
M  V30 2896 O 258.043 -1.72854 -0.891724 0
M  V30 2897 C 258.326 -2.58086 2.51124 0
M  V30 2898 C 258.179 -2.10126 3.97702 0
M  V30 2899 C 259.498 -3.60291 2.52742 0
M  V30 2900 H 256.617 -0.509905 0.532134 0
M  V30 2901 H 259.259 -0.729502 1.75437 0
M  V30 2902 H 257.409 -3.15801 2.26278 0
M  V30 2903 H 259.081 -1.57342 4.33637 0
M  V30 2904 H 257.324 -1.41419 4.10101 0
M  V30 2905 H 257.995 -2.94649 4.66783 0
M  V30 2906 H 260.471 -3.12352 2.7491 0
M  V30 2907 H 259.347 -4.40032 3.28121 0
M  V30 2908 H 259.608 -4.1349 1.56455 0
M  V30 2909 N 258.668 -1.30515 -0.883378 0
M  V30 2910 C 260.084 -1.08881 -1.16692 0
M  V30 2911 C 260.284 0.149409 -2.00945 0
M  V30 2912 O 259.34 0.84257 -2.38027 0
M  V30 2913 C 260.653 -2.35319 -1.87204 0
M  V30 2914 C 262.201 -2.40799 -1.99962 0
M  V30 2915 C 262.676 -3.67083 -2.73887 0
M  V30 2916 N 264.167 -3.679 -2.81432 0
M  V30 2917 C 264.902 -4.62303 -3.3921 0
M  V30 2918 N 264.398 -5.67052 -3.98025 0
M  V30 2919 N 266.191 -4.49845 -3.3704 0
M  V30 2920 H 258.342 -2.09951 -0.321633 0
M  V30 2921 H 260.605 -0.92556 -0.205043 0
M  V30 2922 H 260.311 -3.25689 -1.3274 0
M  V30 2923 H 260.185 -2.44089 -2.87577 0
M  V30 2924 H 262.572 -1.50907 -2.53597 0
M  V30 2925 H 262.653 -2.36003 -0.98673 0
M  V30 2926 H 262.297 -4.57334 -2.20925 0
M  V30 2927 H 262.227 -3.69141 -3.75556 0
M  V30 2928 H 264.718 -2.92171 -2.39676 0
M  V30 2929 H 265.031 -6.35184 -4.40183 0
M  V30 2930 H 263.376 -5.70842 -3.96439 0
M  V30 2931 H 266.567 -3.67194 -2.90321 0
M  V30 2932 H 266.74 -5.23597 -3.81772 0
M  V30 2933 N 260.146 1.09593 -1.13257 0
M  V30 2934 C 261.423 1.78293 -0.804432 0
M  V30 2935 C 261.803 1.99004 0.70431 0
M  V30 2936 O 261.151 1.59007 1.641 0
M  V30 2937 C 261.361 3.10707 -1.5894 0
M  V30 2938 C 262.709 3.85443 -1.78099 0
M  V30 2939 O 263.733 3.20454 -1.55525 0
M  V30 2940 O 262.592 5.02108 -2.15753 0
M  V30 2941 H 259.686 0.773156 -0.293528 0
M  V30 2942 H 262.232 1.16164 -1.23709 0
M  V30 2943 H 261.004 2.91106 -2.61482 0
M  V30 2944 H 260.627 3.80558 -1.15157 0
M  V30 2945 N 261.624 0.925811 1.2754 0
M  V30 2946 C 262.849 0.580924 1.99098 0
M  V30 2947 C 263.274 -0.833555 1.68622 0
M  V30 2948 O 262.632 -1.55903 0.925422 0
M  V30 2949 C 262.68 0.811186 3.51358 0
M  V30 2950 O 261.784 -0.124129 4.12213 0
M  V30 2951 H 261.125 0.223873 0.625122 0
M  V30 2952 H 263.655 1.24455 1.62395 0
M  V30 2953 H 263.665 0.72601 4.01489 0
M  V30 2954 H 262.34 1.84227 3.72872 0
M  V30 2955 H 260.917 0.0108006 3.72898 0
M  V30 2956 N 263.102 -1.41638 0.69111 0
M  V30 2957 C 264.518 -1.55435 0.362224 0
M  V30 2958 C 264.718 -1.66754 -1.13117 0
M  V30 2959 O 263.774 -1.64348 -1.91692 0
M  V30 2960 C 265.087 -2.79588 1.10684 0
M  V30 2961 C 266.635 -2.9338 1.09075 0
M  V30 2962 C 267.11 -4.20414 1.81703 0
M  V30 2963 N 268.601 -4.27362 1.7865 0
M  V30 2964 C 269.336 -5.24507 2.31689 0
M  V30 2965 N 268.832 -6.27708 2.93179 0
M  V30 2966 N 270.625 -5.16416 2.2197 0
M  V30 2967 H 262.776 -1.32536 1.65976 0
M  V30 2968 H 265.039 -0.639115 0.700168 0
M  V30 2969 H 264.745 -2.77419 2.16175 0
M  V30 2970 H 264.619 -3.70973 0.682545 0
M  V30 2971 H 267.006 -2.95067 0.0441238 0
M  V30 2972 H 267.087 -2.0318 1.55407 0
M  V30 2973 H 266.731 -4.19488 2.86343 0
M  V30 2974 H 266.661 -5.09578 1.32808 0
M  V30 2975 H 269.152 -3.53415 1.33815 0
M  V30 2976 H 269.465 -6.98217 3.31229 0
M  V30 2977 H 267.81 -6.28223 2.97255 0
M  V30 2978 H 271.001 -4.34716 1.73607 0
M  V30 2979 H 271.174 -5.91958 2.63609 0
M  V30 2980 N 264.58 -0.43555 -1.51462 0
M  V30 2981 C 265.53 0.394701 -2.24558 0
M  V30 2982 C 266.514 0.99157 -1.26715 0
M  V30 2983 O 267.706 0.910007 -1.51815 0
M  V30 2984 C 264.835 1.4963 -3.08975 0
M  V30 2985 C 263.921 0.908912 -4.14246 0
M  V30 2986 N 264.312 0.0505335 -5.05775 0
M  V30 2987 C 262.61 1.17668 -4.30198 0
M  V30 2988 C 263.311 -0.279161 -5.8103 0
M  V30 2989 N 262.287 0.336767 -5.42556 0
M  V30 2990 H 266.089 -0.267106 -2.92684 0
M  V30 2991 H 263.603 -0.247518 -1.60503 0
M  V30 2992 H 265.6 2.10394 -3.59917 0
M  V30 2993 H 264.26 2.16046 -2.42393 0
M  V30 2994 H 265.271 -0.31577 -5.16936 0
M  V30 2995 H 261.948 1.83847 -3.74842 0
M  V30 2996 H 263.338 -0.977553 -6.64751 0
M  V30 2997 N 266.058 1.56714 -0.166846 0
M  V30 2998 C 266.988 2.20754 0.760913 0
M  V30 2999 C 267.969 1.16178 1.24244 0
M  V30 3000 O 269.154 1.44592 1.29641 0
M  V30 3001 C 266.284 2.84478 1.99223 0
M  V30 3002 C 265.238 3.95053 1.64672 0
M  V30 3003 C 264.564 4.45805 2.95232 0
M  V30 3004 C 265.864 5.14865 0.878155 0
M  V30 3005 H 267.558 2.98537 0.22713 0
M  V30 3006 H 265.104 1.43596 0.107805 0
M  V30 3007 H 267.057 3.27951 2.64624 0
M  V30 3008 H 265.781 2.04056 2.55007 0
M  V30 3009 H 264.44 3.52228 1.01641 0
M  V30 3010 H 264.088 3.62181 3.49047 0
M  V30 3011 H 263.788 5.204 2.7287 0
M  V30 3012 H 265.312 4.91962 3.6167 0
M  V30 3013 H 266.726 5.55059 1.43466 0
M  V30 3014 H 265.123 5.95348 0.753738 0
M  V30 3015 H 266.193 4.84735 -0.126377 0
M  V30 3016 N 267.536 -0.106894 1.57237 0
M  V30 3017 C 268.784 -0.810921 1.85117 0
M  V30 3018 C 269.105 -1.7984 0.753827 0
M  V30 3019 O 268.375 -1.94649 -0.221056 0
M  V30 3020 H 266.955 -0.302466 0.683025 0
M  V30 3021 H 269.617 -0.0913324 1.94686 0
M  V30 3022 H 268.713 -1.34875 2.81452 0
M  V30 3023 N 269.014 -1.53014 -0.377408 0
M  V30 3024 C 270.239 -1.72818 -1.14668 0
M  V30 3025 C 270.664 -0.450725 -1.8262 0
M  V30 3026 O 270.022 0.59439 -1.7128 0
M  V30 3027 C 270.07 -2.88627 -2.16164 0
M  V30 3028 O 269.174 -2.56409 -3.22998 0
M  V30 3029 H 268.515 -0.574301 -0.333278 0
M  V30 3030 H 271.045 -1.99853 -0.438152 0
M  V30 3031 H 271.055 -3.14455 -2.59966 0
M  V30 3032 H 269.73 -3.81294 -1.66095 0
M  V30 3033 H 268.307 -2.4136 -2.84253 0
M  V30 3034 N 270.492 0.636531 -1.44174 0
M  V30 3035 C 271.722 1.42146 -1.49927 0
M  V30 3036 C 272.13 1.88812 -0.121063 0
M  V30 3037 O 271.473 1.61126 0.882267 0
M  V30 3038 C 271.535 2.67883 -2.39748 0
M  V30 3039 C 271.199 2.43048 -3.8701 0
M  V30 3040 C 272.196 2.05216 -4.77684 0
M  V30 3041 C 269.881 2.56856 -4.3166 0
M  V30 3042 C 271.875 1.81512 -6.11009 0
M  V30 3043 C 269.562 2.32766 -5.65034 0
M  V30 3044 C 270.56 1.95152 -6.54526 0
M  V30 3045 O 270.248 1.71326 -7.85431 0
M  V30 3046 H 269.98 0.442567 -0.51099 0
M  V30 3047 H 272.534 0.786158 -1.8976 0
M  V30 3048 H 270.764 3.34032 -1.94832 0
M  V30 3049 H 272.453 3.29874 -2.36513 0
M  V30 3050 H 273.219 1.94111 -4.44462 0
M  V30 3051 H 269.098 2.85104 -3.62266 0
M  V30 3052 H 272.642 1.52077 -6.80822 0
M  V30 3053 H 268.539 2.43479 -5.97819 0
M  V30 3054 H 269.307 1.85616 -7.97176 0
M  V30 3055 N 271.97 1.30982 0.876444 0
M  V30 3056 C 273.198 1.23242 1.6619 0
M  V30 3057 C 273.613 -0.203345 1.87702 0
M  V30 3058 O 272.97 -1.13317 1.43057 0
M  V30 3059 C 273.021 1.96623 3.03351 0
M  V30 3060 O 272.742 3.34594 2.82804 0
M  V30 3061 C 274.243 1.95644 3.97792 0
M  V30 3062 H 271.463 0.426126 0.518322 0
M  V30 3063 H 274.007 1.7275 1.09442 0
M  V30 3064 H 272.162 1.50892 3.56806 0
M  V30 3065 H 272.576 3.71873 3.69879 0
M  V30 3066 H 274.05 2.51511 4.91372 0
M  V30 3067 H 274.527 0.937395 4.2908 0
M  V30 3068 H 275.133 2.41225 3.50272 0
M  V30 3069 N 273.449 -1.08991 1.13837 0
M  V30 3070 C 274.698 -1.80631 0.897509 0
M  V30 3071 C 275.011 -1.86872 -0.57777 0
M  V30 3072 O 276.217 -2.54866 -0.935701 0
M  V30 3073 C 274.673 -3.24517 1.55618 0
M  V30 3074 C 274.281 -3.26529 3.0673 0
M  V30 3075 C 276.025 -4.00882 1.3962 0
M  V30 3076 C 273.932 -4.64965 3.65461 0
M  V30 3077 H 272.862 -0.67691 0.332129 0
M  V30 3078 H 275.513 -1.2246 1.3666 0
M  V30 3079 H 273.895 -3.82778 1.01476 0
M  V30 3080 H 275.069 -2.78008 3.67489 0
M  V30 3081 H 273.384 -2.63656 3.22296 0
M  V30 3082 H 275.981 -5.03167 1.80906 0
M  V30 3083 H 276.324 -4.14896 0.341578 0
M  V30 3084 H 276.857 -3.49075 1.90766 0
M  V30 3085 H 273.596 -4.56153 4.70749 0
M  V30 3086 H 273.116 -5.13792 3.09481 0
M  V30 3087 H 274.795 -5.3394 3.654 0
M  V30 3088 N 274.927 -0.932562 -1.27047 0
M  V30 3089 C 276.152 -0.591474 -1.98787 0
M  V30 3090 C 276.577 0.824601 -1.69062 0
M  V30 3091 O 275.935 1.5541 -0.933677 0
M  V30 3092 C 275.983 -0.829808 -3.50922 0
M  V30 3093 O 275.087 0.102266 -4.12273 0
M  V30 3094 H 274.428 -0.227185 -0.623926 0
M  V30 3095 H 276.958 -1.25314 -1.61733 0
M  V30 3096 H 276.968 -0.747292 -4.01098 0
M  V30 3097 H 275.643 -1.86201 -3.7189 0
M  V30 3098 H 274.22 -0.0305761 -3.72887 0
M  V30 3099 N 276.405 1.4127 -0.698611 0
M  V30 3100 C 277.651 2.01478 -0.231207 0
M  V30 3101 C 277.984 1.55215 1.16713 0
M  V30 3102 O 277.259 0.764672 1.78838 0
M  V30 3103 C 277.542 3.58912 -0.292281 0
M  V30 3104 C 277.395 4.15293 -1.72778 0
M  V30 3105 C 278.714 4.38736 0.346194 0
M  V30 3106 H 275.833 0.732025 -0.0854878 0
M  V30 3107 H 278.475 1.67977 -0.887906 0
M  V30 3108 H 276.625 3.87582 0.26686 0
M  V30 3109 H 278.297 3.97486 -2.341 0
M  V30 3110 H 276.54 3.7022 -2.26096 0
M  V30 3111 H 277.211 5.24452 -1.72202 0
M  V30 3112 H 279.687 4.15897 -0.130035 0
M  V30 3113 H 278.563 5.48221 0.272932 0
M  V30 3114 H 278.824 4.18425 1.42734 0
M  V30 3115 N 277.883 0.443576 1.51229 0
M  V30 3116 C 279.13 -0.120796 2.02139 0
M  V30 3117 C 279.458 -1.42166 1.32736 0
M  V30 3118 O 278.713 -1.90849 0.43301 0
M  V30 3119 C 279.012 -0.380579 3.55368 0
M  V30 3120 C 278.678 0.83523 4.43097 0
M  V30 3121 C 277.34 1.16864 4.66794 0
M  V30 3122 C 279.692 1.64601 4.94526 0
M  V30 3123 C 277.02 2.31339 5.39165 0
M  V30 3124 C 279.372 2.78181 5.68153 0
M  V30 3125 C 278.036 3.11969 5.90112 0
M  V30 3126 H 277.306 -0.0442023 0.73968 0
M  V30 3127 H 279.953 0.592046 1.82118 0
M  V30 3128 H 278.258 -1.17538 3.73754 0
M  V30 3129 H 279.955 -0.830777 3.923 0
M  V30 3130 H 276.545 0.565437 4.24854 0
M  V30 3131 H 280.729 1.40163 4.76097 0
M  V30 3132 H 275.985 2.57823 5.5438 0
M  V30 3133 H 280.159 3.41371 6.06992 0
M  V30 3134 H 277.786 4.00784 6.45969 0
M  V30 3135 N 279.361 -1.56624 0.175154 0
M  V30 3136 C 280.294 -2.14 -0.792412 0
M  V30 3137 C 281.272 -1.07114 -1.22333 0
M  V30 3138 O 282.456 -1.35112 -1.31442 0
M  V30 3139 C 279.583 -2.68268 -2.0676 0
M  V30 3140 C 278.629 -3.87562 -1.7804 0
M  V30 3141 S 279.462 -5.27074 -0.946222 0
M  V30 3142 C 280.618 -5.8475 -2.23199 0
M  V30 3143 H 280.851 -2.95736 -0.304588 0
M  V30 3144 H 278.384 -1.54349 -0.0395705 0
M  V30 3145 H 280.342 -3.00182 -2.80002 0
M  V30 3146 H 279.003 -1.86612 -2.52656 0
M  V30 3147 H 278.196 -4.23874 -2.72666 0
M  V30 3148 H 277.798 -3.56555 -1.12891 0
M  V30 3149 H 280.09 -5.97898 -3.18629 0
M  V30 3150 H 281.033 -6.81756 -1.91349 0
M  V30 3151 H 281.441 -5.13198 -2.35134 0
M  V30 3152 N 280.839 0.0985539 -1.57292 0
M  V30 3153 C 282.087 0.801092 -1.85545 0
M  V30 3154 C 282.408 1.79438 -0.763353 0
M  V30 3155 O 281.678 1.94763 0.21073 0
M  V30 3156 H 280.258 0.29884 -0.684619 0
M  V30 3157 H 282.92 0.0810064 -1.94732 0
M  V30 3158 H 282.016 1.3338 -2.82163 0
M  V30 3159 N 282.317 1.53212 0.369288 0
M  V30 3160 C 283.28 1.7872 1.43498 0
M  V30 3161 C 284.28 0.657554 1.46741 0
M  V30 3162 O 285.47 0.925736 1.47566 0
M  V30 3163 C 282.602 1.90591 2.82645 0
M  V30 3164 H 283.795 2.73894 1.22156 0
M  V30 3165 H 281.348 1.44233 0.602203 0
M  V30 3166 H 282.083 0.974709 3.09306 0
M  V30 3167 H 281.868 2.72751 2.8169 0
M  V30 3168 H 283.358 2.11931 3.59826 0
M  V30 3169 N 283.795 -0.628877 1.44509 0
M  V30 3170 C 285.211 -0.947305 1.28446 0
M  V30 3171 C 285.411 -2.00275 0.221872 0
M  V30 3172 O 284.467 -2.49447 -0.391471 0
M  V30 3173 C 285.78 -1.40843 2.65676 0
M  V30 3174 C 287.328 -1.52379 2.73404 0
M  V30 3175 C 287.803 -2.01875 4.11109 0
M  V30 3176 N 289.294 -2.09142 4.13296 0
M  V30 3177 C 290.029 -2.48615 5.16699 0
M  V30 3178 N 289.525 -2.87209 6.30462 0
M  V30 3179 N 291.318 -2.48768 5.04054 0
M  V30 3180 H 283.469 0.0690977 2.12288 0
M  V30 3181 H 285.732 -0.0317164 0.947469 0
M  V30 3182 H 285.438 -0.707206 3.44516 0
M  V30 3183 H 285.312 -2.37902 2.92716 0
M  V30 3184 H 287.699 -2.21598 1.9488 0
M  V30 3185 H 287.78 -0.536898 2.50102 0
M  V30 3186 H 287.424 -1.3325 4.90109 0
M  V30 3187 H 287.354 -3.0144 4.31789 0
M  V30 3188 H 289.845 -1.81991 3.31191 0
M  V30 3189 H 290.158 -3.16149 7.05174 0
M  V30 3190 H 288.503 -2.84955 6.33897 0
M  V30 3191 H 291.694 -2.18009 4.14234 0
M  V30 3192 H 291.867 -2.79207 5.84763 0
M  V30 3193 N 285.273 -1.31445 -0.869486 0
M  V30 3194 C 286.689 -1.10113 -1.15531 0
M  V30 3195 C 286.889 0.128087 -2.01092 0
M  V30 3196 O 285.945 0.817276 -2.38908 0
M  V30 3197 C 287.258 -2.37291 -1.84698 0
M  V30 3198 C 288.806 -2.42906 -1.97397 0
M  V30 3199 C 289.281 -3.69967 -2.69979 0
M  V30 3200 N 290.772 -3.70864 -2.77514 0
M  V30 3201 C 291.507 -4.65875 -3.34287 0
M  V30 3202 N 291.003 -5.71242 -3.91988 0
M  V30 3203 N 292.796 -4.53394 -3.3225 0
M  V30 3204 H 284.947 -2.1028 -0.299347 0
M  V30 3205 H 287.21 -0.927683 -0.195214 0
M  V30 3206 H 286.916 -3.27078 -1.29278 0
M  V30 3207 H 286.79 -2.47125 -2.84972 0
M  V30 3208 H 289.177 -1.53588 -2.51982 0
M  V30 3209 H 289.258 -2.37036 -0.961643 0
M  V30 3210 H 288.902 -4.59652 -2.16062 0
M  V30 3211 H 288.832 -3.73103 -3.7162 0
M  V30 3212 H 291.323 -2.94697 -2.36563 0
M  V30 3213 H 291.636 -6.39817 -4.33421 0
M  V30 3214 H 289.981 -5.75015 -3.90362 0
M  V30 3215 H 293.172 -3.70252 -2.8641 0
M  V30 3216 H 293.345 -5.27617 -3.76197 0
M  V30 3217 N 286.751 1.08385 -1.14413 0
M  V30 3218 C 287.976 1.85057 -0.936413 0
M  V30 3219 C 288.401 1.81055 0.509971 0
M  V30 3220 O 287.759 1.1958 1.36273 0
M  V30 3221 C 287.807 3.30505 -1.44217 0
M  V30 3222 O 286.911 4.07491 -0.634409 0
M  V30 3223 H 286.252 0.573425 -0.334784 0
M  V30 3224 H 288.782 1.36799 -1.52142 0
M  V30 3225 H 288.792 3.81348 -1.45043 0
M  V30 3226 H 287.467 3.32734 -2.49522 0
M  V30 3227 H 286.044 3.66368 -0.694902 0
M  V30 3228 N 288.23 0.939286 1.26551 0
M  V30 3229 C 289.458 0.602536 1.97932 0
M  V30 3230 C 289.873 -0.82206 1.69964 0
M  V30 3231 O 289.23 -1.54789 0.966784 0
M  V30 3232 C 289.281 0.832946 3.51773 0
M  V30 3233 O 289.002 2.20151 3.78768 0
M  V30 3234 C 290.503 0.506483 4.40397 0
M  V30 3235 H 287.723 0.227248 0.631347 0
M  V30 3236 H 290.267 1.25948 1.61113 0
M  V30 3237 H 288.422 0.222644 3.8676 0
M  V30 3238 H 288.836 2.26013 4.73306 0
M  V30 3239 H 290.31 0.718333 5.47306 0
M  V30 3240 H 290.787 -0.558451 4.35635 0
M  V30 3241 H 291.393 1.09543 4.10951 0
M  V30 3242 N 289.708 -1.40897 0.706093 0
M  V30 3243 C 290.618 -2.3455 0.0482286 0
M  V30 3244 C 291.634 -1.56796 -0.754396 0
M  V30 3245 O 292.81 -1.89228 -0.689538 0
M  V30 3246 C 289.875 -3.35625 -0.869303 0
M  V30 3247 C 288.936 -4.29261 -0.0576994 0
M  V30 3248 C 288.169 -5.25508 -0.931531 0
M  V30 3249 O 288.392 -5.27472 -2.17092 0
M  V30 3250 O 287.326 -6.00727 -0.375587 0
M  V30 3251 H 291.152 -2.92407 0.820476 0
M  V30 3252 H 288.737 -1.4193 0.4665 0
M  V30 3253 H 290.619 -3.97635 -1.39514 0
M  V30 3254 H 289.294 -2.80196 -1.62086 0
M  V30 3255 H 288.201 -3.70566 0.512988 0
M  V30 3256 H 289.534 -4.87817 0.655426 0
M  V30 3257 N 291.186 -0.45159 -1.50991 0
M  V30 3258 C 292.149 0.341117 -2.26647 0
M  V30 3259 C 293.149 0.937422 -1.30649 0
M  V30 3260 O 294.339 0.809644 -1.54241 0
M  V30 3261 C 291.471 1.48398 -3.06905 0
M  V30 3262 H 292.664 -0.322117 -2.98165 0
M  V30 3263 H 290.217 -0.205122 -1.54948 0
M  V30 3264 H 290.952 2.18284 -2.39838 0
M  V30 3265 H 290.737 1.06241 -3.77432 0
M  V30 3266 H 292.227 2.04367 -3.64176 0
M  V30 3267 N 292.664 1.56529 -0.183458 0
M  V30 3268 C 293.627 2.17324 0.728223 0
M  V30 3269 C 294.627 1.12453 1.14939 0
M  V30 3270 O 295.817 1.37902 1.06437 0
M  V30 3271 C 292.949 2.76591 1.99274 0
M  V30 3272 H 294.142 2.99241 0.198772 0
M  V30 3273 H 291.695 1.5616 0.0661391 0
M  V30 3274 H 292.43 1.98441 2.56499 0
M  V30 3275 H 292.215 3.5335 1.69959 0
M  V30 3276 H 293.705 3.23311 2.6431 0
M  V30 3277 N 294.142 -0.090211 1.57342 0
M  V30 3278 C 295.391 -0.791531 1.8552 0
M  V30 3279 C 295.704 -1.79659 0.773441 0
M  V30 3280 O 296.91 -2.54616 0.942497 0
M  V30 3281 C 295.366 -1.45856 3.2902 0
M  V30 3282 C 294.974 -0.493017 4.45279 0
M  V30 3283 C 296.718 -2.14332 3.66418 0
M  V30 3284 C 294.625 -1.16491 5.79814 0
M  V30 3285 H 293.555 -0.299356 0.692027 0
M  V30 3286 H 296.206 -0.0445343 1.83446 0
M  V30 3287 H 294.588 -2.25318 3.2565 0
M  V30 3288 H 295.762 0.270464 4.60006 0
M  V30 3289 H 294.077 0.0863061 4.16311 0
M  V30 3290 H 296.674 -2.65344 4.64216 0
M  V30 3291 H 297.017 -2.93447 2.95287 0
M  V30 3292 H 297.55 -1.41724 3.71698 0
M  V30 3293 H 294.289 -0.41447 6.54188 0
M  V30 3294 H 293.809 -1.8997 5.68921 0
M  V30 3295 H 295.488 -1.69001 6.24538 0
M  V30 3296 N 295.62 -1.53406 -0.361157 0
M  V30 3297 C 296.567 -1.80156 -1.44265 0
M  V30 3298 C 297.537 -0.646183 -1.53015 0
M  V30 3299 O 298.722 -0.888818 -1.68833 0
M  V30 3300 C 295.862 -2.00116 -2.81154 0
M  V30 3301 C 294.975 -3.27833 -2.81335 0
M  V30 3302 C 294.11 -3.37957 -4.09828 0
M  V30 3303 C 293.149 -4.59689 -4.04168 0
M  V30 3304 N 292.286 -4.66942 -5.24318 0
M  V30 3305 H 297.126 -2.72438 -1.20754 0
M  V30 3306 H 294.663 -1.34954 -0.585296 0
M  V30 3307 H 296.621 -2.09677 -3.60682 0
M  V30 3308 H 295.251 -1.11167 -3.03054 0
M  V30 3309 H 294.303 -3.27204 -1.94014 0
M  V30 3310 H 295.615 -4.17442 -2.73027 0
M  V30 3311 H 294.769 -3.46853 -4.97773 0
M  V30 3312 H 293.508 -2.46372 -4.20894 0
M  V30 3313 H 292.513 -4.50889 -3.14609 0
M  V30 3314 H 293.738 -5.5262 -3.947 0
M  V30 3315 H 291.684 -3.7826 -5.35962 0
M  V30 3316 H 291.601 -5.50462 -5.18197 0
M  V30 3317 H 292.869 -4.80127 -6.14084 0
M  V30 3318 N 297.098 0.621204 -1.44841 0
M  V30 3319 C 298.048 1.72663 -1.48901 0
M  V30 3320 C 299.032 1.56964 -0.353702 0
M  V30 3321 O 300.224 1.66532 -0.599669 0
M  V30 3322 C 297.353 3.11381 -1.44557 0
M  V30 3323 C 296.439 3.32514 -2.6324 0
M  V30 3324 N 296.83 3.23969 -3.8843 0
M  V30 3325 C 295.128 3.63343 -2.58647 0
M  V30 3326 C 295.829 3.46062 -4.67564 0
M  V30 3327 N 294.805 3.69407 -3.98797 0
M  V30 3328 H 298.607 1.64529 -2.43531 0
M  V30 3329 H 296.121 0.82401 -1.39942 0
M  V30 3330 H 298.118 3.90667 -1.4555 0
M  V30 3331 H 296.778 3.20674 -0.509731 0
M  V30 3332 H 297.789 3.02669 -4.20252 0
M  V30 3333 H 294.466 3.79556 -1.73906 0
M  V30 3334 H 295.856 3.44963 -5.76585 0
M  V30 3335 N 298.576 1.31904 0.862503 0
M  V30 3336 C 299.806 1.24817 1.64634 0
M  V30 3337 C 300.214 -0.187579 1.88268 0
M  V30 3338 O 299.557 -1.13253 1.44635 0
M  V30 3339 C 299.619 1.92996 3.03303 0
M  V30 3340 C 299.283 3.42336 3.02746 0
M  V30 3341 C 300.28 4.37956 2.80162 0
M  V30 3342 C 297.965 3.84147 3.2363 0
M  V30 3343 C 299.959 5.73361 2.78453 0
M  V30 3344 C 297.646 5.19663 3.21549 0
M  V30 3345 C 298.644 6.14081 2.98988 0
M  V30 3346 O 298.332 7.47118 2.96766 0
M  V30 3347 H 298.064 0.432222 0.519769 0
M  V30 3348 H 300.618 1.7445 1.08427 0
M  V30 3349 H 298.848 1.37922 3.61268 0
M  V30 3350 H 300.537 1.79723 3.63943 0
M  V30 3351 H 301.303 4.06981 2.63802 0
M  V30 3352 H 297.182 3.11083 3.40218 0
M  V30 3353 H 300.726 6.4703 2.60763 0
M  V30 3354 H 296.623 5.5027 3.37451 0
M  V30 3355 H 297.391 7.56382 3.12775 0
M  V30 3356 N 300.054 -1.07777 1.14986 0
M  V30 3357 C 300.986 -2.14769 0.800436 0
M  V30 3358 C 301.999 -1.61739 -0.185595 0
M  V30 3359 O 303.188 -1.78462 0.0370358 0
M  V30 3360 C 300.288 -3.38481 0.168533 0
M  V30 3361 C 299.461 -4.20876 1.1909 0
M  V30 3362 C 298.52 -5.22976 0.581575 0
M  V30 3363 O 297.546 -5.55388 1.24633 0
M  V30 3364 N 298.748 -5.76976 -0.638706 0
M  V30 3365 H 301.513 -2.45348 1.72118 0
M  V30 3366 H 299.074 -1.23645 1.04515 0
M  V30 3367 H 301.066 -4.03916 -0.251764 0
M  V30 3368 H 299.636 -3.05651 -0.655467 0
M  V30 3369 H 298.856 -3.51322 1.78791 0
M  V30 3370 H 300.144 -4.7274 1.88133 0
M  V30 3371 H 299.542 -5.52886 -1.19723 0
M  V30 3372 H 298.099 -6.44061 -1.00142 0
M  V30 3373 N 301.532 -0.945985 -1.26051 0
M  V30 3374 C 302.781 -0.591836 -1.92822 0
M  V30 3375 C 303.094 0.873956 -1.7499 0
M  V30 3376 O 304.3 1.33769 -2.36259 0
M  V30 3377 C 302.756 -1.00776 -3.45503 0
M  V30 3378 C 302.364 -2.4955 -3.7206 0
M  V30 3379 C 304.108 -0.725735 -4.1825 0
M  V30 3380 C 302.015 -2.84988 -5.18205 0
M  V30 3381 H 300.945 -0.217635 -0.721908 0
M  V30 3382 H 303.596 -1.14927 -1.43052 0
M  V30 3383 H 301.978 -0.378812 -3.94184 0
M  V30 3384 H 303.152 -3.1739 -3.34066 0
M  V30 3385 H 301.467 -2.75133 -3.12555 0
M  V30 3386 H 304.064 -0.966771 -5.25887 0
M  V30 3387 H 304.407 0.337639 -4.14929 0
M  V30 3388 H 304.94 -1.31463 -3.7545 0
M  V30 3389 H 301.679 -3.90307 -5.26631 0
M  V30 3390 H 301.199 -2.21813 -5.57278 0
M  V30 3391 H 302.878 -2.73712 -5.86252 0
M  V30 3392 N 303.011 1.40521 -0.713556 0
M  V30 3393 C 303.958 2.30723 -0.059684 0
M  V30 3394 C 304.928 1.48079 0.752448 0
M  V30 3395 O 306.113 1.76823 0.71681 0
M  V30 3396 C 303.253 3.34274 0.857594 0
M  V30 3397 C 302.366 4.31986 0.0351536 0
M  V30 3398 C 301.501 5.22605 0.951724 0
M  V30 3399 C 300.54 6.11976 0.123253 0
M  V30 3400 N 299.677 6.9502 0.99459 0
M  V30 3401 H 304.517 2.86074 -0.834596 0
M  V30 3402 H 302.054 1.40879 -0.42326 0
M  V30 3403 H 304.012 3.92879 1.40364 0
M  V30 3404 H 302.642 2.8043 1.59871 0
M  V30 3405 H 301.694 3.7518 -0.628052 0
M  V30 3406 H 303.006 4.95101 -0.606347 0
M  V30 3407 H 302.16 5.86131 1.56638 0
M  V30 3408 H 300.899 4.59759 1.62705 0
M  V30 3409 H 299.904 5.47482 -0.50435 0
M  V30 3410 H 301.129 6.76881 -0.548539 0
M  V30 3411 H 299.075 6.34764 1.6556 0
M  V30 3412 H 298.992 7.54892 0.40908 0
M  V30 3413 H 300.26 7.62997 1.59549 0
M  V30 3414 N 304.489 0.459591 1.5075 0
M  V30 3415 C 305.436 -0.340524 2.28274 0
M  V30 3416 C 306.406 -0.997371 1.32822 0
M  V30 3417 O 307.591 -1.01202 1.61749 0
M  V30 3418 C 304.731 -1.42317 3.14388 0
M  V30 3419 C 303.844 -0.782251 4.24859 0
M  V30 3420 C 302.979 -1.84182 4.98247 0
M  V30 3421 C 302.018 -1.18053 6.00608 0
M  V30 3422 N 301.155 -2.18244 6.67319 0
M  V30 3423 H 305.995 0.326899 2.96202 0
M  V30 3424 H 303.532 0.173057 1.46078 0
M  V30 3425 H 305.49 -2.06241 3.62658 0
M  V30 3426 H 304.12 -2.05992 2.4853 0
M  V30 3427 H 303.172 -0.0307404 3.80388 0
M  V30 3428 H 304.484 -0.259663 4.98124 0
M  V30 3429 H 303.638 -2.55714 5.50177 0
M  V30 3430 H 302.377 -2.39819 4.24662 0
M  V30 3431 H 301.382 -0.450776 5.47949 0
M  V30 3432 H 302.607 -0.631202 6.7616 0
M  V30 3433 H 300.553 -2.72919 5.96533 0
M  V30 3434 H 300.47 -1.70938 7.36421 0
M  V30 3435 H 301.738 -2.89191 7.23871 0
M  V30 3436 N 305.967 -1.56429 0.191757 0
M  V30 3437 C 306.915 -2.20273 -0.747174 0
M  V30 3438 C 307.909 -1.17288 -1.22229 0
M  V30 3439 O 309.115 -1.35441 -1.18557 0
M  V30 3440 H 305.49 -0.705885 -0.259289 0
M  V30 3441 H 307.461 -2.97826 -0.184963 0
M  V30 3442 C 306.21 -2.87356 -1.95759 0
M  V30 3443 H 305.533 -3.66341 -1.60106 0
M  V30 3444 H 306.973 -3.3547 -2.59299 0
M  V30 3445 C 305.432 -1.88213 -2.79423 0
M  V30 3446 O 305.962 -1.38033 -3.7724 0
M  V30 3447 N 304.168 -1.56516 -2.44849 0
M  V30 3448 H 303.715 -1.97516 -1.65364 0
M  V30 3449 H 303.673 -0.904369 -3.01112 0
M  V30 3450 N 307.445 0.0818655 -1.57387 0
M  V30 3451 C 308.722 0.815343 -1.77796 0
M  V30 3452 C 309.102 1.96289 -0.77679 0
M  V30 3453 O 308.45 2.27691 0.192106 0
M  V30 3454 C 308.66 1.29765 -3.23978 0
M  V30 3455 C 310.008 1.7351 -3.8753 0
M  V30 3456 O 311.032 1.39356 -3.27808 0
M  V30 3457 O 309.891 2.36708 -4.92576 0
M  V30 3458 H 306.985 0.389914 -0.729312 0
M  V30 3459 H 309.531 0.0627213 -1.69584 0
M  V30 3460 H 308.303 0.47608 -3.88393 0
M  V30 3461 H 307.926 2.11189 -3.36875 0
M  V30 3462 N 308.923 1.53595 0.353017 0
M  V30 3463 C 310.148 1.7462 1.11904 0
M  V30 3464 C 310.573 0.479721 1.8188 0
M  V30 3465 O 309.931 -0.567066 1.72204 0
M  V30 3466 C 309.979 2.92029 2.11545 0
M  V30 3467 O 309.083 2.61516 3.18878 0
M  V30 3468 H 308.424 0.579531 0.324099 0
M  V30 3469 H 310.954 2.00525 0.406301 0
M  V30 3470 H 310.964 3.18551 2.5493 0
M  V30 3471 H 309.639 3.83888 1.60008 0
M  V30 3472 H 308.216 2.45852 2.80377 0
M  V30 3473 N 310.401 -0.613514 1.45168 0
M  V30 3474 C 311.649 -1.36997 1.48581 0
M  V30 3475 C 311.97 -1.94589 0.126545 0
M  V30 3476 O 311.24 -1.76816 -0.843372 0
M  V30 3477 H 309.82 -0.508558 0.547154 0
M  V30 3478 H 312.482 -0.720853 1.81079 0
M  V30 3479 H 311.578 -2.1924 2.22127 0
M  V30 3480 N 311.879 -1.3236 -0.855495 0
M  V30 3481 C 312.811 -1.17052 -1.97057 0
M  V30 3482 C 313.824 -0.10574 -1.62456 0
M  V30 3483 O 315.013 -0.354619 -1.74942 0
M  V30 3484 C 312.113 -0.769305 -3.30053 0
M  V30 3485 C 311.286 -1.9222 -3.929 0
M  V30 3486 C 310.345 -1.50466 -5.04228 0
M  V30 3487 O 309.371 -2.21655 -5.24269 0
M  V30 3488 N 310.573 -0.400209 -5.79119 0
M  V30 3489 H 313.338 -2.13103 -2.1073 0
M  V30 3490 H 310.899 -1.24885 -1.0303 0
M  V30 3491 H 312.891 -0.472407 -4.01933 0
M  V30 3492 H 311.461 0.100025 -3.1244 0
M  V30 3493 H 310.681 -2.38563 -3.13817 0
M  V30 3494 H 311.969 -2.69403 -4.31624 0
M  V30 3495 H 311.367 0.192319 -5.65373 0
M  V30 3496 H 309.924 -0.162912 -6.51596 0
M  V30 3497 N 313.357 1.07166 -1.15556 0
M  V30 3498 C 314.603 1.80222 -0.942961 0
M  V30 3499 C 314.958 1.85121 0.524209 0
M  V30 3500 O 314.251 1.32531 1.38369 0
M  V30 3501 C 314.445 3.24707 -1.49332 0
M  V30 3502 C 314.274 3.33887 -3.01247 0
M  V30 3503 C 313.044 3.44337 -3.69811 0
M  V30 3504 C 315.242 3.24484 -3.99017 0
M  V30 3505 N 313.224 3.42439 -5.09518 0
M  V30 3506 C 314.595 3.29726 -5.25053 0
M  V30 3507 C 316.65 3.08307 -3.90962 0
M  V30 3508 C 315.353 3.20455 -6.43973 0
M  V30 3509 C 317.379 3.00371 -5.09442 0
M  V30 3510 C 316.741 3.06227 -6.34354 0
M  V30 3511 H 312.84 0.672709 -0.398731 0
M  V30 3512 H 315.424 1.27905 -1.46794 0
M  V30 3513 H 313.595 3.7544 -0.994946 0
M  V30 3514 H 315.327 3.85894 -1.21935 0
M  V30 3515 H 312.082 3.48762 -3.20409 0
M  V30 3516 H 312.506 3.45013 -5.8249 0
M  V30 3517 H 317.148 3.02633 -2.95251 0
M  V30 3518 H 314.866 3.24888 -7.39914 0
M  V30 3519 H 318.452 2.88955 -5.04971 0
M  V30 3520 H 317.332 3.00132 -7.24493 0
M  V30 3521 N 314.835 0.952656 1.25548 0
M  V30 3522 C 316.065 0.622592 1.96996 0
M  V30 3523 C 316.473 -0.809112 1.71026 0
M  V30 3524 O 315.816 -1.55258 0.981861 0
M  V30 3525 C 315.878 0.798946 3.5051 0
M  V30 3526 C 315.542 2.20744 4.00151 0
M  V30 3527 C 316.539 3.18394 4.11001 0
M  V30 3528 C 314.224 2.5311 4.33867 0
M  V30 3529 C 316.218 4.46504 4.54877 0
M  V30 3530 C 313.905 3.8145 4.7743 0
M  V30 3531 C 314.903 4.77959 4.87897 0
M  V30 3532 O 314.591 6.04012 5.30494 0
M  V30 3533 H 314.323 0.232503 0.634758 0
M  V30 3534 H 316.877 1.2789 1.60728 0
M  V30 3535 H 315.107 0.0854903 3.86605 0
M  V30 3536 H 316.796 0.47023 4.03167 0
M  V30 3537 H 317.562 2.94715 3.85186 0
M  V30 3538 H 313.441 1.78719 4.24948 0
M  V30 3539 H 316.985 5.21835 4.62962 0
M  V30 3540 H 312.882 4.04936 5.0269 0
M  V30 3541 H 313.65 6.0736 5.48685 0
M  V30 3542 N 316.313 -1.40141 0.720998 0
M  V30 3543 C 317.559 -2.01084 0.263231 0
M  V30 3544 C 317.892 -1.57052 -1.14229 0
M  V30 3545 O 317.167 -0.793027 -1.77599 0
M  V30 3546 C 317.45 -3.58401 0.349344 0
M  V30 3547 C 317.303 -4.12491 1.79363 0
M  V30 3548 C 318.622 -4.39231 -0.276351 0
M  V30 3549 H 315.741 -0.730572 0.0971228 0
M  V30 3550 H 318.383 -1.66543 0.914518 0
M  V30 3551 H 316.533 -3.87958 -0.205165 0
M  V30 3552 H 318.205 -3.93711 2.40394 0
M  V30 3553 H 316.448 -3.66576 2.31958 0
M  V30 3554 H 317.119 -5.21646 1.80524 0
M  V30 3555 H 319.595 -4.15637 0.196184 0
M  V30 3556 H 318.471 -5.48586 -0.185681 0
M  V30 3557 H 318.732 -4.20643 -1.36059 0
M  V30 3558 N 317.792 -0.46758 -1.50504 0
M  V30 3559 C 318.755 0.317059 -2.26996 0
M  V30 3560 C 319.755 0.923513 -1.31635 0
M  V30 3561 O 320.945 0.793239 -1.55091 0
M  V30 3562 C 318.077 1.45134 -3.08462 0
M  V30 3563 H 319.27 -0.353723 -2.97807 0
M  V30 3564 H 316.823 -0.221545 -1.54722 0
M  V30 3565 H 317.558 2.15728 -2.4214 0
M  V30 3566 H 317.343 1.02232 -3.78538 0
M  V30 3567 H 318.833 2.00493 -3.66323 0
M  V30 3568 N 319.27 1.56325 -0.20005 0
M  V30 3569 C 320.18 2.22931 0.730668 0
M  V30 3570 C 321.196 1.22997 1.23076 0
M  V30 3571 O 322.372 1.55748 1.27689 0
M  V30 3572 C 319.437 2.87948 1.93098 0
M  V30 3573 C 318.498 4.03166 1.47497 0
M  V30 3574 C 317.731 4.65073 2.61807 0
M  V30 3575 O 317.954 4.25913 3.79413 0
M  V30 3576 O 316.888 5.54452 2.34237 0
M  V30 3577 H 320.714 3.03084 0.193391 0
M  V30 3578 H 318.299 1.49371 0.0294621 0
M  V30 3579 H 320.181 3.29063 2.6324 0
M  V30 3580 H 318.856 2.10771 2.45677 0
M  V30 3581 H 317.763 3.66664 0.742201 0
M  V30 3582 H 319.096 4.82022 0.995796 0
M  V30 3583 N 320.748 -0.0735177 1.57428 0
M  V30 3584 C 322.164 -0.428264 1.53747 0
M  V30 3585 C 322.364 -1.79272 0.91998 0
M  V30 3586 O 321.42 -2.47051 0.521745 0
M  V30 3587 C 322.733 -0.370914 2.98404 0
M  V30 3588 C 324.281 -0.451224 3.0973 0
M  V30 3589 C 324.756 -0.4238 4.56035 0
M  V30 3590 N 326.247 -0.483925 4.60665 0
M  V30 3591 C 326.982 -0.484891 5.71346 0
M  V30 3592 N 326.478 -0.440775 6.91396 0
M  V30 3593 N 328.271 -0.531319 5.59583 0
M  V30 3594 H 320.422 0.819949 1.95935 0
M  V30 3595 H 322.685 0.307493 0.896745 0
M  V30 3596 H 322.391 0.564956 3.47133 0
M  V30 3597 H 322.265 -1.18176 3.5821 0
M  V30 3598 H 324.652 -1.37752 2.60976 0
M  V30 3599 H 324.733 0.388167 2.52838 0
M  V30 3600 H 324.377 0.498638 5.05446 0
M  V30 3601 H 324.307 -1.2807 5.10789 0
M  V30 3602 H 326.798 -0.522338 3.74273 0
M  V30 3603 H 327.111 -0.44539 7.71515 0
M  V30 3604 H 325.456 -0.40749 6.93804 0
M  V30 3605 H 328.647 -0.563464 4.64696 0
M  V30 3606 H 328.82 -0.528603 6.4584 0
M  V30 3607 N 322.226 -1.5378 -0.344866 0
M  V30 3608 C 323.176 -1.78057 -1.42407 0
M  V30 3609 C 324.16 -0.635732 -1.47808 0
M  V30 3610 O 325.352 -0.89508 -1.527 0
M  V30 3611 C 322.481 -1.99242 -2.79566 0
M  V30 3612 C 321.567 -3.19787 -2.78562 0
M  V30 3613 N 321.958 -4.41284 -2.47189 0
M  V30 3614 C 320.256 -3.2093 -3.0971 0
M  V30 3615 C 320.957 -5.23128 -2.54385 0
M  V30 3616 N 319.933 -4.59813 -2.89953 0
M  V30 3617 H 323.735 -2.69588 -1.17046 0
M  V30 3618 H 321.249 -1.52687 -0.553217 0
M  V30 3619 H 323.246 -2.14768 -3.57324 0
M  V30 3620 H 321.906 -1.08953 -3.05875 0
M  V30 3621 H 322.917 -4.68657 -2.20411 0
M  V30 3622 H 319.594 -2.40603 -3.41199 0
M  V30 3623 H 320.984 -6.30096 -2.333 0
M  V30 3624 N 323.704 0.605807 -1.45491 0
M  V30 3625 C 324.667 1.69836 -1.5391 0
M  V30 3626 C 325.667 1.55261 -0.418424 0
M  V30 3627 O 326.857 1.60296 -0.681965 0
M  V30 3628 C 323.989 3.09117 -1.43734 0
M  V30 3629 H 325.182 1.63738 -2.51257 0
M  V30 3630 H 322.735 0.821689 -1.32959 0
M  V30 3631 H 323.47 3.20791 -0.475788 0
M  V30 3632 H 323.255 3.21104 -2.25021 0
M  V30 3633 H 324.745 3.88696 -1.52661 0
M  V30 3634 N 325.182 1.32811 0.848464 0
M  V30 3635 C 326.429 1.23724 1.60308 0
M  V30 3636 C 326.757 -0.1994 1.93475 0
M  V30 3637 O 326.012 -1.15406 1.5805 0
M  V30 3638 C 326.311 2.04831 2.92881 0
M  V30 3639 C 325.977 3.54125 2.79117 0
M  V30 3640 C 324.639 3.94829 2.7507 0
M  V30 3641 C 326.991 4.49036 2.64606 0
M  V30 3642 C 324.319 5.28675 2.544 0
M  V30 3643 C 326.671 5.83033 2.4547 0
M  V30 3644 C 325.335 6.22931 2.39819 0
M  V30 3645 H 324.605 0.452737 0.586609 0
M  V30 3646 H 327.252 1.64301 0.983743 0
M  V30 3647 H 325.557 1.57001 3.58968 0
M  V30 3648 H 327.254 1.95164 3.50303 0
M  V30 3649 H 323.844 3.21801 2.83094 0
M  V30 3650 H 328.028 4.18505 2.66772 0
M  V30 3651 H 323.284 5.58637 2.48465 0
M  V30 3652 H 327.458 6.56186 2.33222 0
M  V30 3653 H 325.085 7.26584 2.23562 0
M  V30 3654 N 326.66 -1.06551 1.16123 0
M  V30 3655 C 327.592 -2.13908 0.823171 0
M  V30 3656 C 328.605 -1.61926 -0.16843 0
M  V30 3657 O 329.794 -1.78412 0.055962 0
M  V30 3658 C 326.894 -3.38283 0.204424 0
M  V30 3659 C 326.067 -4.19589 1.23548 0
M  V30 3660 C 325.126 -5.2233 0.637011 0
M  V30 3661 O 324.152 -5.54034 1.30516 0
M  V30 3662 N 325.354 -5.77621 -0.577474 0
M  V30 3663 H 328.119 -2.43508 1.74711 0
M  V30 3664 H 325.68 -1.2253 1.05821 0
M  V30 3665 H 327.672 -4.0416 -0.208909 0
M  V30 3666 H 326.242 -3.06329 -0.623012 0
M  V30 3667 H 325.462 -3.49406 1.82507 0
M  V30 3668 H 326.75 -4.70718 1.93137 0
M  V30 3669 H 326.148 -5.54125 -1.13853 0
M  V30 3670 H 324.705 -6.45087 -0.933053 0
M  V30 3671 N 328.138 -0.959301 -1.25041 0
M  V30 3672 C 329.363 -0.633507 -1.97488 0
M  V30 3673 C 329.788 0.788555 -1.70773 0
M  V30 3674 O 329.146 1.53394 -0.966431 0
M  V30 3675 C 329.194 -0.904057 -3.49083 0
M  V30 3676 O 328.298 0.0147939 -4.12397 0
M  V30 3677 H 327.639 -0.240368 -0.618966 0
M  V30 3678 H 330.169 -1.28717 -1.59038 0
M  V30 3679 H 330.179 -0.832203 -3.99423 0
M  V30 3680 H 328.854 -1.94048 -3.67856 0
M  V30 3681 H 327.431 -0.109664 -3.72739 0
M  V30 3682 N 329.616 1.39756 -0.72842 0
M  V30 3683 C 330.865 1.99879 -0.270407 0
M  V30 3684 C 331.178 1.58449 1.14688 0
M  V30 3685 O 332.384 2.11362 1.70407 0
M  V30 3686 C 330.84 3.57292 -0.43252 0
M  V30 3687 C 330.448 4.07688 -1.85727 0
M  V30 3688 C 332.192 4.24485 -0.0359507 0
M  V30 3689 C 330.099 5.5765 -1.96928 0
M  V30 3690 H 329.029 0.747689 -0.0973472 0
M  V30 3691 H 331.68 1.59837 -0.901355 0
M  V30 3692 H 330.062 3.95097 0.267219 0
M  V30 3693 H 331.236 3.81231 -2.58843 0
M  V30 3694 H 329.551 3.53135 -2.20646 0
M  V30 3695 H 332.148 5.34609 -0.0987484 0
M  V30 3696 H 332.491 4.03915 1.00787 0
M  V30 3697 H 333.024 3.9183 -0.686604 0
M  V30 3698 H 329.763 5.8309 -2.99476 0
M  V30 3699 H 329.283 5.8593 -1.28241 0
M  V30 3700 H 330.962 6.22957 -1.74737 0
M  V30 3701 N 331.094 0.475555 1.50254 0
M  V30 3702 C 332.505 0.0215174 1.86688 0
M  V30 3703 C 332.856 -1.38467 1.39001 0
M  V30 3704 O 331.981 -2.02732 0.756894 0
M  V30 3705 C 332.576 0.0322715 3.38785 0
M  V30 3706 C 331.135 -0.366314 3.74613 0
M  V30 3707 C 330.282 0.415832 2.74164 0
M  V30 3708 H 333.233 0.689612 1.42934 0
M  V30 3709 H 333.254 -0.76889 3.7265 0
M  V30 3710 H 332.766 1.05584 3.73462 0
M  V30 3711 H 330.867 -1.39406 3.45538 0
M  V30 3712 H 330.98 -0.064555 4.79057 0
M  V30 3713 H 329.344 -0.131048 2.54363 0
M  V30 3714 H 330.127 1.43899 3.11686 0
M  V30 3715 N 332.573 -1.56217 0.208337 0
M  V30 3716 C 333.483 -2.23316 -0.718836 0
M  V30 3717 C 334.499 -1.23648 -1.22422 0
M  V30 3718 O 335.675 -1.56423 -1.26861 0
M  V30 3719 C 332.74 -2.88968 -1.91568 0
M  V30 3720 C 331.801 -4.03943 -1.45357 0
M  V30 3721 C 331.034 -4.66455 -2.59337 0
M  V30 3722 O 331.257 -4.27919 -3.77149 0
M  V30 3723 O 330.191 -5.55686 -2.31293 0
M  V30 3724 H 334.017 -3.03182 -0.177315 0
M  V30 3725 H 331.602 -1.49384 -0.0215402 0
M  V30 3726 H 333.484 -3.30455 -2.61491 0
M  V30 3727 H 332.159 -2.12071 -2.44556 0
M  V30 3728 H 331.066 -3.67052 -0.722746 0
M  V30 3729 H 332.399 -4.82543 -0.970219 0
M  V30 3730 N 334.051 0.0651679 -1.57465 0
M  V30 3731 C 334.981 1.07693 -2.07182 0
M  V30 3732 C 335.962 1.39962 -0.966673 0
M  V30 3733 O 337.147 1.49475 -1.2398 0
M  V30 3734 C 334.277 2.3885 -2.52127 0
M  V30 3735 C 333.231 2.20917 -3.66579 0
M  V30 3736 C 332.557 3.57515 -3.97601 0
M  V30 3737 C 333.857 1.62493 -4.9638 0
M  V30 3738 H 335.551 0.663199 -2.91962 0
M  V30 3739 H 333.097 0.317569 -1.40455 0
M  V30 3740 H 335.05 3.09928 -2.85522 0
M  V30 3741 H 333.774 2.82215 -1.64384 0
M  V30 3742 H 332.433 1.52279 -3.33477 0
M  V30 3743 H 332.081 3.98463 -3.06979 0
M  V30 3744 H 331.781 3.46353 -4.74672 0
M  V30 3745 H 333.305 4.30013 -4.33499 0
M  V30 3746 H 334.719 2.23445 -5.27963 0
M  V30 3747 H 333.116 1.62009 -5.77818 0
M  V30 3748 H 334.186 0.587041 -4.81333 0
M  V30 3749 N 335.529 1.53961 0.336706 0
M  V30 3750 C 336.778 1.70751 1.07363 0
M  V30 3751 C 337.091 0.481061 1.89592 0
M  V30 3752 O 338.297 0.530046 2.66276 0
M  V30 3753 C 336.753 3.01965 1.95818 0
M  V30 3754 C 336.361 4.31971 1.18764 0
M  V30 3755 C 338.105 3.28121 2.69327 0
M  V30 3756 C 336.012 5.54255 2.06289 0
M  V30 3757 H 334.942 0.636292 0.404535 0
M  V30 3758 H 337.593 1.80459 0.332681 0
M  V30 3759 H 335.975 2.86132 2.7376 0
M  V30 3760 H 337.149 4.5853 0.456849 0
M  V30 3761 H 335.464 4.12481 0.569946 0
M  V30 3762 H 338.061 4.16673 3.35094 0
M  V30 3763 H 338.404 2.45426 3.36261 0
M  V30 3764 H 338.937 3.44762 1.98454 0
M  V30 3765 H 335.676 6.39513 1.43885 0
M  V30 3766 H 335.196 5.31935 2.77138 0
M  V30 3767 H 336.875 5.90159 2.65182 0
M  V30 3768 N 337.007 -0.598083 1.45811 0
M  V30 3769 C 338.253 -1.35679 1.51535 0
M  V30 3770 C 338.608 -1.91745 0.15864 0
M  V30 3771 O 337.901 -1.72654 -0.830724 0
M  V30 3772 C 338.095 -2.51669 2.53766 0
M  V30 3773 C 337.924 -2.06963 3.99245 0
M  V30 3774 C 336.694 -1.92693 4.67116 0
M  V30 3775 C 338.892 -1.63855 4.875 0
M  V30 3776 N 336.874 -1.41897 5.97276 0
M  V30 3777 C 338.245 -1.24541 6.07363 0
M  V30 3778 C 340.3 -1.51533 4.74281 0
M  V30 3779 C 339.003 -0.741354 7.15469 0
M  V30 3780 C 341.029 -1.0253 5.82444 0
M  V30 3781 C 340.391 -0.641869 7.01469 0
M  V30 3782 H 336.49 -0.490042 0.609412 0
M  V30 3783 H 339.074 -0.682687 1.82339 0
M  V30 3784 H 337.245 -3.16663 2.24898 0
M  V30 3785 H 338.977 -3.18578 2.4958 0
M  V30 3786 H 335.732 -2.1417 4.22408 0
M  V30 3787 H 336.156 -1.18704 6.66512 0
M  V30 3788 H 340.798 -1.798 3.82664 0
M  V30 3789 H 338.516 -0.446243 8.06867 0
M  V30 3790 H 342.102 -0.934088 5.74253 0
M  V30 3791 H 340.982 -0.268531 7.8374 0
M  V30 3792 N 338.485 -1.33259 -0.841409 0
M  V30 3793 C 339.715 -1.2742 -1.62628 0
M  V30 3794 C 340.123 0.157604 -1.88542 0
M  V30 3795 O 339.466 1.10938 -1.46419 0
M  V30 3796 C 339.528 -1.97797 -3.00194 0
M  V30 3797 C 339.192 -3.47109 -2.97261 0
M  V30 3798 C 340.189 -4.42358 -2.73159 0
M  V30 3799 C 337.874 -3.89247 -3.17478 0
M  V30 3800 C 339.868 -5.77718 -2.69296 0
M  V30 3801 C 337.555 -5.24713 -3.13241 0
M  V30 3802 C 338.553 -6.1876 -2.89181 0
M  V30 3803 O 338.241 -7.51745 -2.84843 0
M  V30 3804 H 337.973 -0.440436 -0.512827 0
M  V30 3805 H 340.527 -1.76153 -1.05638 0
M  V30 3806 H 338.757 -1.43652 -3.59028 0
M  V30 3807 H 340.446 -1.8549 -3.61038 0
M  V30 3808 H 341.212 -4.11127 -2.57294 0
M  V30 3809 H 337.091 -3.16456 -3.35226 0
M  V30 3810 H 340.635 -6.51097 -2.50436 0
M  V30 3811 H 336.532 -5.55569 -3.28654 0
M  V30 3812 H 337.3 -7.61262 -3.00702 0
M  V30 3813 N 339.963 1.05934 -1.16686 0
M  V30 3814 C 340.913 2.11764 -0.844978 0
M  V30 3815 C 341.897 1.59922 0.177178 0
M  V30 3816 O 343.089 1.76983 -0.0241768 0
M  V30 3817 C 340.218 3.41493 -0.351812 0
M  V30 3818 C 339.304 4.00152 -1.40496 0
M  V30 3819 N 339.695 4.32874 -2.61636 0
M  V30 3820 C 337.993 4.278 -1.26106 0
M  V30 3821 C 338.694 4.79552 -3.29249 0
M  V30 3822 N 337.67 4.79211 -2.56628 0
M  V30 3823 H 341.472 2.34916 -1.76612 0
M  V30 3824 H 338.986 1.23511 -1.05446 0
M  V30 3825 H 340.983 4.16773 -0.102796 0
M  V30 3826 H 339.643 3.19778 0.56322 0
M  V30 3827 H 340.654 4.23109 -2.98663 0
M  V30 3828 H 337.331 4.15511 -0.407081 0
M  V30 3829 H 338.721 5.14045 -4.32675 0
M  V30 3830 N 341.441 0.965919 1.2453 0
M  V30 3831 C 342.373 0.452465 2.2469 0
M  V30 3832 C 343.386 -0.437821 1.56802 0
M  V30 3833 O 344.575 -0.244283 1.76821 0
M  V30 3834 C 341.675 -0.366258 3.36915 0
M  V30 3835 C 340.848 0.513701 4.34373 0
M  V30 3836 C 339.907 -0.248716 5.25612 0
M  V30 3837 O 338.933 0.356745 5.68081 0
M  V30 3838 N 340.135 -1.53877 5.59734 0
M  V30 3839 H 342.9 1.31361 2.69378 0
M  V30 3840 H 340.461 0.837541 1.38553 0
M  V30 3841 H 342.453 -0.884297 3.94921 0
M  V30 3842 H 341.023 -1.12832 2.91526 0
M  V30 3843 H 340.243 1.21273 3.75082 0
M  V30 3844 H 341.531 1.11391 4.96457 0
M  V30 3845 H 340.929 -2.05243 5.27154 0
M  V30 3846 H 339.486 -2.00254 6.20275 0
M  V30 3847 N 342.919 -1.39368 0.735821 0
M  V30 3848 C 343.869 -2.27885 0.0724287 0
M  V30 3849 C 344.853 -1.44301 -0.711756 0
M  V30 3850 O 346.045 -1.67206 -0.58063 0
M  V30 3851 C 343.174 -3.33029 -0.833454 0
M  V30 3852 C 342.26 -4.24078 -0.0433749 0
M  V30 3853 N 342.651 -4.96138 0.983903 0
M  V30 3854 C 340.949 -4.45164 -0.272905 0
M  V30 3855 C 341.65 -5.63069 1.4604 0
M  V30 3856 N 340.626 -5.37991 0.778857 0
M  V30 3857 H 344.428 -2.81052 0.859467 0
M  V30 3858 H 341.942 -1.5206 0.570227 0
M  V30 3859 H 343.939 -3.95311 -1.32419 0
M  V30 3860 H 342.599 -2.81421 -1.61964 0
M  V30 3861 H 343.61 -4.9958 1.36528 0
M  V30 3862 H 340.287 -4.04497 -1.03383 0
M  V30 3863 H 341.677 -6.30755 2.31511 0
M  V30 3864 N 344.397 -0.483516 -1.5 0
M  V30 3865 C 345.345 0.318061 -2.30415 0
M  V30 3866 C 346.339 0.978988 -1.38247 0
M  V30 3867 O 347.545 0.908673 -1.55381 0
M  V30 3868 H 343.92 0.121419 -0.742133 0
M  V30 3869 H 345.891 -0.380403 -2.95965 0
M  V30 3870 C 344.64 1.38013 -3.19136 0
M  V30 3871 H 343.963 0.880952 -3.89973 0
M  V30 3872 H 345.403 1.91332 -3.78375 0
M  V30 3873 C 343.862 2.38884 -2.37563 0
M  V30 3874 O 344.392 3.44412 -2.06744 0
M  V30 3875 N 342.598 2.10912 -1.99911 0
M  V30 3876 H 342.145 1.25118 -2.25174 0
M  V30 3877 H 342.103 2.78635 -1.45636 0
M  V30 3878 N 345.875 1.56104 -0.216619 0
M  V30 3879 C 346.838 2.18819 0.681962 0
M  V30 3880 C 347.838 1.14866 1.12528 0
M  V30 3881 O 349.028 1.40128 1.03488 0
M  V30 3882 C 346.16 2.80756 1.93362 0
M  V30 3883 H 347.353 2.99595 0.135254 0
M  V30 3884 H 344.906 1.56265 0.0330003 0
M  V30 3885 H 345.641 2.03837 2.52232 0
M  V30 3886 H 345.426 3.56876 1.62426 0
M  V30 3887 H 346.916 3.28844 2.57393 0
M  V30 3888 N 347.353 -0.0568162 1.57498 0
M  V30 3889 C 348.316 -1.05038 2.03715 0
M  V30 3890 C 349.316 -1.30709 0.936577 0
M  V30 3891 O 350.506 -1.26178 1.20103 0
M  V30 3892 C 347.638 -2.39034 2.43055 0
M  V30 3893 H 348.831 -0.651715 2.92733 0
M  V30 3894 H 346.384 -0.302947 1.53336 0
M  V30 3895 H 347.119 -2.83703 1.57108 0
M  V30 3896 H 346.904 -2.21739 3.2338 0
M  V30 3897 H 348.394 -3.10421 2.79336 0
M  V30 3898 N 348.832 -1.54138 -0.328536 0
M  V30 3899 C 350.08 -1.71765 -1.06496 0
M  V30 3900 C 350.401 -0.49149 -1.88704 0
M  V30 3901 O 349.671 0.494539 -1.89555 0
M  V30 3902 H 348.251 -0.633295 -0.396164 0
M  V30 3903 H 350.913 -1.91429 -0.366176 0
M  V30 3904 H 350.009 -2.5951 -1.73381 0
M  V30 3905 N 350.31 0.590341 -1.46126 0
M  V30 3906 C 351.24 1.71032 -1.58966 0
M  V30 3907 C 352.221 1.64302 -0.440335 0
M  V30 3908 O 353.406 1.82436 -0.665634 0
M  V30 3909 C 350.536 3.09665 -1.57241 0
M  V30 3910 C 349.49 3.31221 -2.71066 0
M  V30 3911 C 348.816 4.70303 -2.54399 0
M  V30 3912 C 350.116 3.19796 -4.1295 0
M  V30 3913 H 351.81 1.60543 -2.52718 0
M  V30 3914 H 349.356 0.770933 -1.21625 0
M  V30 3915 H 351.309 3.87831 -1.64819 0
M  V30 3916 H 350.033 3.21036 -0.600289 0
M  V30 3917 H 348.692 2.55452 -2.62944 0
M  V30 3918 H 348.34 4.78429 -1.55288 0
M  V30 3919 H 348.04 4.85679 -3.30741 0
M  V30 3920 H 349.564 5.50647 -2.63857 0
M  V30 3921 H 350.978 3.87815 -4.22223 0
M  V30 3922 H 349.375 3.46696 -4.89818 0
M  V30 3923 H 350.445 2.16983 -4.33643 0
M  V30 3924 N 351.788 1.33704 0.83433 0
M  V30 3925 C 352.721 1.18675 1.94914 0
M  V30 3926 C 353.699 0.0811145 1.62398 0
M  V30 3927 O 354.883 0.244186 1.86912 0
M  V30 3928 C 352.01 0.821231 3.28593 0
M  V30 3929 C 351.056 1.93501 3.80079 0
M  V30 3930 S 351.889 3.54671 4.01209 0
M  V30 3931 C 353.045 3.20136 5.37833 0
M  V30 3932 H 353.278 2.13043 2.07364 0
M  V30 3933 H 350.811 1.18598 0.988624 0
M  V30 3934 H 352.769 0.617123 4.05835 0
M  V30 3935 H 351.43 -0.103927 3.13928 0
M  V30 3936 H 350.623 1.63273 4.76821 0
M  V30 3937 H 350.225 2.09601 3.09747 0
M  V30 3938 H 352.517 2.71242 6.20833 0
M  V30 3939 H 353.46 4.15975 5.73036 0
M  V30 3940 H 353.868 2.56613 5.02802 0
M  V30 3941 N 353.266 -1.05314 1.17247 0
M  V30 3942 C 354.494 -1.81971 0.984593 0
M  V30 3943 C 354.909 -1.82929 -0.467166 0
M  V30 3944 O 354.266 -1.25564 -1.32438 0
M  V30 3945 C 354.317 -3.28143 1.51672 0
M  V30 3946 O 354.038 -3.27347 2.91163 0
M  V30 3947 C 355.539 -4.21493 1.37326 0
M  V30 3948 H 352.759 -0.573455 0.348411 0
M  V30 3949 H 355.303 -1.32808 1.55506 0
M  V30 3950 H 353.458 -3.74582 0.988302 0
M  V30 3951 H 353.872 -4.18824 3.15732 0
M  V30 3952 H 355.346 -5.22043 1.79375 0
M  V30 3953 H 355.823 -4.38031 0.320169 0
M  V30 3954 H 356.429 -3.80909 1.89178 0
M  V30 3955 N 354.744 -0.972509 -1.24016 0
M  V30 3956 C 356.16 -0.679827 -1.44397 0
M  V30 3957 C 356.36 0.756716 -1.86751 0
M  V30 3958 O 355.416 1.53007 -2.00861 0
M  V30 3959 C 356.729 -1.66803 -2.50195 0
M  V30 3960 C 358.277 -1.68119 -2.64017 0
M  V30 3961 C 358.752 -2.65748 -3.73017 0
M  V30 3962 N 360.243 -2.64219 -3.8045 0
M  V30 3963 C 360.978 -3.36433 -4.64328 0
M  V30 3964 N 360.474 -4.1818 -5.52356 0
M  V30 3965 N 362.267 -3.25235 -4.58453 0
M  V30 3966 H 354.418 -1.90059 -0.948228 0
M  V30 3967 H 356.681 -0.818527 -0.478245 0
M  V30 3968 H 356.387 -2.69498 -2.25973 0
M  V30 3969 H 356.261 -1.4446 -3.48441 0
M  V30 3970 H 358.648 -0.661319 -2.87594 0
M  V30 3971 H 358.729 -1.94525 -1.66113 0
M  V30 3972 H 358.373 -3.67872 -3.50189 0
M  V30 3973 H 358.303 -2.36619 -4.70446 0
M  V30 3974 H 360.794 -2.04887 -3.17537 0
M  V30 3975 H 361.107 -4.70157 -6.13329 0
M  V30 3976 H 359.452 -4.22273 -5.52006 0
M  V30 3977 H 362.643 -2.60829 -3.88698 0
M  V30 3978 H 362.816 -3.81776 -5.23594 0
M  V30 3979 N 356.222 1.38976 -0.743202 0
M  V30 3980 C 357.152 2.33171 -0.123873 0
M  V30 3981 C 358.133 1.54336 0.71516 0
M  V30 3982 O 359.318 1.82696 0.658467 0
M  V30 3983 C 356.448 3.38474 0.777978 0
M  V30 3984 C 355.402 4.27979 0.0424758 0
M  V30 3985 C 354.728 5.2405 1.06189 0
M  V30 3986 C 356.028 5.10155 -1.1198 0
M  V30 3987 H 357.722 2.85213 -0.910709 0
M  V30 3988 H 355.268 1.37133 -0.439388 0
M  V30 3989 H 357.221 4.03328 1.22084 0
M  V30 3990 H 355.945 2.84891 1.59702 0
M  V30 3991 H 354.604 3.64616 -0.380853 0
M  V30 3992 H 354.252 4.66758 1.87472 0
M  V30 3993 H 353.952 5.84785 0.574485 0
M  V30 3994 H 355.476 5.9178 1.50428 0
M  V30 3995 H 356.89 5.68307 -0.75499 0
M  V30 3996 H 355.287 5.80073 -1.53738 0
M  V30 3997 H 356.357 4.44504 -1.93764 0
M  V30 3998 N 357.7 0.491464 1.49741 0
M  V30 3999 C 359.116 0.146835 1.58923 0
M  V30 4000 C 359.316 -1.34804 1.49767 0
M  V30 4001 O 358.372 -2.12317 1.36667 0
M  V30 4002 C 359.685 0.715157 2.92072 0
M  V30 4003 C 361.233 0.680407 3.05515 0
M  V30 4004 C 361.708 1.22663 4.41269 0
M  V30 4005 N 363.199 1.18691 4.47735 0
M  V30 4006 C 363.934 1.57984 5.51207 0
M  V30 4007 N 363.43 2.04824 6.6183 0
M  V30 4008 N 365.223 1.49459 5.41866 0
M  V30 4009 H 357.374 1.46347 1.53936 0
M  V30 4010 H 359.637 0.606453 0.728642 0
M  V30 4011 H 359.343 1.76317 3.04311 0
M  V30 4012 H 359.217 0.17018 3.76816 0
M  V30 4013 H 361.604 -0.358743 2.92911 0
M  V30 4014 H 361.685 1.26242 2.22478 0
M  V30 4015 H 361.329 2.26451 4.54623 0
M  V30 4016 H 361.259 0.620637 5.2293 0
M  V30 4017 H 363.75 0.843605 3.68364 0
M  V30 4018 H 364.063 2.32901 7.3687 0
M  V30 4019 H 362.408 2.08791 6.62896 0
M  V30 4020 H 365.599 1.12692 4.54333 0
M  V30 4021 H 365.772 1.80406 6.22381 0
M  V30 4022 N 359.178 -1.55987 0.224894 0
M  V30 4023 C 360.408 -2.02489 -0.41007 0
M  V30 4024 C 360.816 -1.10391 -1.53657 0
M  V30 4025 O 360.159 -0.106458 -1.83391 0
M  V30 4026 C 360.221 -3.45319 -0.999757 0
M  V30 4027 C 359.885 -4.56999 -0.00827976 0
M  V30 4028 C 360.882 -5.13812 0.793314 0
M  V30 4029 C 358.567 -5.02176 0.111442 0
M  V30 4030 C 360.561 -6.14276 1.7013 0
M  V30 4031 C 358.248 -6.02477 1.02296 0
M  V30 4032 C 359.246 -6.58403 1.81643 0
M  V30 4033 O 358.934 -7.56751 2.71262 0
M  V30 4034 H 358.666 -0.667915 -0.104235 0
M  V30 4035 H 361.22 -2.0257 0.339782 0
M  V30 4036 H 359.45 -3.42318 -1.79876 0
M  V30 4037 H 361.139 -3.7545 -1.54248 0
M  V30 4038 H 361.905 -4.79756 0.711288 0
M  V30 4039 H 357.784 -4.58323 -0.49605 0
M  V30 4040 H 361.328 -6.57854 2.32107 0
M  V30 4041 H 357.225 -6.35954 1.10599 0
M  V30 4042 H 357.993 -7.74286 2.65375 0
M  V30 4043 N 360.656 0.0484629 -1.57525 0
M  V30 4044 C 362.067 0.597486 -1.76881 0
M  V30 4045 C 362.418 1.76664 -0.853475 0
M  V30 4046 O 361.543 2.16357 -0.0433656 0
M  V30 4047 C 362.138 1.09066 -3.20765 0
M  V30 4048 C 360.697 1.58535 -3.41385 0
M  V30 4049 C 359.844 0.514868 -2.72478 0
M  V30 4050 H 362.795 -0.177758 -1.57701 0
M  V30 4051 H 362.816 1.95875 -3.2621 0
M  V30 4052 H 362.328 0.239521 -3.8736 0
M  V30 4053 H 360.429 2.45898 -2.79937 0
M  V30 4054 H 360.542 1.64622 -4.49929 0
M  V30 4055 H 358.906 0.965407 -2.35695 0
M  V30 4056 H 359.689 -0.32648 -3.41744 0
M  V30 4057 N 362.134 1.5431 0.320358 0
M  V30 4058 C 363.38 1.72924 1.05949 0
M  V30 4059 C 363.713 0.503185 1.87568 0
M  V30 4060 O 362.988 -0.499839 1.87968 0
M  V30 4061 C 363.271 3.00676 1.98156 0
M  V30 4062 C 363.124 4.3354 1.19845 0
M  V30 4063 C 364.443 3.24198 2.9763 0
M  V30 4064 H 361.562 0.629195 0.383774 0
M  V30 4065 H 364.204 1.87008 0.335854 0
M  V30 4066 H 362.354 2.888 2.59859 0
M  V30 4067 H 364.026 4.57305 0.605773 0
M  V30 4068 H 362.269 4.309 0.500784 0
M  V30 4069 H 362.94 5.19156 1.87567 0
M  V30 4070 H 365.416 3.35557 2.4605 0
M  V30 4071 H 364.292 4.14938 3.59329 0
M  V30 4072 H 364.553 2.41577 3.7026 0
M  V30 4073 N 363.613 -0.582584 1.46437 0
M  V30 4074 C 364.861 -1.33814 1.51453 0
M  V30 4075 C 365.182 -1.94277 0.167792 0
M  V30 4076 O 364.452 -1.78566 -0.805677 0
M  V30 4077 H 363.032 -0.496838 0.557818 0
M  V30 4078 H 365.694 -0.682281 1.82568 0
M  V30 4079 H 364.79 -2.14479 2.26728 0
M  V30 4080 N 365.091 -1.34144 -0.827227 0
M  V30 4081 C 366.021 -1.28005 -1.95287 0
M  V30 4082 C 367.002 -0.158321 -1.69362 0
M  V30 4083 O 368.187 -0.349987 -1.9102 0
M  V30 4084 C 365.317 -1.03036 -3.31664 0
M  V30 4085 C 364.271 -2.11628 -3.72019 0
M  V30 4086 C 363.597 -1.71854 -5.0633 0
M  V30 4087 C 364.897 -3.53417 -3.8457 0
M  V30 4088 H 366.591 -2.22187 -2.00682 0
M  V30 4089 H 364.137 -1.0696 -0.964135 0
M  V30 4090 H 366.09 -0.973863 -4.09993 0
M  V30 4091 H 364.814 -0.0529391 -3.26557 0
M  V30 4092 H 363.473 -2.16339 -2.95961 0
M  V30 4093 H 363.121 -0.727841 -4.97706 0
M  V30 4094 H 362.821 -2.44531 -5.34302 0
M  V30 4095 H 364.345 -1.67692 -5.87122 0
M  V30 4096 H 365.759 -3.51142 -4.5318 0
M  V30 4097 H 364.156 -4.24679 -4.2399 0
M  V30 4098 H 365.226 -3.91072 -2.86689 0
M  V30 4099 N 366.569 1.04691 -1.17803 0
M  V30 4100 C 367.502 2.12068 -0.842765 0
M  V30 4101 C 368.48 1.61455 0.192608 0
M  V30 4102 O 369.664 1.88359 0.072995 0
M  V30 4103 C 366.791 3.37715 -0.258063 0
M  V30 4104 C 365.837 4.07164 -1.26962 0
M  V30 4105 S 366.67 4.55047 -2.82299 0
M  V30 4106 C 367.826 5.83935 -2.25323 0
M  V30 4107 H 368.059 2.4018 -1.75217 0
M  V30 4108 H 365.592 1.17366 -1.00323 0
M  V30 4109 H 367.55 4.10435 0.0727935 0
M  V30 4110 H 366.211 3.0773 0.629357 0
M  V30 4111 H 365.404 4.9746 -0.809263 0
M  V30 4112 H 365.006 3.40533 -1.54639 0
M  V30 4113 H 367.298 6.57552 -1.63192 0
M  V30 4114 H 368.241 6.34725 -3.13894 0
M  V30 4115 H 368.649 5.3874 -1.68582 0
M  V30 4116 N 368.047 0.979072 1.23499 0
M  V30 4117 C 369.295 0.645941 1.91499 0
M  V30 4118 C 369.616 -0.822948 1.76784 0
M  V30 4119 O 368.886 -1.58854 1.14639 0
M  V30 4120 H 367.466 0.235919 0.708767 0
M  V30 4121 H 370.128 1.2426 1.50152 0
M  V30 4122 H 369.224 0.896411 2.9895 0
M  V30 4123 N 369.525 -1.3858 0.750561 0
M  V30 4124 C 370.75 -2.04997 0.314812 0
M  V30 4125 C 371.175 -1.56235 -1.04749 0
M  V30 4126 O 370.533 -0.712981 -1.66692 0
M  V30 4127 C 370.581 -3.58961 0.343415 0
M  V30 4128 O 369.685 -4.07025 -0.663628 0
M  V30 4129 H 369.026 -0.649081 0.139962 0
M  V30 4130 H 371.556 -1.77313 1.02084 0
M  V30 4131 H 371.566 -4.07542 0.193233 0
M  V30 4132 H 370.241 -3.93811 1.33738 0
M  V30 4133 H 368.818 -3.6982 -0.478307 0
M  V30 4134 N 371.003 -0.499398 -1.49478 0
M  V30 4135 C 372.243 0.0440751 -2.04352 0
M  V30 4136 C 372.607 1.34423 -1.37093 0
M  V30 4137 O 373.808 1.97184 -1.82679 0
M  V30 4138 C 372.079 0.194918 -3.56868 0
M  V30 4139 S 373.638 0.69287 -4.33295 0
M  V30 4140 H 370.456 0.00253458 -0.710995 0
M  V30 4141 H 373.058 -0.673 -1.83551 0
M  V30 4142 H 371.762 -0.756672 -4.03364 0
M  V30 4143 H 371.293 0.93728 -3.82071 0
M  V30 4144 H 373.308 1.96226 -4.55752 0
M  V30 4145 N 372.481 1.55866 -0.233164 0
M  V30 4146 C 373.411 2.23783 0.666599 0
M  V30 4147 C 374.392 1.21343 1.19205 0
M  V30 4148 O 375.577 1.4996 1.23392 0
M  V30 4149 C 372.707 2.92671 1.86978 0
M  V30 4150 C 371.661 4.01682 1.47768 0
M  V30 4151 C 370.987 4.57926 2.76058 0
M  V30 4152 C 372.287 5.18126 0.658993 0
M  V30 4153 H 373.981 2.99232 0.100306 0
M  V30 4154 H 371.527 1.43924 0.046804 0
M  V30 4155 H 373.48 3.3888 2.50476 0
M  V30 4156 H 372.204 2.14688 2.46123 0
M  V30 4157 H 370.863 3.56222 0.866106 0
M  V30 4158 H 370.511 3.76659 3.33372 0
M  V30 4159 H 370.211 5.31505 2.50552 0
M  V30 4160 H 371.735 5.06859 3.40479 0
M  V30 4161 H 373.149 5.60644 1.19795 0
M  V30 4162 H 371.546 5.98009 0.500552 0
M  V30 4163 H 372.616 4.83763 -0.331856 0
M  V30 4164 N 373.959 -0.0401083 1.57549 0
M  V30 4165 C 375.37 -0.588097 1.77196 0
M  V30 4166 C 375.721 -1.76209 0.862832 0
M  V30 4167 O 374.846 -2.16331 0.0548389 0
M  V30 4168 C 375.441 -1.07363 3.21339 0
M  V30 4169 C 374 -1.56723 3.42221 0
M  V30 4170 C 373.147 -0.50041 2.72747 0
M  V30 4171 H 376.098 0.186119 1.57605 0
M  V30 4172 H 376.119 -1.94143 3.27244 0
M  V30 4173 H 375.631 -0.218975 3.87482 0
M  V30 4174 H 373.732 -2.4441 2.81237 0
M  V30 4175 H 373.845 -1.62234 4.50796 0
M  V30 4176 H 372.209 -0.952894 2.36203 0
M  V30 4177 H 372.992 0.344599 3.41566 0
M  V30 4178 N 375.437 -1.54477 -0.31217 0
M  V30 4179 C 376.4 -1.83923 -1.36766 0
M  V30 4180 C 377.4 -0.711563 -1.44199 0
M  V30 4181 O 378.59 -0.979866 -1.44029 0
M  V30 4182 C 375.722 -2.0095 -2.75376 0
M  V30 4183 H 376.915 -2.78239 -1.11906 0
M  V30 4184 H 374.468 -1.46369 -0.548257 0
M  V30 4185 H 375.203 -1.08883 -3.05475 0
M  V30 4186 H 374.988 -2.83018 -2.71373 0
M  V30 4187 H 376.478 -2.2514 -3.51713 0
M  V30 4188 N 376.915 0.57481 -1.46744 0
M  V30 4189 C 378.143 1.35856 -1.56047 0
M  V30 4190 C 378.558 1.87691 -0.204365 0
M  V30 4191 O 377.915 1.64049 0.79963 0
M  V30 4192 C 377.966 2.54066 -2.57163 0
M  V30 4193 O 377.687 2.04377 -3.87507 0
M  V30 4194 C 379.188 3.46514 -2.76483 0
M  V30 4195 H 376.408 0.414754 -0.527466 0
M  V30 4196 H 378.952 0.698035 -1.92218 0
M  V30 4197 H 377.107 3.16092 -2.23974 0
M  V30 4198 H 377.521 2.81419 -4.4261 0
M  V30 4199 H 378.995 4.25919 -3.51137 0
M  V30 4200 H 379.472 3.98951 -1.83671 0
M  V30 4201 H 380.078 2.90318 -3.10799 0
M  V30 4202 N 378.394 1.34581 0.820102 0
M  V30 4203 C 379.357 1.2628 1.91275 0
M  V30 4204 C 380.357 0.177344 1.59819 0
M  V30 4205 O 381.547 0.430156 1.68806 0
M  V30 4206 C 378.679 0.950327 3.27386 0
M  V30 4207 H 379.872 2.23421 2.00057 0
M  V30 4208 H 377.425 1.1891 1.0144 0
M  V30 4209 H 378.16 -0.0177938 3.24295 0
M  V30 4210 H 377.945 1.73549 3.51601 0
M  V30 4211 H 379.435 0.917492 4.07396 0
M  V30 4212 N 379.872 -1.04064 1.18357 0
M  V30 4213 C 381.12 -1.76915 0.977013 0
M  V30 4214 C 381.441 -1.88624 -0.494577 0
M  V30 4215 O 380.711 -1.41125 -1.3587 0
M  V30 4216 H 379.291 -0.65535 0.358504 0
M  V30 4217 H 381.953 -1.25592 1.49039 0
M  V30 4218 H 381.049 -2.78178 1.41504 0
M  V30 4219 N 381.35 -0.985608 -1.22978 0
M  V30 4220 C 382.597 -0.657386 -1.91532 0
M  V30 4221 C 382.925 0.809707 -1.76845 0
M  V30 4222 O 382.18 1.60021 -1.12658 0
M  V30 4223 C 382.479 -1.00014 -3.43121 0
M  V30 4224 C 382.145 -2.4583 -3.77993 0
M  V30 4225 C 380.807 -2.85679 -3.87222 0
M  V30 4226 C 383.159 -3.40378 -3.94705 0
M  V30 4227 C 380.487 -4.19081 -4.10595 0
M  V30 4228 C 382.839 -4.73429 -4.1958 0
M  V30 4229 C 381.503 -5.1303 -4.27032 0
M  V30 4230 H 380.773 -0.240555 -0.700867 0
M  V30 4231 H 383.42 -1.24044 -1.45895 0
M  V30 4232 H 381.725 -0.335072 -3.90365 0
M  V30 4233 H 383.422 -0.724322 -3.94404 0
M  V30 4234 H 380.012 -2.13939 -3.71387 0
M  V30 4235 H 384.196 -3.10766 -3.8696 0
M  V30 4236 H 379.452 -4.49362 -4.14589 0
M  V30 4237 H 383.626 -5.46644 -4.31455 0
M  V30 4238 H 381.253 -6.16418 -4.44896 0
M  V30 4239 N 382.828 1.3818 -0.7579 0
M  V30 4240 C 384.053 2.04827 -0.325679 0
M  V30 4241 C 384.478 1.56788 1.03919 0
M  V30 4242 O 383.836 0.721811 1.66312 0
M  V30 4243 C 383.884 3.58774 -0.362447 0
M  V30 4244 O 382.988 4.07372 0.642033 0
M  V30 4245 H 382.329 0.64833 -0.143402 0
M  V30 4246 H 384.859 1.7677 -1.03023 0
M  V30 4247 H 384.869 4.07434 -0.214844 0
M  V30 4248 H 383.544 3.93096 -1.35824 0
M  V30 4249 H 382.121 3.70068 0.458688 0
M  V30 4250 N 384.306 0.507319 1.49211 0
M  V30 4251 C 385.536 -0.0315292 2.06576 0
M  V30 4252 C 385.944 -1.30791 1.36713 0
M  V30 4253 O 385.287 -1.78324 0.441181 0
M  V30 4254 C 385.349 -0.349104 3.57801 0
M  V30 4255 C 385.013 0.830475 4.49391 0
M  V30 4256 C 386.01 1.72271 4.90529 0
M  V30 4257 C 383.695 1.03107 4.91604 0
M  V30 4258 C 385.689 2.79964 5.72625 0
M  V30 4259 C 383.376 2.11116 5.73475 0
M  V30 4260 C 384.374 2.99379 6.1389 0
M  V30 4261 O 384.062 4.05523 6.94123 0
M  V30 4262 H 383.794 0.0201002 0.675701 0
M  V30 4263 H 386.348 0.705737 1.92895 0
M  V30 4264 H 384.578 -1.14005 3.69513 0
M  V30 4265 H 386.267 -0.827319 3.97379 0
M  V30 4266 H 387.033 1.57958 4.58557 0
M  V30 4267 H 382.912 0.353417 4.59643 0
M  V30 4268 H 386.456 3.48884 6.04091 0
M  V30 4269 H 382.353 2.25421 6.0486 0
M  V30 4270 H 383.121 4.02953 7.1244 0
M  V30 4271 N 385.784 -1.5574 0.241426 0
M  V30 4272 C 386.694 -2.2479 -0.671305 0
M  V30 4273 C 387.71 -1.26217 -1.19772 0
M  V30 4274 O 388.886 -1.59079 -1.23514 0
M  V30 4275 C 385.951 -2.92966 -1.85396 0
M  V30 4276 C 385.012 -4.06935 -1.36756 0
M  V30 4277 C 384.245 -4.71851 -2.49384 0
M  V30 4278 O 384.468 -4.35823 -3.67987 0
M  V30 4279 O 383.402 -5.60467 -2.19454 0
M  V30 4280 H 387.228 -3.0349 -0.112966 0
M  V30 4281 H 384.813 -1.49397 0.0101513 0
M  V30 4282 H 386.695 -3.35927 -2.54423 0
M  V30 4283 H 385.37 -2.17211 -2.40002 0
M  V30 4284 H 384.277 -3.68503 -0.644726 0
M  V30 4285 H 385.61 -4.84492 -0.867647 0
M  V30 4286 N 387.262 0.0317525 -1.57568 0
M  V30 4287 C 388.209 1.0332 -2.06382 0
M  V30 4288 C 389.179 1.36082 -0.952414 0
M  V30 4289 O 390.364 1.46466 -1.2228 0
M  V30 4290 C 387.504 2.32989 -2.54578 0
M  V30 4291 C 386.617 2.0641 -3.79498 0
M  V30 4292 C 385.752 3.2993 -4.16317 0
M  V30 4293 C 384.791 2.98893 -5.34162 0
M  V30 4294 N 383.928 4.14857 -5.66426 0
M  V30 4295 H 388.768 0.609982 -2.9169 0
M  V30 4296 H 386.305 0.289573 -1.44222 0
M  V30 4297 H 388.263 3.0875 -2.80587 0
M  V30 4298 H 386.893 2.73039 -1.7219 0
M  V30 4299 H 385.945 1.21158 -3.6059 0
M  V30 4300 H 387.257 1.79513 -4.65378 0
M  V30 4301 H 386.411 4.1406 -4.4344 0
M  V30 4302 H 385.15 3.59938 -3.29083 0
M  V30 4303 H 384.155 2.13164 -5.06795 0
M  V30 4304 H 385.38 2.70165 -6.23047 0
M  V30 4305 H 383.326 4.44821 -4.82151 0
M  V30 4306 H 383.243 3.91374 -6.4681 0
M  V30 4307 H 384.511 4.99868 -5.98124 0
M  V30 4308 N 388.74 1.54641 0.303973 0
M  V30 4309 C 389.986 1.74969 1.03718 0
M  V30 4310 C 390.341 0.527461 1.85029 0
M  V30 4311 O 389.634 -0.480143 1.85486 0
M  V30 4312 C 389.828 2.97753 1.97681 0
M  V30 4313 C 389.657 4.318 1.25613 0
M  V30 4314 C 388.427 4.95616 0.984518 0
M  V30 4315 C 390.625 5.10021 0.662081 0
M  V30 4316 N 388.607 6.13455 0.233794 0
M  V30 4317 C 389.978 6.19984 0.0439736 0
M  V30 4318 C 392.033 4.94663 0.566835 0
M  V30 4319 C 390.736 7.16264 -0.66016 0
M  V30 4320 C 392.762 5.91271 -0.123637 0
M  V30 4321 C 392.124 7.00601 -0.730608 0
M  V30 4322 H 388.223 0.692873 0.362562 0
M  V30 4323 H 390.807 1.92116 0.316135 0
M  V30 4324 H 388.978 2.82036 2.6704 0
M  V30 4325 H 390.71 3.06621 2.64132 0
M  V30 4326 H 387.465 4.55921 1.28191 0
M  V30 4327 H 387.889 6.76879 -0.127996 0
M  V30 4328 H 392.531 4.10267 1.02181 0
M  V30 4329 H 390.249 8.00204 -1.12691 0
M  V30 4330 H 393.835 5.81466 -0.197236 0
M  V30 4331 H 392.715 7.7407 -1.2564 0
M  V30 4332 N 390.218 -0.567019 1.47046 0
M  V30 4333 C 391.128 -1.70247 1.6141 0
M  V30 4334 C 392.144 -1.66746 0.497157 0
M  V30 4335 O 393.32 -1.86371 0.763389 0
M  V30 4336 C 390.385 -3.06756 1.61561 0
M  V30 4337 C 389.446 -3.21399 2.84607 0
M  V30 4338 C 388.679 -4.51396 2.84741 0
M  V30 4339 O 388.902 -5.36255 1.94388 0
M  V30 4340 O 387.836 -4.69621 3.76483 0
M  V30 4341 H 391.662 -1.61073 2.57467 0
M  V30 4342 H 389.247 -0.735894 1.30019 0
M  V30 4343 H 391.129 -3.8801 1.64396 0
M  V30 4344 H 389.804 -3.16333 0.686684 0
M  V30 4345 H 388.711 -2.39579 2.8732 0
M  V30 4346 H 390.044 -3.16721 3.76761 0
M  V30 4347 N 391.696 -1.35014 -0.812953 0
M  V30 4348 C 392.945 -1.27269 -1.56479 0
M  V30 4349 C 393.258 0.152771 -1.95002 0
M  V30 4350 O 394.464 0.352451 -2.69203 0
M  V30 4351 C 392.92 -2.23159 -2.82362 0
M  V30 4352 C 392.528 -3.71016 -2.511 0
M  V30 4353 C 394.272 -2.24342 -3.60376 0
M  V30 4354 C 392.179 -4.58746 -3.73237 0
M  V30 4355 H 391.109 -0.472829 -0.587324 0
M  V30 4356 H 393.76 -1.6024 -0.894171 0
M  V30 4357 H 392.142 -1.83151 -3.51101 0
M  V30 4358 H 393.316 -4.1962 -1.90409 0
M  V30 4359 H 391.631 -3.72378 -1.86343 0
M  V30 4360 H 394.228 -2.87107 -4.51081 0
M  V30 4361 H 394.571 -1.24542 -3.97234 0
M  V30 4362 H 395.104 -2.62846 -2.98591 0
M  V30 4363 H 391.843 -5.59521 -3.41492 0
M  V30 4364 H 391.363 -4.14871 -4.33176 0
M  V30 4365 H 393.042 -4.73852 -4.40537 0
M  V30 4366 N 393.175 1.03435 -1.18907 0
M  V30 4367 C 394.452 1.73778 -0.89781 0
M  V30 4368 C 394.832 2.02458 0.597832 0
M  V30 4369 O 394.18 1.67482 1.55441 0
M  V30 4370 C 394.39 3.01845 -1.75187 0
M  V30 4371 C 395.738 3.7546 -1.9828 0
M  V30 4372 O 396.762 3.11759 -1.72293 0
M  V30 4373 O 395.621 4.89966 -2.42065 0
M  V30 4374 H 392.715 0.75651 -0.334098 0
M  V30 4375 H 395.261 1.09444 -1.29693 0
M  V30 4376 H 394.033 2.76836 -2.76545 0
M  V30 4377 H 393.656 3.73919 -1.35167 0
M  V30 4378 N 394.653 0.992116 1.22453 0
M  V30 4379 C 396.064 0.702776 1.72968 0
M  V30 4380 C 396.415 -0.780399 1.80012 0
M  V30 4381 O 395.54 -1.61007 1.44589 0
M  V30 4382 C 396.135 1.26903 3.14135 0
M  V30 4383 C 394.694 1.02909 3.62059 0
M  V30 4384 C 393.841 1.38969 2.39964 0
M  V30 4385 H 396.792 1.16457 1.07812 0
M  V30 4386 H 396.813 0.647223 3.74955 0
M  V30 4387 H 396.325 2.34851 3.08977 0
M  V30 4388 H 394.426 -0.0337979 3.72585 0
M  V30 4389 H 394.539 1.69191 4.48231 0
M  V30 4390 H 392.903 0.808279 2.41535 0
M  V30 4391 H 393.686 2.4792 2.37467 0
M  V30 4392 N 396.131 -1.37776 0.765217 0
M  V30 4393 C 397.356 -2.04651 0.336537 0
M  V30 4394 C 397.781 -1.57337 -1.03086 0
M  V30 4395 O 397.139 -0.730621 -1.65927 0
M  V30 4396 C 397.187 -3.58577 0.381468 0
M  V30 4397 O 396.291 -4.07706 -0.62042 0
M  V30 4398 H 395.632 -0.64756 0.146838 0
M  V30 4399 H 398.162 -1.76221 1.03959 0
M  V30 4400 H 398.172 -4.07314 0.236448 0
M  V30 4401 H 396.847 -3.9237 1.37907 0
M  V30 4402 H 395.424 -3.70306 -0.439056 0
M  V30 4403 N 397.609 -0.515225 -1.4894 0
M  V30 4404 C 398.519 0.259774 -2.33157 0
M  V30 4405 C 399.535 0.953501 -1.45548 0
M  V30 4406 O 400.711 0.931735 -1.78552 0
M  V30 4407 C 397.776 1.30193 -3.21326 0
M  V30 4408 C 396.837 0.620129 -4.24797 0
M  V30 4409 C 396.07 1.61263 -5.08753 0
M  V30 4410 O 396.293 2.84389 -4.94448 0
M  V30 4411 O 395.227 1.16013 -5.90614 0
M  V30 4412 H 399.053 -0.429932 -3.00641 0
M  V30 4413 H 396.638 -0.276346 -1.46822 0
M  V30 4414 H 398.52 1.90455 -3.75905 0
M  V30 4415 H 397.195 1.97431 -2.56521 0
M  V30 4416 H 396.102 -0.0226019 -3.74093 0
M  V30 4417 H 397.435 -0.0100493 -4.92199 0
M  V30 4418 N 399.087 1.5561 -0.249682 0
M  V30 4419 C 400.017 2.24477 0.642826 0
M  V30 4420 C 400.998 1.22601 1.17911 0
M  V30 4421 O 402.183 1.5126 1.21795 0
M  V30 4422 C 399.313 2.94638 1.83863 0
M  V30 4423 C 398.267 4.03227 1.435 0
M  V30 4424 C 397.593 4.60828 2.71186 0
M  V30 4425 C 398.893 5.18796 0.604002 0
M  V30 4426 H 400.587 2.99321 0.0685625 0
M  V30 4427 H 398.133 1.43965 0.0315363 0
M  V30 4428 H 400.086 3.41517 2.46868 0
M  V30 4429 H 398.81 2.17287 2.43832 0
M  V30 4430 H 397.469 3.57121 0.828275 0
M  V30 4431 H 397.117 3.80174 3.29358 0
M  V30 4432 H 396.817 5.34132 2.44901 0
M  V30 4433 H 398.341 5.10442 3.35084 0
M  V30 4434 H 399.755 5.61883 1.13842 0
M  V30 4435 H 398.152 5.98506 0.437097 0
M  V30 4436 H 399.222 4.83384 -0.383147 0
M  V30 4437 N 400.565 -0.0233959 1.57583 0
M  V30 4438 C 401.528 -1.00693 2.05897 0
M  V30 4439 C 402.528 -1.28693 0.964092 0
M  V30 4440 O 403.718 -1.23602 1.22753 0
M  V30 4441 C 400.85 -2.33825 2.4807 0
M  V30 4442 H 402.043 -0.589476 2.9405 0
M  V30 4443 H 399.596 -0.270354 1.53944 0
M  V30 4444 H 400.331 -2.80307 1.6309 0
M  V30 4445 H 400.116 -2.1483 3.2801 0
M  V30 4446 H 401.606 -3.04426 2.85857 0
M  V30 4447 N 402.043 -1.548 -0.295768 0
M  V30 4448 C 403.29 -1.74329 -1.03032 0
M  V30 4449 C 403.618 -0.531915 -1.87085 0
M  V30 4450 O 402.873 0.486052 -1.89568 0
M  V30 4451 C 403.172 -2.98797 -1.961 0
M  V30 4452 C 402.838 -4.32356 -1.2798 0
M  V30 4453 C 401.5 -4.68661 -1.09135 0
M  V30 4454 C 403.852 -5.15128 -0.793243 0
M  V30 4455 C 401.18 -5.85312 -0.403269 0
M  V30 4456 C 403.532 -6.32488 -0.118854 0
M  V30 4457 C 402.196 -6.6745 0.0815043 0
M  V30 4458 H 401.466 -0.637916 -0.37702 0
M  V30 4459 H 404.113 -1.8906 -0.304696 0
M  V30 4460 H 402.418 -2.78869 -2.75207 0
M  V30 4461 H 404.115 -3.11102 -2.53015 0
M  V30 4462 H 400.705 -4.03808 -1.43655 0
M  V30 4463 H 404.889 -4.87575 -0.92653 0
M  V30 4464 H 400.145 -6.1094 -0.237098 0
M  V30 4465 H 404.319 -6.95892 0.266035 0
M  V30 4466 H 401.946 -7.57695 0.616685 0
M  V30 4467 N 403.521 0.559213 -1.47345 0
M  V30 4468 C 404.77 1.31281 -1.53128 0
M  V30 4469 C 405.083 1.94602 -0.197344 0
M  V30 4470 O 406.289 2.71173 -0.133154 0
M  V30 4471 C 404.745 2.38051 -2.69925 0
M  V30 4472 C 404.353 1.8093 -4.0984 0
M  V30 4473 C 406.097 3.14604 -2.84999 0
M  V30 4474 C 404.004 2.85468 -5.1794 0
M  V30 4475 H 402.934 0.493614 -0.569966 0
M  V30 4476 H 405.585 0.594155 -1.73615 0
M  V30 4477 H 403.967 3.12822 -2.42814 0
M  V30 4478 H 405.141 1.12544 -4.46845 0
M  V30 4479 H 403.456 1.16967 -3.99634 0
M  V30 4480 H 406.053 3.92666 -3.62929 0
M  V30 4481 H 406.396 3.68665 -1.93369 0
M  V30 4482 H 406.929 2.46945 -3.1187 0
M  V30 4483 H 403.668 2.36264 -6.1144 0
M  V30 4484 H 403.188 3.52269 -4.85455 0
M  V30 4485 H 404.867 3.48996 -5.44803 0
M  V30 4486 N 404.999 1.35443 0.805782 0
M  V30 4487 C 405.946 1.28431 1.91766 0
M  V30 4488 C 406.916 0.156102 1.65365 0
M  V30 4489 O 408.101 0.339936 1.87747 0
M  V30 4490 C 405.241 1.06301 3.2832 0
M  V30 4491 C 404.354 2.2805 3.66902 0
M  V30 4492 C 403.489 1.99064 4.92491 0
M  V30 4493 C 402.528 3.16863 5.23703 0
M  V30 4494 N 401.665 2.87647 6.40471 0
M  V30 4495 H 406.505 2.23511 1.97096 0
M  V30 4496 H 404.042 1.11105 0.964054 0
M  V30 4497 H 406 0.915012 4.07042 0
M  V30 4498 H 404.63 0.148822 3.22457 0
M  V30 4499 H 403.682 2.53711 2.83434 0
M  V30 4500 H 404.994 3.1601 3.85927 0
M  V30 4501 H 404.148 1.81099 5.7904 0
M  V30 4502 H 402.887 1.0839 4.75503 0
M  V30 4503 H 401.892 3.35404 4.35642 0
M  V30 4504 H 403.117 4.08339 5.4262 0
M  V30 4505 H 401.063 1.99568 6.24907 0
M  V30 4506 H 400.98 3.69141 6.59751 0
M  V30 4507 H 402.248 2.73226 7.30047 0
M  V30 4508 N 406.477 -1.02803 1.19454 0
M  V30 4509 C 407.387 -2.14575 0.948408 0
M  V30 4510 C 408.403 -1.73757 -0.091871 0
M  V30 4511 O 409.579 -2.01185 0.0929654 0
M  V30 4512 C 406.644 -3.43202 0.491265 0
M  V30 4513 C 405.705 -3.98328 1.60103 0
M  V30 4514 C 404.938 -5.20816 1.16561 0
M  V30 4515 O 405.161 -5.70392 0.0295238 0
M  V30 4516 O 404.095 -5.68801 1.96849 0
M  V30 4517 H 407.921 -2.38202 1.88397 0
M  V30 4518 H 405.506 -1.12989 0.977433 0
M  V30 4519 H 407.388 -4.20687 0.245015 0
M  V30 4520 H 406.063 -3.21018 -0.415851 0
M  V30 4521 H 404.97 -3.22174 1.90144 0
M  V30 4522 H 406.303 -4.24879 2.48473 0
M  V30 4523 N 407.956 -0.998596 -1.21925 0
M  V30 4524 C 409.205 -0.673085 -1.90138 0
M  V30 4525 C 409.518 0.79895 -1.78539 0
M  V30 4526 O 410.724 1.23628 -2.4172 0
M  V30 4527 C 409.18 -1.15339 -3.40918 0
M  V30 4528 C 408.788 -2.65106 -3.61141 0
M  V30 4529 C 410.532 -0.902476 -4.14796 0
M  V30 4530 C 408.439 -3.0671 -5.05651 0
M  V30 4531 H 407.369 -0.248057 -0.712028 0
M  V30 4532 H 410.02 -1.20891 -1.38049 0
M  V30 4533 H 408.402 -0.545658 -3.92223 0
M  V30 4534 H 409.576 -3.31274 -3.20304 0
M  V30 4535 H 407.891 -2.88142 -3.00605 0
M  V30 4536 H 410.488 -1.18895 -5.21314 0
M  V30 4537 H 410.831 0.161349 -4.15987 0
M  V30 4538 H 411.364 -1.47269 -3.69536 0
M  V30 4539 H 408.103 -4.12292 -5.09603 0
M  V30 4540 H 407.623 -2.45249 -5.47369 0
M  V30 4541 H 409.302 -2.9833 -5.74115 0
M  V30 4542 N 409.434 1.37368 -0.772513 0
M  V30 4543 C 410.682 1.99279 -0.336516 0
M  V30 4544 C 411.003 1.6163 1.09091 0
M  V30 4545 O 410.273 0.882109 1.74916 0
M  V30 4546 H 408.853 0.737063 -0.121435 0
M  V30 4547 H 411.515 1.67836 -0.990809 0
M  V30 4548 H 410.611 3.09332 -0.414763 0
M  V30 4549 N 410.912 0.523116 1.48665 0
M  V30 4550 C 412.137 -0.0117284 2.07397 0
M  V30 4551 C 412.562 -1.28031 1.37803 0
M  V30 4552 O 411.92 -1.75836 0.441762 0
M  V30 4553 C 411.968 -0.225786 3.59892 0
M  V30 4554 O 411.072 -1.29592 3.91509 0
M  V30 4555 H 410.413 0.0360673 0.66302 0
M  V30 4556 H 412.943 0.729066 1.9117 0
M  V30 4557 H 412.953 -0.450552 4.05505 0
M  V30 4558 H 411.628 0.700944 4.09951 0
M  V30 4559 H 410.205 -1.05436 3.57684 0
M  V30 4560 N 412.39 -1.55475 0.257931 0
M  V30 4561 C 413.638 -1.98813 -0.363009 0
M  V30 4562 C 413.959 -1.14757 -1.57657 0
M  V30 4563 O 413.229 -0.232956 -1.9451 0
M  V30 4564 H 411.809 -0.734308 -0.137113 0
M  V30 4565 H 414.471 -1.9156 0.359281 0
M  V30 4566 H 413.567 -3.04941 -0.664634 0
M  V30 4567 N 413.868 0.0150385 -1.57593 0
M  V30 4568 C 414.8 1.03912 -2.04291 0
M  V30 4569 C 415.813 1.31618 -0.958146 0
M  V30 4570 O 417.002 1.28859 -1.23522 0
M  V30 4571 C 414.102 2.37749 -2.41514 0
M  V30 4572 C 413.275 2.29198 -3.72541 0
M  V30 4573 C 412.334 3.45598 -3.96797 0
M  V30 4574 O 411.36 3.24461 -4.67668 0
M  V30 4575 N 412.562 4.67945 -3.43523 0
M  V30 4576 H 415.327 0.64099 -2.92765 0
M  V30 4577 H 412.888 0.20272 -1.60626 0
M  V30 4578 H 414.88 3.14364 -2.54867 0
M  V30 4579 H 413.45 2.69357 -1.58637 0
M  V30 4580 H 412.67 1.3759 -3.69408 0
M  V30 4581 H 413.958 2.20642 -4.5847 0
M  V30 4582 H 413.356 4.88017 -2.86104 0
M  V30 4583 H 411.913 5.41878 -3.62232 0
M  V30 4584 N 415.346 1.54954 0.287554 0
M  V30 4585 C 416.593 1.74873 1.02106 0
M  V30 4586 C 416.921 0.541829 1.86801 0
M  V30 4587 O 416.176 -0.475992 1.89823 0
M  V30 4588 C 416.475 2.99833 1.94512 0
M  V30 4589 C 416.141 4.33029 1.25686 0
M  V30 4590 C 414.803 4.69233 1.06649 0
M  V30 4591 C 417.155 5.15542 0.765913 0
M  V30 4592 C 414.483 5.85518 0.372222 0
M  V30 4593 C 416.835 6.32542 0.0853101 0
M  V30 4594 C 415.499 6.67398 -0.1169 0
M  V30 4595 H 414.769 0.639906 0.373632 0
M  V30 4596 H 417.416 1.89219 0.294665 0
M  V30 4597 H 415.721 2.80325 2.73725 0
M  V30 4598 H 417.418 3.1244 2.51361 0
M  V30 4599 H 414.008 4.04564 1.41512 0
M  V30 4600 H 418.192 4.88059 0.90066 0
M  V30 4601 H 413.448 6.11057 0.204695 0
M  V30 4602 H 417.622 6.95741 -0.302936 0
M  V30 4603 H 415.249 7.57357 -0.656859 0
M  V30 4604 N 416.824 -0.551391 1.4764 0
M  V30 4605 C 418.072 -1.30572 1.54258 0
M  V30 4606 C 418.393 -1.93877 0.208963 0
M  V30 4607 O 417.663 -1.80234 -0.767619 0
M  V30 4608 H 416.243 -0.484894 0.568231 0
M  V30 4609 H 418.905 -0.643402 1.83974 0
M  V30 4610 H 418.001 -2.09621 2.31226 0
M  V30 4611 N 418.302 -1.35869 -0.798587 0
M  V30 4612 C 419.548 -1.2978 -1.55836 0
M  V30 4613 C 419.881 0.125322 -1.93795 0
M  V30 4614 O 419.156 1.07658 -1.61987 0
M  V30 4615 C 419.439 -2.21188 -2.84162 0
M  V30 4616 C 419.292 -3.72155 -2.52628 0
M  V30 4617 C 420.611 -2.11545 -3.85923 0
M  V30 4618 H 417.73 -0.472769 -0.565383 0
M  V30 4619 H 420.372 -1.66341 -0.918192 0
M  V30 4620 H 418.522 -1.90139 -3.38791 0
M  V30 4621 H 420.194 -4.13682 -2.04121 0
M  V30 4622 H 418.437 -3.92042 -1.85704 0
M  V30 4623 H 419.108 -4.31511 -3.44242 0
M  V30 4624 H 421.584 -2.38855 -3.40716 0
M  V30 4625 H 420.46 -2.77688 -4.73477 0
M  V30 4626 H 420.721 -1.09987 -4.282 0
M  V30 4627 N 419.78 1.02168 -1.19998 0
M  V30 4628 C 421.026 1.75945 -1.00852 0
M  V30 4629 C 421.359 1.88702 0.458828 0
M  V30 4630 O 420.634 1.40911 1.34069 0
M  V30 4631 C 420.917 3.18154 -1.68671 0
M  V30 4632 C 420.77 3.13224 -3.22817 0
M  V30 4633 C 422.089 4.16711 -1.41561 0
M  V30 4634 H 419.208 0.638673 -0.367785 0
M  V30 4635 H 421.85 1.19222 -1.4794 0
M  V30 4636 H 420 3.66586 -1.28636 0
M  V30 4637 H 421.672 2.72635 -3.72112 0
M  V30 4638 H 419.915 2.50751 -3.53986 0
M  V30 4639 H 420.586 4.13728 -3.65422 0
M  V30 4640 H 423.062 3.76913 -1.76284 0
M  V30 4641 H 421.938 5.14391 -1.91553 0
M  V30 4642 H 422.199 4.40774 -0.342193 0
M  V30 4643 N 421.258 1.00505 1.21394 0
M  V30 4644 C 422.208 0.536503 2.21598 0
M  V30 4645 C 423.192 -0.401914 1.55799 0
M  V30 4646 O 424.384 -0.226757 1.75541 0
M  V30 4647 C 421.513 -0.135446 3.43033 0
M  V30 4648 C 420.599 0.823992 4.16018 0
M  V30 4649 N 420.99 1.97683 4.6557 0
M  V30 4650 C 419.288 0.642387 4.4135 0
M  V30 4651 C 419.989 2.58003 5.21354 0
M  V30 4652 N 418.965 1.86162 5.1073 0
M  V30 4653 H 422.767 1.41557 2.57563 0
M  V30 4654 H 420.281 0.868878 1.37202 0
M  V30 4655 H 422.278 -0.488584 4.14027 0
M  V30 4656 H 420.938 -1.01049 3.08576 0
M  V30 4657 H 421.949 2.3572 4.61147 0
M  V30 4658 H 418.626 -0.185578 4.17087 0
M  V30 4659 H 420.016 3.555 5.70149 0
M  V30 4660 N 422.737 -1.36956 0.779787 0
M  V30 4661 C 423.667 -2.32761 0.185651 0
M  V30 4662 C 424.648 -1.56177 -0.673989 0
M  V30 4663 O 425.833 -1.84378 -0.609797 0
M  V30 4664 C 422.963 -3.40418 -0.687964 0
M  V30 4665 C 421.917 -4.27941 0.0710102 0
M  V30 4666 C 421.243 -5.26681 -0.922573 0
M  V30 4667 C 422.543 -5.07006 1.25467 0
M  V30 4668 H 424.237 -2.82698 0.986008 0
M  V30 4669 H 421.783 -1.3592 0.475592 0
M  V30 4670 H 423.736 -4.06423 -1.11348 0
M  V30 4671 H 422.46 -2.89025 -1.52093 0
M  V30 4672 H 421.119 -3.63478 0.47739 0
M  V30 4673 H 420.767 -4.71565 -1.7503 0
M  V30 4674 H 420.467 -5.86103 -0.419237 0
M  V30 4675 H 421.991 -5.9556 -1.34686 0
M  V30 4676 H 423.405 -5.66105 0.905401 0
M  V30 4677 H 421.802 -5.75793 1.69063 0
M  V30 4678 H 422.872 -4.3921 2.05481 0
M  V30 4679 N 424.215 -0.530993 -1.48385 0
M  V30 4680 C 425.463 0.00273189 -2.021 0
M  V30 4681 C 425.784 1.34672 -1.41027 0
M  V30 4682 O 425.054 1.8724 -0.576012 0
M  V30 4683 H 423.634 0.00399774 -0.746989 0
M  V30 4684 H 426.296 -0.695054 -1.82085 0
M  V30 4685 H 425.392 0.11031 -3.11905 0
M  V30 4686 N 425.693 1.55336 -0.266172 0
M  V30 4687 C 426.603 2.2583 0.635458 0
M  V30 4688 C 427.619 1.28106 1.17749 0
M  V30 4689 O 428.795 1.61024 1.20968 0
M  V30 4690 C 425.86 2.95879 1.80712 0
M  V30 4691 C 424.921 4.09059 1.30265 0
M  V30 4692 C 424.154 4.75759 2.41846 0
M  V30 4693 O 424.377 4.41622 3.61007 0
M  V30 4694 O 423.311 5.63888 2.1051 0
M  V30 4695 H 427.137 3.03631 0.0646693 0
M  V30 4696 H 424.722 1.49361 -0.0339177 0
M  V30 4697 H 426.604 3.39932 2.49047 0
M  V30 4698 H 425.279 2.21002 2.36516 0
M  V30 4699 H 424.186 3.69482 0.586019 0
M  V30 4700 H 425.519 4.85811 0.790458 0
M  V30 4701 N 427.171 -0.0066808 1.57599 0
M  V30 4702 C 428.417 -0.68835 1.91398 0
M  V30 4703 C 428.772 -1.7175 0.86716 0
M  V30 4704 O 428.065 -1.91215 -0.121475 0
M  V30 4705 C 428.259 -1.37939 3.29708 0
M  V30 4706 C 428.088 -0.418689 4.47747 0
M  V30 4707 C 426.858 -0.031526 5.0529 0
M  V30 4708 C 429.056 0.312301 5.13351 0
M  V30 4709 N 427.038 0.928088 6.06844 0
M  V30 4710 C 428.409 1.12682 6.09674 0
M  V30 4711 C 430.464 0.376853 4.96472 0
M  V30 4712 C 429.167 2 6.90936 0
M  V30 4713 C 431.193 1.23723 5.78314 0
M  V30 4714 C 430.555 2.03962 6.74225 0
M  V30 4715 H 426.654 -0.225292 0.748844 0
M  V30 4716 H 429.238 0.0520973 1.9463 0
M  V30 4717 H 427.409 -2.09017 3.27363 0
M  V30 4718 H 429.141 -2.01522 3.50957 0
M  V30 4719 H 425.896 -0.398485 4.71921 0
M  V30 4720 H 426.32 1.40307 6.62301 0
M  V30 4721 H 430.962 -0.22921 4.22178 0
M  V30 4722 H 428.68 2.61676 7.64559 0
M  V30 4723 H 432.266 1.291 5.67296 0
M  V30 4724 H 431.146 2.69461 7.36451 0
M  V30 4725 N 428.649 -1.55105 -0.279332 0
M  V30 4726 C 430.065 -1.46803 -0.626187 0
M  V30 4727 C 430.265 -0.676939 -1.89789 0
M  V30 4728 O 429.321 -0.19326 -2.51759 0
M  V30 4729 C 430.634 -2.90962 -0.759034 0
M  V30 4730 C 432.182 -3.01138 -0.853504 0
M  V30 4731 C 432.657 -4.46539 -1.01818 0
M  V30 4732 N 434.148 -4.50341 -1.08386 0
M  V30 4733 C 434.883 -5.60053 -1.22996 0
M  V30 4734 N 434.379 -6.79645 -1.34366 0
M  V30 4735 N 436.172 -5.47783 -1.26056 0
M  V30 4736 H 428.323 -2.04996 0.555921 0
M  V30 4737 H 430.586 -0.929325 0.187239 0
M  V30 4738 H 430.292 -3.51544 0.104852 0
M  V30 4739 H 430.166 -3.39619 -1.64131 0
M  V30 4740 H 432.553 -2.40658 -1.70786 0
M  V30 4741 H 432.634 -2.55745 0.0532466 0
M  V30 4742 H 432.278 -5.0762 -0.168504 0
M  V30 4743 H 432.208 -4.89583 -1.93948 0
M  V30 4744 H 434.699 -3.64191 -1.00864 0
M  V30 4745 H 435.012 -7.59012 -1.4533 0
M  V30 4746 H 433.357 -6.82469 -1.31382 0
M  V30 4747 H 436.548 -4.53294 -1.168 0
M  V30 4748 H 436.721 -6.33331 -1.37098 0
M  V30 4749 N 430.127 0.543554 -1.4793 0
M  V30 4750 C 431.352 1.32995 -1.59145 0
M  V30 4751 C 431.777 1.86472 -0.246956 0
M  V30 4752 O 431.135 1.63696 0.779324 0
M  V30 4753 C 431.183 2.46623 -2.63077 0
M  V30 4754 O 430.287 3.49261 -2.19295 0
M  V30 4755 H 429.628 0.394472 -0.534124 0
M  V30 4756 H 432.158 0.655489 -1.93816 0
M  V30 4757 H 432.168 2.93001 -2.83926 0
M  V30 4758 H 430.843 2.07059 -3.60693 0
M  V30 4759 H 429.42 3.09094 -2.08603 0
M  V30 4760 N 431.605 1.3629 0.791371 0
M  V30 4761 C 432.555 1.26988 1.89362 0
M  V30 4762 C 433.539 0.161795 1.60084 0
M  V30 4763 O 434.731 0.394426 1.72549 0
M  V30 4764 C 431.86 1.05944 3.26544 0
M  V30 4765 C 430.946 2.21211 3.61838 0
M  V30 4766 N 431.337 3.46518 3.68455 0
M  V30 4767 C 429.635 2.12933 3.91887 0
M  V30 4768 C 430.336 4.2241 3.99931 0
M  V30 4769 N 429.312 3.51329 4.14812 0
M  V30 4770 H 433.114 2.21908 1.92702 0
M  V30 4771 H 430.628 1.28982 0.986787 0
M  V30 4772 H 432.625 0.973666 4.05371 0
M  V30 4773 H 431.285 0.119223 3.24481 0
M  V30 4774 H 432.296 3.80677 3.51148 0
M  V30 4775 H 428.973 1.26855 3.97761 0
M  V30 4776 H 430.363 5.30767 4.1199 0
M  V30 4777 N 433.083 -1.0153 1.20538 0
M  V30 4778 C 434.332 -1.74558 1.01057 0
M  V30 4779 C 434.645 -1.90168 -0.457756 0
M  V30 4780 O 435.851 -2.60301 -0.771722 0
M  V30 4781 C 434.307 -3.13963 1.75941 0
M  V30 4782 C 433.915 -3.06361 3.26875 0
M  V30 4783 C 435.659 -3.91191 1.64832 0
M  V30 4784 C 433.566 -4.40782 3.94291 0
M  V30 4785 H 432.496 -0.654417 0.374505 0
M  V30 4786 H 435.147 -1.13521 1.44171 0
M  V30 4787 H 433.529 -3.75549 1.25614 0
M  V30 4788 H 434.703 -2.54074 3.84425 0
M  V30 4789 H 433.018 -2.42625 3.38411 0
M  V30 4790 H 435.615 -4.90644 2.12539 0
M  V30 4791 H 435.958 -4.11884 0.604745 0
M  V30 4792 H 436.491 -3.36236 2.12579 0
M  V30 4793 H 433.23 -4.25292 4.98805 0
M  V30 4794 H 432.75 -4.9307 3.41529 0
M  V30 4795 H 434.429 -5.09621 3.98617 0
M  V30 4796 N 434.561 -1.01147 -1.20859 0
M  V30 4797 C 435.493 -0.535546 -2.22855 0
M  V30 4798 C 436.506 0.379323 -1.58319 0
M  V30 4799 O 437.695 0.178489 -1.77605 0
M  V30 4800 C 434.795 0.240962 -3.38042 0
M  V30 4801 C 433.968 -0.674562 -4.32167 0
M  V30 4802 C 433.027 0.053467 -5.26173 0
M  V30 4803 O 432.053 -0.567339 -5.66366 0
M  V30 4804 N 433.255 1.32997 -5.65059 0
M  V30 4805 H 436.02 -1.41268 -2.64317 0
M  V30 4806 H 433.581 -0.888386 -1.35349 0
M  V30 4807 H 435.573 0.737115 -3.97931 0
M  V30 4808 H 434.143 1.01935 -2.95513 0
M  V30 4809 H 433.363 -1.35111 -3.70322 0
M  V30 4810 H 434.651 -1.2974 -4.91981 0
M  V30 4811 H 434.049 1.85536 -5.34409 0
M  V30 4812 H 432.606 1.77095 -6.2728 0
M  V30 4813 N 436.039 1.36541 -0.78704 0
M  V30 4814 C 437.285 1.99599 -0.358872 0
M  V30 4815 C 437.618 1.62323 1.06606 0
M  V30 4816 O 436.893 0.876858 1.73613 0
M  V30 4817 C 437.176 3.56327 -0.519944 0
M  V30 4818 C 437.029 4.03464 -1.98839 0
M  V30 4819 C 438.348 4.4005 0.0664737 0
M  V30 4820 H 435.467 0.725107 -0.131869 0
M  V30 4821 H 438.109 1.6199 -0.992936 0
M  V30 4822 H 436.259 3.88495 0.0198321 0
M  V30 4823 H 437.931 3.81793 -2.58905 0
M  V30 4824 H 436.174 3.55092 -2.49183 0
M  V30 4825 H 436.845 5.12439 -2.05207 0
M  V30 4826 H 439.321 4.14228 -0.394267 0
M  V30 4827 H 438.197 5.48847 -0.0762682 0
M  V30 4828 H 438.458 4.26655 1.15835 0
M  V30 4829 N 437.518 0.538854 1.48102 0
M  V30 4830 C 438.481 -0.208395 2.28251 0
M  V30 4831 C 439.481 -0.859656 1.35892 0
M  V30 4832 O 440.671 -0.71834 1.58699 0
M  V30 4833 C 437.803 -1.30252 3.15035 0
M  V30 4834 H 438.996 0.495407 2.9578 0
M  V30 4835 H 436.549 0.295112 1.53489 0
M  V30 4836 H 437.284 -2.0393 2.52157 0
M  V30 4837 H 437.069 -0.840551 3.82985 0
M  V30 4838 H 438.559 -1.82787 3.75471 0
M  V30 4839 N 438.996 -1.55193 0.274407 0
M  V30 4840 C 440.245 -1.98758 -0.343213 0
M  V30 4841 C 440.558 -1.16624 -1.5703 0
M  V30 4842 O 441.764 -1.5033 -2.26082 0
M  V30 4843 C 440.22 -3.53759 -0.661996 0
M  V30 4844 C 439.828 -4.4467 0.54524 0
M  V30 4845 C 441.572 -4.05916 -1.24228 0
M  V30 4846 C 439.479 -5.91058 0.201084 0
M  V30 4847 H 438.409 -0.742353 -0.132014 0
M  V30 4848 H 441.06 -1.79545 0.378948 0
M  V30 4849 H 439.442 -3.68772 -1.44304 0
M  V30 4850 H 440.616 -4.41426 1.32212 0
M  V30 4851 H 438.931 -4.03143 1.04232 0
M  V30 4852 H 441.528 -5.12831 -1.51357 0
M  V30 4853 H 441.871 -3.54908 -2.17592 0
M  V30 4854 H 442.404 -3.9434 -0.523542 0
M  V30 4855 H 439.143 -6.46161 1.10258 0
M  V30 4856 H 438.663 -5.97373 -0.539045 0
M  V30 4857 H 440.342 -6.46669 -0.206954 0
M  V30 4858 N 440.474 -0.00167713 -1.576 0
M  V30 4859 C 441.421 0.989195 -2.08527 0
M  V30 4860 C 442.391 1.34031 -0.981065 0
M  V30 4861 O 443.576 1.43839 -1.2536 0
M  V30 4862 C 440.716 2.27537 -2.59463 0
M  V30 4863 C 439.829 1.98314 -3.83791 0
M  V30 4864 C 438.964 3.21025 -4.23222 0
M  V30 4865 C 438.003 2.87495 -5.40382 0
M  V30 4866 N 437.14 4.02749 -5.75098 0
M  V30 4867 H 441.98 0.547973 -2.92919 0
M  V30 4868 H 439.517 0.258917 -1.44803 0
M  V30 4869 H 441.475 3.02729 -2.87073 0
M  V30 4870 H 440.105 2.69325 -1.77943 0
M  V30 4871 H 439.157 1.13482 -3.63078 0
M  V30 4872 H 440.469 1.69601 -4.69081 0
M  V30 4873 H 439.623 4.04561 -4.52123 0
M  V30 4874 H 438.362 3.52877 -3.36644 0
M  V30 4875 H 437.367 2.02367 -5.11202 0
M  V30 4876 H 438.592 2.56889 -6.28637 0
M  V30 4877 H 436.538 4.34494 -4.91478 0
M  V30 4878 H 436.455 3.77566 -6.54966 0
M  V30 4879 H 437.723 4.87068 -6.08592 0
M  V30 4880 N 441.952 1.55251 0.271103 0
M  V30 4881 C 442.915 1.87484 1.31842 0
M  V30 4882 C 443.915 0.749545 1.42262 0
M  V30 4883 O 445.105 1.01771 1.4138 0
M  V30 4884 C 442.237 2.0818 2.69951 0
M  V30 4885 H 443.43 2.81108 1.0449 0
M  V30 4886 H 440.983 1.47771 0.509258 0
M  V30 4887 H 441.718 1.16944 3.02481 0
M  V30 4888 H 441.503 2.90114 2.63774 0
M  V30 4889 H 442.993 2.34385 3.4562 0
M  V30 4890 N 443.43 -0.535701 1.48216 0
M  V30 4891 C 444.679 -1.28828 1.55197 0
M  V30 4892 C 444.992 -1.94263 0.228278 0
M  V30 4893 O 446.198 -2.70927 0.176278 0
M  V30 4894 C 444.654 -2.33727 2.73678 0
M  V30 4895 C 444.262 -1.74386 4.12666 0
M  V30 4896 C 446.006 -3.1003 2.89968 0
M  V30 4897 C 443.913 -2.77192 5.22416 0
M  V30 4898 H 442.843 -0.484484 0.577747 0
M  V30 4899 H 445.494 -0.56646 1.74538 0
M  V30 4900 H 443.876 -3.08919 2.4776 0
M  V30 4901 H 445.05 -1.05421 4.48579 0
M  V30 4902 H 443.365 -1.10595 4.01445 0
M  V30 4903 H 445.962 -3.86842 3.6913 0
M  V30 4904 H 446.305 -3.65542 1.9921 0
M  V30 4905 H 446.838 -2.41952 3.15759 0
M  V30 4906 H 443.577 -2.26507 6.15122 0
M  V30 4907 H 443.097 -3.44502 4.90998 0
M  V30 4908 H 444.776 -3.40285 5.50286 0
M  V30 4909 N 444.908 -1.36708 -0.784132 0
M  V30 4910 C 445.856 -1.31533 -1.91838 0
M  V30 4911 C 446.85 -0.206205 -1.6814 0
M  V30 4912 O 448.056 -0.373519 -1.76082 0
M  V30 4913 H 444.431 -0.409613 -0.630651 0
M  V30 4914 H 446.402 -2.2731 -1.9332 0
M  V30 4915 C 445.151 -1.12679 -3.28936 0
M  V30 4916 H 444.474 -1.97274 -3.4774 0
M  V30 4917 H 445.914 -1.13106 -4.08636 0
M  V30 4918 C 444.373 0.168281 -3.36479 0
M  V30 4919 O 444.903 1.15625 -3.84699 0
M  V30 4920 N 443.109 0.214762 -2.89805 0
M  V30 4921 H 442.656 -0.589852 -2.50756 0
M  V30 4922 H 442.614 1.08094 -2.95234 0
M  V30 4923 N 446.386 1.0089 -1.21074 0
M  V30 4924 C 447.296 2.13039 -0.982425 0
M  V30 4925 C 448.312 1.73881 0.0642161 0
M  V30 4926 O 449.488 2.01012 -0.12496 0
M  V30 4927 C 446.553 3.42377 -0.545803 0
M  V30 4928 C 445.614 3.95731 -1.6642 0
M  V30 4929 C 444.847 5.18896 -1.24832 0
M  V30 4930 O 445.07 5.70273 -0.120265 0
M  V30 4931 O 444.004 5.65597 -2.05873 0
M  V30 4932 H 447.83 2.35175 -1.92163 0
M  V30 4933 H 445.415 1.1142 -0.995285 0
M  V30 4934 H 447.297 4.20244 -0.311912 0
M  V30 4935 H 445.972 3.21639 0.364727 0
M  V30 4936 H 444.879 3.19108 -1.95246 0
M  V30 4937 H 446.212 4.20872 -2.55201 0
M  V30 4938 N 447.864 1.01787 1.20321 0
M  V30 4939 C 449.112 0.706538 1.89347 0
M  V30 4940 C 449.433 -0.766289 1.79313 0
M  V30 4941 O 448.703 -1.55126 1.19635 0
M  V30 4942 H 447.283 0.258348 0.700903 0
M  V30 4943 H 449.945 1.28974 1.46122 0
M  V30 4944 H 449.041 0.991066 2.95946 0
M  V30 4945 N 449.342 -1.36122 0.79427 0
M  V30 4946 C 450.567 -2.03891 0.379871 0
M  V30 4947 C 450.992 -1.59488 -0.997251 0
M  V30 4948 O 450.35 -0.765652 -1.64339 0
M  V30 4949 C 450.398 -3.57687 0.457442 0
M  V30 4950 O 449.502 -4.08931 -0.5338 0
M  V30 4951 H 448.843 -0.6443 0.160541 0
M  V30 4952 H 451.373 -1.73976 1.07673 0
M  V30 4953 H 451.383 -4.06721 0.322792 0
M  V30 4954 H 450.058 -3.89357 1.46199 0
M  V30 4955 H 448.635 -3.71154 -0.360409 0
M  V30 4956 N 450.82 -0.546701 -1.47814 0
M  V30 4957 C 451.753 0.254472 -2.26777 0
M  V30 4958 C 452.731 0.929809 -1.33392 0
M  V30 4959 O 453.915 0.950889 -1.62759 0
M  V30 4960 C 451.042 1.36171 -3.10121 0
M  V30 4961 C 450.088 0.796038 -4.19005 0
M  V30 4962 S 450.921 -0.349191 -5.3436 0
M  V30 4963 C 452.077 0.760122 -6.21267 0
M  V30 4964 H 452.31 -0.415612 -2.94381 0
M  V30 4965 H 449.843 -0.332809 -1.5077 0
M  V30 4966 H 451.801 1.99588 -3.58713 0
M  V30 4967 H 450.462 2.00359 -2.41899 0
M  V30 4968 H 449.655 1.62719 -4.7701 0
M  V30 4969 H 449.257 0.238246 -3.7324 0
M  V30 4970 H 451.549 1.65479 -6.5698 0
M  V30 4971 H 452.492 0.217673 -7.07765 0
M  V30 4972 H 452.9 1.04806 -5.54685 0
M  V30 4973 N 452.299 1.55045 -0.282633 0
M  V30 4974 C 453.524 2.04628 0.337977 0
M  V30 4975 C 453.949 1.15937 1.48123 0
M  V30 4976 O 453.307 0.159532 1.80597 0
M  V30 4977 C 453.355 3.51854 0.78936 0
M  V30 4978 O 452.459 3.66236 1.89592 0
M  V30 4979 H 451.8 0.660434 0.0687261 0
M  V30 4980 H 454.33 2.00261 -0.419124 0
M  V30 4981 H 454.34 3.93361 1.08311 0
M  V30 4982 H 453.015 4.15873 -0.0470419 0
M  V30 4983 H 451.592 3.36633 1.60413 0
M  V30 4984 N 453.777 0.010035 1.57597 0
M  V30 4985 C 454.687 -0.994226 2.12491 0
M  V30 4986 C 455.703 -1.37013 1.07254 0
M  V30 4987 O 456.879 -1.45542 1.3921 0
M  V30 4988 C 453.944 -2.2642 2.62555 0
M  V30 4989 C 453.005 -1.95049 3.82432 0
M  V30 4990 C 452.238 -3.15991 4.30099 0
M  V30 4991 O 452.461 -4.28015 3.7704 0
M  V30 4992 O 451.395 -2.99403 5.22151 0
M  V30 4993 H 455.221 -0.557549 2.98538 0
M  V30 4994 H 452.806 -0.209413 1.47925 0
M  V30 4995 H 454.688 -3.01009 2.9491 0
M  V30 4996 H 453.363 -2.69306 1.796 0
M  V30 4997 H 452.27 -1.17904 3.55034 0
M  V30 4998 H 453.603 -1.56992 4.66491 0
M  V30 4999 N 455.255 -1.55392 -0.262866 0
M  V30 5000 C 456.165 -1.92077 -1.34698 0
M  V30 5001 C 457.181 -0.819227 -1.53508 0
M  V30 5002 O 458.357 -1.11921 -1.67439 0
M  V30 5003 C 455.422 -2.19407 -2.68443 0
M  V30 5004 C 454.483 -3.42905 -2.58292 0
M  V30 5005 C 453.716 -3.68921 -3.85659 0
M  V30 5006 O 453.939 -2.97275 -4.8681 0
M  V30 5007 O 452.873 -4.62455 -3.85252 0
M  V30 5008 H 456.699 -2.84384 -1.06581 0
M  V30 5009 H 454.284 -1.42069 -0.462264 0
M  V30 5010 H 456.166 -2.38365 -3.47506 0
M  V30 5011 H 454.841 -1.30282 -2.96325 0
M  V30 5012 H 453.748 -3.29272 -1.7757 0
M  V30 5013 H 455.081 -4.32282 -2.35358 0
M  V30 5014 N 456.733 0.527833 -1.48498 0
M  V30 5015 C 458.01 1.28905 -1.47115 0
M  V30 5016 C 458.39 2.10297 -0.184007 0
M  V30 5017 O 457.738 2.12728 0.834218 0
M  V30 5018 C 457.948 2.16866 -2.73441 0
M  V30 5019 C 459.296 2.76936 -3.21857 0
M  V30 5020 O 460.32 2.27152 -2.74373 0
M  V30 5021 O 459.179 3.67496 -4.04486 0
M  V30 5022 H 456.273 0.581918 -0.587623 0
M  V30 5023 H 458.819 0.544311 -1.60734 0
M  V30 5024 H 457.591 1.56521 -3.58632 0
M  V30 5025 H 457.214 2.98583 -2.62553 0
M  V30 5026 N 458.211 1.37122 0.776871 0
M  V30 5027 C 459.458 1.32047 1.53524 0
M  V30 5028 C 459.786 -0.0965631 1.9426 0
M  V30 5029 O 459.041 -1.06866 1.63945 0
M  V30 5030 C 459.34 2.20068 2.81611 0
M  V30 5031 C 459.006 3.68423 2.59953 0
M  V30 5032 C 457.668 4.08854 2.53755 0
M  V30 5033 C 460.02 4.62431 2.40431 0
M  V30 5034 C 457.348 5.41417 2.26018 0
M  V30 5035 C 459.7 5.95225 2.14219 0
M  V30 5036 C 458.364 6.34767 2.06462 0
M  V30 5037 H 457.634 0.483196 0.561785 0
M  V30 5038 H 460.281 1.69284 0.895268 0
M  V30 5039 H 458.586 1.75809 3.50141 0
M  V30 5040 H 460.283 2.13458 3.39465 0
M  V30 5041 H 456.873 3.36354 2.65638 0
M  V30 5042 H 461.057 4.32057 2.44213 0
M  V30 5043 H 456.313 5.71022 2.18504 0
M  V30 5044 H 460.487 6.67626 1.98112 0
M  V30 5045 H 458.114 7.37413 1.84733 0
M  V30 5046 N 459.689 -1.00246 1.21608 0
M  V30 5047 C 460.938 -1.73476 1.02902 0
M  V30 5048 C 461.251 -1.90643 -0.437561 0
M  V30 5049 O 462.457 -2.61105 -0.74407 0
M  V30 5050 C 460.913 -3.12079 1.79261 0
M  V30 5051 C 460.521 -3.02877 3.30106 0
M  V30 5052 C 462.265 -3.89421 1.68972 0
M  V30 5053 C 460.172 -4.36575 3.98944 0
M  V30 5054 H 459.102 -0.650408 0.381425 0
M  V30 5055 H 461.753 -1.11985 1.45367 0
M  V30 5056 H 460.135 -3.74196 1.2959 0
M  V30 5057 H 461.309 -2.49983 3.87098 0
M  V30 5058 H 459.624 -2.39022 3.40965 0
M  V30 5059 H 462.221 -4.88362 2.17731 0
M  V30 5060 H 462.564 -4.1122 0.648397 0
M  V30 5061 H 463.097 -3.33963 2.16133 0
M  V30 5062 H 459.836 -4.19978 5.03288 0
M  V30 5063 H 459.356 -4.8942 3.4674 0
M  V30 5064 H 461.035 -5.05364 4.04 0
M  V30 5065 N 461.167 -1.02423 -1.1978 0
M  V30 5066 C 462.077 -0.610919 -2.26506 0
M  V30 5067 C 463.093 0.355152 -1.70337 0
M  V30 5068 O 464.269 0.214195 -2.00258 0
M  V30 5069 C 461.334 0.0365921 -3.46681 0
M  V30 5070 C 460.395 -0.976389 -4.18049 0
M  V30 5071 C 459.628 -0.359683 -5.32487 0
M  V30 5072 O 459.851 0.838601 -5.64202 0
M  V30 5073 O 458.785 -1.08022 -5.92127 0
M  V30 5074 H 462.611 -1.49965 -2.64091 0
M  V30 5075 H 460.196 -0.794156 -1.26545 0
M  V30 5076 H 462.078 0.39786 -4.19518 0
M  V30 5077 H 460.753 0.899398 -3.10954 0
M  V30 5078 H 459.66 -1.38916 -3.47352 0
M  V30 5079 H 460.993 -1.80941 -4.57735 0
M  V30 5080 N 462.645 1.35699 -0.801477 0
M  V30 5081 C 463.555 2.33661 -0.209691 0
M  V30 5082 C 464.571 1.6162 0.644591 0
M  V30 5083 O 465.747 1.93529 0.557545 0
M  V30 5084 C 462.812 3.40816 0.636033 0
M  V30 5085 C 461.873 4.28639 -0.238147 0
M  V30 5086 C 461.106 5.30676 0.567307 0
M  V30 5087 O 461.329 5.41174 1.8024 0
M  V30 5088 O 460.263 6.01887 -0.0391336 0
M  V30 5089 H 464.089 2.8606 -1.01996 0
M  V30 5090 H 461.674 1.38379 -0.563164 0
M  V30 5091 H 463.556 4.06301 1.11791 0
M  V30 5092 H 462.231 2.90696 1.42399 0
M  V30 5093 H 461.138 3.66152 -0.767044 0
M  V30 5094 H 462.471 4.82143 -0.989915 0
M  V30 5095 N 464.123 0.554532 1.47522 0
M  V30 5096 C 465.086 -0.184174 2.28459 0
M  V30 5097 C 466.086 -0.845195 1.36796 0
M  V30 5098 O 467.276 -0.701467 1.59452 0
M  V30 5099 C 464.408 -1.26903 3.16399 0
M  V30 5100 H 465.601 0.526751 2.95238 0
M  V30 5101 H 463.154 0.311375 1.53167 0
M  V30 5102 H 463.889 -2.01244 2.54306 0
M  V30 5103 H 463.674 -0.799883 3.83854 0
M  V30 5104 H 465.164 -1.78794 3.77389 0
M  V30 5105 N 465.601 -1.54893 0.290851 0
M  V30 5106 C 466.548 -2.23138 -0.58974 0
M  V30 5107 C 467.518 -1.21036 -1.13752 0
M  V30 5108 O 468.703 -1.49626 -1.18392 0
M  V30 5109 C 465.843 -2.96811 -1.76061 0
M  V30 5110 C 464.956 -4.13665 -1.24519 0
M  V30 5111 C 464.091 -4.74944 -2.3791 0
M  V30 5112 C 463.13 -5.83963 -1.83451 0
M  V30 5113 N 462.267 -6.39239 -2.90376 0
M  V30 5114 H 467.107 -2.98 -0.00114915 0
M  V30 5115 H 464.644 -1.47096 0.0112006 0
M  V30 5116 H 466.602 -3.37751 -2.44909 0
M  V30 5117 H 465.232 -2.24344 -2.32098 0
M  V30 5118 H 464.284 -3.77737 -0.449288 0
M  V30 5119 H 465.596 -4.92238 -0.806424 0
M  V30 5120 H 464.75 -5.18684 -3.14724 0
M  V30 5121 H 463.489 -3.95682 -2.85109 0
M  V30 5122 H 462.494 -5.39657 -1.05122 0
M  V30 5123 H 463.719 -6.65103 -1.37169 0
M  V30 5124 H 461.665 -5.62864 -3.36927 0
M  V30 5125 H 461.582 -7.13129 -2.50965 0
M  V30 5126 H 462.85 -6.87637 -3.67118 0
M  V30 5127 N 467.08 -0.0183926 -1.57589 0
M  V30 5128 C 468.326 0.663543 -1.91638 0
M  V30 5129 C 468.659 1.72392 -0.894134 0
M  V30 5130 O 467.934 1.94316 0.0846449 0
M  V30 5131 C 468.217 1.28984 -3.36207 0
M  V30 5132 C 468.07 0.239761 -4.49161 0
M  V30 5133 C 469.389 2.2109 -3.80536 0
M  V30 5134 H 466.508 0.239746 -0.696915 0
M  V30 5135 H 469.15 -0.073456 -1.89858 0
M  V30 5136 H 467.3 1.91799 -3.37854 0
M  V30 5137 H 468.972 -0.390119 -4.59647 0
M  V30 5138 H 467.215 -0.435972 -4.31604 0
M  V30 5139 H 467.886 0.717383 -5.47319 0
M  V30 5140 H 470.362 1.68273 -3.80557 0
M  V30 5141 H 469.238 2.61869 -4.82406 0
M  V30 5142 H 469.499 3.09764 -3.15434 0
M  V30 5143 N 468.558 1.5553 0.254621 0
M  V30 5144 C 469.491 1.84624 1.34124 0
M  V30 5145 C 470.469 0.700693 1.46728 0
M  V30 5146 O 471.653 0.94564 1.63064 0
M  V30 5147 C 468.78 2.02412 2.71564 0
M  V30 5148 C 467.826 3.25028 2.7615 0
M  V30 5149 S 468.659 4.81893 2.33538 0
M  V30 5150 C 469.815 5.02677 3.72917 0
M  V30 5151 H 470.048 2.76501 1.09245 0
M  V30 5152 H 467.581 1.47537 0.455211 0
M  V30 5153 H 469.539 2.13345 3.50705 0
M  V30 5154 H 468.2 1.11391 2.93685 0
M  V30 5155 H 467.393 3.34418 3.77069 0
M  V30 5156 H 466.995 3.12781 2.05046 0
M  V30 5157 H 469.287 4.89546 4.68349 0
M  V30 5158 H 470.23 6.0468 3.68467 0
M  V30 5159 H 470.638 4.30561 3.65072 0
M  V30 5160 N 470.036 -0.519951 1.48776 0
M  V30 5161 C 470.969 -1.64053 1.58625 0
M  V30 5162 C 471.947 -1.5664 0.43618 0
M  V30 5163 O 473.131 -1.76969 0.649159 0
M  V30 5164 C 470.258 -3.02497 1.52359 0
M  V30 5165 C 469.304 -3.28235 2.72331 0
M  V30 5166 S 470.137 -3.13414 4.34203 0
M  V30 5167 C 471.293 -4.54287 4.30551 0
M  V30 5168 H 471.526 -1.5545 2.53422 0
M  V30 5169 H 469.059 -0.703681 1.37433 0
M  V30 5170 H 471.017 -3.82336 1.4943 0
M  V30 5171 H 469.678 -3.08531 0.588824 0
M  V30 5172 H 468.871 -4.29256 2.64113 0
M  V30 5173 H 468.473 -2.56085 2.72574 0
M  V30 5174 H 470.765 -5.46006 4.01103 0
M  V30 5175 H 471.708 -4.67558 5.31785 0
M  V30 5176 H 472.116 -4.34079 3.60881 0
M  V30 5177 N 471.514 -1.37532 -0.769588 0
M  V30 5178 C 472.461 -1.3347 -1.88293 0
M  V30 5179 C 473.431 -0.199891 -1.64893 0
M  V30 5180 O 474.616 -0.389594 -1.8678 0
M  V30 5181 C 471.756 -1.14968 -3.25387 0
M  V30 5182 C 470.869 -2.37698 -3.60727 0
M  V30 5183 C 470.004 -2.12051 -4.8704 0
M  V30 5184 C 469.043 -3.30636 -5.15117 0
M  V30 5185 N 468.18 -3.04527 -6.3262 0
M  V30 5186 H 473.02 -2.28658 -1.911 0
M  V30 5187 H 470.557 -1.13622 -0.934257 0
M  V30 5188 H 472.515 -1.02261 -4.04473 0
M  V30 5189 H 471.145 -0.234263 -3.21949 0
M  V30 5190 H 470.197 -2.61137 -2.76608 0
M  V30 5191 H 471.509 -3.26131 -3.77413 0
M  V30 5192 H 470.663 -1.96388 -5.74035 0
M  V30 5193 H 469.402 -1.20959 -4.72462 0
M  V30 5194 H 468.407 -3.46836 -4.26597 0
M  V30 5195 H 469.632 -4.22582 -5.31603 0
M  V30 5196 H 467.578 -2.16067 -6.19396 0
M  V30 5197 H 467.495 -3.86503 -6.49732 0
M  V30 5198 H 468.763 -2.92485 -7.22546 0
M  V30 5199 N 472.992 0.995999 -1.22138 0
M  V30 5200 C 473.922 2.10387 -1.01289 0
M  V30 5201 C 474.903 1.69975 0.0651454 0
M  V30 5202 O 476.088 1.9396 -0.0964628 0
M  V30 5203 C 473.218 3.42312 -0.586517 0
M  V30 5204 C 472.172 3.96558 -1.61014 0
M  V30 5205 C 471.498 5.24494 -1.0397 0
M  V30 5206 C 472.798 4.27595 -2.99933 0
M  V30 5207 H 474.492 2.28086 -1.93951 0
M  V30 5208 H 472.038 1.09607 -0.933928 0
M  V30 5209 H 473.991 4.19223 -0.427793 0
M  V30 5210 H 472.715 3.24431 0.375761 0
M  V30 5211 H 471.374 3.21776 -1.75658 0
M  V30 5212 H 471.022 5.02953 -0.0688703 0
M  V30 5213 H 470.722 5.61755 -1.72352 0
M  V30 5214 H 472.246 6.04042 -0.892494 0
M  V30 5215 H 473.66 4.95315 -2.8868 0
M  V30 5216 H 472.057 4.76021 -3.6541 0
M  V30 5217 H 473.127 3.35498 -3.50099 0
M  V30 5218 N 474.47 1.03057 1.19235 0
M  V30 5219 C 475.695 0.74757 1.93458 0
M  V30 5220 C 476.12 -0.687648 1.7508 0
M  V30 5221 O 475.478 -1.47499 1.05422 0
M  V30 5222 C 475.526 1.10604 3.43219 0
M  V30 5223 O 474.63 0.225671 4.11782 0
M  V30 5224 H 473.971 0.276047 0.603899 0
M  V30 5225 H 476.501 1.3777 1.51263 0
M  V30 5226 H 476.511 1.06366 3.93891 0
M  V30 5227 H 475.186 2.15165 3.55917 0
M  V30 5228 H 473.763 0.326795 3.71465 0
M  V30 5229 N 475.948 -1.35272 0.808662 0
M  V30 5230 C 476.898 -2.27181 0.193124 0
M  V30 5231 C 477.882 -1.47871 -0.634265 0
M  V30 5232 O 479.074 -1.70048 -0.491182 0
M  V30 5233 C 476.203 -3.36979 -0.655751 0
M  V30 5234 C 475.289 -4.23712 0.181481 0
M  V30 5235 N 475.68 -4.90225 1.24551 0
M  V30 5236 C 473.978 -4.45985 -0.0365493 0
M  V30 5237 C 474.679 -5.54537 1.75682 0
M  V30 5238 N 473.655 -5.33107 1.06294 0
M  V30 5239 H 477.457 -2.76101 1.00724 0
M  V30 5240 H 474.971 -1.48823 0.650029 0
M  V30 5241 H 476.968 -4.01774 -1.11279 0
M  V30 5242 H 475.628 -2.89611 -1.46819 0
M  V30 5243 H 476.639 -4.91641 1.62818 0
M  V30 5244 H 473.316 -4.09409 -0.817964 0
M  V30 5245 H 474.706 -6.17597 2.64621 0
M  V30 5246 N 477.426 -0.562348 -1.47226 0
M  V30 5247 C 478.651 -0.0432632 -2.07355 0
M  V30 5248 C 479.076 1.24332 -1.41149 0
M  V30 5249 O 478.434 1.74603 -0.488226 0
M  V30 5250 C 478.482 0.130288 -3.60365 0
M  V30 5251 O 477.586 1.19166 -3.94808 0
M  V30 5252 H 476.927 -0.0536334 -0.66183 0
M  V30 5253 H 479.457 -0.779495 -1.89169 0
M  V30 5254 H 479.467 0.342881 -4.06557 0
M  V30 5255 H 478.142 -0.809389 -4.07948 0
M  V30 5256 H 476.719 0.959153 -3.60354 0
M  V30 5257 N 478.904 1.54736 -0.299062 0
M  V30 5258 C 479.851 2.23448 0.577899 0
M  V30 5259 C 480.821 1.21637 1.13109 0
M  V30 5260 O 482.006 1.50252 1.17597 0
M  V30 5261 C 479.146 2.9774 1.74484 0
M  V30 5262 C 478.259 4.1432 1.22323 0
M  V30 5263 C 477.394 4.76199 2.35388 0
M  V30 5264 C 476.433 5.84927 1.80351 0
M  V30 5265 N 475.57 6.4077 2.86982 0
M  V30 5266 H 480.41 2.97996 -0.0146545 0
M  V30 5267 H 477.947 1.47088 -0.0190013 0
M  V30 5268 H 479.905 3.39045 2.43114 0
M  V30 5269 H 478.535 2.25572 2.30905 0
M  V30 5270 H 477.587 3.7797 0.429249 0
M  V30 5271 H 478.899 4.92659 0.780309 0
M  V30 5272 H 478.053 5.20346 3.11969 0
M  V30 5273 H 476.792 3.97188 2.83006 0
M  V30 5274 H 475.797 5.40207 1.02259 0
M  V30 5275 H 477.022 6.65821 1.3364 0
M  V30 5276 H 474.968 5.64643 3.33938 0
M  V30 5277 H 474.885 7.1445 2.4718 0
M  V30 5278 H 476.153 6.89574 3.63466 0
M  V30 5279 N 480.382 0.0267497 1.57577 0
M  V30 5280 C 481.312 -0.954308 2.13108 0
M  V30 5281 C 482.293 -1.34088 1.04663 0
M  V30 5282 O 483.478 -1.41992 1.32484 0
M  V30 5283 C 480.608 -2.23744 2.65624 0
M  V30 5284 C 479.562 -1.99168 3.78835 0
M  V30 5285 C 478.888 -3.33726 4.17769 0
M  V30 5286 C 480.188 -1.33277 5.0501 0
M  V30 5287 H 481.882 -0.491848 2.95332 0
M  V30 5288 H 479.428 -0.23514 1.42067 0
M  V30 5289 H 481.381 -2.92754 3.03106 0
M  V30 5290 H 480.105 -2.72151 1.80558 0
M  V30 5291 H 478.764 -1.32577 3.41788 0
M  V30 5292 H 478.412 -3.79888 3.29688 0
M  V30 5293 H 478.112 -3.18089 4.94058 0
M  V30 5294 H 479.636 -4.04008 4.57832 0
M  V30 5295 H 481.05 -1.92283 5.40093 0
M  V30 5296 H 479.447 -1.28045 5.8628 0
M  V30 5297 H 480.517 -0.305411 4.83937 0
M  V30 5298 N 481.861 -1.55662 -0.24637 0
M  V30 5299 C 483.107 -1.77782 -0.975779 0
M  V30 5300 C 483.44 -0.592103 -1.84953 0
M  V30 5301 O 482.715 0.409588 -1.90138 0
M  V30 5302 C 482.998 -3.09788 -1.83584 0
M  V30 5303 C 482.851 -4.38764 -0.990241 0
M  V30 5304 C 484.17 -3.38029 -2.81823 0
M  V30 5305 H 481.289 -0.646789 -0.353317 0
M  V30 5306 H 483.931 -1.88398 -0.246248 0
M  V30 5307 H 482.081 -3.00869 -2.45784 0
M  V30 5308 H 483.753 -4.59675 -0.386897 0
M  V30 5309 H 481.996 -4.32798 -0.294626 0
M  V30 5310 H 482.667 -5.27514 -1.62584 0
M  V30 5311 H 485.143 -3.46915 -2.2976 0
M  V30 5312 H 484.019 -4.3161 -3.39122 0
M  V30 5313 H 484.28 -2.58968 -3.58313 0
M  V30 5314 N 483.339 0.512053 -1.4905 0
M  V30 5315 C 484.271 1.63121 -1.6101 0
M  V30 5316 C 485.284 1.55145 -0.493352 0
M  V30 5317 O 486.473 1.61278 -0.764955 0
M  V30 5318 C 483.573 3.01863 -1.54052 0
M  V30 5319 C 482.746 3.35138 -2.81072 0
M  V30 5320 C 481.805 4.5324 -2.67319 0
M  V30 5321 O 480.831 4.55571 -3.41238 0
M  V30 5322 N 482.033 5.52495 -1.78127 0
M  V30 5323 H 484.798 1.53292 -2.5753 0
M  V30 5324 H 482.359 0.699706 -1.45999 0
M  V30 5325 H 484.351 3.78774 -1.42521 0
M  V30 5326 H 482.921 3.05675 -0.654345 0
M  V30 5327 H 482.141 2.4723 -3.07036 0
M  V30 5328 H 483.429 3.54162 -3.65304 0
M  V30 5329 H 482.827 5.53403 -1.17308 0
M  V30 5330 H 481.384 6.28553 -1.72525 0
M  V30 5331 N 484.817 1.37938 0.762283 0
M  V30 5332 C 485.747 1.37176 1.88958 0
M  V30 5333 C 486.728 0.238945 1.68413 0
M  V30 5334 O 487.913 0.440726 1.89133 0
M  V30 5335 C 485.043 1.18742 3.2637 0
M  V30 5336 C 483.997 2.29136 3.61498 0
M  V30 5337 C 483.323 1.95816 4.97554 0
M  V30 5338 C 484.623 3.71363 3.6727 0
M  V30 5339 H 486.317 2.31509 1.89853 0
M  V30 5340 H 483.863 1.11438 0.912005 0
M  V30 5341 H 485.816 1.16837 4.04879 0
M  V30 5342 H 484.54 0.208683 3.25933 0
M  V30 5343 H 483.199 2.30213 2.85303 0
M  V30 5344 H 482.847 0.964475 4.93667 0
M  V30 5345 H 482.547 2.69745 5.22026 0
M  V30 5346 H 484.071 1.95513 5.78452 0
M  V30 5347 H 485.485 3.72364 4.35911 0
M  V30 5348 H 483.882 4.44425 4.03245 0
M  V30 5349 H 484.952 4.04305 2.67704 0
M  V30 5350 N 486.295 -0.989507 1.22664 0
M  V30 5351 C 487.525 -1.7624 1.0781 0
M  V30 5352 C 487.933 -1.85466 -0.374036 0
M  V30 5353 O 487.276 -1.32645 -1.27087 0
M  V30 5354 C 487.338 -3.21007 1.61849 0
M  V30 5355 C 487.002 -3.35316 3.10503 0
M  V30 5356 C 487.999 -3.22362 4.07896 0
M  V30 5357 C 485.684 -3.60258 3.50028 0
M  V30 5358 C 487.678 -3.34139 5.42798 0
M  V30 5359 C 485.365 -3.71676 4.85078 0
M  V30 5360 C 486.363 -3.58625 5.81272 0
M  V30 5361 O 486.051 -3.69655 7.1387 0
M  V30 5362 H 485.783 -0.560209 0.378341 0
M  V30 5363 H 488.337 -1.25252 1.62792 0
M  V30 5364 H 486.567 -3.73202 1.01279 0
M  V30 5365 H 488.256 -3.80024 1.42606 0
M  V30 5366 H 489.022 -3.03 3.78703 0
M  V30 5367 H 484.901 -3.69492 2.75675 0
M  V30 5368 H 488.445 -3.23869 6.17863 0
M  V30 5369 H 484.342 -3.90545 5.1395 0
M  V30 5370 H 485.11 -3.86507 7.21495 0
M  V30 5371 N 487.773 -1.03688 -1.18687 0
M  V30 5372 C 489.021 -0.736572 -1.88199 0
M  V30 5373 C 489.342 0.737665 -1.80509 0
M  V30 5374 O 488.612 1.53204 -1.22088 0
M  V30 5375 H 487.192 -0.269466 -0.696704 0
M  V30 5376 H 489.854 -1.31282 -1.44052 0
M  V30 5377 H 488.95 -1.03802 -2.94332 0
M  V30 5378 N 489.251 1.34841 -0.815825 0
M  V30 5379 C 490.497 1.98793 -0.401129 0
M  V30 5380 C 490.83 1.64548 1.03139 0
M  V30 5381 O 490.105 0.913487 1.71714 0
M  V30 5382 C 490.388 3.55143 -0.595409 0
M  V30 5383 C 490.241 3.99155 -2.07352 0
M  V30 5384 C 491.56 4.40092 -0.0268823 0
M  V30 5385 H 488.679 0.722146 -0.14722 0
M  V30 5386 H 491.321 1.59847 -1.02707 0
M  V30 5387 H 489.471 3.8845 -0.0625779 0
M  V30 5388 H 491.143 3.76216 -2.66945 0
M  V30 5389 H 489.386 3.49726 -2.56659 0
M  V30 5390 H 490.057 5.07971 -2.1603 0
M  V30 5391 H 492.533 4.13298 -0.482042 0
M  V30 5392 H 491.409 5.48562 -0.19267 0
M  V30 5393 H 491.67 4.29016 1.06759 0
M  V30 5394 N 490.729 0.570148 1.46925 0
M  V30 5395 C 491.969 0.0534743 2.0433 0
M  V30 5396 C 492.333 -1.27729 1.4335 0
M  V30 5397 O 493.534 -1.88244 1.91879 0
M  V30 5398 C 491.805 -0.0244296 3.57392 0
M  V30 5399 S 493.364 -0.485351 4.36108 0
M  V30 5400 H 490.182 0.0313908 0.710307 0
M  V30 5401 H 492.784 0.759808 1.80131 0
M  V30 5402 H 491.488 0.948261 3.99295 0
M  V30 5403 H 491.019 -0.753922 3.86108 0
M  V30 5404 H 493.034 -1.74258 4.64595 0
M  V30 5405 N 492.207 -1.54576 0.307264 0
M  V30 5406 C 493.456 -1.99442 -0.300976 0
M  V30 5407 C 493.769 -1.19928 -1.5452 0
M  V30 5408 O 494.975 -1.55092 -2.22842 0
M  V30 5409 C 493.431 -3.55084 -0.586809 0
M  V30 5410 C 493.039 -4.43413 0.639438 0
M  V30 5411 C 494.783 -4.0846 -1.1559 0
M  V30 5412 C 492.69 -5.90499 0.326411 0
M  V30 5413 H 491.62 -0.744986 -0.116238 0
M  V30 5414 H 494.271 -1.787 0.416947 0
M  V30 5415 H 492.653 -3.71749 -1.36449 0
M  V30 5416 H 493.827 -4.38522 1.41545 0
M  V30 5417 H 492.142 -4.00842 1.1276 0
M  V30 5418 H 494.739 -5.15926 -1.40445 0
M  V30 5419 H 495.082 -3.59443 -2.10015 0
M  V30 5420 H 495.615 -3.95362 -0.439778 0
M  V30 5421 H 492.354 -6.43676 1.23939 0
M  V30 5422 H 491.874 -5.98382 -0.412212 0
M  V30 5423 H 493.553 -6.46962 -0.0697393 0
M  V30 5424 N 493.685 -0.035106 -1.57561 0
M  V30 5425 C 494.617 0.973604 -2.07494 0
M  V30 5426 C 495.63 1.28504 -0.999534 0
M  V30 5427 O 496.819 1.24864 -1.27559 0
M  V30 5428 C 493.919 2.29945 -2.48955 0
M  V30 5429 C 493.092 2.1723 -3.79644 0
M  V30 5430 C 492.151 3.328 -4.07592 0
M  V30 5431 O 491.177 3.09418 -4.77754 0
M  V30 5432 N 492.379 4.56779 -3.58236 0
M  V30 5433 H 495.144 0.547525 -2.94656 0
M  V30 5434 H 492.705 0.151515 -1.61189 0
M  V30 5435 H 494.697 3.06097 -2.64739 0
M  V30 5436 H 493.267 2.64173 -1.67126 0
M  V30 5437 H 492.487 1.25768 -3.73599 0
M  V30 5438 H 493.775 2.05945 -4.65257 0
M  V30 5439 H 493.173 4.78668 -3.01485 0
M  V30 5440 H 491.73 5.30079 -3.79288 0
M  V30 5441 N 495.163 1.55791 0.238111 0
M  V30 5442 C 496.579 1.48411 0.587045 0
M  V30 5443 C 496.779 0.72702 1.87927 0
M  V30 5444 O 495.835 0.259942 2.51158 0
M  V30 5445 C 497.148 2.92873 0.681623 0
M  V30 5446 C 498.696 3.03295 0.773363 0
M  V30 5447 C 499.171 4.49082 0.899428 0
M  V30 5448 N 500.662 4.53056 0.964075 0
M  V30 5449 C 501.397 5.63117 1.08104 0
M  V30 5450 N 500.893 6.82969 1.16299 0
M  V30 5451 N 502.686 5.50933 1.11488 0
M  V30 5452 H 494.837 2.0345 -0.610076 0
M  V30 5453 H 497.1 0.924034 -0.211813 0
M  V30 5454 H 496.806 3.51142 -0.19802 0
M  V30 5455 H 496.68 3.43851 1.55069 0
M  V30 5456 H 499.067 2.45101 1.64346 0
M  V30 5457 H 499.148 2.55513 -0.121034 0
M  V30 5458 H 498.792 5.07889 0.0338586 0
M  V30 5459 H 498.722 4.94553 1.809 0
M  V30 5460 H 501.213 3.66737 0.91173 0
M  V30 5461 H 501.526 7.62598 1.25155 0
M  V30 5462 H 499.871 6.85712 1.13241 0
M  V30 5463 H 503.062 4.56231 1.0474 0
M  V30 5464 H 503.235 6.36743 1.20259 0
M  V30 5465 N 496.642 -0.504142 1.49319 0
M  V30 5466 C 497.589 -1.60603 1.65756 0
M  V30 5467 C 498.559 -1.58425 0.499082 0
M  V30 5468 O 499.744 -1.76459 0.725728 0
M  V30 5469 C 496.884 -2.98764 1.72726 0
M  V30 5470 C 495.997 -3.10982 2.99857 0
M  V30 5471 C 495.132 -4.39857 2.97824 0
M  V30 5472 C 494.171 -4.45697 4.19548 0
M  V30 5473 N 493.308 -5.65995 4.15444 0
M  V30 5474 H 498.148 -1.45895 2.59843 0
M  V30 5475 H 495.685 -0.709891 1.28837 0
M  V30 5476 H 497.643 -3.78839 1.74747 0
M  V30 5477 H 496.273 -3.12183 0.821075 0
M  V30 5478 H 495.325 -2.23991 3.07461 0
M  V30 5479 H 496.637 -3.11157 3.89849 0
M  V30 5480 H 495.791 -5.2825 2.98391 0
M  V30 5481 H 494.53 -4.42242 2.05604 0
M  V30 5482 H 493.535 -3.55707 4.19229 0
M  V30 5483 H 494.76 -4.4503 5.12957 0
M  V30 5484 H 492.706 -5.69229 3.26059 0
M  V30 5485 H 492.623 -5.67773 4.99169 0
M  V30 5486 H 493.891 -6.56604 4.20109 0
M  V30 5487 N 498.12 -1.38341 -0.754957 0
M  V30 5488 C 499.531 -1.30803 -1.3322 0
M  V30 5489 C 499.882 0.0368 -1.96165 0
M  V30 5490 O 499.007 0.938844 -1.94974 0
M  V30 5491 C 499.602 -2.3688 -2.42225 0
M  V30 5492 C 498.161 -2.32925 -2.95674 0
M  V30 5493 C 497.308 -2.19819 -1.69042 0
M  V30 5494 H 500.259 -1.48719 -0.553937 0
M  V30 5495 H 500.28 -2.02517 -3.22129 0
M  V30 5496 H 499.792 -3.34747 -1.96383 0
M  V30 5497 H 497.893 -1.38635 -3.45848 0
M  V30 5498 H 498.006 -3.27008 -3.50146 0
M  V30 5499 H 496.37 -1.66648 -1.92615 0
M  V30 5500 H 497.153 -3.19625 -1.25279 0
M  V30 5501 N 499.598 0.982988 -1.23187 0
M  V30 5502 C 500.528 2.09301 -1.03515 0
M  V30 5503 C 501.509 1.70035 0.0471136 0
M  V30 5504 O 502.694 1.93847 -0.117029 0
M  V30 5505 C 499.824 3.4167 -0.622791 0
M  V30 5506 C 498.778 3.94828 -1.65211 0
M  V30 5507 C 498.104 5.23362 -1.09527 0
M  V30 5508 C 499.404 4.2439 -3.04451 0
M  V30 5509 H 501.098 2.26016 -1.96359 0
M  V30 5510 H 498.644 1.08611 -0.945501 0
M  V30 5511 H 500.597 4.18746 -0.472233 0
M  V30 5512 H 499.321 3.24811 0.341329 0
M  V30 5513 H 497.98 3.19895 -1.79061 0
M  V30 5514 H 497.628 5.02852 -0.122211 0
M  V30 5515 H 497.328 5.59895 -1.783 0
M  V30 5516 H 498.852 6.03062 -0.956511 0
M  V30 5517 H 500.266 4.92225 -2.93917 0
M  V30 5518 H 498.663 4.72118 -3.70438 0
M  V30 5519 H 499.733 3.31765 -3.53638 0
M  V30 5520 N 501.076 1.04316 1.18135 0
M  V30 5521 C 502.306 0.767003 1.91835 0
M  V30 5522 C 502.714 -0.68002 1.76557 0
M  V30 5523 O 502.057 -1.47548 1.09432 0
M  V30 5524 C 502.119 1.05674 3.43618 0
M  V30 5525 C 501.783 2.49818 3.82675 0
M  V30 5526 C 502.78 3.48003 3.86251 0
M  V30 5527 C 500.465 2.84596 4.13897 0
M  V30 5528 C 502.459 4.79016 4.20503 0
M  V30 5529 C 500.146 4.15813 4.4782 0
M  V30 5530 C 501.144 5.12834 4.51099 0
M  V30 5531 O 500.832 6.41699 4.84229 0
M  V30 5532 H 500.564 0.278948 0.615763 0
M  V30 5533 H 503.118 1.3946 1.50798 0
M  V30 5534 H 501.348 0.372029 3.84906 0
M  V30 5535 H 503.037 0.767994 3.98568 0
M  V30 5536 H 503.803 3.22475 3.62264 0
M  V30 5537 H 499.682 2.09748 4.1052 0
M  V30 5538 H 503.226 5.54739 4.22978 0
M  V30 5539 H 499.123 4.41109 4.71268 0
M  V30 5540 H 499.891 6.46387 5.02121 0
M  V30 5541 N 502.554 -1.34406 0.822964 0
M  V30 5542 C 503.803 -1.97542 0.407458 0
M  V30 5543 C 504.116 -1.65973 -1.035 0
M  V30 5544 O 505.322 -2.22598 -1.55442 0
M  V30 5545 C 503.778 -3.53463 0.677623 0
M  V30 5546 C 503.386 -3.93925 2.1337 0
M  V30 5547 C 505.13 -4.23229 0.328284 0
M  V30 5548 C 503.037 -5.42759 2.34876 0
M  V30 5549 H 501.967 -0.739207 0.148623 0
M  V30 5550 H 504.618 -1.53248 1.00932 0
M  V30 5551 H 503 -3.96 0.00558965 0
M  V30 5552 H 504.174 -3.62494 2.8449 0
M  V30 5553 H 502.489 -3.37097 2.44448 0
M  V30 5554 H 505.086 -5.32659 0.466794 0
M  V30 5555 H 505.429 -4.09899 -0.727224 0
M  V30 5556 H 505.962 -3.86169 0.954896 0
M  V30 5557 H 502.701 -5.61075 3.38932 0
M  V30 5558 H 502.221 -5.75704 1.68299 0
M  V30 5559 H 503.9 -6.0944 2.17236 0
M  V30 5560 N 504.032 -0.577932 -1.46621 0
M  V30 5561 C 505.278 -0.0617793 -2.02706 0
M  V30 5562 C 505.611 1.29294 -1.44903 0
M  V30 5563 O 504.886 1.8461 -0.61232 0
M  V30 5564 C 505.169 0.00911824 -3.60099 0
M  V30 5565 C 505.022 -1.37416 -4.28295 0
M  V30 5566 C 506.341 0.712159 -4.343 0
M  V30 5567 H 503.46 -0.0239246 -0.736612 0
M  V30 5568 H 506.102 -0.744211 -1.74818 0
M  V30 5569 H 504.252 0.590292 -3.83989 0
M  V30 5570 H 505.924 -2.00013 -4.15683 0
M  V30 5571 H 504.167 -1.94319 -3.87843 0
M  V30 5572 H 504.838 -1.27707 -5.37024 0
M  V30 5573 H 507.314 0.218486 -4.15526 0
M  V30 5574 H 506.19 0.730782 -5.44014 0
M  V30 5575 H 506.451 1.77251 -4.05012 0
M  V30 5576 N 505.51 1.54411 -0.315457 0
M  V30 5577 C 506.738 2.04833 0.291738 0
M  V30 5578 C 507.153 1.19203 1.46411 0
M  V30 5579 O 506.51 0.220867 1.81159 0
M  V30 5580 C 506.561 3.53969 0.73404 0
M  V30 5581 O 506.282 4.36346 -0.391682 0
M  V30 5582 C 507.783 4.2045 1.40489 0
M  V30 5583 H 505.003 0.668195 0.0612947 0
M  V30 5584 H 507.547 1.99276 -0.45929 0
M  V30 5585 H 505.702 3.5984 1.43506 0
M  V30 5586 H 506.116 5.24481 -0.0447088 0
M  V30 5587 H 507.59 5.26278 1.66539 0
M  V30 5588 H 508.067 3.71067 2.3496 0
M  V30 5589 H 508.673 4.18694 0.746662 0
M  V30 5590 N 506.988 0.0434614 1.5754 0
M  V30 5591 C 507.898 -0.94893 2.14552 0
M  V30 5592 C 508.914 -1.34707 1.10136 0
M  V30 5593 O 510.09 -1.42557 1.42266 0
M  V30 5594 C 507.155 -2.208 2.67298 0
M  V30 5595 C 506.216 -1.86893 3.86484 0
M  V30 5596 C 505.449 -3.06797 4.36705 0
M  V30 5597 O 505.672 -4.19921 3.86034 0
M  V30 5598 O 504.606 -2.8826 5.28384 0
M  V30 5599 H 508.432 -0.494099 2.99654 0
M  V30 5600 H 506.017 -0.177989 1.48336 0
M  V30 5601 H 507.899 -2.94686 3.01228 0
M  V30 5602 H 506.574 -2.65436 1.85272 0
M  V30 5603 H 505.481 -1.10347 3.57455 0
M  V30 5604 H 506.814 -1.47062 4.69716 0
M  V30 5605 N 508.466 -1.55915 -0.229846 0
M  V30 5606 C 509.713 -1.78542 -0.955452 0
M  V30 5607 C 510.041 -0.610785 -1.84661 0
M  V30 5608 O 509.296 0.405213 -1.91459 0
M  V30 5609 C 509.595 -3.06845 -1.8325 0
M  V30 5610 C 509.261 -4.37395 -1.09528 0
M  V30 5611 C 507.923 -4.72868 -0.891598 0
M  V30 5612 C 510.275 -5.18029 -0.574046 0
M  V30 5613 C 507.603 -5.86496 -0.154655 0
M  V30 5614 C 509.955 -6.32423 0.149513 0
M  V30 5615 C 508.619 -6.66504 0.364519 0
M  V30 5616 H 507.889 -0.653333 -0.349625 0
M  V30 5617 H 510.536 -1.90183 -0.224235 0
M  V30 5618 H 508.841 -2.90291 -2.63132 0
M  V30 5619 H 510.538 -3.21553 -2.39592 0
M  V30 5620 H 507.128 -4.09538 -1.26399 0
M  V30 5621 H 511.312 -4.91066 -0.718899 0
M  V30 5622 H 506.568 -6.11396 0.0222356 0
M  V30 5623 H 510.742 -6.94137 0.560947 0
M  V30 5624 H 508.369 -7.54397 0.937495 0
M  V30 5625 N 509.944 0.496216 -1.49584 0
M  V30 5626 C 510.877 1.61508 -1.61215 0
M  V30 5627 C 511.855 1.55927 -0.461045 0
M  V30 5628 O 513.039 1.75914 -0.677231 0
M  V30 5629 C 510.166 3.00035 -1.57152 0
M  V30 5630 C 509.212 3.23861 -2.77518 0
M  V30 5631 S 510.045 3.06466 -4.39134 0
M  V30 5632 C 511.201 4.4738 -4.37724 0
M  V30 5633 H 511.434 1.51398 -2.55863 0
M  V30 5634 H 508.967 0.681727 -1.38535 0
M  V30 5635 H 510.925 3.7991 -1.55494 0
M  V30 5636 H 509.586 3.07556 -0.637834 0
M  V30 5637 H 508.779 4.25 -2.70908 0
M  V30 5638 H 508.381 2.51716 -2.76614 0
M  V30 5639 H 510.673 5.39556 -4.09738 0
M  V30 5640 H 511.616 4.59038 -5.39156 0
M  V30 5641 H 512.024 4.28283 -3.67742 0
M  V30 5642 N 511.423 1.38739 0.74761 0
M  V30 5643 C 512.333 1.38696 1.89211 0
M  V30 5644 C 513.349 0.283303 1.71678 0
M  V30 5645 O 514.525 0.522713 1.94498 0
M  V30 5646 C 511.59 1.21662 3.24653 0
M  V30 5647 C 510.651 2.41886 3.54669 0
M  V30 5648 C 509.884 2.25655 4.83648 0
M  V30 5649 O 510.107 1.25339 5.56459 0
M  V30 5650 O 509.041 3.14372 5.13277 0
M  V30 5651 H 512.867 2.35143 1.92202 0
M  V30 5652 H 510.452 1.19721 0.893708 0
M  V30 5653 H 512.334 1.14246 4.05618 0
M  V30 5654 H 511.009 0.283024 3.2246 0
M  V30 5655 H 509.916 2.54877 2.73841 0
M  V30 5656 H 511.249 3.33895 3.61628 0
M  V30 5657 N 512.901 -0.976442 1.23707 0
M  V30 5658 C 513.849 -2.09078 1.01927 0
M  V30 5659 C 514.843 -1.69345 -0.0430193 0
M  V30 5660 O 516.049 -1.79659 0.110814 0
M  V30 5661 H 512.424 -0.68398 0.312531 0
M  V30 5662 H 514.395 -2.24614 1.96447 0
M  V30 5663 C 513.144 -3.41919 0.631385 0
M  V30 5664 H 512.467 -3.72946 1.44053 0
M  V30 5665 H 513.907 -4.20817 0.518532 0
M  V30 5666 C 512.366 -3.30357 -0.660723 0
M  V30 5667 O 512.896 -3.63542 -1.70881 0
M  V30 5668 N 511.102 -2.83507 -0.638139 0
M  V30 5669 H 510.649 -2.567 0.215108 0
M  V30 5670 H 510.607 -2.76153 -1.50289 0
M  V30 5671 N 514.379 -1.04941 -1.1758 0
M  V30 5672 C 515.627 -0.756492 -1.87408 0
M  V30 5673 C 515.948 0.718478 -1.81281 0
M  V30 5674 O 515.218 1.519 -1.23706 0
M  V30 5675 H 513.798 -0.276841 -0.693807 0
M  V30 5676 H 516.46 -1.32803 -1.42652 0
M  V30 5677 H 515.556 -1.06918 -2.93215 0
M  V30 5678 N 515.857 1.33968 -0.830081 0
M  V30 5679 C 517.097 1.99879 -0.427521 0
M  V30 5680 C 517.461 1.64355 0.992546 0
M  V30 5681 O 518.662 2.23164 1.49837 0
M  V30 5682 C 516.933 3.51771 -0.631815 0
M  V30 5683 S 518.492 4.37608 -0.323168 0
M  V30 5684 H 515.31 0.692485 -0.161202 0
M  V30 5685 H 517.912 1.63129 -1.07745 0
M  V30 5686 H 516.616 3.75113 -1.66488 0
M  V30 5687 H 516.147 3.93386 0.0325936 0
M  V30 5688 H 518.162 4.88683 0.860432 0
M  V30 5689 N 517.335 0.585699 1.46312 0
M  V30 5690 C 518.265 -0.133556 2.33118 0
M  V30 5691 C 519.246 -0.880707 1.45525 0
M  V30 5692 O 520.431 -0.855579 1.74337 0
M  V30 5693 C 517.561 -1.14585 3.27853 0
M  V30 5694 C 516.515 -0.513341 4.2491 0
M  V30 5695 C 515.841 -1.63231 5.09175 0
M  V30 5696 C 517.141 0.551413 5.19381 0
M  V30 5697 H 518.835 0.59121 2.93505 0
M  V30 5698 H 516.381 0.285761 1.41136 0
M  V30 5699 H 518.334 -1.65741 3.87438 0
M  V30 5700 H 517.058 -1.90093 2.65579 0
M  V30 5701 H 515.717 -0.0228349 3.66593 0
M  V30 5702 H 515.365 -2.37713 4.43285 0
M  V30 5703 H 515.065 -1.21473 5.74907 0
M  V30 5704 H 516.589 -2.14658 5.71624 0
M  V30 5705 H 518.003 0.124804 5.73164 0
M  V30 5706 H 516.4 0.889486 5.93471 0
M  V30 5707 H 517.47 1.43655 4.63132 0
M  V30 5708 N 518.813 -1.54241 0.323641 0
M  V30 5709 C 519.743 -2.27289 -0.534993 0
M  V30 5710 C 520.724 -1.28087 -1.11927 0
M  V30 5711 O 521.909 -1.56899 -1.14439 0
M  V30 5712 C 519.039 -3.03075 -1.69596 0
M  V30 5713 C 517.993 -4.09614 -1.24098 0
M  V30 5714 C 517.319 -4.73242 -2.4889 0
M  V30 5715 C 518.619 -5.21087 -0.355789 0
M  V30 5716 H 520.313 -2.99308 0.0743257 0
M  V30 5717 H 517.859 -1.43952 0.0371874 0
M  V30 5718 H 519.812 -3.52907 -2.30293 0
M  V30 5719 H 518.536 -2.28673 -2.33187 0
M  V30 5720 H 517.195 -3.60666 -0.656945 0
M  V30 5721 H 516.843 -3.95455 -3.10845 0
M  V30 5722 H 516.543 -5.45209 -2.19138 0
M  V30 5723 H 518.067 -5.25848 -3.10348 0
M  V30 5724 H 519.481 -5.66675 -0.869042 0
M  V30 5725 H 517.878 -5.9991 -0.151045 0
M  V30 5726 H 518.948 -4.81005 0.613339 0
M  V30 5727 N 520.291 -0.0518155 -1.57515 0
M  V30 5728 C 521.239 0.940195 -2.12751 0
M  V30 5729 C 522.233 1.3218 -1.05948 0
M  V30 5730 O 523.439 1.30138 -1.24355 0
M  V30 5731 H 519.814 0.321066 -0.680015 0
M  V30 5732 H 521.785 0.449217 -2.94999 0
M  V30 5733 C 520.534 2.2055 -2.68799 0
M  V30 5734 H 519.857 1.92066 -3.50643 0
M  V30 5735 H 521.297 2.88119 -3.11068 0
M  V30 5736 C 519.756 2.95061 -1.62605 0
M  V30 5737 O 520.286 3.88025 -1.03921 0
M  V30 5738 N 518.492 2.57804 -1.34111 0
M  V30 5739 H 518.039 1.82281 -1.8202 0
M  V30 5740 H 517.997 3.07964 -0.632872 0
M  V30 5741 N 521.769 1.56035 0.221574 0
M  V30 5742 C 522.999 1.82864 0.961468 0
M  V30 5743 C 523.407 0.628703 1.78449 0
M  V30 5744 O 522.75 -0.412109 1.79018 0
M  V30 5745 C 522.812 3.03425 1.92804 0
M  V30 5746 C 522.476 4.38429 1.28954 0
M  V30 5747 C 523.473 5.15441 0.679431 0
M  V30 5748 C 521.158 4.85151 1.30131 0
M  V30 5749 C 523.152 6.37337 0.0896148 0
M  V30 5750 C 520.839 6.06989 0.707651 0
M  V30 5751 C 521.837 6.82923 0.102855 0
M  V30 5752 O 521.525 8.02456 -0.48157 0
M  V30 5753 H 521.257 0.611883 0.28736 0
M  V30 5754 H 523.811 2.0397 0.241932 0
M  V30 5755 H 522.041 2.78138 2.68656 0
M  V30 5756 H 523.73 3.17127 2.53348 0
M  V30 5757 H 524.496 4.80452 0.662661 0
M  V30 5758 H 520.375 4.26021 1.76145 0
M  V30 5759 H 523.919 6.96547 -0.383069 0
M  V30 5760 H 519.816 6.41451 0.721834 0
M  V30 5761 H 520.584 8.17636 -0.375887 0
M  V30 5762 N 523.247 -0.488276 1.49845 0
M  V30 5763 C 524.177 -1.59675 1.70371 0
M  V30 5764 C 525.158 -1.60878 0.552473 0
M  V30 5765 O 526.343 -1.77417 0.78973 0
M  V30 5766 C 523.473 -2.98098 1.782 0
M  V30 5767 C 522.427 -3.11761 2.93239 0
M  V30 5768 C 521.753 -4.51661 2.86193 0
M  V30 5769 C 523.053 -2.90589 4.33999 0
M  V30 5770 H 524.747 -1.42752 2.63177 0
M  V30 5771 H 522.293 -0.685317 1.26647 0
M  V30 5772 H 524.246 -3.75555 1.91144 0
M  V30 5773 H 522.97 -3.16138 0.820018 0
M  V30 5774 H 521.629 -2.36732 2.79917 0
M  V30 5775 H 521.277 -4.66595 1.87877 0
M  V30 5776 H 520.977 -4.61742 3.63412 0
M  V30 5777 H 522.501 -5.31162 3.01163 0
M  V30 5778 H 523.915 -3.57807 4.47936 0
M  V30 5779 H 522.312 -3.1213 5.12538 0
M  V30 5780 H 523.382 -1.86595 4.4756 0
M  V30 5781 N 524.725 -1.39134 -0.740242 0
M  V30 5782 C 526.141 -1.20623 -1.0451 0
M  V30 5783 C 526.341 -0.0641651 -2.01398 0
M  V30 5784 O 525.397 0.585843 -2.4561 0
M  V30 5785 C 526.71 -2.53815 -1.6124 0
M  V30 5786 C 528.258 -2.60615 -1.73346 0
M  V30 5787 C 528.733 -3.94015 -2.33486 0
M  V30 5788 N 530.224 -3.95627 -2.40902 0
M  V30 5789 C 530.959 -4.95616 -2.88361 0
M  V30 5790 N 530.455 -6.06003 -3.35756 0
M  V30 5791 N 532.248 -4.82998 -2.87523 0
M  V30 5792 H 524.399 -2.12176 -0.0975576 0
M  V30 5793 H 526.662 -0.942066 -0.105904 0
M  V30 5794 H 526.368 -3.37911 -0.975144 0
M  V30 5795 H 526.242 -2.73162 -2.6012 0
M  V30 5796 H 528.629 -1.76906 -2.36195 0
M  V30 5797 H 528.71 -2.45123 -0.731336 0
M  V30 5798 H 528.354 -4.78153 -1.71267 0
M  V30 5799 H 528.284 -4.06825 -3.34366 0
M  V30 5800 H 530.775 -3.15903 -2.07398 0
M  V30 5801 H 531.088 -6.78215 -3.70464 0
M  V30 5802 H 529.433 -6.09604 -3.33778 0
M  V30 5803 H 532.624 -3.95866 -2.49816 0
M  V30 5804 H 532.797 -5.61072 -3.24196 0
M  V30 5805 N 526.204 0.969867 -1.24223 0
M  V30 5806 C 527.114 2.09806 -1.0497 0
M  V30 5807 C 528.13 1.73998 0.00886455 0
M  V30 5808 O 529.306 2.00513 -0.188848 0
M  V30 5809 C 526.371 3.40467 -0.654452 0
M  V30 5810 C 525.432 3.90236 -1.78926 0
M  V30 5811 C 524.665 5.14662 -1.41277 0
M  V30 5812 O 524.888 5.69602 -0.301632 0
M  V30 5813 O 523.822 5.58761 -2.23763 0
M  V30 5814 H 527.648 2.28942 -1.99548 0
M  V30 5815 H 525.233 1.08197 -1.03023 0
M  V30 5816 H 527.115 4.19039 -0.445452 0
M  V30 5817 H 525.79 3.22636 0.262216 0
M  V30 5818 H 524.697 3.12735 -2.05299 0
M  V30 5819 H 526.03 4.1254 -2.68462 0
M  V30 5820 N 527.682 1.05563 1.17022 0
M  V30 5821 C 528.63 0.653887 2.2322 0
M  V30 5822 C 529.624 -0.326642 1.66221 0
M  V30 5823 O 530.83 -0.192301 1.7897 0
M  V30 5824 H 527.205 0.193297 0.726733 0
M  V30 5825 H 529.176 1.5596 2.54399 0
M  V30 5826 C 527.925 0.0485434 3.47666 0
M  V30 5827 H 527.248 0.79413 3.91834 0
M  V30 5828 H 528.688 -0.195133 4.23551 0
M  V30 5829 C 527.147 -1.20583 3.14581 0
M  V30 5830 O 527.677 -2.29475 3.29703 0
M  V30 5831 N 525.883 -1.10493 2.68774 0
M  V30 5832 H 525.43 -0.218795 2.56669 0
M  V30 5833 H 525.388 -1.94507 2.47011 0
M  V30 5834 N 529.16 -1.33526 0.837174 0
M  V30 5835 C 530.107 -2.29248 0.267169 0
M  V30 5836 C 531.077 -1.54252 -0.616071 0
M  V30 5837 O 532.262 -1.82559 -0.554699 0
M  V30 5838 C 529.402 -3.40638 -0.553152 0
M  V30 5839 C 528.515 -4.30548 0.353921 0
M  V30 5840 C 527.65 -5.29051 -0.477339 0
M  V30 5841 C 526.689 -6.106 0.42823 0
M  V30 5842 N 525.826 -7.01152 -0.364801 0
M  V30 5843 H 530.666 -2.77398 1.08877 0
M  V30 5844 H 528.203 -1.36496 0.54838 0
M  V30 5845 H 530.161 -4.03921 -1.04422 0
M  V30 5846 H 528.791 -2.93685 -1.33973 0
M  V30 5847 H 527.843 -3.68001 0.963289 0
M  V30 5848 H 529.155 -4.87631 1.04964 0
M  V30 5849 H 528.309 -5.97853 -1.0323 0
M  V30 5850 H 527.048 -4.72541 -1.2065 0
M  V30 5851 H 526.053 -5.40718 0.995219 0
M  V30 5852 H 527.278 -6.69193 1.15573 0
M  V30 5853 H 525.224 -6.47092 -1.07738 0
M  V30 5854 H 525.141 -7.5551 0.272238 0
M  V30 5855 H 526.409 -7.74263 -0.902054 0
M  V30 5856 N 530.638 -0.59345 -1.46 0
M  V30 5857 C 531.886 -0.082988 -2.0193 0
M  V30 5858 C 532.207 1.28569 -1.46612 0
M  V30 5859 O 531.477 1.84629 -0.654909 0
M  V30 5860 H 530.057 -0.0276882 -0.746487 0
M  V30 5861 H 532.719 -0.771657 -1.78973 0
M  V30 5862 H 531.815 -0.022079 -3.12092 0
M  V30 5863 N 532.116 1.54067 -0.331816 0
M  V30 5864 C 533.063 2.24623 0.530372 0
M  V30 5865 C 534.033 1.24009 1.10503 0
M  V30 5866 O 535.218 1.52712 1.14384 0
M  V30 5867 C 532.358 3.01374 1.68129 0
M  V30 5868 C 531.471 4.16821 1.13507 0
M  V30 5869 C 530.606 4.81085 2.25234 0
M  V30 5870 C 529.645 5.88621 1.67903 0
M  V30 5871 N 528.782 6.46713 2.73326 0
M  V30 5872 H 533.622 2.97898 -0.0778607 0
M  V30 5873 H 531.159 1.47014 -0.0501965 0
M  V30 5874 H 533.117 3.44125 2.35868 0
M  V30 5875 H 531.747 2.30419 2.26069 0
M  V30 5876 H 530.799 3.78796 0.348979 0
M  V30 5877 H 532.111 4.94203 0.675633 0
M  V30 5878 H 531.265 5.26846 3.00862 0
M  V30 5879 H 530.004 4.03102 2.74518 0
M  V30 5880 H 529.009 5.42254 0.907773 0
M  V30 5881 H 530.234 6.68506 1.19487 0
M  V30 5882 H 528.18 5.71599 3.21886 0
M  V30 5883 H 528.097 7.19532 2.3197 0
M  V30 5884 H 529.365 6.97129 3.48758 0
M  V30 5885 N 533.594 0.0601682 1.57485 0
M  V30 5886 C 534.524 -0.90889 2.15085 0
M  V30 5887 C 535.505 -1.31838 1.07484 0
M  V30 5888 O 536.69 -1.3915 1.35466 0
M  V30 5889 C 533.82 -2.18059 2.7031 0
M  V30 5890 C 532.774 -1.91088 3.82974 0
M  V30 5891 C 532.1 -3.24789 4.24754 0
M  V30 5892 C 533.4 -1.22535 5.07723 0
M  V30 5893 H 535.094 -0.429093 2.96309 0
M  V30 5894 H 532.64 -0.204952 1.42534 0
M  V30 5895 H 534.593 -2.86258 3.09248 0
M  V30 5896 H 533.317 -2.6826 1.8629 0
M  V30 5897 H 531.976 -1.25297 3.44523 0
M  V30 5898 H 531.624 -3.72809 3.37672 0
M  V30 5899 H 531.324 -3.07538 5.00694 0
M  V30 5900 H 532.848 -3.94205 4.66299 0
M  V30 5901 H 534.262 -1.80783 5.4405 0
M  V30 5902 H 532.659 -1.1558 5.88864 0
M  V30 5903 H 533.729 -0.202692 4.84476 0
M  V30 5904 N 535.072 -1.5615 -0.213296 0
M  V30 5905 C 536.488 -1.49327 -0.56336 0
M  V30 5906 C 536.688 -0.756826 -1.86747 0
M  V30 5907 O 535.744 -0.299866 -2.50713 0
M  V30 5908 C 537.057 -2.9392 -0.634944 0
M  V30 5909 C 538.605 -3.04487 -0.725013 0
M  V30 5910 C 539.08 -4.50456 -0.82787 0
M  V30 5911 N 540.571 -4.54533 -0.891876 0
M  V30 5912 C 541.306 -5.64766 -0.991315 0
M  V30 5913 N 540.802 -6.84733 -1.05419 0
M  V30 5914 N 542.595 -5.52637 -1.02709 0
M  V30 5915 H 534.746 -2.02453 0.642366 0
M  V30 5916 H 537.009 -0.920548 0.226487 0
M  V30 5917 H 536.715 -3.50783 0.253859 0
M  V30 5918 H 536.589 -3.46274 -1.49579 0
M  V30 5919 H 538.976 -2.47685 -1.60425 0
M  V30 5920 H 539.057 -2.55289 0.161669 0
M  V30 5921 H 538.701 -5.07878 0.0469464 0
M  V30 5922 H 538.631 -4.97369 -1.73009 0
M  V30 5923 H 541.122 -3.68141 -0.85327 0
M  V30 5924 H 541.435 -7.64493 -1.13007 0
M  V30 5925 H 539.78 -6.87427 -1.02318 0
M  V30 5926 H 542.971 -4.5784 -0.974687 0
M  V30 5927 H 543.144 -6.38576 -1.10113 0
M  V30 5928 N 536.55 0.480323 -1.50102 0
M  V30 5929 C 537.497 1.57946 -1.6829 0
M  V30 5930 C 538.467 1.57611 -0.524223 0
M  V30 5931 O 539.652 1.75282 -0.753709 0
M  V30 5932 C 536.792 2.95978 -1.77457 0
M  V30 5933 C 535.905 3.06173 -3.04766 0
M  V30 5934 C 535.04 4.35063 -3.04784 0
M  V30 5935 C 534.079 4.38966 -4.26586 0
M  V30 5936 N 533.216 5.59314 -4.24396 0
M  V30 5937 H 538.056 1.41743 -2.62131 0
M  V30 5938 H 535.593 0.689304 -1.2995 0
M  V30 5939 H 537.551 3.76011 -1.80752 0
M  V30 5940 H 536.181 3.10837 -0.870637 0
M  V30 5941 H 535.233 2.19071 -3.10986 0
M  V30 5942 H 536.545 3.04916 -3.9475 0
M  V30 5943 H 535.699 5.23436 -3.06757 0
M  V30 5944 H 534.438 4.38915 -2.12614 0
M  V30 5945 H 533.443 3.48992 -4.24835 0
M  V30 5946 H 534.668 4.36813 -5.19972 0
M  V30 5947 H 532.614 5.63969 -3.35074 0
M  V30 5948 H 532.531 5.5976 -5.08138 0
M  V30 5949 H 533.799 6.49837 -4.30502 0
M  V30 5950 N 538.028 1.39524 0.732853 0
M  V30 5951 C 538.938 1.40695 1.87729 0
M  V30 5952 C 539.954 0.301496 1.71368 0
M  V30 5953 O 541.13 0.543313 1.93933 0
M  V30 5954 C 538.195 1.25098 3.23344 0
M  V30 5955 C 537.256 2.45634 3.52083 0
M  V30 5956 C 536.489 2.30772 4.81228 0
M  V30 5957 O 536.712 1.31233 5.55098 0
M  V30 5958 O 535.646 3.19799 5.09914 0
M  V30 5959 H 539.472 2.37168 1.89697 0
M  V30 5960 H 537.057 1.20663 0.880959 0
M  V30 5961 H 538.939 1.18541 4.04383 0
M  V30 5962 H 537.614 0.317209 3.22142 0
M  V30 5963 H 536.521 2.57767 2.71122 0
M  V30 5964 H 537.854 3.37712 3.58066 0
M  V30 5965 N 539.506 -0.963266 1.24736 0
M  V30 5966 C 540.439 -2.05758 0.986852 0
M  V30 5967 C 541.417 -1.62398 -0.0809272 0
M  V30 5968 O 542.601 -1.88414 0.0569347 0
M  V30 5969 C 539.728 -3.35135 0.490095 0
M  V30 5970 C 538.774 -3.97451 1.54709 0
M  V30 5971 S 539.607 -4.34519 3.12976 0
M  V30 5972 C 540.763 -5.67026 2.65014 0
M  V30 5973 H 540.996 -2.27539 1.91346 0
M  V30 5974 H 538.529 -1.10176 1.08169 0
M  V30 5975 H 540.487 -4.09962 0.21012 0
M  V30 5976 H 539.148 -3.11335 -0.415873 0
M  V30 5977 H 538.341 -4.90704 1.15003 0
M  V30 5978 H 537.943 -3.29071 1.77731 0
M  V30 5979 H 540.235 -6.44748 2.08102 0
M  V30 5980 H 541.178 -6.11594 3.56873 0
M  V30 5981 H 541.586 -5.25847 2.05294 0
M  V30 5982 N 540.985 -1.06182 -1.16461 0
M  V30 5983 C 541.915 -0.692861 -2.22984 0
M  V30 5984 C 542.896 0.314122 -1.67174 0
M  V30 5985 O 544.081 0.189499 -1.93273 0
M  V30 5986 C 541.211 -0.07732 -3.47214 0
M  V30 5987 C 540.165 -1.01015 -4.15909 0
M  V30 5988 C 539.491 -0.257973 -5.34077 0
M  V30 5989 C 540.791 -2.33868 -4.67015 0
M  V30 5990 H 542.485 -1.58343 -2.54102 0
M  V30 5991 H 540.031 -0.76279 -1.22137 0
M  V30 5992 H 541.984 0.19266 -4.20959 0
M  V30 5993 H 540.708 0.848254 -3.15392 0
M  V30 5994 H 539.367 -1.26486 -3.44088 0
M  V30 5995 H 539.015 0.670684 -4.98509 0
M  V30 5996 H 538.715 -0.879638 -5.80979 0
M  V30 5997 H 540.239 0.00448788 -6.106 0
M  V30 5998 H 541.653 -2.1279 -5.32347 0
M  V30 5999 H 540.05 -2.91522 -5.24533 0
M  V30 6000 H 541.12 -2.97019 -3.83286 0
M  V30 6001 N 542.463 1.3308 -0.844243 0
M  V30 6002 C 543.393 2.3161 -0.296493 0
M  V30 6003 C 544.374 1.59215 0.598707 0
M  V30 6004 O 545.559 1.87077 0.521134 0
M  V30 6005 C 542.689 3.43313 0.524762 0
M  V30 6006 C 541.643 4.27115 -0.275106 0
M  V30 6007 C 540.969 5.30483 0.670236 0
M  V30 6008 C 542.269 5.00443 -1.49514 0
M  V30 6009 H 543.963 2.77672 -1.11976 0
M  V30 6010 H 541.509 1.33496 -0.539899 0
M  V30 6011 H 543.462 4.11273 0.918298 0
M  V30 6012 H 542.186 2.95952 1.3813 0
M  V30 6013 H 540.845 3.60787 -0.650267 0
M  V30 6014 H 540.493 4.79379 1.52332 0
M  V30 6015 H 540.193 5.87435 0.139123 0
M  V30 6016 H 541.717 6.01308 1.06117 0
M  V30 6017 H 543.131 5.61141 -1.17447 0
M  V30 6018 H 541.528 5.67071 -1.96343 0
M  V30 6019 H 542.598 4.28906 -2.26202 0
M  V30 6020 N 543.941 0.601185 1.45683 0
M  V30 6021 C 545.166 0.0982245 2.07167 0
M  V30 6022 C 545.591 -1.20546 1.44396 0
M  V30 6023 O 544.949 -1.73247 0.534347 0
M  V30 6024 C 544.997 -0.0346976 3.60583 0
M  V30 6025 O 544.101 -1.08657 3.97828 0
M  V30 6026 H 543.442 0.0711618 0.660176 0
M  V30 6027 H 545.972 0.829376 1.87036 0
M  V30 6028 H 545.982 -0.234969 4.07323 0
M  V30 6029 H 544.657 0.917265 4.05659 0
M  V30 6030 H 543.234 -0.863275 3.6277 0
M  V30 6031 N 545.419 -1.53889 0.339982 0
M  V30 6032 C 546.665 -2.01152 -0.258003 0
M  V30 6033 C 546.998 -1.22749 -1.50487 0
M  V30 6034 O 546.273 -0.314156 -1.91946 0
M  V30 6035 C 546.556 -3.55468 -0.575717 0
M  V30 6036 C 546.409 -4.44584 0.682996 0
M  V30 6037 C 547.728 -4.1768 -1.38677 0
M  V30 6038 H 544.847 -0.731198 -0.0922992 0
M  V30 6039 H 547.489 -1.84352 0.459814 0
M  V30 6040 H 545.639 -3.69914 -1.18725 0
M  V30 6041 H 547.311 -4.41981 1.32102 0
M  V30 6042 H 545.554 -4.13592 1.3086 0
M  V30 6043 H 546.225 -5.5043 0.416001 0
M  V30 6044 H 548.701 -4.0691 -0.869705 0
M  V30 6045 H 547.577 -5.25734 -1.57783 0
M  V30 6046 H 547.838 -3.72069 -2.38782 0
M  V30 6047 N 546.897 -0.0685191 -1.57451 0
M  V30 6048 C 548.137 0.605038 -1.9524 0
M  V30 6049 C 548.501 1.66974 -0.947816 0
M  V30 6050 O 549.702 2.39862 -1.21325 0
M  V30 6051 C 547.973 1.16999 -3.37707 0
M  V30 6052 S 549.532 1.85913 -3.97469 0
M  V30 6053 H 546.35 0.198203 -0.682815 0
M  V30 6054 H 548.952 -0.141594 -1.94987 0
M  V30 6055 H 547.656 0.383205 -4.08607 0
M  V30 6056 H 547.187 1.95305 -3.41496 0
M  V30 6057 H 549.202 3.14128 -3.84107 0
M  V30 6058 N 548.375 1.56261 0.205012 0
M  V30 6059 C 549.307 1.90266 1.27795 0
M  V30 6060 C 550.32 0.792397 1.42214 0
M  V30 6061 O 551.509 1.07077 1.42817 0
M  V30 6062 C 548.609 2.11074 2.65143 0
M  V30 6063 C 547.782 3.42176 2.7246 0
M  V30 6064 C 546.841 3.52216 3.90936 0
M  V30 6065 O 545.867 4.25119 3.78501 0
M  V30 6066 N 547.069 2.84573 5.05963 0
M  V30 6067 H 549.834 2.82896 0.989434 0
M  V30 6068 H 547.395 1.57008 0.394981 0
M  V30 6069 H 549.387 2.15089 3.4281 0
M  V30 6070 H 547.957 1.2499 2.86524 0
M  V30 6071 H 547.177 3.50116 1.81142 0
M  V30 6072 H 548.465 4.28509 2.74331 0
M  V30 6073 H 547.863 2.25152 5.18963 0
M  V30 6074 H 546.42 2.94228 5.81613 0
M  V30 6075 N 549.853 -0.472356 1.50355 0
M  V30 6076 C 551.13 -1.23356 1.51798 0
M  V30 6077 C 551.51 -2.09469 0.26193 0
M  V30 6078 O 550.858 -2.15677 -0.754691 0
M  V30 6079 C 551.068 -2.06568 2.81302 0
M  V30 6080 C 552.416 -2.648 3.31913 0
M  V30 6081 O 553.44 -2.16812 2.82614 0
M  V30 6082 O 552.299 -3.52231 4.17846 0
M  V30 6083 H 549.393 -0.559707 0.608816 0
M  V30 6084 H 551.939 -0.48428 1.62643 0
M  V30 6085 H 550.711 -1.43103 3.64194 0
M  V30 6086 H 550.334 -2.88633 2.73454 0
M  V30 6087 N 551.331 -1.39911 -0.725443 0
M  V30 6088 C 552.58 -1.36963 -1.48068 0
M  V30 6089 C 552.893 0.0284478 -1.95579 0
M  V30 6090 O 554.099 0.180535 -2.70899 0
M  V30 6091 C 552.555 -2.40664 -2.67598 0
M  V30 6092 C 552.163 -3.86234 -2.26997 0
M  V30 6093 C 553.907 -2.46807 -3.45379 0
M  V30 6094 C 551.814 -4.81554 -3.43307 0
M  V30 6095 H 550.744 -0.509223 -0.556065 0
M  V30 6096 H 553.395 -1.65602 -0.790454 0
M  V30 6097 H 551.777 -2.05109 -3.38742 0
M  V30 6098 H 552.951 -4.3088 -1.63337 0
M  V30 6099 H 551.266 -3.83475 -1.62284 0
M  V30 6100 H 553.863 -3.15213 -4.31909 0
M  V30 6101 H 554.206 -1.49552 -3.8851 0
M  V30 6102 H 554.739 -2.81303 -2.81271 0
M  V30 6103 H 551.478 -5.80106 -3.05217 0
M  V30 6104 H 550.998 -4.4158 -4.05915 0
M  V30 6105 H 552.677 -5.0091 -4.0951 0
M  V30 6106 N 552.809 0.956637 -1.25245 0
M  V30 6107 C 554.049 1.71585 -1.11076 0
M  V30 6108 C 554.413 1.88916 0.34277 0
M  V30 6109 O 555.614 2.61875 0.606227 0
M  V30 6110 C 553.885 3.06267 -1.84215 0
M  V30 6111 S 555.444 3.97469 -1.85914 0
M  V30 6112 H 552.262 0.589803 -0.397055 0
M  V30 6113 H 554.864 1.14114 -1.58739 0
M  V30 6114 H 553.568 2.91322 -2.89067 0
M  V30 6115 H 553.099 3.688 -1.36931 0
M  V30 6116 H 555.114 4.87316 -0.93474 0
M  V30 6117 N 554.287 1.06798 1.15896 0
M  V30 6118 C 555.197 0.694564 2.24083 0
M  V30 6119 C 556.213 -0.291687 1.71538 0
M  V30 6120 O 557.389 -0.139723 2.00915 0
M  V30 6121 C 554.454 0.0921014 3.46578 0
M  V30 6122 C 553.515 1.13087 4.14137 0
M  V30 6123 C 552.748 0.557064 5.30785 0
M  V30 6124 O 552.971 -0.628623 5.66925 0
M  V30 6125 O 551.905 1.29924 5.8771 0
M  V30 6126 H 555.731 1.59663 2.58344 0
M  V30 6127 H 553.316 0.840575 1.2351 0
M  V30 6128 H 555.198 -0.241884 4.20705 0
M  V30 6129 H 553.873 -0.78337 3.14078 0
M  V30 6130 H 552.78 1.51712 3.41957 0
M  V30 6131 H 554.113 1.97805 4.50704 0
M  V30 6132 N 555.766 -1.3263 0.851289 0
M  V30 6133 C 557.014 -1.96978 0.452128 0
M  V30 6134 C 557.335 -1.67715 -0.99482 0
M  V30 6135 O 556.605 -0.98259 -1.69476 0
M  V30 6136 H 555.185 -0.72873 0.164202 0
M  V30 6137 H 557.847 -1.61774 1.08698 0
M  V30 6138 H 556.943 -3.06387 0.594407 0
M  V30 6139 N 557.244 -0.608902 -1.45362 0
M  V30 6140 C 558.177 0.158059 -2.27652 0
M  V30 6141 C 559.155 0.872397 -1.37215 0
M  V30 6142 O 560.339 0.881002 -1.66645 0
M  V30 6143 C 557.466 1.22896 -3.15617 0
M  V30 6144 C 556.512 0.617607 -4.22005 0
M  V30 6145 S 557.345 -0.575518 -5.32398 0
M  V30 6146 C 558.501 0.495938 -6.23932 0
M  V30 6147 H 558.734 -0.540095 -2.92353 0
M  V30 6148 H 556.267 -0.396456 -1.49223 0
M  V30 6149 H 558.225 1.84195 -3.66855 0
M  V30 6150 H 556.886 1.89919 -2.50179 0
M  V30 6151 H 556.079 1.42341 -4.83482 0
M  V30 6152 H 555.681 0.0797273 -3.73915 0
M  V30 6153 H 557.973 1.37465 -6.63408 0
M  V30 6154 H 558.916 -0.0827108 -7.08052 0
M  V30 6155 H 559.324 0.811856 -5.58631 0
M  V30 6156 N 558.722 1.53707 -0.348139 0
M  V30 6157 C 559.632 2.28881 0.514857 0
M  V30 6158 C 560.648 1.34168 1.10793 0
M  V30 6159 O 561.824 1.6721 1.12262 0
M  V30 6160 C 558.889 3.05042 1.64774 0
M  V30 6161 C 557.95 4.15389 1.08398 0
M  V30 6162 C 557.183 4.87909 2.16287 0
M  V30 6163 O 557.406 4.60137 3.3709 0
M  V30 6164 O 556.34 5.74254 1.80323 0
M  V30 6165 H 560.166 3.03547 -0.0963699 0
M  V30 6166 H 557.751 1.48972 -0.113043 0
M  V30 6167 H 559.633 3.52656 2.30677 0
M  V30 6168 H 558.308 2.33228 2.24469 0
M  V30 6169 H 557.215 3.72068 0.389341 0
M  V30 6170 H 558.548 4.89318 0.531829 0
M  V30 6171 N 560.2 0.0768682 1.57412 0
M  V30 6172 C 561.43 -0.5991 1.97723 0
M  V30 6173 C 561.838 -1.63378 0.954166 0
M  V30 6174 O 561.181 -1.83578 -0.0668706 0
M  V30 6175 C 561.243 -1.32078 3.34358 0
M  V30 6176 C 560.907 -0.438985 4.54887 0
M  V30 6177 C 561.904 0.305492 5.19002 0
M  V30 6178 C 559.589 -0.362378 5.00991 0
M  V30 6179 C 561.583 1.11475 6.27576 0
M  V30 6180 C 559.27 0.450543 6.09437 0
M  V30 6181 C 560.268 1.18777 6.72593 0
M  V30 6182 O 559.956 1.98727 7.7895 0
M  V30 6183 H 559.688 -0.166725 0.655117 0
M  V30 6184 H 562.242 0.147337 2.04871 0
M  V30 6185 H 560.472 -2.1134 3.2384 0
M  V30 6186 H 562.161 -1.88949 3.5924 0
M  V30 6187 H 562.927 0.25593 4.84324 0
M  V30 6188 H 558.806 -0.925832 4.51608 0
M  V30 6189 H 562.35 1.69068 6.76803 0
M  V30 6190 H 558.247 0.501651 6.43548 0
M  V30 6191 H 559.015 1.91214 7.95851 0
M  V30 6192 N 561.678 -1.56367 -0.196722 0
M  V30 6193 C 562.608 -1.97442 -1.24655 0
M  V30 6194 C 563.589 -0.846147 -1.47561 0
M  V30 6195 O 564.774 -1.11035 -1.59326 0
M  V30 6196 C 561.904 -2.31253 -2.59112 0
M  V30 6197 C 560.858 -3.46804 -2.50821 0
M  V30 6198 C 560.184 -3.66286 -3.89536 0
M  V30 6199 C 561.484 -4.8104 -2.03465 0
M  V30 6200 H 563.178 -2.85388 -0.905216 0
M  V30 6201 H 560.724 -1.37304 -0.434002 0
M  V30 6202 H 562.677 -2.58583 -3.32736 0
M  V30 6203 H 561.401 -1.40188 -2.94983 0
M  V30 6204 H 560.06 -3.19563 -1.79653 0
M  V30 6205 H 559.708 -2.72555 -4.22756 0
M  V30 6206 H 559.408 -4.4402 -3.84864 0
M  V30 6207 H 560.932 -3.9599 -4.64784 0
M  V30 6208 H 562.346 -5.07411 -2.66846 0
M  V30 6209 H 560.743 -5.62232 -2.09798 0
M  V30 6210 H 561.813 -4.74732 -0.98781 0
M  V30 6211 N 563.156 0.464375 -1.50603 0
M  V30 6212 C 564.066 1.58723 -1.72754 0
M  V30 6213 C 565.082 1.62925 -0.610844 0
M  V30 6214 O 566.258 1.8067 -0.889963 0
M  V30 6215 C 563.323 2.94897 -1.82309 0
M  V30 6216 C 562.384 3.0103 -3.06071 0
M  V30 6217 C 561.617 4.30708 -3.1516 0
M  V30 6218 O 561.84 5.2159 -2.30868 0
M  V30 6219 O 560.774 4.42571 -4.0794 0
M  V30 6220 H 564.6 1.42954 -2.67951 0
M  V30 6221 H 562.185 0.644579 -1.3478 0
M  V30 6222 H 564.067 3.75764 -1.90735 0
M  V30 6223 H 562.742 3.10851 -0.902967 0
M  V30 6224 H 561.649 2.19217 -3.03142 0
M  V30 6225 H 562.982 2.90014 -3.97684 0
M  V30 6226 N 564.634 1.40294 0.718013 0
M  V30 6227 C 566.05 1.2227 1.02577 0
M  V30 6228 C 566.25 0.0961976 2.0127 0
M  V30 6229 O 565.306 -0.546695 2.46511 0
M  V30 6230 C 566.619 2.56348 1.57182 0
M  V30 6231 C 568.167 2.6334 1.69178 0
M  V30 6232 C 568.642 3.9768 2.27188 0
M  V30 6233 N 570.133 3.99409 2.34578 0
M  V30 6234 C 570.868 5.00141 2.8044 0
M  V30 6235 N 570.364 6.11268 3.26073 0
M  V30 6236 N 572.157 4.87511 2.79802 0
M  V30 6237 H 564.308 2.12304 0.0637899 0
M  V30 6238 H 566.571 0.943632 0.0909036 0
M  V30 6239 H 566.277 3.3942 0.921262 0
M  V30 6240 H 566.151 2.77266 2.55741 0
M  V30 6241 H 568.538 1.80641 2.33351 0
M  V30 6242 H 568.619 2.46255 0.692247 0
M  V30 6243 H 568.263 4.80817 1.63638 0
M  V30 6244 H 568.193 4.12093 3.27852 0
M  V30 6245 H 570.684 3.19162 2.02346 0
M  V30 6246 H 570.997 6.84023 3.59628 0
M  V30 6247 H 569.342 6.14837 3.24038 0
M  V30 6248 H 572.533 3.9979 2.43487 0
M  V30 6249 H 572.706 5.66158 3.15228 0
M  V30 6250 N 566.112 -0.949982 1.2575 0
M  V30 6251 C 567.06 -2.06869 1.06339 0
M  V30 6252 C 568.054 -1.69399 -0.00708901 0
M  V30 6253 O 569.26 -1.79383 0.148897 0
M  V30 6254 H 565.635 -0.677197 0.326969 0
M  V30 6255 H 567.606 -2.20396 2.01167 0
M  V30 6256 C 566.355 -3.40503 0.703769 0
M  V30 6257 H 565.678 -3.69807 1.51931 0
M  V30 6258 H 567.118 -4.19623 0.607677 0
M  V30 6259 C 565.577 -3.31685 -0.5905 0
M  V30 6260 O 566.107 -3.67085 -1.63131 0
M  V30 6261 N 564.313 -2.84797 -0.577859 0
M  V30 6262 H 563.86 -2.56186 0.26951 0
M  V30 6263 H 563.818 -2.79279 -1.44398 0
M  V30 6264 N 567.59 -1.07411 -1.15328 0
M  V30 6265 C 568.838 -0.796073 -1.85761 0
M  V30 6266 C 569.159 0.679864 -1.82764 0
M  V30 6267 O 568.429 1.49242 -1.269 0
M  V30 6268 H 567.009 -0.291495 -0.687779 0
M  V30 6269 H 569.671 -1.35799 -1.39802 0
M  V30 6270 H 568.767 -1.13114 -2.90881 0
M  V30 6271 N 569.068 1.32177 -0.85831 0
M  V30 6272 C 570.298 2.01021 -0.476889 0
M  V30 6273 C 570.706 1.64653 0.931995 0
M  V30 6274 O 570.049 0.865713 1.62022 0
M  V30 6275 C 570.111 3.55413 -0.540528 0
M  V30 6276 C 569.775 4.1522 -1.90895 0
M  V30 6277 C 570.772 4.3318 -2.87491 0
M  V30 6278 C 568.457 4.51212 -2.20709 0
M  V30 6279 C 570.451 4.86306 -4.1205 0
M  V30 6280 C 568.138 5.04042 -3.45521 0
M  V30 6281 C 569.136 5.21538 -4.41007 0
M  V30 6282 O 568.824 5.73238 -5.63608 0
M  V30 6283 H 568.556 0.650059 -0.18547 0
M  V30 6284 H 571.11 1.69648 -1.15796 0
M  V30 6285 H 569.34 3.86196 0.19741 0
M  V30 6286 H 571.029 4.05526 -0.174191 0
M  V30 6287 H 571.795 4.05704 -2.65762 0
M  V30 6288 H 567.674 4.36878 -1.4717 0
M  V30 6289 H 571.218 4.99877 -4.86589 0
M  V30 6290 H 567.115 5.30952 -3.67098 0
M  V30 6291 H 567.883 5.91625 -5.65617 0
M  V30 6292 N 570.547 0.616602 1.45037 0
M  V30 6293 C 571.796 0.112861 2.01384 0
M  V30 6294 C 572.109 -1.26758 1.48969 0
M  V30 6295 O 573.315 -1.86454 1.9735 0
M  V30 6296 C 571.771 0.151057 3.59583 0
M  V30 6297 C 571.379 1.53191 4.20995 0
M  V30 6298 C 573.123 -0.296974 4.2346 0
M  V30 6299 C 571.03 1.526 5.71373 0
M  V30 6300 H 569.96 0.0384254 0.75302 0
M  V30 6301 H 572.611 0.773262 1.66412 0
M  V30 6302 H 570.993 -0.57617 3.91786 0
M  V30 6303 H 572.167 2.28156 4.00352 0
M  V30 6304 H 570.482 1.92279 3.69348 0
M  V30 6305 H 573.079 -0.320712 5.33737 0
M  V30 6306 H 573.422 -1.32145 3.9477 0
M  V30 6307 H 573.955 0.377279 3.96007 0
M  V30 6308 H 570.694 2.52837 6.04776 0
M  V30 6309 H 570.214 0.819064 5.94181 0
M  V30 6310 H 571.893 1.25357 6.3474 0
M  V30 6311 N 572.025 -1.5352 0.356285 0
M  V30 6312 C 572.975 -2.22204 -0.510815 0
M  V30 6313 C 573.959 -1.21393 -1.05605 0
M  V30 6314 O 575.151 -1.46883 -0.987639 0
M  V30 6315 C 572.28 -3.00786 -1.65478 0
M  V30 6316 C 571.366 -4.08965 -1.12287 0
M  V30 6317 N 571.757 -5.04829 -0.313191 0
M  V30 6318 C 570.055 -4.23505 -1.39856 0
M  V30 6319 C 570.756 -5.81695 -0.0230322 0
M  V30 6320 N 569.732 -5.40074 -0.618144 0
M  V30 6321 H 573.534 -2.93676 0.114711 0
M  V30 6322 H 571.048 -1.61572 0.163811 0
M  V30 6323 H 573.045 -3.48502 -2.28806 0
M  V30 6324 H 571.705 -2.30843 -2.28345 0
M  V30 6325 H 572.716 -5.17879 0.0468202 0
M  V30 6326 H 569.393 -3.64786 -2.0307 0
M  V30 6327 H 570.783 -6.68931 0.630927 0
M  V30 6328 N 573.503 -0.0852151 -1.57369 0
M  V30 6329 C 574.919 0.271436 -1.57275 0
M  V30 6330 C 575.119 1.69109 -1.09565 0
M  V30 6331 O 574.175 2.40549 -0.767611 0
M  V30 6332 C 575.488 0.0688638 -3.00621 0
M  V30 6333 C 577.036 0.137373 -3.12698 0
M  V30 6334 C 577.511 -0.0370832 -4.57985 0
M  V30 6335 N 579.002 0.0180794 -4.63196 0
M  V30 6336 C 579.737 -0.0922953 -5.73326 0
M  V30 6337 N 579.233 -0.256948 -6.92323 0
M  V30 6338 N 581.026 -0.0342702 -5.6209 0
M  V30 6339 H 573.177 -1.01288 -1.86693 0
M  V30 6340 H 575.44 -0.396138 -0.861266 0
M  V30 6341 H 575.146 -0.911277 -3.39689 0
M  V30 6342 H 575.02 0.815442 -3.6828 0
M  V30 6343 H 577.407 1.10801 -2.73509 0
M  V30 6344 H 577.488 -0.640532 -2.47651 0
M  V30 6345 H 577.132 -1.00455 -4.97867 0
M  V30 6346 H 577.062 0.760392 -5.21081 0
M  V30 6347 H 579.553 0.143202 -3.77629 0
M  V30 6348 H 579.866 -0.332949 -7.72082 0
M  V30 6349 H 578.211 -0.292487 -6.94384 0
M  V30 6350 H 581.402 0.0931605 -4.68007 0
M  V30 6351 H 581.575 -0.12374 -6.47882 0
M  V30 6352 N 574.981 1.5647 0.188427 0
M  V30 6353 C 576.258 1.71857 0.934058 0
M  V30 6354 C 576.638 0.641867 2.01105 0
M  V30 6355 O 575.986 -0.346098 2.25864 0
M  V30 6356 C 576.196 3.14431 1.5144 0
M  V30 6357 C 577.544 3.74869 1.99396 0
M  V30 6358 O 578.568 3.17601 1.61269 0
M  V30 6359 O 577.427 4.75387 2.69573 0
M  V30 6360 H 574.521 0.701186 0.438483 0
M  V30 6361 H 577.067 1.68768 0.177599 0
M  V30 6362 H 575.839 3.8427 0.738416 0
M  V30 6363 H 575.462 3.21775 2.33552 0
M  V30 6364 N 576.459 -0.456382 1.50847 0
M  V30 6365 C 577.389 -1.56025 1.73719 0
M  V30 6366 C 578.37 -1.5967 0.586473 0
M  V30 6367 O 579.555 -1.75702 0.827185 0
M  V30 6368 C 576.685 -2.94251 1.84483 0
M  V30 6369 C 575.639 -3.05471 2.99786 0
M  V30 6370 C 574.965 -4.45489 2.95709 0
M  V30 6371 C 576.265 -2.81318 4.40065 0
M  V30 6372 H 577.959 -1.37138 2.66146 0
M  V30 6373 H 575.505 -0.658299 1.28072 0
M  V30 6374 H 577.458 -3.71417 1.99067 0
M  V30 6375 H 576.182 -3.14328 0.886891 0
M  V30 6376 H 574.841 -2.30741 2.84876 0
M  V30 6377 H 574.489 -4.62505 1.97732 0
M  V30 6378 H 574.189 -4.53929 3.73125 0
M  V30 6379 H 575.713 -5.24655 3.12362 0
M  V30 6380 H 577.127 -3.48226 4.55425 0
M  V30 6381 H 575.524 -3.01188 5.19043 0
M  V30 6382 H 576.594 -1.7706 4.51418 0
M  V30 6383 N 577.937 -1.40673 -0.710563 0
M  V30 6384 C 578.9 -1.4108 -1.80635 0
M  V30 6385 C 579.9 -0.303783 -1.57904 0
M  V30 6386 O 581.09 -0.562937 -1.64853 0
M  V30 6387 C 578.222 -1.20748 -3.18799 0
M  V30 6388 H 579.415 -2.38612 -1.81671 0
M  V30 6389 H 576.968 -1.26595 -0.916704 0
M  V30 6390 H 577.703 -0.239964 -3.23411 0
M  V30 6391 H 577.488 -2.00941 -3.36698 0
M  V30 6392 H 578.978 -1.23833 -3.98817 0
M  V30 6393 N 579.415 0.9433 -1.26252 0
M  V30 6394 C 580.378 2.02326 -1.07689 0
M  V30 6395 C 581.378 1.60779 -0.0259174 0
M  V30 6396 O 582.568 1.72108 -0.269134 0
M  V30 6397 C 579.7 3.34886 -0.63752 0
M  V30 6398 H 580.893 2.20225 -2.0357 0
M  V30 6399 H 578.446 1.12197 -1.08819 0
M  V30 6400 H 579.181 3.22684 0.323377 0
M  V30 6401 H 578.966 3.66393 -1.39637 0
M  V30 6402 H 580.456 4.14231 -0.529418 0
M  V30 6403 N 580.893 1.08022 1.14757 0
M  V30 6404 C 582.309 0.807072 1.3769 0
M  V30 6405 C 582.509 -0.585504 1.92806 0
M  V30 6406 O 581.565 -1.34301 2.13821 0
M  V30 6407 C 582.878 1.88651 2.34161 0
M  V30 6408 C 584.426 1.91206 2.47809 0
M  V30 6409 C 584.901 2.98253 3.47576 0
M  V30 6410 N 586.392 2.974 3.55117 0
M  V30 6411 C 587.127 3.76872 4.32152 0
M  V30 6412 N 586.623 4.66212 5.12463 0
M  V30 6413 N 588.416 3.6519 4.27309 0
M  V30 6414 H 580.567 1.97824 0.77326 0
M  V30 6415 H 582.83 0.85826 0.402608 0
M  V30 6416 H 582.536 2.88749 2.00791 0
M  V30 6417 H 582.41 1.75244 3.3402 0
M  V30 6418 H 584.797 0.917564 2.80472 0
M  V30 6419 H 584.878 2.08691 1.47925 0
M  V30 6420 H 584.522 3.97907 3.15646 0
M  V30 6421 H 584.452 2.78014 4.47231 0
M  V30 6422 H 586.943 2.32643 2.97801 0
M  V30 6423 H 587.256 5.23468 5.68508 0
M  V30 6424 H 585.601 4.70257 5.11745 0
M  V30 6425 H 588.792 2.94765 3.63636 0
M  V30 6426 H 588.965 4.27366 4.87095 0
M  V30 6427 N 582.371 -1.3172 0.865308 0
M  V30 6428 C 583.319 -2.30569 0.306674 0
M  V30 6429 C 584.313 -1.59317 -0.575724 0
M  V30 6430 O 585.519 -1.73961 -0.462343 0
M  V30 6431 H 581.894 -0.747681 0.0804834 0
M  V30 6432 H 583.865 -2.75165 1.15441 0
M  V30 6433 C 582.614 -3.44358 -0.480952 0
M  V30 6434 H 581.937 -3.99354 0.18876 0
M  V30 6435 H 583.377 -4.15652 -0.837241 0
M  V30 6436 C 581.836 -2.92574 -1.67039 0
M  V30 6437 O 582.366 -2.90954 -2.76964 0
M  V30 6438 N 580.572 -2.48835 -1.50097 0
M  V30 6439 H 580.119 -2.50353 -0.606738 0
M  V30 6440 H 580.077 -2.14543 -2.29823 0
M  V30 6441 N 583.85 -0.624285 -1.44708 0
M  V30 6442 C 585.09 -0.129273 -2.03991 0
M  V30 6443 C 585.454 1.22321 -1.47992 0
M  V30 6444 O 586.654 1.80993 -1.98734 0
M  V30 6445 C 584.926 -0.108231 -3.57236 0
M  V30 6446 S 586.485 0.323158 -4.37608 0
M  V30 6447 H 583.303 -0.0577318 -0.708652 0
M  V30 6448 H 585.904 -0.826139 -1.77187 0
M  V30 6449 H 584.609 -1.0958 -3.955 0
M  V30 6450 H 584.139 0.610101 -3.8864 0
M  V30 6451 H 586.154 1.56894 -4.70743 0
M  V30 6452 N 585.328 1.53329 -0.364422 0
M  V30 6453 C 586.258 2.28627 0.474543 0
M  V30 6454 C 587.239 1.31009 1.08492 0
M  V30 6455 O 588.424 1.59878 1.10239 0
M  V30 6456 C 585.554 3.07465 1.61501 0
M  V30 6457 C 584.508 4.1276 1.13194 0
M  V30 6458 C 583.834 4.79674 2.36255 0
M  V30 6459 C 585.134 5.21847 0.217507 0
M  V30 6460 H 586.828 2.99005 -0.153656 0
M  V30 6461 H 584.374 1.43803 -0.0753406 0
M  V30 6462 H 586.327 3.58889 2.20855 0
M  V30 6463 H 585.051 2.34775 2.27042 0
M  V30 6464 H 583.71 3.62281 0.56109 0
M  V30 6465 H 583.358 4.03557 3.00251 0
M  V30 6466 H 583.058 5.50827 2.04606 0
M  V30 6467 H 584.582 5.33892 2.96297 0
M  V30 6468 H 585.996 5.6878 0.718493 0
M  V30 6469 H 584.393 6.00099 -0.00806408 0
M  V30 6470 H 585.463 4.7921 -0.740653 0
M  V30 6471 N 586.806 0.0935595 1.57322 0
M  V30 6472 C 588.052 -0.571355 1.94585 0
M  V30 6473 C 588.385 -1.67929 0.975366 0
M  V30 6474 O 587.66 -1.94498 0.00816206 0
M  V30 6475 C 587.943 -1.12797 3.41978 0
M  V30 6476 C 587.796 -0.0251881 4.49793 0
M  V30 6477 C 589.115 -2.02682 3.90651 0
M  V30 6478 H 586.234 -0.206223 0.70756 0
M  V30 6479 H 588.876 0.163956 1.89291 0
M  V30 6480 H 587.026 -1.75461 3.4662 0
M  V30 6481 H 588.698 0.608979 4.57263 0
M  V30 6482 H 586.941 0.641399 4.29032 0
M  V30 6483 H 587.612 -0.455433 5.50118 0
M  V30 6484 H 590.088 -1.49925 3.88152 0
M  V30 6485 H 588.964 -2.38555 4.94351 0
M  V30 6486 H 589.225 -2.94362 3.29854 0
M  V30 6487 N 588.284 -1.56567 -0.180126 0
M  V30 6488 C 589.509 -1.85975 -0.918041 0
M  V30 6489 C 589.934 -0.678888 -1.75422 0
M  V30 6490 O 589.292 0.372168 -1.77439 0
M  V30 6491 C 589.34 -3.13731 -1.77779 0
M  V30 6492 O 588.444 -2.95335 -2.87838 0
M  V30 6493 H 587.785 -0.61196 -0.257683 0
M  V30 6494 H 590.315 -2.03798 -0.180923 0
M  V30 6495 H 590.325 -3.4491 -2.17948 0
M  V30 6496 H 589 -3.99293 -1.16352 0
M  V30 6497 H 587.577 -2.7549 -2.51316 0
M  V30 6498 N 589.762 0.448376 -1.51087 0
M  V30 6499 C 590.987 1.22605 -1.6728 0
M  V30 6500 C 591.412 1.84524 -0.365045 0
M  V30 6501 O 590.77 1.6832 0.673642 0
M  V30 6502 C 590.818 2.29393 -2.78229 0
M  V30 6503 O 589.922 3.34608 -2.41063 0
M  V30 6504 H 589.263 0.359705 -0.558129 0
M  V30 6505 H 591.793 0.530903 -1.97592 0
M  V30 6506 H 591.803 2.74352 -3.01986 0
M  V30 6507 H 590.478 1.83701 -3.73131 0
M  V30 6508 H 589.055 2.95202 -2.27838 0
M  V30 6509 N 591.24 1.41047 0.703093 0
M  V30 6510 C 592.468 1.4334 1.49202 0
M  V30 6511 C 592.883 0.0365596 1.88765 0
M  V30 6512 O 592.24 -0.942419 1.56284 0
M  V30 6513 C 592.291 2.33538 2.75939 0
M  V30 6514 O 592.012 3.67786 2.38045 0
M  V30 6515 C 593.513 2.44555 3.6974 0
M  V30 6516 H 590.733 0.488472 0.460039 0
M  V30 6517 H 593.277 1.85245 0.86629 0
M  V30 6518 H 591.432 1.94962 3.34766 0
M  V30 6519 H 591.846 4.15816 3.19683 0
M  V30 6520 H 593.32 3.11849 4.55471 0
M  V30 6521 H 593.797 1.47447 4.1371 0
M  V30 6522 H 594.403 2.83735 3.16819 0
M  V30 6523 N 592.718 -0.936591 1.26751 0
M  V30 6524 C 593.958 -1.69796 1.13792 0
M  V30 6525 C 594.322 -1.89437 -0.312671 0
M  V30 6526 O 595.523 -2.62806 -0.564489 0
M  V30 6527 C 593.794 -3.03297 1.89065 0
M  V30 6528 S 595.353 -3.94461 1.92214 0
M  V30 6529 H 592.171 -0.583412 0.406389 0
M  V30 6530 H 594.773 -1.11575 1.60535 0
M  V30 6531 H 593.477 -2.86687 2.93665 0
M  V30 6532 H 593.008 -3.66575 1.42781 0
M  V30 6533 H 595.023 -4.85767 1.01215 0
M  V30 6534 N 594.196 -1.08629 -1.14182 0
M  V30 6535 C 595.445 -0.812271 -1.84621 0
M  V30 6536 C 595.758 0.664313 -1.83973 0
M  V30 6537 O 596.964 1.05357 -2.50224 0
M  V30 6538 C 595.42 -1.4031 -3.31423 0
M  V30 6539 C 595.028 -2.91164 -3.40481 0
M  V30 6540 C 596.772 -1.20767 -4.06959 0
M  V30 6541 C 594.679 -3.43373 -4.81507 0
M  V30 6542 H 593.609 -0.30019 -0.691666 0
M  V30 6543 H 596.26 -1.30798 -1.28701 0
M  V30 6544 H 594.642 -0.835096 -3.87094 0
M  V30 6545 H 595.816 -3.5412 -2.94848 0
M  V30 6546 H 594.131 -3.09646 -2.78403 0
M  V30 6547 H 596.728 -1.57237 -5.11058 0
M  V30 6548 H 597.071 -0.147664 -4.16038 0
M  V30 6549 H 597.604 -1.74274 -3.57594 0
M  V30 6550 H 594.343 -4.48958 -4.77616 0
M  V30 6551 H 593.863 -2.85176 -5.27669 0
M  V30 6552 H 595.542 -3.40095 -5.50404 0
M  V30 6553 N 595.674 1.31259 -0.872281 0
M  V30 6554 C 596.92 1.96913 -0.485083 0
M  V30 6555 C 597.253 1.68774 0.960667 0
M  V30 6556 O 596.528 0.985495 1.67685 0
M  V30 6557 C 596.811 3.52299 -0.745502 0
M  V30 6558 C 596.664 3.90002 -2.24095 0
M  V30 6559 C 597.983 4.39582 -0.213516 0
M  V30 6560 H 595.102 0.715252 -0.177716 0
M  V30 6561 H 597.744 1.55347 -1.09395 0
M  V30 6562 H 595.894 3.87835 -0.227276 0
M  V30 6563 H 597.566 3.64555 -2.82661 0
M  V30 6564 H 595.809 3.38526 -2.71261 0
M  V30 6565 H 596.48 4.98352 -2.37381 0
M  V30 6566 H 598.956 4.10882 -0.656902 0
M  V30 6567 H 597.832 5.47251 -0.42516 0
M  V30 6568 H 598.093 4.33158 0.884666 0
M  V30 6569 N 597.152 0.631951 1.44375 0
M  V30 6570 C 598.099 -0.0724807 2.30686 0
M  V30 6571 C 599.069 -0.835975 1.43529 0
M  V30 6572 O 600.254 -0.816849 1.7243 0
M  V30 6573 C 597.394 -1.04753 3.28817 0
M  V30 6574 C 596.507 -0.282367 4.31076 0
M  V30 6575 C 595.642 -1.2493 5.163 0
M  V30 6576 C 594.681 -0.473349 6.10267 0
M  V30 6577 N 593.818 -1.39079 6.88187 0
M  V30 6578 H 598.658 0.669477 2.90383 0
M  V30 6579 H 596.195 0.341927 1.43071 0
M  V30 6580 H 598.153 -1.62623 3.842 0
M  V30 6581 H 596.783 -1.75661 2.70819 0
M  V30 6582 H 595.835 0.412268 3.78159 0
M  V30 6583 H 597.147 0.321955 4.9776 0
M  V30 6584 H 596.301 -1.89931 5.76204 0
M  V30 6585 H 595.04 -1.88755 4.49692 0
M  V30 6586 H 594.045 0.190142 5.49471 0
M  V30 6587 H 595.27 0.16019 6.78911 0
M  V30 6588 H 593.216 -2.01623 6.24247 0
M  V30 6589 H 593.133 -0.840513 7.51313 0
M  V30 6590 H 594.401 -2.02961 7.52613 0
M  V30 6591 N 598.631 -1.53133 0.372548 0
M  V30 6592 C 599.88 -2.00539 -0.216115 0
M  V30 6593 C 600.193 -1.26374 -1.49295 0
M  V30 6594 O 601.399 -1.64404 -2.16064 0
M  V30 6595 C 599.855 -3.57253 -0.435678 0
M  V30 6596 C 599.463 -4.40302 0.82693 0
M  V30 6597 C 601.207 -4.12995 -0.981618 0
M  V30 6598 C 599.114 -5.88583 0.576567 0
M  V30 6599 H 598.044 -0.749246 -0.084536 0
M  V30 6600 H 600.695 -1.76771 0.492364 0
M  V30 6601 H 599.077 -3.77202 -1.20559 0
M  V30 6602 H 600.251 -4.32124 1.60017 0
M  V30 6603 H 598.566 -3.95699 1.29659 0
M  V30 6604 H 601.163 -5.21418 -1.18436 0
M  V30 6605 H 601.506 -3.68027 -1.94581 0
M  V30 6606 H 602.039 -3.96871 -0.271696 0
M  V30 6607 H 598.778 -6.37841 1.51128 0
M  V30 6608 H 598.298 -5.99592 -0.158047 0
M  V30 6609 H 599.977 -6.46676 0.204722 0
M  V30 6610 N 600.109 -0.101901 -1.5727 0
M  V30 6611 C 601.334 0.571759 -1.99363 0
M  V30 6612 C 601.759 1.60507 -0.980768 0
M  V30 6613 O 601.117 1.81231 0.0498517 0
M  V30 6614 C 601.165 1.18996 -3.404 0
M  V30 6615 O 600.269 2.30572 -3.41922 0
M  V30 6616 H 599.61 0.144449 -0.648098 0
M  V30 6617 H 602.14 -0.185325 -2.03759 0
M  V30 6618 H 602.15 1.52962 -3.78241 0
M  V30 6619 H 600.825 0.432984 -4.1364 0
M  V30 6620 H 599.402 1.98173 -3.15883 0
M  V30 6621 N 601.587 1.56661 0.17182 0
M  V30 6622 C 602.864 1.72838 0.915778 0
M  V30 6623 C 603.244 0.66316 2.00413 0
M  V30 6624 O 602.592 -0.322123 2.26218 0
M  V30 6625 C 602.802 3.16019 1.48097 0
M  V30 6626 C 604.15 3.76962 1.95408 0
M  V30 6627 O 605.174 3.19294 1.57892 0
M  V30 6628 O 604.033 4.78219 2.64516 0
M  V30 6629 H 601.127 0.705797 0.431021 0
M  V30 6630 H 603.673 1.68947 0.159689 0
M  V30 6631 H 602.445 3.85031 0.697618 0
M  V30 6632 H 602.068 3.24234 2.30126 0
M  V30 6633 N 603.065 -0.440357 1.51323 0
M  V30 6634 C 604.312 -1.19004 1.63842 0
M  V30 6635 C 604.64 -1.91266 0.35321 0
M  V30 6636 O 603.895 -1.84143 -0.662565 0
M  V30 6637 C 604.194 -2.2339 2.78984 0
M  V30 6638 C 603.86 -1.68162 4.18369 0
M  V30 6639 C 602.522 -1.52823 4.56288 0
M  V30 6640 C 604.874 -1.27524 5.05358 0
M  V30 6641 C 602.202 -0.953157 5.78906 0
M  V30 6642 C 604.554 -0.714474 6.28552 0
M  V30 6643 C 603.218 -0.547961 6.65247 0
M  V30 6644 H 602.488 -0.435468 0.59954 0
M  V30 6645 H 605.135 -0.481538 1.85347 0
M  V30 6646 H 603.44 -3.00267 2.51688 0
M  V30 6647 H 605.137 -2.81211 2.85869 0
M  V30 6648 H 601.727 -1.81077 3.8847 0
M  V30 6649 H 605.911 -1.38197 4.76671 0
M  V30 6650 H 601.167 -0.811882 6.05986 0
M  V30 6651 H 605.341 -0.391059 6.95301 0
M  V30 6652 H 602.968 -0.100222 7.60134 0
M  V30 6653 N 604.543 -1.41418 -0.695603 0
M  V30 6654 C 605.791 -1.40496 -1.45277 0
M  V30 6655 C 606.112 -0.0149538 -1.94994 0
M  V30 6656 O 605.382 0.9432 -1.71699 0
M  V30 6657 H 603.962 -0.517147 -0.539044 0
M  V30 6658 H 606.624 -1.76656 -0.823321 0
M  V30 6659 H 605.72 -2.09214 -2.31595 0
M  V30 6660 N 606.021 0.929856 -1.27246 0
M  V30 6661 C 606.954 2.03069 -1.04106 0
M  V30 6662 C 607.932 1.62556 0.0378417 0
M  V30 6663 O 609.116 1.88197 -0.106869 0
M  V30 6664 C 606.243 3.33718 -0.578778 0
M  V30 6665 C 605.289 3.93209 -1.65193 0
M  V30 6666 S 606.122 4.26068 -3.24386 0
M  V30 6667 C 607.278 5.598 -2.79954 0
M  V30 6668 H 607.511 2.22386 -1.97311 0
M  V30 6669 H 605.044 1.07269 -1.11053 0
M  V30 6670 H 607.002 4.09261 -0.31874 0
M  V30 6671 H 605.663 3.12328 0.333182 0
M  V30 6672 H 604.856 4.87482 -1.27973 0
M  V30 6673 H 604.458 3.24243 -1.86393 0
M  V30 6674 H 606.75 6.39004 -2.25123 0
M  V30 6675 H 607.693 6.01917 -3.72963 0
M  V30 6676 H 608.101 5.20219 -2.19164 0
M  V30 6677 N 607.499 1.09233 1.13605 0
M  V30 6678 C 608.727 0.848908 1.88683 0
M  V30 6679 C 609.142 -0.599667 1.79024 0
M  V30 6680 O 608.499 -1.41265 1.15544 0
M  V30 6681 C 608.55 1.27273 3.38355 0
M  V30 6682 O 608.271 2.66449 3.47759 0
M  V30 6683 C 609.772 1.0614 4.30406 0
M  V30 6684 H 606.992 0.305549 0.597395 0
M  V30 6685 H 609.536 1.4538 1.43823 0
M  V30 6686 H 607.691 0.711776 3.80805 0
M  V30 6687 H 608.105 2.84264 4.40788 0
M  V30 6688 H 609.579 1.40725 5.33761 0
M  V30 6689 H 610.056 -0.000960332 4.392 0
M  V30 6690 H 610.662 1.60821 3.93722 0
M  V30 6691 N 608.977 -1.30795 0.87923 0
M  V30 6692 C 610.393 -1.48981 0.57243 0
M  V30 6693 C 610.593 -1.80719 -0.891236 0
M  V30 6694 O 609.649 -1.89136 -1.67283 0
M  V30 6695 C 610.962 -2.61721 1.48063 0
M  V30 6696 C 612.51 -2.75603 1.48365 0
M  V30 6697 C 612.985 -3.91449 2.37763 0
M  V30 6698 N 614.476 -3.98751 2.35695 0
M  V30 6699 C 615.211 -4.87684 3.01583 0
M  V30 6700 N 614.707 -5.81454 3.76674 0
M  V30 6701 N 616.5 -4.81005 2.90844 0
M  V30 6702 H 608.651 -1.08465 1.82617 0
M  V30 6703 H 610.914 -0.536813 0.781368 0
M  V30 6704 H 610.62 -2.45073 2.52254 0
M  V30 6705 H 610.494 -3.58071 1.18596 0
M  V30 6706 H 612.881 -2.9166 0.44927 0
M  V30 6707 H 612.962 -1.79891 1.81859 0
M  V30 6708 H 612.606 -3.76149 3.41283 0
M  V30 6709 H 612.536 -4.86487 2.01589 0
M  V30 6710 H 615.027 -3.31668 1.81121 0
M  V30 6711 H 615.34 -6.46063 4.24054 0
M  V30 6712 H 613.685 -5.81403 3.80782 0
M  V30 6713 H 616.876 -4.06728 2.31711 0
M  V30 6714 H 617.049 -5.50107 3.42471 0
M  V30 6715 N 610.455 -0.639598 -1.44038 0
M  V30 6716 C 611.685 -0.154586 -2.06021 0
M  V30 6717 C 612.093 1.17951 -1.47933 0
M  V30 6718 O 611.436 1.73627 -0.59994 0
M  V30 6719 C 611.498 0.0255459 -3.59491 0
M  V30 6720 C 611.162 -1.2317 -4.40089 0
M  V30 6721 C 612.159 -2.15735 -4.73027 0
M  V30 6722 C 609.844 -1.46949 -4.80324 0
M  V30 6723 C 611.838 -3.30382 -5.45093 0
M  V30 6724 C 609.525 -2.61891 -5.52138 0
M  V30 6725 C 610.523 -3.53433 -5.84443 0
M  V30 6726 O 610.211 -4.6637 -6.54793 0
M  V30 6727 H 609.943 -0.0808543 -0.671147 0
M  V30 6728 H 612.497 -0.876541 -1.85758 0
M  V30 6729 H 610.727 0.802733 -3.78276 0
M  V30 6730 H 612.416 0.466184 -4.03214 0
M  V30 6731 H 613.182 -1.98602 -4.42473 0
M  V30 6732 H 609.061 -0.765815 -4.54595 0
M  V30 6733 H 612.605 -4.01856 -5.70226 0
M  V30 6734 H 608.502 -2.78964 -5.82108 0
M  V30 6735 H 609.27 -4.6546 -6.73267 0
M  V30 6736 N 611.933 1.52934 -0.380664 0
M  V30 6737 C 613.179 2.01765 0.20458 0
M  V30 6738 C 613.512 1.26696 1.47179 0
M  V30 6739 O 612.787 0.364936 1.91046 0
M  V30 6740 C 613.07 3.56869 0.481269 0
M  V30 6741 C 612.923 4.42617 -0.800629 0
M  V30 6742 C 614.242 4.2121 1.27554 0
M  V30 6743 H 611.361 0.733388 0.0728803 0
M  V30 6744 H 614.003 1.83068 -0.50853 0
M  V30 6745 H 612.153 3.72932 1.08875 0
M  V30 6746 H 613.825 4.38323 -1.43773 0
M  V30 6747 H 612.068 4.09977 -1.4178 0
M  V30 6748 H 612.739 5.49134 -0.561791 0
M  V30 6749 H 615.215 4.09072 0.761514 0
M  V30 6750 H 614.091 5.29732 1.43788 0
M  V30 6751 H 614.352 3.78269 2.28833 0
M  V30 6752 N 613.412 0.11024 1.57214 0
M  V30 6753 C 614.342 -0.840002 2.17867 0
M  V30 6754 C 615.323 -1.28352 1.11624 0
M  V30 6755 O 616.508 -1.3477 1.39824 0
M  V30 6756 C 613.638 -2.09349 2.77111 0
M  V30 6757 C 612.592 -1.78807 3.8886 0
M  V30 6758 C 611.918 -3.11112 4.34872 0
M  V30 6759 C 613.218 -1.0632 5.11364 0
M  V30 6760 H 614.912 -0.334608 2.97524 0
M  V30 6761 H 612.458 -0.159502 1.43114 0
M  V30 6762 H 614.411 -2.76275 3.18198 0
M  V30 6763 H 613.135 -2.62198 1.9473 0
M  V30 6764 H 611.794 -1.14273 3.48335 0
M  V30 6765 H 611.442 -3.61877 3.49362 0
M  V30 6766 H 611.142 -2.91453 5.10224 0
M  V30 6767 H 612.666 -3.79171 4.78604 0
M  V30 6768 H 614.08 -1.63383 5.49526 0
M  V30 6769 H 612.477 -0.967876 5.92243 0
M  V30 6770 H 613.547 -0.0484569 4.84876 0
M  V30 6771 N 614.89 -1.56749 -0.16351 0
M  V30 6772 C 616.167 -1.73321 -0.906599 0
M  V30 6773 C 616.547 -0.673779 -2.00059 0
M  V30 6774 O 615.895 0.310121 -2.26386 0
M  V30 6775 C 616.105 -3.168 -1.46419 0
M  V30 6776 C 617.453 -3.77993 -1.93407 0
M  V30 6777 O 618.477 -3.20127 -1.56196 0
M  V30 6778 O 617.336 -4.79615 -2.61976 0
M  V30 6779 H 614.43 -0.708073 -0.427272 0
M  V30 6780 H 616.976 -1.69029 -0.150727 0
M  V30 6781 H 615.748 -3.85396 -0.677189 0
M  V30 6782 H 615.371 -3.2545 -2.28403 0
M  V30 6783 N 616.368 0.432326 -1.51554 0
M  V30 6784 C 617.645 1.19288 -1.55015 0
M  V30 6785 C 618.025 2.08701 -0.317375 0
M  V30 6786 O 617.373 2.17602 0.697243 0
M  V30 6787 C 617.583 1.99037 -2.86679 0
M  V30 6788 C 618.931 2.55907 -3.38817 0
M  V30 6789 O 619.955 2.09243 -2.88263 0
M  V30 6790 O 618.814 3.41029 -4.27038 0
M  V30 6791 H 615.908 0.543369 -0.623441 0
M  V30 6792 H 618.454 0.440988 -1.6387 0
M  V30 6793 H 617.226 1.33397 -3.6786 0
M  V30 6794 H 616.849 2.81281 -2.8101 0
M  V30 6795 N 617.846 1.41785 0.688094 0
M  V30 6796 C 618.756 1.46596 1.83158 0
M  V30 6797 C 619.772 0.355862 1.70322 0
M  V30 6798 O 620.948 0.604737 1.92106 0
M  V30 6799 C 618.013 1.35322 3.192 0
M  V30 6800 C 617.074 2.56711 3.4409 0
M  V30 6801 C 616.307 2.45965 4.73642 0
M  V30 6802 O 616.53 1.48827 5.50642 0
M  V30 6803 O 615.464 3.35859 4.99482 0
M  V30 6804 H 619.29 2.43083 1.82056 0
M  V30 6805 H 616.875 1.23404 0.842126 0
M  V30 6806 H 618.757 1.31347 4.00407 0
M  V30 6807 H 617.432 0.419536 3.2097 0
M  V30 6808 H 616.339 2.66262 2.62784 0
M  V30 6809 H 617.672 3.48933 3.47141 0
M  V30 6810 N 619.324 -0.923095 1.27737 0
M  V30 6811 C 620.554 -1.70277 1.17001 0
M  V30 6812 C 620.962 -1.87188 -0.275199 0
M  V30 6813 O 620.305 -1.39195 -1.19877 0
M  V30 6814 C 620.367 -3.11976 1.78637 0
M  V30 6815 C 620.031 -3.18386 3.27841 0
M  V30 6816 C 621.028 -3.00287 4.2441 0
M  V30 6817 C 618.713 -3.41198 3.68632 0
M  V30 6818 C 620.707 -3.04896 5.59747 0
M  V30 6819 C 618.394 -3.4544 5.04097 0
M  V30 6820 C 619.392 -3.27309 5.99465 0
M  V30 6821 O 619.08 -3.31295 7.32461 0
M  V30 6822 H 618.812 -0.539366 0.407505 0
M  V30 6823 H 621.366 -1.16446 1.69202 0
M  V30 6824 H 619.596 -3.67308 1.20919 0
M  V30 6825 H 621.285 -3.7193 1.6255 0
M  V30 6826 H 622.051 -2.825 3.94232 0
M  V30 6827 H 617.93 -3.54359 2.94873 0
M  V30 6828 H 621.474 -2.90662 6.34162 0
M  V30 6829 H 617.371 -3.62753 5.33929 0
M  V30 6830 H 618.139 -3.47719 7.40968 0
M  V30 6831 N 620.802 -1.09834 -1.13024 0
M  V30 6832 C 622.048 -0.83819 -1.84668 0
M  V30 6833 C 622.381 0.634645 -1.83537 0
M  V30 6834 O 621.656 1.46753 -1.27647 0
M  V30 6835 C 621.939 -1.37933 -3.32636 0
M  V30 6836 C 621.792 -2.91857 -3.42257 0
M  V30 6837 C 623.111 -1.01654 -4.28199 0
M  V30 6838 H 620.23 -0.30595 -0.670495 0
M  V30 6839 H 622.872 -1.36044 -1.32635 0
M  V30 6840 H 621.022 -0.935111 -3.77078 0
M  V30 6841 H 622.694 -3.44759 -3.06495 0
M  V30 6842 H 620.937 -3.28776 -2.83 0
M  V30 6843 H 621.608 -3.24799 -4.46329 0
M  V30 6844 H 624.084 -1.39973 -3.9185 0
M  V30 6845 H 622.96 -1.42217 -5.30156 0
M  V30 6846 H 623.221 0.0747794 -4.42037 0
M  V30 6847 N 622.28 1.30327 -0.886154 0
M  V30 6848 C 623.505 2.0079 -0.519425 0
M  V30 6849 C 623.93 1.65979 0.885013 0
M  V30 6850 O 623.288 0.877043 1.58675 0
M  V30 6851 C 623.336 3.53686 -0.702758 0
M  V30 6852 O 622.44 4.11637 0.250828 0
M  V30 6853 H 621.781 0.63171 -0.204544 0
M  V30 6854 H 624.311 1.66145 -1.19402 0
M  V30 6855 H 624.321 4.03531 -0.602207 0
M  V30 6856 H 622.996 3.78361 -1.72673 0
M  V30 6857 H 621.573 3.72755 0.103873 0
M  V30 6858 N 623.758 0.647228 1.43697 0
M  V30 6859 C 624.983 0.164083 2.0675 0
M  V30 6860 C 625.408 -1.15892 1.48158 0
M  V30 6861 O 624.766 -1.71459 0.589194 0
M  V30 6862 C 624.814 0.0800368 3.60511 0
M  V30 6863 O 623.918 -0.959453 4.01084 0
M  V30 6864 H 623.259 0.0921288 0.657578 0
M  V30 6865 H 625.789 0.88846 1.84303 0
M  V30 6866 H 625.799 -0.105263 4.07864 0
M  V30 6867 H 624.474 1.04586 4.02535 0
M  V30 6868 H 623.051 -0.747425 3.65333 0
M  V30 6869 N 625.236 -1.5273 0.388769 0
M  V30 6870 C 626.483 -2.01573 -0.19359 0
M  V30 6871 C 626.811 -1.27525 -1.46859 0
M  V30 6872 O 626.066 -0.363926 -1.92286 0
M  V30 6873 C 626.365 -3.53765 -0.508445 0
M  V30 6874 C 626.031 -4.4582 0.674947 0
M  V30 6875 C 624.693 -4.70703 0.999596 0
M  V30 6876 C 627.045 -5.00138 1.46666 0
M  V30 6877 C 624.373 -5.47155 2.11751 0
M  V30 6878 C 626.725 -5.77812 2.57518 0
M  V30 6879 C 625.389 -6.00975 2.90492 0
M  V30 6880 H 624.659 -0.737606 -0.0708397 0
M  V30 6881 H 627.306 -1.84134 0.526006 0
M  V30 6882 H 625.611 -3.69274 -1.30936 0
M  V30 6883 H 627.308 -3.8905 -0.971664 0
M  V30 6884 H 623.898 -4.26616 0.411906 0
M  V30 6885 H 628.082 -4.8084 1.22909 0
M  V30 6886 H 623.338 -5.63314 2.3767 0
M  V30 6887 H 627.512 -6.18904 3.19267 0
M  V30 6888 H 625.139 -6.59998 3.77236 0
M  V30 6889 N 626.714 -0.118576 -1.57153 0
M  V30 6890 C 627.962 0.538461 -1.94795 0
M  V30 6891 C 628.283 1.67243 -1.00274 0
M  V30 6892 O 627.553 1.95811 -0.0589692 0
M  V30 6893 H 626.133 0.201904 -0.719197 0
M  V30 6894 H 628.795 -0.187418 -1.93997 0
M  V30 6895 H 627.891 0.933315 -2.97818 0
M  V30 6896 N 628.193 1.56834 0.155195 0
M  V30 6897 C 629.156 1.96748 1.17571 0
M  V30 6898 C 630.156 0.853006 1.3631 0
M  V30 6899 O 631.346 1.11978 1.33441 0
M  V30 6900 C 628.478 2.27631 2.53765 0
M  V30 6901 H 629.671 2.88085 0.833498 0
M  V30 6902 H 627.224 1.51141 0.398242 0
M  V30 6903 H 627.959 1.39059 2.92973 0
M  V30 6904 H 627.744 3.0888 2.41527 0
M  V30 6905 H 629.234 2.59377 3.27282 0
M  V30 6906 N 629.671 -0.424282 1.51781 0
M  V30 6907 C 630.618 -1.51591 1.74037 0
M  V30 6908 C 631.588 -1.55556 0.582358 0
M  V30 6909 O 632.773 -1.72364 0.818245 0
M  V30 6910 C 629.913 -2.89188 1.8832 0
M  V30 6911 C 629.026 -2.9465 3.1592 0
M  V30 6912 C 628.161 -4.23452 3.20721 0
M  V30 6913 C 627.2 -4.22831 4.42584 0
M  V30 6914 N 626.337 -5.43178 4.44862 0
M  V30 6915 H 631.177 -1.31917 2.67212 0
M  V30 6916 H 628.714 -0.640599 1.32419 0
M  V30 6917 H 630.672 -3.69044 1.94583 0
M  V30 6918 H 629.302 -3.07392 0.985402 0
M  V30 6919 H 628.354 -2.07378 3.18902 0
M  V30 6920 H 629.666 -2.90055 4.05795 0
M  V30 6921 H 628.82 -5.1169 3.25973 0
M  V30 6922 H 627.559 -4.30722 2.28757 0
M  V30 6923 H 626.564 -3.32984 4.37495 0
M  V30 6924 H 627.789 -4.17213 5.35826 0
M  V30 6925 H 625.735 -5.51145 3.55775 0
M  V30 6926 H 625.652 -5.40515 5.28563 0
M  V30 6927 H 626.92 -6.33412 4.54324 0
M  V30 6928 N 631.149 -1.42148 -0.680565 0
M  V30 6929 C 632.396 -1.4231 -1.44063 0
M  V30 6930 C 632.724 -0.037488 -1.94464 0
M  V30 6931 O 631.979 0.953184 -1.70918 0
M  V30 6932 C 632.278 -2.38945 -2.65782 0
M  V30 6933 C 631.944 -3.85455 -2.33956 0
M  V30 6934 C 630.606 -4.25364 -2.24987 0
M  V30 6935 C 632.958 -4.77895 -2.08004 0
M  V30 6936 C 630.286 -5.55701 -1.88184 0
M  V30 6937 C 632.638 -6.08568 -1.72706 0
M  V30 6938 C 631.302 -6.47482 -1.62244 0
M  V30 6939 H 630.572 -0.520748 -0.527164 0
M  V30 6940 H 633.219 -1.7505 -0.776524 0
M  V30 6941 H 631.524 -1.99511 -3.37198 0
M  V30 6942 H 633.221 -2.36336 -3.23954 0
M  V30 6943 H 629.811 -3.53855 -2.41836 0
M  V30 6944 H 633.995 -4.47854 -2.1387 0
M  V30 6945 H 629.251 -5.84718 -1.78648 0
M  V30 6946 H 633.425 -6.79688 -1.5165 0
M  V30 6947 H 631.052 -7.48387 -1.33496 0
M  V30 6948 N 632.627 0.916307 -1.28225 0
M  V30 6949 C 634.038 1.48024 -1.13779 0
M  V30 6950 C 634.389 1.94289 0.273139 0
M  V30 6951 O 633.514 1.82226 1.16716 0
M  V30 6952 C 634.109 2.69029 -2.05935 0
M  V30 6953 C 632.668 3.2161 -1.95561 0
M  V30 6954 C 631.815 1.94321 -1.97825 0
M  V30 6955 H 634.766 0.729272 -1.40951 0
M  V30 6956 H 634.787 3.44204 -1.62184 0
M  V30 6957 H 634.299 2.35325 -3.08616 0
M  V30 6958 H 632.4 3.60045 -0.959076 0
M  V30 6959 H 632.513 3.87032 -2.82388 0
M  V30 6960 H 630.877 2.1131 -1.42198 0
M  V30 6961 H 631.66 1.62917 -3.0218 0
M  V30 6962 N 634.105 1.10431 1.1244 0
M  V30 6963 C 635.354 0.841539 1.83306 0
M  V30 6964 C 635.667 -0.634961 1.85007 0
M  V30 6965 O 636.873 -1.01363 2.51869 0
M  V30 6966 C 635.329 1.45565 3.29149 0
M  V30 6967 C 634.937 2.96544 3.35806 0
M  V30 6968 C 636.681 1.27227 4.04986 0
M  V30 6969 C 634.588 3.5099 4.75983 0
M  V30 6970 H 633.518 0.311156 0.686803 0
M  V30 6971 H 636.169 1.32829 1.26604 0
M  V30 6972 H 634.551 0.896574 3.85717 0
M  V30 6973 H 635.725 3.58766 2.89177 0
M  V30 6974 H 634.04 3.14036 2.73442 0
M  V30 6975 H 636.637 1.65348 5.08492 0
M  V30 6976 H 636.98 0.213834 4.1575 0
M  V30 6977 H 637.513 1.79941 3.54776 0
M  V30 6978 H 634.252 4.56499 4.70413 0
M  V30 6979 H 633.772 2.93535 5.23065 0
M  V30 6980 H 635.451 3.48808 5.44924 0
M  V30 6981 N 635.583 -1.29855 0.893053 0
M  V30 6982 C 636.53 -2.27909 0.364161 0
M  V30 6983 C 637.5 -1.56726 -0.550093 0
M  V30 6984 O 638.685 -1.84747 -0.47677 0
M  V30 6985 C 635.825 -3.42678 -0.408178 0
M  V30 6986 C 634.938 -4.28659 0.536212 0
M  V30 6987 C 634.073 -5.30599 -0.252521 0
M  V30 6988 C 633.112 -6.08234 0.686822 0
M  V30 6989 N 632.249 -7.02068 -0.0670902 0
M  V30 6990 H 637.089 -2.72531 1.20544 0
M  V30 6991 H 634.626 -1.34047 0.605779 0
M  V30 6992 H 636.584 -4.07986 -0.871962 0
M  V30 6993 H 635.214 -2.99103 -1.21397 0
M  V30 6994 H 634.266 -3.63584 1.1185 0
M  V30 6995 H 635.578 -4.8274 1.25552 0
M  V30 6996 H 634.732 -6.01694 -0.777801 0
M  V30 6997 H 633.471 -4.77233 -1.005 0
M  V30 6998 H 632.476 -5.3601 1.22366 0
M  V30 6999 H 633.701 -6.63689 1.43852 0
M  V30 7000 H 631.647 -6.5108 -0.801955 0
M  V30 7001 H 631.564 -7.53675 0.59243 0
M  V30 7002 H 632.832 -7.77392 -0.572851 0
M  V30 7003 N 637.061 -0.65484 -1.43351 0
M  V30 7004 C 638.307 -0.177749 -2.02622 0
M  V30 7005 C 638.662 1.19553 -1.50748 0
M  V30 7006 O 637.955 1.78683 -0.691599 0
M  V30 7007 C 638.149 -0.130424 -3.57162 0
M  V30 7008 C 637.978 -1.49757 -4.24032 0
M  V30 7009 C 636.748 -2.09036 -4.60035 0
M  V30 7010 C 638.946 -2.4363 -4.52934 0
M  V30 7011 N 636.928 -3.3874 -5.11985 0
M  V30 7012 C 638.299 -3.57968 -5.0622 0
M  V30 7013 C 640.354 -2.42412 -4.34903 0
M  V30 7014 C 639.057 -4.71314 -5.43374 0
M  V30 7015 C 641.083 -3.5484 -4.7312 0
M  V30 7016 C 640.445 -4.67903 -5.26541 0
M  V30 7017 H 636.544 -0.10951 -0.774294 0
M  V30 7018 H 639.128 -0.863495 -1.74505 0
M  V30 7019 H 637.299 0.524671 -3.8484 0
M  V30 7020 H 639.031 0.35769 -4.03116 0
M  V30 7021 H 635.786 -1.61729 -4.4513 0
M  V30 7022 H 636.21 -4.05116 -5.42412 0
M  V30 7023 H 640.852 -1.56236 -3.92874 0
M  V30 7024 H 638.57 -5.5818 -5.84346 0
M  V30 7025 H 642.156 -3.55101 -4.60863 0
M  V30 7026 H 641.036 -5.5346 -5.55564 0
M  V30 7027 N 638.539 1.52521 -0.396863 0
M  V30 7028 C 639.764 2.06571 0.185258 0
M  V30 7029 C 640.189 1.26605 1.39115 0
M  V30 7030 O 639.547 0.293055 1.78916 0
M  V30 7031 C 639.595 3.5674 0.526189 0
M  V30 7032 O 638.699 3.7929 1.61903 0
M  V30 7033 H 638.04 0.663712 0.0195474 0
M  V30 7034 H 640.57 1.966 -0.566519 0
M  V30 7035 H 640.58 4.00311 0.788338 0
M  V30 7036 H 639.255 4.14379 -0.355397 0
M  V30 7037 H 637.832 3.47605 1.35 0
M  V30 7038 N 640.017 0.126909 1.57088 0
M  V30 7039 C 641.428 -0.397201 1.82426 0
M  V30 7040 C 641.779 -1.66084 1.04453 0
M  V30 7041 O 640.904 -2.14534 0.283552 0
M  V30 7042 C 641.499 -0.727411 3.30899 0
M  V30 7043 C 640.058 -1.19612 3.56889 0
M  V30 7044 C 639.205 -0.20885 2.76512 0
M  V30 7045 H 642.156 0.351924 1.54749 0
M  V30 7046 H 642.177 -1.58407 3.45959 0
M  V30 7047 H 641.689 0.19247 3.87622 0
M  V30 7048 H 639.79 -2.13263 3.05532 0
M  V30 7049 H 639.903 -1.13598 4.65438 0
M  V30 7050 H 638.267 -0.697479 2.44964 0
M  V30 7051 H 639.05 0.704267 3.35998 0
M  V30 7052 N 641.495 -1.56914 -0.146875 0
M  V30 7053 C 642.906 -1.72799 -0.706928 0
M  V30 7054 C 643.257 -0.741329 -1.81656 0
M  V30 7055 O 642.382 0.0920162 -2.16204 0
M  V30 7056 C 642.977 -3.13317 -1.28911 0
M  V30 7057 C 641.536 -3.30803 -1.79573 0
M  V30 7058 C 640.683 -2.68725 -0.684252 0
M  V30 7059 H 643.634 -1.58504 0.0787931 0
M  V30 7060 H 643.655 -3.13323 -2.15891 0
M  V30 7061 H 643.167 -3.85104 -0.481284 0
M  V30 7062 H 641.268 -2.64012 -2.62923 0
M  V30 7063 H 641.381 -4.38754 -1.92436 0
M  V30 7064 H 639.745 -2.29196 -1.11091 0
M  V30 7065 H 640.528 -3.43117 0.112134 0
M  V30 7066 N 642.974 0.416227 -1.52004 0
M  V30 7067 C 643.884 1.53147 -1.77717 0
M  V30 7068 C 644.9 1.609 -0.662368 0
M  V30 7069 O 646.076 1.77747 -0.946991 0
M  V30 7070 C 643.141 2.88948 -1.91598 0
M  V30 7071 C 642.202 2.9114 -3.15493 0
M  V30 7072 C 641.435 4.20464 -3.28703 0
M  V30 7073 O 641.658 5.13981 -2.47345 0
M  V30 7074 O 640.592 4.29368 -4.21813 0
M  V30 7075 H 644.418 1.34357 -2.72363 0
M  V30 7076 H 642.003 0.601373 -1.36762 0
M  V30 7077 H 643.885 3.69505 -2.02593 0
M  V30 7078 H 642.56 3.07821 -1.00141 0
M  V30 7079 H 641.467 2.09461 -3.09962 0
M  V30 7080 H 642.8 2.77216 -4.06709 0
M  V30 7081 N 644.452 1.42507 0.673017 0
M  V30 7082 C 645.698 1.43284 1.43519 0
M  V30 7083 C 646.031 0.049668 1.94136 0
M  V30 7084 O 645.306 -0.926369 1.71022 0
M  V30 7085 C 645.589 2.45874 2.63093 0
M  V30 7086 C 645.442 3.93388 2.18096 0
M  V30 7087 C 646.761 2.45431 3.6531 0
M  V30 7088 H 643.88 0.521752 0.520522 0
M  V30 7089 H 646.522 1.73932 0.764701 0
M  V30 7090 H 644.672 2.19869 3.20296 0
M  V30 7091 H 646.344 4.30379 1.66046 0
M  V30 7092 H 644.587 4.07169 1.49652 0
M  V30 7093 H 645.258 4.60752 3.03993 0
M  V30 7094 H 647.734 2.68561 3.17827 0
M  V30 7095 H 646.61 3.19189 4.46553 0
M  V30 7096 H 646.871 1.48092 4.16559 0
M  V30 7097 N 645.93 -0.909495 1.28709 0
M  V30 7098 C 647.177 -1.65905 1.16111 0
M  V30 7099 C 647.505 -1.92334 -0.289436 0
M  V30 7100 O 646.76 -1.52495 -1.22653 0
M  V30 7101 C 647.059 -3.02117 1.90945 0
M  V30 7102 C 646.725 -2.95332 3.40719 0
M  V30 7103 C 645.387 -2.93189 3.81567 0
M  V30 7104 C 647.739 -2.85264 4.36204 0
M  V30 7105 C 645.067 -2.78784 5.16233 0
M  V30 7106 C 647.419 -2.724 5.70948 0
M  V30 7107 C 646.083 -2.68617 6.11066 0
M  V30 7108 H 645.353 -0.60709 0.42488 0
M  V30 7109 H 648 -1.05932 1.59533 0
M  V30 7110 H 646.305 -3.65901 1.40085 0
M  V30 7111 H 648.002 -3.59026 1.7861 0
M  V30 7112 H 644.592 -2.97797 3.08245 0
M  V30 7113 H 648.776 -2.86005 4.05605 0
M  V30 7114 H 644.032 -2.74254 5.46438 0
M  V30 7115 H 648.206 -2.63579 6.44592 0
M  V30 7116 H 645.833 -2.57213 7.15364 0
M  V30 7117 N 647.408 -1.11026 -1.11852 0
M  V30 7118 C 648.338 -0.786812 -2.19844 0
M  V30 7119 C 649.319 0.242935 -1.68356 0
M  V30 7120 O 650.504 0.107355 -1.93903 0
M  V30 7121 C 647.634 -0.224516 -3.46574 0
M  V30 7122 C 646.588 -1.18564 -4.1125 0
M  V30 7123 C 645.914 -0.484261 -5.32503 0
M  V30 7124 C 647.214 -2.53465 -4.56676 0
M  V30 7125 H 648.908 -1.68978 -2.47158 0
M  V30 7126 H 646.454 -0.813906 -1.18792 0
M  V30 7127 H 648.407 0.0139435 -4.21398 0
M  V30 7128 H 647.131 0.713722 -3.18706 0
M  V30 7129 H 645.79 -1.40966 -3.38414 0
M  V30 7130 H 645.438 0.458646 -5.00905 0
M  V30 7131 H 645.138 -1.12526 -5.76725 0
M  V30 7132 H 646.662 -0.254492 -6.10069 0
M  V30 7133 H 648.076 -2.35177 -5.22843 0
M  V30 7134 H 646.473 -3.13507 -5.11697 0
M  V30 7135 H 647.543 -3.13008 -3.70343 0
M  V30 7136 N 648.886 1.2938 -0.899927 0
M  V30 7137 C 650.133 1.9555 -0.525963 0
M  V30 7138 C 650.461 1.70945 0.927789 0
M  V30 7139 O 649.716 1.01545 1.67293 0
M  V30 7140 C 650.015 3.49114 -0.765113 0
M  V30 7141 C 649.681 3.93796 -2.19626 0
M  V30 7142 C 648.343 4.05707 -2.58758 0
M  V30 7143 C 650.695 4.16883 -3.12823 0
M  V30 7144 C 648.023 4.38074 -3.90267 0
M  V30 7145 C 650.375 4.50725 -4.4388 0
M  V30 7146 C 649.039 4.60845 -4.82885 0
M  V30 7147 H 648.309 0.715569 -0.192463 0
M  V30 7148 H 650.956 1.53972 -1.13863 0
M  V30 7149 H 649.261 3.91738 -0.069531 0
M  V30 7150 H 650.958 3.98409 -0.455144 0
M  V30 7151 H 647.548 3.85042 -1.88256 0
M  V30 7152 H 651.732 4.07147 -2.83804 0
M  V30 7153 H 646.988 4.44112 -4.20207 0
M  V30 7154 H 651.162 4.67538 -5.16121 0
M  V30 7155 H 648.789 4.85681 -5.84823 0
M  V30 7156 N 650.364 0.662433 1.43002 0
M  V30 7157 C 651.312 -0.035345 2.32573 0
M  V30 7158 C 652.306 -0.803505 1.49131 0
M  V30 7159 O 653.512 -0.712865 1.65282 0
M  V30 7160 H 649.887 -0.0302194 0.751393 0
M  V30 7161 H 651.858 0.737686 2.89138 0
M  V30 7162 C 650.607 -0.981575 3.33557 0
M  V30 7163 H 649.93 -0.399914 3.97795 0
M  V30 7164 H 651.37 -1.43873 3.98844 0
M  V30 7165 C 649.829 -2.08204 2.64863 0
M  V30 7166 O 650.359 -3.16698 2.47113 0
M  V30 7167 N 648.565 -1.85022 2.24088 0
M  V30 7168 H 648.112 -0.967909 2.38724 0
M  V30 7169 H 648.07 -2.58845 1.78457 0
M  V30 7170 N 651.842 -1.52309 0.404946 0
M  V30 7171 C 652.789 -2.26898 -0.422597 0
M  V30 7172 C 653.759 -1.2914 -1.04461 0
M  V30 7173 O 654.944 -1.57996 -1.06967 0
M  V30 7174 C 652.084 -3.09053 -1.53559 0
M  V30 7175 C 651.197 -4.21762 -0.934908 0
M  V30 7176 C 650.332 -4.91283 -2.02025 0
M  V30 7177 C 649.371 -5.95962 -1.39628 0
M  V30 7178 N 648.508 -6.59017 -2.42159 0
M  V30 7179 H 653.348 -2.97188 0.219903 0
M  V30 7180 H 650.885 -1.46607 0.120282 0
M  V30 7181 H 652.843 -3.54987 -2.19181 0
M  V30 7182 H 651.473 -2.40942 -2.14818 0
M  V30 7183 H 650.525 -3.80029 -0.167854 0
M  V30 7184 H 651.837 -4.96864 -0.439073 0
M  V30 7185 H 650.991 -5.40601 -2.75383 0
M  V30 7186 H 649.73 -4.15741 -2.54973 0
M  V30 7187 H 648.735 -5.45968 -0.648023 0
M  V30 7188 H 649.96 -6.73445 -0.874553 0
M  V30 7189 H 647.906 -5.86306 -2.94247 0
M  V30 7190 H 647.823 -7.2978 -1.97376 0
M  V30 7191 H 649.091 -7.12974 -3.15099 0
M  V30 7192 N 653.32 -0.135238 -1.57019 0
M  V30 7193 C 654.55 0.525303 -1.9981 0
M  V30 7194 C 654.958 1.59724 -1.01415 0
M  V30 7195 O 654.301 1.837 -0.00130938 0
M  V30 7196 C 654.363 1.19578 -3.3903 0
M  V30 7197 C 654.027 0.269855 -4.56203 0
M  V30 7198 C 655.024 -0.497905 -5.1751 0
M  V30 7199 C 652.709 0.176188 -5.01991 0
M  V30 7200 C 654.703 -1.3469 -6.23007 0
M  V30 7201 C 652.39 -0.676422 -6.07345 0
M  V30 7202 C 653.388 -1.43658 -6.67721 0
M  V30 7203 O 653.076 -2.27501 -7.71037 0
M  V30 7204 H 652.808 0.142296 -0.660854 0
M  V30 7205 H 655.362 -0.223272 -2.04183 0
M  V30 7206 H 653.592 1.99176 -3.3146 0
M  V30 7207 H 655.281 1.75486 -3.66005 0
M  V30 7208 H 656.047 -0.435507 -4.83041 0
M  V30 7209 H 651.926 0.757583 -4.54733 0
M  V30 7210 H 655.47 -1.9407 -6.70062 0
M  V30 7211 H 651.367 -0.740154 -6.41243 0
M  V30 7212 H 652.135 -2.20619 -7.88206 0
M  V30 7213 N 654.798 1.5699 0.138552 0
M  V30 7214 C 656.023 1.88344 0.86841 0
M  V30 7215 C 656.448 0.725159 1.7356 0
M  V30 7216 O 655.806 -0.324992 1.78363 0
M  V30 7217 C 655.854 3.18334 1.69398 0
M  V30 7218 O 654.958 3.02863 2.79907 0
M  V30 7219 H 654.299 0.618577 0.241367 0
M  V30 7220 H 656.829 2.04207 0.126826 0
M  V30 7221 H 656.839 3.50567 2.08726 0
M  V30 7222 H 655.514 4.02238 1.05725 0
M  V30 7223 H 654.091 2.82056 2.43924 0
M  V30 7224 N 656.276 -0.40816 1.52223 0
M  V30 7225 C 657.501 -1.18127 1.70472 0
M  V30 7226 C 657.926 -1.83491 0.41384 0
M  V30 7227 O 657.284 -1.70047 -0.628778 0
M  V30 7228 C 657.332 -2.21935 2.84213 0
M  V30 7229 O 656.436 -3.28099 2.4985 0
M  V30 7230 H 655.777 -0.344781 0.56747 0
M  V30 7231 H 658.307 -0.478328 1.9893 0
M  V30 7232 H 658.317 -2.66248 3.09153 0
M  V30 7233 H 656.992 -1.73744 3.7787 0
M  V30 7234 H 655.569 -2.89058 2.35584 0
M  V30 7235 N 657.755 -1.42862 -0.66545 0
M  V30 7236 C 658.702 -1.4707 -1.77874 0
M  V30 7237 C 659.672 -0.321654 -1.62956 0
M  V30 7238 O 660.857 -0.52707 -1.83376 0
M  V30 7239 C 657.997 -1.38788 -3.15962 0
M  V30 7240 C 657.11 -2.63801 -3.42101 0
M  V30 7241 C 656.245 -2.47594 -4.69969 0
M  V30 7242 C 655.284 -3.67936 -4.89172 0
M  V30 7243 N 654.421 -3.50614 -6.08288 0
M  V30 7244 H 659.261 -2.42204 -1.73613 0
M  V30 7245 H 656.798 -1.20239 -0.847401 0
M  V30 7246 H 658.756 -1.31982 -3.95773 0
M  V30 7247 H 657.386 -0.472431 -3.19324 0
M  V30 7248 H 656.438 -2.80935 -2.56475 0
M  V30 7249 H 657.75 -3.53228 -3.52181 0
M  V30 7250 H 656.904 -2.38427 -5.57886 0
M  V30 7251 H 655.643 -1.55672 -4.62188 0
M  V30 7252 H 654.648 -3.77525 -3.99694 0
M  V30 7253 H 655.873 -4.60851 -4.98792 0
M  V30 7254 H 653.819 -2.61417 -6.01662 0
M  V30 7255 H 653.736 -4.33634 -6.19272 0
M  V30 7256 H 655.004 -3.45276 -6.98859 0
M  V30 7257 N 659.233 0.902656 -1.29189 0
M  V30 7258 C 660.458 1.69167 -1.19989 0
M  V30 7259 C 660.883 1.86607 0.236495 0
M  V30 7260 O 660.241 1.38425 1.17082 0
M  V30 7261 C 660.289 3.05532 -1.91527 0
M  V30 7262 O 659.393 3.93621 -1.2303 0
M  V30 7263 H 658.734 0.517584 -0.415936 0
M  V30 7264 H 661.264 1.12785 -1.70706 0
M  V30 7265 H 661.274 3.55693 -1.99866 0
M  V30 7266 H 659.949 2.92156 -2.96003 0
M  V30 7267 H 658.526 3.52055 -1.22928 0
M  V30 7268 N 660.711 1.11618 1.11262 0
M  V30 7269 C 661.988 0.777876 1.79467 0
M  V30 7270 C 662.368 -0.733774 1.97937 0
M  V30 7271 O 661.716 -1.66443 1.56554 0
M  V30 7272 C 661.926 1.5431 3.13032 0
M  V30 7273 C 663.274 1.72357 3.88044 0
M  V30 7274 O 664.298 1.5075 3.22727 0
M  V30 7275 O 663.157 2.08276 5.05256 0
M  V30 7276 H 660.251 0.282018 0.777428 0
M  V30 7277 H 662.797 1.21971 1.17988 0
M  V30 7278 H 661.569 2.57132 2.94956 0
M  V30 7279 H 661.192 1.09495 3.82226 0
M  V30 7280 N 662.189 -1.289 0.906776 0
M  V30 7281 C 663.435 -1.95558 0.53712 0
M  V30 7282 C 663.768 -1.71262 -0.915582 0
M  V30 7283 O 663.043 -1.02961 -1.65013 0
M  V30 7284 C 663.326 -3.50198 0.838645 0
M  V30 7285 C 663.179 -3.83923 2.34357 0
M  V30 7286 C 664.498 -4.38861 0.329988 0
M  V30 7287 H 661.617 -0.710289 0.196617 0
M  V30 7288 H 664.259 -1.52392 1.13475 0
M  V30 7289 H 662.409 -3.87096 0.330024 0
M  V30 7290 H 664.081 -3.56933 2.92227 0
M  V30 7291 H 662.324 -3.31215 2.80141 0
M  V30 7292 H 662.995 -4.91883 2.5051 0
M  V30 7293 H 665.471 -4.08996 0.765609 0
M  V30 7294 H 664.347 -5.45931 0.570105 0
M  V30 7295 H 664.608 -4.35352 -0.769511 0
M  V30 7296 N 663.667 -0.670007 -1.42649 0
M  V30 7297 C 664.913 -0.19923 -2.02422 0
M  V30 7298 C 665.268 1.17947 -1.52007 0
M  V30 7299 O 664.561 1.77939 -0.710512 0
M  V30 7300 C 664.755 -0.168298 -3.57004 0
M  V30 7301 C 664.584 -1.54246 -4.22419 0
M  V30 7302 C 663.354 -2.13904 -4.57792 0
M  V30 7303 C 665.552 -2.4842 -4.50324 0
M  V30 7304 N 663.534 -3.44151 -5.08364 0
M  V30 7305 C 664.905 -3.63317 -5.02395 0
M  V30 7306 C 666.96 -2.47011 -4.32308 0
M  V30 7307 C 665.663 -4.77051 -5.38345 0
M  V30 7308 C 667.689 -3.59838 -4.6933 0
M  V30 7309 C 667.051 -4.73462 -5.21549 0
M  V30 7310 H 663.15 -0.117717 -0.773089 0
M  V30 7311 H 665.734 -0.881955 -1.73579 0
M  V30 7312 H 663.905 0.483824 -3.85375 0
M  V30 7313 H 665.637 0.314914 -4.03473 0
M  V30 7314 H 662.392 -1.66441 -4.4339 0
M  V30 7315 H 662.816 -4.10846 -5.38084 0
M  V30 7316 H 667.458 -1.60394 -3.91195 0
M  V30 7317 H 665.176 -5.64347 -5.78393 0
M  V30 7318 H 668.762 -3.59969 -4.57071 0
M  V30 7319 H 667.642 -5.59321 -5.49663 0
M  V30 7320 N 665.145 1.52092 -0.413018 0
M  V30 7321 C 666.37 2.06756 0.163338 0
M  V30 7322 C 666.795 1.28073 1.37764 0
M  V30 7323 O 666.153 0.312015 1.78595 0
M  V30 7324 C 666.201 3.57278 0.488322 0
M  V30 7325 O 665.305 3.80986 1.57871 0
M  V30 7326 H 664.646 0.663882 0.0125068 0
M  V30 7327 H 667.176 1.95988 -0.587339 0
M  V30 7328 H 667.186 4.01125 0.745836 0
M  V30 7329 H 665.861 4.13978 -0.399327 0
M  V30 7330 H 664.438 3.49017 1.31306 0
M  V30 7331 N 666.623 0.143563 1.56945 0
M  V30 7332 C 667.87 -0.508407 1.96014 0
M  V30 7333 C 668.198 -1.65099 1.02824 0
M  V30 7334 O 667.453 -1.95618 0.0567764 0
M  V30 7335 C 667.752 -1.05885 3.41355 0
M  V30 7336 C 667.418 -0.0350809 4.50886 0
M  V30 7337 C 666.08 0.246362 4.80569 0
M  V30 7338 C 668.432 0.661282 5.16988 0
M  V30 7339 C 665.76 1.23003 5.73661 0
M  V30 7340 C 668.112 1.63375 6.11139 0
M  V30 7341 C 666.776 1.92292 6.39203 0
M  V30 7342 H 666.046 -0.186039 0.717266 0
M  V30 7343 H 668.693 0.229667 1.90118 0
M  V30 7344 H 666.998 -1.87419 3.44066 0
M  V30 7345 H 668.695 -1.57183 3.6891 0
M  V30 7346 H 665.285 -0.264622 4.27782 0
M  V30 7347 H 669.469 0.457038 4.94191 0
M  V30 7348 H 664.725 1.46056 5.93698 0
M  V30 7349 H 668.899 2.17887 6.61436 0
M  V30 7350 H 666.526 2.68666 7.11142 0
M  V30 7351 N 668.101 -1.57061 -0.130224 0
M  V30 7352 C 669.349 -1.83893 -0.838313 0
M  V30 7353 C 669.67 -0.727046 -1.80939 0
M  V30 7354 O 668.94 0.249927 -1.94299 0
M  V30 7355 H 667.52 -0.67846 -0.312573 0
M  V30 7356 H 670.182 -1.94529 -0.120224 0
M  V30 7357 H 669.278 -2.79419 -1.39038 0
M  V30 7358 N 669.579 0.400081 -1.52437 0
M  V30 7359 C 670.825 1.14788 -1.67187 0
M  V30 7360 C 671.158 1.89928 -0.405074 0
M  V30 7361 O 670.433 1.85118 0.596804 0
M  V30 7362 C 670.716 2.13507 -2.89977 0
M  V30 7363 C 670.569 1.42204 -4.2673 0
M  V30 7364 C 671.888 3.14069 -3.083 0
M  V30 7365 H 669.007 0.415939 -0.608411 0
M  V30 7366 H 671.649 0.432542 -1.85011 0
M  V30 7367 H 669.799 2.7451 -2.74912 0
M  V30 7368 H 671.471 0.842503 -4.53541 0
M  V30 7369 H 669.714 0.723939 -4.27717 0
M  V30 7370 H 670.385 2.14281 -5.08712 0
M  V30 7371 H 672.861 2.63148 -3.22323 0
M  V30 7372 H 671.737 3.80398 -3.95713 0
M  V30 7373 H 671.998 3.82309 -2.22018 0
M  V30 7374 N 671.057 1.43213 0.657864 0
M  V30 7375 C 671.987 1.50815 1.78262 0
M  V30 7376 C 672.968 0.363211 1.66177 0
M  V30 7377 O 674.153 0.579806 1.85343 0
M  V30 7378 C 671.283 1.42625 3.16663 0
M  V30 7379 C 670.237 2.5532 3.43505 0
M  V30 7380 C 669.563 2.32184 4.81658 0
M  V30 7381 C 670.863 3.97583 3.38711 0
M  V30 7382 H 672.557 2.44954 1.72157 0
M  V30 7383 H 670.103 1.17896 0.82683 0
M  V30 7384 H 672.056 1.46548 3.95097 0
M  V30 7385 H 670.78 0.449877 3.23487 0
M  V30 7386 H 669.439 2.50742 2.6744 0
M  V30 7387 H 669.087 1.32801 4.85153 0
M  V30 7388 H 668.787 3.07724 5.00579 0
M  V30 7389 H 670.311 2.37883 5.62356 0
M  V30 7390 H 671.725 4.03673 4.07089 0
M  V30 7391 H 670.122 4.73112 3.69168 0
M  V30 7392 H 671.192 4.23049 2.36976 0
M  V30 7393 N 672.536 -0.895792 1.29666 0
M  V30 7394 C 673.469 -2.00238 1.09453 0
M  V30 7395 C 674.447 -1.62599 0.00527044 0
M  V30 7396 O 675.631 -1.87847 0.156729 0
M  V30 7397 C 672.758 -3.32066 0.667054 0
M  V30 7398 C 671.804 -3.88691 1.7556 0
M  V30 7399 S 672.637 -4.17317 3.35569 0
M  V30 7400 C 673.793 -5.52181 2.94698 0
M  V30 7401 H 674.026 -2.17076 2.03138 0
M  V30 7402 H 671.559 -1.04287 1.13858 0
M  V30 7403 H 673.517 -4.08272 0.427136 0
M  V30 7404 H 672.178 -3.13101 -0.250256 0
M  V30 7405 H 671.371 -4.83918 1.40853 0
M  V30 7406 H 670.973 -3.19187 1.94924 0
M  V30 7407 H 673.265 -6.3281 2.41986 0
M  V30 7408 H 674.208 -5.91817 3.88791 0
M  V30 7409 H 674.616 -5.14225 2.32879 0
M  V30 7410 N 674.014 -1.12206 -1.10668 0
M  V30 7411 C 675.26 -0.887096 -1.83036 0
M  V30 7412 C 675.615 0.580887 -1.83422 0
M  V30 7413 O 674.908 1.42379 -1.28213 0
M  V30 7414 C 675.102 -1.39276 -3.29146 0
M  V30 7415 C 674.931 -2.90837 -3.42992 0
M  V30 7416 C 673.701 -3.59047 -3.55546 0
M  V30 7417 C 675.899 -3.8885 -3.36601 0
M  V30 7418 N 673.881 -4.98747 -3.57945 0
M  V30 7419 C 675.252 -5.14666 -3.45716 0
M  V30 7420 C 677.307 -3.81296 -3.20184 0
M  V30 7421 C 676.01 -6.33814 -3.40106 0
M  V30 7422 C 678.036 -4.99965 -3.15895 0
M  V30 7423 C 677.398 -6.24637 -3.25589 0
M  V30 7424 H 673.497 -0.377857 -0.684652 0
M  V30 7425 H 676.081 -1.42791 -1.32358 0
M  V30 7426 H 674.252 -0.879026 -3.78322 0
M  V30 7427 H 675.984 -1.10011 -3.89461 0
M  V30 7428 H 672.739 -3.09533 -3.5845 0
M  V30 7429 H 673.163 -5.71606 -3.62762 0
M  V30 7430 H 677.805 -2.85806 -3.11569 0
M  V30 7431 H 675.523 -7.29574 -3.47487 0
M  V30 7432 H 679.109 -4.95847 -3.04347 0
M  V30 7433 H 677.989 -7.14921 -3.22269 0
M  V30 7434 N 675.492 1.28418 -0.913599 0
M  V30 7435 C 676.402 2.31043 -0.406965 0
M  V30 7436 C 677.418 1.66501 0.505298 0
M  V30 7437 O 678.594 1.97558 0.391522 0
M  V30 7438 C 675.659 3.4498 0.344901 0
M  V30 7439 C 674.72 4.25078 -0.600563 0
M  V30 7440 C 673.953 5.33575 0.115516 0
M  V30 7441 O 674.176 5.54503 1.33727 0
M  V30 7442 O 673.11 5.9939 -0.549095 0
M  V30 7443 H 676.936 2.76387 -1.25873 0
M  V30 7444 H 674.521 1.33109 -0.678415 0
M  V30 7445 H 676.403 4.14314 0.769542 0
M  V30 7446 H 675.078 3.01719 1.1725 0
M  V30 7447 H 673.985 3.58334 -1.0746 0
M  V30 7448 H 675.318 4.72018 -1.39497 0
M  V30 7449 N 676.97 0.677563 1.42291 0
M  V30 7450 C 678.216 0.201272 2.01799 0
M  V30 7451 C 678.549 -1.19004 1.53465 0
M  V30 7452 O 677.824 -1.79953 0.738039 0
M  V30 7453 C 678.107 0.238968 3.59306 0
M  V30 7454 C 677.96 1.66594 4.17812 0
M  V30 7455 C 679.279 -0.411287 4.38174 0
M  V30 7456 H 676.398 0.0746114 0.733214 0
M  V30 7457 H 679.04 0.862872 1.69276 0
M  V30 7458 H 677.19 -0.324368 3.87144 0
M  V30 7459 H 678.862 2.28173 4.00917 0
M  V30 7460 H 677.105 2.20576 3.73536 0
M  V30 7461 H 677.776 1.64398 5.26951 0
M  V30 7462 H 680.252 0.0682804 4.16044 0
M  V30 7463 H 679.128 -0.354286 5.47755 0
M  V30 7464 H 679.389 -1.4893 4.1626 0
M  V30 7465 N 678.448 -1.51871 0.421078 0
M  V30 7466 C 679.695 -2.01938 -0.15079 0
M  V30 7467 C 680.023 -1.30611 -1.44121 0
M  V30 7468 O 679.278 -0.404631 -1.91471 0
M  V30 7469 C 679.577 -3.54764 -0.433292 0
M  V30 7470 C 679.243 -4.44288 0.76936 0
M  V30 7471 C 677.905 -4.68477 1.09921 0
M  V30 7472 C 680.257 -4.96915 1.57242 0
M  V30 7473 C 677.585 -5.4254 2.2331 0
M  V30 7474 C 679.937 -5.7222 2.69716 0
M  V30 7475 C 678.601 -5.94678 3.03174 0
M  V30 7476 H 677.871 -0.738943 -0.0551781 0
M  V30 7477 H 680.518 -1.82977 0.564945 0
M  V30 7478 H 678.823 -3.71968 -1.23074 0
M  V30 7479 H 680.52 -3.91023 -0.888922 0
M  V30 7480 H 677.11 -4.25646 0.502305 0
M  V30 7481 H 681.294 -4.78125 1.3308 0
M  V30 7482 H 676.55 -5.58146 2.49565 0
M  V30 7483 H 680.724 -6.11992 3.32323 0
M  V30 7484 H 678.351 -6.51848 3.9115 0
M  V30 7485 N 679.926 -0.151884 -1.56866 0
M  V30 7486 C 681.154 0.504813 -2.00647 0
M  V30 7487 C 681.569 1.58098 -1.03201 0
M  V30 7488 O 680.926 1.82476 -0.0297814 0
M  V30 7489 C 680.977 1.10099 -3.44326 0
M  V30 7490 O 680.698 0.0678021 -4.38048 0
M  V30 7491 C 682.199 1.83782 -4.03409 0
M  V30 7492 H 679.419 0.130989 -0.65809 0
M  V30 7493 H 681.963 -0.247903 -2.02992 0
M  V30 7494 H 680.118 1.8043 -3.42817 0
M  V30 7495 H 680.532 0.505237 -5.22061 0
M  V30 7496 H 682.006 2.2078 -5.05925 0
M  V30 7497 H 682.483 2.72557 -3.44397 0
M  V30 7498 H 683.089 1.18138 -4.08563 0
M  V30 7499 N 681.404 1.57128 0.121893 0
M  V30 7500 C 682.314 2.03425 1.16857 0
M  V30 7501 C 683.33 0.954108 1.45509 0
M  V30 7502 O 684.506 1.26541 1.56682 0
M  V30 7503 C 681.571 2.42685 2.47599 0
M  V30 7504 C 680.632 3.64767 2.2637 0
M  V30 7505 C 679.865 4.02145 3.50878 0
M  V30 7506 O 680.088 3.39897 4.58068 0
M  V30 7507 O 679.022 4.95262 3.42051 0
M  V30 7508 H 682.848 2.92825 0.80544 0
M  V30 7509 H 680.433 1.45654 0.332477 0
M  V30 7510 H 682.315 2.68684 3.24634 0
M  V30 7511 H 680.99 1.56432 2.83392 0
M  V30 7512 H 679.897 3.43922 1.47203 0
M  V30 7513 H 681.23 4.51716 1.95482 0
M  V30 7514 N 682.882 -0.391992 1.52647 0
M  V30 7515 C 684.13 -1.13507 1.67214 0
M  V30 7516 C 684.451 -1.90575 0.41304 0
M  V30 7517 O 683.721 -1.87348 -0.572498 0
M  V30 7518 H 682.301 -0.422013 0.616372 0
M  V30 7519 H 684.963 -0.44502 1.89751 0
M  V30 7520 H 684.059 -1.83964 2.52118 0
M  V30 7521 N 684.36 -1.4356 -0.65026 0
M  V30 7522 C 685.307 -1.48948 -1.76304 0
M  V30 7523 C 686.277 -0.338919 -1.62605 0
M  V30 7524 O 687.462 -0.54649 -1.82806 0
M  V30 7525 C 684.602 -1.42131 -3.14472 0
M  V30 7526 C 683.715 -2.67415 -3.39284 0
M  V30 7527 C 682.85 -2.52565 -4.67316 0
M  V30 7528 C 681.889 -3.73103 -4.85243 0
M  V30 7529 N 681.026 -3.57046 -6.04535 0
M  V30 7530 H 685.866 -2.44032 -1.71034 0
M  V30 7531 H 683.403 -1.21131 -0.834601 0
M  V30 7532 H 685.361 -1.36172 -3.94351 0
M  V30 7533 H 683.991 -0.506273 -3.18805 0
M  V30 7534 H 683.043 -2.8364 -2.53481 0
M  V30 7535 H 684.355 -3.56943 -3.48415 0
M  V30 7536 H 683.509 -2.44331 -5.55326 0
M  V30 7537 H 682.248 -1.60566 -4.60511 0
M  V30 7538 H 681.253 -3.81743 -3.95667 0
M  V30 7539 H 682.478 -4.66115 -4.93876 0
M  V30 7540 H 680.424 -2.67783 -5.98856 0
M  V30 7541 H 680.341 -4.40178 -6.14638 0
M  V30 7542 H 681.609 -3.52669 -6.95158 0
M  V30 7543 N 685.838 0.888903 -1.30139 0
M  V30 7544 C 686.771 1.99655 -1.10514 0
M  V30 7545 C 687.749 1.62594 -0.0138934 0
M  V30 7546 O 688.933 1.87762 -0.166689 0
M  V30 7547 C 686.06 3.31708 -0.684655 0
M  V30 7548 C 685.106 3.87755 -1.77619 0
M  V30 7549 S 685.939 4.15532 -3.37777 0
M  V30 7550 C 687.095 5.5061 -2.97622 0
M  V30 7551 H 687.328 2.15996 -2.04287 0
M  V30 7552 H 684.861 1.03682 -1.14409 0
M  V30 7553 H 686.819 4.08039 -0.448782 0
M  V30 7554 H 685.48 3.1323 0.233648 0
M  V30 7555 H 684.673 4.83164 -1.43417 0
M  V30 7556 H 684.275 3.18149 -1.96614 0
M  V30 7557 H 686.567 6.31518 -2.45338 0
M  V30 7558 H 687.51 5.89747 -3.91924 0
M  V30 7559 H 687.918 5.12983 -2.35603 0
M  V30 7560 N 687.317 1.12792 1.10072 0
M  V30 7561 C 688.728 0.899346 1.63611 0
M  V30 7562 C 689.079 -0.565547 1.87872 0
M  V30 7563 O 688.204 -1.43081 1.62348 0
M  V30 7564 C 688.799 1.62608 2.97227 0
M  V30 7565 C 687.358 1.44356 3.47618 0
M  V30 7566 C 686.505 1.65958 2.22156 0
M  V30 7567 H 689.456 1.28216 0.935223 0
M  V30 7568 H 689.477 1.0793 3.64872 0
M  V30 7569 H 688.989 2.69221 2.79538 0
M  V30 7570 H 687.09 0.400148 3.70445 0
M  V30 7571 H 687.203 2.20218 4.25489 0
M  V30 7572 H 685.567 1.08395 2.30484 0
M  V30 7573 H 686.35 2.73877 2.06993 0
M  V30 7574 N 688.795 -1.27931 0.920396 0
M  V30 7575 C 690.042 -1.94689 0.557007 0
M  V30 7576 C 690.37 -1.724 -0.900476 0
M  V30 7577 O 689.625 -1.04194 -1.65657 0
M  V30 7578 C 689.924 -3.47853 0.820558 0
M  V30 7579 C 689.59 -3.90252 2.25863 0
M  V30 7580 C 688.252 -4.01539 2.65179 0
M  V30 7581 C 690.604 -4.11853 3.19415 0
M  V30 7582 C 687.932 -4.3181 3.97187 0
M  V30 7583 C 690.284 -4.43606 4.50995 0
M  V30 7584 C 688.948 -4.53105 4.90155 0
M  V30 7585 H 688.218 -0.712416 0.203823 0
M  V30 7586 H 690.865 -1.52142 1.16298 0
M  V30 7587 H 689.17 -3.91578 0.131844 0
M  V30 7588 H 690.867 -3.97634 0.51847 0
M  V30 7589 H 687.457 -3.81999 1.94358 0
M  V30 7590 H 691.641 -4.0258 2.90246 0
M  V30 7591 H 686.897 -4.37371 4.2722 0
M  V30 7592 H 691.071 -4.59268 5.23494 0
M  V30 7593 H 688.698 -4.76315 5.92476 0
M  V30 7594 N 690.273 -0.685099 -1.4193 0
M  V30 7595 C 691.183 -0.013404 -2.34596 0
M  V30 7596 C 692.199 0.777589 -1.55658 0
M  V30 7597 O 693.375 0.717553 -1.88184 0
M  V30 7598 C 690.44 0.919031 -3.34297 0
M  V30 7599 C 689.501 0.121417 -4.29128 0
M  V30 7600 C 688.734 1.00944 -5.24067 0
M  V30 7601 O 688.957 2.24898 -5.24192 0
M  V30 7602 O 687.891 0.464724 -6.00103 0
M  V30 7603 H 691.717 -0.776978 -2.93593 0
M  V30 7604 H 689.302 -0.445379 -1.42607 0
M  V30 7605 H 691.184 1.45402 -3.9552 0
M  V30 7606 H 689.859 1.66228 -2.77759 0
M  V30 7607 H 688.766 -0.45792 -3.71287 0
M  V30 7608 H 690.099 -0.582937 -4.88736 0
M  V30 7609 N 691.751 1.51645 -0.429126 0
M  V30 7610 C 692.699 2.29119 0.400921 0
M  V30 7611 C 693.693 1.34628 1.02819 0
M  V30 7612 O 694.899 1.52004 0.964098 0
M  V30 7613 H 691.274 0.737273 0.148095 0
M  V30 7614 H 693.245 2.97144 -0.273457 0
M  V30 7615 C 691.994 3.13953 1.49429 0
M  V30 7616 H 691.317 3.86544 1.02097 0
M  V30 7617 H 692.757 3.71232 2.04849 0
M  V30 7618 C 691.216 2.28796 2.47293 0
M  V30 7619 O 691.746 1.94193 3.51642 0
M  V30 7620 N 689.952 1.92177 2.17982 0
M  V30 7621 H 689.499 2.20517 1.33154 0
M  V30 7622 H 689.457 1.35497 2.83704 0
M  V30 7623 N 693.229 0.160201 1.56784 0
M  V30 7624 C 694.176 -0.774416 2.1742 0
M  V30 7625 C 695.146 -1.23483 1.11091 0
M  V30 7626 O 696.331 -1.30499 1.39193 0
M  V30 7627 C 693.471 -2.00283 2.81035 0
M  V30 7628 C 692.584 -1.58701 4.01793 0
M  V30 7629 C 691.719 -2.76824 4.53367 0
M  V30 7630 C 690.758 -2.31679 5.66561 0
M  V30 7631 N 689.895 -3.42856 6.12694 0
M  V30 7632 H 694.735 -0.250542 2.96945 0
M  V30 7633 H 692.272 -0.111943 1.46673 0
M  V30 7634 H 694.23 -2.72316 3.16069 0
M  V30 7635 H 692.86 -2.5006 2.04132 0
M  V30 7636 H 691.912 -0.76384 3.72652 0
M  V30 7637 H 693.224 -1.21555 4.83762 0
M  V30 7638 H 692.378 -3.57029 4.90525 0
M  V30 7639 H 691.117 -3.17223 3.70433 0
M  V30 7640 H 690.122 -1.49917 5.28966 0
M  V30 7641 H 691.347 -1.9235 6.5129 0
M  V30 7642 H 689.293 -3.82852 5.32692 0
M  V30 7643 H 689.21 -3.09767 6.89624 0
M  V30 7644 H 690.478 -4.23379 6.545 0
M  V30 7645 N 694.707 -1.5719 -0.113559 0
M  V30 7646 C 695.932 -1.89702 -0.838336 0
M  V30 7647 C 696.357 -0.752679 -1.72384 0
M  V30 7648 O 695.715 0.296575 -1.78858 0
M  V30 7649 C 695.763 -3.20989 -1.64312 0
M  V30 7650 O 694.867 -3.07278 -2.75053 0
M  V30 7651 H 694.208 -0.622339 -0.231496 0
M  V30 7652 H 696.738 -2.04382 -0.0943228 0
M  V30 7653 H 696.748 -3.53843 -2.03123 0
M  V30 7654 H 695.423 -4.03869 -0.993119 0
M  V30 7655 H 694 -2.85901 -2.39406 0
M  V30 7656 N 696.185 0.383891 -1.52853 0
M  V30 7657 C 697.133 1.48965 -1.7864 0
M  V30 7658 C 698.127 1.56242 -0.654577 0
M  V30 7659 O 699.333 1.59347 -0.83716 0
M  V30 7660 H 695.708 0.495892 -0.565328 0
M  V30 7661 H 697.679 1.24411 -2.71228 0
M  V30 7662 C 696.428 2.86036 -1.97683 0
M  V30 7663 H 695.751 2.81188 -2.84206 0
M  V30 7664 H 697.191 3.62632 -2.19713 0
M  V30 7665 C 695.65 3.28428 -0.750776 0
M  V30 7666 O 696.18 4.0164 0.0693491 0
M  V30 7667 N 694.386 2.84765 -0.579427 0
M  V30 7668 H 693.933 2.25353 -1.24795 0
M  V30 7669 H 693.891 3.13486 0.239544 0
M  V30 7670 N 697.663 1.43903 0.642637 0
M  V30 7671 C 698.593 1.52697 1.76652 0
M  V30 7672 C 699.574 0.380816 1.65782 0
M  V30 7673 O 700.759 0.599432 1.84717 0
M  V30 7674 C 697.889 1.45975 3.15133 0
M  V30 7675 C 696.843 2.58949 3.40778 0
M  V30 7676 C 696.169 2.37279 4.79169 0
M  V30 7677 C 697.469 4.01153 3.34475 0
M  V30 7678 H 699.163 2.46766 1.69549 0
M  V30 7679 H 696.709 1.18767 0.814279 0
M  V30 7680 H 698.662 1.5073 3.93521 0
M  V30 7681 H 697.386 0.484162 3.22991 0
M  V30 7682 H 696.045 2.53564 2.64765 0
M  V30 7683 H 695.693 1.37939 4.83717 0
M  V30 7684 H 695.393 3.13016 4.97287 0
M  V30 7685 H 696.917 2.43834 5.59801 0
M  V30 7686 H 698.331 4.07968 4.02784 0
M  V30 7687 H 696.728 4.77001 3.64129 0
M  V30 7688 H 697.798 4.25539 2.32475 0
M  V30 7689 N 699.141 -0.881989 1.30609 0
M  V30 7690 C 700.073 -1.99375 1.13058 0
M  V30 7691 C 701.086 -1.62636 0.0729879 0
M  V30 7692 O 702.275 -1.75621 0.319301 0
M  V30 7693 C 699.375 -3.31536 0.702651 0
M  V30 7694 C 698.548 -3.96693 1.84265 0
M  V30 7695 C 697.607 -5.07158 1.40277 0
M  V30 7696 O 696.633 -5.28628 2.11048 0
M  V30 7697 N 697.835 -5.79808 0.283449 0
M  V30 7698 H 700.6 -2.14981 2.08814 0
M  V30 7699 H 698.161 -1.05526 1.22784 0
M  V30 7700 H 700.153 -4.02804 0.391331 0
M  V30 7701 H 698.723 -3.12175 -0.162954 0
M  V30 7702 H 697.943 -3.1856 2.32192 0
M  V30 7703 H 699.231 -4.36964 2.60653 0
M  V30 7704 H 698.629 -5.64871 -0.306189 0
M  V30 7705 H 697.186 -6.51792 0.0315985 0
M  V30 7706 N 700.619 -1.13374 -1.09472 0
M  V30 7707 C 701.865 -0.896516 -1.81908 0
M  V30 7708 C 702.198 0.575933 -1.85463 0
M  V30 7709 O 701.473 1.42618 -1.32251 0
M  V30 7710 C 701.756 -1.48445 -3.28079 0
M  V30 7711 C 701.609 -3.02598 -3.32798 0
M  V30 7712 C 702.928 -1.15226 -4.24748 0
M  V30 7713 H 700.047 -0.327127 -0.660422 0
M  V30 7714 H 702.689 -1.40195 -1.2824 0
M  V30 7715 H 700.839 -1.0546 -3.73912 0
M  V30 7716 H 702.511 -3.54335 -2.95372 0
M  V30 7717 H 700.754 -3.37613 -2.72397 0
M  V30 7718 H 701.425 -3.38835 -4.3577 0
M  V30 7719 H 703.901 -1.52369 -3.87199 0
M  V30 7720 H 702.777 -1.59012 -5.25363 0
M  V30 7721 H 703.038 -0.0658891 -4.42051 0
M  V30 7722 N 702.098 1.27442 -0.927168 0
M  V30 7723 C 703.344 1.94679 -0.568164 0
M  V30 7724 C 703.677 1.72697 0.888219 0
M  V30 7725 O 702.952 1.05573 1.63354 0
M  V30 7726 C 703.235 3.4882 -0.894253 0
M  V30 7727 C 703.088 3.80146 -2.40435 0
M  V30 7728 C 704.407 4.38281 -0.399766 0
M  V30 7729 H 701.526 0.707071 -0.207892 0
M  V30 7730 H 704.168 1.50568 -1.15885 0
M  V30 7731 H 702.318 3.86522 -0.391566 0
M  V30 7732 H 703.99 3.52238 -2.97869 0
M  V30 7733 H 702.233 3.26716 -2.85375 0
M  V30 7734 H 702.904 4.87835 -2.58304 0
M  V30 7735 H 705.38 4.07726 -0.83058 0
M  V30 7736 H 704.256 5.44955 -0.656885 0
M  V30 7737 H 704.517 4.36521 0.700153 0
M  V30 7738 N 703.576 0.692616 1.41565 0
M  V30 7739 C 704.486 0.0258451 2.34586 0
M  V30 7740 C 705.502 -0.769324 1.56069 0
M  V30 7741 O 706.678 -0.707563 1.88562 0
M  V30 7742 C 703.743 -0.901289 3.3478 0
M  V30 7743 C 702.804 -0.0986579 4.29187 0
M  V30 7744 C 702.037 -0.981634 5.24595 0
M  V30 7745 O 702.26 -2.22115 5.25377 0
M  V30 7746 O 701.194 -0.432892 6.00341 0
M  V30 7747 H 705.02 0.792537 2.93177 0
M  V30 7748 H 702.605 0.452935 1.42369 0
M  V30 7749 H 704.487 -1.43302 3.96286 0
M  V30 7750 H 703.162 -1.64752 2.78637 0
M  V30 7751 H 702.069 0.477604 3.71039 0
M  V30 7752 H 703.402 0.608848 4.8842 0
M  V30 7753 N 705.054 -1.51416 0.437162 0
M  V30 7754 C 706.017 -2.26312 -0.362729 0
M  V30 7755 C 707.017 -1.29748 -0.949847 0
M  V30 7756 O 708.207 -1.53462 -0.824325 0
M  V30 7757 C 705.339 -3.05475 -1.5132 0
M  V30 7758 H 706.532 -2.98459 0.29365 0
M  V30 7759 H 704.085 -1.55137 0.190327 0
M  V30 7760 H 704.82 -2.37744 -2.20563 0
M  V30 7761 H 704.605 -3.76401 -1.09838 0
M  V30 7762 H 706.095 -3.62209 -2.07833 0
M  V30 7763 N 706.532 -0.168513 -1.56696 0
M  V30 7764 C 707.781 0.477233 -1.95973 0
M  V30 7765 C 708.094 1.64578 -1.05704 0
M  V30 7766 O 709.3 2.35758 -1.3465 0
M  V30 7767 C 707.756 0.900413 -3.48455 0
M  V30 7768 C 707.364 -0.242382 -4.47344 0
M  V30 7769 C 709.108 1.51474 -3.96555 0
M  V30 7770 C 707.015 0.200272 -5.91061 0
M  V30 7771 H 705.945 0.182061 -0.73169 0
M  V30 7772 H 708.596 -0.256297 -1.81701 0
M  V30 7773 H 706.978 1.68984 -3.58135 0
M  V30 7774 H 708.152 -1.01967 -4.49377 0
M  V30 7775 H 706.467 -0.766484 -4.09285 0
M  V30 7776 H 709.064 1.85792 -5.01384 0
M  V30 7777 H 709.407 2.41163 -3.39332 0
M  V30 7778 H 709.94 0.789802 -3.89881 0
M  V30 7779 H 706.679 -0.661775 -6.52151 0
M  V30 7780 H 706.199 0.942979 -5.92341 0
M  V30 7781 H 707.878 0.645088 -6.43776 0
M  V30 7782 N 708.01 1.57248 0.105221 0
M  V30 7783 C 709.235 1.90143 0.828264 0
M  V30 7784 C 709.66 0.761811 1.71983 0
M  V30 7785 O 709.018 -0.287086 1.79013 0
M  V30 7786 C 709.066 3.21856 1.62608 0
M  V30 7787 O 708.17 3.08732 2.7342 0
M  V30 7788 H 707.511 0.623558 0.228192 0
M  V30 7789 H 710.041 2.0443 0.0834826 0
M  V30 7790 H 710.051 3.54916 2.01243 0
M  V30 7791 H 708.726 4.0439 0.971687 0
M  V30 7792 H 707.303 2.87167 2.37886 0
M  V30 7793 N 709.488 -0.375779 1.53054 0
M  V30 7794 C 710.398 -1.48381 1.81715 0
M  V30 7795 C 711.414 -1.59087 0.704795 0
M  V30 7796 O 712.59 -1.75174 0.993785 0
M  V30 7797 C 709.655 -2.83767 1.99192 0
M  V30 7798 C 708.716 -2.82673 3.23102 0
M  V30 7799 C 707.949 -4.11601 3.39736 0
M  V30 7800 O 708.172 -5.07243 2.60885 0
M  V30 7801 O 707.106 -4.18034 4.33049 0
M  V30 7802 H 710.932 -1.27089 2.7583 0
M  V30 7803 H 708.517 -0.564902 1.38308 0
M  V30 7804 H 710.399 -3.64004 2.12318 0
M  V30 7805 H 709.074 -3.05057 1.08267 0
M  V30 7806 H 707.981 -2.0117 3.15407 0
M  V30 7807 H 709.314 -2.66335 4.13916 0
M  V30 7808 N 710.966 -1.44241 -0.634997 0
M  V30 7809 C 712.214 -1.46531 -1.39187 0
M  V30 7810 C 712.535 -0.0976441 -1.94755 0
M  V30 7811 O 711.805 0.869528 -1.75545 0
M  V30 7812 H 710.385 -0.539544 -0.516625 0
M  V30 7813 H 713.047 -1.79989 -0.747655 0
M  V30 7814 H 712.143 -2.18848 -2.22513 0
M  V30 7815 N 712.444 0.87505 -1.31075 0
M  V30 7816 C 713.691 1.62768 -1.20469 0
M  V30 7817 C 714.019 1.93034 0.23834 0
M  V30 7818 O 713.274 1.55693 1.18567 0
M  V30 7819 C 713.573 2.96948 -1.98888 0
M  V30 7820 C 713.239 2.86195 -3.4843 0
M  V30 7821 C 711.901 2.82969 -3.89207 0
M  V30 7822 C 714.253 2.73599 -4.43614 0
M  V30 7823 C 711.581 2.64999 -5.23443 0
M  V30 7824 C 713.933 2.57166 -5.77969 0
M  V30 7825 C 712.597 2.52321 -6.17973 0
M  V30 7826 H 711.867 0.595611 -0.440827 0
M  V30 7827 H 714.514 1.01665 -1.62285 0
M  V30 7828 H 712.819 3.62058 -1.49737 0
M  V30 7829 H 714.516 3.54164 -1.88067 0
M  V30 7830 H 711.106 2.8952 -3.16032 0
M  V30 7831 H 715.29 2.7515 -4.13045 0
M  V30 7832 H 710.546 2.5967 -5.53517 0
M  V30 7833 H 714.72 2.46396 -6.51354 0
M  V30 7834 H 712.347 2.38156 -7.21932 0
M  V30 7835 N 713.922 1.13953 1.08869 0
M  V30 7836 C 715.338 0.878924 1.33218 0
M  V30 7837 C 715.538 -0.482478 1.95638 0
M  V30 7838 O 714.594 -1.22778 2.2064 0
M  V30 7839 C 715.907 2.00798 2.23832 0
M  V30 7840 C 717.455 2.04073 2.37325 0
M  V30 7841 C 717.93 3.16258 3.31278 0
M  V30 7842 N 719.421 3.15805 3.38853 0
M  V30 7843 C 720.156 3.99249 4.11567 0
M  V30 7844 N 719.652 4.92721 4.87029 0
M  V30 7845 N 721.445 3.87327 4.0735 0
M  V30 7846 H 713.596 2.01645 0.66731 0
M  V30 7847 H 715.859 0.878395 0.356547 0
M  V30 7848 H 715.565 2.98986 1.85203 0
M  V30 7849 H 715.439 1.92704 3.24261 0
M  V30 7850 H 717.826 1.06495 2.75214 0
M  V30 7851 H 717.907 2.16239 1.36654 0
M  V30 7852 H 717.551 4.14079 2.9411 0
M  V30 7853 H 717.481 3.0133 4.31866 0
M  V30 7854 H 719.972 2.48102 2.8505 0
M  V30 7855 H 720.285 5.52867 5.39961 0
M  V30 7856 H 718.63 4.96723 4.86098 0
M  V30 7857 H 721.821 3.13627 3.475 0
M  V30 7858 H 721.994 4.52585 4.63757 0
M  V30 7859 N 715.4 -1.26948 0.933913 0
M  V30 7860 C 716.33 -2.29017 0.45534 0
M  V30 7861 C 717.311 -1.62961 -0.487605 0
M  V30 7862 O 718.496 -1.90223 -0.391022 0
M  V30 7863 C 715.626 -3.46112 -0.287015 0
M  V30 7864 C 714.58 -4.24205 0.568682 0
M  V30 7865 C 713.906 -5.3384 -0.303206 0
M  V30 7866 C 715.206 -4.88954 1.83633 0
M  V30 7867 H 716.9 -2.69298 1.30839 0
M  V30 7868 H 714.446 -1.29459 0.630579 0
M  V30 7869 H 716.399 -4.16622 -0.6328 0
M  V30 7870 H 715.123 -3.04765 -1.17414 0
M  V30 7871 H 713.782 -3.5545 0.897261 0
M  V30 7872 H 713.43 -4.88734 -1.18947 0
M  V30 7873 H 713.13 -5.86998 0.265879 0
M  V30 7874 H 714.654 -6.0719 -0.644423 0
M  V30 7875 H 716.068 -5.51717 1.55823 0
M  V30 7876 H 714.465 -5.52198 2.34941 0
M  V30 7877 H 715.535 -4.12305 2.55211 0
M  V30 7878 N 716.879 -0.700114 -1.41195 0
M  V30 7879 C 718.109 -0.241828 -2.0518 0
M  V30 7880 C 718.517 1.1157 -1.52803 0
M  V30 7881 O 717.86 1.70926 -0.673042 0
M  V30 7882 C 717.922 -0.12695 -3.59276 0
M  V30 7883 C 717.586 -1.41725 -4.34469 0
M  V30 7884 C 718.583 -2.35604 -4.63451 0
M  V30 7885 C 716.268 -1.67189 -4.73659 0
M  V30 7886 C 718.262 -3.53204 -5.3059 0
M  V30 7887 C 715.949 -2.85073 -5.40534 0
M  V30 7888 C 716.947 -3.77904 -5.68927 0
M  V30 7889 O 716.635 -4.93723 -6.34424 0
M  V30 7890 H 716.367 -0.109247 -0.667114 0
M  V30 7891 H 718.921 -0.954538 -1.81873 0
M  V30 7892 H 717.151 0.641571 -3.81341 0
M  V30 7893 H 718.84 0.294748 -4.04828 0
M  V30 7894 H 719.606 -2.1719 -4.33651 0
M  V30 7895 H 715.485 -0.957935 -4.50937 0
M  V30 7896 H 719.029 -4.25679 -5.52669 0
M  V30 7897 H 714.926 -3.03402 -5.69752 0
M  V30 7898 H 715.694 -4.93597 -6.5292 0
M  V30 7899 N 718.357 1.51182 -0.445186 0
M  V30 7900 C 719.773 1.59299 -0.0978954 0
M  V30 7901 C 719.973 1.4555 1.39346 0
M  V30 7902 O 719.029 1.30073 2.16419 0
M  V30 7903 C 720.342 2.94133 -0.625005 0
M  V30 7904 C 721.89 3.07463 -0.586137 0
M  V30 7905 C 722.365 4.44832 -1.09035 0
M  V30 7906 N 723.856 4.51173 -1.04867 0
M  V30 7907 C 724.591 5.55804 -1.40959 0
M  V30 7908 N 724.087 6.67816 -1.84375 0
M  V30 7909 N 725.88 5.46205 -1.32726 0
M  V30 7910 H 718.031 1.58363 -1.41544 0
M  V30 7911 H 720.294 0.746946 -0.58376 0
M  V30 7912 H 720 3.09589 -1.66876 0
M  V30 7913 H 719.874 3.77161 -0.0542262 0
M  V30 7914 H 722.261 2.9167 0.448646 0
M  V30 7915 H 722.342 2.26255 -1.19341 0
M  V30 7916 H 721.986 4.61372 -2.12364 0
M  V30 7917 H 721.916 5.24591 -0.459539 0
M  V30 7918 H 724.407 3.70783 -0.729932 0
M  V30 7919 H 724.72 7.43683 -2.10131 0
M  V30 7920 H 723.065 6.69003 -1.88308 0
M  V30 7921 H 726.256 4.57583 -0.986678 0
M  V30 7922 H 726.429 6.27634 -1.61182 0
M  V30 7923 N 719.835 0.176821 1.56605 0
M  V30 7924 C 721.246 -0.338963 1.83597 0
M  V30 7925 C 721.597 -1.62677 1.09684 0
M  V30 7926 O 720.722 -2.13524 0.351661 0
M  V30 7927 C 721.317 -0.62177 3.33046 0
M  V30 7928 C 719.876 -1.08198 3.60514 0
M  V30 7929 C 719.023 -0.120774 2.77037 0
M  V30 7930 H 721.974 0.400978 1.53551 0
M  V30 7931 H 721.995 -1.47321 3.50823 0
M  V30 7932 H 721.507 0.315692 3.86814 0
M  V30 7933 H 719.608 -2.03435 3.12162 0
M  V30 7934 H 719.721 -0.987329 4.68816 0
M  V30 7935 H 718.085 -0.619192 2.47059 0
M  V30 7936 H 718.868 0.810806 3.33588 0
M  V30 7937 N 721.313 -1.57302 -0.09688 0
M  V30 7938 C 722.263 -1.98369 -1.12399 0
M  V30 7939 C 723.247 -0.861872 -1.3587 0
M  V30 7940 O 724.439 -1.1257 -1.36591 0
M  V30 7941 C 721.568 -2.41017 -2.4447 0
M  V30 7942 C 720.654 -3.59881 -2.24381 0
M  V30 7943 N 721.045 -4.74872 -1.74155 0
M  V30 7944 C 719.343 -3.65943 -2.54954 0
M  V30 7945 C 720.044 -5.56823 -1.68294 0
M  V30 7946 N 719.02 -4.99942 -2.13444 0
M  V30 7947 H 722.822 -2.84726 -0.728575 0
M  V30 7948 H 720.336 -1.59523 -0.304332 0
M  V30 7949 H 722.333 -2.68665 -3.18786 0
M  V30 7950 H 720.993 -1.56036 -2.84751 0
M  V30 7951 H 722.004 -4.97657 -1.43379 0
M  V30 7952 H 718.681 -2.9162 -2.98771 0
M  V30 7953 H 720.071 -6.59099 -1.30528 0
M  V30 7954 N 722.791 0.367657 -1.53252 0
M  V30 7955 C 723.721 1.45632 -1.8252 0
M  V30 7956 C 724.702 1.55979 -0.678568 0
M  V30 7957 O 725.887 1.70581 -0.928217 0
M  V30 7958 C 723.017 2.82994 -2.01325 0
M  V30 7959 C 721.971 2.87473 -3.17086 0
M  V30 7960 C 721.297 4.2749 -3.21179 0
M  V30 7961 C 722.597 2.55182 -4.55719 0
M  V30 7962 H 724.291 1.21387 -2.73689 0
M  V30 7963 H 721.837 0.58251 -1.31692 0
M  V30 7964 H 723.79 3.59179 -2.20383 0
M  V30 7965 H 722.514 3.08622 -1.06864 0
M  V30 7966 H 721.173 2.13739 -2.97844 0
M  V30 7967 H 720.821 4.5019 -2.24361 0
M  V30 7968 H 720.521 4.31403 -3.98955 0
M  V30 7969 H 722.045 5.0555 -3.42419 0
M  V30 7970 H 723.459 3.21081 -4.74953 0
M  V30 7971 H 721.856 2.70414 -5.3572 0
M  V30 7972 H 722.926 1.5044 -4.60973 0
M  V30 7973 N 724.269 1.44576 0.627338 0
M  V30 7974 C 725.232 1.51372 1.72102 0
M  V30 7975 C 726.232 0.395329 1.55865 0
M  V30 7976 O 727.422 0.658094 1.61291 0
M  V30 7977 C 724.554 1.39129 3.11217 0
M  V30 7978 H 725.747 2.48798 1.6745 0
M  V30 7979 H 723.3 1.31724 0.841336 0
M  V30 7980 H 724.035 0.428114 3.21462 0
M  V30 7981 H 723.82 2.20229 3.24409 0
M  V30 7982 H 725.31 1.46874 3.90919 0
M  V30 7983 N 725.747 -0.868086 1.31537 0
M  V30 7984 C 727.158 -1.437 1.19195 0
M  V30 7985 C 727.509 -1.95169 -0.200842 0
M  V30 7986 O 726.634 -1.86432 -1.09872 0
M  V30 7987 C 727.229 -2.612 2.15778 0
M  V30 7988 C 725.788 -3.1413 2.07363 0
M  V30 7989 C 724.935 -1.86845 2.049 0
M  V30 7990 H 727.886 -0.676457 1.43561 0
M  V30 7991 H 727.907 -3.37948 1.74847 0
M  V30 7992 H 727.419 -2.23709 3.17137 0
M  V30 7993 H 725.52 -3.56238 1.09204 0
M  V30 7994 H 725.633 -3.76285 2.96557 0
M  V30 7995 H 723.997 -2.05886 1.49943 0
M  V30 7996 H 724.78 -1.51589 3.08019 0
M  V30 7997 N 727.225 -1.14528 -1.08264 0
M  V30 7998 C 728.158 -0.777154 -2.14559 0
M  V30 7999 C 729.136 0.242165 -1.60787 0
M  V30 8000 O 730.32 0.130882 -1.88045 0
M  V30 8001 C 727.447 -0.154092 -3.38349 0
M  V30 8002 C 726.493 -1.14382 -4.10876 0
M  V30 8003 S 727.326 -2.68173 -4.63512 0
M  V30 8004 C 728.482 -2.0726 -5.90588 0
M  V30 8005 H 728.715 -1.67748 -2.45454 0
M  V30 8006 H 726.248 -0.966661 -1.20395 0
M  V30 8007 H 728.206 0.19897 -4.10018 0
M  V30 8008 H 726.867 0.723688 -3.05649 0
M  V30 8009 H 726.06 -0.655908 -4.99714 0
M  V30 8010 H 725.662 -1.44095 -3.45127 0
M  V30 8011 H 727.954 -1.42895 -6.62259 0
M  V30 8012 H 728.897 -2.94227 -6.44078 0
M  V30 8013 H 729.305 -1.51935 -5.43669 0
M  V30 8014 N 728.703 1.26451 -0.940633 0
M  V30 8015 C 729.928 1.98407 -0.60412 0
M  V30 8016 C 730.353 1.69584 0.81382 0
M  V30 8017 O 729.711 0.943553 1.54812 0
M  V30 8018 C 729.759 3.50387 -0.852136 0
M  V30 8019 O 728.863 4.1233 0.076013 0
M  V30 8020 H 728.204 0.622466 -0.231153 0
M  V30 8021 H 730.734 1.60932 -1.26342 0
M  V30 8022 H 730.744 4.00614 -0.772816 0
M  V30 8023 H 729.419 3.70696 -1.88566 0
M  V30 8024 H 727.996 3.7286 -0.0543187 0
M  V30 8025 N 730.181 0.707592 1.40822 0
M  V30 8026 C 731.43 0.240705 2.00259 0
M  V30 8027 C 731.743 -1.17027 1.56729 0
M  V30 8028 O 732.949 -1.73526 2.08809 0
M  V30 8029 C 731.405 0.379432 3.57894 0
M  V30 8030 C 731.013 1.79654 4.104 0
M  V30 8031 C 732.757 -0.0270684 4.24491 0
M  V30 8032 C 730.664 1.88628 5.60512 0
M  V30 8033 H 729.594 0.0862369 0.749052 0
M  V30 8034 H 732.245 0.877528 1.61157 0
M  V30 8035 H 730.627 -0.325842 3.94657 0
M  V30 8036 H 731.801 2.53155 3.85032 0
M  V30 8037 H 730.116 2.15379 3.56372 0
M  V30 8038 H 732.713 0.0193743 5.34696 0
M  V30 8039 H 733.056 -1.06772 4.02375 0
M  V30 8040 H 733.589 0.628361 3.92806 0
M  V30 8041 H 730.328 2.90787 5.87472 0
M  V30 8042 H 729.848 1.19528 5.8777 0
M  V30 8043 H 731.527 1.6547 6.25483 0
M  V30 8044 N 731.66 -1.50943 0.453197 0
M  V30 8045 C 732.89 -2.06328 -0.105981 0
M  V30 8046 C 733.298 -1.31909 -1.35634 0
M  V30 8047 O 732.641 -0.376607 -1.79798 0
M  V30 8048 C 732.703 -3.5631 -0.477868 0
M  V30 8049 C 732.367 -4.52093 0.667925 0
M  V30 8050 C 733.364 -4.96421 1.54475 0
M  V30 8051 C 731.049 -4.95001 0.853168 0
M  V30 8052 C 733.043 -5.82346 2.59138 0
M  V30 8053 C 730.73 -5.80713 1.90305 0
M  V30 8054 C 731.728 -6.24284 2.77053 0
M  V30 8055 O 731.416 -7.08291 3.80236 0
M  V30 8056 H 731.148 -0.675986 -0.00427247 0
M  V30 8057 H 733.702 -1.95314 0.635738 0
M  V30 8058 H 731.932 -3.65163 -1.27252 0
M  V30 8059 H 733.621 -3.94138 -0.970039 0
M  V30 8060 H 734.387 -4.63953 1.41324 0
M  V30 8061 H 730.266 -4.60619 0.187482 0
M  V30 8062 H 733.81 -6.16276 3.2688 0
M  V30 8063 H 729.707 -6.12593 2.03469 0
M  V30 8064 H 730.475 -7.26504 3.77007 0
M  V30 8065 N 733.138 -0.185124 -1.56509 0
M  V30 8066 C 734.048 0.751908 -2.22224 0
M  V30 8067 C 735.064 1.24244 -1.21817 0
M  V30 8068 O 736.24 1.29169 -1.54523 0
M  V30 8069 C 733.305 1.95837 -2.86092 0
M  V30 8070 C 732.366 1.51337 -4.01741 0
M  V30 8071 C 731.599 2.66233 -4.62554 0
M  V30 8072 O 731.822 3.8346 -4.22273 0
M  V30 8073 O 730.756 2.39517 -5.52191 0
M  V30 8074 H 734.582 0.222304 -3.02885 0
M  V30 8075 H 732.167 0.0437141 -1.49336 0
M  V30 8076 H 734.049 2.66368 -3.26536 0
M  V30 8077 H 732.724 2.47677 -2.08417 0
M  V30 8078 H 731.631 0.777155 -3.65939 0
M  V30 8079 H 732.964 1.04175 -4.81049 0
M  V30 8080 N 734.616 1.57351 0.0885366 0
M  V30 8081 C 735.862 1.86696 0.791996 0
M  V30 8082 C 736.195 0.775148 1.78059 0
M  V30 8083 O 735.47 -0.216247 1.93294 0
M  V30 8084 C 735.753 3.26684 1.51491 0
M  V30 8085 C 735.606 4.465 0.543858 0
M  V30 8086 C 736.925 3.64664 2.46391 0
M  V30 8087 H 734.044 0.679049 0.286463 0
M  V30 8088 H 736.686 1.89919 0.0554866 0
M  V30 8089 H 734.836 3.24067 2.14273 0
M  V30 8090 H 736.508 4.61235 -0.0774597 0
M  V30 8091 H 734.751 4.33567 -0.142228 0
M  V30 8092 H 735.422 5.41192 1.08696 0
M  V30 8093 H 737.898 3.68267 1.93698 0
M  V30 8094 H 736.774 4.63534 2.93986 0
M  V30 8095 H 737.035 2.93698 3.30445 0
M  V30 8096 N 736.094 -0.359525 1.53444 0
M  V30 8097 C 737.027 -1.46338 1.75101 0
M  V30 8098 C 738.005 -1.51142 0.599559 0
M  V30 8099 O 739.189 -1.69102 0.832862 0
M  V30 8100 C 736.316 -2.84667 1.83527 0
M  V30 8101 C 735.362 -2.9756 3.05549 0
M  V30 8102 S 736.195 -2.65685 4.64943 0
M  V30 8103 C 737.351 -4.06153 4.76225 0
M  V30 8104 H 737.584 -1.27747 2.68455 0
M  V30 8105 H 735.117 -0.554231 1.4411 0
M  V30 8106 H 737.075 -3.64368 1.89067 0
M  V30 8107 H 735.736 -3.00564 0.912147 0
M  V30 8108 H 734.929 -3.98883 3.08072 0
M  V30 8109 H 734.531 -2.25789 2.98153 0
M  V30 8110 H 736.823 -5.00475 4.56652 0
M  V30 8111 H 737.766 -4.08632 5.78295 0
M  V30 8112 H 738.174 -3.93435 4.04808 0
M  V30 8113 N 737.572 -1.44907 -0.619662 0
M  V30 8114 C 738.802 -1.51575 -1.40387 0
M  V30 8115 C 739.21 -0.14309 -1.88658 0
M  V30 8116 O 738.553 0.863403 -1.62145 0
M  V30 8117 C 738.615 -2.42858 -2.65067 0
M  V30 8118 C 738.279 -3.8982 -2.38515 0
M  V30 8119 C 739.276 -4.80047 -1.99627 0
M  V30 8120 C 736.961 -4.34628 -2.51801 0
M  V30 8121 C 738.955 -6.13086 -1.74369 0
M  V30 8122 C 736.642 -5.67712 -2.26156 0
M  V30 8123 C 737.64 -6.56759 -1.875 0
M  V30 8124 O 737.328 -7.87377 -1.62148 0
M  V30 8125 H 737.06 -0.51612 -0.436573 0
M  V30 8126 H 739.614 -1.90664 -0.763959 0
M  V30 8127 H 737.844 -1.98717 -3.31735 0
M  V30 8128 H 739.533 -2.40346 -3.27091 0
M  V30 8129 H 740.299 -4.46697 -1.8891 0
M  V30 8130 H 736.178 -3.65568 -2.80857 0
M  V30 8131 H 739.722 -6.8255 -1.44122 0
M  V30 8132 H 735.619 -6.0062 -2.36486 0
M  V30 8133 H 736.387 -7.99288 -1.763 0
M  V30 8134 N 739.05 0.861098 -1.31996 0
M  V30 8135 C 740.275 1.65264 -1.2531 0
M  V30 8136 C 740.7 1.87265 0.177007 0
M  V30 8137 O 740.058 1.4208 1.12619 0
M  V30 8138 C 740.106 2.99284 -2.0115 0
M  V30 8139 O 739.21 3.89508 -1.3549 0
M  V30 8140 H 738.551 0.50409 -0.432192 0
M  V30 8141 H 741.081 1.07297 -1.74208 0
M  V30 8142 H 741.091 3.49154 -2.11081 0
M  V30 8143 H 739.766 2.82591 -3.05148 0
M  V30 8144 H 738.343 3.47966 -1.34066 0
M  V30 8145 N 740.528 1.15101 1.07655 0
M  V30 8146 C 741.768 0.934462 1.81789 0
M  V30 8147 C 742.132 -0.529101 1.84566 0
M  V30 8148 O 743.333 -0.863868 2.5454 0
M  V30 8149 C 741.604 1.52817 3.23082 0
M  V30 8150 S 743.163 1.45429 4.14 0
M  V30 8151 H 739.981 0.336379 0.626395 0
M  V30 8152 H 742.583 1.46593 1.29347 0
M  V30 8153 H 741.287 2.58635 3.18647 0
M  V30 8154 H 740.818 0.995432 3.80598 0
M  V30 8155 H 742.833 0.445058 4.942 0
M  V30 8156 N 742.006 -1.2595 0.947325 0
M  V30 8157 C 743.252 -1.94081 0.608604 0
M  V30 8158 C 743.607 -1.72899 -0.844021 0
M  V30 8159 O 742.9 -1.05908 -1.59669 0
M  V30 8160 C 743.094 -3.46034 0.894158 0
M  V30 8161 C 742.923 -3.81994 2.37299 0
M  V30 8162 C 741.693 -4.04431 3.02925 0
M  V30 8163 C 743.891 -3.90069 3.35188 0
M  V30 8164 N 741.873 -4.27325 4.40757 0
M  V30 8165 C 743.244 -4.17567 4.58299 0
M  V30 8166 C 745.299 -3.72721 3.30127 0
M  V30 8167 C 744.002 -4.2952 5.76979 0
M  V30 8168 C 746.028 -3.8591 4.48138 0
M  V30 8169 C 745.39 -4.13812 5.70034 0
M  V30 8170 H 741.489 -0.73273 0.273187 0
M  V30 8171 H 744.073 -1.51898 1.218 0
M  V30 8172 H 742.244 -3.87131 0.313758 0
M  V30 8173 H 743.976 -4.01396 0.516082 0
M  V30 8174 H 740.731 -4.0003 2.53521 0
M  V30 8175 H 741.155 -4.42792 5.12118 0
M  V30 8176 H 745.797 -3.50172 2.36938 0
M  V30 8177 H 743.515 -4.50888 6.70616 0
M  V30 8178 H 747.101 -3.73882 4.45762 0
M  V30 8179 H 745.981 -4.23791 6.59827 0
M  V30 8180 N 743.484 -0.715051 -1.40445 0
M  V30 8181 C 744.434 -0.038591 -2.27967 0
M  V30 8182 C 745.418 0.733099 -1.43229 0
M  V30 8183 O 746.61 0.605388 -1.66325 0
M  V30 8184 C 743.739 0.882801 -3.31755 0
M  V30 8185 C 742.825 0.106325 -4.23967 0
M  V30 8186 N 743.216 -0.910143 -4.97544 0
M  V30 8187 C 741.514 0.33896 -4.4471 0
M  V30 8188 C 742.215 -1.37665 -5.65175 0
M  V30 8189 N 741.191 -0.698905 -5.39088 0
M  V30 8190 H 744.993 -0.81765 -2.82297 0
M  V30 8191 H 742.507 -0.547591 -1.5289 0
M  V30 8192 H 744.504 1.38273 -3.93302 0
M  V30 8193 H 743.164 1.66124 -2.78985 0
M  V30 8194 H 744.175 -1.29097 -5.01552 0
M  V30 8195 H 740.852 1.09377 -4.02918 0
M  V30 8196 H 742.242 -2.22122 -6.34123 0
M  V30 8197 N 744.962 1.50701 -0.461195 0
M  V30 8198 C 745.872 2.32069 0.343661 0
M  V30 8199 C 746.888 1.42016 1.00535 0
M  V30 8200 O 748.064 1.75077 0.995498 0
M  V30 8201 C 745.129 3.16424 1.41692 0
M  V30 8202 C 744.19 4.22286 0.772869 0
M  V30 8203 C 743.423 5.02609 1.79499 0
M  V30 8204 O 743.646 4.83874 3.0203 0
M  V30 8205 O 742.58 5.86047 1.3723 0
M  V30 8206 H 746.406 3.01996 -0.321268 0
M  V30 8207 H 743.991 1.47723 -0.223235 0
M  V30 8208 H 745.873 3.68795 2.03883 0
M  V30 8209 H 744.548 2.49236 2.0655 0
M  V30 8210 H 743.455 3.73931 0.112277 0
M  V30 8211 H 744.788 4.91915 0.167399 0
M  V30 8212 N 746.441 0.193421 1.56409 0
M  V30 8213 C 747.388 -0.728124 2.19014 0
M  V30 8214 C 748.358 -1.21098 1.13686 0
M  V30 8215 O 749.543 -1.27517 1.4193 0
M  V30 8216 C 746.683 -1.94277 2.8522 0
M  V30 8217 C 745.796 -1.50143 4.05069 0
M  V30 8218 C 744.931 -2.67145 4.59137 0
M  V30 8219 C 743.97 -2.19609 5.71348 0
M  V30 8220 N 743.107 -3.29782 6.19829 0
M  V30 8221 H 747.947 -0.187499 2.9741 0
M  V30 8222 H 745.484 -0.0808064 1.46878 0
M  V30 8223 H 747.442 -2.65551 3.21774 0
M  V30 8224 H 746.072 -2.45673 2.09391 0
M  V30 8225 H 745.124 -0.684624 3.74189 0
M  V30 8226 H 746.436 -1.11266 4.86232 0
M  V30 8227 H 745.59 -3.46544 4.97988 0
M  V30 8228 H 744.329 -3.09295 3.77078 0
M  V30 8229 H 743.334 -1.38664 5.32027 0
M  V30 8230 H 744.559 -1.78492 6.55223 0
M  V30 8231 H 742.505 -3.71466 5.40693 0
M  V30 8232 H 742.422 -2.95069 6.96039 0
M  V30 8233 H 743.69 -4.094 6.63334 0
M  V30 8234 N 747.919 -1.57396 -0.0801906 0
M  V30 8235 C 749.33 -1.75642 -0.633002 0
M  V30 8236 C 749.681 -0.817708 -1.78348 0
M  V30 8237 O 748.806 0.000233743 -2.164 0
M  V30 8238 C 749.401 -3.18502 -1.15507 0
M  V30 8239 C 747.96 -3.38121 -1.65381 0
M  V30 8240 C 747.107 -2.71386 -0.569661 0
M  V30 8241 H 750.058 -1.58027 0.145949 0
M  V30 8242 H 750.079 -3.22198 -2.02408 0
M  V30 8243 H 749.591 -3.86799 -0.317515 0
M  V30 8244 H 747.692 -2.74926 -2.51488 0
M  V30 8245 H 747.805 -4.46521 -1.73654 0
M  V30 8246 H 746.169 -2.33702 -1.0127 0
M  V30 8247 H 746.952 -3.42332 0.257561 0
M  V30 8248 N 749.397 0.351382 -1.53633 0
M  V30 8249 C 750.307 1.45471 -1.84052 0
M  V30 8250 C 751.323 1.57945 -0.730015 0
M  V30 8251 O 752.499 1.73571 -1.02153 0
M  V30 8252 C 749.564 2.80562 -2.03681 0
M  V30 8253 C 748.625 2.77497 -3.27558 0
M  V30 8254 C 747.858 4.06144 -3.46241 0
M  V30 8255 O 748.081 5.03028 -2.68922 0
M  V30 8256 O 747.015 4.11092 -4.39645 0
M  V30 8257 H 750.841 1.22684 -2.77817 0
M  V30 8258 H 748.426 0.542827 -1.3919 0
M  V30 8259 H 750.308 3.6058 -2.18082 0
M  V30 8260 H 748.983 3.03296 -1.13106 0
M  V30 8261 H 747.89 1.96126 -3.18568 0
M  V30 8262 H 749.223 2.59716 -4.18101 0
M  V30 8263 N 750.875 1.45233 0.611969 0
M  V30 8264 C 752.123 1.48727 1.36838 0
M  V30 8265 C 752.444 0.128616 1.94575 0
M  V30 8266 O 751.714 -0.84149 1.76906 0
M  V30 8267 H 750.294 0.547695 0.507976 0
M  V30 8268 H 752.956 1.81156 0.718925 0
M  V30 8269 H 752.052 2.2236 2.19003 0
M  V30 8270 N 752.353 -0.854086 1.3245 0
M  V30 8271 C 753.769 -1.14238 1.11453 0
M  V30 8272 C 753.969 -2.01228 -0.10461 0
M  V30 8273 O 753.025 -2.39845 -0.789339 0
M  V30 8274 C 754.338 -1.81916 2.39431 0
M  V30 8275 C 755.886 -1.94549 2.45193 0
M  V30 8276 C 756.361 -2.65642 3.73093 0
M  V30 8277 N 757.852 -2.73167 3.74078 0
M  V30 8278 C 758.587 -3.28828 4.69744 0
M  V30 8279 N 758.083 -3.85295 5.75778 0
M  V30 8280 N 759.876 -3.26936 4.57241 0
M  V30 8281 H 752.027 -0.274786 2.10615 0
M  V30 8282 H 754.29 -0.184375 0.929898 0
M  V30 8283 H 753.996 -1.25452 3.28565 0
M  V30 8284 H 753.87 -2.82068 2.50434 0
M  V30 8285 H 756.257 -2.50172 1.56518 0
M  V30 8286 H 756.338 -0.933914 2.38142 0
M  V30 8287 H 755.982 -2.10683 4.62142 0
M  V30 8288 H 755.912 -3.6724 3.77415 0
M  V30 8289 H 758.403 -2.33108 2.97438 0
M  V30 8290 H 758.716 -4.25925 6.44832 0
M  V30 8291 H 757.061 -3.83625 5.79531 0
M  V30 8292 H 760.252 -2.8207 3.7357 0
M  V30 8293 H 760.425 -3.70014 5.31971 0
M  V30 8294 N 753.831 -1.1567 -1.07043 0
M  V30 8295 C 755.242 -0.942408 -1.61169 0
M  V30 8296 C 755.593 0.515537 -1.89306 0
M  V30 8297 O 754.718 1.38726 -1.66084 0
M  V30 8298 C 755.313 -1.70431 -2.92812 0
M  V30 8299 C 753.872 -1.53521 -3.43669 0
M  V30 8300 C 753.019 -1.7179 -2.17678 0
M  V30 8301 H 755.97 -1.3065 -0.9009 0
M  V30 8302 H 755.991 -1.17566 -3.61882 0
M  V30 8303 H 755.503 -2.76538 -2.72302 0
M  V30 8304 H 753.604 -0.498224 -3.69254 0
M  V30 8305 H 753.717 -2.31422 -4.19501 0
M  V30 8306 H 752.081 -1.14468 -2.27529 0
M  V30 8307 H 752.864 -2.79269 -1.99659 0
M  V30 8308 N 755.309 1.25446 -0.953992 0
M  V30 8309 C 756.537 1.97215 -0.625595 0
M  V30 8310 C 756.952 1.70911 0.802168 0
M  V30 8311 O 756.309 0.984782 1.5365 0
M  V30 8312 C 756.36 3.50777 -0.873943 0
M  V30 8313 O 756.081 3.76173 -2.24556 0
M  V30 8314 C 757.582 4.39776 -0.557845 0
M  V30 8315 H 754.802 0.628652 -0.2346 0
M  V30 8316 H 757.346 1.59632 -1.27819 0
M  V30 8317 H 755.501 3.86474 -0.267765 0
M  V30 8318 H 755.915 4.70636 -2.31522 0
M  V30 8319 H 757.389 5.46431 -0.782157 0
M  V30 8320 H 757.866 4.36257 0.507573 0
M  V30 8321 H 758.472 4.09644 -1.14332 0
M  V30 8322 N 756.787 0.722489 1.40064 0
M  V30 8323 C 758.034 0.264979 2.00759 0
M  V30 8324 C 758.362 -1.14395 1.57302 0
M  V30 8325 O 757.617 -1.79165 0.787298 0
M  V30 8326 C 757.916 0.300682 3.56133 0
M  V30 8327 C 757.582 1.66087 4.19197 0
M  V30 8328 C 756.244 2.03319 4.36136 0
M  V30 8329 C 758.596 2.55452 4.54306 0
M  V30 8330 C 755.924 3.29448 4.8547 0
M  V30 8331 C 758.276 3.8094 5.05042 0
M  V30 8332 C 756.94 4.1828 5.2019 0
M  V30 8333 H 756.21 0.0969625 0.734629 0
M  V30 8334 H 758.857 0.926877 1.67575 0
M  V30 8335 H 757.162 -0.44479 3.89267 0
M  V30 8336 H 758.859 -0.0712542 4.00937 0
M  V30 8337 H 755.449 1.36137 4.06405 0
M  V30 8338 H 759.633 2.27961 4.40849 0
M  V30 8339 H 754.889 3.58338 4.95382 0
M  V30 8340 H 759.063 4.50351 5.31184 0
M  V30 8341 H 756.69 5.16081 5.58179 0
M  V30 8342 N 758.265 -1.50454 0.469181 0
M  V30 8343 C 759.228 -2.2703 -0.314643 0
M  V30 8344 C 760.228 -1.31734 -0.922111 0
M  V30 8345 O 761.418 -1.55176 -0.791588 0
M  V30 8346 C 758.55 -3.08616 -1.44806 0
M  V30 8347 H 759.743 -2.97769 0.356892 0
M  V30 8348 H 757.296 -1.54698 0.223191 0
M  V30 8349 H 758.031 -2.42369 -2.1547 0
M  V30 8350 H 757.816 -3.78647 -1.01829 0
M  V30 8351 H 759.306 -3.66536 -2.00103 0
M  V30 8352 N 759.743 -0.201713 -1.56304 0
M  V30 8353 C 760.653 0.728296 -2.23009 0
M  V30 8354 C 761.669 1.22945 -1.23128 0
M  V30 8355 O 762.845 1.27523 -1.55884 0
M  V30 8356 C 759.91 1.92792 -2.88153 0
M  V30 8357 C 758.971 1.47068 -4.03323 0
M  V30 8358 C 758.204 2.61312 -4.65351 0
M  V30 8359 O 758.427 3.7896 -4.26317 0
M  V30 8360 O 757.361 2.33646 -5.54701 0
M  V30 8361 H 761.187 0.190166 -3.03104 0
M  V30 8362 H 758.772 0.0278725 -1.49374 0
M  V30 8363 H 760.654 2.6289 -3.29343 0
M  V30 8364 H 759.329 2.45452 -2.11033 0
M  V30 8365 H 758.236 0.738299 -3.66742 0
M  V30 8366 H 759.569 0.990666 -4.82127 0
M  V30 8367 N 761.222 1.57436 0.0718424 0
M  V30 8368 C 762.152 2.06724 1.08571 0
M  V30 8369 C 763.133 0.960731 1.40371 0
M  V30 8370 O 764.318 1.23345 1.49999 0
M  V30 8371 C 761.448 2.51112 2.39916 0
M  V30 8372 C 760.402 3.65639 2.22469 0
M  V30 8373 C 759.728 3.96082 3.59198 0
M  V30 8374 C 761.028 4.95687 1.64596 0
M  V30 8375 H 762.722 2.91679 0.675569 0
M  V30 8376 H 760.268 1.40319 0.32352 0
M  V30 8377 H 762.221 2.84206 3.11135 0
M  V30 8378 H 760.945 1.63186 2.8291 0
M  V30 8379 H 759.604 3.32828 1.53691 0
M  V30 8380 H 759.252 3.05287 3.99761 0
M  V30 8381 H 758.952 4.73199 3.48362 0
M  V30 8382 H 760.476 4.31672 4.31847 0
M  V30 8383 H 761.89 5.27011 2.25681 0
M  V30 8384 H 760.287 5.77126 1.64457 0
M  V30 8385 H 761.357 4.8108 0.60744 0
M  V30 8386 N 762.7 -0.34323 1.53817 0
M  V30 8387 C 763.63 -1.42709 1.84814 0
M  V30 8388 C 764.611 -1.5488 0.703297 0
M  V30 8389 O 765.796 -1.69082 0.955237 0
M  V30 8390 C 762.926 -2.79756 2.05801 0
M  V30 8391 C 761.88 -2.82392 3.21619 0
M  V30 8392 C 761.206 -4.22326 3.2794 0
M  V30 8393 C 762.506 -2.479 4.59721 0
M  V30 8394 H 764.2 -1.17018 2.75585 0
M  V30 8395 H 761.746 -0.561485 1.32602 0
M  V30 8396 H 763.699 -3.55627 2.26069 0
M  V30 8397 H 762.423 -3.06883 1.11761 0
M  V30 8398 H 761.082 -2.08974 3.01207 0
M  V30 8399 H 760.73 -4.46564 2.31494 0
M  V30 8400 H 760.43 -4.25001 4.05768 0
M  V30 8401 H 761.954 -5.00039 3.50419 0
M  V30 8402 H 763.368 -3.13484 4.80001 0
M  V30 8403 H 761.765 -2.61857 5.39954 0
M  V30 8404 H 762.835 -1.43087 4.63308 0
M  V30 8405 N 764.178 -1.45556 -0.604258 0
M  V30 8406 C 765.594 -1.30035 -0.925368 0
M  V30 8407 C 765.794 -0.255833 -1.99869 0
M  V30 8408 O 764.85 0.349076 -2.50075 0
M  V30 8409 C 766.163 -2.68028 -1.36314 0
M  V30 8410 C 767.711 -2.75951 -1.47717 0
M  V30 8411 C 768.186 -4.14476 -1.94868 0
M  V30 8412 N 769.677 -4.16787 -2.02097 0
M  V30 8413 C 770.412 -5.20845 -2.39809 0
M  V30 8414 N 769.908 -6.35246 -2.76467 0
M  V30 8415 N 771.701 -5.08204 -2.40177 0
M  V30 8416 H 763.852 -2.1214 0.10512 0
M  V30 8417 H 766.115 -0.947871 -0.0156303 0
M  V30 8418 H 765.821 -3.45667 -0.648628 0
M  V30 8419 H 765.695 -2.96711 -2.329 0
M  V30 8420 H 768.082 -1.98613 -2.18258 0
M  V30 8421 H 768.163 -2.50977 -0.494371 0
M  V30 8422 H 767.807 -4.923 -1.24912 0
M  V30 8423 H 767.737 -4.36843 -2.94068 0
M  V30 8424 H 770.228 -3.34233 -1.76343 0
M  V30 8425 H 770.541 -7.10438 -3.04134 0
M  V30 8426 H 768.886 -6.38642 -2.74155 0
M  V30 8427 H 772.077 -4.17874 -2.10947 0
M  V30 8428 H 772.25 -5.89417 -2.69242 0
M  V30 8429 N 765.656 0.84705 -1.32902 0
M  V30 8430 C 766.619 1.9378 -1.224 0
M  V30 8431 C 767.619 1.60144 -0.145108 0
M  V30 8432 O 768.809 1.69638 -0.396058 0
M  V30 8433 C 765.941 3.29234 -0.884174 0
M  V30 8434 H 767.134 2.04518 -2.19345 0
M  V30 8435 H 764.687 1.03816 -1.16842 0
M  V30 8436 H 765.422 3.24193 0.0831277 0
M  V30 8437 H 765.207 3.55026 -1.6643 0
M  V30 8438 H 766.697 4.09162 -0.835226 0
M  V30 8439 N 767.134 1.16236 1.06428 0
M  V30 8440 C 768.38 0.944431 1.79467 0
M  V30 8441 C 768.713 -0.526558 1.86925 0
M  V30 8442 O 767.988 -1.39061 1.35986 0
M  V30 8443 C 768.271 1.57092 3.24028 0
M  V30 8444 C 768.124 3.11315 3.24658 0
M  V30 8445 C 769.443 1.26447 4.21544 0
M  V30 8446 H 766.562 0.344521 0.651517 0
M  V30 8447 H 769.204 1.43545 1.24478 0
M  V30 8448 H 767.354 1.15337 3.70985 0
M  V30 8449 H 769.026 3.62042 2.85873 0
M  V30 8450 H 767.269 3.44716 2.6335 0
M  V30 8451 H 767.94 3.50269 4.26633 0
M  V30 8452 H 770.416 1.62581 3.83023 0
M  V30 8453 H 769.292 1.72885 5.20963 0
M  V30 8454 H 769.553 0.183068 4.41721 0
M  V30 8455 N 768.612 -1.24939 0.960631 0
M  V30 8456 C 769.84 -1.96881 0.636045 0
M  V30 8457 C 770.255 -1.71334 -0.793093 0
M  V30 8458 O 769.612 -0.992917 -1.53125 0
M  V30 8459 C 769.663 -3.50309 0.892533 0
M  V30 8460 O 769.384 -3.74977 2.26548 0
M  V30 8461 C 770.885 -4.39474 0.581159 0
M  V30 8462 H 768.105 -0.627399 0.237931 0
M  V30 8463 H 770.649 -1.58952 1.28664 0
M  V30 8464 H 768.804 -3.86326 0.288257 0
M  V30 8465 H 769.218 -4.69401 2.34014 0
M  V30 8466 H 770.692 -5.46008 0.811125 0
M  V30 8467 H 771.169 -4.3652 -0.48443 0
M  V30 8468 H 771.775 -4.09032 1.16502 0
M  V30 8469 N 770.09 -0.729906 -1.39679 0
M  V30 8470 C 771 -0.0880322 -2.34435 0
M  V30 8471 C 772.016 0.727674 -1.58053 0
M  V30 8472 O 773.192 0.657321 -1.90371 0
M  V30 8473 C 770.257 0.812211 -3.37052 0
M  V30 8474 C 769.318 -0.0151681 -4.29297 0
M  V30 8475 C 768.551 0.842202 -5.27013 0
M  V30 8476 O 768.774 2.08108 -5.31081 0
M  V30 8477 O 767.708 0.27357 -6.01278 0
M  V30 8478 H 771.534 -0.869989 -2.90972 0
M  V30 8479 H 769.119 -0.490522 -1.41118 0
M  V30 8480 H 771.001 1.32745 -3.99946 0
M  V30 8481 H 769.676 1.57307 -2.82907 0
M  V30 8482 H 768.583 -0.575811 -3.69642 0
M  V30 8483 H 769.916 -0.738129 -4.86634 0
M  V30 8484 N 771.568 1.50203 -0.477153 0
M  V30 8485 C 772.817 2.01551 0.0774548 0
M  V30 8486 C 773.13 1.36359 1.40234 0
M  V30 8487 O 774.336 1.78898 2.04225 0
M  V30 8488 C 772.792 3.59406 0.188539 0
M  V30 8489 C 772.4 4.3356 -1.12828 0
M  V30 8490 C 774.144 4.18776 0.694782 0
M  V30 8491 C 772.051 5.83213 -0.98066 0
M  V30 8492 H 770.981 0.75329 0.0327212 0
M  V30 8493 H 773.632 1.72959 -0.612969 0
M  V30 8494 H 772.014 3.84611 0.942881 0
M  V30 8495 H 773.188 4.20074 -1.89405 0
M  V30 8496 H 771.503 3.85827 -1.5661 0
M  V30 8497 H 774.1 5.28338 0.822356 0
M  V30 8498 H 774.443 3.80557 1.68766 0
M  V30 8499 H 774.976 3.978 -0.00234519 0
M  V30 8500 H 771.715 6.25914 -1.94709 0
M  V30 8501 H 771.235 5.99256 -0.255375 0
M  V30 8502 H 772.914 6.4373 -0.649717 0
M  V30 8503 N 773.046 0.209999 1.56195 0
M  V30 8504 C 774.009 -0.691232 2.18528 0
M  V30 8505 C 775.009 -1.13013 1.14388 0
M  V30 8506 O 776.199 -1.04081 1.39688 0
M  V30 8507 C 773.331 -1.94551 2.79934 0
M  V30 8508 H 774.524 -0.147953 2.99535 0
M  V30 8509 H 772.077 -0.0396243 1.5625 0
M  V30 8510 H 772.812 -2.53094 2.02766 0
M  V30 8511 H 772.597 -1.63938 3.56184 0
M  V30 8512 H 774.087 -2.58785 3.2775 0
M  V30 8513 N 774.524 -1.57472 -0.0634922 0
M  V30 8514 C 775.434 -2.07621 -1.09227 0
M  V30 8515 C 776.45 -1.00746 -1.41867 0
M  V30 8516 O 777.626 -1.32269 -1.51878 0
M  V30 8517 C 774.691 -2.51707 -2.38421 0
M  V30 8518 C 773.752 -3.72917 -2.12676 0
M  V30 8519 C 772.985 -4.14891 -3.3571 0
M  V30 8520 O 773.208 -3.56663 -4.45137 0
M  V30 8521 O 772.142 -5.07616 -3.23434 0
M  V30 8522 H 775.968 -2.95612 -0.696205 0
M  V30 8523 H 773.553 -1.46787 -0.27819 0
M  V30 8524 H 775.435 -2.80547 -3.14438 0
M  V30 8525 H 774.11 -1.66842 -2.77391 0
M  V30 8526 H 773.017 -3.49148 -1.34337 0
M  V30 8527 H 774.35 -4.5866 -1.78583 0
M  V30 8528 N 776.003 0.335068 -1.53997 0
M  V30 8529 C 777.231 1.09418 -1.756 0
M  V30 8530 C 777.646 1.82083 -0.499138 0
M  V30 8531 O 777.003 1.74646 0.529631 0
M  V30 8532 C 777.054 2.10115 -2.94166 0
M  V30 8533 O 776.775 1.40404 -4.14992 0
M  V30 8534 C 778.276 2.98336 -3.27888 0
M  V30 8535 H 775.496 0.32595 -0.586513 0
M  V30 8536 H 778.04 0.384693 -2.00849 0
M  V30 8537 H 776.195 2.76616 -2.71224 0
M  V30 8538 H 776.609 2.07743 -4.81605 0
M  V30 8539 H 778.083 3.6491 -4.1418 0
M  V30 8540 H 778.56 3.64814 -2.44556 0
M  V30 8541 H 779.166 2.37412 -3.52868 0
M  V30 8542 N 777.481 1.45874 0.596531 0
M  V30 8543 C 778.727 1.51679 1.35518 0
M  V30 8544 C 779.082 0.160681 1.91728 0
M  V30 8545 O 778.375 -0.828886 1.72743 0
M  V30 8546 C 778.569 2.54034 2.51399 0
M  V30 8547 C 778.398 3.99465 2.06538 0
M  V30 8548 C 777.168 4.67321 1.92196 0
M  V30 8549 C 779.366 4.87674 1.63336 0
M  V30 8550 N 777.348 5.97427 1.41261 0
M  V30 8551 C 778.719 6.07495 1.23895 0
M  V30 8552 C 780.774 4.74442 1.51028 0
M  V30 8553 C 779.477 7.15548 0.733739 0
M  V30 8554 C 781.503 5.82553 1.0191 0
M  V30 8555 C 780.865 7.01537 0.634403 0
M  V30 8556 H 776.964 0.609933 0.489393 0
M  V30 8557 H 779.548 1.82411 0.680746 0
M  V30 8558 H 777.719 2.25235 3.16424 0
M  V30 8559 H 779.451 2.49918 3.18313 0
M  V30 8560 H 776.206 4.22635 2.1372 0
M  V30 8561 H 776.63 6.66638 1.17995 0
M  V30 8562 H 781.272 3.82855 1.79393 0
M  V30 8563 H 778.99 8.06914 0.437656 0
M  V30 8564 H 782.576 5.74352 0.927977 0
M  V30 8565 H 781.456 7.83768 0.26019 0
M  V30 8566 O 778.998 -0.740596 1.43518 0
M  V30 8567 H 779.689 -1.39004 1.34898 0
M  V30 END ATOM
M  V30 BEGIN BOND
M  V30 END BOND
M  V30 END CTAB
M  END
$$$$
