drugbank_target|P42685 Tyrosine-protein kinase FRK (DB01254; DB08896; DB12010; DB15035)
 OpenBabel12092120583D

  0  0  0     0  0            999 V3000
M  V30 BEGIN CTAB
M  V30 COUNTS 8129 8231 0 0 0
M  V30 BEGIN ATOM
M  V30 1 H -0.908 1.98254 -0.117106 0
M  V30 2 N 0 1.576 0 0
M  V30 3 C 0.933 2.03868 1.02534 0
M  V30 4 C 1.911 0.928543 1.3348 0
M  V30 5 O 3.095 1.19667 1.45644 0
M  V30 6 C 0.222 2.43627 2.35294 0
M  V30 7 C -0.732 3.65373 2.2001 0
M  V30 8 S 0.101 5.13292 1.52614 0
M  V30 9 C 1.257 5.56322 2.86805 0
M  V30 10 H 1.49 2.90518 0.631377 0
M  V30 11 H -0.977 1.52953 0.210867 0
M  V30 12 H 0.981 2.67203 3.11629 0
M  V30 13 H -0.358 1.57376 2.7183 0
M  V30 14 H -1.165 3.90944 3.18086 0
M  V30 15 H -1.563 3.418 1.51819 0
M  V30 16 H 0.729 5.58782 3.83104 0
M  V30 17 H 1.672 6.56266 2.65933 0
M  V30 18 H 2.08 4.83886 2.90714 0
M  V30 19 N 1.4781 -0.272755 1.55222 0
M  V30 20 C 2.7031 -1.02683 1.80197 0
M  V30 21 C 3.1281 -1.79142 0.573551 0
M  V30 22 O 2.4861 -1.74917 -0.476849 0
M  V30 23 C 2.5341 -1.9609 3.02624 0
M  V30 24 O 1.6381 -3.04863 2.77727 0
M  V30 25 H 0.9791 -0.293557 0.595584 0
M  V30 26 H 3.5091 -0.30159 2.02365 0
M  V30 27 H 3.5191 -2.38039 3.31363 0
M  V30 28 H 2.1941 -1.39851 3.91682 0
M  V30 29 H 0.7711 -2.67228 2.60084 0
M  V30 30 N 2.9562 -1.48159 -0.537278 0
M  V30 31 C 3.9042 -1.62573 -1.66352 0
M  V30 32 C 4.8982 -0.492366 -1.62087 0
M  V30 33 O 6.1042 -0.670847 -1.67032 0
M  V30 34 H 2.4792 -0.511992 -0.550789 0
M  V30 35 H 4.4502 -2.57176 -1.51337 0
M  V30 36 C 3.1992 -1.67583 -3.04649 0
M  V30 37 H 2.5222 -2.54151 -3.08622 0
M  V30 38 H 3.9622 -1.81713 -3.83088 0
M  V30 39 C 2.4212 -0.413039 -3.34358 0
M  V30 40 O 2.9512 0.477259 -3.98855 0
M  V30 41 N 1.1572 -0.286961 -2.8918 0
M  V30 42 H 0.7042 -1.01241 -2.36871 0
M  V30 43 H 0.6622 0.556963 -3.09427 0
M  V30 44 N 4.4343 0.785586 -1.36625 0
M  V30 45 C 5.6833 1.53883 -1.30396 0
M  V30 46 C 5.9963 1.95271 0.113452 0
M  V30 47 O 7.2023 2.69858 0.298142 0
M  V30 48 C 5.6583 2.77808 -2.28802 0
M  V30 49 C 5.2663 2.43574 -3.75999 0
M  V30 50 C 7.0103 3.55783 -2.31558 0
M  V30 51 C 4.9173 3.63919 -4.66173 0
M  V30 52 H 3.8473 0.577678 -0.484566 0
M  V30 53 H 6.4983 0.861705 -1.62009 0
M  V30 54 H 4.8803 3.47339 -1.90188 0
M  V30 55 H 6.0543 1.81916 -4.23371 0
M  V30 56 H 4.3693 1.78803 -3.76056 0
M  V30 57 H 6.9663 4.45205 -2.96137 0
M  V30 58 H 7.3093 3.94644 -1.3252 0
M  V30 59 H 7.8423 2.93235 -2.68809 0
M  V30 60 H 4.5813 3.3015 -5.66287 0
M  V30 61 H 4.1013 4.2473 -4.23515 0
M  V30 62 H 5.7803 4.30901 -4.82632 0
M  V30 63 N 5.9124 1.20967 1.01018 0
M  V30 64 C 7.1524 1.03511 1.76252 0
M  V30 65 C 7.5164 -0.42458 1.87247 0
M  V30 66 O 8.7174 -0.719508 2.58991 0
M  V30 67 C 6.9884 1.70726 3.13986 0
M  V30 68 S 8.5474 1.68458 4.05176 0
M  V30 69 H 5.3654 0.371037 0.606508 0
M  V30 70 H 7.9674 1.53628 1.20908 0
M  V30 71 H 6.6714 2.76128 3.03614 0
M  V30 72 H 6.2024 1.20767 3.74405 0
M  V30 73 H 8.2174 0.721987 4.90919 0
M  V30 74 N 7.3905 -1.2043 1.01659 0
M  V30 75 C 8.3225 -2.22626 0.544988 0
M  V30 76 C 9.3355 -1.58479 -0.372609 0
M  V30 77 O 10.5245 -1.77679 -0.170958 0
M  V30 78 C 7.6245 -3.38141 -0.22663 0
M  V30 79 C 6.7975 -4.31877 0.692876 0
M  V30 80 C 5.8565 -5.26191 -0.0311616 0
M  V30 81 O 4.8825 -5.6612 0.591343 0
M  V30 82 N 6.0845 -5.65618 -1.30601 0
M  V30 83 H 8.8495 -2.63716 1.42388 0
M  V30 84 H 6.4105 -1.34971 0.894116 0
M  V30 85 H 8.4025 -3.98239 -0.72024 0
M  V30 86 H 6.9725 -2.95943 -1.00681 0
M  V30 87 H 6.1925 -3.69746 1.36679 0
M  V30 88 H 7.4805 -4.91426 1.31824 0
M  V30 89 H 6.8785 -5.3519 -1.83269 0
M  V30 90 H 5.4355 -6.28025 -1.74435 0
M  V30 91 N 8.8686 -0.792821 -1.36206 0
M  V30 92 C 10.2846 -0.474903 -1.52371 0
M  V30 93 C 10.4846 1.00622 -1.74578 0
M  V30 94 O 9.5406 1.79162 -1.77924 0
M  V30 95 C 10.8536 -1.3083 -2.70747 0
M  V30 96 C 12.4016 -1.30234 -2.84619 0
M  V30 97 C 12.8766 -2.11956 -4.06004 0
M  V30 98 N 14.3676 -2.09419 -4.13156 0
M  V30 99 C 15.1026 -2.69419 -5.06163 0
M  V30 100 N 14.5986 -3.3829 -6.04592 0
M  V30 101 N 16.3916 -2.59134 -4.98804 0
M  V30 102 H 8.5426 -1.75222 -1.20046 0
M  V30 103 H 10.8056 -0.745024 -0.586211 0
M  V30 104 H 10.5116 -2.35881 -2.6087 0
M  V30 105 H 10.3856 -0.95196 -3.6499 0
M  V30 106 H 12.7726 -0.259748 -2.93955 0
M  V30 107 H 12.8536 -1.69847 -1.91274 0
M  V30 108 H 12.4976 -3.16248 -3.97429 0
M  V30 109 H 12.4276 -1.69711 -4.98503 0
M  V30 110 H 14.9186 -1.59297 -3.42685 0
M  V30 111 H 15.2316 -3.81394 -6.7213 0
M  V30 112 H 13.5766 -3.42393 -6.04807 0
M  V30 113 H 16.7676 -2.04927 -4.20859 0
M  V30 114 H 16.9406 -3.06185 -5.711 0
M  V30 115 N 10.3467 1.47872 -0.545128 0
M  V30 116 C 11.2767 2.32661 0.197793 0
M  V30 117 C 12.2577 1.43041 0.920504 0
M  V30 118 O 13.4427 1.71912 0.90333 0
M  V30 119 C 10.5727 3.24569 1.23582 0
M  V30 120 C 9.5267 4.23333 0.630323 0
M  V30 121 C 8.8527 5.0448 1.77211 0
M  V30 122 C 10.1527 5.20704 -0.407974 0
M  V30 123 H 11.8467 2.95024 -0.510045 0
M  V30 124 H 9.3927 1.4187 -0.246731 0
M  V30 125 H 11.3457 3.8272 1.76362 0
M  V30 126 H 10.0697 2.60236 1.97344 0
M  V30 127 H 8.7287 3.6639 0.123922 0
M  V30 128 H 8.3767 4.36561 2.49847 0
M  V30 129 H 8.0767 5.71339 1.37281 0
M  V30 130 H 9.6007 5.65487 2.3034 0
M  V30 131 H 11.0147 5.7329 0.033305 0
M  V30 132 H 9.4117 5.95699 -0.725486 0
M  V30 133 H 10.4817 4.66917 -1.30828 0
M  V30 134 N 11.8248 0.280983 1.55075 0
M  V30 135 C 13.0708 -0.327573 2.00745 0
M  V30 136 C 13.4258 -1.53045 1.16598 0
M  V30 137 O 12.7188 -1.90221 0.229451 0
M  V30 138 C 12.9128 -0.754656 3.49342 0
M  V30 139 C 12.7418 0.40529 4.4787 0
M  V30 140 C 11.5118 0.890947 4.97383 0
M  V30 141 C 13.7098 1.24371 4.99035 0
M  V30 142 N 11.6918 2.01975 5.79724 0
M  V30 143 C 13.0628 2.22031 5.7888 0
M  V30 144 C 15.1178 1.27638 4.81262 0
M  V30 145 C 13.8208 3.22709 6.42846 0
M  V30 146 C 15.8468 2.27164 5.46031 0
M  V30 147 C 15.2088 3.23556 6.25692 0
M  V30 148 H 11.3078 -0.0848774 0.77738 0
M  V30 149 H 13.8918 0.406342 1.90413 0
M  V30 150 H 12.0628 -1.45778 3.60005 0
M  V30 151 H 13.7948 -1.34105 3.81835 0
M  V30 152 H 10.5498 0.469262 4.71269 0
M  V30 153 H 10.9738 2.58794 6.25584 0
M  V30 154 H 15.6158 0.544936 4.19274 0
M  V30 155 H 13.3338 3.96784 7.0398 0
M  V30 156 H 16.9198 2.30441 5.34217 0
M  V30 157 H 15.7998 3.99309 6.74924 0
M  V30 158 N 13.3029 -1.57598 0.00835791 0
M  V30 159 C 14.2129 -2.12385 -0.996487 0
M  V30 160 C 15.2289 -1.07108 -1.37127 0
M  V30 161 O 16.4049 -1.39055 -1.4569 0
M  V30 162 C 13.4699 -2.62314 -2.26699 0
M  V30 163 C 12.5309 -3.82225 -1.95456 0
M  V30 164 C 11.7639 -4.29763 -3.16449 0
M  V30 165 O 11.9869 -3.76584 -4.28416 0
M  V30 166 O 10.9209 -5.21832 -2.99958 0
M  V30 167 H 14.7469 -2.98479 -0.560725 0
M  V30 168 H 12.3319 -1.47903 -0.210987 0
M  V30 169 H 14.2139 -2.94589 -3.01322 0
M  V30 170 H 12.8889 -1.79313 -2.69497 0
M  V30 171 H 11.7959 -3.54909 -1.18282 0
M  V30 172 H 13.1289 -4.66324 -1.57489 0
M  V30 173 N 14.781 0.264519 -1.55364 0
M  V30 174 C 16.011 1.01153 -1.80143 0
M  V30 175 C 16.419 1.80115 -0.579253 0
M  V30 176 O 15.762 1.77813 0.46132 0
M  V30 177 C 15.824 2.01098 -2.97993 0
M  V30 178 C 15.488 1.40995 -4.34706 0
M  V30 179 C 16.485 0.821316 -5.13372 0
M  V30 180 C 14.17 1.43461 -4.81378 0
M  V30 181 C 16.164 0.265339 -6.36847 0
M  V30 182 C 13.851 0.874771 -6.04807 0
M  V30 183 C 14.849 0.291146 -6.82379 0
M  V30 184 O 14.537 -0.260093 -8.03479 0
M  V30 185 H 14.269 0.304125 -0.603725 0
M  V30 186 H 16.823 0.298089 -2.03225 0
M  V30 187 H 15.053 2.76224 -2.70623 0
M  V30 188 H 16.742 2.61997 -3.1002 0
M  V30 189 H 17.508 0.794903 -4.78442 0
M  V30 190 H 13.387 1.87826 -4.21002 0
M  V30 191 H 16.931 -0.190837 -6.97339 0
M  V30 192 H 12.828 0.898452 -6.39217 0
M  V30 193 H 13.596 -0.150265 -8.18362 0
M  V30 194 N 16.2591 1.48442 0.529413 0
M  V30 195 C 17.1891 1.65902 1.64313 0
M  V30 196 C 18.1701 0.507897 1.6234 0
M  V30 197 O 19.3551 0.740503 1.79528 0
M  V30 198 C 16.4851 1.69911 3.02898 0
M  V30 199 C 15.4391 2.8453 3.19729 0
M  V30 200 C 14.7651 2.73629 4.59381 0
M  V30 201 C 16.0651 4.25821 3.02447 0
M  V30 202 H 17.7591 2.5914 1.49955 0
M  V30 203 H 15.3051 1.24709 0.719982 0
M  V30 204 H 17.2581 1.80715 3.80684 0
M  V30 205 H 15.9821 0.732524 3.18279 0
M  V30 206 H 14.6411 2.73283 2.44361 0
M  V30 207 H 14.2891 1.74938 4.71599 0
M  V30 208 H 13.9891 3.50541 4.71588 0
M  V30 209 H 15.5131 2.86401 5.39265 0
M  V30 210 H 16.9271 4.37898 3.70024 0
M  V30 211 H 15.3241 5.03735 3.26146 0
M  V30 212 H 16.3941 4.42244 1.98867 0
M  V30 213 N 17.7372 -0.778329 1.37039 0
M  V30 214 C 18.6472 -1.92253 1.34446 0
M  V30 215 C 19.6632 -1.72267 0.244991 0
M  V30 216 O 20.8392 -1.95615 0.479258 0
M  V30 217 C 17.9042 -3.27282 1.144 0
M  V30 218 C 16.9652 -3.59969 2.33925 0
M  V30 219 C 16.1982 -4.88555 2.14825 0
M  V30 220 O 16.4212 -5.59113 1.12912 0
M  V30 221 O 15.3552 -5.20153 3.02861 0
M  V30 222 H 19.1812 -1.97392 2.30803 0
M  V30 223 H 16.7662 -0.920154 1.17701 0
M  V30 224 H 18.6482 -4.08062 1.05182 0
M  V30 225 H 17.3232 -3.23011 0.211124 0
M  V30 226 H 16.2302 -2.7945 2.48714 0
M  V30 227 H 17.5632 -3.68976 3.25757 0
M  V30 228 N 19.2153 -1.21501 -1.00376 0
M  V30 229 C 20.6263 -1.03146 -1.55621 0
M  V30 230 C 20.9773 0.408375 -1.91903 0
M  V30 231 O 20.1023 1.29177 -1.73616 0
M  V30 232 C 20.6973 -1.86612 -2.82775 0
M  V30 233 C 19.2563 -1.72586 -3.34501 0
M  V30 234 C 18.4033 -1.83747 -2.07683 0
M  V30 235 H 21.3543 -1.35505 -0.826081 0
M  V30 236 H 21.3753 -1.3771 -3.54706 0
M  V30 237 H 20.8873 -2.91399 -2.56336 0
M  V30 238 H 18.9883 -0.704877 -3.65872 0
M  V30 239 H 19.1013 -2.54623 -4.05837 0
M  V30 240 H 17.4653 -1.27069 -2.20739 0
M  V30 241 H 18.2483 -2.90044 -1.83655 0
M  V30 242 N 20.6934 1.19889 -1.02296 0
M  V30 243 C 21.9234 1.93109 -0.734332 0
M  V30 244 C 22.3314 1.75377 0.709889 0
M  V30 245 O 21.6744 1.06912 1.49384 0
M  V30 246 C 21.7364 3.45362 -0.99827 0
M  V30 247 C 21.4004 3.8686 -2.43287 0
M  V30 248 C 22.3974 3.92102 -3.41397 0
M  V30 249 C 20.0824 4.18668 -2.77529 0
M  V30 250 C 22.0764 4.28573 -4.71809 0
M  V30 251 C 19.7634 4.54813 -4.08153 0
M  V30 252 C 20.7614 4.59739 -5.05103 0
M  V30 253 O 20.4494 4.95051 -6.33388 0
M  V30 254 H 20.1814 0.620409 -0.268456 0
M  V30 255 H 22.7354 1.53144 -1.3688 0
M  V30 256 H 20.9654 3.85482 -0.306645 0
M  V30 257 H 22.6544 3.99814 -0.700234 0
M  V30 258 H 23.4204 3.67685 -3.1628 0
M  V30 259 H 19.2994 4.14021 -2.0275 0
M  V30 260 H 22.8434 4.32333 -5.4748 0
M  V30 261 H 18.7404 4.78687 -4.33047 0
M  V30 262 H 19.5084 5.1302 -6.37772 0
M  V30 263 N 22.1715 0.800033 1.35784 0
M  V30 264 C 23.1015 0.220184 2.3246 0
M  V30 265 C 24.0825 -0.65073 1.57161 0
M  V30 266 O 25.2675 -0.582359 1.85263 0
M  V30 267 C 22.3975 -0.637353 3.41402 0
M  V30 268 C 21.3515 0.134531 4.27789 0
M  V30 269 C 20.6775 -0.844285 5.27992 0
M  V30 270 C 21.9775 1.32979 5.05088 0
M  V30 271 H 23.6715 1.02787 2.81203 0
M  V30 272 H 21.2175 0.495717 1.35199 0
M  V30 273 H 23.1705 -1.05302 4.08031 0
M  V30 274 H 21.8945 -1.47785 2.91251 0
M  V30 275 H 20.5535 0.531296 3.6273 0
M  V30 276 H 20.2015 -1.68011 4.74111 0
M  V30 277 H 19.9015 -0.332184 5.8666 0
M  V30 278 H 21.4255 -1.2583 5.97494 0
M  V30 279 H 22.8395 0.98934 5.64699 0
M  V30 280 H 21.2365 1.77593 5.7322 0
M  V30 281 H 22.3065 2.11978 4.36111 0
M  V30 282 N 23.6496 -1.47581 0.552962 0
M  V30 283 C 25.0606 -1.86324 0.118463 0
M  V30 284 C 25.4116 -1.46006 -1.3106 0
M  V30 285 O 24.5366 -0.861182 -1.98526 0
M  V30 286 C 25.1316 -3.3816 0.20821 0
M  V30 287 C 23.6906 -3.7601 -0.171226 0
M  V30 288 C 22.8376 -2.71634 0.557686 0
M  V30 289 H 25.7886 -1.39159 0.762928 0
M  V30 290 H 25.8096 -3.76141 -0.574278 0
M  V30 291 H 25.3216 -3.67473 1.24841 0
M  V30 292 H 23.4226 -3.52313 -1.21269 0
M  V30 293 H 23.5356 -4.78745 0.184379 0
M  V30 294 H 21.8996 -2.547 0.00125792 0
M  V30 295 H 22.6826 -3.0379 1.59896 0
M  V30 296 N 25.1277 -0.289203 -1.54924 0
M  V30 297 C 26.3677 0.324536 -2.01807 0
M  V30 298 C 26.7317 1.5199 -1.17316 0
M  V30 299 O 27.9327 2.20422 -1.53843 0
M  V30 300 C 26.2037 0.683578 -3.50802 0
M  V30 301 S 27.7627 1.28185 -4.19659 0
M  V30 302 H 24.5807 0.100236 -0.703899 0
M  V30 303 H 27.1827 -0.414325 -1.91059 0
M  V30 304 H 25.8867 -0.195073 -4.09936 0
M  V30 305 H 25.4177 1.45354 -3.65562 0
M  V30 306 H 27.4327 2.57006 -4.24456 0
M  V30 307 N 26.6058 1.57591 -0.0167156 0
M  V30 308 C 27.5358 2.12496 0.967858 0
M  V30 309 C 28.5168 1.03807 1.34752 0
M  V30 310 O 29.7018 1.31577 1.42833 0
M  V30 311 C 26.8318 2.64194 2.25431 0
M  V30 312 C 25.7858 3.77559 2.01576 0
M  V30 313 C 25.1118 4.15636 3.36379 0
M  V30 314 C 26.4118 5.04151 1.36489 0
M  V30 315 H 28.1058 2.95013 0.510643 0
M  V30 316 H 25.6518 1.41915 0.244181 0
M  V30 317 H 27.6048 3.01236 2.94678 0
M  V30 318 H 26.3288 1.78821 2.73296 0
M  V30 319 H 24.9878 3.40937 1.34751 0
M  V30 320 H 24.6358 3.27263 3.81979 0
M  V30 321 H 24.3358 4.92022 3.21229 0
M  V30 322 H 25.8598 4.5525 4.06915 0
M  V30 323 H 27.2738 5.38857 1.95718 0
M  V30 324 H 25.6708 5.85453 1.31776 0
M  V30 325 H 26.7408 4.83733 0.336219 0
M  V30 326 N 28.0839 -0.256276 1.55502 0
M  V30 327 C 29.3089 -1.00766 1.81276 0
M  V30 328 C 29.7339 -1.78524 0.59252 0
M  V30 329 O 29.0919 -1.75413 -0.45827 0
M  V30 330 C 29.1399 -1.92869 3.04687 0
M  V30 331 O 28.2439 -3.019 2.80945 0
M  V30 332 H 27.5849 -0.287224 0.598664 0
M  V30 333 H 30.1149 -0.280109 2.02674 0
M  V30 334 H 30.1249 -2.34511 3.33869 0
M  V30 335 H 28.7999 -1.35689 3.93143 0
M  V30 336 H 27.3769 -2.64454 2.62904 0
M  V30 337 N 29.562 -1.4872 -0.521534 0
M  V30 338 C 30.79 -1.60843 -1.30142 0
M  V30 339 C 31.205 -0.271897 -1.86832 0
M  V30 340 O 30.562 0.739969 -1.66825 0
M  V30 341 C 30.613 -2.66155 -2.4463 0
M  V30 342 O 30.334 -3.94623 -1.90275 0
M  V30 343 C 31.835 -2.88795 -3.36322 0
M  V30 344 H 29.055 -0.542075 -0.395468 0
M  V30 345 H 31.599 -1.94609 -0.628285 0
M  V30 346 H 29.754 -2.35224 -3.07812 0
M  V30 347 H 30.168 -4.52468 -2.65279 0
M  V30 348 H 31.642 -3.66264 -4.12983 0
M  V30 349 H 32.119 -1.97934 -3.9207 0
M  V30 350 H 32.725 -3.21063 -2.78924 0
M  V30 351 N 31.0401 0.771051 -1.3745 0
M  V30 352 C 31.9501 1.91538 -1.35464 0
M  V30 353 C 32.9661 1.72134 -0.254123 0
M  V30 354 O 34.1421 1.95358 -0.489626 0
M  V30 355 C 31.2071 3.26671 -1.16134 0
M  V30 356 C 30.2681 3.58723 -2.35831 0
M  V30 357 C 29.5011 4.87409 -2.17413 0
M  V30 358 O 29.7241 5.58506 -1.15876 0
M  V30 359 O 28.6581 5.18539 -3.05615 0
M  V30 360 H 32.4841 1.96165 -2.31847 0
M  V30 361 H 30.0691 0.9139 -1.18187 0
M  V30 362 H 31.9511 4.07499 -1.07345 0
M  V30 363 H 30.6261 3.22894 -0.228251 0
M  V30 364 H 29.5331 2.78127 -2.50192 0
M  V30 365 H 30.8661 3.67243 -3.27709 0
M  V30 366 N 32.5182 1.22032 0.997298 0
M  V30 367 C 33.4812 0.987909 2.06816 0
M  V30 368 C 34.4812 -0.0440084 1.6074 0
M  V30 369 O 35.6712 0.194053 1.73116 0
M  V30 370 C 32.8032 0.49132 3.37341 0
M  V30 371 H 33.9962 1.93803 2.28868 0
M  V30 372 H 31.5492 1.03838 1.16822 0
M  V30 373 H 32.2842 -0.463364 3.20973 0
M  V30 374 H 32.0692 1.23575 3.72118 0
M  V30 375 H 33.5592 0.348824 4.16141 0
M  V30 376 N 33.9963 -1.19345 1.0293 0
M  V30 377 C 35.2733 -1.84811 0.640642 0
M  V30 378 C 35.6533 -1.91855 -0.88062 0
M  V30 379 O 35.0013 -1.43587 -1.7775 0
M  V30 380 C 35.2113 -3.23755 1.30321 0
M  V30 381 C 36.5593 -3.99912 1.42673 0
M  V30 382 O 37.5833 -3.33155 1.26041 0
M  V30 383 O 36.4423 -5.19494 1.6967 0
M  V30 384 H 33.5363 -0.796443 0.222726 0
M  V30 385 H 36.0823 -1.26831 1.12748 0
M  V30 386 H 34.8543 -3.13466 2.34211 0
M  V30 387 H 34.4773 -3.89381 0.804261 0
M  V30 388 N 35.4744 -0.807222 -1.35358 0
M  V30 389 C 36.4214 -0.216037 -2.29787 0
M  V30 390 C 37.3914 0.650278 -1.52842 0
M  V30 391 O 38.5764 0.595227 -1.81278 0
M  V30 392 C 35.7164 0.628893 -3.39321 0
M  V30 393 C 34.8294 -0.257927 -4.31229 0
M  V30 394 C 33.9644 0.595069 -5.27856 0
M  V30 395 C 33.0034 -0.292111 -6.11403 0
M  V30 396 N 32.1404 0.520895 -7.00165 0
M  V30 397 H 36.9804 -1.02671 -2.79755 0
M  V30 398 H 34.5174 -0.517839 -1.37684 0
M  V30 399 H 36.4754 1.13393 -4.01494 0
M  V30 400 H 35.1054 1.40482 -2.90628 0
M  V30 401 H 34.1574 -0.881076 -3.70056 0
M  V30 402 H 35.4694 -0.940759 -4.89848 0
M  V30 403 H 34.6234 1.16522 -5.95405 0
M  V30 404 H 33.3624 1.31146 -4.69736 0
M  V30 405 H 32.3674 -0.874525 -5.428 0
M  V30 406 H 33.5924 -1.00638 -6.71602 0
M  V30 407 H 31.5384 1.22125 -6.44532 0
M  V30 408 H 31.4554 -0.103877 -7.55929 0
M  V30 409 H 32.7234 1.0743 -7.72062 0
M  V30 410 N 36.9525 1.47285 -0.560781 0
M  V30 411 C 38.1775 2.07359 -0.0410566 0
M  V30 412 C 38.6025 1.41017 1.24483 0
M  V30 413 O 37.9605 0.486368 1.74654 0
M  V30 414 C 38.0085 3.6035 0.134123 0
M  V30 415 O 37.1125 3.94681 1.19587 0
M  V30 416 H 36.4535 0.661887 -0.0529291 0
M  V30 417 H 38.9835 1.89252 -0.777482 0
M  V30 418 H 38.9935 4.0652 0.347207 0
M  V30 419 H 37.6685 4.08034 -0.805047 0
M  V30 420 H 36.2455 3.60251 0.962987 0
M  V30 421 N 38.4306 0.297415 1.54768 0
M  V30 422 C 39.6586 -0.315623 2.04478 0
M  V30 423 C 40.0736 -1.47792 1.17486 0
M  V30 424 O 39.4306 -1.81404 0.19971 0
M  V30 425 C 39.4816 -0.7753 3.53088 0
M  V30 426 O 39.2026 0.340732 4.36773 0
M  V30 427 C 40.7036 -1.45386 4.18781 0
M  V30 428 H 37.9236 -0.0690887 0.667434 0
M  V30 429 H 40.4676 0.436003 1.99798 0
M  V30 430 H 38.6226 -1.47696 3.58141 0
M  V30 431 H 39.0366 -0.0165035 5.24497 0
M  V30 432 H 40.5106 -1.72669 5.24299 0
M  V30 433 H 40.9876 -2.39275 3.68299 0
M  V30 434 H 41.5936 -0.795475 4.17795 0
M  V30 435 N 39.9087 -1.5758 0.0250728 0
M  V30 436 C 41.1547 -1.91917 -0.655413 0
M  V30 437 C 41.4877 -0.901433 -1.72011 0
M  V30 438 O 40.7627 0.0764069 -1.9435 0
M  V30 439 C 41.0457 -3.36751 -1.27558 0
M  V30 440 C 40.8987 -4.49258 -0.220719 0
M  V30 441 C 42.2177 -3.81469 -2.19475 0
M  V30 442 H 39.3367 -0.697925 -0.23679 0
M  V30 443 H 41.9787 -1.89825 0.0815036 0
M  V30 444 H 40.1287 -3.38664 -1.90365 0
M  V30 445 H 41.8007 -4.59478 0.409601 0
M  V30 446 H 40.0437 -4.31415 0.454264 0
M  V30 447 H 40.7147 -5.47618 -0.694175 0
M  V30 448 H 43.1907 -3.81266 -1.66659 0
M  V30 449 H 42.0667 -4.83512 -2.59822 0
M  V30 450 H 42.3277 -3.16744 -3.08424 0
M  V30 451 N 41.3868 0.248026 -1.55636 0
M  V30 452 C 42.6358 0.974134 -1.76617 0
M  V30 453 C 42.9488 1.86528 -0.588796 0
M  V30 454 O 44.1548 2.62805 -0.681594 0
M  V30 455 C 42.6108 1.78213 -3.12679 0
M  V30 456 C 42.2188 0.93843 -4.38061 0
M  V30 457 C 43.9628 2.50104 -3.42999 0
M  V30 458 C 41.8698 1.74225 -5.65155 0
M  V30 459 H 40.7998 0.36745 -0.658405 0
M  V30 460 H 43.4508 0.22884 -1.82067 0
M  V30 461 H 41.8328 2.56933 -3.01333 0
M  V30 462 H 43.0068 0.193635 -4.60393 0
M  V30 463 H 41.3218 0.332905 -4.15067 0
M  V30 464 H 43.9188 3.10694 -4.3517 0
M  V30 465 H 44.2618 3.21662 -2.64271 0
M  V30 466 H 44.7948 1.78395 -3.55556 0
M  V30 467 H 41.5338 1.07043 -6.46701 0
M  V30 468 H 41.0538 2.46235 -5.46926 0
M  V30 469 H 42.7328 2.30967 -6.0437 0
M  V30 470 N 42.8649 1.48995 0.513639 0
M  V30 471 C 43.7749 1.67443 1.64317 0
M  V30 472 C 44.7909 0.556947 1.64846 0
M  V30 473 O 45.9669 0.830082 1.83498 0
M  V30 474 C 43.0319 1.72515 3.00732 0
M  V30 475 C 42.0929 2.96009 3.1093 0
M  V30 476 C 41.3259 3.00829 4.40837 0
M  V30 477 O 41.5489 2.13594 5.28898 0
M  V30 478 O 40.4829 3.93168 4.55744 0
M  V30 479 H 44.3089 2.63106 1.51687 0
M  V30 480 H 41.8939 1.32588 0.688543 0
M  V30 481 H 43.7759 1.78277 3.81831 0
M  V30 482 H 42.4509 0.800278 3.13651 0
M  V30 483 H 41.3579 2.9577 2.29065 0
M  V30 484 H 42.6909 3.87934 3.02933 0
M  V30 485 N 44.343 -0.763751 1.37857 0
M  V30 486 C 45.291 -1.89864 1.34367 0
M  V30 487 C 46.285 -1.67816 0.231143 0
M  V30 488 O 47.491 -1.75508 0.399617 0
M  V30 489 H 43.866 -0.624501 0.41893 0
M  V30 490 H 45.837 -1.89925 2.30155 0
M  V30 491 C 44.586 -3.27227 1.1755 0
M  V30 492 H 43.909 -3.44773 2.02414 0
M  V30 493 H 45.349 -4.06911 1.1916 0
M  V30 494 C 43.808 -3.36692 -0.118311 0
M  V30 495 O 44.338 -3.86374 -1.09902 0
M  V30 496 N 42.544 -2.90092 -0.171717 0
M  V30 497 H 42.091 -2.49853 0.627012 0
M  V30 498 H 42.049 -2.96806 -1.03699 0
M  V30 499 N 45.8211 -1.22559 -0.990812 0
M  V30 500 C 47.2321 -1.04791 -1.54518 0
M  V30 501 C 47.5831 0.387998 -1.92325 0
M  V30 502 O 46.7081 1.27328 -1.74976 0
M  V30 503 C 47.3031 -1.896 -2.80779 0
M  V30 504 C 45.8621 -1.76124 -3.32652 0
M  V30 505 C 45.0091 -1.8594 -2.05722 0
M  V30 506 H 47.9601 -1.36374 -0.811662 0
M  V30 507 H 47.9811 -1.41464 -3.53225 0
M  V30 508 H 47.4931 -2.94101 -2.53231 0
M  V30 509 H 45.5941 -0.743643 -3.65104 0
M  V30 510 H 45.7071 -2.58913 -4.03114 0
M  V30 511 H 44.0711 -1.29403 -2.19379 0
M  V30 512 H 44.8541 -2.91976 -1.80568 0
M  V30 513 N 47.2992 1.18797 -1.03562 0
M  V30 514 C 48.5472 1.88278 -0.734569 0
M  V30 515 C 48.8682 1.8043 0.739586 0
M  V30 516 O 48.1382 1.21925 1.53333 0
M  V30 517 H 46.7182 0.696991 -0.268725 0
M  V30 518 H 49.3802 1.44192 -1.31129 0
M  V30 519 H 48.4762 2.94443 -1.03489 0
M  V30 520 N 48.7773 0.814389 1.34928 0
M  V30 521 C 49.7403 0.235759 2.27984 0
M  V30 522 C 50.7403 -0.581412 1.49921 0
M  V30 523 O 51.9303 -0.398758 1.69575 0
M  V30 524 C 49.0623 -0.670433 3.34242 0
M  V30 525 H 50.2553 1.05659 2.80671 0
M  V30 526 H 47.8083 0.585614 1.44915 0
M  V30 527 H 48.5433 -1.51466 2.86755 0
M  V30 528 H 48.3283 -0.0860822 3.92005 0
M  V30 529 H 49.8183 -1.06935 4.03676 0
M  V30 530 N 50.2554 -1.46986 0.568584 0
M  V30 531 C 51.1854 -2.32946 -0.160753 0
M  V30 532 C 52.1664 -1.44487 -0.897631 0
M  V30 533 O 53.3514 -1.73327 -0.875867 0
M  V30 534 C 50.4814 -3.26494 -1.18403 0
M  V30 535 C 49.4354 -4.24282 -0.562895 0
M  V30 536 C 48.7614 -5.07236 -1.69163 0
M  V30 537 C 50.0614 -5.19989 0.490761 0
M  V30 538 H 51.7554 -2.94175 0.556916 0
M  V30 539 H 49.3014 -1.4146 0.26927 0
M  V30 540 H 51.2544 -3.85477 -1.70251 0
M  V30 541 H 49.9784 -2.63343 -1.93179 0
M  V30 542 H 48.6374 -3.66541 -0.0656164 0
M  V30 543 H 48.2854 -4.4048 -2.42871 0
M  V30 544 H 47.9854 -5.7345 -1.28174 0
M  V30 545 H 49.5094 -5.6908 -2.21314 0
M  V30 546 H 50.9234 -5.73271 0.0579047 0
M  V30 547 H 49.3204 -5.94469 0.820165 0
M  V30 548 H 50.3904 -4.64777 1.3824 0
M  V30 549 N 51.7335 -0.305618 -1.54608 0
M  V30 550 C 52.9735 0.303114 -2.0214 0
M  V30 551 C 53.3375 1.50737 -1.18921 0
M  V30 552 O 54.5385 2.18778 -1.56172 0
M  V30 553 C 52.8095 0.646332 -3.51507 0
M  V30 554 S 54.3685 1.23727 -4.20995 0
M  V30 555 H 51.1865 0.0927643 -0.704923 0
M  V30 556 H 53.7885 -0.434566 -1.90609 0
M  V30 557 H 52.4925 -0.238541 -4.09706 0
M  V30 558 H 52.0235 1.41468 -3.67084 0
M  V30 559 H 54.0385 2.52489 -4.27158 0
M  V30 560 N 53.2116 1.57565 -0.0334293 0
M  V30 561 C 54.4366 1.96689 0.657895 0
M  V30 562 C 54.8616 0.910057 1.64619 0
M  V30 563 O 54.2196 -0.128598 1.80843 0
M  V30 564 C 54.2676 3.34905 1.33683 0
M  V30 565 O 53.3716 3.31574 2.45219 0
M  V30 566 H 52.7126 0.641205 0.172489 0
M  V30 567 H 55.2426 2.04372 -0.0965621 0
M  V30 568 H 55.2526 3.71234 1.69262 0
M  V30 569 H 53.9276 4.11366 0.612411 0
M  V30 570 H 52.5046 3.06968 2.11719 0
M  V30 571 N 54.6897 -0.239769 1.55765 0
M  V30 572 C 56.1007 -0.808263 1.68297 0
M  V30 573 C 56.4517 -1.85736 0.632181 0
M  V30 574 O 55.5767 -2.15277 -0.220204 0
M  V30 575 C 56.1717 -1.47284 3.05111 0
M  V30 576 C 54.7307 -1.98895 3.19559 0
M  V30 577 C 53.8777 -0.842575 2.64189 0
M  V30 578 H 56.8287 -0.0154422 1.58692 0
M  V30 579 H 56.8497 -2.34111 2.99954 0
M  V30 580 H 56.3617 -0.709053 3.81568 0
M  V30 581 H 54.4627 -2.78132 2.47938 0
M  V30 582 H 54.5757 -2.18143 4.26556 0
M  V30 583 H 52.9397 -1.24501 2.22197 0
M  V30 584 H 53.7227 -0.0917552 3.43177 0
M  V30 585 N 56.1678 -1.49265 -0.50573 0
M  V30 586 C 57.0998 -1.617 -1.62437 0
M  V30 587 C 58.1128 -0.499924 -1.54934 0
M  V30 588 O 59.3018 -0.771785 -1.60953 0
M  V30 589 C 56.4018 -1.5533 -3.01207 0
M  V30 590 C 55.5748 -2.8249 -3.33943 0
M  V30 591 C 54.6338 -2.69238 -4.52103 0
M  V30 592 O 53.6598 -3.43167 -4.5412 0
M  V30 593 N 54.8618 -1.80468 -5.51735 0
M  V30 594 H 57.6268 -2.58177 -1.52199 0
M  V30 595 H 55.1878 -1.46294 -0.693511 0
M  V30 596 H 57.1798 -1.44125 -3.78167 0
M  V30 597 H 55.7498 -0.667297 -3.05395 0
M  V30 598 H 54.9698 -3.08081 -2.45926 0
M  V30 599 H 56.2578 -3.66802 -3.5261 0
M  V30 600 H 55.6558 -1.19653 -5.52901 0
M  V30 601 H 54.2128 -1.75188 -6.27816 0
M  V30 602 N 57.6459 0.756429 -1.3826 0
M  V30 603 C 58.8709 1.55077 -1.37717 0
M  V30 604 C 59.2959 1.88073 0.03164 0
M  V30 605 O 58.6539 1.50364 1.01293 0
M  V30 606 C 58.7019 2.8283 -2.23695 0
M  V30 607 O 57.8059 3.77862 -1.6521 0
M  V30 608 H 57.1469 0.469152 -0.469885 0
M  V30 609 H 59.6769 0.935019 -1.81985 0
M  V30 610 H 59.6869 3.31783 -2.37453 0
M  V30 611 H 58.3619 2.58144 -3.2609 0
M  V30 612 H 56.9389 3.36555 -1.60578 0
M  V30 613 N 59.124 1.23083 0.984299 0
M  V30 614 C 60.056 0.96636 2.07832 0
M  V30 615 C 61.069 -0.0582135 1.62696 0
M  V30 616 O 62.258 0.176843 1.77622 0
M  V30 617 C 59.358 0.433397 3.36117 0
M  V30 618 C 58.531 1.51722 4.10243 0
M  V30 619 C 57.59 0.989821 5.16807 0
M  V30 620 O 56.616 1.67794 5.43906 0
M  V30 621 N 57.818 -0.184367 5.80207 0
M  V30 622 H 60.583 1.90824 2.31098 0
M  V30 623 H 58.144 1.13888 1.1507 0
M  V30 624 H 60.136 0.065699 4.04647 0
M  V30 625 H 58.706 -0.413806 3.09849 0
M  V30 626 H 57.926 2.05786 3.36223 0
M  V30 627 H 59.214 2.24619 4.56534 0
M  V30 628 H 58.612 -0.760062 5.60571 0
M  V30 629 H 57.169 -0.493366 6.4993 0
M  V30 630 N 60.6021 -1.18246 1.0419 0
M  V30 631 C 62.0181 -1.40269 0.761366 0
M  V30 632 C 62.2181 -1.90777 -0.648578 0
M  V30 633 O 61.2741 -2.0929 -1.41258 0
M  V30 634 C 62.5871 -2.40237 1.8085 0
M  V30 635 C 64.1351 -2.53961 1.82955 0
M  V30 636 C 64.6101 -3.57194 2.86664 0
M  V30 637 N 66.1011 -3.64702 2.85563 0
M  V30 638 C 66.8361 -4.44309 3.6246 0
M  V30 639 N 66.3321 -5.27514 4.49111 0
M  V30 640 N 68.1251 -4.39084 3.50944 0
M  V30 641 H 60.2761 -0.837882 1.95175 0
M  V30 642 H 62.5391 -0.430608 0.84456 0
M  V30 643 H 62.2451 -2.10176 2.81991 0
M  V30 644 H 62.1191 -3.39601 1.64168 0
M  V30 645 H 64.5061 -2.83338 0.824855 0
M  V30 646 H 64.5871 -1.54706 2.03715 0
M  V30 647 H 64.2311 -3.28558 3.87314 0
M  V30 648 H 64.1611 -4.5613 2.6316 0
M  V30 649 H 66.6521 -3.05289 2.22727 0
M  V30 650 H 66.9651 -5.85411 5.04493 0
M  V30 651 H 65.3101 -5.2693 4.53178 0
M  V30 652 H 68.5011 -3.7313 2.82651 0
M  V30 653 H 68.6741 -5.00883 4.11121 0
M  V30 654 N 62.0802 -0.821533 -1.34494 0
M  V30 655 C 63.0302 -0.214793 -2.26986 0
M  V30 656 C 64.0142 0.620125 -1.4847 0
M  V30 657 O 65.2062 0.474933 -1.70509 0
M  V30 658 C 62.3352 0.623566 -3.37589 0
M  V30 659 C 61.4212 -0.221904 -4.23519 0
M  V30 660 N 61.8122 -1.29223 -4.89014 0
M  V30 661 C 60.1102 -0.00600922 -4.46 0
M  V30 662 C 60.8112 -1.80965 -5.52835 0
M  V30 663 N 59.7872 -1.11376 -5.32068 0
M  V30 664 H 63.5892 -1.03354 -2.75128 0
M  V30 665 H 61.1032 -0.6642 -1.48196 0
M  V30 666 H 63.1002 1.0744 -4.02818 0
M  V30 667 H 61.7602 1.44049 -2.90998 0
M  V30 668 H 62.7712 -1.67502 -4.90065 0
M  V30 669 H 59.4482 0.77886 -4.10171 0
M  V30 670 H 60.8382 -2.70502 -6.15043 0
M  V30 671 N 63.5583 1.46682 -0.576371 0
M  V30 672 C 64.8063 2.02013 -0.0594163 0
M  V30 673 C 65.1273 1.45101 1.30271 0
M  V30 674 O 64.3973 0.633317 1.8538 0
M  V30 675 H 62.9773 0.746759 -0.0189745 0
M  V30 676 H 65.6393 1.79862 -0.750717 0
M  V30 677 H 64.7353 3.12097 0.014345 0
M  V30 678 N 65.0364 0.313813 1.54444 0
M  V30 679 C 65.9864 -0.571898 2.20711 0
M  V30 680 C 66.9704 -1.08913 1.18435 0
M  V30 681 O 68.1624 -1.02777 1.44104 0
M  V30 682 C 65.2914 -1.7371 2.96108 0
M  V30 683 C 64.3774 -1.23522 4.05713 0
M  V30 684 N 64.7684 -0.452288 5.03774 0
M  V30 685 C 63.0664 -1.51482 4.19487 0
M  V30 686 C 63.7674 -0.183438 5.81411 0
M  V30 687 N 62.7434 -0.766845 5.38164 0
M  V30 688 H 66.5454 0.0336802 2.93881 0
M  V30 689 H 64.0594 0.119192 1.61962 0
M  V30 690 H 66.0564 -2.38329 3.4206 0
M  V30 691 H 64.7164 -2.34625 2.24458 0
M  V30 692 H 65.7274 -0.0960131 5.17811 0
M  V30 693 H 62.4044 -2.13053 3.59047 0
M  V30 694 H 63.7944 0.446216 6.70417 0
M  V30 695 N 66.5145 -1.57545 0.0417849 0
M  V30 696 C 67.7445 -1.96339 -0.642995 0
M  V30 697 C 68.1525 -0.917536 -1.65463 0
M  V30 698 O 67.4955 0.107747 -1.83384 0
M  V30 699 C 67.5575 -3.31333 -1.39494 0
M  V30 700 C 67.2215 -4.53796 -0.540204 0
M  V30 701 C 68.2185 -5.19553 0.189806 0
M  V30 702 C 65.9035 -5.0006 -0.473886 0
M  V30 703 C 67.8975 -6.29904 0.974674 0
M  V30 704 C 65.5845 -6.10289 0.314677 0
M  V30 705 C 66.5825 -6.75072 1.03765 0
M  V30 706 O 66.2705 -7.83183 1.81327 0
M  V30 707 H 66.0025 -0.651241 -0.181277 0
M  V30 708 H 68.5565 -2.05148 0.101665 0
M  V30 709 H 66.7865 -3.19052 -2.18502 0
M  V30 710 H 68.4755 -3.54942 -1.96904 0
M  V30 711 H 69.2415 -4.84774 0.147981 0
M  V30 712 H 65.1205 -4.49433 -1.0262 0
M  V30 713 H 68.6645 -6.80401 1.5395 0
M  V30 714 H 64.5615 -6.44506 0.358174 0
M  V30 715 H 65.3295 -7.99913 1.73438 0
M  V30 716 N 67.9926 0.231505 -1.5589 0
M  V30 717 C 69.2396 0.957352 -1.78441 0
M  V30 718 C 69.5676 1.84726 -0.60882 0
M  V30 719 O 68.8226 1.91416 0.40725 0
M  V30 720 C 69.1216 1.83577 -3.0665 0
M  V30 721 C 68.7876 1.09993 -4.37278 0
M  V30 722 C 67.4496 0.896629 -4.72773 0
M  V30 723 C 69.8016 0.579558 -5.17968 0
M  V30 724 C 67.1296 0.160896 -5.86479 0
M  V30 725 C 69.4816 -0.142783 -6.32439 0
M  V30 726 C 68.1456 -0.357427 -6.66542 0
M  V30 727 H 67.4156 0.35032 -0.65296 0
M  V30 728 H 70.0626 0.226259 -1.90159 0
M  V30 729 H 68.3676 2.63441 -2.90011 0
M  V30 730 H 70.0646 2.39934 -3.21298 0
M  V30 731 H 66.6546 1.26835 -4.09403 0
M  V30 732 H 70.8386 0.724125 -4.90989 0
M  V30 733 H 66.0946 -0.0157293 -6.11398 0
M  V30 734 H 70.2686 -0.553559 -6.94196 0
M  V30 735 H 67.8956 -0.929466 -7.54497 0
M  V30 736 N 69.4707 1.49531 0.497807 0
M  V30 737 C 70.7167 1.59415 1.25358 0
M  V30 738 C 71.0497 0.281422 1.9215 0
M  V30 739 O 70.3247 -0.715249 1.80871 0
M  V30 740 C 70.6077 2.75566 2.3181 0
M  V30 741 C 70.4607 4.16642 1.69498 0
M  V30 742 C 71.7797 2.87347 3.33346 0
M  V30 743 H 68.8987 0.580244 0.454408 0
M  V30 744 H 71.5407 1.81827 0.551262 0
M  V30 745 H 69.6907 2.56587 2.91711 0
M  V30 746 H 71.3627 4.47145 1.13399 0
M  V30 747 H 69.6057 4.22141 0.998978 0
M  V30 748 H 70.2767 4.93792 2.46725 0
M  V30 749 H 72.7527 3.04634 2.83438 0
M  V30 750 H 71.6287 3.70289 4.05188 0
M  V30 751 H 71.8897 1.96834 3.95865 0
M  V30 752 N 70.9488 -0.749086 1.3866 0
M  V30 753 C 71.9118 -1.84457 1.36045 0
M  V30 754 C 72.9118 -1.58682 0.260122 0
M  V30 755 O 74.1018 -1.66343 0.517261 0
M  V30 756 C 71.2338 -3.22008 1.11911 0
M  V30 757 H 72.4268 -1.88182 2.33512 0
M  V30 758 H 69.9798 -0.951266 1.24019 0
M  V30 759 H 70.7148 -3.2395 0.150686 0
M  V30 760 H 70.4998 -3.42111 1.91579 0
M  V30 761 H 71.9898 -4.0208 1.12788 0
M  V30 762 N 72.4269 -1.23603 -0.977757 0
M  V30 763 C 73.3569 -1.04401 -2.0886 0
M  V30 764 C 74.3379 0.0399052 -1.70053 0
M  V30 765 O 75.5229 -0.125246 -1.93796 0
M  V30 766 C 72.6529 -0.637269 -3.41403 0
M  V30 767 C 71.6069 -1.66883 -3.94124 0
M  V30 768 C 70.9329 -1.11745 -5.22893 0
M  V30 769 C 72.2329 -3.06247 -4.23096 0
M  V30 770 H 73.9269 -1.97316 -2.25182 0
M  V30 771 H 71.4729 -0.950096 -1.08209 0
M  V30 772 H 73.4259 -0.48998 -4.18542 0
M  V30 773 H 72.1499 0.327557 -3.24953 0
M  V30 774 H 70.8089 -1.80416 -3.19133 0
M  V30 775 H 70.4569 -0.143527 -5.02795 0
M  V30 776 H 70.1569 -1.80672 -5.59134 0
M  V30 777 H 71.6809 -0.982067 -6.02651 0
M  V30 778 H 73.0949 -2.96001 -4.90975 0
M  V30 779 H 71.4919 -3.72436 -4.70544 0
M  V30 780 H 72.5619 -3.55041 -3.30263 0
M  V30 781 N 73.905 1.17692 -1.04816 0
M  V30 782 C 75.152 1.87859 -0.75599 0
M  V30 783 C 75.48 1.80812 0.716752 0
M  V30 784 O 74.735 1.20819 1.53952 0
M  V30 785 C 75.034 3.37462 -1.17703 0
M  V30 786 C 74.7 3.64713 -2.65133 0
M  V30 787 C 73.362 3.71859 -3.05408 0
M  V30 788 C 75.714 3.76492 -3.60421 0
M  V30 789 C 73.042 3.88271 -4.39843 0
M  V30 790 C 75.394 3.94421 -4.94585 0
M  V30 791 C 74.058 3.99806 -5.3452 0
M  V30 792 H 73.328 0.687425 -0.276636 0
M  V30 793 H 75.975 1.39255 -1.31455 0
M  V30 794 H 74.28 3.88097 -0.537395 0
M  V30 795 H 75.977 3.90109 -0.928218 0
M  V30 796 H 72.567 3.59772 -2.32942 0
M  V30 797 H 76.751 3.70295 -3.30447 0
M  V30 798 H 72.007 3.90687 -4.70291 0
M  V30 799 H 76.181 4.02477 -5.68318 0
M  V30 800 H 73.808 4.12276 -6.38696 0
M  V30 801 N 75.3831 0.828654 1.34056 0
M  V30 802 C 76.6601 0.341809 1.9259 0
M  V30 803 C 77.0401 -1.17158 1.75605 0
M  V30 804 O 76.3881 -1.98132 1.13824 0
M  V30 805 C 76.5981 0.777453 3.4023 0
M  V30 806 C 77.9461 0.779579 4.17382 0
M  V30 807 O 78.9701 0.7204 3.48839 0
M  V30 808 O 77.8291 0.857996 5.39723 0
M  V30 809 H 74.9231 0.0946085 0.821571 0
M  V30 810 H 77.4691 0.913827 1.42994 0
M  V30 811 H 76.2411 1.8196 3.46419 0
M  V30 812 H 75.8641 0.181444 3.97186 0
M  V30 813 N 76.8612 -1.46375 0.584142 0
M  V30 814 C 78.0912 -2.06461 0.0758195 0
M  V30 815 C 78.4992 -1.43322 -1.23512 0
M  V30 816 O 77.8422 -0.533216 -1.75791 0
M  V30 817 C 77.9042 -3.59131 -0.162773 0
M  V30 818 C 77.5682 -4.4447 1.06279 0
M  V30 819 C 78.5652 -4.80918 1.97519 0
M  V30 820 C 76.2502 -4.85584 1.28504 0
M  V30 821 C 78.2442 -5.57309 3.09331 0
M  V30 822 C 75.9312 -5.61734 2.4062 0
M  V30 823 C 76.9292 -5.9751 3.30863 0
M  V30 824 O 76.6172 -6.72121 4.41032 0
M  V30 825 H 76.3492 -0.673745 0.0551725 0
M  V30 826 H 78.9032 -1.88969 0.804984 0
M  V30 827 H 77.1332 -3.74936 -0.946565 0
M  V30 828 H 78.8222 -4.0114 -0.619782 0
M  V30 829 H 79.5882 -4.49732 1.81565 0
M  V30 830 H 75.4672 -4.57187 0.591702 0
M  V30 831 H 79.0112 -5.85152 3.79793 0
M  V30 832 H 74.9082 -5.92334 2.56537 0
M  V30 833 H 75.6762 -6.90547 4.39417 0
M  V30 834 N 78.3393 -0.321999 -1.54275 0
M  V30 835 C 79.2713 0.578671 -2.21775 0
M  V30 836 C 80.2843 1.08109 -1.21722 0
M  V30 837 O 81.4733 0.994938 -1.482 0
M  V30 838 C 78.5733 1.80661 -2.86731 0
M  V30 839 C 77.7463 1.44314 -4.12907 0
M  V30 840 C 76.8053 2.52845 -4.61472 0
M  V30 841 O 75.8313 2.17054 -5.2619 0
M  V30 842 N 77.0333 3.83748 -4.35566 0
M  V30 843 H 79.7983 0.000709447 -2.997 0
M  V30 844 H 77.3593 -0.145132 -1.61248 0
M  V30 845 H 79.3513 2.52655 -3.16145 0
M  V30 846 H 77.9213 2.29245 -2.12521 0
M  V30 847 H 77.1413 0.554906 -3.90275 0
M  V30 848 H 78.4293 1.17598 -4.95023 0
M  V30 849 H 77.8273 4.15625 -3.83761 0
M  V30 850 H 76.3843 4.51977 -4.69638 0
M  V30 851 N 79.8174 1.5752 -0.0501392 0
M  V30 852 C 80.7804 2.1037 0.909786 0
M  V30 853 C 81.7804 1.02308 1.24056 0
M  V30 854 O 82.9704 1.28385 1.17741 0
M  V30 855 C 80.1024 2.58708 2.21998 0
M  V30 856 H 81.2954 2.96479 0.451665 0
M  V30 857 H 78.8484 1.55038 0.198248 0
M  V30 858 H 79.5834 1.75989 2.72394 0
M  V30 859 H 79.3684 3.37675 1.99295 0
M  V30 860 H 80.8584 2.99747 2.9076 0
M  V30 861 N 81.2955 -0.223234 1.56011 0
M  V30 862 C 82.7115 -0.572856 1.48965 0
M  V30 863 C 82.9115 -1.87225 0.74492 0
M  V30 864 O 81.9675 -2.50899 0.283896 0
M  V30 865 C 83.2805 -0.653646 2.9351 0
M  V30 866 C 84.8285 -0.744386 3.0402 0
M  V30 867 C 85.3035 -0.856535 4.49919 0
M  V30 868 N 86.7945 -0.9208 4.53955 0
M  V30 869 C 87.5295 -1.02726 5.64123 0
M  V30 870 N 87.0255 -1.09777 6.84047 0
M  V30 871 N 88.8185 -1.06226 5.51971 0
M  V30 872 H 80.9695 0.629462 2.02858 0
M  V30 873 H 83.2325 0.220621 0.921971 0
M  V30 874 H 82.9385 0.231518 3.50937 0
M  V30 875 H 82.8125 -1.51781 3.45315 0
M  V30 876 H 85.1995 -1.61999 2.46658 0
M  V30 877 H 85.2805 0.14541 2.55386 0
M  V30 878 H 84.9245 0.0146069 5.07898 0
M  V30 879 H 84.8545 -1.76172 4.96257 0
M  V30 880 H 87.3455 -0.876694 3.6759 0
M  V30 881 H 87.6585 -1.17872 7.63758 0
M  V30 882 H 86.0035 -1.06693 6.86762 0
M  V30 883 H 89.1945 -1.00382 4.5721 0
M  V30 884 H 89.3675 -1.14177 6.37862 0
M  V30 885 N 82.7736 -1.49793 -0.48987 0
M  V30 886 C 84.0016 -1.63568 -1.26701 0
M  V30 887 C 84.4166 -0.311465 -1.86213 0
M  V30 888 O 83.7736 0.704416 -1.68357 0
M  V30 889 C 83.8246 -2.71284 -2.38929 0
M  V30 890 O 83.5456 -3.9857 -1.81861 0
M  V30 891 C 85.0466 -2.95864 -3.3012 0
M  V30 892 H 82.2666 -0.550342 -0.383881 0
M  V30 893 H 84.8106 -1.95898 -0.586864 0
M  V30 894 H 82.9656 -2.417 -3.02753 0
M  V30 895 H 83.3796 -4.57993 -2.55622 0
M  V30 896 H 84.8536 -3.74941 -4.05121 0
M  V30 897 H 85.3306 -2.06206 -3.87783 0
M  V30 898 H 85.9366 -3.26907 -2.72051 0
M  V30 899 N 84.2517 0.741722 -1.39055 0
M  V30 900 C 85.2147 1.83733 -1.37021 0
M  V30 901 C 86.2147 1.58542 -0.268534 0
M  V30 902 O 87.4047 1.66067 -0.526076 0
M  V30 903 C 84.5367 3.2141 -1.13617 0
M  V30 904 H 85.7297 1.86941 -2.34506 0
M  V30 905 H 83.2827 0.944676 -1.24521 0
M  V30 906 H 84.0177 3.23865 -0.167863 0
M  V30 907 H 83.8027 3.4109 -1.93391 0
M  V30 908 H 85.2927 4.01477 -1.14918 0
M  V30 909 N 85.7298 1.2412 0.971189 0
M  V30 910 C 86.6398 1.04747 2.09917 0
M  V30 911 C 87.6558 -0.0107162 1.73997 0
M  V30 912 O 88.8318 0.186714 2.00533 0
M  V30 913 C 85.8968 0.650828 3.40537 0
M  V30 914 C 84.9578 1.7851 3.90426 0
M  V30 915 C 84.1908 1.40729 5.14812 0
M  V30 916 O 84.4138 0.29557 5.69634 0
M  V30 917 O 83.3478 2.23168 5.58999 0
M  V30 918 H 87.1738 1.99304 2.29154 0
M  V30 919 H 84.7588 1.02908 1.08307 0
M  V30 920 H 86.6408 0.440992 4.19086 0
M  V30 921 H 85.3158 -0.265649 3.22608 0
M  V30 922 H 84.2228 2.04966 3.12953 0
M  V30 923 H 85.5558 2.68023 4.12825 0
M  V30 924 N 87.2079 -1.17134 1.05439 0
M  V30 925 C 88.4849 -1.83411 0.679699 0
M  V30 926 C 88.8649 -1.9368 -0.839726 0
M  V30 927 O 88.2129 -1.47325 -1.74664 0
M  V30 928 C 88.4229 -3.20918 1.37159 0
M  V30 929 C 89.7709 -3.96796 1.51123 0
M  V30 930 O 90.7949 -3.30406 1.3308 0
M  V30 931 O 89.6539 -5.15778 1.80651 0
M  V30 932 H 86.7479 -0.79154 0.239569 0
M  V30 933 H 89.2939 -1.24411 1.15413 0
M  V30 934 H 88.0659 -3.08428 2.40807 0
M  V30 935 H 87.6889 -3.87587 0.886674 0
M  V30 936 N 88.686 -0.835752 -1.33615 0
M  V30 937 C 89.616 -0.281739 -2.31794 0
M  V30 938 C 90.597 0.608833 -1.58831 0
M  V30 939 O 91.782 0.533035 -1.86741 0
M  V30 940 C 88.912 0.546612 -3.42971 0
M  V30 941 C 87.866 -0.247904 -4.27281 0
M  V30 942 C 87.192 0.704001 -5.30045 0
M  V30 943 C 88.492 -1.46324 -5.01385 0
M  V30 944 H 90.186 -1.10206 -2.78379 0
M  V30 945 H 87.732 -0.531388 -1.33837 0
M  V30 946 H 89.685 0.944467 -4.1068 0
M  V30 947 H 88.409 1.40011 -2.95067 0
M  V30 948 H 87.068 -0.627281 -3.61194 0
M  V30 949 H 86.716 1.55381 -4.78399 0
M  V30 950 H 86.416 0.176524 -5.87335 0
M  V30 951 H 87.94 1.09944 -6.0062 0
M  V30 952 H 89.354 -1.13871 -5.61877 0
M  V30 953 H 87.751 -1.92728 -5.6831 0
M  V30 954 H 88.821 -2.23467 -4.30338 0
M  V30 955 N 90.1641 1.46063 -0.591896 0
M  V30 956 C 91.3891 2.07226 -0.0850314 0
M  V30 957 C 91.8141 1.43625 1.21463 0
M  V30 958 O 91.1721 0.523305 1.73583 0
M  V30 959 C 91.2201 3.60554 0.0576567 0
M  V30 960 O 90.3241 3.97128 1.11188 0
M  V30 961 H 89.6651 0.660615 -0.0669568 0
M  V30 962 H 92.1951 1.8756 -0.81745 0
M  V30 963 H 92.2051 4.07165 0.2609 0
M  V30 964 H 90.8801 4.06235 -0.891416 0
M  V30 965 H 89.4571 3.62213 0.886356 0
M  V30 966 N 91.6422 0.330177 1.54103 0
M  V30 967 C 92.8892 -0.270405 2.00686 0
M  V30 968 C 93.2172 -1.51621 1.21825 0
M  V30 969 O 92.4722 -1.93536 0.29025 0
M  V30 970 C 92.7712 -0.643134 3.51566 0
M  V30 971 C 92.4372 0.504251 4.48072 0
M  V30 972 C 91.0992 0.819163 4.74176 0
M  V30 973 C 93.4512 1.27465 5.05373 0
M  V30 974 C 90.7792 1.90708 5.5484 0
M  V30 975 C 93.1312 2.35271 5.87223 0
M  V30 976 C 91.7952 2.67336 6.11627 0
M  V30 977 H 91.0652 -0.0989482 0.734364 0
M  V30 978 H 93.7122 0.455324 1.86008 0
M  V30 979 H 92.0172 -1.44938 3.64006 0
M  V30 980 H 93.7142 -1.11949 3.85056 0
M  V30 981 H 90.3042 0.248733 4.27878 0
M  V30 982 H 94.4882 1.04462 4.85182 0
M  V30 983 H 89.7442 2.15991 5.71977 0
M  V30 984 H 93.9182 2.95405 6.30641 0
M  V30 985 H 91.5452 3.51763 6.73919 0
M  V30 986 N 93.1203 -1.57491 0.0584922 0
M  V30 987 C 94.5363 -1.56792 -0.298091 0
M  V30 988 C 94.7363 -1.06679 -1.70944 0
M  V30 989 O 93.7923 -0.726672 -2.41818 0
M  V30 990 C 95.1053 -3.00461 -0.119879 0
M  V30 991 C 96.6533 -3.1242 -0.190428 0
M  V30 992 C 97.1283 -4.57982 -0.0406567 0
M  V30 993 N 98.6193 -4.63099 -0.0966958 0
M  V30 994 C 99.3543 -5.734 -0.00502943 0
M  V30 995 N 98.8503 -6.9266 0.139402 0
M  V30 996 N 100.643 -5.62067 -0.0611391 0
M  V30 997 H 92.7943 -1.88386 0.98105 0
M  V30 998 H 95.0573 -0.867865 0.381463 0
M  V30 999 H 94.7633 -3.41187 0.85349 0
M  V30 1000 H 94.6373 -3.66843 -0.877833 0
M  V30 1001 H 97.0243 -2.71589 -1.15427 0
M  V30 1002 H 97.1053 -2.48702 0.598405 0
M  V30 1003 H 96.7493 -4.995 0.919897 0
M  V30 1004 H 96.6793 -5.19715 -0.848727 0
M  V30 1005 H 99.1703 -3.77331 -0.207277 0
M  V30 1006 H 99.4833 -7.72536 0.201855 0
M  V30 1007 H 97.8283 -6.94781 0.174586 0
M  V30 1008 H 101.019 -4.67782 -0.172583 0
M  V30 1009 H 101.192 -6.47999 0.0137562 0
M  V30 1010 N 94.5984 0.214957 -1.56127 0
M  V30 1011 C 95.5614 1.24997 -1.92116 0
M  V30 1012 C 96.5614 1.39467 -0.800344 0
M  V30 1013 O 97.7514 1.37619 -1.06802 0
M  V30 1014 C 94.8834 2.62271 -2.17777 0
M  V30 1015 H 96.0764 0.942875 -2.84693 0
M  V30 1016 H 93.6294 0.455654 -1.49511 0
M  V30 1017 H 94.3644 2.98068 -1.27773 0
M  V30 1018 H 94.1494 2.53143 -2.99434 0
M  V30 1019 H 95.6394 3.36946 -2.46693 0
M  V30 1020 N 96.0765 1.50051 0.48192 0
M  V30 1021 C 97.3245 1.60181 1.23234 0
M  V30 1022 C 97.6455 0.299176 1.92691 0
M  V30 1023 O 96.9155 -0.682708 1.83619 0
M  V30 1024 H 95.4955 0.590232 0.457859 0
M  V30 1025 H 98.1575 1.86775 0.556881 0
M  V30 1026 H 97.2535 2.40753 1.98607 0
M  V30 1027 N 97.5546 -0.734337 1.39446 0
M  V30 1028 C 98.8316 -1.48579 1.27215 0
M  V30 1029 C 99.2116 -2.1077 -0.117968 0
M  V30 1030 O 98.5596 -1.98646 -1.12924 0
M  V30 1031 C 98.7696 -2.53667 2.39696 0
M  V30 1032 C 100.118 -3.20031 2.79044 0
M  V30 1033 O 101.142 -2.6398 2.39151 0
M  V30 1034 O 100.001 -4.21455 3.47905 0
M  V30 1035 H 97.0946 -0.659816 0.49857 0
M  V30 1036 H 99.6406 -0.768106 1.51322 0
M  V30 1037 H 98.4126 -2.06096 3.32626 0
M  V30 1038 H 98.0356 -3.32994 2.17258 0
M  V30 1039 N 99.0327 -1.24633 -0.964593 0
M  V30 1040 C 99.9797 -1.04144 -2.05968 0
M  V30 1041 C 100.95 0.046262 -1.66036 0
M  V30 1042 O 102.135 -0.108972 -1.90489 0
M  V30 1043 C 99.2747 -0.65563 -3.38815 0
M  V30 1044 C 98.3877 -1.81714 -3.91923 0
M  V30 1045 C 97.5227 -1.37662 -5.13052 0
M  V30 1046 C 96.5617 -2.50788 -5.58365 0
M  V30 1047 N 95.6987 -2.07582 -6.70712 0
M  V30 1048 H 100.539 -1.9787 -2.22827 0
M  V30 1049 H 98.0757 -0.9855 -1.09208 0
M  V30 1050 H 100.034 -0.412954 -4.15151 0
M  V30 1051 H 98.6637 0.244627 -3.21872 0
M  V30 1052 H 97.7157 -2.1734 -3.12198 0
M  V30 1053 H 99.0277 -2.66705 -4.21509 0
M  V30 1054 H 98.1817 -1.093 -5.96773 0
M  V30 1055 H 96.9207 -0.497293 -4.85158 0
M  V30 1056 H 95.9257 -2.79906 -4.73215 0
M  V30 1057 H 97.1507 -3.39283 -5.88272 0
M  V30 1058 H 95.0967 -1.22051 -6.44546 0
M  V30 1059 H 95.0137 -2.86125 -6.99763 0
M  V30 1060 H 96.2817 -1.82369 -7.57867 0
M  V30 1061 N 100.511 1.16574 -1.06058 0
M  V30 1062 C 101.441 2.23057 -0.690488 0
M  V30 1063 C 102.422 1.67141 0.315901 0
M  V30 1064 O 103.607 1.93253 0.191556 0
M  V30 1065 C 100.737 3.47222 -0.073625 0
M  V30 1066 C 99.6908 4.16016 -1.00573 0
M  V30 1067 C 99.0168 5.34104 -0.252289 0
M  V30 1068 C 100.317 4.67264 -2.33371 0
M  V30 1069 H 102.011 2.54271 -1.58072 0
M  V30 1070 H 99.5568 1.22218 -0.76149 0
M  V30 1071 H 101.51 4.20939 0.19714 0
M  V30 1072 H 100.234 3.15302 0.85161 0
M  V30 1073 H 98.8928 3.44223 -1.2612 0
M  V30 1074 H 98.5408 4.98437 0.675988 0
M  V30 1075 H 98.2408 5.81072 -0.873455 0
M  V30 1076 H 99.7648 6.10599 0.0109857 0
M  V30 1077 H 101.179 5.32573 -2.12223 0
M  V30 1078 H 99.5758 5.24843 -2.90963 0
M  V30 1079 H 100.646 3.83602 -2.96611 0
M  V30 1080 N 101.989 0.842826 1.3317 0
M  V30 1081 C 102.921 0.236245 2.27979 0
M  V30 1082 C 103.934 -0.585282 1.51915 0
M  V30 1083 O 105.123 -0.411705 1.73687 0
M  V30 1084 C 102.223 -0.685717 3.3189 0
M  V30 1085 C 101.396 0.0973448 4.37292 0
M  V30 1086 C 100.455 -0.748565 5.20848 0
M  V30 1087 O 99.4809 -0.186339 5.68895 0
M  V30 1088 N 100.683 -2.06527 5.42519 0
M  V30 1089 H 103.448 1.05088 2.80672 0
M  V30 1090 H 101.009 0.701667 1.45905 0
M  V30 1091 H 103.001 -1.25669 3.84694 0
M  V30 1092 H 101.571 -1.40105 2.79445 0
M  V30 1093 H 100.791 0.849706 3.84933 0
M  V30 1094 H 102.079 0.635643 5.04814 0
M  V30 1095 H 101.477 -2.54554 5.05192 0
M  V30 1096 H 100.034 -2.58464 5.98364 0
M  V30 1097 N 103.467 -1.45747 0.599634 0
M  V30 1098 C 104.713 -2.02592 0.0918643 0
M  V30 1099 C 105.046 -1.46806 -1.27128 0
M  V30 1100 O 104.321 -0.639658 -1.83681 0
M  V30 1101 C 104.604 -3.60073 0.0443398 0
M  V30 1102 C 104.457 -4.26208 1.43759 0
M  V30 1103 C 105.776 -4.35309 -0.647608 0
M  V30 1104 H 102.895 -0.736175 0.034857 0
M  V30 1105 H 105.537 -1.73694 0.770081 0
M  V30 1106 H 103.687 -3.84823 -0.533224 0
M  V30 1107 H 105.359 -4.12668 2.06162 0
M  V30 1108 H 103.602 -3.84916 2.00056 0
M  V30 1109 H 104.273 -5.35069 1.35665 0
M  V30 1110 H 106.749 -4.15805 -0.156776 0
M  V30 1111 H 105.625 -5.45038 -0.649942 0
M  V30 1112 H 105.886 -4.07598 -1.71219 0
M  V30 1113 N 104.945 -0.338344 -1.53925 0
M  V30 1114 C 105.875 0.51328 -2.27789 0
M  V30 1115 C 106.856 1.107 -1.29149 0
M  V30 1116 O 108.041 1.12937 -1.57984 0
M  V30 1117 C 105.171 1.66697 -3.04679 0
M  V30 1118 C 104.125 1.20183 -4.1078 0
M  V30 1119 C 103.451 2.44363 -4.75595 0
M  V30 1120 C 104.751 0.30605 -5.21403 0
M  V30 1121 H 106.445 -0.102883 -2.99223 0
M  V30 1122 H 103.991 -0.0509219 -1.4391 0
M  V30 1123 H 105.944 2.26915 -3.55088 0
M  V30 1124 H 104.668 2.30995 -2.30887 0
M  V30 1125 H 103.327 0.622499 -3.61276 0
M  V30 1126 H 102.975 3.07057 -3.98403 0
M  V30 1127 H 102.675 2.13925 -5.47275 0
M  V30 1128 H 104.199 3.05317 -5.28786 0
M  V30 1129 H 105.613 0.814929 -5.67478 0
M  V30 1130 H 104.01 0.0937929 -6.00027 0
M  V30 1131 H 105.08 -0.65921 -4.80398 0
M  V30 1132 N 106.423 1.57458 -0.0668435 0
M  V30 1133 C 107.7 1.8469 0.644132 0
M  V30 1134 C 108.08 0.958343 1.88093 0
M  V30 1135 O 107.428 0.0233579 2.28488 0
M  V30 1136 C 107.638 3.34767 0.986509 0
M  V30 1137 C 108.986 4.02159 1.36212 0
M  V30 1138 O 110.01 3.39484 1.07839 0
M  V30 1139 O 108.869 5.12694 1.89227 0
M  V30 1140 H 105.963 0.762816 0.319437 0
M  V30 1141 H 108.509 1.6942 -0.0973986 0
M  V30 1142 H 107.281 3.91151 0.107883 0
M  V30 1143 H 106.904 3.55281 1.78497 0
M  V30 1144 N 107.901 -0.206675 1.56239 0
M  V30 1145 C 109.129 -0.945345 1.8404 0
M  V30 1146 C 109.544 -1.77336 0.647885 0
M  V30 1147 O 108.901 -1.78425 -0.383511 0
M  V30 1148 C 108.952 -1.8509 3.10522 0
M  V30 1149 O 108.673 -1.05634 4.25174 0
M  V30 1150 C 110.174 -2.70222 3.51418 0
M  V30 1151 H 107.394 -0.276372 0.61144 0
M  V30 1152 H 109.938 -0.217417 2.03341 0
M  V30 1153 H 108.093 -2.53259 2.93153 0
M  V30 1154 H 108.507 -1.67238 4.97124 0
M  V30 1155 H 109.981 -3.29438 4.42916 0
M  V30 1156 H 110.458 -3.43358 2.73864 0
M  V30 1157 H 111.064 -2.07443 3.71278 0
M  V30 1158 N 109.379 -1.50304 -0.473955 0
M  V30 1159 C 110.309 -1.71886 -1.58042 0
M  V30 1160 C 111.29 -0.567799 -1.60344 0
M  V30 1161 O 112.475 -0.806623 -1.76656 0
M  V30 1162 C 109.605 -1.81036 -2.96384 0
M  V30 1163 C 108.559 -2.962 -3.08949 0
M  V30 1164 C 107.885 -2.9049 -4.48909 0
M  V30 1165 C 109.185 -4.36752 -2.86434 0
M  V30 1166 H 110.879 -2.64527 -1.40234 0
M  V30 1167 H 108.425 -1.27295 -0.673201 0
M  V30 1168 H 110.378 -1.94719 -3.73714 0
M  V30 1169 H 109.102 -0.850147 -3.15341 0
M  V30 1170 H 107.761 -2.82164 -2.3405 0
M  V30 1171 H 107.409 -1.92321 -4.64781 0
M  V30 1172 H 107.109 -3.67802 -4.58253 0
M  V30 1173 H 108.633 -3.06218 -5.28264 0
M  V30 1174 H 110.047 -4.5133 -3.53517 0
M  V30 1175 H 108.444 -5.15493 -3.07225 0
M  V30 1176 H 109.514 -4.49321 -1.82316 0
M  V30 1177 N 110.857 0.726932 -1.39834 0
M  V30 1178 C 111.807 1.83232 -1.35683 0
M  V30 1179 C 112.791 1.59155 -0.236295 0
M  V30 1180 O 113.983 1.70522 -0.474488 0
M  V30 1181 C 111.112 3.21246 -1.21062 0
M  V30 1182 C 110.198 3.51125 -2.37849 0
M  V30 1183 N 110.589 3.51889 -3.63329 0
M  V30 1184 C 108.887 3.81527 -2.30982 0
M  V30 1185 C 109.588 3.79791 -4.40606 0
M  V30 1186 N 108.564 3.97971 -3.70297 0
M  V30 1187 H 112.366 1.8214 -2.30656 0
M  V30 1188 H 109.88 0.925545 -1.33444 0
M  V30 1189 H 111.877 4.00387 -1.16171 0
M  V30 1190 H 110.537 3.23572 -0.270458 0
M  V30 1191 H 111.548 3.33008 -3.96643 0
M  V30 1192 H 108.225 3.91411 -1.45272 0
M  V30 1193 H 109.615 3.86783 -5.49408 0
M  V30 1194 N 112.336 1.25143 0.95797 0
M  V30 1195 C 113.246 1.06968 2.08794 0
M  V30 1196 C 114.262 0.00773911 1.73998 0
M  V30 1197 O 115.438 0.207972 2.00323 0
M  V30 1198 C 112.503 0.68691 3.39827 0
M  V30 1199 C 111.564 1.82641 3.88511 0
M  V30 1200 C 110.797 1.46181 5.1329 0
M  V30 1201 O 111.02 0.355971 5.69288 0
M  V30 1202 O 109.954 2.29085 5.566 0
M  V30 1203 H 113.78 2.01723 2.27027 0
M  V30 1204 H 111.365 1.04051 1.07209 0
M  V30 1205 H 113.247 0.485417 4.18595 0
M  V30 1206 H 111.922 -0.231417 3.22872 0
M  V30 1207 H 110.829 2.08274 3.10762 0
M  V30 1208 H 112.162 2.72386 4.09959 0
M  V30 1209 N 113.814 -1.1601 1.06675 0
M  V30 1210 C 115.062 -1.86264 0.784229 0
M  V30 1211 C 115.383 -1.82328 -0.691488 0
M  V30 1212 O 114.653 -1.25947 -1.50047 0
M  V30 1213 H 113.233 -0.689621 0.28711 0
M  V30 1214 H 115.895 -1.40664 1.34906 0
M  V30 1215 H 114.991 -2.91595 1.11259 0
M  V30 1216 N 115.292 -0.849877 -1.32721 0
M  V30 1217 C 116.538 -0.460855 -1.9811 0
M  V30 1218 C 116.893 0.971716 -1.66059 0
M  V30 1219 O 116.186 1.67184 -0.935944 0
M  V30 1220 C 116.38 -0.631272 -3.51781 0
M  V30 1221 C 116.209 -2.07886 -3.98765 0
M  V30 1222 C 114.979 -2.71637 -4.26077 0
M  V30 1223 C 117.177 -3.04889 -4.14182 0
M  V30 1224 N 115.159 -4.07356 -4.59276 0
M  V30 1225 C 116.53 -4.25583 -4.50865 0
M  V30 1226 C 118.585 -3.01148 -3.96503 0
M  V30 1227 C 117.288 -5.43027 -4.71714 0
M  V30 1228 C 119.314 -4.17832 -4.18533 0
M  V30 1229 C 118.676 -5.37284 -4.55528 0
M  V30 1230 H 114.775 -0.217283 -0.751207 0
M  V30 1231 H 117.359 -1.10026 -1.60631 0
M  V30 1232 H 115.53 -0.0215966 -3.88394 0
M  V30 1233 H 117.262 -0.212614 -4.04141 0
M  V30 1234 H 114.017 -2.22705 -4.17971 0
M  V30 1235 H 114.441 -4.77351 -4.80068 0
M  V30 1236 H 119.083 -2.0992 -3.67006 0
M  V30 1237 H 116.801 -6.34791 -5.00066 0
M  V30 1238 H 120.387 -4.16368 -4.06361 0
M  V30 1239 H 119.267 -6.26071 -4.72234 0
M  V30 1240 N 116.77 1.45427 -0.607355 0
M  V30 1241 C 118.016 2.03097 -0.111035 0
M  V30 1242 C 118.371 1.46735 1.24445 0
M  V30 1243 O 117.664 0.632478 1.8086 0
M  V30 1244 C 117.858 3.57398 -0.0129263 0
M  V30 1245 C 117.687 4.28726 -1.35735 0
M  V30 1246 C 116.457 4.66659 -1.93798 0
M  V30 1247 C 118.655 4.60699 -2.28607 0
M  V30 1248 N 116.637 5.22845 -3.21723 0
M  V30 1249 C 118.008 5.17716 -3.41131 0
M  V30 1250 C 120.063 4.42638 -2.27982 0
M  V30 1251 C 118.766 5.58576 -4.53194 0
M  V30 1252 C 120.792 4.84531 -3.39093 0
M  V30 1253 C 120.154 5.4164 -4.50339 0
M  V30 1254 H 116.253 0.777476 -0.083994 0
M  V30 1255 H 118.837 1.77249 -0.805655 0
M  V30 1256 H 117.008 3.82907 0.650914 0
M  V30 1257 H 118.74 4.01722 0.490033 0
M  V30 1258 H 115.495 4.50207 -1.47007 0
M  V30 1259 H 115.919 5.55438 -3.87063 0
M  V30 1260 H 120.561 3.97798 -1.43235 0
M  V30 1261 H 118.279 6.02382 -5.38667 0
M  V30 1262 H 121.865 4.72289 -3.39757 0
M  V30 1263 H 120.745 5.73461 -5.34895 0
M  V30 1264 N 118.248 0.346503 1.53744 0
M  V30 1265 C 119.495 -0.249104 2.00962 0
M  V30 1266 C 119.823 -1.5032 1.23426 0
M  V30 1267 O 119.078 -1.93217 0.310761 0
M  V30 1268 C 119.377 -0.605809 3.52228 0
M  V30 1269 C 119.043 0.551747 4.47512 0
M  V30 1270 C 117.705 0.86941 4.73281 0
M  V30 1271 C 120.057 1.32818 5.03993 0
M  V30 1272 C 117.385 1.96582 5.52786 0
M  V30 1273 C 119.737 2.41486 5.84694 0
M  V30 1274 C 118.401 2.73808 6.08757 0
M  V30 1275 H 117.671 -0.0911538 0.735372 0
M  V30 1276 H 120.318 0.475027 1.85515 0
M  V30 1277 H 118.623 -1.4107 3.65522 0
M  V30 1278 H 120.32 -1.07858 3.86222 0
M  V30 1279 H 116.91 0.294102 4.2759 0
M  V30 1280 H 121.094 1.09602 4.84047 0
M  V30 1281 H 116.35 2.22045 5.69654 0
M  V30 1282 H 120.524 3.02078 6.27473 0
M  V30 1283 H 118.151 3.58892 6.7015 0
M  V30 1284 N 119.726 -1.57421 0.075193 0
M  V30 1285 C 120.689 -2.11791 -0.876203 0
M  V30 1286 C 121.689 -1.04268 -1.22412 0
M  V30 1287 O 122.879 -1.30242 -1.15684 0
M  V30 1288 C 120.011 -2.62207 -2.17854 0
M  V30 1289 H 121.204 -2.9716 -0.40444 0
M  V30 1290 H 118.757 -1.55333 -0.173557 0
M  V30 1291 H 119.492 -1.803 -2.6956 0
M  V30 1292 H 119.277 -3.40802 -1.93897 0
M  V30 1293 H 120.767 -3.04335 -2.85955 0
M  V30 1294 N 121.204 0.198386 -1.56346 0
M  V30 1295 C 122.62 0.549085 -1.49857 0
M  V30 1296 C 122.82 1.86016 -0.774611 0
M  V30 1297 O 121.876 2.50416 -0.323776 0
M  V30 1298 C 123.189 0.606868 -2.94512 0
M  V30 1299 C 124.737 0.695925 -3.05165 0
M  V30 1300 C 125.212 0.784848 -4.51225 0
M  V30 1301 N 126.703 0.848463 -4.55363 0
M  V30 1302 C 127.438 0.937378 -5.65686 0
M  V30 1303 N 126.934 0.9888 -6.85707 0
M  V30 1304 N 128.727 0.974312 -5.53592 0
M  V30 1305 H 120.878 -0.661655 -2.01831 0
M  V30 1306 H 123.141 -0.235261 -0.918344 0
M  V30 1307 H 122.847 -0.28732 -3.50524 0
M  V30 1308 H 122.721 1.46268 -3.47686 0
M  V30 1309 H 125.108 1.58055 -2.49204 0
M  V30 1310 H 125.189 -0.186022 -2.55123 0
M  V30 1311 H 124.833 -0.0954072 -5.0781 0
M  V30 1312 H 124.763 1.68255 -4.98997 0
M  V30 1313 H 127.254 0.818103 -3.68938 0
M  V30 1314 H 127.567 1.05707 -7.65536 0
M  V30 1315 H 125.912 0.957534 -6.88372 0
M  V30 1316 H 129.103 0.930954 -4.58749 0
M  V30 1317 H 129.276 1.04015 -6.39597 0
M  V30 1318 N 122.682 1.50554 0.465978 0
M  V30 1319 C 123.632 1.66177 1.56106 0
M  V30 1320 C 124.616 0.516265 1.52393 0
M  V30 1321 O 125.808 0.770906 1.5933 0
M  V30 1322 C 122.937 1.76396 2.94515 0
M  V30 1323 C 122.023 2.9664 3.03093 0
M  V30 1324 N 122.414 4.20245 2.81474 0
M  V30 1325 C 120.712 2.95304 3.34233 0
M  V30 1326 C 121.413 5.01259 2.95151 0
M  V30 1327 N 120.389 4.35318 3.25576 0
M  V30 1328 H 124.191 2.59434 1.38099 0
M  V30 1329 H 121.705 1.47808 0.6728 0
M  V30 1330 H 123.702 1.85694 3.73261 0
M  V30 1331 H 122.362 0.843017 3.13565 0
M  V30 1332 H 123.373 4.4966 2.56956 0
M  V30 1333 H 120.05 2.12729 3.59239 0
M  V30 1334 H 121.44 6.09564 2.82632 0
M  V30 1335 N 124.16 -0.719506 1.40217 0
M  V30 1336 C 125.09 -1.8465 1.42922 0
M  V30 1337 C 126.071 -1.67599 0.29062 0
M  V30 1338 O 127.256 -1.87688 0.498677 0
M  V30 1339 C 124.386 -3.22565 1.28722 0
M  V30 1340 C 123.34 -3.54281 2.40144 0
M  V30 1341 C 122.666 -4.91298 2.11023 0
M  V30 1342 C 123.966 -3.55676 3.82481 0
M  V30 1343 H 125.66 -1.82644 2.37237 0
M  V30 1344 H 123.206 -0.877305 1.1419 0
M  V30 1345 H 125.159 -4.01095 1.29232 0
M  V30 1346 H 123.883 -3.25137 0.308811 0
M  V30 1347 H 122.542 -2.78088 2.38877 0
M  V30 1348 H 122.19 -4.90468 1.11582 0
M  V30 1349 H 121.89 -5.13485 2.8567 0
M  V30 1350 H 123.414 -5.72166 2.13209 0
M  V30 1351 H 124.828 -4.24254 3.85592 0
M  V30 1352 H 123.225 -3.89388 4.56614 0
M  V30 1353 H 124.295 -2.55144 4.12346 0
M  V30 1354 N 125.638 -1.25649 -0.95132 0
M  V30 1355 C 126.548 -1.08073 -2.08224 0
M  V30 1356 C 127.564 -0.0169666 -1.73992 0
M  V30 1357 O 128.74 -0.218593 -2.0021 0
M  V30 1358 C 125.805 -0.704922 -3.39458 0
M  V30 1359 C 124.866 -1.84699 -3.87537 0
M  V30 1360 C 124.099 -1.48902 -5.12508 0
M  V30 1361 O 124.322 -0.386156 -5.69091 0
M  V30 1362 O 123.256 -2.32033 -5.55378 0
M  V30 1363 H 127.082 -2.02924 -2.25954 0
M  V30 1364 H 124.667 -1.04618 -1.06656 0
M  V30 1365 H 126.549 -0.507609 -4.18332 0
M  V30 1366 H 125.224 0.214291 -3.2299 0
M  V30 1367 H 124.131 -2.09919 -3.09653 0
M  V30 1368 H 125.464 -2.74557 -4.08509 0
M  V30 1369 N 127.117 1.15442 -1.07289 0
M  V30 1370 C 128.064 2.20161 -0.692653 0
M  V30 1371 C 129.034 1.63073 0.31564 0
M  V30 1372 O 130.219 1.89725 0.202235 0
M  V30 1373 C 127.359 3.44967 -0.0959509 0
M  V30 1374 C 126.472 4.16256 -1.15564 0
M  V30 1375 C 125.607 5.28609 -0.524011 0
M  V30 1376 C 124.646 5.91715 -1.56653 0
M  V30 1377 N 123.783 6.9554 -0.957531 0
M  V30 1378 H 128.623 2.52037 -1.59002 0
M  V30 1379 H 126.16 1.2378 -0.794798 0
M  V30 1380 H 128.118 4.16341 0.267628 0
M  V30 1381 H 126.748 3.1361 0.764772 0
M  V30 1382 H 125.8 3.43385 -1.6368 0
M  V30 1383 H 127.112 4.59268 -1.94613 0
M  V30 1384 H 126.266 6.06604 -0.108032 0
M  V30 1385 H 125.005 4.86787 0.29825 0
M  V30 1386 H 124.01 5.12433 -1.9923 0
M  V30 1387 H 125.235 6.35614 -2.39107 0
M  V30 1388 H 123.181 6.55814 -0.156162 0
M  V30 1389 H 123.098 7.36977 -1.68526 0
M  V30 1390 H 124.366 7.77435 -0.567032 0
M  V30 1391 N 128.595 0.856903 1.32268 0
M  V30 1392 C 130.011 0.547061 1.49931 0
M  V30 1393 C 130.211 -0.921781 1.7918 0
M  V30 1394 O 129.267 -1.70469 1.8627 0
M  V30 1395 C 130.58 1.43599 2.64196 0
M  V30 1396 C 132.128 1.43665 2.78081 0
M  V30 1397 C 132.603 2.31085 3.95428 0
M  V30 1398 N 134.094 2.28893 4.02694 0
M  V30 1399 C 134.829 2.93262 4.92732 0
M  V30 1400 N 134.325 3.66751 5.87763 0
M  V30 1401 N 136.118 2.82638 4.85873 0
M  V30 1402 H 128.269 1.8075 1.11549 0
M  V30 1403 H 130.532 0.772144 0.549997 0
M  V30 1404 H 130.238 2.48058 2.49319 0
M  V30 1405 H 130.112 1.12502 3.60032 0
M  V30 1406 H 132.499 0.399701 2.92381 0
M  V30 1407 H 132.58 1.7878 1.82952 0
M  V30 1408 H 132.224 3.34849 3.81888 0
M  V30 1409 H 132.154 1.93302 4.89839 0
M  V30 1410 H 134.645 1.75466 3.34694 0
M  V30 1411 H 134.958 4.13027 6.53168 0
M  V30 1412 H 133.303 3.70859 5.87783 0
M  V30 1413 H 136.494 2.24774 4.10602 0
M  V30 1414 H 136.667 3.33084 5.55841 0
M  V30 1415 N 130.073 -1.45103 0.615059 0
M  V30 1416 C 131.489 -1.57137 0.279322 0
M  V30 1417 C 131.689 -1.60523 -1.21797 0
M  V30 1418 O 130.745 -1.53956 -2.00134 0
M  V30 1419 C 132.058 -2.85062 0.957083 0
M  V30 1420 C 133.606 -2.98749 0.933706 0
M  V30 1421 C 134.081 -4.29455 1.59162 0
M  V30 1422 N 135.572 -4.36231 1.55746 0
M  V30 1423 C 136.307 -5.36051 2.0356 0
M  V30 1424 N 135.803 -6.42367 2.59494 0
M  V30 1425 N 137.596 -5.27456 1.94284 0
M  V30 1426 H 129.747 -1.41148 1.58717 0
M  V30 1427 H 132.01 -0.675331 0.665306 0
M  V30 1428 H 131.716 -2.88488 2.01166 0
M  V30 1429 H 131.59 -3.7407 0.48494 0
M  V30 1430 H 133.977 -2.94886 -0.112347 0
M  V30 1431 H 134.058 -2.11132 1.44419 0
M  V30 1432 H 133.702 -4.34077 2.63704 0
M  V30 1433 H 133.632 -5.15901 1.0561 0
M  V30 1434 H 136.123 -3.60011 1.14893 0
M  V30 1435 H 136.436 -7.14793 2.93752 0
M  V30 1436 H 134.781 -6.43097 2.63537 0
M  V30 1437 H 137.972 -4.43308 1.5032 0
M  V30 1438 H 138.145 -6.05099 2.3186 0
M  V30 1439 N 131.551 -0.354651 -1.53558 0
M  V30 1440 C 132.828 0.294281 -1.93374 0
M  V30 1441 C 133.208 1.67313 -1.28723 0
M  V30 1442 O 132.556 2.24179 -0.442247 0
M  V30 1443 C 132.766 0.355445 -3.47185 0
M  V30 1444 C 134.114 0.601007 -4.20325 0
M  V30 1445 O 135.138 0.437106 -3.53508 0
M  V30 1446 O 133.997 0.919322 -5.38712 0
M  V30 1447 H 131.091 0.174033 -0.808481 0
M  V30 1448 H 133.637 -0.406638 -1.64756 0
M  V30 1449 H 132.409 -0.611729 -3.86489 0
M  V30 1450 H 132.032 1.1027 -3.82003 0
M  V30 1451 N 133.029 1.57378 -0.0835403 0
M  V30 1452 C 134.277 1.93547 0.581718 0
M  V30 1453 C 134.598 0.96524 1.69435 0
M  V30 1454 O 133.868 0.0153369 1.95894 0
M  V30 1455 H 132.448 0.714521 0.217874 0
M  V30 1456 H 135.11 1.94366 -0.144158 0
M  V30 1457 H 134.206 2.95665 0.999423 0
M  V30 1458 N 134.507 -0.190092 1.56449 0
M  V30 1459 C 135.732 -0.929864 1.85387 0
M  V30 1460 C 136.157 -1.7585 0.667704 0
M  V30 1461 O 135.515 -1.77198 -0.383459 0
M  V30 1462 C 135.563 -1.79773 3.12593 0
M  V30 1463 O 134.667 -2.89713 2.93496 0
M  V30 1464 H 134.008 -0.261574 0.610307 0
M  V30 1465 H 136.538 -0.193896 2.03679 0
M  V30 1466 H 136.548 -2.20139 3.43515 0
M  V30 1467 H 135.223 -1.18892 3.98544 0
M  V30 1468 H 133.8 -2.53065 2.73884 0
M  V30 1469 N 135.985 -1.50799 -0.457987 0
M  V30 1470 C 137.21 -1.66496 -1.23668 0
M  V30 1471 C 137.635 -0.353288 -1.84752 0
M  V30 1472 O 136.993 0.684346 -1.67888 0
M  V30 1473 C 137.041 -2.76763 -2.3116 0
M  V30 1474 O 136.145 -2.38928 -3.36136 0
M  V30 1475 H 135.486 -0.555828 -0.363252 0
M  V30 1476 H 138.016 -1.9725 -0.543474 0
M  V30 1477 H 138.026 -3.00232 -2.76269 0
M  V30 1478 H 136.701 -3.71954 -1.86073 0
M  V30 1479 H 135.278 -2.25953 -2.96647 0
M  V30 1480 N 137.463 0.71206 -1.40597 0
M  V30 1481 C 138.395 1.83704 -1.37061 0
M  V30 1482 C 139.408 1.60453 -0.275426 0
M  V30 1483 O 140.597 1.70262 -0.53602 0
M  V30 1484 C 137.697 3.20172 -1.11099 0
M  V30 1485 C 136.87 3.7059 -2.3234 0
M  V30 1486 C 135.929 4.85681 -2.02485 0
M  V30 1487 O 134.955 4.9815 -2.75382 0
M  V30 1488 N 136.157 5.71735 -1.00497 0
M  V30 1489 H 138.922 1.87235 -2.34016 0
M  V30 1490 H 136.483 0.893739 -1.34996 0
M  V30 1491 H 138.475 3.94768 -0.891064 0
M  V30 1492 H 137.045 3.11767 -0.227989 0
M  V30 1493 H 136.265 2.87085 -2.7014 0
M  V30 1494 H 137.553 4.01011 -3.13157 0
M  V30 1495 H 136.951 5.64275 -0.401298 0
M  V30 1496 H 135.508 6.463 -0.844942 0
M  V30 1497 N 138.941 1.26152 0.944643 0
M  V30 1498 C 139.873 1.03199 2.04652 0
M  V30 1499 C 140.886 -0.00642356 1.62799 0
M  V30 1500 O 142.075 0.233263 1.76969 0
M  V30 1501 C 139.175 0.540111 3.34568 0
M  V30 1502 C 138.348 1.64697 4.05208 0
M  V30 1503 C 137.407 1.15374 5.13396 0
M  V30 1504 O 136.433 1.85013 5.38293 0
M  V30 1505 N 137.635 0.00031529 5.805 0
M  V30 1506 H 140.4 1.9808 2.2491 0
M  V30 1507 H 137.961 1.17491 1.11389 0
M  V30 1508 H 139.953 0.194401 4.04233 0
M  V30 1509 H 138.523 -0.315021 3.11009 0
M  V30 1510 H 137.743 2.16379 3.29506 0
M  V30 1511 H 139.031 2.3903 4.49157 0
M  V30 1512 H 138.429 -0.581336 5.62705 0
M  V30 1513 H 136.986 -0.286346 6.51171 0
M  V30 1514 N 140.419 -1.14872 1.07899 0
M  V30 1515 C 141.349 -2.2193 0.725887 0
M  V30 1516 C 142.33 -1.67622 -0.28927 0
M  V30 1517 O 143.515 -1.93533 -0.160787 0
M  V30 1518 C 140.645 -3.47061 0.128856 0
M  V30 1519 C 139.599 -4.14363 1.07178 0
M  V30 1520 C 138.925 -5.33636 0.337229 0
M  V30 1521 C 140.225 -4.63492 2.40775 0
M  V30 1522 H 141.919 -2.51724 1.62097 0
M  V30 1523 H 139.465 -1.20991 0.780838 0
M  V30 1524 H 141.418 -4.21199 -0.130147 0
M  V30 1525 H 140.142 -3.16617 -0.80134 0
M  V30 1526 H 138.801 -3.42173 1.3158 0
M  V30 1527 H 138.449 -4.99449 -0.596606 0
M  V30 1528 H 138.149 -5.79609 0.965788 0
M  V30 1529 H 139.673 -6.10539 0.0861567 0
M  V30 1530 H 141.087 -5.2913 2.20669 0
M  V30 1531 H 139.484 -5.20148 2.99276 0
M  V30 1532 H 140.554 -3.78834 3.02676 0
M  V30 1533 N 141.898 -0.863906 -1.31812 0
M  V30 1534 C 142.83 -0.272485 -2.27575 0
M  V30 1535 C 143.843 0.56104 -1.52827 0
M  V30 1536 O 145.032 0.384021 -1.7432 0
M  V30 1537 C 142.132 0.63283 -3.32939 0
M  V30 1538 C 141.305 -0.166902 -4.37081 0
M  V30 1539 C 140.364 0.665608 -5.21973 0
M  V30 1540 O 139.39 0.0958091 -5.69119 0
M  V30 1541 N 140.592 1.9787 -5.45736 0
M  V30 1542 H 143.357 -1.0954 -2.78964 0
M  V30 1543 H 140.918 -0.724791 -1.4477 0
M  V30 1544 H 142.91 1.19532 -3.86645 0
M  V30 1545 H 141.48 1.35642 -2.81638 0
M  V30 1546 H 140.7 -0.910838 -3.83533 0
M  V30 1547 H 141.988 -0.715874 -5.03739 0
M  V30 1548 H 141.386 2.46484 -5.09178 0
M  V30 1549 H 139.943 2.48911 -6.024 0
M  V30 1550 N 143.376 1.44774 -0.622745 0
M  V30 1551 C 144.624 2.01721 -0.123655 0
M  V30 1552 C 144.945 1.49172 1.25589 0
M  V30 1553 O 144.215 0.691974 1.83272 0
M  V30 1554 H 142.795 0.745777 -0.0427225 0
M  V30 1555 H 145.457 1.77382 -0.807559 0
M  V30 1556 H 144.553 3.11984 -0.0849534 0
M  V30 1557 N 144.854 0.36279 1.53368 0
M  V30 1558 C 146.084 -0.228281 2.05335 0
M  V30 1559 C 146.492 -1.43226 1.23625 0
M  V30 1560 O 145.835 -1.81717 0.269206 0
M  V30 1561 C 145.897 -0.688549 3.52845 0
M  V30 1562 C 145.561 0.398362 4.5526 0
M  V30 1563 C 146.558 1.24732 5.04716 0
M  V30 1564 C 144.243 0.557805 4.99193 0
M  V30 1565 C 146.237 2.2411 5.96702 0
M  V30 1566 C 143.924 1.55495 5.90986 0
M  V30 1567 C 144.922 2.39503 6.39631 0
M  V30 1568 O 144.61 3.37517 7.29615 0
M  V30 1569 H 144.342 -0.044395 0.674541 0
M  V30 1570 H 146.896 0.518668 1.98744 0
M  V30 1571 H 145.126 -1.48706 3.56964 0
M  V30 1572 H 146.815 -1.20231 3.87685 0
M  V30 1573 H 147.581 1.13532 4.71525 0
M  V30 1574 H 143.46 -0.0862959 4.60919 0
M  V30 1575 H 147.004 2.89718 6.34594 0
M  V30 1576 H 142.901 1.66744 6.23592 0
M  V30 1577 H 143.669 3.33213 7.47604 0
M  V30 1578 N 146.332 -1.57332 0.0918853 0
M  V30 1579 C 147.581 -1.93412 -0.572249 0
M  V30 1580 C 147.894 -0.975515 -1.69538 0
M  V30 1581 O 149.1 -1.22991 -2.42045 0
M  V30 1582 C 147.556 -3.43648 -1.0693 0
M  V30 1583 C 147.164 -4.47994 0.0239049 0
M  V30 1584 C 148.908 -3.88695 -1.70635 0
M  V30 1585 C 146.815 -5.89381 -0.488319 0
M  V30 1586 H 145.745 -0.721939 -0.217532 0
M  V30 1587 H 148.396 -1.82735 0.167369 0
M  V30 1588 H 146.778 -3.49466 -1.8625 0
M  V30 1589 H 147.952 -4.53815 0.799277 0
M  V30 1590 H 146.267 -4.12536 0.565946 0
M  V30 1591 H 148.864 -4.91725 -2.10025 0
M  V30 1592 H 149.207 -3.27166 -2.57426 0
M  V30 1593 H 149.74 -3.85564 -0.979023 0
M  V30 1594 H 146.479 -6.54602 0.342906 0
M  V30 1595 H 145.999 -5.87037 -1.23077 0
M  V30 1596 H 147.678 -6.39863 -0.958317 0
M  V30 1597 N 147.81 0.181792 -1.56548 0
M  V30 1598 C 149.221 0.745244 -1.71181 0
M  V30 1599 C 149.572 1.83262 -0.70068 0
M  V30 1600 O 148.697 2.15946 0.140154 0
M  V30 1601 C 149.292 1.35859 -3.10367 0
M  V30 1602 C 147.851 1.86898 -3.2672 0
M  V30 1603 C 146.998 0.743942 -2.67134 0
M  V30 1604 H 149.949 -0.0434661 -1.5864 0
M  V30 1605 H 149.97 2.22817 -3.08436 0
M  V30 1606 H 149.482 0.566948 -3.83937 0
M  V30 1607 H 147.583 2.68738 -2.5809 0
M  V30 1608 H 147.696 2.02162 -4.34359 0
M  V30 1609 H 146.06 1.16169 -2.26665 0
M  V30 1610 H 146.843 -0.035676 -3.43281 0
M  V30 1611 N 149.288 1.51039 0.449983 0
M  V30 1612 C 150.513 1.6715 1.22783 0
M  V30 1613 C 150.938 0.363081 1.84563 0
M  V30 1614 O 150.296 -0.675433 1.68249 0
M  V30 1615 C 150.344 2.77985 2.29689 0
M  V30 1616 O 149.448 2.40707 3.34864 0
M  V30 1617 H 148.789 0.557746 0.360299 0
M  V30 1618 H 151.319 1.97535 0.533005 0
M  V30 1619 H 151.329 3.01693 2.74673 0
M  V30 1620 H 150.004 3.72935 1.84098 0
M  V30 1621 H 148.581 2.27523 2.95445 0
M  V30 1622 N 150.766 -0.704594 1.40972 0
M  V30 1623 C 151.714 -1.83994 1.42299 0
M  V30 1624 C 152.708 -1.66684 0.302111 0
M  V30 1625 O 153.914 -1.73655 0.473697 0
M  V30 1626 H 150.289 -0.606171 0.44504 0
M  V30 1627 H 152.26 -1.79992 2.38003 0
M  V30 1628 C 151.009 -3.21946 1.31323 0
M  V30 1629 H 150.332 -3.35878 2.16855 0
M  V30 1630 H 151.772 -4.01491 1.36311 0
M  V30 1631 C 150.231 -3.36891 0.0245977 0
M  V30 1632 O 150.761 -3.90687 -0.934153 0
M  V30 1633 N 148.967 -2.90559 -0.0485243 0
M  V30 1634 H 148.514 -2.46968 0.732419 0
M  V30 1635 H 148.472 -3.00937 -0.910171 0
M  V30 1636 N 152.244 -1.26651 -0.937939 0
M  V30 1637 C 153.474 -1.15006 -1.71631 0
M  V30 1638 C 153.882 0.297026 -1.86854 0
M  V30 1639 O 153.225 1.21493 -1.37786 0
M  V30 1640 C 153.287 -1.74984 -3.14039 0
M  V30 1641 C 152.951 -3.24103 -3.2219 0
M  V30 1642 C 153.948 -4.20877 -3.05219 0
M  V30 1643 C 151.633 -3.64625 -3.45476 0
M  V30 1644 C 153.627 -5.56151 -3.11408 0
M  V30 1645 C 151.314 -5.00032 -3.513 0
M  V30 1646 C 152.312 -5.95604 -3.34282 0
M  V30 1647 O 152 -7.28545 -3.3982 0
M  V30 1648 H 151.732 -0.401183 -0.544085 0
M  V30 1649 H 154.286 -1.67832 -1.18413 0
M  V30 1650 H 152.516 -1.16624 -3.68695 0
M  V30 1651 H 154.205 -1.58199 -3.73802 0
M  V30 1652 H 154.971 -3.90908 -2.87081 0
M  V30 1653 H 150.85 -2.90718 -3.57777 0
M  V30 1654 H 154.394 -6.30727 -2.98043 0
M  V30 1655 H 150.291 -5.29659 -3.68959 0
M  V30 1656 H 151.059 -7.3686 -3.56343 0
M  V30 1657 N 153.722 1.14298 -1.08507 0
M  V30 1658 C 154.968 1.85633 -0.816581 0
M  V30 1659 C 155.301 1.82784 0.656021 0
M  V30 1660 O 154.576 1.25926 1.48233 0
M  V30 1661 C 154.859 3.34223 -1.34041 0
M  V30 1662 C 154.712 3.45639 -2.87843 0
M  V30 1663 C 156.031 4.29356 -0.9665 0
M  V30 1664 H 153.15 0.67402 -0.298104 0
M  V30 1665 H 155.792 1.34214 -1.34487 0
M  V30 1666 H 153.942 3.78144 -0.89104 0
M  V30 1667 H 155.614 3.10498 -3.41158 0
M  V30 1668 H 153.857 2.86817 -3.25451 0
M  V30 1669 H 154.528 4.50089 -3.19569 0
M  V30 1670 H 157.004 3.93457 -1.35391 0
M  V30 1671 H 155.88 5.3178 -1.3602 0
M  V30 1672 H 156.141 4.41919 0.126362 0
M  V30 1673 N 155.201 0.870884 1.31352 0
M  V30 1674 C 156.164 0.332243 2.26779 0
M  V30 1675 C 157.164 -0.517302 1.52252 0
M  V30 1676 O 158.354 -0.326477 1.71113 0
M  V30 1677 C 155.486 -0.528066 3.36785 0
M  V30 1678 H 156.679 1.17469 2.75937 0
M  V30 1679 H 154.232 0.64655 1.423 0
M  V30 1680 H 154.967 -1.39167 2.92922 0
M  V30 1681 H 154.752 0.0802582 3.92018 0
M  V30 1682 H 156.242 -0.897179 4.07849 0
M  V30 1683 N 156.679 -1.44442 0.630414 0
M  V30 1684 C 157.589 -2.34476 -0.0761693 0
M  V30 1685 C 158.605 -1.52576 -0.836449 0
M  V30 1686 O 159.781 -1.85307 -0.788874 0
M  V30 1687 C 156.846 -3.30545 -1.04599 0
M  V30 1688 C 155.907 -4.28352 -0.28516 0
M  V30 1689 C 155.14 -5.19831 -1.20878 0
M  V30 1690 O 155.363 -5.15223 -2.44747 0
M  V30 1691 O 154.297 -5.97892 -0.693491 0
M  V30 1692 H 158.123 -2.96345 0.664324 0
M  V30 1693 H 155.708 -1.44203 0.39061 0
M  V30 1694 H 157.59 -3.89681 -1.60396 0
M  V30 1695 H 156.265 -2.7121 -1.76711 0
M  V30 1696 H 155.172 -3.72764 0.315837 0
M  V30 1697 H 156.505 -4.90605 0.395924 0
M  V30 1698 N 158.157 -0.370918 -1.53173 0
M  V30 1699 C 159.434 0.273754 -1.93675 0
M  V30 1700 C 159.814 1.65938 -1.3049 0
M  V30 1701 O 159.162 2.23698 -0.465999 0
M  V30 1702 C 159.372 0.318602 -3.47543 0
M  V30 1703 C 160.72 0.556392 -4.20939 0
M  V30 1704 O 161.744 0.399587 -3.53952 0
M  V30 1705 O 160.603 0.862133 -5.39657 0
M  V30 1706 H 157.697 0.165448 -0.810281 0
M  V30 1707 H 160.243 -0.42409 -1.64315 0
M  V30 1708 H 159.015 -0.652687 -3.85818 0
M  V30 1709 H 158.638 1.06212 -3.83151 0
M  V30 1710 N 159.635 1.57281 -0.100228 0
M  V30 1711 C 161.051 1.57527 0.256416 0
M  V30 1712 C 161.251 1.11173 1.68056 0
M  V30 1713 O 160.307 0.79053 2.39806 0
M  V30 1714 C 161.62 3.00673 0.0401747 0
M  V30 1715 C 163.168 3.12815 0.107528 0
M  V30 1716 C 163.643 4.57929 -0.0807834 0
M  V30 1717 N 165.134 4.63193 -0.0261207 0
M  V30 1718 C 165.869 5.73212 -0.146999 0
M  V30 1719 N 165.365 6.92047 -0.322999 0
M  V30 1720 N 167.158 5.62031 -0.0879044 0
M  V30 1721 H 159.309 1.85718 -1.03065 0
M  V30 1722 H 161.572 0.857446 -0.404339 0
M  V30 1723 H 161.278 3.38804 -0.943649 0
M  V30 1724 H 161.152 3.69042 0.780262 0
M  V30 1725 H 163.539 2.74554 1.08186 0
M  V30 1726 H 163.62 2.47028 -0.664134 0
M  V30 1727 H 163.264 4.96886 -1.05201 0
M  V30 1728 H 163.194 5.21783 0.710635 0
M  V30 1729 H 165.685 3.77748 0.107161 0
M  V30 1730 H 165.998 7.7173 -0.406608 0
M  V30 1731 H 164.343 6.94074 -0.358733 0
M  V30 1732 H 167.534 4.68075 0.048498 0
M  V30 1733 H 167.707 6.47734 -0.185557 0
M  V30 1734 N 161.113 -0.173488 1.56642 0
M  V30 1735 C 162.338 -0.910149 1.86363 0
M  V30 1736 C 162.763 -1.75132 0.686318 0
M  V30 1737 O 162.121 -1.77595 -0.364643 0
M  V30 1738 C 162.169 -1.76447 3.14482 0
M  V30 1739 O 161.273 -2.86584 2.96553 0
M  V30 1740 H 160.614 -0.255086 0.613047 0
M  V30 1741 H 163.144 -0.172283 2.03873 0
M  V30 1742 H 163.154 -2.16483 3.45831 0
M  V30 1743 H 161.829 -1.14658 3.99783 0
M  V30 1744 H 160.406 -2.50146 2.76553 0
M  V30 1745 N 162.591 -1.51276 -0.441967 0
M  V30 1746 C 163.521 -1.752 -1.54361 0
M  V30 1747 C 164.502 -0.601682 -1.59103 0
M  V30 1748 O 165.687 -0.843913 -1.74905 0
M  V30 1749 C 162.817 -1.87282 -2.92477 0
M  V30 1750 C 161.771 -3.02687 -3.02596 0
M  V30 1751 C 161.097 -2.99947 -4.42647 0
M  V30 1752 C 162.397 -4.4273 -2.77106 0
M  V30 1753 H 164.091 -2.67442 -1.34592 0
M  V30 1754 H 161.637 -1.28694 -0.646048 0
M  V30 1755 H 163.59 -2.02602 -3.695 0
M  V30 1756 H 162.314 -0.916844 -3.13467 0
M  V30 1757 H 160.973 -2.87065 -2.28012 0
M  V30 1758 H 160.621 -2.02136 -4.60597 0
M  V30 1759 H 160.321 -3.77439 -4.50348 0
M  V30 1760 H 161.845 -3.17354 -5.2165 0
M  V30 1761 H 163.259 -4.58727 -3.43864 0
M  V30 1762 H 161.656 -5.21893 -2.96222 0
M  V30 1763 H 162.726 -4.53087 -1.72744 0
M  V30 1764 N 164.069 0.697108 -1.41344 0
M  V30 1765 C 165.001 1.8224 -1.39001 0
M  V30 1766 C 166.014 1.60152 -0.292428 0
M  V30 1767 O 167.203 1.69684 -0.554048 0
M  V30 1768 C 164.303 3.18976 -1.14489 0
M  V30 1769 C 163.476 3.68105 -2.36258 0
M  V30 1770 C 162.535 4.83506 -2.07625 0
M  V30 1771 O 161.561 4.95201 -2.8065 0
M  V30 1772 N 162.763 5.70637 -1.06555 0
M  V30 1773 H 165.528 1.84742 -2.35988 0
M  V30 1774 H 163.089 0.87937 -1.35936 0
M  V30 1775 H 165.081 3.93801 -0.932885 0
M  V30 1776 H 163.651 3.11508 -0.261043 0
M  V30 1777 H 162.871 2.84204 -2.7317 0
M  V30 1778 H 164.159 3.97667 -3.17393 0
M  V30 1779 H 163.557 5.63817 -0.461125 0
M  V30 1780 H 162.114 6.45368 -0.913444 0
M  V30 1781 N 165.547 1.27147 0.931209 0
M  V30 1782 C 166.51 1.09615 2.01289 0
M  V30 1783 C 167.51 0.0412581 1.60747 0
M  V30 1784 O 168.7 0.285545 1.71844 0
M  V30 1785 C 165.832 0.669447 3.34262 0
M  V30 1786 H 167.025 2.05662 2.18273 0
M  V30 1787 H 164.578 1.09885 1.11153 0
M  V30 1788 H 165.313 -0.292572 3.22978 0
M  V30 1789 H 165.098 1.43127 3.65044 0
M  V30 1790 H 166.588 0.568921 4.13706 0
M  V30 1791 N 167.025 -1.13721 1.09112 0
M  V30 1792 C 167.935 -2.22638 0.73957 0
M  V30 1793 C 168.951 -1.72091 -0.257068 0
M  V30 1794 O 170.127 -2.01155 -0.0992154 0
M  V30 1795 C 167.192 -3.46322 0.16191 0
M  V30 1796 C 166.253 -4.11775 1.21408 0
M  V30 1797 C 165.486 -5.29555 0.663891 0
M  V30 1798 O 165.709 -5.68077 -0.514274 0
M  V30 1799 O 164.643 -5.84973 1.41738 0
M  V30 1800 H 168.469 -2.55074 1.64836 0
M  V30 1801 H 166.054 -1.21791 0.865289 0
M  V30 1802 H 167.936 -4.21107 -0.157073 0
M  V30 1803 H 166.611 -3.15593 -0.719932 0
M  V30 1804 H 165.518 -3.3883 1.58571 0
M  V30 1805 H 166.851 -4.46627 2.06845 0
M  V30 1806 N 168.503 -0.877838 -1.30888 0
M  V30 1807 C 169.914 -0.544193 -1.78593 0
M  V30 1808 C 170.265 0.939301 -1.72254 0
M  V30 1809 O 169.39 1.7337 -1.29505 0
M  V30 1810 C 169.985 -0.98105 -3.24285 0
M  V30 1811 C 168.544 -0.698935 -3.69854 0
M  V30 1812 C 167.691 -1.168 -2.51502 0
M  V30 1813 H 170.642 -1.06278 -1.17859 0
M  V30 1814 H 170.663 -0.307009 -3.79259 0
M  V30 1815 H 170.175 -2.06079 -3.28866 0
M  V30 1816 H 168.276 0.369112 -3.70767 0
M  V30 1817 H 168.389 -1.28148 -4.61644 0
M  V30 1818 H 166.753 -0.587535 -2.47831 0
M  V30 1819 H 167.536 -2.25533 -2.58824 0
M  V30 1820 N 169.982 1.44106 -0.638065 0
M  V30 1821 C 171.228 2.02815 -0.15409 0
M  V30 1822 C 171.583 1.49342 1.21304 0
M  V30 1823 O 170.876 0.670699 1.79478 0
M  V30 1824 C 171.07 3.5729 -0.0887327 0
M  V30 1825 C 170.899 4.2575 -1.44799 0
M  V30 1826 C 169.669 4.62443 -2.03653 0
M  V30 1827 C 171.867 4.55746 -2.38327 0
M  V30 1828 N 169.849 5.15903 -3.32741 0
M  V30 1829 C 171.22 5.10364 -3.52036 0
M  V30 1830 C 173.275 4.37703 -2.3732 0
M  V30 1831 C 171.978 5.48837 -4.64941 0
M  V30 1832 C 174.004 4.77229 -3.49294 0
M  V30 1833 C 173.366 5.31966 -4.61726 0
M  V30 1834 H 169.465 0.775519 -0.100466 0
M  V30 1835 H 172.049 1.755 -0.843071 0
M  V30 1836 H 170.22 3.84201 0.569548 0
M  V30 1837 H 171.952 4.02671 0.404711 0
M  V30 1838 H 168.707 4.46987 -1.56523 0
M  V30 1839 H 169.131 5.47102 -3.98758 0
M  V30 1840 H 173.773 3.94671 -1.51641 0
M  V30 1841 H 171.491 5.9082 -5.51323 0
M  V30 1842 H 175.077 4.64976 -3.49698 0
M  V30 1843 H 173.957 5.61986 -5.46939 0
M  V30 1844 N 171.46 0.379036 1.52974 0
M  V30 1845 C 172.707 -0.206421 2.01445 0
M  V30 1846 C 173.035 -1.47668 1.26587 0
M  V30 1847 O 172.29 -1.92514 0.351675 0
M  V30 1848 C 172.589 -0.53096 3.53434 0
M  V30 1849 C 172.255 0.646546 4.46241 0
M  V30 1850 C 170.917 0.969604 4.7133 0
M  V30 1851 C 173.269 1.43479 5.01062 0
M  V30 1852 C 170.597 2.08263 5.48492 0
M  V30 1853 C 172.949 2.53834 5.7944 0
M  V30 1854 C 171.613 2.86659 6.02812 0
M  V30 1855 H 170.883 -0.0755349 0.73714 0
M  V30 1856 H 173.53 0.514271 1.84465 0
M  V30 1857 H 171.835 -1.33285 3.68432 0
M  V30 1858 H 173.532 -0.996417 3.88423 0
M  V30 1859 H 170.122 0.384734 4.2687 0
M  V30 1860 H 174.306 1.19844 4.81613 0
M  V30 1861 H 169.562 2.34078 5.64816 0
M  V30 1862 H 173.736 3.15319 6.20924 0
M  V30 1863 H 171.363 3.73026 6.62387 0
M  V30 1864 N 172.938 -1.57226 0.108567 0
M  V30 1865 C 174.185 -1.94833 -0.551943 0
M  V30 1866 C 174.513 -0.991204 -1.67348 0
M  V30 1867 O 173.768 -0.0131878 -1.95696 0
M  V30 1868 C 174.067 -3.38911 -1.13463 0
M  V30 1869 C 173.733 -4.50696 -0.135509 0
M  V30 1870 C 172.395 -4.80998 0.139252 0
M  V30 1871 C 174.747 -5.18333 0.545957 0
M  V30 1872 C 172.075 -5.76259 1.10194 0
M  V30 1873 C 174.427 -6.14627 1.49721 0
M  V30 1874 C 173.091 -6.43327 1.78006 0
M  V30 1875 H 172.361 -0.712944 -0.20197 0
M  V30 1876 H 175.008 -1.90582 0.18726 0
M  V30 1877 H 173.313 -3.39805 -1.95037 0
M  V30 1878 H 175.01 -3.65317 -1.65362 0
M  V30 1879 H 171.6 -4.27087 -0.359846 0
M  V30 1880 H 175.784 -4.95087 0.346842 0
M  V30 1881 H 171.04 -5.96804 1.32795 0
M  V30 1882 H 175.214 -6.66126 2.03099 0
M  V30 1883 H 172.841 -7.1695 2.52759 0
M  V30 1884 N 174.416 0.165178 -1.56732 0
M  V30 1885 C 175.664 0.879068 -1.8198 0
M  V30 1886 C 175.985 1.82514 -0.686561 0
M  V30 1887 O 175.255 1.93694 0.293146 0
M  V30 1888 H 173.835 0.327608 -0.671329 0
M  V30 1889 H 176.497 0.163526 -1.94213 0
M  V30 1890 H 175.593 1.45228 -2.76252 0
M  V30 1891 N 175.894 1.51508 0.433938 0
M  V30 1892 C 176.857 1.72473 1.50949 0
M  V30 1893 C 177.857 0.594725 1.49398 0
M  V30 1894 O 179.047 0.862315 1.5136 0
M  V30 1895 C 176.179 1.78431 2.90474 0
M  V30 1896 H 177.372 2.68467 1.33662 0
M  V30 1897 H 174.925 1.41549 0.662836 0
M  V30 1898 H 175.66 0.842645 3.13161 0
M  V30 1899 H 175.445 2.60558 2.93005 0
M  V30 1900 H 176.935 1.96479 3.68491 0
M  V30 1901 N 177.372 -0.689602 1.41712 0
M  V30 1902 C 178.621 -1.44534 1.40686 0
M  V30 1903 C 178.934 -1.95588 0.0213352 0
M  V30 1904 O 180.14 -2.71271 -0.111534 0
M  V30 1905 C 178.596 -2.61387 2.47396 0
M  V30 1906 C 178.204 -2.17094 3.91885 0
M  V30 1907 C 179.948 -3.38986 2.55517 0
M  V30 1908 C 177.855 -3.3094 4.90135 0
M  V30 1909 H 176.785 -0.542925 0.52321 0
M  V30 1910 H 179.436 -0.748054 1.6756 0
M  V30 1911 H 177.818 -3.33412 2.13664 0
M  V30 1912 H 178.992 -1.52318 4.34897 0
M  V30 1913 H 177.307 -1.52473 3.8748 0
M  V30 1914 H 179.904 -4.23747 3.26102 0
M  V30 1915 H 180.247 -3.84578 1.59391 0
M  V30 1916 H 180.78 -2.74021 2.8837 0
M  V30 1917 H 177.519 -2.90355 5.87685 0
M  V30 1918 H 177.039 -3.94546 4.51767 0
M  V30 1919 H 178.718 -3.9663 5.11169 0
M  V30 1920 N 178.85 -1.27639 -0.924453 0
M  V30 1921 C 180.098 -1.13941 -1.66918 0
M  V30 1922 C 180.419 0.314589 -1.92446 0
M  V30 1923 O 179.689 1.21964 -1.53303 0
M  V30 1924 H 178.269 -0.418678 -0.618642 0
M  V30 1925 H 180.931 -1.60213 -1.10985 0
M  V30 1926 H 180.027 -1.67094 -2.63602 0
M  V30 1927 N 180.328 1.1314 -1.09713 0
M  V30 1928 C 181.744 1.36477 -0.827423 0
M  V30 1929 C 181.944 1.93654 0.556817 0
M  V30 1930 O 181 2.15791 1.31112 0
M  V30 1931 C 182.313 2.31334 -1.92106 0
M  V30 1932 C 183.861 2.44943 -1.94864 0
M  V30 1933 C 184.336 3.4311 -3.0338 0
M  V30 1934 N 185.827 3.50662 -3.02639 0
M  V30 1935 C 186.562 4.2651 -3.83246 0
M  V30 1936 N 186.058 5.05485 -4.73768 0
M  V30 1937 N 187.851 4.2184 -3.71493 0
M  V30 1938 H 180.002 0.743807 -1.9895 0
M  V30 1939 H 182.265 0.389823 -0.864143 0
M  V30 1940 H 181.971 1.96483 -2.91698 0
M  V30 1941 H 181.845 3.31381 -1.80184 0
M  V30 1942 H 184.232 2.79079 -0.959099 0
M  V30 1943 H 184.313 1.4481 -2.10864 0
M  V30 1944 H 183.957 3.09704 -4.02549 0
M  V30 1945 H 183.887 4.43055 -2.84622 0
M  V30 1946 H 186.378 2.94315 -2.37039 0
M  V30 1947 H 186.691 5.60675 -5.3185 0
M  V30 1948 H 185.036 5.04708 -4.77802 0
M  V30 1949 H 188.227 3.5922 -3.00131 0
M  V30 1950 H 188.4 4.80697 -4.3455 0
M  V30 1951 N 181.806 0.884767 1.30421 0
M  V30 1952 C 183.031 0.517288 2.00845 0
M  V30 1953 C 183.456 -0.886779 1.65885 0
M  V30 1954 O 182.814 -1.58768 0.875354 0
M  V30 1955 C 182.862 0.698994 3.5376 0
M  V30 1956 O 181.966 -0.255208 4.1161 0
M  V30 1957 H 181.307 0.203872 0.631927 0
M  V30 1958 H 183.837 1.19225 1.66272 0
M  V30 1959 H 183.847 0.597912 4.03595 0
M  V30 1960 H 182.522 1.72271 3.78544 0
M  V30 1961 H 181.099 -0.10784 3.72744 0
M  V30 1962 N 183.284 -1.43765 0.645699 0
M  V30 1963 C 184.561 -1.9541 0.0862963 0
M  V30 1964 C 184.941 -1.58725 -1.39175 0
M  V30 1965 O 184.289 -0.868581 -2.11348 0
M  V30 1966 C 184.499 -3.47488 0.324565 0
M  V30 1967 C 185.847 -4.24001 0.225497 0
M  V30 1968 O 186.871 -3.55274 0.256715 0
M  V30 1969 O 185.73 -5.46313 0.142801 0
M  V30 1970 H 182.824 -0.826882 -0.0139483 0
M  V30 1971 H 185.37 -1.53743 0.718415 0
M  V30 1972 H 184.142 -3.67289 1.3496 0
M  V30 1973 H 183.765 -3.96135 -0.340987 0
M  V30 1974 N 184.763 -0.387143 -1.52771 0
M  V30 1975 C 185.726 0.436939 -2.24997 0
M  V30 1976 C 186.726 0.991991 -1.26555 0
M  V30 1977 O 187.916 0.874335 -1.50669 0
M  V30 1978 C 185.048 1.61281 -3.00335 0
M  V30 1979 H 186.241 -0.195365 -2.99263 0
M  V30 1980 H 183.794 -0.139218 -1.55679 0
M  V30 1981 H 184.529 2.2826 -2.30364 0
M  V30 1982 H 184.314 1.22154 -3.72587 0
M  V30 1983 H 185.804 2.19629 -3.5518 0
M  V30 1984 N 186.241 1.57166 -0.116904 0
M  V30 1985 C 187.151 2.18745 0.847812 0
M  V30 1986 C 188.167 1.163 1.29423 0
M  V30 1987 O 189.343 1.48761 1.35765 0
M  V30 1988 C 186.408 2.77307 2.0809 0
M  V30 1989 C 185.469 3.94781 1.68661 0
M  V30 1990 C 184.702 4.50541 2.86091 0
M  V30 1991 O 184.925 4.05202 4.01456 0
M  V30 1992 O 183.859 5.41256 2.63298 0
M  V30 1993 H 187.685 3.01632 0.353778 0
M  V30 1994 H 185.27 1.49005 0.108599 0
M  V30 1995 H 187.152 3.14647 2.80313 0
M  V30 1996 H 185.827 1.97452 2.56504 0
M  V30 1997 H 184.734 3.62214 0.935518 0
M  V30 1998 H 186.067 4.76065 1.24991 0
M  V30 1999 N 187.719 -0.156864 1.56817 0
M  V30 2000 C 188.666 -1.19394 1.97519 0
M  V30 2001 C 189.636 -1.4322 0.841265 0
M  V30 2002 O 190.821 -1.55719 1.10255 0
M  V30 2003 C 187.961 -2.52483 2.35258 0
M  V30 2004 C 187.074 -2.35914 3.61896 0
M  V30 2005 C 186.209 -3.61969 3.88782 0
M  V30 2006 C 185.248 -3.40395 5.08722 0
M  V30 2007 N 184.385 -4.58556 5.31668 0
M  V30 2008 H 189.225 -0.839845 2.85921 0
M  V30 2009 H 186.762 -0.403264 1.41464 0
M  V30 2010 H 188.72 -3.30071 2.55165 0
M  V30 2011 H 187.35 -2.85859 1.49949 0
M  V30 2012 H 186.402 -1.49429 3.49821 0
M  V30 2013 H 187.714 -2.15926 4.49641 0
M  V30 2014 H 186.868 -4.47989 4.09135 0
M  V30 2015 H 185.607 -3.84951 2.9944 0
M  V30 2016 H 184.612 -2.52763 4.88253 0
M  V30 2017 H 185.837 -3.18822 5.99608 0
M  V30 2018 H 183.783 -4.81729 4.45279 0
M  V30 2019 H 183.7 -4.41535 6.13664 0
M  V30 2020 H 184.968 -5.45817 5.5651 0
M  V30 2021 N 189.197 -1.51736 -0.425897 0
M  V30 2022 C 190.129 -1.70083 -1.53638 0
M  V30 2023 C 191.142 -0.581349 -1.52066 0
M  V30 2024 O 192.331 -0.856017 -1.56635 0
M  V30 2025 C 189.431 -1.71078 -2.9255 0
M  V30 2026 C 188.604 -2.99795 -3.185 0
M  V30 2027 C 187.663 -2.92825 -4.37196 0
M  V30 2028 O 186.689 -3.66756 -4.35291 0
M  V30 2029 N 187.891 -2.0946 -5.41393 0
M  V30 2030 H 190.656 -2.65882 -1.383 0
M  V30 2031 H 188.217 -1.49765 -0.614988 0
M  V30 2032 H 190.209 -1.63969 -3.69995 0
M  V30 2033 H 188.779 -0.828242 -3.01428 0
M  V30 2034 H 187.999 -3.20684 -2.2925 0
M  V30 2035 H 189.287 -3.84977 -3.32671 0
M  V30 2036 H 188.685 -1.48792 -5.45781 0
M  V30 2037 H 187.242 -2.08221 -6.17647 0
M  V30 2038 N 190.675 0.682077 -1.42076 0
M  V30 2039 C 191.605 1.80796 -1.47767 0
M  V30 2040 C 192.586 1.6677 -0.334954 0
M  V30 2041 O 193.771 1.863 -0.548264 0
M  V30 2042 C 190.901 3.19038 -1.37229 0
M  V30 2043 C 189.855 3.47789 -2.49453 0
M  V30 2044 C 189.181 4.8553 -2.23975 0
M  V30 2045 C 190.481 3.45411 -3.91776 0
M  V30 2046 H 192.175 1.7629 -2.41997 0
M  V30 2047 H 189.721 0.846721 -1.16476 0
M  V30 2048 H 191.674 3.97528 -1.39821 0
M  V30 2049 H 190.398 3.24204 -0.394907 0
M  V30 2050 H 189.057 2.71657 -2.46166 0
M  V30 2051 H 188.705 4.87337 -1.24547 0
M  V30 2052 H 188.405 5.0573 -2.99184 0
M  V30 2053 H 189.929 5.66312 -2.28304 0
M  V30 2054 H 191.343 4.13882 -3.96705 0
M  V30 2055 H 189.74 3.77145 -4.66778 0
M  V30 2056 H 190.81 2.44122 -4.18966 0
M  V30 2057 N 192.153 1.28127 0.917671 0
M  V30 2058 C 193.083 1.14248 2.03641 0
M  V30 2059 C 194.064 0.0412748 1.7005 0
M  V30 2060 O 195.249 0.217566 1.92977 0
M  V30 2061 C 192.379 0.799431 3.37974 0
M  V30 2062 C 191.333 1.85497 3.85713 0
M  V30 2063 C 190.659 1.36565 5.16966 0
M  V30 2064 C 191.959 3.26085 4.08002 0
M  V30 2065 H 193.653 2.07835 2.15511 0
M  V30 2066 H 191.199 1.00064 1.03553 0
M  V30 2067 H 193.152 0.689114 4.15727 0
M  V30 2068 H 191.876 -0.172145 3.26146 0
M  V30 2069 H 190.535 1.95437 3.10161 0
M  V30 2070 H 190.183 0.383253 5.01538 0
M  V30 2071 H 189.883 2.07143 5.49878 0
M  V30 2072 H 191.407 1.26848 5.97279 0
M  V30 2073 H 192.821 3.19089 4.76293 0
M  V30 2074 H 191.218 3.94462 4.52238 0
M  V30 2075 H 192.288 3.70394 3.12948 0
M  V30 2076 N 193.631 -1.12557 1.10312 0
M  V30 2077 C 194.861 -1.87592 0.865617 0
M  V30 2078 C 195.269 -1.79851 -0.587389 0
M  V30 2079 O 194.612 -1.16949 -1.41664 0
M  V30 2080 C 194.674 -3.37665 1.23381 0
M  V30 2081 C 194.338 -3.69181 2.69359 0
M  V30 2082 C 195.335 -3.67652 3.67597 0
M  V30 2083 C 193.02 -3.98555 3.05711 0
M  V30 2084 C 195.014 -3.95053 5.00212 0
M  V30 2085 C 192.701 -4.25616 4.38514 0
M  V30 2086 C 193.699 -4.23851 5.35574 0
M  V30 2087 O 193.387 -4.50242 6.65986 0
M  V30 2088 H 193.119 -0.600442 0.310557 0
M  V30 2089 H 195.673 -1.4335 1.47105 0
M  V30 2090 H 193.903 -3.82454 0.571467 0
M  V30 2091 H 195.592 -3.94041 0.973994 0
M  V30 2092 H 196.358 -3.45024 3.40857 0
M  V30 2093 H 192.237 -3.99071 2.30789 0
M  V30 2094 H 195.781 -3.93591 5.75962 0
M  V30 2095 H 191.678 -4.47718 4.64994 0
M  V30 2096 H 192.446 -4.67867 6.71597 0
M  V30 2097 N 195.109 -0.891671 -1.2995 0
M  V30 2098 C 196.334 -0.527932 -2.00568 0
M  V30 2099 C 196.759 0.877969 -1.66353 0
M  V30 2100 O 196.117 1.58301 -0.883762 0
M  V30 2101 C 196.165 -0.717745 -3.53385 0
M  V30 2102 O 195.269 0.233376 -4.11739 0
M  V30 2103 H 194.61 -0.20722 -0.630837 0
M  V30 2104 H 197.14 -1.20105 -1.65638 0
M  V30 2105 H 197.15 -0.619307 -4.03272 0
M  V30 2106 H 195.825 -1.74276 -3.77625 0
M  V30 2107 H 194.402 0.0880706 -3.72796 0
M  V30 2108 N 196.587 1.43421 -0.653314 0
M  V30 2109 C 197.497 2.34568 0.0388565 0
M  V30 2110 C 198.513 1.53888 0.81207 0
M  V30 2111 O 199.689 1.86539 0.759294 0
M  V30 2112 C 196.754 3.32167 0.993269 0
M  V30 2113 C 195.815 4.28751 0.216977 0
M  V30 2114 C 195.048 5.21688 1.12593 0
M  V30 2115 O 195.271 5.19052 2.36519 0
M  V30 2116 O 194.205 5.98919 0.598284 0
M  V30 2117 H 198.031 2.95251 -0.711386 0
M  V30 2118 H 195.616 1.43564 -0.413502 0
M  V30 2119 H 197.498 3.92183 1.54176 0
M  V30 2120 H 196.173 2.73987 1.72374 0
M  V30 2121 H 195.08 3.72215 -0.375101 0
M  V30 2122 H 196.413 4.89913 -0.473924 0
M  V30 2123 N 198.065 0.39524 1.52563 0
M  V30 2124 C 199.013 -0.451859 2.28169 0
M  V30 2125 C 200.007 -1.05792 1.32304 0
M  V30 2126 O 201.213 -0.997718 1.49818 0
M  V30 2127 H 197.588 -0.164481 0.733792 0
M  V30 2128 H 199.559 0.207199 2.9768 0
M  V30 2129 C 198.308 -1.56385 3.10546 0
M  V30 2130 H 197.631 -1.10682 3.84174 0
M  V30 2131 H 199.071 -2.13067 3.66577 0
M  V30 2132 C 197.53 -2.52328 2.23231 0
M  V30 2133 O 198.06 -3.5588 1.86312 0
M  V30 2134 N 196.266 -2.22209 1.87274 0
M  V30 2135 H 195.813 -1.38033 2.17496 0
M  V30 2136 H 195.771 -2.86652 1.29143 0
M  V30 2137 N 199.544 -1.57102 0.125237 0
M  V30 2138 C 200.491 -2.15641 -0.822655 0
M  V30 2139 C 201.461 -1.08313 -1.25927 0
M  V30 2140 O 202.646 -1.36251 -1.33567 0
M  V30 2141 C 199.786 -2.76504 -2.06494 0
M  V30 2142 C 198.899 -3.98158 -1.67612 0
M  V30 2143 C 198.034 -4.47088 -2.86854 0
M  V30 2144 C 197.073 -5.6126 -2.44242 0
M  V30 2145 N 196.21 -6.04905 -3.56419 0
M  V30 2146 H 201.05 -2.96313 -0.316625 0
M  V30 2147 H 198.587 -1.46388 -0.144588 0
M  V30 2148 H 200.545 -3.09925 -2.79289 0
M  V30 2149 H 199.175 -1.98512 -2.54545 0
M  V30 2150 H 198.227 -3.70858 -0.846661 0
M  V30 2151 H 199.539 -4.80934 -1.32301 0
M  V30 2152 H 198.693 -4.82451 -3.67867 0
M  V30 2153 H 197.432 -3.63275 -3.25396 0
M  V30 2154 H 196.437 -5.25495 -1.61663 0
M  V30 2155 H 197.662 -6.46843 -2.0681 0
M  V30 2156 H 195.608 -5.24032 -3.94623 0
M  V30 2157 H 195.525 -6.82552 -3.25051 0
M  V30 2158 H 196.793 -6.44907 -4.37853 0
M  V30 2159 N 201.022 0.148545 -1.56898 0
M  V30 2160 C 202.25 0.876389 -1.87422 0
M  V30 2161 C 202.665 1.74809 -0.713256 0
M  V30 2162 O 202.022 1.79725 0.317025 0
M  V30 2163 C 202.073 1.73438 -3.17178 0
M  V30 2164 O 201.794 0.897809 -4.28802 0
M  V30 2165 C 203.295 2.56993 -3.61205 0
M  V30 2166 H 200.515 0.253489 -0.621277 0
M  V30 2167 H 203.059 0.141798 -2.04008 0
M  V30 2168 H 201.214 2.42205 -3.0235 0
M  V30 2169 H 201.628 1.48672 -5.02988 0
M  V30 2170 H 203.102 3.12773 -4.54838 0
M  V30 2171 H 203.579 3.32958 -2.86419 0
M  V30 2172 H 204.185 1.9352 -3.78722 0
M  V30 2173 N 202.5 1.5196 0.417844 0
M  V30 2174 C 203.748 1.65263 1.16329 0
M  V30 2175 C 204.069 0.380634 1.91249 0
M  V30 2176 O 203.339 -0.604214 1.86349 0
M  V30 2177 H 201.919 0.60912 0.432414 0
M  V30 2178 H 204.581 1.88969 0.477162 0
M  V30 2179 H 203.677 2.4896 1.88217 0
M  V30 2180 N 203.978 -0.674533 1.42435 0
M  V30 2181 C 205.203 -1.46784 1.46524 0
M  V30 2182 C 205.628 -1.87938 0.078066 0
M  V30 2183 O 204.986 -1.56014 -0.92354 0
M  V30 2184 C 205.034 -2.69307 2.39805 0
M  V30 2185 O 204.138 -3.67587 1.86959 0
M  V30 2186 H 203.479 -0.440959 0.496439 0
M  V30 2187 H 206.009 -0.827326 1.87127 0
M  V30 2188 H 206.019 -3.17374 2.56393 0
M  V30 2189 H 204.694 -2.38692 3.40586 0
M  V30 2190 H 203.271 -3.2662 1.79927 0
M  V30 2191 N 205.456 -1.28612 -0.910864 0
M  V30 2192 C 206.703 -1.15934 -1.66029 0
M  V30 2193 C 207.031 0.291483 -1.92303 0
M  V30 2194 O 206.286 1.22816 -1.52364 0
M  V30 2195 C 206.585 -1.90624 -3.0232 0
M  V30 2196 C 206.251 -3.40405 -2.95695 0
M  V30 2197 C 204.913 -3.81255 -2.93595 0
M  V30 2198 C 207.265 -4.359 -2.85728 0
M  V30 2199 C 204.593 -5.15936 -2.79334 0
M  V30 2200 C 206.945 -5.70657 -2.73007 0
M  V30 2201 C 205.609 -6.10779 -2.69267 0
M  V30 2202 H 204.879 -0.424234 -0.607541 0
M  V30 2203 H 207.526 -1.5942 -1.06101 0
M  V30 2204 H 205.831 -1.39696 -3.6605 0
M  V30 2205 H 207.528 -1.78228 -3.59215 0
M  V30 2206 H 204.118 -3.07927 -2.98125 0
M  V30 2207 H 208.302 -4.053 -2.86436 0
M  V30 2208 H 203.558 -5.46146 -2.74835 0
M  V30 2209 H 207.732 -6.44311 -2.64264 0
M  V30 2210 H 205.359 -7.1509 -2.57974 0
M  V30 2211 N 206.934 1.1197 -1.10907 0
M  V30 2212 C 207.864 2.19928 -0.784473 0
M  V30 2213 C 208.845 1.6833 0.244726 0
M  V30 2214 O 210.03 1.93892 0.109418 0
M  V30 2215 C 207.16 3.46597 -0.220827 0
M  V30 2216 C 206.114 4.11376 -1.18127 0
M  V30 2217 C 205.44 5.32554 -0.478594 0
M  V30 2218 C 206.74 4.56945 -2.52979 0
M  V30 2219 H 208.434 2.47337 -1.68715 0
M  V30 2220 H 205.98 1.18879 -0.812642 0
M  V30 2221 H 207.933 4.21396 0.0184278 0
M  V30 2222 H 206.657 3.1863 0.717113 0
M  V30 2223 H 205.316 3.38564 -1.40606 0
M  V30 2224 H 204.964 5.00856 0.463976 0
M  V30 2225 H 204.664 5.76844 -1.11912 0
M  V30 2226 H 206.188 6.10096 -0.248 0
M  V30 2227 H 207.602 5.23093 -2.3462 0
M  V30 2228 H 205.999 5.1203 -3.12962 0
M  V30 2229 H 207.069 3.70676 -3.12614 0
M  V30 2230 N 208.412 0.89855 1.29475 0
M  V30 2231 C 209.661 0.519863 1.94885 0
M  V30 2232 C 209.974 -0.9383 1.71625 0
M  V30 2233 O 211.18 -1.42445 2.31131 0
M  V30 2234 C 209.636 0.878836 3.49005 0
M  V30 2235 C 209.244 2.35569 3.81066 0
M  V30 2236 C 210.988 0.570004 4.20656 0
M  V30 2237 C 208.895 2.65558 5.28425 0
M  V30 2238 H 207.825 0.190692 0.729488 0
M  V30 2239 H 210.476 1.09539 1.47219 0
M  V30 2240 H 208.858 0.232253 3.95318 0
M  V30 2241 H 210.032 3.04773 3.45616 0
M  V30 2242 H 208.347 2.63343 3.22552 0
M  V30 2243 H 210.944 0.770925 5.29113 0
M  V30 2244 H 211.287 -0.491404 4.1339 0
M  V30 2245 H 211.82 1.17438 3.8007 0
M  V30 2246 H 208.559 3.70493 5.40754 0
M  V30 2247 H 208.079 2.00977 5.65127 0
M  V30 2248 H 209.758 2.51765 5.96006 0
M  V30 2249 N 209.89 -1.43072 0.660911 0
M  V30 2250 C 211.306 -1.56169 0.329173 0
M  V30 2251 C 211.506 -1.64317 -1.16629 0
M  V30 2252 O 210.562 -1.60245 -1.95135 0
M  V30 2253 C 211.875 -2.81873 1.04729 0
M  V30 2254 C 213.423 -2.95627 1.02828 0
M  V30 2255 C 213.898 -4.24174 1.72744 0
M  V30 2256 N 215.389 -4.31055 1.69545 0
M  V30 2257 C 216.124 -5.29304 2.20511 0
M  V30 2258 N 215.62 -6.33786 2.79799 0
M  V30 2259 N 217.413 -5.21008 2.10966 0
M  V30 2260 H 209.564 -1.36027 1.63127 0
M  V30 2261 H 211.827 -0.653823 0.686454 0
M  V30 2262 H 211.533 -2.81942 2.10242 0
M  V30 2263 H 211.407 -3.72338 0.603702 0
M  V30 2264 H 213.794 -2.95094 -0.0184742 0
M  V30 2265 H 213.875 -2.06431 1.51063 0
M  V30 2266 H 213.519 -4.25467 2.7738 0
M  V30 2267 H 213.449 -5.1228 1.2197 0
M  V30 2268 H 215.94 -3.56174 1.26288 0
M  V30 2269 H 216.253 -7.05086 3.16344 0
M  V30 2270 H 214.598 -6.34387 2.83863 0
M  V30 2271 H 217.789 -4.38301 1.64347 0
M  V30 2272 H 217.962 -5.97416 2.50993 0
M  V30 2273 N 211.368 -0.403325 -1.52352 0
M  V30 2274 C 212.278 0.432009 -2.30588 0
M  V30 2275 C 213.294 1.05884 -1.38075 0
M  V30 2276 O 214.47 1.06161 -1.71148 0
M  V30 2277 C 211.535 1.53669 -3.10784 0
M  V30 2278 C 210.596 0.933525 -4.19027 0
M  V30 2279 C 209.829 1.98557 -4.9539 0
M  V30 2280 O 210.052 3.20283 -4.71991 0
M  V30 2281 O 208.986 1.59504 -5.80381 0
M  V30 2282 H 212.812 -0.205739 -3.03002 0
M  V30 2283 H 210.397 -0.166675 -1.48467 0
M  V30 2284 H 212.279 2.17814 -3.60742 0
M  V30 2285 H 210.954 2.15915 -2.41169 0
M  V30 2286 H 209.861 0.254954 -3.7323 0
M  V30 2287 H 211.194 0.35508 -4.90918 0
M  V30 2288 N 212.846 1.57033 -0.133567 0
M  V30 2289 C 214.071 2.00475 0.531477 0
M  V30 2290 C 214.496 1.01291 1.58499 0
M  V30 2291 O 213.854 -0.0133279 1.81295 0
M  V30 2292 C 213.902 3.42729 1.12113 0
M  V30 2293 O 213.006 3.46498 2.23636 0
M  V30 2294 H 212.347 0.650876 0.131362 0
M  V30 2295 H 214.877 2.03344 -0.22634 0
M  V30 2296 H 214.887 3.81246 1.4531 0
M  V30 2297 H 213.562 4.14428 0.349557 0
M  V30 2298 H 212.139 3.19811 1.91769 0
M  V30 2299 N 214.325 -0.140222 1.56975 0
M  V30 2300 C 215.235 -1.19223 2.02047 0
M  V30 2301 C 216.251 -1.46612 0.937062 0
M  V30 2302 O 217.427 -1.58148 1.24704 0
M  V30 2303 C 214.492 -2.50414 2.39778 0
M  V30 2304 C 213.553 -2.30612 3.621 0
M  V30 2305 C 212.786 -3.55547 3.98023 0
M  V30 2306 O 213.009 -4.62004 3.34528 0
M  V30 2307 O 211.943 -3.47808 4.91237 0
M  V30 2308 H 215.769 -0.839559 2.91865 0
M  V30 2309 H 213.354 -0.349453 1.45256 0
M  V30 2310 H 215.236 -3.27747 2.64877 0
M  V30 2311 H 213.911 -2.85198 1.53114 0
M  V30 2312 H 212.818 -1.51207 3.4218 0
M  V30 2313 H 214.151 -2.00741 4.49404 0
M  V30 2314 N 215.803 -1.52179 -0.40978 0
M  V30 2315 C 217.028 -1.70347 -1.18308 0
M  V30 2316 C 217.453 -0.411887 -1.83535 0
M  V30 2317 O 216.811 0.630587 -1.6998 0
M  V30 2318 C 216.859 -2.83977 -2.22238 0
M  V30 2319 O 215.963 -2.495 -3.28365 0
M  V30 2320 H 215.304 -0.567103 -0.345384 0
M  V30 2321 H 217.834 -1.98879 -0.480445 0
M  V30 2322 H 217.844 -3.0887 -2.66577 0
M  V30 2323 H 216.519 -3.77685 -1.74146 0
M  V30 2324 H 215.096 -2.35277 -2.89308 0
M  V30 2325 N 217.281 0.66697 -1.42791 0
M  V30 2326 C 218.213 1.7925 -1.42836 0
M  V30 2327 C 219.226 1.59496 -0.326333 0
M  V30 2328 O 220.415 1.6847 -0.589916 0
M  V30 2329 C 217.515 3.16476 -1.21229 0
M  V30 2330 C 216.688 3.63011 -2.44013 0
M  V30 2331 C 215.747 4.78993 -2.17834 0
M  V30 2332 O 214.773 4.89137 -2.91091 0
M  V30 2333 N 215.975 5.68248 -1.18635 0
M  V30 2334 H 218.74 1.79695 -2.39854 0
M  V30 2335 H 216.301 0.850338 -1.37771 0
M  V30 2336 H 218.293 3.91734 -1.01621 0
M  V30 2337 H 216.863 3.10884 -0.32706 0
M  V30 2338 H 216.083 2.78346 -2.79137 0
M  V30 2339 H 217.371 3.90845 -3.25757 0
M  V30 2340 H 216.769 5.62712 -0.580615 0
M  V30 2341 H 215.326 6.43285 -1.05013 0
M  V30 2342 N 218.759 1.29093 0.90403 0
M  V30 2343 C 219.706 1.13853 2.00764 0
M  V30 2344 C 220.676 0.0330084 1.66067 0
M  V30 2345 O 221.861 0.199733 1.89752 0
M  V30 2346 C 219.001 0.816537 3.35301 0
M  V30 2347 C 218.114 2.00206 3.82807 0
M  V30 2348 C 217.249 1.61983 5.059 0
M  V30 2349 C 216.288 2.77143 5.45764 0
M  V30 2350 N 215.425 2.39346 6.60044 0
M  V30 2351 H 220.265 2.08276 2.13132 0
M  V30 2352 H 217.802 1.03648 1.04381 0
M  V30 2353 H 219.76 0.610557 4.12708 0
M  V30 2354 H 218.39 -0.090779 3.22672 0
M  V30 2355 H 217.442 2.31988 3.01473 0
M  V30 2356 H 218.754 2.86512 4.08304 0
M  V30 2357 H 217.908 1.37649 5.90879 0
M  V30 2358 H 216.647 0.728202 4.82233 0
M  V30 2359 H 215.652 3.02165 4.59322 0
M  V30 2360 H 216.877 3.66964 5.71414 0
M  V30 2361 H 214.823 1.52665 6.37989 0
M  V30 2362 H 214.74 3.19185 6.85315 0
M  V30 2363 H 216.008 2.1832 7.48303 0
M  V30 2364 N 220.237 -1.11381 1.11499 0
M  V30 2365 C 221.485 -1.8277 0.862524 0
M  V30 2366 C 221.806 -1.85097 -0.613534 0
M  V30 2367 O 221.076 -1.32198 -1.4457 0
M  V30 2368 H 219.656 -0.676823 0.316101 0
M  V30 2369 H 222.318 -1.34816 1.4075 0
M  V30 2370 H 221.414 -2.86614 1.23527 0
M  V30 2371 N 221.715 -0.905404 -1.28997 0
M  V30 2372 C 222.625 -0.392246 -2.31298 0
M  V30 2373 C 223.641 0.515889 -1.66176 0
M  V30 2374 O 224.817 0.404093 -1.97304 0
M  V30 2375 C 221.882 0.36686 -3.44754 0
M  V30 2376 C 220.943 -0.573485 -4.25452 0
M  V30 2377 C 220.176 0.149488 -5.33491 0
M  V30 2378 O 220.399 1.37255 -5.5364 0
M  V30 2379 O 219.333 -0.510919 -5.99728 0
M  V30 2380 H 223.159 -1.2411 -2.77183 0
M  V30 2381 H 220.744 -0.669926 -1.33538 0
M  V30 2382 H 222.626 0.795907 -4.13816 0
M  V30 2383 H 221.301 1.19169 -3.00966 0
M  V30 2384 H 220.208 -1.05176 -3.59011 0
M  V30 2385 H 221.541 -1.36489 -4.72897 0
M  V30 2386 N 223.193 1.4272 -0.668489 0
M  V30 2387 C 224.44 2.01624 -0.18814 0
M  V30 2388 C 224.768 1.5282 1.20317 0
M  V30 2389 O 224.023 0.718323 1.8204 0
M  V30 2390 C 224.322 3.57021 -0.164499 0
M  V30 2391 C 223.988 4.25232 -1.49962 0
M  V30 2392 C 222.65 4.4358 -1.8652 0
M  V30 2393 C 225.002 4.63727 -2.37921 0
M  V30 2394 C 222.33 4.97694 -3.10674 0
M  V30 2395 C 224.682 5.19218 -3.6138 0
M  V30 2396 C 223.346 5.3578 -3.98115 0
M  V30 2397 H 222.616 0.737795 -0.0688454 0
M  V30 2398 H 225.263 1.70991 -0.862225 0
M  V30 2399 H 223.568 3.87285 0.593079 0
M  V30 2400 H 225.265 4.00372 0.224271 0
M  V30 2401 H 221.855 4.11306 -1.20522 0
M  V30 2402 H 226.039 4.4923 -2.10964 0
M  V30 2403 H 221.295 5.08702 -3.39164 0
M  V30 2404 H 225.469 5.4799 -4.29743 0
M  V30 2405 H 223.096 5.77475 -4.94395 0
M  V30 2406 N 224.671 0.411399 1.52136 0
M  V30 2407 C 225.896 -0.165538 2.06738 0
M  V30 2408 C 226.321 -1.379 1.27926 0
M  V30 2409 O 225.679 -1.78628 0.310114 0
M  V30 2410 C 225.727 -0.492124 3.57226 0
M  V30 2411 O 224.831 -1.58276 3.80818 0
M  V30 2412 H 224.172 -0.0132132 0.663869 0
M  V30 2413 H 226.702 0.585253 1.96051 0
M  V30 2414 H 226.712 -0.750104 4.01045 0
M  V30 2415 H 225.387 0.394922 4.14021 0
M  V30 2416 H 223.964 -1.31677 3.48877 0
M  V30 2417 N 226.149 -1.5696 0.141893 0
M  V30 2418 C 227.079 -2.19516 -0.795936 0
M  V30 2419 C 228.06 -1.14187 -1.26077 0
M  V30 2420 O 229.245 -1.42511 -1.31925 0
M  V30 2421 C 226.375 -2.81272 -2.03723 0
M  V30 2422 C 225.329 -3.92384 -1.70936 0
M  V30 2423 C 224.655 -4.41052 -3.02287 0
M  V30 2424 C 225.955 -5.13403 -0.959954 0
M  V30 2425 H 227.649 -2.98138 -0.274596 0
M  V30 2426 H 225.195 -1.43406 -0.130636 0
M  V30 2427 H 227.148 -3.237 -2.69808 0
M  V30 2428 H 225.872 -1.99973 -2.58221 0
M  V30 2429 H 224.531 -3.50566 -1.07232 0
M  V30 2430 H 224.179 -3.56582 -3.54765 0
M  V30 2431 H 223.879 -5.15993 -2.81114 0
M  V30 2432 H 225.403 -4.86146 -3.69451 0
M  V30 2433 H 226.817 -5.52706 -1.52279 0
M  V30 2434 H 225.214 -5.94073 -0.848357 0
M  V30 2435 H 226.284 -4.84875 0.0492434 0
M  V30 2436 N 227.627 0.131896 -1.57047 0
M  V30 2437 C 228.852 0.860418 -1.8871 0
M  V30 2438 C 229.277 1.73251 -0.73251 0
M  V30 2439 O 228.635 1.785 0.317429 0
M  V30 2440 C 228.683 1.68047 -3.19049 0
M  V30 2441 O 227.787 2.7862 -3.04047 0
M  V30 2442 H 227.128 0.238743 -0.619595 0
M  V30 2443 H 229.658 0.118169 -2.04258 0
M  V30 2444 H 229.668 2.07238 -3.51449 0
M  V30 2445 H 228.343 1.04018 -4.02682 0
M  V30 2446 H 226.92 2.42726 -2.83088 0
M  V30 2447 N 229.106 1.52395 0.401703 0
M  V30 2448 C 230.352 1.67065 1.14966 0
M  V30 2449 C 230.685 0.403052 1.89971 0
M  V30 2450 O 229.96 -0.598774 1.85054 0
M  V30 2451 C 230.243 2.8975 2.13815 0
M  V30 2452 C 230.096 4.26578 1.42658 0
M  V30 2453 C 231.415 3.07965 3.14397 0
M  V30 2454 H 228.534 0.607968 0.416587 0
M  V30 2455 H 231.176 1.84965 0.434511 0
M  V30 2456 H 229.326 2.74619 2.74803 0
M  V30 2457 H 230.998 4.53451 0.847329 0
M  V30 2458 H 229.241 4.27639 0.72849 0
M  V30 2459 H 229.912 5.08483 2.14823 0
M  V30 2460 H 232.388 3.22043 2.63491 0
M  V30 2461 H 231.264 3.95308 3.80819 0
M  V30 2462 H 231.525 2.21611 3.82545 0
M  V30 2463 N 230.584 -0.659388 1.43143 0
M  V30 2464 C 231.514 -1.78422 1.50625 0
M  V30 2465 C 232.495 -1.66216 0.361443 0
M  V30 2466 O 233.68 -1.85404 0.577834 0
M  V30 2467 C 230.81 -3.16815 1.42287 0
M  V30 2468 C 229.764 -3.43777 2.54954 0
M  V30 2469 C 229.09 -4.81905 2.31671 0
M  V30 2470 C 230.39 -3.39134 3.97222 0
M  V30 2471 H 232.084 -1.72417 2.44771 0
M  V30 2472 H 229.63 -0.828084 1.17808 0
M  V30 2473 H 231.583 -3.95253 1.46127 0
M  V30 2474 H 230.307 -3.23534 0.446435 0
M  V30 2475 H 228.966 -2.67707 2.50457 0
M  V30 2476 H 228.614 -4.85294 1.32284 0
M  V30 2477 H 228.314 -5.00906 3.07192 0
M  V30 2478 H 229.838 -5.62609 2.37284 0
M  V30 2479 H 231.252 -4.07518 4.03239 0
M  V30 2480 H 229.649 -3.69671 4.72719 0
M  V30 2481 H 230.719 -2.37426 4.22797 0
M  V30 2482 N 232.062 -1.29571 -0.897171 0
M  V30 2483 C 233.339 -1.08365 -1.62839 0
M  V30 2484 C 233.719 0.371331 -2.07808 0
M  V30 2485 O 233.067 1.3606 -1.83576 0
M  V30 2486 C 233.277 -2.0735 -2.80726 0
M  V30 2487 C 234.625 -2.38406 -3.51351 0
M  V30 2488 O 235.649 -2.05564 -2.90898 0
M  V30 2489 O 234.508 -2.9453 -4.60341 0
M  V30 2490 H 231.602 -0.415345 -0.715134 0
M  V30 2491 H 234.148 -1.40952 -0.945018 0
M  V30 2492 H 232.92 -3.05339 -2.44711 0
M  V30 2493 H 232.543 -1.75507 -3.56767 0
M  V30 2494 N 233.54 1.10788 -1.12088 0
M  V30 2495 C 234.788 1.8231 -0.872205 0
M  V30 2496 C 235.109 1.85419 0.603709 0
M  V30 2497 O 234.379 1.32963 1.43867 0
M  V30 2498 H 232.959 0.675137 -0.319686 0
M  V30 2499 H 235.621 1.34068 -1.41463 0
M  V30 2500 H 234.717 2.85955 -1.25045 0
M  V30 2501 N 235.018 0.912232 1.28515 0
M  V30 2502 C 235.981 0.404223 2.25607 0
M  V30 2503 C 236.981 -0.468602 1.53821 0
M  V30 2504 O 238.171 -0.271873 1.72065 0
M  V30 2505 C 235.303 -0.420653 3.38295 0
M  V30 2506 H 236.496 1.26188 2.7206 0
M  V30 2507 H 234.049 0.691495 1.40171 0
M  V30 2508 H 234.784 -1.29777 2.97201 0
M  V30 2509 H 234.569 0.204935 3.91564 0
M  V30 2510 H 236.059 -0.766971 4.10496 0
M  V30 2511 N 236.496 -1.42363 0.676048 0
M  V30 2512 C 237.742 -2.0182 0.199125 0
M  V30 2513 C 238.075 -1.53339 -1.19168 0
M  V30 2514 O 237.35 -0.736124 -1.80032 0
M  V30 2515 C 237.633 -3.59331 0.235144 0
M  V30 2516 C 237.486 -4.17989 1.66149 0
M  V30 2517 C 238.805 -4.3813 -0.41595 0
M  V30 2518 H 235.924 -0.733293 0.0738311 0
M  V30 2519 H 238.566 -1.69368 0.86107 0
M  V30 2520 H 236.716 -3.87109 -0.328487 0
M  V30 2521 H 238.388 -4.0116 2.27747 0
M  V30 2522 H 236.631 -3.7377 2.20178 0
M  V30 2523 H 237.302 -5.27126 1.63837 0
M  V30 2524 H 239.778 -4.16051 0.0638529 0
M  V30 2525 H 238.654 -5.47717 -0.360115 0
M  V30 2526 H 238.915 -4.16101 -1.49373 0
M  V30 2527 N 237.974 -0.419461 -1.51915 0
M  V30 2528 C 239.22 0.153166 -2.02221 0
M  V30 2529 C 239.553 1.43907 -1.30401 0
M  V30 2530 O 238.828 1.90055 -0.413438 0
M  V30 2531 C 239.111 0.390291 -3.57979 0
M  V30 2532 C 238.964 -0.913014 -4.40436 0
M  V30 2533 C 240.283 1.16794 -4.2432 0
M  V30 2534 H 237.402 0.0541924 -0.735005 0
M  V30 2535 H 240.044 -0.554955 -1.81715 0
M  V30 2536 H 238.194 0.993491 -3.75582 0
M  V30 2537 H 239.866 -1.54882 -4.34522 0
M  V30 2538 H 238.109 -1.52168 -4.06236 0
M  V30 2539 H 238.78 -0.701361 -5.47526 0
M  V30 2540 H 241.256 0.657161 -4.10878 0
M  V30 2541 H 240.132 1.3026 -5.3322 0
M  V30 2542 H 240.393 2.19132 -3.83971 0
M  V30 2543 N 239.452 1.56882 -0.150215 0
M  V30 2544 C 240.399 2.16922 0.788244 0
M  V30 2545 C 241.369 1.10303 1.24187 0
M  V30 2546 O 242.554 1.38359 1.31383 0
M  V30 2547 C 239.694 2.79754 2.02068 0
M  V30 2548 C 238.807 4.00775 1.61257 0
M  V30 2549 C 237.942 4.51595 2.79705 0
M  V30 2550 C 236.981 5.65074 2.35282 0
M  V30 2551 N 236.118 6.10499 3.4675 0
M  V30 2552 H 240.958 2.96779 0.269444 0
M  V30 2553 H 238.495 1.46599 0.12128 0
M  V30 2554 H 240.453 3.14329 2.74323 0
M  V30 2555 H 239.083 2.02536 2.51354 0
M  V30 2556 H 238.135 3.72158 0.787553 0
M  V30 2557 H 239.447 4.82978 1.24633 0
M  V30 2558 H 238.601 4.88242 3.60145 0
M  V30 2559 H 237.34 3.68406 3.19576 0
M  V30 2560 H 236.345 5.28 1.53283 0
M  V30 2561 H 237.57 6.50052 1.96493 0
M  V30 2562 H 235.516 5.30243 3.86236 0
M  V30 2563 H 235.433 6.87637 3.14152 0
M  V30 2564 H 236.701 6.51791 4.27537 0
M  V30 2565 N 240.93 -0.123565 1.57115 0
M  V30 2566 C 241.88 -1.1575 1.96433 0
M  V30 2567 C 242.864 -1.37313 0.838686 0
M  V30 2568 O 244.056 -1.38482 1.10235 0
M  V30 2569 C 241.185 -2.48526 2.36833 0
M  V30 2570 C 240.271 -2.30457 3.5602 0
M  V30 2571 N 240.662 -1.8219 4.71848 0
M  V30 2572 C 238.96 -2.61129 3.61563 0
M  V30 2573 C 239.661 -1.77721 5.53886 0
M  V30 2574 N 238.637 -2.21899 4.96248 0
M  V30 2575 H 242.439 -0.776797 2.83449 0
M  V30 2576 H 239.953 -0.331364 1.58983 0
M  V30 2577 H 241.95 -3.233 2.63216 0
M  V30 2578 H 240.61 -2.87358 1.5118 0
M  V30 2579 H 241.621 -1.51805 4.95152 0
M  V30 2580 H 238.298 -3.03678 2.86507 0
M  V30 2581 H 239.688 -1.41697 6.56789 0
M  V30 2582 N 242.408 -1.52605 -0.393616 0
M  V30 2583 C 243.638 -1.71046 -1.15874 0
M  V30 2584 C 244.046 -0.426483 -1.84331 0
M  V30 2585 O 243.389 0.608513 -1.73329 0
M  V30 2586 C 243.451 -2.80118 -2.25332 0
M  V30 2587 C 243.115 -4.21381 -1.76881 0
M  V30 2588 C 244.112 -5.04697 -1.24808 0
M  V30 2589 C 241.797 -4.67683 -1.83244 0
M  V30 2590 C 243.791 -6.32393 -0.797387 0
M  V30 2591 C 241.478 -5.95364 -1.37787 0
M  V30 2592 C 242.476 -6.77549 -0.861208 0
M  V30 2593 O 242.164 -8.02837 -0.413252 0
M  V30 2594 H 241.896 -0.576155 -0.353583 0
M  V30 2595 H 244.45 -2.00018 -0.467123 0
M  V30 2596 H 242.68 -2.46557 -2.97904 0
M  V30 2597 H 244.369 -2.87006 -2.87023 0
M  V30 2598 H 245.135 -4.70111 -1.19252 0
M  V30 2599 H 241.014 -4.03805 -2.22401 0
M  V30 2600 H 244.558 -6.9649 -0.393437 0
M  V30 2601 H 240.455 -6.29455 -1.43026 0
M  V30 2602 H 241.223 -8.16749 -0.53515 0
M  V30 2603 N 243.887 0.651787 -1.4349 0
M  V30 2604 C 245.303 0.96762 -1.26922 0
M  V30 2605 C 245.503 2.00602 -0.189982 0
M  V30 2606 O 244.559 2.48793 0.431107 0
M  V30 2607 C 245.872 1.45052 -2.63401 0
M  V30 2608 C 247.42 1.5671 -2.70945 0
M  V30 2609 C 247.895 2.0839 -4.07845 0
M  V30 2610 N 249.386 2.1569 -4.09917 0
M  V30 2611 C 250.121 2.56804 -5.12679 0
M  V30 2612 N 249.617 2.97203 -6.25813 0
M  V30 2613 N 251.41 2.56756 -5.00033 0
M  V30 2614 H 243.561 -0.0353158 -2.12371 0
M  V30 2615 H 245.824 0.0467858 -0.946845 0
M  V30 2616 H 245.53 0.761926 -3.43348 0
M  V30 2617 H 245.404 2.42529 -2.88894 0
M  V30 2618 H 247.791 2.2467 -1.9133 0
M  V30 2619 H 247.872 0.57662 -2.49216 0
M  V30 2620 H 247.516 1.41031 -4.87927 0
M  V30 2621 H 247.446 3.08271 -4.26938 0
M  V30 2622 H 249.937 1.87237 -3.28254 0
M  V30 2623 H 250.25 3.27328 -7.00055 0
M  V30 2624 H 248.595 2.95004 -6.29283 0
M  V30 2625 H 251.786 2.24572 -4.10713 0
M  V30 2626 H 251.959 2.88475 -5.80247 0
M  V30 2627 N 245.365 1.30045 0.890287 0
M  V30 2628 C 246.614 1.17929 1.63633 0
M  V30 2629 C 246.927 -0.266204 1.9378 0
M  V30 2630 O 248.133 -0.508804 2.6669 0
M  V30 2631 C 246.589 2.06317 2.94892 0
M  V30 2632 C 246.197 3.55745 2.72305 0
M  V30 2633 C 247.941 2.0295 3.72843 0
M  V30 2634 C 245.848 4.36205 3.99348 0
M  V30 2635 H 244.778 0.437782 0.613892 0
M  V30 2636 H 247.429 1.54754 0.986075 0
M  V30 2637 H 245.811 1.6237 3.61182 0
M  V30 2638 H 246.985 4.07805 2.1455 0
M  V30 2639 H 245.3 3.6088 2.07737 0
M  V30 2640 H 247.897 2.60319 4.67053 0
M  V30 2641 H 248.24 1.0117 4.0382 0
M  V30 2642 H 248.773 2.4499 3.13408 0
M  V30 2643 H 245.512 5.38659 3.73533 0
M  V30 2644 H 245.032 3.8891 4.56628 0
M  V30 2645 H 246.711 4.47362 4.67415 0
M  V30 2646 N 246.843 -1.10192 1.12674 0
M  V30 2647 C 247.79 -2.16606 0.796906 0
M  V30 2648 C 248.76 -1.64394 -0.237476 0
M  V30 2649 O 249.945 -1.90474 -0.111484 0
M  V30 2650 C 247.085 -3.44116 0.26043 0
M  V30 2651 C 246.198 -4.10268 1.35293 0
M  V30 2652 C 245.333 -5.25507 0.775621 0
M  V30 2653 C 244.372 -5.83567 1.84706 0
M  V30 2654 N 243.509 -6.90179 1.28829 0
M  V30 2655 H 248.349 -2.44163 1.70846 0
M  V30 2656 H 245.886 -1.19846 0.85295 0
M  V30 2657 H 247.844 -4.17143 -0.0686814 0
M  V30 2658 H 246.474 -3.16901 -0.614274 0
M  V30 2659 H 245.526 -3.35184 1.79877 0
M  V30 2660 H 246.838 -4.4946 2.16303 0
M  V30 2661 H 245.992 -6.05398 0.397327 0
M  V30 2662 H 244.731 -4.87656 -0.0656581 0
M  V30 2663 H 243.736 -5.02344 2.23452 0
M  V30 2664 H 244.961 -6.23482 2.69161 0
M  V30 2665 H 242.907 -6.54322 0.468881 0
M  V30 2666 H 242.824 -7.28097 2.03497 0
M  V30 2667 H 244.092 -7.73844 0.937311 0
M  V30 2668 N 248.321 -0.919034 -1.28029 0
M  V30 2669 C 249.737 -0.617972 -1.4715 0
M  V30 2670 C 249.937 0.835242 -1.83374 0
M  V30 2671 O 248.993 1.61388 -1.94191 0
M  V30 2672 C 250.306 -1.56041 -2.57044 0
M  V30 2673 C 251.854 -1.56769 -2.7091 0
M  V30 2674 C 252.329 -2.49688 -3.83953 0
M  V30 2675 N 253.82 -2.47845 -3.91314 0
M  V30 2676 C 254.555 -3.16437 -4.78179 0
M  V30 2677 N 254.051 -3.94376 -5.69596 0
M  V30 2678 N 255.844 -3.05498 -4.71834 0
M  V30 2679 H 247.995 -1.85866 -1.02798 0
M  V30 2680 H 250.258 -0.797506 -0.512531 0
M  V30 2681 H 249.964 -2.59671 -2.372 0
M  V30 2682 H 249.838 -1.29551 -3.54255 0
M  V30 2683 H 252.225 -0.538745 -2.90141 0
M  V30 2684 H 252.306 -1.87305 -1.74214 0
M  V30 2685 H 251.95 -3.52688 -3.65477 0
M  V30 2686 H 251.88 -2.16453 -4.80058 0
M  V30 2687 H 254.371 -1.91234 -3.25941 0
M  V30 2688 H 254.684 -4.43721 -6.32718 0
M  V30 2689 H 253.029 -3.98481 -5.69419 0
M  V30 2690 H 256.22 -2.44108 -3.99411 0
M  V30 2691 H 256.393 -3.59225 -5.39316 0
M  V30 2692 N 249.799 1.42003 -0.683588 0
M  V30 2693 C 250.729 2.33487 -0.024866 0
M  V30 2694 C 251.71 1.51163 0.779975 0
M  V30 2695 O 252.895 1.79739 0.735362 0
M  V30 2696 C 250.025 3.3487 0.920836 0
M  V30 2697 C 248.979 4.27414 0.223958 0
M  V30 2698 C 248.305 5.19074 1.2832 0
M  V30 2699 C 249.605 5.14445 -0.90242 0
M  V30 2700 H 251.299 2.88819 -0.788921 0
M  V30 2701 H 248.845 1.38873 -0.38083 0
M  V30 2702 H 250.798 3.97787 1.39081 0
M  V30 2703 H 249.522 2.77861 1.71642 0
M  V30 2704 H 248.181 3.65904 -0.225864 0
M  V30 2705 H 247.829 4.58387 2.071 0
M  V30 2706 H 247.529 5.81822 0.821995 0
M  V30 2707 H 249.053 5.84867 1.75392 0
M  V30 2708 H 250.467 5.70998 -0.513272 0
M  V30 2709 H 248.864 5.86072 -1.28997 0
M  V30 2710 H 249.934 4.52322 -1.74737 0
M  V30 2711 N 251.277 0.427512 1.51691 0
M  V30 2712 C 252.554 -0.201684 1.94557 0
M  V30 2713 C 252.934 -1.60981 1.36559 0
M  V30 2714 O 252.282 -2.21814 0.548702 0
M  V30 2715 C 252.492 -0.189394 3.48486 0
M  V30 2716 C 253.84 -0.39978 4.22714 0
M  V30 2717 O 254.864 -0.267945 3.55191 0
M  V30 2718 O 253.723 -0.661249 5.42485 0
M  V30 2719 H 250.817 -0.135261 0.815864 0
M  V30 2720 H 253.363 0.484782 1.62628 0
M  V30 2721 H 252.135 0.795431 3.8313 0
M  V30 2722 H 251.758 -0.919187 3.86829 0
M  V30 2723 N 252.755 -1.56801 0.158532 0
M  V30 2724 C 253.665 -2.20916 -0.789518 0
M  V30 2725 C 254.681 -1.1969 -1.26294 0
M  V30 2726 O 255.857 -1.52308 -1.31773 0
M  V30 2727 C 252.922 -2.82727 -2.00665 0
M  V30 2728 C 251.983 -3.99114 -1.58134 0
M  V30 2729 C 251.216 -4.57968 -2.74045 0
M  V30 2730 O 251.439 -4.15704 -3.90572 0
M  V30 2731 O 250.373 -5.48047 -2.48855 0
M  V30 2732 H 254.199 -3.02464 -0.273681 0
M  V30 2733 H 251.784 -1.4924 -0.0690548 0
M  V30 2734 H 253.666 -3.21968 -2.71872 0
M  V30 2735 H 252.341 -2.04184 -2.51179 0
M  V30 2736 H 251.248 -3.64567 -0.839155 0
M  V30 2737 H 252.581 -4.79212 -1.12325 0
M  V30 2738 N 254.233 0.115231 -1.57178 0
M  V30 2739 C 255.481 0.820727 -1.84685 0
M  V30 2740 C 255.802 1.80237 -0.744279 0
M  V30 2741 O 255.072 1.94529 0.231375 0
M  V30 2742 H 253.652 0.306084 -0.681411 0
M  V30 2743 H 256.314 0.101656 -1.94635 0
M  V30 2744 H 255.41 1.36366 -2.80733 0
M  V30 2745 N 255.711 1.52812 0.385517 0
M  V30 2746 C 256.959 1.67694 1.12797 0
M  V30 2747 C 257.28 0.421115 1.90399 0
M  V30 2748 O 256.55 -0.564551 1.87589 0
M  V30 2749 H 255.13 0.618155 0.419396 0
M  V30 2750 H 257.792 1.89938 0.436972 0
M  V30 2751 H 256.888 2.52896 1.82894 0
M  V30 2752 N 257.189 -0.644168 1.43834 0
M  V30 2753 C 258.436 -1.40395 1.4593 0
M  V30 2754 C 258.764 -1.94305 0.0869658 0
M  V30 2755 O 258.019 -1.73288 -0.909378 0
M  V30 2756 C 258.318 -2.59615 2.45631 0
M  V30 2757 C 257.984 -2.2407 3.91284 0
M  V30 2758 C 256.646 -2.14089 4.30952 0
M  V30 2759 C 258.998 -1.95775 4.83034 0
M  V30 2760 C 256.326 -1.73981 5.6031 0
M  V30 2761 C 258.678 -1.57163 6.12766 0
M  V30 2762 C 257.342 -1.45713 6.51402 0
M  V30 2763 H 256.612 -0.513741 0.533995 0
M  V30 2764 H 259.259 -0.731724 1.76969 0
M  V30 2765 H 257.564 -3.32011 2.08028 0
M  V30 2766 H 259.261 -3.17834 2.44504 0
M  V30 2767 H 255.851 -2.32753 3.59895 0
M  V30 2768 H 260.035 -2.02403 4.53152 0
M  V30 2769 H 255.291 -1.63709 5.89075 0
M  V30 2770 H 259.465 -1.34303 6.83327 0
M  V30 2771 H 257.092 -1.14406 7.51542 0
M  V30 2772 N 258.668 -1.30515 -0.883378 0
M  V30 2773 C 259.915 -1.1943 -1.63532 0
M  V30 2774 C 260.243 0.250627 -1.92878 0
M  V30 2775 O 259.498 1.19556 -1.54935 0
M  V30 2776 C 259.797 -1.96994 -2.98209 0
M  V30 2777 C 259.463 -3.466 -2.88408 0
M  V30 2778 C 258.125 -3.87397 -2.85442 0
M  V30 2779 C 260.477 -4.41863 -2.76418 0
M  V30 2780 C 257.805 -5.21745 -2.68327 0
M  V30 2781 C 260.157 -5.7632 -2.60841 0
M  V30 2782 C 258.821 -6.16354 -2.56251 0
M  V30 2783 H 258.091 -0.437025 -0.598406 0
M  V30 2784 H 260.738 -1.61635 -1.02696 0
M  V30 2785 H 259.043 -1.47429 -3.63004 0
M  V30 2786 H 260.74 -1.85808 -3.55354 0
M  V30 2787 H 257.33 -3.14182 -2.91527 0
M  V30 2788 H 261.514 -4.11285 -2.77775 0
M  V30 2789 H 256.77 -5.51853 -2.63189 0
M  V30 2790 H 260.944 -6.49772 -2.50538 0
M  V30 2791 H 258.571 -7.20401 -2.42748 0
M  V30 2792 N 260.146 1.09593 -1.13257 0
M  V30 2793 C 261.076 2.18214 -0.830946 0
M  V30 2794 C 262.057 1.68812 0.208966 0
M  V30 2795 O 263.242 1.9408 0.0682666 0
M  V30 2796 C 260.372 3.46051 -0.294296 0
M  V30 2797 C 259.326 4.08778 -1.26826 0
M  V30 2798 C 258.652 5.31419 -0.591449 0
M  V30 2799 C 259.952 4.51476 -2.62615 0
M  V30 2800 H 261.646 2.43703 -1.73923 0
M  V30 2801 H 259.192 1.17128 -0.837675 0
M  V30 2802 H 261.145 4.2134 -0.0709606 0
M  V30 2803 H 259.869 3.20079 0.649366 0
M  V30 2804 H 258.528 3.35505 -1.47756 0
M  V30 2805 H 258.176 5.01727 0.357633 0
M  V30 2806 H 257.876 5.74341 -1.24123 0
M  V30 2807 H 259.4 6.09433 -0.377355 0
M  V30 2808 H 260.814 5.17999 -2.45663 0
M  V30 2809 H 259.211 5.05277 -3.23752 0
M  V30 2810 H 260.281 3.63962 -3.20406 0
M  V30 2811 N 261.624 0.925811 1.2754 0
M  V30 2812 C 262.852 0.581509 1.9856 0
M  V30 2813 C 263.267 -0.840041 1.69082 0
M  V30 2814 O 262.624 -1.55805 0.950312 0
M  V30 2815 C 262.675 0.795589 3.52637 0
M  V30 2816 O 262.396 2.16121 3.81082 0
M  V30 2817 C 263.897 0.459744 4.4091 0
M  V30 2818 H 261.117 0.220538 0.633722 0
M  V30 2819 H 263.661 1.24232 1.6244 0
M  V30 2820 H 261.816 0.18161 3.86974 0
M  V30 2821 H 262.23 2.2098 4.75676 0
M  V30 2822 H 263.704 0.660244 5.48037 0
M  V30 2823 H 264.181 -0.604625 4.35018 0
M  V30 2824 H 264.787 1.05178 4.12089 0
M  V30 2825 N 263.102 -1.41638 0.69111 0
M  V30 2826 C 264.518 -1.55435 0.362224 0
M  V30 2827 C 264.718 -1.66754 -1.13117 0
M  V30 2828 O 263.774 -1.64348 -1.91692 0
M  V30 2829 C 265.087 -2.79588 1.10684 0
M  V30 2830 C 266.635 -2.9338 1.09075 0
M  V30 2831 C 267.11 -4.20414 1.81703 0
M  V30 2832 N 268.601 -4.27362 1.7865 0
M  V30 2833 C 269.336 -5.24507 2.31689 0
M  V30 2834 N 268.832 -6.27708 2.93179 0
M  V30 2835 N 270.625 -5.16416 2.2197 0
M  V30 2836 H 262.776 -1.32536 1.65976 0
M  V30 2837 H 265.039 -0.639115 0.700168 0
M  V30 2838 H 264.745 -2.77419 2.16175 0
M  V30 2839 H 264.619 -3.70973 0.682545 0
M  V30 2840 H 267.006 -2.95067 0.0441238 0
M  V30 2841 H 267.087 -2.0318 1.55407 0
M  V30 2842 H 266.731 -4.19488 2.86343 0
M  V30 2843 H 266.661 -5.09578 1.32808 0
M  V30 2844 H 269.152 -3.53415 1.33815 0
M  V30 2845 H 269.465 -6.98217 3.31229 0
M  V30 2846 H 267.81 -6.28223 2.97255 0
M  V30 2847 H 271.001 -4.34716 1.73607 0
M  V30 2848 H 271.174 -5.91958 2.63609 0
M  V30 2849 N 264.58 -0.43555 -1.51462 0
M  V30 2850 C 265.996 -0.0877501 -1.59359 0
M  V30 2851 C 266.196 1.4027 -1.4466 0
M  V30 2852 O 265.252 2.17243 -1.28693 0
M  V30 2853 C 266.565 -0.606264 -2.94525 0
M  V30 2854 C 268.113 -0.566548 -3.0783 0
M  V30 2855 C 268.588 -1.06201 -4.45517 0
M  V30 2856 N 270.079 -1.01992 -4.51832 0
M  V30 2857 C 270.814 -1.37417 -5.5669 0
M  V30 2858 N 270.31 -1.80119 -6.68976 0
M  V30 2859 N 272.103 -1.29245 -5.47039 0
M  V30 2860 H 264.254 -1.40533 -1.59261 0
M  V30 2861 H 266.517 -0.578992 -0.750648 0
M  V30 2862 H 266.223 -1.64901 -3.10645 0
M  V30 2863 H 266.097 -0.0302097 -3.77188 0
M  V30 2864 H 268.484 0.467208 -2.91378 0
M  V30 2865 H 268.565 -1.17898 -2.2701 0
M  V30 2866 H 268.209 -2.09422 -4.62715 0
M  V30 2867 H 268.139 -0.426127 -5.24873 0
M  V30 2868 H 270.63 -0.706308 -3.71241 0
M  V30 2869 H 270.943 -2.05392 -7.45006 0
M  V30 2870 H 269.288 -1.84044 -6.70189 0
M  V30 2871 H 272.479 -0.957522 -4.58202 0
M  V30 2872 H 272.652 -1.57182 -6.28648 0
M  V30 2873 N 266.058 1.56714 -0.166846 0
M  V30 2874 C 267.474 1.58473 0.189372 0
M  V30 2875 C 267.674 1.18201 1.63189 0
M  V30 2876 O 266.73 0.891528 2.36237 0
M  V30 2877 C 268.043 3.00573 -0.0873872 0
M  V30 2878 C 269.591 3.1299 -0.0252443 0
M  V30 2879 C 270.066 4.57174 -0.274934 0
M  V30 2880 N 271.557 4.62665 -0.222553 0
M  V30 2881 C 272.292 5.72072 -0.389985 0
M  V30 2882 N 271.788 6.90054 -0.616229 0
M  V30 2883 N 273.581 5.61153 -0.326202 0
M  V30 2884 H 265.732 1.8118 -1.10849 0
M  V30 2885 H 267.995 0.839525 -0.440342 0
M  V30 2886 H 267.701 3.34497 -1.0865 0
M  V30 2887 H 267.575 3.72019 0.623037 0
M  V30 2888 H 269.962 2.78895 0.96444 0
M  V30 2889 H 270.043 2.43989 -0.768309 0
M  V30 2890 H 269.687 4.91976 -1.26181 0
M  V30 2891 H 269.617 5.24328 0.48869 0
M  V30 2892 H 272.108 3.77863 -0.0531512 0
M  V30 2893 H 272.421 7.69311 -0.733559 0
M  V30 2894 H 270.766 6.91927 -0.652791 0
M  V30 2895 H 273.957 4.67859 -0.150072 0
M  V30 2896 H 274.13 6.46364 -0.460116 0
M  V30 2897 N 267.536 -0.106894 1.57237 0
M  V30 2898 C 268.785 -0.811163 1.8467 0
M  V30 2899 C 269.098 -1.80469 0.754342 0
M  V30 2900 O 270.304 -2.55601 0.915439 0
M  V30 2901 C 268.76 -1.49337 3.27454 0
M  V30 2902 C 268.368 -0.540217 4.44731 0
M  V30 2903 C 270.112 -2.18206 3.64124 0
M  V30 2904 C 268.019 -1.22634 5.78545 0
M  V30 2905 H 266.949 -0.306679 0.688813 0
M  V30 2906 H 269.6 -0.0639887 1.83388 0
M  V30 2907 H 267.982 -2.2876 3.23241 0
M  V30 2908 H 269.156 0.221659 4.60267 0
M  V30 2909 H 267.471 0.042146 4.16379 0
M  V30 2910 H 270.068 -2.70253 4.61376 0
M  V30 2911 H 270.411 -2.96562 2.92158 0
M  V30 2912 H 270.944 -1.45658 3.70174 0
M  V30 2913 H 267.683 -0.483832 6.53712 0
M  V30 2914 H 267.203 -1.95993 5.66874 0
M  V30 2915 H 268.882 -1.75615 6.2271 0
M  V30 2916 N 269.014 -1.53014 -0.377408 0
M  V30 2917 C 270.261 -1.68623 -1.12128 0
M  V30 2918 C 270.589 -0.431997 -1.89642 0
M  V30 2919 O 269.844 0.585855 -1.86725 0
M  V30 2920 C 270.143 -2.87982 -2.11663 0
M  V30 2921 C 269.809 -4.24964 -1.50719 0
M  V30 2922 C 268.471 -4.62217 -1.33825 0
M  V30 2923 C 270.823 -5.10199 -1.06519 0
M  V30 2924 C 268.151 -5.82352 -0.712963 0
M  V30 2925 C 270.503 -6.30969 -0.453955 0
M  V30 2926 C 269.167 -6.66944 -0.272411 0
M  V30 2927 H 268.437 -0.617034 -0.410305 0
M  V30 2928 H 271.084 -1.8718 -0.404484 0
M  V30 2929 H 269.389 -2.63889 -2.89603 0
M  V30 2930 H 271.086 -2.97253 -2.6915 0
M  V30 2931 H 267.676 -3.95626 -1.64858 0
M  V30 2932 H 271.86 -4.81978 -1.18368 0
M  V30 2933 H 267.116 -6.08824 -0.560611 0
M  V30 2934 H 271.29 -6.96324 -0.103217 0
M  V30 2935 H 268.917 -7.59898 0.214181 0
M  V30 2936 N 270.492 0.636531 -1.44174 0
M  V30 2937 C 271.717 1.42847 -1.50364 0
M  V30 2938 C 272.142 1.87665 -0.127867 0
M  V30 2939 O 271.5 1.58408 0.88185 0
M  V30 2940 C 271.548 2.62854 -2.4686 0
M  V30 2941 O 270.652 3.62501 -1.9664 0
M  V30 2942 H 269.993 0.427642 -0.507955 0
M  V30 2943 H 272.523 0.777422 -1.89255 0
M  V30 2944 H 272.533 3.10465 -2.64718 0
M  V30 2945 H 271.208 2.29578 -3.46795 0
M  V30 2946 H 269.785 3.21735 -1.88523 0
M  V30 2947 N 271.97 1.30982 0.876444 0
M  V30 2948 C 273.198 1.23242 1.6619 0
M  V30 2949 C 273.613 -0.203345 1.87702 0
M  V30 2950 O 272.97 -1.13317 1.43057 0
M  V30 2951 C 273.021 1.96623 3.03351 0
M  V30 2952 O 272.742 3.34594 2.82804 0
M  V30 2953 C 274.243 1.95644 3.97792 0
M  V30 2954 H 271.463 0.426126 0.518322 0
M  V30 2955 H 274.007 1.7275 1.09442 0
M  V30 2956 H 272.162 1.50892 3.56806 0
M  V30 2957 H 272.576 3.71873 3.69879 0
M  V30 2958 H 274.05 2.51511 4.91372 0
M  V30 2959 H 274.527 0.937395 4.2908 0
M  V30 2960 H 275.133 2.41225 3.50272 0
M  V30 2961 N 273.449 -1.08991 1.13837 0
M  V30 2962 C 274.379 -2.17771 0.842507 0
M  V30 2963 C 275.36 -1.6892 -0.20001 0
M  V30 2964 O 276.545 -1.94113 -0.0579731 0
M  V30 2965 C 273.675 -3.4589 0.312644 0
M  V30 2966 C 272.629 -4.08099 1.28992 0
M  V30 2967 C 271.955 -5.31098 0.619623 0
M  V30 2968 C 273.255 -4.50077 2.65005 0
M  V30 2969 H 274.949 -2.42777 1.75213 0
M  V30 2970 H 272.495 -1.16682 0.843875 0
M  V30 2971 H 274.448 -4.21297 0.0933043 0
M  V30 2972 H 273.172 -3.20419 -0.632382 0
M  V30 2973 H 271.831 -3.34717 1.49533 0
M  V30 2974 H 271.479 -5.0191 -0.33102 0
M  V30 2975 H 271.179 -5.73674 1.27167 0
M  V30 2976 H 272.703 -6.09224 0.409669 0
M  V30 2977 H 274.117 -5.16688 2.48407 0
M  V30 2978 H 272.514 -5.03553 3.26427 0
M  V30 2979 H 273.584 -3.62257 3.22332 0
M  V30 2980 N 274.927 -0.932562 -1.27047 0
M  V30 2981 C 275.875 -0.42603 -2.28665 0
M  V30 2982 C 276.869 0.49219 -1.62092 0
M  V30 2983 O 278.075 0.371355 -1.76128 0
M  V30 2984 H 274.45 -0.119213 -0.742491 0
M  V30 2985 H 276.421 -1.29579 -2.68797 0
M  V30 2986 C 275.17 0.301426 -3.46391 0
M  V30 2987 H 274.493 -0.39595 -3.97834 0
M  V30 2988 H 275.933 0.6202 -4.1944 0
M  V30 2989 C 274.392 1.51616 -3.00856 0
M  V30 2990 O 274.922 2.61476 -3.04948 0
M  V30 2991 N 273.128 1.36969 -2.56296 0
M  V30 2992 H 272.675 0.475873 -2.53166 0
M  V30 2993 H 272.633 2.18368 -2.26192 0
M  V30 2994 N 276.405 1.4127 -0.698611 0
M  V30 2995 C 277.315 2.34573 -0.0357891 0
M  V30 2996 C 278.331 1.56393 0.762701 0
M  V30 2997 O 279.507 1.8886 0.699564 0
M  V30 2998 C 276.572 3.35159 0.887089 0
M  V30 2999 C 275.633 4.29225 0.0804634 0
M  V30 3000 C 274.866 5.25006 0.959387 0
M  V30 3001 O 275.089 5.26314 2.19886 0
M  V30 3002 O 274.023 6.00519 0.407439 0
M  V30 3003 H 277.849 2.92838 -0.804957 0
M  V30 3004 H 275.434 1.42175 -0.458966 0
M  V30 3005 H 277.316 3.9689 1.41621 0
M  V30 3006 H 275.991 2.79333 1.6357 0
M  V30 3007 H 274.898 3.70833 -0.493328 0
M  V30 3008 H 276.231 4.88157 -0.629547 0
M  V30 3009 N 277.883 0.443576 1.51229 0
M  V30 3010 C 279.13 -0.120796 2.02139 0
M  V30 3011 C 279.458 -1.42166 1.32736 0
M  V30 3012 O 278.713 -1.90849 0.43301 0
M  V30 3013 C 279.012 -0.380579 3.55368 0
M  V30 3014 C 278.678 0.83523 4.43097 0
M  V30 3015 C 277.34 1.16864 4.66794 0
M  V30 3016 C 279.692 1.64601 4.94526 0
M  V30 3017 C 277.02 2.31339 5.39165 0
M  V30 3018 C 279.372 2.78181 5.68153 0
M  V30 3019 C 278.036 3.11969 5.90112 0
M  V30 3020 H 277.306 -0.0442023 0.73968 0
M  V30 3021 H 279.953 0.592046 1.82118 0
M  V30 3022 H 278.258 -1.17538 3.73754 0
M  V30 3023 H 279.955 -0.830777 3.923 0
M  V30 3024 H 276.545 0.565437 4.24854 0
M  V30 3025 H 280.729 1.40163 4.76097 0
M  V30 3026 H 275.985 2.57823 5.5438 0
M  V30 3027 H 280.159 3.41371 6.06992 0
M  V30 3028 H 277.786 4.00784 6.45969 0
M  V30 3029 N 279.361 -1.56624 0.175154 0
M  V30 3030 C 280.607 -1.9729 -0.469506 0
M  V30 3031 C 280.94 -1.06128 -1.62636 0
M  V30 3032 O 280.215 -0.109183 -1.94193 0
M  V30 3033 C 280.498 -3.47375 -0.948804 0
M  V30 3034 C 280.351 -4.49317 0.208491 0
M  V30 3035 C 281.67 -4.00652 -1.82116 0
M  V30 3036 H 278.789 -0.717317 -0.16919 0
M  V30 3037 H 281.431 -1.88184 0.262062 0
M  V30 3038 H 279.581 -3.55267 -1.57219 0
M  V30 3039 H 281.253 -4.53482 0.845682 0
M  V30 3040 H 279.496 -4.25121 0.863395 0
M  V30 3041 H 280.167 -5.51741 -0.169059 0
M  V30 3042 H 282.643 -3.95416 -1.2956 0
M  V30 3043 H 281.519 -5.06075 -2.12554 0
M  V30 3044 H 281.78 -3.44699 -2.7683 0
M  V30 3045 N 280.839 0.0985539 -1.57292 0
M  V30 3046 C 282.064 0.820196 -1.90493 0
M  V30 3047 C 282.489 1.71658 -0.769094 0
M  V30 3048 O 281.847 1.79133 0.279495 0
M  V30 3049 C 281.895 1.61242 -3.22542 0
M  V30 3050 O 280.999 2.72108 -3.09888 0
M  V30 3051 H 280.34 0.225547 -0.62452 0
M  V30 3052 H 282.87 0.0748159 -2.04463 0
M  V30 3053 H 282.88 1.99737 -3.55766 0
M  V30 3054 H 281.555 0.954535 -4.04798 0
M  V30 3055 H 280.132 2.36667 -2.88172 0
M  V30 3056 N 282.317 1.53212 0.369288 0
M  V30 3057 C 283.267 1.75769 1.45222 0
M  V30 3058 C 284.251 0.612136 1.48801 0
M  V30 3059 O 285.443 0.870674 1.54105 0
M  V30 3060 C 282.572 1.94769 2.82701 0
M  V30 3061 C 281.658 3.15315 2.83615 0
M  V30 3062 N 282.049 4.37295 2.54178 0
M  V30 3063 C 280.347 3.15962 3.14776 0
M  V30 3064 C 281.048 5.19015 2.62675 0
M  V30 3065 N 280.024 4.55142 2.97232 0
M  V30 3066 H 283.826 2.67691 1.2132 0
M  V30 3067 H 281.34 1.51787 0.577438 0
M  V30 3068 H 283.337 2.09056 3.60696 0
M  V30 3069 H 281.997 1.04073 3.07569 0
M  V30 3070 H 283.008 4.65091 2.27839 0
M  V30 3071 H 279.685 2.35144 3.44983 0
M  V30 3072 H 281.075 6.26305 2.43294 0
M  V30 3073 N 283.795 -0.628877 1.44509 0
M  V30 3074 C 285.025 -1.41349 1.50678 0
M  V30 3075 C 285.433 -1.88745 0.131075 0
M  V30 3076 O 284.776 -1.61592 -0.87371 0
M  V30 3077 C 284.838 -2.66608 2.41165 0
M  V30 3078 C 284.502 -2.40993 3.88293 0
M  V30 3079 C 285.499 -2.0268 4.78766 0
M  V30 3080 C 283.184 -2.54563 4.33016 0
M  V30 3081 C 285.178 -1.78269 6.11963 0
M  V30 3082 C 282.865 -2.29766 5.6626 0
M  V30 3083 C 283.863 -1.91678 6.55552 0
M  V30 3084 O 283.551 -1.67158 7.86329 0
M  V30 3085 H 283.283 -0.439851 0.51333 0
M  V30 3086 H 285.837 -0.776084 1.90174 0
M  V30 3087 H 284.067 -3.32994 1.96601 0
M  V30 3088 H 285.756 -3.28615 2.38259 0
M  V30 3089 H 286.522 -1.91751 4.45485 0
M  V30 3090 H 282.401 -2.83179 3.63773 0
M  V30 3091 H 285.945 -1.48465 6.81619 0
M  V30 3092 H 281.842 -2.40306 5.99102 0
M  V30 3093 H 282.61 -1.81386 7.98149 0
M  V30 3094 N 285.273 -1.31445 -0.869486 0
M  V30 3095 C 286.501 -1.24122 -1.65534 0
M  V30 3096 C 286.916 0.193387 -1.87807 0
M  V30 3097 O 286.273 1.12557 -1.43656 0
M  V30 3098 C 286.324 -1.98229 -3.02304 0
M  V30 3099 O 286.045 -3.3609 -2.81026 0
M  V30 3100 C 287.546 -1.97751 -3.96749 0
M  V30 3101 H 284.766 -0.428868 -0.516055 0
M  V30 3102 H 287.31 -1.73328 -1.08525 0
M  V30 3103 H 285.465 -1.52782 -3.56001 0
M  V30 3104 H 285.879 -3.7383 -3.67902 0
M  V30 3105 H 287.353 -2.54114 -4.90031 0
M  V30 3106 H 287.83 -0.960137 -4.28577 0
M  V30 3107 H 288.436 -2.43079 -3.48988 0
M  V30 3108 N 286.751 1.08385 -1.14413 0
M  V30 3109 C 287.698 2.15311 -0.831265 0
M  V30 3110 C 288.668 1.64751 0.211292 0
M  V30 3111 O 289.853 1.90627 0.0811674 0
M  V30 3112 C 286.993 3.43658 -0.315143 0
M  V30 3113 C 286.106 4.08064 -1.41802 0
M  V30 3114 C 285.241 5.24207 -0.859126 0
M  V30 3115 C 284.28 5.80554 -1.93967 0
M  V30 3116 N 283.417 6.88042 -1.39793 0
M  V30 3117 H 288.257 2.41415 -1.74708 0
M  V30 3118 H 285.794 1.18474 -0.871909 0
M  V30 3119 H 287.752 4.172 0.00230884 0
M  V30 3120 H 286.382 3.17839 0.56378 0
M  V30 3121 H 285.434 3.3228 -1.85187 0
M  V30 3122 H 286.746 4.45962 -2.23427 0
M  V30 3123 H 285.9 6.04689 -0.49359 0
M  V30 3124 H 284.639 4.87699 -0.011932 0
M  V30 3125 H 283.644 4.98725 -2.31415 0
M  V30 3126 H 284.869 6.19121 -2.79046 0
M  V30 3127 H 282.815 6.53493 -0.572919 0
M  V30 3128 H 282.732 7.24767 -2.15054 0
M  V30 3129 H 284 7.72255 -1.0603 0
M  V30 3130 N 288.23 0.939286 1.26551 0
M  V30 3131 C 289.458 0.602536 1.97932 0
M  V30 3132 C 289.873 -0.82206 1.69964 0
M  V30 3133 O 289.23 -1.54789 0.966784 0
M  V30 3134 C 289.281 0.832946 3.51773 0
M  V30 3135 O 289.002 2.20151 3.78768 0
M  V30 3136 C 290.503 0.506483 4.40397 0
M  V30 3137 H 287.723 0.227248 0.631347 0
M  V30 3138 H 290.267 1.25948 1.61113 0
M  V30 3139 H 288.422 0.222644 3.8676 0
M  V30 3140 H 288.836 2.26013 4.73306 0
M  V30 3141 H 290.31 0.718333 5.47306 0
M  V30 3142 H 290.787 -0.558451 4.35635 0
M  V30 3143 H 291.393 1.09543 4.10951 0
M  V30 3144 N 289.708 -1.40897 0.706093 0
M  V30 3145 C 290.933 -2.05895 0.249435 0
M  V30 3146 C 291.358 -1.52823 -1.09666 0
M  V30 3147 O 290.716 -0.659589 -1.68876 0
M  V30 3148 C 290.764 -3.59872 0.22904 0
M  V30 3149 O 289.868 -4.04708 -0.792784 0
M  V30 3150 H 289.209 -0.653206 0.119241 0
M  V30 3151 H 291.739 -1.80471 0.96391 0
M  V30 3152 H 291.749 -4.07951 0.0634791 0
M  V30 3153 H 290.424 -3.97866 1.21141 0
M  V30 3154 H 289.001 -3.68111 -0.59572 0
M  V30 3155 N 291.186 -0.45159 -1.50991 0
M  V30 3156 C 292.463 0.170707 -1.94854 0
M  V30 3157 C 292.843 1.58788 -1.39103 0
M  V30 3158 O 292.191 2.20913 -0.583921 0
M  V30 3159 C 292.401 0.133929 -3.48743 0
M  V30 3160 C 293.749 0.33248 -4.23296 0
M  V30 3161 O 294.773 0.211403 -3.55572 0
M  V30 3162 O 293.632 0.57486 -5.43468 0
M  V30 3163 H 290.726 0.122264 -0.817912 0
M  V30 3164 H 293.272 -0.510594 -1.61836 0
M  V30 3165 H 292.044 -0.856283 -3.81816 0
M  V30 3166 H 291.667 0.857529 -3.88242 0
M  V30 3167 N 292.664 1.56529 -0.183458 0
M  V30 3168 C 293.912 1.96855 0.457452 0
M  V30 3169 C 294.233 1.07104 1.62953 0
M  V30 3170 O 293.503 0.139887 1.954 0
M  V30 3171 H 292.083 0.72693 0.171992 0
M  V30 3172 H 294.745 1.93056 -0.267476 0
M  V30 3173 H 293.841 3.01423 0.809368 0
M  V30 3174 N 294.142 -0.090211 1.57342 0
M  V30 3175 C 295.072 -1.10976 2.05443 0
M  V30 3176 C 296.053 -1.41482 0.944284 0
M  V30 3177 O 297.238 -1.51428 1.21586 0
M  V30 3178 C 294.368 -2.42831 2.48295 0
M  V30 3179 C 293.322 -2.26721 3.63018 0
M  V30 3180 C 292.648 -3.63796 3.91863 0
M  V30 3181 C 293.948 -1.7037 4.93732 0
M  V30 3182 H 295.642 -0.709564 2.9087 0
M  V30 3183 H 293.188 -0.339874 1.39932 0
M  V30 3184 H 295.141 -3.14431 2.80555 0
M  V30 3185 H 293.865 -2.84795 1.59873 0
M  V30 3186 H 292.524 -1.57565 3.31012 0
M  V30 3187 H 292.172 -4.03297 3.00601 0
M  V30 3188 H 291.872 -3.53861 4.69101 0
M  V30 3189 H 293.396 -4.36855 4.26603 0
M  V30 3190 H 294.81 -2.31816 5.24342 0
M  V30 3191 H 293.207 -1.71181 5.75167 0
M  V30 3192 H 294.277 -0.663542 4.80339 0
M  V30 3193 N 295.62 -1.53406 -0.361157 0
M  V30 3194 C 296.86 -1.71507 -1.11197 0
M  V30 3195 C 297.224 -0.459337 -1.86425 0
M  V30 3196 O 298.425 -0.517102 -2.63779 0
M  V30 3197 C 296.696 -2.93307 -2.0422 0
M  V30 3198 S 298.255 -3.32135 -2.86761 0
M  V30 3199 H 295.073 -0.603448 -0.375995 0
M  V30 3200 H 297.675 -1.91516 -0.392642 0
M  V30 3201 H 296.379 -3.82891 -1.47724 0
M  V30 3202 H 295.91 -2.75712 -2.80618 0
M  V30 3203 H 297.925 -2.84493 -4.06544 0
M  V30 3204 N 297.098 0.621204 -1.44841 0
M  V30 3205 C 298.344 1.3826 -1.48365 0
M  V30 3206 C 298.677 1.93831 -0.119624 0
M  V30 3207 O 297.952 1.74251 0.864111 0
M  V30 3208 C 298.235 2.54058 -2.55199 0
M  V30 3209 C 298.088 2.03772 -4.00995 0
M  V30 3210 C 299.407 3.56225 -2.58442 0
M  V30 3211 H 296.526 0.501374 -0.540179 0
M  V30 3212 H 299.168 0.7015 -1.76576 0
M  V30 3213 H 297.318 3.12162 -2.31274 0
M  V30 3214 H 298.99 1.50423 -4.36086 0
M  V30 3215 H 297.233 1.34876 -4.12299 0
M  V30 3216 H 297.904 2.87185 -4.71411 0
M  V30 3217 H 300.38 3.07939 -2.79844 0
M  V30 3218 H 299.256 4.34756 -3.3508 0
M  V30 3219 H 299.517 4.10949 -1.63013 0
M  V30 3220 N 298.576 1.31904 0.862503 0
M  V30 3221 C 299.523 1.20182 1.9704 0
M  V30 3222 C 300.493 0.0858247 1.65878 0
M  V30 3223 O 301.678 0.26 1.8902 0
M  V30 3224 C 298.818 0.922797 3.32533 0
M  V30 3225 C 297.931 2.12284 3.76244 0
M  V30 3226 C 297.066 1.77996 5.00491 0
M  V30 3227 C 296.105 2.94366 5.36671 0
M  V30 3228 N 295.242 2.60223 6.52095 0
M  V30 3229 H 300.082 2.14951 2.06398 0
M  V30 3230 H 297.619 1.06917 1.01031 0
M  V30 3231 H 299.577 0.741548 4.10557 0
M  V30 3232 H 298.207 0.0119227 3.22798 0
M  V30 3233 H 297.259 2.41461 2.9394 0
M  V30 3234 H 298.571 2.99357 3.98982 0
M  V30 3235 H 297.725 1.56377 5.862 0
M  V30 3236 H 296.464 0.881252 4.79672 0
M  V30 3237 H 295.469 3.16625 4.49476 0
M  V30 3238 H 296.694 3.84957 5.59451 0
M  V30 3239 H 294.64 1.72884 6.32809 0
M  V30 3240 H 294.557 3.40827 6.74814 0
M  V30 3241 H 295.825 2.42016 7.40978 0
M  V30 3242 N 300.054 -1.07777 1.14986 0
M  V30 3243 C 300.984 -2.16865 0.865557 0
M  V30 3244 C 301.965 -1.69123 -0.182083 0
M  V30 3245 O 303.15 -1.94164 -0.0373815 0
M  V30 3246 C 300.28 -3.45539 0.349313 0
M  V30 3247 C 299.234 -4.06708 1.33313 0
M  V30 3248 C 298.56 -5.30411 0.675918 0
M  V30 3249 C 299.86 -4.47241 2.69764 0
M  V30 3250 H 301.554 -2.40905 1.77778 0
M  V30 3251 H 299.1 -1.15781 0.856203 0
M  V30 3252 H 301.053 -4.21174 0.137983 0
M  V30 3253 H 299.777 -3.21072 -0.598362 0
M  V30 3254 H 298.436 -3.33112 1.53075 0
M  V30 3255 H 298.084 -5.02232 -0.277767 0
M  V30 3256 H 297.784 -5.72293 1.33244 0
M  V30 3257 H 299.308 -6.08755 0.474262 0
M  V30 3258 H 300.722 -5.14025 2.53873 0
M  V30 3259 H 299.119 -5.00062 3.3175 0
M  V30 3260 H 300.189 -3.58818 3.26156 0
M  V30 3261 N 301.532 -0.945985 -1.26051 0
M  V30 3262 C 302.78 -0.594941 -1.93145 0
M  V30 3263 C 303.101 0.86953 -1.7454 0
M  V30 3264 O 302.371 1.61838 -1.10387 0
M  V30 3265 H 300.951 -0.217044 -0.714773 0
M  V30 3266 H 303.613 -1.20235 -1.53393 0
M  V30 3267 H 302.709 -0.816835 -3.01221 0
M  V30 3268 N 303.011 1.40521 -0.713556 0
M  V30 3269 C 303.958 2.30723 -0.059684 0
M  V30 3270 C 304.928 1.48079 0.752448 0
M  V30 3271 O 306.113 1.76823 0.71681 0
M  V30 3272 C 303.253 3.34274 0.857594 0
M  V30 3273 C 302.366 4.31986 0.0351536 0
M  V30 3274 C 301.501 5.22605 0.951724 0
M  V30 3275 C 300.54 6.11976 0.123253 0
M  V30 3276 N 299.677 6.9502 0.99459 0
M  V30 3277 H 304.517 2.86074 -0.834596 0
M  V30 3278 H 302.054 1.40879 -0.42326 0
M  V30 3279 H 304.012 3.92879 1.40364 0
M  V30 3280 H 302.642 2.8043 1.59871 0
M  V30 3281 H 301.694 3.7518 -0.628052 0
M  V30 3282 H 303.006 4.95101 -0.606347 0
M  V30 3283 H 302.16 5.86131 1.56638 0
M  V30 3284 H 300.899 4.59759 1.62705 0
M  V30 3285 H 299.904 5.47482 -0.50435 0
M  V30 3286 H 301.129 6.76881 -0.548539 0
M  V30 3287 H 299.075 6.34764 1.6556 0
M  V30 3288 H 298.992 7.54892 0.40908 0
M  V30 3289 H 300.26 7.62997 1.59549 0
M  V30 3290 N 304.489 0.459591 1.5075 0
M  V30 3291 C 305.9 0.00171547 1.867 0
M  V30 3292 C 306.251 -1.39934 1.37525 0
M  V30 3293 O 305.376 -2.03523 0.735349 0
M  V30 3294 C 305.971 -0.00366298 3.388 0
M  V30 3295 C 304.53 -0.406026 3.74204 0
M  V30 3296 C 303.677 0.38673 2.7459 0
M  V30 3297 H 306.628 0.674413 1.43657 0
M  V30 3298 H 306.649 -0.808371 3.71814 0
M  V30 3299 H 306.161 1.01617 3.74561 0
M  V30 3300 H 304.262 -1.43063 3.4404 0
M  V30 3301 H 304.375 -0.115362 4.78961 0
M  V30 3302 H 302.739 -0.158019 2.54209 0
M  V30 3303 H 303.522 1.40585 3.13194 0
M  V30 3304 N 305.967 -1.56429 0.191757 0
M  V30 3305 C 307.207 -1.99383 -0.450099 0
M  V30 3306 C 307.571 -1.07581 -1.59029 0
M  V30 3307 O 308.772 -1.39758 -2.29611 0
M  V30 3308 C 307.043 -3.45841 -0.901611 0
M  V30 3309 S 308.602 -4.10822 -1.54177 0
M  V30 3310 H 305.42 -0.696253 -0.144057 0
M  V30 3311 H 308.022 -1.93276 0.294036 0
M  V30 3312 H 306.726 -4.10354 -0.0616596 0
M  V30 3313 H 306.257 -3.55757 -1.67929 0
M  V30 3314 H 308.272 -4.07553 -2.83046 0
M  V30 3315 N 307.445 0.0818655 -1.57387 0
M  V30 3316 C 308.375 1.09885 -2.06028 0
M  V30 3317 C 309.356 1.4098 -0.951774 0
M  V30 3318 O 310.541 1.50781 -1.22387 0
M  V30 3319 C 307.671 2.4151 -2.4958 0
M  V30 3320 C 306.625 2.24792 -3.64215 0
M  V30 3321 C 305.951 3.61712 -3.93787 0
M  V30 3322 C 307.251 1.67749 -4.94629 0
M  V30 3323 H 308.945 0.694128 -2.91243 0
M  V30 3324 H 306.491 0.332448 -1.4011 0
M  V30 3325 H 308.444 3.12939 -2.82219 0
M  V30 3326 H 307.168 2.83943 -1.61381 0
M  V30 3327 H 305.827 1.55807 -3.31843 0
M  V30 3328 H 305.475 4.01697 -3.02735 0
M  V30 3329 H 305.175 3.51368 -4.70971 0
M  V30 3330 H 306.699 4.34587 -4.28913 0
M  V30 3331 H 308.113 2.29032 -5.25564 0
M  V30 3332 H 306.51 1.68128 -5.76067 0
M  V30 3333 H 307.58 0.638059 -4.80684 0
M  V30 3334 N 308.923 1.53595 0.353017 0
M  V30 3335 C 309.87 1.80919 1.43308 0
M  V30 3336 C 310.84 0.654288 1.5267 0
M  V30 3337 O 312.025 0.897759 1.6836 0
M  V30 3338 C 309.165 2.01605 2.80089 0
M  V30 3339 C 308.278 3.29321 2.79593 0
M  V30 3340 C 307.413 3.40125 4.0803 0
M  V30 3341 C 306.452 4.61826 4.01725 0
M  V30 3342 N 305.589 4.69716 5.21834 0
M  V30 3343 H 310.429 2.73074 1.19308 0
M  V30 3344 H 307.966 1.35263 0.578131 0
M  V30 3345 H 309.924 2.11586 3.59565 0
M  V30 3346 H 308.554 1.12772 3.0246 0
M  V30 3347 H 307.606 3.28229 1.92276 0
M  V30 3348 H 308.918 4.18884 2.70809 0
M  V30 3349 H 308.072 3.49488 4.95927 0
M  V30 3350 H 306.811 2.48601 4.19582 0
M  V30 3351 H 305.816 4.52552 3.12213 0
M  V30 3352 H 307.041 5.54705 3.91764 0
M  V30 3353 H 304.987 3.81097 5.33948 0
M  V30 3354 H 304.904 5.53202 5.1527 0
M  V30 3355 H 306.172 4.83376 6.11529 0
M  V30 3356 N 310.401 -0.613514 1.45168 0
M  V30 3357 C 311.65 -1.36874 1.4815 0
M  V30 3358 C 311.963 -1.952 0.124982 0
M  V30 3359 O 313.169 -2.71481 0.0324176 0
M  V30 3360 C 311.625 -2.47905 2.60904 0
M  V30 3361 C 311.233 -1.96016 4.02842 0
M  V30 3362 C 312.977 -3.24965 2.73126 0
M  V30 3363 C 310.884 -3.04494 5.06988 0
M  V30 3364 H 309.814 -0.514428 0.551253 0
M  V30 3365 H 312.465 -0.658182 1.7129 0
M  V30 3366 H 310.847 -3.21618 2.31037 0
M  V30 3367 H 312.021 -1.29051 4.4236 0
M  V30 3368 H 310.336 -1.31719 3.95018 0
M  V30 3369 H 312.933 -4.05865 3.48106 0
M  V30 3370 H 313.276 -3.75588 1.79553 0
M  V30 3371 H 313.809 -2.5835 3.0249 0
M  V30 3372 H 310.548 -2.58795 6.0225 0
M  V30 3373 H 310.068 -3.70044 4.72046 0
M  V30 3374 H 311.747 -3.68976 5.31475 0
M  V30 3375 N 311.879 -1.3236 -0.855495 0
M  V30 3376 C 312.811 -1.17052 -1.97057 0
M  V30 3377 C 313.824 -0.10574 -1.62456 0
M  V30 3378 O 315.013 -0.354619 -1.74942 0
M  V30 3379 C 312.113 -0.769305 -3.30053 0
M  V30 3380 C 311.286 -1.9222 -3.929 0
M  V30 3381 C 310.345 -1.50466 -5.04228 0
M  V30 3382 O 309.371 -2.21655 -5.24269 0
M  V30 3383 N 310.573 -0.400209 -5.79119 0
M  V30 3384 H 313.338 -2.13103 -2.1073 0
M  V30 3385 H 310.899 -1.24885 -1.0303 0
M  V30 3386 H 312.891 -0.472407 -4.01933 0
M  V30 3387 H 311.461 0.100025 -3.1244 0
M  V30 3388 H 310.681 -2.38563 -3.13817 0
M  V30 3389 H 311.969 -2.69403 -4.31624 0
M  V30 3390 H 311.367 0.192319 -5.65373 0
M  V30 3391 H 309.924 -0.162912 -6.51596 0
M  V30 3392 N 313.357 1.07166 -1.15556 0
M  V30 3393 C 314.603 1.80065 -0.932984 0
M  V30 3394 C 314.936 1.86586 0.53845 0
M  V30 3395 O 314.211 1.35098 1.39924 0
M  V30 3396 C 314.494 3.25022 -1.55025 0
M  V30 3397 C 314.347 3.26634 -3.09242 0
M  V30 3398 C 315.666 4.22341 -1.2376 0
M  V30 3399 H 312.785 0.653697 -0.340366 0
M  V30 3400 H 315.427 1.25389 -1.4275 0
M  V30 3401 H 313.577 3.71712 -1.12972 0
M  V30 3402 H 315.249 2.88173 -3.60214 0
M  V30 3403 H 313.492 2.65539 -3.43033 0
M  V30 3404 H 314.163 4.28854 -3.47546 0
M  V30 3405 H 316.639 3.8405 -1.60139 0
M  V30 3406 H 315.515 5.22053 -1.69564 0
M  V30 3407 H 315.776 4.41828 -0.154938 0
M  V30 3408 N 314.835 0.952656 1.25548 0
M  V30 3409 C 316.246 0.647392 1.75116 0
M  V30 3410 C 316.597 -0.837274 1.77438 0
M  V30 3411 O 315.722 -1.65525 1.39393 0
M  V30 3412 C 316.317 1.16845 3.18014 0
M  V30 3413 C 314.876 0.913382 3.6515 0
M  V30 3414 C 314.023 1.31265 2.44264 0
M  V30 3415 H 316.974 1.12968 1.11462 0
M  V30 3416 H 316.995 0.527606 3.76824 0
M  V30 3417 H 316.507 2.24902 3.16292 0
M  V30 3418 H 314.608 -0.152316 3.72289 0
M  V30 3419 H 314.721 1.54845 4.53387 0
M  V30 3420 H 313.085 0.731028 2.43984 0
M  V30 3421 H 313.868 2.40239 2.45234 0
M  V30 3422 N 316.313 -1.40141 0.720998 0
M  V30 3423 C 317.276 -2.29058 0.0805834 0
M  V30 3424 C 318.276 -1.45632 -0.681758 0
M  V30 3425 O 319.466 -1.6648 -0.512856 0
M  V30 3426 C 316.598 -3.28925 -0.895593 0
M  V30 3427 H 317.791 -2.87191 0.863793 0
M  V30 3428 H 315.344 -1.48553 0.485975 0
M  V30 3429 H 316.079 -2.75822 -1.70566 0
M  V30 3430 H 315.864 -3.90519 -0.351766 0
M  V30 3431 H 317.354 -3.95494 -1.34069 0
M  V30 3432 N 317.792 -0.46758 -1.50504 0
M  V30 3433 C 319.203 -0.0116166 -1.86696 0
M  V30 3434 C 319.554 1.39202 -1.38265 0
M  V30 3435 O 318.679 2.0313 -0.746132 0
M  V30 3436 C 319.274 -0.0143044 -3.38797 0
M  V30 3437 C 317.833 0.386175 -3.74414 0
M  V30 3438 C 316.98 -0.401287 -2.74381 0
M  V30 3439 H 319.931 -0.682022 -1.43297 0
M  V30 3440 H 319.952 0.788641 -3.72237 0
M  V30 3441 H 319.464 -1.03602 -3.74016 0
M  V30 3442 H 317.565 1.41237 -3.44794 0
M  V30 3443 H 317.678 0.0899596 -4.79016 0
M  V30 3444 H 316.042 0.144536 -2.5429 0
M  V30 3445 H 316.825 -1.42244 -3.12444 0
M  V30 3446 N 319.27 1.56325 -0.20005 0
M  V30 3447 C 320.517 1.97719 0.437411 0
M  V30 3448 C 320.845 1.08709 1.61284 0
M  V30 3449 O 320.1 0.127261 1.95286 0
M  V30 3450 C 320.399 3.4495 0.935103 0
M  V30 3451 C 320.065 4.5072 -0.12749 0
M  V30 3452 C 318.727 4.79368 -0.419451 0
M  V30 3453 C 321.079 5.14268 -0.847231 0
M  V30 3454 C 318.407 5.68854 -1.43604 0
M  V30 3455 C 320.759 6.04852 -1.85301 0
M  V30 3456 C 319.423 6.31855 -2.15211 0
M  V30 3457 H 318.693 0.723507 0.16006 0
M  V30 3458 H 321.34 1.89166 -0.298056 0
M  V30 3459 H 319.645 3.50599 1.74894 0
M  V30 3460 H 321.342 3.74337 1.43781 0
M  V30 3461 H 317.932 4.28458 0.11023 0
M  V30 3462 H 322.116 4.92222 -0.634901 0
M  V30 3463 H 317.372 5.88047 -1.67364 0
M  V30 3464 H 321.546 6.53152 -2.41591 0
M  V30 3465 H 319.173 7.00994 -2.94129 0
M  V30 3466 N 320.748 -0.0735177 1.57428 0
M  V30 3467 C 322.025 -0.805903 1.78226 0
M  V30 3468 C 322.405 -1.95874 0.787189 0
M  V30 3469 O 321.753 -2.2779 -0.180029 0
M  V30 3470 C 321.963 -1.28045 3.24662 0
M  V30 3471 C 323.311 -1.71453 3.88444 0
M  V30 3472 O 324.335 -1.37616 3.28543 0
M  V30 3473 O 323.194 -2.34093 4.93825 0
M  V30 3474 H 320.288 -0.386041 0.73137 0
M  V30 3475 H 322.834 -0.0537269 1.69615 0
M  V30 3476 H 321.606 -0.455476 3.8864 0
M  V30 3477 H 321.229 -2.094 3.37991 0
M  V30 3478 N 322.226 -1.5378 -0.344866 0
M  V30 3479 C 323.156 -1.84662 -1.42906 0
M  V30 3480 C 324.137 -0.701648 -1.54955 0
M  V30 3481 O 325.322 -0.953438 -1.69184 0
M  V30 3482 C 322.452 -2.05503 -2.79974 0
M  V30 3483 C 321.406 -3.21318 -2.82734 0
M  V30 3484 C 320.732 -3.2749 -4.22675 0
M  V30 3485 C 322.032 -4.59456 -2.48389 0
M  V30 3486 H 323.726 -2.75461 -1.17311 0
M  V30 3487 H 321.272 -1.32542 -0.562896 0
M  V30 3488 H 323.225 -2.25691 -3.55867 0
M  V30 3489 H 321.949 -1.11434 -3.07002 0
M  V30 3490 H 320.608 -3.00984 -2.09294 0
M  V30 3491 H 320.256 -2.31019 -4.4681 0
M  V30 3492 H 319.956 -4.05316 -4.25433 0
M  V30 3493 H 321.48 -3.49887 -5.00412 0
M  V30 3494 H 322.894 -4.79667 -3.13995 0
M  V30 3495 H 321.291 -5.39675 -2.62432 0
M  V30 3496 H 322.361 -4.63155 -1.4358 0
M  V30 3497 N 323.704 0.605807 -1.45491 0
M  V30 3498 C 324.929 1.39625 -1.53361 0
M  V30 3499 C 325.354 1.87351 -0.167645 0
M  V30 3500 O 324.712 1.60243 0.848051 0
M  V30 3501 C 324.76 2.57559 -2.5238 0
M  V30 3502 O 323.864 3.58248 -2.04285 0
M  V30 3503 H 323.205 0.416771 -0.516912 0
M  V30 3504 H 325.735 0.737103 -1.90861 0
M  V30 3505 H 325.745 3.0478 -2.71244 0
M  V30 3506 H 324.42 2.22171 -3.51586 0
M  V30 3507 H 322.997 3.17664 -1.95305 0
M  V30 3508 N 325.182 1.32811 0.848464 0
M  V30 3509 C 326.412 1.26556 1.63301 0
M  V30 3510 C 326.82 -0.1676 1.88456 0
M  V30 3511 O 326.163 -1.11713 1.45828 0
M  V30 3512 C 326.225 1.96202 3.01239 0
M  V30 3513 C 325.889 3.45528 2.99098 0
M  V30 3514 C 326.886 4.40903 2.75501 0
M  V30 3515 C 324.571 3.87558 3.19537 0
M  V30 3516 C 326.565 5.76282 2.72356 0
M  V30 3517 C 324.252 5.23044 3.16019 0
M  V30 3518 C 325.25 6.17217 2.92458 0
M  V30 3519 O 324.938 7.50223 2.88825 0
M  V30 3520 H 324.67 0.43771 0.515156 0
M  V30 3521 H 327.224 1.7559 1.0657 0
M  V30 3522 H 325.454 1.41746 3.59785 0
M  V30 3523 H 327.143 1.83573 3.62016 0
M  V30 3524 H 327.909 4.09756 2.5947 0
M  V30 3525 H 323.788 3.14674 3.369 0
M  V30 3526 H 327.332 6.4976 2.53886 0
M  V30 3527 H 323.229 5.53818 3.31596 0
M  V30 3528 H 323.997 7.59657 3.04735 0
M  V30 3529 N 326.66 -1.06551 1.16123 0
M  V30 3530 C 327.607 -2.13961 0.865414 0
M  V30 3531 C 328.577 -1.65066 -0.185055 0
M  V30 3532 O 329.762 -1.90732 -0.05083 0
M  V30 3533 C 326.902 -3.43113 0.369776 0
M  V30 3534 C 326.015 -4.05756 1.48276 0
M  V30 3535 C 325.15 -5.22773 0.942414 0
M  V30 3536 C 324.189 -5.77395 2.03179 0
M  V30 3537 N 323.326 -6.85731 1.50721 0
M  V30 3538 H 328.166 -2.38605 1.78527 0
M  V30 3539 H 325.703 -1.17072 0.890646 0
M  V30 3540 H 327.661 -4.17151 0.0640643 0
M  V30 3541 H 326.291 -3.18695 -0.513143 0
M  V30 3542 H 325.343 -3.29292 1.9045 0
M  V30 3543 H 326.655 -4.42351 2.30493 0
M  V30 3544 H 325.809 -6.03827 0.589729 0
M  V30 3545 H 324.548 -4.87618 0.0895191 0
M  V30 3546 H 323.553 -4.94981 2.3932 0
M  V30 3547 H 324.778 -6.14603 2.8886 0
M  V30 3548 H 322.724 -6.52499 0.676811 0
M  V30 3549 H 322.641 -7.21254 2.26557 0
M  V30 3550 H 323.909 -7.7047 1.18303 0
M  V30 3551 N 328.138 -0.959301 -1.25041 0
M  V30 3552 C 329.366 -0.633949 -1.96948 0
M  V30 3553 C 329.781 0.794916 -1.7125 0
M  V30 3554 O 329.138 1.53231 -0.991287 0
M  V30 3555 C 329.189 -0.888805 -3.50403 0
M  V30 3556 O 328.91 -2.26149 -3.75218 0
M  V30 3557 C 330.411 -0.576482 -4.39536 0
M  V30 3558 H 327.631 -0.237263 -0.627652 0
M  V30 3559 H 330.175 -1.28495 -1.59089 0
M  V30 3560 H 328.33 -0.284145 -3.86357 0
M  V30 3561 H 328.744 -2.33514 -4.6965 0
M  V30 3562 H 330.218 -0.805314 -5.46094 0
M  V30 3563 H 330.695 0.489075 -4.36468 0
M  V30 3564 H 331.301 -1.16067 -4.09156 0
M  V30 3565 N 329.616 1.39756 -0.72842 0
M  V30 3566 C 330.862 2.00942 -0.273892 0
M  V30 3567 C 331.195 1.57656 1.13394 0
M  V30 3568 O 330.47 0.802434 1.77176 0
M  V30 3569 C 330.753 3.58211 -0.368346 0
M  V30 3570 C 330.606 4.11534 -1.81548 0
M  V30 3571 C 331.925 4.39372 0.253054 0
M  V30 3572 H 329.044 0.730047 -0.100996 0
M  V30 3573 H 331.686 1.66056 -0.923337 0
M  V30 3574 H 329.836 3.88061 0.184588 0
M  V30 3575 H 331.508 3.92431 -2.42478 0
M  V30 3576 H 329.751 3.65341 -2.33898 0
M  V30 3577 H 330.422 5.20682 -1.83288 0
M  V30 3578 H 332.898 4.15527 -0.218224 0
M  V30 3579 H 331.774 5.48677 0.156585 0
M  V30 3580 H 332.035 4.21358 1.33826 0
M  V30 3581 N 331.094 0.475555 1.50254 0
M  V30 3582 C 332.371 -0.139685 1.95101 0
M  V30 3583 C 332.751 -1.56555 1.41611 0
M  V30 3584 O 332.099 -2.19956 0.618993 0
M  V30 3585 C 332.309 -0.0784298 3.48912 0
M  V30 3586 C 333.657 -0.265095 4.23772 0
M  V30 3587 O 334.681 -0.154808 3.55863 0
M  V30 3588 O 333.54 -0.488327 5.44314 0
M  V30 3589 H 330.634 -0.109236 0.819754 0
M  V30 3590 H 333.18 0.536276 1.61004 0
M  V30 3591 H 331.952 0.916918 3.80405 0
M  V30 3592 H 331.575 -0.795655 3.89558 0
M  V30 3593 N 332.573 -1.56217 0.208337 0
M  V30 3594 C 333.505 -2.1695 -0.739276 0
M  V30 3595 C 334.518 -1.13492 -1.1672 0
M  V30 3596 O 335.707 -1.40529 -1.10063 0
M  V30 3597 C 332.807 -2.72755 -2.01142 0
M  V30 3598 C 331.98 -4.0125 -1.74118 0
M  V30 3599 C 331.039 -4.41749 -2.85909 0
M  V30 3600 O 330.065 -5.08912 -2.54946 0
M  V30 3601 N 331.267 -4.06342 -4.14568 0
M  V30 3602 H 334.032 -2.98893 -0.219837 0
M  V30 3603 H 331.593 -1.61878 0.0268445 0
M  V30 3604 H 333.585 -2.96826 -2.75094 0
M  V30 3605 H 332.155 -1.95191 -2.4417 0
M  V30 3606 H 331.375 -3.85173 -0.838775 0
M  V30 3607 H 332.663 -4.851 -1.53477 0
M  V30 3608 H 332.061 -3.52345 -4.42571 0
M  V30 3609 H 330.618 -4.35335 -4.85105 0
M  V30 3610 N 334.051 0.0651679 -1.57465 0
M  V30 3611 C 335.297 0.758912 -1.88712 0
M  V30 3612 C 335.652 1.7485 -0.802819 0
M  V30 3613 O 334.945 1.90632 0.192359 0
M  V30 3614 C 335.139 1.50081 -3.24362 0
M  V30 3615 C 334.968 0.584579 -4.45884 0
M  V30 3616 C 333.738 0.219039 -5.04825 0
M  V30 3617 C 335.936 -0.121559 -5.14156 0
M  V30 3618 N 333.918 -0.702222 -6.09871 0
M  V30 3619 C 335.289 -0.899767 -6.13436 0
M  V30 3620 C 337.344 -0.192331 -4.97528 0
M  V30 3621 C 336.047 -1.74218 -6.97883 0
M  V30 3622 C 338.073 -1.02174 -5.82507 0
M  V30 3623 C 337.435 -1.78798 -6.8133 0
M  V30 3624 H 333.534 0.25293 -0.739967 0
M  V30 3625 H 336.118 0.0201744 -1.9469 0
M  V30 3626 H 334.289 2.21023 -3.1938 0
M  V30 3627 H 336.021 2.14409 -3.43236 0
M  V30 3628 H 332.776 0.57336 -4.70117 0
M  V30 3629 H 333.2 -1.15629 -6.67052 0
M  V30 3630 H 337.842 0.385741 -4.21037 0
M  V30 3631 H 335.56 -2.3312 -7.73745 0
M  V30 3632 H 339.146 -1.07957 -5.71696 0
M  V30 3633 H 338.026 -2.41942 -7.45945 0
M  V30 3634 N 335.529 1.53961 0.336706 0
M  V30 3635 C 336.439 1.85432 1.43708 0
M  V30 3636 C 337.455 0.745053 1.57242 0
M  V30 3637 O 338.631 1.03804 1.72588 0
M  V30 3638 C 335.696 2.06349 2.78605 0
M  V30 3639 C 334.757 3.30191 2.74358 0
M  V30 3640 C 333.99 3.50101 4.02822 0
M  V30 3641 O 334.213 2.7371 5.00439 0
M  V30 3642 O 333.147 4.43547 4.06878 0
M  V30 3643 H 336.973 2.78975 1.20028 0
M  V30 3644 H 334.558 1.39701 0.52952 0
M  V30 3645 H 336.44 2.21513 3.58483 0
M  V30 3646 H 335.115 1.15995 3.02203 0
M  V30 3647 H 334.022 3.20425 1.93078 0
M  V30 3648 H 335.355 4.2056 2.55715 0
M  V30 3649 N 337.007 -0.598083 1.45811 0
M  V30 3650 C 338.256 -1.35295 1.49594 0
M  V30 3651 C 338.569 -1.95057 0.145679 0
M  V30 3652 O 339.775 -2.71431 0.0612099 0
M  V30 3653 C 338.231 -2.45124 2.63519 0
M  V30 3654 C 337.839 -1.91732 4.04899 0
M  V30 3655 C 339.583 -3.2205 2.76558 0
M  V30 3656 C 337.49 -2.991 5.1019 0
M  V30 3657 H 336.42 -0.508552 0.556679 0
M  V30 3658 H 339.071 -0.639977 1.71978 0
M  V30 3659 H 337.453 -3.19149 2.34435 0
M  V30 3660 H 338.627 -1.24352 4.43704 0
M  V30 3661 H 336.942 -1.27522 3.96393 0
M  V30 3662 H 339.539 -4.0215 3.52391 0
M  V30 3663 H 339.882 -3.73663 1.83526 0
M  V30 3664 H 340.415 -2.55127 3.05213 0
M  V30 3665 H 337.154 -2.52393 6.04961 0
M  V30 3666 H 336.674 -3.65017 4.75944 0
M  V30 3667 H 338.353 -3.63318 5.35359 0
M  V30 3668 N 338.485 -1.33259 -0.841409 0
M  V30 3669 C 339.762 -1.15174 -1.58096 0
M  V30 3670 C 340.142 0.282858 -2.09196 0
M  V30 3671 O 339.49 1.28151 -1.89181 0
M  V30 3672 C 339.7 -2.1907 -2.71679 0
M  V30 3673 C 341.048 -2.53093 -3.40924 0
M  V30 3674 O 342.072 -2.17717 -2.81918 0
M  V30 3675 O 340.931 -3.1379 -4.47435 0
M  V30 3676 H 338.025 -0.445303 -0.696875 0
M  V30 3677 H 340.571 -1.44833 -0.884385 0
M  V30 3678 H 339.343 -3.15443 -2.31541 0
M  V30 3679 H 338.966 -1.90481 -3.49002 0
M  V30 3680 N 339.963 1.05934 -1.16686 0
M  V30 3681 C 341.379 1.30938 -0.912542 0
M  V30 3682 C 341.579 1.96803 0.432533 0
M  V30 3683 O 340.635 2.23693 1.17123 0
M  V30 3684 C 341.948 2.18649 -2.06429 0
M  V30 3685 C 343.496 2.32055 -2.10047 0
M  V30 3686 C 343.971 3.23122 -3.24586 0
M  V30 3687 N 345.462 3.30706 -3.24327 0
M  V30 3688 C 346.197 4.01273 -4.09594 0
M  V30 3689 N 345.693 4.74332 -5.04956 0
M  V30 3690 N 347.486 3.97361 -3.97569 0
M  V30 3691 H 339.637 0.615777 -2.03278 0
M  V30 3692 H 341.9 0.334077 -0.887185 0
M  V30 3693 H 341.606 1.77534 -3.03603 0
M  V30 3694 H 341.48 3.19252 -2.00894 0
M  V30 3695 H 343.867 2.72415 -1.13464 0
M  V30 3696 H 343.948 1.31107 -2.19647 0
M  V30 3697 H 343.592 2.83477 -4.2143 0
M  V30 3698 H 343.522 4.24057 -3.12223 0
M  V30 3699 H 346.013 2.78644 -2.55276 0
M  V30 3700 H 346.326 5.25716 -5.6643 0
M  V30 3701 H 344.671 4.733 -5.08933 0
M  V30 3702 H 347.862 3.39405 -3.22369 0
M  V30 3703 H 348.035 4.52089 -4.64241 0
M  V30 3704 N 341.441 0.965919 1.2453 0
M  V30 3705 C 342.389 0.486506 2.27455 0
M  V30 3706 C 343.383 -0.449041 1.6334 0
M  V30 3707 O 344.589 -0.324527 1.7705 0
M  V30 3708 H 340.964 0.138857 0.739069 0
M  V30 3709 H 342.935 1.3666 2.65267 0
M  V30 3710 C 341.684 -0.209481 3.47068 0
M  V30 3711 H 341.007 0.50129 3.96645 0
M  V30 3712 H 342.447 -0.508775 4.20936 0
M  V30 3713 C 340.906 -1.43586 3.0477 0
M  V30 3714 O 341.436 -2.53299 3.11773 0
M  V30 3715 N 339.642 -1.30126 2.59838 0
M  V30 3716 H 339.189 -0.408583 2.54339 0
M  V30 3717 H 339.147 -2.12294 2.31902 0
M  V30 3718 N 342.919 -1.39368 0.735821 0
M  V30 3719 C 344.144 -2.05319 0.293052 0
M  V30 3720 C 344.569 -1.55115 -1.064 0
M  V30 3721 O 343.927 -0.695261 -1.67439 0
M  V30 3722 C 343.975 -3.59305 0.305323 0
M  V30 3723 O 343.079 -4.06299 -0.706761 0
M  V30 3724 H 342.42 -0.650529 0.13307 0
M  V30 3725 H 344.95 -1.78386 1.00197 0
M  V30 3726 H 344.96 -4.07724 0.149997 0
M  V30 3727 H 343.635 -3.95207 1.29553 0
M  V30 3728 H 342.212 -3.69292 -0.517504 0
M  V30 3729 N 344.397 -0.483516 -1.5 0
M  V30 3730 C 345.646 0.0689102 -2.01582 0
M  V30 3731 C 345.959 1.39655 -1.36952 0
M  V30 3732 O 347.165 2.03465 -1.79762 0
M  V30 3733 C 345.621 0.173302 -3.59483 0
M  V30 3734 C 345.229 -1.14665 -4.33077 0
M  V30 3735 C 346.973 0.677024 -4.19066 0
M  V30 3736 C 344.88 -1.00537 -5.82792 0
M  V30 3737 H 343.81 0.0295277 -0.753422 0
M  V30 3738 H 346.461 -0.620295 -1.72698 0
M  V30 3739 H 344.843 0.926569 -3.85007 0
M  V30 3740 H 346.017 -1.91184 -4.19268 0
M  V30 3741 H 344.332 -1.58244 -3.85159 0
M  V30 3742 H 346.929 0.799952 -5.28682 0
M  V30 3743 H 347.272 1.67151 -3.81269 0
M  V30 3744 H 347.805 -0.0192083 -3.97795 0
M  V30 3745 H 344.544 -1.9736 -6.25083 0
M  V30 3746 H 344.064 -0.280776 -5.99142 0
M  V30 3747 H 345.743 -0.677 -6.43448 0
M  V30 3748 N 345.875 1.56104 -0.216619 0
M  V30 3749 C 346.807 2.17339 0.72776 0
M  V30 3750 C 347.82 1.14109 1.16116 0
M  V30 3751 O 349.009 1.4111 1.09317 0
M  V30 3752 C 346.109 2.73818 1.99693 0
M  V30 3753 C 345.282 4.02168 1.71988 0
M  V30 3754 C 344.341 4.43259 2.83562 0
M  V30 3755 O 343.367 5.10257 2.52244 0
M  V30 3756 N 344.569 4.08535 4.12407 0
M  V30 3757 H 347.334 2.99005 0.203983 0
M  V30 3758 H 344.895 1.61861 -0.0354289 0
M  V30 3759 H 346.887 2.9828 2.73516 0
M  V30 3760 H 345.457 1.96483 2.43132 0
M  V30 3761 H 344.677 3.85612 0.818337 0
M  V30 3762 H 345.965 4.85907 1.50903 0
M  V30 3763 H 345.363 3.54687 4.40696 0
M  V30 3764 H 343.92 4.37901 4.8279 0
M  V30 3765 N 347.353 -0.0568162 1.57498 0
M  V30 3766 C 348.283 -1.06593 2.0775 0
M  V30 3767 C 349.264 -1.39448 0.974082 0
M  V30 3768 O 350.449 -1.48815 1.24771 0
M  V30 3769 C 347.579 -2.37509 2.5339 0
M  V30 3770 C 346.533 -2.1897 3.67745 0
M  V30 3771 C 345.859 -3.55402 3.99492 0
M  V30 3772 C 347.159 -1.59859 4.97235 0
M  V30 3773 H 348.853 -0.647706 2.9231 0
M  V30 3774 H 346.399 -0.310116 1.40621 0
M  V30 3775 H 348.352 -3.08409 2.87162 0
M  V30 3776 H 347.076 -2.8134 1.65878 0
M  V30 3777 H 345.735 -1.50508 3.3428 0
M  V30 3778 H 345.383 -3.9683 3.09088 0
M  V30 3779 H 345.083 -3.43831 4.76502 0
M  V30 3780 H 346.607 -4.27708 4.35773 0
M  V30 3781 H 348.021 -2.20642 5.29141 0
M  V30 3782 H 346.418 -1.58942 5.78669 0
M  V30 3783 H 347.488 -0.561506 4.81638 0
M  V30 3784 N 348.832 -1.54138 -0.328536 0
M  V30 3785 C 349.762 -1.86167 -1.40939 0
M  V30 3786 C 350.743 -0.718044 -1.54202 0
M  V30 3787 O 351.928 -0.971328 -1.68163 0
M  V30 3788 C 349.058 -2.08461 -2.77779 0
M  V30 3789 C 348.012 -3.24299 -2.7931 0
M  V30 3790 C 347.338 -3.31955 -4.19178 0
M  V30 3791 C 348.638 -4.62065 -2.43502 0
M  V30 3792 H 350.332 -2.76689 -1.14383 0
M  V30 3793 H 347.878 -1.33132 -0.548806 0
M  V30 3794 H 349.831 -2.29453 -3.53454 0
M  V30 3795 H 348.555 -1.14684 -3.05802 0
M  V30 3796 H 347.214 -3.03187 -2.0609 0
M  V30 3797 H 346.862 -2.35745 -4.44335 0
M  V30 3798 H 346.562 -4.09805 -4.2111 0
M  V30 3799 H 348.086 -3.55175 -4.96672 0
M  V30 3800 H 349.5 -4.8297 -3.08889 0
M  V30 3801 H 347.897 -5.42429 -2.56693 0
M  V30 3802 H 348.967 -4.64652 -1.38659 0
M  V30 3803 N 350.31 0.590341 -1.46126 0
M  V30 3804 C 351.257 1.69994 -1.56111 0
M  V30 3805 C 352.227 1.61065 -0.405867 0
M  V30 3806 O 353.412 1.8039 -0.621613 0
M  V30 3807 C 350.552 3.08326 -1.55013 0
M  V30 3808 C 349.665 3.27936 -2.81215 0
M  V30 3809 C 348.8 4.56473 -2.71673 0
M  V30 3810 C 347.839 4.694 -3.92849 0
M  V30 3811 N 346.976 5.89254 -3.81738 0
M  V30 3812 H 351.816 1.60797 -2.50895 0
M  V30 3813 H 349.353 0.783799 -1.24479 0
M  V30 3814 H 351.311 3.88383 -1.52362 0
M  V30 3815 H 349.941 3.16439 -0.637667 0
M  V30 3816 H 348.993 2.41536 -2.93879 0
M  V30 3817 H 350.305 3.33357 -3.71045 0
M  V30 3818 H 349.459 5.44748 -2.67085 0
M  V30 3819 H 348.198 4.53477 -1.7947 0
M  V30 3820 H 347.203 3.79544 -3.97777 0
M  V30 3821 H 348.428 4.7418 -4.86138 0
M  V30 3822 H 346.374 5.87271 -2.92317 0
M  V30 3823 H 346.291 5.95911 -4.65217 0
M  V30 3824 H 347.559 6.79981 -3.81112 0
M  V30 3825 N 351.788 1.33704 0.83433 0
M  V30 3826 C 353.204 1.13137 1.12571 0
M  V30 3827 C 353.404 -0.0747261 2.01361 0
M  V30 3828 O 352.46 -0.753647 2.4099 0
M  V30 3829 C 353.773 2.42105 1.78342 0
M  V30 3830 C 355.321 2.48054 1.90888 0
M  V30 3831 C 355.796 3.76995 2.60075 0
M  V30 3832 N 357.287 3.78092 2.67584 0
M  V30 3833 C 358.022 4.74574 3.21818 0
M  V30 3834 N 357.518 5.81434 3.76705 0
M  V30 3835 N 359.311 4.62044 3.20112 0
M  V30 3836 H 351.462 2.11 0.243489 0
M  V30 3837 H 353.725 0.932532 0.17055 0
M  V30 3838 H 353.431 3.30391 1.20561 0
M  V30 3839 H 353.305 2.54594 2.7832 0
M  V30 3840 H 355.692 1.60215 2.47821 0
M  V30 3841 H 355.773 2.39502 0.898459 0
M  V30 3842 H 355.417 4.65219 2.03799 0
M  V30 3843 H 355.347 3.82825 3.61597 0
M  V30 3844 H 357.838 3.00865 2.28667 0
M  V30 3845 H 358.151 6.51084 4.16305 0
M  V30 3846 H 356.496 5.85163 3.7498 0
M  V30 3847 H 359.687 3.77716 2.76493 0
M  V30 3848 H 359.86 5.37406 3.62076 0
M  V30 3849 N 353.266 -1.05314 1.17247 0
M  V30 3850 C 354.196 -2.1498 0.911362 0
M  V30 3851 C 355.177 -1.69471 -0.146169 0
M  V30 3852 O 356.362 -1.942 0.003812 0
M  V30 3853 C 353.492 -3.4472 0.422528 0
M  V30 3854 C 352.446 -4.03789 1.4191 0
M  V30 3855 C 351.772 -5.28858 0.788274 0
M  V30 3856 C 353.072 -4.41418 2.7919 0
M  V30 3857 H 354.766 -2.3708 1.82848 0
M  V30 3858 H 352.312 -1.13938 0.880569 0
M  V30 3859 H 354.265 -4.20787 0.227289 0
M  V30 3860 H 352.989 -3.22269 -0.530123 0
M  V30 3861 H 351.648 -3.2979 1.60106 0
M  V30 3862 H 351.296 -5.02709 -0.171173 0
M  V30 3863 H 350.996 -5.69338 1.45353 0
M  V30 3864 H 352.52 -6.07612 0.603282 0
M  V30 3865 H 353.934 -5.08524 2.64719 0
M  V30 3866 H 352.331 -4.92913 3.42282 0
M  V30 3867 H 353.401 -3.51819 3.33693 0
M  V30 3868 N 354.744 -0.972509 -1.24016 0
M  V30 3869 C 355.992 -0.635776 -1.91839 0
M  V30 3870 C 356.313 0.832312 -1.76345 0
M  V30 3871 O 355.583 1.5946 -1.13795 0
M  V30 3872 H 354.163 -0.232157 -0.710009 0
M  V30 3873 H 356.825 -1.23462 -1.50809 0
M  V30 3874 H 355.921 -0.880545 -2.99421 0
M  V30 3875 N 356.222 1.38976 -0.743202 0
M  V30 3876 C 357.447 2.05161 -0.303936 0
M  V30 3877 C 357.872 1.55677 1.05576 0
M  V30 3878 O 357.23 0.704131 1.67068 0
M  V30 3879 C 357.278 3.59138 -0.324373 0
M  V30 3880 O 356.382 4.06668 0.685204 0
M  V30 3881 H 355.723 0.649815 -0.136518 0
M  V30 3882 H 358.253 1.77852 -1.01142 0
M  V30 3883 H 358.263 4.07639 -0.171618 0
M  V30 3884 H 356.938 3.94515 -1.31647 0
M  V30 3885 H 355.515 3.69561 0.497913 0
M  V30 3886 N 357.7 0.491464 1.49741 0
M  V30 3887 C 358.948 -0.0563141 2.02022 0
M  V30 3888 C 359.269 -1.38363 1.37407 0
M  V30 3889 O 358.539 -1.88702 0.526166 0
M  V30 3890 H 357.119 -0.0238014 0.746621 0
M  V30 3891 H 359.781 0.646533 1.83864 0
M  V30 3892 H 358.877 -0.192967 3.11503 0
M  V30 3893 N 359.178 -1.55987 0.224894 0
M  V30 3894 C 360.11 -2.17722 -0.716224 0
M  V30 3895 C 361.123 -1.14723 -1.15509 0
M  V30 3896 O 362.312 -1.41688 -1.08567 0
M  V30 3897 C 359.412 -2.74873 -1.98238 0
M  V30 3898 C 358.585 -4.03074 -1.69853 0
M  V30 3899 C 357.644 -4.44757 -2.81208 0
M  V30 3900 O 356.67 -5.11587 -2.49534 0
M  V30 3901 N 357.872 -4.10716 -4.10235 0
M  V30 3902 H 360.637 -2.99109 -0.188123 0
M  V30 3903 H 358.198 -1.6184 0.0440123 0
M  V30 3904 H 360.19 -2.99727 -2.7193 0
M  V30 3905 H 358.76 -1.9777 -2.42086 0
M  V30 3906 H 357.98 -3.86041 -0.797875 0
M  V30 3907 H 359.268 -4.86701 -1.48324 0
M  V30 3908 H 358.666 -3.57019 -4.38809 0
M  V30 3909 H 357.223 -4.40455 -4.80461 0
M  V30 3910 N 360.656 0.0484629 -1.57525 0
M  V30 3911 C 361.903 0.743125 -1.88372 0
M  V30 3912 C 362.231 1.76383 -0.819715 0
M  V30 3913 O 361.486 1.94855 0.181659 0
M  V30 3914 C 361.785 1.46632 -3.25935 0
M  V30 3915 C 361.451 0.583427 -4.4711 0
M  V30 3916 C 360.113 0.340191 -4.79996 0
M  V30 3917 C 362.465 -0.0273345 -5.21193 0
M  V30 3918 C 359.793 -0.522903 -5.84365 0
M  V30 3919 C 362.145 -0.878017 -6.26477 0
M  V30 3920 C 360.809 -1.1309 -6.5785 0
M  V30 3921 H 360.079 0.271929 -0.689301 0
M  V30 3922 H 362.726 0.00336166 -1.915 0
M  V30 3923 H 361.031 2.2789 -3.18706 0
M  V30 3924 H 362.728 2.00902 -3.47044 0
M  V30 3925 H 359.318 0.783151 -4.21384 0
M  V30 3926 H 363.502 0.147654 -4.9608 0
M  V30 3927 H 358.758 -0.727335 -6.07058 0
M  V30 3928 H 362.932 -1.35789 -6.83033 0
M  V30 3929 H 360.559 -1.80144 -7.38547 0
M  V30 3930 N 362.134 1.5431 0.320358 0
M  V30 3931 C 363.382 1.72327 1.05583 0
M  V30 3932 C 363.703 0.50149 1.88441 0
M  V30 3933 O 362.973 -0.48448 1.89815 0
M  V30 3934 H 361.553 0.635387 0.3928 0
M  V30 3935 H 364.215 1.91621 0.356019 0
M  V30 3936 H 363.311 2.60426 1.72003 0
M  V30 3937 N 363.613 -0.582584 1.46437 0
M  V30 3938 C 364.523 -1.71949 1.59595 0
M  V30 3939 C 365.539 -1.67264 0.479443 0
M  V30 3940 O 366.715 -1.87171 0.743579 0
M  V30 3941 C 363.78 -3.08452 1.58298 0
M  V30 3942 C 362.841 -3.244 2.81182 0
M  V30 3943 C 362.074 -4.54391 2.79937 0
M  V30 3944 O 362.297 -5.38287 1.8869 0
M  V30 3945 O 361.231 -4.73588 3.71481 0
M  V30 3946 H 365.057 -1.63795 2.55744 0
M  V30 3947 H 362.642 -0.749643 1.29231 0
M  V30 3948 H 364.524 -3.89732 1.60271 0
M  V30 3949 H 363.199 -3.17043 0.653094 0
M  V30 3950 H 362.106 -2.42613 2.84763 0
M  V30 3951 H 363.439 -3.20699 3.7338 0
M  V30 3952 N 365.091 -1.34144 -0.827227 0
M  V30 3953 C 366.337 -1.26446 -1.58554 0
M  V30 3954 C 366.67 0.1664 -1.93486 0
M  V30 3955 O 365.945 1.1107 -1.59667 0
M  V30 3956 C 366.228 -2.15111 -2.8879 0
M  V30 3957 C 366.081 -3.66712 -2.60465 0
M  V30 3958 C 367.4 -2.03311 -3.90324 0
M  V30 3959 H 364.519 -0.46067 -0.575284 0
M  V30 3960 H 367.161 -1.64356 -0.953269 0
M  V30 3961 H 365.311 -1.8291 -3.42748 0
M  V30 3962 H 366.983 -4.09259 -2.1285 0
M  V30 3963 H 365.226 -3.88014 -1.93978 0
M  V30 3964 H 365.897 -4.24112 -3.53317 0
M  V30 3965 H 368.373 -2.31574 -3.45706 0
M  V30 3966 H 367.249 -2.67582 -4.79261 0
M  V30 3967 H 367.51 -1.00879 -4.30437 0
M  V30 3968 N 366.569 1.04691 -1.17803 0
M  V30 3969 C 367.815 1.78181 -0.980977 0
M  V30 3970 C 368.17 1.86191 0.484825 0
M  V30 3971 O 367.463 1.35436 1.35527 0
M  V30 3972 C 367.657 3.21467 -1.56186 0
M  V30 3973 C 367.486 3.27422 -3.08261 0
M  V30 3974 C 366.256 3.36415 -3.77032 0
M  V30 3975 C 368.454 3.15947 -4.0581 0
M  V30 3976 N 366.436 3.31554 -5.16667 0
M  V30 3977 C 367.807 3.18514 -5.31929 0
M  V30 3978 C 369.862 2.99945 -3.97413 0
M  V30 3979 C 368.565 3.06723 -6.50625 0
M  V30 3980 C 370.591 2.89497 -5.15699 0
M  V30 3981 C 369.953 2.92702 -6.40706 0
M  V30 3982 H 366.052 0.6641 -0.412911 0
M  V30 3983 H 368.636 1.24762 -1.49474 0
M  V30 3984 H 366.807 3.73245 -1.07436 0
M  V30 3985 H 368.539 3.8322 -1.30093 0
M  V30 3986 H 365.294 3.41887 -3.27735 0
M  V30 3987 H 365.718 3.3258 -5.89678 0
M  V30 3988 H 370.36 2.96302 -3.01604 0
M  V30 3989 H 368.078 3.0912 -7.46639 0
M  V30 3990 H 371.664 2.78179 -5.10987 0
M  V30 3991 H 370.544 2.84697 -7.30696 0
M  V30 3992 N 368.047 0.979072 1.23499 0
M  V30 3993 C 368.957 0.526431 2.28617 0
M  V30 3994 C 369.973 -0.418126 1.68901 0
M  V30 3995 O 371.149 -0.288372 1.99325 0
M  V30 3996 C 368.214 -0.165235 3.46306 0
M  V30 3997 C 367.275 0.82056 4.21385 0
M  V30 3998 C 366.508 0.161807 5.33455 0
M  V30 3999 O 366.731 -1.04742 5.60701 0
M  V30 4000 O 365.665 0.859708 5.95729 0
M  V30 4001 H 369.491 1.4006 2.69475 0
M  V30 4002 H 367.076 0.746643 1.29405 0
M  V30 4003 H 368.958 -0.553287 4.17752 0
M  V30 4004 H 367.633 -1.01419 3.07402 0
M  V30 4005 H 366.54 1.25929 3.52268 0
M  V30 4006 H 367.873 1.63828 4.64135 0
M  V30 4007 N 369.525 -1.3858 0.750561 0
M  V30 4008 C 370.773 -1.99789 0.30477 0
M  V30 4009 C 371.094 -1.59874 -1.11649 0
M  V30 4010 O 370.364 -0.85417 -1.76297 0
M  V30 4011 H 368.944 -0.738902 0.109694 0
M  V30 4012 H 371.606 -1.69391 0.963983 0
M  V30 4013 H 370.702 -3.09952 0.365499 0
M  V30 4014 N 371.003 -0.499398 -1.49478 0
M  V30 4015 C 371.933 0.269244 -2.31943 0
M  V30 4016 C 372.914 0.964054 -1.40143 0
M  V30 4017 O 374.099 0.955767 -1.69052 0
M  V30 4018 C 371.229 1.33504 -3.20615 0
M  V30 4019 C 370.183 0.760202 -4.21195 0
M  V30 4020 C 369.509 1.9264 -4.98792 0
M  V30 4021 C 370.809 -0.247661 -5.21712 0
M  V30 4022 H 372.503 -0.419082 -2.96452 0
M  V30 4023 H 370.049 -0.202988 -1.42562 0
M  V30 4024 H 372.002 1.88048 -3.77115 0
M  V30 4025 H 370.726 2.05253 -2.54045 0
M  V30 4026 H 369.385 0.23653 -3.65836 0
M  V30 4027 H 369.033 2.63154 -4.28671 0
M  V30 4028 H 368.733 1.54785 -5.66847 0
M  V30 4029 H 370.257 2.4762 -5.58137 0
M  V30 4030 H 371.671 0.209579 -5.72917 0
M  V30 4031 H 370.068 -0.541962 -5.97648 0
M  V30 4032 H 371.138 -1.16409 -4.7072 0
M  V30 4033 N 372.481 1.55866 -0.233164 0
M  V30 4034 C 373.727 1.99643 0.389148 0
M  V30 4035 C 374.082 1.11836 1.56558 0
M  V30 4036 O 373.375 0.170848 1.90837 0
M  V30 4037 C 373.569 3.46856 0.861724 0
M  V30 4038 C 373.398 4.48904 -0.267376 0
M  V30 4039 C 372.168 4.99888 -0.737577 0
M  V30 4040 C 374.366 5.02624 -1.08966 0
M  V30 4041 N 372.348 5.8566 -1.84052 0
M  V30 4042 C 373.719 5.85434 -2.04125 0
M  V30 4043 C 375.774 4.84959 -1.12779 0
M  V30 4044 C 374.477 6.52466 -3.02789 0
M  V30 4045 C 376.503 5.52759 -2.10266 0
M  V30 4046 C 375.865 6.35346 -3.04162 0
M  V30 4047 H 371.964 0.774402 0.108742 0
M  V30 4048 H 374.548 1.91572 -0.347596 0
M  V30 4049 H 372.719 3.55352 1.5678 0
M  V30 4050 H 374.451 3.77531 1.45783 0
M  V30 4051 H 371.206 4.7249 -0.324122 0
M  V30 4052 H 371.63 6.33246 -2.39434 0
M  V30 4053 H 376.272 4.20751 -0.415749 0
M  V30 4054 H 373.99 7.15849 -3.74948 0
M  V30 4055 H 377.576 5.41051 -2.13905 0
M  V30 4056 H 376.456 6.86883 -3.78366 0
M  V30 4057 N 373.959 -0.0401083 1.57549 0
M  V30 4058 C 374.907 -1.06264 2.06908 0
M  V30 4059 C 375.901 -1.38132 0.980608 0
M  V30 4060 O 377.107 -1.37167 1.16556 0
M  V30 4061 H 373.482 -0.360166 0.660139 0
M  V30 4062 H 375.453 -0.620445 2.91878 0
M  V30 4063 C 374.202 -2.35846 2.55483 0
M  V30 4064 H 373.525 -2.12183 3.38849 0
M  V30 4065 H 374.965 -3.05765 2.93741 0
M  V30 4066 C 373.424 -3.0404 1.45126 0
M  V30 4067 O 373.954 -3.93424 0.811216 0
M  V30 4068 N 372.16 -2.65184 1.18852 0
M  V30 4069 H 371.707 -1.92584 1.71083 0
M  V30 4070 H 371.665 -3.1113 0.452244 0
M  V30 4071 N 375.437 -1.54477 -0.31217 0
M  V30 4072 C 376.385 -1.85395 -1.40469 0
M  V30 4073 C 377.379 -0.726749 -1.53019 0
M  V30 4074 O 378.585 -0.910582 -1.55269 0
M  V30 4075 H 374.96 -0.587845 -0.46898 0
M  V30 4076 H 376.931 -2.76736 -1.11623 0
M  V30 4077 C 375.68 -2.10811 -2.76503 0
M  V30 4078 H 375.003 -2.97014 -2.67625 0
M  V30 4079 H 376.443 -2.3639 -3.51988 0
M  V30 4080 C 374.902 -0.903165 -3.24568 0
M  V30 4081 O 375.432 -0.118085 -4.01526 0
M  V30 4082 N 373.638 -0.711634 -2.81752 0
M  V30 4083 H 373.185 -1.35171 -2.19286 0
M  V30 4084 H 373.143 0.0930473 -3.14262 0
M  V30 4085 N 376.915 0.57481 -1.46744 0
M  V30 4086 C 378.143 1.35856 -1.56047 0
M  V30 4087 C 378.558 1.87691 -0.204365 0
M  V30 4088 O 377.915 1.64049 0.79963 0
M  V30 4089 C 377.966 2.54066 -2.57163 0
M  V30 4090 O 377.687 2.04377 -3.87507 0
M  V30 4091 C 379.188 3.46514 -2.76483 0
M  V30 4092 H 376.408 0.414754 -0.527466 0
M  V30 4093 H 378.952 0.698035 -1.92218 0
M  V30 4094 H 377.107 3.16092 -2.23974 0
M  V30 4095 H 377.521 2.81419 -4.4261 0
M  V30 4096 H 378.995 4.25919 -3.51137 0
M  V30 4097 H 379.472 3.98951 -1.83671 0
M  V30 4098 H 380.078 2.90318 -3.10799 0
M  V30 4099 N 378.394 1.34581 0.820102 0
M  V30 4100 C 379.622 1.3018 1.60813 0
M  V30 4101 C 380.037 -0.123551 1.88395 0
M  V30 4102 O 379.394 -1.07148 1.47735 0
M  V30 4103 C 379.445 2.09312 2.94739 0
M  V30 4104 O 379.166 3.46288 2.68358 0
M  V30 4105 C 380.667 2.1234 3.89136 0
M  V30 4106 H 377.887 0.447726 0.499782 0
M  V30 4107 H 380.431 1.77237 1.02017 0
M  V30 4108 H 378.586 1.65889 3.50085 0
M  V30 4109 H 379 3.87227 3.53774 0
M  V30 4110 H 380.474 2.72126 4.80262 0
M  V30 4111 H 380.951 1.11854 4.24718 0
M  V30 4112 H 381.557 2.55864 3.39726 0
M  V30 4113 N 379.872 -1.04064 1.18357 0
M  V30 4114 C 381.283 -1.58719 0.98312 0
M  V30 4115 C 381.634 -1.90556 -0.467193 0
M  V30 4116 O 380.759 -1.69561 -1.34454 0
M  V30 4117 C 381.354 -2.88379 1.77828 0
M  V30 4118 C 379.913 -3.3965 1.62218 0
M  V30 4119 C 379.06 -2.13235 1.77274 0
M  V30 4120 H 382.011 -0.867359 1.32901 0
M  V30 4121 H 382.032 -3.58773 1.26737 0
M  V30 4122 H 381.544 -2.65176 2.83379 0
M  V30 4123 H 379.645 -3.67866 0.592036 0
M  V30 4124 H 379.758 -4.13475 2.42023 0
M  V30 4125 H 378.122 -2.24542 1.20221 0
M  V30 4126 H 378.905 -1.92487 2.8426 0
M  V30 4127 N 381.35 -0.985608 -1.22978 0
M  V30 4128 C 382.596 -0.65836 -1.91816 0
M  V30 4129 C 382.929 0.806692 -1.76653 0
M  V30 4130 O 382.204 1.58252 -1.13078 0
M  V30 4131 C 382.487 -1.056 -3.44268 0
M  V30 4132 C 382.34 -2.57906 -3.68516 0
M  V30 4133 C 383.659 -0.603781 -4.35939 0
M  V30 4134 H 380.778 -0.24065 -0.696604 0
M  V30 4135 H 383.42 -1.22783 -1.44998 0
M  V30 4136 H 381.57 -0.571445 -3.84274 0
M  V30 4137 H 383.242 -3.13976 -3.3796 0
M  V30 4138 H 381.485 -3.00305 -3.13048 0
M  V30 4139 H 382.156 -2.80779 -4.75255 0
M  V30 4140 H 384.632 -1.01987 -4.03408 0
M  V30 4141 H 383.508 -0.910383 -5.41298 0
M  V30 4142 H 383.769 0.495761 -4.39312 0
M  V30 4143 N 382.828 1.3818 -0.7579 0
M  V30 4144 C 383.791 2.28764 -0.141286 0
M  V30 4145 C 384.791 1.47388 0.642907 0
M  V30 4146 O 385.981 1.67781 0.468536 0
M  V30 4147 C 383.113 3.31184 0.808069 0
M  V30 4148 H 384.306 2.848 -0.939633 0
M  V30 4149 H 381.859 1.47212 -0.525191 0
M  V30 4150 H 382.594 2.80247 1.63193 0
M  V30 4151 H 382.379 3.91314 0.248104 0
M  V30 4152 H 383.869 3.98909 1.23536 0
M  V30 4153 N 384.306 0.507319 1.49211 0
M  V30 4154 C 385.552 -0.0350047 2.0277 0
M  V30 4155 C 385.885 -1.3606 1.38569 0
M  V30 4156 O 385.16 -1.87321 0.523542 0
M  V30 4157 C 385.443 -0.180916 3.59645 0
M  V30 4158 C 385.296 1.16825 4.34364 0
M  V30 4159 C 386.615 -0.918558 4.30407 0
M  V30 4160 H 383.734 -0.0112473 0.736914 0
M  V30 4161 H 386.376 0.659956 1.7817 0
M  V30 4162 H 384.526 -0.772826 3.80736 0
M  V30 4163 H 386.198 1.79952 4.24753 0
M  V30 4164 H 384.441 1.75594 3.96673 0
M  V30 4165 H 385.112 1.01939 5.42506 0
M  V30 4166 H 387.588 -0.41649 4.1401 0
M  V30 4167 H 386.464 -0.989505 5.39907 0
M  V30 4168 H 386.725 -1.96373 3.96093 0
M  V30 4169 N 385.784 -1.5574 0.241426 0
M  V30 4170 C 386.731 -2.21149 -0.660432 0
M  V30 4171 C 387.701 -1.17356 -1.17545 0
M  V30 4172 O 388.886 -1.45784 -1.23093 0
M  V30 4173 C 386.026 -2.91059 -1.85414 0
M  V30 4174 C 385.139 -4.09495 -1.37616 0
M  V30 4175 C 384.274 -4.67135 -2.529 0
M  V30 4176 C 383.313 -5.77831 -2.01936 0
M  V30 4177 N 382.45 -6.29677 -3.10566 0
M  V30 4178 H 387.29 -2.97845 -0.095955 0
M  V30 4179 H 384.827 -1.47057 -0.0356024 0
M  V30 4180 H 386.785 -3.29788 -2.5553 0
M  V30 4181 H 385.415 -2.16846 -2.39118 0
M  V30 4182 H 384.467 -3.76117 -0.569235 0
M  V30 4183 H 385.779 -4.89423 -0.962618 0
M  V30 4184 H 384.933 -5.08409 -3.31067 0
M  V30 4185 H 383.672 -3.86411 -2.97553 0
M  V30 4186 H 382.677 -5.36039 -1.22238 0
M  V30 4187 H 383.902 -6.60402 -1.58259 0
M  V30 4188 H 381.848 -5.5186 -3.54664 0
M  V30 4189 H 381.765 -7.04783 -2.73526 0
M  V30 4190 H 383.033 -6.75609 -3.88809 0
M  V30 4191 N 387.262 0.0317525 -1.57568 0
M  V30 4192 C 388.49 0.734949 -1.93407 0
M  V30 4193 C 388.905 1.69036 -0.84096 0
M  V30 4194 O 388.262 1.81582 0.182836 0
M  V30 4195 C 388.313 1.49432 -3.29169 0
M  V30 4196 O 388.034 0.577261 -4.3428 0
M  V30 4197 C 389.535 2.29492 -3.79273 0
M  V30 4198 H 386.755 0.206706 -0.638368 0
M  V30 4199 H 389.299 -0.00992046 -2.04498 0
M  V30 4200 H 387.454 2.1911 -3.19483 0
M  V30 4201 H 387.868 1.10952 -5.1263 0
M  V30 4202 H 389.342 2.78172 -4.76785 0
M  V30 4203 H 389.819 3.10794 -3.10328 0
M  V30 4204 H 390.425 1.64894 -3.92033 0
M  V30 4205 N 388.74 1.54641 0.303973 0
M  V30 4206 C 389.67 1.88386 1.3796 0
M  V30 4207 C 390.651 0.742485 1.5304 0
M  V30 4208 O 391.836 0.997959 1.66597 0
M  V30 4209 C 388.966 2.12854 2.74427 0
M  V30 4210 C 387.92 3.28702 2.74115 0
M  V30 4211 C 387.246 3.38582 4.13844 0
M  V30 4212 C 388.546 4.65881 2.3612 0
M  V30 4213 H 390.24 2.78474 1.09966 0
M  V30 4214 H 387.786 1.33988 0.527556 0
M  V30 4215 H 389.739 2.35047 3.49758 0
M  V30 4216 H 388.463 1.19535 3.03939 0
M  V30 4217 H 387.122 3.06428 2.0124 0
M  V30 4218 H 386.77 2.42784 4.40528 0
M  V30 4219 H 386.47 4.16453 4.14537 0
M  V30 4220 H 387.994 3.63031 4.90959 0
M  V30 4221 H 389.408 4.87823 3.01167 0
M  V30 4222 H 387.805 5.46444 2.48031 0
M  V30 4223 H 388.875 4.66799 1.3125 0
M  V30 4224 N 390.218 -0.567019 1.47046 0
M  V30 4225 C 391.165 -1.67489 1.58796 0
M  V30 4226 C 392.135 -1.60399 0.43144 0
M  V30 4227 O 393.32 -1.79378 0.650233 0
M  V30 4228 C 390.46 -3.05821 1.59899 0
M  V30 4229 C 389.573 -3.2342 2.86397 0
M  V30 4230 C 388.708 -4.52093 2.789 0
M  V30 4231 C 387.747 -4.6309 4.00267 0
M  V30 4232 N 386.884 -5.83106 3.91064 0
M  V30 4233 H 391.724 -1.56785 2.53422 0
M  V30 4234 H 389.261 -0.763896 1.2571 0
M  V30 4235 H 391.219 -3.8591 1.58522 0
M  V30 4236 H 389.849 -3.15384 0.687929 0
M  V30 4237 H 388.901 -2.3683 2.97684 0
M  V30 4238 H 390.213 -3.27412 3.76301 0
M  V30 4239 H 389.367 -5.4043 2.75718 0
M  V30 4240 H 388.106 -4.50565 1.86662 0
M  V30 4241 H 387.111 -3.73168 4.03765 0
M  V30 4242 H 388.336 -4.66386 4.93621 0
M  V30 4243 H 386.282 -5.82546 3.01623 0
M  V30 4244 H 386.199 -5.88434 4.74638 0
M  V30 4245 H 387.467 -6.73831 3.91882 0
M  V30 4246 N 391.696 -1.35014 -0.812953 0
M  V30 4247 C 393.107 -1.25035 -1.38648 0
M  V30 4248 C 393.458 0.119967 -1.95833 0
M  V30 4249 O 392.583 1.02069 -1.90816 0
M  V30 4250 C 393.178 -2.26394 -2.52054 0
M  V30 4251 C 391.737 -2.20175 -3.05287 0
M  V30 4252 C 390.884 -2.12451 -1.78213 0
M  V30 4253 H 393.835 -1.46235 -0.616516 0
M  V30 4254 H 393.856 -1.88672 -3.30429 0
M  V30 4255 H 393.368 -3.26116 -2.10404 0
M  V30 4256 H 391.469 -1.23841 -3.51417 0
M  V30 4257 H 391.582 -3.11863 -3.63701 0
M  V30 4258 H 389.946 -1.58328 -1.9951 0
M  V30 4259 H 390.729 -3.14024 -1.38723 0
M  V30 4260 N 393.175 1.03435 -1.18907 0
M  V30 4261 C 394.423 1.76394 -0.986382 0
M  V30 4262 C 394.744 1.88883 0.484567 0
M  V30 4263 O 394.014 1.41843 1.3512 0
M  V30 4264 H 392.594 0.65344 -0.361975 0
M  V30 4265 H 395.256 1.248 -1.49703 0
M  V30 4266 H 394.352 2.77424 -1.42978 0
M  V30 4267 N 394.653 0.992116 1.22453 0
M  V30 4268 C 395.878 0.685644 1.95739 0
M  V30 4269 C 396.303 -0.743 1.72804 0
M  V30 4270 O 395.661 -1.50778 1.00676 0
M  V30 4271 C 395.709 0.996293 3.46564 0
M  V30 4272 O 394.813 0.0945512 4.12292 0
M  V30 4273 H 394.154 0.256694 0.612376 0
M  V30 4274 H 396.684 1.32888 1.5557 0
M  V30 4275 H 396.694 0.93781 3.97076 0
M  V30 4276 H 395.369 2.03733 3.62582 0
M  V30 4277 H 393.946 0.208451 3.72317 0
M  V30 4278 N 396.131 -1.37776 0.765217 0
M  V30 4279 C 397.064 -2.28008 0.0935025 0
M  V30 4280 C 398.042 -1.45985 -0.716047 0
M  V30 4281 O 399.226 -1.75331 -0.692203 0
M  V30 4282 C 396.353 -3.27228 -0.874052 0
M  V30 4283 C 395.399 -4.26239 -0.149307 0
M  V30 4284 S 396.232 -5.22827 1.15809 0
M  V30 4285 C 397.388 -6.256 0.193906 0
M  V30 4286 H 397.621 -2.84631 0.858637 0
M  V30 4287 H 395.154 -1.43952 0.558313 0
M  V30 4288 H 397.112 -3.84902 -1.42691 0
M  V30 4289 H 395.773 -2.69565 -1.61225 0
M  V30 4290 H 394.966 -4.96213 -0.88254 0
M  V30 4291 H 394.568 -3.7252 0.332366 0
M  V30 4292 H 396.86 -6.74508 -0.636011 0
M  V30 4293 H 397.803 -7.02838 0.861638 0
M  V30 4294 H 398.211 -5.64173 -0.191975 0
M  V30 4295 N 397.609 -0.515225 -1.4894 0
M  V30 4296 C 398.886 0.0879088 -1.95402 0
M  V30 4297 C 399.266 1.52745 -1.45712 0
M  V30 4298 O 398.614 2.18238 -0.677093 0
M  V30 4299 C 398.824 -0.0141055 -3.48997 0
M  V30 4300 C 400.172 0.152646 -4.24326 0
M  V30 4301 O 401.196 0.0604025 -3.56149 0
M  V30 4302 O 400.055 0.34384 -5.45417 0
M  V30 4303 H 397.149 0.0874636 -0.822362 0
M  V30 4304 H 399.695 -0.578775 -1.59525 0
M  V30 4305 H 398.467 -1.01745 -3.77841 0
M  V30 4306 H 398.09 0.692091 -3.9153 0
M  V30 4307 N 399.087 1.5561 -0.249682 0
M  V30 4308 C 400.498 1.84979 0.252949 0
M  V30 4309 C 400.849 1.17153 1.57384 0
M  V30 4310 O 399.974 0.450884 2.11651 0
M  V30 4311 C 400.569 3.35584 0.465732 0
M  V30 4312 C 399.128 3.65169 0.912624 0
M  V30 4313 C 398.275 2.77299 -0.00859085 0
M  V30 4314 H 401.226 1.51513 -0.47217 0
M  V30 4315 H 401.247 3.57313 1.30795 0
M  V30 4316 H 400.759 3.8492 -0.49579 0
M  V30 4317 H 398.86 3.21312 1.88652 0
M  V30 4318 H 398.973 4.72912 0.767559 0
M  V30 4319 H 397.337 2.49678 0.50327 0
M  V30 4320 H 398.12 3.29442 -0.965537 0
M  V30 4321 N 400.565 -0.0233959 1.57583 0
M  V30 4322 C 401.513 -1.04063 2.08023 0
M  V30 4323 C 402.507 -1.37084 0.995204 0
M  V30 4324 O 403.713 -1.35923 1.18004 0
M  V30 4325 H 400.088 -0.353144 0.663922 0
M  V30 4326 H 402.059 -0.589453 2.9252 0
M  V30 4327 C 400.808 -2.33123 2.57971 0
M  V30 4328 H 400.131 -2.08577 3.4108 0
M  V30 4329 H 401.571 -3.02632 2.96967 0
M  V30 4330 C 400.03 -3.02483 1.48342 0
M  V30 4331 O 400.56 -3.92541 0.852898 0
M  V30 4332 N 398.766 -2.63909 1.21658 0
M  V30 4333 H 398.313 -1.90758 1.73116 0
M  V30 4334 H 398.271 -3.10633 0.485218 0
M  V30 4335 N 402.043 -1.548 -0.295768 0
M  V30 4336 C 403.32 -1.65014 -1.05023 0
M  V30 4337 C 403.7 -0.501805 -2.05049 0
M  V30 4338 O 403.048 0.500869 -2.22943 0
M  V30 4339 C 403.258 -3.03252 -1.72741 0
M  V30 4340 C 404.606 -3.60242 -2.24746 0
M  V30 4341 O 405.63 -3.05737 -1.82765 0
M  V30 4342 O 404.489 -4.55687 -3.01681 0
M  V30 4343 H 401.583 -0.669314 -0.485744 0
M  V30 4344 H 404.129 -1.67144 -0.293438 0
M  V30 4345 H 402.901 -3.7827 -1.00138 0
M  V30 4346 H 402.524 -3.04922 -2.55163 0
M  V30 4347 N 403.521 0.559213 -1.47345 0
M  V30 4348 C 404.768 1.31648 -1.53867 0
M  V30 4349 C 405.096 1.93468 -0.200104 0
M  V30 4350 O 404.351 1.78295 0.806799 0
M  V30 4351 C 404.65 2.44853 -2.6035 0
M  V30 4352 C 404.316 2.00876 -4.03683 0
M  V30 4353 C 402.978 1.88599 -4.42701 0
M  V30 4354 C 405.33 1.67279 -4.93626 0
M  V30 4355 C 402.658 1.41017 -5.69501 0
M  V30 4356 C 405.01 1.21169 -6.20887 0
M  V30 4357 C 403.674 1.07487 -6.58789 0
M  V30 4358 H 402.944 0.481734 -0.56304 0
M  V30 4359 H 405.591 0.627301 -1.80934 0
M  V30 4360 H 403.896 3.19318 -2.27032 0
M  V30 4361 H 405.593 3.03039 -2.62619 0
M  V30 4362 H 402.183 2.11374 -3.72853 0
M  V30 4363 H 406.367 1.75638 -4.64182 0
M  V30 4364 H 401.623 1.29086 -5.97618 0
M  V30 4365 H 405.797 0.942345 -6.89995 0
M  V30 4366 H 403.424 0.703946 -7.56934 0
M  V30 4367 N 404.999 1.35443 0.805782 0
M  V30 4368 C 405.929 1.31095 1.93226 0
M  V30 4369 C 406.91 0.185244 1.69088 0
M  V30 4370 O 408.095 0.380332 1.90439 0
M  V30 4371 C 405.225 1.08299 3.29983 0
M  V30 4372 C 404.179 2.17519 3.68605 0
M  V30 4373 C 403.505 1.79887 5.03532 0
M  V30 4374 C 404.805 3.5949 3.78898 0
M  V30 4375 H 406.499 2.25352 1.97122 0
M  V30 4376 H 404.045 1.0848 0.946996 0
M  V30 4377 H 405.998 1.03897 4.08391 0
M  V30 4378 H 404.722 0.104885 3.26432 0
M  V30 4379 H 403.381 2.2102 2.92482 0
M  V30 4380 H 403.029 0.80693 4.96485 0
M  V30 4381 H 402.729 2.53001 5.30344 0
M  V30 4382 H 404.253 1.77011 5.84379 0
M  V30 4383 H 405.667 3.58307 4.47536 0
M  V30 4384 H 404.064 4.31371 4.1718 0
M  V30 4385 H 405.134 3.95584 2.80431 0
M  V30 4386 N 406.477 -1.02803 1.19454 0
M  V30 4387 C 407.893 -1.28473 0.946937 0
M  V30 4388 C 408.093 -1.97881 -0.380202 0
M  V30 4389 O 407.149 -2.26719 -1.11151 0
M  V30 4390 C 408.462 -2.13099 2.12154 0
M  V30 4391 C 410.01 -2.26404 2.16126 0
M  V30 4392 C 410.485 -3.14402 3.33039 0
M  V30 4393 N 411.976 -3.21991 3.32981 0
M  V30 4394 C 412.711 -3.90272 4.20089 0
M  V30 4395 N 412.207 -4.60777 5.17355 0
M  V30 4396 N 414 -3.8668 4.07964 0
M  V30 4397 H 406.151 -0.561665 2.04839 0
M  V30 4398 H 408.414 -0.310438 0.89573 0
M  V30 4399 H 408.12 -1.69422 3.08203 0
M  V30 4400 H 407.994 -3.13813 2.09287 0
M  V30 4401 H 410.381 -2.69311 1.20647 0
M  V30 4402 H 410.462 -1.25237 2.23045 0
M  V30 4403 H 410.106 -2.72204 4.28798 0
M  V30 4404 H 410.036 -4.1563 3.23356 0
M  V30 4405 H 412.527 -2.71778 2.62574 0
M  V30 4406 H 412.84 -5.10513 5.80169 0
M  V30 4407 H 411.185 -4.5964 5.21302 0
M  V30 4408 H 414.376 -3.30739 3.31254 0
M  V30 4409 H 414.549 -4.39621 4.76064 0
M  V30 4410 N 407.956 -0.998596 -1.21925 0
M  V30 4411 C 408.866 -0.562736 -2.27751 0
M  V30 4412 C 409.882 0.391203 -1.69545 0
M  V30 4413 O 411.058 0.256625 -1.99758 0
M  V30 4414 C 408.123 0.11012 -3.46525 0
M  V30 4415 C 407.184 -0.887495 -4.20026 0
M  V30 4416 C 406.417 -0.246654 -5.3313 0
M  V30 4417 O 406.64 0.958088 -5.62296 0
M  V30 4418 O 405.574 -0.954374 -5.94286 0
M  V30 4419 H 409.4 -1.44329 -2.67213 0
M  V30 4420 H 406.985 -0.767135 -1.28201 0
M  V30 4421 H 408.867 0.486756 -4.18579 0
M  V30 4422 H 407.542 0.965154 -3.08976 0
M  V30 4423 H 406.449 -1.31517 -3.5022 0
M  V30 4424 H 407.782 -1.71191 -4.6147 0
M  V30 4425 N 409.434 1.37368 -0.772513 0
M  V30 4426 C 410.397 2.28601 -0.165541 0
M  V30 4427 C 411.397 1.48062 0.627238 0
M  V30 4428 O 412.587 1.68268 0.450715 0
M  V30 4429 C 409.719 3.32023 0.772897 0
M  V30 4430 H 410.912 2.83787 -0.969787 0
M  V30 4431 H 408.465 1.46647 -0.540775 0
M  V30 4432 H 409.2 2.81962 1.60212 0
M  V30 4433 H 408.985 3.91555 0.206585 0
M  V30 4434 H 410.475 4.00197 1.19298 0
M  V30 4435 N 410.912 0.523116 1.48665 0
M  V30 4436 C 411.844 -0.280421 2.27478 0
M  V30 4437 C 412.857 -0.910694 1.34945 0
M  V30 4438 O 414.046 -0.790295 1.60052 0
M  V30 4439 C 411.146 -1.41171 3.08097 0
M  V30 4440 C 410.319 -0.884642 4.28361 0
M  V30 4441 C 409.378 -1.89622 4.90846 0
M  V30 4442 O 408.404 -1.4559 5.50265 0
M  V30 4443 N 409.606 -3.22801 4.82472 0
M  V30 4444 H 412.371 0.395481 2.97079 0
M  V30 4445 H 409.932 0.357018 1.57915 0
M  V30 4446 H 411.924 -2.08645 3.4677 0
M  V30 4447 H 410.494 -1.99139 2.40961 0
M  V30 4448 H 409.714 -0.0341177 3.94185 0
M  V30 4449 H 411.002 -0.511268 5.06225 0
M  V30 4450 H 410.4 -3.61246 4.35336 0
M  V30 4451 H 408.957 -3.85927 5.25265 0
M  V30 4452 N 412.39 -1.55475 0.257931 0
M  V30 4453 C 413.639 -1.98383 -0.364275 0
M  V30 4454 C 413.952 -1.14952 -1.58258 0
M  V30 4455 O 415.158 -1.47924 -2.27664 0
M  V30 4456 C 413.614 -3.53037 -0.699479 0
M  V30 4457 C 413.222 -4.45223 0.498046 0
M  V30 4458 C 414.966 -4.04575 -1.28526 0
M  V30 4459 C 412.873 -5.91238 0.138383 0
M  V30 4460 H 411.803 -0.740911 -0.13988 0
M  V30 4461 H 414.454 -1.79936 0.359883 0
M  V30 4462 H 412.836 -3.6722 -1.48207 0
M  V30 4463 H 414.01 -4.42803 1.27522 0
M  V30 4464 H 412.325 -4.04226 0.999503 0
M  V30 4465 H 414.922 -5.11196 -1.56788 0
M  V30 4466 H 415.265 -3.5258 -2.21344 0
M  V30 4467 H 415.798 -3.93762 -0.565337 0
M  V30 4468 H 412.537 -6.47294 1.03398 0
M  V30 4469 H 412.057 -5.96768 -0.602374 0
M  V30 4470 H 413.736 -6.46413 -0.27553 0
M  V30 4471 N 413.868 0.0150385 -1.57593 0
M  V30 4472 C 414.801 1.04475 -2.0288 0
M  V30 4473 C 415.779 1.3436 -0.915764 0
M  V30 4474 O 416.963 1.46779 -1.18271 0
M  V30 4475 C 414.09 2.37608 -2.41371 0
M  V30 4476 C 413.136 2.23487 -3.63257 0
M  V30 4477 S 413.969 1.57505 -5.11813 0
M  V30 4478 C 415.125 2.921 -5.5356 0
M  V30 4479 H 415.358 0.65907 -2.89903 0
M  V30 4480 H 412.891 0.225452 -1.52745 0
M  V30 4481 H 414.849 3.14165 -2.64217 0
M  V30 4482 H 413.51 2.7332 -1.54775 0
M  V30 4483 H 412.703 3.21802 -3.87891 0
M  V30 4484 H 412.305 1.55074 -3.40335 0
M  V30 4485 H 414.597 3.88419 -5.55101 0
M  V30 4486 H 415.54 2.72184 -6.53698 0
M  V30 4487 H 415.948 2.95318 -4.8109 0
M  V30 4488 N 415.346 1.54954 0.287554 0
M  V30 4489 C 416.293 1.86834 1.35505 0
M  V30 4490 C 417.263 0.718452 1.49758 0
M  V30 4491 O 418.448 0.968358 1.644 0
M  V30 4492 C 415.588 2.13303 2.71286 0
M  V30 4493 C 414.701 3.40883 2.65373 0
M  V30 4494 C 413.836 3.57125 3.93236 0
M  V30 4495 C 412.875 4.78449 3.81776 0
M  V30 4496 N 412.012 4.91426 5.01443 0
M  V30 4497 H 416.852 2.77889 1.07619 0
M  V30 4498 H 414.389 1.37593 0.520241 0
M  V30 4499 H 416.347 2.26646 3.50267 0
M  V30 4500 H 414.977 1.25499 2.97405 0
M  V30 4501 H 414.029 3.36088 1.78182 0
M  V30 4502 H 415.341 4.29993 2.52799 0
M  V30 4503 H 414.495 3.70207 4.80658 0
M  V30 4504 H 413.234 2.66173 4.0866 0
M  V30 4505 H 412.239 4.65386 2.92738 0
M  V30 4506 H 413.464 5.70822 3.67884 0
M  V30 4507 H 411.41 4.03401 5.17304 0
M  V30 4508 H 411.327 5.74559 4.91343 0
M  V30 4509 H 412.595 5.08879 5.90477 0
M  V30 4510 N 416.824 -0.551391 1.4764 0
M  V30 4511 C 417.772 -1.67896 1.60978 0
M  V30 4512 C 418.766 -1.62549 0.476877 0
M  V30 4513 O 419.972 -1.67664 0.654878 0
M  V30 4514 H 416.347 -0.555649 0.506713 0
M  V30 4515 H 418.318 -1.53784 2.55721 0
M  V30 4516 C 417.067 -3.06234 1.64669 0
M  V30 4517 H 416.39 -3.11033 2.51194 0
M  V30 4518 H 417.83 -3.84804 1.7805 0
M  V30 4519 C 416.289 -3.34737 0.381115 0
M  V30 4520 O 416.819 -3.98381 -0.515297 0
M  V30 4521 N 415.025 -2.8944 0.259354 0
M  V30 4522 H 414.572 -2.37827 0.98976 0
M  V30 4523 H 414.53 -3.08882 -0.586464 0
M  V30 4524 N 418.302 -1.35869 -0.798587 0
M  V30 4525 C 419.232 -1.32118 -1.92528 0
M  V30 4526 C 420.213 -0.194209 -1.68988 0
M  V30 4527 O 421.398 -0.390426 -1.90235 0
M  V30 4528 C 418.528 -1.10047 -3.29404 0
M  V30 4529 C 417.482 -2.19471 -3.67446 0
M  V30 4530 C 416.808 -1.82555 -5.02571 0
M  V30 4531 C 418.108 -3.61495 -3.76987 0
M  V30 4532 H 419.802 -2.26394 -1.95924 0
M  V30 4533 H 417.348 -1.08981 -0.94123 0
M  V30 4534 H 419.301 -1.06061 -4.07835 0
M  V30 4535 H 418.025 -0.122195 -3.26371 0
M  V30 4536 H 416.684 -2.22568 -2.91306 0
M  V30 4537 H 416.332 -0.833249 -4.9605 0
M  V30 4538 H 416.032 -2.5581 -5.28995 0
M  V30 4539 H 417.556 -1.80108 -5.83432 0
M  V30 4540 H 418.97 -3.60676 -4.4563 0
M  V30 4541 H 417.367 -4.33577 -4.14887 0
M  V30 4542 H 418.437 -3.97065 -2.78329 0
M  V30 4543 N 419.78 1.02168 -1.19998 0
M  V30 4544 C 421.196 1.27969 -0.953737 0
M  V30 4545 C 421.396 1.98079 0.369703 0
M  V30 4546 O 420.452 2.27306 1.09947 0
M  V30 4547 C 421.765 2.11971 -2.13281 0
M  V30 4548 C 423.313 2.25255 -2.17323 0
M  V30 4549 C 423.788 3.12632 -3.34702 0
M  V30 4550 N 425.279 3.2022 -3.34684 0
M  V30 4551 C 426.014 3.88039 -4.22153 0
M  V30 4552 N 425.51 4.58027 -5.19791 0
M  V30 4553 N 427.303 3.84511 -4.10009 0
M  V30 4554 H 419.454 0.550794 -2.05134 0
M  V30 4555 H 421.717 0.305683 -0.897364 0
M  V30 4556 H 421.423 1.67785 -3.09097 0
M  V30 4557 H 421.297 3.12699 -2.10949 0
M  V30 4558 H 423.684 2.68667 -1.22073 0
M  V30 4559 H 423.765 1.24053 -2.23706 0
M  V30 4560 H 423.409 2.69926 -4.30235 0
M  V30 4561 H 423.339 4.13909 -3.25556 0
M  V30 4562 H 425.83 2.70382 -2.64012 0
M  V30 4563 H 426.143 5.07429 -5.82868 0
M  V30 4564 H 424.488 4.56869 -5.23733 0
M  V30 4565 H 427.679 3.28978 -3.33003 0
M  V30 4566 H 427.852 4.3709 -4.78389 0
M  V30 4567 N 421.258 1.00505 1.21394 0
M  V30 4568 C 422.208 0.536503 2.21598 0
M  V30 4569 C 423.192 -0.401914 1.55799 0
M  V30 4570 O 424.384 -0.226757 1.75541 0
M  V30 4571 C 421.513 -0.135446 3.43033 0
M  V30 4572 C 420.599 0.823992 4.16018 0
M  V30 4573 N 420.99 1.97683 4.6557 0
M  V30 4574 C 419.288 0.642387 4.4135 0
M  V30 4575 C 419.989 2.58003 5.21354 0
M  V30 4576 N 418.965 1.86162 5.1073 0
M  V30 4577 H 422.767 1.41557 2.57563 0
M  V30 4578 H 420.281 0.868878 1.37202 0
M  V30 4579 H 422.278 -0.488584 4.14027 0
M  V30 4580 H 420.938 -1.01049 3.08576 0
M  V30 4581 H 421.949 2.3572 4.61147 0
M  V30 4582 H 418.626 -0.185578 4.17087 0
M  V30 4583 H 420.016 3.555 5.70149 0
M  V30 4584 N 422.737 -1.36956 0.779787 0
M  V30 4585 C 424.148 -1.82094 0.412156 0
M  V30 4586 C 424.499 -1.64926 -1.06273 0
M  V30 4587 O 423.624 -1.16483 -1.82375 0
M  V30 4588 C 424.219 -3.3059 0.741319 0
M  V30 4589 C 422.778 -3.73974 0.426641 0
M  V30 4590 C 421.925 -2.59368 0.980987 0
M  V30 4591 H 424.876 -1.25314 0.973758 0
M  V30 4592 H 424.897 -3.80489 0.028887 0
M  V30 4593 H 424.409 -3.43054 1.81482 0
M  V30 4594 H 422.51 -3.67076 -0.639215 0
M  V30 4595 H 422.623 -4.69778 0.940515 0
M  V30 4596 H 420.987 -2.51463 0.404757 0
M  V30 4597 H 421.77 -2.74621 2.06005 0
M  V30 4598 N 424.215 -0.530993 -1.48385 0
M  V30 4599 C 425.162 0.231223 -2.29639 0
M  V30 4600 C 426.132 0.932864 -1.37429 0
M  V30 4601 O 427.317 0.933692 -1.66394 0
M  V30 4602 C 424.457 1.27155 -3.2082 0
M  V30 4603 C 423.57 0.578655 -4.28107 0
M  V30 4604 C 422.705 1.602 -5.06467 0
M  V30 4605 C 421.744 0.892625 -6.05556 0
M  V30 4606 N 420.881 1.86157 -6.76971 0
M  V30 4607 H 425.721 -0.467848 -2.94305 0
M  V30 4608 H 423.258 -0.242556 -1.45086 0
M  V30 4609 H 425.216 1.88703 -3.72085 0
M  V30 4610 H 423.846 1.939 -2.58075 0
M  V30 4611 H 422.898 -0.150782 -3.80101 0
M  V30 4612 H 424.21 0.0217065 -4.98795 0
M  V30 4613 H 423.364 2.29173 -5.61751 0
M  V30 4614 H 422.103 2.19285 -4.35621 0
M  V30 4615 H 421.108 0.188829 -5.49476 0
M  V30 4616 H 422.333 0.307878 -6.78402 0
M  V30 4617 H 420.279 2.44147 -6.08875 0
M  V30 4618 H 420.196 1.35608 -7.43738 0
M  V30 4619 H 421.464 2.54325 -7.36844 0
M  V30 4620 N 425.693 1.55336 -0.266172 0
M  V30 4621 C 426.623 2.25146 0.618981 0
M  V30 4622 C 427.604 1.23845 1.16604 0
M  V30 4623 O 428.789 1.52544 1.20183 0
M  V30 4624 C 425.919 2.96572 1.80728 0
M  V30 4625 C 424.873 4.04726 1.39215 0
M  V30 4626 C 424.199 4.63678 2.66283 0
M  V30 4627 C 425.499 5.19407 0.548942 0
M  V30 4628 H 427.193 2.99377 0.0368116 0
M  V30 4629 H 424.739 1.43991 0.0162651 0
M  V30 4630 H 426.692 3.44116 2.43232 0
M  V30 4631 H 425.416 2.19861 2.41514 0
M  V30 4632 H 424.075 3.57979 0.790351 0
M  V30 4633 H 423.723 3.83646 3.25308 0
M  V30 4634 H 423.423 5.367 2.39222 0
M  V30 4635 H 424.947 5.13967 3.29651 0
M  V30 4636 H 426.361 5.63059 1.07876 0
M  V30 4637 H 424.758 5.98936 0.373593 0
M  V30 4638 H 425.828 4.8295 -0.434394 0
M  V30 4639 N 427.171 -0.0066808 1.57599 0
M  V30 4640 C 428.42 -0.692078 1.89455 0
M  V30 4641 C 428.733 -1.75306 0.867586 0
M  V30 4642 O 429.939 -2.49262 1.07614 0
M  V30 4643 C 428.395 -1.2821 3.36289 0
M  V30 4644 C 428.003 -0.256291 4.47266 0
M  V30 4645 C 429.747 -1.94608 3.77264 0
M  V30 4646 C 427.654 -0.855927 5.85173 0
M  V30 4647 H 426.584 -0.262252 0.706923 0
M  V30 4648 H 429.235 0.052769 1.83424 0
M  V30 4649 H 427.617 -2.0774 3.37135 0
M  V30 4650 H 428.791 0.513923 4.57925 0
M  V30 4651 H 427.106 0.306862 4.15268 0
M  V30 4652 H 429.703 -2.40364 4.77629 0
M  V30 4653 H 430.046 -2.77382 3.10427 0
M  V30 4654 H 430.579 -1.21822 3.78688 0
M  V30 4655 H 427.318 -0.0671161 6.55466 0
M  V30 4656 H 426.838 -1.59546 5.78191 0
M  V30 4657 H 428.517 -1.35658 6.32618 0
M  V30 4658 N 428.649 -1.55105 -0.279332 0
M  V30 4659 C 429.581 -1.83952 -1.36727 0
M  V30 4660 C 430.594 -0.723642 -1.45833 0
M  V30 4661 O 431.783 -1.00141 -1.47763 0
M  V30 4662 C 428.883 -1.98183 -2.74912 0
M  V30 4663 C 428.056 -3.28787 -2.88475 0
M  V30 4664 C 427.115 -3.33162 -4.07295 0
M  V30 4665 O 426.141 -4.06576 -3.98353 0
M  V30 4666 N 427.343 -2.60109 -5.18964 0
M  V30 4667 H 430.108 -2.77853 -1.12328 0
M  V30 4668 H 427.669 -1.54945 -0.469442 0
M  V30 4669 H 429.661 -1.98488 -3.52682 0
M  V30 4670 H 428.231 -1.11177 -2.92162 0
M  V30 4671 H 427.451 -3.41075 -1.97641 0
M  V30 4672 H 428.739 -4.14933 -2.94463 0
M  V30 4673 H 428.137 -2.00136 -5.29115 0
M  V30 4674 H 426.694 -2.66143 -5.94988 0
M  V30 4675 N 430.127 0.543554 -1.4793 0
M  V30 4676 C 431.057 1.65888 -1.64327 0
M  V30 4677 C 432.038 1.62818 -0.492383 0
M  V30 4678 O 433.223 1.80226 -0.723338 0
M  V30 4679 C 430.353 3.04506 -1.67013 0
M  V30 4680 C 429.307 3.2243 -2.81466 0
M  V30 4681 C 428.633 4.61972 -2.69233 0
M  V30 4682 C 429.933 3.06496 -4.22915 0
M  V30 4683 H 431.627 1.52421 -2.57698 0
M  V30 4684 H 429.173 0.731849 -1.24016 0
M  V30 4685 H 431.126 3.82391 -1.77074 0
M  V30 4686 H 429.85 3.18964 -0.70212 0
M  V30 4687 H 428.509 2.46957 -2.70938 0
M  V30 4688 H 428.157 4.73247 -1.7043 0
M  V30 4689 H 427.857 4.74911 -3.46025 0
M  V30 4690 H 429.381 5.41974 -2.81242 0
M  V30 4691 H 430.795 3.74186 -4.34348 0
M  V30 4692 H 429.192 3.30938 -5.006 0
M  V30 4693 H 430.262 2.03077 -4.40327 0
M  V30 4694 N 431.605 1.3629 0.791371 0
M  V30 4695 C 432.835 1.33368 1.57786 0
M  V30 4696 C 433.243 -0.0875188 1.88997 0
M  V30 4697 O 432.586 -1.05427 1.50435 0
M  V30 4698 C 432.648 2.08802 2.92646 0
M  V30 4699 C 432.312 3.57903 2.84174 0
M  V30 4700 C 433.309 4.52191 2.56553 0
M  V30 4701 C 430.994 4.00762 3.02812 0
M  V30 4702 C 432.988 5.87315 2.47669 0
M  V30 4703 C 430.675 5.35977 2.93551 0
M  V30 4704 C 431.673 6.29066 2.66017 0
M  V30 4705 O 431.361 7.61798 2.56746 0
M  V30 4706 H 431.093 0.459166 0.496128 0
M  V30 4707 H 433.647 1.79952 0.990269 0
M  V30 4708 H 431.877 1.56878 3.53449 0
M  V30 4709 H 433.566 1.98762 3.53904 0
M  V30 4710 H 434.332 4.20393 2.41858 0
M  V30 4711 H 430.211 3.2868 3.2325 0
M  V30 4712 H 433.755 6.59943 2.26099 0
M  V30 4713 H 429.652 5.67384 3.07808 0
M  V30 4714 H 430.42 7.71898 2.72242 0
M  V30 4715 N 433.083 -1.0153 1.20538 0
M  V30 4716 C 434.046 -2.0826 0.957098 0
M  V30 4717 C 435.046 -1.60657 -0.0678655 0
M  V30 4718 O 436.236 -1.73385 0.168332 0
M  V30 4719 C 433.368 -3.38033 0.441188 0
M  V30 4720 H 434.561 -2.31719 1.90384 0
M  V30 4721 H 432.114 -1.1835 1.02093 0
M  V30 4722 H 432.849 -3.20249 -0.510961 0
M  V30 4723 H 432.634 -3.73911 1.18038 0
M  V30 4724 H 434.124 -4.16613 0.287009 0
M  V30 4725 N 434.561 -1.01147 -1.20859 0
M  V30 4726 C 435.807 -0.698899 -1.90377 0
M  V30 4727 C 436.14 0.76904 -1.78324 0
M  V30 4728 O 435.415 1.55817 -1.16409 0
M  V30 4729 C 435.698 -1.12878 -3.41951 0
M  V30 4730 C 435.551 -2.65665 -3.62963 0
M  V30 4731 C 436.87 -0.696114 -4.3456 0
M  V30 4732 H 433.989 -0.255372 -0.691342 0
M  V30 4733 H 436.631 -1.25831 -1.42361 0
M  V30 4734 H 434.781 -0.652827 -3.82976 0
M  V30 4735 H 436.453 -3.21074 -3.31224 0
M  V30 4736 H 434.696 -3.06878 -3.06608 0
M  V30 4737 H 435.367 -2.90797 -4.69192 0
M  V30 4738 H 437.843 -1.10521 -4.01154 0
M  V30 4739 H 436.719 -1.025 -5.39245 0
M  V30 4740 H 436.98 0.402465 -4.40264 0
M  V30 4741 N 436.039 1.36541 -0.78704 0
M  V30 4742 C 437.279 2.01138 -0.363714 0
M  V30 4743 C 437.643 1.61114 1.04433 0
M  V30 4744 O 438.844 2.18285 1.56861 0
M  V30 4745 C 437.115 3.53603 -0.519582 0
M  V30 4746 S 438.674 4.38415 -0.183782 0
M  V30 4747 H 435.492 0.697263 -0.13909 0
M  V30 4748 H 438.094 1.66475 -1.02501 0
M  V30 4749 H 436.798 3.8022 -1.5447 0
M  V30 4750 H 436.329 3.93084 0.15773 0
M  V30 4751 H 438.344 4.85698 1.01547 0
M  V30 4752 N 437.518 0.538854 1.48102 0
M  V30 4753 C 438.746 0.0123136 2.06896 0
M  V30 4754 C 439.161 -1.27312 1.39417 0
M  V30 4755 O 438.518 -1.75949 0.484582 0
M  V30 4756 C 438.569 -0.206118 3.60912 0
M  V30 4757 O 438.29 1.0284 4.25859 0
M  V30 4758 C 439.791 -0.772033 4.36526 0
M  V30 4759 H 437.011 0.0375239 0.66995 0
M  V30 4760 H 439.555 0.747032 1.90367 0
M  V30 4761 H 437.71 -0.89091 3.77017 0
M  V30 4762 H 438.124 0.814654 5.18135 0
M  V30 4763 H 439.598 -0.874251 5.45033 0
M  V30 4764 H 440.075 -1.77904 4.01555 0
M  V30 4765 H 440.681 -0.123526 4.25121 0
M  V30 4766 N 438.996 -1.55193 0.274407 0
M  V30 4767 C 439.926 -2.25471 -0.607032 0
M  V30 4768 C 440.907 -1.24461 -1.15946 0
M  V30 4769 O 442.092 -1.53179 -1.19373 0
M  V30 4770 C 439.222 -2.97526 -1.79153 0
M  V30 4771 C 438.176 -4.05459 -1.37067 0
M  V30 4772 C 437.502 -4.65084 -2.6382 0
M  V30 4773 C 438.802 -5.19691 -0.521389 0
M  V30 4774 H 440.496 -2.99393 -0.0209343 0
M  V30 4775 H 438.042 -1.43997 -0.00862866 0
M  V30 4776 H 439.995 -3.45402 -2.41404 0
M  V30 4777 H 438.719 -2.21138 -2.40344 0
M  V30 4778 H 437.378 -3.58393 -0.771355 0
M  V30 4779 H 437.026 -3.85365 -3.23268 0
M  V30 4780 H 436.726 -5.37961 -2.36372 0
M  V30 4781 H 438.25 -5.15708 -3.26921 0
M  V30 4782 H 439.664 -5.63623 -1.04889 0
M  V30 4783 H 438.061 -5.99126 -0.341825 0
M  V30 4784 H 439.131 -4.82713 0.46 0
M  V30 4785 N 440.474 -0.00167713 -1.576 0
M  V30 4786 C 441.384 1.00548 -2.1196 0
M  V30 4787 C 442.4 1.3758 -1.06526 0
M  V30 4788 O 443.576 1.46278 -1.38436 0
M  V30 4789 C 440.641 2.27809 -2.6135 0
M  V30 4790 C 439.702 1.97074 -3.81393 0
M  V30 4791 C 438.935 3.18267 -4.28417 0
M  V30 4792 O 439.158 4.30009 -3.74765 0
M  V30 4793 O 438.092 3.02167 -5.20556 0
M  V30 4794 H 441.918 0.573373 -2.98238 0
M  V30 4795 H 439.503 0.217255 -1.47812 0
M  V30 4796 H 441.385 3.02568 -2.93309 0
M  V30 4797 H 440.06 2.70254 -1.78169 0
M  V30 4798 H 438.967 1.19785 -3.54404 0
M  V30 4799 H 440.3 1.59464 -4.65652 0
M  V30 4800 N 441.952 1.55251 0.271103 0
M  V30 4801 C 443.229 1.66664 1.02384 0
M  V30 4802 C 443.609 0.534363 2.04225 0
M  V30 4803 O 442.957 -0.465337 2.23712 0
M  V30 4804 C 443.167 3.05961 1.67895 0
M  V30 4805 C 444.515 3.63772 2.18986 0
M  V30 4806 O 445.539 3.08606 1.77878 0
M  V30 4807 O 444.398 4.60429 2.94393 0
M  V30 4808 H 441.492 0.676957 0.475035 0
M  V30 4809 H 444.038 1.67589 0.26681 0
M  V30 4810 H 442.81 3.79815 0.941071 0
M  V30 4811 H 442.433 3.08943 2.5028 0
M  V30 4812 N 443.43 -0.535701 1.48216 0
M  V30 4813 C 444.841 -1.11769 1.49548 0
M  V30 4814 C 445.192 -1.94442 0.26207 0
M  V30 4815 O 444.317 -2.06987 -0.631287 0
M  V30 4816 C 444.912 -2.03367 2.70975 0
M  V30 4817 C 443.471 -2.56795 2.75196 0
M  V30 4818 C 442.618 -1.33631 2.42977 0
M  V30 4819 H 445.569 -0.321232 1.55415 0
M  V30 4820 H 445.59 -2.87569 2.49167 0
M  V30 4821 H 445.102 -1.43169 3.60727 0
M  V30 4822 H 443.203 -3.20731 1.89638 0
M  V30 4823 H 443.316 -2.9632 3.76472 0
M  V30 4824 H 441.68 -1.6502 1.94012 0
M  V30 4825 H 442.463 -0.75194 3.34964 0
M  V30 4826 N 444.908 -1.36708 -0.784132 0
M  V30 4827 C 446.157 -1.30559 -1.53744 0
M  V30 4828 C 446.47 0.111374 -1.95283 0
M  V30 4829 O 447.676 0.29527 -2.6989 0
M  V30 4830 C 446.132 -2.29098 -2.77565 0
M  V30 4831 C 445.74 -3.76258 -2.43174 0
M  V30 4832 C 447.484 -2.31936 -3.55536 0
M  V30 4833 C 445.391 -4.6656 -3.63422 0
M  V30 4834 H 444.321 -0.48518 -0.577162 0
M  V30 4835 H 446.972 -1.62101 -0.859981 0
M  V30 4836 H 445.354 -1.90557 -3.47137 0
M  V30 4837 H 446.528 -4.23565 -1.81465 0
M  V30 4838 H 444.843 -3.76246 -1.78403 0
M  V30 4839 H 447.44 -2.9661 -4.44889 0
M  V30 4840 H 447.783 -1.3294 -3.94503 0
M  V30 4841 H 448.316 -2.6912 -2.92949 0
M  V30 4842 H 445.055 -5.66638 -3.29547 0
M  V30 4843 H 444.575 -4.23966 -4.24279 0
M  V30 4844 H 446.254 -4.8309 -4.30387 0
M  V30 4845 N 446.386 1.0089 -1.21074 0
M  V30 4846 C 447.616 1.77933 -1.04993 0
M  V30 4847 C 448.024 1.84847 0.403495 0
M  V30 4848 O 447.367 1.30606 1.29181 0
M  V30 4849 C 447.429 3.23541 -1.56722 0
M  V30 4850 C 447.093 3.40214 -3.05129 0
M  V30 4851 C 448.09 3.2881 -4.02716 0
M  V30 4852 C 445.775 3.65781 -3.44252 0
M  V30 4853 C 447.769 3.42732 -5.37414 0
M  V30 4854 C 445.456 3.79346 -4.79103 0
M  V30 4855 C 446.454 3.67827 -5.75493 0
M  V30 4856 O 446.142 3.80965 -7.07899 0
M  V30 4857 H 445.874 0.566157 -0.369381 0
M  V30 4858 H 448.428 1.27826 -1.60779 0
M  V30 4859 H 446.658 3.74766 -0.953285 0
M  V30 4860 H 448.347 3.82245 -1.36543 0
M  V30 4861 H 449.113 3.08986 -3.73835 0
M  V30 4862 H 444.992 3.73831 -2.69762 0
M  V30 4863 H 448.536 3.33658 -6.12632 0
M  V30 4864 H 444.433 3.98672 -5.07672 0
M  V30 4865 H 445.201 3.97937 -7.15254 0
M  V30 4866 N 447.864 1.01787 1.20321 0
M  V30 4867 C 449.113 0.703249 1.89043 0
M  V30 4868 C 449.426 -0.770445 1.79787 0
M  V30 4869 O 450.632 -1.19767 2.43656 0
M  V30 4870 C 449.088 1.20749 3.3904 0
M  V30 4871 C 448.696 2.70817 3.56878 0
M  V30 4872 C 450.44 0.968352 4.13308 0
M  V30 4873 C 448.347 3.14716 5.00708 0
M  V30 4874 H 447.277 0.259354 0.707991 0
M  V30 4875 H 449.928 1.23072 1.36108 0
M  V30 4876 H 448.31 0.607989 3.91305 0
M  V30 4877 H 449.484 3.36327 3.14993 0
M  V30 4878 H 447.799 2.92888 2.95983 0
M  V30 4879 H 450.396 1.27173 5.19356 0
M  V30 4880 H 450.739 -0.095149 4.16191 0
M  V30 4881 H 451.272 1.53129 3.67146 0
M  V30 4882 H 448.011 4.20347 5.02979 0
M  V30 4883 H 447.531 2.53927 5.43398 0
M  V30 4884 H 449.21 3.07426 5.69296 0
M  V30 4885 N 449.342 -1.36122 0.79427 0
M  V30 4886 C 450.591 -1.98361 0.365464 0
M  V30 4887 C 450.904 -1.6374 -1.06997 0
M  V30 4888 O 452.11 -2.19251 -1.60129 0
M  V30 4889 C 450.566 -3.54821 0.602496 0
M  V30 4890 C 450.174 -3.98362 2.04967 0
M  V30 4891 C 451.918 -4.2383 0.238437 0
M  V30 4892 C 449.825 -5.47619 2.2331 0
M  V30 4893 H 448.755 -0.742193 0.13291 0
M  V30 4894 H 451.406 -1.55354 0.976589 0
M  V30 4895 H 449.788 -3.95922 -0.078409 0
M  V30 4896 H 450.962 -3.68447 2.76737 0
M  V30 4897 H 449.277 -3.42206 2.37243 0
M  V30 4898 H 451.874 -5.33529 0.353705 0
M  V30 4899 H 452.217 -4.08264 -0.814006 0
M  V30 4900 H 452.75 -3.88108 0.872769 0
M  V30 4901 H 449.489 -5.68138 3.26955 0
M  V30 4902 H 449.009 -5.79145 1.5605 0
M  V30 4903 H 450.688 -6.13911 2.0426 0
M  V30 4904 N 450.82 -0.546701 -1.47814 0
M  V30 4905 C 452.048 -0.0232857 -2.06887 0
M  V30 4906 C 452.463 1.26571 -1.4009 0
M  V30 4907 O 451.82 1.7569 -0.493906 0
M  V30 4908 C 451.871 0.186975 -3.61016 0
M  V30 4909 O 451.592 -1.05097 -4.25307 0
M  V30 4910 C 453.093 0.748872 -4.36929 0
M  V30 4911 H 450.313 -0.0410763 -0.669742 0
M  V30 4912 H 452.857 -0.757117 -1.89968 0
M  V30 4913 H 451.012 0.870903 -3.77484 0
M  V30 4914 H 451.426 -0.842121 -5.17695 0
M  V30 4915 H 452.9 0.845334 -5.45489 0
M  V30 4916 H 453.377 1.75772 -4.02493 0
M  V30 4917 H 453.983 0.100979 -4.2518 0
M  V30 4918 N 452.299 1.55045 -0.282633 0
M  V30 4919 C 453.209 2.26491 0.61147 0
M  V30 4920 C 454.225 1.29348 1.16384 0
M  V30 4921 O 455.401 1.62298 1.19253 0
M  V30 4922 C 452.466 2.97779 1.77563 0
M  V30 4923 C 451.527 4.10418 1.25919 0
M  V30 4924 C 450.76 4.78297 2.36786 0
M  V30 4925 O 450.983 4.45426 3.56303 0
M  V30 4926 O 449.917 5.66089 2.04517 0
M  V30 4927 H 453.743 3.03683 0.0324615 0
M  V30 4928 H 451.328 1.49317 -0.0497576 0
M  V30 4929 H 453.21 3.42554 2.45427 0
M  V30 4930 H 451.885 2.23498 2.34159 0
M  V30 4931 H 450.792 3.70082 0.546797 0
M  V30 4932 H 452.125 4.86622 0.738887 0
M  V30 4933 N 453.777 0.010035 1.57597 0
M  V30 4934 C 454.707 -0.976857 2.12084 0
M  V30 4935 C 455.688 -1.35191 1.03235 0
M  V30 4936 O 456.873 -1.43389 1.3097 0
M  V30 4937 C 454.003 -2.26548 2.63236 0
M  V30 4938 C 452.957 -2.03175 3.76701 0
M  V30 4939 C 452.283 -3.38138 4.14206 0
M  V30 4940 C 453.583 -1.38625 5.03568 0
M  V30 4941 H 455.277 -0.523145 2.94794 0
M  V30 4942 H 452.823 -0.250195 1.4181 0
M  V30 4943 H 454.776 -2.95952 2.99984 0
M  V30 4944 H 453.5 -2.74051 1.77661 0
M  V30 4945 H 452.159 -1.36195 3.40362 0
M  V30 4946 H 451.807 -3.83363 3.25641 0
M  V30 4947 H 451.507 -3.23312 4.90656 0
M  V30 4948 H 453.031 -4.08841 4.53521 0
M  V30 4949 H 454.445 -1.98 5.38023 0
M  V30 4950 H 452.842 -1.34256 5.84889 0
M  V30 4951 H 453.912 -0.356722 4.83586 0
M  V30 4952 N 455.255 -1.55392 -0.262866 0
M  V30 4953 C 456.188 -1.8391 -1.35101 0
M  V30 4954 C 457.166 -0.692901 -1.47097 0
M  V30 4955 O 458.35 -0.936979 -1.63563 0
M  V30 4956 C 455.477 -2.00969 -2.72634 0
M  V30 4957 C 454.523 -3.23559 -2.7787 0
M  V30 4958 S 455.356 -4.80647 -2.3609 0
M  V30 4959 C 456.512 -5.00692 -3.75578 0
M  V30 4960 H 456.745 -2.75918 -1.1071 0
M  V30 4961 H 454.278 -1.47294 -0.463029 0
M  V30 4962 H 456.236 -2.11482 -3.51832 0
M  V30 4963 H 454.897 -1.09832 -2.94272 0
M  V30 4964 H 454.09 -3.32413 -3.78837 0
M  V30 4965 H 453.692 -3.11689 -2.06702 0
M  V30 4966 H 455.984 -4.87055 -4.70939 0
M  V30 4967 H 456.927 -6.02717 -3.71669 0
M  V30 4968 H 457.335 -4.28619 -3.6735 0
M  V30 4969 N 456.733 0.527833 -1.48498 0
M  V30 4970 C 458.149 0.856571 -1.34666 0
M  V30 4971 C 458.349 1.98271 -0.35931 0
M  V30 4972 O 457.405 2.51551 0.218703 0
M  V30 4973 C 458.718 1.22207 -2.74747 0
M  V30 4974 C 460.266 1.33183 -2.83251 0
M  V30 4975 C 460.741 1.73075 -4.24039 0
M  V30 4976 N 462.232 1.80174 -4.26722 0
M  V30 4977 C 462.967 2.1243 -5.32598 0
M  V30 4978 N 462.463 2.43096 -6.4875 0
M  V30 4979 N 464.256 2.13454 -5.19994 0
M  V30 4980 H 456.407 -0.215174 -2.11307 0
M  V30 4981 H 458.67 -0.0336281 -0.947403 0
M  V30 4982 H 458.376 0.468195 -3.4857 0
M  V30 4983 H 458.25 2.17173 -3.08409 0
M  V30 4984 H 460.637 2.07647 -2.09683 0
M  V30 4985 H 460.718 0.363333 -2.53206 0
M  V30 4986 H 460.362 0.991712 -4.98124 0
M  V30 4987 H 460.292 2.70979 -4.51529 0
M  V30 4988 H 462.783 1.58744 -3.42942 0
M  V30 4989 H 463.096 2.6682 -7.25277 0
M  V30 4990 H 461.441 2.40611 -6.52021 0
M  V30 4991 H 464.632 1.88956 -4.28268 0
M  V30 4992 H 464.805 2.38261 -6.02608 0
M  V30 4993 N 458.211 1.37122 0.776871 0
M  V30 4994 C 459.161 1.28989 1.88005 0
M  V30 4995 C 460.145 0.178765 1.59904 0
M  V30 4996 O 461.337 0.412705 1.72121 0
M  V30 4997 C 458.466 1.09402 3.25402 0
M  V30 4998 C 457.552 2.25036 3.59471 0
M  V30 4999 N 457.943 3.50407 3.64759 0
M  V30 5000 C 456.241 2.17078 3.89607 0
M  V30 5001 C 456.942 4.26628 3.95428 0
M  V30 5002 N 455.918 3.55709 4.11062 0
M  V30 5003 H 459.72 2.2394 1.90337 0
M  V30 5004 H 457.234 1.30021 0.973052 0
M  V30 5005 H 459.231 1.01661 4.04315 0
M  V30 5006 H 457.891 0.153632 3.24336 0
M  V30 5007 H 458.902 3.8438 3.47091 0
M  V30 5008 H 455.579 1.31067 3.96393 0
M  V30 5009 H 456.969 5.35107 4.06338 0
M  V30 5010 N 459.689 -1.00246 1.21608 0
M  V30 5011 C 460.937 -1.73717 1.0328 0
M  V30 5012 C 461.258 -1.90102 -0.434318 0
M  V30 5013 O 460.528 -1.45376 -1.31311 0
M  V30 5014 H 459.108 -0.643613 0.379172 0
M  V30 5015 H 461.77 -1.20787 1.52959 0
M  V30 5016 H 460.866 -2.73535 1.50283 0
M  V30 5017 N 461.167 -1.02423 -1.1978 0
M  V30 5018 C 462.392 -0.7373 -1.93852 0
M  V30 5019 C 462.817 0.696923 -1.74713 0
M  V30 5020 O 462.175 1.48056 -1.04638 0
M  V30 5021 C 462.223 -1.08783 -3.438 0
M  V30 5022 O 461.327 -0.20383 -4.11896 0
M  V30 5023 H 460.668 -0.27284 -0.605355 0
M  V30 5024 H 463.198 -1.36966 -1.51992 0
M  V30 5025 H 463.208 -1.04276 -3.9445 0
M  V30 5026 H 461.883 -2.13274 -3.57053 0
M  V30 5027 H 460.46 -0.307091 -3.71633 0
M  V30 5028 N 462.645 1.35699 -0.801477 0
M  V30 5029 C 463.575 2.32436 -0.222658 0
M  V30 5030 C 464.556 1.5723 0.649057 0
M  V30 5031 O 465.741 1.85324 0.580387 0
M  V30 5032 C 462.871 3.41469 0.633719 0
M  V30 5033 C 461.825 4.27774 -0.139083 0
M  V30 5034 C 461.151 5.28082 0.838666 0
M  V30 5035 C 462.451 5.04946 -1.33517 0
M  V30 5036 H 464.145 2.81094 -1.03086 0
M  V30 5037 H 461.691 1.35146 -0.497155 0
M  V30 5038 H 463.644 4.08143 1.04868 0
M  V30 5039 H 462.368 2.91408 1.47475 0
M  V30 5040 H 461.027 3.62673 -0.535156 0
M  V30 5041 H 460.675 4.7429 1.67506 0
M  V30 5042 H 460.375 5.86695 0.32594 0
M  V30 5043 H 461.899 5.97628 1.25194 0
M  V30 5044 H 463.313 5.64593 -0.995349 0
M  V30 5045 H 461.71 5.7303 -1.78202 0
M  V30 5046 H 462.78 4.35886 -2.12442 0
M  V30 5047 N 464.123 0.554532 1.47522 0
M  V30 5048 C 465.055 -0.232106 2.28022 0
M  V30 5049 C 466.068 -0.881865 1.36847 0
M  V30 5050 O 467.257 -0.756168 1.61692 0
M  V30 5051 C 464.357 -1.34604 3.11022 0
M  V30 5052 C 463.53 -0.793582 4.30141 0
M  V30 5053 C 462.589 -1.79168 4.94758 0
M  V30 5054 O 461.615 -1.33886 5.5323 0
M  V30 5055 N 462.817 -3.12495 4.89211 0
M  V30 5056 H 465.582 0.458407 2.96173 0
M  V30 5057 H 463.143 0.390433 1.57122 0
M  V30 5058 H 465.135 -2.01243 3.51118 0
M  V30 5059 H 463.705 -1.93983 2.45131 0
M  V30 5060 H 462.925 0.0495025 3.94169 0
M  V30 5061 H 464.213 -0.403776 5.07195 0
M  V30 5062 H 463.611 -3.51931 4.42901 0
M  V30 5063 H 462.168 -3.74698 5.33333 0
M  V30 5064 N 465.601 -1.54893 0.290851 0
M  V30 5065 C 466.511 -2.26812 -0.59945 0
M  V30 5066 C 467.527 -1.29963 -1.15696 0
M  V30 5067 O 468.703 -1.62928 -1.18391 0
M  V30 5068 C 465.768 -2.98716 -1.75982 0
M  V30 5069 C 464.829 -4.1108 -1.2374 0
M  V30 5070 C 464.062 -4.79546 -2.34246 0
M  V30 5071 O 464.285 -4.47309 -3.53936 0
M  V30 5072 O 463.219 -5.67165 -2.01512 0
M  V30 5073 H 467.045 -3.03696 -0.0163561 0
M  V30 5074 H 464.63 -1.49289 0.0576755 0
M  V30 5075 H 466.512 -3.43851 -2.43607 0
M  V30 5076 H 465.187 -2.24737 -2.3297 0
M  V30 5077 H 464.094 -3.70367 -0.527163 0
M  V30 5078 H 465.427 -4.87007 -0.71307 0
M  V30 5079 N 467.08 -0.0183926 -1.57589 0
M  V30 5080 C 468.31 0.67207 -1.95363 0
M  V30 5081 C 468.718 1.66807 -0.892872 0
M  V30 5082 O 468.061 1.83204 0.134958 0
M  V30 5083 C 468.123 1.44397 -3.29226 0
M  V30 5084 C 467.787 0.607511 -4.52944 0
M  V30 5085 C 468.784 -0.112657 -5.19778 0
M  V30 5086 C 466.469 0.548068 -4.99301 0
M  V30 5087 C 468.463 -0.881057 -6.31281 0
M  V30 5088 C 466.15 -0.224044 -6.10689 0
M  V30 5089 C 467.148 -0.937323 -6.76538 0
M  V30 5090 O 466.836 -1.6968 -7.85789 0
M  V30 5091 H 466.568 0.190925 -0.648478 0
M  V30 5092 H 469.122 -0.0711994 -2.05277 0
M  V30 5093 H 467.352 2.23214 -3.15773 0
M  V30 5094 H 469.041 2.02152 -3.51979 0
M  V30 5095 H 469.807 -0.0759998 -4.8494 0
M  V30 5096 H 465.686 1.09281 -4.4786 0
M  V30 5097 H 469.23 -1.43832 -6.82611 0
M  V30 5098 H 465.127 -0.262457 -6.44966 0
M  V30 5099 H 465.895 -1.61544 -8.024 0
M  V30 5100 N 468.558 1.5553 0.254621 0
M  V30 5101 C 469.488 1.9268 1.31897 0
M  V30 5102 C 470.469 0.790797 1.506 0
M  V30 5103 O 471.654 1.05045 1.63337 0
M  V30 5104 C 468.784 2.21477 2.67517 0
M  V30 5105 C 467.738 3.37256 2.63519 0
M  V30 5106 C 467.064 3.51576 4.02862 0
M  V30 5107 C 468.364 4.73157 2.21179 0
M  V30 5108 H 470.058 2.81832 1.01051 0
M  V30 5109 H 467.604 1.35599 0.484662 0
M  V30 5110 H 469.557 2.46055 3.42104 0
M  V30 5111 H 468.281 1.29144 2.99982 0
M  V30 5112 H 466.94 3.12675 1.9139 0
M  V30 5113 H 466.588 2.56676 4.32581 0
M  V30 5114 H 466.288 4.2943 4.01078 0
M  V30 5115 H 467.812 3.78467 4.79161 0
M  V30 5116 H 469.226 4.97158 2.85494 0
M  V30 5117 H 467.623 5.54058 2.30521 0
M  V30 5118 H 468.693 4.70739 1.16332 0
M  V30 5119 N 470.036 -0.519951 1.48776 0
M  V30 5120 C 470.968 -1.63973 1.60142 0
M  V30 5121 C 471.981 -1.55404 0.485117 0
M  V30 5122 O 473.17 -1.61682 0.756391 0
M  V30 5123 C 470.27 -3.02676 1.52449 0
M  V30 5124 C 469.443 -3.36624 2.79291 0
M  V30 5125 C 468.502 -4.54652 2.64912 0
M  V30 5126 O 467.528 -4.57374 3.38818 0
M  V30 5127 N 468.73 -5.53432 1.75195 0
M  V30 5128 H 471.495 -1.54656 2.56713 0
M  V30 5129 H 469.056 -0.707439 1.45626 0
M  V30 5130 H 471.048 -3.79525 1.4051 0
M  V30 5131 H 469.618 -3.06018 0.638125 0
M  V30 5132 H 468.838 -2.48855 3.0572 0
M  V30 5133 H 470.126 -3.56094 3.6342 0
M  V30 5134 H 469.524 -5.54018 1.14371 0
M  V30 5135 H 468.081 -6.29459 1.69189 0
M  V30 5136 N 471.514 -1.37532 -0.769588 0
M  V30 5137 C 472.462 -1.33561 -1.90432 0
M  V30 5138 C 473.456 -0.224027 -1.67912 0
M  V30 5139 O 474.662 -0.392174 -1.75676 0
M  V30 5140 H 471.037 -0.416279 -0.626271 0
M  V30 5141 H 473.008 -2.29348 -1.90899 0
M  V30 5142 C 471.757 -1.16162 -3.27722 0
M  V30 5143 H 471.08 -2.00951 -3.45628 0
M  V30 5144 H 472.52 -1.17434 -4.07413 0
M  V30 5145 C 470.979 0.132583 -3.36639 0
M  V30 5146 O 471.509 1.11539 -3.85904 0
M  V30 5147 N 469.715 0.184013 -2.90017 0
M  V30 5148 H 469.262 -0.616415 -2.50116 0
M  V30 5149 H 469.22 1.04956 -2.96364 0
M  V30 5150 N 472.992 0.995999 -1.22138 0
M  V30 5151 C 474.269 1.70834 -0.952642 0
M  V30 5152 C 474.649 2.04257 0.533119 0
M  V30 5153 O 473.997 1.72343 1.50034 0
M  V30 5154 C 474.207 2.96119 -1.84701 0
M  V30 5155 C 475.555 3.68962 -2.10124 0
M  V30 5156 O 476.579 3.0612 -1.82124 0
M  V30 5157 O 475.438 4.82017 -2.57531 0
M  V30 5158 H 472.532 0.745498 -0.357997 0
M  V30 5159 H 475.078 1.05262 -1.33109 0
M  V30 5160 H 473.85 2.67898 -2.85213 0
M  V30 5161 H 473.473 3.6943 -1.46995 0
M  V30 5162 N 474.47 1.03057 1.19235 0
M  V30 5163 C 475.698 0.747697 1.92917 0
M  V30 5164 C 476.113 -0.69372 1.75593 0
M  V30 5165 O 475.47 -1.47191 1.07894 0
M  V30 5166 C 475.521 1.09159 3.44625 0
M  V30 5167 O 475.242 2.47641 3.61394 0
M  V30 5168 C 476.743 0.831763 4.35427 0
M  V30 5169 H 473.963 0.273453 0.612751 0
M  V30 5170 H 476.507 1.37552 1.51327 0
M  V30 5171 H 474.662 0.508919 3.84043 0
M  V30 5172 H 475.076 2.60499 4.55237 0
M  V30 5173 H 476.55 1.12233 5.4047 0
M  V30 5174 H 477.027 -0.233769 4.38577 0
M  V30 5175 H 477.633 1.39725 4.01693 0
M  V30 5176 N 475.948 -1.35272 0.808662 0
M  V30 5177 C 477.196 -1.98316 0.389233 0
M  V30 5178 C 477.517 -1.64465 -1.04767 0
M  V30 5179 O 476.787 -0.928175 -1.72516 0
M  V30 5180 H 475.367 -0.733585 0.140935 0
M  V30 5181 H 478.029 -1.6515 1.03496 0
M  V30 5182 H 477.125 -3.08123 0.496631 0
M  V30 5183 N 477.426 -0.562348 -1.47226 0
M  V30 5184 C 478.651 -0.0432632 -2.07355 0
M  V30 5185 C 479.076 1.24332 -1.41149 0
M  V30 5186 O 478.434 1.74603 -0.488226 0
M  V30 5187 C 478.482 0.130288 -3.60365 0
M  V30 5188 O 477.586 1.19166 -3.94808 0
M  V30 5189 H 476.927 -0.0536334 -0.66183 0
M  V30 5190 H 479.457 -0.779495 -1.89169 0
M  V30 5191 H 479.467 0.342881 -4.06557 0
M  V30 5192 H 478.142 -0.809389 -4.07948 0
M  V30 5193 H 476.719 0.959153 -3.60354 0
M  V30 5194 N 478.904 1.54736 -0.299062 0
M  V30 5195 C 479.851 2.23448 0.577899 0
M  V30 5196 C 480.821 1.21637 1.13109 0
M  V30 5197 O 482.006 1.50252 1.17597 0
M  V30 5198 C 479.146 2.9774 1.74484 0
M  V30 5199 C 478.259 4.1432 1.22323 0
M  V30 5200 C 477.394 4.76199 2.35388 0
M  V30 5201 C 476.433 5.84927 1.80351 0
M  V30 5202 N 475.57 6.4077 2.86982 0
M  V30 5203 H 480.41 2.97996 -0.0146545 0
M  V30 5204 H 477.947 1.47088 -0.0190013 0
M  V30 5205 H 479.905 3.39045 2.43114 0
M  V30 5206 H 478.535 2.25572 2.30905 0
M  V30 5207 H 477.587 3.7797 0.429249 0
M  V30 5208 H 478.899 4.92659 0.780309 0
M  V30 5209 H 478.053 5.20346 3.11969 0
M  V30 5210 H 476.792 3.97188 2.83006 0
M  V30 5211 H 475.797 5.40207 1.02259 0
M  V30 5212 H 477.022 6.65821 1.3364 0
M  V30 5213 H 474.968 5.64643 3.33938 0
M  V30 5214 H 474.885 7.1445 2.4718 0
M  V30 5215 H 476.153 6.89574 3.63466 0
M  V30 5216 N 480.382 0.0267497 1.57577 0
M  V30 5217 C 481.631 -0.651736 1.9088 0
M  V30 5218 C 481.944 -1.73427 0.904576 0
M  V30 5219 O 483.15 -2.46923 1.12877 0
M  V30 5220 C 481.606 -1.21048 3.38933 0
M  V30 5221 C 481.214 -0.161362 4.47709 0
M  V30 5222 C 482.958 -1.86562 3.81307 0
M  V30 5223 C 480.865 -0.731611 5.86857 0
M  V30 5224 H 479.795 -0.247198 0.712326 0
M  V30 5225 H 482.446 0.0916641 1.83271 0
M  V30 5226 H 480.828 -2.00542 3.41466 0
M  V30 5227 H 482.002 0.61094 4.56732 0
M  V30 5228 H 480.317 0.394877 4.14523 0
M  V30 5229 H 482.914 -2.30178 4.8262 0
M  V30 5230 H 483.257 -2.70735 3.16241 0
M  V30 5231 H 483.79 -1.13762 3.81186 0
M  V30 5232 H 480.529 0.0719329 6.55461 0
M  V30 5233 H 480.049 -1.47245 5.81445 0
M  V30 5234 H 481.728 -1.22208 6.35354 0
M  V30 5235 N 481.861 -1.55662 -0.24637 0
M  V30 5236 C 482.811 -1.86753 -1.30795 0
M  V30 5237 C 483.795 -0.728445 -1.43466 0
M  V30 5238 O 484.987 -0.99038 -1.46699 0
M  V30 5239 C 482.116 -2.16618 -2.66329 0
M  V30 5240 C 481.202 -3.36855 -2.57661 0
M  V30 5241 N 481.593 -4.56111 -2.18624 0
M  V30 5242 C 479.891 -3.39976 -2.88673 0
M  V30 5243 C 480.592 -5.38247 -2.20601 0
M  V30 5244 N 479.568 -4.77322 -2.60124 0
M  V30 5245 H 483.37 -2.76486 -0.996642 0
M  V30 5246 H 480.884 -1.55896 -0.454994 0
M  V30 5247 H 482.881 -2.37057 -3.42942 0
M  V30 5248 H 481.541 -1.28185 -2.98327 0
M  V30 5249 H 482.552 -4.81726 -1.9016 0
M  V30 5250 H 479.229 -2.61815 -3.25206 0
M  V30 5251 H 480.619 -6.43657 -1.92756 0
M  V30 5252 N 483.339 0.512053 -1.4905 0
M  V30 5253 C 484.269 1.62365 -1.67809 0
M  V30 5254 C 485.25 1.61737 -0.526809 0
M  V30 5255 O 486.435 1.78651 -0.761404 0
M  V30 5256 C 483.565 3.00895 -1.73435 0
M  V30 5257 C 482.519 3.16387 -2.88242 0
M  V30 5258 C 481.845 4.56157 -2.78971 0
M  V30 5259 C 483.145 2.97457 -4.29321 0
M  V30 5260 H 484.839 1.46921 -2.60873 0
M  V30 5261 H 482.385 0.705379 -1.2554 0
M  V30 5262 H 484.338 3.78549 -1.85145 0
M  V30 5263 H 483.062 3.17403 -0.769619 0
M  V30 5264 H 481.721 2.41155 -2.76116 0
M  V30 5265 H 481.369 4.69525 -1.8043 0
M  V30 5266 H 481.069 4.67465 -3.5602 0
M  V30 5267 H 482.593 5.35886 -2.92675 0
M  V30 5268 H 484.007 3.64888 -4.42187 0
M  V30 5269 H 482.404 3.20245 -5.07507 0
M  V30 5270 H 483.474 1.93692 -4.44535 0
M  V30 5271 N 484.817 1.37938 0.762283 0
M  V30 5272 C 486.045 1.36883 1.55147 0
M  V30 5273 C 486.46 -0.0435348 1.8875 0
M  V30 5274 O 485.817 -1.00786 1.52146 0
M  V30 5275 C 485.868 2.21624 2.85596 0
M  V30 5276 O 485.589 3.57358 2.5343 0
M  V30 5277 C 487.09 2.28653 3.7978 0
M  V30 5278 H 484.31 0.468521 0.480343 0
M  V30 5279 H 486.854 1.81404 0.944079 0
M  V30 5280 H 485.009 1.80588 3.42734 0
M  V30 5281 H 485.423 4.01883 3.37032 0
M  V30 5282 H 486.897 2.9225 4.68288 0
M  V30 5283 H 487.374 1.29767 4.19592 0
M  V30 5284 H 487.98 2.70043 3.28568 0
M  V30 5285 N 486.295 -0.989507 1.22664 0
M  V30 5286 C 487.227 -2.0824 0.957542 0
M  V30 5287 C 488.24 -1.6267 -0.0651098 0
M  V30 5288 O 489.429 -1.77695 0.169312 0
M  V30 5289 C 486.529 -3.36298 0.419145 0
M  V30 5290 C 485.702 -4.10882 1.49982 0
M  V30 5291 C 484.761 -5.17221 0.967904 0
M  V30 5292 O 483.787 -5.44613 1.65487 0
M  V30 5293 N 484.989 -5.80124 -0.20896 0
M  V30 5294 H 487.754 -2.31904 1.89843 0
M  V30 5295 H 485.315 -1.15552 1.13399 0
M  V30 5296 H 487.307 -4.04671 0.0485451 0
M  V30 5297 H 485.877 -3.09671 -0.426937 0
M  V30 5298 H 485.097 -3.37092 2.04359 0
M  V30 5299 H 486.385 -4.57482 2.22682 0
M  V30 5300 H 485.783 -5.60244 -0.783818 0
M  V30 5301 H 484.34 -6.49715 -0.520913 0
M  V30 5302 N 487.773 -1.03688 -1.18687 0
M  V30 5303 C 488.705 -0.582696 -2.21669 0
M  V30 5304 C 489.718 0.345656 -1.59088 0
M  V30 5305 O 490.907 0.140776 -1.77944 0
M  V30 5306 C 488.007 0.169204 -3.38477 0
M  V30 5307 C 487.18 -0.766079 -4.30639 0
M  V30 5308 C 486.239 -0.0581541 -5.26168 0
M  V30 5309 O 485.265 -0.687346 -5.65035 0
M  V30 5310 N 486.467 1.20981 -5.67753 0
M  V30 5311 H 489.232 -1.46843 -2.61261 0
M  V30 5312 H 486.793 -0.916896 -1.33434 0
M  V30 5313 H 488.785 0.652543 -3.99405 0
M  V30 5314 H 487.355 0.956435 -2.97609 0
M  V30 5315 H 486.575 -1.42935 -3.67373 0
M  V30 5316 H 487.863 -1.40146 -4.89118 0
M  V30 5317 H 487.261 1.74159 -5.38224 0
M  V30 5318 H 485.818 1.6375 -6.30896 0
M  V30 5319 N 489.251 1.34841 -0.815825 0
M  V30 5320 C 490.497 1.98793 -0.401129 0
M  V30 5321 C 490.83 1.64548 1.03139 0
M  V30 5322 O 490.105 0.913487 1.71714 0
M  V30 5323 C 490.388 3.55143 -0.595409 0
M  V30 5324 C 490.241 3.99155 -2.07352 0
M  V30 5325 C 491.56 4.40092 -0.0268823 0
M  V30 5326 H 488.679 0.722146 -0.14722 0
M  V30 5327 H 491.321 1.59847 -1.02707 0
M  V30 5328 H 489.471 3.8845 -0.0625779 0
M  V30 5329 H 491.143 3.76216 -2.66945 0
M  V30 5330 H 489.386 3.49726 -2.56659 0
M  V30 5331 H 490.057 5.07971 -2.1603 0
M  V30 5332 H 492.533 4.13298 -0.482042 0
M  V30 5333 H 491.409 5.48562 -0.19267 0
M  V30 5334 H 491.67 4.29016 1.06759 0
M  V30 5335 N 490.729 0.570148 1.46925 0
M  V30 5336 C 492.006 -0.0153259 1.95594 0
M  V30 5337 C 492.386 -1.47232 1.51281 0
M  V30 5338 O 491.734 -2.15574 0.757624 0
M  V30 5339 C 491.944 0.143624 3.48704 0
M  V30 5340 C 493.292 0.00494484 4.246 0
M  V30 5341 O 494.316 0.0718214 3.56128 0
M  V30 5342 O 493.175 -0.141175 5.46318 0
M  V30 5343 H 490.269 -0.0568819 0.825041 0
M  V30 5344 H 492.815 0.637583 1.57267 0
M  V30 5345 H 491.587 1.15699 3.73804 0
M  V30 5346 H 491.21 -0.5463 3.93829 0
M  V30 5347 N 492.207 -1.54576 0.307264 0
M  V30 5348 C 493.14 -2.19946 -0.608195 0
M  V30 5349 C 494.118 -1.17096 -1.12815 0
M  V30 5350 O 495.302 -1.45766 -1.19518 0
M  V30 5351 C 492.429 -2.84826 -1.8328 0
M  V30 5352 C 491.475 -4.01256 -1.44554 0
M  V30 5353 S 492.308 -5.33197 -0.49612 0
M  V30 5354 C 493.464 -6.01563 -1.72838 0
M  V30 5355 H 493.697 -2.97253 -0.0528544 0
M  V30 5356 H 491.23 -1.54129 0.0913837 0
M  V30 5357 H 493.188 -3.22832 -2.53554 0
M  V30 5358 H 491.849 -2.07353 -2.35931 0
M  V30 5359 H 491.042 -4.45457 -2.35762 0
M  V30 5360 H 490.644 -3.6484 -0.822671 0
M  V30 5361 H 492.936 -6.22751 -2.6681 0
M  V30 5362 H 493.879 -6.9552 -1.32882 0
M  V30 5363 H 494.287 -5.31279 -1.90795 0
M  V30 5364 N 493.685 -0.035106 -1.57561 0
M  V30 5365 C 494.648 0.929819 -2.09492 0
M  V30 5366 C 495.648 1.25026 -1.01119 0
M  V30 5367 O 496.838 1.18961 -1.27255 0
M  V30 5368 C 493.97 2.24457 -2.56577 0
M  V30 5369 H 495.163 0.479935 -2.96035 0
M  V30 5370 H 492.716 0.213033 -1.54841 0
M  V30 5371 H 493.451 2.74061 -1.73382 0
M  V30 5372 H 493.236 2.02508 -3.35757 0
M  V30 5373 H 494.726 2.93607 -2.96959 0
M  V30 5374 N 495.163 1.55791 0.238111 0
M  V30 5375 C 496.126 1.90239 1.27835 0
M  V30 5376 C 497.126 0.779552 1.4064 0
M  V30 5377 O 498.316 1.04747 1.3919 0
M  V30 5378 C 495.448 2.13859 2.65475 0
M  V30 5379 H 496.641 2.83262 0.985034 0
M  V30 5380 H 494.194 1.48818 0.477799 0
M  V30 5381 H 494.929 1.23334 2.99932 0
M  V30 5382 H 494.714 2.95643 2.57561 0
M  V30 5383 H 496.204 2.41664 3.40571 0
M  V30 5384 N 496.642 -0.504142 1.49319 0
M  V30 5385 C 497.574 -1.62265 1.61872 0
M  V30 5386 C 498.587 -1.54881 0.501573 0
M  V30 5387 O 499.776 -1.6087 0.773497 0
M  V30 5388 C 496.876 -3.01042 1.55651 0
M  V30 5389 C 496.049 -3.33642 2.82845 0
M  V30 5390 C 495.108 -4.51816 2.69719 0
M  V30 5391 O 494.134 -4.53755 3.4365 0
M  V30 5392 N 495.336 -5.51543 1.81055 0
M  V30 5393 H 498.101 -1.51924 2.58339 0
M  V30 5394 H 495.662 -0.691954 1.46368 0
M  V30 5395 H 497.654 -3.78013 1.44528 0
M  V30 5396 H 496.224 -3.05323 0.670546 0
M  V30 5397 H 495.444 -2.45598 3.08343 0
M  V30 5398 H 496.732 -3.5222 3.67177 0
M  V30 5399 H 496.13 -5.52774 1.20241 0
M  V30 5400 H 494.687 -6.27629 1.75856 0
M  V30 5401 N 498.12 -1.38341 -0.754957 0
M  V30 5402 C 499.366 -1.34672 -1.51628 0
M  V30 5403 C 499.699 0.0636036 -1.94096 0
M  V30 5404 O 498.974 1.0245 -1.6533 0
M  V30 5405 C 499.257 -2.30116 -2.76981 0
M  V30 5406 C 499.11 -3.80003 -2.4066 0
M  V30 5407 C 500.429 -2.23715 -3.78998 0
M  V30 5408 H 497.548 -0.490517 -0.550056 0
M  V30 5409 H 500.19 -1.69178 -0.864807 0
M  V30 5410 H 498.34 -2.00821 -3.3257 0
M  V30 5411 H 500.012 -4.19966 -1.90856 0
M  V30 5412 H 498.255 -3.97751 -1.73137 0
M  V30 5413 H 498.926 -4.42244 -3.30339 0
M  V30 5414 H 501.402 -2.49574 -3.32945 0
M  V30 5415 H 500.278 -2.9261 -4.64403 0
M  V30 5416 H 500.539 -1.23554 -4.24484 0
M  V30 5417 N 499.598 0.982988 -1.23187 0
M  V30 5418 C 500.561 2.05649 -1.01198 0
M  V30 5419 C 501.561 1.6078 0.0252464 0
M  V30 5420 O 502.751 1.72878 -0.214243 0
M  V30 5421 C 499.883 3.36744 -0.530656 0
M  V30 5422 H 501.076 2.2659 -1.96461 0
M  V30 5423 H 498.629 1.15602 -1.05195 0
M  V30 5424 H 499.364 3.21492 0.425873 0
M  V30 5425 H 499.149 3.7065 -1.2791 0
M  V30 5426 H 500.639 4.15705 -0.397366 0
M  V30 5427 N 501.076 1.04316 1.18135 0
M  V30 5428 C 502.301 0.768047 1.92655 0
M  V30 5429 C 502.726 -0.66904 1.758 0
M  V30 5430 O 502.084 -1.46372 1.06981 0
M  V30 5431 C 502.132 1.14239 3.42026 0
M  V30 5432 O 501.236 0.269333 4.1152 0
M  V30 5433 H 500.577 0.282436 0.600937 0
M  V30 5434 H 503.107 1.39367 1.49793 0
M  V30 5435 H 503.117 1.10538 3.92741 0
M  V30 5436 H 501.792 2.18928 3.53615 0
M  V30 5437 H 500.369 0.366175 3.71098 0
M  V30 5438 N 502.554 -1.34406 0.822964 0
M  V30 5439 C 503.802 -1.97892 0.410245 0
M  V30 5440 C 504.123 -1.65567 -1.03017 0
M  V30 5441 O 503.393 -0.94642 -1.71522 0
M  V30 5442 H 501.973 -0.732049 0.148707 0
M  V30 5443 H 504.635 -1.64043 1.05242 0
M  V30 5444 H 503.731 -3.07579 0.529284 0
M  V30 5445 N 504.032 -0.577932 -1.46621 0
M  V30 5446 C 504.965 0.206312 -2.27265 0
M  V30 5447 C 505.943 0.901306 -1.35334 0
M  V30 5448 O 507.127 0.916151 -1.64739 0
M  V30 5449 C 504.254 1.29563 -3.1294 0
M  V30 5450 C 503.3 0.706981 -4.206 0
M  V30 5451 S 504.133 -0.462459 -5.33499 0
M  V30 5452 C 505.289 0.628171 -6.2274 0
M  V30 5453 H 505.522 -0.477961 -2.93433 0
M  V30 5454 H 503.055 -0.364715 -1.50031 0
M  V30 5455 H 505.013 1.91935 -3.62865 0
M  V30 5456 H 503.674 1.95183 -2.46095 0
M  V30 5457 H 502.867 1.52565 -4.80354 0
M  V30 5458 H 502.469 0.159022 -3.73662 0
M  V30 5459 H 504.761 1.51506 -6.60342 0
M  V30 5460 H 505.704 0.0674961 -7.08068 0
M  V30 5461 H 506.112 0.930167 -5.56784 0
M  V30 5462 N 505.51 1.54411 -0.315457 0
M  V30 5463 C 506.473 2.22713 0.54142 0
M  V30 5464 C 507.473 1.2179 1.04995 0
M  V30 5465 O 508.663 1.46426 0.943667 0
M  V30 5466 C 505.795 2.92485 1.75116 0
M  V30 5467 H 506.988 2.99849 -0.0555508 0
M  V30 5468 H 504.541 1.56159 -0.0664453 0
M  V30 5469 H 505.276 2.19466 2.38758 0
M  V30 5470 H 505.061 3.66483 1.39401 0
M  V30 5471 H 506.551 3.44548 2.35959 0
M  V30 5472 N 506.988 0.0434614 1.5754 0
M  V30 5473 C 508.218 -0.640905 1.96408 0
M  V30 5474 C 508.626 -1.65365 0.919297 0
M  V30 5475 O 507.969 -1.83395 -0.105795 0
M  V30 5476 C 508.031 -1.39141 3.31482 0
M  V30 5477 C 507.695 -0.535375 4.53853 0
M  V30 5478 C 508.692 0.195335 5.19533 0
M  V30 5479 C 506.377 -0.468564 5.0011 0
M  V30 5480 C 508.371 0.981377 6.298 0
M  V30 5481 C 506.058 0.321171 6.10255 0
M  V30 5482 C 507.056 1.04484 6.74961 0
M  V30 5483 O 506.744 1.8216 7.8299 0
M  V30 5484 H 506.476 -0.180584 0.651433 0
M  V30 5485 H 509.03 0.103848 2.05137 0
M  V30 5486 H 507.26 -2.18162 3.19284 0
M  V30 5487 H 508.949 -1.96526 3.55151 0
M  V30 5488 H 509.715 0.15314 4.84758 0
M  V30 5489 H 505.594 -1.02142 4.49542 0
M  V30 5490 H 509.138 1.54674 6.80237 0
M  V30 5491 H 505.035 0.365032 6.44467 0
M  V30 5492 H 505.803 1.74289 7.99728 0
M  V30 5493 N 508.466 -1.55915 -0.229846 0
M  V30 5494 C 509.396 -1.94754 -1.28815 0
M  V30 5495 C 510.377 -0.814657 -1.49323 0
M  V30 5496 O 511.562 -1.07631 -1.61645 0
M  V30 5497 C 508.692 -2.25705 -2.63959 0
M  V30 5498 C 507.646 -3.41406 -2.5812 0
M  V30 5499 C 506.972 -3.57941 -3.97218 0
M  V30 5500 C 508.272 -4.76616 -2.13623 0
M  V30 5501 H 509.966 -2.83404 -0.965547 0
M  V30 5502 H 507.512 -1.36353 -0.463028 0
M  V30 5503 H 509.465 -2.51467 -3.38146 0
M  V30 5504 H 508.189 -1.339 -2.9789 0
M  V30 5505 H 506.848 -3.1568 -1.86391 0
M  V30 5506 H 506.496 -2.63526 -4.28443 0
M  V30 5507 H 506.196 -4.35757 -3.94195 0
M  V30 5508 H 507.72 -3.86042 -4.73079 0
M  V30 5509 H 509.134 -5.01637 -2.77549 0
M  V30 5510 H 507.531 -5.57655 -2.21677 0
M  V30 5511 H 508.601 -4.7253 -1.08829 0
M  V30 5512 N 509.944 0.496216 -1.49584 0
M  V30 5513 C 510.854 1.62352 -1.69349 0
M  V30 5514 C 511.87 1.64184 -0.576147 0
M  V30 5515 O 513.046 1.82517 -0.85144 0
M  V30 5516 C 510.111 2.98698 -1.76013 0
M  V30 5517 C 509.172 3.07454 -2.99617 0
M  V30 5518 C 508.405 4.37296 -3.05953 0
M  V30 5519 O 508.628 5.2637 -2.19752 0
M  V30 5520 O 507.562 4.51124 -3.9846 0
M  V30 5521 H 511.388 1.48606 -2.64859 0
M  V30 5522 H 508.973 0.673022 -1.33382 0
M  V30 5523 H 510.855 3.79725 -1.82721 0
M  V30 5524 H 509.53 3.12696 -0.836828 0
M  V30 5525 H 508.437 2.25597 -2.98424 0
M  V30 5526 H 509.77 2.98385 -3.91443 0
M  V30 5527 N 511.423 1.38739 0.74761 0
M  V30 5528 C 512.648 1.38702 1.54197 0
M  V30 5529 C 513.073 -0.019664 1.8809 0
M  V30 5530 O 512.431 -1.00333 1.51006 0
M  V30 5531 C 512.479 2.25492 2.814 0
M  V30 5532 O 511.583 1.67613 3.76802 0
M  V30 5533 H 510.924 0.472863 0.466151 0
M  V30 5534 H 513.454 1.82577 0.923413 0
M  V30 5535 H 513.464 2.39561 3.30264 0
M  V30 5536 H 512.139 3.27727 2.56062 0
M  V30 5537 H 510.716 1.62718 3.35526 0
M  V30 5538 N 512.901 -0.976442 1.23707 0
M  V30 5539 C 514.317 -1.24341 1.00058 0
M  V30 5540 C 514.517 -1.99315 -0.295932 0
M  V30 5541 O 513.573 -2.3123 -1.01435 0
M  V30 5542 C 514.886 -2.03909 2.21001 0
M  V30 5543 C 516.434 -2.17034 2.25534 0
M  V30 5544 C 516.909 -2.99994 3.46075 0
M  V30 5545 N 518.4 -3.07578 3.46338 0
M  V30 5546 C 519.135 -3.72104 4.36264 0
M  V30 5547 N 518.631 -4.3842 5.36432 0
M  V30 5548 N 520.424 -3.69029 4.23998 0
M  V30 5549 H 512.575 -0.47428 2.07037 0
M  V30 5550 H 514.838 -0.272167 0.908091 0
M  V30 5551 H 514.544 -1.56198 3.15111 0
M  V30 5552 H 514.418 -3.04654 2.22409 0
M  V30 5553 H 516.805 -2.63951 1.31961 0
M  V30 5554 H 516.886 -1.15664 2.28156 0
M  V30 5555 H 516.53 -2.53772 4.39957 0
M  V30 5556 H 516.46 -4.01541 3.40694 0
M  V30 5557 H 518.951 -2.60397 2.73865 0
M  V30 5558 H 519.264 -4.85447 6.013 0
M  V30 5559 H 517.609 -4.37116 5.40328 0
M  V30 5560 H 520.8 -3.16392 3.44984 0
M  V30 5561 H 520.973 -4.19034 4.94282 0
M  V30 5562 N 514.379 -1.04941 -1.1758 0
M  V30 5563 C 515.327 -0.64204 -2.23563 0
M  V30 5564 C 516.321 0.335453 -1.66045 0
M  V30 5565 O 517.527 0.20179 -1.78865 0
M  V30 5566 H 513.902 -0.18944 -0.727748 0
M  V30 5567 H 515.873 -1.54609 -2.55223 0
M  V30 5568 C 514.622 -0.0301051 -3.47687 0
M  V30 5569 H 513.945 -0.773339 -3.92249 0
M  V30 5570 H 515.385 0.217592 -4.23441 0
M  V30 5571 C 513.844 1.2225 -3.13937 0
M  V30 5572 O 514.374 2.3122 -3.28482 0
M  V30 5573 N 512.58 1.11917 -2.68185 0
M  V30 5574 H 512.127 0.232403 -2.5655 0
M  V30 5575 H 512.085 1.95814 -2.45976 0
M  V30 5576 N 515.857 1.33968 -0.830081 0
M  V30 5577 C 517.087 2.01987 -0.434142 0
M  V30 5578 C 517.495 1.62639 0.96671 0
M  V30 5579 O 516.838 0.831151 1.63822 0
M  V30 5580 C 516.9 3.5648 -0.465018 0
M  V30 5581 C 516.564 4.19176 -1.82045 0
M  V30 5582 C 517.561 4.39181 -2.78237 0
M  V30 5583 C 515.246 4.55792 -2.11089 0
M  V30 5584 C 517.24 4.94937 -4.01642 0
M  V30 5585 C 514.927 5.11258 -3.34752 0
M  V30 5586 C 515.925 5.30775 -4.29845 0
M  V30 5587 O 515.613 5.85064 -5.51322 0
M  V30 5588 H 515.345 0.653847 -0.171639 0
M  V30 5589 H 517.899 1.72066 -1.12171 0
M  V30 5590 H 516.129 3.8569 0.279284 0
M  V30 5591 H 517.818 4.05804 -0.0881334 0
M  V30 5592 H 518.584 4.11249 -2.57097 0
M  V30 5593 H 514.463 4.39901 -1.3787 0
M  V30 5594 H 518.007 5.10086 -4.75876 0
M  V30 5595 H 513.904 5.38619 -3.55753 0
M  V30 5596 H 514.672 6.03489 -5.5294 0
M  V30 5597 N 517.335 0.585699 1.46312 0
M  V30 5598 C 518.584 0.0701192 2.01578 0
M  V30 5599 C 518.897 -1.29889 1.46247 0
M  V30 5600 O 520.103 -1.90598 1.93351 0
M  V30 5601 C 518.559 0.0747499 3.59822 0
M  V30 5602 C 518.167 1.44226 4.24149 0
M  V30 5603 C 519.911 -0.38673 4.22735 0
M  V30 5604 C 517.818 1.40446 5.74481 0
M  V30 5605 H 516.748 0.0224441 0.753666 0
M  V30 5606 H 519.399 0.737789 1.68015 0
M  V30 5607 H 517.781 -0.659144 3.90476 0
M  V30 5608 H 518.955 2.19612 4.05101 0
M  V30 5609 H 517.27 1.84401 3.73343 0
M  V30 5610 H 519.867 -0.433853 5.32937 0
M  V30 5611 H 520.21 -1.40489 3.91878 0
M  V30 5612 H 520.743 0.293195 3.96718 0
M  V30 5613 H 517.482 2.39952 6.10003 0
M  V30 5614 H 517.002 0.692845 5.95785 0
M  V30 5615 H 518.681 1.11865 6.37256 0
M  V30 5616 N 518.813 -1.54241 0.323641 0
M  V30 5617 C 519.763 -2.21071 -0.557833 0
M  V30 5618 C 520.747 -1.19126 -1.08157 0
M  V30 5619 O 521.939 -1.44755 -1.01857 0
M  V30 5620 C 519.068 -2.97208 -1.71821 0
M  V30 5621 C 518.154 -4.06491 -1.20936 0
M  V30 5622 N 518.545 -5.04052 -0.420202 0
M  V30 5623 C 516.843 -4.20443 -1.48808 0
M  V30 5624 C 517.544 -5.81516 -0.146413 0
M  V30 5625 N 516.52 -5.38641 -0.732562 0
M  V30 5626 H 520.322 -2.93853 0.0523921 0
M  V30 5627 H 517.836 -1.61883 0.129502 0
M  V30 5628 H 519.833 -3.4357 -2.36146 0
M  V30 5629 H 518.493 -2.25947 -2.33191 0
M  V30 5630 H 519.504 -5.17862 -0.0630401 0
M  V30 5631 H 516.181 -3.60396 -2.10762 0
M  V30 5632 H 517.571 -6.70119 0.488895 0
M  V30 5633 N 520.291 -0.0518155 -1.57515 0
M  V30 5634 C 521.707 0.304735 -1.56664 0
M  V30 5635 C 521.907 1.71395 -1.05953 0
M  V30 5636 O 520.963 2.42123 -0.716414 0
M  V30 5637 C 522.276 0.132614 -3.00407 0
M  V30 5638 C 523.824 0.20367 -3.12337 0
M  V30 5639 C 524.299 0.0600706 -4.57961 0
M  V30 5640 N 525.79 0.116326 -4.63054 0
M  V30 5641 C 526.525 0.0293363 -5.73392 0
M  V30 5642 N 526.021 -0.110038 -6.92713 0
M  V30 5643 N 527.814 0.0849651 -5.62036 0
M  V30 5644 H 519.965 -0.973056 -1.888 0
M  V30 5645 H 522.228 -0.377781 -0.869474 0
M  V30 5646 H 521.934 -0.839019 -3.41546 0
M  V30 5647 H 521.808 0.893376 -3.66468 0
M  V30 5648 H 524.195 1.16578 -2.71097 0
M  V30 5649 H 524.276 -0.587857 -2.48954 0
M  V30 5650 H 523.92 -0.898715 -4.99886 0
M  V30 5651 H 523.85 0.87075 -5.19351 0
M  V30 5652 H 526.341 0.22327 -3.7724 0
M  V30 5653 H 526.654 -0.169104 -7.72615 0
M  V30 5654 H 524.999 -0.145132 -6.94848 0
M  V30 5655 H 528.19 0.192411 -4.67704 0
M  V30 5656 H 528.363 0.0137131 -6.47999 0
M  V30 5657 N 521.769 1.56035 0.221574 0
M  V30 5658 C 523.046 1.69837 0.970301 0
M  V30 5659 C 523.426 0.599065 2.02421 0
M  V30 5660 O 522.774 -0.393929 2.25079 0
M  V30 5661 C 522.984 3.11148 1.58076 0
M  V30 5662 C 524.332 3.70555 2.07302 0
M  V30 5663 O 525.356 3.14109 1.6797 0
M  V30 5664 O 524.215 4.69562 2.79596 0
M  V30 5665 H 521.309 0.691727 0.453257 0
M  V30 5666 H 523.855 1.68353 0.213358 0
M  V30 5667 H 522.627 3.82617 0.819759 0
M  V30 5668 H 522.25 3.16749 2.40324 0
M  V30 5669 N 523.247 -0.488276 1.49845 0
M  V30 5670 C 524.177 -1.59675 1.70371 0
M  V30 5671 C 525.158 -1.60878 0.552473 0
M  V30 5672 O 526.343 -1.77417 0.78973 0
M  V30 5673 C 523.473 -2.98098 1.782 0
M  V30 5674 C 522.427 -3.11761 2.93239 0
M  V30 5675 C 521.753 -4.51661 2.86193 0
M  V30 5676 C 523.053 -2.90589 4.33999 0
M  V30 5677 H 524.747 -1.42752 2.63177 0
M  V30 5678 H 522.293 -0.685317 1.26647 0
M  V30 5679 H 524.246 -3.75555 1.91144 0
M  V30 5680 H 522.97 -3.16138 0.820018 0
M  V30 5681 H 521.629 -2.36732 2.79917 0
M  V30 5682 H 521.277 -4.66595 1.87877 0
M  V30 5683 H 520.977 -4.61742 3.63412 0
M  V30 5684 H 522.501 -5.31162 3.01163 0
M  V30 5685 H 523.915 -3.57807 4.47936 0
M  V30 5686 H 522.312 -3.1213 5.12538 0
M  V30 5687 H 523.382 -1.86595 4.4756 0
M  V30 5688 N 524.725 -1.39134 -0.740242 0
M  V30 5689 C 525.688 -1.37217 -1.83587 0
M  V30 5690 C 526.688 -0.270221 -1.58513 0
M  V30 5691 O 527.878 -0.527843 -1.6601 0
M  V30 5692 C 525.01 -1.13959 -3.21288 0
M  V30 5693 H 526.203 -2.34705 -1.86691 0
M  V30 5694 H 523.756 -1.24622 -0.94335 0
M  V30 5695 H 524.491 -0.17131 -3.23847 0
M  V30 5696 H 524.276 -1.93754 -3.40884 0
M  V30 5697 H 525.766 -1.15346 -4.01354 0
M  V30 5698 N 526.204 0.969867 -1.24223 0
M  V30 5699 C 527.167 2.04564 -1.03373 0
M  V30 5700 C 528.167 1.60798 0.00819206 0
M  V30 5701 O 529.357 1.72641 -0.232567 0
M  V30 5702 C 526.489 3.36163 -0.566343 0
M  V30 5703 H 527.682 2.24494 -1.98853 0
M  V30 5704 H 525.235 1.1448 -1.06415 0
M  V30 5705 H 525.97 3.21925 0.391751 0
M  V30 5706 H 525.755 3.69273 -1.31834 0
M  V30 5707 H 527.245 4.1526 -0.441435 0
M  V30 5708 N 527.682 1.05563 1.17022 0
M  V30 5709 C 529.098 0.777684 1.39371 0
M  V30 5710 C 529.298 -0.626269 1.91521 0
M  V30 5711 O 528.354 -1.38806 2.10924 0
M  V30 5712 C 529.667 1.83642 2.3811 0
M  V30 5713 C 531.215 1.85907 2.51809 0
M  V30 5714 C 531.69 2.90813 3.53824 0
M  V30 5715 N 533.181 2.898 3.61345 0
M  V30 5716 C 533.916 3.6762 4.40049 0
M  V30 5717 N 533.412 4.55237 5.22237 0
M  V30 5718 N 535.205 3.56044 4.34959 0
M  V30 5719 H 527.356 1.9614 0.815047 0
M  V30 5720 H 529.619 0.849527 0.420722 0
M  V30 5721 H 529.325 2.84425 2.06871 0
M  V30 5722 H 529.199 1.6812 3.37662 0
M  V30 5723 H 531.586 0.857865 2.82356 0
M  V30 5724 H 531.667 2.05506 1.52318 0
M  V30 5725 H 531.311 3.91122 3.24015 0
M  V30 5726 H 531.241 2.68465 4.53028 0
M  V30 5727 H 533.732 2.26274 3.02669 0
M  V30 5728 H 534.045 5.11291 5.79484 0
M  V30 5729 H 532.39 4.59296 5.21605 0
M  V30 5730 H 535.581 2.86986 3.69806 0
M  V30 5731 H 535.754 4.16938 4.96051 0
M  V30 5732 N 529.16 -1.33526 0.837174 0
M  V30 5733 C 530.108 -2.31168 0.257698 0
M  V30 5734 C 531.102 -1.5806 -0.609388 0
M  V30 5735 O 532.308 -1.72941 -0.499139 0
M  V30 5736 H 528.683 -0.74922 0.0646058 0
M  V30 5737 H 530.654 -2.77552 1.09578 0
M  V30 5738 C 529.403 -3.4326 -0.553887 0
M  V30 5739 H 528.726 -3.99665 0.104008 0
M  V30 5740 H 530.166 -4.13782 -0.925219 0
M  V30 5741 C 528.625 -2.88965 -1.73207 0
M  V30 5742 O 529.155 -2.85013 -2.83073 0
M  V30 5743 N 527.361 -2.45596 -1.55342 0
M  V30 5744 H 526.908 -2.49009 -0.659705 0
M  V30 5745 H 526.866 -2.0962 -2.34322 0
M  V30 5746 N 530.638 -0.59345 -1.46 0
M  V30 5747 C 531.884 -0.0832754 -2.02629 0
M  V30 5748 C 532.217 1.27749 -1.46266 0
M  V30 5749 O 531.492 1.8395 -0.631866 0
M  V30 5750 C 531.775 -0.0290756 -3.60088 0
M  V30 5751 C 531.628 -1.41951 -4.26814 0
M  V30 5752 C 532.947 0.666055 -4.35031 0
M  V30 5753 H 530.066 -0.031736 -0.736316 0
M  V30 5754 H 532.708 -0.762711 -1.74019 0
M  V30 5755 H 530.858 0.549532 -3.84594 0
M  V30 5756 H 532.53 -2.04411 -4.13538 0
M  V30 5757 H 530.773 -1.98422 -3.8576 0
M  V30 5758 H 531.444 -1.33395 -5.3564 0
M  V30 5759 H 533.92 0.174401 -4.15734 0
M  V30 5760 H 532.796 0.673041 -5.44758 0
M  V30 5761 H 533.057 1.72946 -4.06869 0
M  V30 5762 N 532.116 1.54067 -0.331816 0
M  V30 5763 C 533.046 2.27569 0.522932 0
M  V30 5764 C 534.027 1.28679 1.11247 0
M  V30 5765 O 535.212 1.57504 1.13605 0
M  V30 5766 C 532.342 3.0397 1.67987 0
M  V30 5767 C 531.296 4.10267 1.21924 0
M  V30 5768 C 530.622 4.74555 2.46377 0
M  V30 5769 C 531.922 5.21268 0.32815 0
M  V30 5770 H 533.616 2.99264 -0.0901977 0
M  V30 5771 H 531.162 1.4393 -0.044821 0
M  V30 5772 H 533.115 3.54123 2.28418 0
M  V30 5773 H 531.839 2.29906 2.31971 0
M  V30 5774 H 530.498 3.61009 0.637809 0
M  V30 5775 H 530.146 3.97098 3.08743 0
M  V30 5776 H 529.846 5.46363 2.16243 0
M  V30 5777 H 531.37 5.27487 3.07555 0
M  V30 5778 H 532.784 5.67128 0.838978 0
M  V30 5779 H 531.181 5.99982 0.119228 0
M  V30 5780 H 532.251 4.80673 -0.638839 0
M  V30 5781 N 533.594 0.0601682 1.57485 0
M  V30 5782 C 534.84 -0.612501 1.93329 0
M  V30 5783 C 535.173 -1.6996 0.939526 0
M  V30 5784 O 534.448 -1.94472 -0.0330957 0
M  V30 5785 C 534.731 -1.20025 3.39508 0
M  V30 5786 C 534.584 -0.12059 4.49638 0
M  V30 5787 C 535.903 -2.10923 3.86264 0
M  V30 5788 H 533.022 -0.221185 0.703027 0
M  V30 5789 H 535.664 0.123768 1.89596 0
M  V30 5790 H 533.814 -1.82774 3.42821 0
M  V30 5791 H 535.486 0.51185 4.58452 0
M  V30 5792 H 533.729 0.550251 4.30296 0
M  V30 5793 H 534.4 -0.572019 5.49028 0
M  V30 5794 H 536.876 -1.58124 3.84884 0
M  V30 5795 H 535.752 -2.48987 4.8918 0
M  V30 5796 H 536.013 -3.01292 3.23536 0
M  V30 5797 N 535.072 -1.5615 -0.213296 0
M  V30 5798 C 536.32 -1.79191 -0.934612 0
M  V30 5799 C 536.641 -0.630112 -1.84539 0
M  V30 5800 O 535.911 0.35257 -1.92701 0
M  V30 5801 H 534.491 -0.660937 -0.348097 0
M  V30 5802 H 537.153 -1.93618 -0.22317 0
M  V30 5803 H 536.249 -2.71656 -1.53654 0
M  V30 5804 N 536.55 0.480323 -1.50102 0
M  V30 5805 C 537.46 1.60547 -1.71061 0
M  V30 5806 C 538.476 1.63564 -0.593529 0
M  V30 5807 O 539.652 1.81604 -0.870751 0
M  V30 5808 C 536.717 2.96814 -1.79171 0
M  V30 5809 C 535.778 3.04259 -3.02861 0
M  V30 5810 C 535.011 4.34027 -3.10574 0
M  V30 5811 O 535.234 5.24009 -2.25323 0
M  V30 5812 O 534.168 4.46873 -4.03223 0
M  V30 5813 H 537.994 1.45788 -2.6642 0
M  V30 5814 H 535.579 0.658838 -1.34088 0
M  V30 5815 H 537.461 3.77765 -1.86738 0
M  V30 5816 H 536.136 3.11791 -0.869947 0
M  V30 5817 H 535.043 2.22419 -3.008 0
M  V30 5818 H 536.376 2.94216 -3.94586 0
M  V30 5819 N 538.028 1.39524 0.732853 0
M  V30 5820 C 538.978 1.34905 1.83806 0
M  V30 5821 C 539.962 0.229546 1.59254 0
M  V30 5822 O 541.154 0.467255 1.70721 0
M  V30 5823 C 538.283 1.19699 3.21756 0
M  V30 5824 C 537.369 2.36359 3.5213 0
M  V30 5825 N 537.76 3.61834 3.53426 0
M  V30 5826 C 536.058 2.29363 3.82503 0
M  V30 5827 C 536.759 4.38992 3.81655 0
M  V30 5828 N 535.735 3.68606 3.99538 0
M  V30 5829 H 539.537 2.29882 1.83116 0
M  V30 5830 H 537.051 1.33051 0.931194 0
M  V30 5831 H 539.048 1.14472 4.00876 0
M  V30 5832 H 537.708 0.256739 3.23683 0
M  V30 5833 H 538.719 3.95228 3.34686 0
M  V30 5834 H 535.396 1.43612 3.92023 0
M  V30 5835 H 536.786 5.47763 3.89108 0
M  V30 5836 N 539.506 -0.963266 1.24736 0
M  V30 5837 C 540.454 -2.07985 1.04139 0
M  V30 5838 C 541.448 -1.69381 -0.0250556 0
M  V30 5839 O 542.654 -1.79531 0.129863 0
M  V30 5840 H 539.029 -0.680627 0.319768 0
M  V30 5841 H 541 -2.22517 1.98818 0
M  V30 5842 C 539.749 -3.4123 0.667615 0
M  V30 5843 H 539.072 -3.71397 1.48 0
M  V30 5844 H 540.512 -4.20244 0.563136 0
M  V30 5845 C 538.971 -3.3104 -0.625647 0
M  V30 5846 O 539.501 -3.65334 -1.67016 0
M  V30 5847 N 537.707 -2.84168 -0.608033 0
M  V30 5848 H 537.254 -2.56458 0.242323 0
M  V30 5849 H 537.212 -2.77732 -1.47352 0
M  V30 5850 N 540.985 -1.06182 -1.16461 0
M  V30 5851 C 542.234 -0.772927 -1.86303 0
M  V30 5852 C 542.547 0.703187 -1.82523 0
M  V30 5853 O 543.753 1.10641 -2.47933 0
M  V30 5854 C 542.209 -1.33249 -3.34324 0
M  V30 5855 C 541.817 -2.83876 -3.46581 0
M  V30 5856 C 543.561 -1.12108 -4.09429 0
M  V30 5857 C 541.468 -3.33082 -4.88682 0
M  V30 5858 H 540.398 -0.285452 -0.697878 0
M  V30 5859 H 543.049 -1.28039 -1.31447 0
M  V30 5860 H 541.431 -0.7528 -3.88779 0
M  V30 5861 H 542.605 -3.47786 -3.02293 0
M  V30 5862 H 540.92 -3.03671 -2.84909 0
M  V30 5863 H 543.517 -1.46361 -5.14279 0
M  V30 5864 H 543.86 -0.0593832 -4.16258 0
M  V30 5865 H 544.393 -1.6665 -3.6121 0
M  V30 5866 H 541.132 -4.38726 -4.87032 0
M  V30 5867 H 540.652 -2.73919 -5.33599 0
M  V30 5868 H 542.331 -3.28344 -5.57494 0
M  V30 5869 N 542.463 1.3308 -0.844243 0
M  V30 5870 C 543.693 2.01515 -0.455541 0
M  V30 5871 C 544.101 1.63655 0.949406 0
M  V30 5872 O 543.444 0.84848 1.62931 0
M  V30 5873 C 543.506 3.55967 -0.502801 0
M  V30 5874 C 543.17 4.17222 -1.86481 0
M  V30 5875 C 544.167 4.36205 -2.8288 0
M  V30 5876 C 541.852 4.53528 -2.15911 0
M  V30 5877 C 543.846 4.90649 -4.06869 0
M  V30 5878 C 541.533 5.07679 -3.40155 0
M  V30 5879 C 542.531 5.26186 -4.35451 0
M  V30 5880 O 542.219 5.79183 -5.57496 0
M  V30 5881 H 541.951 0.65199 -0.178565 0
M  V30 5882 H 544.505 1.70867 -1.1399 0
M  V30 5883 H 542.735 3.85965 0.23836 0
M  V30 5884 H 544.424 4.05688 -0.131169 0
M  V30 5885 H 545.19 4.085 -2.61444 0
M  V30 5886 H 541.069 4.38414 -1.42528 0
M  V30 5887 H 544.613 5.0501 -4.81259 0
M  V30 5888 H 540.51 5.34815 -3.61446 0
M  V30 5889 H 541.278 5.97591 -5.5931 0
M  V30 5890 N 543.941 0.601185 1.45683 0
M  V30 5891 C 544.888 -0.121396 2.30481 0
M  V30 5892 C 545.858 -0.866232 1.41724 0
M  V30 5893 O 547.043 -0.85324 1.70659 0
M  V30 5894 C 544.183 -1.11704 3.26521 0
M  V30 5895 C 543.296 -0.373741 4.3038 0
M  V30 5896 C 542.431 -1.35854 5.13534 0
M  V30 5897 C 541.47 -0.602689 6.09126 0
M  V30 5898 N 540.607 -1.53645 6.85082 0
M  V30 5899 H 545.447 0.607732 2.91737 0
M  V30 5900 H 542.984 0.311502 1.43764 0
M  V30 5901 H 544.942 -1.70735 3.80664 0
M  V30 5902 H 543.572 -1.81366 2.67032 0
M  V30 5903 H 542.624 0.331962 3.78949 0
M  V30 5904 H 543.936 0.2163 4.98331 0
M  V30 5905 H 543.09 -2.02111 5.72046 0
M  V30 5906 H 541.829 -1.98251 4.45587 0
M  V30 5907 H 540.834 0.0735482 5.49751 0
M  V30 5908 H 542.059 0.0161467 6.79098 0
M  V30 5909 H 540.005 -2.14819 6.1983 0
M  V30 5910 H 539.922 -0.999688 7.49361 0
M  V30 5911 H 541.19 -2.1888 7.48139 0
M  V30 5912 N 545.419 -1.53889 0.339982 0
M  V30 5913 C 546.665 -2.01152 -0.258003 0
M  V30 5914 C 546.998 -1.22749 -1.50487 0
M  V30 5915 O 546.273 -0.314156 -1.91946 0
M  V30 5916 C 546.556 -3.55468 -0.575717 0
M  V30 5917 C 546.409 -4.44584 0.682996 0
M  V30 5918 C 547.728 -4.1768 -1.38677 0
M  V30 5919 H 544.847 -0.731198 -0.0922992 0
M  V30 5920 H 547.489 -1.84352 0.459814 0
M  V30 5921 H 545.639 -3.69914 -1.18725 0
M  V30 5922 H 547.311 -4.41981 1.32102 0
M  V30 5923 H 545.554 -4.13592 1.3086 0
M  V30 5924 H 546.225 -5.5043 0.416001 0
M  V30 5925 H 548.701 -4.0691 -0.869705 0
M  V30 5926 H 547.577 -5.25734 -1.57783 0
M  V30 5927 H 547.838 -3.72069 -2.38782 0
M  V30 5928 N 546.897 -0.0685191 -1.57451 0
M  V30 5929 C 547.86 0.885173 -2.11417 0
M  V30 5930 C 548.86 1.22853 -1.03748 0
M  V30 5931 O 550.05 1.16235 -1.2975 0
M  V30 5932 C 547.182 2.18964 -2.61281 0
M  V30 5933 H 548.375 0.417034 -2.96986 0
M  V30 5934 H 545.928 0.18014 -1.55258 0
M  V30 5935 H 546.663 2.70321 -1.79156 0
M  V30 5936 H 546.448 1.9534 -3.39977 0
M  V30 5937 H 547.938 2.87242 -3.0312 0
M  V30 5938 N 548.375 1.56261 0.205012 0
M  V30 5939 C 549.652 1.70856 0.952233 0
M  V30 5940 C 550.032 0.620501 2.01775 0
M  V30 5941 O 549.38 -0.370035 2.25484 0
M  V30 5942 C 549.59 3.12807 1.54767 0
M  V30 5943 C 550.938 3.72733 2.0336 0
M  V30 5944 O 551.962 3.15873 1.64629 0
M  V30 5945 O 550.821 4.72501 2.746 0
M  V30 5946 H 547.915 0.696496 0.445895 0
M  V30 5947 H 550.461 1.6857 0.195489 0
M  V30 5948 H 549.233 3.83465 0.779132 0
M  V30 5949 H 548.856 3.1928 2.36951 0
M  V30 5950 N 549.853 -0.472356 1.50355 0
M  V30 5951 C 551.1 -1.22453 1.61281 0
M  V30 5952 C 551.428 -1.91972 0.31256 0
M  V30 5953 O 550.683 -1.82696 -0.701475 0
M  V30 5954 C 550.982 -2.29257 2.74182 0
M  V30 5955 C 550.648 -1.76999 4.14708 0
M  V30 5956 C 549.31 -1.62467 4.52944 0
M  V30 5957 C 551.662 -1.38215 5.0254 0
M  V30 5958 C 548.99 -1.07574 5.76754 0
M  V30 5959 C 551.342 -0.847638 6.26895 0
M  V30 5960 C 550.006 -0.688946 6.63935 0
M  V30 5961 H 549.276 -0.448087 0.590168 0
M  V30 5962 H 551.923 -0.520744 1.84284 0
M  V30 5963 H 550.228 -3.05538 2.45263 0
M  V30 5964 H 551.925 -2.87212 2.7984 0
M  V30 5965 H 548.515 -1.89276 3.84542 0
M  V30 5966 H 552.699 -1.48276 4.73633 0
M  V30 5967 H 547.955 -0.940237 6.04127 0
M  V30 5968 H 552.129 -0.538455 6.94315 0
M  V30 5969 H 549.756 -0.261435 7.5975 0
M  V30 5970 N 551.331 -1.39911 -0.725443 0
M  V30 5971 C 552.579 -1.37382 -1.48224 0
M  V30 5972 C 552.9 0.0264107 -1.94982 0
M  V30 5973 O 552.17 0.979408 -1.6966 0
M  V30 5974 H 550.75 -0.505596 -0.549892 0
M  V30 5975 H 553.412 -1.7487 -0.860608 0
M  V30 5976 H 552.508 -2.04254 -2.3598 0
M  V30 5977 N 552.809 0.956637 -1.25245 0
M  V30 5978 C 553.739 2.07058 -1.07931 0
M  V30 5979 C 554.72 1.70096 0.0110361 0
M  V30 5980 O 555.905 1.93555 -0.158121 0
M  V30 5981 C 553.035 3.40272 -0.695124 0
M  V30 5982 C 551.989 3.91235 -1.73549 0
M  V30 5983 C 551.315 5.20921 -1.20604 0
M  V30 5984 C 552.615 4.17837 -3.13385 0
M  V30 5985 H 554.309 2.218 -2.01109 0
M  V30 5986 H 551.855 1.06581 -0.968326 0
M  V30 5987 H 553.808 4.1765 -0.560949 0
M  V30 5988 H 552.532 3.25462 0.272355 0
M  V30 5989 H 551.191 3.16025 -1.85807 0
M  V30 5990 H 550.839 5.02479 -0.228846 0
M  V30 5991 H 550.539 5.55987 -1.90136 0
M  V30 5992 H 552.063 6.00897 -1.08421 0
M  V30 5993 H 553.477 4.8588 -3.04292 0
M  V30 5994 H 551.874 4.64154 -3.80369 0
M  V30 5995 H 552.944 3.2419 -3.60595 0
M  V30 5996 N 554.287 1.06798 1.15896 0
M  V30 5997 C 555.25 0.687328 2.18651 0
M  V30 5998 C 556.25 -0.269559 1.58524 0
M  V30 5999 O 557.44 -0.0512627 1.74125 0
M  V30 6000 C 554.572 0.0121642 3.40898 0
M  V30 6001 H 555.765 1.59701 2.53842 0
M  V30 6002 H 553.318 0.863828 1.3026 0
M  V30 6003 H 554.053 -0.910025 3.1127 0
M  V30 6004 H 553.838 0.700309 3.85795 0
M  V30 6005 H 555.328 -0.239703 4.16911 0
M  V30 6006 N 555.766 -1.3263 0.851289 0
M  V30 6007 C 557.182 -1.50162 0.5407 0
M  V30 6008 C 557.382 -1.78788 -0.929369 0
M  V30 6009 O 556.438 -1.85545 -1.71258 0
M  V30 6010 C 557.751 -2.64803 1.42478 0
M  V30 6011 C 559.299 -2.78688 1.42485 0
M  V30 6012 C 559.774 -3.96405 2.29407 0
M  V30 6013 N 561.265 -4.0366 2.27184 0
M  V30 6014 C 562 -4.93971 2.9117 0
M  V30 6015 N 561.496 -5.89313 3.64256 0
M  V30 6016 N 563.289 -4.87066 2.80576 0
M  V30 6017 H 555.44 -1.12315 1.80275 0
M  V30 6018 H 557.703 -0.553266 0.769806 0
M  V30 6019 H 557.409 -2.50368 2.46999 0
M  V30 6020 H 557.283 -3.60506 1.10974 0
M  V30 6021 H 559.67 -2.92547 0.387304 0
M  V30 6022 H 559.751 -1.83708 1.78002 0
M  V30 6023 H 559.395 -3.83304 3.33228 0
M  V30 6024 H 559.325 -4.90654 1.91224 0
M  V30 6025 H 561.816 -3.35435 1.74045 0
M  V30 6026 H 562.129 -6.54913 4.10255 0
M  V30 6027 H 560.474 -5.8935 3.68364 0
M  V30 6028 H 563.665 -4.11552 2.23031 0
M  V30 6029 H 563.838 -5.57248 3.30725 0
M  V30 6030 N 557.244 -0.608902 -1.45362 0
M  V30 6031 C 558.49 -0.104762 -2.02529 0
M  V30 6032 C 558.823 1.26191 -1.47613 0
M  V30 6033 O 558.098 1.8327 -0.65134 0
M  V30 6034 C 558.381 -0.0672661 -3.60037 0
M  V30 6035 C 558.234 -1.4647 -4.25284 0
M  V30 6036 C 559.553 0.619877 -4.35713 0
M  V30 6037 H 556.672 -0.0395438 -0.735938 0
M  V30 6038 H 559.314 -0.781126 -1.73201 0
M  V30 6039 H 557.464 0.50871 -3.85155 0
M  V30 6040 H 559.136 -2.08785 -4.11347 0
M  V30 6041 H 557.379 -2.02502 -3.83634 0
M  V30 6042 H 558.05 -1.39069 -5.34195 0
M  V30 6043 H 560.526 0.130297 -4.15896 0
M  V30 6044 H 559.402 0.615224 -5.45441 0
M  V30 6045 H 559.663 1.68621 -4.0868 0
M  V30 6046 N 558.722 1.53707 -0.348139 0
M  V30 6047 C 559.969 2.00988 0.246966 0
M  V30 6048 C 560.297 1.23586 1.50189 0
M  V30 6049 O 559.552 0.312817 1.93184 0
M  V30 6050 C 559.851 3.52292 0.602061 0
M  V30 6051 C 559.517 4.47453 -0.556509 0
M  V30 6052 C 558.179 4.73188 -0.874446 0
M  V30 6053 C 560.531 5.03851 -1.33354 0
M  V30 6054 C 557.859 5.52577 -1.9717 0
M  V30 6055 C 560.211 5.84437 -2.42108 0
M  V30 6056 C 558.875 6.08465 -2.74456 0
M  V30 6057 H 558.145 0.735469 0.0903712 0
M  V30 6058 H 560.792 1.85464 -0.477001 0
M  V30 6059 H 559.097 3.65672 1.40681 0
M  V30 6060 H 560.794 3.86337 1.07447 0
M  V30 6061 H 557.384 4.27558 -0.298652 0
M  V30 6062 H 561.568 4.8393 -1.10117 0
M  V30 6063 H 556.824 5.69418 -2.22651 0
M  V30 6064 H 560.998 6.27151 -3.02745 0
M  V30 6065 H 558.625 6.69768 -3.59604 0
M  V30 6066 N 560.2 0.0768682 1.57412 0
M  V30 6067 C 561.147 -0.888577 2.13009 0
M  V30 6068 C 562.117 -1.29198 1.0439 0
M  V30 6069 O 563.302 -1.37694 1.3208 0
M  V30 6070 C 560.442 -2.14899 2.70023 0
M  V30 6071 C 559.555 -1.79777 3.92816 0
M  V30 6072 C 558.69 -3.00467 4.38056 0
M  V30 6073 C 557.729 -2.61385 5.53484 0
M  V30 6074 N 556.866 -3.74851 5.93659 0
M  V30 6075 H 561.706 -0.407593 2.95199 0
M  V30 6076 H 559.243 -0.189534 1.45874 0
M  V30 6077 H 561.201 -2.88688 3.0119 0
M  V30 6078 H 559.831 -2.60529 1.9059 0
M  V30 6079 H 558.883 -0.960301 3.68079 0
M  V30 6080 H 560.195 -1.47027 4.76639 0
M  V30 6081 H 559.349 -3.82529 4.7091 0
M  V30 6082 H 558.088 -3.36413 3.53097 0
M  V30 6083 H 557.093 -1.77746 5.20275 0
M  V30 6084 H 558.318 -2.26603 6.40178 0
M  V30 6085 H 556.264 -4.1055 5.11649 0
M  V30 6086 H 556.181 -3.45887 6.72234 0
M  V30 6087 H 557.449 -4.57477 6.31138 0
M  V30 6088 N 561.678 -1.56367 -0.196722 0
M  V30 6089 C 562.924 -1.80796 -0.918725 0
M  V30 6090 C 563.257 -0.650645 -1.82976 0
M  V30 6091 O 562.532 0.348889 -1.91345 0
M  V30 6092 C 562.815 -3.15472 -1.73636 0
M  V30 6093 C 562.668 -4.41693 -0.85015 0
M  V30 6094 C 563.987 -3.46824 -2.70927 0
M  V30 6095 H 561.106 -0.657702 -0.332561 0
M  V30 6096 H 563.748 -1.89086 -0.186186 0
M  V30 6097 H 561.898 -3.08536 -2.36088 0
M  V30 6098 H 563.57 -4.60673 -0.240459 0
M  V30 6099 H 561.813 -4.33517 -0.156785 0
M  V30 6100 H 562.484 -5.32419 -1.45719 0
M  V30 6101 H 564.96 -3.54049 -2.18607 0
M  V30 6102 H 563.836 -4.4218 -3.25219 0
M  V30 6103 H 564.097 -2.70236 -3.49893 0
M  V30 6104 N 563.156 0.464375 -1.50603 0
M  V30 6105 C 564.433 1.22549 -1.5245 0
M  V30 6106 C 564.813 2.09327 -0.273035 0
M  V30 6107 O 564.161 2.16074 0.743242 0
M  V30 6108 C 564.371 2.05074 -2.82393 0
M  V30 6109 C 565.719 2.63036 -3.33313 0
M  V30 6110 O 566.743 2.1531 -2.8376 0
M  V30 6111 O 565.602 3.5001 -4.19709 0
M  V30 6112 H 562.696 0.556471 -0.611775 0
M  V30 6113 H 565.242 0.475648 -1.62898 0
M  V30 6114 H 564.014 1.41169 -3.64948 0
M  V30 6115 H 563.637 2.87179 -2.7498 0
M  V30 6116 N 564.634 1.40294 0.718013 0
M  V30 6117 C 565.582 1.40536 1.85344 0
M  V30 6118 C 566.576 0.286192 1.66965 0
M  V30 6119 O 567.782 0.457105 1.74099 0
M  V30 6120 H 564.157 0.439236 0.61039 0
M  V30 6121 H 566.128 2.36275 1.82255 0
M  V30 6122 C 564.877 1.28245 3.23185 0
M  V30 6123 H 564.2 2.1364 3.37932 0
M  V30 6124 H 565.64 1.32474 4.02774 0
M  V30 6125 C 564.099 -0.0075503 3.36899 0
M  V30 6126 O 564.629 -0.971391 3.89778 0
M  V30 6127 N 562.835 -0.0762479 2.905 0
M  V30 6128 H 562.382 0.708819 2.47656 0
M  V30 6129 H 562.34 -0.938846 3.00055 0
M  V30 6130 N 566.112 -0.949982 1.2575 0
M  V30 6131 C 567.022 -2.08109 1.08295 0
M  V30 6132 C 568.038 -1.7399 0.0188181 0
M  V30 6133 O 569.214 -2.00187 0.220724 0
M  V30 6134 C 566.279 -3.39383 0.708534 0
M  V30 6135 C 565.34 -3.8734 1.85111 0
M  V30 6136 C 564.573 -5.12349 1.49447 0
M  V30 6137 O 564.796 -5.6905 0.392212 0
M  V30 6138 O 563.73 -5.5513 2.32624 0
M  V30 6139 H 567.556 -2.25738 2.03165 0
M  V30 6140 H 565.141 -1.06545 1.04731 0
M  V30 6141 H 567.023 -4.18277 0.512061 0
M  V30 6142 H 565.698 -3.23013 -0.210854 0
M  V30 6143 H 564.605 -3.09429 2.10248 0
M  V30 6144 H 565.938 -4.08216 2.74991 0
M  V30 6145 N 567.59 -1.07411 -1.15328 0
M  V30 6146 C 568.867 -0.710732 -1.82231 0
M  V30 6147 C 569.247 0.806732 -1.95077 0
M  V30 6148 O 568.595 1.72139 -1.50268 0
M  V30 6149 C 568.805 -1.42586 -3.18544 0
M  V30 6150 C 570.153 -1.57836 -3.94174 0
M  V30 6151 O 571.177 -1.38669 -3.281 0
M  V30 6152 O 570.036 -1.8938 -5.12638 0
M  V30 6153 H 567.13 -0.25297 -0.78736 0
M  V30 6154 H 569.676 -1.17508 -1.22434 0
M  V30 6155 H 568.448 -2.46008 -3.04296 0
M  V30 6156 H 568.071 -0.952332 -3.86026 0
M  V30 6157 N 569.068 1.32177 -0.85831 0
M  V30 6158 C 570.317 1.96392 -0.459689 0
M  V30 6159 C 570.63 1.68659 0.990632 0
M  V30 6160 O 571.836 2.26641 1.49485 0
M  V30 6161 C 570.292 3.51542 -0.7711 0
M  V30 6162 C 569.9 3.8813 -2.2374 0
M  V30 6163 C 571.644 4.2221 -0.44038 0
M  V30 6164 C 569.551 5.36341 -2.49183 0
M  V30 6165 H 568.481 0.735007 -0.168169 0
M  V30 6166 H 571.132 1.50518 -1.0496 0
M  V30 6167 H 569.514 3.95846 -0.11058 0
M  V30 6168 H 570.688 3.54824 -2.94001 0
M  V30 6169 H 569.003 3.30497 -2.533 0
M  V30 6170 H 571.6 5.31234 -0.607855 0
M  V30 6171 H 571.943 4.11683 0.618291 0
M  V30 6172 H 572.476 3.83502 -1.05695 0
M  V30 6173 H 569.215 5.51892 -3.53689 0
M  V30 6174 H 568.735 5.7104 -1.83504 0
M  V30 6175 H 570.414 6.03466 -2.33318 0
M  V30 6176 N 570.547 0.616602 1.45037 0
M  V30 6177 C 571.777 0.121791 2.06241 0
M  V30 6178 C 572.185 -1.20289 1.46038 0
M  V30 6179 O 571.528 -1.7456 0.572242 0
M  V30 6180 C 571.59 -0.0827345 3.59405 0
M  V30 6181 C 571.254 1.16153 4.41993 0
M  V30 6182 C 572.251 2.08183 4.76399 0
M  V30 6183 C 569.936 1.39288 4.82601 0
M  V30 6184 C 571.93 3.21668 5.5028 0
M  V30 6185 C 569.617 2.53073 5.56235 0
M  V30 6186 C 570.615 3.44091 5.89992 0
M  V30 6187 O 570.303 4.55894 6.6213 0
M  V30 6188 H 570.035 0.0701667 0.672349 0
M  V30 6189 H 572.589 0.846877 1.87129 0
M  V30 6190 H 570.819 -0.862812 3.76952 0
M  V30 6191 H 572.508 -0.530273 4.02421 0
M  V30 6192 H 573.274 1.91538 4.45576 0
M  V30 6193 H 569.153 0.693396 4.55755 0
M  V30 6194 H 572.697 3.92733 5.76547 0
M  V30 6195 H 568.594 2.69667 5.86472 0
M  V30 6196 H 569.362 4.5469 6.80587 0
M  V30 6197 N 572.025 -1.5352 0.356285 0
M  V30 6198 C 572.935 -2.29151 -0.502712 0
M  V30 6199 C 573.951 -1.34753 -1.1008 0
M  V30 6200 O 575.127 -1.67803 -1.11374 0
M  V30 6201 C 572.192 -3.05911 -1.63154 0
M  V30 6202 C 571.253 -4.15958 -1.06194 0
M  V30 6203 C 570.486 -4.8905 -2.13696 0
M  V30 6204 O 570.709 -4.61919 -3.34645 0
M  V30 6205 O 569.643 -5.75202 -1.77275 0
M  V30 6206 H 573.469 -3.03492 0.112466 0
M  V30 6207 H 571.054 -1.4891 0.120942 0
M  V30 6208 H 572.936 -3.53874 -2.28804 0
M  V30 6209 H 571.611 -2.34415 -2.23229 0
M  V30 6210 H 570.518 -3.7227 -0.369603 0
M  V30 6211 H 571.851 -4.89593 -0.505872 0
M  V30 6212 N 573.503 -0.0852151 -1.57369 0
M  V30 6213 C 574.728 0.592872 -1.98746 0
M  V30 6214 C 575.153 1.61538 -0.963689 0
M  V30 6215 O 574.511 1.81168 0.069071 0
M  V30 6216 C 574.559 1.22599 -3.39119 0
M  V30 6217 O 573.663 2.34185 -3.39457 0
M  V30 6218 H 573.004 0.151314 -0.646529 0
M  V30 6219 H 575.534 -0.163703 -2.03944 0
M  V30 6220 H 575.544 1.56965 -3.76598 0
M  V30 6221 H 574.219 0.476831 -4.13158 0
M  V30 6222 H 572.796 2.01512 -3.13763 0
M  V30 6223 N 574.981 1.5647 0.188427 0
M  V30 6224 C 576.397 1.50204 0.539532 0
M  V30 6225 C 576.597 0.78644 1.85519 0
M  V30 6226 O 575.653 0.339714 2.50204 0
M  V30 6227 C 576.966 2.94893 0.588103 0
M  V30 6228 C 578.514 3.05602 0.67648 0
M  V30 6229 C 578.989 4.51716 0.756101 0
M  V30 6230 N 580.48 4.55894 0.819451 0
M  V30 6231 C 581.215 5.66272 0.90134 0
M  V30 6232 N 580.711 6.86323 0.945118 0
M  V30 6233 N 582.504 5.54201 0.939043 0
M  V30 6234 H 574.655 2.01406 -0.674493 0
M  V30 6235 H 576.918 0.916828 -0.241103 0
M  V30 6236 H 576.624 3.50334 -0.309633 0
M  V30 6237 H 576.498 3.4861 1.44051 0
M  V30 6238 H 578.885 2.50206 1.56465 0
M  V30 6239 H 578.966 2.54999 -0.202262 0
M  V30 6240 H 578.61 5.07739 -0.12774 0
M  V30 6241 H 578.54 5.00058 1.65074 0
M  V30 6242 H 581.031 3.69452 0.794594 0
M  V30 6243 H 581.344 7.66194 1.0083 0
M  V30 6244 H 579.689 6.88968 0.913683 0
M  V30 6245 H 582.88 4.59333 0.901725 0
M  V30 6246 H 583.053 6.40247 0.999402 0
M  V30 6247 N 576.459 -0.456382 1.50847 0
M  V30 6248 C 577.409 -1.55045 1.67168 0
M  V30 6249 C 578.393 -1.52061 0.525958 0
M  V30 6250 O 579.585 -1.58836 0.781036 0
M  V30 6251 C 576.714 -2.93386 1.78268 0
M  V30 6252 C 575.8 -3.01198 2.98564 0
M  V30 6253 N 576.191 -2.78792 4.22029 0
M  V30 6254 C 574.489 -3.32346 2.97426 0
M  V30 6255 C 575.19 -2.91953 5.03128 0
M  V30 6256 N 574.166 -3.22797 4.37382 0
M  V30 6257 H 577.968 -1.36444 2.60308 0
M  V30 6258 H 575.482 -0.663375 1.48233 0
M  V30 6259 H 577.479 -3.72071 1.88067 0
M  V30 6260 H 576.139 -3.13022 0.862965 0
M  V30 6261 H 577.15 -2.54087 4.51287 0
M  V30 6262 H 573.827 -3.57877 2.15012 0
M  V30 6263 H 575.217 -2.78745 6.11351 0
M  V30 6264 N 577.937 -1.40673 -0.710563 0
M  V30 6265 C 578.847 -1.43663 -1.85467 0
M  V30 6266 C 579.863 -0.328721 -1.70867 0
M  V30 6267 O 581.039 -0.574098 -1.93044 0
M  V30 6268 C 578.104 -1.30226 -3.21313 0
M  V30 6269 C 577.165 -2.51204 -3.48131 0
M  V30 6270 C 576.398 -2.38398 -4.77495 0
M  V30 6271 O 576.621 -1.40048 -5.5294 0
M  V30 6272 O 575.555 -3.2787 -5.04762 0
M  V30 6273 H 579.381 -2.40156 -1.859 0
M  V30 6274 H 576.966 -1.22049 -0.861652 0
M  V30 6275 H 578.848 -1.2496 -4.02446 0
M  V30 6276 H 577.523 -0.368419 -3.21597 0
M  V30 6277 H 576.43 -2.62048 -2.66987 0
M  V30 6278 H 577.763 -3.43366 -3.52648 0
M  V30 6279 N 579.415 0.9433 -1.26252 0
M  V30 6280 C 580.664 1.68369 -1.11062 0
M  V30 6281 C 580.977 1.92514 0.346104 0
M  V30 6282 O 582.183 2.64358 0.618646 0
M  V30 6283 C 580.639 3.03171 -1.93946 0
M  V30 6284 C 580.247 2.86782 -3.4418 0
M  V30 6285 C 581.991 3.80916 -1.87359 0
M  V30 6286 C 579.898 4.17044 -4.19319 0
M  V30 6287 H 578.828 0.631469 -0.412023 0
M  V30 6288 H 581.479 1.04922 -1.50544 0
M  V30 6289 H 579.861 3.67587 -1.47296 0
M  V30 6290 H 581.035 2.31229 -3.98585 0
M  V30 6291 H 579.35 2.22482 -3.51981 0
M  V30 6292 H 581.947 4.77417 -2.40784 0
M  V30 6293 H 582.29 4.07658 -0.843857 0
M  V30 6294 H 582.823 3.2327 -2.31821 0
M  V30 6295 H 579.562 3.95487 -5.22753 0
M  V30 6296 H 579.082 4.72319 -3.69696 0
M  V30 6297 H 580.761 4.85513 -4.27651 0
M  V30 6298 N 580.893 1.08022 1.14757 0
M  V30 6299 C 581.84 0.706657 2.19716 0
M  V30 6300 C 582.81 -0.30525 1.63271 0
M  V30 6301 O 583.995 -0.19015 1.8985 0
M  V30 6302 C 581.135 0.117914 3.44898 0
M  V30 6303 C 580.248 1.18212 4.15512 0
M  V30 6304 C 579.383 0.557659 5.28265 0
M  V30 6305 C 578.422 1.60418 5.90705 0
M  V30 6306 N 577.559 1.0018 6.94916 0
M  V30 6307 H 582.399 1.60603 2.51019 0
M  V30 6308 H 579.936 0.802664 1.23271 0
M  V30 6309 H 581.894 -0.241112 4.16503 0
M  V30 6310 H 580.524 -0.744788 3.1409 0
M  V30 6311 H 579.576 1.65863 3.42335 0
M  V30 6312 H 580.888 1.97533 4.5802 0
M  V30 6313 H 580.042 0.146654 6.06523 0
M  V30 6314 H 578.781 -0.267249 4.86967 0
M  V30 6315 H 577.786 2.02489 5.11154 0
M  V30 6316 H 579.011 2.43149 6.34078 0
M  V30 6317 H 576.957 0.197917 6.55701 0
M  V30 6318 H 576.874 1.73216 7.35889 0
M  V30 6319 H 578.142 0.616523 7.77058 0
M  V30 6320 N 582.371 -1.3172 0.865308 0
M  V30 6321 C 583.301 -2.31109 0.333302 0
M  V30 6322 C 584.282 -1.60148 -0.573301 0
M  V30 6323 O 585.467 -1.87882 -0.491305 0
M  V30 6324 C 582.597 -3.44104 -0.470078 0
M  V30 6325 C 581.551 -4.26623 0.343021 0
M  V30 6326 C 580.877 -5.31482 -0.585756 0
M  V30 6327 C 582.177 -4.98001 1.57456 0
M  V30 6328 H 583.871 -2.75855 1.1638 0
M  V30 6329 H 581.417 -1.3262 0.561069 0
M  V30 6330 H 583.37 -4.12682 -0.852752 0
M  V30 6331 H 582.094 -2.98112 -1.33404 0
M  V30 6332 H 580.753 -3.59707 0.707583 0
M  V30 6333 H 580.401 -4.81741 -1.44686 0
M  V30 6334 H 580.101 -5.87582 -0.0456494 0
M  V30 6335 H 581.625 -6.0292 -0.965375 0
M  V30 6336 H 583.039 -5.59201 1.26359 0
M  V30 6337 H 581.436 -5.63876 2.05339 0
M  V30 6338 H 582.506 -4.25253 2.32997 0
M  V30 6339 N 583.85 -0.624285 -1.44708 0
M  V30 6340 C 585.26 -0.2092 -1.85524 0
M  V30 6341 C 585.611 1.23783 -1.52225 0
M  V30 6342 O 584.736 1.94089 -0.956986 0
M  V30 6343 C 585.332 -0.372897 -3.36742 0
M  V30 6344 C 583.891 -0.012374 -3.76398 0
M  V30 6345 C 583.038 -0.68951 -2.68591 0
M  V30 6346 H 585.989 -0.829894 -1.35272 0
M  V30 6347 H 586.01 0.390134 -3.78495 0
M  V30 6348 H 585.522 -1.42615 -3.60947 0
M  V30 6349 H 583.623 1.03941 -3.57809 0
M  V30 6350 H 583.736 -0.417663 -4.77276 0
M  V30 6351 H 582.1 -0.125484 -2.54391 0
M  V30 6352 H 582.883 -1.74522 -2.9563 0
M  V30 6353 N 585.328 1.53329 -0.364422 0
M  V30 6354 C 586.574 2.01537 0.225969 0
M  V30 6355 C 586.907 1.25128 1.48515 0
M  V30 6356 O 586.182 0.344653 1.91422 0
M  V30 6357 C 586.465 3.56339 0.519092 0
M  V30 6358 C 586.318 4.43441 -0.753639 0
M  V30 6359 C 587.637 4.19833 1.32015 0
M  V30 6360 H 584.756 0.732573 0.0806548 0
M  V30 6361 H 587.398 1.83597 -0.489084 0
M  V30 6362 H 585.548 3.71756 1.12825 0
M  V30 6363 H 587.22 4.39823 -1.39116 0
M  V30 6364 H 585.463 4.11457 -1.37424 0
M  V30 6365 H 586.134 5.49699 -0.503517 0
M  V30 6366 H 588.61 4.08242 0.804859 0
M  V30 6367 H 587.486 5.28177 1.49399 0
M  V30 6368 H 587.747 3.75821 2.32832 0
M  V30 6369 N 586.806 0.0935595 1.57322 0
M  V30 6370 C 587.753 -0.865935 2.1394 0
M  V30 6371 C 588.723 -1.28083 1.05754 0
M  V30 6372 O 589.908 -1.36285 1.33533 0
M  V30 6373 C 587.048 -2.12023 2.72287 0
M  V30 6374 C 586.161 -1.756 3.94701 0
M  V30 6375 C 585.296 -2.95804 4.41218 0
M  V30 6376 C 584.335 -2.555 5.56225 0
M  V30 6377 N 583.472 -3.68534 5.97601 0
M  V30 6378 H 588.312 -0.376261 2.95615 0
M  V30 6379 H 585.849 -0.174052 1.46067 0
M  V30 6380 H 587.807 -2.85477 3.04235 0
M  V30 6381 H 586.437 -2.58492 1.93343 0
M  V30 6382 H 585.489 -0.921208 3.69077 0
M  V30 6383 H 586.801 -1.41964 4.78171 0
M  V30 6384 H 585.955 -3.77513 4.74941 0
M  V30 6385 H 584.694 -3.32649 3.56645 0
M  V30 6386 H 583.699 -1.72218 5.22131 0
M  V30 6387 H 584.924 -2.19801 6.42545 0
M  V30 6388 H 582.87 -4.051 5.15974 0
M  V30 6389 H 582.787 -3.38737 6.75865 0
M  V30 6390 H 584.055 -4.50757 6.35955 0
M  V30 6391 N 588.284 -1.56567 -0.180126 0
M  V30 6392 C 589.53 -1.82658 -0.894859 0
M  V30 6393 C 589.885 -0.672826 -1.80252 0
M  V30 6394 O 589.178 0.331227 -1.88715 0
M  V30 6395 C 589.372 -3.1252 -1.73395 0
M  V30 6396 C 589.201 -4.40417 -0.909028 0
M  V30 6397 C 587.971 -5.01872 -0.587562 0
M  V30 6398 C 590.169 -5.13669 -0.254698 0
M  V30 6399 N 588.151 -6.13373 0.254428 0
M  V30 6400 C 589.522 -6.18373 0.448837 0
M  V30 6401 C 591.577 -4.97603 -0.171958 0
M  V30 6402 C 590.28 -7.08753 1.22725 0
M  V30 6403 C 592.306 -5.88418 0.593101 0
M  V30 6404 C 591.668 -6.92579 1.28503 0
M  V30 6405 H 587.767 -0.719493 -0.306356 0
M  V30 6406 H 590.351 -1.94021 -0.16247 0
M  V30 6407 H 588.522 -3.02365 -2.43783 0
M  V30 6408 H 590.254 -3.2664 -2.38931 0
M  V30 6409 H 587.009 -4.64666 -0.915557 0
M  V30 6410 H 587.433 -6.73721 0.665474 0
M  V30 6411 H 592.075 -4.17089 -0.692555 0
M  V30 6412 H 589.793 -7.88718 1.75923 0
M  V30 6413 H 593.379 -5.78059 0.658674 0
M  V30 6414 H 592.259 -7.61638 1.86754 0
M  V30 6415 N 589.762 0.448376 -1.51087 0
M  V30 6416 C 590.99 1.22143 -1.66999 0
M  V30 6417 C 591.405 1.85283 -0.362699 0
M  V30 6418 O 590.762 1.70236 0.65772 0
M  V30 6419 C 590.813 2.31357 -2.7777 0
M  V30 6420 O 590.534 1.70801 -4.03434 0
M  V30 6421 C 592.035 3.21836 -3.04855 0
M  V30 6422 H 589.255 0.368558 -0.560719 0
M  V30 6423 H 591.799 0.532618 -1.97442 0
M  V30 6424 H 589.954 2.95973 -2.49958 0
M  V30 6425 H 590.368 2.42895 -4.64868 0
M  V30 6426 H 591.842 3.94627 -3.85971 0
M  V30 6427 H 592.319 3.81949 -2.16821 0
M  V30 6428 H 592.925 2.62933 -3.34285 0
M  V30 6429 N 591.24 1.41047 0.703093 0
M  V30 6430 C 592.203 1.42036 1.79884 0
M  V30 6431 C 593.203 0.312153 1.57741 0
M  V30 6432 O 594.393 0.571672 1.64553 0
M  V30 6433 C 591.525 1.22437 3.18154 0
M  V30 6434 H 592.718 2.39572 1.80403 0
M  V30 6435 H 590.271 1.27079 0.909977 0
M  V30 6436 H 591.006 0.257112 3.23279 0
M  V30 6437 H 590.791 2.02723 3.35627 0
M  V30 6438 H 592.281 1.25946 3.98155 0
M  V30 6439 N 592.718 -0.936591 1.26751 0
M  V30 6440 C 594.129 -1.49816 1.1141 0
M  V30 6441 C 594.48 -1.9383 -0.304015 0
M  V30 6442 O 593.605 -1.80346 -1.196 0
M  V30 6443 C 594.2 -2.72271 2.01629 0
M  V30 6444 C 592.759 -3.2468 1.9042 0
M  V30 6445 C 591.906 -1.97444 1.94708 0
M  V30 6446 H 594.857 -0.751604 1.39773 0
M  V30 6447 H 594.878 -3.46741 1.56688 0
M  V30 6448 H 594.39 -2.40205 3.04833 0
M  V30 6449 H 592.491 -3.61525 0.901674 0
M  V30 6450 H 592.604 -3.91476 2.76195 0
M  V30 6451 H 590.968 -2.13545 1.38818 0
M  V30 6452 H 591.751 -1.67703 2.9955 0
M  V30 6453 N 594.196 -1.08629 -1.14182 0
M  V30 6454 C 595.106 -0.730126 -2.22949 0
M  V30 6455 C 596.122 0.26436 -1.7198 0
M  V30 6456 O 597.298 0.107742 -2.01112 0
M  V30 6457 C 594.363 -0.147227 -3.46387 0
M  V30 6458 C 593.424 -1.19662 -4.12286 0
M  V30 6459 C 592.657 -0.641437 -5.29831 0
M  V30 6460 O 592.88 0.538351 -5.67854 0
M  V30 6461 O 591.814 -1.39257 -5.85569 0
M  V30 6462 H 595.64 -1.63753 -2.55771 0
M  V30 6463 H 593.225 -0.860118 -1.22157 0
M  V30 6464 H 595.107 0.174923 -4.21037 0
M  V30 6465 H 593.782 0.733304 -3.15285 0
M  V30 6466 H 592.689 -1.57133 -3.395 0
M  V30 6467 H 594.022 -2.0495 -4.475 0
M  V30 6468 N 595.674 1.31259 -0.872281 0
M  V30 6469 C 596.637 2.26744 -0.334656 0
M  V30 6470 C 597.637 1.52307 0.515681 0
M  V30 6471 O 598.827 1.71148 0.324656 0
M  V30 6472 C 595.959 3.36841 0.524482 0
M  V30 6473 H 597.152 2.75812 -1.17762 0
M  V30 6474 H 594.705 1.42232 -0.648064 0
M  V30 6475 H 595.44 2.93069 1.38855 0
M  V30 6476 H 595.225 3.92009 -0.0844299 0
M  V30 6477 H 596.715 4.07944 0.892838 0
M  V30 6478 N 597.152 0.631951 1.44375 0
M  V30 6479 C 598.401 0.134214 2.01253 0
M  V30 6480 C 598.714 -1.25171 1.50305 0
M  V30 6481 O 599.92 -1.8435 1.99317 0
M  V30 6482 C 598.376 0.189187 3.59402 0
M  V30 6483 C 597.984 1.57647 4.19346 0
M  V30 6484 C 599.728 -0.252044 4.23751 0
M  V30 6485 C 597.635 1.58651 5.69722 0
M  V30 6486 H 596.565 0.0464101 0.75257 0
M  V30 6487 H 599.216 0.790868 1.65582 0
M  V30 6488 H 597.598 -0.534584 3.92375 0
M  V30 6489 H 598.772 2.32389 3.97909 0
M  V30 6490 H 597.087 1.96186 3.67288 0
M  V30 6491 H 599.684 -0.264084 5.34047 0
M  V30 6492 H 600.027 -1.27951 3.96149 0
M  V30 6493 H 600.56 0.41926 3.95584 0
M  V30 6494 H 597.299 2.59237 6.0206 0
M  V30 6495 H 596.819 0.882039 5.93279 0
M  V30 6496 H 598.498 1.32082 6.33375 0
M  V30 6497 N 598.631 -1.53133 0.372548 0
M  V30 6498 C 600.047 -1.59585 0.02178 0
M  V30 6499 C 600.247 -1.38736 -1.46132 0
M  V30 6500 O 599.303 -1.19599 -2.22379 0
M  V30 6501 C 600.616 -2.9678 0.483959 0
M  V30 6502 C 602.164 -3.09909 0.438775 0
M  V30 6503 C 602.639 -4.49527 0.876876 0
M  V30 6504 N 604.13 -4.55663 0.832214 0
M  V30 6505 C 604.865 -5.61896 1.14281 0
M  V30 6506 N 604.361 -6.75852 1.52303 0
M  V30 6507 N 606.154 -5.51916 1.06515 0
M  V30 6508 H 598.305 -1.64936 1.33827 0
M  V30 6509 H 600.568 -0.773947 0.547458 0
M  V30 6510 H 600.274 -3.17198 1.51915 0
M  V30 6511 H 600.148 -3.7699 -0.125784 0
M  V30 6512 H 602.535 -2.89197 -0.587294 0
M  V30 6513 H 602.616 -2.31691 1.0841 0
M  V30 6514 H 602.26 -4.70979 1.90109 0
M  V30 6515 H 602.19 -5.26186 0.208727 0
M  V30 6516 H 604.681 -3.73844 0.552195 0
M  V30 6517 H 604.994 -7.52862 1.7441 0
M  V30 6518 H 603.339 -6.77226 1.56175 0
M  V30 6519 H 606.53 -4.6177 0.767235 0
M  V30 6520 H 606.703 -6.34609 1.31053 0
M  V30 6521 N 600.109 -0.101901 -1.5727 0
M  V30 6522 C 601.334 0.571759 -1.99363 0
M  V30 6523 C 601.759 1.60507 -0.980768 0
M  V30 6524 O 601.117 1.81231 0.0498517 0
M  V30 6525 C 601.165 1.18996 -3.404 0
M  V30 6526 O 600.269 2.30572 -3.41922 0
M  V30 6527 H 599.61 0.144449 -0.648098 0
M  V30 6528 H 602.14 -0.185325 -2.03759 0
M  V30 6529 H 602.15 1.52962 -3.78241 0
M  V30 6530 H 600.825 0.432984 -4.1364 0
M  V30 6531 H 599.402 1.98173 -3.15883 0
M  V30 6532 N 601.587 1.56661 0.17182 0
M  V30 6533 C 602.535 1.97289 1.23207 0
M  V30 6534 C 603.529 0.861566 1.45854 0
M  V30 6535 O 604.735 1.04668 1.4644 0
M  V30 6536 H 601.11 0.627681 0.41415 0
M  V30 6537 H 603.081 2.85662 0.862542 0
M  V30 6538 C 601.83 2.34849 2.564 0
M  V30 6539 H 601.153 3.19903 2.39797 0
M  V30 6540 H 602.593 2.67121 3.29276 0
M  V30 6541 C 601.052 1.19172 3.15119 0
M  V30 6542 O 601.582 0.479113 3.98833 0
M  V30 6543 N 599.788 0.962415 2.74201 0
M  V30 6544 H 599.335 1.54365 2.06226 0
M  V30 6545 H 599.293 0.190272 3.13824 0
M  V30 6546 N 603.065 -0.440357 1.51323 0
M  V30 6547 C 604.012 -1.53429 1.72419 0
M  V30 6548 C 604.982 -1.56165 0.565826 0
M  V30 6549 O 606.167 -1.73222 0.799917 0
M  V30 6550 C 603.307 -2.91169 1.85242 0
M  V30 6551 C 602.42 -2.97985 3.12777 0
M  V30 6552 C 601.555 -4.26829 3.16212 0
M  V30 6553 C 600.594 -4.27501 4.38074 0
M  V30 6554 N 599.731 -5.47866 4.39076 0
M  V30 6555 H 604.571 -1.34743 2.65797 0
M  V30 6556 H 602.108 -0.654608 1.31732 0
M  V30 6557 H 604.066 -3.71087 1.90658 0
M  V30 6558 H 602.696 -3.0842 0.952744 0
M  V30 6559 H 601.748 -2.10749 3.16685 0
M  V30 6560 H 603.06 -2.94342 4.02696 0
M  V30 6561 H 602.214 -5.15118 3.20527 0
M  V30 6562 H 600.953 -4.33124 2.24176 0
M  V30 6563 H 599.958 -3.37606 4.33938 0
M  V30 6564 H 601.183 -4.22873 5.31371 0
M  V30 6565 H 599.129 -5.54887 3.49909 0
M  V30 6566 H 599.046 -5.46091 5.22801 0
M  V30 6567 H 600.314 -6.38195 4.4758 0
M  V30 6568 N 604.543 -1.41418 -0.695603 0
M  V30 6569 C 605.79 -1.40774 -1.45564 0
M  V30 6570 C 606.118 -0.0168604 -1.94493 0
M  V30 6571 O 605.373 0.971259 -1.69897 0
M  V30 6572 C 605.672 -2.36112 -2.68302 0
M  V30 6573 C 605.338 -3.82952 -2.38031 0
M  V30 6574 C 604 -4.22954 -2.29486 0
M  V30 6575 C 606.352 -4.75662 -2.13061 0
M  V30 6576 C 603.68 -5.53674 -1.94067 0
M  V30 6577 C 606.032 -6.06702 -1.79151 0
M  V30 6578 C 604.696 -6.45725 -1.69102 0
M  V30 6579 H 603.966 -0.515128 -0.532658 0
M  V30 6580 H 606.613 -1.74216 -0.795047 0
M  V30 6581 H 604.918 -1.95924 -3.39295 0
M  V30 6582 H 606.615 -2.32887 -3.26442 0
M  V30 6583 H 603.205 -3.5127 -2.45576 0
M  V30 6584 H 607.389 -4.45561 -2.18608 0
M  V30 6585 H 602.645 -5.8279 -1.8484 0
M  V30 6586 H 606.819 -6.78041 -1.5885 0
M  V30 6587 H 604.446 -7.46929 -1.41426 0
M  V30 6588 N 606.021 0.929856 -1.27246 0
M  V30 6589 C 607.246 1.71674 -1.16374 0
M  V30 6590 C 607.671 1.86064 0.276024 0
M  V30 6591 O 607.029 1.3591 1.19992 0
M  V30 6592 C 607.077 3.09526 -1.85003 0
M  V30 6593 O 606.181 3.96142 -1.14653 0
M  V30 6594 H 605.522 0.52629 -0.404863 0
M  V30 6595 H 608.052 1.16381 -1.68276 0
M  V30 6596 H 608.062 3.59852 -1.92276 0
M  V30 6597 H 606.737 2.98369 -2.89739 0
M  V30 6598 H 605.314 3.54584 -1.15433 0
M  V30 6599 N 607.499 1.09233 1.13605 0
M  V30 6600 C 608.748 0.82205 1.84188 0
M  V30 6601 C 609.061 -0.654548 1.84323 0
M  V30 6602 O 610.267 -1.04029 2.50779 0
M  V30 6603 C 608.723 1.42066 3.30674 0
M  V30 6604 C 608.331 2.92965 3.38933 0
M  V30 6605 C 610.075 1.22924 4.06313 0
M  V30 6606 C 607.982 3.45922 4.79679 0
M  V30 6607 H 606.912 0.303854 0.690064 0
M  V30 6608 H 609.563 1.31479 1.28006 0
M  V30 6609 H 607.945 0.855613 3.86646 0
M  V30 6610 H 609.119 3.55679 2.92966 0
M  V30 6611 H 607.434 3.11118 2.76757 0
M  V30 6612 H 610.031 1.59945 5.10217 0
M  V30 6613 H 610.374 0.169726 4.15954 0
M  V30 6614 H 610.907 1.76168 3.56665 0
M  V30 6615 H 607.646 4.51484 4.75229 0
M  V30 6616 H 607.166 2.87971 5.26149 0
M  V30 6617 H 608.845 3.43009 5.48592 0
M  V30 6618 N 608.977 -1.30795 0.87923 0
M  V30 6619 C 609.924 -2.28282 0.339968 0
M  V30 6620 C 610.894 -1.56134 -0.566685 0
M  V30 6621 O 612.079 -1.84231 -0.496338 0
M  V30 6622 C 609.219 -3.42225 -0.444501 0
M  V30 6623 C 608.332 -4.29204 0.490717 0
M  V30 6624 C 607.467 -5.30302 -0.308784 0
M  V30 6625 C 606.506 -6.08929 0.622272 0
M  V30 6626 N 605.643 -7.01957 -0.14155 0
M  V30 6627 H 610.483 -2.73794 1.17647 0
M  V30 6628 H 608.02 -1.34682 0.591527 0
M  V30 6629 H 609.978 -4.07038 -0.915186 0
M  V30 6630 H 608.608 -2.97799 -1.24562 0
M  V30 6631 H 607.66 -3.6475 1.07988 0
M  V30 6632 H 608.972 -4.84045 1.20425 0
M  V30 6633 H 608.126 -6.00835 -0.841575 0
M  V30 6634 H 606.865 -4.7614 -1.05556 0
M  V30 6635 H 605.87 -5.37278 1.16674 0
M  V30 6636 H 607.095 -6.65178 1.36804 0
M  V30 6637 H 605.041 -6.50192 -0.870966 0
M  V30 6638 H 604.958 -7.54261 0.51246 0
M  V30 6639 H 606.226 -7.76741 -0.655271 0
M  V30 6640 N 610.455 -0.639598 -1.44038 0
M  V30 6641 C 611.68 -0.153117 -2.06834 0
M  V30 6642 C 612.105 1.16676 -1.47541 0
M  V30 6643 O 611.463 1.71769 -0.580093 0
M  V30 6644 C 611.511 -0.0609169 -3.60549 0
M  V30 6645 O 610.615 0.98071 -4.00569 0
M  V30 6646 H 609.956 -0.0886402 -0.658057 0
M  V30 6647 H 612.486 -0.878674 -1.84771 0
M  V30 6648 H 612.496 0.126892 -4.07803 0
M  V30 6649 H 611.171 -1.0245 -4.03084 0
M  V30 6650 H 609.748 0.766789 -3.64931 0
M  V30 6651 N 611.933 1.52934 -0.380664 0
M  V30 6652 C 613.21 1.93845 0.261417 0
M  V30 6653 C 613.59 1.31544 1.65104 0
M  V30 6654 O 612.938 0.480234 2.23397 0
M  V30 6655 C 613.148 3.47739 0.296466 0
M  V30 6656 C 614.496 4.21284 0.529578 0
M  V30 6657 O 615.52 3.54199 0.377041 0
M  V30 6658 O 614.379 5.40195 0.827753 0
M  V30 6659 H 611.473 0.811318 0.160285 0
M  V30 6660 H 614.019 1.64042 -0.434544 0
M  V30 6661 H 612.791 3.85395 -0.67724 0
M  V30 6662 H 612.414 3.8382 1.0377 0
M  V30 6663 N 613.412 0.11024 1.57214 0
M  V30 6664 C 614.658 -0.550684 1.9518 0
M  V30 6665 C 614.991 -1.66885 0.993122 0
M  V30 6666 O 614.266 -1.94479 0.0287907 0
M  V30 6667 C 614.549 -1.09163 3.43155 0
M  V30 6668 C 614.402 0.0225198 4.49794 0
M  V30 6669 C 615.721 -1.98527 3.92778 0
M  V30 6670 H 612.84 -0.198706 0.709708 0
M  V30 6671 H 615.482 0.184024 1.89107 0
M  V30 6672 H 613.632 -1.71775 3.48462 0
M  V30 6673 H 615.304 0.657443 4.56591 0
M  V30 6674 H 613.547 0.686868 4.28328 0
M  V30 6675 H 614.218 -0.39706 5.5057 0
M  V30 6676 H 616.694 -1.458 3.8972 0
M  V30 6677 H 615.57 -2.33298 4.96853 0
M  V30 6678 H 615.831 -2.90846 3.32958 0
M  V30 6679 N 614.89 -1.56749 -0.16351 0
M  V30 6680 C 616.136 -1.83597 -0.875436 0
M  V30 6681 C 616.491 -0.691907 -1.79528 0
M  V30 6682 O 615.784 0.311193 -1.89056 0
M  V30 6683 C 615.978 -3.14342 -1.70071 0
M  V30 6684 C 615.807 -4.41356 -0.862265 0
M  V30 6685 C 614.577 -5.02467 -0.534299 0
M  V30 6686 C 616.775 -5.1391 -0.200203 0
M  V30 6687 N 614.757 -6.13068 0.31947 0
M  V30 6688 C 616.128 -6.17862 0.514398 0
M  V30 6689 C 618.183 -4.97757 -0.119171 0
M  V30 6690 C 616.886 -7.07412 1.30236 0
M  V30 6691 C 618.912 -5.87756 0.655477 0
M  V30 6692 C 618.274 -6.91178 1.35842 0
M  V30 6693 H 614.373 -0.722702 -0.298708 0
M  V30 6694 H 616.957 -1.94182 -0.141883 0
M  V30 6695 H 615.128 -3.04933 -2.40562 0
M  V30 6696 H 616.86 -3.29156 -2.35453 0
M  V30 6697 H 613.615 -4.65611 -0.866222 0
M  V30 6698 H 614.039 -6.72978 0.736893 0
M  V30 6699 H 618.681 -4.178 -0.648278 0
M  V30 6700 H 616.399 -7.86808 1.84278 0
M  V30 6701 H 619.985 -5.77328 0.719948 0
M  V30 6702 H 618.865 -7.59614 1.94822 0
M  V30 6703 N 616.368 0.432326 -1.51554 0
M  V30 6704 C 617.593 1.20824 -1.68571 0
M  V30 6705 C 618.018 1.84126 -0.384596 0
M  V30 6706 O 617.376 1.69025 0.655751 0
M  V30 6707 C 617.424 2.26429 -2.80646 0
M  V30 6708 O 616.528 3.32032 -2.44598 0
M  V30 6709 H 615.869 0.353765 -0.561913 0
M  V30 6710 H 618.399 0.509916 -1.98144 0
M  V30 6711 H 618.409 2.71133 -3.04878 0
M  V30 6712 H 617.084 1.79733 -3.75058 0
M  V30 6713 H 615.661 2.92769 -2.30956 0
M  V30 6714 N 617.846 1.41785 0.688094 0
M  V30 6715 C 619.093 1.41544 1.44816 0
M  V30 6716 C 619.421 0.0271746 1.94481 0
M  V30 6717 O 618.676 -0.962235 1.7041 0
M  V30 6718 C 618.975 2.37532 2.67046 0
M  V30 6719 C 618.641 3.84209 2.35996 0
M  V30 6720 C 617.303 4.24165 2.27239 0
M  V30 6721 C 619.655 4.76785 2.10536 0
M  V30 6722 C 616.983 5.54695 1.91128 0
M  V30 6723 C 619.335 6.07644 1.75931 0
M  V30 6724 C 617.999 6.46613 1.65675 0
M  V30 6725 H 617.269 0.517945 0.529919 0
M  V30 6726 H 619.916 1.74635 0.785797 0
M  V30 6727 H 618.221 1.9772 3.38251 0
M  V30 6728 H 619.918 2.34615 3.25203 0
M  V30 6729 H 616.508 3.52567 2.4371 0
M  V30 6730 H 620.692 4.46714 2.16242 0
M  V30 6731 H 615.948 5.83762 1.81746 0
M  V30 6732 H 620.122 6.78874 1.55252 0
M  V30 6733 H 617.749 7.47668 1.37463 0
M  V30 6734 N 619.324 -0.923095 1.27737 0
M  V30 6735 C 620.572 -1.66797 1.14119 0
M  V30 6736 C 620.893 -1.92479 -0.312541 0
M  V30 6737 O 620.163 -1.53432 -1.218 0
M  V30 6738 H 618.743 -0.618196 0.419336 0
M  V30 6739 H 621.405 -1.10815 1.60331 0
M  V30 6740 H 620.501 -2.63424 1.67374 0
M  V30 6741 N 620.802 -1.09834 -1.13024 0
M  V30 6742 C 622.051 -0.831806 -1.83749 0
M  V30 6743 C 622.364 0.644763 -1.84668 0
M  V30 6744 O 623.57 1.02697 -2.51327 0
M  V30 6745 C 622.026 -1.43817 -3.29916 0
M  V30 6746 C 621.634 -2.94759 -3.37374 0
M  V30 6747 C 623.378 -1.25077 -4.05655 0
M  V30 6748 C 621.285 -3.48461 -4.77838 0
M  V30 6749 H 620.215 -0.30751 -0.688443 0
M  V30 6750 H 622.866 -1.32156 -1.27307 0
M  V30 6751 H 621.248 -0.876106 -3.86187 0
M  V30 6752 H 622.422 -3.57228 -2.91076 0
M  V30 6753 H 620.737 -3.12581 -2.75103 0
M  V30 6754 H 623.334 -1.62649 -5.09362 0
M  V30 6755 H 623.677 -0.191782 -4.15858 0
M  V30 6756 H 624.21 -1.78057 -3.55725 0
M  V30 6757 H 620.949 -4.53998 -4.72828 0
M  V30 6758 H 620.469 -2.90757 -5.24615 0
M  V30 6759 H 622.148 -3.45914 -5.46766 0
M  V30 6760 N 622.28 1.30327 -0.886154 0
M  V30 6761 C 623.21 2.30549 -0.370028 0
M  V30 6762 C 624.191 1.61039 0.547751 0
M  V30 6763 O 625.376 1.8864 0.461353 0
M  V30 6764 C 622.506 3.44808 0.415275 0
M  V30 6765 C 621.46 4.26024 -0.41085 0
M  V30 6766 C 620.786 5.32347 0.501128 0
M  V30 6767 C 622.086 4.95433 -1.65359 0
M  V30 6768 H 623.78 2.73969 -1.20754 0
M  V30 6769 H 621.326 1.3171 -0.582097 0
M  V30 6770 H 623.279 4.13986 0.78699 0
M  V30 6771 H 622.003 3.00197 1.28644 0
M  V30 6772 H 620.662 3.58535 -0.764719 0
M  V30 6773 H 620.31 4.83982 1.37004 0
M  V30 6774 H 620.01 5.87581 -0.0478356 0
M  V30 6775 H 621.534 6.0438 0.869333 0
M  V30 6776 H 622.948 5.5712 -1.35239 0
M  V30 6777 H 621.345 5.60537 -2.14284 0
M  V30 6778 H 622.415 4.21493 -2.39733 0
M  V30 6779 N 623.758 0.647228 1.43697 0
M  V30 6780 C 624.688 -0.0345631 2.33474 0
M  V30 6781 C 625.669 -0.818193 1.4913 0
M  V30 6782 O 626.854 -0.780867 1.77809 0
M  V30 6783 C 623.984 -1.00576 3.32418 0
M  V30 6784 C 622.938 -0.33266 4.26705 0
M  V30 6785 C 622.264 -1.41489 5.1564 0
M  V30 6786 C 623.564 0.771204 5.16575 0
M  V30 6787 H 625.258 0.715163 2.90733 0
M  V30 6788 H 622.804 0.345364 1.39797 0
M  V30 6789 H 624.757 -1.49159 3.94119 0
M  V30 6790 H 623.481 -1.78657 2.73403 0
M  V30 6791 H 622.14 0.13267 3.6636 0
M  V30 6792 H 621.788 -2.18698 4.52968 0
M  V30 6793 H 621.488 -0.969799 5.79542 0
M  V30 6794 H 623.012 -1.9022 5.80214 0
M  V30 6795 H 624.426 0.36779 5.72119 0
M  V30 6796 H 622.823 1.1404 5.89165 0
M  V30 6797 H 623.893 1.63169 4.56622 0
M  V30 6798 N 625.236 -1.5273 0.388769 0
M  V30 6799 C 626.466 -2.05693 -0.193397 0
M  V30 6800 C 626.874 -1.26038 -1.41107 0
M  V30 6801 O 626.217 -0.30001 -1.81234 0
M  V30 6802 C 626.279 -3.53962 -0.628561 0
M  V30 6803 C 625.943 -4.54519 0.475576 0
M  V30 6804 C 626.94 -5.02526 1.33281 0
M  V30 6805 C 624.625 -4.98174 0.642453 0
M  V30 6806 C 626.619 -5.92812 2.34205 0
M  V30 6807 C 624.306 -5.88262 1.65503 0
M  V30 6808 C 625.304 -6.35473 2.50325 0
M  V30 6809 O 624.992 -7.23781 3.49852 0
M  V30 6810 H 624.724 -0.675197 -0.0329395 0
M  V30 6811 H 627.278 -1.97835 0.552326 0
M  V30 6812 H 625.508 -3.59437 -1.42625 0
M  V30 6813 H 627.197 -3.89669 -1.13633 0
M  V30 6814 H 627.963 -4.6953 1.21519 0
M  V30 6815 H 623.842 -4.60999 -0.00805093 0
M  V30 6816 H 627.386 -6.29585 3.00447 0
M  V30 6817 H 623.283 -6.20672 1.77304 0
M  V30 6818 H 624.051 -7.4184 3.45855 0
M  V30 6819 N 626.714 -0.118576 -1.57153 0
M  V30 6820 C 627.624 0.845484 -2.18835 0
M  V30 6821 C 628.64 1.29299 -1.16438 0
M  V30 6822 O 629.816 1.35607 -1.48905 0
M  V30 6823 C 626.881 2.07795 -2.77529 0
M  V30 6824 C 625.942 1.6824 -3.9496 0
M  V30 6825 C 625.175 2.85612 -4.50845 0
M  V30 6826 O 625.398 4.01025 -4.05629 0
M  V30 6827 O 624.332 2.62721 -5.41536 0
M  V30 6828 H 628.158 0.350568 -3.0167 0
M  V30 6829 H 625.743 0.107013 -1.49016 0
M  V30 6830 H 627.625 2.79978 -3.14945 0
M  V30 6831 H 626.3 2.56294 -1.97725 0
M  V30 6832 H 625.207 0.931663 -3.62313 0
M  V30 6833 H 626.54 1.24484 -4.76198 0
M  V30 6834 N 628.193 1.56834 0.155195 0
M  V30 6835 C 629.442 1.82088 0.867567 0
M  V30 6836 C 629.755 0.69849 1.82703 0
M  V30 6837 O 630.961 0.836407 2.58295 0
M  V30 6838 C 629.417 3.22707 1.59336 0
M  V30 6839 C 629.025 4.42859 0.676719 0
M  V30 6840 C 630.769 3.57242 2.293 0
M  V30 6841 C 628.676 5.74501 1.40367 0
M  V30 6842 H 627.606 0.679057 0.327715 0
M  V30 6843 H 630.257 1.83105 0.120351 0
M  V30 6844 H 628.639 3.16054 2.38591 0
M  V30 6845 H 629.813 4.60731 -0.0800196 0
M  V30 6846 H 628.128 4.16311 0.0859129 0
M  V30 6847 H 630.725 4.52847 2.84312 0
M  V30 6848 H 631.068 2.82901 3.05406 0
M  V30 6849 H 631.601 3.6552 1.56972 0
M  V30 6850 H 628.34 6.51915 0.684623 0
M  V30 6851 H 627.86 5.60579 2.13332 0
M  V30 6852 H 629.539 6.17016 1.94681 0
M  V30 6853 N 629.671 -0.424282 1.51781 0
M  V30 6854 C 630.92 -1.16961 1.64326 0
M  V30 6855 C 631.233 -1.92035 0.371749 0
M  V30 6856 O 632.439 -2.68873 0.37676 0
M  V30 6857 C 630.895 -2.12782 2.90262 0
M  V30 6858 C 630.503 -1.43295 4.24465 0
M  V30 6859 C 632.247 -2.87667 3.12166 0
M  V30 6860 C 630.154 -2.37676 5.41538 0
M  V30 6861 H 629.084 -0.440293 0.612093 0
M  V30 6862 H 631.735 -0.435431 1.78259 0
M  V30 6863 H 630.117 -2.8969 2.69992 0
M  V30 6864 H 631.291 -0.718564 4.55163 0
M  V30 6865 H 629.606 -0.805118 4.08542 0
M  V30 6866 H 632.203 -3.58395 3.96808 0
M  V30 6867 H 632.546 -3.49758 2.25776 0
M  V30 6868 H 633.079 -2.17863 3.32837 0
M  V30 6869 H 629.818 -1.80255 6.30229 0
M  V30 6870 H 629.338 -3.07132 5.15199 0
M  V30 6871 H 631.017 -2.98529 5.74012 0
M  V30 6872 N 631.149 -1.42148 -0.680565 0
M  V30 6873 C 632.377 -1.45696 -1.46902 0
M  V30 6874 C 632.792 -0.0665858 -1.88683 0
M  V30 6875 O 632.149 0.917436 -1.57764 0
M  V30 6876 C 632.2 -2.37898 -2.72188 0
M  V30 6877 O 631.921 -3.71526 -2.32163 0
M  V30 6878 C 633.422 -2.50407 -3.65802 0
M  V30 6879 H 630.642 -0.495729 -0.45221 0
M  V30 6880 H 633.186 -1.866 -0.836709 0
M  V30 6881 H 631.341 -2.00263 -3.31622 0
M  V30 6882 H 631.755 -4.20849 -3.13027 0
M  V30 6883 H 633.229 -3.19056 -4.50452 0
M  V30 6884 H 633.706 -1.5401 -4.11312 0
M  V30 6885 H 634.312 -2.8874 -3.12265 0
M  V30 6886 N 632.627 0.916307 -1.28225 0
M  V30 6887 C 633.857 1.69654 -1.17902 0
M  V30 6888 C 634.265 1.87331 0.265268 0
M  V30 6889 O 633.608 1.39828 1.19137 0
M  V30 6890 C 633.67 3.11024 -1.80289 0
M  V30 6891 C 633.334 3.16643 -3.29525 0
M  V30 6892 C 634.331 2.98032 -4.25997 0
M  V30 6893 C 632.016 3.39238 -3.70436 0
M  V30 6894 C 634.01 3.01924 -5.61356 0
M  V30 6895 C 631.697 3.42762 -5.05922 0
M  V30 6896 C 632.695 3.24125 -6.01192 0
M  V30 6897 O 632.383 3.27406 -7.34208 0
M  V30 6898 H 632.115 0.537197 -0.41036 0
M  V30 6899 H 634.669 1.15547 -1.69817 0
M  V30 6900 H 632.899 3.66662 -1.22865 0
M  V30 6901 H 634.588 3.71063 -1.6452 0
M  V30 6902 H 635.354 2.80405 -3.95725 0
M  V30 6903 H 631.233 3.52791 -2.96749 0
M  V30 6904 H 634.777 2.87295 -6.35694 0
M  V30 6905 H 630.674 3.59916 -5.35846 0
M  V30 6906 H 631.442 3.43784 -7.42802 0
M  V30 6907 N 634.105 1.10431 1.1244 0
M  V30 6908 C 635.353 0.845045 1.83585 0
M  V30 6909 C 635.674 -0.631168 1.84503 0
M  V30 6910 O 634.944 -1.45825 1.30813 0
M  V30 6911 H 633.524 0.309628 0.679809 0
M  V30 6912 H 636.186 1.39458 1.36153 0
M  V30 6913 H 635.282 1.20786 2.8778 0
M  V30 6914 N 635.583 -1.29855 0.893053 0
M  V30 6915 C 636.53 -2.27909 0.364161 0
M  V30 6916 C 637.5 -1.56726 -0.550093 0
M  V30 6917 O 638.685 -1.84747 -0.47677 0
M  V30 6918 C 635.825 -3.42678 -0.408178 0
M  V30 6919 C 634.938 -4.28659 0.536212 0
M  V30 6920 C 634.073 -5.30599 -0.252521 0
M  V30 6921 C 633.112 -6.08234 0.686822 0
M  V30 6922 N 632.249 -7.02068 -0.0670902 0
M  V30 6923 H 637.089 -2.72531 1.20544 0
M  V30 6924 H 634.626 -1.34047 0.605779 0
M  V30 6925 H 636.584 -4.07986 -0.871962 0
M  V30 6926 H 635.214 -2.99103 -1.21397 0
M  V30 6927 H 634.266 -3.63584 1.1185 0
M  V30 6928 H 635.578 -4.8274 1.25552 0
M  V30 6929 H 634.732 -6.01694 -0.777801 0
M  V30 6930 H 633.471 -4.77233 -1.005 0
M  V30 6931 H 632.476 -5.3601 1.22366 0
M  V30 6932 H 633.701 -6.63689 1.43852 0
M  V30 6933 H 631.647 -6.5108 -0.801955 0
M  V30 6934 H 631.564 -7.53675 0.59243 0
M  V30 6935 H 632.832 -7.77392 -0.572851 0
M  V30 6936 N 637.061 -0.65484 -1.43351 0
M  V30 6937 C 637.994 0.0855537 -2.2804 0
M  V30 6938 C 638.972 0.828301 -1.39921 0
M  V30 6939 O 640.156 0.827539 -1.69364 0
M  V30 6940 C 637.283 1.12792 -3.19368 0
M  V30 6941 C 636.329 0.483037 -4.23756 0
M  V30 6942 S 637.162 -0.744605 -5.30298 0
M  V30 6943 C 638.318 0.297187 -6.25194 0
M  V30 6944 H 638.551 -0.632831 -2.90487 0
M  V30 6945 H 636.084 -0.44373 -1.47886 0
M  V30 6946 H 638.042 1.7243 -3.72529 0
M  V30 6947 H 636.703 1.81863 -2.56095 0
M  V30 6948 H 635.896 1.26888 -4.87766 0
M  V30 6949 H 635.498 -0.0392713 -3.73979 0
M  V30 6950 H 637.79 1.1629 -6.67445 0
M  V30 6951 H 638.733 -0.30793 -7.0743 0
M  V30 6952 H 639.141 0.633721 -5.60932 0
M  V30 6953 N 638.539 1.52521 -0.396863 0
M  V30 6954 C 639.95 1.86547 0.0754868 0
M  V30 6955 C 640.301 1.31621 1.45501 0
M  V30 6956 O 639.426 0.650563 2.0639 0
M  V30 6957 C 640.021 3.38495 0.143754 0
M  V30 6958 C 638.58 3.72205 0.560413 0
M  V30 6959 C 637.727 2.75954 -0.272856 0
M  V30 6960 H 640.678 1.46323 -0.614434 0
M  V30 6961 H 640.699 3.68153 0.961425 0
M  V30 6962 H 640.211 3.78442 -0.860415 0
M  V30 6963 H 638.312 3.3783 1.57167 0
M  V30 6964 H 638.425 4.78074 0.313314 0
M  V30 6965 H 636.789 2.53339 0.263 0
M  V30 6966 H 637.572 3.1874 -1.27515 0
M  V30 6967 N 640.017 0.126909 1.57088 0
M  V30 6968 C 641.247 -0.535892 1.99529 0
M  V30 6969 C 641.655 -1.60259 1.00566 0
M  V30 6970 O 640.998 -1.83698 -0.00843269 0
M  V30 6971 C 641.06 -1.21374 3.38391 0
M  V30 6972 C 640.724 -0.294044 4.56053 0
M  V30 6973 C 641.721 0.470454 5.17767 0
M  V30 6974 C 639.406 -0.202808 5.0189 0
M  V30 6975 C 641.4 1.31384 6.23712 0
M  V30 6976 C 639.087 0.644203 6.07695 0
M  V30 6977 C 640.085 1.40115 6.68473 0
M  V30 6978 O 639.773 2.23408 7.72233 0
M  V30 6979 H 639.505 -0.145799 0.66009 0
M  V30 6980 H 642.059 0.212441 2.04298 0
M  V30 6981 H 640.289 -2.00931 3.30399 0
M  V30 6982 H 641.978 -1.77424 3.65069 0
M  V30 6983 H 642.744 0.409884 4.83265 0
M  V30 6984 H 638.623 -0.781688 4.54324 0
M  V30 6985 H 642.167 1.90514 6.71081 0
M  V30 6986 H 638.064 0.706137 6.41626 0
M  V30 6987 H 638.832 2.16436 7.89365 0
M  V30 6988 N 641.495 -1.56914 -0.146875 0
M  V30 6989 C 642.72 -1.87881 -0.878386 0
M  V30 6990 C 643.145 -0.715945 -1.73942 0
M  V30 6991 O 642.503 0.334447 -1.78189 0
M  V30 6992 C 642.551 -3.17431 -1.71084 0
M  V30 6993 O 641.655 -3.01374 -2.81509 0
M  V30 6994 H 640.996 -0.617289 -0.244644 0
M  V30 6995 H 643.526 -2.04136 -0.137654 0
M  V30 6996 H 643.536 -3.49455 -2.10582 0
M  V30 6997 H 642.211 -4.01671 -1.07856 0
M  V30 6998 H 640.788 -2.80758 -2.45416 0
M  V30 6999 N 642.974 0.416227 -1.52004 0
M  V30 7000 C 644.222 1.16153 -1.65387 0
M  V30 7001 C 644.543 1.91208 -0.382669 0
M  V30 7002 O 643.813 1.86413 0.602231 0
M  V30 7003 H 642.393 0.431765 -0.60958 0
M  V30 7004 H 645.055 0.475151 -1.89019 0
M  V30 7005 H 644.151 1.87952 -2.4916 0
M  V30 7006 N 644.452 1.42507 0.673017 0
M  V30 7007 C 645.385 1.40557 1.79774 0
M  V30 7008 C 646.363 0.269606 1.60349 0
M  V30 7009 O 647.547 0.460105 1.82798 0
M  V30 7010 C 644.674 1.19815 3.168 0
M  V30 7011 C 643.72 2.36429 3.5497 0
M  V30 7012 S 644.553 3.98963 3.57196 0
M  V30 7013 C 645.709 3.80567 4.9691 0
M  V30 7014 H 645.942 2.35734 1.81154 0
M  V30 7015 H 643.475 1.293 0.843846 0
M  V30 7016 H 645.433 1.08535 3.95892 0
M  V30 7017 H 644.094 0.262215 3.13004 0
M  V30 7018 H 643.287 2.17669 4.54573 0
M  V30 7019 H 642.889 2.44233 2.83242 0
M  V30 7020 H 645.181 3.41668 5.85038 0
M  V30 7021 H 646.124 4.79852 5.20718 0
M  V30 7022 H 646.532 3.13399 4.69512 0
M  V30 7023 N 645.93 -0.909495 1.28709 0
M  V30 7024 C 647.158 -1.69272 1.18973 0
M  V30 7025 C 647.573 -1.87123 -0.251048 0
M  V30 7026 O 646.93 -1.40127 -1.16922 0
M  V30 7027 C 646.981 -3.08257 1.88839 0
M  V30 7028 O 646.702 -2.91228 3.27289 0
M  V30 7029 C 648.203 -4.02642 1.85457 0
M  V30 7030 H 645.423 -0.528999 0.412797 0
M  V30 7031 H 647.967 -1.13803 1.69909 0
M  V30 7032 H 646.122 -3.6053 1.41762 0
M  V30 7033 H 646.536 -3.79223 3.6234 0
M  V30 7034 H 648.01 -4.97613 2.38925 0
M  V30 7035 H 648.487 -4.31327 0.827893 0
M  V30 7036 H 649.093 -3.56298 2.32233 0
M  V30 7037 N 647.408 -1.11026 -1.11852 0
M  V30 7038 C 648.656 -0.854769 -1.83134 0
M  V30 7039 C 648.977 0.621375 -1.84835 0
M  V30 7040 O 648.247 1.45129 -1.31584 0
M  V30 7041 H 646.827 -0.313229 -0.678157 0
M  V30 7042 H 649.489 -1.40178 -1.35411 0
M  V30 7043 H 648.585 -1.22311 -2.87135 0
M  V30 7044 N 648.886 1.2938 -0.899927 0
M  V30 7045 C 649.849 2.25983 -0.382677 0
M  V30 7046 C 650.849 1.53366 0.483259 0
M  V30 7047 O 652.039 1.71798 0.28828 0
M  V30 7048 C 649.171 3.37878 0.452915 0
M  V30 7049 H 650.364 2.73252 -1.23586 0
M  V30 7050 H 647.917 1.40825 -0.678088 0
M  V30 7051 H 648.652 2.95949 1.32608 0
M  V30 7052 H 648.437 3.91742 -0.167562 0
M  V30 7053 H 649.927 4.09746 0.806107 0
M  V30 7054 N 650.364 0.662433 1.43002 0
M  V30 7055 C 651.296 -0.062326 2.29115 0
M  V30 7056 C 652.309 -0.777926 1.43011 0
M  V30 7057 O 653.498 -0.634146 1.66856 0
M  V30 7058 C 650.598 -1.11163 3.2015 0
M  V30 7059 C 649.771 -0.472327 4.34842 0
M  V30 7060 C 648.83 -1.41974 5.06685 0
M  V30 7061 O 647.856 -0.924795 5.61637 0
M  V30 7062 N 649.058 -2.75345 5.11043 0
M  V30 7063 H 651.823 0.676838 2.91957 0
M  V30 7064 H 649.384 0.505907 1.53793 0
M  V30 7065 H 651.376 -1.74643 3.65078 0
M  V30 7066 H 649.946 -1.75266 2.58845 0
M  V30 7067 H 649.166 0.341751 3.92716 0
M  V30 7068 H 650.454 -0.0264381 5.08793 0
M  V30 7069 H 649.852 -3.18108 4.67786 0
M  V30 7070 H 648.409 -3.34105 5.59658 0
M  V30 7071 N 651.842 -1.52309 0.404946 0
M  V30 7072 C 653.088 -2.02065 -0.172455 0
M  V30 7073 C 653.421 -1.29022 -1.45145 0
M  V30 7074 O 652.696 -0.395284 -1.90441 0
M  V30 7075 C 652.979 -3.5759 -0.424433 0
M  V30 7076 C 652.832 -4.41287 0.870945 0
M  V30 7077 C 654.151 -4.23186 -1.20837 0
M  V30 7078 H 651.27 -0.734454 -0.0612035 0
M  V30 7079 H 653.912 -1.82236 0.53759 0
M  V30 7080 H 652.062 -3.74617 -1.02929 0
M  V30 7081 H 653.734 -4.3598 1.50729 0
M  V30 7082 H 651.977 -4.07669 1.48284 0
M  V30 7083 H 652.648 -5.48171 0.649083 0
M  V30 7084 H 655.124 -4.10232 -0.696338 0
M  V30 7085 H 654 -5.31953 -1.35343 0
M  V30 7086 H 654.261 -3.81862 -2.22786 0
M  V30 7087 N 653.32 -0.135238 -1.57019 0
M  V30 7088 C 654.569 0.518694 -1.94917 0
M  V30 7089 C 654.882 1.66783 -1.0219 0
M  V30 7090 O 656.088 2.38561 -1.29619 0
M  V30 7091 C 654.544 0.974123 -3.46466 0
M  V30 7092 C 654.152 -0.147439 -4.47757 0
M  V30 7093 C 655.896 1.59851 -3.93253 0
M  V30 7094 C 653.803 0.325599 -5.90503 0
M  V30 7095 H 652.733 0.19754 -0.727663 0
M  V30 7096 H 655.384 -0.217698 -1.82204 0
M  V30 7097 H 653.766 1.76542 -3.5447 0
M  V30 7098 H 654.94 -0.924122 -4.51438 0
M  V30 7099 H 653.255 -0.679496 -4.10818 0
M  V30 7100 H 655.852 1.96385 -4.9733 0
M  V30 7101 H 656.195 2.48306 -3.3414 0
M  V30 7102 H 656.728 0.872323 -3.88118 0
M  V30 7103 H 653.467 -0.523295 -6.53408 0
M  V30 7104 H 652.987 1.06841 -5.90208 0
M  V30 7105 H 654.666 0.781498 -6.42263 0
M  V30 7106 N 654.798 1.5699 0.138552 0
M  V30 7107 C 655.73 1.95515 1.1961 0
M  V30 7108 C 656.743 0.852002 1.38726 0
M  V30 7109 O 657.932 1.13038 1.38147 0
M  V30 7110 C 655.032 2.2213 2.55952 0
M  V30 7111 C 654.205 3.53424 2.57702 0
M  V30 7112 C 653.264 3.6848 3.75645 0
M  V30 7113 O 652.29 4.4079 3.60129 0
M  V30 7114 N 653.492 3.05777 4.93438 0
M  V30 7115 H 656.257 2.86838 0.868557 0
M  V30 7116 H 653.818 1.58542 0.328033 0
M  V30 7117 H 655.81 2.29435 3.33379 0
M  V30 7118 H 654.38 1.3703 2.80965 0
M  V30 7119 H 653.6 3.57484 1.6613 0
M  V30 7120 H 654.888 4.39759 2.55909 0
M  V30 7121 H 654.286 2.46961 5.08947 0
M  V30 7122 H 652.843 3.18631 5.6861 0
M  V30 7123 N 656.276 -0.40816 1.52223 0
M  V30 7124 C 657.209 -1.51834 1.70357 0
M  V30 7125 C 658.187 -1.52973 0.551171 0
M  V30 7126 O 659.371 -1.71667 0.778642 0
M  V30 7127 C 656.498 -2.90362 1.74378 0
M  V30 7128 C 655.544 -3.0713 2.95928 0
M  V30 7129 S 656.377 -2.80342 4.56255 0
M  V30 7130 C 657.533 -4.21098 4.63063 0
M  V30 7131 H 657.766 -1.36223 2.64255 0
M  V30 7132 H 655.299 -0.599798 1.42274 0
M  V30 7133 H 657.257 -3.70199 1.77379 0
M  V30 7134 H 655.918 -3.03314 0.816063 0
M  V30 7135 H 655.111 -4.08482 2.95226 0
M  V30 7136 H 654.713 -2.3516 2.90819 0
M  V30 7137 H 657.005 -5.14749 4.40499 0
M  V30 7138 H 657.948 -4.26823 5.65002 0
M  V30 7139 H 658.356 -4.06114 3.92086 0
M  V30 7140 N 657.755 -1.42862 -0.66545 0
M  V30 7141 C 658.685 -1.49867 -1.79059 0
M  V30 7142 C 659.666 -0.354394 -1.66367 0
M  V30 7143 O 660.851 -0.569969 -1.85647 0
M  V30 7144 C 657.981 -1.40943 -3.17415 0
M  V30 7145 C 656.935 -2.53495 -3.44854 0
M  V30 7146 C 656.261 -2.29626 -4.82883 0
M  V30 7147 C 657.561 -3.95781 -3.40815 0
M  V30 7148 H 659.255 -2.44037 -1.73453 0
M  V30 7149 H 656.801 -1.17456 -0.833071 0
M  V30 7150 H 658.754 -1.4445 -3.95869 0
M  V30 7151 H 657.478 -0.432716 -3.23721 0
M  V30 7152 H 656.137 -2.4932 -2.68766 0
M  V30 7153 H 655.785 -1.30226 -4.8585 0
M  V30 7154 H 655.485 -3.05065 -5.02204 0
M  V30 7155 H 657.009 -2.34897 -5.63609 0
M  V30 7156 H 658.423 -4.01508 -4.09224 0
M  V30 7157 H 656.82 -4.71148 -3.71672 0
M  V30 7158 H 657.89 -4.21786 -2.39216 0
M  V30 7159 N 659.233 0.902656 -1.29189 0
M  V30 7160 C 660.196 1.98797 -1.14071 0
M  V30 7161 C 661.196 1.60615 -0.0770549 0
M  V30 7162 O 662.386 1.71165 -0.323753 0
M  V30 7163 C 659.518 3.32688 -0.743739 0
M  V30 7164 H 660.711 2.13637 -2.10473 0
M  V30 7165 H 658.264 1.08678 -1.12334 0
M  V30 7166 H 658.999 3.23549 0.220554 0
M  V30 7167 H 658.784 3.61765 -1.51223 0
M  V30 7168 H 660.274 4.12337 -0.660935 0
M  V30 7169 N 660.711 1.11618 1.11262 0
M  V30 7170 C 661.643 0.734015 2.17129 0
M  V30 7171 C 662.656 -0.235243 1.61091 0
M  V30 7172 O 663.845 -0.0178597 1.78491 0
M  V30 7173 C 660.945 0.0643682 3.38839 0
M  V30 7174 C 660.118 1.06092 4.24339 0
M  V30 7175 C 659.177 0.420482 5.24517 0
M  V30 7176 O 658.203 1.07495 5.58957 0
M  V30 7177 N 659.405 -0.815828 5.74739 0
M  V30 7178 H 662.17 1.64492 2.50524 0
M  V30 7179 H 659.731 1.00664 1.26801 0
M  V30 7180 H 661.723 -0.375851 4.02951 0
M  V30 7181 H 660.293 -0.749147 3.03491 0
M  V30 7182 H 659.513 1.67903 3.56654 0
M  V30 7183 H 660.801 1.73507 4.78302 0
M  V30 7184 H 660.199 -1.36668 5.48943 0
M  V30 7185 H 658.756 -1.199 6.40677 0
M  V30 7186 N 662.189 -1.289 0.906776 0
M  V30 7187 C 663.137 -2.29477 0.379873 0
M  V30 7188 C 664.131 -1.61068 -0.524747 0
M  V30 7189 O 665.337 -1.75344 -0.406765 0
M  V30 7190 H 661.712 -0.744742 0.10423 0
M  V30 7191 H 663.683 -2.71353 1.24137 0
M  V30 7192 C 662.432 -3.45713 -0.371154 0
M  V30 7193 H 661.755 -3.98551 0.315716 0
M  V30 7194 H 663.195 -4.18105 -0.704581 0
M  V30 7195 C 661.654 -2.9774 -1.57646 0
M  V30 7196 O 662.184 -2.99618 -2.67567 0
M  V30 7197 N 660.39 -2.53485 -1.42105 0
M  V30 7198 H 659.937 -2.52156 -0.526783 0
M  V30 7199 H 659.895 -2.21747 -2.22881 0
M  V30 7200 N 663.667 -0.670007 -1.42649 0
M  V30 7201 C 664.897 -0.198252 -2.05647 0
M  V30 7202 C 665.305 1.14786 -1.50402 0
M  V30 7203 O 664.648 1.72316 -0.636634 0
M  V30 7204 C 664.71 -0.0507132 -3.59464 0
M  V30 7205 C 664.374 -1.32478 -4.37377 0
M  V30 7206 C 665.371 -2.2572 -4.68344 0
M  V30 7207 C 663.056 -1.57104 -4.77099 0
M  V30 7208 C 665.05 -3.4187 -5.37963 0
M  V30 7209 C 662.737 -2.73543 -5.46459 0
M  V30 7210 C 663.735 -3.65751 -5.76815 0
M  V30 7211 O 663.423 -4.80154 -6.44753 0
M  V30 7212 H 663.155 -0.0950721 -0.669281 0
M  V30 7213 H 665.709 -0.915745 -1.83857 0
M  V30 7214 H 663.939 0.722314 -3.79894 0
M  V30 7215 H 665.628 0.380552 -4.04112 0
M  V30 7216 H 666.394 -2.07943 -4.38161 0
M  V30 7217 H 662.273 -0.862069 -4.52868 0
M  V30 7218 H 665.817 -4.13861 -5.61574 0
M  V30 7219 H 661.714 -2.91248 -5.7606 0
M  V30 7220 H 662.482 -4.79637 -6.63243 0
M  V30 7221 N 665.145 1.52092 -0.413018 0
M  V30 7222 C 666.561 1.59471 -0.0640836 0
M  V30 7223 C 666.761 1.42562 1.42402 0
M  V30 7224 O 665.817 1.25453 2.19129 0
M  V30 7225 C 667.13 2.95392 -0.562474 0
M  V30 7226 C 668.678 3.08637 -0.520788 0
M  V30 7227 C 669.153 4.47044 -0.995752 0
M  V30 7228 N 670.644 4.53296 -0.952732 0
M  V30 7229 C 671.379 5.58669 -1.29138 0
M  V30 7230 N 670.875 6.71576 -1.70168 0
M  V30 7231 N 672.668 5.48898 -1.2111 0
M  V30 7232 H 664.819 1.6133 -1.38153 0
M  V30 7233 H 667.082 0.75916 -0.567785 0
M  V30 7234 H 666.788 3.13059 -1.60271 0
M  V30 7235 H 666.662 3.77191 0.0257875 0
M  V30 7236 H 669.049 2.90652 0.510412 0
M  V30 7237 H 669.13 2.28735 -1.14515 0
M  V30 7238 H 668.774 4.65773 -2.0253 0
M  V30 7239 H 668.704 5.25448 -0.348162 0
M  V30 7240 H 671.195 3.72248 -0.651119 0
M  V30 7241 H 671.508 7.47973 -1.9431 0
M  V30 7242 H 669.853 6.72847 -1.74075 0
M  V30 7243 H 673.044 4.59573 -0.889396 0
M  V30 7244 H 673.217 6.30912 -1.47833 0
M  V30 7245 N 666.623 0.143563 1.56945 0
M  V30 7246 C 667.553 -0.7936 2.196 0
M  V30 7247 C 668.534 -1.25955 1.14321 0
M  V30 7248 O 669.719 -1.31773 1.42651 0
M  V30 7249 C 666.849 -2.03424 2.81489 0
M  V30 7250 C 665.803 -1.70519 3.92565 0
M  V30 7251 C 665.129 -3.01817 4.41373 0
M  V30 7252 C 666.429 -0.95449 5.13504 0
M  V30 7253 H 668.123 -0.271423 2.98167 0
M  V30 7254 H 665.669 -0.12911 1.4342 0
M  V30 7255 H 667.622 -2.69463 3.23987 0
M  V30 7256 H 666.346 -2.58008 2.00248 0
M  V30 7257 H 665.005 -1.06859 3.5068 0
M  V30 7258 H 664.653 -3.54386 3.56959 0
M  V30 7259 H 664.353 -2.80565 5.16292 0
M  V30 7260 H 665.877 -3.68934 4.86539 0
M  V30 7261 H 667.291 -1.5169 5.52868 0
M  V30 7262 H 665.688 -0.842035 5.94163 0
M  V30 7263 H 666.758 0.0544033 4.84869 0
M  V30 7264 N 668.101 -1.57061 -0.130224 0
M  V30 7265 C 669.512 -1.73539 -0.68856 0
M  V30 7266 C 669.863 -0.760554 -1.80859 0
M  V30 7267 O 668.988 0.0690796 -2.1629 0
M  V30 7268 C 669.583 -3.14666 -1.25581 0
M  V30 7269 C 668.142 -3.32689 -1.76055 0
M  V30 7270 C 667.289 -2.69436 -0.655712 0
M  V30 7271 H 670.24 -1.58412 0.0956002 0
M  V30 7272 H 670.261 -3.15595 -2.12556 0
M  V30 7273 H 669.773 -3.85593 -0.440412 0
M  V30 7274 H 667.874 -2.66786 -2.60108 0
M  V30 7275 H 667.987 -4.4077 -1.87772 0
M  V30 7276 H 666.351 -2.30362 -1.08654 0
M  V30 7277 H 667.134 -3.42979 0.14852 0
M  V30 7278 N 669.579 0.400081 -1.52437 0
M  V30 7279 C 670.511 1.50729 -1.72666 0
M  V30 7280 C 671.524 1.51058 -0.607075 0
M  V30 7281 O 672.713 1.5516 -0.88248 0
M  V30 7282 C 669.813 2.89604 -1.76019 0
M  V30 7283 C 668.986 3.13365 -3.05157 0
M  V30 7284 C 668.045 4.32163 -3.00203 0
M  V30 7285 O 667.071 4.29004 -3.74092 0
M  V30 7286 N 668.273 5.3776 -2.18619 0
M  V30 7287 H 671.038 1.33767 -2.68191 0
M  V30 7288 H 668.599 0.58948 -1.50787 0
M  V30 7289 H 670.591 3.67159 -1.70225 0
M  V30 7290 H 669.161 2.99979 -0.879284 0
M  V30 7291 H 668.381 2.23774 -3.24529 0
M  V30 7292 H 669.669 3.26089 -3.90568 0
M  V30 7293 H 669.067 5.43177 -1.58035 0
M  V30 7294 H 667.624 6.14023 -2.18674 0
M  V30 7295 N 671.057 1.43213 0.657864 0
M  V30 7296 C 672.468 1.39669 1.23893 0
M  V30 7297 C 672.819 0.0984217 1.95953 0
M  V30 7298 O 671.944 -0.8023 2.00978 0
M  V30 7299 C 672.539 2.53004 2.25332 0
M  V30 7300 C 671.098 2.5274 2.78926 0
M  V30 7301 C 670.245 2.30941 1.53497 0
M  V30 7302 H 673.196 1.52181 0.450172 0
M  V30 7303 H 673.217 2.24226 3.07413 0
M  V30 7304 H 672.729 3.4748 1.72856 0
M  V30 7305 H 670.83 1.6213 3.35477 0
M  V30 7306 H 670.943 3.50352 3.26787 0
M  V30 7307 H 669.307 1.7952 1.80678 0
M  V30 7308 H 670.09 3.27496 1.02963 0
M  V30 7309 N 672.536 -0.895792 1.29666 0
M  V30 7310 C 673.761 -1.68528 1.20885 0
M  V30 7311 C 674.186 -1.8673 -0.226595 0
M  V30 7312 O 673.544 -1.39044 -1.16347 0
M  V30 7313 C 673.592 -3.04512 1.93144 0
M  V30 7314 O 672.696 -3.92963 1.25115 0
M  V30 7315 H 672.037 -0.515371 0.418675 0
M  V30 7316 H 674.567 -1.11878 1.71302 0
M  V30 7317 H 674.577 -3.54628 2.0175 0
M  V30 7318 H 673.252 -2.90582 2.97548 0
M  V30 7319 H 671.829 -3.51399 1.24794 0
M  V30 7320 N 674.014 -1.12206 -1.10668 0
M  V30 7321 C 674.962 -0.782918 -2.19028 0
M  V30 7322 C 675.956 0.229175 -1.67843 0
M  V30 7323 O 677.162 0.0876295 -1.79787 0
M  V30 7324 H 673.537 -0.235339 -0.714227 0
M  V30 7325 H 675.508 -1.70527 -2.44874 0
M  V30 7326 C 674.257 -0.25116 -3.46792 0
M  V30 7327 H 673.58 -1.02123 -3.86537 0
M  V30 7328 H 675.02 -0.0521409 -4.23968 0
M  V30 7329 C 673.479 1.02037 -3.21076 0
M  V30 7330 O 674.009 2.09862 -3.42522 0
M  V30 7331 N 672.215 0.946348 -2.74759 0
M  V30 7332 H 671.762 0.068777 -2.57508 0
M  V30 7333 H 671.72 1.79775 -2.57931 0
M  V30 7334 N 675.492 1.28418 -0.913599 0
M  V30 7335 C 676.732 1.96756 -0.553771 0
M  V30 7336 C 677.096 1.70334 0.886013 0
M  V30 7337 O 678.297 2.32242 1.35341 0
M  V30 7338 C 676.568 3.47041 -0.854249 0
M  V30 7339 S 678.127 4.34667 -0.600816 0
M  V30 7340 H 674.945 0.680831 -0.204915 0
M  V30 7341 H 677.547 1.55947 -1.17902 0
M  V30 7342 H 676.251 3.63766 -1.90007 0
M  V30 7343 H 675.782 3.92797 -0.217651 0
M  V30 7344 H 677.797 4.93166 0.547906 0
M  V30 7345 N 676.97 0.677563 1.42291 0
M  V30 7346 C 678.381 0.277912 1.8462 0
M  V30 7347 C 678.732 -1.18048 1.56714 0
M  V30 7348 O 677.857 -1.90404 1.02836 0
M  V30 7349 C 678.452 0.497619 3.35126 0
M  V30 7350 C 677.011 0.152063 3.76093 0
M  V30 7351 C 676.158 0.78872 2.65847 0
M  V30 7352 H 679.109 0.879527 1.32098 0
M  V30 7353 H 679.13 -0.24939 3.79682 0
M  V30 7354 H 678.642 1.55913 3.55405 0
M  V30 7355 H 676.743 -0.905896 3.6142 0
M  V30 7356 H 676.856 0.594514 4.75397 0
M  V30 7357 H 675.22 0.219813 2.5375 0
M  V30 7358 H 676.003 1.85374 2.88949 0
M  V30 7359 N 678.448 -1.51871 0.421078 0
M  V30 7360 C 679.38 -2.25052 -0.434065 0
M  V30 7361 C 680.393 -1.28458 -1.00013 0
M  V30 7362 O 681.582 -1.54323 -0.897033 0
M  V30 7363 C 678.682 -2.97813 -1.61743 0
M  V30 7364 C 677.855 -4.21374 -1.17315 0
M  V30 7365 C 676.914 -4.76854 -2.22478 0
M  V30 7366 O 675.94 -5.39123 -1.82577 0
M  V30 7367 N 677.142 -4.59467 -3.54782 0
M  V30 7368 H 679.907 -2.99077 0.193073 0
M  V30 7369 H 677.468 -1.59972 0.249088 0
M  V30 7370 H 679.46 -3.3182 -2.31685 0
M  V30 7371 H 678.03 -2.26899 -2.15024 0
M  V30 7372 H 677.25 -3.93046 -0.3014 0
M  V30 7373 H 678.538 -5.01591 -0.853444 0
M  V30 7374 H 677.936 -4.09832 -3.89941 0
M  V30 7375 H 676.493 -4.9788 -4.20665 0
M  V30 7376 N 679.926 -0.151884 -1.56866 0
M  V30 7377 C 680.858 0.817008 -2.14144 0
M  V30 7378 C 681.871 1.20735 -1.0921 0
M  V30 7379 O 683.06 1.15058 -1.36469 0
M  V30 7380 C 680.16 2.10844 -2.65326 0
M  V30 7381 C 679.333 1.88471 -3.94712 0
M  V30 7382 C 678.392 3.01649 -4.31155 0
M  V30 7383 O 677.418 2.73127 -4.9939 0
M  V30 7384 N 678.62 4.28947 -3.91132 0
M  V30 7385 H 681.385 0.327448 -2.97906 0
M  V30 7386 H 678.946 0.0315313 -1.61869 0
M  V30 7387 H 680.938 2.85616 -2.86715 0
M  V30 7388 H 679.508 2.51049 -1.86262 0
M  V30 7389 H 678.728 0.977088 -3.81899 0
M  V30 7390 H 680.016 1.70866 -4.79252 0
M  V30 7391 H 679.414 4.54986 -3.36161 0
M  V30 7392 H 677.971 5.00484 -4.17563 0
M  V30 7393 N 681.404 1.57128 0.121893 0
M  V30 7394 C 682.651 1.847 0.830188 0
M  V30 7395 C 682.979 0.736543 1.80015 0
M  V30 7396 O 682.234 -0.272358 1.93796 0
M  V30 7397 C 682.533 3.1874 1.61677 0
M  V30 7398 C 682.199 4.43901 0.791361 0
M  V30 7399 C 680.861 4.77887 0.563731 0
M  V30 7400 C 683.213 5.20753 0.215823 0
M  V30 7401 C 680.541 5.86168 -0.249737 0
M  V30 7402 C 682.893 6.29891 -0.584821 0
M  V30 7403 C 681.557 6.6241 -0.822794 0
M  V30 7404 H 680.827 0.675866 0.303787 0
M  V30 7405 H 683.474 1.91276 0.0926894 0
M  V30 7406 H 681.779 3.07728 2.42509 0
M  V30 7407 H 683.476 3.37295 2.16872 0
M  V30 7408 H 680.066 4.17272 0.978867 0
M  V30 7409 H 684.25 4.94851 0.378907 0
M  V30 7410 H 679.506 6.0979 -0.44336 0
M  V30 7411 H 683.68 6.88624 -1.03779 0
M  V30 7412 H 681.307 7.46147 -1.45496 0
M  V30 7413 N 682.882 -0.391992 1.52647 0
M  V30 7414 C 684.112 -1.15692 1.71169 0
M  V30 7415 C 684.52 -1.84285 0.428444 0
M  V30 7416 O 683.863 -1.73393 -0.606669 0
M  V30 7417 C 683.925 -2.25033 2.80357 0
M  V30 7418 C 683.589 -1.76433 4.21569 0
M  V30 7419 C 684.586 -1.2427 5.0483 0
M  V30 7420 C 682.271 -1.82746 4.67877 0
M  V30 7421 C 684.265 -0.790657 6.32477 0
M  V30 7422 C 681.952 -1.37153 5.9551 0
M  V30 7423 C 682.95 -0.853997 6.7764 0
M  V30 7424 O 682.638 -0.404708 8.02881 0
M  V30 7425 H 682.37 -0.35297 0.576531 0
M  V30 7426 H 684.924 -0.464994 2.00067 0
M  V30 7427 H 683.154 -2.97641 2.46874 0
M  V30 7428 H 684.843 -2.86718 2.87311 0
M  V30 7429 H 685.609 -1.18752 4.70237 0
M  V30 7430 H 681.488 -2.21971 4.04042 0
M  V30 7431 H 685.032 -0.386024 6.96531 0
M  V30 7432 H 680.929 -1.42356 6.29607 0
M  V30 7433 H 681.697 -0.526459 8.16805 0
M  V30 7434 N 684.36 -1.4356 -0.65026 0
M  V30 7435 C 685.308 -1.49219 -1.78427 0
M  V30 7436 C 686.302 -0.365528 -1.65409 0
M  V30 7437 O 687.508 -0.539649 -1.7172 0
M  V30 7438 H 683.883 -0.467858 -0.588738 0
M  V30 7439 H 685.854 -2.44701 -1.70774 0
M  V30 7440 C 684.603 -1.43519 -3.16698 0
M  V30 7441 H 683.926 -2.2952 -3.27354 0
M  V30 7442 H 685.366 -1.5154 -3.95995 0
M  V30 7443 C 683.825 -0.153197 -3.36552 0
M  V30 7444 O 684.355 0.784317 -3.93969 0
M  V30 7445 N 682.561 -0.0624402 -2.90533 0
M  V30 7446 H 682.108 -0.826172 -2.43992 0
M  V30 7447 H 682.066 0.794616 -3.04193 0
M  V30 7448 N 685.838 0.888903 -1.30139 0
M  V30 7449 C 687.087 1.63507 -1.18103 0
M  V30 7450 C 687.4 1.93808 0.264141 0
M  V30 7451 O 688.606 2.66744 0.505966 0
M  V30 7452 C 687.062 2.94673 -2.0663 0
M  V30 7453 C 686.67 2.71926 -3.56034 0
M  V30 7454 C 688.414 3.72626 -2.03346 0
M  V30 7455 C 686.321 3.98884 -4.3663 0
M  V30 7456 H 685.251 0.613426 -0.438435 0
M  V30 7457 H 687.902 0.984427 -1.54859 0
M  V30 7458 H 686.284 3.61009 -1.62754 0
M  V30 7459 H 687.458 2.14116 -4.08033 0
M  V30 7460 H 685.773 2.07353 -3.61101 0
M  V30 7461 H 688.37 4.66775 -2.60816 0
M  V30 7462 H 688.713 4.03712 -1.016 0
M  V30 7463 H 689.246 3.13147 -2.45324 0
M  V30 7464 H 685.985 3.72959 -5.39056 0
M  V30 7465 H 685.505 4.56214 -3.89396 0
M  V30 7466 H 687.184 4.66938 -4.47859 0
M  V30 7467 N 687.317 1.12792 1.10072 0
M  V30 7468 C 688.25 0.742921 2.15768 0
M  V30 7469 C 689.228 -0.267714 1.60381 0
M  V30 7470 O 690.412 -0.160782 1.87813 0
M  V30 7471 C 687.539 0.100244 3.38552 0
M  V30 7472 C 686.585 1.07831 4.12644 0
M  V30 7473 S 687.418 2.60765 4.6772 0
M  V30 7474 C 688.574 1.97838 5.9381 0
M  V30 7475 H 688.807 1.63822 2.48092 0
M  V30 7476 H 686.34 0.947385 1.21918 0
M  V30 7477 H 688.298 -0.264175 4.09649 0
M  V30 7478 H 686.959 -0.772223 3.04459 0
M  V30 7479 H 686.152 0.576325 5.00694 0
M  V30 7480 H 685.754 1.38586 3.47376 0
M  V30 7481 H 688.046 1.32341 6.64449 0
M  V30 7482 H 688.989 2.83943 6.48677 0
M  V30 7483 H 689.397 1.43267 5.46017 0
M  V30 7484 N 688.795 -1.27931 0.920396 0
M  V30 7485 C 689.725 -2.29487 0.431024 0
M  V30 7486 C 690.706 -1.62435 -0.504861 0
M  V30 7487 O 691.891 -1.89797 -0.411176 0
M  V30 7488 C 689.021 -3.45788 -0.323709 0
M  V30 7489 C 687.975 -4.24784 0.523658 0
M  V30 7490 C 687.301 -5.33488 -0.359809 0
M  V30 7491 C 688.601 -4.90874 1.78437 0
M  V30 7492 H 690.295 -2.70671 1.27975 0
M  V30 7493 H 687.841 -1.30121 0.616813 0
M  V30 7494 H 689.794 -4.15927 -0.676952 0
M  V30 7495 H 688.518 -3.03502 -1.2064 0
M  V30 7496 H 687.177 -3.56382 0.85951 0
M  V30 7497 H 686.825 -4.87445 -1.24124 0
M  V30 7498 H 686.525 -5.87247 0.203605 0
M  V30 7499 H 688.049 -6.06472 -0.708787 0
M  V30 7500 H 689.463 -5.53339 1.49963 0
M  V30 7501 H 687.86 -5.54659 2.29071 0
M  V30 7502 H 688.93 -4.14988 2.50824 0
M  V30 7503 N 690.273 -0.685099 -1.4193 0
M  V30 7504 C 691.183 -0.013404 -2.34596 0
M  V30 7505 C 692.199 0.777589 -1.55658 0
M  V30 7506 O 693.375 0.717553 -1.88184 0
M  V30 7507 C 690.44 0.919031 -3.34297 0
M  V30 7508 C 689.501 0.121417 -4.29128 0
M  V30 7509 C 688.734 1.00944 -5.24067 0
M  V30 7510 O 688.957 2.24898 -5.24192 0
M  V30 7511 O 687.891 0.464724 -6.00103 0
M  V30 7512 H 691.717 -0.776978 -2.93593 0
M  V30 7513 H 689.302 -0.445379 -1.42607 0
M  V30 7514 H 691.184 1.45402 -3.9552 0
M  V30 7515 H 689.859 1.66228 -2.77759 0
M  V30 7516 H 688.766 -0.45792 -3.71287 0
M  V30 7517 H 690.099 -0.582937 -4.88736 0
M  V30 7518 N 691.751 1.51645 -0.429126 0
M  V30 7519 C 692.991 2.03924 0.139354 0
M  V30 7520 C 693.355 1.30673 1.40672 0
M  V30 7521 O 694.556 1.73282 2.05491 0
M  V30 7522 C 692.827 3.5557 0.361179 0
M  V30 7523 S 694.386 4.29591 0.894241 0
M  V30 7524 H 691.204 0.710103 0.0356986 0
M  V30 7525 H 693.806 1.86491 -0.586644 0
M  V30 7526 H 692.51 4.06455 -0.567686 0
M  V30 7527 H 692.041 3.77283 1.11449 0
M  V30 7528 H 694.056 4.46102 2.17272 0
M  V30 7529 N 693.229 0.160201 1.56784 0
M  V30 7530 C 694.475 -0.481855 1.9761 0
M  V30 7531 C 694.83 -1.61605 1.04411 0
M  V30 7532 O 694.123 -1.91426 0.0816402 0
M  V30 7533 C 694.317 -1.02259 3.42459 0
M  V30 7534 C 694.146 0.0576781 4.49663 0
M  V30 7535 C 692.916 0.503585 5.02784 0
M  V30 7536 C 695.114 0.854013 5.0716 0
M  V30 7537 N 693.096 1.56532 5.93608 0
M  V30 7538 C 694.467 1.76593 5.94319 0
M  V30 7539 C 696.522 0.900333 4.89692 0
M  V30 7540 C 695.225 2.72023 6.6588 0
M  V30 7541 C 697.251 1.84252 5.61965 0
M  V30 7542 C 696.613 2.74194 6.48843 0
M  V30 7543 H 692.712 -0.144748 0.768487 0
M  V30 7544 H 695.296 0.257853 1.92985 0
M  V30 7545 H 693.467 -1.73186 3.47651 0
M  V30 7546 H 695.199 -1.63235 3.70319 0
M  V30 7547 H 691.954 0.103361 4.73487 0
M  V30 7548 H 692.378 2.09634 6.43726 0
M  V30 7549 H 697.02 0.219023 4.22232 0
M  V30 7550 H 694.738 3.41147 7.3256 0
M  V30 7551 H 698.324 1.88433 5.5044 0
M  V30 7552 H 697.204 3.45912 7.03786 0
M  V30 7553 N 694.707 -1.5719 -0.113559 0
M  V30 7554 C 695.655 -2.01725 -1.158 0
M  V30 7555 C 696.649 -0.915105 -1.42556 0
M  V30 7556 O 697.855 -1.10031 -1.42454 0
M  V30 7557 H 694.23 -0.64262 -0.390569 0
M  V30 7558 H 696.201 -2.88666 -0.755926 0
M  V30 7559 C 694.95 -2.44203 -2.47507 0
M  V30 7560 H 694.273 -3.28582 -2.27758 0
M  V30 7561 H 695.713 -2.79158 -3.19135 0
M  V30 7562 C 694.172 -1.30785 -3.10478 0
M  V30 7563 O 694.702 -0.626807 -3.9678 0
M  V30 7564 N 692.908 -1.06352 -2.7044 0
M  V30 7565 H 692.455 -1.61913 -2.00355 0
M  V30 7566 H 692.413 -0.306614 -3.12901 0
M  V30 7567 N 696.185 0.383891 -1.52853 0
M  V30 7568 C 697.148 1.45197 -1.77343 0
M  V30 7569 C 698.148 1.47362 -0.643522 0
M  V30 7570 O 699.338 1.48443 -0.911613 0
M  V30 7571 C 696.47 2.8445 -1.87885 0
M  V30 7572 H 697.663 1.24764 -2.72716 0
M  V30 7573 H 695.216 0.615939 -1.43652 0
M  V30 7574 H 695.951 3.10222 -0.94515 0
M  V30 7575 H 695.736 2.8428 -2.70051 0
M  V30 7576 H 697.226 3.61832 -2.08488 0
M  V30 7577 N 697.663 1.43903 0.642637 0
M  V30 7578 C 698.573 1.52349 1.78401 0
M  V30 7579 C 699.589 0.409869 1.69104 0
M  V30 7580 O 700.765 0.665548 1.90085 0
M  V30 7581 C 697.83 1.45408 3.14734 0
M  V30 7582 C 696.891 2.67528 3.35749 0
M  V30 7583 C 696.124 2.60909 4.65577 0
M  V30 7584 O 696.347 1.6627 5.45628 0
M  V30 7585 O 695.281 3.5158 4.88544 0
M  V30 7586 H 699.107 2.48752 1.7423 0
M  V30 7587 H 696.692 1.26021 0.802439 0
M  V30 7588 H 698.574 1.44019 3.96026 0
M  V30 7589 H 697.249 0.521437 3.19473 0
M  V30 7590 H 696.156 2.74487 2.5418 0
M  V30 7591 H 697.489 3.598 3.35864 0
M  V30 7592 N 699.141 -0.881989 1.30609 0
M  V30 7593 C 700.552 -1.44956 1.17664 0
M  V30 7594 C 700.903 -1.94945 -0.221531 0
M  V30 7595 O 700.028 -1.85257 -1.11844 0
M  V30 7596 C 700.623 -2.63474 2.12995 0
M  V30 7597 C 699.182 -3.16312 2.04019 0
M  V30 7598 C 698.329 -1.89008 2.02907 0
M  V30 7599 H 701.28 -0.691645 1.42835 0
M  V30 7600 H 701.301 -3.39783 1.71253 0
M  V30 7601 H 700.813 -2.2706 3.14746 0
M  V30 7602 H 698.914 -3.57376 1.0542 0
M  V30 7603 H 699.027 -3.79409 2.9255 0
M  V30 7604 H 697.391 -2.07465 1.47751 0
M  V30 7605 H 698.174 -1.54848 3.06394 0
M  V30 7606 N 700.619 -1.13374 -1.09472 0
M  V30 7607 C 701.566 -0.810682 -2.16094 0
M  V30 7608 C 702.536 0.227003 -1.64541 0
M  V30 7609 O 703.721 0.0993538 -1.90541 0
M  V30 7610 C 700.861 -0.282336 -3.43943 0
M  V30 7611 C 699.974 -1.37902 -4.09398 0
M  V30 7612 C 699.109 -0.809066 -5.25002 0
M  V30 7613 C 698.148 -1.88419 -5.82379 0
M  V30 7614 N 697.285 -1.33221 -6.89345 0
M  V30 7615 H 702.125 -1.72397 -2.43071 0
M  V30 7616 H 699.662 -0.860564 -1.19301 0
M  V30 7617 H 701.62 0.0421189 -4.17179 0
M  V30 7618 H 700.25 0.594083 -3.17286 0
M  V30 7619 H 699.302 -1.82008 -3.34032 0
M  V30 7620 H 700.614 -2.19161 -4.48074 0
M  V30 7621 H 699.768 -0.435867 -6.05132 0
M  V30 7622 H 698.507 0.0346058 -4.87688 0
M  V30 7623 H 697.512 -2.26646 -5.00911 0
M  V30 7624 H 698.737 -2.73125 -6.21755 0
M  V30 7625 H 696.683 -0.510535 -6.5401 0
M  V30 7626 H 696.6 -2.08129 -7.26786 0
M  V30 7627 H 697.868 -0.986565 -7.73232 0
M  V30 7628 N 702.098 1.27442 -0.927168 0
M  V30 7629 C 703.008 2.30599 -0.431448 0
M  V30 7630 C 704.024 1.67028 0.48761 0
M  V30 7631 O 705.2 1.97962 0.370546 0
M  V30 7632 C 702.265 3.45327 0.308292 0
M  V30 7633 C 701.326 4.24418 -0.645615 0
M  V30 7634 C 700.559 5.33667 0.0589164 0
M  V30 7635 O 700.782 5.5589 1.27838 0
M  V30 7636 O 699.716 5.98774 -0.612638 0
M  V30 7637 H 703.542 2.75036 -1.28797 0
M  V30 7638 H 701.127 1.32382 -0.692495 0
M  V30 7639 H 703.009 4.15107 0.725555 0
M  V30 7640 H 701.684 3.02945 1.14043 0
M  V30 7641 H 700.591 3.57174 -1.11255 0
M  V30 7642 H 701.924 4.70512 -1.44496 0
M  V30 7643 N 703.576 0.692616 1.41565 0
M  V30 7644 C 704.992 0.363878 1.55397 0
M  V30 7645 C 705.192 -1.1294 1.66874 0
M  V30 7646 O 704.248 -1.91517 1.64552 0
M  V30 7647 C 705.561 1.10982 2.7947 0
M  V30 7648 C 707.109 1.09387 2.93263 0
M  V30 7649 C 707.584 1.8215 4.20221 0
M  V30 7650 N 709.075 1.79105 4.27172 0
M  V30 7651 C 709.81 2.32247 5.2426 0
M  V30 7652 N 709.306 2.93847 6.27396 0
M  V30 7653 N 711.099 2.22519 5.1618 0
M  V30 7654 H 703.25 1.66116 1.3236 0
M  V30 7655 H 705.513 0.700848 0.63837 0
M  V30 7656 H 705.219 2.1647 2.77188 0
M  V30 7657 H 705.093 0.686492 3.709 0
M  V30 7658 H 707.48 0.0472638 2.95062 0
M  V30 7659 H 707.561 1.55623 2.03015 0
M  V30 7660 H 707.205 2.86789 4.19183 0
M  V30 7661 H 707.135 1.33351 5.09436 0
M  V30 7662 H 709.626 1.34191 3.53272 0
M  V30 7663 H 709.939 3.31972 6.97864 0
M  V30 7664 H 708.284 2.97924 6.27906 0
M  V30 7665 H 711.475 1.7407 4.34531 0
M  V30 7666 H 711.648 2.64239 5.91677 0
M  V30 7667 N 705.054 -1.51416 0.437162 0
M  V30 7668 C 706.465 -1.86682 -0.0260005 0
M  V30 7669 C 706.816 -1.35432 -1.4196 0
M  V30 7670 O 705.941 -0.705055 -2.04592 0
M  V30 7671 C 706.536 -3.38757 -0.0539577 0
M  V30 7672 C 705.095 -3.7356 -0.461532 0
M  V30 7673 C 704.242 -2.75134 0.345924 0
M  V30 7674 H 707.193 -1.44642 0.653013 0
M  V30 7675 H 707.214 -3.70573 -0.863478 0
M  V30 7676 H 706.726 -3.76028 0.96045 0
M  V30 7677 H 704.827 -3.41878 -1.48155 0
M  V30 7678 H 704.94 -4.78737 -0.186451 0
M  V30 7679 H 703.304 -2.53947 -0.195739 0
M  V30 7680 H 704.087 -3.15247 1.35921 0
M  V30 7681 N 706.532 -0.168513 -1.56696 0
M  V30 7682 C 707.76 0.483503 -2.01171 0
M  V30 7683 C 708.175 1.56994 -1.04872 0
M  V30 7684 O 707.532 1.82434 -0.0491337 0
M  V30 7685 C 707.583 1.0644 -3.45475 0
M  V30 7686 O 707.304 0.0213375 -4.38095 0
M  V30 7687 C 708.805 1.79493 -4.05336 0
M  V30 7688 H 706.025 0.124002 -0.659443 0
M  V30 7689 H 708.569 -0.269419 -2.02717 0
M  V30 7690 H 706.724 1.76784 -3.44712 0
M  V30 7691 H 707.138 0.449837 -5.22567 0
M  V30 7692 H 708.612 2.15401 -5.08238 0
M  V30 7693 H 709.089 2.68889 -3.47269 0
M  V30 7694 H 709.695 1.13798 -4.09793 0
M  V30 7695 N 708.01 1.57248 0.105221 0
M  V30 7696 C 709.257 1.8557 0.810552 0
M  V30 7697 C 709.585 0.755595 1.79223 0
M  V30 7698 O 708.84 -0.251788 1.94073 0
M  V30 7699 C 709.139 3.20437 1.58287 0
M  V30 7700 C 708.805 4.44716 0.744235 0
M  V30 7701 C 707.467 4.78458 0.513013 0
M  V30 7702 C 709.819 5.20953 0.160578 0
M  V30 7703 C 707.147 5.8587 -0.311894 0
M  V30 7704 C 709.499 6.29235 -0.651596 0
M  V30 7705 C 708.163 6.615 -0.893005 0
M  V30 7706 H 707.433 0.67905 0.296602 0
M  V30 7707 H 710.08 1.91363 0.0723968 0
M  V30 7708 H 708.385 3.10283 2.39232 0
M  V30 7709 H 710.082 3.39576 2.13282 0
M  V30 7710 H 706.672 4.18287 0.934555 0
M  V30 7711 H 710.856 4.95226 0.3264 0
M  V30 7712 H 706.112 6.09286 -0.508012 0
M  V30 7713 H 710.286 6.87484 -1.11077 0
M  V30 7714 H 707.913 7.44562 -1.53401 0
M  V30 7715 N 709.488 -0.375779 1.53054 0
M  V30 7716 C 710.398 -1.48381 1.81715 0
M  V30 7717 C 711.414 -1.59087 0.704795 0
M  V30 7718 O 712.59 -1.75174 0.993785 0
M  V30 7719 C 709.655 -2.83767 1.99192 0
M  V30 7720 C 708.716 -2.82673 3.23102 0
M  V30 7721 C 707.949 -4.11601 3.39736 0
M  V30 7722 O 708.172 -5.07243 2.60885 0
M  V30 7723 O 707.106 -4.18034 4.33049 0
M  V30 7724 H 710.932 -1.27089 2.7583 0
M  V30 7725 H 708.517 -0.564902 1.38308 0
M  V30 7726 H 710.399 -3.64004 2.12318 0
M  V30 7727 H 709.074 -3.05057 1.08267 0
M  V30 7728 H 707.981 -2.0117 3.15407 0
M  V30 7729 H 709.314 -2.66335 4.13916 0
M  V30 7730 N 710.966 -1.44241 -0.634997 0
M  V30 7731 C 712.194 -1.50296 -1.42193 0
M  V30 7732 C 712.609 -0.12658 -1.88375 0
M  V30 7733 O 711.966 0.86678 -1.60603 0
M  V30 7734 C 712.017 -2.46437 -2.64482 0
M  V30 7735 O 711.738 -3.78724 -2.20226 0
M  V30 7736 C 713.239 -2.61918 -3.57651 0
M  V30 7737 H 710.459 -0.509865 -0.43621 0
M  V30 7738 H 713.003 -1.89167 -0.776921 0
M  V30 7739 H 711.158 -2.10712 -3.25083 0
M  V30 7740 H 711.572 -4.30595 -2.9948 0
M  V30 7741 H 713.046 -3.33225 -4.40074 0
M  V30 7742 H 713.523 -1.67017 -4.06204 0
M  V30 7743 H 714.129 -2.98528 -3.02921 0
M  V30 7744 N 712.444 0.87505 -1.31075 0
M  V30 7745 C 713.374 1.99775 -1.20881 0
M  V30 7746 C 714.355 1.69822 -0.0971612 0
M  V30 7747 O 715.54 1.92158 -0.280895 0
M  V30 7748 C 712.67 3.35163 -0.910118 0
M  V30 7749 C 711.624 3.79406 -1.98078 0
M  V30 7750 C 710.95 5.12197 -1.53488 0
M  V30 7751 C 712.25 3.97061 -3.39323 0
M  V30 7752 H 713.944 2.08562 -2.14808 0
M  V30 7753 H 711.49 1.00207 -1.03415 0
M  V30 7754 H 713.443 4.13237 -0.825423 0
M  V30 7755 H 712.167 3.26536 0.064822 0
M  V30 7756 H 710.826 3.03568 -2.05528 0
M  V30 7757 H 710.474 5.00007 -0.547941 0
M  V30 7758 H 710.174 5.4277 -2.2511 0
M  V30 7759 H 711.698 5.92785 -1.46417 0
M  V30 7760 H 713.112 4.65545 -3.34576 0
M  V30 7761 H 711.509 4.39025 -4.09118 0
M  V30 7762 H 712.579 3.00601 -3.80483 0
M  V30 7763 N 713.922 1.13953 1.08869 0
M  V30 7764 C 715.338 0.878924 1.33218 0
M  V30 7765 C 715.538 -0.482478 1.95638 0
M  V30 7766 O 714.594 -1.22778 2.2064 0
M  V30 7767 C 715.907 2.00798 2.23832 0
M  V30 7768 C 717.455 2.04073 2.37325 0
M  V30 7769 C 717.93 3.16258 3.31278 0
M  V30 7770 N 719.421 3.15805 3.38853 0
M  V30 7771 C 720.156 3.99249 4.11567 0
M  V30 7772 N 719.652 4.92721 4.87029 0
M  V30 7773 N 721.445 3.87327 4.0735 0
M  V30 7774 H 713.596 2.01645 0.66731 0
M  V30 7775 H 715.859 0.878395 0.356547 0
M  V30 7776 H 715.565 2.98986 1.85203 0
M  V30 7777 H 715.439 1.92704 3.24261 0
M  V30 7778 H 717.826 1.06495 2.75214 0
M  V30 7779 H 717.907 2.16239 1.36654 0
M  V30 7780 H 717.551 4.14079 2.9411 0
M  V30 7781 H 717.481 3.0133 4.31866 0
M  V30 7782 H 719.972 2.48102 2.8505 0
M  V30 7783 H 720.285 5.52867 5.39961 0
M  V30 7784 H 718.63 4.96723 4.86098 0
M  V30 7785 H 721.821 3.13627 3.475 0
M  V30 7786 H 721.994 4.52585 4.63757 0
M  V30 7787 N 715.4 -1.26948 0.933913 0
M  V30 7788 C 716.646 -1.94716 0.587985 0
M  V30 7789 C 717.001 -1.71994 -0.862312 0
M  V30 7790 O 716.294 -1.04208 -1.60783 0
M  V30 7791 C 716.488 -3.46963 0.857406 0
M  V30 7792 C 716.317 -3.84489 2.33234 0
M  V30 7793 C 715.087 -4.07621 2.98618 0
M  V30 7794 C 717.285 -3.93602 3.31031 0
M  V30 7795 N 715.267 -4.31976 4.362 0
M  V30 7796 C 716.638 -4.22404 4.53845 0
M  V30 7797 C 718.693 -3.76201 3.26155 0
M  V30 7798 C 717.396 -4.35615 5.72391 0
M  V30 7799 C 719.422 -3.90641 4.4402 0
M  V30 7800 C 718.784 -4.19835 5.65613 0
M  V30 7801 H 714.883 -0.735586 0.2654 0
M  V30 7802 H 717.467 -1.53181 1.20182 0
M  V30 7803 H 715.638 -3.87442 0.27268 0
M  V30 7804 H 717.37 -4.01921 0.47348 0
M  V30 7805 H 714.125 -4.02696 2.49264 0
M  V30 7806 H 714.549 -4.48199 5.07392 0
M  V30 7807 H 719.191 -3.52665 2.3321 0
M  V30 7808 H 716.909 -4.57975 6.65796 0
M  V30 7809 H 720.495 -3.78589 4.41771 0
M  V30 7810 H 719.375 -4.30765 6.55295 0
M  V30 7811 N 716.879 -0.700114 -1.41195 0
M  V30 7812 C 717.826 -0.0376652 -2.30769 0
M  V30 7813 C 718.796 0.766544 -1.47354 0
M  V30 7814 O 719.981 0.73365 -1.76131 0
M  V30 7815 C 717.121 0.889452 -3.33441 0
M  V30 7816 C 716.234 0.076373 -4.31932 0
M  V30 7817 C 715.369 1.00155 -5.21673 0
M  V30 7818 C 714.408 0.181644 -6.1183 0
M  V30 7819 N 713.545 1.06087 -6.94039 0
M  V30 7820 H 718.385 -0.80726 -2.86858 0
M  V30 7821 H 715.922 -0.409798 -1.41277 0
M  V30 7822 H 717.88 1.44107 -3.91522 0
M  V30 7823 H 716.51 1.6254 -2.78892 0
M  V30 7824 H 715.562 -0.592223 -3.75762 0
M  V30 7825 H 716.874 -0.559076 -4.95657 0
M  V30 7826 H 716.028 1.62223 -5.8461 0
M  V30 7827 H 714.767 1.67085 -4.58186 0
M  V30 7828 H 713.772 -0.452085 -5.47938 0
M  V30 7829 H 714.997 -0.483925 -6.77374 0
M  V30 7830 H 712.943 1.7161 -6.33156 0
M  V30 7831 H 712.86 0.481094 -7.54468 0
M  V30 7832 H 714.128 1.66822 -7.6144 0
M  V30 7833 N 718.357 1.51182 -0.445186 0
M  V30 7834 C 719.287 2.30821 0.352686 0
M  V30 7835 C 720.268 1.36576 1.01395 0
M  V30 7836 O 721.453 1.65497 1.01609 0
M  V30 7837 C 718.583 3.15593 1.44976 0
M  V30 7838 C 717.537 4.1818 0.911553 0
M  V30 7839 C 716.863 4.91523 2.10497 0
M  V30 7840 C 718.163 5.22266 -0.059418 0
M  V30 7841 H 719.857 2.97771 -0.311936 0
M  V30 7842 H 717.403 1.43201 -0.151461 0
M  V30 7843 H 719.356 3.70091 2.01521 0
M  V30 7844 H 718.08 2.4648 2.14278 0
M  V30 7845 H 716.739 3.64746 0.368264 0
M  V30 7846 H 716.387 4.18906 2.78437 0
M  V30 7847 H 716.087 5.60898 1.7512 0
M  V30 7848 H 717.611 5.48847 2.6758 0
M  V30 7849 H 719.025 5.71789 0.415985 0
M  V30 7850 H 717.422 5.99213 -0.326152 0
M  V30 7851 H 718.492 4.7461 -0.993631 0
M  V30 7852 N 719.835 0.176821 1.56605 0
M  V30 7853 C 720.745 -0.763682 2.21822 0
M  V30 7854 C 721.761 -1.24889 1.21156 0
M  V30 7855 O 722.937 -1.29987 1.53836 0
M  V30 7856 C 720.002 -1.97352 2.8505 0
M  V30 7857 C 719.063 -1.53466 4.00932 0
M  V30 7858 C 718.296 -2.68682 4.61135 0
M  V30 7859 O 718.519 -3.85694 4.20234 0
M  V30 7860 O 717.453 -2.42442 5.50913 0
M  V30 7861 H 721.279 -0.238363 3.02763 0
M  V30 7862 H 718.864 -0.0516331 1.49311 0
M  V30 7863 H 720.746 -2.68096 3.25119 0
M  V30 7864 H 719.421 -2.48779 2.07101 0
M  V30 7865 H 718.328 -0.796551 3.65521 0
M  V30 7866 H 719.661 -1.06724 4.8049 0
M  V30 7867 N 721.313 -1.57302 -0.09688 0
M  V30 7868 C 722.59 -1.7701 -0.832272 0
M  V30 7869 C 722.97 -0.758025 -1.97021 0
M  V30 7870 O 722.318 0.213824 -2.27497 0
M  V30 7871 C 722.528 -3.22725 -1.32851 0
M  V30 7872 C 723.876 -3.85856 -1.772 0
M  V30 7873 O 724.9 -3.26464 -1.42478 0
M  V30 7874 O 723.759 -4.90295 -2.41398 0
M  V30 7875 H 720.853 -0.725558 -0.396856 0
M  V30 7876 H 723.399 -1.69516 -0.0789005 0
M  V30 7877 H 722.171 -3.87921 -0.51312 0
M  V30 7878 H 721.794 -3.34845 -2.14394 0
M  V30 7879 N 722.791 0.367657 -1.53252 0
M  V30 7880 C 724.021 1.12955 -1.72988 0
M  V30 7881 C 724.429 1.8358 -0.457708 0
M  V30 7882 O 723.772 1.74336 0.579006 0
M  V30 7883 C 723.834 2.20545 -2.83902 0
M  V30 7884 C 723.498 1.69704 -4.24323 0
M  V30 7885 C 724.495 1.16223 -5.06743 0
M  V30 7886 C 722.18 1.7528 -4.70725 0
M  V30 7887 C 724.174 0.689935 -6.33655 0
M  V30 7888 C 721.861 1.27662 -5.97617 0
M  V30 7889 C 722.859 0.746083 -6.78913 0
M  V30 7890 O 722.547 0.276925 -8.03423 0
M  V30 7891 H 722.279 0.343753 -0.582074 0
M  V30 7892 H 724.833 0.433106 -2.00782 0
M  V30 7893 H 723.063 2.93676 -2.51577 0
M  V30 7894 H 724.752 2.82111 -2.91836 0
M  V30 7895 H 725.518 1.11256 -4.72067 0
M  V30 7896 H 721.397 2.15515 -4.07522 0
M  V30 7897 H 724.941 0.275164 -6.97057 0
M  V30 7898 H 720.838 1.32322 -6.31792 0
M  V30 7899 H 721.606 0.396445 -8.17539 0
M  V30 7900 N 724.269 1.44576 0.627338 0
M  V30 7901 C 725.516 1.47558 1.38682 0
M  V30 7902 C 725.844 0.109636 1.94191 0
M  V30 7903 O 725.099 -0.889092 1.74338 0
M  V30 7904 C 725.398 2.48644 2.56731 0
M  V30 7905 C 725.064 3.93873 2.19489 0
M  V30 7906 C 723.726 4.33421 2.09045 0
M  V30 7907 C 726.078 4.85286 1.90124 0
M  V30 7908 C 723.406 5.62303 1.6743 0
M  V30 7909 C 725.758 6.14559 1.50001 0
M  V30 7910 C 724.422 6.53058 1.38101 0
M  V30 7911 H 723.692 0.539955 0.507474 0
M  V30 7912 H 726.339 1.77811 0.711021 0
M  V30 7913 H 724.644 2.11889 3.29561 0
M  V30 7914 H 726.341 2.48197 3.14959 0
M  V30 7915 H 722.931 3.62587 2.28537 0
M  V30 7916 H 727.115 4.55483 1.971 0
M  V30 7917 H 722.371 5.90945 1.56823 0
M  V30 7918 H 726.545 6.84848 1.26319 0
M  V30 7919 H 724.172 7.52826 1.05628 0
M  V30 7920 N 725.747 -0.868086 1.31537 0
M  V30 7921 C 726.657 -2.00801 1.21311 0
M  V30 7922 C 727.673 -1.73518 0.129431 0
M  V30 7923 O 728.849 -1.98378 0.347588 0
M  V30 7924 C 725.914 -3.3419 0.922935 0
M  V30 7925 C 724.975 -3.74783 2.0937 0
M  V30 7926 C 724.208 -5.01807 1.81728 0
M  V30 7927 O 724.431 -5.65404 0.753313 0
M  V30 7928 O 723.365 -5.39213 2.67457 0
M  V30 7929 H 727.191 -2.12361 2.17109 0
M  V30 7930 H 724.776 -0.996684 1.11295 0
M  V30 7931 H 726.658 -4.14174 0.777033 0
M  V30 7932 H 725.333 -3.237 -0.00500301 0
M  V30 7933 H 724.24 -2.95432 2.29501 0
M  V30 7934 H 725.573 -3.89902 3.00396 0
M  V30 7935 N 727.225 -1.14528 -1.08264 0
M  V30 7936 C 728.453 -0.937964 -1.84418 0
M  V30 7937 C 728.868 0.51357 -1.81681 0
M  V30 7938 O 728.225 1.35591 -1.22153 0
M  V30 7939 C 728.276 -1.43272 -3.31897 0
M  V30 7940 O 727.997 -2.82738 -3.34651 0
M  V30 7941 C 729.498 -1.26555 -4.24851 0
M  V30 7942 H 726.718 -0.333704 -0.582136 0
M  V30 7943 H 729.262 -1.52076 -1.36723 0
M  V30 7944 H 727.417 -0.892653 -3.76975 0
M  V30 7945 H 727.831 -3.04971 -4.26724 0
M  V30 7946 H 729.305 -1.66031 -5.26439 0
M  V30 7947 H 729.782 -0.208589 -4.38704 0
M  V30 7948 H 730.388 -1.79423 -3.856 0
M  V30 7949 N 728.703 1.26451 -0.940633 0
M  V30 7950 C 729.98 1.88947 -0.505811 0
M  V30 7951 C 730.36 1.85011 1.01657 0
M  V30 7952 O 729.708 1.30406 1.87634 0
M  V30 7953 C 729.918 3.32304 -1.06654 0
M  V30 7954 C 731.266 4.09153 -1.13486 0
M  V30 7955 O 732.29 3.41371 -1.01708 0
M  V30 7956 O 731.149 5.30369 -1.31797 0
M  V30 7957 H 728.243 0.810422 -0.164759 0
M  V30 7958 H 730.789 1.34625 -1.03316 0
M  V30 7959 H 729.561 3.29527 -2.11015 0
M  V30 7960 H 729.184 3.94164 -0.521603 0
M  V30 7961 N 730.181 0.707592 1.40822 0
M  V30 7962 C 731.406 0.251626 2.05868 0
M  V30 7963 C 731.831 -1.09503 1.5294 0
M  V30 7964 O 731.189 -1.68806 0.661385 0
M  V30 7965 C 731.237 0.23287 3.59847 0
M  V30 7966 O 730.341 -0.788477 4.04792 0
M  V30 7967 H 729.682 0.119936 0.653078 0
M  V30 7968 H 732.212 0.96583 1.80369 0
M  V30 7969 H 732.222 0.0678204 4.07944 0
M  V30 7970 H 730.897 1.21565 3.97737 0
M  V30 7971 H 729.474 -0.591802 3.68174 0
M  V30 7972 N 731.66 -1.50943 0.453197 0
M  V30 7973 C 732.885 -2.07116 -0.108463 0
M  V30 7974 C 733.31 -1.31681 -1.3432 0
M  V30 7975 O 732.668 -0.359256 -1.77705 0
M  V30 7976 C 732.716 -3.58447 -0.393424 0
M  V30 7977 O 731.82 -3.85038 -1.47714 0
M  V30 7978 H 731.161 -0.66398 0.0050993 0
M  V30 7979 H 733.691 -1.94362 0.639095 0
M  V30 7980 H 733.701 -4.02961 -0.639222 0
M  V30 7981 H 732.376 -4.12774 0.508946 0
M  V30 7982 H 730.953 -3.52376 -1.22006 0
M  V30 7983 N 733.138 -0.185124 -1.56509 0
M  V30 7984 C 734.368 0.461469 -2.0138 0
M  V30 7985 C 734.776 1.56417 -1.06445 0
M  V30 7986 O 734.119 1.83603 -0.0597515 0
M  V30 7987 C 734.181 1.08731 -3.42663 0
M  V30 7988 C 733.845 0.124581 -4.5683 0
M  V30 7989 C 734.842 -0.662295 -5.15664 0
M  V30 7990 C 732.527 0.0163947 -5.02297 0
M  V30 7991 C 734.521 -1.54442 -6.18406 0
M  V30 7992 C 732.208 -0.869301 -6.04885 0
M  V30 7993 C 733.206 -1.64828 -6.62813 0
M  V30 7994 O 732.894 -2.51915 -7.63409 0
M  V30 7995 H 732.626 0.1212 -0.665046 0
M  V30 7996 H 735.18 -0.288119 -2.03369 0
M  V30 7997 H 733.41 1.8853 -3.37629 0
M  V30 7998 H 735.099 1.63753 -3.71403 0
M  V30 7999 H 735.865 -0.588963 -4.81411 0
M  V30 8000 H 731.744 0.61253 -4.56913 0
M  V30 8001 H 735.288 -2.15289 -6.63548 0
M  V30 8002 H 731.185 -0.943786 -6.38563 0
M  V30 8003 H 731.953 -2.45584 -7.80789 0
M  V30 8004 N 734.616 1.57351 0.0885366 0
M  V30 8005 C 735.841 1.91011 0.80805 0
M  V30 8006 C 736.266 0.780009 1.71165 0
M  V30 8007 O 735.624 -0.268083 1.79307 0
M  V30 8008 C 735.672 3.23562 1.59185 0
M  V30 8009 O 734.776 3.11615 2.7013 0
M  V30 8010 H 734.117 0.625943 0.221565 0
M  V30 8011 H 736.647 2.04507 0.0617954 0
M  V30 8012 H 736.657 3.5703 1.97468 0
M  V30 8013 H 735.332 4.05398 0.928741 0
M  V30 8014 H 733.909 2.89673 2.34827 0
M  V30 8015 N 736.094 -0.359525 1.53444 0
M  V30 8016 C 737.371 -1.11756 1.6053 0
M  V30 8017 C 737.751 -2.06949 0.416587 0
M  V30 8018 O 737.099 -2.20681 -0.592628 0
M  V30 8019 C 737.309 -1.85133 2.95849 0
M  V30 8020 C 738.657 -2.3945 3.50641 0
M  V30 8021 O 739.681 -1.95251 2.97918 0
M  V30 8022 O 738.54 -3.20266 4.42823 0
M  V30 8023 H 735.634 -0.513005 0.648656 0
M  V30 8024 H 738.18 -0.362301 1.65787 0
M  V30 8025 H 736.952 -1.15694 3.73806 0
M  V30 8026 H 736.575 -2.67554 2.9411 0
M  V30 8027 N 737.572 -1.44907 -0.619662 0
M  V30 8028 C 738.535 -1.52282 -1.71297 0
M  V30 8029 C 739.535 -0.40359 -1.55653 0
M  V30 8030 O 740.725 -0.666638 -1.6094 0
M  V30 8031 C 737.857 -1.40778 -3.10474 0
M  V30 8032 H 739.05 -2.49683 -1.66128 0
M  V30 8033 H 736.603 -1.32168 -0.834339 0
M  V30 8034 H 737.338 -0.445156 -3.2123 0
M  V30 8035 H 737.123 -2.21947 -3.23237 0
M  V30 8036 H 738.613 -1.48946 -3.90135 0
M  V30 8037 N 739.05 0.861098 -1.31996 0
M  V30 8038 C 739.998 1.99052 -1.20337 0
M  V30 8039 C 740.992 1.69045 -0.109623 0
M  V30 8040 O 742.198 1.77931 -0.272117 0
M  V30 8041 H 738.573 0.653064 -0.372843 0
M  V30 8042 H 740.544 2.06015 -2.15872 0
M  V30 8043 C 739.293 3.34846 -0.936663 0
M  V30 8044 H 738.616 3.58462 -1.77045 0
M  V30 8045 H 740.056 4.1444 -0.895302 0
M  V30 8046 C 738.515 3.34965 0.360607 0
M  V30 8047 O 739.045 3.7745 1.37456 0
M  V30 8048 N 737.251 2.88101 0.380296 0
M  V30 8049 H 736.798 2.53721 -0.445351 0
M  V30 8050 H 736.756 2.88563 1.24816 0
M  V30 8051 N 740.528 1.15101 1.07655 0
M  V30 8052 C 741.476 0.840714 2.16875 0
M  V30 8053 C 742.47 -0.184594 1.68391 0
M  V30 8054 O 743.676 -0.0399315 1.79956 0
M  V30 8055 H 740.051 0.254192 0.707736 0
M  V30 8056 H 742.022 1.76959 2.40266 0
M  V30 8057 C 740.771 0.343018 3.46004 0
M  V30 8058 H 740.094 1.12335 3.83694 0
M  V30 8059 H 741.534 0.16453 4.23681 0
M  V30 8060 C 739.993 -0.934881 3.23669 0
M  V30 8061 O 740.523 -2.00706 3.47965 0
M  V30 8062 N 738.729 -0.873167 2.77172 0
M  V30 8063 H 738.276 -0.000479072 2.576 0
M  V30 8064 H 738.234 -1.72873 2.62607 0
M  V30 8065 N 742.006 -1.2595 0.947325 0
M  V30 8066 C 743.253 -1.93463 0.598178 0
M  V30 8067 C 743.581 -1.74271 -0.863705 0
M  V30 8068 O 742.836 -1.07684 -1.63409 0
M  V30 8069 C 743.135 -3.46034 0.894158 0
M  V30 8070 C 742.801 -3.85373 2.3409 0
M  V30 8071 C 741.463 -3.95823 2.73637 0
M  V30 8072 C 743.815 -4.04986 3.2808 0
M  V30 8073 C 741.143 -4.23288 4.06257 0
M  V30 8074 C 743.495 -4.3394 4.60303 0
M  V30 8075 C 742.159 -4.42606 4.99656 0
M  V30 8076 H 741.429 -0.707933 0.218889 0
M  V30 8077 H 744.076 -1.4964 1.19499 0
M  V30 8078 H 742.381 -3.9121 0.214874 0
M  V30 8079 H 744.078 -3.96445 0.602698 0
M  V30 8080 H 740.668 -3.7779 2.02417 0
M  V30 8081 H 744.852 -3.96333 2.9872 0
M  V30 8082 H 740.108 -4.28211 4.36401 0
M  V30 8083 H 744.282 -4.48061 5.33118 0
M  V30 8084 H 741.909 -4.63641 6.02446 0
M  V30 8085 N 743.484 -0.715051 -1.40445 0
M  V30 8086 C 744.733 -0.251322 -2.00128 0
M  V30 8087 C 745.046 1.16194 -1.57347 0
M  V30 8088 O 746.252 1.72416 -2.09726 0
M  V30 8089 C 744.708 -0.398407 -3.57688 0
M  V30 8090 C 744.316 -1.81828 -4.09442 0
M  V30 8091 C 746.06 0.00455625 -4.245 0
M  V30 8092 C 743.967 -1.91598 -5.59503 0
M  V30 8093 H 742.897 -0.0902081 -0.748584 0
M  V30 8094 H 745.548 -0.886062 -1.6069 0
M  V30 8095 H 743.93 0.304908 -3.94824 0
M  V30 8096 H 745.104 -2.55193 -3.83684 0
M  V30 8097 H 743.419 -2.17266 -3.55225 0
M  V30 8098 H 746.016 -0.0477303 -5.34679 0
M  V30 8099 H 746.359 1.04636 -4.02935 0
M  V30 8100 H 746.892 -0.649184 -3.92467 0
M  V30 8101 H 743.631 -2.93898 -5.85922 0
M  V30 8102 H 743.151 -1.22644 -5.87127 0
M  V30 8103 H 744.83 -1.68785 -6.24596 0
M  V30 8104 N 744.962 1.50701 -0.461195 0
M  V30 8105 C 746.378 1.59187 -0.114786 0
M  V30 8106 C 746.578 1.4702 1.37794 0
M  V30 8107 O 745.634 1.32361 2.15027 0
M  V30 8108 C 746.947 2.93453 -0.656167 0
M  V30 8109 C 748.495 3.06824 -0.618715 0
M  V30 8110 C 748.97 4.4365 -1.13747 0
M  V30 8111 N 750.461 4.50035 -1.09646 0
M  V30 8112 C 751.196 5.54278 -1.46846 0
M  V30 8113 N 750.692 6.65822 -1.91448 0
M  V30 8114 N 752.485 5.44767 -1.38512 0
M  V30 8115 H 744.636 1.56853 -1.43216 0
M  V30 8116 H 746.899 0.740712 -0.59165 0
M  V30 8117 H 746.605 3.07802 -1.7015 0
M  V30 8118 H 746.479 3.77082 -0.0942261 0
M  V30 8119 H 748.866 2.92129 0.417685 0
M  V30 8120 H 748.947 2.24976 -1.21734 0
M  V30 8121 H 748.591 4.59093 -2.17245 0
M  V30 8122 H 748.521 5.24074 -0.515153 0
M  V30 8123 H 751.012 3.69988 -0.769217 0
M  V30 8124 H 751.325 7.41413 -2.18007 0
M  V30 8125 H 749.67 6.66968 -1.95393 0
M  V30 8126 H 752.861 4.56511 -1.03516 0
M  V30 8127 H 753.034 6.25889 -1.6783 0
M  V30 8128 O 746.479 0.334734 1.57993 0
M  V30 8129 H 747.17 -0.222689 1.92416 0
M  V30 END ATOM
M  V30 BEGIN BOND
M  V30 END BOND
M  V30 END CTAB
M  END
$$$$
