drugbank_target|P42768 Wiskott-Aldrich syndrome protein (DB01731)
 OpenBabel12092120223D

  0  0  0     0  0            999 V3000
M  V30 BEGIN CTAB
M  V30 COUNTS 7392 7518 0 0 0
M  V30 BEGIN ATOM
M  V30 1 H -0.908 1.98254 -0.117106 0
M  V30 2 N 0 1.576 0 0
M  V30 3 C 0.933 2.03868 1.02534 0
M  V30 4 C 1.911 0.928543 1.3348 0
M  V30 5 O 3.095 1.19667 1.45644 0
M  V30 6 C 0.222 2.43627 2.35294 0
M  V30 7 C -0.732 3.65373 2.2001 0
M  V30 8 S 0.101 5.13292 1.52614 0
M  V30 9 C 1.257 5.56322 2.86805 0
M  V30 10 H 1.49 2.90518 0.631377 0
M  V30 11 H -0.977 1.52953 0.210867 0
M  V30 12 H 0.981 2.67203 3.11629 0
M  V30 13 H -0.358 1.57376 2.7183 0
M  V30 14 H -1.165 3.90944 3.18086 0
M  V30 15 H -1.563 3.418 1.51819 0
M  V30 16 H 0.729 5.58782 3.83104 0
M  V30 17 H 1.672 6.56266 2.65933 0
M  V30 18 H 2.08 4.83886 2.90714 0
M  V30 19 N 1.4781 -0.272755 1.55222 0
M  V30 20 C 2.7031 -1.02683 1.80197 0
M  V30 21 C 3.1281 -1.79142 0.573551 0
M  V30 22 O 2.4861 -1.74917 -0.476849 0
M  V30 23 C 2.5341 -1.9609 3.02624 0
M  V30 24 O 1.6381 -3.04863 2.77727 0
M  V30 25 H 0.9791 -0.293557 0.595584 0
M  V30 26 H 3.5091 -0.30159 2.02365 0
M  V30 27 H 3.5191 -2.38039 3.31363 0
M  V30 28 H 2.1941 -1.39851 3.91682 0
M  V30 29 H 0.7711 -2.67228 2.60084 0
M  V30 30 N 2.9562 -1.48159 -0.537278 0
M  V30 31 C 4.2042 -1.55497 -1.29094 0
M  V30 32 C 4.5252 -0.227454 -1.93669 0
M  V30 33 O 3.7952 0.750386 -1.80959 0
M  V30 34 H 2.3752 -0.572832 -0.47945 0
M  V30 35 H 5.0372 -1.84579 -0.625818 0
M  V30 36 H 4.1332 -2.33216 -2.07405 0
M  V30 37 N 4.4343 0.785586 -1.36625 0
M  V30 38 C 5.6823 1.54057 -1.30808 0
M  V30 39 C 6.0033 1.94683 0.111157 0
M  V30 40 O 5.2733 1.65241 1.05224 0
M  V30 41 H 3.8533 0.571354 -0.481211 0
M  V30 42 H 6.5153 0.935821 -1.70963 0
M  V30 43 H 5.6113 2.44637 -1.93801 0
M  V30 44 N 5.9124 1.20967 1.01018 0
M  V30 45 C 7.3234 1.02319 1.56165 0
M  V30 46 C 7.6744 -0.418546 1.91684 0
M  V30 47 O 6.7994 -1.30096 1.72928 0
M  V30 48 C 7.3944 1.85109 2.8376 0
M  V30 49 C 5.9534 1.70809 3.35412 0
M  V30 50 C 5.1004 1.82643 2.08655 0
M  V30 51 H 8.0514 1.35065 0.833255 0
M  V30 52 H 8.0724 1.35827 3.55431 0
M  V30 53 H 7.5844 2.90035 2.57878 0
M  V30 54 H 5.6854 0.685464 3.66241 0
M  V30 55 H 5.7984 2.52467 4.07182 0
M  V30 56 H 4.1624 1.25896 2.21409 0
M  V30 57 H 4.9454 2.89066 1.85191 0
M  V30 58 N 7.3905 -1.2043 1.01659 0
M  V30 59 C 8.3235 -2.21924 0.531521 0
M  V30 60 C 9.3015 -1.57054 -0.421032 0
M  V30 61 O 10.4855 -1.85389 -0.341035 0
M  V30 62 C 7.6125 -3.37942 -0.226496 0
M  V30 63 C 6.6585 -4.21115 0.67561 0
M  V30 64 S 7.4915 -4.90674 2.14475 0
M  V30 65 C 8.6475 -6.10113 1.3969 0
M  V30 66 H 8.8805 -2.62725 1.3915 0
M  V30 67 H 6.4135 -1.30481 0.825479 0
M  V30 68 H 8.3715 -4.05196 -0.657738 0
M  V30 69 H 7.0325 -2.956 -1.06205 0
M  V30 70 H 6.2255 -5.03918 0.091108 0
M  V30 71 H 5.8275 -3.59115 1.04463 0
M  V30 72 H 8.1195 -6.7411 0.676897 0
M  V30 73 H 9.0625 -6.73022 2.20107 0
M  V30 74 H 9.4705 -5.57283 0.899786 0
M  V30 75 N 8.8686 -0.792821 -1.36206 0
M  V30 76 C 10.1166 -0.366062 -1.98757 0
M  V30 77 C 10.4376 1.0668 -1.63231 0
M  V30 78 O 9.7076 1.73587 -0.907978 0
M  V30 79 H 8.2876 -0.132364 -0.735179 0
M  V30 80 H 10.9496 -1.01562 -1.66347 0
M  V30 81 H 10.0456 -0.460638 -3.08682 0
M  V30 82 N 10.3467 1.47872 -0.545128 0
M  V30 83 C 11.5947 2.02093 -0.016553 0
M  V30 84 C 11.9157 1.42305 1.3332 0
M  V30 85 O 11.1857 0.593853 1.86682 0
M  V30 86 H 9.7657 0.746993 -0.00313038 0
M  V30 87 H 12.4277 1.81414 -0.712397 0
M  V30 88 H 11.5237 3.11996 0.0805422 0
M  V30 89 N 11.8248 0.280983 1.55075 0
M  V30 90 C 13.2408 -0.0729964 1.59433 0
M  V30 91 C 13.4408 -1.5411 1.29817 0
M  V30 92 O 12.4968 -2.29086 1.06187 0
M  V30 93 C 13.8098 0.306921 2.9913 0
M  V30 94 C 15.3578 0.254023 3.11968 0
M  V30 95 C 15.8328 0.608467 4.5394 0
M  V30 96 N 17.3238 0.560241 4.59799 0
M  V30 97 C 18.0588 0.80722 5.6769 0
M  V30 98 N 17.5548 1.11912 6.83701 0
M  V30 99 N 19.3478 0.735623 5.57266 0
M  V30 100 H 11.4988 1.238 1.7259 0
M  V30 101 H 13.7618 0.500547 0.805082 0
M  V30 102 H 13.4678 1.32816 3.25657 0
M  V30 103 H 13.3418 -0.349363 3.75579 0
M  V30 104 H 15.7288 -0.75794 2.852 0
M  V30 105 H 15.8098 0.944649 2.37718 0
M  V30 106 H 15.4538 1.61814 4.81434 0
M  V30 107 H 15.3838 -0.104013 5.26497 0
M  V30 108 H 17.8748 0.329288 3.76463 0
M  V30 109 H 18.1878 1.29409 7.61888 0
M  V30 110 H 16.5328 1.15695 6.85303 0
M  V30 111 H 19.7238 0.491752 4.6551 0
M  V30 112 H 19.8968 0.931482 6.4127 0
M  V30 113 N 13.3029 -1.57598 0.00835791 0
M  V30 114 C 14.7139 -1.7892 -0.53333 0
M  V30 115 C 15.0649 -0.916609 -1.73473 0
M  V30 116 O 14.1899 -0.121336 -2.1606 0
M  V30 117 C 14.7849 -3.24488 -0.974313 0
M  V30 118 C 13.3439 -3.46878 -1.46125 0
M  V30 119 C 12.4909 -2.74157 -0.416302 0
M  V30 120 H 15.4419 -1.56958 0.234495 0
M  V30 121 H 15.4629 -3.3306 -1.83988 0
M  V30 122 H 14.9749 -3.87972 -0.099718 0
M  V30 123 H 13.0759 -2.8862 -2.35646 0
M  V30 124 H 13.1889 -4.55572 -1.48295 0
M  V30 125 H 11.5529 -2.39022 -0.87981 0
M  V30 126 H 12.3359 -3.40345 0.44947 0
M  V30 127 N 14.781 0.264519 -1.55364 0
M  V30 128 C 16.029 0.993021 -1.76021 0
M  V30 129 C 16.35 1.86511 -0.569099 0
M  V30 130 O 15.62 1.91438 0.415735 0
M  V30 131 H 14.2 0.369639 -0.649135 0
M  V30 132 H 16.862 0.286707 -1.9278 0
M  V30 133 H 15.958 1.62502 -2.66457 0
M  V30 134 N 16.2591 1.48442 0.529413 0
M  V30 135 C 17.5071 1.56179 1.28267 0
M  V30 136 C 17.8281 0.237721 1.93546 0
M  V30 137 O 17.0981 -0.740779 1.81354 0
M  V30 138 H 15.6781 0.575367 0.476405 0
M  V30 139 H 18.3401 1.84909 0.61602 0
M  V30 140 H 17.4361 2.34312 2.06165 0
M  V30 141 N 17.7372 -0.778329 1.37039 0
M  V30 142 C 19.1532 -1.07796 1.17695 0
M  V30 143 C 19.3532 -2.01498 0.00860115 0
M  V30 144 O 18.4092 -2.43901 -0.653352 0
M  V30 145 C 19.7222 -1.68178 2.49272 0
M  V30 146 C 21.2702 -1.80467 2.55735 0
M  V30 147 C 21.7452 -2.44263 3.87427 0
M  V30 148 N 23.2362 -2.51721 3.88833 0
M  V30 149 C 23.9712 -3.01919 4.87476 0
M  V30 150 N 23.4672 -3.5234 5.96513 0
M  V30 151 N 25.2602 -3.00733 4.74885 0
M  V30 152 H 17.4112 -0.156032 2.11826 0
M  V30 153 H 19.6742 -0.131844 0.938787 0
M  V30 154 H 19.3802 -1.06796 3.35093 0
M  V30 155 H 19.2542 -2.67554 2.65885 0
M  V30 156 H 21.6412 -2.40984 1.70325 0
M  V30 157 H 21.7222 -0.798656 2.43013 0
M  V30 158 H 21.3662 -1.84388 4.73248 0
M  V30 159 H 21.2962 -3.45458 3.9745 0
M  V30 160 H 23.7872 -2.1603 3.10063 0
M  V30 161 H 24.1002 -3.89027 6.67741 0
M  V30 162 H 22.4452 -3.50462 6.00168 0
M  V30 163 H 25.6362 -2.60638 3.88826 0
M  V30 164 H 25.8092 -3.39545 5.51918 0
M  V30 165 N 19.2153 -1.21501 -1.00376 0
M  V30 166 C 20.4633 -1.03095 -1.73827 0
M  V30 167 C 20.7843 0.436341 -1.90055 0
M  V30 168 O 20.0543 1.31466 -1.45236 0
M  V30 169 H 18.6343 -0.378487 -0.644016 0
M  V30 170 H 21.2963 -1.52831 -1.20949 0
M  V30 171 H 20.3923 -1.49991 -2.73695 0
M  V30 172 N 20.6934 1.19889 -1.02296 0
M  V30 173 C 21.6564 2.21116 -0.603351 0
M  V30 174 C 22.6564 1.5738 0.329884 0
M  V30 175 O 23.8464 1.73802 0.117702 0
M  V30 176 C 20.9784 3.40696 0.117992 0
M  V30 177 H 22.1714 2.59754 -1.49893 0
M  V30 178 H 19.7244 1.33463 -0.813468 0
M  V30 179 H 20.4594 3.07569 1.0282 0
M  V30 180 H 20.2444 3.88188 -0.552511 0
M  V30 181 H 21.7344 4.15692 0.398696 0
M  V30 182 N 22.1715 0.800033 1.35784 0
M  V30 183 C 23.5825 0.439142 1.81462 0
M  V30 184 C 23.9335 -1.03813 1.66485 0
M  V30 185 O 23.0585 -1.80626 1.19177 0
M  V30 186 C 23.6535 0.790314 3.29453 0
M  V30 187 C 22.2125 0.482111 3.733 0
M  V30 188 C 21.3595 1.01938 2.57883 0
M  V30 189 H 24.3105 0.992254 1.23855 0
M  V30 190 H 24.3315 0.0853677 3.80404 0
M  V30 191 H 23.8435 1.86554 3.40322 0
M  V30 192 H 21.9445 -0.584652 3.67984 0
M  V30 193 H 22.0575 1.01015 4.6833 0
M  V30 194 H 20.4215 0.442043 2.50835 0
M  V30 195 H 21.2045 2.10059 2.71533 0
M  V30 196 N 23.6496 -1.47581 0.552962 0
M  V30 197 C 24.6126 -2.28439 -0.186605 0
M  V30 198 C 25.6126 -1.36706 -0.84665 0
M  V30 199 O 26.8026 -1.59378 -0.703164 0
M  V30 200 C 23.9346 -3.16264 -1.2724 0
M  V30 201 H 25.1276 -2.95294 0.523609 0
M  V30 202 H 22.6806 -1.532 0.309745 0
M  V30 203 H 23.4156 -2.54091 -2.01514 0
M  V30 204 H 23.2006 -3.83769 -0.803968 0
M  V30 205 H 24.6906 -3.77198 -1.79196 0
M  V30 206 N 25.1277 -0.289203 -1.54924 0
M  V30 207 C 26.3737 0.323998 -2.00195 0
M  V30 208 C 26.7067 1.54441 -1.17735 0
M  V30 209 O 25.9817 1.92875 -0.250878 0
M  V30 210 C 26.2647 0.692276 -3.53383 0
M  V30 211 C 26.1177 -0.536457 -4.46589 0
M  V30 212 C 27.4367 1.52335 -4.12895 0
M  V30 213 H 24.5557 0.116289 -0.727768 0
M  V30 214 H 27.1977 -0.398954 -1.85764 0
M  V30 215 H 25.3477 1.30822 -3.65811 0
M  V30 216 H 27.0197 -1.17499 -4.46085 0
M  V30 217 H 25.2627 -1.17192 -4.1767 0
M  V30 218 H 25.9337 -0.234806 -5.515 0
M  V30 219 H 28.4097 1.00302 -4.0383 0
M  V30 220 H 27.2857 1.74982 -5.20262 0
M  V30 221 H 27.5467 2.50886 -3.64018 0
M  V30 222 N 26.6058 1.57591 -0.0167156 0
M  V30 223 C 27.5378 2.06343 0.997753 0
M  V30 224 C 28.5508 0.984469 1.29661 0
M  V30 225 O 29.7398 1.26093 1.26344 0
M  V30 226 C 26.8398 2.46255 2.32834 0
M  V30 227 C 26.0128 3.77083 2.21646 0
M  V30 228 C 25.0718 4.0368 3.37534 0
M  V30 229 O 24.0978 4.7411 3.14973 0
M  V30 230 N 25.2998 3.52881 4.60929 0
M  V30 231 H 28.0648 2.93997 0.581875 0
M  V30 232 H 25.6258 1.61002 0.170316 0
M  V30 233 H 27.6178 2.61149 3.09166 0
M  V30 234 H 26.1878 1.64032 2.66106 0
M  V30 235 H 25.4078 3.72106 1.30119 0
M  V30 236 H 26.6958 4.62822 2.11361 0
M  V30 237 H 26.0938 2.95878 4.82154 0
M  V30 238 H 24.6508 3.73076 5.34469 0
M  V30 239 N 28.0839 -0.256276 1.55502 0
M  V30 240 C 29.0159 -1.33981 1.85962 0
M  V30 241 C 30.0289 -1.44743 0.745212 0
M  V30 242 O 31.2179 -1.4626 1.02324 0
M  V30 243 C 28.3179 -2.7194 2.02242 0
M  V30 244 C 27.4909 -2.83562 3.33033 0
M  V30 245 C 26.5499 -4.02304 3.39172 0
M  V30 246 O 25.5759 -3.92273 4.12444 0
M  V30 247 N 26.7779 -5.15045 2.67784 0
M  V30 248 H 29.5429 -1.08191 2.7949 0
M  V30 249 H 27.1039 -0.446388 1.55624 0
M  V30 250 H 29.0959 -3.49697 2.03701 0
M  V30 251 H 27.6659 -2.90479 1.15502 0
M  V30 252 H 26.8859 -1.92555 3.43971 0
M  V30 253 H 28.1739 -2.88271 4.19258 0
M  V30 254 H 27.5719 -5.26085 2.07968 0
M  V30 255 H 26.1289 -5.90972 2.74947 0
M  V30 256 N 29.562 -1.4872 -0.521534 0
M  V30 257 C 30.51 -1.64328 -1.64618 0
M  V30 258 C 31.504 -0.50953 -1.61555 0
M  V30 259 O 32.71 -0.688525 -1.66311 0
M  V30 260 H 29.085 -0.517805 -0.545328 0
M  V30 261 H 31.056 -2.58767 -1.48601 0
M  V30 262 C 29.805 -1.70805 -3.02855 0
M  V30 263 H 29.128 -2.5741 -3.05909 0
M  V30 264 H 30.568 -1.85766 -3.81139 0
M  V30 265 C 29.027 -0.448479 -3.33902 0
M  V30 266 O 29.557 0.434928 -3.99339 0
M  V30 267 N 27.763 -0.317616 -2.88859 0
M  V30 268 H 27.31 -1.03748 -2.35784 0
M  V30 269 H 27.268 0.524113 -3.10001 0
M  V30 270 N 31.0401 0.771051 -1.3745 0
M  V30 271 C 32.2891 1.52491 -1.3202 0
M  V30 272 C 32.6021 1.9538 0.0927347 0
M  V30 273 O 33.8081 2.70159 0.269503 0
M  V30 274 C 32.2641 2.75366 -2.31736 0
M  V30 275 C 31.8721 2.39573 -3.78562 0
M  V30 276 C 33.6161 3.53307 -2.35318 0
M  V30 277 C 31.5231 3.58954 -4.70007 0
M  V30 278 H 30.4531 0.572506 -0.490666 0
M  V30 279 H 33.1041 0.844474 -1.62914 0
M  V30 280 H 31.4861 3.45303 -1.93861 0
M  V30 281 H 32.6601 1.77415 -4.25277 0
M  V30 282 H 30.9751 1.74805 -3.77932 0
M  V30 283 H 33.5721 4.42039 -3.00842 0
M  V30 284 H 33.9151 3.93217 -1.36698 0
M  V30 285 H 34.4481 2.90367 -2.71904 0
M  V30 286 H 31.1871 3.24125 -5.69757 0
M  V30 287 H 30.7071 4.20214 -4.27996 0
M  V30 288 H 32.3861 4.25758 -4.87175 0
M  V30 289 N 32.5182 1.22032 0.997298 0
M  V30 290 C 33.9292 1.0397 1.55071 0
M  V30 291 C 34.2802 -0.398192 1.92117 0
M  V30 292 O 33.4052 -1.28254 1.74298 0
M  V30 293 C 34.0002 1.88109 2.81781 0
M  V30 294 C 32.5592 1.74357 3.33581 0
M  V30 295 C 31.7062 1.84846 2.06706 0
M  V30 296 H 34.6572 1.35941 0.818883 0
M  V30 297 H 34.6782 1.39589 3.53971 0
M  V30 298 H 34.1902 2.92754 2.54787 0
M  V30 299 H 32.2912 0.72427 3.65493 0
M  V30 300 H 32.4042 2.56772 4.04481 0
M  V30 301 H 30.7682 1.28238 2.20062 0
M  V30 302 H 31.5512 2.91014 1.82114 0
M  V30 303 N 33.9963 -1.19345 1.0293 0
M  V30 304 C 35.2213 -1.93538 0.745511 0
M  V30 305 C 35.6463 -1.75007 -0.689511 0
M  V30 306 O 35.0043 -1.05265 -1.47611 0
M  V30 307 C 35.0523 -3.43336 1.10239 0
M  V30 308 O 34.1563 -4.11806 0.221289 0
M  V30 309 H 33.4973 -0.604193 0.275404 0
M  V30 310 H 36.0273 -1.5141 1.37609 0
M  V30 311 H 36.0373 -3.94004 1.05947 0
M  V30 312 H 34.7123 -3.56146 2.14786 0
M  V30 313 H 33.2893 -3.715 0.322842 0
M  V30 314 N 35.4744 -0.807222 -1.35358 0
M  V30 315 C 36.7024 -0.400377 -2.02989 0
M  V30 316 C 37.1174 0.988859 -1.60832 0
M  V30 317 O 36.4744 1.63729 -0.806175 0
M  V30 318 C 36.5254 -0.474867 -3.58368 0
M  V30 319 O 36.2464 -1.80933 -3.98992 0
M  V30 320 C 37.7474 -0.0609112 -4.43258 0
M  V30 321 H 34.9674 -0.162587 -0.651004 0
M  V30 322 H 37.5114 -1.09102 -1.72965 0
M  V30 323 H 35.6664 0.167534 -3.87038 0
M  V30 324 H 36.0804 -1.77256 -4.9364 0
M  V30 325 H 37.5544 -0.164145 -5.51756 0
M  V30 326 H 38.0314 0.993831 -4.27808 0
M  V30 327 H 38.6374 -0.676492 -4.19885 0
M  V30 328 N 36.9525 1.47285 -0.560781 0
M  V30 329 C 37.8825 2.32857 0.173105 0
M  V30 330 C 38.8635 1.44009 0.905281 0
M  V30 331 O 40.0485 1.7286 0.885046 0
M  V30 332 C 37.1785 3.25861 1.20133 0
M  V30 333 C 36.1325 4.23978 0.585388 0
M  V30 334 C 35.4585 5.06332 1.7185 0
M  V30 335 C 36.7585 5.20242 -0.463178 0
M  V30 336 H 38.4525 2.94466 -0.541307 0
M  V30 337 H 35.9985 1.41601 -0.261764 0
M  V30 338 H 37.9515 3.84569 1.72293 0
M  V30 339 H 36.6755 2.62315 1.94573 0
M  V30 340 H 35.3345 3.66501 0.085054 0
M  V30 341 H 34.9825 4.39186 2.45203 0
M  V30 342 H 34.6825 5.72762 1.31213 0
M  V30 343 H 36.2065 5.67899 2.24329 0
M  V30 344 H 37.6205 5.73293 -0.027502 0
M  V30 345 H 36.0175 5.94896 -0.788627 0
M  V30 346 H 37.0875 4.65504 -1.35773 0
M  V30 347 N 38.4306 0.297415 1.54768 0
M  V30 348 C 39.3606 -0.573494 2.26348 0
M  V30 349 C 40.3416 -1.14085 1.26169 0
M  V30 350 O 41.5266 -1.17086 1.54934 0
M  V30 351 C 38.6566 -1.74716 3.00153 0
M  V30 352 C 37.6106 -1.31032 4.07449 0
M  V30 353 C 36.9366 -2.56887 4.68949 0
M  V30 354 C 38.2366 -0.444183 5.20408 0
M  V30 355 H 39.9306 0.0235131 2.99391 0
M  V30 356 H 37.4766 0.0127488 1.43994 0
M  V30 357 H 39.4296 -2.3625 3.48947 0
M  V30 358 H 38.1536 -2.37035 2.24682 0
M  V30 359 H 36.8126 -0.718066 3.59499 0
M  V30 360 H 36.4606 -3.17512 3.90122 0
M  V30 361 H 36.1606 -2.2836 5.41411 0
M  V30 362 H 37.6846 -3.19229 5.20505 0
M  V30 363 H 39.0986 -0.9651 5.65118 0
M  V30 364 H 37.4956 -0.252846 5.99567 0
M  V30 365 H 38.5656 0.531609 4.81977 0
M  V30 366 N 39.9087 -1.5758 0.0250728 0
M  V30 367 C 40.8407 -2.06869 -0.986796 0
M  V30 368 C 41.8537 -0.991332 -1.29137 0
M  V30 369 O 43.0427 -1.26761 -1.25674 0
M  V30 370 C 40.1427 -2.47486 -2.31525 0
M  V30 371 C 39.3157 -3.78253 -2.19643 0
M  V30 372 C 38.3747 -4.05464 -3.35388 0
M  V30 373 O 37.4007 -4.75774 -3.12454 0
M  V30 374 N 38.6027 -3.55321 -4.59051 0
M  V30 375 H 41.3677 -2.94302 -0.566276 0
M  V30 376 H 38.9287 -1.6109 -0.161776 0
M  V30 377 H 40.9207 -2.62785 -3.07776 0
M  V30 378 H 39.4907 -1.65441 -2.65232 0
M  V30 379 H 38.7107 -3.7279 -1.28144 0
M  V30 380 H 39.9987 -4.63936 -2.08903 0
M  V30 381 H 39.3967 -2.98431 -4.80578 0
M  V30 382 H 37.9537 -3.75905 -5.32483 0
M  V30 383 N 41.3868 0.248026 -1.55636 0
M  V30 384 C 42.6638 0.998988 -1.68165 0
M  V30 385 C 43.0438 2.03409 -0.564621 0
M  V30 386 O 42.3918 2.24378 0.432076 0
M  V30 387 C 42.6018 1.63334 -3.0842 0
M  V30 388 C 43.9498 2.13562 -3.66983 0
M  V30 389 O 44.9738 1.73277 -3.11213 0
M  V30 390 O 43.8328 2.87526 -4.64749 0
M  V30 391 H 40.9268 0.464933 -0.683935 0
M  V30 392 H 43.4728 0.241902 -1.67967 0
M  V30 393 H 42.2448 0.884583 -3.8117 0
M  V30 394 H 41.8678 2.45666 -3.12624 0
M  V30 395 N 42.8649 1.48995 0.513639 0
M  V30 396 C 43.8149 1.61127 1.61314 0
M  V30 397 C 44.7989 0.467521 1.53958 0
M  V30 398 O 45.9909 0.719826 1.61702 0
M  V30 399 C 43.1199 1.66937 2.99978 0
M  V30 400 C 42.2059 2.86847 3.12377 0
M  V30 401 N 42.5969 4.11078 2.94701 0
M  V30 402 C 40.8949 2.84521 3.43459 0
M  V30 403 C 41.5959 4.91615 3.10949 0
M  V30 404 N 40.5719 4.24739 3.3926 0
M  V30 405 H 44.3739 2.54909 1.46282 0
M  V30 406 H 41.8879 1.45593 0.719483 0
M  V30 407 H 43.8849 1.73725 3.78979 0
M  V30 408 H 42.5449 0.742831 3.16089 0
M  V30 409 H 43.5559 4.41258 2.71131 0
M  V30 410 H 40.2329 2.01192 3.65825 0
M  V30 411 H 41.6229 6.00264 3.01882 0
M  V30 412 N 44.343 -0.763751 1.37857 0
M  V30 413 C 45.253 -1.90817 1.36478 0
M  V30 414 C 46.269 -1.71997 0.263248 0
M  V30 415 O 47.445 -1.95095 0.499979 0
M  V30 416 C 44.51 -3.2605 1.17864 0
M  V30 417 C 43.571 -3.57467 2.3773 0
M  V30 418 C 42.804 -4.86249 2.19995 0
M  V30 419 O 43.027 -5.57884 1.18836 0
M  V30 420 O 41.961 -5.16911 3.08361 0
M  V30 421 H 45.787 -1.94933 2.32884 0
M  V30 422 H 43.372 -0.907619 1.1867 0
M  V30 423 H 45.254 -4.06924 1.09504 0
M  V30 424 H 43.929 -3.22769 0.245372 0
M  V30 425 H 42.836 -2.76796 2.51664 0
M  V30 426 H 44.169 -3.655 3.29652 0
M  V30 427 N 45.8211 -1.22559 -0.990812 0
M  V30 428 C 46.7691 -0.994798 -2.10253 0
M  V30 429 C 47.7631 0.0627798 -1.69284 0
M  V30 430 O 48.9691 -0.0898392 -1.79776 0
M  V30 431 H 45.3441 -0.304527 -0.687581 0
M  V30 432 H 47.3151 -1.93812 -2.26891 0
M  V30 433 C 46.0641 -0.591439 -3.42633 0
M  V30 434 H 45.3871 -1.3969 -3.74602 0
M  V30 435 H 46.8271 -0.469385 -4.21394 0
M  V30 436 C 45.2861 0.699232 -3.29564 0
M  V30 437 O 45.8161 1.75112 -3.61523 0
M  V30 438 N 44.0221 0.671182 -2.82743 0
M  V30 439 H 43.5691 -0.185136 -2.56934 0
M  V30 440 H 43.5271 1.53502 -2.7438 0
M  V30 441 N 47.2992 1.18797 -1.03562 0
M  V30 442 C 48.2312 2.21731 -0.580337 0
M  V30 443 C 49.2442 1.59051 0.347349 0
M  V30 444 O 50.4332 1.77929 0.142669 0
M  V30 445 C 47.5332 3.38459 0.172805 0
M  V30 446 C 46.7062 4.3072 -0.761496 0
M  V30 447 C 45.7652 5.26174 -0.0525547 0
M  V30 448 O 44.7912 5.65108 -0.681333 0
M  V30 449 N 45.9932 5.67624 1.21586 0
M  V30 450 H 48.7582 2.61417 -1.46565 0
M  V30 451 H 46.3192 1.33531 -0.915476 0
M  V30 452 H 48.3112 3.99335 0.656793 0
M  V30 453 H 46.8812 2.97507 0.959602 0
M  V30 454 H 46.1012 3.67525 -1.42544 0
M  V30 455 H 47.3892 4.89267 -1.39626 0
M  V30 456 H 46.7872 5.38038 1.74732 0
M  V30 457 H 45.3442 6.30721 1.64421 0
M  V30 458 N 48.7773 0.814389 1.34928 0
M  V30 459 C 50.1933 0.499084 1.51596 0
M  V30 460 C 50.3933 -0.978319 1.76157 0
M  V30 461 O 49.4493 -1.76309 1.80752 0
M  V30 462 C 50.7623 1.35121 2.68631 0
M  V30 463 C 52.3103 1.34746 2.82511 0
M  V30 464 C 52.7853 2.18388 4.0258 0
M  V30 465 N 54.2763 2.15966 4.09772 0
M  V30 466 C 55.0113 2.77437 5.01813 0
M  V30 467 N 54.5073 3.47866 5.99134 0
M  V30 468 N 56.3003 2.67037 4.94619 0
M  V30 469 H 48.4513 1.7711 1.17243 0
M  V30 470 H 50.7143 0.754256 0.574284 0
M  V30 471 H 50.4203 2.40001 2.57085 0
M  V30 472 H 50.2943 1.00991 3.63429 0
M  V30 473 H 52.6813 0.30648 2.93504 0
M  V30 474 H 52.7623 1.72869 1.88547 0
M  V30 475 H 52.4063 3.2253 3.92347 0
M  V30 476 H 52.3363 1.77621 4.9574 0
M  V30 477 H 54.8273 1.64729 3.40107 0
M  V30 478 H 55.1403 3.92038 6.65977 0
M  V30 479 H 53.4853 3.51972 5.99284 0
M  V30 480 H 56.6763 2.11597 4.17546 0
M  V30 481 H 56.8493 3.15232 5.66156 0
M  V30 482 N 50.2554 -1.46986 0.568584 0
M  V30 483 C 51.1854 -2.32946 -0.160753 0
M  V30 484 C 52.1664 -1.44487 -0.897631 0
M  V30 485 O 53.3514 -1.73327 -0.875867 0
M  V30 486 C 50.4814 -3.26494 -1.18403 0
M  V30 487 C 49.4354 -4.24282 -0.562895 0
M  V30 488 C 48.7614 -5.07236 -1.69163 0
M  V30 489 C 50.0614 -5.19989 0.490761 0
M  V30 490 H 51.7554 -2.94175 0.556916 0
M  V30 491 H 49.3014 -1.4146 0.26927 0
M  V30 492 H 51.2544 -3.85477 -1.70251 0
M  V30 493 H 49.9784 -2.63343 -1.93179 0
M  V30 494 H 48.6374 -3.66541 -0.0656164 0
M  V30 495 H 48.2854 -4.4048 -2.42871 0
M  V30 496 H 47.9854 -5.7345 -1.28174 0
M  V30 497 H 49.5094 -5.6908 -2.21314 0
M  V30 498 H 50.9234 -5.73271 0.0579047 0
M  V30 499 H 49.3204 -5.94469 0.820165 0
M  V30 500 H 50.3904 -4.64777 1.3824 0
M  V30 501 N 51.7335 -0.305618 -1.54608 0
M  V30 502 C 52.9805 0.302298 -2.00231 0
M  V30 503 C 53.3085 1.5354 -1.19398 0
M  V30 504 O 52.5635 1.93973 -0.259423 0
M  V30 505 C 52.8625 0.698983 -3.50498 0
M  V30 506 C 52.5285 -0.432903 -4.48817 0
M  V30 507 C 51.1905 -0.743622 -4.75419 0
M  V30 508 C 53.5425 -1.19409 -5.07337 0
M  V30 509 C 50.8705 -1.81857 -5.57804 0
M  V30 510 C 53.2225 -2.25899 -5.90891 0
M  V30 511 C 51.8865 -2.57572 -6.15803 0
M  V30 512 H 51.1565 0.110619 -0.732697 0
M  V30 513 H 53.8035 -0.425674 -1.86709 0
M  V30 514 H 52.1085 1.50711 -3.61654 0
M  V30 515 H 53.8055 1.1806 -3.83227 0
M  V30 516 H 50.3955 -0.18063 -4.28219 0
M  V30 517 H 54.5795 -0.967295 -4.86782 0
M  V30 518 H 49.8355 -2.06864 -5.75341 0
M  V30 519 H 54.0095 -2.85335 -6.35261 0
M  V30 520 H 51.6365 -3.40998 -6.7943 0
M  V30 521 N 53.2116 1.57565 -0.0334293 0
M  V30 522 C 54.1216 2.13943 0.962572 0
M  V30 523 C 55.1376 1.09276 1.35406 0
M  V30 524 O 56.3136 1.41355 1.4346 0
M  V30 525 C 53.3786 2.65887 2.22497 0
M  V30 526 C 52.4396 3.85286 1.8935 0
M  V30 527 C 51.6726 4.34743 3.09571 0
M  V30 528 O 51.8956 3.83352 4.22371 0
M  V30 529 O 50.8296 5.26538 2.91618 0
M  V30 530 H 54.6556 2.99333 0.513169 0
M  V30 531 H 52.2406 1.4822 0.18743 0
M  V30 532 H 54.1226 2.99346 2.96598 0
M  V30 533 H 52.7976 1.83578 2.6661 0
M  V30 534 H 51.7046 3.56746 1.1262 0
M  V30 535 H 53.0376 4.68771 1.5005 0
M  V30 536 N 54.6897 -0.239769 1.55765 0
M  V30 537 C 55.6227 -1.32356 1.85895 0
M  V30 538 C 56.6007 -1.46053 0.714662 0
M  V30 539 O 57.7847 -1.62154 0.961157 0
M  V30 540 C 54.9117 -2.6962 2.04994 0
M  V30 541 C 53.9577 -2.73036 3.27648 0
M  V30 542 S 54.7907 -2.28929 4.84099 0
M  V30 543 C 55.9467 -3.68103 5.06212 0
M  V30 544 H 56.1797 -1.06601 2.77531 0
M  V30 545 H 53.7127 -0.441112 1.47965 0
M  V30 546 H 55.6707 -3.48653 2.16682 0
M  V30 547 H 54.3317 -2.92609 1.14188 0
M  V30 548 H 53.5247 -3.7386 3.38 0
M  V30 549 H 53.1267 -2.02052 3.14723 0
M  V30 550 H 55.4187 -4.63656 4.93993 0
M  V30 551 H 56.3617 -3.6268 6.08168 0
M  V30 552 H 56.7697 -3.60947 4.34025 0
M  V30 553 N 56.1678 -1.49265 -0.50573 0
M  V30 554 C 57.0978 -1.68495 -1.61653 0
M  V30 555 C 58.0788 -0.53366 -1.61512 0
M  V30 556 O 59.2638 -0.76897 -1.78327 0
M  V30 557 C 56.3938 -1.74709 -3.00157 0
M  V30 558 C 55.3478 -2.89581 -3.15162 0
M  V30 559 C 54.6738 -2.80903 -4.5497 0
M  V30 560 C 55.9738 -4.30578 -2.95634 0
M  V30 561 H 57.6678 -2.61493 -1.45814 0
M  V30 562 H 55.2138 -1.25838 -0.70005 0
M  V30 563 H 57.1668 -1.86748 -3.77761 0
M  V30 564 H 55.8908 -0.783067 -3.17074 0
M  V30 565 H 54.5498 -2.77136 -2.39982 0
M  V30 566 H 54.1978 -1.82419 -4.68756 0
M  V30 567 H 53.8978 -3.57999 -4.65951 0
M  V30 568 H 55.4218 -2.94944 -5.34641 0
M  V30 569 H 56.8358 -4.4373 -3.63011 0
M  V30 570 H 55.2328 -5.0886 -3.18091 0
M  V30 571 H 56.3028 -4.45352 -1.91806 0
M  V30 572 N 57.6459 0.756429 -1.3826 0
M  V30 573 C 58.8939 1.51248 -1.34047 0
M  V30 574 C 59.2149 1.94875 0.0698372 0
M  V30 575 O 58.4849 1.67436 1.01696 0
M  V30 576 H 57.0649 0.561018 -0.493222 0
M  V30 577 H 59.7269 0.899347 -1.7291 0
M  V30 578 H 58.8229 2.40472 -1.98947 0
M  V30 579 N 59.124 1.23083 0.984299 0
M  V30 580 C 60.54 0.992637 1.24975 0
M  V30 581 C 60.74 -0.308618 1.99123 0
M  V30 582 O 59.796 -1.02905 2.30579 0
M  V30 583 C 61.109 2.19698 2.05312 0
M  V30 584 C 62.657 2.24147 2.18465 0
M  V30 585 C 63.132 3.44157 3.02192 0
M  V30 586 N 64.623 3.44372 3.09777 0
M  V30 587 C 65.358 4.33886 3.74874 0
M  V30 588 N 64.854 5.3363 4.41827 0
M  V30 589 N 66.647 4.21639 3.71721 0
M  V30 590 H 58.798 2.06731 0.487453 0
M  V30 591 H 61.061 0.906339 0.277944 0
M  V30 592 H 60.767 3.1411 1.58201 0
M  V30 593 H 60.641 2.20465 3.06064 0
M  V30 594 H 63.028 1.30277 2.64786 0
M  V30 595 H 63.109 2.27415 1.17115 0
M  V30 596 H 62.753 4.38332 2.56568 0
M  V30 597 H 62.683 3.3813 4.03702 0
M  V30 598 H 65.174 2.72201 2.62135 0
M  V30 599 H 65.487 5.98196 4.89266 0
M  V30 600 H 63.832 5.37534 4.40548 0
M  V30 601 H 67.023 3.42962 3.18582 0
M  V30 602 H 67.196 4.91604 4.22173 0
M  V30 603 N 60.6021 -1.18246 1.0419 0
M  V30 604 C 61.5491 -2.2192 0.634037 0
M  V30 605 C 62.5191 -1.62179 -0.358765 0
M  V30 606 O 63.7041 -1.89122 -0.252466 0
M  V30 607 C 60.8441 -3.451 0.00445535 0
M  V30 608 C 59.9571 -4.19174 1.04487 0
M  V30 609 C 59.0921 -5.29813 0.383676 0
M  V30 610 C 58.1311 -5.9566 1.4091 0
M  V30 611 N 57.2681 -6.97834 0.772784 0
M  V30 612 H 62.1081 -2.56164 1.52263 0
M  V30 613 H 59.6451 -1.25843 0.761701 0
M  V30 614 H 61.6031 -4.15485 -0.377919 0
M  V30 615 H 60.2331 -3.11472 -0.847652 0
M  V30 616 H 59.2851 -3.47604 1.54518 0
M  V30 617 H 60.5971 -4.64267 1.82368 0
M  V30 618 H 59.7511 -6.06677 -0.0528366 0
M  V30 619 H 58.4901 -4.85825 -0.427208 0
M  V30 620 H 57.4951 -5.17535 1.85574 0
M  V30 621 H 58.7201 -6.4173 2.22171 0
M  V30 622 H 56.6661 -6.55998 -0.0177708 0
M  V30 623 H 56.5831 -7.41186 1.48928 0
M  V30 624 H 57.8511 -7.78665 0.36071 0
M  V30 625 N 62.0802 -0.821533 -1.34494 0
M  V30 626 C 63.3202 -0.414785 -2.00147 0
M  V30 627 C 63.6842 1.00299 -1.6372 0
M  V30 628 O 64.8852 1.51255 -2.22206 0
M  V30 629 C 63.1562 -0.609403 -3.52166 0
M  V30 630 S 64.7152 -0.295297 -4.37805 0
M  V30 631 H 61.5332 -0.15679 -0.693497 0
M  V30 632 H 64.1352 -1.06705 -1.63812 0
M  V30 633 H 62.8392 -1.64096 -3.76166 0
M  V30 634 H 62.3702 0.0576414 -3.93358 0
M  V30 635 H 64.3852 0.891531 -4.88125 0
M  V30 636 N 63.5583 1.46682 -0.576371 0
M  V30 637 C 64.4883 2.33028 0.148397 0
M  V30 638 C 65.4693 1.44961 0.889956 0
M  V30 639 O 66.6543 1.73789 0.866662 0
M  V30 640 C 63.7843 3.27117 1.1667 0
M  V30 641 C 62.7383 4.24575 0.540386 0
M  V30 642 C 62.0643 5.08126 1.6647 0
M  V30 643 C 63.3643 5.19722 -0.518331 0
M  V30 644 H 65.0583 2.93875 -0.572509 0
M  V30 645 H 62.6043 1.41315 -0.276768 0
M  V30 646 H 64.5573 3.86374 1.68204 0
M  V30 647 H 63.2813 2.64364 1.9178 0
M  V30 648 H 61.9403 3.66571 0.0461769 0
M  V30 649 H 61.5883 4.41762 2.40531 0
M  V30 650 H 61.2883 5.74122 1.25131 0
M  V30 651 H 62.8123 5.70246 2.18293 0
M  V30 652 H 64.2263 5.73232 -0.0883058 0
M  V30 653 H 62.6233 5.94026 -0.851679 0
M  V30 654 H 63.6933 4.64037 -1.40703 0
M  V30 655 N 65.0364 0.313813 1.54444 0
M  V30 656 C 66.2644 -0.293918 2.04802 0
M  V30 657 C 66.6794 -1.46537 1.19047 0
M  V30 658 O 66.0364 -1.81182 0.218939 0
M  V30 659 C 66.0874 -0.737806 3.53891 0
M  V30 660 O 65.8084 0.387038 4.36387 0
M  V30 661 C 67.3094 -1.40936 4.203 0
M  V30 662 H 64.5294 -0.0620057 0.668129 0
M  V30 663 H 67.0734 0.457169 1.99324 0
M  V30 664 H 65.2284 -1.43889 3.59687 0
M  V30 665 H 65.6424 0.0391274 5.24485 0
M  V30 666 H 67.1164 -1.67099 5.26101 0
M  V30 667 H 67.5934 -2.35355 3.70816 0
M  V30 668 H 68.1994 -0.751117 4.18615 0
M  V30 669 N 66.5145 -1.57545 0.0417849 0
M  V30 670 C 67.4445 -2.14009 -0.933929 0
M  V30 671 C 68.4255 -1.05938 -1.33083 0
M  V30 672 O 69.6105 -1.33833 -1.40721 0
M  V30 673 C 66.7405 -2.67747 -2.21199 0
M  V30 674 C 65.6945 -3.80718 -1.95544 0
M  V30 675 C 65.0205 -4.20935 -3.29724 0
M  V30 676 C 66.3205 -5.06258 -1.28452 0
M  V30 677 H 68.0145 -2.95788 -0.463645 0
M  V30 678 H 65.5605 -1.42285 -0.221573 0
M  V30 679 H 67.5135 -3.05886 -2.89848 0
M  V30 680 H 66.2375 -1.83147 -2.70416 0
M  V30 681 H 64.8965 -3.43037 -1.2931 0
M  V30 682 H 64.5445 -3.33298 -3.76724 0
M  V30 683 H 64.2445 -4.9707 -3.13361 0
M  V30 684 H 65.7685 -4.61666 -3.9962 0
M  V30 685 H 67.1825 -5.41903 -1.8712 0
M  V30 686 H 65.5795 -5.87475 -1.22445 0
M  V30 687 H 66.6495 -4.84207 -0.259219 0
M  V30 688 N 67.9926 0.231505 -1.5589 0
M  V30 689 C 68.9556 1.27028 -1.90779 0
M  V30 690 C 69.9556 1.40308 -0.785507 0
M  V30 691 O 71.1456 1.38744 -1.05336 0
M  V30 692 C 68.2776 2.64566 -2.14983 0
M  V30 693 H 69.4706 0.973017 -2.83677 0
M  V30 694 H 67.0236 0.471486 -1.49019 0
M  V30 695 H 67.7586 2.99406 -1.24604 0
M  V30 696 H 67.5436 2.56305 -2.96732 0
M  V30 697 H 69.0336 3.39543 -2.43105 0
M  V30 698 N 69.4707 1.49531 0.497807 0
M  V30 699 C 70.6987 1.62893 1.27567 0
M  V30 700 C 71.1137 0.301585 1.86376 0
M  V30 701 O 70.4707 -0.713335 1.67982 0
M  V30 702 C 70.5217 2.70013 2.40364 0
M  V30 703 O 70.2427 3.976 1.83972 0
M  V30 704 C 71.7437 2.94109 3.31685 0
M  V30 705 H 68.9637 0.548298 0.386794 0
M  V30 706 H 71.5077 1.95584 0.597245 0
M  V30 707 H 69.6627 2.40092 3.04031 0
M  V30 708 H 70.0767 4.56631 2.58047 0
M  V30 709 H 71.5507 3.72788 4.07104 0
M  V30 710 H 72.0277 2.04147 3.88871 0
M  V30 711 H 72.6337 3.2546 2.73781 0
M  V30 712 N 70.9488 -0.749086 1.3866 0
M  V30 713 C 71.9118 -1.84457 1.36045 0
M  V30 714 C 72.9118 -1.58682 0.260122 0
M  V30 715 O 74.1018 -1.66343 0.517261 0
M  V30 716 C 71.2338 -3.22008 1.11911 0
M  V30 717 H 72.4268 -1.88182 2.33512 0
M  V30 718 H 69.9798 -0.951266 1.24019 0
M  V30 719 H 70.7148 -3.2395 0.150686 0
M  V30 720 H 70.4998 -3.42111 1.91579 0
M  V30 721 H 71.9898 -4.0208 1.12788 0
M  V30 722 N 72.4269 -1.23603 -0.977757 0
M  V30 723 C 73.6729 -1.07129 -1.72195 0
M  V30 724 C 74.0059 0.390501 -1.90233 0
M  V30 725 O 73.2809 1.28902 -1.45653 0
M  V30 726 C 73.5639 -1.80031 -3.11867 0
M  V30 727 C 73.4169 -3.33899 -3.01383 0
M  V30 728 C 74.7359 -1.56492 -4.11337 0
M  V30 729 H 71.8549 -0.390571 -0.624999 0
M  V30 730 H 74.4969 -1.52142 -1.13811 0
M  V30 731 H 72.6469 -1.41768 -3.6171 0
M  V30 732 H 74.3189 -3.81699 -2.59043 0
M  V30 733 H 72.5619 -3.62796 -2.37827 0
M  V30 734 H 73.2329 -3.801 -4.00285 0
M  V30 735 H 75.7089 -1.89757 -3.70313 0
M  V30 736 H 74.5849 -2.09973 -5.07151 0
M  V30 737 H 74.8459 -0.500874 -4.39254 0
M  V30 738 N 73.905 1.17692 -1.04816 0
M  V30 739 C 75.151 1.88137 -0.75711 0
M  V30 740 C 75.484 1.80604 0.713841 0
M  V30 741 O 74.759 1.21146 1.52164 0
M  V30 742 C 75.042 3.38318 -1.2334 0
M  V30 743 C 74.895 3.54622 -2.76701 0
M  V30 744 C 76.214 4.32214 -0.829415 0
M  V30 745 H 73.333 0.683163 -0.27651 0
M  V30 746 H 75.975 1.38424 -1.30149 0
M  V30 747 H 74.125 3.80787 -0.770286 0
M  V30 748 H 75.797 3.21194 -3.31107 0
M  V30 749 H 74.04 2.97026 -3.16161 0
M  V30 750 H 74.711 4.60028 -3.05088 0
M  V30 751 H 77.187 3.97565 -1.22805 0
M  V30 752 H 76.063 5.35838 -1.19033 0
M  V30 753 H 76.324 4.41294 0.266891 0
M  V30 754 N 75.3831 0.828654 1.34056 0
M  V30 755 C 76.3151 0.212052 2.28217 0
M  V30 756 C 77.3281 -0.601362 1.51286 0
M  V30 757 O 78.5171 -0.430104 1.73241 0
M  V30 758 C 75.6171 -0.72088 3.31144 0
M  V30 759 C 74.7901 0.0509587 4.3737 0
M  V30 760 C 73.8491 -0.803766 5.20025 0
M  V30 761 O 72.8751 -0.246667 5.68665 0
M  V30 762 N 74.0771 -2.1227 5.40298 0
M  V30 763 H 76.8421 1.02105 2.81771 0
M  V30 764 H 74.4031 0.686153 1.46641 0
M  V30 765 H 76.3951 -1.29742 3.8334 0
M  V30 766 H 74.9651 -1.43061 2.77943 0
M  V30 767 H 74.1851 0.808831 3.85813 0
M  V30 768 H 75.4731 0.582065 5.0546 0
M  V30 769 H 74.8711 -2.59898 5.02464 0
M  V30 770 H 73.4281 -2.64796 5.95589 0
M  V30 771 N 76.8612 -1.46375 0.584142 0
M  V30 772 C 77.7912 -2.33103 -0.136037 0
M  V30 773 C 78.7722 -1.45431 -0.882255 0
M  V30 774 O 79.9572 -1.74246 -0.857434 0
M  V30 775 C 77.0872 -3.27731 -1.14933 0
M  V30 776 C 76.0412 -4.24855 -0.517862 0
M  V30 777 C 75.3672 -5.09001 -1.63773 0
M  V30 778 C 76.6672 -5.19439 0.545886 0
M  V30 779 H 78.3612 -2.93568 0.588086 0
M  V30 780 H 75.9072 -1.41166 0.284259 0
M  V30 781 H 77.8602 -3.87261 -1.66153 0
M  V30 782 H 76.5842 -2.65377 -1.90375 0
M  V30 783 H 75.2432 -3.6659 -0.0267361 0
M  V30 784 H 74.8912 -4.43031 -2.38185 0
M  V30 785 H 74.5912 -5.74777 -1.22085 0
M  V30 786 H 76.1152 -5.71396 -2.15266 0
M  V30 787 H 77.5292 -5.73177 0.118704 0
M  V30 788 H 75.9262 -5.93566 0.88317 0
M  V30 789 H 76.9962 -4.63285 1.43162 0
M  V30 790 N 78.3393 -0.321999 -1.54275 0
M  V30 791 C 79.5693 0.282642 -2.04658 0
M  V30 792 C 79.9773 1.46453 -1.19784 0
M  V30 793 O 79.3203 1.82367 -0.220932 0
M  V30 794 C 79.3823 0.781857 -3.50895 0
M  V30 795 C 79.0463 -0.277517 -4.56157 0
M  V30 796 C 80.0433 -1.11307 -5.07845 0
M  V30 797 C 77.7283 -0.425256 -5.00497 0
M  V30 798 C 79.7223 -2.08211 -6.02434 0
M  V30 799 C 77.4093 -1.39771 -5.94901 0
M  V30 800 C 78.4073 -2.2246 -6.45756 0
M  V30 801 O 78.0953 -3.18054 -7.38307 0
M  V30 802 H 77.8273 0.0622636 -0.673126 0
M  V30 803 H 80.3813 -0.465792 -2.00049 0
M  V30 804 H 78.6113 1.58118 -3.52896 0
M  V30 805 H 80.3003 1.30467 -3.84361 0
M  V30 806 H 81.0663 -1.00991 -4.74369 0
M  V30 807 H 76.9453 0.20847 -4.60528 0
M  V30 808 H 80.4893 -2.72791 -6.42052 0
M  V30 809 H 76.3863 -1.50152 -6.27794 0
M  V30 810 H 77.1543 -3.13275 -7.56175 0
M  V30 811 N 79.8174 1.5752 -0.0501392 0
M  V30 812 C 80.7474 2.14502 0.922566 0
M  V30 813 C 81.7284 1.06642 1.3252 0
M  V30 814 O 82.9134 1.34577 1.4001 0
M  V30 815 C 80.0434 2.68916 2.19776 0
M  V30 816 C 78.9974 3.8175 1.93523 0
M  V30 817 C 78.3234 4.22677 3.27487 0
M  V30 818 C 79.6234 5.06932 1.25765 0
M  V30 819 H 81.3174 2.9603 0.447952 0
M  V30 820 H 78.8634 1.42401 0.214024 0
M  V30 821 H 80.8164 3.07419 2.88222 0
M  V30 822 H 79.5404 1.84578 2.69441 0
M  V30 823 H 78.1994 3.43718 1.27489 0
M  V30 824 H 77.8474 3.35291 3.74952 0
M  V30 825 H 77.5474 4.98725 3.1072 0
M  V30 826 H 79.0714 4.63779 3.97166 0
M  V30 827 H 80.4854 5.42888 1.84244 0
M  V30 828 H 78.8824 5.88116 1.19328 0
M  V30 829 H 79.9524 4.84337 0.233536 0
M  V30 830 N 81.2955 -0.223234 1.56011 0
M  V30 831 C 82.2585 -1.26014 1.9145 0
M  V30 832 C 83.2585 -1.3989 0.792937 0
M  V30 833 O 84.4485 -1.38184 1.0607 0
M  V30 834 C 81.5805 -2.63422 2.16383 0
M  V30 835 H 82.7735 -0.95796 2.84189 0
M  V30 836 H 80.3265 -0.463576 1.49267 0
M  V30 837 H 81.0615 -2.98741 1.2619 0
M  V30 838 H 80.8465 -2.54728 2.98088 0
M  V30 839 H 82.3365 -3.38249 2.44903 0
M  V30 840 N 82.7736 -1.49793 -0.48987 0
M  V30 841 C 83.7036 -1.70201 -1.59856 0
M  V30 842 C 84.6846 -0.55076 -1.60937 0
M  V30 843 O 85.8696 -0.787841 -1.77501 0
M  V30 844 C 82.9996 -1.77882 -2.98287 0
M  V30 845 C 81.9536 -2.92907 -3.12073 0
M  V30 846 C 81.2796 -2.85712 -4.51965 0
M  V30 847 C 82.5796 -4.3369 -2.91051 0
M  V30 848 H 84.2736 -2.63025 -1.43032 0
M  V30 849 H 81.8196 -1.26574 -0.686664 0
M  V30 850 H 83.7726 -1.90744 -3.75759 0
M  V30 851 H 82.4966 -0.816653 -3.16225 0
M  V30 852 H 81.1556 -2.79665 -2.37029 0
M  V30 853 H 80.8036 -1.8738 -4.66795 0
M  V30 854 H 80.5036 -3.62921 -4.62128 0
M  V30 855 H 82.0276 -3.00598 -5.31482 0
M  V30 856 H 83.4416 -4.47555 -3.58284 0
M  V30 857 H 81.8386 -5.12205 -3.12675 0
M  V30 858 H 82.9086 -4.47362 -1.87071 0
M  V30 859 N 84.2517 0.741722 -1.39055 0
M  V30 860 C 85.6627 1.31966 -1.32068 0
M  V30 861 C 86.0137 1.96192 0.0180797 0
M  V30 862 O 85.1387 1.95861 0.920196 0
M  V30 863 C 85.7337 2.39954 -2.39181 0
M  V30 864 C 84.2927 2.93438 -2.35735 0
M  V30 865 C 83.4397 1.66936 -2.21422 0
M  V30 866 H 86.3907 0.539721 -1.4924 0
M  V30 867 H 86.4117 3.20182 -2.05581 0
M  V30 868 H 85.9237 1.9318 -3.36605 0
M  V30 869 H 84.0247 3.4451 -1.41929 0
M  V30 870 H 84.1377 3.4701 -3.30335 0
M  V30 871 H 82.5017 1.91016 -1.68478 0
M  V30 872 H 83.2847 1.22224 -3.20806 0
M  V30 873 N 85.7298 1.2412 0.971189 0
M  V30 874 C 87.1408 1.07236 1.52831 0
M  V30 875 C 87.4918 -0.357352 1.92918 0
M  V30 876 O 86.6168 -1.24528 1.76979 0
M  V30 877 C 87.2118 1.94043 2.77728 0
M  V30 878 C 85.7708 1.81394 3.29808 0
M  V30 879 C 84.9178 1.89189 2.02738 0
M  V30 880 H 87.8688 1.37648 0.789864 0
M  V30 881 H 87.8898 1.47066 3.5093 0
M  V30 882 H 87.4018 2.98093 2.4852 0
M  V30 883 H 85.5028 0.801634 3.63874 0
M  V30 884 H 85.6158 2.65294 3.98944 0
M  V30 885 H 83.9798 1.32877 2.17292 0
M  V30 886 H 84.7628 2.94812 1.759 0
M  V30 887 N 87.2079 -1.17134 1.05439 0
M  V30 888 C 88.4559 -1.87085 0.764429 0
M  V30 889 C 88.7769 -1.81584 -0.710787 0
M  V30 890 O 88.0469 -1.24349 -1.51374 0
M  V30 891 H 86.6269 -0.692627 0.279779 0
M  V30 892 H 89.2889 -1.42087 1.33406 0
M  V30 893 H 88.3849 -2.92759 1.0816 0
M  V30 894 N 88.686 -0.835752 -1.33615 0
M  V30 895 C 89.649 -0.272 -2.2758 0
M  V30 896 C 90.649 0.557487 -1.50827 0
M  V30 897 O 91.839 0.37173 -1.70188 0
M  V30 898 C 88.971 0.617173 -3.35267 0
M  V30 899 H 90.164 -1.10111 -2.78954 0
M  V30 900 H 87.717 -0.608594 -1.43965 0
M  V30 901 H 88.452 1.46884 -2.89129 0
M  V30 902 H 88.237 0.0237066 -3.92093 0
M  V30 903 H 89.727 1.005 -4.05326 0
M  V30 904 N 90.1641 1.46063 -0.591896 0
M  V30 905 C 91.0741 2.34192 0.13831 0
M  V30 906 C 92.0901 1.50305 0.876608 0
M  V30 907 O 93.2661 1.8315 0.837728 0
M  V30 908 C 90.3311 3.27656 1.13326 0
M  V30 909 C 89.3921 4.27445 0.39863 0
M  V30 910 C 88.6251 5.16443 1.34618 0
M  V30 911 O 88.8481 5.08553 2.58321 0
M  V30 912 O 87.7821 5.95843 0.851768 0
M  V30 913 H 91.6081 2.98002 -0.58552 0
M  V30 914 H 89.1931 1.45188 -0.352239 0
M  V30 915 H 91.0751 3.85291 1.70671 0
M  V30 916 H 89.7501 2.6643 1.83839 0
M  V30 917 H 88.6571 3.73471 -0.216895 0
M  V30 918 H 89.9901 4.91482 -0.265709 0
M  V30 919 N 91.6422 0.330177 1.54103 0
M  V30 920 C 92.5922 -0.548456 2.21305 0
M  V30 921 C 93.5762 -1.07651 1.19583 0
M  V30 922 O 94.7682 -1.01243 1.45186 0
M  V30 923 C 91.8972 -1.70559 2.97934 0
M  V30 924 C 90.9832 -1.19212 4.07 0
M  V30 925 N 91.3742 -0.398831 5.04225 0
M  V30 926 C 89.6722 -1.47024 4.2107 0
M  V30 927 C 90.3732 -0.121761 5.81573 0
M  V30 928 N 89.3492 -0.709722 5.38947 0
M  V30 929 H 93.1512 0.0648483 2.93828 0
M  V30 930 H 90.6652 0.136363 1.61826 0
M  V30 931 H 92.6622 -2.34688 3.44568 0
M  V30 932 H 91.3222 -2.32231 2.26934 0
M  V30 933 H 92.3332 -0.0410869 5.17884 0
M  V30 934 H 89.0102 -2.09232 3.61287 0
M  V30 935 H 90.4002 0.517298 6.69906 0
M  V30 936 N 93.1203 -1.57491 0.0584922 0
M  V30 937 C 94.3663 -1.94081 -0.608617 0
M  V30 938 C 94.7213 -0.937438 -1.68017 0
M  V30 939 O 94.0143 0.0423034 -1.91553 0
M  V30 940 C 94.2083 -3.3513 -1.24188 0
M  V30 941 C 94.0373 -4.49095 -0.233187 0
M  V30 942 C 92.8073 -5.04988 0.177439 0
M  V30 943 C 95.0053 -5.1162 0.524306 0
M  V30 944 N 92.9873 -6.02487 1.17823 0
M  V30 945 C 94.3583 -6.04493 1.37796 0
M  V30 946 C 96.4133 -4.94489 0.581822 0
M  V30 947 C 95.1163 -6.82075 2.28399 0
M  V30 948 C 97.1423 -5.72703 1.47531 0
M  V30 949 C 96.5043 -6.65214 2.31667 0
M  V30 950 H 92.6033 -0.75752 -0.194134 0
M  V30 951 H 95.1873 -1.94248 0.132533 0
M  V30 952 H 93.3583 -3.35726 -1.95302 0
M  V30 953 H 95.0903 -3.5899 -1.86838 0
M  V30 954 H 91.8453 -4.73165 -0.203004 0
M  V30 955 H 92.2693 -6.55933 1.67573 0
M  V30 956 H 96.9113 -4.22765 -0.054443 0
M  V30 957 H 94.6293 -7.53085 2.93067 0
M  V30 958 H 98.2153 -5.61472 1.52448 0
M  V30 959 H 97.0953 -7.24679 2.99683 0
M  V30 960 N 94.5984 0.214957 -1.56127 0
M  V30 961 C 95.8264 0.955092 -1.83536 0
M  V30 962 C 96.2414 1.77677 -0.638472 0
M  V30 963 O 95.5984 1.78219 0.392968 0
M  V30 964 C 95.6494 1.86734 -3.09536 0
M  V30 965 O 95.3704 1.07887 -4.24608 0
M  V30 966 C 96.8714 2.72082 -3.4998 0
M  V30 967 H 94.0914 0.279611 -0.609966 0
M  V30 968 H 96.6354 0.228197 -2.03223 0
M  V30 969 H 94.7904 2.5481 -2.91806 0
M  V30 970 H 95.2044 1.69872 -4.9623 0
M  V30 971 H 96.6784 3.31782 -4.41163 0
M  V30 972 H 97.1554 3.44806 -2.7204 0
M  V30 973 H 97.7614 2.09409 -3.70173 0
M  V30 974 N 96.0765 1.50051 0.48192 0
M  V30 975 C 97.0235 1.68122 1.58125 0
M  V30 976 C 97.9935 0.522545 1.57666 0
M  V30 977 O 99.1785 0.751844 1.75362 0
M  V30 978 C 96.3185 1.77142 2.96167 0
M  V30 979 C 95.4315 3.0444 3.06497 0
M  V30 980 C 94.5665 3.04321 4.35387 0
M  V30 981 C 93.6055 4.26118 4.3942 0
M  V30 982 N 92.7425 4.238 5.59766 0
M  V30 983 H 97.5825 2.6198 1.42022 0
M  V30 984 H 95.1195 1.29877 0.690687 0
M  V30 985 H 97.0775 1.80352 3.76203 0
M  V30 986 H 95.7075 0.867329 3.1093 0
M  V30 987 H 94.7595 3.10752 2.19402 0
M  V30 988 H 96.0715 3.94426 3.05336 0
M  V30 989 H 95.2255 3.062 5.23762 0
M  V30 990 H 93.9645 2.12147 4.39141 0
M  V30 991 H 92.9695 4.24463 3.49444 0
M  V30 992 H 94.1945 5.19507 4.37366 0
M  V30 993 H 92.1405 3.34474 5.64326 0
M  V30 994 H 92.0575 5.07542 5.60301 0
M  V30 995 H 93.3255 4.2981 6.50295 0
M  V30 996 N 97.5546 -0.734337 1.39446 0
M  V30 997 C 98.4646 -1.87879 1.40495 0
M  V30 998 C 99.4806 -1.714 0.299672 0
M  V30 999 O 100.657 -1.93991 0.541249 0
M  V30 1000 C 97.7216 -3.23477 1.24754 0
M  V30 1001 C 96.7826 -3.52344 2.45259 0
M  V30 1002 C 96.0156 -4.81473 2.30259 0
M  V30 1003 O 96.2386 -5.55237 1.30643 0
M  V30 1004 O 95.1726 -5.10254 3.19256 0
M  V30 1005 H 98.9986 -1.89949 2.36966 0
M  V30 1006 H 96.5836 -0.882243 1.20569 0
M  V30 1007 H 98.4656 -4.04509 1.18111 0
M  V30 1008 H 97.1406 -3.22176 0.313781 0
M  V30 1009 H 96.0476 -2.71396 2.57478 0
M  V30 1010 H 97.3806 -3.58426 3.37331 0
M  V30 1011 N 99.0327 -1.24633 -0.964593 0
M  V30 1012 C 99.9827 -1.00841 -2.04487 0
M  V30 1013 C 100.967 0.0512468 -1.60818 0
M  V30 1014 O 102.159 -0.162865 -1.76249 0
M  V30 1015 C 99.2877 -0.618474 -3.37683 0
M  V30 1016 C 98.3737 -1.71437 -3.87905 0
M  V30 1017 N 98.7647 -2.9477 -4.11029 0
M  V30 1018 C 97.0627 -1.5926 -4.16596 0
M  V30 1019 C 97.7637 -3.65834 -4.52261 0
M  V30 1020 N 96.7397 -2.9341 -4.57615 0
M  V30 1021 H 100.542 -1.94487 -2.20345 0
M  V30 1022 H 98.0557 -1.14805 -1.14863 0
M  V30 1023 H 100.053 -0.429247 -4.14684 0
M  V30 1024 H 98.7127 0.310766 -3.23209 0
M  V30 1025 H 99.7237 -3.30917 -3.9839 0
M  V30 1026 H 96.4007 -0.731606 -4.1104 0
M  V30 1027 H 97.7907 -4.71646 -4.78539 0
M  V30 1028 N 100.511 1.16574 -1.06058 0
M  V30 1029 C 101.751 1.88723 -0.78504 0
M  V30 1030 C 102.115 1.79706 0.676006 0
M  V30 1031 O 103.316 2.46757 1.06603 0
M  V30 1032 C 101.587 3.34338 -1.26304 0
M  V30 1033 S 103.146 4.24366 -1.1162 0
M  V30 1034 H 99.9638 0.651448 -0.284846 0
M  V30 1035 H 102.566 1.40732 -1.35701 0
M  V30 1036 H 101.27 3.38439 -2.32136 0
M  V30 1037 H 100.801 3.87378 -0.685719 0
M  V30 1038 H 102.816 4.96179 -0.0456539 0
M  V30 1039 N 101.989 0.842826 1.3317 0
M  V30 1040 C 103.237 0.439577 1.97262 0
M  V30 1041 C 103.558 -1.00548 1.67078 0
M  V30 1042 O 102.828 -1.70098 0.971779 0
M  V30 1043 H 101.408 0.159558 0.72976 0
M  V30 1044 H 104.07 1.07665 1.62463 0
M  V30 1045 H 103.166 0.574886 3.0676 0
M  V30 1046 N 103.467 -1.45747 0.599634 0
M  V30 1047 C 104.43 -2.28917 -0.113835 0
M  V30 1048 C 105.43 -1.3933 -0.802729 0
M  V30 1049 O 106.62 -1.61534 -0.652103 0
M  V30 1050 C 103.752 -3.20152 -1.17114 0
M  V30 1051 H 104.945 -2.93478 0.617289 0
M  V30 1052 H 102.498 -1.52137 0.358327 0
M  V30 1053 H 103.233 -2.60374 -1.93329 0
M  V30 1054 H 103.018 -3.86133 -0.681468 0
M  V30 1055 H 104.508 -3.82708 -1.67105 0
M  V30 1056 N 104.945 -0.338344 -1.53925 0
M  V30 1057 C 106.191 0.260143 -2.01125 0
M  V30 1058 C 106.524 1.50617 -1.22589 0
M  V30 1059 O 105.799 1.91979 -0.312113 0
M  V30 1060 C 106.082 0.579499 -3.55407 0
M  V30 1061 C 105.935 -0.678264 -4.44657 0
M  V30 1062 C 107.254 1.39122 -4.17532 0
M  V30 1063 H 104.373 0.0930772 -0.731099 0
M  V30 1064 H 107.015 -0.457852 -1.84401 0
M  V30 1065 H 105.165 1.19118 -3.69788 0
M  V30 1066 H 106.837 -1.31631 -4.42121 0
M  V30 1067 H 105.08 -1.3042 -4.13731 0
M  V30 1068 H 105.751 -0.410143 -5.50474 0
M  V30 1069 H 108.227 0.874035 -4.06817 0
M  V30 1070 H 107.103 1.58342 -5.25565 0
M  V30 1071 H 107.364 2.39178 -3.71815 0
M  V30 1072 N 106.423 1.57458 -0.0668435 0
M  V30 1073 C 107.663 1.95175 0.607116 0
M  V30 1074 C 108.027 0.946039 1.67075 0
M  V30 1075 O 109.228 1.2107 2.39991 0
M  V30 1076 C 107.499 3.37582 1.17358 0
M  V30 1077 S 109.058 3.97271 1.86336 0
M  V30 1078 H 105.876 0.682604 0.19893 0
M  V30 1079 H 108.478 1.95002 -0.139519 0
M  V30 1080 H 107.182 4.08566 0.387553 0
M  V30 1081 H 106.713 3.41288 1.95669 0
M  V30 1082 H 108.728 3.83772 3.14537 0
M  V30 1083 N 107.901 -0.206675 1.56239 0
M  V30 1084 C 109.148 -0.928842 1.79941 0
M  V30 1085 C 109.476 -1.83734 0.638131 0
M  V30 1086 O 108.731 -1.92039 -0.376746 0
M  V30 1087 C 109.03 -1.78675 3.09532 0
M  V30 1088 C 108.696 -1.03022 4.38973 0
M  V30 1089 C 107.358 -0.821302 4.74139 0
M  V30 1090 C 109.71 -0.497081 5.18824 0
M  V30 1091 C 107.038 -0.0675719 5.86661 0
M  V30 1092 C 109.39 0.24338 6.32132 0
M  V30 1093 C 108.054 0.463422 6.65889 0
M  V30 1094 H 107.324 -0.339887 0.658451 0
M  V30 1095 H 109.971 -0.195977 1.90495 0
M  V30 1096 H 108.276 -2.58794 2.94165 0
M  V30 1097 H 109.973 -2.34792 3.25075 0
M  V30 1098 H 106.563 -1.20306 4.11369 0
M  V30 1099 H 110.747 -0.645921 4.92079 0
M  V30 1100 H 106.003 0.112995 6.11296 0
M  V30 1101 H 110.177 0.66393 6.93228 0
M  V30 1102 H 107.804 1.04938 7.52922 0
M  V30 1103 N 109.379 -1.50304 -0.473955 0
M  V30 1104 C 110.625 -1.61389 -1.22806 0
M  V30 1105 C 110.958 -0.311955 -1.91678 0
M  V30 1106 O 110.233 0.686384 -1.81986 0
M  V30 1107 C 110.516 -2.79219 -2.27396 0
M  V30 1108 C 110.369 -4.19286 -1.62848 0
M  V30 1109 C 111.688 -2.92614 -3.28732 0
M  V30 1110 H 108.807 -0.587399 -0.445119 0
M  V30 1111 H 111.449 -1.82681 -0.522265 0
M  V30 1112 H 109.599 -2.61195 -2.87592 0
M  V30 1113 H 111.271 -4.48892 -1.06271 0
M  V30 1114 H 109.514 -4.23677 -0.931693 0
M  V30 1115 H 110.185 -4.97655 -2.38838 0
M  V30 1116 H 112.661 -3.09105 -2.78556 0
M  V30 1117 H 111.537 -3.76688 -3.99246 0
M  V30 1118 H 111.798 -2.03107 -3.92683 0
M  V30 1119 N 110.857 0.726932 -1.39834 0
M  V30 1120 C 111.804 1.841 -1.39197 0
M  V30 1121 C 112.774 1.642 -0.250502 0
M  V30 1122 O 113.959 1.85494 -0.446846 0
M  V30 1123 C 111.099 3.21697 -1.24919 0
M  V30 1124 C 110.212 3.53247 -2.48678 0
M  V30 1125 C 109.347 4.80289 -2.26928 0
M  V30 1126 C 108.386 5.04707 -3.4632 0
M  V30 1127 N 107.523 6.22956 -3.23836 0
M  V30 1128 H 112.363 1.83979 -2.34427 0
M  V30 1129 H 109.9 0.898876 -1.16442 0
M  V30 1130 H 111.858 4.01137 -1.1465 0
M  V30 1131 H 110.488 3.21076 -0.333153 0
M  V30 1132 H 109.54 2.68447 -2.69519 0
M  V30 1133 H 110.852 3.67205 -3.37582 0
M  V30 1134 H 110.006 5.67725 -2.13947 0
M  V30 1135 H 108.745 4.68519 -1.35431 0
M  V30 1136 H 107.75 4.1573 -3.5979 0
M  V30 1137 H 108.975 5.18357 -4.38729 0
M  V30 1138 H 106.921 6.12459 -2.35011 0
M  V30 1139 H 106.838 6.37539 -4.063 0
M  V30 1140 H 108.106 7.1321 -3.14566 0
M  V30 1141 N 112.336 1.25143 0.95797 0
M  V30 1142 C 113.613 1.00472 1.67823 0
M  V30 1143 C 113.993 -0.470056 2.058 0
M  V30 1144 O 113.341 -1.44663 1.76875 0
M  V30 1145 C 113.551 1.9372 2.90299 0
M  V30 1146 C 114.899 2.21371 3.62326 0
M  V30 1147 O 115.923 1.91451 3.00375 0
M  V30 1148 O 114.782 2.72231 4.7387 0
M  V30 1149 H 111.876 0.380752 0.734137 0
M  V30 1150 H 114.422 1.36283 1.01119 0
M  V30 1151 H 113.194 2.93316 2.59001 0
M  V30 1152 H 112.817 1.58286 3.64735 0
M  V30 1153 N 113.814 -1.1601 1.06675 0
M  V30 1154 C 114.762 -2.22586 0.675157 0
M  V30 1155 C 115.756 -1.66525 -0.310766 0
M  V30 1156 O 116.962 -1.79145 -0.175215 0
M  V30 1157 H 113.337 -0.724855 0.200223 0
M  V30 1158 H 115.308 -2.52899 1.58381 0
M  V30 1159 C 114.057 -3.47604 0.0817162 0
M  V30 1160 H 113.38 -3.91058 0.831484 0
M  V30 1161 H 114.82 -4.23718 -0.154708 0
M  V30 1162 C 113.279 -3.15718 -1.17576 0
M  V30 1163 O 113.809 -3.31878 -2.26318 0
M  V30 1164 N 112.015 -2.69816 -1.07923 0
M  V30 1165 H 111.562 -2.56866 -0.194293 0
M  V30 1166 H 111.52 -2.48855 -1.92141 0
M  V30 1167 N 115.292 -0.849877 -1.32721 0
M  V30 1168 C 116.703 -0.506188 -1.79707 0
M  V30 1169 C 117.054 0.975627 -1.70223 0
M  V30 1170 O 116.179 1.76078 -1.25799 0
M  V30 1171 C 116.774 -0.912044 -3.26293 0
M  V30 1172 C 115.333 -0.620326 -3.71253 0
M  V30 1173 C 114.48 -1.11439 -2.53922 0
M  V30 1174 H 117.431 -1.03754 -1.20087 0
M  V30 1175 H 117.452 -0.226493 -3.79825 0
M  V30 1176 H 116.964 -1.99057 -3.33164 0
M  V30 1177 H 115.065 0.447674 -3.69901 0
M  V30 1178 H 115.178 -1.18327 -4.64258 0
M  V30 1179 H 113.542 -0.534834 -2.49021 0
M  V30 1180 H 114.325 -2.19992 -2.6355 0
M  V30 1181 N 116.77 1.45427 -0.607355 0
M  V30 1182 C 117.702 2.2871 0.149752 0
M  V30 1183 C 118.715 1.39937 0.831958 0
M  V30 1184 O 119.904 1.64313 0.697385 0
M  V30 1185 C 117.004 3.15673 1.23304 0
M  V30 1186 C 116.177 4.32722 0.637996 0
M  V30 1187 C 115.236 5.00895 1.61215 0
M  V30 1188 O 114.262 5.57697 1.13854 0
M  V30 1189 N 115.464 5.00159 2.94655 0
M  V30 1190 H 118.229 2.94328 -0.564882 0
M  V30 1191 H 115.79 1.55612 -0.446823 0
M  V30 1192 H 117.782 3.58144 1.88454 0
M  V30 1193 H 116.352 2.51965 1.8502 0
M  V30 1194 H 115.572 3.93734 -0.191572 0
M  V30 1195 H 116.86 5.08321 0.220665 0
M  V30 1196 H 116.258 4.553 3.35735 0
M  V30 1197 H 114.815 5.46495 3.55228 0
M  V30 1198 N 118.248 0.346503 1.53744 0
M  V30 1199 C 119.195 -0.508914 2.25119 0
M  V30 1200 C 120.165 -1.09315 1.25058 0
M  V30 1201 O 121.35 -1.12921 1.53797 0
M  V30 1202 C 118.49 -1.65246 3.02965 0
M  V30 1203 C 117.603 -1.09525 4.17886 0
M  V30 1204 C 116.738 -2.20634 4.83212 0
M  V30 1205 C 115.777 -1.62279 5.90196 0
M  V30 1206 N 114.914 -2.67143 6.49291 0
M  V30 1207 H 119.754 0.106283 2.9781 0
M  V30 1208 H 117.291 0.0642227 1.4696 0
M  V30 1209 H 119.249 -2.32574 3.4636 0
M  V30 1210 H 117.879 -2.2386 2.32565 0
M  V30 1211 H 116.931 -0.312818 3.79112 0
M  V30 1212 H 118.243 -0.628444 4.94825 0
M  V30 1213 H 117.397 -2.95821 5.29693 0
M  V30 1214 H 116.136 -2.70659 4.05703 0
M  V30 1215 H 115.141 -0.855989 5.43096 0
M  V30 1216 H 116.366 -1.13102 6.69615 0
M  V30 1217 H 114.312 -3.16417 5.74645 0
M  V30 1218 H 114.229 -2.25093 7.21713 0
M  V30 1219 H 115.497 -3.4209 7.00425 0
M  V30 1220 N 119.726 -1.57421 0.075193 0
M  V30 1221 C 120.951 -1.98364 -0.605515 0
M  V30 1222 C 121.376 -0.953383 -1.62149 0
M  V30 1223 O 120.734 0.0806053 -1.81121 0
M  V30 1224 C 120.782 -3.38332 -1.24756 0
M  V30 1225 O 119.886 -3.37959 -2.36342 0
M  V30 1226 H 119.227 -0.645553 -0.155428 0
M  V30 1227 H 121.757 -2.04044 0.150714 0
M  V30 1228 H 121.767 -3.75591 -1.5936 0
M  V30 1229 H 120.442 -4.12846 -0.503129 0
M  V30 1230 H 119.019 -3.12474 -2.03506 0
M  V30 1231 N 121.204 0.198386 -1.56346 0
M  V30 1232 C 122.434 0.934215 -1.84271 0
M  V30 1233 C 122.842 1.77496 -0.655125 0
M  V30 1234 O 122.185 1.7961 0.385488 0
M  V30 1235 C 122.247 1.88278 -3.06254 0
M  V30 1236 C 121.911 1.22431 -4.40295 0
M  V30 1237 C 122.908 0.602839 -5.16393 0
M  V30 1238 C 120.593 1.22915 -4.87029 0
M  V30 1239 C 122.587 -0.0050083 -6.374 0
M  V30 1240 C 120.274 0.617465 -6.07973 0
M  V30 1241 C 121.272 0.00146341 -6.83 0
M  V30 1242 O 120.96 -0.600642 -8.01653 0
M  V30 1243 H 120.692 0.278245 -0.616081 0
M  V30 1244 H 123.246 0.211626 -2.04307 0
M  V30 1245 H 121.476 2.64498 -2.82095 0
M  V30 1246 H 123.165 2.48612 -3.20853 0
M  V30 1247 H 123.931 0.591265 -4.81382 0
M  V30 1248 H 119.81 1.69801 -4.28589 0
M  V30 1249 H 123.354 -0.48643 -6.95902 0
M  V30 1250 H 119.251 0.62653 -6.42452 0
M  V30 1251 H 120.019 -0.497225 -8.16988 0
M  V30 1252 N 122.682 1.50554 0.465978 0
M  V30 1253 C 123.929 1.61798 1.21768 0
M  V30 1254 C 124.257 0.320696 1.91838 0
M  V30 1255 O 123.512 -0.693724 1.82992 0
M  V30 1256 C 123.811 2.75152 2.28093 0
M  V30 1257 C 123.477 4.15454 1.75239 0
M  V30 1258 C 122.139 4.53628 1.60546 0
M  V30 1259 C 124.491 5.03121 1.36083 0
M  V30 1260 C 121.819 5.77204 1.05128 0
M  V30 1261 C 124.171 6.27249 0.821056 0
M  V30 1262 C 122.835 6.64221 0.660795 0
M  V30 1263 H 122.105 0.592063 0.445582 0
M  V30 1264 H 124.752 1.84503 0.512927 0
M  V30 1265 H 123.057 2.46556 3.04496 0
M  V30 1266 H 124.754 2.81055 2.86023 0
M  V30 1267 H 121.344 3.85341 1.87644 0
M  V30 1268 H 125.528 4.74257 1.46267 0
M  V30 1269 H 120.784 6.0452 0.91462 0
M  V30 1270 H 124.958 6.94537 0.509018 0
M  V30 1271 H 122.585 7.59854 0.229226 0
M  V30 1272 N 124.16 -0.719506 1.40217 0
M  V30 1273 C 125.409 -1.47486 1.37589 0
M  V30 1274 C 125.722 -1.9559 -0.0201568 0
M  V30 1275 O 126.928 -2.70973 -0.169049 0
M  V30 1276 C 125.384 -2.66575 2.41796 0
M  V30 1277 C 124.992 -2.25358 3.87192 0
M  V30 1278 C 126.736 -3.4433 2.48269 0
M  V30 1279 C 124.643 -3.41262 4.83005 0
M  V30 1280 H 123.573 -0.553901 0.511576 0
M  V30 1281 H 126.224 -0.783427 1.65936 0
M  V30 1282 H 124.606 -3.3787 2.06543 0
M  V30 1283 H 125.78 -1.61509 4.31569 0
M  V30 1284 H 124.095 -1.60657 3.84159 0
M  V30 1285 H 126.692 -4.30569 3.17041 0
M  V30 1286 H 127.035 -3.87872 1.51198 0
M  V30 1287 H 127.568 -2.80076 2.82493 0
M  V30 1288 H 124.307 -3.02755 5.81394 0
M  V30 1289 H 123.827 -4.0404 4.43297 0
M  V30 1290 H 125.506 -4.07383 5.02641 0
M  V30 1291 N 125.638 -1.25649 -0.95132 0
M  V30 1292 C 127.054 -1.02542 -1.223 0
M  V30 1293 C 127.254 0.255715 -1.99871 0
M  V30 1294 O 126.31 0.967558 -2.33226 0
M  V30 1295 C 127.623 -2.25065 -1.99415 0
M  V30 1296 C 129.171 -2.29861 -2.12446 0
M  V30 1297 C 129.646 -3.52048 -2.92961 0
M  V30 1298 N 131.137 -3.52465 -3.00538 0
M  V30 1299 C 131.872 -4.43672 -3.63239 0
M  V30 1300 N 131.368 -5.45157 -4.27523 0
M  V30 1301 N 133.161 -4.31346 -3.60412 0
M  V30 1302 H 125.312 -2.07951 -0.432471 0
M  V30 1303 H 127.575 -0.91339 -0.253816 0
M  V30 1304 H 127.281 -3.18194 -1.49817 0
M  V30 1305 H 127.155 -2.28502 -3.00111 0
M  V30 1306 H 129.542 -1.37252 -2.61239 0
M  V30 1307 H 129.623 -2.3044 -1.11044 0
M  V30 1308 H 129.267 -4.44981 -2.44856 0
M  V30 1309 H 129.197 -3.48715 -3.94596 0
M  V30 1310 H 131.688 -2.79056 -2.54826 0
M  V30 1311 H 132.001 -6.10958 -4.73234 0
M  V30 1312 H 130.346 -5.49025 -4.26141 0
M  V30 1313 H 133.537 -3.51288 -3.09377 0
M  V30 1314 H 133.71 -5.02624 -4.0899 0
M  V30 1315 N 127.117 1.15442 -1.07289 0
M  V30 1316 C 128.047 2.22312 -0.714107 0
M  V30 1317 C 129.028 1.67467 0.298155 0
M  V30 1318 O 130.213 1.93445 0.171048 0
M  V30 1319 C 127.343 3.47124 -0.110448 0
M  V30 1320 C 126.297 4.14926 -1.04979 0
M  V30 1321 C 125.623 5.33807 -0.308924 0
M  V30 1322 C 126.923 4.64762 -2.38314 0
M  V30 1323 H 128.617 2.5258 -1.6076 0
M  V30 1324 H 126.163 1.21404 -0.77441 0
M  V30 1325 H 128.116 4.21124 0.152482 0
M  V30 1326 H 126.84 3.16187 0.81812 0
M  V30 1327 H 125.499 3.42866 -1.29764 0
M  V30 1328 H 125.147 4.99126 0.623084 0
M  V30 1329 H 124.847 5.80113 -0.935036 0
M  V30 1330 H 126.371 6.10576 -0.0537771 0
M  V30 1331 H 127.785 5.30292 -2.1786 0
M  V30 1332 H 126.182 5.21728 -2.96514 0
M  V30 1333 H 127.252 3.80434 -3.00663 0
M  V30 1334 N 128.595 0.856903 1.32268 0
M  V30 1335 C 129.825 0.47475 2.01071 0
M  V30 1336 C 130.233 -0.933746 1.64553 0
M  V30 1337 O 129.576 -1.62114 0.863989 0
M  V30 1338 C 129.638 0.536746 3.55471 0
M  V30 1339 C 129.302 1.90453 4.15423 0
M  V30 1340 C 130.299 2.87029 4.33486 0
M  V30 1341 C 127.984 2.20229 4.51447 0
M  V30 1342 C 129.978 4.11532 4.86744 0
M  V30 1343 C 127.665 3.44984 5.0441 0
M  V30 1344 C 128.663 4.40452 5.22007 0
M  V30 1345 O 128.351 5.62998 5.73837 0
M  V30 1346 H 128.083 0.184778 0.650256 0
M  V30 1347 H 130.637 1.15615 1.69771 0
M  V30 1348 H 128.867 -0.20152 3.86175 0
M  V30 1349 H 130.556 0.169875 4.05544 0
M  V30 1350 H 131.322 2.6533 4.05986 0
M  V30 1351 H 127.201 1.46705 4.37034 0
M  V30 1352 H 130.745 4.86056 5.00395 0
M  V30 1353 H 126.642 3.66532 5.31342 0
M  V30 1354 H 127.41 5.64987 5.92226 0
M  V30 1355 N 130.073 -1.45103 0.615059 0
M  V30 1356 C 131.321 -2.01784 0.112955 0
M  V30 1357 C 131.642 -1.48504 -1.26378 0
M  V30 1358 O 130.912 -0.682245 -1.83636 0
M  V30 1359 H 129.492 -0.745993 0.0387668 0
M  V30 1360 H 132.154 -1.77808 0.798141 0
M  V30 1361 H 131.25 -3.12025 0.0684069 0
M  V30 1362 N 131.551 -0.354651 -1.53558 0
M  V30 1363 C 132.481 0.489091 -2.2832 0
M  V30 1364 C 133.462 1.09324 -1.30316 0
M  V30 1365 O 134.647 1.11255 -1.59173 0
M  V30 1366 C 131.777 1.63456 -3.0643 0
M  V30 1367 C 130.731 1.1582 -4.12031 0
M  V30 1368 C 130.057 2.39305 -4.7816 0
M  V30 1369 C 131.357 0.250731 -5.21698 0
M  V30 1370 H 133.051 -0.134614 -2.99097 0
M  V30 1371 H 130.597 -0.0661826 -1.43848 0
M  V30 1372 H 132.55 2.23136 -3.57475 0
M  V30 1373 H 131.274 2.28533 -2.33325 0
M  V30 1374 H 129.933 0.584146 -3.61916 0
M  V30 1375 H 129.581 3.02814 -4.01637 0
M  V30 1376 H 129.281 2.08109 -5.49513 0
M  V30 1377 H 130.805 2.99691 -5.31994 0
M  V30 1378 H 132.219 0.754695 -5.68311 0
M  V30 1379 H 130.616 0.0301468 -6.00092 0
M  V30 1380 H 131.686 -0.710125 -4.79672 0
M  V30 1381 N 133.029 1.57378 -0.0835403 0
M  V30 1382 C 133.961 2.10389 0.909338 0
M  V30 1383 C 134.974 1.03858 1.25369 0
M  V30 1384 O 136.163 1.31338 1.20882 0
M  V30 1385 C 133.263 2.55908 2.2218 0
M  V30 1386 C 132.436 3.86145 2.05453 0
M  V30 1387 C 131.495 4.17633 3.20108 0
M  V30 1388 O 130.521 4.87043 2.94581 0
M  V30 1389 N 131.723 3.72113 4.45547 0
M  V30 1390 H 134.488 2.962 0.456657 0
M  V30 1391 H 132.049 1.61579 0.101877 0
M  V30 1392 H 134.041 2.74027 2.97811 0
M  V30 1393 H 132.611 1.75171 2.58909 0
M  V30 1394 H 131.831 3.7729 1.1422 0
M  V30 1395 H 133.119 4.7137 1.91541 0
M  V30 1396 H 132.517 3.16062 4.69171 0
M  V30 1397 H 131.074 3.95409 5.18165 0
M  V30 1398 N 134.507 -0.190092 1.56449 0
M  V30 1399 C 135.47 -1.21925 1.9408 0
M  V30 1400 C 136.47 -1.38176 0.822431 0
M  V30 1401 O 137.66 -1.35903 1.08977 0
M  V30 1402 C 134.792 -2.58773 2.21922 0
M  V30 1403 H 135.985 -0.897464 2.86157 0
M  V30 1404 H 133.538 -0.43181 1.50217 0
M  V30 1405 H 134.273 -2.95998 1.32499 0
M  V30 1406 H 134.058 -2.48348 3.03424 0
M  V30 1407 H 135.548 -3.32978 2.52022 0
M  V30 1408 N 135.985 -1.50799 -0.457987 0
M  V30 1409 C 137.233 -1.62121 -1.2067 0
M  V30 1410 C 137.554 -0.329793 -1.92191 0
M  V30 1411 O 136.824 0.653409 -1.84682 0
M  V30 1412 H 135.404 -0.597441 -0.448411 0
M  V30 1413 H 138.066 -1.87637 -0.527096 0
M  V30 1414 H 137.162 -2.43882 -1.94751 0
M  V30 1415 N 137.463 0.71206 -1.40597 0
M  V30 1416 C 138.879 1.02058 -1.22704 0
M  V30 1417 C 139.079 2.01228 -0.104729 0
M  V30 1418 O 138.135 2.4674 0.53624 0
M  V30 1419 C 139.448 1.56094 -2.57012 0
M  V30 1420 C 140.996 1.6806 -2.64054 0
M  V30 1421 C 141.471 2.25501 -3.9864 0
M  V30 1422 N 142.962 2.32882 -4.004 0
M  V30 1423 C 143.697 2.78317 -5.01325 0
M  V30 1424 N 143.193 3.23478 -6.12645 0
M  V30 1425 N 144.986 2.77733 -4.88693 0
M  V30 1426 H 137.137 0.0547896 -2.12329 0
M  V30 1427 H 139.4 0.0869027 -0.944008 0
M  V30 1428 H 139.106 0.906865 -3.39807 0
M  V30 1429 H 138.98 2.54564 -2.78347 0
M  V30 1430 H 141.367 2.32583 -1.81629 0
M  V30 1431 H 141.448 0.681802 -2.46546 0
M  V30 1432 H 141.092 1.61598 -4.81506 0
M  V30 1433 H 141.022 3.26102 -4.13479 0
M  V30 1434 H 143.513 2.00991 -3.20017 0
M  V30 1435 H 143.826 3.56725 -6.85542 0
M  V30 1436 H 142.171 3.21429 -6.16205 0
M  V30 1437 H 145.362 2.4179 -4.00818 0
M  V30 1438 H 145.535 3.12826 -5.67489 0
M  V30 1439 N 138.941 1.26152 0.944643 0
M  V30 1440 C 139.871 1.09902 2.06019 0
M  V30 1441 C 140.852 0.00519538 1.70099 0
M  V30 1442 O 142.037 0.176583 1.93396 0
M  V30 1443 C 139.167 0.727562 3.39594 0
M  V30 1444 C 138.121 1.77274 3.89561 0
M  V30 1445 C 137.447 1.25569 5.19747 0
M  V30 1446 C 138.747 3.17357 4.14827 0
M  V30 1447 H 140.441 2.03217 2.19871 0
M  V30 1448 H 137.987 0.978452 1.05652 0
M  V30 1449 H 139.94 0.600777 4.17095 0
M  V30 1450 H 138.664 -0.241287 3.25707 0
M  V30 1451 H 137.323 1.88814 3.14237 0
M  V30 1452 H 136.971 0.276783 5.02238 0
M  V30 1453 H 136.671 1.95433 5.54148 0
M  V30 1454 H 138.195 1.1415 5.99835 0
M  V30 1455 H 139.609 3.08914 4.82954 0
M  V30 1456 H 138.006 3.84781 4.60504 0
M  V30 1457 H 139.076 3.63673 3.20734 0
M  V30 1458 N 140.419 -1.14872 1.07899 0
M  V30 1459 C 141.349 -2.2193 0.725887 0
M  V30 1460 C 142.33 -1.67622 -0.28927 0
M  V30 1461 O 143.515 -1.93533 -0.160787 0
M  V30 1462 C 140.645 -3.47061 0.128856 0
M  V30 1463 C 139.599 -4.14363 1.07178 0
M  V30 1464 C 138.925 -5.33636 0.337229 0
M  V30 1465 C 140.225 -4.63492 2.40775 0
M  V30 1466 H 141.919 -2.51724 1.62097 0
M  V30 1467 H 139.465 -1.20991 0.780838 0
M  V30 1468 H 141.418 -4.21199 -0.130147 0
M  V30 1469 H 140.142 -3.16617 -0.80134 0
M  V30 1470 H 138.801 -3.42173 1.3158 0
M  V30 1471 H 138.449 -4.99449 -0.596606 0
M  V30 1472 H 138.149 -5.79609 0.965788 0
M  V30 1473 H 139.673 -6.10539 0.0861567 0
M  V30 1474 H 141.087 -5.2913 2.20669 0
M  V30 1475 H 139.484 -5.20148 2.99276 0
M  V30 1476 H 140.554 -3.78834 3.02676 0
M  V30 1477 N 141.898 -0.863906 -1.31812 0
M  V30 1478 C 143.144 -0.481841 -1.9761 0
M  V30 1479 C 143.499 0.954048 -1.6708 0
M  V30 1480 O 142.792 1.66182 -0.953624 0
M  V30 1481 C 142.986 -0.668547 -3.51091 0
M  V30 1482 C 142.815 -2.12103 -3.96538 0
M  V30 1483 C 141.585 -2.76141 -4.23171 0
M  V30 1484 C 143.783 -3.09265 -4.10925 0
M  V30 1485 N 141.765 -4.12205 -4.54929 0
M  V30 1486 C 143.136 -4.30341 -4.46326 0
M  V30 1487 C 145.191 -3.05337 -3.93286 0
M  V30 1488 C 143.894 -5.48 -4.65928 0
M  V30 1489 C 145.92 -4.22248 -4.14078 0
M  V30 1490 C 145.282 -5.42085 -4.49804 0
M  V30 1491 H 141.381 -0.225238 -0.74886 0
M  V30 1492 H 143.965 -1.11723 -1.59455 0
M  V30 1493 H 142.136 -0.0627898 -3.88349 0
M  V30 1494 H 143.868 -0.255467 -4.03893 0
M  V30 1495 H 140.623 -2.27125 -4.15585 0
M  V30 1496 H 141.047 -4.82416 -4.74978 0
M  V30 1497 H 145.689 -2.138 -3.64759 0
M  V30 1498 H 143.407 -6.40059 -4.93305 0
M  V30 1499 H 146.993 -4.20654 -4.01922 0
M  V30 1500 H 145.873 -6.31044 -4.65567 0
M  V30 1501 N 143.376 1.44774 -0.622745 0
M  V30 1502 C 144.286 2.34433 0.0886031 0
M  V30 1503 C 145.302 1.52131 0.844529 0
M  V30 1504 O 146.478 1.84886 0.798691 0
M  V30 1505 C 143.543 3.29986 1.0635 0
M  V30 1506 C 142.604 4.28195 0.307873 0
M  V30 1507 C 141.837 5.19183 1.23633 0
M  V30 1508 O 142.06 5.13918 2.47476 0
M  V30 1509 O 140.994 5.97515 0.725189 0
M  V30 1510 H 144.82 2.96693 -0.648599 0
M  V30 1511 H 142.405 1.44408 -0.382957 0
M  V30 1512 H 144.287 3.88825 1.6246 0
M  V30 1513 H 142.962 2.70269 1.78146 0
M  V30 1514 H 141.869 3.72927 -0.296064 0
M  V30 1515 H 143.202 4.90808 -0.3699 0
M  V30 1516 N 144.854 0.36279 1.53368 0
M  V30 1517 C 145.786 -0.519668 2.23231 0
M  V30 1518 C 146.799 -1.04844 1.24546 0
M  V30 1519 O 147.988 -0.955296 1.50786 0
M  V30 1520 C 145.088 -1.72995 2.9142 0
M  V30 1521 C 144.261 -1.33316 4.16588 0
M  V30 1522 C 143.32 -2.40521 4.68013 0
M  V30 1523 O 142.346 -2.03027 5.3176 0
M  V30 1524 N 143.548 -3.72065 4.45587 0
M  V30 1525 H 146.313 0.078751 2.99597 0
M  V30 1526 H 143.874 0.187833 1.60807 0
M  V30 1527 H 145.866 -2.44184 3.22733 0
M  V30 1528 H 144.436 -2.2353 2.18525 0
M  V30 1529 H 143.656 -0.451236 3.91609 0
M  V30 1530 H 144.944 -1.04432 4.97967 0
M  V30 1531 H 144.342 -4.05304 3.94646 0
M  V30 1532 H 142.899 -4.39366 4.81457 0
M  V30 1533 N 146.332 -1.57332 0.0918853 0
M  V30 1534 C 147.242 -2.17368 -0.882505 0
M  V30 1535 C 148.258 -1.14226 -1.31257 0
M  V30 1536 O 149.434 -1.46582 -1.38115 0
M  V30 1537 C 146.499 -2.73962 -2.12476 0
M  V30 1538 C 145.56 -3.92048 -1.7492 0
M  V30 1539 C 144.793 -4.45933 -2.93223 0
M  V30 1540 O 145.016 -3.98764 -4.07852 0
M  V30 1541 O 143.95 -5.36999 -2.71875 0
M  V30 1542 H 147.776 -3.01031 -0.40172 0
M  V30 1543 H 145.361 -1.48813 -0.132291 0
M  V30 1544 H 147.243 -3.10147 -2.85283 0
M  V30 1545 H 145.918 -1.93347 -2.59613 0
M  V30 1546 H 144.825 -3.6068 -0.993025 0
M  V30 1547 H 146.158 -4.74017 -1.32548 0
M  V30 1548 N 147.81 0.181792 -1.56548 0
M  V30 1549 C 148.74 1.22765 -1.98623 0
M  V30 1550 C 149.721 1.46747 -0.860189 0
M  V30 1551 O 150.906 1.58259 -1.12551 0
M  V30 1552 C 148.036 2.56894 -2.33715 0
M  V30 1553 C 146.99 2.475 -3.49182 0
M  V30 1554 C 146.316 3.86023 -3.69986 0
M  V30 1555 C 147.616 1.98866 -4.82959 0
M  V30 1556 H 149.31 0.877942 -2.86239 0
M  V30 1557 H 146.856 0.42088 -1.37712 0
M  V30 1558 H 148.809 3.30253 -2.61746 0
M  V30 1559 H 147.533 2.93632 -1.42997 0
M  V30 1560 H 146.192 1.76596 -3.21262 0
M  V30 1561 H 145.84 4.20136 -2.76576 0
M  V30 1562 H 145.54 3.80609 -4.47672 0
M  V30 1563 H 147.064 4.60984 -4.00407 0
M  V30 1564 H 148.478 2.61992 -5.09934 0
M  V30 1565 H 146.875 2.04424 -5.64208 0
M  V30 1566 H 147.945 0.942465 -4.75653 0
M  V30 1567 N 149.288 1.51039 0.449983 0
M  V30 1568 C 150.518 1.66627 1.22143 0
M  V30 1569 C 150.926 0.357776 1.85786 0
M  V30 1570 O 150.269 -0.672424 1.70951 0
M  V30 1571 C 150.331 2.71562 2.35573 0
M  V30 1572 C 149.995 4.14526 1.92399 0
M  V30 1573 C 150.992 4.99717 1.43453 0
M  V30 1574 C 148.677 4.60559 2.00475 0
M  V30 1575 C 150.671 6.28998 1.03155 0
M  V30 1576 C 148.358 5.8984 1.59788 0
M  V30 1577 C 149.356 6.73886 1.11208 0
M  V30 1578 O 149.044 8.0075 0.710935 0
M  V30 1579 H 148.776 0.562635 0.374724 0
M  V30 1580 H 151.33 1.98146 0.541036 0
M  V30 1581 H 149.56 2.3533 3.06849 0
M  V30 1582 H 151.249 2.76156 2.97478 0
M  V30 1583 H 152.015 4.65361 1.36618 0
M  V30 1584 H 147.894 3.95273 2.37235 0
M  V30 1585 H 151.438 6.9455 0.651663 0
M  V30 1586 H 147.335 6.23713 1.66289 0
M  V30 1587 H 148.103 8.142 0.837913 0
M  V30 1588 N 150.766 -0.704594 1.40972 0
M  V30 1589 C 151.991 -1.49858 1.43378 0
M  V30 1590 C 152.416 -1.88061 0.038184 0
M  V30 1591 O 151.774 -1.5402 -0.956425 0
M  V30 1592 C 151.822 -2.74333 2.34038 0
M  V30 1593 O 150.926 -3.7147 1.7912 0
M  V30 1594 H 150.267 -0.45139 0.486974 0
M  V30 1595 H 152.797 -0.866832 1.8533 0
M  V30 1596 H 152.807 -3.22741 2.49604 0
M  V30 1597 H 151.482 -2.45863 3.35446 0
M  V30 1598 H 150.059 -3.30363 1.72958 0
M  V30 1599 N 152.244 -1.26651 -0.937939 0
M  V30 1600 C 153.176 -1.04283 -2.04102 0
M  V30 1601 C 154.189 -0.00221014 -1.628 0
M  V30 1602 O 155.378 -0.242645 -1.76843 0
M  V30 1603 C 152.478 -0.557846 -3.34277 0
M  V30 1604 C 151.651 -1.66843 -4.04329 0
M  V30 1605 C 150.71 -1.18095 -5.12777 0
M  V30 1606 O 149.736 -1.87865 -5.37304 0
M  V30 1607 N 150.938 -0.0311006 -5.80492 0
M  V30 1608 H 153.703 -1.9927 -2.23856 0
M  V30 1609 H 151.264 -1.1808 -1.10764 0
M  V30 1610 H 153.256 -0.215836 -4.04124 0
M  V30 1611 H 151.826 0.298523 -3.11171 0
M  V30 1612 H 151.046 -2.18123 -3.28353 0
M  V30 1613 H 152.334 -2.41408 -4.47883 0
M  V30 1614 H 151.732 0.551486 -5.63005 0
M  V30 1615 H 150.289 0.251809 -6.51313 0
M  V30 1616 N 153.722 1.14298 -1.08507 0
M  V30 1617 C 154.652 2.21542 -0.737646 0
M  V30 1618 C 155.633 1.67773 0.280377 0
M  V30 1619 O 156.818 1.93616 0.150521 0
M  V30 1620 C 153.948 3.46988 -0.147259 0
M  V30 1621 C 152.902 4.13789 -1.09374 0
M  V30 1622 C 152.228 5.33449 -0.365524 0
M  V30 1623 C 153.528 4.62208 -2.4323 0
M  V30 1624 H 155.222 2.5086 -1.6343 0
M  V30 1625 H 152.768 1.20576 -0.787243 0
M  V30 1626 H 154.721 4.21262 0.107808 0
M  V30 1627 H 153.445 3.17037 0.784538 0
M  V30 1628 H 152.104 3.4147 -1.33393 0
M  V30 1629 H 151.752 4.99759 0.57011 0
M  V30 1630 H 151.452 5.79088 -0.996512 0
M  V30 1631 H 152.976 6.10485 -0.118534 0
M  V30 1632 H 154.39 5.27952 -2.23472 0
M  V30 1633 H 152.787 5.18553 -3.02031 0
M  V30 1634 H 153.857 3.77224 -3.04681 0
M  V30 1635 N 155.201 0.870884 1.31352 0
M  V30 1636 C 156.447 0.482987 1.96965 0
M  V30 1637 C 156.78 -0.962462 1.68672 0
M  V30 1638 O 156.055 -1.6779 0.98371 0
M  V30 1639 C 156.338 0.741752 3.52378 0
M  V30 1640 C 156.191 2.2368 3.9024 0
M  V30 1641 C 157.51 0.208838 4.39604 0
M  V30 1642 H 154.629 0.176955 0.715441 0
M  V30 1643 H 157.271 1.09229 1.55464 0
M  V30 1644 H 155.421 0.223149 3.87859 0
M  V30 1645 H 157.093 2.82273 3.64856 0
M  V30 1646 H 155.336 2.70901 3.38814 0
M  V30 1647 H 156.007 2.3685 4.98604 0
M  V30 1648 H 158.483 0.652529 4.10952 0
M  V30 1649 H 157.359 0.419336 5.47296 0
M  V30 1650 H 157.62 -0.889275 4.33064 0
M  V30 1651 N 156.679 -1.44442 0.630414 0
M  V30 1652 C 157.909 -2.06115 0.141465 0
M  V30 1653 C 158.317 -1.47179 -1.1889 0
M  V30 1654 O 157.66 -0.588873 -1.74006 0
M  V30 1655 C 157.722 -3.59467 -0.0484355 0
M  V30 1656 C 157.386 -4.40864 1.20366 0
M  V30 1657 C 158.383 -4.74391 2.12719 0
M  V30 1658 C 156.068 -4.8125 1.43887 0
M  V30 1659 C 158.062 -5.47186 3.26904 0
M  V30 1660 C 155.749 -5.53795 2.5837 0
M  V30 1661 C 156.747 -5.86682 3.49705 0
M  V30 1662 O 156.435 -6.57749 4.62191 0
M  V30 1663 H 156.167 -0.671648 0.0765792 0
M  V30 1664 H 158.721 -1.86312 0.864695 0
M  V30 1665 H 156.951 -3.77758 -0.826803 0
M  V30 1666 H 158.64 -4.02909 -0.491849 0
M  V30 1667 H 159.406 -4.43728 1.95781 0
M  V30 1668 H 155.285 -4.55073 0.736853 0
M  V30 1669 H 158.829 -5.72773 3.98217 0
M  V30 1670 H 154.726 -5.83872 2.75251 0
M  V30 1671 H 155.494 -6.76217 4.61164 0
M  V30 1672 N 158.157 -0.370918 -1.53173 0
M  V30 1673 C 159.382 0.220293 -2.06227 0
M  V30 1674 C 159.807 1.41243 -1.24225 0
M  V30 1675 O 159.165 1.79387 -0.262645 0
M  V30 1676 C 159.213 0.586663 -3.55796 0
M  V30 1677 O 158.317 1.68317 -3.76488 0
M  V30 1678 H 157.658 0.0308099 -0.663285 0
M  V30 1679 H 160.188 -0.533068 -1.97534 0
M  V30 1680 H 160.198 0.85617 -3.98916 0
M  V30 1681 H 158.873 -0.285013 -4.14922 0
M  V30 1682 H 157.45 1.40881 -3.45264 0
M  V30 1683 N 159.635 1.57281 -0.100228 0
M  V30 1684 C 160.863 1.98879 0.570509 0
M  V30 1685 C 161.278 0.979476 1.61405 0
M  V30 1686 O 160.635 -0.0302288 1.82475 0
M  V30 1687 C 160.686 3.4052 1.2136 0
M  V30 1688 O 160.407 4.37588 0.211786 0
M  V30 1689 C 161.908 3.97149 1.96945 0
M  V30 1690 H 159.128 0.653428 0.152555 0
M  V30 1691 H 161.672 2.03697 -0.18103 0
M  V30 1692 H 159.827 3.367 1.91603 0
M  V30 1693 H 160.241 5.20118 0.676607 0
M  V30 1694 H 161.715 4.98393 2.37294 0
M  V30 1695 H 162.192 3.3525 2.83733 0
M  V30 1696 H 162.798 4.04458 1.31506 0
M  V30 1697 N 161.113 -0.173488 1.56642 0
M  V30 1698 C 162.524 -0.736155 1.71574 0
M  V30 1699 C 162.875 -1.82888 0.710389 0
M  V30 1700 O 162 -2.16017 -0.1287 0
M  V30 1701 C 162.595 -1.34211 3.11083 0
M  V30 1702 C 161.154 -1.85162 3.27707 0
M  V30 1703 C 160.301 -0.729765 2.67525 0
M  V30 1704 H 163.252 0.0518786 1.58615 0
M  V30 1705 H 163.273 -2.21178 3.09613 0
M  V30 1706 H 162.785 -0.546579 3.84232 0
M  V30 1707 H 160.886 -2.67366 2.59512 0
M  V30 1708 H 160.999 -1.99855 4.35425 0
M  V30 1709 H 159.363 -1.14965 2.27278 0
M  V30 1710 H 160.146 0.0538806 3.43258 0
M  V30 1711 N 162.591 -1.51276 -0.441967 0
M  V30 1712 C 163.819 -1.67516 -1.21434 0
M  V30 1713 C 164.234 -0.37055 -1.85128 0
M  V30 1714 O 163.591 0.650498 -1.70513 0
M  V30 1715 C 163.642 -2.78748 -2.30177 0
M  V30 1716 O 163.363 -4.04154 -1.69089 0
M  V30 1717 C 164.864 -3.06217 -3.20541 0
M  V30 1718 H 162.084 -0.562276 -0.366178 0
M  V30 1719 H 164.628 -1.97666 -0.524244 0
M  V30 1720 H 162.783 -2.5121 -2.94911 0
M  V30 1721 H 163.197 -4.65894 -2.40922 0
M  V30 1722 H 164.671 -3.8764 -3.92987 0
M  V30 1723 H 165.148 -2.18439 -3.81026 0
M  V30 1724 H 165.754 -3.35397 -2.61513 0
M  V30 1725 N 164.069 0.697108 -1.41344 0
M  V30 1726 C 165.48 1.27697 -1.36199 0
M  V30 1727 C 165.831 1.9615 -0.0443463 0
M  V30 1728 O 164.956 1.98689 0.857419 0
M  V30 1729 C 165.551 2.32223 -2.46694 0
M  V30 1730 C 164.11 2.8579 -2.44952 0
M  V30 1731 C 163.257 1.59807 -2.26621 0
M  V30 1732 H 166.208 0.491968 -1.50882 0
M  V30 1733 H 166.229 3.1348 -2.15664 0
M  V30 1734 H 165.741 1.82373 -3.42581 0
M  V30 1735 H 163.842 3.3982 -1.52817 0
M  V30 1736 H 163.955 3.36325 -3.41207 0
M  V30 1737 H 162.319 1.8556 -1.7447 0
M  V30 1738 H 163.102 1.11956 -3.24532 0
M  V30 1739 N 165.547 1.27147 0.931209 0
M  V30 1740 C 166.794 1.13278 1.67852 0
M  V30 1741 C 167.122 -0.32204 1.91815 0
M  V30 1742 O 166.377 -1.25224 1.50391 0
M  V30 1743 C 166.676 1.8579 3.05314 0
M  V30 1744 C 166.342 3.35657 3.01073 0
M  V30 1745 C 165.004 3.76536 2.99623 0
M  V30 1746 C 167.356 4.31299 2.92627 0
M  V30 1747 C 164.684 5.11426 2.87506 0
M  V30 1748 C 167.036 5.66242 2.82051 0
M  V30 1749 C 165.7 6.06418 2.7895 0
M  V30 1750 H 164.97 0.414515 0.614214 0
M  V30 1751 H 167.617 1.57712 1.08624 0
M  V30 1752 H 165.922 1.33854 3.68226 0
M  V30 1753 H 167.619 1.72491 3.62005 0
M  V30 1754 H 164.209 3.03146 3.02986 0
M  V30 1755 H 168.393 4.00692 2.92848 0
M  V30 1756 H 163.649 5.41705 2.83489 0
M  V30 1757 H 167.823 6.40026 2.74481 0
M  V30 1758 H 165.45 7.10895 2.69318 0
M  V30 1759 N 167.025 -1.13721 1.09112 0
M  V30 1760 C 168.272 -1.84924 0.825192 0
M  V30 1761 C 168.6 -1.83347 -0.649151 0
M  V30 1762 O 167.855 -1.26449 -1.49362 0
M  V30 1763 C 168.154 -3.32861 1.30146 0
M  V30 1764 C 167.82 -3.54621 2.78486 0
M  V30 1765 C 166.482 -3.60268 3.18999 0
M  V30 1766 C 168.834 -3.62855 3.74146 0
M  V30 1767 C 166.162 -3.71679 4.53951 0
M  V30 1768 C 168.514 -3.75793 5.08883 0
M  V30 1769 C 167.178 -3.79692 5.4899 0
M  V30 1770 H 166.448 -0.676684 0.301959 0
M  V30 1771 H 169.095 -1.3428 1.36533 0
M  V30 1772 H 167.4 -3.85835 0.681064 0
M  V30 1773 H 169.097 -3.86395 1.07236 0
M  V30 1774 H 165.687 -3.50879 2.46134 0
M  V30 1775 H 169.871 -3.57775 3.43963 0
M  V30 1776 H 165.127 -3.72963 4.84467 0
M  V30 1777 H 169.301 -3.81107 5.82864 0
M  V30 1778 H 166.928 -3.88287 6.53558 0
M  V30 1779 N 168.503 -0.877838 -1.30888 0
M  V30 1780 C 169.453 -0.310872 -2.25871 0
M  V30 1781 C 170.437 0.556596 -1.50966 0
M  V30 1782 O 171.629 0.402187 -1.7237 0
M  V30 1783 C 168.758 0.479821 -3.3993 0
M  V30 1784 C 167.844 -0.401333 -4.22197 0
M  V30 1785 N 168.235 -1.49848 -4.83093 0
M  V30 1786 C 166.533 -0.195167 -4.45573 0
M  V30 1787 C 167.234 -2.0425 -5.44662 0
M  V30 1788 N 166.21 -1.33843 -5.26865 0
M  V30 1789 H 170.012 -1.1493 -2.70496 0
M  V30 1790 H 167.526 -0.726458 -1.45246 0
M  V30 1791 H 169.523 0.902582 -4.07012 0
M  V30 1792 H 168.183 1.31577 -2.96846 0
M  V30 1793 H 169.194 -1.88137 -4.82519 0
M  V30 1794 H 165.871 0.604192 -4.13105 0
M  V30 1795 H 167.261 -2.96345 -6.03017 0
M  V30 1796 N 169.982 1.44106 -0.638065 0
M  V30 1797 C 171.21 2.06336 -0.152615 0
M  V30 1798 C 171.625 1.47731 1.17563 0
M  V30 1799 O 170.982 0.602806 1.72257 0
M  V30 1800 C 171.033 3.61479 -0.0391491 0
M  V30 1801 O 170.754 4.17903 -1.31487 0
M  V30 1802 C 172.255 4.40757 0.474176 0
M  V30 1803 H 169.475 0.665862 -0.0828776 0
M  V30 1804 H 172.019 1.84862 -0.87443 0
M  V30 1805 H 170.174 3.82191 0.633142 0
M  V30 1806 H 170.588 5.11416 -1.16421 0
M  V30 1807 H 172.062 5.49707 0.502562 0
M  V30 1808 H 172.539 4.12697 1.50258 0
M  V30 1809 H 173.145 4.24979 -0.165102 0
M  V30 1810 N 171.46 0.379036 1.52974 0
M  V30 1811 C 172.707 -0.206421 2.01445 0
M  V30 1812 C 173.035 -1.47668 1.26587 0
M  V30 1813 O 172.29 -1.92514 0.351675 0
M  V30 1814 C 172.589 -0.53096 3.53434 0
M  V30 1815 C 172.255 0.646546 4.46241 0
M  V30 1816 C 170.917 0.969604 4.7133 0
M  V30 1817 C 173.269 1.43479 5.01062 0
M  V30 1818 C 170.597 2.08263 5.48492 0
M  V30 1819 C 172.949 2.53834 5.7944 0
M  V30 1820 C 171.613 2.86659 6.02812 0
M  V30 1821 H 170.883 -0.0755349 0.73714 0
M  V30 1822 H 173.53 0.514271 1.84465 0
M  V30 1823 H 171.835 -1.33285 3.68432 0
M  V30 1824 H 173.532 -0.996417 3.88423 0
M  V30 1825 H 170.122 0.384734 4.2687 0
M  V30 1826 H 174.306 1.19844 4.81613 0
M  V30 1827 H 169.562 2.34078 5.64816 0
M  V30 1828 H 173.736 3.15319 6.20924 0
M  V30 1829 H 171.363 3.73026 6.62387 0
M  V30 1830 N 172.938 -1.57226 0.108567 0
M  V30 1831 C 173.901 -2.13602 -0.831082 0
M  V30 1832 C 174.901 -1.06841 -1.20173 0
M  V30 1833 O 176.091 -1.32666 -1.12895 0
M  V30 1834 C 173.223 -2.66769 -2.12243 0
M  V30 1835 H 174.416 -2.97951 -0.341317 0
M  V30 1836 H 171.969 -1.55667 -0.14057 0
M  V30 1837 H 172.704 -1.85977 -2.65675 0
M  V30 1838 H 172.489 -3.44839 -1.86625 0
M  V30 1839 H 173.979 -3.10332 -2.79435 0
M  V30 1840 N 174.416 0.165178 -1.56732 0
M  V30 1841 C 175.664 0.879068 -1.8198 0
M  V30 1842 C 175.985 1.82514 -0.686561 0
M  V30 1843 O 175.255 1.93694 0.293146 0
M  V30 1844 H 173.835 0.327608 -0.671329 0
M  V30 1845 H 176.497 0.163526 -1.94213 0
M  V30 1846 H 175.593 1.45228 -2.76252 0
M  V30 1847 N 175.894 1.51508 0.433938 0
M  V30 1848 C 177.171 1.54888 1.19453 0
M  V30 1849 C 177.551 0.315154 2.08734 0
M  V30 1850 O 176.899 -0.699558 2.17528 0
M  V30 1851 C 177.109 2.86467 1.99342 0
M  V30 1852 C 178.457 3.38545 2.56267 0
M  V30 1853 O 179.481 2.88041 2.0955 0
M  V30 1854 O 178.34 4.26675 3.41483 0
M  V30 1855 H 175.434 0.622863 0.544032 0
M  V30 1856 H 177.98 1.63823 0.442732 0
M  V30 1857 H 176.752 3.67718 1.33788 0
M  V30 1858 H 176.375 2.8071 2.8158 0
M  V30 1859 N 177.372 -0.689602 1.41712 0
M  V30 1860 C 178.649 -1.44457 1.31877 0
M  V30 1861 C 179.029 -2.11039 -0.0508537 0
M  V30 1862 O 178.377 -2.02138 -1.06547 0
M  V30 1863 C 178.587 -2.45913 2.47645 0
M  V30 1864 C 179.935 -3.10991 2.89084 0
M  V30 1865 O 180.959 -2.56238 2.47428 0
M  V30 1866 O 179.818 -4.10174 3.61137 0
M  V30 1867 H 176.912 -0.64362 0.519309 0
M  V30 1868 H 179.458 -0.719576 1.53689 0
M  V30 1869 H 178.23 -1.95409 3.39015 0
M  V30 1870 H 177.853 -3.25913 2.27742 0
M  V30 1871 N 178.85 -1.27639 -0.924453 0
M  V30 1872 C 180.09 -1.15407 -1.68703 0
M  V30 1873 C 180.454 0.294581 -1.89727 0
M  V30 1874 O 181.655 0.539385 -2.63333 0
M  V30 1875 C 179.926 -1.9195 -3.0148 0
M  V30 1876 S 181.485 -1.95969 -3.92609 0
M  V30 1877 H 178.303 -0.411937 -0.579507 0
M  V30 1878 H 180.905 -1.61592 -1.10038 0
M  V30 1879 H 179.609 -2.96387 -2.83871 0
M  V30 1880 H 179.14 -1.46272 -3.65196 0
M  V30 1881 H 181.155 -1.05846 -4.84779 0
M  V30 1882 N 180.328 1.1314 -1.09713 0
M  V30 1883 C 181.26 2.18343 -0.697056 0
M  V30 1884 C 182.273 1.60669 0.262551 0
M  V30 1885 O 183.462 1.78435 0.0481527 0
M  V30 1886 C 180.562 3.38899 -0.00684728 0
M  V30 1887 C 179.735 4.26078 -0.988741 0
M  V30 1888 C 178.794 5.25155 -0.331394 0
M  V30 1889 O 177.82 5.60701 -0.979926 0
M  V30 1890 N 179.022 5.73271 0.913261 0
M  V30 1891 H 181.787 2.5328 -1.60216 0
M  V30 1892 H 179.348 1.28491 -0.984971 0
M  V30 1893 H 181.34 4.02255 0.444191 0
M  V30 1894 H 179.91 3.02175 0.800551 0
M  V30 1895 H 179.13 3.59453 -1.61826 0
M  V30 1896 H 180.418 4.81178 -1.65364 0
M  V30 1897 H 179.816 5.46544 1.45966 0
M  V30 1898 H 178.373 6.3855 1.30757 0
M  V30 1899 N 181.806 0.884767 1.30421 0
M  V30 1900 C 182.769 0.356277 2.26414 0
M  V30 1901 C 183.769 -0.501124 1.52792 0
M  V30 1902 O 184.959 -0.30831 1.7145 0
M  V30 1903 C 182.091 -0.492316 3.37326 0
M  V30 1904 H 183.284 1.20389 2.74675 0
M  V30 1905 H 180.837 0.661607 1.41607 0
M  V30 1906 H 181.572 -1.36052 2.94381 0
M  V30 1907 H 181.357 0.121832 3.91911 0
M  V30 1908 H 182.847 -0.853871 4.08777 0
M  V30 1909 N 183.284 -1.43765 0.645699 0
M  V30 1910 C 184.532 -2.01499 0.155731 0
M  V30 1911 C 184.853 -1.51151 -1.232 0
M  V30 1912 O 184.123 -0.721044 -1.82148 0
M  V30 1913 H 182.703 -0.745003 0.0545817 0
M  V30 1914 H 185.365 -1.76075 0.835677 0
M  V30 1915 H 184.461 -3.1181 0.134577 0
M  V30 1916 N 184.763 -0.387143 -1.52771 0
M  V30 1917 C 185.693 0.440551 -2.29306 0
M  V30 1918 C 186.674 1.06535 -1.32606 0
M  V30 1919 O 187.859 1.07853 -1.61497 0
M  V30 1920 C 184.989 1.56919 -3.09829 0
M  V30 1921 C 183.943 1.07054 -4.14395 0
M  V30 1922 C 183.269 2.29109 -4.83129 0
M  V30 1923 C 184.569 0.140015 -5.22112 0
M  V30 1924 H 186.263 -0.198026 -2.98744 0
M  V30 1925 H 183.809 -0.09668 -1.43675 0
M  V30 1926 H 185.762 2.15503 -3.62128 0
M  V30 1927 H 184.486 2.23532 -2.3812 0
M  V30 1928 H 183.145 0.507247 -3.63074 0
M  V30 1929 H 182.793 2.94227 -4.0797 0
M  V30 1930 H 182.493 1.96406 -5.53804 0
M  V30 1931 H 184.017 2.88339 -5.38231 0
M  V30 1932 H 185.431 0.633978 -5.69784 0
M  V30 1933 H 183.828 -0.0971485 -6.00021 0
M  V30 1934 H 184.898 -0.811711 -4.78058 0
M  V30 1935 N 186.241 1.57166 -0.116904 0
M  V30 1936 C 187.189 2.16457 0.851418 0
M  V30 1937 C 188.183 1.11323 1.27686 0
M  V30 1938 O 189.389 1.2963 1.24884 0
M  V30 1939 H 185.764 0.69271 0.292672 0
M  V30 1940 H 187.735 2.96605 0.32685 0
M  V30 1941 C 186.484 2.77689 2.09246 0
M  V30 1942 H 185.807 3.58285 1.77402 0
M  V30 1943 H 187.247 3.22716 2.7501 0
M  V30 1944 C 185.706 1.74667 2.88085 0
M  V30 1945 O 186.236 1.19877 3.83396 0
M  V30 1946 N 184.442 1.44656 2.52038 0
M  V30 1947 H 183.989 1.89402 1.74599 0
M  V30 1948 H 183.947 0.759675 3.05084 0
M  V30 1949 N 187.719 -0.156864 1.56817 0
M  V30 1950 C 188.966 -0.871125 1.82805 0
M  V30 1951 C 189.294 -1.81611 0.696262 0
M  V30 1952 O 188.549 -1.93141 -0.315459 0
M  V30 1953 C 188.848 -1.68737 3.1506 0
M  V30 1954 C 188.514 -0.890045 4.42028 0
M  V30 1955 C 187.176 -0.670042 4.76512 0
M  V30 1956 C 189.528 -0.331769 5.20143 0
M  V30 1957 C 186.856 0.119104 5.86579 0
M  V30 1958 C 189.208 0.444365 6.31037 0
M  V30 1959 C 187.872 0.675035 6.64078 0
M  V30 1960 H 187.142 -0.318767 0.668931 0
M  V30 1961 H 189.789 -0.135274 1.91022 0
M  V30 1962 H 188.094 -2.49304 3.0225 0
M  V30 1963 H 189.791 -2.24331 3.3238 0
M  V30 1964 H 186.381 -1.07157 4.14988 0
M  V30 1965 H 190.565 -0.489043 4.93885 0
M  V30 1966 H 185.821 0.307417 6.10627 0
M  V30 1967 H 189.995 0.884139 6.90765 0
M  V30 1968 H 187.622 1.28839 7.49203 0
M  V30 1969 N 189.197 -1.51736 -0.425897 0
M  V30 1970 C 190.16 -1.73271 -1.50032 0
M  V30 1971 C 191.16 -0.602639 -1.4908 0
M  V30 1972 O 192.35 -0.87033 -1.509 0
M  V30 1973 C 189.482 -1.79969 -2.89523 0
M  V30 1974 H 190.675 -2.69172 -1.32237 0
M  V30 1975 H 188.228 -1.41899 -0.65532 0
M  V30 1976 H 188.963 -0.859241 -3.1271 0
M  V30 1977 H 188.748 -2.62109 -2.91619 0
M  V30 1978 H 190.238 -1.9843 -3.67444 0
M  V30 1979 N 190.675 0.682077 -1.42076 0
M  V30 1980 C 191.952 1.43755 -1.32642 0
M  V30 1981 C 192.332 2.11063 0.0396611 0
M  V30 1982 O 191.68 2.02701 1.05474 0
M  V30 1983 C 191.89 2.44596 -2.48946 0
M  V30 1984 C 193.238 3.09454 -2.9073 0
M  V30 1985 O 194.262 2.54922 -2.48783 0
M  V30 1986 O 193.121 4.08253 -3.63307 0
M  V30 1987 H 190.215 0.640857 -0.522715 0
M  V30 1988 H 192.761 0.711415 -1.54068 0
M  V30 1989 H 191.533 1.93609 -3.40046 0
M  V30 1990 H 191.156 3.24701 -2.29467 0
M  V30 1991 N 192.153 1.28127 0.917671 0
M  V30 1992 C 193.063 1.13556 2.05286 0
M  V30 1993 C 194.079 0.0630914 1.73886 0
M  V30 1994 O 195.255 0.271598 1.9956 0
M  V30 1995 C 192.32 0.794676 3.3747 0
M  V30 1996 C 191.381 1.94909 3.82504 0
M  V30 1997 C 190.614 1.62437 5.0838 0
M  V30 1998 O 190.837 0.536905 5.67867 0
M  V30 1999 O 189.771 2.46677 5.4903 0
M  V30 2000 H 193.597 2.08844 2.20495 0
M  V30 2001 H 191.182 1.07409 1.03845 0
M  V30 2002 H 193.064 0.618344 4.16839 0
M  V30 2003 H 191.739 -0.128581 3.23445 0
M  V30 2004 H 190.646 2.18055 3.03978 0
M  V30 2005 H 191.979 2.85291 4.01086 0
M  V30 2006 N 193.631 -1.12557 1.10312 0
M  V30 2007 C 194.908 -1.80363 0.756878 0
M  V30 2008 C 195.288 -1.97067 -0.756824 0
M  V30 2009 O 194.636 -1.54601 -1.68259 0
M  V30 2010 C 194.846 -3.14812 1.50647 0
M  V30 2011 C 196.194 -3.90029 1.67817 0
M  V30 2012 O 197.218 -3.24464 1.46974 0
M  V30 2013 O 196.077 -5.07652 2.02365 0
M  V30 2014 H 193.171 -0.780667 0.272926 0
M  V30 2015 H 195.717 -1.19404 1.20586 0
M  V30 2016 H 194.489 -2.97936 2.53672 0
M  V30 2017 H 194.112 -3.83478 1.05026 0
M  V30 2018 N 195.109 -0.891671 -1.2995 0
M  V30 2019 C 196.019 -0.367691 -2.31701 0
M  V30 2020 C 197.035 0.533486 -1.6562 0
M  V30 2021 O 198.211 0.424997 -1.96865 0
M  V30 2022 C 195.276 0.403406 -3.44345 0
M  V30 2023 C 194.337 -0.528328 -4.26037 0
M  V30 2024 C 193.57 0.206063 -5.33302 0
M  V30 2025 O 193.793 1.43119 -5.52153 0
M  V30 2026 O 192.727 -0.447281 -6.00236 0
M  V30 2027 H 196.553 -1.21163 -2.78484 0
M  V30 2028 H 194.138 -0.655725 -1.34241 0
M  V30 2029 H 196.02 0.839753 -4.12948 0
M  V30 2030 H 194.695 1.22354 -2.99685 0
M  V30 2031 H 193.602 -1.01362 -3.60106 0
M  V30 2032 H 194.935 -1.31465 -4.74318 0
M  V30 2033 N 196.587 1.43421 -0.653314 0
M  V30 2034 C 197.55 2.29182 0.0287951 0
M  V30 2035 C 198.55 1.42213 0.750465 0
M  V30 2036 O 199.74 1.63843 0.591701 0
M  V30 2037 C 196.872 3.24278 1.05151 0
M  V30 2038 H 198.065 2.90985 -0.725786 0
M  V30 2039 H 195.618 1.50702 -0.414545 0
M  V30 2040 H 196.353 2.6737 1.83532 0
M  V30 2041 H 196.138 3.88396 0.537687 0
M  V30 2042 H 197.628 3.88647 1.52786 0
M  V30 2043 N 198.065 0.39524 1.52563 0
M  V30 2044 C 198.997 -0.472201 2.24283 0
M  V30 2045 C 200.01 -1.02178 1.26742 0
M  V30 2046 O 201.199 -0.923097 1.52778 0
M  V30 2047 C 198.299 -1.66775 2.95024 0
M  V30 2048 C 197.472 -1.2445 4.19322 0
M  V30 2049 C 196.531 -2.30539 4.7301 0
M  V30 2050 O 195.557 -1.91702 5.35947 0
M  V30 2051 N 196.759 -3.6253 4.53379 0
M  V30 2052 H 199.524 0.142282 2.99362 0
M  V30 2053 H 197.085 0.2219 1.60372 0
M  V30 2054 H 199.077 -2.37283 3.27839 0
M  V30 2055 H 197.647 -2.18845 2.23217 0
M  V30 2056 H 196.867 -0.368069 3.92478 0
M  V30 2057 H 198.155 -0.938457 5.0007 0
M  V30 2058 H 197.553 -3.96841 4.03154 0
M  V30 2059 H 196.11 -4.29055 4.90668 0
M  V30 2060 N 199.544 -1.57102 0.125237 0
M  V30 2061 C 200.507 -2.14471 -0.80838 0
M  V30 2062 C 201.507 -1.0811 -1.19033 0
M  V30 2063 O 202.697 -1.33856 -1.11482 0
M  V30 2064 C 199.829 -2.69005 -2.09402 0
M  V30 2065 H 201.022 -2.98297 -0.309696 0
M  V30 2066 H 198.575 -1.55807 -0.124051 0
M  V30 2067 H 199.31 -1.88785 -2.63687 0
M  V30 2068 H 199.095 -3.46799 -1.82957 0
M  V30 2069 H 200.585 -3.13278 -2.76128 0
M  V30 2070 N 201.022 0.148545 -1.56898 0
M  V30 2071 C 202.269 0.861418 -1.83264 0
M  V30 2072 C 202.597 1.81239 -0.705883 0
M  V30 2073 O 201.852 1.93305 0.305212 0
M  V30 2074 C 202.151 1.67064 -3.1595 0
M  V30 2075 C 201.817 0.866591 -4.42494 0
M  V30 2076 C 200.479 0.644762 -4.76861 0
M  V30 2077 C 202.831 0.30418 -5.20312 0
M  V30 2078 C 200.159 -0.15021 -5.86508 0
M  V30 2079 C 202.511 -0.477824 -6.30793 0
M  V30 2080 C 201.175 -0.710244 -6.63711 0
M  V30 2081 H 200.445 0.315215 -0.670612 0
M  V30 2082 H 203.092 0.125142 -1.91091 0
M  V30 2083 H 201.397 2.47698 -3.03567 0
M  V30 2084 H 203.094 2.22566 -3.33565 0
M  V30 2085 H 199.684 1.04955 -4.15551 0
M  V30 2086 H 203.868 0.462844 -4.94137 0
M  V30 2087 H 199.124 -0.339796 -6.10455 0
M  V30 2088 H 203.298 -0.92076 -6.90286 0
M  V30 2089 H 200.925 -1.3281 -7.48509 0
M  V30 2090 N 202.5 1.5196 0.417844 0
M  V30 2091 C 203.916 1.40569 0.755816 0
M  V30 2092 C 204.116 0.503316 1.95113 0
M  V30 2093 O 203.172 -0.0341925 2.52477 0
M  V30 2094 C 204.485 2.82947 1.01791 0
M  V30 2095 C 206.033 2.92231 1.12116 0
M  V30 2096 C 206.508 4.35559 1.41608 0
M  V30 2097 N 207.999 4.38753 1.48491 0
M  V30 2098 C 208.734 5.46705 1.7292 0
M  V30 2099 N 208.23 6.64788 1.95011 0
M  V30 2100 N 210.023 5.34209 1.74863 0
M  V30 2101 H 202.174 2.09168 -0.369098 0
M  V30 2102 H 204.437 0.942409 -0.102809 0
M  V30 2103 H 204.143 3.5106 0.212081 0
M  V30 2104 H 204.017 3.23462 1.94042 0
M  V30 2105 H 206.404 2.24304 1.9176 0
M  V30 2106 H 206.485 2.55185 0.177225 0
M  V30 2107 H 206.129 5.04042 0.624848 0
M  V30 2108 H 206.059 4.70133 2.37239 0
M  V30 2109 H 208.55 3.5363 1.33244 0
M  V30 2110 H 208.863 7.42845 2.13076 0
M  V30 2111 H 207.208 6.67869 1.92293 0
M  V30 2112 H 210.399 4.40937 1.57137 0
M  V30 2113 H 210.572 6.18415 1.93563 0
M  V30 2114 N 203.978 -0.674533 1.42435 0
M  V30 2115 C 204.941 -1.76986 1.45632 0
M  V30 2116 C 205.941 -1.5708 0.343871 0
M  V30 2117 O 207.131 -1.63367 0.604709 0
M  V30 2118 C 204.263 -3.15623 1.28822 0
M  V30 2119 H 205.456 -1.75539 2.43158 0
M  V30 2120 H 203.009 -0.884189 1.28887 0
M  V30 2121 H 203.744 -3.22696 0.322193 0
M  V30 2122 H 203.529 -3.31475 2.09444 0
M  V30 2123 H 205.019 -3.95537 1.33942 0
M  V30 2124 N 205.456 -1.28612 -0.910864 0
M  V30 2125 C 206.386 -1.15326 -2.03032 0
M  V30 2126 C 207.367 -0.0502924 -1.70026 0
M  V30 2127 O 208.552 -0.227797 -1.92859 0
M  V30 2128 C 205.682 -0.817343 -3.37545 0
M  V30 2129 C 204.636 -1.8754 -3.84724 0
M  V30 2130 C 203.962 -1.39305 -5.16235 0
M  V30 2131 C 205.262 -3.28244 -4.06267 0
M  V30 2132 H 206.956 -2.08975 -2.14406 0
M  V30 2133 H 204.502 -1.00612 -1.03021 0
M  V30 2134 H 206.455 -0.711151 -4.15356 0
M  V30 2135 H 205.179 0.154846 -3.26233 0
M  V30 2136 H 203.838 -1.97079 -3.09121 0
M  V30 2137 H 203.486 -0.409846 -5.01328 0
M  V30 2138 H 203.186 -2.10057 -5.48771 0
M  V30 2139 H 204.71 -1.30014 -5.96598 0
M  V30 2140 H 206.124 -3.21611 -4.74594 0
M  V30 2141 H 204.521 -3.96855 -4.5014 0
M  V30 2142 H 205.591 -3.72048 -3.10979 0
M  V30 2143 N 206.934 1.1197 -1.10907 0
M  V30 2144 C 208.18 1.8386 -0.855773 0
M  V30 2145 C 208.513 1.84134 0.617103 0
M  V30 2146 O 207.788 1.29041 1.45529 0
M  V30 2147 C 208.071 3.31305 -1.411 0
M  V30 2148 C 207.924 3.39456 -2.9511 0
M  V30 2149 C 209.243 4.2721 -1.05736 0
M  V30 2150 H 206.362 0.667545 -0.312334 0
M  V30 2151 H 209.004 1.31331 -1.37303 0
M  V30 2152 H 207.154 3.76169 -0.97105 0
M  V30 2153 H 208.826 3.03191 -3.47668 0
M  V30 2154 H 207.069 2.79849 -3.31462 0
M  V30 2155 H 207.74 4.43209 -3.29044 0
M  V30 2156 H 210.216 3.90497 -1.43706 0
M  V30 2157 H 209.092 5.28775 -1.47269 0
M  V30 2158 H 209.353 4.42088 0.0325958 0
M  V30 2159 N 208.412 0.89855 1.29475 0
M  V30 2160 C 209.344 0.332726 2.26772 0
M  V30 2161 C 210.357 -0.520323 1.54261 0
M  V30 2162 O 211.546 -0.337668 1.75277 0
M  V30 2163 C 208.646 -0.544334 3.345 0
M  V30 2164 C 207.819 0.282728 4.36485 0
M  V30 2165 C 206.878 -0.526982 5.23555 0
M  V30 2166 O 205.904 0.0551165 5.69173 0
M  V30 2167 N 207.106 -1.83331 5.5079 0
M  V30 2168 H 209.871 1.16897 2.75962 0
M  V30 2169 H 207.432 0.762919 1.42798 0
M  V30 2170 H 209.424 -1.09239 3.89678 0
M  V30 2171 H 207.994 -1.28127 2.85136 0
M  V30 2172 H 207.214 1.01221 3.80983 0
M  V30 2173 H 208.502 0.84918 5.01664 0
M  V30 2174 H 207.9 -2.32898 5.15534 0
M  V30 2175 H 206.457 -2.32852 6.08788 0
M  V30 2176 N 209.89 -1.43072 0.660911 0
M  V30 2177 C 210.8 -2.34585 -0.0264163 0
M  V30 2178 C 211.816 -1.54316 -0.803898 0
M  V30 2179 O 212.992 -1.86939 -0.749391 0
M  V30 2180 C 210.057 -3.32689 -0.975639 0
M  V30 2181 C 209.118 -4.2886 -0.194236 0
M  V30 2182 C 208.351 -5.22278 -1.09825 0
M  V30 2183 O 208.574 -5.20299 -2.33763 0
M  V30 2184 O 207.508 -5.99228 -0.566513 0
M  V30 2185 H 211.334 -2.94869 0.727034 0
M  V30 2186 H 208.919 -1.43342 0.42111 0
M  V30 2187 H 210.801 -3.92995 -1.52094 0
M  V30 2188 H 209.476 -2.74898 -1.70918 0
M  V30 2189 H 208.383 -3.72011 0.394835 0
M  V30 2190 H 209.716 -4.89655 0.499899 0
M  V30 2191 N 211.368 -0.403325 -1.52352 0
M  V30 2192 C 212.315 0.425011 -2.26853 0
M  V30 2193 C 213.285 1.04598 -1.29029 0
M  V30 2194 O 214.47 1.07135 -1.57882 0
M  V30 2195 C 211.61 1.53888 -3.08889 0
M  V30 2196 C 210.723 0.939396 -4.21663 0
M  V30 2197 C 209.858 2.02547 -4.91068 0
M  V30 2198 C 208.897 1.40263 -5.95813 0
M  V30 2199 N 208.034 2.4286 -6.58759 0
M  V30 2200 H 212.874 -0.21674 -2.97211 0
M  V30 2201 H 210.411 -0.118722 -1.4662 0
M  V30 2202 H 212.369 2.19558 -3.54753 0
M  V30 2203 H 210.999 2.15074 -2.40714 0
M  V30 2204 H 210.051 0.171898 -3.80011 0
M  V30 2205 H 211.363 0.44436 -4.96817 0
M  V30 2206 H 210.517 2.75958 -5.40308 0
M  V30 2207 H 209.256 2.55415 -4.15469 0
M  V30 2208 H 208.261 0.653833 -5.45898 0
M  V30 2209 H 209.486 0.881719 -6.73352 0
M  V30 2210 H 207.432 2.94871 -5.85992 0
M  V30 2211 H 207.349 1.98152 -7.2957 0
M  V30 2212 H 208.617 3.15858 -7.12639 0
M  V30 2213 N 212.846 1.57033 -0.133567 0
M  V30 2214 C 214.095 1.94861 0.520768 0
M  V30 2215 C 214.408 1.02012 1.66892 0
M  V30 2216 O 215.614 1.29365 2.38699 0
M  V30 2217 C 214.07 3.46362 0.977809 0
M  V30 2218 C 213.678 4.47773 -0.142674 0
M  V30 2219 C 215.422 3.93083 1.60269 0
M  V30 2220 C 213.329 5.90468 0.331883 0
M  V30 2221 H 212.259 0.727453 0.198315 0
M  V30 2222 H 214.91 1.82227 -0.215759 0
M  V30 2223 H 213.292 3.54282 1.7692 0
M  V30 2224 H 214.466 4.51536 -0.919317 0
M  V30 2225 H 212.781 4.10891 -0.675124 0
M  V30 2226 H 215.378 4.97121 1.96914 0
M  V30 2227 H 215.721 3.33876 2.48662 0
M  V30 2228 H 216.254 3.88025 0.876453 0
M  V30 2229 H 212.993 6.53463 -0.516341 0
M  V30 2230 H 212.513 5.90094 1.07469 0
M  V30 2231 H 214.192 6.42179 0.788332 0
M  V30 2232 N 214.325 -0.140222 1.56975 0
M  V30 2233 C 215.257 -1.19818 1.95388 0
M  V30 2234 C 216.27 -1.38816 0.850525 0
M  V30 2235 O 217.459 -1.38267 1.12891 0
M  V30 2236 C 214.559 -2.56189 2.21857 0
M  V30 2237 C 213.732 -2.58077 3.5315 0
M  V30 2238 C 212.791 -3.76037 3.6808 0
M  V30 2239 O 211.817 -3.60598 4.40406 0
M  V30 2240 N 213.019 -4.93763 3.05251 0
M  V30 2241 H 215.784 -0.871609 2.86746 0
M  V30 2242 H 213.345 -0.32972 1.58507 0
M  V30 2243 H 215.337 -3.33623 2.2908 0
M  V30 2244 H 213.907 -2.81111 1.36731 0
M  V30 2245 H 213.127 -1.6651 3.57307 0
M  V30 2246 H 214.415 -2.56377 4.39486 0
M  V30 2247 H 213.813 -5.09209 2.46419 0
M  V30 2248 H 212.37 -5.68949 3.18026 0
M  V30 2249 N 215.803 -1.52179 -0.40978 0
M  V30 2250 C 216.75 -1.75475 -1.49924 0
M  V30 2251 C 217.72 -0.597175 -1.54994 0
M  V30 2252 O 218.905 -0.834655 -1.71575 0
M  V30 2253 C 216.045 -1.9107 -2.87378 0
M  V30 2254 C 215.158 -3.18717 -2.91622 0
M  V30 2255 C 214.293 -3.24747 -4.20372 0
M  V30 2256 C 213.332 -4.46598 -4.18588 0
M  V30 2257 N 212.469 -4.50025 -5.38908 0
M  V30 2258 H 217.309 -2.68458 -1.29361 0
M  V30 2259 H 214.846 -1.33024 -0.627934 0
M  V30 2260 H 216.804 -1.98096 -3.6717 0
M  V30 2261 H 215.434 -1.01469 -3.06437 0
M  V30 2262 H 214.486 -3.20866 -2.04326 0
M  V30 2263 H 215.798 -4.08544 -2.86169 0
M  V30 2264 H 214.952 -3.30841 -5.08556 0
M  V30 2265 H 213.691 -2.32857 -4.28519 0
M  V30 2266 H 212.696 -4.40652 -3.28794 0
M  V30 2267 H 213.921 -5.39783 -4.12081 0
M  V30 2268 H 211.867 -3.61017 -5.47725 0
M  V30 2269 H 211.784 -5.33697 -5.35447 0
M  V30 2270 H 213.052 -4.60347 -6.29048 0
M  V30 2271 N 217.281 0.66697 -1.42791 0
M  V30 2272 C 218.697 0.981027 -1.25889 0
M  V30 2273 C 218.897 2.00793 -0.168695 0
M  V30 2274 O 217.953 2.48321 0.45747 0
M  V30 2275 C 219.266 1.47838 -2.61848 0
M  V30 2276 C 220.814 1.59575 -2.69267 0
M  V30 2277 C 221.289 2.12704 -4.05612 0
M  V30 2278 N 222.78 2.20026 -4.07606 0
M  V30 2279 C 223.515 2.62227 -5.09926 0
M  V30 2280 N 223.011 3.03824 -6.22626 0
M  V30 2281 N 224.804 2.62045 -4.97281 0
M  V30 2282 H 216.955 -0.0127891 -2.12396 0
M  V30 2283 H 219.218 0.0568258 -0.946295 0
M  V30 2284 H 218.924 0.798299 -3.4252 0
M  V30 2285 H 218.798 2.45579 -2.86305 0
M  V30 2286 H 221.185 2.26687 -1.88936 0
M  V30 2287 H 221.266 0.60302 -2.48591 0
M  V30 2288 H 220.91 1.46198 -4.86404 0
M  V30 2289 H 220.84 3.12782 -4.23645 0
M  V30 2290 H 223.331 1.90708 -3.2625 0
M  V30 2291 H 223.644 3.34734 -6.96544 0
M  V30 2292 H 221.989 3.01662 -6.26119 0
M  V30 2293 H 225.18 2.28916 -4.08308 0
M  V30 2294 H 225.353 2.94613 -5.77154 0
M  V30 2295 N 218.759 1.29093 0.90403 0
M  V30 2296 C 219.707 1.13727 2.02901 0
M  V30 2297 C 220.701 0.0539853 1.69314 0
M  V30 2298 O 221.907 0.213469 1.7873 0
M  V30 2299 H 218.282 0.35117 0.664969 0
M  V30 2300 H 220.253 2.08982 2.13001 0
M  V30 2301 C 219.002 0.826066 3.37745 0
M  V30 2302 H 218.325 1.65164 3.64089 0
M  V30 2303 H 219.765 0.758559 4.17159 0
M  V30 2304 C 218.224 -0.470541 3.33598 0
M  V30 2305 O 218.754 -1.49792 3.72727 0
M  V30 2306 N 216.96 -0.474812 2.86695 0
M  V30 2307 H 216.507 0.361692 2.55048 0
M  V30 2308 H 216.465 -1.34236 2.84303 0
M  V30 2309 N 220.237 -1.11381 1.11499 0
M  V30 2310 C 221.169 -2.17207 0.731704 0
M  V30 2311 C 222.182 -1.61066 -0.236957 0
M  V30 2312 O 223.371 -1.78489 -0.0197591 0
M  V30 2313 C 220.471 -3.38846 0.0607624 0
M  V30 2314 C 219.644 -4.24451 1.0564 0
M  V30 2315 C 218.703 -5.24562 0.4149 0
M  V30 2316 O 217.729 -5.59071 1.069 0
M  V30 2317 N 218.931 -5.74651 -0.821943 0
M  V30 2318 H 221.696 -2.50699 1.64225 0
M  V30 2319 H 219.257 -1.26908 1.00529 0
M  V30 2320 H 221.249 -4.02911 -0.380139 0
M  V30 2321 H 219.819 -3.03411 -0.752376 0
M  V30 2322 H 219.039 -3.56833 1.67524 0
M  V30 2323 H 220.327 -4.78486 1.72998 0
M  V30 2324 H 219.725 -5.48797 -1.37252 0
M  V30 2325 H 218.282 -6.40549 -1.20582 0
M  V30 2326 N 221.715 -0.905404 -1.28997 0
M  V30 2327 C 223.131 -0.60233 -1.47798 0
M  V30 2328 C 223.331 0.854645 -1.82478 0
M  V30 2329 O 222.387 1.63439 -1.92468 0
M  V30 2330 C 223.7 -1.53306 -2.58685 0
M  V30 2331 C 225.248 -1.53887 -2.72558 0
M  V30 2332 C 225.723 -2.45602 -3.86579 0
M  V30 2333 N 227.214 -2.43681 -3.93921 0
M  V30 2334 C 227.949 -3.11347 -4.81509 0
M  V30 2335 N 227.445 -3.88313 -5.73746 0
M  V30 2336 N 229.238 -3.00476 -4.75048 0
M  V30 2337 H 221.389 -1.84765 -1.04764 0
M  V30 2338 H 223.652 -0.792025 -0.520961 0
M  V30 2339 H 223.358 -2.57141 -2.39941 0
M  V30 2340 H 223.232 -1.25787 -3.55609 0
M  V30 2341 H 225.619 -0.507941 -2.90696 0
M  V30 2342 H 225.7 -1.85447 -1.76191 0
M  V30 2343 H 225.344 -3.48792 -3.69197 0
M  V30 2344 H 225.274 -2.11349 -4.82327 0
M  V30 2345 H 227.765 -1.87767 -3.27951 0
M  V30 2346 H 228.078 -4.36985 -6.37389 0
M  V30 2347 H 226.423 -3.92419 -5.73614 0
M  V30 2348 H 229.614 -2.39858 -4.01977 0
M  V30 2349 H 229.787 -3.53485 -5.43095 0
M  V30 2350 N 223.193 1.4272 -0.668489 0
M  V30 2351 C 224.125 2.2914 0.052613 0
M  V30 2352 C 225.138 1.43339 0.771857 0
M  V30 2353 O 226.327 1.67123 0.627067 0
M  V30 2354 C 223.427 3.20618 1.09804 0
M  V30 2355 C 222.6 4.35039 0.45389 0
M  V30 2356 C 221.659 5.07282 1.39825 0
M  V30 2357 O 220.685 5.62024 0.900978 0
M  V30 2358 N 221.887 5.12206 2.73176 0
M  V30 2359 H 224.652 2.91668 -0.689209 0
M  V30 2360 H 222.213 1.53577 -0.512422 0
M  V30 2361 H 224.205 3.65815 1.73094 0
M  V30 2362 H 222.775 2.59585 1.74167 0
M  V30 2363 H 221.995 3.92567 -0.358396 0
M  V30 2364 H 223.283 5.088 0.00486972 0
M  V30 2365 H 222.681 4.6913 3.16122 0
M  V30 2366 H 221.238 5.61069 3.31729 0
M  V30 2367 N 224.671 0.411399 1.52136 0
M  V30 2368 C 225.896 -0.165538 2.06738 0
M  V30 2369 C 226.321 -1.379 1.27926 0
M  V30 2370 O 225.679 -1.78628 0.310114 0
M  V30 2371 C 225.727 -0.492124 3.57226 0
M  V30 2372 O 224.831 -1.58276 3.80818 0
M  V30 2373 H 224.172 -0.0132132 0.663869 0
M  V30 2374 H 226.702 0.585253 1.96051 0
M  V30 2375 H 226.712 -0.750104 4.01045 0
M  V30 2376 H 225.387 0.394922 4.14021 0
M  V30 2377 H 223.964 -1.31677 3.48877 0
M  V30 2378 N 226.149 -1.5696 0.141893 0
M  V30 2379 C 227.397 -1.95573 -0.509484 0
M  V30 2380 C 227.718 -1.02746 -1.65736 0
M  V30 2381 O 226.988 -0.0880311 -1.95702 0
M  V30 2382 H 225.568 -0.722115 -0.191205 0
M  V30 2383 H 228.23 -1.93697 0.216196 0
M  V30 2384 H 227.326 -2.99171 -0.889 0
M  V30 2385 N 227.627 0.131896 -1.57047 0
M  V30 2386 C 228.904 0.871495 -1.75112 0
M  V30 2387 C 229.284 1.9866 -0.713949 0
M  V30 2388 O 228.632 2.26965 0.264447 0
M  V30 2389 C 228.842 1.40007 -3.19686 0
M  V30 2390 C 230.19 1.85752 -3.81813 0
M  V30 2391 O 231.214 1.49715 -3.23209 0
M  V30 2392 O 230.073 2.5226 -4.84796 0
M  V30 2393 H 227.167 0.412919 -0.716538 0
M  V30 2394 H 229.713 0.116641 -1.69299 0
M  V30 2395 H 228.485 0.599404 -3.86682 0
M  V30 2396 H 228.108 2.218 -3.29986 0
M  V30 2397 N 229.106 1.52395 0.401703 0
M  V30 2398 C 230.522 1.41363 0.740864 0
M  V30 2399 C 230.722 0.523982 1.94568 0
M  V30 2400 O 229.778 -0.00741204 2.52499 0
M  V30 2401 C 231.091 2.84011 0.987847 0
M  V30 2402 C 232.639 2.93404 1.09011 0
M  V30 2403 C 233.114 4.37036 1.3698 0
M  V30 2404 N 234.605 4.40304 1.43829 0
M  V30 2405 C 235.34 5.48508 1.67112 0
M  V30 2406 N 234.836 6.66819 1.87949 0
M  V30 2407 N 236.629 5.36034 1.69187 0
M  V30 2408 H 228.78 2.08765 -0.391262 0
M  V30 2409 H 231.043 0.941265 -0.112798 0
M  V30 2410 H 230.749 3.51265 0.174835 0
M  V30 2411 H 230.623 3.25502 1.906 0
M  V30 2412 H 233.01 2.26325 1.8937 0
M  V30 2413 H 233.091 2.55359 0.15015 0
M  V30 2414 H 232.735 5.04676 0.571353 0
M  V30 2415 H 232.665 4.72623 2.3224 0
M  V30 2416 H 235.156 3.55024 1.29486 0
M  V30 2417 H 235.469 7.45063 2.05185 0
M  V30 2418 H 233.814 6.6987 1.85199 0
M  V30 2419 H 237.005 4.42579 1.52451 0
M  V30 2420 H 237.178 6.20434 1.86993 0
M  V30 2421 N 230.584 -0.659388 1.43143 0
M  V30 2422 C 232 -0.974337 1.26407 0
M  V30 2423 C 232.2 -2.007 0.179341 0
M  V30 2424 O 231.256 -2.4856 -0.444295 0
M  V30 2425 C 232.569 -1.46447 2.62628 0
M  V30 2426 C 234.117 -1.58144 2.7011 0
M  V30 2427 C 234.592 -2.1055 4.06734 0
M  V30 2428 N 236.083 -2.17861 4.08767 0
M  V30 2429 C 236.818 -2.59519 5.1131 0
M  V30 2430 N 236.314 -3.00518 6.24228 0
M  V30 2431 N 238.107 -2.59404 4.98664 0
M  V30 2432 H 230.258 0.0240528 2.12386 0
M  V30 2433 H 232.521 -0.0518065 0.946583 0
M  V30 2434 H 232.227 -0.780123 3.42939 0
M  V30 2435 H 232.101 -2.44058 2.87603 0
M  V30 2436 H 234.488 -2.25682 1.90136 0
M  V30 2437 H 234.569 -0.589828 2.48907 0
M  V30 2438 H 234.213 -1.43616 4.87172 0
M  V30 2439 H 234.143 -3.10531 4.25298 0
M  V30 2440 H 236.634 -1.88975 3.27257 0
M  V30 2441 H 236.947 -3.31036 6.98309 0
M  V30 2442 H 235.292 -2.98337 6.2771 0
M  V30 2443 H 238.483 -2.26747 4.09516 0
M  V30 2444 H 238.656 -2.91548 5.78709 0
M  V30 2445 N 232.062 -1.29571 -0.897171 0
M  V30 2446 C 232.994 -1.10724 -2.00681 0
M  V30 2447 C 234.007 -0.0540026 -1.6271 0
M  V30 2448 O 235.196 -0.298783 -1.75982 0
M  V30 2449 C 232.296 -0.663912 -3.32333 0
M  V30 2450 C 231.469 -1.79622 -3.98816 0
M  V30 2451 C 230.528 -1.34349 -5.0876 0
M  V30 2452 O 229.554 -2.04864 -5.31055 0
M  V30 2453 N 230.756 -0.215764 -5.80099 0
M  V30 2454 H 233.521 -2.06291 -2.17403 0
M  V30 2455 H 231.082 -1.21544 -1.06951 0
M  V30 2456 H 233.074 -0.344295 -4.03233 0
M  V30 2457 H 231.644 0.199375 -3.11964 0
M  V30 2458 H 230.864 -2.28459 -3.21248 0
M  V30 2459 H 232.152 -2.55535 -4.39976 0
M  V30 2460 H 231.55 0.372091 -5.64475 0
M  V30 2461 H 230.107 0.0444707 -6.51785 0
M  V30 2462 N 233.54 1.10788 -1.12088 0
M  V30 2463 C 234.47 2.19083 -0.807755 0
M  V30 2464 C 235.451 1.6858 0.226859 0
M  V30 2465 O 236.636 1.93997 0.0888475 0
M  V30 2466 C 233.766 3.46344 -0.257576 0
M  V30 2467 C 232.72 4.101 -1.22483 0
M  V30 2468 C 232.046 5.32016 -0.535052 0
M  V30 2469 C 233.346 4.54236 -2.57811 0
M  V30 2470 H 235.04 2.45534 -1.71328 0
M  V30 2471 H 232.586 1.1801 -0.825205 0
M  V30 2472 H 234.539 4.21392 -0.0262679 0
M  V30 2473 H 233.263 3.19373 0.683278 0
M  V30 2474 H 231.922 3.37054 -1.44189 0
M  V30 2475 H 231.57 5.01319 0.410827 0
M  V30 2476 H 231.27 5.75625 -1.18024 0
M  V30 2477 H 232.794 6.09799 -0.312695 0
M  V30 2478 H 234.208 5.20575 -2.40155 0
M  V30 2479 H 232.605 5.08682 -3.18375 0
M  V30 2480 H 233.675 3.6734 -3.16528 0
M  V30 2481 N 235.018 0.912232 1.28515 0
M  V30 2482 C 236.429 0.591352 1.77087 0
M  V30 2483 C 236.78 -0.8933 1.74684 0
M  V30 2484 O 235.905 -1.69876 1.34056 0
M  V30 2485 C 236.5 1.06668 3.2157 0
M  V30 2486 C 235.059 0.79675 3.67871 0
M  V30 2487 C 234.206 1.23427 2.48316 0
M  V30 2488 H 237.157 1.09365 1.15 0
M  V30 2489 H 237.178 0.407455 3.78312 0
M  V30 2490 H 236.69 2.14726 3.23287 0
M  V30 2491 H 234.791 -0.270679 3.71616 0
M  V30 2492 H 234.904 1.40343 4.58084 0
M  V30 2493 H 233.268 0.653036 2.46186 0
M  V30 2494 H 234.051 2.32316 2.52753 0
M  V30 2495 N 236.496 -1.42363 0.676048 0
M  V30 2496 C 237.907 -1.84649 0.275948 0
M  V30 2497 C 238.258 -1.56588 -1.18214 0
M  V30 2498 O 237.383 -1.02634 -1.90513 0
M  V30 2499 C 237.978 -3.35178 0.494053 0
M  V30 2500 C 236.537 -3.76109 0.148061 0
M  V30 2501 C 235.684 -2.65931 0.785891 0
M  V30 2502 H 238.635 -1.32192 0.878121 0
M  V30 2503 H 238.656 -3.79655 -0.25343 0
M  V30 2504 H 238.168 -3.55571 1.55535 0
M  V30 2505 H 236.269 -3.61323 -0.909742 0
M  V30 2506 H 236.382 -4.7546 0.589454 0
M  V30 2507 H 234.746 -2.53773 0.217113 0
M  V30 2508 H 235.529 -2.89146 1.85067 0
M  V30 2509 N 237.974 -0.419461 -1.51915 0
M  V30 2510 C 239.385 0.0477853 -1.86639 0
M  V30 2511 C 239.736 1.43531 -1.33766 0
M  V30 2512 O 238.861 2.05401 -0.68113 0
M  V30 2513 C 239.456 0.0934885 -3.38671 0
M  V30 2514 C 238.015 0.505097 -3.72996 0
M  V30 2515 C 237.162 -0.313792 -2.75519 0
M  V30 2516 H 240.113 -0.636088 -1.45395 0
M  V30 2517 H 240.134 0.906667 -3.6954 0
M  V30 2518 H 239.646 -0.916501 -3.77123 0
M  V30 2519 H 237.747 1.52135 -3.40126 0
M  V30 2520 H 237.86 0.242309 -4.78487 0
M  V30 2521 H 236.224 0.225363 -2.53701 0
M  V30 2522 H 237.007 -1.32232 -3.16812 0
M  V30 2523 N 239.452 1.56882 -0.150215 0
M  V30 2524 C 240.863 1.82995 0.370076 0
M  V30 2525 C 241.214 1.06907 1.64515 0
M  V30 2526 O 240.339 0.315369 2.1409 0
M  V30 2527 C 240.934 3.31942 0.678208 0
M  V30 2528 C 239.493 3.58625 1.14301 0
M  V30 2529 C 238.64 2.76792 0.167778 0
M  V30 2530 H 241.591 1.54209 -0.374858 0
M  V30 2531 H 241.612 3.48272 1.53254 0
M  V30 2532 H 241.124 3.87294 -0.249991 0
M  V30 2533 H 239.225 3.08664 2.08704 0
M  V30 2534 H 239.338 4.67073 1.06676 0
M  V30 2535 H 237.702 2.45972 0.661037 0
M  V30 2536 H 238.485 3.34916 -0.754069 0
M  V30 2537 N 240.93 -0.123565 1.57115 0
M  V30 2538 C 242.158 -0.846461 1.88793 0
M  V30 2539 C 242.573 -1.73652 0.740976 0
M  V30 2540 O 241.93 -1.80207 -0.288393 0
M  V30 2541 C 241.981 -1.6837 3.19897 0
M  V30 2542 O 241.702 -0.829477 4.30176 0
M  V30 2543 C 243.203 -2.51214 3.65248 0
M  V30 2544 H 240.423 -0.243573 0.625231 0
M  V30 2545 H 242.967 -0.109324 2.04208 0
M  V30 2546 H 241.122 -2.37364 3.06165 0
M  V30 2547 H 241.536 -1.40651 5.0529 0
M  V30 2548 H 243.01 -3.05497 4.59756 0
M  V30 2549 H 243.487 -3.28359 2.9168 0
M  V30 2550 H 244.093 -1.8747 3.81752 0
M  V30 2551 N 242.408 -1.52605 -0.393616 0
M  V30 2552 C 243.819 -1.59417 -0.971761 0
M  V30 2553 C 244.17 -0.444173 -1.91106 0
M  V30 2554 O 243.295 0.433382 -2.12016 0
M  V30 2555 C 243.89 -2.88936 -1.76921 0
M  V30 2556 C 242.449 -2.98175 -2.29714 0
M  V30 2557 C 241.596 -2.54491 -1.10135 0
M  V30 2558 H 244.547 -1.57751 -0.173317 0
M  V30 2559 H 244.568 -2.75163 -2.62804 0
M  V30 2560 H 244.08 -3.72616 -1.08532 0
M  V30 2561 H 242.181 -2.19024 -3.01429 0
M  V30 2562 H 242.294 -4.02726 -2.59517 0
M  V30 2563 H 240.658 -2.08702 -1.45999 0
M  V30 2564 H 241.441 -3.4056 -0.432874 0
M  V30 2565 N 243.887 0.651787 -1.4349 0
M  V30 2566 C 244.85 1.74647 -1.48429 0
M  V30 2567 C 245.85 1.56513 -0.368817 0
M  V30 2568 O 247.04 1.62385 -0.630623 0
M  V30 2569 C 244.172 3.13533 -1.33827 0
M  V30 2570 H 245.365 1.71649 -2.4592 0
M  V30 2571 H 242.918 0.863573 -1.30277 0
M  V30 2572 H 243.653 3.22142 -0.37349 0
M  V30 2573 H 243.438 3.28101 -2.14691 0
M  V30 2574 H 244.928 3.93356 -1.40218 0
M  V30 2575 N 245.365 1.30045 0.890287 0
M  V30 2576 C 246.313 1.15873 2.01683 0
M  V30 2577 C 247.307 0.0719403 1.69247 0
M  V30 2578 O 248.513 0.232414 1.78493 0
M  V30 2579 H 244.888 0.358203 0.661207 0
M  V30 2580 H 246.859 2.11229 2.10772 0
M  V30 2581 C 245.608 0.861842 3.36849 0
M  V30 2582 H 244.931 1.69016 3.62317 0
M  V30 2583 H 246.371 0.802762 4.16331 0
M  V30 2584 C 244.83 -0.435132 3.34078 0
M  V30 2585 O 245.36 -1.4583 3.74295 0
M  V30 2586 N 243.566 -0.444377 2.87182 0
M  V30 2587 H 243.113 0.388723 2.5465 0
M  V30 2588 H 243.071 -1.31213 2.85711 0
M  V30 2589 N 246.843 -1.10192 1.12674 0
M  V30 2590 C 247.753 -2.20172 0.810026 0
M  V30 2591 C 248.769 -1.72821 -0.202188 0
M  V30 2592 O 249.945 -2.01369 -0.0351691 0
M  V30 2593 C 247.01 -3.45631 0.272007 0
M  V30 2594 C 246.071 -4.07704 1.34447 0
M  V30 2595 C 245.304 -5.27175 0.832029 0
M  V30 2596 O 245.527 -5.69425 -0.333284 0
M  V30 2597 O 244.461 -5.80168 1.60277 0
M  V30 2598 H 248.287 -2.49701 1.72867 0
M  V30 2599 H 245.872 -1.18977 0.903597 0
M  V30 2600 H 247.754 -4.21394 -0.0230219 0
M  V30 2601 H 246.429 -3.17723 -0.619164 0
M  V30 2602 H 245.336 -3.33614 1.6927 0
M  V30 2603 H 246.669 -4.3982 2.2095 0
M  V30 2604 N 248.321 -0.919034 -1.28029 0
M  V30 2605 C 249.231 -0.416756 -2.30869 0
M  V30 2606 C 250.247 0.498235 -1.66714 0
M  V30 2607 O 251.423 0.383144 -1.97722 0
M  V30 2608 C 248.488 0.330274 -3.45123 0
M  V30 2609 C 247.549 -0.618578 -4.2482 0
M  V30 2610 C 246.782 0.0928959 -5.33619 0
M  V30 2611 O 247.005 1.31375 -5.55065 0
M  V30 2612 O 245.939 -0.574499 -5.99152 0
M  V30 2613 H 249.765 -1.27043 -2.75851 0
M  V30 2614 H 247.35 -0.684052 -1.3282 0
M  V30 2615 H 249.232 0.751972 -4.14636 0
M  V30 2616 H 247.907 1.1597 -3.02213 0
M  V30 2617 H 246.814 -1.08978 -3.57875 0
M  V30 2618 H 248.147 -1.41497 -4.71423 0
M  V30 2619 N 249.799 1.42003 -0.683588 0
M  V30 2620 C 251.215 1.55625 -0.353976 0
M  V30 2621 C 251.415 1.66151 1.14 0
M  V30 2622 O 250.471 1.63329 1.92561 0
M  V30 2623 C 251.784 2.80171 -1.092 0
M  V30 2624 C 253.332 2.93954 -1.07518 0
M  V30 2625 C 253.807 4.21372 -1.79471 0
M  V30 2626 N 255.298 4.28303 -1.76381 0
M  V30 2627 C 256.033 5.25729 -2.28904 0
M  V30 2628 N 255.529 6.29254 -2.89846 0
M  V30 2629 N 257.322 5.17586 -2.19228 0
M  V30 2630 H 249.473 1.33415 -1.6527 0
M  V30 2631 H 251.736 0.64282 -0.696769 0
M  V30 2632 H 251.442 2.78561 -2.14701 0
M  V30 2633 H 251.316 3.7133 -0.662862 0
M  V30 2634 H 253.703 2.95086 -0.028475 0
M  V30 2635 H 253.784 2.04002 -1.54328 0
M  V30 2636 H 253.428 4.21001 -2.84114 0
M  V30 2637 H 253.358 5.10275 -1.30104 0
M  V30 2638 H 255.849 3.54119 -1.31939 0
M  V30 2639 H 256.162 6.99964 -3.27522 0
M  V30 2640 H 254.507 6.29791 -2.93919 0
M  V30 2641 H 257.698 4.35631 -1.71299 0
M  V30 2642 H 257.871 5.93348 -2.60466 0
M  V30 2643 N 251.277 0.427512 1.51691 0
M  V30 2644 C 252.693 0.0792977 1.59403 0
M  V30 2645 C 252.893 -1.41035 1.43914 0
M  V30 2646 O 251.949 -2.17922 1.27539 0
M  V30 2647 C 253.262 0.590636 2.94842 0
M  V30 2648 C 254.81 0.550215 3.08126 0
M  V30 2649 C 255.285 1.03836 4.46074 0
M  V30 2650 N 256.776 0.995943 4.52366 0
M  V30 2651 C 257.511 1.34463 5.57411 0
M  V30 2652 N 257.007 1.76569 6.69922 0
M  V30 2653 N 258.8 1.26343 5.47717 0
M  V30 2654 H 250.951 1.39687 1.60004 0
M  V30 2655 H 253.214 0.575003 0.753708 0
M  V30 2656 H 252.92 1.63251 3.11516 0
M  V30 2657 H 252.794 0.0102061 3.77199 0
M  V30 2658 H 255.181 -0.482654 2.91126 0
M  V30 2659 H 255.262 1.16693 2.27632 0
M  V30 2660 H 254.906 2.06965 4.63819 0
M  V30 2661 H 254.836 0.398286 5.25092 0
M  V30 2662 H 257.327 0.68661 3.7161 0
M  V30 2663 H 257.64 2.01438 7.46085 0
M  V30 2664 H 255.985 1.80488 6.71155 0
M  V30 2665 H 259.176 0.933209 4.58703 0
M  V30 2666 H 259.349 1.53846 6.29472 0
M  V30 2667 N 252.755 -1.56801 0.158532 0
M  V30 2668 C 254.003 -1.96102 -0.488712 0
M  V30 2669 C 254.324 -1.04498 -1.64636 0
M  V30 2670 O 253.594 -0.108783 -1.95598 0
M  V30 2671 H 252.174 -0.724102 -0.183535 0
M  V30 2672 H 254.836 -1.93457 0.236728 0
M  V30 2673 H 253.932 -3.00097 -0.857219 0
M  V30 2674 N 254.233 0.115231 -1.57178 0
M  V30 2675 C 255.481 0.820727 -1.84685 0
M  V30 2676 C 255.802 1.80237 -0.744279 0
M  V30 2677 O 255.072 1.94529 0.231375 0
M  V30 2678 H 253.652 0.306084 -0.681411 0
M  V30 2679 H 256.314 0.101656 -1.94635 0
M  V30 2680 H 255.41 1.36366 -2.80733 0
M  V30 2681 N 255.711 1.52812 0.385517 0
M  V30 2682 C 256.641 1.80808 1.47752 0
M  V30 2683 C 257.622 0.660318 1.5676 0
M  V30 2684 O 258.807 0.908246 1.71652 0
M  V30 2685 C 255.937 1.98008 2.85324 0
M  V30 2686 C 254.891 3.13709 2.91154 0
M  V30 2687 C 254.217 3.16169 4.31209 0
M  V30 2688 C 255.517 4.52709 2.60483 0
M  V30 2689 H 257.211 2.72253 1.24573 0
M  V30 2690 H 254.757 1.31003 0.597839 0
M  V30 2691 H 256.71 2.16176 3.61726 0
M  V30 2692 H 255.434 1.03255 3.09848 0
M  V30 2693 H 254.093 2.95329 2.17201 0
M  V30 2694 H 253.741 2.19092 4.52778 0
M  V30 2695 H 253.441 3.93894 4.36029 0
M  V30 2696 H 254.965 3.36496 5.09512 0
M  V30 2697 H 256.379 4.71173 3.26602 0
M  V30 2698 H 254.776 5.32528 2.76648 0
M  V30 2699 H 255.846 4.59186 1.55809 0
M  V30 2700 N 257.189 -0.644168 1.43834 0
M  V30 2701 C 258.6 -1.22554 1.40845 0
M  V30 2702 C 258.951 -1.9585 0.117115 0
M  V30 2703 O 258.076 -2.01734 -0.783086 0
M  V30 2704 C 258.671 -2.22907 2.55143 0
M  V30 2705 C 257.23 -2.76501 2.5539 0
M  V30 2706 C 256.377 -1.51287 2.32396 0
M  V30 2707 H 259.328 -0.43563 1.52604 0
M  V30 2708 H 259.349 -3.05259 2.2715 0
M  V30 2709 H 258.861 -1.69533 3.49114 0
M  V30 2710 H 256.962 -3.33914 1.65324 0
M  V30 2711 H 257.075 -3.23429 3.53455 0
M  V30 2712 H 255.439 -1.78957 1.81236 0
M  V30 2713 H 256.222 -0.998336 3.28463 0
M  V30 2714 N 258.668 -1.30515 -0.883378 0
M  V30 2715 C 260.079 -1.17509 -1.45081 0
M  V30 2716 C 260.43 0.223605 -1.94922 0
M  V30 2717 O 259.555 1.12041 -1.85137 0
M  V30 2718 C 260.15 -2.12715 -2.63701 0
M  V30 2719 C 258.709 -2.03682 -3.16529 0
M  V30 2720 C 257.856 -2.02706 -1.89224 0
M  V30 2721 H 260.807 -1.42762 -0.693165 0
M  V30 2722 H 260.828 -1.70891 -3.39965 0
M  V30 2723 H 260.34 -3.14505 -2.27395 0
M  V30 2724 H 258.441 -1.05039 -3.57488 0
M  V30 2725 H 258.554 -2.92146 -3.7972 0
M  V30 2726 H 256.918 -1.4753 -2.07622 0
M  V30 2727 H 257.701 -3.06229 -1.55174 0
M  V30 2728 N 260.146 1.09593 -1.13257 0
M  V30 2729 C 261.076 2.18214 -0.830946 0
M  V30 2730 C 262.057 1.68812 0.208966 0
M  V30 2731 O 263.242 1.9408 0.0682666 0
M  V30 2732 C 260.372 3.46051 -0.294296 0
M  V30 2733 C 259.326 4.08778 -1.26826 0
M  V30 2734 C 258.652 5.31419 -0.591449 0
M  V30 2735 C 259.952 4.51476 -2.62615 0
M  V30 2736 H 261.646 2.43703 -1.73923 0
M  V30 2737 H 259.192 1.17128 -0.837675 0
M  V30 2738 H 261.145 4.2134 -0.0709606 0
M  V30 2739 H 259.869 3.20079 0.649366 0
M  V30 2740 H 258.528 3.35505 -1.47756 0
M  V30 2741 H 258.176 5.01727 0.357633 0
M  V30 2742 H 257.876 5.74341 -1.24123 0
M  V30 2743 H 259.4 6.09433 -0.377355 0
M  V30 2744 H 260.814 5.17999 -2.45663 0
M  V30 2745 H 259.211 5.05277 -3.23752 0
M  V30 2746 H 260.281 3.63962 -3.20406 0
M  V30 2747 N 261.624 0.925811 1.2754 0
M  V30 2748 C 263.035 0.610102 1.7645 0
M  V30 2749 C 263.386 -0.874723 1.75622 0
M  V30 2750 O 262.511 -1.68444 1.35851 0
M  V30 2751 C 263.106 1.10073 3.20421 0
M  V30 2752 C 261.665 0.835723 3.67005 0
M  V30 2753 C 260.812 1.26054 2.46993 0
M  V30 2754 H 263.763 1.10579 1.13833 0
M  V30 2755 H 263.784 0.447557 3.77859 0
M  V30 2756 H 263.296 2.18143 3.20991 0
M  V30 2757 H 261.397 -0.231249 3.71882 0
M  V30 2758 H 261.51 1.45193 4.56569 0
M  V30 2759 H 259.874 0.679111 2.45479 0
M  V30 2760 H 260.657 2.34984 2.50275 0
M  V30 2761 N 263.102 -1.41638 0.69111 0
M  V30 2762 C 264.032 -2.3347 0.037248 0
M  V30 2763 C 265.013 -1.51575 -0.771947 0
M  V30 2764 O 266.198 -1.80126 -0.72582 0
M  V30 2765 C 263.328 -3.35354 -0.903064 0
M  V30 2766 C 262.282 -4.27526 -0.201288 0
M  V30 2767 C 261.608 -5.19747 -1.25565 0
M  V30 2768 C 262.908 -5.13959 0.929689 0
M  V30 2769 H 264.602 -2.88397 0.804227 0
M  V30 2770 H 262.148 -1.38669 0.388189 0
M  V30 2771 H 264.101 -3.98519 -1.36969 0
M  V30 2772 H 262.825 -2.78767 -1.70166 0
M  V30 2773 H 261.484 -3.65779 0.245265 0
M  V30 2774 H 261.132 -4.59479 -2.04666 0
M  V30 2775 H 260.832 -5.8225 -0.791128 0
M  V30 2776 H 262.356 -5.85789 -1.72288 0
M  V30 2777 H 263.77 -5.70718 0.543546 0
M  V30 2778 H 262.167 -5.85379 1.32103 0
M  V30 2779 H 263.237 -4.51389 1.77133 0
M  V30 2780 N 264.58 -0.43555 -1.51462 0
M  V30 2781 C 265.53 0.394701 -2.24558 0
M  V30 2782 C 266.514 0.99157 -1.26715 0
M  V30 2783 O 267.706 0.910007 -1.51815 0
M  V30 2784 C 264.835 1.4963 -3.08975 0
M  V30 2785 C 263.921 0.908912 -4.14246 0
M  V30 2786 N 264.312 0.0505335 -5.05775 0
M  V30 2787 C 262.61 1.17668 -4.30198 0
M  V30 2788 C 263.311 -0.279161 -5.8103 0
M  V30 2789 N 262.287 0.336767 -5.42556 0
M  V30 2790 H 266.089 -0.267106 -2.92684 0
M  V30 2791 H 263.603 -0.247518 -1.60503 0
M  V30 2792 H 265.6 2.10394 -3.59917 0
M  V30 2793 H 264.26 2.16046 -2.42393 0
M  V30 2794 H 265.271 -0.31577 -5.16936 0
M  V30 2795 H 261.948 1.83847 -3.74842 0
M  V30 2796 H 263.338 -0.977553 -6.64751 0
M  V30 2797 N 266.058 1.56714 -0.166846 0
M  V30 2798 C 267.469 1.83378 0.350646 0
M  V30 2799 C 267.82 1.08646 1.63372 0
M  V30 2800 O 266.945 0.338058 2.13743 0
M  V30 2801 C 267.54 3.32643 0.642963 0
M  V30 2802 C 266.099 3.59818 1.10491 0
M  V30 2803 C 265.246 2.76954 0.138411 0
M  V30 2804 H 268.197 1.53803 -0.391193 0
M  V30 2805 H 268.218 3.49878 1.49551 0
M  V30 2806 H 267.73 3.87007 -0.291055 0
M  V30 2807 H 265.831 3.1086 2.05418 0
M  V30 2808 H 265.944 4.68178 1.01716 0
M  V30 2809 H 264.308 2.4666 0.634911 0
M  V30 2810 H 265.091 3.34097 -0.789549 0
M  V30 2811 N 267.536 -0.106894 1.57237 0
M  V30 2812 C 268.784 -0.810921 1.85117 0
M  V30 2813 C 269.105 -1.7984 0.753827 0
M  V30 2814 O 268.375 -1.94649 -0.221056 0
M  V30 2815 H 266.955 -0.302466 0.683025 0
M  V30 2816 H 269.617 -0.0913324 1.94686 0
M  V30 2817 H 268.713 -1.34875 2.81452 0
M  V30 2818 N 269.014 -1.53014 -0.377408 0
M  V30 2819 C 270.262 -1.6829 -1.11906 0
M  V30 2820 C 270.583 -0.431206 -1.90173 0
M  V30 2821 O 269.853 0.554595 -1.87886 0
M  V30 2822 H 268.433 -0.620371 -0.416112 0
M  V30 2823 H 271.095 -1.90167 -0.426893 0
M  V30 2824 H 270.191 -2.53862 -1.8155 0
M  V30 2825 N 270.492 0.636531 -1.44174 0
M  V30 2826 C 271.769 1.39463 -1.37148 0
M  V30 2827 C 272.149 2.11082 -0.027507 0
M  V30 2828 O 271.497 2.05954 0.989716 0
M  V30 2829 C 271.707 2.36552 -2.56601 0
M  V30 2830 C 273.055 3.00048 -3.00427 0
M  V30 2831 O 274.079 2.46878 -2.56767 0
M  V30 2832 O 272.938 3.96488 -3.76111 0
M  V30 2833 H 270.032 0.623903 -0.542839 0
M  V30 2834 H 272.578 0.662039 -1.56253 0
M  V30 2835 H 271.35 1.82692 -3.46034 0
M  V30 2836 H 270.973 3.17236 -2.39681 0
M  V30 2837 N 271.97 1.30982 0.876444 0
M  V30 2838 C 272.902 1.13902 1.98894 0
M  V30 2839 C 273.915 0.0798815 1.62604 0
M  V30 2840 O 275.104 0.326743 1.75484 0
M  V30 2841 C 272.204 0.716699 3.31235 0
M  V30 2842 C 271.377 1.85945 3.95908 0
M  V30 2843 C 270.436 1.42426 5.06558 0
M  V30 2844 O 269.462 2.13287 5.27729 0
M  V30 2845 N 270.664 0.308025 5.79682 0
M  V30 2846 H 273.429 2.09724 2.14094 0
M  V30 2847 H 270.99 1.2323 1.05004 0
M  V30 2848 H 272.982 0.408403 4.02634 0
M  V30 2849 H 271.552 -0.149719 3.12241 0
M  V30 2850 H 270.772 2.33541 3.17573 0
M  V30 2851 H 272.06 2.62503 4.35855 0
M  V30 2852 H 271.458 -0.282241 5.64995 0
M  V30 2853 H 270.015 0.0592282 6.51773 0
M  V30 2854 N 273.449 -1.08991 1.13837 0
M  V30 2855 C 274.697 -1.80899 0.901098 0
M  V30 2856 C 275.018 -1.86356 -0.574134 0
M  V30 2857 O 274.288 -1.35235 -1.41733 0
M  V30 2858 H 272.868 -0.669966 0.330386 0
M  V30 2859 H 275.53 -1.318 1.43578 0
M  V30 2860 H 274.626 -2.83929 1.29578 0
M  V30 2861 N 274.927 -0.932562 -1.27047 0
M  V30 2862 C 276.175 -0.574422 -1.93765 0
M  V30 2863 C 276.496 0.887993 -1.73608 0
M  V30 2864 O 275.766 1.62999 -1.08665 0
M  V30 2865 H 274.346 -0.209451 -0.717035 0
M  V30 2866 H 277.008 -1.18601 -1.5466 0
M  V30 2867 H 276.104 -0.784841 -3.02071 0
M  V30 2868 N 276.405 1.4127 -0.698611 0
M  V30 2869 C 277.816 1.84187 -0.305289 0
M  V30 2870 C 278.167 1.58449 1.15708 0
M  V30 2871 O 277.292 1.05651 1.88856 0
M  V30 2872 C 277.887 3.3435 -0.547314 0
M  V30 2873 C 276.446 3.75826 -0.207878 0
M  V30 2874 C 275.593 2.64647 -0.828099 0
M  V30 2875 H 278.544 1.30778 -0.89904 0
M  V30 2876 H 278.565 3.8001 0.192998 0
M  V30 2877 H 278.077 3.53051 -1.61172 0
M  V30 2878 H 276.178 3.62725 0.852143 0
M  V30 2879 H 276.291 4.74462 -0.665021 0
M  V30 2880 H 274.655 2.53395 -0.257458 0
M  V30 2881 H 275.438 2.86165 -1.89643 0
M  V30 2882 N 277.883 0.443576 1.51229 0
M  V30 2883 C 279.294 -0.0180867 1.86691 0
M  V30 2884 C 279.645 -1.41384 1.36033 0
M  V30 2885 O 278.77 -2.04291 0.713722 0
M  V30 2886 C 279.365 -0.039597 3.38777 0
M  V30 2887 C 277.924 -0.445692 3.73752 0
M  V30 2888 C 277.071 0.357584 2.74985 0
M  V30 2889 H 280.022 0.659138 1.44364 0
M  V30 2890 H 280.043 -0.847761 3.70936 0
M  V30 2891 H 279.555 0.976382 3.75617 0
M  V30 2892 H 277.656 -1.46704 3.42503 0
M  V30 2893 H 277.769 -0.166155 4.78812 0
M  V30 2894 H 276.133 -0.184973 2.54027 0
M  V30 2895 H 276.916 1.37256 3.14668 0
M  V30 2896 N 279.361 -1.56624 0.175154 0
M  V30 2897 C 280.607 -1.9729 -0.469506 0
M  V30 2898 C 280.94 -1.06128 -1.62636 0
M  V30 2899 O 280.215 -0.109183 -1.94193 0
M  V30 2900 C 280.498 -3.47375 -0.948804 0
M  V30 2901 C 280.351 -4.49317 0.208491 0
M  V30 2902 C 281.67 -4.00652 -1.82116 0
M  V30 2903 H 278.789 -0.717317 -0.16919 0
M  V30 2904 H 281.431 -1.88184 0.262062 0
M  V30 2905 H 279.581 -3.55267 -1.57219 0
M  V30 2906 H 281.253 -4.53482 0.845682 0
M  V30 2907 H 279.496 -4.25121 0.863395 0
M  V30 2908 H 280.167 -5.51741 -0.169059 0
M  V30 2909 H 282.643 -3.95416 -1.2956 0
M  V30 2910 H 281.519 -5.06075 -2.12554 0
M  V30 2911 H 281.78 -3.44699 -2.7683 0
M  V30 2912 N 280.839 0.0985539 -1.57292 0
M  V30 2913 C 282.087 0.801092 -1.85545 0
M  V30 2914 C 282.408 1.79438 -0.763353 0
M  V30 2915 O 281.678 1.94763 0.21073 0
M  V30 2916 H 280.258 0.29884 -0.684619 0
M  V30 2917 H 282.92 0.0810064 -1.94732 0
M  V30 2918 H 282.016 1.3338 -2.82163 0
M  V30 2919 N 282.317 1.53212 0.369288 0
M  V30 2920 C 283.728 1.60943 0.946276 0
M  V30 2921 C 284.079 0.47452 1.90375 0
M  V30 2922 O 283.204 -0.399597 2.12679 0
M  V30 2923 C 283.799 2.91715 1.72302 0
M  V30 2924 C 282.358 3.01792 2.24941 0
M  V30 2925 C 281.505 2.56211 1.06072 0
M  V30 2926 H 284.456 1.58007 0.148198 0
M  V30 2927 H 284.477 2.79309 2.58393 0
M  V30 2928 H 283.989 3.74295 1.0259 0
M  V30 2929 H 282.09 2.23791 2.97906 0
M  V30 2930 H 282.203 4.06803 2.53077 0
M  V30 2931 H 280.567 2.10998 1.4266 0
M  V30 2932 H 281.35 3.41206 0.378639 0
M  V30 2933 N 283.795 -0.628877 1.44509 0
M  V30 2934 C 284.725 -1.75187 1.54376 0
M  V30 2935 C 285.706 -1.65411 0.396618 0
M  V30 2936 O 286.891 -1.84137 0.617031 0
M  V30 2937 C 284.021 -3.13725 1.48976 0
M  V30 2938 C 282.975 -3.38291 2.62189 0
M  V30 2939 C 282.301 -4.76883 2.41841 0
M  V30 2940 C 283.601 -3.30632 4.04326 0
M  V30 2941 H 285.295 -1.67187 2.48373 0
M  V30 2942 H 282.841 -0.802909 1.19538 0
M  V30 2943 H 284.794 -3.92064 1.54478 0
M  V30 2944 H 283.518 -3.22515 0.514961 0
M  V30 2945 H 282.177 -2.62334 2.56079 0
M  V30 2946 H 281.825 -4.82378 1.42548 0
M  V30 2947 H 281.525 -4.94278 3.17747 0
M  V30 2948 H 283.049 -5.57449 2.49165 0
M  V30 2949 H 284.463 -3.98873 4.11793 0
M  V30 2950 H 282.86 -3.59561 4.80454 0
M  V30 2951 H 283.93 -2.28404 4.27738 0
M  V30 2952 N 285.273 -1.31445 -0.869486 0
M  V30 2953 C 286.498 -1.24256 -1.66058 0
M  V30 2954 C 286.923 0.188928 -1.87149 0
M  V30 2955 O 286.281 1.13522 -1.4136 0
M  V30 2956 C 286.329 -1.9924 -3.00559 0
M  V30 2957 O 285.433 -1.33007 -3.90362 0
M  V30 2958 H 284.774 -0.428973 -0.506831 0
M  V30 2959 H 287.304 -1.73521 -1.08404 0
M  V30 2960 H 287.314 -2.08854 -3.50491 0
M  V30 2961 H 285.989 -3.03342 -2.84528 0
M  V30 2962 H 284.566 -1.31848 -3.48813 0
M  V30 2963 N 286.751 1.08385 -1.14413 0
M  V30 2964 C 287.681 2.17321 -0.854044 0
M  V30 2965 C 288.662 1.69024 0.191049 0
M  V30 2966 O 289.847 1.94141 0.0476779 0
M  V30 2967 C 286.977 3.45719 -0.330983 0
M  V30 2968 C 285.931 4.07409 -1.31155 0
M  V30 2969 C 285.257 5.30762 -0.64778 0
M  V30 2970 C 286.557 4.48665 -2.67388 0
M  V30 2971 H 288.251 2.41845 -1.76498 0
M  V30 2972 H 285.797 1.16233 -0.850051 0
M  V30 2973 H 287.75 4.21241 -0.115645 0
M  V30 2974 H 286.474 3.2075 0.615381 0
M  V30 2975 H 285.133 3.33919 -1.51306 0
M  V30 2976 H 284.781 5.02078 0.304398 0
M  V30 2977 H 284.481 5.72992 -1.30207 0
M  V30 2978 H 286.005 6.08998 -0.441972 0
M  V30 2979 H 287.419 5.15364 -2.51143 0
M  V30 2980 H 285.816 5.01814 -3.29093 0
M  V30 2981 H 286.886 3.60543 -3.24248 0
M  V30 2982 N 288.23 0.939286 1.26551 0
M  V30 2983 C 289.478 0.58469 1.93457 0
M  V30 2984 C 289.799 -0.878774 1.74076 0
M  V30 2985 O 289.069 -1.62421 1.09528 0
M  V30 2986 H 287.649 0.21325 0.715914 0
M  V30 2987 H 290.311 1.1942 1.54029 0
M  V30 2988 H 289.407 0.800849 3.0165 0
M  V30 2989 N 289.708 -1.40897 0.706093 0
M  V30 2990 C 290.638 -2.33418 0.0620085 0
M  V30 2991 C 291.619 -1.52385 -0.755827 0
M  V30 2992 O 292.804 -1.80886 -0.706674 0
M  V30 2993 C 289.934 -3.36293 -0.867445 0
M  V30 2994 C 288.888 -4.27716 -0.155932 0
M  V30 2995 C 288.214 -5.2105 -1.20046 0
M  V30 2996 C 289.514 -5.12944 0.984149 0
M  V30 2997 H 291.208 -2.87527 0.83477 0
M  V30 2998 H 288.754 -1.38249 0.402875 0
M  V30 2999 H 290.707 -3.99949 -1.32735 0
M  V30 3000 H 289.431 -2.80556 -1.67199 0
M  V30 3001 H 288.09 -3.65498 0.284047 0
M  V30 3002 H 287.738 -4.61624 -1.99781 0
M  V30 3003 H 287.438 -5.83056 -0.729328 0
M  V30 3004 H 288.962 -5.87584 -1.66066 0
M  V30 3005 H 290.376 -5.70109 0.604048 0
M  V30 3006 H 288.773 -5.83945 1.38304 0
M  V30 3007 H 289.843 -4.49485 1.81911 0
M  V30 3008 N 291.186 -0.45159 -1.50991 0
M  V30 3009 C 292.149 0.341117 -2.26647 0
M  V30 3010 C 293.149 0.937422 -1.30649 0
M  V30 3011 O 294.339 0.809644 -1.54241 0
M  V30 3012 C 291.471 1.48398 -3.06905 0
M  V30 3013 H 292.664 -0.322117 -2.98165 0
M  V30 3014 H 290.217 -0.205122 -1.54948 0
M  V30 3015 H 290.952 2.18284 -2.39838 0
M  V30 3016 H 290.737 1.06241 -3.77432 0
M  V30 3017 H 292.227 2.04367 -3.64176 0
M  V30 3018 N 292.664 1.56529 -0.183458 0
M  V30 3019 C 293.892 2.01623 0.464285 0
M  V30 3020 C 294.307 1.06366 1.55986 0
M  V30 3021 O 293.664 0.0665398 1.82379 0
M  V30 3022 C 293.715 3.46475 1.03139 0
M  V30 3023 O 293.436 4.38095 -0.0204675 0
M  V30 3024 C 294.937 4.0703 1.75617 0
M  V30 3025 H 292.157 0.660596 0.117704 0
M  V30 3026 H 294.701 2.02451 -0.288751 0
M  V30 3027 H 292.856 3.46383 1.73486 0
M  V30 3028 H 293.27 5.22973 0.399952 0
M  V30 3029 H 294.744 5.10271 2.10542 0
M  V30 3030 H 295.221 3.49819 2.65563 0
M  V30 3031 H 295.827 4.1086 1.09882 0
M  V30 3032 N 294.142 -0.090211 1.57342 0
M  V30 3033 C 295.388 -0.793982 1.86611 0
M  V30 3034 C 295.721 -1.78142 0.773252 0
M  V30 3035 O 294.996 -1.93271 -0.218304 0
M  V30 3036 C 295.279 -1.51839 3.26523 0
M  V30 3037 C 295.132 -0.548609 4.46442 0
M  V30 3038 C 296.451 -2.46779 3.64401 0
M  V30 3039 H 293.57 -0.287186 0.678744 0
M  V30 3040 H 296.212 -0.0575076 1.89913 0
M  V30 3041 H 294.362 -2.14617 3.23839 0
M  V30 3042 H 296.034 0.0725513 4.61243 0
M  V30 3043 H 294.277 0.137614 4.33582 0
M  V30 3044 H 294.948 -1.09271 5.41076 0
M  V30 3045 H 297.424 -1.94089 3.68061 0
M  V30 3046 H 296.3 -2.94479 4.63221 0
M  V30 3047 H 296.561 -3.30758 2.93346 0
M  V30 3048 N 295.62 -1.53406 -0.361157 0
M  V30 3049 C 296.897 -1.60411 -1.11927 0
M  V30 3050 C 297.277 -0.414385 -2.06993 0
M  V30 3051 O 296.625 0.594976 -2.20618 0
M  V30 3052 C 296.835 -2.95652 -1.85448 0
M  V30 3053 C 298.183 -3.50386 -2.39823 0
M  V30 3054 O 299.207 -2.97711 -1.95568 0
M  V30 3055 O 298.066 -4.42482 -3.20737 0
M  V30 3056 H 295.16 -0.64811 -0.513695 0
M  V30 3057 H 297.706 -1.65749 -0.364065 0
M  V30 3058 H 296.478 -3.73682 -1.16091 0
M  V30 3059 H 296.101 -2.93825 -2.67866 0
M  V30 3060 N 297.098 0.621204 -1.44841 0
M  V30 3061 C 298.347 1.37658 -1.47422 0
M  V30 3062 C 298.66 1.95264 -0.114629 0
M  V30 3063 O 299.866 2.71494 -0.0180199 0
M  V30 3064 C 298.322 2.49285 -2.59586 0
M  V30 3065 C 297.93 1.98149 -4.01797 0
M  V30 3066 C 299.674 3.26409 -2.71399 0
M  V30 3067 C 297.581 3.07178 -5.05367 0
M  V30 3068 H 296.511 0.517344 -0.548517 0
M  V30 3069 H 299.162 0.667257 -1.70938 0
M  V30 3070 H 297.544 3.22839 -2.29328 0
M  V30 3071 H 298.718 1.31395 -4.41669 0
M  V30 3072 H 297.033 1.33812 -3.94314 0
M  V30 3073 H 299.63 4.07706 -3.45948 0
M  V30 3074 H 299.973 3.76535 -1.77559 0
M  V30 3075 H 300.506 2.5995 -3.01116 0
M  V30 3076 H 297.245 2.61985 -6.00869 0
M  V30 3077 H 296.765 3.72542 -4.70077 0
M  V30 3078 H 298.444 3.71789 -5.29511 0
M  V30 3079 N 298.576 1.31904 0.862503 0
M  V30 3080 C 299.508 1.16005 1.97675 0
M  V30 3081 C 300.521 0.0971234 1.6251 0
M  V30 3082 O 301.71 0.345337 1.75128 0
M  V30 3083 C 298.81 0.751791 3.30456 0
M  V30 3084 C 297.983 1.90133 3.93914 0
M  V30 3085 C 297.042 1.4779 5.05019 0
M  V30 3086 O 296.068 2.18872 5.25437 0
M  V30 3087 N 297.27 0.369491 5.79323 0
M  V30 3088 H 300.035 2.11982 2.11857 0
M  V30 3089 H 297.596 1.24337 1.03691 0
M  V30 3090 H 299.588 0.451084 4.02178 0
M  V30 3091 H 298.158 -0.116593 3.12382 0
M  V30 3092 H 297.378 2.36896 3.15078 0
M  V30 3093 H 298.666 2.67111 4.33047 0
M  V30 3094 H 298.064 -0.222299 5.65263 0
M  V30 3095 H 296.621 0.128354 6.51674 0
M  V30 3096 N 300.054 -1.07777 1.14986 0
M  V30 3097 C 301.002 -2.16964 0.838406 0
M  V30 3098 C 301.996 -1.68372 -0.186386 0
M  V30 3099 O 303.202 -1.79951 -0.0418465 0
M  V30 3100 H 299.577 -0.708006 0.253439 0
M  V30 3101 H 301.548 -2.40454 1.76704 0
M  V30 3102 C 300.297 -3.4604 0.339335 0
M  V30 3103 H 299.62 -3.83813 1.11927 0
M  V30 3104 H 301.06 -4.23698 0.160021 0
M  V30 3105 C 299.519 -3.23569 -0.938325 0
M  V30 3106 O 300.049 -3.47752 -2.01077 0
M  V30 3107 N 298.255 -2.77079 -0.876117 0
M  V30 3108 H 297.802 -2.576 -0.00322037 0
M  V30 3109 H 297.76 -2.62422 -1.73153 0
M  V30 3110 N 301.532 -0.945985 -1.26051 0
M  V30 3111 C 302.943 -0.638096 -1.75457 0
M  V30 3112 C 303.294 0.846672 -1.76991 0
M  V30 3113 O 302.419 1.66262 -1.38513 0
M  V30 3114 C 303.014 -1.15157 -3.18629 0
M  V30 3115 C 301.573 -0.894004 -3.65629 0
M  V30 3116 C 300.72 -1.29967 -2.44957 0
M  V30 3117 H 303.671 -1.12376 -1.1206 0
M  V30 3118 H 303.692 -0.507615 -3.77099 0
M  V30 3119 H 303.204 -2.23222 -3.1748 0
M  V30 3120 H 301.305 0.172057 -3.72203 0
M  V30 3121 H 301.418 -1.52439 -4.54202 0
M  V30 3122 H 299.782 -0.718078 -2.44368 0
M  V30 3123 H 300.565 -2.38935 -2.46505 0
M  V30 3124 N 303.011 1.40521 -0.713556 0
M  V30 3125 C 304.288 1.94775 -0.17943 0
M  V30 3126 C 304.668 1.65184 1.31444 0
M  V30 3127 O 304.016 0.968429 2.06963 0
M  V30 3128 C 304.226 3.45543 -0.489986 0
M  V30 3129 C 305.574 4.22442 -0.427536 0
M  V30 3130 O 306.598 3.53644 -0.425929 0
M  V30 3131 O 305.457 5.4501 -0.403292 0
M  V30 3132 H 302.551 0.826606 -0.0255192 0
M  V30 3133 H 305.097 1.5014 -0.790949 0
M  V30 3134 H 303.869 3.60432 -1.5233 0
M  V30 3135 H 303.492 3.97311 0.151598 0
M  V30 3136 N 304.489 0.459591 1.5075 0
M  V30 3137 C 305.738 -0.100971 2.01447 0
M  V30 3138 C 306.051 -1.41816 1.34713 0
M  V30 3139 O 307.257 -2.06299 1.76502 0
M  V30 3140 C 305.713 -0.23047 3.59161 0
M  V30 3141 C 305.321 1.0776 4.34847 0
M  V30 3142 C 307.065 -0.743608 4.17936 0
M  V30 3143 C 304.972 0.91253 5.84317 0
M  V30 3144 H 303.902 -0.0415102 0.752856 0
M  V30 3145 H 306.553 0.592742 1.73663 0
M  V30 3146 H 304.935 -0.987703 3.83485 0
M  V30 3147 H 306.109 1.8449 4.22256 0
M  V30 3148 H 304.424 1.52097 3.87628 0
M  V30 3149 H 307.021 -0.883959 5.27343 0
M  V30 3150 H 307.364 -1.73196 3.78562 0
M  V30 3151 H 307.897 -0.04408 3.97776 0
M  V30 3152 H 304.636 1.87391 6.28144 0
M  V30 3153 H 304.156 0.185422 5.99513 0
M  V30 3154 H 305.835 0.574547 6.44444 0
M  V30 3155 N 305.967 -1.56429 0.191757 0
M  V30 3156 C 307.195 -2.01867 -0.453586 0
M  V30 3157 C 307.61 -1.07191 -1.5542 0
M  V30 3158 O 306.967 -0.0762108 -1.82341 0
M  V30 3159 C 307.018 -3.47017 -1.013 0
M  V30 3160 O 306.739 -4.38078 0.0437005 0
M  V30 3161 C 308.24 -4.07956 -1.73456 0
M  V30 3162 H 305.46 -0.661211 -0.114199 0
M  V30 3163 H 308.004 -2.02295 0.299483 0
M  V30 3164 H 306.159 -3.47298 -1.71647 0
M  V30 3165 H 306.573 -5.23178 -0.372212 0
M  V30 3166 H 308.047 -5.1138 -2.07833 0
M  V30 3167 H 308.524 -3.51222 -2.63704 0
M  V30 3168 H 309.13 -4.11437 -1.07702 0
M  V30 3169 N 307.445 0.0818655 -1.57387 0
M  V30 3170 C 308.67 0.799946 -1.91352 0
M  V30 3171 C 309.095 1.70833 -0.787258 0
M  V30 3172 O 308.453 1.79419 0.26048 0
M  V30 3173 C 308.501 1.57812 -3.24234 0
M  V30 3174 O 307.605 2.68806 -3.12757 0
M  V30 3175 H 306.946 0.21891 -0.626877 0
M  V30 3176 H 309.476 0.0531256 -2.04531 0
M  V30 3177 H 309.486 1.95952 -3.57864 0
M  V30 3178 H 308.161 0.911548 -4.05788 0
M  V30 3179 H 306.738 2.33597 -2.90666 0
M  V30 3180 N 308.923 1.53595 0.353017 0
M  V30 3181 C 310.148 1.7462 1.11904 0
M  V30 3182 C 310.573 0.479721 1.8188 0
M  V30 3183 O 309.931 -0.567066 1.72204 0
M  V30 3184 C 309.979 2.92029 2.11545 0
M  V30 3185 O 309.083 2.61516 3.18878 0
M  V30 3186 H 308.424 0.579531 0.324099 0
M  V30 3187 H 310.954 2.00525 0.406301 0
M  V30 3188 H 310.964 3.18551 2.5493 0
M  V30 3189 H 309.639 3.83888 1.60008 0
M  V30 3190 H 308.216 2.45852 2.80377 0
M  V30 3191 N 310.401 -0.613514 1.45168 0
M  V30 3192 C 311.817 -0.933629 1.29443 0
M  V30 3193 C 312.017 -2.00028 0.243101 0
M  V30 3194 O 311.073 -2.49848 -0.364992 0
M  V30 3195 C 312.386 -1.38018 2.67155 0
M  V30 3196 C 313.934 -1.49471 2.75004 0
M  V30 3197 C 314.409 -1.97503 4.13227 0
M  V30 3198 N 315.9 -2.04746 4.15491 0
M  V30 3199 C 316.635 -2.43121 5.19307 0
M  V30 3200 N 316.131 -2.80506 6.33473 0
M  V30 3201 N 317.924 -2.43408 5.06664 0
M  V30 3202 H 310.075 0.0916097 2.12202 0
M  V30 3203 H 312.338 -0.0216655 0.947752 0
M  V30 3204 H 312.044 -0.670625 3.45247 0
M  V30 3205 H 311.918 -2.34784 2.95222 0
M  V30 3206 H 314.305 -2.19519 1.9722 0
M  V30 3207 H 314.386 -0.510342 2.50657 0
M  V30 3208 H 314.03 -1.28045 4.91495 0
M  V30 3209 H 313.96 -2.96843 4.34962 0
M  V30 3210 H 316.451 -1.78468 3.33103 0
M  V30 3211 H 316.764 -3.08652 7.08487 0
M  V30 3212 H 315.109 -2.78216 6.36884 0
M  V30 3213 H 318.3 -2.13604 4.16523 0
M  V30 3214 H 318.473 -2.72989 5.87691 0
M  V30 3215 N 311.879 -1.3236 -0.855495 0
M  V30 3216 C 313.109 -1.25688 -1.6397 0
M  V30 3217 C 313.517 0.177592 -1.88365 0
M  V30 3218 O 312.86 1.12485 -1.45234 0
M  V30 3219 C 312.922 -1.94602 -3.02275 0
M  V30 3220 C 312.586 -3.43937 -3.00926 0
M  V30 3221 C 313.583 -4.39435 -2.77835 0
M  V30 3222 C 311.268 -3.85858 -3.21588 0
M  V30 3223 C 313.262 -5.74829 -2.75409 0
M  V30 3224 C 310.949 -5.21361 -3.18789 0
M  V30 3225 C 311.947 -6.15658 -2.95727 0
M  V30 3226 O 311.635 -7.48681 -2.928 0
M  V30 3227 H 311.367 -0.434972 -0.51747 0
M  V30 3228 H 313.921 -1.75023 -1.075 0
M  V30 3229 H 312.151 -1.39836 -3.60531 0
M  V30 3230 H 313.84 -1.81651 -3.62985 0
M  V30 3231 H 314.606 -4.08374 -2.6164 0
M  V30 3232 H 310.485 -3.12883 -3.38564 0
M  V30 3233 H 314.029 -6.48404 -2.57328 0
M  V30 3234 H 309.926 -5.52052 -3.34528 0
M  V30 3235 H 310.694 -7.5803 -3.0876 0
M  V30 3236 N 313.357 1.07166 -1.15556 0
M  V30 3237 C 314.773 1.31899 -0.898603 0
M  V30 3238 C 314.973 1.96333 0.453383 0
M  V30 3239 O 314.029 2.22438 1.19489 0
M  V30 3240 C 315.342 2.20826 -2.04099 0
M  V30 3241 C 316.89 2.34269 -2.07574 0
M  V30 3242 C 317.365 3.26546 -3.21141 0
M  V30 3243 N 318.856 3.34127 -3.20801 0
M  V30 3244 C 319.591 4.05595 -4.05315 0
M  V30 3245 N 319.087 4.79661 -4.99897 0
M  V30 3246 N 320.88 4.01555 -3.93332 0
M  V30 3247 H 313.031 0.637302 -2.02613 0
M  V30 3248 H 315.294 0.343468 -0.883591 0
M  V30 3249 H 315 1.80744 -3.01703 0
M  V30 3250 H 314.874 3.21364 -1.97496 0
M  V30 3251 H 317.261 2.73603 -1.10568 0
M  V30 3252 H 317.342 1.33429 -2.18244 0
M  V30 3253 H 316.986 2.87931 -4.184 0
M  V30 3254 H 316.916 4.27345 -3.07708 0
M  V30 3255 H 319.407 2.81336 -2.52306 0
M  V30 3256 H 319.72 5.31694 -5.60822 0
M  V30 3257 H 318.065 4.78671 -5.03884 0
M  V30 3258 H 321.256 3.42806 -3.18751 0
M  V30 3259 H 321.429 4.56987 -4.5942 0
M  V30 3260 N 314.835 0.952656 1.25548 0
M  V30 3261 C 316.083 0.605176 1.92826 0
M  V30 3262 C 316.404 -0.860261 1.74999 0
M  V30 3263 O 315.674 -1.6125 1.11244 0
M  V30 3264 H 314.254 0.220832 0.713612 0
M  V30 3265 H 316.916 1.21047 1.52754 0
M  V30 3266 H 316.012 0.832798 3.00784 0
M  V30 3267 N 316.313 -1.40141 0.720998 0
M  V30 3268 C 317.243 -2.33339 0.0867621 0
M  V30 3269 C 318.224 -1.53178 -0.739622 0
M  V30 3270 O 319.409 -1.81625 -0.687449 0
M  V30 3271 C 316.539 -3.37194 -0.831728 0
M  V30 3272 C 315.493 -4.27857 -0.110558 0
M  V30 3273 C 314.819 -5.22294 -1.14513 0
M  V30 3274 C 316.119 -5.11872 1.0385 0
M  V30 3275 H 317.813 -2.86626 0.865219 0
M  V30 3276 H 315.359 -1.37814 0.417516 0
M  V30 3277 H 317.312 -4.01335 -1.28485 0
M  V30 3278 H 316.036 -2.82314 -1.64214 0
M  V30 3279 H 314.695 -3.65176 0.322797 0
M  V30 3280 H 314.343 -4.63717 -1.94874 0
M  V30 3281 H 314.043 -5.83797 -0.667446 0
M  V30 3282 H 315.567 -5.89312 -1.59824 0
M  V30 3283 H 316.981 -5.69436 0.664482 0
M  V30 3284 H 315.378 -5.82445 1.4449 0
M  V30 3285 H 316.448 -4.4753 1.86668 0
M  V30 3286 N 317.792 -0.46758 -1.50504 0
M  V30 3287 C 319.203 -0.0116166 -1.86696 0
M  V30 3288 C 319.554 1.39202 -1.38265 0
M  V30 3289 O 318.679 2.0313 -0.746132 0
M  V30 3290 C 319.274 -0.0143044 -3.38797 0
M  V30 3291 C 317.833 0.386175 -3.74414 0
M  V30 3292 C 316.98 -0.401287 -2.74381 0
M  V30 3293 H 319.931 -0.682022 -1.43297 0
M  V30 3294 H 319.952 0.788641 -3.72237 0
M  V30 3295 H 319.464 -1.03602 -3.74016 0
M  V30 3296 H 317.565 1.41237 -3.44794 0
M  V30 3297 H 317.678 0.0899596 -4.79016 0
M  V30 3298 H 316.042 0.144536 -2.5429 0
M  V30 3299 H 316.825 -1.42244 -3.12444 0
M  V30 3300 N 319.27 1.56325 -0.20005 0
M  V30 3301 C 320.233 2.18084 0.705132 0
M  V30 3302 C 321.233 1.13666 1.1374 0
M  V30 3303 O 322.423 1.39023 1.04968 0
M  V30 3304 C 319.555 2.78689 1.96329 0
M  V30 3305 H 320.748 2.99435 0.167023 0
M  V30 3306 H 318.301 1.56221 0.0495725 0
M  V30 3307 H 319.036 2.0115 2.5438 0
M  V30 3308 H 318.821 3.55133 1.66202 0
M  V30 3309 H 320.311 3.26096 2.60866 0
M  V30 3310 N 320.748 -0.0735177 1.57428 0
M  V30 3311 C 322.159 -0.625551 1.75908 0
M  V30 3312 C 322.51 -1.78 0.825261 0
M  V30 3313 O 321.635 -2.16398 0.00893964 0
M  V30 3314 C 322.23 -1.14155 3.18989 0
M  V30 3315 C 320.789 -1.63946 3.38819 0
M  V30 3316 C 319.936 -0.558151 2.71625 0
M  V30 3317 H 322.887 0.152647 1.57964 0
M  V30 3318 H 322.908 -2.0104 3.23053 0
M  V30 3319 H 322.42 -0.301116 3.8693 0
M  V30 3320 H 320.521 -2.50321 2.7599 0
M  V30 3321 H 320.634 -1.71759 4.47253 0
M  V30 3322 H 318.998 -1.00278 2.34129 0
M  V30 3323 H 319.781 0.272071 3.4222 0
M  V30 3324 N 322.226 -1.5378 -0.344866 0
M  V30 3325 C 323.474 -1.70625 -1.08311 0
M  V30 3326 C 323.795 -0.471447 -1.89215 0
M  V30 3327 O 323.065 0.514616 -1.8902 0
M  V30 3328 H 321.645 -0.629058 -0.402859 0
M  V30 3329 H 324.307 -1.9103 -0.386459 0
M  V30 3330 H 323.403 -2.57656 -1.76124 0
M  V30 3331 N 323.704 0.605807 -1.45491 0
M  V30 3332 C 325.115 1.18777 -1.44045 0
M  V30 3333 C 325.466 1.95471 -0.169001 0
M  V30 3334 O 324.591 2.0374 0.729324 0
M  V30 3335 C 325.186 2.16064 -2.60963 0
M  V30 3336 C 323.745 2.69633 -2.62631 0
M  V30 3337 C 322.892 1.45072 -2.36325 0
M  V30 3338 H 325.843 0.395017 -1.53705 0
M  V30 3339 H 325.864 2.9913 -2.35163 0
M  V30 3340 H 325.376 1.60217 -3.53486 0
M  V30 3341 H 323.477 3.29414 -1.74119 0
M  V30 3342 H 323.59 3.13944 -3.61906 0
M  V30 3343 H 321.954 1.74089 -1.85917 0
M  V30 3344 H 322.737 0.910899 -3.30995 0
M  V30 3345 N 325.182 1.32811 0.848464 0
M  V30 3346 C 326.407 1.26882 1.6406 0
M  V30 3347 C 326.832 -0.15913 1.87426 0
M  V30 3348 O 326.19 -1.11258 1.43148 0
M  V30 3349 C 326.238 2.03997 2.97351 0
M  V30 3350 O 325.342 1.39201 3.88197 0
M  V30 3351 H 324.683 0.436982 0.499943 0
M  V30 3352 H 327.213 1.75224 1.0563 0
M  V30 3353 H 327.223 2.14403 3.47124 0
M  V30 3354 H 325.898 3.0783 2.79666 0
M  V30 3355 H 324.475 1.37381 3.46671 0
M  V30 3356 N 326.66 -1.06551 1.16123 0
M  V30 3357 C 328.071 -1.60768 0.949232 0
M  V30 3358 C 328.422 -1.89523 -0.507508 0
M  V30 3359 O 327.547 -1.66671 -1.38021 0
M  V30 3360 C 328.142 -2.92086 1.71671 0
M  V30 3361 C 326.701 -3.43015 1.54977 0
M  V30 3362 C 325.848 -2.16947 1.72711 0
M  V30 3363 H 328.799 -0.895354 1.31031 0
M  V30 3364 H 328.82 -3.6138 1.19099 0
M  V30 3365 H 328.332 -2.71127 2.7769 0
M  V30 3366 H 326.433 -3.69039 0.513873 0
M  V30 3367 H 326.546 -4.18516 2.33198 0
M  V30 3368 H 324.91 -2.27041 1.15431 0
M  V30 3369 H 325.693 -1.98473 2.80113 0
M  V30 3370 N 328.138 -0.959301 -1.25041 0
M  V30 3371 C 329.101 -0.487677 -2.23952 0
M  V30 3372 C 330.101 0.41119 -1.55454 0
M  V30 3373 O 331.291 0.207825 -1.72956 0
M  V30 3374 C 328.423 0.294807 -3.39623 0
M  V30 3375 H 329.616 -1.36198 -2.67189 0
M  V30 3376 H 327.169 -0.743042 -1.37508 0
M  V30 3377 H 327.904 1.18658 -3.01813 0
M  V30 3378 H 327.689 -0.35012 -3.90534 0
M  V30 3379 H 329.179 0.614089 -4.1306 0
M  V30 3380 N 329.616 1.39756 -0.72842 0
M  V30 3381 C 330.893 1.94574 -0.200079 0
M  V30 3382 C 331.273 1.66569 1.29684 0
M  V30 3383 O 330.621 0.990326 2.05924 0
M  V30 3384 C 330.831 3.45004 -0.526608 0
M  V30 3385 C 332.179 4.21965 -0.472318 0
M  V30 3386 O 333.203 3.53173 -0.463413 0
M  V30 3387 O 332.062 5.44552 -0.461075 0
M  V30 3388 H 329.156 0.826289 -0.0342851 0
M  V30 3389 H 331.702 1.49293 -0.806829 0
M  V30 3390 H 330.474 3.58796 -1.56144 0
M  V30 3391 H 330.097 3.97449 0.109449 0
M  V30 3392 N 331.094 0.475555 1.50254 0
M  V30 3393 C 332.041 -0.316293 2.28622 0
M  V30 3394 C 333.011 -0.983227 1.33873 0
M  V30 3395 O 334.196 -0.994805 1.62814 0
M  V30 3396 C 331.336 -1.38975 3.1588 0
M  V30 3397 C 330.449 -0.737146 4.25664 0
M  V30 3398 C 329.584 -1.78887 5.00173 0
M  V30 3399 C 328.623 -1.11676 6.01826 0
M  V30 3400 N 327.76 -2.11154 6.69596 0
M  V30 3401 H 332.6 0.358297 2.95838 0
M  V30 3402 H 330.137 0.188541 1.45887 0
M  V30 3403 H 332.095 -2.02383 3.64825 0
M  V30 3404 H 330.725 -2.03344 2.50701 0
M  V30 3405 H 329.777 0.0096065 3.80399 0
M  V30 3406 H 331.089 -0.206816 4.98371 0
M  V30 3407 H 330.243 -2.49865 5.52859 0
M  V30 3408 H 328.982 -2.35302 4.27182 0
M  V30 3409 H 327.987 -0.392633 5.48396 0
M  V30 3410 H 329.212 -0.55945 6.76792 0
M  V30 3411 H 327.158 -2.66577 5.99394 0
M  V30 3412 H 327.075 -1.63118 7.38193 0
M  V30 3413 H 328.343 -2.81497 7.26897 0
M  V30 3414 N 332.573 -1.56217 0.208337 0
M  V30 3415 C 333.52 -2.19699 -0.707192 0
M  V30 3416 C 334.49 -1.14836 -1.20008 0
M  V30 3417 O 335.675 -1.4314 -1.26157 0
M  V30 3418 C 332.815 -2.87061 -1.91546 0
M  V30 3419 C 331.928 -4.06483 -1.46271 0
M  V30 3420 C 331.063 -4.61665 -2.62752 0
M  V30 3421 C 330.102 -5.73417 -2.14147 0
M  V30 3422 N 329.239 -6.22948 -3.23853 0
M  V30 3423 H 334.079 -2.97575 -0.159111 0
M  V30 3424 H 331.616 -1.46948 -0.0667874 0
M  V30 3425 H 333.574 -3.24294 -2.62468 0
M  V30 3426 H 332.204 -2.11725 -2.43664 0
M  V30 3427 H 331.256 -3.74825 -0.648886 0
M  V30 3428 H 332.568 -4.87271 -1.06622 0
M  V30 3429 H 331.722 -5.01272 -3.41776 0
M  V30 3430 H 330.461 -3.80013 -3.05682 0
M  V30 3431 H 329.466 -5.33326 -1.33581 0
M  V30 3432 H 330.691 -6.56897 -1.72232 0
M  V30 3433 H 328.637 -5.44213 -3.6629 0
M  V30 3434 H 328.554 -6.98823 -2.88414 0
M  V30 3435 H 329.822 -6.6721 -4.03052 0
M  V30 3436 N 334.051 0.0651679 -1.57465 0
M  V30 3437 C 335.467 0.420105 -1.53972 0
M  V30 3438 C 335.667 1.78782 -0.929474 0
M  V30 3439 O 334.723 2.46771 -0.534839 0
M  V30 3440 C 336.036 0.355084 -2.98596 0
M  V30 3441 C 337.584 0.434792 -3.09965 0
M  V30 3442 C 338.059 0.399609 -4.56253 0
M  V30 3443 N 339.55 0.459488 -4.60915 0
M  V30 3444 C 340.285 0.454584 -5.71595 0
M  V30 3445 N 339.781 0.404102 -6.9162 0
M  V30 3446 N 341.574 0.501635 -5.59857 0
M  V30 3447 H 333.725 -0.830328 -1.95498 0
M  V30 3448 H 335.988 -0.312244 -0.895102 0
M  V30 3449 H 335.694 -0.583357 -3.46828 0
M  V30 3450 H 335.568 1.16275 -3.58831 0
M  V30 3451 H 337.955 1.36366 -2.61703 0
M  V30 3452 H 338.036 -0.40157 -2.52628 0
M  V30 3453 H 337.68 -0.525436 -5.05175 0
M  V30 3454 H 337.61 1.25359 -5.11461 0
M  V30 3455 H 340.101 0.502482 -3.74544 0
M  V30 3456 H 340.414 0.404468 -7.71741 0
M  V30 3457 H 338.759 0.37069 -6.94011 0
M  V30 3458 H 341.95 0.538812 -4.64989 0
M  V30 3459 H 342.123 0.494345 -6.46112 0
M  V30 3460 N 335.529 1.53961 0.336706 0
M  V30 3461 C 336.754 1.75797 1.10046 0
M  V30 3462 C 337.179 0.498985 1.81361 0
M  V30 3463 O 336.537 -0.548769 1.72795 0
M  V30 3464 C 336.585 2.94257 2.08436 0
M  V30 3465 O 335.689 2.64883 3.16087 0
M  V30 3466 H 335.03 0.582936 0.317934 0
M  V30 3467 H 337.56 2.00945 0.38501 0
M  V30 3468 H 337.57 3.21237 2.51537 0
M  V30 3469 H 336.245 3.85564 1.55927 0
M  V30 3470 H 334.822 2.48812 2.77753 0
M  V30 3471 N 337.007 -0.598083 1.45811 0
M  V30 3472 C 338.255 -1.35413 1.50026 0
M  V30 3473 C 338.576 -1.94444 0.147177 0
M  V30 3474 O 337.846 -1.77701 -0.824571 0
M  V30 3475 H 336.426 -0.502727 0.552517 0
M  V30 3476 H 339.088 -0.701606 1.81834 0
M  V30 3477 H 338.184 -2.16871 2.2444 0
M  V30 3478 N 338.485 -1.33259 -0.841409 0
M  V30 3479 C 339.432 -1.23302 -1.95103 0
M  V30 3480 C 340.402 -0.112204 -1.65721 0
M  V30 3481 O 341.587 -0.290038 -1.88583 0
M  V30 3482 C 338.727 -0.975583 -3.31023 0
M  V30 3483 C 337.84 -2.18243 -3.72819 0
M  V30 3484 C 336.975 -1.85936 -4.97595 0
M  V30 3485 C 336.014 -3.02866 -5.3192 0
M  V30 3486 N 335.151 -2.70565 -6.47873 0
M  V30 3487 H 339.991 -2.18207 -2.02952 0
M  V30 3488 H 337.528 -1.0851 -0.993173 0
M  V30 3489 H 339.486 -0.80677 -4.09325 0
M  V30 3490 H 338.116 -0.0632755 -3.22738 0
M  V30 3491 H 337.168 -2.46107 -2.90061 0
M  V30 3492 H 338.48 -3.05666 -3.94169 0
M  V30 3493 H 337.634 -1.65684 -5.83638 0
M  V30 3494 H 336.373 -0.957452 -4.78209 0
M  V30 3495 H 335.378 -3.23736 -4.44382 0
M  V30 3496 H 336.603 -3.93809 -5.53255 0
M  V30 3497 H 334.549 -1.8293 -6.29978 0
M  V30 3498 H 334.466 -3.51519 -6.69306 0
M  V30 3499 H 335.734 -2.53774 -7.37034 0
M  V30 3500 N 339.963 1.05934 -1.16686 0
M  V30 3501 C 340.91 2.13499 -0.876748 0
M  V30 3502 C 341.88 1.65162 0.176299 0
M  V30 3503 O 343.065 1.90757 0.0407143 0
M  V30 3504 C 340.205 3.42912 -0.387967 0
M  V30 3505 C 339.318 4.04964 -1.50426 0
M  V30 3506 C 338.453 5.22266 -0.970125 0
M  V30 3507 C 337.492 5.76309 -2.06238 0
M  V30 3508 N 336.629 6.84922 -1.54356 0
M  V30 3509 H 341.469 2.37654 -1.7979 0
M  V30 3510 H 339.006 1.16598 -0.896843 0
M  V30 3511 H 340.964 4.17111 -0.086186 0
M  V30 3512 H 339.594 3.18963 0.496235 0
M  V30 3513 H 338.646 3.28277 -1.92193 0
M  V30 3514 H 339.958 4.41122 -2.32836 0
M  V30 3515 H 339.112 6.03506 -0.621743 0
M  V30 3516 H 337.851 4.87564 -0.115377 0
M  V30 3517 H 336.856 4.93704 -2.41942 0
M  V30 3518 H 338.081 6.13062 -2.92115 0
M  V30 3519 H 336.027 6.52131 -0.711406 0
M  V30 3520 H 335.944 7.20043 -2.30379 0
M  V30 3521 H 337.212 7.69832 -1.22387 0
M  V30 3522 N 341.441 0.965919 1.2453 0
M  V30 3523 C 342.388 0.49402 2.25451 0
M  V30 3524 C 343.358 -0.45948 1.59618 0
M  V30 3525 O 344.543 -0.370238 1.87173 0
M  V30 3526 C 341.683 -0.211359 3.44452 0
M  V30 3527 C 340.796 0.7807 4.24887 0
M  V30 3528 C 339.931 0.0516105 5.31175 0
M  V30 3529 C 338.97 1.03385 6.03306 0
M  V30 3530 N 338.107 0.334887 7.01301 0
M  V30 3531 H 342.947 1.35946 2.65184 0
M  V30 3532 H 340.484 0.681515 1.3036 0
M  V30 3533 H 342.442 -0.637 4.12308 0
M  V30 3534 H 341.072 -1.04077 3.05562 0
M  V30 3535 H 340.124 1.32479 3.56586 0
M  V30 3536 H 341.436 1.52978 4.74762 0
M  V30 3537 H 340.59 -0.432114 6.05159 0
M  V30 3538 H 339.329 -0.730179 4.82203 0
M  V30 3539 H 338.334 1.52847 5.28127 0
M  V30 3540 H 339.559 1.81606 6.54367 0
M  V30 3541 H 337.505 -0.427959 6.54603 0
M  V30 3542 H 337.422 1.02287 7.49048 0
M  V30 3543 H 338.69 -0.126928 7.79397 0
M  V30 3544 N 342.919 -1.39368 0.735821 0
M  V30 3545 C 344.168 -1.99733 0.281004 0
M  V30 3546 C 344.481 -1.59055 -1.13846 0
M  V30 3547 O 345.687 -2.12262 -1.69284 0
M  V30 3548 C 344.143 -3.57057 0.451462 0
M  V30 3549 C 343.751 -4.06697 1.87886 0
M  V30 3550 C 345.495 -4.2446 0.0584616 0
M  V30 3551 C 343.402 -5.56598 1.99883 0
M  V30 3552 H 342.332 -0.747163 0.101311 0
M  V30 3553 H 344.983 -1.59357 0.909819 0
M  V30 3554 H 343.365 -3.95234 -0.246263 0
M  V30 3555 H 344.539 -3.79853 2.60861 0
M  V30 3556 H 342.854 -3.5196 2.22515 0
M  V30 3557 H 345.451 -5.34549 0.127099 0
M  V30 3558 H 345.794 -4.04444 -0.986433 0
M  V30 3559 H 346.327 -3.9146 0.707374 0
M  V30 3560 H 343.066 -5.81494 3.02564 0
M  V30 3561 H 342.586 -5.85242 1.31346 0
M  V30 3562 H 344.265 -6.22022 1.78039 0
M  V30 3563 N 344.397 -0.483516 -1.5 0
M  V30 3564 C 345.622 0.0667119 -2.07293 0
M  V30 3565 C 346.047 1.3164 -1.3436 0
M  V30 3566 O 345.405 1.76945 -0.394987 0
M  V30 3567 C 345.453 0.321126 -3.59167 0
M  V30 3568 O 344.557 1.39927 -3.87936 0
M  V30 3569 H 343.898 -0.0184758 -0.663743 0
M  V30 3570 H 346.428 -0.678125 -1.93035 0
M  V30 3571 H 346.438 0.557906 -4.04168 0
M  V30 3572 H 345.113 -0.592007 -4.11665 0
M  V30 3573 H 343.69 1.14882 -3.54763 0
M  V30 3574 N 345.875 1.56104 -0.216619 0
M  V30 3575 C 346.822 2.2007 0.695531 0
M  V30 3576 C 347.792 1.15471 1.19397 0
M  V30 3577 O 348.977 1.43807 1.25396 0
M  V30 3578 C 346.117 2.88073 1.90021 0
M  V30 3579 C 345.23 4.07253 1.44113 0
M  V30 3580 C 344.365 4.63052 2.603 0
M  V30 3581 C 343.404 5.74545 2.11103 0
M  V30 3582 N 342.541 6.24656 3.20545 0
M  V30 3583 H 347.381 2.97655 0.143327 0
M  V30 3584 H 344.918 1.46982 0.0589934 0
M  V30 3585 H 346.876 3.25681 2.60745 0
M  V30 3586 H 345.506 2.13015 2.42538 0
M  V30 3587 H 344.558 3.75164 0.628999 0
M  V30 3588 H 345.87 4.8783 1.04036 0
M  V30 3589 H 345.024 5.03078 3.39113 0
M  V30 3590 H 343.763 3.81628 3.03663 0
M  V30 3591 H 342.768 5.34027 1.3075 0
M  V30 3592 H 343.993 6.57801 1.68746 0
M  V30 3593 H 341.939 5.46148 3.63399 0
M  V30 3594 H 341.856 7.00343 2.84704 0
M  V30 3595 H 343.124 6.69338 3.99508 0
M  V30 3596 N 347.353 -0.0568162 1.57498 0
M  V30 3597 C 348.316 -1.05038 2.03715 0
M  V30 3598 C 349.316 -1.30709 0.936577 0
M  V30 3599 O 350.506 -1.26178 1.20103 0
M  V30 3600 C 347.638 -2.39034 2.43055 0
M  V30 3601 H 348.831 -0.651715 2.92733 0
M  V30 3602 H 346.384 -0.302947 1.53336 0
M  V30 3603 H 347.119 -2.83703 1.57108 0
M  V30 3604 H 346.904 -2.21739 3.2338 0
M  V30 3605 H 348.394 -3.10421 2.79336 0
M  V30 3606 N 348.832 -1.54138 -0.328536 0
M  V30 3607 C 350.109 -1.62749 -1.08499 0
M  V30 3608 C 350.489 -0.458198 -2.06067 0
M  V30 3609 O 349.837 0.548046 -2.2183 0
M  V30 3610 C 350.047 -2.99519 -1.79135 0
M  V30 3611 C 351.395 -3.55394 -2.32337 0
M  V30 3612 O 352.419 -3.01792 -1.89209 0
M  V30 3613 O 351.278 -4.49186 -3.11279 0
M  V30 3614 H 348.372 -0.65886 -0.499832 0
M  V30 3615 H 350.918 -1.66484 -0.328826 0
M  V30 3616 H 349.69 -3.76061 -1.08139 0
M  V30 3617 H 349.313 -2.99441 -2.61574 0
M  V30 3618 N 350.31 0.590341 -1.46126 0
M  V30 3619 C 351.559 1.34499 -1.50309 0
M  V30 3620 C 351.872 1.94977 -0.156021 0
M  V30 3621 O 353.078 2.71395 -0.0756037 0
M  V30 3622 C 351.534 2.43723 -2.64815 0
M  V30 3623 C 351.142 1.89582 -4.0591 0
M  V30 3624 C 352.886 3.20579 -2.78262 0
M  V30 3625 C 350.793 2.9639 -5.11769 0
M  V30 3626 H 349.723 0.505593 -0.559368 0
M  V30 3627 H 352.374 0.630848 -1.72315 0
M  V30 3628 H 350.756 3.17902 -2.36124 0
M  V30 3629 H 351.93 1.21997 -4.44357 0
M  V30 3630 H 350.245 1.25418 -3.97063 0
M  V30 3631 H 352.842 4.00276 -3.54519 0
M  V30 3632 H 353.185 3.72684 -1.85505 0
M  V30 3633 H 353.718 2.53505 -3.06562 0
M  V30 3634 H 350.457 2.49181 -6.06291 0
M  V30 3635 H 349.977 3.62487 -4.77873 0
M  V30 3636 H 351.656 3.60474 -5.37278 0
M  V30 3637 N 351.788 1.33704 0.83433 0
M  V30 3638 C 353.036 1.25169 1.58673 0
M  V30 3639 C 353.357 -0.18127 1.94156 0
M  V30 3640 O 352.627 -1.11113 1.6134 0
M  V30 3641 H 351.207 0.4603 0.58833 0
M  V30 3642 H 353.869 1.67478 0.996847 0
M  V30 3643 H 352.965 1.84856 2.51465 0
M  V30 3644 N 353.266 -1.05314 1.17247 0
M  V30 3645 C 354.229 -2.112 0.890357 0
M  V30 3646 C 355.229 -1.60359 -0.118943 0
M  V30 3647 O 356.419 -1.73833 0.113086 0
M  V30 3648 C 353.551 -3.39266 0.333422 0
M  V30 3649 H 354.744 -2.37659 1.82916 0
M  V30 3650 H 352.297 -1.21538 0.982758 0
M  V30 3651 H 353.032 -3.18462 -0.612587 0
M  V30 3652 H 352.817 -3.77477 1.06082 0
M  V30 3653 H 354.307 -4.17315 0.154322 0
M  V30 3654 N 354.744 -0.972509 -1.24016 0
M  V30 3655 C 356.155 -0.67517 -1.74064 0
M  V30 3656 C 356.506 0.808939 -1.78747 0
M  V30 3657 O 355.631 1.63286 -1.42009 0
M  V30 3658 C 356.226 -1.21889 -3.16115 0
M  V30 3659 C 354.785 -0.971358 -3.6365 0
M  V30 3660 C 353.932 -1.35134 -2.42145 0
M  V30 3661 H 356.883 -1.14727 -1.09651 0
M  V30 3662 H 356.904 -0.587489 -3.75937 0
M  V30 3663 H 356.416 -2.29906 -3.12674 0
M  V30 3664 H 354.517 0.0930686 -3.72484 0
M  V30 3665 H 354.63 -1.62039 -4.50866 0
M  V30 3666 H 352.994 -0.769751 -2.4279 0
M  V30 3667 H 353.777 -2.4411 -2.41381 0
M  V30 3668 N 356.222 1.38976 -0.743202 0
M  V30 3669 C 357.447 2.05161 -0.303936 0
M  V30 3670 C 357.872 1.55677 1.05576 0
M  V30 3671 O 357.23 0.704131 1.67068 0
M  V30 3672 C 357.278 3.59138 -0.324373 0
M  V30 3673 O 356.382 4.06668 0.685204 0
M  V30 3674 H 355.723 0.649815 -0.136518 0
M  V30 3675 H 358.253 1.77852 -1.01142 0
M  V30 3676 H 358.263 4.07639 -0.171618 0
M  V30 3677 H 356.938 3.94515 -1.31647 0
M  V30 3678 H 355.515 3.69561 0.497913 0
M  V30 3679 N 357.7 0.491464 1.49741 0
M  V30 3680 C 358.948 -0.0563141 2.02022 0
M  V30 3681 C 359.269 -1.38363 1.37407 0
M  V30 3682 O 358.539 -1.88702 0.526166 0
M  V30 3683 H 357.119 -0.0238014 0.746621 0
M  V30 3684 H 359.781 0.646533 1.83864 0
M  V30 3685 H 358.877 -0.192967 3.11503 0
M  V30 3686 N 359.178 -1.55987 0.224894 0
M  V30 3687 C 360.425 -1.9839 -0.4059 0
M  V30 3688 C 360.753 -1.11261 -1.59535 0
M  V30 3689 O 360.008 -0.158314 -1.95059 0
M  V30 3690 C 360.307 -3.46394 -0.880106 0
M  V30 3691 C 359.973 -4.5046 0.19918 0
M  V30 3692 C 358.635 -4.7864 0.495661 0
M  V30 3693 C 360.987 -5.12855 0.928939 0
M  V30 3694 C 358.315 -5.66497 1.52636 0
M  V30 3695 C 360.667 -6.01828 1.949 0
M  V30 3696 C 359.331 -6.28351 2.25236 0
M  V30 3697 H 358.601 -0.725961 -0.148529 0
M  V30 3698 H 361.248 -1.88668 0.328113 0
M  V30 3699 H 359.553 -3.53337 -1.69294 0
M  V30 3700 H 361.25 -3.76577 -1.37808 0
M  V30 3701 H 357.84 -4.28579 -0.0420526 0
M  V30 3702 H 362.024 -4.9115 0.713129 0
M  V30 3703 H 357.28 -5.8531 1.76698 0
M  V30 3704 H 361.454 -6.49225 2.51951 0
M  V30 3705 H 359.081 -6.96226 3.05244 0
M  V30 3706 N 360.656 0.0484629 -1.57525 0
M  V30 3707 C 361.603 1.05504 -2.05275 0
M  V30 3708 C 362.573 1.37084 -0.937927 0
M  V30 3709 O 363.758 1.47754 -1.2072 0
M  V30 3710 C 360.898 2.35676 -2.52093 0
M  V30 3711 C 360.011 2.10423 -3.77288 0
M  V30 3712 C 359.146 3.34327 -4.12794 0
M  V30 3713 C 358.185 3.04542 -5.30962 0
M  V30 3714 N 357.322 4.20841 -5.61994 0
M  V30 3715 H 362.162 0.640885 -2.91027 0
M  V30 3716 H 359.699 0.304854 -1.43906 0
M  V30 3717 H 361.657 3.11709 -2.77297 0
M  V30 3718 H 360.287 2.7485 -1.69285 0
M  V30 3719 H 359.339 1.24976 -3.59284 0
M  V30 3720 H 360.651 1.84438 -4.63448 0
M  V30 3721 H 359.805 4.1874 -4.39024 0
M  V30 3722 H 358.544 3.63408 -3.25247 0
M  V30 3723 H 357.549 2.18528 -5.04505 0
M  V30 3724 H 358.774 2.76758 -6.20146 0
M  V30 3725 H 356.72 4.4991 -4.77406 0
M  V30 3726 H 356.637 3.98212 -6.42622 0
M  V30 3727 H 357.905 5.06184 -5.92789 0
M  V30 3728 N 362.134 1.5431 0.320358 0
M  V30 3729 C 363.084 1.803 1.39556 0
M  V30 3730 C 364.068 0.659166 1.46778 0
M  V30 3731 O 365.26 0.91926 1.51257 0
M  V30 3732 C 362.389 2.03665 2.76361 0
M  V30 3733 C 361.475 3.24178 2.73439 0
M  V30 3734 N 361.866 4.4516 2.40137 0
M  V30 3735 C 360.164 3.25816 3.04565 0
M  V30 3736 C 360.865 5.27109 2.4603 0
M  V30 3737 N 359.841 4.64368 2.82601 0
M  V30 3738 H 363.643 2.71416 1.12742 0
M  V30 3739 H 361.157 1.53548 0.528856 0
M  V30 3740 H 363.154 2.20425 3.53862 0
M  V30 3741 H 361.814 1.13805 3.04103 0
M  V30 3742 H 362.825 4.72104 2.12927 0
M  V30 3743 H 359.502 2.46001 3.37328 0
M  V30 3744 H 360.892 6.33728 2.23246 0
M  V30 3745 N 363.613 -0.582584 1.46437 0
M  V30 3746 C 364.859 -1.34278 1.51978 0
M  V30 3747 C 365.192 -1.93446 0.170973 0
M  V30 3748 O 364.467 -1.76481 -0.817608 0
M  V30 3749 C 364.75 -2.47203 2.61845 0
M  V30 3750 C 364.603 -1.93069 4.06257 0
M  V30 3751 C 365.922 -3.49247 2.67795 0
M  V30 3752 H 363.041 -0.486876 0.553282 0
M  V30 3753 H 365.683 -0.654437 1.78374 0
M  V30 3754 H 363.833 -3.0592 2.39469 0
M  V30 3755 H 365.505 -1.38808 4.3992 0
M  V30 3756 H 363.748 -1.23898 4.1573 0
M  V30 3757 H 364.419 -2.74586 4.7886 0
M  V30 3758 H 366.895 -3.00411 2.8791 0
M  V30 3759 H 365.771 -4.25719 3.46489 0
M  V30 3760 H 366.032 -4.06482 1.73852 0
M  V30 3761 N 365.091 -1.34144 -0.827227 0
M  V30 3762 C 366.316 -1.29476 -1.62021 0
M  V30 3763 C 366.741 0.129292 -1.87655 0
M  V30 3764 O 366.099 1.08967 -1.449 0
M  V30 3765 C 366.147 -2.08702 -2.94068 0
M  V30 3766 O 365.251 -1.45359 -3.85933 0
M  V30 3767 H 364.592 -0.444881 -0.492927 0
M  V30 3768 H 367.122 -1.76882 -1.02829 0
M  V30 3769 H 367.132 -2.19898 -3.43669 0
M  V30 3770 H 365.807 -3.12241 -2.74734 0
M  V30 3771 H 364.384 -1.42879 -3.44442 0
M  V30 3772 N 366.569 1.04691 -1.17803 0
M  V30 3773 C 367.519 2.10856 -0.867391 0
M  V30 3774 C 368.503 1.601 0.160206 0
M  V30 3775 O 369.695 1.76948 -0.042947 0
M  V30 3776 C 366.824 3.411 -0.388012 0
M  V30 3777 C 365.91 3.9864 -1.44732 0
M  V30 3778 N 366.301 4.30075 -2.66212 0
M  V30 3779 C 364.599 4.26439 -1.30637 0
M  V30 3780 C 365.3 4.76033 -3.34317 0
M  V30 3781 N 364.276 4.76462 -2.61696 0
M  V30 3782 H 368.078 2.33029 -1.79094 0
M  V30 3783 H 365.592 1.22386 -1.0675 0
M  V30 3784 H 367.589 4.16641 -0.146994 0
M  V30 3785 H 366.249 3.20357 0.529271 0
M  V30 3786 H 367.26 4.19917 -3.03134 0
M  V30 3787 H 363.937 4.15056 -0.451129 0
M  V30 3788 H 365.327 5.09427 -4.38103 0
M  V30 3789 N 368.047 0.979072 1.23499 0
M  V30 3790 C 369.293 0.648178 1.92163 0
M  V30 3791 C 369.626 -0.816049 1.76222 0
M  V30 3792 O 368.901 -1.58849 1.12237 0
M  V30 3793 C 369.184 1.03773 3.44824 0
M  V30 3794 C 369.037 2.55948 3.69879 0
M  V30 3795 C 370.356 0.580653 4.36253 0
M  V30 3796 H 367.475 0.236952 0.69787 0
M  V30 3797 H 370.117 1.22012 1.45647 0
M  V30 3798 H 368.267 0.551058 3.84572 0
M  V30 3799 H 369.939 3.12179 3.3962 0
M  V30 3800 H 368.182 2.98641 3.14636 0
M  V30 3801 H 368.853 2.78255 4.76737 0
M  V30 3802 H 371.329 0.998465 4.03943 0
M  V30 3803 H 370.205 0.881663 5.41773 0
M  V30 3804 H 370.466 -0.519052 4.39042 0
M  V30 3805 N 369.525 -1.3858 0.750561 0
M  V30 3806 C 370.773 -1.99789 0.30477 0
M  V30 3807 C 371.094 -1.59874 -1.11649 0
M  V30 3808 O 370.364 -0.85417 -1.76297 0
M  V30 3809 H 368.944 -0.738902 0.109694 0
M  V30 3810 H 371.606 -1.69391 0.963983 0
M  V30 3811 H 370.702 -3.09952 0.365499 0
M  V30 3812 N 371.003 -0.499398 -1.49478 0
M  V30 3813 C 372.249 0.0377587 -2.03365 0
M  V30 3814 C 372.604 1.3484 -1.37244 0
M  V30 3815 O 371.897 1.85 -0.498547 0
M  V30 3816 C 372.091 0.248424 -3.56536 0
M  V30 3817 C 371.92 -1.04025 -4.37503 0
M  V30 3818 C 370.69 -1.59159 -4.79579 0
M  V30 3819 C 372.888 -1.9431 -4.76181 0
M  V30 3820 N 370.87 -2.82634 -5.44969 0
M  V30 3821 C 372.241 -3.02364 -5.41272 0
M  V30 3822 C 374.296 -1.95008 -4.58123 0
M  V30 3823 C 372.999 -4.1114 -5.90217 0
M  V30 3824 C 375.025 -3.02758 -5.08027 0
M  V30 3825 C 374.387 -4.09531 -5.73118 0
M  V30 3826 H 370.486 -0.026923 -0.781536 0
M  V30 3827 H 373.07 -0.673901 -1.82665 0
M  V30 3828 H 371.241 0.929139 -3.77123 0
M  V30 3829 H 372.973 0.782445 -3.97064 0
M  V30 3830 H 369.728 -1.13696 -4.5975 0
M  V30 3831 H 370.152 -3.45416 -5.82252 0
M  V30 3832 H 374.794 -1.13766 -4.07207 0
M  V30 3833 H 372.512 -4.93181 -6.40155 0
M  V30 3834 H 376.098 -3.04315 -4.95866 0
M  V30 3835 H 374.978 -4.91534 -6.11035 0
M  V30 3836 N 372.481 1.55866 -0.233164 0
M  V30 3837 C 373.758 1.90471 0.444988 0
M  V30 3838 C 374.138 1.15209 1.7689 0
M  V30 3839 O 373.486 0.265119 2.26957 0
M  V30 3840 C 373.696 3.4333 0.626559 0
M  V30 3841 C 375.044 4.14319 0.92871 0
M  V30 3842 O 376.068 3.48993 0.712926 0
M  V30 3843 O 374.927 5.29846 1.33887 0
M  V30 3844 H 372.021 0.792347 0.236885 0
M  V30 3845 H 374.567 1.67437 -0.276211 0
M  V30 3846 H 373.339 3.90095 -0.306822 0
M  V30 3847 H 372.962 3.72181 1.39881 0
M  V30 3848 N 373.959 -0.0401083 1.57549 0
M  V30 3849 C 375.37 -0.588097 1.77196 0
M  V30 3850 C 375.721 -1.76209 0.862832 0
M  V30 3851 O 374.846 -2.16331 0.0548389 0
M  V30 3852 C 375.441 -1.07363 3.21339 0
M  V30 3853 C 374 -1.56723 3.42221 0
M  V30 3854 C 373.147 -0.50041 2.72747 0
M  V30 3855 H 376.098 0.186119 1.57605 0
M  V30 3856 H 376.119 -1.94143 3.27244 0
M  V30 3857 H 375.631 -0.218975 3.87482 0
M  V30 3858 H 373.732 -2.4441 2.81237 0
M  V30 3859 H 373.845 -1.62234 4.50796 0
M  V30 3860 H 372.209 -0.952894 2.36203 0
M  V30 3861 H 372.992 0.344599 3.41566 0
M  V30 3862 N 375.437 -1.54477 -0.31217 0
M  V30 3863 C 376.369 -1.81011 -1.40598 0
M  V30 3864 C 377.382 -0.692546 -1.47335 0
M  V30 3865 O 378.571 -0.969847 -1.49854 0
M  V30 3866 C 375.671 -1.92307 -2.79054 0
M  V30 3867 C 374.844 -3.22594 -2.95384 0
M  V30 3868 C 373.903 -3.24448 -4.1427 0
M  V30 3869 O 372.929 -3.98035 -4.06887 0
M  V30 3870 N 374.131 -2.49042 -5.24365 0
M  V30 3871 H 376.896 -2.75408 -1.18196 0
M  V30 3872 H 374.457 -1.53914 -0.502202 0
M  V30 3873 H 376.449 -1.90962 -3.56813 0
M  V30 3874 H 375.019 -1.04955 -2.94454 0
M  V30 3875 H 374.239 -3.36806 -2.04831 0
M  V30 3876 H 375.527 -4.08593 -3.03198 0
M  V30 3877 H 374.925 -1.88867 -5.33241 0
M  V30 3878 H 373.482 -2.53463 -6.005 0
M  V30 3879 N 376.915 0.57481 -1.46744 0
M  V30 3880 C 377.863 1.70435 -1.58286 0
M  V30 3881 C 378.857 1.63287 -0.450956 0
M  V30 3882 O 380.063 1.68685 -0.628121 0
M  V30 3883 H 376.438 0.56364 -0.497809 0
M  V30 3884 H 378.409 1.57833 -2.53242 0
M  V30 3885 C 377.158 3.08815 -1.59776 0
M  V30 3886 H 376.481 3.1499 -2.46214 0
M  V30 3887 H 377.921 3.87588 -1.71905 0
M  V30 3888 C 376.38 3.35301 -0.327812 0
M  V30 3889 O 376.91 3.97511 0.57861 0
M  V30 3890 N 375.116 2.89816 -0.213274 0
M  V30 3891 H 374.663 2.39371 -0.951798 0
M  V30 3892 H 374.621 3.0791 0.63553 0
M  V30 3893 N 378.394 1.34581 0.820102 0
M  V30 3894 C 379.642 1.26845 1.57336 0
M  V30 3895 C 379.963 -0.160667 1.94337 0
M  V30 3896 O 379.233 -1.09396 1.6251 0
M  V30 3897 H 377.813 0.466514 0.583415 0
M  V30 3898 H 380.475 1.68526 0.979027 0
M  V30 3899 H 379.571 1.87513 2.4949 0
M  V30 3900 N 379.872 -1.04064 1.18357 0
M  V30 3901 C 381.119 -1.77265 0.978947 0
M  V30 3902 C 381.447 -1.88189 -0.491428 0
M  V30 3903 O 380.702 -1.38653 -1.38108 0
M  V30 3904 C 381.001 -3.20634 1.57888 0
M  V30 3905 C 380.667 -3.29743 3.07539 0
M  V30 3906 C 379.329 -3.31937 3.48384 0
M  V30 3907 C 381.681 -3.29841 4.03552 0
M  V30 3908 C 379.009 -3.3187 4.83818 0
M  V30 3909 C 381.361 -3.31313 5.38901 0
M  V30 3910 C 380.025 -3.31799 5.79194 0
M  V30 3911 H 379.295 -0.648659 0.358222 0
M  V30 3912 H 381.942 -1.22225 1.47422 0
M  V30 3913 H 380.247 -3.78675 1.00561 0
M  V30 3914 H 381.944 -3.75917 1.39598 0
M  V30 3915 H 378.534 -3.28757 2.74986 0
M  V30 3916 H 382.718 -3.27337 3.73047 0
M  V30 3917 H 377.974 -3.30562 5.14333 0
M  V30 3918 H 382.148 -3.30338 6.13066 0
M  V30 3919 H 379.775 -3.315 6.84114 0
M  V30 3920 N 381.35 -0.985608 -1.22978 0
M  V30 3921 C 382.627 -0.573599 -1.87001 0
M  V30 3922 C 383.007 0.949213 -1.88555 0
M  V30 3923 O 382.355 1.82811 -1.37086 0
M  V30 3924 C 382.565 -1.18564 -3.28243 0
M  V30 3925 C 383.913 -1.28163 -4.04796 0
M  V30 3926 O 384.937 -1.13949 -3.37482 0
M  V30 3927 O 383.796 -1.50832 -5.25273 0
M  V30 3928 H 380.89 -0.193868 -0.803955 0
M  V30 3929 H 383.436 -1.08102 -1.30813 0
M  V30 3930 H 382.208 -2.22758 -3.21706 0
M  V30 3931 H 381.831 -0.663363 -3.92027 0
M  V30 3932 N 382.828 1.3818 -0.7579 0
M  V30 3933 C 384.074 2.00316 -0.316453 0
M  V30 3934 C 384.407 1.60026 1.10025 0
M  V30 3935 O 383.682 0.839835 1.75434 0
M  V30 3936 C 383.965 3.57349 -0.444245 0
M  V30 3937 C 383.818 4.07591 -1.90236 0
M  V30 3938 C 385.137 4.3981 0.1598 0
M  V30 3939 H 382.256 0.727741 -0.116459 0
M  V30 3940 H 384.898 1.6406 -0.958352 0
M  V30 3941 H 383.048 3.88365 0.102233 0
M  V30 3942 H 384.72 3.87199 -2.50748 0
M  V30 3943 H 382.963 3.60297 -2.41595 0
M  V30 3944 H 383.634 5.16677 -1.94291 0
M  V30 3945 H 386.11 4.14971 -0.306314 0
M  V30 3946 H 384.986 5.48885 0.0401675 0
M  V30 3947 H 385.247 4.24102 1.24859 0
M  V30 3948 N 384.306 0.507319 1.49211 0
M  V30 3949 C 385.254 -0.281364 2.30892 0
M  V30 3950 C 386.248 -0.95687 1.39787 0
M  V30 3951 O 387.454 -0.883838 1.56807 0
M  V30 3952 H 383.829 -0.109597 0.743971 0
M  V30 3953 H 385.8 0.42744 2.95323 0
M  V30 3954 C 384.549 -1.32918 3.21291 0
M  V30 3955 H 383.872 -0.818799 3.91326 0
M  V30 3956 H 385.312 -1.85288 3.81372 0
M  V30 3957 C 383.771 -2.35074 2.41333 0
M  V30 3958 O 384.301 -3.4108 2.12197 0
M  V30 3959 N 382.507 -2.07705 2.03241 0
M  V30 3960 H 382.054 -1.2152 2.27136 0
M  V30 3961 H 382.012 -2.76283 1.50051 0
M  V30 3962 N 385.784 -1.5574 0.241426 0
M  V30 3963 C 386.732 -2.22538 -0.676718 0
M  V30 3964 C 387.726 -1.21117 -1.18436 0
M  V30 3965 O 388.932 -1.39144 -1.14188 0
M  V30 3966 H 385.307 -0.713776 -0.236701 0
M  V30 3967 H 387.278 -2.98264 -0.0901187 0
M  V30 3968 C 386.027 -2.93439 -1.86518 0
M  V30 3969 H 385.35 -3.7125 -1.4837 0
M  V30 3970 H 386.79 -3.43549 -2.48495 0
M  V30 3971 C 385.249 -1.97008 -2.73294 0
M  V30 3972 O 385.779 -1.49965 -3.72657 0
M  V30 3973 N 383.985 -1.64227 -2.39745 0
M  V30 3974 H 383.532 -2.02677 -1.58996 0
M  V30 3975 H 383.49 -0.999708 -2.98083 0
M  V30 3976 N 387.262 0.0317525 -1.57568 0
M  V30 3977 C 388.192 1.03274 -2.0942 0
M  V30 3978 C 389.173 1.3788 -0.996143 0
M  V30 3979 O 390.358 1.46811 -1.27122 0
M  V30 3980 C 387.488 2.33448 -2.57137 0
M  V30 3981 C 386.442 2.13091 -3.71182 0
M  V30 3982 C 385.768 3.49001 -4.05095 0
M  V30 3983 C 387.068 1.51928 -4.99715 0
M  V30 3984 H 388.762 0.60112 -2.93303 0
M  V30 3985 H 386.308 0.287705 -1.41097 0
M  V30 3986 H 388.261 3.03802 -2.92032 0
M  V30 3987 H 386.985 2.78665 -1.70333 0
M  V30 3988 H 385.644 1.45171 -3.36632 0
M  V30 3989 H 385.292 3.91862 -3.15362 0
M  V30 3990 H 384.992 3.36207 -4.81911 0
M  V30 3991 H 386.516 4.20721 -4.42522 0
M  V30 3992 H 387.93 2.12196 -5.32584 0
M  V30 3993 H 386.327 1.49716 -5.81124 0
M  V30 3994 H 387.397 0.484811 -4.8247 0
M  V30 3995 N 388.74 1.54641 0.303973 0
M  V30 3996 C 390.017 1.64455 1.05896 0
M  V30 3997 C 390.397 0.490923 2.05312 0
M  V30 3998 O 389.745 -0.512685 2.22674 0
M  V30 3999 C 389.955 3.02331 1.74347 0
M  V30 4000 C 391.303 3.59045 2.26653 0
M  V30 4001 O 392.327 3.04764 1.84384 0
M  V30 4002 O 391.186 4.54081 3.04093 0
M  V30 4003 H 388.28 0.666729 0.489287 0
M  V30 4004 H 390.826 1.66986 0.302298 0
M  V30 4005 H 389.598 3.77734 1.02142 0
M  V30 4006 H 389.221 3.03565 2.56777 0
M  V30 4007 N 390.218 -0.567019 1.47046 0
M  V30 4008 C 391.629 -1.14916 1.47143 0
M  V30 4009 C 391.98 -1.94954 0.220767 0
M  V30 4010 O 391.105 -2.05602 -0.67505 0
M  V30 4011 C 391.7 -2.09069 2.666 0
M  V30 4012 C 390.259 -2.62575 2.69687 0
M  V30 4013 C 389.406 -1.38755 2.40088 0
M  V30 4014 H 392.357 -0.354126 1.54699 0
M  V30 4015 H 392.378 -2.92789 2.43011 0
M  V30 4016 H 391.89 -1.50789 3.57609 0
M  V30 4017 H 389.991 -3.24681 1.82792 0
M  V30 4018 H 390.104 -3.04239 3.70102 0
M  V30 4019 H 388.468 -1.69098 1.90468 0
M  V30 4020 H 389.251 -0.822822 3.33293 0
M  V30 4021 N 391.696 -1.35014 -0.812953 0
M  V30 4022 C 392.973 -1.18502 -1.55617 0
M  V30 4023 C 393.353 0.238421 -2.09749 0
M  V30 4024 O 392.701 1.2411 -1.91857 0
M  V30 4025 C 392.911 -2.24783 -2.66971 0
M  V30 4026 C 394.259 -2.60268 -3.35478 0
M  V30 4027 O 395.283 -2.23648 -2.77236 0
M  V30 4028 O 394.142 -3.2321 -4.40678 0
M  V30 4029 H 391.236 -0.459984 -0.687272 0
M  V30 4030 H 393.782 -1.46677 -0.853464 0
M  V30 4031 H 392.554 -3.20284 -2.24798 0
M  V30 4032 H 392.177 -1.97841 -3.44884 0
M  V30 4033 N 393.175 1.03435 -1.18907 0
M  V30 4034 C 394.105 2.13503 -0.945448 0
M  V30 4035 C 395.086 1.69682 0.119189 0
M  V30 4036 O 396.271 1.94169 -0.034707 0
M  V30 4037 C 393.401 3.44004 -0.477316 0
M  V30 4038 C 392.355 4.0148 -1.48316 0
M  V30 4039 C 391.681 5.27537 -0.872311 0
M  V30 4040 C 392.981 4.36921 -2.86177 0
M  V30 4041 H 394.675 2.34141 -1.86597 0
M  V30 4042 H 392.221 1.12523 -0.898584 0
M  V30 4043 H 394.174 4.20372 -0.294204 0
M  V30 4044 H 392.898 3.23072 0.478786 0
M  V30 4045 H 391.557 3.27201 -1.65332 0
M  V30 4046 H 391.205 5.02917 0.0911752 0
M  V30 4047 H 390.905 5.66954 -1.54393 0
M  V30 4048 H 392.429 6.06576 -0.699871 0
M  V30 4049 H 393.843 5.04248 -2.72776 0
M  V30 4050 H 392.24 4.87405 -3.50081 0
M  V30 4051 H 393.31 3.46466 -3.39248 0
M  V30 4052 N 394.653 0.992116 1.22453 0
M  V30 4053 C 396.069 0.702713 1.43297 0
M  V30 4054 C 396.269 -0.726909 1.87932 0
M  V30 4055 O 395.325 -1.49792 2.0327 0
M  V30 4056 C 396.638 1.70762 2.47509 0
M  V30 4057 C 398.186 1.72298 2.61309 0
M  V30 4058 C 398.661 2.71649 3.68742 0
M  V30 4059 N 400.152 2.70239 3.76199 0
M  V30 4060 C 400.887 3.43778 4.58917 0
M  V30 4061 N 400.383 4.26914 5.45633 0
M  V30 4062 N 402.176 3.32487 4.5322 0
M  V30 4063 H 394.327 1.91543 0.917871 0
M  V30 4064 H 396.59 0.826031 0.465162 0
M  V30 4065 H 396.296 2.73059 2.21657 0
M  V30 4066 H 396.17 1.49985 3.46099 0
M  V30 4067 H 398.557 0.706989 2.86506 0
M  V30 4068 H 398.638 1.97143 1.62997 0
M  V30 4069 H 398.282 3.73397 3.44292 0
M  V30 4070 H 398.212 2.44074 4.66622 0
M  V30 4071 H 400.703 2.09912 3.14237 0
M  V30 4072 H 401.016 4.79855 6.05771 0
M  V30 4073 H 399.361 4.31002 5.45218 0
M  V30 4074 H 402.552 2.6698 3.84499 0
M  V30 4075 H 402.725 3.90058 5.17454 0
M  V30 4076 N 396.131 -1.37776 0.765217 0
M  V30 4077 C 397.356 -2.04651 0.336537 0
M  V30 4078 C 397.781 -1.57337 -1.03086 0
M  V30 4079 O 397.139 -0.730621 -1.65927 0
M  V30 4080 C 397.187 -3.58577 0.381468 0
M  V30 4081 O 396.291 -4.07706 -0.62042 0
M  V30 4082 H 395.632 -0.64756 0.146838 0
M  V30 4083 H 398.162 -1.76221 1.03959 0
M  V30 4084 H 398.172 -4.07314 0.236448 0
M  V30 4085 H 396.847 -3.9237 1.37907 0
M  V30 4086 H 395.424 -3.70306 -0.439056 0
M  V30 4087 N 397.609 -0.515225 -1.4894 0
M  V30 4088 C 398.539 0.244628 -2.32215 0
M  V30 4089 C 399.52 0.949136 -1.41157 0
M  V30 4090 O 400.705 0.937783 -1.70057 0
M  V30 4091 C 397.835 1.30096 -3.22013 0
M  V30 4092 C 396.789 0.715486 -4.21977 0
M  V30 4093 C 396.115 1.87339 -5.00808 0
M  V30 4094 C 397.415 -0.302982 -5.2142 0
M  V30 4095 H 399.109 -0.450501 -2.95991 0
M  V30 4096 H 396.655 -0.218098 -1.42339 0
M  V30 4097 H 398.608 1.84037 -3.79089 0
M  V30 4098 H 397.332 2.02547 -2.56207 0
M  V30 4099 H 395.991 0.197715 -3.66066 0
M  V30 4100 H 395.639 2.58592 -4.31438 0
M  V30 4101 H 395.339 1.48764 -5.68457 0
M  V30 4102 H 396.863 2.41686 -5.60732 0
M  V30 4103 H 398.277 0.148802 -5.73107 0
M  V30 4104 H 396.674 -0.60532 -5.97039 0
M  V30 4105 H 397.744 -1.21395 -4.69459 0
M  V30 4106 N 399.087 1.5561 -0.249682 0
M  V30 4107 C 400.334 1.99011 0.374287 0
M  V30 4108 C 400.662 1.13785 1.57744 0
M  V30 4109 O 399.917 0.189326 1.94782 0
M  V30 4110 C 400.216 3.4775 0.824887 0
M  V30 4111 C 399.882 4.50086 -0.270819 0
M  V30 4112 C 398.544 4.77791 -0.571746 0
M  V30 4113 C 400.896 5.11312 -1.01041 0
M  V30 4114 C 398.224 5.63997 -1.61629 0
M  V30 4115 C 400.576 5.98651 -2.0445 0
M  V30 4116 C 399.24 6.24688 -2.35204 0
M  V30 4117 H 398.51 0.728233 0.136961 0
M  V30 4118 H 401.157 1.88122 -0.358087 0
M  V30 4119 H 399.462 3.55985 1.63651 0
M  V30 4120 H 401.159 3.78721 1.31799 0
M  V30 4121 H 397.749 4.28592 -0.026136 0
M  V30 4122 H 401.933 4.89953 -0.791177 0
M  V30 4123 H 397.189 5.82425 -1.85988 0
M  V30 4124 H 401.363 6.45135 -2.62248 0
M  V30 4125 H 398.99 6.91281 -3.16282 0
M  V30 4126 N 400.565 -0.0233959 1.57583 0
M  V30 4127 C 401.79 -0.728376 1.94189 0
M  V30 4128 C 402.215 -1.67793 0.850119 0
M  V30 4129 O 401.573 -1.80262 -0.19371 0
M  V30 4130 C 401.621 -1.45669 3.29868 0
M  V30 4131 O 400.725 -2.57013 3.22518 0
M  V30 4132 H 400.066 -0.195493 0.63457 0
M  V30 4133 H 402.596 0.0228214 2.04587 0
M  V30 4134 H 402.606 -1.82535 3.6489 0
M  V30 4135 H 401.281 -0.760314 4.08891 0
M  V30 4136 H 399.858 -2.22648 2.99136 0
M  V30 4137 N 402.043 -1.548 -0.295768 0
M  V30 4138 C 403.459 -1.4613 -0.641722 0
M  V30 4139 C 403.659 -0.656771 -1.90496 0
M  V30 4140 O 402.715 -0.166547 -2.5195 0
M  V30 4141 C 404.028 -2.90141 -0.789852 0
M  V30 4142 C 405.576 -3.00216 -0.885396 0
M  V30 4143 C 406.051 -4.45434 -1.06548 0
M  V30 4144 N 407.542 -4.49166 -1.13156 0
M  V30 4145 C 408.277 -5.58717 -1.28929 0
M  V30 4146 N 407.773 -6.78182 -1.41567 0
M  V30 4147 N 409.566 -5.46415 -1.31859 0
M  V30 4148 H 401.717 -2.05574 0.534147 0
M  V30 4149 H 403.98 -0.931259 0.177372 0
M  V30 4150 H 403.686 -3.51635 0.0675598 0
M  V30 4151 H 403.56 -3.37859 -1.67724 0
M  V30 4152 H 405.947 -2.38833 -1.73329 0
M  V30 4153 H 406.028 -2.55787 0.0261185 0
M  V30 4154 H 405.672 -5.07413 -0.222335 0
M  V30 4155 H 405.602 -4.87499 -1.9913 0
M  V30 4156 H 408.093 -3.631 -1.04721 0
M  V30 4157 H 408.406 -7.57428 -1.53372 0
M  V30 4158 H 406.751 -6.81037 -1.38613 0
M  V30 4159 H 409.942 -4.5203 -1.21601 0
M  V30 4160 H 410.115 -6.31841 -1.43808 0
M  V30 4161 N 403.521 0.559213 -1.47345 0
M  V30 4162 C 404.484 1.64854 -1.59235 0
M  V30 4163 C 405.484 1.53851 -0.467607 0
M  V30 4164 O 406.674 1.58045 -0.732617 0
M  V30 4165 C 403.806 3.04388 -1.53496 0
M  V30 4166 H 404.999 1.55662 -2.56339 0
M  V30 4167 H 402.552 0.778973 -1.35505 0
M  V30 4168 H 403.287 3.19115 -0.577604 0
M  V30 4169 H 403.072 3.13783 -2.35123 0
M  V30 4170 H 404.562 3.83642 -1.6495 0
M  V30 4171 N 404.999 1.35443 0.805782 0
M  V30 4172 C 406.247 1.28507 1.55982 0
M  V30 4173 C 406.568 -0.140046 1.94496 0
M  V30 4174 O 405.838 -1.07666 1.63661 0
M  V30 4175 H 404.418 0.472676 0.578434 0
M  V30 4176 H 407.08 1.69555 0.961098 0
M  V30 4177 H 406.176 1.90148 2.47488 0
M  V30 4178 N 406.477 -1.02803 1.19454 0
M  V30 4179 C 407.726 -1.7562 0.991996 0
M  V30 4180 C 408.039 -1.89672 -0.477901 0
M  V30 4181 O 409.245 -2.59468 -0.799287 0
M  V30 4182 C 407.701 -3.15812 1.72601 0
M  V30 4183 C 407.309 -3.0981 3.23607 0
M  V30 4184 C 409.053 -3.92918 1.60674 0
M  V30 4185 C 406.96 -4.44939 3.89594 0
M  V30 4186 H 405.89 -0.658352 0.367543 0
M  V30 4187 H 408.541 -1.15044 1.42959 0
M  V30 4188 H 406.923 -3.7686 1.21624 0
M  V30 4189 H 408.097 -2.58138 3.81709 0
M  V30 4190 H 406.412 -2.46201 3.35819 0
M  V30 4191 H 409.009 -4.9287 2.07323 0
M  V30 4192 H 409.352 -4.12502 0.561025 0
M  V30 4193 H 409.885 -3.38472 2.09001 0
M  V30 4194 H 406.624 -4.30559 4.94267 0
M  V30 4195 H 406.144 -4.96664 3.36281 0
M  V30 4196 H 407.823 -5.1382 3.93189 0
M  V30 4197 N 407.956 -0.998596 -1.21925 0
M  V30 4198 C 409.181 -0.696015 -1.95372 0
M  V30 4199 C 409.606 0.733826 -1.73195 0
M  V30 4200 O 408.964 1.50242 -1.01474 0
M  V30 4201 C 409.012 -1.01466 -3.4603 0
M  V30 4202 O 408.116 -0.116415 -4.12236 0
M  V30 4203 H 407.457 -0.259938 -0.611006 0
M  V30 4204 H 409.987 -1.33711 -1.54863 0
M  V30 4205 H 409.997 -0.958855 -3.96573 0
M  V30 4206 H 408.672 -2.05653 -3.61497 0
M  V30 4207 H 407.249 -0.228193 -3.72201 0
M  V30 4208 N 409.434 1.37368 -0.772513 0
M  V30 4209 C 410.344 2.34053 -0.160081 0
M  V30 4210 C 411.36 1.60216 0.678728 0
M  V30 4211 O 412.536 1.92303 0.59847 0
M  V30 4212 C 409.601 3.3939 0.708182 0
M  V30 4213 C 408.662 4.29048 -0.147172 0
M  V30 4214 C 407.895 5.29354 0.679744 0
M  V30 4215 O 408.118 5.3723 1.91678 0
M  V30 4216 O 407.052 6.01835 0.0885444 0
M  V30 4217 H 410.878 2.88159 -0.959053 0
M  V30 4218 H 408.463 1.39543 -0.533685 0
M  V30 4219 H 410.345 4.03839 1.20384 0
M  V30 4220 H 409.02 2.8761 1.48533 0
M  V30 4221 H 407.927 3.67697 -0.689205 0
M  V30 4222 H 409.26 4.84134 -0.887423 0
M  V30 4223 N 410.912 0.523116 1.48665 0
M  V30 4224 C 411.875 -0.232592 2.28017 0
M  V30 4225 C 412.875 -0.874021 1.34972 0
M  V30 4226 O 414.065 -0.735132 1.57929 0
M  V30 4227 C 411.197 -1.33586 3.13636 0
M  V30 4228 H 412.39 0.464008 2.96289 0
M  V30 4229 H 409.943 0.278816 1.53793 0
M  V30 4230 H 410.678 -2.06593 2.4998 0
M  V30 4231 H 410.463 -0.881125 3.82071 0
M  V30 4232 H 411.953 -1.86759 3.73511 0
M  V30 4233 N 412.39 -1.55475 0.257931 0
M  V30 4234 C 413.322 -2.19192 -0.669881 0
M  V30 4235 C 414.335 -1.17148 -1.1305 0
M  V30 4236 O 415.524 -1.43959 -1.05537 0
M  V30 4237 C 412.624 -2.79016 -1.92363 0
M  V30 4238 C 411.797 -4.06586 -1.61265 0
M  V30 4239 C 410.856 -4.50622 -2.7171 0
M  V30 4240 O 409.882 -5.16765 -2.38627 0
M  V30 4241 N 411.084 -4.19325 -4.01431 0
M  V30 4242 H 413.849 -2.99441 -0.124635 0
M  V30 4243 H 411.41 -1.6171 0.0783311 0
M  V30 4244 H 413.402 -3.05427 -2.65511 0
M  V30 4245 H 411.972 -2.0286 -2.37837 0
M  V30 4246 H 411.192 -3.87646 -0.715811 0
M  V30 4247 H 412.48 -4.89737 -1.37967 0
M  V30 4248 H 411.878 -3.66247 -4.31138 0
M  V30 4249 H 410.435 -4.50547 -4.7101 0
M  V30 4250 N 413.868 0.0150385 -1.57593 0
M  V30 4251 C 414.798 1.01047 -2.10503 0
M  V30 4252 C 415.779 1.36816 -1.01071 0
M  V30 4253 O 416.964 1.45455 -1.28672 0
M  V30 4254 C 414.094 2.30708 -2.59598 0
M  V30 4255 C 413.048 2.09142 -3.73421 0
M  V30 4256 C 412.374 3.44685 -4.08774 0
M  V30 4257 C 413.674 1.46619 -5.01298 0
M  V30 4258 H 415.368 0.569978 -2.93925 0
M  V30 4259 H 412.914 0.272724 -1.41394 0
M  V30 4260 H 414.867 3.00687 -2.95238 0
M  V30 4261 H 413.591 2.76843 -1.73279 0
M  V30 4262 H 412.25 1.41592 -3.38153 0
M  V30 4263 H 411.898 3.88495 -3.195 0
M  V30 4264 H 411.598 3.31077 -4.8545 0
M  V30 4265 H 413.122 4.16004 -4.4696 0
M  V30 4266 H 414.536 2.06535 -5.34805 0
M  V30 4267 H 412.933 1.43544 -5.82679 0
M  V30 4268 H 414.003 0.433611 -4.82957 0
M  V30 4269 N 415.346 1.54954 0.287554 0
M  V30 4270 C 416.574 1.78881 1.03967 0
M  V30 4271 C 416.989 0.554894 1.80462 0
M  V30 4272 O 416.346 -0.475676 1.76192 0
M  V30 4273 C 416.397 3.00488 2.0097 0
M  V30 4274 O 416.118 4.19113 1.27577 0
M  V30 4275 C 417.619 3.36907 2.88112 0
M  V30 4276 H 414.839 0.596259 0.307761 0
M  V30 4277 H 417.383 2.01937 0.322749 0
M  V30 4278 H 415.538 2.79601 2.68145 0
M  V30 4279 H 415.952 4.87765 1.92835 0
M  V30 4280 H 417.426 4.25205 3.52001 0
M  V30 4281 H 417.903 2.55659 3.57121 0
M  V30 4282 H 418.509 3.60001 2.26449 0
M  V30 4283 N 416.824 -0.551391 1.4764 0
M  V30 4284 C 418.101 -1.31229 1.45046 0
M  V30 4285 C 418.481 -2.10563 0.150527 0
M  V30 4286 O 417.829 -2.11374 -0.867956 0
M  V30 4287 C 418.039 -2.21189 2.69956 0
M  V30 4288 C 419.387 -2.82021 3.1741 0
M  V30 4289 O 420.411 -2.31488 2.70724 0
M  V30 4290 O 419.27 -3.73885 3.98588 0
M  V30 4291 H 416.364 -0.591193 0.578291 0
M  V30 4292 H 418.91 -0.569813 1.59847 0
M  V30 4293 H 417.682 -1.62207 3.56096 0
M  V30 4294 H 417.305 -3.02722 2.57769 0
M  V30 4295 N 418.302 -1.35869 -0.798587 0
M  V30 4296 C 419.265 -1.29307 -1.89242 0
M  V30 4297 C 420.265 -0.202747 -1.59517 0
M  V30 4298 O 421.455 -0.456957 -1.681 0
M  V30 4299 C 418.587 -1.00229 -3.25833 0
M  V30 4300 H 419.78 -2.26576 -1.96478 0
M  V30 4301 H 417.333 -1.20509 -0.995358 0
M  V30 4302 H 418.068 -0.033801 -3.24282 0
M  V30 4303 H 417.853 -1.79121 -3.48795 0
M  V30 4304 H 419.343 -0.98219 -4.05885 0
M  V30 4305 N 419.78 1.02168 -1.19998 0
M  V30 4306 C 420.69 2.14069 -0.959774 0
M  V30 4307 C 421.706 1.73804 0.082655 0
M  V30 4308 O 422.882 2.01133 -0.103633 0
M  V30 4309 C 419.947 3.42936 -0.509459 0
M  V30 4310 C 419.008 3.97474 -1.62213 0
M  V30 4311 C 418.241 5.2019 -1.19321 0
M  V30 4312 O 418.464 5.70369 -0.0597726 0
M  V30 4313 O 417.398 5.67749 -1.99863 0
M  V30 4314 H 421.224 2.37199 -1.89658 0
M  V30 4315 H 418.809 1.12469 -0.983411 0
M  V30 4316 H 420.691 4.20551 -0.267322 0
M  V30 4317 H 419.366 3.21234 0.398821 0
M  V30 4318 H 418.273 3.21161 -1.9185 0
M  V30 4319 H 419.606 4.23555 -2.50723 0
M  V30 4320 N 421.258 1.00505 1.21394 0
M  V30 4321 C 422.486 0.706609 1.9446 0
M  V30 4322 C 422.901 -0.73081 1.74082 0
M  V30 4323 O 422.258 -1.49446 1.04747 0
M  V30 4324 C 422.309 1.01824 3.46863 0
M  V30 4325 O 422.03 2.39919 3.66566 0
M  V30 4326 C 423.531 0.739216 4.37093 0
M  V30 4327 H 420.751 0.260394 0.618414 0
M  V30 4328 H 423.295 1.34311 1.54211 0
M  V30 4329 H 421.45 0.427343 3.85036 0
M  V30 4330 H 421.864 2.50784 4.6066 0
M  V30 4331 H 423.338 1.00744 5.42729 0
M  V30 4332 H 423.815 -0.326746 4.37983 0
M  V30 4333 H 424.421 1.31173 4.04566 0
M  V30 4334 N 422.737 -1.36956 0.779787 0
M  V30 4335 C 423.962 -2.04283 0.358224 0
M  V30 4336 C 424.387 -1.58422 -1.01411 0
M  V30 4337 O 423.745 -0.748179 -1.65142 0
M  V30 4338 C 423.793 -3.58152 0.419479 0
M  V30 4339 O 422.897 -4.08342 -0.577142 0
M  V30 4340 H 422.238 -0.645967 0.153698 0
M  V30 4341 H 424.768 -1.75108 1.05822 0
M  V30 4342 H 424.778 -4.07041 0.279636 0
M  V30 4343 H 423.453 -3.90886 1.42061 0
M  V30 4344 H 422.03 -3.70751 -0.399755 0
M  V30 4345 N 424.215 -0.530993 -1.48385 0
M  V30 4346 C 425.162 0.231223 -2.29639 0
M  V30 4347 C 426.132 0.932864 -1.37429 0
M  V30 4348 O 427.317 0.933692 -1.66394 0
M  V30 4349 C 424.457 1.27155 -3.2082 0
M  V30 4350 C 423.57 0.578655 -4.28107 0
M  V30 4351 C 422.705 1.602 -5.06467 0
M  V30 4352 C 421.744 0.892625 -6.05556 0
M  V30 4353 N 420.881 1.86157 -6.76971 0
M  V30 4354 H 425.721 -0.467848 -2.94305 0
M  V30 4355 H 423.258 -0.242556 -1.45086 0
M  V30 4356 H 425.216 1.88703 -3.72085 0
M  V30 4357 H 423.846 1.939 -2.58075 0
M  V30 4358 H 422.898 -0.150782 -3.80101 0
M  V30 4359 H 424.21 0.0217065 -4.98795 0
M  V30 4360 H 423.364 2.29173 -5.61751 0
M  V30 4361 H 422.103 2.19285 -4.35621 0
M  V30 4362 H 421.108 0.188829 -5.49476 0
M  V30 4363 H 422.333 0.307878 -6.78402 0
M  V30 4364 H 420.279 2.44147 -6.08875 0
M  V30 4365 H 420.196 1.35608 -7.43738 0
M  V30 4366 H 421.464 2.54325 -7.36844 0
M  V30 4367 N 425.693 1.55336 -0.266172 0
M  V30 4368 C 426.623 2.25146 0.618981 0
M  V30 4369 C 427.604 1.23845 1.16604 0
M  V30 4370 O 428.789 1.52544 1.20183 0
M  V30 4371 C 425.919 2.96572 1.80728 0
M  V30 4372 C 424.873 4.04726 1.39215 0
M  V30 4373 C 424.199 4.63678 2.66283 0
M  V30 4374 C 425.499 5.19407 0.548942 0
M  V30 4375 H 427.193 2.99377 0.0368116 0
M  V30 4376 H 424.739 1.43991 0.0162651 0
M  V30 4377 H 426.692 3.44116 2.43232 0
M  V30 4378 H 425.416 2.19861 2.41514 0
M  V30 4379 H 424.075 3.57979 0.790351 0
M  V30 4380 H 423.723 3.83646 3.25308 0
M  V30 4381 H 423.423 5.367 2.39222 0
M  V30 4382 H 424.947 5.13967 3.29651 0
M  V30 4383 H 426.361 5.63059 1.07876 0
M  V30 4384 H 424.758 5.98936 0.373593 0
M  V30 4385 H 425.828 4.8295 -0.434394 0
M  V30 4386 N 427.171 -0.0066808 1.57599 0
M  V30 4387 C 428.42 -0.692078 1.89455 0
M  V30 4388 C 428.733 -1.75306 0.867586 0
M  V30 4389 O 429.939 -2.49262 1.07614 0
M  V30 4390 C 428.395 -1.2821 3.36289 0
M  V30 4391 C 428.003 -0.256291 4.47266 0
M  V30 4392 C 429.747 -1.94608 3.77264 0
M  V30 4393 C 427.654 -0.855927 5.85173 0
M  V30 4394 H 426.584 -0.262252 0.706923 0
M  V30 4395 H 429.235 0.052769 1.83424 0
M  V30 4396 H 427.617 -2.0774 3.37135 0
M  V30 4397 H 428.791 0.513923 4.57925 0
M  V30 4398 H 427.106 0.306862 4.15268 0
M  V30 4399 H 429.703 -2.40364 4.77629 0
M  V30 4400 H 430.046 -2.77382 3.10427 0
M  V30 4401 H 430.579 -1.21822 3.78688 0
M  V30 4402 H 427.318 -0.0671161 6.55466 0
M  V30 4403 H 426.838 -1.59546 5.78191 0
M  V30 4404 H 428.517 -1.35658 6.32618 0
M  V30 4405 N 428.649 -1.55105 -0.279332 0
M  V30 4406 C 429.879 -1.7917 -1.02867 0
M  V30 4407 C 430.287 -0.56204 -1.80659 0
M  V30 4408 O 429.63 0.478266 -1.77365 0
M  V30 4409 C 429.692 -2.96061 -2.03932 0
M  V30 4410 C 429.356 -4.33341 -1.45137 0
M  V30 4411 C 430.353 -5.12565 -0.870266 0
M  V30 4412 C 428.038 -4.79987 -1.48048 0
M  V30 4413 C 430.032 -6.36565 -0.326097 0
M  V30 4414 C 427.719 -6.03944 -0.932443 0
M  V30 4415 C 428.717 -6.8207 -0.356247 0
M  V30 4416 O 428.405 -8.03691 0.183412 0
M  V30 4417 H 428.137 -0.600796 -0.309872 0
M  V30 4418 H 430.691 -2.02932 -0.317468 0
M  V30 4419 H 428.921 -2.67975 -2.78794 0
M  V30 4420 H 430.61 -3.07506 -2.64943 0
M  V30 4421 H 431.376 -4.77661 -0.840521 0
M  V30 4422 H 427.255 -4.1919 -1.91835 0
M  V30 4423 H 430.799 -6.97489 0.124286 0
M  V30 4424 H 426.696 -6.3833 -0.959407 0
M  V30 4425 H 427.464 -8.18468 0.0721681 0
M  V30 4426 N 430.127 0.543554 -1.4793 0
M  V30 4427 C 431.404 1.30458 -1.4574 0
M  V30 4428 C 431.784 2.1048 -0.161692 0
M  V30 4429 O 431.132 2.11831 0.856734 0
M  V30 4430 C 431.342 2.19754 -2.71126 0
M  V30 4431 C 432.69 2.80334 -3.18901 0
M  V30 4432 O 433.714 2.30049 -2.71948 0
M  V30 4433 O 432.573 3.71766 -4.00565 0
M  V30 4434 H 429.667 0.588117 -0.581418 0
M  V30 4435 H 432.213 0.561328 -1.60147 0
M  V30 4436 H 430.985 1.60316 -3.56952 0
M  V30 4437 H 430.608 3.01351 -2.59371 0
M  V30 4438 N 431.605 1.3629 0.791371 0
M  V30 4439 C 432.852 1.30412 1.54916 0
M  V30 4440 C 433.18 -0.117162 1.94147 0
M  V30 4441 O 432.435 -1.08599 1.62803 0
M  V30 4442 C 432.734 2.17068 2.8393 0
M  V30 4443 C 432.4 3.65645 2.63846 0
M  V30 4444 C 431.062 4.0614 2.58077 0
M  V30 4445 C 433.414 4.59855 2.45322 0
M  V30 4446 C 430.742 5.3899 2.31748 0
M  V30 4447 C 433.094 5.9292 2.2052 0
M  V30 4448 C 431.758 6.32542 2.13183 0
M  V30 4449 H 431.028 0.47721 0.566879 0
M  V30 4450 H 433.675 1.68325 0.913172 0
M  V30 4451 H 431.98 1.72085 3.51986 0
M  V30 4452 H 433.677 2.09846 3.4171 0
M  V30 4453 H 430.267 3.33518 2.69191 0
M  V30 4454 H 434.451 4.29443 2.48782 0
M  V30 4455 H 429.707 5.68672 2.24548 0
M  V30 4456 H 433.881 6.65487 2.05182 0
M  V30 4457 H 431.508 7.35412 1.92544 0
M  V30 4458 N 433.083 -1.0153 1.20538 0
M  V30 4459 C 434.332 -1.74558 1.01057 0
M  V30 4460 C 434.645 -1.90168 -0.457756 0
M  V30 4461 O 435.851 -2.60301 -0.771722 0
M  V30 4462 C 434.307 -3.13963 1.75941 0
M  V30 4463 C 433.915 -3.06361 3.26875 0
M  V30 4464 C 435.659 -3.91191 1.64832 0
M  V30 4465 C 433.566 -4.40782 3.94291 0
M  V30 4466 H 432.496 -0.654417 0.374505 0
M  V30 4467 H 435.147 -1.13521 1.44171 0
M  V30 4468 H 433.529 -3.75549 1.25614 0
M  V30 4469 H 434.703 -2.54074 3.84425 0
M  V30 4470 H 433.018 -2.42625 3.38411 0
M  V30 4471 H 435.615 -4.90644 2.12539 0
M  V30 4472 H 435.958 -4.11884 0.604745 0
M  V30 4473 H 436.491 -3.36236 2.12579 0
M  V30 4474 H 433.23 -4.25292 4.98805 0
M  V30 4475 H 432.75 -4.9307 3.41529 0
M  V30 4476 H 434.429 -5.09621 3.98617 0
M  V30 4477 N 434.561 -1.01147 -1.20859 0
M  V30 4478 C 435.471 -0.58686 -2.27141 0
M  V30 4479 C 436.487 0.373198 -1.69951 0
M  V30 4480 O 437.663 0.235423 -2.00019 0
M  V30 4481 C 434.728 0.0733602 -3.46622 0
M  V30 4482 C 433.789 -0.931995 -4.19061 0
M  V30 4483 C 433.022 -0.303186 -5.32838 0
M  V30 4484 O 433.245 0.898395 -5.63281 0
M  V30 4485 O 432.179 -1.01735 -5.9324 0
M  V30 4486 H 436.005 -1.47155 -2.65667 0
M  V30 4487 H 433.59 -0.780689 -1.2738 0
M  V30 4488 H 435.472 0.442333 -4.19072 0
M  V30 4489 H 434.147 0.932329 -3.09983 0
M  V30 4490 H 433.054 -1.35224 -3.48805 0
M  V30 4491 H 434.387 -1.76076 -4.59628 0
M  V30 4492 N 436.039 1.36541 -0.78704 0
M  V30 4493 C 437.316 1.9355 -0.282424 0
M  V30 4494 C 437.696 1.71919 1.22503 0
M  V30 4495 O 437.044 1.07677 2.01539 0
M  V30 4496 C 437.254 3.4246 -0.672462 0
M  V30 4497 C 438.602 4.19582 -0.650863 0
M  V30 4498 O 439.626 3.50889 -0.612789 0
M  V30 4499 O 438.485 5.42106 -0.691623 0
M  V30 4500 H 435.579 0.824091 -0.0693 0
M  V30 4501 H 438.125 1.45736 -0.869423 0
M  V30 4502 H 436.897 3.51851 -1.71221 0
M  V30 4503 H 436.52 3.97556 -0.0592211 0
M  V30 4504 N 437.518 0.538854 1.48102 0
M  V30 4505 C 438.45 -0.256278 2.27763 0
M  V30 4506 C 439.463 -0.89633 1.35904 0
M  V30 4507 O 440.652 -0.773275 1.60881 0
M  V30 4508 C 437.752 -1.37896 3.09577 0
M  V30 4509 C 436.925 -0.839159 4.29275 0
M  V30 4510 C 435.984 -1.84405 4.9283 0
M  V30 4511 O 435.01 -1.39746 5.51779 0
M  V30 4512 N 436.212 -3.17666 4.85869 0
M  V30 4513 H 438.977 0.426968 2.96643 0
M  V30 4514 H 436.538 0.373747 1.57527 0
M  V30 4515 H 438.53 -2.04955 3.48963 0
M  V30 4516 H 437.1 -1.96572 2.4306 0
M  V30 4517 H 436.32 0.00769287 3.94199 0
M  V30 4518 H 437.608 -0.457548 5.06739 0
M  V30 4519 H 437.006 -3.56609 4.39143 0
M  V30 4520 H 435.563 -3.80334 5.29329 0
M  V30 4521 N 438.996 -1.55193 0.274407 0
M  V30 4522 C 440.244 -1.99187 -0.341902 0
M  V30 4523 C 440.565 -1.16422 -1.56431 0
M  V30 4524 O 439.835 -0.253573 -1.94252 0
M  V30 4525 H 438.415 -0.735721 -0.129317 0
M  V30 4526 H 441.077 -1.91168 0.379578 0
M  V30 4527 H 440.173 -3.05629 -0.632253 0
M  V30 4528 N 440.474 -0.00167713 -1.576 0
M  V30 4529 C 441.722 0.681471 -1.90264 0
M  V30 4530 C 442.043 1.7422 -0.875924 0
M  V30 4531 O 441.313 1.95709 0.0864412 0
M  V30 4532 H 439.893 0.254696 -0.702239 0
M  V30 4533 H 442.555 -0.0429996 -1.94853 0
M  V30 4534 H 441.651 1.15166 -2.90075 0
M  V30 4535 N 441.952 1.55251 0.271103 0
M  V30 4536 C 442.882 1.9127 1.33933 0
M  V30 4537 C 443.863 0.77478 1.5143 0
M  V30 4538 O 445.048 1.03307 1.64442 0
M  V30 4539 C 442.178 2.18627 2.69851 0
M  V30 4540 C 441.132 3.34442 2.67081 0
M  V30 4541 C 440.458 3.47284 4.06569 0
M  V30 4542 C 441.758 4.70784 2.26185 0
M  V30 4543 H 443.452 2.80744 1.04035 0
M  V30 4544 H 440.998 1.35077 0.499017 0
M  V30 4545 H 442.951 2.42413 3.44694 0
M  V30 4546 H 441.675 1.25955 3.01335 0
M  V30 4547 H 440.334 3.10627 1.94695 0
M  V30 4548 H 439.982 2.52074 4.35279 0
M  V30 4549 H 439.682 4.25152 4.0561 0
M  V30 4550 H 441.206 3.73363 4.83148 0
M  V30 4551 H 442.62 4.94102 2.90751 0
M  V30 4552 H 441.017 5.51582 2.36384 0
M  V30 4553 H 442.087 4.69478 1.21319 0
M  V30 4554 N 443.43 -0.535701 1.48216 0
M  V30 4555 C 444.34 -1.66785 1.64985 0
M  V30 4556 C 445.356 -1.65654 0.532414 0
M  V30 4557 O 446.532 -1.8471 0.80275 0
M  V30 4558 C 443.597 -3.0326 1.68031 0
M  V30 4559 C 442.658 -3.1529 2.9136 0
M  V30 4560 C 441.891 -4.45255 2.94252 0
M  V30 4561 O 442.114 -5.32011 2.05719 0
M  V30 4562 O 441.048 -4.6153 3.86359 0
M  V30 4563 H 444.874 -1.55576 2.60825 0
M  V30 4564 H 442.459 -0.70815 1.31551 0
M  V30 4565 H 444.341 -3.84436 1.72589 0
M  V30 4566 H 443.016 -3.14805 0.753628 0
M  V30 4567 H 441.923 -2.3343 2.92337 0
M  V30 4568 H 443.256 -3.08658 3.83394 0
M  V30 4569 N 444.908 -1.36708 -0.784132 0
M  V30 4570 C 445.871 -1.31307 -1.87859 0
M  V30 4571 C 446.871 -0.219654 -1.59293 0
M  V30 4572 O 448.061 -0.47476 -1.67606 0
M  V30 4573 C 445.193 -1.03679 -3.24751 0
M  V30 4574 H 446.386 -2.28647 -1.94064 0
M  V30 4575 H 443.939 -1.21558 -0.98252 0
M  V30 4576 H 444.674 -0.0681936 -3.24228 0
M  V30 4577 H 444.459 -1.82811 -3.46876 0
M  V30 4578 H 445.949 -1.02518 -4.04821 0
M  V30 4579 N 446.386 1.0089 -1.21074 0
M  V30 4580 C 447.632 1.74866 -1.02712 0
M  V30 4581 C 447.965 1.89178 0.438787 0
M  V30 4582 O 447.24 1.42325 1.32567 0
M  V30 4583 C 447.523 3.16347 -1.72036 0
M  V30 4584 C 447.376 3.09782 -3.26121 0
M  V30 4585 C 448.695 4.15187 -1.45973 0
M  V30 4586 H 445.814 0.634736 -0.374539 0
M  V30 4587 H 448.456 1.17646 -1.49196 0
M  V30 4588 H 446.606 3.65201 -1.32517 0
M  V30 4589 H 448.278 2.68673 -3.74983 0
M  V30 4590 H 446.521 2.46982 -3.56626 0
M  V30 4591 H 447.192 4.09829 -3.6979 0
M  V30 4592 H 449.668 3.75022 -1.80272 0
M  V30 4593 H 448.544 5.12331 -1.96999 0
M  V30 4594 H 448.805 4.40386 -0.388924 0
M  V30 4595 N 447.864 1.01787 1.20321 0
M  V30 4596 C 449.28 0.732951 1.41774 0
M  V30 4597 C 449.48 -0.686883 1.89431 0
M  V30 4598 O 448.536 -1.45446 2.06402 0
M  V30 4599 C 449.849 1.75973 2.43832 0
M  V30 4600 C 451.397 1.77802 2.57596 0
M  V30 4601 C 451.872 2.7941 3.62897 0
M  V30 4602 N 453.363 2.78157 3.70382 0
M  V30 4603 C 454.098 3.53434 4.51521 0
M  V30 4604 N 453.594 4.38392 5.36455 0
M  V30 4605 N 455.387 3.42026 4.46066 0
M  V30 4606 H 447.538 1.93447 0.877035 0
M  V30 4607 H 449.801 0.835712 0.447536 0
M  V30 4608 H 449.507 2.77699 2.15815 0
M  V30 4609 H 449.381 1.57292 3.4284 0
M  V30 4610 H 451.768 0.767602 2.84942 0
M  V30 4611 H 451.849 2.00557 1.58779 0
M  V30 4612 H 451.493 3.80616 3.36295 0
M  V30 4613 H 451.423 2.53916 4.61339 0
M  V30 4614 H 453.914 2.16531 3.09714 0
M  V30 4615 H 454.227 4.92596 5.95457 0
M  V30 4616 H 452.572 4.4247 5.35953 0
M  V30 4617 H 455.763 2.75075 3.78749 0
M  V30 4618 H 455.936 4.00946 5.09064 0
M  V30 4619 N 449.342 -1.36122 0.79427 0
M  V30 4620 C 450.274 -2.28683 0.153903 0
M  V30 4621 C 451.287 -1.49707 -0.639669 0
M  V30 4622 O 452.476 -1.7209 -0.474054 0
M  V30 4623 C 449.576 -3.29202 -0.804921 0
M  V30 4624 C 448.749 -4.37358 -0.060366 0
M  V30 4625 C 447.808 -5.17811 -0.935849 0
M  V30 4626 O 446.834 -5.67853 -0.391309 0
M  V30 4627 N 448.036 -5.34721 -2.25951 0
M  V30 4628 H 450.801 -2.84278 0.949008 0
M  V30 4629 H 448.362 -1.4834 0.648611 0
M  V30 4630 H 450.354 -3.79914 -1.39455 0
M  V30 4631 H 448.924 -2.74212 -1.50088 0
M  V30 4632 H 448.144 -3.87746 0.710382 0
M  V30 4633 H 449.432 -5.06777 0.45324 0
M  V30 4634 H 448.83 -4.95687 -2.72601 0
M  V30 4635 H 447.387 -5.88657 -2.79867 0
M  V30 4636 N 450.82 -0.546701 -1.47814 0
M  V30 4637 C 451.73 0.21026 -2.33656 0
M  V30 4638 C 452.746 0.922413 -1.47538 0
M  V30 4639 O 453.922 0.893652 -1.80488 0
M  V30 4640 C 450.987 1.23348 -3.24016 0
M  V30 4641 C 450.048 0.529883 -4.26017 0
M  V30 4642 C 449.281 1.50435 -5.12059 0
M  V30 4643 O 449.504 2.73837 -5.00369 0
M  V30 4644 O 448.438 1.03459 -5.92942 0
M  V30 4645 H 452.264 -0.493605 -2.99662 0
M  V30 4646 H 449.849 -0.307427 -1.46203 0
M  V30 4647 H 451.731 1.82438 -3.79861 0
M  V30 4648 H 450.406 1.91945 -2.60651 0
M  V30 4649 H 449.313 -0.101948 -3.73961 0
M  V30 4650 H 450.646 -0.11445 -4.92067 0
M  V30 4651 N 452.299 1.55045 -0.282633 0
M  V30 4652 C 453.232 2.18951 0.64311 0
M  V30 4653 C 454.21 1.15287 1.14664 0
M  V30 4654 O 455.394 1.43846 1.21822 0
M  V30 4655 C 452.521 2.81874 1.87789 0
M  V30 4656 C 451.567 3.98906 1.50919 0
M  V30 4657 S 452.4 5.3234 0.580884 0
M  V30 4658 C 453.556 5.98737 1.82387 0
M  V30 4659 H 453.789 2.97131 0.100138 0
M  V30 4660 H 451.322 1.54255 -0.0668514 0
M  V30 4661 H 453.28 3.18757 2.58658 0
M  V30 4662 H 451.941 2.03573 2.392 0
M  V30 4663 H 451.134 4.4165 2.42819 0
M  V30 4664 H 450.736 3.63485 0.88061 0
M  V30 4665 H 453.028 6.18427 2.76684 0
M  V30 4666 H 453.971 6.93318 1.4393 0
M  V30 4667 H 454.379 5.28177 1.99223 0
M  V30 4668 N 453.777 0.010035 1.57597 0
M  V30 4669 C 455.193 -0.346164 1.55801 0
M  V30 4670 C 455.393 -1.74144 1.01371 0
M  V30 4671 O 454.449 -2.43938 0.651968 0
M  V30 4672 C 455.762 -0.212216 2.9995 0
M  V30 4673 C 457.31 -0.286409 3.11687 0
M  V30 4674 C 457.785 -0.18147 4.5764 0
M  V30 4675 N 459.276 -0.239056 4.62583 0
M  V30 4676 C 460.011 -0.181351 5.73113 0
M  V30 4677 N 459.507 -0.073661 6.92761 0
M  V30 4678 N 461.3 -0.233949 5.61613 0
M  V30 4679 H 453.451 0.922657 1.91313 0
M  V30 4680 H 455.714 0.354595 0.879185 0
M  V30 4681 H 455.42 0.748169 3.4365 0
M  V30 4682 H 455.294 -0.990224 3.6397 0
M  V30 4683 H 457.681 -1.23724 2.67911 0
M  V30 4684 H 457.762 0.521645 2.50425 0
M  V30 4685 H 457.406 0.765863 5.02093 0
M  V30 4686 H 457.336 -1.00814 5.1686 0
M  V30 4687 H 459.827 -0.32321 3.76515 0
M  V30 4688 H 460.14 -0.0358003 7.72792 0
M  V30 4689 H 458.485 -0.0391461 6.94989 0
M  V30 4690 H 461.676 -0.316347 4.6703 0
M  V30 4691 H 461.849 -0.185514 6.47734 0
M  V30 4692 N 455.255 -1.55392 -0.262866 0
M  V30 4693 C 456.671 -1.47459 -0.610582 0
M  V30 4694 C 456.871 -0.697031 -1.8906 0
M  V30 4695 O 455.927 -0.219952 -2.5154 0
M  V30 4696 C 457.24 -2.91751 -0.728131 0
M  V30 4697 C 458.788 -3.02027 -0.821517 0
M  V30 4698 C 459.263 -4.47594 -0.97076 0
M  V30 4699 N 460.754 -4.51465 -1.03603 0
M  V30 4700 C 461.489 -5.61326 -1.17049 0
M  V30 4701 N 460.985 -6.81032 -1.2715 0
M  V30 4702 N 462.778 -5.49089 -1.20239 0
M  V30 4703 H 454.929 -2.04395 0.577632 0
M  V30 4704 H 457.192 -0.927287 0.197086 0
M  V30 4705 H 456.898 -3.51413 0.142132 0
M  V30 4706 H 456.772 -3.4134 -1.6052 0
M  V30 4707 H 459.159 -2.42456 -1.68224 0
M  V30 4708 H 459.24 -2.55674 0.0803688 0
M  V30 4709 H 458.884 -5.07771 -0.114655 0
M  V30 4710 H 458.814 -4.91613 -1.88745 0
M  V30 4711 H 461.305 -3.6524 -0.96996 0
M  V30 4712 H 461.618 -7.60511 -1.37271 0
M  V30 4713 H 459.963 -6.83824 -1.24136 0
M  V30 4714 H 463.154 -4.54507 -1.11985 0
M  V30 4715 H 463.327 -6.34749 -1.30373 0
M  V30 4716 N 456.733 0.527833 -1.48498 0
M  V30 4717 C 457.665 1.6482 -1.5927 0
M  V30 4718 C 458.678 1.55659 -0.476869 0
M  V30 4719 O 459.867 1.62081 -0.747806 0
M  V30 4720 C 456.967 3.0348 -1.50842 0
M  V30 4721 C 456.14 3.381 -2.77502 0
M  V30 4722 C 455.199 4.5605 -2.62497 0
M  V30 4723 O 454.225 4.59165 -3.36387 0
M  V30 4724 N 455.427 5.54353 -1.72257 0
M  V30 4725 H 458.192 1.56015 -2.55889 0
M  V30 4726 H 455.753 0.715152 -1.45249 0
M  V30 4727 H 457.745 3.80264 -1.38496 0
M  V30 4728 H 456.315 3.06352 -0.621887 0
M  V30 4729 H 455.535 2.50473 -3.04396 0
M  V30 4730 H 456.823 3.58017 -3.61527 0
M  V30 4731 H 456.221 5.54617 -1.11431 0
M  V30 4732 H 454.778 6.30347 -1.65849 0
M  V30 4733 N 458.211 1.37122 0.776871 0
M  V30 4734 C 459.121 1.34651 1.9211 0
M  V30 4735 C 460.137 0.246824 1.7224 0
M  V30 4736 O 461.313 0.48134 1.95563 0
M  V30 4737 C 458.378 1.14748 3.2716 0
M  V30 4738 C 457.439 2.34308 3.5972 0
M  V30 4739 C 456.672 2.15345 4.88326 0
M  V30 4740 O 456.895 1.13507 5.58992 0
M  V30 4741 O 455.829 3.03414 5.1983 0
M  V30 4742 H 459.655 2.31013 1.97146 0
M  V30 4743 H 457.24 1.17799 0.918901 0
M  V30 4744 H 459.122 1.05616 4.0795 0
M  V30 4745 H 457.797 0.214562 3.22988 0
M  V30 4746 H 456.704 2.49011 2.79185 0
M  V30 4747 H 458.037 3.26149 3.68629 0
M  V30 4748 N 459.689 -1.00246 1.21608 0
M  V30 4749 C 461.1 -1.55511 1.03312 0
M  V30 4750 C 461.451 -1.91946 -0.406332 0
M  V30 4751 O 460.576 -1.73753 -1.28992 0
M  V30 4752 C 461.171 -2.82576 1.86913 0
M  V30 4753 C 459.73 -3.34318 1.72941 0
M  V30 4754 C 458.877 -2.07487 1.83968 0
M  V30 4755 H 461.828 -0.824638 1.35593 0
M  V30 4756 H 461.849 -3.54559 1.38087 0
M  V30 4757 H 461.361 -2.56026 2.91672 0
M  V30 4758 H 459.462 -3.65797 0.70877 0
M  V30 4759 H 459.575 -4.05566 2.55055 0
M  V30 4760 H 457.939 -2.20603 1.27304 0
M  V30 4761 H 458.722 -1.83346 2.9024 0
M  V30 4762 N 461.167 -1.02423 -1.1978 0
M  V30 4763 C 462.097 -0.62157 -2.25075 0
M  V30 4764 C 463.078 0.367148 -1.6609 0
M  V30 4765 O 464.263 0.250892 -1.92573 0
M  V30 4766 C 461.393 0.0331826 -3.47284 0
M  V30 4767 C 460.347 -0.877323 -4.18912 0
M  V30 4768 C 459.673 -0.0879296 -5.34628 0
M  V30 4769 C 460.973 -2.18892 -4.74219 0
M  V30 4770 H 462.667 -1.50179 -2.59011 0
M  V30 4771 H 460.213 -0.723547 -1.24502 0
M  V30 4772 H 462.166 0.326488 -4.20133 0
M  V30 4773 H 460.89 0.948164 -3.12534 0
M  V30 4774 H 459.549 -1.15475 -3.47938 0
M  V30 4775 H 459.197 0.828941 -4.96123 0
M  V30 4776 H 458.897 -0.694359 -5.83483 0
M  V30 4777 H 460.421 0.198743 -6.10276 0
M  V30 4778 H 461.835 -1.95746 -5.38847 0
M  V30 4779 H 460.232 -2.74686 -5.33542 0
M  V30 4780 H 461.302 -2.84674 -3.92541 0
M  V30 4781 N 462.645 1.35699 -0.801477 0
M  V30 4782 C 464.056 1.81415 -0.441073 0
M  V30 4783 C 464.407 1.66595 1.03636 0
M  V30 4784 O 463.532 1.19369 1.80499 0
M  V30 4785 C 464.127 3.29369 -0.793819 0
M  V30 4786 C 462.686 3.73248 -0.486083 0
M  V30 4787 C 461.833 2.57775 -1.02213 0
M  V30 4788 H 464.784 1.23749 -0.993572 0
M  V30 4789 H 464.805 3.80395 -0.0894158 0
M  V30 4790 H 464.317 3.40123 -1.86917 0
M  V30 4791 H 462.418 3.68046 0.580735 0
M  V30 4792 H 462.531 4.68222 -1.01513 0
M  V30 4793 H 460.895 2.50788 -0.444712 0
M  V30 4794 H 461.678 2.71309 -2.10348 0
M  V30 4795 N 464.123 0.554532 1.47522 0
M  V30 4796 C 465.534 0.120446 1.86311 0
M  V30 4797 C 465.885 -1.30904 1.46145 0
M  V30 4798 O 465.01 -1.98434 0.863294 0
M  V30 4799 C 465.605 0.211808 3.38137 0
M  V30 4800 C 464.164 -0.167224 3.76028 0
M  V30 4801 C 463.311 0.560576 2.71575 0
M  V30 4802 H 466.262 0.764408 1.39077 0
M  V30 4803 H 466.283 -0.570275 3.76202 0
M  V30 4804 H 465.795 1.25232 3.6734 0
M  V30 4805 H 463.896 -1.20894 3.52442 0
M  V30 4806 H 464.009 0.189473 4.78725 0
M  V30 4807 H 462.373 0.00396836 2.547 0
M  V30 4808 H 463.156 1.60219 3.0362 0
M  V30 4809 N 465.601 -1.54893 0.290851 0
M  V30 4810 C 467.012 -1.85584 -0.203816 0
M  V30 4811 C 467.363 -1.21285 -1.54222 0
M  V30 4812 O 466.488 -0.506841 -2.10381 0
M  V30 4813 C 467.083 -3.367 -0.376595 0
M  V30 4814 C 465.642 -3.6746 -0.815485 0
M  V30 4815 C 464.789 -2.77178 0.0821087 0
M  V30 4816 H 467.74 -1.50208 0.512175 0
M  V30 4817 H 467.761 -3.60656 -1.21275 0
M  V30 4818 H 467.273 -3.8347 0.59767 0
M  V30 4819 H 465.374 -3.26201 -1.80066 0
M  V30 4820 H 465.487 -4.7478 -0.641905 0
M  V30 4821 H 463.851 -2.50925 -0.436895 0
M  V30 4822 H 464.634 -3.26767 1.05254 0
M  V30 4823 N 467.08 -0.0183926 -1.57589 0
M  V30 4824 C 468.491 0.521927 -1.79256 0
M  V30 4825 C 468.842 1.72885 -0.927636 0
M  V30 4826 O 467.967 2.15978 -0.135091 0
M  V30 4827 C 468.562 0.953632 -3.25102 0
M  V30 4828 C 467.121 1.43913 -3.47801 0
M  V30 4829 C 466.268 0.398837 -2.74417 0
M  V30 4830 H 469.219 -0.244485 -1.56805 0
M  V30 4831 H 469.24 1.81863 -3.34224 0
M  V30 4832 H 468.752 0.0750123 -3.88028 0
M  V30 4833 H 466.853 2.33804 -2.90115 0
M  V30 4834 H 466.966 1.45391 -4.56507 0
M  V30 4835 H 465.33 0.864572 -2.39577 0
M  V30 4836 H 466.113 -0.471132 -3.40052 0
M  V30 4837 N 468.558 1.5553 0.254621 0
M  V30 4838 C 469.969 1.67518 0.824286 0
M  V30 4839 C 470.32 0.614429 1.86331 0
M  V30 4840 O 469.445 -0.240736 2.15057 0
M  V30 4841 C 470.04 3.03692 1.50189 0
M  V30 4842 C 468.599 3.17646 2.01935 0
M  V30 4843 C 467.746 2.63373 0.867746 0
M  V30 4844 H 470.697 1.58671 0.0305843 0
M  V30 4845 H 470.718 2.97706 2.36962 0
M  V30 4846 H 470.23 3.80874 0.745431 0
M  V30 4847 H 468.331 2.45273 2.80485 0
M  V30 4848 H 468.444 4.24455 2.22204 0
M  V30 4849 H 466.808 2.20999 1.26616 0
M  V30 4850 H 467.591 3.43074 0.124498 0
M  V30 4851 N 470.036 -0.519951 1.48776 0
M  V30 4852 C 471.447 -1.10177 1.50725 0
M  V30 4853 C 471.798 -1.94153 0.282678 0
M  V30 4854 O 470.923 -2.07645 -0.609298 0
M  V30 4855 C 471.518 -2.00482 2.73116 0
M  V30 4856 C 470.077 -2.53862 2.77905 0
M  V30 4857 C 469.224 -1.31047 2.44381 0
M  V30 4858 H 472.175 -0.30473 1.55747 0
M  V30 4859 H 472.196 -2.8491 2.52203 0
M  V30 4860 H 471.708 -1.39335 3.62225 0
M  V30 4861 H 469.809 -3.18702 1.93029 0
M  V30 4862 H 469.922 -2.9231 3.79594 0
M  V30 4863 H 468.286 -1.62953 1.95751 0
M  V30 4864 H 469.069 -0.71637 3.35743 0
M  V30 4865 N 471.514 -1.37532 -0.769588 0
M  V30 4866 C 472.739 -1.36231 -1.56384 0
M  V30 4867 C 473.164 0.0495849 -1.88035 0
M  V30 4868 O 472.522 1.02723 -1.49391 0
M  V30 4869 C 472.57 -2.20986 -2.84952 0
M  V30 4870 O 471.674 -1.61597 -3.79421 0
M  V30 4871 H 471.015 -0.465387 -0.473615 0
M  V30 4872 H 473.545 -1.81085 -0.952342 0
M  V30 4873 H 473.555 -2.34277 -3.34034 0
M  V30 4874 H 472.23 -3.23612 -2.61243 0
M  V30 4875 H 470.807 -1.57359 -3.38072 0
M  V30 4876 N 472.992 0.995999 -1.22138 0
M  V30 4877 C 474.408 1.25917 -0.980667 0
M  V30 4878 C 474.608 1.98819 0.327604 0
M  V30 4879 O 473.664 2.29587 1.05101 0
M  V30 4880 C 474.977 2.07399 -2.17729 0
M  V30 4881 C 476.525 2.20594 -2.22052 0
M  V30 4882 C 477 3.05462 -3.41258 0
M  V30 4883 N 478.491 3.13049 -3.41401 0
M  V30 4884 C 479.226 3.78997 -4.30289 0
M  V30 4885 N 478.722 4.46899 -5.2939 0
M  V30 4886 N 480.515 3.75728 -4.18073 0
M  V30 4887 H 472.666 0.507158 -2.06256 0
M  V30 4888 H 474.929 0.28658 -0.903646 0
M  V30 4889 H 474.635 1.61191 -3.12586 0
M  V30 4890 H 474.509 3.08154 -2.17534 0
M  V30 4891 H 476.896 2.66017 -1.27745 0
M  V30 4892 H 476.977 1.1928 -2.26287 0
M  V30 4893 H 476.621 2.60739 -4.35864 0
M  V30 4894 H 476.551 4.06911 -3.34262 0
M  V30 4895 H 479.042 2.64721 -2.69688 0
M  V30 4896 H 479.355 4.94952 -5.935 0
M  V30 4897 H 477.7 4.45657 -5.33306 0
M  V30 4898 H 480.891 3.2184 -3.39907 0
M  V30 4899 H 481.064 4.26845 -4.87553 0
M  V30 4900 N 474.47 1.03057 1.19235 0
M  V30 4901 C 475.718 0.726581 1.88587 0
M  V30 4902 C 476.039 -0.747227 1.80115 0
M  V30 4903 O 475.309 -1.53849 1.21274 0
M  V30 4904 H 473.889 0.265768 0.698124 0
M  V30 4905 H 476.551 1.30516 1.44746 0
M  V30 4906 H 475.647 1.0224 2.94879 0
M  V30 4907 N 475.948 -1.35272 0.808662 0
M  V30 4908 C 477.196 -1.98316 0.389233 0
M  V30 4909 C 477.517 -1.64465 -1.04767 0
M  V30 4910 O 476.787 -0.928175 -1.72516 0
M  V30 4911 H 475.367 -0.733585 0.140935 0
M  V30 4912 H 478.029 -1.6515 1.03496 0
M  V30 4913 H 477.125 -3.08123 0.496631 0
M  V30 4914 N 477.426 -0.562348 -1.47226 0
M  V30 4915 C 478.374 0.195476 -2.31777 0
M  V30 4916 C 479.368 0.90433 -1.43242 0
M  V30 4917 O 480.574 0.825031 -1.59979 0
M  V30 4918 H 476.949 0.0819095 -0.747526 0
M  V30 4919 H 478.92 -0.536753 -2.93533 0
M  V30 4920 C 477.669 1.20902 -3.26003 0
M  V30 4921 H 476.992 0.672997 -3.94095 0
M  V30 4922 H 478.432 1.71006 -3.87986 0
M  V30 4923 C 476.891 2.25955 -2.49891 0
M  V30 4924 O 477.421 3.32969 -2.2471 0
M  V30 4925 N 475.627 2.00019 -2.1081 0
M  V30 4926 H 475.174 1.13006 -2.31489 0
M  V30 4927 H 475.132 2.70523 -1.60201 0
M  V30 4928 N 478.904 1.54736 -0.299062 0
M  V30 4929 C 479.836 2.20891 0.61153 0
M  V30 4930 C 480.849 1.20104 1.09904 0
M  V30 4931 O 482.038 1.46707 1.01683 0
M  V30 4932 C 479.138 2.84018 1.84897 0
M  V30 4933 C 478.311 4.10719 1.50428 0
M  V30 4934 C 477.37 4.57667 2.59667 0
M  V30 4935 O 476.396 5.2291 2.24842 0
M  V30 4936 N 477.598 4.29821 3.90172 0
M  V30 4937 H 480.363 2.99666 0.0452001 0
M  V30 4938 H 477.924 1.61446 -0.121178 0
M  V30 4939 H 479.916 3.1236 2.5732 0
M  V30 4940 H 478.486 2.09095 2.32375 0
M  V30 4941 H 477.706 3.89408 0.612781 0
M  V30 4942 H 478.994 4.93223 1.24934 0
M  V30 4943 H 478.392 3.77549 4.21276 0
M  V30 4944 H 476.949 4.62877 4.58899 0
M  V30 4945 N 480.382 0.0267497 1.57577 0
M  V30 4946 C 481.312 -0.954308 2.13108 0
M  V30 4947 C 482.293 -1.34088 1.04663 0
M  V30 4948 O 483.478 -1.41992 1.32484 0
M  V30 4949 C 480.608 -2.23744 2.65624 0
M  V30 4950 C 479.562 -1.99168 3.78835 0
M  V30 4951 C 478.888 -3.33726 4.17769 0
M  V30 4952 C 480.188 -1.33277 5.0501 0
M  V30 4953 H 481.882 -0.491848 2.95332 0
M  V30 4954 H 479.428 -0.23514 1.42067 0
M  V30 4955 H 481.381 -2.92754 3.03106 0
M  V30 4956 H 480.105 -2.72151 1.80558 0
M  V30 4957 H 478.764 -1.32577 3.41788 0
M  V30 4958 H 478.412 -3.79888 3.29688 0
M  V30 4959 H 478.112 -3.18089 4.94058 0
M  V30 4960 H 479.636 -4.04008 4.57832 0
M  V30 4961 H 481.05 -1.92283 5.40093 0
M  V30 4962 H 479.447 -1.28045 5.8628 0
M  V30 4963 H 480.517 -0.305411 4.83937 0
M  V30 4964 N 481.861 -1.55662 -0.24637 0
M  V30 4965 C 483.272 -1.67953 -0.81539 0
M  V30 4966 C 483.623 -0.624302 -1.86002 0
M  V30 4967 O 482.748 0.229328 -2.15181 0
M  V30 4968 C 483.343 -3.04484 -1.48576 0
M  V30 4969 C 481.902 -3.18713 -2.00248 0
M  V30 4970 C 481.049 -2.6383 -0.853766 0
M  V30 4971 H 484 -1.58685 -0.0221692 0
M  V30 4972 H 484.021 -2.98959 -2.3538 0
M  V30 4973 H 483.533 -3.81264 -0.725222 0
M  V30 4974 H 481.634 -2.46757 -2.79181 0
M  V30 4975 H 481.747 -4.25628 -2.1995 0
M  V30 4976 H 480.111 -2.21667 -1.25442 0
M  V30 4977 H 480.894 -3.43135 -0.106302 0
M  V30 4978 N 483.339 0.512053 -1.4905 0
M  V30 4979 C 484.755 0.84224 -1.35567 0
M  V30 4980 C 484.955 1.97878 -0.380319 0
M  V30 4981 O 484.011 2.51769 0.19201 0
M  V30 4982 C 485.324 1.19286 -2.76028 0
M  V30 4983 C 486.872 1.30171 -2.84648 0
M  V30 4984 C 487.347 1.68568 -4.25851 0
M  V30 4985 N 488.838 1.75638 -4.28609 0
M  V30 4986 C 489.573 2.06769 -5.34821 0
M  V30 4987 N 489.069 2.36201 -6.51292 0
M  V30 4988 N 490.862 2.07927 -5.22229 0
M  V30 4989 H 483.013 -0.237574 -2.11067 0
M  V30 4990 H 485.276 -0.0436747 -0.946993 0
M  V30 4991 H 484.982 0.431199 -3.49047 0
M  V30 4992 H 484.856 2.13889 -3.10695 0
M  V30 4993 H 487.243 2.05411 -2.11873 0
M  V30 4994 H 487.324 0.336457 -2.53578 0
M  V30 4995 H 486.968 0.938824 -4.99148 0
M  V30 4996 H 486.898 2.66174 -4.54377 0
M  V30 4997 H 489.389 1.55097 -3.44606 0
M  V30 4998 H 489.702 2.59112 -7.28066 0
M  V30 4999 H 488.047 2.33681 -6.54536 0
M  V30 5000 H 491.238 1.84403 -4.30248 0
M  V30 5001 H 491.411 2.31856 -6.05101 0
M  V30 5002 N 484.817 1.37938 0.762283 0
M  V30 5003 C 486.228 1.30094 1.33912 0
M  V30 5004 C 486.579 -0.0472026 1.96143 0
M  V30 5005 O 485.704 -0.94917 1.94473 0
M  V30 5006 C 486.299 2.35592 2.43478 0
M  V30 5007 C 484.858 2.31353 2.96905 0
M  V30 5008 C 484.005 2.18919 1.70205 0
M  V30 5009 H 486.956 1.48423 0.561816 0
M  V30 5010 H 486.977 2.00806 3.23199 0
M  V30 5011 H 486.489 3.33701 1.98155 0
M  V30 5012 H 484.59 1.36799 3.46579 0
M  V30 5013 H 484.703 3.25147 3.51875 0
M  V30 5014 H 483.067 1.65624 1.93496 0
M  V30 5015 H 483.85 3.18956 1.26973 0
M  V30 5016 N 486.295 -0.989507 1.22664 0
M  V30 5017 C 487.706 -1.54406 1.04955 0
M  V30 5018 C 488.057 -1.92366 -0.385951 0
M  V30 5019 O 487.182 -1.75111 -1.27142 0
M  V30 5020 C 487.777 -2.80578 1.89899 0
M  V30 5021 C 486.336 -3.32464 1.76478 0
M  V30 5022 C 485.483 -2.05524 1.86159 0
M  V30 5023 H 488.434 -0.810211 1.3646 0
M  V30 5024 H 488.455 -3.53075 1.4184 0
M  V30 5025 H 487.967 -2.52918 2.94371 0
M  V30 5026 H 486.068 -3.65024 0.747528 0
M  V30 5027 H 486.181 -4.02838 2.59342 0
M  V30 5028 H 484.545 -2.19241 1.29636 0
M  V30 5029 H 485.328 -1.80258 2.92168 0
M  V30 5030 N 487.773 -1.03688 -1.18687 0
M  V30 5031 C 489.022 -0.733235 -1.879 0
M  V30 5032 C 489.335 0.741745 -1.8099 0
M  V30 5033 O 490.541 1.15875 -2.4553 0
M  V30 5034 C 488.997 -1.26127 -3.37076 0
M  V30 5035 C 488.605 -2.76461 -3.52524 0
M  V30 5036 C 490.349 -1.03398 -4.11715 0
M  V30 5037 C 488.256 -3.22642 -4.95637 0
M  V30 5038 H 487.186 -0.270584 -0.703776 0
M  V30 5039 H 489.837 -1.25222 -1.34133 0
M  V30 5040 H 488.219 -0.670165 -3.90288 0
M  V30 5041 H 489.393 -3.41296 -3.09602 0
M  V30 5042 H 487.708 -2.97559 -2.91286 0
M  V30 5043 H 490.305 -1.3542 -5.17267 0
M  V30 5044 H 490.648 0.0289246 -4.1629 0
M  V30 5045 H 491.181 -1.5895 -3.64664 0
M  V30 5046 H 487.92 -4.28296 -4.96228 0
M  V30 5047 H 487.44 -2.62539 -5.39289 0
M  V30 5048 H 489.119 -3.16444 -5.64333 0
M  V30 5049 N 489.251 1.34841 -0.815825 0
M  V30 5050 C 490.497 1.98793 -0.401129 0
M  V30 5051 C 490.83 1.64548 1.03139 0
M  V30 5052 O 490.105 0.913487 1.71714 0
M  V30 5053 C 490.388 3.55143 -0.595409 0
M  V30 5054 C 490.241 3.99155 -2.07352 0
M  V30 5055 C 491.56 4.40092 -0.0268823 0
M  V30 5056 H 488.679 0.722146 -0.14722 0
M  V30 5057 H 491.321 1.59847 -1.02707 0
M  V30 5058 H 489.471 3.8845 -0.0625779 0
M  V30 5059 H 491.143 3.76216 -2.66945 0
M  V30 5060 H 489.386 3.49726 -2.56659 0
M  V30 5061 H 490.057 5.07971 -2.1603 0
M  V30 5062 H 492.533 4.13298 -0.482042 0
M  V30 5063 H 491.409 5.48562 -0.19267 0
M  V30 5064 H 491.67 4.29016 1.06759 0
M  V30 5065 N 490.729 0.570148 1.46925 0
M  V30 5066 C 491.977 0.0508523 2.02036 0
M  V30 5067 C 492.298 -1.30885 1.44548 0
M  V30 5068 O 491.568 -1.85647 0.625453 0
M  V30 5069 H 490.148 0.0158088 0.746833 0
M  V30 5070 H 492.81 0.743086 1.80178 0
M  V30 5071 H 491.906 -0.027575 3.12088 0
M  V30 5072 N 492.207 -1.54576 0.307264 0
M  V30 5073 C 493.455 -1.99867 -0.299574 0
M  V30 5074 C 493.776 -1.19714 -1.53927 0
M  V30 5075 O 493.046 -0.29472 -1.9367 0
M  V30 5076 H 491.626 -0.738299 -0.113683 0
M  V30 5077 H 494.288 -1.9032 0.420042 0
M  V30 5078 H 493.384 -3.06901 -0.567283 0
M  V30 5079 N 493.685 -0.035106 -1.57561 0
M  V30 5080 C 494.633 0.962707 -2.11742 0
M  V30 5081 C 495.627 1.33296 -1.0454 0
M  V30 5082 O 496.833 1.31449 -1.22968 0
M  V30 5083 H 493.208 0.32826 -0.676572 0
M  V30 5084 H 495.179 0.48048 -2.94506 0
M  V30 5085 C 493.928 2.23388 -2.66445 0
M  V30 5086 H 493.251 1.95774 -3.48587 0
M  V30 5087 H 494.691 2.91402 -3.07995 0
M  V30 5088 C 493.15 2.96769 -1.59467 0
M  V30 5089 O 493.68 3.89105 -0.998 0
M  V30 5090 N 491.886 2.59212 -1.31369 0
M  V30 5091 H 491.433 1.84202 -1.80076 0
M  V30 5092 H 491.391 3.08618 -0.600173 0
M  V30 5093 N 495.163 1.55791 0.238111 0
M  V30 5094 C 496.11 1.9105 1.29493 0
M  V30 5095 C 497.08 0.765733 1.47397 0
M  V30 5096 O 498.265 1.02017 1.61236 0
M  V30 5097 C 495.405 2.21826 2.64362 0
M  V30 5098 C 494.518 3.49153 2.54394 0
M  V30 5099 C 493.653 3.69455 3.81676 0
M  V30 5100 C 492.692 4.90353 3.66361 0
M  V30 5101 N 491.829 5.07131 4.85554 0
M  V30 5102 H 496.669 2.81172 0.987233 0
M  V30 5103 H 494.206 1.39179 0.476203 0
M  V30 5104 H 496.164 2.37675 3.4288 0
M  V30 5105 H 494.794 1.34897 2.93262 0
M  V30 5106 H 493.846 3.41587 1.67399 0
M  V30 5107 H 495.158 4.37818 2.38991 0
M  V30 5108 H 494.312 3.85311 4.68636 0
M  V30 5109 H 493.051 2.7904 3.99985 0
M  V30 5110 H 492.056 4.74464 2.77784 0
M  V30 5111 H 493.281 5.82237 3.49538 0
M  V30 5112 H 491.227 4.19654 5.04209 0
M  V30 5113 H 491.144 5.89899 4.72816 0
M  V30 5114 H 492.412 5.27407 5.73988 0
M  V30 5115 N 496.642 -0.504142 1.49319 0
M  V30 5116 C 497.89 -1.25598 1.58334 0
M  V30 5117 C 498.211 -1.93114 0.270538 0
M  V30 5118 O 497.481 -1.82585 -0.709891 0
M  V30 5119 H 496.061 -0.466571 0.58337 0
M  V30 5120 H 498.723 -0.584547 1.85928 0
M  V30 5121 H 497.819 -2.02159 2.37778 0
M  V30 5122 N 498.12 -1.38341 -0.754957 0
M  V30 5123 C 499.536 -1.19508 -1.05783 0
M  V30 5124 C 499.736 -0.0428005 -2.01455 0
M  V30 5125 O 498.792 0.611861 -2.44975 0
M  V30 5126 C 500.105 -2.52091 -1.63923 0
M  V30 5127 C 501.653 -2.58762 -1.76101 0
M  V30 5128 C 502.128 -3.91517 -2.37652 0
M  V30 5129 N 503.619 -3.93049 -2.45085 0
M  V30 5130 C 504.354 -4.9253 -2.93602 0
M  V30 5131 N 503.85 -6.02408 -3.42165 0
M  V30 5132 N 505.643 -4.79921 -2.92629 0
M  V30 5133 H 497.794 -2.1206 -0.120056 0
M  V30 5134 H 500.057 -0.94089 -0.11589 0
M  V30 5135 H 499.763 -3.36858 -1.01093 0
M  V30 5136 H 499.637 -2.70388 -2.63003 0
M  V30 5137 H 502.024 -1.74391 -2.38058 0
M  V30 5138 H 502.105 -2.44333 -0.757294 0
M  V30 5139 H 501.749 -4.76309 -1.76329 0
M  V30 5140 H 501.679 -4.03256 -3.38662 0
M  V30 5141 H 504.17 -3.13685 -2.10736 0
M  V30 5142 H 504.483 -6.74248 -3.77637 0
M  V30 5143 H 502.828 -6.0603 -3.40225 0
M  V30 5144 H 506.019 -3.93194 -2.54001 0
M  V30 5145 H 506.192 -5.57601 -3.30128 0
M  V30 5146 N 499.598 0.982988 -1.23187 0
M  V30 5147 C 500.823 1.76455 -1.08988 0
M  V30 5148 C 501.248 1.84726 0.354691 0
M  V30 5149 O 500.606 1.30699 1.25649 0
M  V30 5150 C 500.654 3.17094 -1.71708 0
M  V30 5151 O 499.758 4.00648 -0.977477 0
M  V30 5152 H 499.099 0.542988 -0.382177 0
M  V30 5153 H 501.629 1.23413 -1.63188 0
M  V30 5154 H 501.639 3.67684 -1.76841 0
M  V30 5155 H 500.314 3.10389 -2.76823 0
M  V30 5156 H 498.891 3.59161 -1.0029 0
M  V30 5157 N 501.076 1.04316 1.18135 0
M  V30 5158 C 502.324 0.746542 1.87806 0
M  V30 5159 C 502.645 -0.728082 1.80898 0
M  V30 5160 O 501.915 -1.52554 1.22899 0
M  V30 5161 H 500.495 0.273157 0.695265 0
M  V30 5162 H 503.157 1.32044 1.43354 0
M  V30 5163 H 502.253 1.05362 2.93778 0
M  V30 5164 N 502.554 -1.34406 0.822964 0
M  V30 5165 C 503.965 -1.8069 0.469879 0
M  V30 5166 C 504.316 -1.68223 -1.00972 0
M  V30 5167 O 503.441 -1.22226 -1.78577 0
M  V30 5168 C 504.036 -3.28064 0.846118 0
M  V30 5169 C 502.595 -3.72428 0.545402 0
M  V30 5170 C 501.742 -2.56116 1.06301 0
M  V30 5171 H 504.693 -1.22153 1.01313 0
M  V30 5172 H 504.714 -3.80205 0.149922 0
M  V30 5173 H 504.226 -3.37107 1.92304 0
M  V30 5174 H 502.327 -3.68924 -0.522109 0
M  V30 5175 H 502.44 -4.66548 1.0895 0
M  V30 5176 H 500.804 -2.50048 0.484554 0
M  V30 5177 H 501.587 -2.67928 2.14638 0
M  V30 5178 N 504.032 -0.577932 -1.46621 0
M  V30 5179 C 504.962 0.145917 -2.33044 0
M  V30 5180 C 505.943 0.888412 -1.45056 0
M  V30 5181 O 507.128 0.864812 -1.73881 0
M  V30 5182 C 504.258 1.16322 -3.27241 0
M  V30 5183 C 503.212 0.535868 -4.24632 0
M  V30 5184 C 502.538 1.65929 -5.08303 0
M  V30 5185 C 503.838 -0.523861 -5.19666 0
M  V30 5186 H 505.532 -0.575636 -2.93814 0
M  V30 5187 H 503.078 -0.278272 -1.41286 0
M  V30 5188 H 505.031 1.67793 -3.86553 0
M  V30 5189 H 503.755 1.91498 -2.64567 0
M  V30 5190 H 502.414 0.0422759 -3.66576 0
M  V30 5191 H 502.062 2.40061 -4.42018 0
M  V30 5192 H 501.762 1.2452 -5.74255 0
M  V30 5193 H 503.286 2.17686 -5.70478 0
M  V30 5194 H 504.7 -0.0944059 -5.73222 0
M  V30 5195 H 503.097 -0.858 -5.93935 0
M  V30 5196 H 504.167 -1.41197 -4.63887 0
M  V30 5197 N 505.51 1.54411 -0.315457 0
M  V30 5198 C 506.921 1.85885 0.174265 0
M  V30 5199 C 507.272 1.23723 1.52273 0
M  V30 5200 O 506.397 0.540246 2.09548 0
M  V30 5201 C 506.992 3.37257 0.322981 0
M  V30 5202 C 505.551 3.68711 0.756922 0
M  V30 5203 C 504.698 2.77013 -0.126195 0
M  V30 5204 H 507.649 1.49374 -0.536007 0
M  V30 5205 H 507.67 3.62539 1.15522 0
M  V30 5206 H 507.182 3.82471 -0.658602 0
M  V30 5207 H 505.283 3.29024 1.74854 0
M  V30 5208 H 505.396 4.75741 0.566291 0
M  V30 5209 H 503.76 2.51588 0.39692 0
M  V30 5210 H 504.543 3.25051 -1.1044 0
M  V30 5211 N 506.988 0.0434614 1.5754 0
M  V30 5212 C 508.399 -0.493343 1.80064 0
M  V30 5213 C 508.75 -1.71388 0.955023 0
M  V30 5214 O 507.875 -2.15736 0.169434 0
M  V30 5215 C 508.47 -0.90179 3.26578 0
M  V30 5216 C 507.029 -1.38362 3.50047 0
M  V30 5217 C 506.176 -0.355129 2.75017 0
M  V30 5218 H 509.127 0.2694 1.56397 0
M  V30 5219 H 509.148 -1.76523 3.37075 0
M  V30 5220 H 508.66 -0.013271 3.88098 0
M  V30 5221 H 506.761 -2.29159 2.93798 0
M  V30 5222 H 506.874 -1.3811 4.58762 0
M  V30 5223 H 505.238 -0.826348 2.40922 0
M  V30 5224 H 506.021 0.525172 3.39259 0
M  V30 5225 N 508.466 -1.55915 -0.229846 0
M  V30 5226 C 509.712 -1.78807 -0.956868 0
M  V30 5227 C 510.045 -0.611687 -1.84315 0
M  V30 5228 O 509.32 0.389398 -1.90562 0
M  V30 5229 C 509.603 -3.11718 -1.80288 0
M  V30 5230 C 509.456 -4.3979 -0.943649 0
M  V30 5231 C 510.775 -3.40999 -2.78222 0
M  V30 5232 H 507.894 -0.6505 -0.346437 0
M  V30 5233 H 510.536 -1.88648 -0.226252 0
M  V30 5234 H 508.686 -3.03459 -2.42579 0
M  V30 5235 H 510.358 -4.60059 -0.338121 0
M  V30 5236 H 508.601 -4.33086 -0.248705 0
M  V30 5237 H 509.272 -5.29208 -1.5698 0
M  V30 5238 H 511.748 -3.49332 -2.26067 0
M  V30 5239 H 510.624 -4.35183 -3.34526 0
M  V30 5240 H 510.885 -2.62754 -3.55546 0
M  V30 5241 N 509.944 0.496216 -1.49584 0
M  V30 5242 C 511.355 1.07765 -1.52459 0
M  V30 5243 C 511.706 1.93679 -0.31353 0
M  V30 5244 O 510.831 2.08588 0.576186 0
M  V30 5245 C 511.426 1.96111 -2.76271 0
M  V30 5246 C 509.985 2.49409 -2.81908 0
M  V30 5247 C 509.132 1.27142 -2.46435 0
M  V30 5248 H 512.083 0.279914 -1.56212 0
M  V30 5249 H 512.104 2.80862 -2.56704 0
M  V30 5250 H 511.616 1.33555 -3.64396 0
M  V30 5251 H 509.717 3.1559 -1.98074 0
M  V30 5252 H 509.83 2.86234 -3.84196 0
M  V30 5253 H 508.194 1.59818 -1.98319 0
M  V30 5254 H 508.977 0.662866 -3.3684 0
M  V30 5255 N 511.423 1.38739 0.74761 0
M  V30 5256 C 512.353 1.39173 1.87492 0
M  V30 5257 C 513.334 0.256794 1.6815 0
M  V30 5258 O 514.519 0.460762 1.88655 0
M  V30 5259 C 511.649 1.22197 3.25093 0
M  V30 5260 C 510.603 2.32957 3.59047 0
M  V30 5261 C 509.929 2.01082 4.95449 0
M  V30 5262 C 511.229 3.75237 3.6331 0
M  V30 5263 H 512.923 2.3351 1.87386 0
M  V30 5264 H 510.469 1.12399 0.900134 0
M  V30 5265 H 512.422 1.21124 4.03617 0
M  V30 5266 H 511.146 0.243241 3.25693 0
M  V30 5267 H 509.805 2.33226 2.82845 0
M  V30 5268 H 509.453 1.01678 4.92616 0
M  V30 5269 H 509.153 2.75267 5.19136 0
M  V30 5270 H 510.677 2.01638 5.76346 0
M  V30 5271 H 512.091 3.76966 4.31937 0
M  V30 5272 H 510.488 4.48677 3.98509 0
M  V30 5273 H 511.558 4.07122 2.634 0
M  V30 5274 N 512.901 -0.976442 1.23707 0
M  V30 5275 C 514.149 -1.71487 1.06942 0
M  V30 5276 C 514.47 -1.9098 -0.393897 0
M  V30 5277 O 513.74 -1.48128 -1.28198 0
M  V30 5278 H 512.32 -0.635425 0.392739 0
M  V30 5279 H 514.982 -1.17515 1.55487 0
M  V30 5280 H 514.078 -2.70286 1.56051 0
M  V30 5281 N 514.379 -1.04941 -1.1758 0
M  V30 5282 C 515.628 -0.753124 -1.87112 0
M  V30 5283 C 515.941 0.722507 -1.81767 0
M  V30 5284 O 517.147 1.13265 -2.46746 0
M  V30 5285 C 515.603 -1.29695 -3.35719 0
M  V30 5286 C 515.211 -2.80184 -3.49572 0
M  V30 5287 C 516.955 -1.07759 -4.10595 0
M  V30 5288 C 514.862 -3.2788 -4.92187 0
M  V30 5289 H 513.792 -0.278034 -0.700866 0
M  V30 5290 H 516.443 -1.26637 -1.32798 0
M  V30 5291 H 514.825 -0.711522 -3.89555 0
M  V30 5292 H 515.999 -3.44561 -3.05965 0
M  V30 5293 H 514.314 -3.00632 -2.88113 0
M  V30 5294 H 516.911 -1.40899 -5.15802 0
M  V30 5295 H 517.254 -0.0152302 -4.16297 0
M  V30 5296 H 517.787 -1.62809 -3.62957 0
M  V30 5297 H 514.526 -4.33535 -4.91658 0
M  V30 5298 H 514.046 -2.68245 -5.36475 0
M  V30 5299 H 515.725 -3.22412 -5.60945 0
M  V30 5300 N 515.857 1.33968 -0.830081 0
M  V30 5301 C 516.82 2.27694 -0.26235 0
M  V30 5302 C 517.82 1.50589 0.563876 0
M  V30 5303 O 519.01 1.70028 0.378941 0
M  V30 5304 C 516.142 3.35002 0.63138 0
M  V30 5305 H 517.335 2.79419 -1.08928 0
M  V30 5306 H 514.888 1.44221 -0.602486 0
M  V30 5307 H 515.623 2.88504 1.48109 0
M  V30 5308 H 515.408 3.92079 0.0403276 0
M  V30 5309 H 516.898 4.04897 1.02217 0
M  V30 5310 N 517.335 0.585699 1.46312 0
M  V30 5311 C 518.746 0.159938 1.86014 0
M  V30 5312 C 519.097 -1.27775 1.48889 0
M  V30 5313 O 518.222 -1.96559 0.90519 0
M  V30 5314 C 518.817 0.283485 3.37612 0
M  V30 5315 C 517.376 -0.0874256 3.76298 0
M  V30 5316 C 516.523 0.618055 2.70325 0
M  V30 5317 H 519.474 0.793737 1.37425 0
M  V30 5318 H 519.495 -0.490348 3.77327 0
M  V30 5319 H 519.007 1.32995 3.64601 0
M  V30 5320 H 517.108 -1.13391 3.54927 0
M  V30 5321 H 517.221 0.290975 4.78216 0
M  V30 5322 H 515.585 0.057993 2.54634 0
M  V30 5323 H 516.368 1.66623 3.00153 0
M  V30 5324 N 518.813 -1.54241 0.323641 0
M  V30 5325 C 520.224 -1.85975 -0.164405 0
M  V30 5326 C 520.575 -1.24529 -1.51615 0
M  V30 5327 O 519.7 -0.551351 -2.09258 0
M  V30 5328 C 520.295 -3.37424 -0.305091 0
M  V30 5329 C 518.854 -3.69107 -0.737358 0
M  V30 5330 C 518.001 -2.76942 0.140884 0
M  V30 5331 H 520.952 -1.49088 0.543922 0
M  V30 5332 H 520.973 -3.63147 -1.13598 0
M  V30 5333 H 520.485 -3.82116 0.678876 0
M  V30 5334 H 518.586 -3.29947 -1.73107 0
M  V30 5335 H 518.699 -4.76035 -0.541053 0
M  V30 5336 H 517.063 -2.51795 -0.383572 0
M  V30 5337 H 517.846 -3.24461 1.12162 0
M  V30 5338 N 520.291 -0.0518155 -1.57515 0
M  V30 5339 C 521.702 0.483787 -1.80323 0
M  V30 5340 C 522.053 1.70879 -0.964099 0
M  V30 5341 O 521.178 2.15643 -0.180872 0
M  V30 5342 C 521.773 0.884459 -3.27052 0
M  V30 5343 C 520.332 1.36504 -3.50776 0
M  V30 5344 C 519.479 0.340539 -2.75201 0
M  V30 5345 H 522.43 -0.277691 -1.56252 0
M  V30 5346 H 522.451 1.74733 -3.38007 0
M  V30 5347 H 521.963 -0.00731093 -3.88099 0
M  V30 5348 H 520.064 2.27598 -2.95009 0
M  V30 5349 H 520.177 1.35675 -4.59488 0
M  V30 5350 H 518.541 0.81356 -2.41357 0
M  V30 5351 H 519.324 -0.543156 -3.38976 0
M  V30 5352 N 521.769 1.56035 0.221574 0
M  V30 5353 C 523.18 1.69229 0.788567 0
M  V30 5354 C 523.531 0.653814 1.84986 0
M  V30 5355 O 522.656 -0.195065 2.15519 0
M  V30 5356 C 523.251 3.06809 1.43713 0
M  V30 5357 C 521.81 3.21858 1.95152 0
M  V30 5358 C 520.957 2.65155 0.811685 0
M  V30 5359 H 523.908 1.587 -0.00307894 0
M  V30 5360 H 523.929 3.02666 2.30594 0
M  V30 5361 H 523.441 3.82369 0.664475 0
M  V30 5362 H 521.542 2.51167 2.7522 0
M  V30 5363 H 521.655 4.29073 2.1315 0
M  V30 5364 H 520.019 2.23635 1.21899 0
M  V30 5365 H 520.802 3.43261 0.0516987 0
M  V30 5366 N 523.247 -0.488276 1.49845 0
M  V30 5367 C 524.475 -1.26527 1.63702 0
M  V30 5368 C 524.89 -1.8618 0.313447 0
M  V30 5369 O 524.247 -1.68432 -0.702624 0
M  V30 5370 C 524.298 -2.3864 2.71538 0
M  V30 5371 O 524.019 -1.81437 3.98763 0
M  V30 5372 C 525.52 -3.29805 2.96215 0
M  V30 5373 H 522.74 -0.383295 0.55075 0
M  V30 5374 H 525.284 -0.584779 1.95961 0
M  V30 5375 H 523.439 -3.02496 2.42023 0
M  V30 5376 H 523.853 -2.55135 4.58265 0
M  V30 5377 H 525.327 -4.04722 3.75372 0
M  V30 5378 H 525.804 -3.87563 2.06619 0
M  V30 5379 H 526.41 -2.71703 3.27196 0
M  V30 5380 N 524.725 -1.39134 -0.740242 0
M  V30 5381 C 526.136 -1.32208 -1.31825 0
M  V30 5382 C 526.487 0.0159919 -1.96193 0
M  V30 5383 O 525.612 0.918111 -1.95958 0
M  V30 5384 C 526.207 -2.39436 -2.39699 0
M  V30 5385 C 524.766 -2.36048 -2.93187 0
M  V30 5386 C 523.913 -2.21599 -1.66701 0
M  V30 5387 H 526.864 -1.49298 -0.538133 0
M  V30 5388 H 526.885 -2.05922 -3.19963 0
M  V30 5389 H 526.397 -3.36811 -1.92821 0
M  V30 5390 H 524.498 -1.42295 -3.44359 0
M  V30 5391 H 524.611 -3.30704 -3.46658 0
M  V30 5392 H 522.975 -1.68681 -1.90837 0
M  V30 5393 H 523.758 -3.20936 -1.21882 0
M  V30 5394 N 526.204 0.969867 -1.24223 0
M  V30 5395 C 527.62 1.23809 -1.00716 0
M  V30 5396 C 527.82 1.99469 0.285358 0
M  V30 5397 O 526.876 2.31764 1.00207 0
M  V30 5398 C 528.189 2.02734 -2.2208 0
M  V30 5399 C 529.737 2.15834 -2.26681 0
M  V30 5400 C 530.212 2.98154 -3.47661 0
M  V30 5401 N 531.703 3.05737 -3.47964 0
M  V30 5402 C 532.438 3.69785 -4.38231 0
M  V30 5403 N 531.934 4.35569 -5.3875 0
M  V30 5404 N 533.727 3.66775 -4.25949 0
M  V30 5405 H 525.878 0.463294 -2.07286 0
M  V30 5406 H 528.141 0.267348 -0.909521 0
M  V30 5407 H 527.847 1.54524 -3.15935 0
M  V30 5408 H 527.721 3.0347 -2.24021 0
M  V30 5409 H 530.108 2.63248 -1.33359 0
M  V30 5410 H 530.189 1.14453 -2.28767 0
M  V30 5411 H 529.833 2.51435 -4.41297 0
M  V30 5412 H 529.763 3.99729 -3.42818 0
M  V30 5413 H 532.254 2.58941 -2.75242 0
M  V30 5414 H 532.567 4.82251 -6.03866 0
M  V30 5415 H 530.912 4.34244 -5.42639 0
M  V30 5416 H 534.103 3.14558 -3.46657 0
M  V30 5417 H 534.276 4.16407 -4.96497 0
M  V30 5418 N 527.682 1.05563 1.17022 0
M  V30 5419 C 528.93 0.76642 1.87004 0
M  V30 5420 C 529.251 -0.708854 1.8166 0
M  V30 5421 O 528.521 -1.51242 1.2451 0
M  V30 5422 H 527.101 0.280516 0.692329 0
M  V30 5423 H 529.763 1.33557 1.41945 0
M  V30 5424 H 528.859 1.08472 2.92644 0
M  V30 5425 N 529.16 -1.33526 0.837174 0
M  V30 5426 C 530.571 -1.80182 0.489017 0
M  V30 5427 C 530.922 -1.69285 -0.991826 0
M  V30 5428 O 530.047 -1.24113 -1.77271 0
M  V30 5429 C 530.642 -3.27149 0.880866 0
M  V30 5430 C 529.201 -3.71828 0.584872 0
M  V30 5431 C 528.348 -2.54974 1.09011 0
M  V30 5432 H 531.299 -1.21071 1.02603 0
M  V30 5433 H 531.32 -3.80024 0.190239 0
M  V30 5434 H 530.832 -3.35048 1.95869 0
M  V30 5435 H 528.933 -3.69457 -0.48295 0
M  V30 5436 H 529.046 -4.65366 1.13892 0
M  V30 5437 H 527.41 -2.4952 0.511047 0
M  V30 5438 H 528.193 -2.65637 2.17467 0
M  V30 5439 N 530.638 -0.59345 -1.46 0
M  V30 5440 C 532.049 -0.169801 -1.85926 0
M  V30 5441 C 532.4 1.26984 -1.49565 0
M  V30 5442 O 531.525 1.96076 -0.915602 0
M  V30 5443 C 532.12 -0.301385 -3.37457 0
M  V30 5444 C 530.679 0.0674684 -3.7634 0
M  V30 5445 C 529.826 -0.632383 -2.69993 0
M  V30 5446 H 532.777 -0.801014 -1.37002 0
M  V30 5447 H 532.798 0.470331 -3.77582 0
M  V30 5448 H 532.31 -1.34927 -3.63891 0
M  V30 5449 H 530.411 1.11507 -3.55523 0
M  V30 5450 H 530.524 -0.316332 -4.78055 0
M  V30 5451 H 528.888 -0.0714961 -2.546 0
M  V30 5452 H 529.671 -1.68212 -2.99265 0
M  V30 5453 N 532.116 1.54067 -0.331816 0
M  V30 5454 C 533.527 1.86059 0.15454 0
M  V30 5455 C 533.878 1.25331 1.50952 0
M  V30 5456 O 533.003 0.562441 2.08963 0
M  V30 5457 C 533.598 3.37581 0.287192 0
M  V30 5458 C 532.157 3.69493 0.717773 0
M  V30 5459 C 531.304 2.76863 -0.155569 0
M  V30 5460 H 534.255 1.48797 -0.55182 0
M  V30 5461 H 534.276 3.63744 1.11671 0
M  V30 5462 H 533.788 3.81751 -0.699131 0
M  V30 5463 H 531.889 3.3086 1.71354 0
M  V30 5464 H 532.002 4.76315 0.5158 0
M  V30 5465 H 530.366 2.51995 0.370213 0
M  V30 5466 H 531.149 3.23861 -1.13881 0
M  V30 5467 N 533.594 0.0601682 1.57485 0
M  V30 5468 C 535.005 -0.474217 1.80577 0
M  V30 5469 C 535.356 -1.70365 0.973147 0
M  V30 5470 O 534.481 -2.15544 0.192306 0
M  V30 5471 C 535.076 -0.867102 3.27516 0
M  V30 5472 C 533.635 -1.34642 3.51495 0
M  V30 5473 C 532.782 -0.32594 2.75378 0
M  V30 5474 H 535.733 0.285973 1.56102 0
M  V30 5475 H 535.754 -1.72938 3.38929 0
M  V30 5476 H 535.266 0.0278927 3.8809 0
M  V30 5477 H 533.367 -2.2603 2.96212 0
M  V30 5478 H 533.48 -1.33237 4.60201 0
M  V30 5479 H 531.844 -0.800749 2.41785 0
M  V30 5480 H 532.627 0.561125 3.38683 0
M  V30 5481 N 535.072 -1.5615 -0.213296 0
M  V30 5482 C 536.32 -1.79191 -0.934612 0
M  V30 5483 C 536.641 -0.630112 -1.84539 0
M  V30 5484 O 535.911 0.35257 -1.92701 0
M  V30 5485 H 534.491 -0.660937 -0.348097 0
M  V30 5486 H 537.153 -1.93618 -0.22317 0
M  V30 5487 H 536.249 -2.71656 -1.53654 0
M  V30 5488 N 536.55 0.480323 -1.50102 0
M  V30 5489 C 537.966 0.813295 -1.37323 0
M  V30 5490 C 538.166 1.97027 -0.422206 0
M  V30 5491 O 537.222 2.5212 0.138563 0
M  V30 5492 C 538.535 1.13404 -2.78496 0
M  V30 5493 C 540.083 1.24104 -2.87345 0
M  V30 5494 C 540.558 1.59497 -4.29331 0
M  V30 5495 N 542.049 1.66507 -4.32238 0
M  V30 5496 C 542.784 1.95378 -5.39087 0
M  V30 5497 N 542.28 2.22333 -6.56155 0
M  V30 5498 N 544.073 1.96803 -5.26522 0
M  V30 5499 H 536.224 -0.282291 -2.10516 0
M  V30 5500 H 538.487 -0.063752 -0.945854 0
M  V30 5501 H 538.193 0.357064 -3.49883 0
M  V30 5502 H 538.067 2.07251 -3.15162 0
M  V30 5503 H 540.454 2.00871 -2.16183 0
M  V30 5504 H 540.535 0.282593 -2.54234 0
M  V30 5505 H 540.179 0.832736 -5.01027 0
M  V30 5506 H 540.109 2.56477 -4.59921 0
M  V30 5507 H 542.6 1.47753 -3.47818 0
M  V30 5508 H 542.913 2.43611 -7.33399 0
M  V30 5509 H 541.258 2.19745 -6.59346 0
M  V30 5510 H 544.449 1.75235 -4.34062 0
M  V30 5511 H 544.622 2.18969 -6.09883 0
M  V30 5512 N 538.028 1.39524 0.732853 0
M  V30 5513 C 539.276 1.36594 1.48951 0
M  V30 5514 C 539.597 -0.0367507 1.94965 0
M  V30 5515 O 538.867 -0.988391 1.69138 0
M  V30 5516 H 537.447 0.502673 0.552566 0
M  V30 5517 H 540.109 1.74411 0.869869 0
M  V30 5518 H 539.205 2.03 2.3706 0
M  V30 5519 N 539.506 -0.963266 1.24736 0
M  V30 5520 C 540.754 -1.70343 1.08755 0
M  V30 5521 C 541.075 -1.91387 -0.373619 0
M  V30 5522 O 540.345 -1.4948 -1.2662 0
M  V30 5523 H 538.925 -0.631224 0.399456 0
M  V30 5524 H 541.587 -1.15859 1.56725 0
M  V30 5525 H 540.683 -2.68616 1.58909 0
M  V30 5526 N 540.985 -1.06182 -1.16461 0
M  V30 5527 C 542.396 -0.802426 -1.68576 0
M  V30 5528 C 542.747 0.67412 -1.84255 0
M  V30 5529 O 541.872 1.52303 -1.5373 0
M  V30 5530 C 542.467 -1.45002 -3.06202 0
M  V30 5531 C 541.026 -1.23843 -3.55443 0
M  V30 5532 C 540.173 -1.52724 -2.31454 0
M  V30 5533 H 543.124 -1.22545 -1.00839 0
M  V30 5534 H 543.145 -0.864731 -3.70544 0
M  V30 5535 H 542.657 -2.52466 -2.94759 0
M  V30 5536 H 540.758 -0.183487 -3.72148 0
M  V30 5537 H 540.871 -1.95036 -4.37604 0
M  V30 5538 H 539.235 -0.947726 -2.36411 0
M  V30 5539 H 540.018 -2.61343 -2.22609 0
M  V30 5540 N 542.463 1.3308 -0.844243 0
M  V30 5541 C 543.874 1.7992 -0.498566 0
M  V30 5542 C 544.225 1.69808 0.982834 0
M  V30 5543 O 543.35 1.25051 1.7661 0
M  V30 5544 C 543.945 3.26677 -0.898204 0
M  V30 5545 C 542.504 3.71513 -0.604583 0
M  V30 5546 C 541.651 2.54393 -1.10362 0
M  V30 5547 H 544.602 1.20526 -1.03244 0
M  V30 5548 H 544.623 3.79918 -0.21039 0
M  V30 5549 H 544.135 3.34004 -1.97643 0
M  V30 5550 H 542.236 3.69708 0.46335 0
M  V30 5551 H 542.349 4.64755 -1.16358 0
M  V30 5552 H 540.713 2.49246 -0.524273 0
M  V30 5553 H 541.496 2.6448 -2.18873 0
M  V30 5554 N 543.941 0.601185 1.45683 0
M  V30 5555 C 545.352 0.179659 1.85834 0
M  V30 5556 C 545.703 -1.26189 1.50236 0
M  V30 5557 O 544.828 -1.95587 0.925987 0
M  V30 5558 C 545.423 0.319277 3.37292 0
M  V30 5559 C 543.982 -0.0475092 3.7637 0
M  V30 5560 C 543.129 0.646692 2.69654 0
M  V30 5561 H 546.08 0.808268 1.36575 0
M  V30 5562 H 546.101 -0.4503 3.77826 0
M  V30 5563 H 545.613 1.36855 3.6317 0
M  V30 5564 H 543.714 -1.0962 3.5611 0
M  V30 5565 H 543.827 0.34168 4.7788 0
M  V30 5566 H 542.191 0.0849971 2.54558 0
M  V30 5567 H 542.974 1.69797 2.98369 0
M  V30 5568 N 545.419 -1.53889 0.339982 0
M  V30 5569 C 546.83 -1.86139 -0.144671 0
M  V30 5570 C 547.181 -1.2613 -1.50285 0
M  V30 5571 O 546.306 -0.573515 -2.08662 0
M  V30 5572 C 546.901 -3.37728 -0.269285 0
M  V30 5573 C 545.46 -3.69868 -0.698168 0
M  V30 5574 C 544.607 -2.76777 0.170249 0
M  V30 5575 H 547.558 -1.48503 0.559704 0
M  V30 5576 H 547.579 -3.64331 -1.0974 0
M  V30 5577 H 547.091 -3.81375 0.719366 0
M  V30 5578 H 545.192 -3.31764 -1.69597 0
M  V30 5579 H 545.305 -4.76582 -0.490533 0
M  V30 5580 H 543.669 -2.52188 -0.356844 0
M  V30 5581 H 544.452 -3.23253 1.15597 0
M  V30 5582 N 546.897 -0.0685191 -1.57451 0
M  V30 5583 C 548.308 0.464634 -1.80826 0
M  V30 5584 C 548.659 1.69847 -0.982169 0
M  V30 5585 O 547.784 2.15439 -0.203734 0
M  V30 5586 C 548.379 0.849721 -3.27971 0
M  V30 5587 C 546.938 1.32776 -3.52204 0
M  V30 5588 C 546.085 0.311332 -2.75547 0
M  V30 5589 H 549.036 -0.294248 -1.55948 0
M  V30 5590 H 549.057 1.71138 -3.39841 0
M  V30 5591 H 548.569 -0.0484736 -3.8807 0
M  V30 5592 H 546.67 2.24456 -2.97406 0
M  V30 5593 H 546.783 1.30794 -4.60901 0
M  V30 5594 H 545.147 0.787915 -2.42206 0
M  V30 5595 H 545.93 -0.579078 -3.38381 0
M  V30 5596 N 548.375 1.56261 0.205012 0
M  V30 5597 C 549.786 1.70056 0.770574 0
M  V30 5598 C 550.137 0.673398 1.84282 0
M  V30 5599 O 549.262 -0.172196 2.15714 0
M  V30 5600 C 549.857 3.08316 1.40451 0
M  V30 5601 C 548.416 3.2391 1.91727 0
M  V30 5602 C 547.563 2.66001 0.783516 0
M  V30 5603 H 550.514 1.58688 -0.019911 0
M  V30 5604 H 550.535 3.05094 2.27371 0
M  V30 5605 H 550.047 3.83053 0.623882 0
M  V30 5606 H 548.148 2.54072 2.7254 0
M  V30 5607 H 548.261 4.3131 2.08588 0
M  V30 5608 H 546.625 2.24915 1.19521 0
M  V30 5609 H 547.408 3.43297 0.0152883 0
M  V30 5610 N 549.853 -0.472356 1.50355 0
M  V30 5611 C 551.264 -1.05326 1.54154 0
M  V30 5612 C 551.615 -1.93155 0.344303 0
M  V30 5613 O 550.74 -2.09479 -0.542928 0
M  V30 5614 C 551.335 -1.91691 2.79356 0
M  V30 5615 C 549.894 -2.44892 2.8584 0
M  V30 5616 C 549.041 -1.23205 2.48426 0
M  V30 5617 H 551.992 -0.255027 1.56637 0
M  V30 5618 H 552.013 -2.76742 2.6114 0
M  V30 5619 H 551.525 -1.27741 3.66475 0
M  V30 5620 H 549.626 -3.12399 2.0307 0
M  V30 5621 H 549.739 -2.80086 3.88701 0
M  V30 5622 H 548.103 -1.56643 2.00836 0
M  V30 5623 H 548.886 -0.609194 3.37852 0
M  V30 5624 N 551.331 -1.39911 -0.725443 0
M  V30 5625 C 552.294 -1.39156 -1.82121 0
M  V30 5626 C 553.294 -0.287018 -1.58218 0
M  V30 5627 O 554.484 -0.545421 -1.65441 0
M  V30 5628 C 551.616 -1.1736 -3.20062 0
M  V30 5629 H 552.809 -2.36672 -1.84191 0
M  V30 5630 H 550.362 -1.25615 -0.930079 0
M  V30 5631 H 551.097 -0.205648 -3.23647 0
M  V30 5632 H 550.882 -1.97358 -3.3881 0
M  V30 5633 H 552.372 -1.19596 -4.00108 0
M  V30 5634 N 552.809 0.956637 -1.25245 0
M  V30 5635 C 554.037 1.73571 -1.12608 0
M  V30 5636 C 554.452 1.86063 0.320324 0
M  V30 5637 O 553.809 1.35691 1.22042 0
M  V30 5638 C 553.86 3.15053 -1.77268 0
M  V30 5639 O 553.581 3.03174 -3.16255 0
M  V30 5640 C 555.082 4.09248 -1.70386 0
M  V30 5641 H 552.302 0.543955 -0.392879 0
M  V30 5642 H 554.846 1.20031 -1.65568 0
M  V30 5643 H 553.001 3.65543 -1.28284 0
M  V30 5644 H 553.415 3.9241 -3.48015 0
M  V30 5645 H 554.889 5.06138 -2.20291 0
M  V30 5646 H 555.366 4.34102 -0.667239 0
M  V30 5647 H 555.972 3.64672 -2.18849 0
M  V30 5648 N 554.287 1.06798 1.15896 0
M  V30 5649 C 555.535 0.786211 1.8618 0
M  V30 5650 C 555.856 -0.689547 1.82401 0
M  V30 5651 O 555.126 -1.49913 1.26107 0
M  V30 5652 H 553.706 0.287843 0.689315 0
M  V30 5653 H 556.368 1.35055 1.40521 0
M  V30 5654 H 555.464 1.1157 2.91477 0
M  V30 5655 N 555.766 -1.3263 0.851289 0
M  V30 5656 C 557.182 -1.50162 0.5407 0
M  V30 5657 C 557.382 -1.78788 -0.929369 0
M  V30 5658 O 556.438 -1.85545 -1.71258 0
M  V30 5659 C 557.751 -2.64803 1.42478 0
M  V30 5660 C 559.299 -2.78688 1.42485 0
M  V30 5661 C 559.774 -3.96405 2.29407 0
M  V30 5662 N 561.265 -4.0366 2.27184 0
M  V30 5663 C 562 -4.93971 2.9117 0
M  V30 5664 N 561.496 -5.89313 3.64256 0
M  V30 5665 N 563.289 -4.87066 2.80576 0
M  V30 5666 H 555.44 -1.12315 1.80275 0
M  V30 5667 H 557.703 -0.553266 0.769806 0
M  V30 5668 H 557.409 -2.50368 2.46999 0
M  V30 5669 H 557.283 -3.60506 1.10974 0
M  V30 5670 H 559.67 -2.92547 0.387304 0
M  V30 5671 H 559.751 -1.83708 1.78002 0
M  V30 5672 H 559.395 -3.83304 3.33228 0
M  V30 5673 H 559.325 -4.90654 1.91224 0
M  V30 5674 H 561.816 -3.35435 1.74045 0
M  V30 5675 H 562.129 -6.54913 4.10255 0
M  V30 5676 H 560.474 -5.8935 3.68364 0
M  V30 5677 H 563.665 -4.11552 2.23031 0
M  V30 5678 H 563.838 -5.57248 3.30725 0
M  V30 5679 N 557.244 -0.608902 -1.45362 0
M  V30 5680 C 558.469 -0.10921 -2.07112 0
M  V30 5681 C 558.894 1.19779 -1.45033 0
M  V30 5682 O 558.252 1.72961 -0.543527 0
M  V30 5683 C 558.3 0.0155745 -3.60597 0
M  V30 5684 O 557.404 1.06546 -3.98399 0
M  V30 5685 H 556.745 -0.0746619 -0.659789 0
M  V30 5686 H 559.275 -0.839283 -1.86594 0
M  V30 5687 H 559.285 0.213364 -4.07442 0
M  V30 5688 H 557.96 -0.938765 -4.05167 0
M  V30 5689 H 556.537 0.844024 -3.63223 0
M  V30 5690 N 558.722 1.53707 -0.348139 0
M  V30 5691 C 559.97 2.00591 0.246478 0
M  V30 5692 C 560.291 1.23753 1.50699 0
M  V30 5693 O 559.561 0.345964 1.92821 0
M  V30 5694 H 558.141 0.741053 0.0940679 0
M  V30 5695 H 560.803 1.89139 -0.470354 0
M  V30 5696 H 559.899 3.08297 0.485714 0
M  V30 5697 N 560.2 0.0768682 1.57412 0
M  V30 5698 C 561.611 -0.455037 1.8107 0
M  V30 5699 C 561.962 -1.69323 0.991162 0
M  V30 5700 O 561.087 -2.15328 0.215156 0
M  V30 5701 C 561.682 -0.832316 3.28417 0
M  V30 5702 C 560.241 -1.30906 3.52903 0
M  V30 5703 C 559.388 -0.296714 2.75708 0
M  V30 5704 H 562.339 0.302514 1.5579 0
M  V30 5705 H 562.36 -1.69333 3.40744 0
M  V30 5706 H 561.872 0.0690532 3.88039 0
M  V30 5707 H 559.973 -2.22875 2.98592 0
M  V30 5708 H 560.086 -1.28348 4.61588 0
M  V30 5709 H 558.45 -0.775059 2.42621 0
M  V30 5710 H 559.233 0.597015 3.38069 0
M  V30 5711 N 561.678 -1.56367 -0.196722 0
M  V30 5712 C 562.608 -1.97442 -1.24655 0
M  V30 5713 C 563.589 -0.846147 -1.47561 0
M  V30 5714 O 564.774 -1.11035 -1.59326 0
M  V30 5715 C 561.904 -2.31253 -2.59112 0
M  V30 5716 C 560.858 -3.46804 -2.50821 0
M  V30 5717 C 560.184 -3.66286 -3.89536 0
M  V30 5718 C 561.484 -4.8104 -2.03465 0
M  V30 5719 H 563.178 -2.85388 -0.905216 0
M  V30 5720 H 560.724 -1.37304 -0.434002 0
M  V30 5721 H 562.677 -2.58583 -3.32736 0
M  V30 5722 H 561.401 -1.40188 -2.94983 0
M  V30 5723 H 560.06 -3.19563 -1.79653 0
M  V30 5724 H 559.708 -2.72555 -4.22756 0
M  V30 5725 H 559.408 -4.4402 -3.84864 0
M  V30 5726 H 560.932 -3.9599 -4.64784 0
M  V30 5727 H 562.346 -5.07411 -2.66846 0
M  V30 5728 H 560.743 -5.62232 -2.09798 0
M  V30 5729 H 561.813 -4.74732 -0.98781 0
M  V30 5730 N 563.156 0.464375 -1.50603 0
M  V30 5731 C 564.567 1.04507 -1.5471 0
M  V30 5732 C 564.918 1.9297 -0.354542 0
M  V30 5733 O 564.043 2.09763 0.531812 0
M  V30 5734 C 564.638 1.90207 -2.80369 0
M  V30 5735 C 563.197 2.43373 -2.87135 0
M  V30 5736 C 562.344 1.21886 -2.49076 0
M  V30 5737 H 565.295 0.246716 -1.56771 0
M  V30 5738 H 565.316 2.75353 -2.62604 0
M  V30 5739 H 564.828 1.25796 -3.67147 0
M  V30 5740 H 562.929 3.11318 -2.04724 0
M  V30 5741 H 563.042 2.7802 -3.90181 0
M  V30 5742 H 561.406 1.55575 -2.01664 0
M  V30 5743 H 562.189 0.591268 -3.3817 0
M  V30 5744 N 564.634 1.40294 0.718013 0
M  V30 5745 C 566.045 1.34289 1.29705 0
M  V30 5746 C 566.396 0.0152228 1.96194 0
M  V30 5747 O 565.521 -0.88682 1.97394 0
M  V30 5748 C 566.116 2.43219 2.3586 0
M  V30 5749 C 564.675 2.40682 2.89394 0
M  V30 5750 C 563.822 2.24223 1.63154 0
M  V30 5751 H 566.773 1.50135 0.514312 0
M  V30 5752 H 566.794 2.10986 3.16647 0
M  V30 5753 H 566.306 3.39836 1.87439 0
M  V30 5754 H 564.407 1.47756 3.42051 0
M  V30 5755 H 564.52 3.36177 3.41353 0
M  V30 5756 H 562.884 1.71696 1.88129 0
M  V30 5757 H 563.667 3.22834 1.16761 0
M  V30 5758 N 566.112 -0.949982 1.2575 0
M  V30 5759 C 567.523 -1.50989 1.09815 0
M  V30 5760 C 567.874 -1.93497 -0.324556 0
M  V30 5761 O 566.999 -1.79068 -1.21506 0
M  V30 5762 C 567.594 -2.74394 1.98729 0
M  V30 5763 C 566.153 -3.26682 1.86965 0
M  V30 5764 C 565.3 -1.99498 1.92603 0
M  V30 5765 H 568.251 -0.766387 1.38968 0
M  V30 5766 H 568.272 -3.48383 1.53001 0
M  V30 5767 H 567.784 -2.43425 3.02268 0
M  V30 5768 H 565.885 -3.62461 0.863279 0
M  V30 5769 H 565.998 -3.94383 2.72027 0
M  V30 5770 H 564.362 -2.15005 1.36546 0
M  V30 5771 H 565.145 -1.70871 2.97755 0
M  V30 5772 N 567.59 -1.07411 -1.15328 0
M  V30 5773 C 569.001 -0.820261 -1.67716 0
M  V30 5774 C 569.352 0.654539 -1.8496 0
M  V30 5775 O 568.477 1.50664 -1.55337 0
M  V30 5776 C 569.072 -1.48242 -3.04647 0
M  V30 5777 C 567.631 -1.27606 -3.5411 0
M  V30 5778 C 566.778 -1.5517 -2.29821 0
M  V30 5779 H 569.729 -1.23608 -0.995332 0
M  V30 5780 H 569.75 -0.903984 -3.69606 0
M  V30 5781 H 569.262 -2.55578 -2.92064 0
M  V30 5782 H 567.363 -0.222948 -3.71932 0
M  V30 5783 H 567.476 -1.99667 -4.35511 0
M  V30 5784 H 565.84 -0.972747 -2.35393 0
M  V30 5785 H 566.623 -2.63689 -2.19824 0
M  V30 5786 N 569.068 1.32177 -0.85831 0
M  V30 5787 C 570.479 1.79381 -0.517621 0
M  V30 5788 C 570.83 1.70841 0.964769 0
M  V30 5789 O 569.955 1.26917 1.75274 0
M  V30 5790 C 570.55 3.25706 -0.932801 0
M  V30 5791 C 569.109 3.70851 -0.643953 0
M  V30 5792 C 568.256 2.53208 -1.13054 0
M  V30 5793 H 571.207 1.19424 -1.04516 0
M  V30 5794 H 571.228 3.79673 -0.250674 0
M  V30 5795 H 570.74 3.31889 -2.01174 0
M  V30 5796 H 568.841 3.70178 0.424112 0
M  V30 5797 H 568.954 4.63495 -1.21281 0
M  V30 5798 H 567.318 2.48676 -0.550679 0
M  V30 5799 H 568.101 2.62143 -2.21666 0
M  V30 5800 N 570.547 0.616602 1.45037 0
M  V30 5801 C 571.795 0.115103 2.01772 0
M  V30 5802 C 572.116 -1.2622 1.48639 0
M  V30 5803 O 571.386 -1.83563 0.684199 0
M  V30 5804 H 569.966 0.0395607 0.745952 0
M  V30 5805 H 572.628 0.800032 1.77723 0
M  V30 5806 H 571.724 0.0717274 3.12018 0
M  V30 5807 N 572.025 -1.5352 0.356285 0
M  V30 5808 C 572.988 -2.24071 -0.482182 0
M  V30 5809 C 573.988 -1.24531 -1.01729 0
M  V30 5810 O 575.178 -1.48876 -0.904513 0
M  V30 5811 C 572.31 -2.97025 -1.67299 0
M  V30 5812 H 573.503 -2.99596 0.135031 0
M  V30 5813 H 571.056 -1.55928 0.107825 0
M  V30 5814 H 571.791 -2.25719 -2.32855 0
M  V30 5815 H 571.576 -3.7005 -1.29636 0
M  V30 5816 H 573.066 -3.50683 -2.26741 0
M  V30 5817 N 573.503 -0.0852151 -1.57369 0
M  V30 5818 C 574.751 0.579658 -1.93609 0
M  V30 5819 C 575.072 1.69332 -0.967043 0
M  V30 5820 O 574.342 1.95892 -0.0174215 0
M  V30 5821 H 572.922 0.217113 -0.714752 0
M  V30 5822 H 575.584 -0.146226 -1.94351 0
M  V30 5823 H 574.68 0.996276 -2.95771 0
M  V30 5824 N 574.981 1.5647 0.188427 0
M  V30 5825 C 576.229 1.80655 0.905986 0
M  V30 5826 C 576.55 0.659391 1.83513 0
M  V30 5827 O 575.82 -0.321868 1.93238 0
M  V30 5828 H 574.4 0.666391 0.337538 0
M  V30 5829 H 577.062 1.93949 0.192339 0
M  V30 5830 H 576.158 2.74066 1.49313 0
M  V30 5831 N 576.459 -0.456382 1.50847 0
M  V30 5832 C 577.87 -1.03685 1.55262 0
M  V30 5833 C 578.221 -1.92779 0.364771 0
M  V30 5834 O 577.346 -2.10043 -0.52068 0
M  V30 5835 C 577.941 -1.88718 2.81374 0
M  V30 5836 C 576.5 -2.41847 2.88422 0
M  V30 5837 C 575.647 -1.20564 2.49719 0
M  V30 5838 H 578.598 -0.238399 1.56899 0
M  V30 5839 H 578.619 -2.73957 2.6406 0
M  V30 5840 H 578.131 -1.23847 3.67809 0
M  V30 5841 H 576.232 -3.10228 2.06372 0
M  V30 5842 H 576.345 -2.75947 3.9165 0
M  V30 5843 H 574.709 -1.54504 2.02486 0
M  V30 5844 H 575.492 -0.573326 3.38479 0
M  V30 5845 N 577.937 -1.40673 -0.710563 0
M  V30 5846 C 579.348 -1.34975 -1.28991 0
M  V30 5847 C 579.699 -0.0256272 -1.96183 0
M  V30 5848 O 578.824 0.876339 -1.97862 0
M  V30 5849 C 579.419 -2.44467 -2.34567 0
M  V30 5850 C 577.978 -2.42213 -2.88114 0
M  V30 5851 C 577.125 -2.25085 -1.61963 0
M  V30 5852 H 580.076 -1.50406 -0.506343 0
M  V30 5853 H 580.097 -2.12663 -3.15523 0
M  V30 5854 H 579.609 -3.40825 -1.85634 0
M  V30 5855 H 577.71 -1.49568 -3.41263 0
M  V30 5856 H 577.823 -3.37983 -3.39565 0
M  V30 5857 H 576.187 -1.72691 -1.87216 0
M  V30 5858 H 576.97 -3.23449 -1.15047 0
M  V30 5859 N 579.415 0.9433 -1.26252 0
M  V30 5860 C 580.348 2.04162 -1.01946 0
M  V30 5861 C 581.326 1.62507 0.0550808 0
M  V30 5862 O 582.51 1.883 -0.0869025 0
M  V30 5863 C 579.637 3.34313 -0.54335 0
M  V30 5864 C 578.683 3.94939 -1.61013 0
M  V30 5865 S 579.516 4.29484 -3.19849 0
M  V30 5866 C 580.672 5.62738 -2.74001 0
M  V30 5867 H 580.905 2.24466 -1.94942 0
M  V30 5868 H 578.438 1.08441 -1.09909 0
M  V30 5869 H 580.396 4.09576 -0.275315 0
M  V30 5870 H 579.057 3.11957 0.36629 0
M  V30 5871 H 578.25 4.88812 -1.22795 0
M  V30 5872 H 577.852 3.26202 -1.82943 0
M  V30 5873 H 580.144 6.41356 -2.18333 0
M  V30 5874 H 581.087 6.05839 -3.66558 0
M  V30 5875 H 581.495 5.22514 -2.13634 0
M  V30 5876 N 580.893 1.08022 1.14757 0
M  V30 5877 C 582.304 0.829144 1.67279 0
M  V30 5878 C 582.655 -0.644721 1.85305 0
M  V30 5879 O 581.78 -1.49838 1.56133 0
M  V30 5880 C 582.375 1.49855 3.03857 0
M  V30 5881 C 580.934 1.29482 3.53428 0
M  V30 5882 C 580.081 1.56386 2.28995 0
M  V30 5883 H 583.032 1.24134 0.988762 0
M  V30 5884 H 583.053 0.923572 3.69121 0
M  V30 5885 H 582.565 2.57123 2.90705 0
M  V30 5886 H 580.666 0.242669 3.71809 0
M  V30 5887 H 580.779 2.01974 4.34446 0
M  V30 5888 H 579.143 0.985217 2.34874 0
M  V30 5889 H 579.926 2.64851 2.18423 0
M  V30 5890 N 582.371 -1.3172 0.865308 0
M  V30 5891 C 583.782 -1.79104 0.527126 0
M  V30 5892 C 584.133 -1.7135 -0.955695 0
M  V30 5893 O 583.258 -1.27845 -1.74598 0
M  V30 5894 C 583.853 -3.25207 0.950061 0
M  V30 5895 C 582.412 -3.70504 0.663611 0
M  V30 5896 C 581.559 -2.52605 1.14395 0
M  V30 5897 H 584.51 -1.18868 1.05148 0
M  V30 5898 H 584.531 -3.79535 0.270805 0
M  V30 5899 H 584.043 -3.30818 2.02931 0
M  V30 5900 H 582.144 -3.70398 -0.404474 0
M  V30 5901 H 582.257 -4.62845 1.23737 0
M  V30 5902 H 580.621 -2.4838 0.563859 0
M  V30 5903 H 581.404 -2.60964 2.23053 0
M  V30 5904 N 583.85 -0.624285 -1.44708 0
M  V30 5905 C 585.26 -0.2092 -1.85524 0
M  V30 5906 C 585.611 1.23783 -1.52225 0
M  V30 5907 O 584.736 1.94089 -0.956986 0
M  V30 5908 C 585.332 -0.372897 -3.36742 0
M  V30 5909 C 583.891 -0.012374 -3.76398 0
M  V30 5910 C 583.038 -0.68951 -2.68591 0
M  V30 5911 H 585.989 -0.829894 -1.35272 0
M  V30 5912 H 586.01 0.390134 -3.78495 0
M  V30 5913 H 585.522 -1.42615 -3.60947 0
M  V30 5914 H 583.623 1.03941 -3.57809 0
M  V30 5915 H 583.736 -0.417663 -4.77276 0
M  V30 5916 H 582.1 -0.125484 -2.54391 0
M  V30 5917 H 582.883 -1.74522 -2.9563 0
M  V30 5918 N 585.328 1.53329 -0.364422 0
M  V30 5919 C 586.739 1.86345 0.115039 0
M  V30 5920 C 587.09 1.28505 1.4826 0
M  V30 5921 O 586.215 0.606639 2.07723 0
M  V30 5922 C 586.81 3.38114 0.215522 0
M  V30 5923 C 585.369 3.70932 0.639237 0
M  V30 5924 C 584.516 2.76471 -0.214261 0
M  V30 5925 H 587.467 1.47593 -0.583258 0
M  V30 5926 H 587.488 3.66031 1.0393 0
M  V30 5927 H 587 3.80182 -0.779948 0
M  V30 5928 H 585.101 3.3442 1.64298 0
M  V30 5929 H 585.214 4.77302 0.41465 0
M  V30 5930 H 583.578 2.52724 0.316678 0
M  V30 5931 H 584.361 3.21373 -1.20725 0
M  V30 5932 N 586.806 0.0935595 1.57322 0
M  V30 5933 C 588.217 -0.435807 1.81542 0
M  V30 5934 C 588.568 -1.68263 1.00907 0
M  V30 5935 O 587.693 -2.15087 0.237983 0
M  V30 5936 C 588.288 -0.797436 3.29282 0
M  V30 5937 C 586.847 -1.27155 3.54272 0
M  V30 5938 C 585.994 -0.267455 2.76007 0
M  V30 5939 H 588.945 0.31902 1.5546 0
M  V30 5940 H 588.966 -1.6571 3.42521 0
M  V30 5941 H 588.478 0.110206 3.87943 0
M  V30 5942 H 586.579 -2.19696 3.00939 0
M  V30 5943 H 586.692 -1.23445 4.62923 0
M  V30 5944 H 585.056 -0.749282 2.43429 0
M  V30 5945 H 585.839 0.632839 3.37417 0
M  V30 5946 N 588.284 -1.56567 -0.180126 0
M  V30 5947 C 589.695 -1.7126 -0.743422 0
M  V30 5948 C 590.046 -0.70263 -1.83187 0
M  V30 5949 O 589.171 0.137856 -2.1596 0
M  V30 5950 C 589.766 -3.10512 -1.35528 0
M  V30 5951 C 588.325 -3.26919 -1.8655 0
M  V30 5952 C 587.472 -2.67213 -0.741099 0
M  V30 5953 H 590.423 -1.58636 0.0451543 0
M  V30 5954 H 590.444 -3.08673 -2.22489 0
M  V30 5955 H 589.956 -3.83997 -0.562862 0
M  V30 5956 H 588.057 -2.58376 -2.68464 0
M  V30 5957 H 588.17 -4.34574 -2.01699 0
M  V30 5958 H 586.534 -2.26788 -1.15927 0
M  V30 5959 H 587.317 -3.43277 0.0393291 0
M  V30 5960 N 589.762 0.448376 -1.51087 0
M  V30 5961 C 591.173 1.0286 -1.5581 0
M  V30 5962 C 591.524 1.92583 -0.374989 0
M  V30 5963 O 590.649 2.10316 0.509533 0
M  V30 5964 C 591.244 1.87223 -2.8237 0
M  V30 5965 C 589.803 2.40314 -2.897 0
M  V30 5966 C 588.95 1.19238 -2.50355 0
M  V30 5967 H 591.901 0.230075 -1.57023 0
M  V30 5968 H 591.922 2.72553 -2.6551 0
M  V30 5969 H 591.434 1.21894 -3.68461 0
M  V30 5970 H 589.535 3.09129 -2.08014 0
M  V30 5971 H 589.648 2.73866 -3.93108 0
M  V30 5972 H 588.012 1.53428 -2.03303 0
M  V30 5973 H 588.795 0.555367 -3.38778 0
M  V30 5974 N 591.24 1.41047 0.703093 0
M  V30 5975 C 592.651 1.35657 1.28274 0
M  V30 5976 C 593.002 0.0360309 1.96167 0
M  V30 5977 O 592.127 -0.865833 1.98324 0
M  V30 5978 C 592.722 2.45707 2.33267 0
M  V30 5979 C 591.281 2.43738 2.86825 0
M  V30 5980 C 590.428 2.25941 1.60767 0
M  V30 5981 H 593.379 1.50672 0.49836 0
M  V30 5982 H 593.4 2.14333 3.14391 0
M  V30 5983 H 592.912 3.41805 1.83824 0
M  V30 5984 H 591.013 1.51375 3.40465 0
M  V30 5985 H 591.126 3.39779 3.37768 0
M  V30 5986 H 589.49 1.73681 1.86298 0
M  V30 5987 H 590.273 3.24054 1.1333 0
M  V30 5988 N 592.718 -0.936591 1.26751 0
M  V30 5989 C 594.129 -1.49816 1.1141 0
M  V30 5990 C 594.48 -1.9383 -0.304015 0
M  V30 5991 O 593.605 -1.80346 -1.196 0
M  V30 5992 C 594.2 -2.72271 2.01629 0
M  V30 5993 C 592.759 -3.2468 1.9042 0
M  V30 5994 C 591.906 -1.97444 1.94708 0
M  V30 5995 H 594.857 -0.751604 1.39773 0
M  V30 5996 H 594.878 -3.46741 1.56688 0
M  V30 5997 H 594.39 -2.40205 3.04833 0
M  V30 5998 H 592.491 -3.61525 0.901674 0
M  V30 5999 H 592.604 -3.91476 2.76195 0
M  V30 6000 H 590.968 -2.13545 1.38818 0
M  V30 6001 H 591.751 -1.67703 2.9955 0
M  V30 6002 N 594.196 -1.08629 -1.14182 0
M  V30 6003 C 595.607 -0.838003 -1.66836 0
M  V30 6004 C 595.958 0.634885 -1.85644 0
M  V30 6005 O 595.083 1.49008 -1.56926 0
M  V30 6006 C 595.678 -1.51465 -3.03058 0
M  V30 6007 C 594.237 -1.31355 -3.52736 0
M  V30 6008 C 593.384 -1.57599 -2.28162 0
M  V30 6009 H 596.335 -1.24656 -0.982165 0
M  V30 6010 H 596.356 -0.943134 -3.68626 0
M  V30 6011 H 595.868 -2.58661 -2.89337 0
M  V30 6012 H 593.969 -0.262384 -3.71675 0
M  V30 6013 H 594.082 -2.04275 -4.33369 0
M  V30 6014 H 592.446 -0.997659 -2.34348 0
M  V30 6015 H 593.229 -2.66006 -2.17015 0
M  V30 6016 N 595.674 1.31259 -0.872281 0
M  V30 6017 C 597.085 1.78822 -0.536617 0
M  V30 6018 C 597.436 1.71855 0.946594 0
M  V30 6019 O 596.561 1.28769 1.73918 0
M  V30 6020 C 597.156 3.24698 -0.967294 0
M  V30 6021 C 595.715 3.70147 -0.683251 0
M  V30 6022 C 594.862 2.51994 -1.15733 0
M  V30 6023 H 597.813 1.18308 -1.05777 0
M  V30 6024 H 597.834 3.79386 -0.290929 0
M  V30 6025 H 597.346 3.29737 -2.04683 0
M  V30 6026 H 595.447 3.70607 0.384825 0
M  V30 6027 H 595.56 4.62183 -1.2619 0
M  V30 6028 H 593.924 2.48078 -0.577024 0
M  V30 6029 H 594.707 2.59778 -2.24434 0
M  V30 6030 N 597.152 0.631951 1.44375 0
M  V30 6031 C 598.377 0.142146 2.06912 0
M  V30 6032 C 598.802 -1.17456 1.4692 0
M  V30 6033 O 598.16 -1.72074 0.570975 0
M  V30 6034 C 598.208 0.0417952 3.60576 0
M  V30 6035 O 597.312 -1.00194 4.00044 0
M  V30 6036 H 596.653 0.0851491 0.658518 0
M  V30 6037 H 599.183 0.868863 1.85235 0
M  V30 6038 H 599.193 -0.148517 4.0773 0
M  V30 6039 H 597.868 1.0031 4.03622 0
M  V30 6040 H 596.445 -0.786131 3.64519 0
M  V30 6041 N 598.631 -1.53133 0.372548 0
M  V30 6042 C 599.856 -2.0625 -0.218098 0
M  V30 6043 C 600.281 -1.24375 -1.41111 0
M  V30 6044 O 599.639 -0.264554 -1.79359 0
M  V30 6045 C 599.687 -3.55858 -0.582876 0
M  V30 6046 O 598.791 -3.76667 -1.67917 0
M  V30 6047 H 598.132 -0.663317 -0.030104 0
M  V30 6048 H 600.662 -1.97477 0.535169 0
M  V30 6049 H 600.672 -3.99007 -0.851925 0
M  V30 6050 H 599.347 -4.14892 0.289428 0
M  V30 6051 H 597.924 -3.45413 -1.40513 0
M  V30 6052 N 600.109 -0.101901 -1.5727 0
M  V30 6053 C 601.357 0.559091 -1.94213 0
M  V30 6054 C 601.678 1.68297 -0.984948 0
M  V30 6055 O 600.948 1.95863 -0.0381975 0
M  V30 6056 H 599.528 0.20952 -0.717015 0
M  V30 6057 H 602.19 -0.166831 -1.94185 0
M  V30 6058 H 601.286 0.96485 -2.96811 0
M  V30 6059 N 601.587 1.56661 0.17182 0
M  V30 6060 C 602.535 1.97289 1.23207 0
M  V30 6061 C 603.529 0.861566 1.45854 0
M  V30 6062 O 604.735 1.04668 1.4644 0
M  V30 6063 H 601.11 0.627681 0.41415 0
M  V30 6064 H 603.081 2.85662 0.862542 0
M  V30 6065 C 601.83 2.34849 2.564 0
M  V30 6066 H 601.153 3.19903 2.39797 0
M  V30 6067 H 602.593 2.67121 3.29276 0
M  V30 6068 C 601.052 1.19172 3.15119 0
M  V30 6069 O 601.582 0.479113 3.98833 0
M  V30 6070 N 599.788 0.962415 2.74201 0
M  V30 6071 H 599.335 1.54365 2.06226 0
M  V30 6072 H 599.293 0.190272 3.13824 0
M  V30 6073 N 603.065 -0.440357 1.51323 0
M  V30 6074 C 604.313 -1.18769 1.63518 0
M  V30 6075 C 604.634 -1.91793 0.352201 0
M  V30 6076 O 603.904 -1.85432 -0.631811 0
M  V30 6077 H 602.484 -0.441408 0.602634 0
M  V30 6078 H 605.146 -0.505162 1.8824 0
M  V30 6079 H 604.242 -1.91892 2.46138 0
M  V30 6080 N 604.543 -1.41418 -0.695603 0
M  V30 6081 C 605.954 -1.36335 -1.27552 0
M  V30 6082 C 606.305 -0.0464336 -1.96145 0
M  V30 6083 O 605.43 0.855304 -1.9878 0
M  V30 6084 C 606.025 -2.46941 -2.3196 0
M  V30 6085 C 604.584 -2.45256 -2.85529 0
M  V30 6086 C 603.731 -2.2679 -1.59566 0
M  V30 6087 H 606.682 -1.50934 -0.490362 0
M  V30 6088 H 606.703 -2.15997 -3.1325 0
M  V30 6089 H 606.215 -3.42775 -1.82008 0
M  V30 6090 H 604.316 -1.53179 -3.39657 0
M  V30 6091 H 604.429 -3.41565 -3.35961 0
M  V30 6092 H 602.793 -1.74667 -1.85374 0
M  V30 6093 H 603.576 -3.24651 -1.1161 0
M  V30 6094 N 606.021 0.929856 -1.27246 0
M  V30 6095 C 606.984 2.01172 -1.09829 0
M  V30 6096 C 607.984 1.60743 -0.0429687 0
M  V30 6097 O 609.174 1.71813 -0.287373 0
M  V30 6098 C 606.306 3.34191 -0.673003 0
M  V30 6099 H 607.499 2.18054 -2.05895 0
M  V30 6100 H 605.052 1.11036 -1.10003 0
M  V30 6101 H 605.787 3.23009 0.289134 0
M  V30 6102 H 605.572 3.64892 -1.43515 0
M  V30 6103 H 607.062 4.13646 -0.573323 0
M  V30 6104 N 607.499 1.09233 1.13605 0
M  V30 6105 C 608.91 0.846839 1.6639 0
M  V30 6106 C 609.261 -0.625031 1.85978 0
M  V30 6107 O 608.386 -1.48173 1.57714 0
M  V30 6108 C 608.981 1.5307 3.0225 0
M  V30 6109 C 607.54 1.33223 3.52035 0
M  V30 6110 C 606.687 1.58806 2.27323 0
M  V30 6111 H 609.638 1.25175 0.975541 0
M  V30 6112 H 609.659 0.96267 3.68121 0
M  V30 6113 H 609.171 2.60192 2.87961 0
M  V30 6114 H 607.272 0.282091 3.71531 0
M  V30 6115 H 607.385 2.0657 4.32279 0
M  V30 6116 H 605.749 1.01007 2.33815 0
M  V30 6117 H 606.532 2.67153 2.15602 0
M  V30 6118 N 608.977 -1.30795 0.87923 0
M  V30 6119 C 610.388 -1.78535 0.546093 0
M  V30 6120 C 610.739 -1.72354 -0.937467 0
M  V30 6121 O 609.864 -1.2969 -1.73233 0
M  V30 6122 C 610.459 -3.24181 0.9845 0
M  V30 6123 C 609.018 -3.69779 0.702871 0
M  V30 6124 C 608.165 -2.51377 1.17068 0
M  V30 6125 H 611.116 -1.17746 1.06403 0
M  V30 6126 H 611.137 -3.79227 0.311045 0
M  V30 6127 H 610.649 -3.28647 2.06429 0
M  V30 6128 H 608.75 -3.70806 -0.365166 0
M  V30 6129 H 608.863 -4.61507 1.28639 0
M  V30 6130 H 607.227 -2.47768 0.590172 0
M  V30 6131 H 608.01 -2.58584 2.25808 0
M  V30 6132 N 610.455 -0.639598 -1.44038 0
M  V30 6133 C 611.866 -0.228866 -1.85292 0
M  V30 6134 C 612.217 1.22161 -1.53529 0
M  V30 6135 O 611.342 1.93064 -0.977518 0
M  V30 6136 C 611.937 -0.408592 -3.36327 0
M  V30 6137 C 610.496 -0.0522953 -3.76364 0
M  V30 6138 C 609.643 -0.717959 -2.67844 0
M  V30 6139 H 612.594 -0.844194 -1.34384 0
M  V30 6140 H 612.615 0.349968 -3.78887 0
M  V30 6141 H 612.127 -1.46435 -3.59414 0
M  V30 6142 H 610.228 1.0014 -3.58891 0
M  V30 6143 H 610.341 -0.468261 -4.76806 0
M  V30 6144 H 608.705 -0.152459 -2.54243 0
M  V30 6145 H 609.488 -1.77648 -2.93762 0
M  V30 6146 N 611.933 1.52934 -0.380664 0
M  V30 6147 C 612.863 2.29118 0.450268 0
M  V30 6148 C 613.844 1.32153 1.07096 0
M  V30 6149 O 615.029 1.61038 1.08537 0
M  V30 6150 C 612.159 3.09161 1.58231 0
M  V30 6151 C 611.113 4.13938 1.0881 0
M  V30 6152 C 610.439 4.82153 2.31155 0
M  V30 6153 C 611.739 5.22048 0.162146 0
M  V30 6154 H 613.433 2.98826 -0.185361 0
M  V30 6155 H 610.979 1.43715 -0.0905886 0
M  V30 6156 H 612.932 3.61211 2.17036 0
M  V30 6157 H 611.656 2.3717 2.2454 0
M  V30 6158 H 610.315 3.62855 0.522633 0
M  V30 6159 H 609.963 4.06719 2.95953 0
M  V30 6160 H 609.663 5.52966 1.98752 0
M  V30 6161 H 611.187 5.37004 2.90618 0
M  V30 6162 H 612.601 5.6951 0.658126 0
M  V30 6163 H 610.998 6.00057 -0.0717122 0
M  V30 6164 H 612.068 4.78398 -0.791438 0
M  V30 6165 N 613.412 0.11024 1.57214 0
M  V30 6166 C 614.823 -0.416527 1.81994 0
M  V30 6167 C 615.174 -1.67183 1.02686 0
M  V30 6168 O 614.299 -2.14823 0.260782 0
M  V30 6169 C 614.894 -0.762466 3.30109 0
M  V30 6170 C 613.453 -1.23391 3.556 0
M  V30 6171 C 612.6 -0.238166 2.76275 0
M  V30 6172 H 615.551 0.335491 1.55113 0
M  V30 6173 H 615.572 -1.62068 3.44259 0
M  V30 6174 H 615.084 0.151346 3.87805 0
M  V30 6175 H 613.185 -2.16492 3.03253 0
M  V30 6176 H 613.298 -1.18528 4.64207 0
M  V30 6177 H 611.662 -0.723421 2.4421 0
M  V30 6178 H 612.445 0.668591 3.36727 0
M  V30 6179 N 614.89 -1.56749 -0.16351 0
M  V30 6180 C 616.301 -1.72039 -0.725216 0
M  V30 6181 C 616.652 -0.72202 -1.82432 0
M  V30 6182 O 615.777 0.114942 -2.16095 0
M  V30 6183 C 616.372 -3.11932 -1.32227 0
M  V30 6184 C 614.931 -3.28879 -1.83072 0
M  V30 6185 C 614.078 -2.67984 -0.712716 0
M  V30 6186 H 617.029 -1.58579 0.0619772 0
M  V30 6187 H 617.05 -3.11015 -2.19202 0
M  V30 6188 H 616.562 -3.84572 -0.522103 0
M  V30 6189 H 614.663 -2.61209 -2.65708 0
M  V30 6190 H 614.776 -4.36688 -1.97079 0
M  V30 6191 H 613.14 -2.28005 -1.13515 0
M  V30 6192 H 613.923 -3.43216 0.0757361 0
M  V30 6193 N 616.368 0.432326 -1.51554 0
M  V30 6194 C 617.331 1.50765 -1.72634 0
M  V30 6195 C 618.331 1.49334 -0.596314 0
M  V30 6196 O 619.521 1.51268 -0.863925 0
M  V30 6197 C 616.653 2.90284 -1.7874 0
M  V30 6198 H 617.846 1.33377 -2.68609 0
M  V30 6199 H 615.399 0.661329 -1.4162 0
M  V30 6200 H 616.134 3.13071 -0.845977 0
M  V30 6201 H 615.919 2.92727 -2.6087 0
M  V30 6202 H 617.409 3.68282 -1.96871 0
M  V30 6203 N 617.846 1.41785 0.688094 0
M  V30 6204 C 618.776 1.47 1.8142 0
M  V30 6205 C 619.757 0.327881 1.6691 0
M  V30 6206 O 620.942 0.540362 1.86531 0
M  V30 6207 C 618.072 1.35876 3.19617 0
M  V30 6208 C 617.026 2.47976 3.48844 0
M  V30 6209 C 616.352 2.21915 4.86475 0
M  V30 6210 C 617.652 3.90309 3.47068 0
M  V30 6211 H 619.346 2.41247 1.77314 0
M  V30 6212 H 616.892 1.16116 0.851651 0
M  V30 6213 H 618.845 1.38134 3.98117 0
M  V30 6214 H 617.569 0.38116 3.24368 0
M  V30 6215 H 616.228 2.45013 2.72698 0
M  V30 6216 H 615.876 1.2248 4.8786 0
M  V30 6217 H 615.576 2.97037 5.06994 0
M  V30 6218 H 617.1 2.25901 5.67275 0
M  V30 6219 H 618.514 3.94947 4.1556 0
M  V30 6220 H 616.911 4.65175 3.7912 0
M  V30 6221 H 617.981 4.17927 2.45896 0
M  V30 6222 N 619.324 -0.923095 1.27737 0
M  V30 6223 C 620.57 -1.67375 1.14514 0
M  V30 6224 C 620.903 -1.91751 -0.307424 0
M  V30 6225 O 620.178 -1.51119 -1.22447 0
M  V30 6226 C 620.461 -3.03745 1.9342 0
M  V30 6227 C 620.314 -2.86581 3.46686 0
M  V30 6228 C 621.633 -4.04144 1.74228 0
M  V30 6229 H 618.752 -0.607427 0.417374 0
M  V30 6230 H 621.394 -1.07089 1.56946 0
M  V30 6231 H 619.544 -3.55204 1.5736 0
M  V30 6232 H 621.216 -2.42203 3.92601 0
M  V30 6233 H 619.459 -2.21829 3.72793 0
M  V30 6234 H 620.13 -3.83381 3.97143 0
M  V30 6235 H 622.606 -3.61712 2.05678 0
M  V30 6236 H 621.482 -4.97543 2.31824 0
M  V30 6237 H 621.743 -4.36661 0.691373 0
M  V30 6238 N 620.802 -1.09834 -1.13024 0
M  V30 6239 C 622.213 -0.855651 -1.65938 0
M  V30 6240 C 622.564 0.615159 -1.86307 0
M  V30 6241 O 621.689 1.47335 -1.58497 0
M  V30 6242 C 622.284 -1.5467 -3.01434 0
M  V30 6243 C 620.843 -1.35088 -3.51323 0
M  V30 6244 C 619.99 -1.6001 -2.26478 0
M  V30 6245 H 622.941 -1.25691 -0.968889 0
M  V30 6246 H 622.962 -0.982179 -3.67605 0
M  V30 6247 H 622.474 -2.61715 -2.86578 0
M  V30 6248 H 620.575 -0.30179 -3.71376 0
M  V30 6249 H 620.688 -2.0886 -4.31178 0
M  V30 6250 H 619.052 -1.02246 -2.33276 0
M  V30 6251 H 619.835 -2.68293 -2.14182 0
M  V30 6252 N 622.28 1.30327 -0.886154 0
M  V30 6253 C 623.243 2.26376 -0.358687 0
M  V30 6254 C 624.243 1.52845 0.499498 0
M  V30 6255 O 625.433 1.71483 0.306485 0
M  V30 6256 C 622.565 3.37379 0.488726 0
M  V30 6257 H 623.758 2.74547 -1.20681 0
M  V30 6258 H 621.311 1.41536 -0.663113 0
M  V30 6259 H 622.046 2.94526 1.35739 0
M  V30 6260 H 621.831 3.91897 -0.126003 0
M  V30 6261 H 623.321 4.08868 0.84952 0
M  V30 6262 N 623.758 0.647228 1.43697 0
M  V30 6263 C 625.006 0.157876 2.01482 0
M  V30 6264 C 625.327 -1.23039 1.51282 0
M  V30 6265 O 624.597 -1.82071 0.722982 0
M  V30 6266 H 623.177 0.0553745 0.744945 0
M  V30 6267 H 625.839 0.83755 1.75986 0
M  V30 6268 H 624.935 0.137895 3.11795 0
M  V30 6269 N 625.236 -1.5273 0.388769 0
M  V30 6270 C 626.484 -2.01174 -0.193208 0
M  V30 6271 C 626.805 -1.27705 -1.47365 0
M  V30 6272 O 626.075 -0.396966 -1.91836 0
M  V30 6273 H 624.655 -0.743287 -0.0743871 0
M  V30 6274 H 627.317 -1.87826 0.520336 0
M  V30 6275 H 626.413 -3.09477 -0.403803 0
M  V30 6276 N 626.714 -0.118576 -1.57153 0
M  V30 6277 C 627.644 0.828436 -2.1831 0
M  V30 6278 C 628.625 1.27758 -1.12303 0
M  V30 6279 O 629.81 1.34026 -1.40537 0
M  V30 6280 C 626.94 2.07876 -2.78217 0
M  V30 6281 C 625.894 1.76742 -3.89803 0
M  V30 6282 C 625.22 3.08801 -4.36516 0
M  V30 6283 C 626.52 1.03606 -5.11921 0
M  V30 6284 H 628.214 0.318824 -2.97698 0
M  V30 6285 H 625.76 0.151911 -1.43196 0
M  V30 6286 H 627.713 2.74584 -3.19659 0
M  V30 6287 H 626.437 2.61161 -1.96118 0
M  V30 6288 H 625.096 1.12424 -3.48936 0
M  V30 6289 H 624.744 3.6002 -3.51276 0
M  V30 6290 H 624.444 2.88743 -5.11763 0
M  V30 6291 H 625.968 3.76627 -4.80608 0
M  V30 6292 H 627.382 1.60467 -5.50385 0
M  V30 6293 H 625.779 0.936454 -5.92748 0
M  V30 6294 H 626.849 0.0227421 -4.84895 0
M  V30 6295 N 628.193 1.56834 0.155195 0
M  V30 6296 C 629.156 1.96748 1.17571 0
M  V30 6297 C 630.156 0.853006 1.3631 0
M  V30 6298 O 631.346 1.11978 1.33441 0
M  V30 6299 C 628.478 2.27631 2.53765 0
M  V30 6300 H 629.671 2.88085 0.833498 0
M  V30 6301 H 627.224 1.51141 0.398242 0
M  V30 6302 H 627.959 1.39059 2.92973 0
M  V30 6303 H 627.744 3.0888 2.41527 0
M  V30 6304 H 629.234 2.59377 3.27282 0
M  V30 6305 N 629.671 -0.424282 1.51781 0
M  V30 6306 C 631.082 -1.00368 1.57427 0
M  V30 6307 C 631.433 -1.91962 0.40558 0
M  V30 6308 O 630.558 -2.111 -0.47601 0
M  V30 6309 C 631.153 -1.82707 2.85313 0
M  V30 6310 C 629.712 -2.35675 2.93487 0
M  V30 6311 C 628.859 -1.1524 2.5222 0
M  V30 6312 H 631.81 -0.205064 1.5737 0
M  V30 6313 H 631.831 -2.68294 2.69812 0
M  V30 6314 H 631.343 -1.16017 3.70353 0
M  V30 6315 H 629.444 -3.05781 2.12906 0
M  V30 6316 H 629.557 -2.67578 3.97415 0
M  V30 6317 H 627.921 -1.50174 2.05718 0
M  V30 6318 H 628.704 -0.5014 3.39619 0
M  V30 6319 N 631.149 -1.42148 -0.680565 0
M  V30 6320 C 632.397 -1.42029 -1.43779 0
M  V30 6321 C 632.718 -0.0356347 -1.94967 0
M  V30 6322 O 631.988 0.924936 -1.7269 0
M  V30 6323 H 630.568 -0.522835 -0.533529 0
M  V30 6324 H 633.23 -1.7752 -0.804538 0
M  V30 6325 H 632.326 -2.11658 -2.29363 0
M  V30 6326 N 632.627 0.916307 -1.28225 0
M  V30 6327 C 633.875 1.6619 -1.15002 0
M  V30 6328 C 634.196 1.92642 0.302329 0
M  V30 6329 O 633.466 1.54076 1.20985 0
M  V30 6330 H 632.046 0.615964 -0.422608 0
M  V30 6331 H 634.708 1.09963 -1.60917 0
M  V30 6332 H 633.804 2.62533 -1.68769 0
M  V30 6333 N 634.105 1.10431 1.1244 0
M  V30 6334 C 635.353 0.845045 1.83585 0
M  V30 6335 C 635.674 -0.631168 1.84503 0
M  V30 6336 O 634.944 -1.45825 1.30813 0
M  V30 6337 H 633.524 0.309628 0.679809 0
M  V30 6338 H 636.186 1.39458 1.36153 0
M  V30 6339 H 635.282 1.20786 2.8778 0
M  V30 6340 N 635.583 -1.29855 0.893053 0
M  V30 6341 C 636.999 -1.48366 0.588199 0
M  V30 6342 C 637.199 -1.81654 -0.872018 0
M  V30 6343 O 636.255 -1.909 -1.65268 0
M  V30 6344 C 637.568 -2.60136 1.5083 0
M  V30 6345 C 639.116 -2.74014 1.51279 0
M  V30 6346 C 639.591 -3.88905 2.41902 0
M  V30 6347 N 641.082 -3.96228 2.39911 0
M  V30 6348 C 641.817 -4.84458 3.06738 0
M  V30 6349 N 641.313 -5.77426 3.8282 0
M  V30 6350 N 643.106 -4.77894 2.95929 0
M  V30 6351 H 635.257 -1.06522 1.83757 0
M  V30 6352 H 637.52 -0.528495 0.787018 0
M  V30 6353 H 637.226 -2.42383 2.54839 0
M  V30 6354 H 637.1 -3.56793 1.22388 0
M  V30 6355 H 639.487 -2.91167 0.480179 0
M  V30 6356 H 639.568 -1.77952 1.83757 0
M  V30 6357 H 639.212 -3.72508 3.45253 0
M  V30 6358 H 639.142 -4.84322 2.06737 0
M  V30 6359 H 641.633 -3.29728 1.84629 0
M  V30 6360 H 641.946 -6.41529 4.30883 0
M  V30 6361 H 640.291 -5.77332 3.86927 0
M  V30 6362 H 643.482 -4.04248 2.36012 0
M  V30 6363 H 643.655 -5.46444 3.48286 0
M  V30 6364 N 637.061 -0.65484 -1.43351 0
M  V30 6365 C 638.309 -0.168559 -2.01396 0
M  V30 6366 C 638.63 1.22235 -1.51933 0
M  V30 6367 O 637.9 1.81685 -0.732627 0
M  V30 6368 H 636.48 -0.0593244 -0.744641 0
M  V30 6369 H 639.142 -0.846871 -1.75539 0
M  V30 6370 H 638.238 -0.154428 -3.11718 0
M  V30 6371 N 638.539 1.52521 -0.396863 0
M  V30 6372 C 639.502 2.2527 0.422604 0
M  V30 6373 C 640.502 1.27184 0.983913 0
M  V30 6374 O 641.692 1.51222 0.864723 0
M  V30 6375 C 638.824 3.01356 1.59365 0
M  V30 6376 H 640.017 2.99133 -0.214416 0
M  V30 6377 H 637.57 1.55587 -0.149128 0
M  V30 6378 H 638.305 2.31813 2.26789 0
M  V30 6379 H 638.09 3.73357 1.19779 0
M  V30 6380 H 639.58 3.56571 2.17363 0
M  V30 6381 N 640.017 0.126909 1.57088 0
M  V30 6382 C 640.947 -0.816847 2.18746 0
M  V30 6383 C 641.928 -1.27161 1.12979 0
M  V30 6384 O 643.113 -1.33279 1.41246 0
M  V30 6385 C 640.243 -2.06398 2.79315 0
M  V30 6386 C 639.197 -1.74673 3.90735 0
M  V30 6387 C 638.523 -3.06482 4.38147 0
M  V30 6388 C 639.823 -1.0089 5.12463 0
M  V30 6389 H 641.517 -0.303032 2.97863 0
M  V30 6390 H 639.063 -0.144314 1.43275 0
M  V30 6391 H 641.016 -2.72885 3.2111 0
M  V30 6392 H 639.74 -2.60118 1.975 0
M  V30 6393 H 638.399 -1.10572 3.49527 0
M  V30 6394 H 638.047 -3.58152 3.5318 0
M  V30 6395 H 637.747 -2.86025 5.13287 0
M  V30 6396 H 639.271 -3.74073 4.82599 0
M  V30 6397 H 640.685 -1.57546 5.51228 0
M  V30 6398 H 639.082 -0.905006 5.93237 0
M  V30 6399 H 640.152 0.00297335 4.849 0
M  V30 6400 N 641.495 -1.56914 -0.146875 0
M  V30 6401 C 642.425 -2.01308 -1.1831 0
M  V30 6402 C 643.406 -0.892664 -1.44795 0
M  V30 6403 O 644.591 -1.16048 -1.55713 0
M  V30 6404 C 641.721 -2.3938 -2.51624 0
M  V30 6405 C 640.675 -3.54608 -2.3966 0
M  V30 6406 C 640.001 -3.78493 -3.77686 0
M  V30 6407 C 641.301 -4.87269 -1.88058 0
M  V30 6408 H 642.995 -2.88123 -0.813964 0
M  V30 6409 H 640.541 -1.38615 -0.3901 0
M  V30 6410 H 642.494 -2.69037 -3.24341 0
M  V30 6411 H 641.218 -1.49502 -2.90373 0
M  V30 6412 H 639.877 -3.25116 -1.69396 0
M  V30 6413 H 639.525 -2.85866 -4.13871 0
M  V30 6414 H 639.225 -4.56039 -3.70543 0
M  V30 6415 H 640.749 -4.10576 -4.51951 0
M  V30 6416 H 642.163 -5.15644 -2.50568 0
M  V30 6417 H 640.56 -5.68622 -1.91805 0
M  V30 6418 H 641.63 -4.77634 -0.836277 0
M  V30 6419 N 642.974 0.416227 -1.52004 0
M  V30 6420 C 644.251 1.17637 -1.56272 0
M  V30 6421 C 644.631 2.08352 -0.339493 0
M  V30 6422 O 643.979 2.1833 0.674124 0
M  V30 6423 C 644.189 1.95986 -2.88774 0
M  V30 6424 C 645.537 2.52299 -3.41512 0
M  V30 6425 O 646.561 2.06174 -2.90467 0
M  V30 6426 O 645.42 3.3648 -4.30631 0
M  V30 6427 H 642.514 0.536726 -0.629169 0
M  V30 6428 H 645.06 0.423583 -1.64329 0
M  V30 6429 H 643.832 1.29487 -3.69254 0
M  V30 6430 H 643.455 2.78285 -2.83978 0
M  V30 6431 N 644.452 1.42507 0.673017 0
M  V30 6432 C 645.384 1.42074 1.79854 0
M  V30 6433 C 646.397 0.319569 1.59633 0
M  V30 6434 O 647.586 0.582769 1.68719 0
M  V30 6435 C 644.686 1.19886 3.16987 0
M  V30 6436 C 643.859 2.42471 3.64042 0
M  V30 6437 C 642.918 2.15802 4.79913 0
M  V30 6438 O 641.944 2.89015 4.90366 0
M  V30 6439 N 643.146 1.16225 5.68746 0
M  V30 6440 H 645.911 2.3909 1.8071 0
M  V30 6441 H 643.472 1.37409 0.856171 0
M  V30 6442 H 645.464 0.999591 3.92161 0
M  V30 6443 H 644.034 0.313879 3.1102 0
M  V30 6444 H 643.254 2.77954 2.79526 0
M  V30 6445 H 644.542 3.24097 3.92223 0
M  V30 6446 H 643.94 0.556756 5.62954 0
M  V30 6447 H 642.497 1.02285 6.43724 0
M  V30 6448 N 645.93 -0.909495 1.28709 0
M  V30 6449 C 647.179 -1.65365 1.15487 0
M  V30 6450 C 647.492 -1.93364 -0.294941 0
M  V30 6451 O 648.698 -2.65905 -0.548338 0
M  V30 6452 C 647.154 -2.97923 2.01916 0
M  V30 6453 C 646.762 -2.77556 3.51663 0
M  V30 6454 C 648.506 -3.75814 1.97393 0
M  V30 6455 C 646.413 -4.0578 4.30229 0
M  V30 6456 H 645.343 -0.620323 0.42862 0
M  V30 6457 H 647.994 -1.00894 1.53273 0
M  V30 6458 H 646.376 -3.63552 1.5699 0
M  V30 6459 H 647.55 -2.2058 4.04575 0
M  V30 6460 H 645.865 -2.13072 3.57756 0
M  V30 6461 H 648.462 -4.70866 2.53357 0
M  V30 6462 H 648.805 -4.05277 0.951643 0
M  V30 6463 H 649.338 -3.1701 2.40311 0
M  V30 6464 H 646.077 -3.81488 5.33055 0
M  V30 6465 H 645.597 -4.62351 3.82089 0
M  V30 6466 H 647.276 -4.74004 4.40374 0
M  V30 6467 N 647.408 -1.11026 -1.11852 0
M  V30 6468 C 648.824 -0.843294 -1.35502 0
M  V30 6469 C 649.024 0.534179 -1.9429 0
M  V30 6470 O 648.08 1.28585 -2.17307 0
M  V30 6471 C 649.393 -1.94793 -2.29077 0
M  V30 6472 C 650.941 -1.97709 -2.42652 0
M  V30 6473 C 651.416 -3.07364 -3.39546 0
M  V30 6474 N 652.907 -3.0671 -3.47107 0
M  V30 6475 C 653.642 -3.88197 -4.22008 0
M  V30 6476 N 653.138 -4.79635 -4.99922 0
M  V30 6477 N 654.931 -3.76391 -4.17476 0
M  V30 6478 H 647.082 -1.99805 -0.720538 0
M  V30 6479 H 649.345 -0.868633 -0.379711 0
M  V30 6480 H 649.051 -2.93971 -1.93065 0
M  V30 6481 H 648.925 -1.84039 -3.29256 0
M  V30 6482 H 651.312 -0.991604 -2.77941 0
M  V30 6483 H 651.393 -2.1254 -1.4234 0
M  V30 6484 H 651.037 -4.06136 -3.04985 0
M  V30 6485 H 650.967 -2.89774 -4.39703 0
M  V30 6486 H 653.458 -2.40457 -2.91528 0
M  V30 6487 H 653.771 -5.38357 -5.54429 0
M  V30 6488 H 652.116 -4.8366 -4.99097 0
M  V30 6489 H 655.307 -3.04303 -3.55693 0
M  V30 6490 H 655.48 -4.40131 -4.75593 0
M  V30 6491 N 648.886 1.2938 -0.899927 0
M  V30 6492 C 649.818 2.26737 -0.335139 0
M  V30 6493 C 650.831 1.54316 0.518681 0
M  V30 6494 O 652.02 1.75313 0.335803 0
M  V30 6495 C 649.12 3.34558 0.540774 0
M  V30 6496 C 648.293 4.36455 -0.287372 0
M  V30 6497 C 647.352 5.2361 0.52141 0
M  V30 6498 O 646.378 5.69167 -0.0611735 0
M  V30 6499 N 647.58 5.50985 1.82745 0
M  V30 6500 H 650.345 2.75838 -1.17191 0
M  V30 6501 H 647.906 1.42716 -0.764438 0
M  V30 6502 H 649.898 3.89794 1.08825 0
M  V30 6503 H 648.468 2.85272 1.27823 0
M  V30 6504 H 647.688 3.80875 -1.01626 0
M  V30 6505 H 648.976 5.01573 -0.854518 0
M  V30 6506 H 648.374 5.15781 2.32349 0
M  V30 6507 H 646.931 6.09036 2.32204 0
M  V30 6508 N 650.364 0.662433 1.43002 0
M  V30 6509 C 651.612 0.179237 2.01304 0
M  V30 6510 C 651.933 -1.21428 1.52579 0
M  V30 6511 O 651.203 -1.81294 0.742252 0
M  V30 6512 H 649.783 0.0632725 0.744316 0
M  V30 6513 H 652.445 0.856169 1.75088 0
M  V30 6514 H 651.541 0.170957 3.11631 0
M  V30 6515 N 651.842 -1.52309 0.404946 0
M  V30 6516 C 653.091 -2.00952 -0.173529 0
M  V30 6517 C 653.404 -1.29512 -1.46581 0
M  V30 6518 O 654.61 -1.6895 -2.12528 0
M  V30 6519 C 653.066 -3.58097 -0.359801 0
M  V30 6520 C 652.674 -4.38449 0.920138 0
M  V30 6521 C 654.418 -4.14984 -0.893794 0
M  V30 6522 C 652.325 -5.87227 0.701285 0
M  V30 6523 H 651.255 -0.750871 -0.0686244 0
M  V30 6524 H 653.906 -1.75687 0.529749 0
M  V30 6525 H 652.288 -3.79675 -1.12531 0
M  V30 6526 H 653.462 -4.28633 1.69147 0
M  V30 6527 H 651.777 -3.92859 1.38024 0
M  V30 6528 H 654.374 -5.23813 -1.0735 0
M  V30 6529 H 654.717 -3.72072 -1.8673 0
M  V30 6530 H 655.25 -3.97358 -0.187453 0
M  V30 6531 H 651.989 -6.34491 1.64624 0
M  V30 6532 H 651.509 -5.99792 -0.0308288 0
M  V30 6533 H 653.188 -6.46096 0.341846 0
M  V30 6534 N 653.32 -0.135238 -1.57019 0
M  V30 6535 C 654.252 0.839675 -2.13265 0
M  V30 6536 C 655.265 1.21887 -1.07923 0
M  V30 6537 O 656.454 1.16499 -1.35241 0
M  V30 6538 C 653.554 2.13647 -2.63075 0
M  V30 6539 C 652.727 1.92646 -3.92691 0
M  V30 6540 C 651.786 3.06205 -4.27931 0
M  V30 6541 O 650.812 2.78409 -4.96465 0
M  V30 6542 N 652.014 4.33072 -3.86561 0
M  V30 6543 H 654.779 0.359026 -2.97542 0
M  V30 6544 H 652.34 0.0486979 -1.61827 0
M  V30 6545 H 654.332 2.88641 -2.8367 0
M  V30 6546 H 652.902 2.5301 -1.83588 0
M  V30 6547 H 652.122 1.01754 -3.80841 0
M  V30 6548 H 653.41 1.75939 -4.77413 0
M  V30 6549 H 652.808 4.58526 -3.31316 0
M  V30 6550 H 651.365 5.04885 -4.12231 0
M  V30 6551 N 654.798 1.5699 0.138552 0
M  V30 6552 C 655.728 2.01933 1.17241 0
M  V30 6553 C 656.709 0.90033 1.44319 0
M  V30 6554 O 657.894 1.16872 1.55095 0
M  V30 6555 C 655.024 2.40711 2.50351 0
M  V30 6556 C 653.978 3.55874 2.37776 0
M  V30 6557 C 653.304 3.80491 3.75674 0
M  V30 6558 C 654.604 4.8826 1.85472 0
M  V30 6559 H 656.298 2.88551 0.798672 0
M  V30 6560 H 653.844 1.3882 0.382743 0
M  V30 6561 H 655.797 2.70754 3.22909 0
M  V30 6562 H 654.521 1.5104 2.89576 0
M  V30 6563 H 653.18 3.2601 1.67669 0
M  V30 6564 H 652.828 2.88057 4.12349 0
M  V30 6565 H 652.528 4.57998 3.68119 0
M  V30 6566 H 654.052 4.12967 4.49767 0
M  V30 6567 H 655.466 5.16965 2.4783 0
M  V30 6568 H 653.863 5.69631 1.88787 0
M  V30 6569 H 654.933 4.78071 0.810935 0
M  V30 6570 N 656.276 -0.40816 1.52223 0
M  V30 6571 C 657.224 -1.51788 1.76248 0
M  V30 6572 C 658.218 -1.57264 0.629638 0
M  V30 6573 O 659.424 -1.60659 0.811704 0
M  V30 6574 H 655.799 -0.504823 0.557367 0
M  V30 6575 H 657.77 -1.2871 2.69214 0
M  V30 6576 C 656.519 -2.89145 1.93107 0
M  V30 6577 H 655.842 -2.85674 2.79697 0
M  V30 6578 H 657.282 -3.66082 2.13916 0
M  V30 6579 C 655.741 -3.29581 0.698431 0
M  V30 6580 O 656.271 -4.01479 -0.133238 0
M  V30 6581 N 654.477 -2.85651 0.53405 0
M  V30 6582 H 654.024 -2.2731 1.21194 0
M  V30 6583 H 653.982 -3.13065 -0.289387 0
M  V30 6584 N 657.755 -1.42862 -0.66545 0
M  V30 6585 C 658.702 -1.4707 -1.77874 0
M  V30 6586 C 659.672 -0.321654 -1.62956 0
M  V30 6587 O 660.857 -0.52707 -1.83376 0
M  V30 6588 C 657.997 -1.38788 -3.15962 0
M  V30 6589 C 657.11 -2.63801 -3.42101 0
M  V30 6590 C 656.245 -2.47594 -4.69969 0
M  V30 6591 C 655.284 -3.67936 -4.89172 0
M  V30 6592 N 654.421 -3.50614 -6.08288 0
M  V30 6593 H 659.261 -2.42204 -1.73613 0
M  V30 6594 H 656.798 -1.20239 -0.847401 0
M  V30 6595 H 658.756 -1.31982 -3.95773 0
M  V30 6596 H 657.386 -0.472431 -3.19324 0
M  V30 6597 H 656.438 -2.80935 -2.56475 0
M  V30 6598 H 657.75 -3.53228 -3.52181 0
M  V30 6599 H 656.904 -2.38427 -5.57886 0
M  V30 6600 H 655.643 -1.55672 -4.62188 0
M  V30 6601 H 654.648 -3.77525 -3.99694 0
M  V30 6602 H 655.873 -4.60851 -4.98792 0
M  V30 6603 H 653.819 -2.61417 -6.01662 0
M  V30 6604 H 653.736 -4.33634 -6.19272 0
M  V30 6605 H 655.004 -3.45276 -6.98859 0
M  V30 6606 N 659.233 0.902656 -1.29189 0
M  V30 6607 C 660.461 1.68639 -1.19869 0
M  V30 6608 C 660.876 1.87254 0.241121 0
M  V30 6609 O 660.233 1.40745 1.16177 0
M  V30 6610 C 660.284 3.07251 -1.90471 0
M  V30 6611 O 660.005 2.89488 -3.28829 0
M  V30 6612 C 661.506 4.01653 -1.8759 0
M  V30 6613 H 658.726 0.526802 -0.415596 0
M  V30 6614 H 661.27 1.12901 -1.7051 0
M  V30 6615 H 659.425 3.59774 -1.43672 0
M  V30 6616 H 659.839 3.77296 -3.64346 0
M  V30 6617 H 661.313 4.96339 -2.4156 0
M  V30 6618 H 661.79 4.30881 -0.850756 0
M  V30 6619 H 662.396 3.55061 -2.34119 0
M  V30 6620 N 660.711 1.11618 1.11262 0
M  V30 6621 C 662.122 0.881942 1.64556 0
M  V30 6622 C 662.473 -0.585442 1.87262 0
M  V30 6623 O 661.598 -1.44795 1.60821 0
M  V30 6624 C 662.193 1.59446 2.98935 0
M  V30 6625 C 660.752 1.40661 3.4913 0
M  V30 6626 C 659.899 1.63593 2.23903 0
M  V30 6627 H 662.85 1.27217 0.94877 0
M  V30 6628 H 662.871 1.04054 3.65996 0
M  V30 6629 H 662.383 2.66241 2.82378 0
M  V30 6630 H 660.484 0.360835 3.70849 0
M  V30 6631 H 660.597 2.15693 4.27801 0
M  V30 6632 H 658.961 1.05944 2.3162 0
M  V30 6633 H 659.744 2.71666 2.09886 0
M  V30 6634 N 662.189 -1.289 0.906776 0
M  V30 6635 C 663.437 -1.94883 0.535266 0
M  V30 6636 C 663.758 -1.71784 -0.922791 0
M  V30 6637 O 663.028 -1.05359 -1.65156 0
M  V30 6638 H 661.608 -0.721109 0.194962 0
M  V30 6639 H 664.27 -1.57018 1.15461 0
M  V30 6640 H 663.366 -3.03591 0.723821 0
M  V30 6641 N 663.667 -0.670007 -1.42649 0
M  V30 6642 C 664.63 0.00204659 -2.292 0
M  V30 6643 C 665.63 0.733817 -1.4308 0
M  V30 6644 O 666.82 0.57254 -1.64522 0
M  V30 6645 C 663.952 1.01359 -3.25483 0
M  V30 6646 H 665.145 -0.759696 -2.90118 0
M  V30 6647 H 662.698 -0.432105 -1.50208 0
M  V30 6648 H 663.433 1.80399 -2.69493 0
M  V30 6649 H 663.218 0.492323 -3.88997 0
M  V30 6650 H 664.708 1.4824 -3.90403 0
M  V30 6651 N 665.145 1.52092 -0.413018 0
M  V30 6652 C 666.556 1.86617 0.0556967 0
M  V30 6653 C 666.907 1.33156 1.44097 0
M  V30 6654 O 666.032 0.672417 2.05688 0
M  V30 6655 C 666.627 3.38628 0.107844 0
M  V30 6656 C 665.186 3.72778 0.520904 0
M  V30 6657 C 664.333 2.75649 -0.302109 0
M  V30 6658 H 667.284 1.45663 -0.629919 0
M  V30 6659 H 667.305 3.69152 0.922324 0
M  V30 6660 H 666.817 3.77508 -0.900506 0
M  V30 6661 H 664.918 3.39478 1.53575 0
M  V30 6662 H 665.031 4.7838 0.262591 0
M  V30 6663 H 663.395 2.53603 0.236115 0
M  V30 6664 H 664.178 3.17369 -1.30888 0
M  V30 6665 N 666.623 0.143563 1.56945 0
M  V30 6666 C 667.533 -0.810562 2.20152 0
M  V30 6667 C 668.549 -1.27431 1.1848 0
M  V30 6668 O 669.725 -1.33221 1.51044 0
M  V30 6669 C 666.79 -2.03353 2.80799 0
M  V30 6670 C 665.851 -1.61936 3.97587 0
M  V30 6671 C 665.084 -2.78403 4.55332 0
M  V30 6672 O 665.307 -3.94521 4.11958 0
M  V30 6673 O 664.241 -2.54073 5.45647 0
M  V30 6674 H 668.067 -0.30253 3.02189 0
M  V30 6675 H 665.652 -0.0832925 1.49168 0
M  V30 6676 H 667.534 -2.74932 3.19359 0
M  V30 6677 H 666.209 -2.53116 2.01777 0
M  V30 6678 H 665.116 -0.873904 3.6375 0
M  V30 6679 H 666.449 -1.16892 4.78118 0
M  V30 6680 N 668.101 -1.57061 -0.130224 0
M  V30 6681 C 669.326 -1.88802 -0.858409 0
M  V30 6682 C 669.751 -0.734353 -1.73173 0
M  V30 6683 O 669.109 0.315529 -1.78533 0
M  V30 6684 C 669.157 -3.19228 -1.67708 0
M  V30 6685 O 668.261 -3.04343 -2.78297 0
M  V30 6686 H 667.602 -0.619849 -0.238083 0
M  V30 6687 H 670.132 -2.04271 -0.115995 0
M  V30 6688 H 670.142 -3.51669 -2.06864 0
M  V30 6689 H 668.817 -4.02793 -1.0359 0
M  V30 6690 H 667.394 -2.83346 -2.42425 0
M  V30 6691 N 669.579 0.400081 -1.52437 0
M  V30 6692 C 670.804 1.17221 -1.71096 0
M  V30 6693 C 671.229 1.83269 -0.423565 0
M  V30 6694 O 670.587 1.70378 0.619751 0
M  V30 6695 C 670.635 2.20425 -2.85386 0
M  V30 6696 O 669.739 3.26769 -2.51586 0
M  V30 6697 H 669.08 0.341766 -0.569291 0
M  V30 6698 H 671.61 0.467772 -1.99181 0
M  V30 6699 H 671.62 2.64605 -3.10561 0
M  V30 6700 H 670.295 1.71737 -3.78786 0
M  V30 6701 H 668.872 2.87804 -2.37114 0
M  V30 6702 N 671.057 1.43213 0.657864 0
M  V30 6703 C 672.02 1.47687 1.75275 0
M  V30 6704 C 673.02 0.362179 1.56668 0
M  V30 6705 O 674.21 0.623734 1.62651 0
M  V30 6706 C 671.342 1.32497 3.14098 0
M  V30 6707 H 672.535 2.4519 1.7269 0
M  V30 6708 H 670.088 1.2991 0.869087 0
M  V30 6709 H 670.823 0.359831 3.22298 0
M  V30 6710 H 670.608 2.13299 3.29008 0
M  V30 6711 H 672.098 1.38549 3.93946 0
M  V30 6712 N 672.536 -0.895792 1.29666 0
M  V30 6713 C 673.466 -2.01673 1.17688 0
M  V30 6714 C 674.447 -1.69955 0.0701317 0
M  V30 6715 O 675.632 -1.9258 0.250289 0
M  V30 6716 C 672.762 -3.36568 0.856681 0
M  V30 6717 C 671.716 -3.82509 1.92017 0
M  V30 6718 C 671.042 -5.14574 1.4532 0
M  V30 6719 C 672.342 -4.02409 3.32963 0
M  V30 6720 H 674.036 -2.11953 2.11463 0
M  V30 6721 H 671.582 -1.01839 1.01807 0
M  V30 6722 H 673.535 -4.14498 0.759577 0
M  V30 6723 H 672.259 -3.26391 -0.116763 0
M  V30 6724 H 670.918 -3.068 2.00673 0
M  V30 6725 H 670.566 -5.00815 0.468325 0
M  V30 6726 H 670.266 -5.46283 2.16447 0
M  V30 6727 H 671.79 -5.9504 1.36968 0
M  V30 6728 H 673.204 -4.70808 3.27127 0
M  V30 6729 H 671.601 -4.45478 4.02082 0
M  V30 6730 H 672.671 -3.06616 3.75652 0
M  V30 6731 N 674.014 -1.12206 -1.10668 0
M  V30 6732 C 674.946 -0.74552 -2.16736 0
M  V30 6733 C 675.959 0.226696 -1.61214 0
M  V30 6734 O 677.148 0.0083936 -1.78498 0
M  V30 6735 C 674.248 -0.0823368 -3.388 0
M  V30 6736 C 673.421 -1.08341 -4.2377 0
M  V30 6737 C 672.48 -0.448292 -5.24287 0
M  V30 6738 O 671.506 -1.10458 -5.58379 0
M  V30 6739 N 672.708 0.785336 -5.75163 0
M  V30 6740 H 675.473 -1.65818 -2.49649 0
M  V30 6741 H 673.034 -1.01335 -1.26265 0
M  V30 6742 H 675.026 0.354476 -4.03145 0
M  V30 6743 H 673.596 0.733041 -3.03884 0
M  V30 6744 H 672.816 -1.69792 -3.55759 0
M  V30 6745 H 674.104 -1.76042 -4.77375 0
M  V30 6746 H 673.502 1.33755 -5.4966 0
M  V30 6747 H 672.059 1.16501 -6.41304 0
M  V30 6748 N 675.492 1.28418 -0.913599 0
M  V30 6749 C 676.903 1.77024 -0.593237 0
M  V30 6750 C 677.254 1.74779 0.891441 0
M  V30 6751 O 676.379 1.34237 1.69733 0
M  V30 6752 C 676.974 3.21456 -1.07011 0
M  V30 6753 C 675.533 3.67786 -0.800664 0
M  V30 6754 C 674.68 2.48185 -1.23691 0
M  V30 6755 H 677.631 1.14883 -1.09487 0
M  V30 6756 H 677.652 3.78269 -0.411481 0
M  V30 6757 H 677.164 3.23058 -2.1507 0
M  V30 6758 H 675.265 3.71644 0.266725 0
M  V30 6759 H 675.378 4.57934 -1.4083 0
M  V30 6760 H 673.742 2.46116 -0.655655 0
M  V30 6761 H 674.525 2.52506 -2.32585 0
M  V30 6762 N 676.97 0.677563 1.42291 0
M  V30 6763 C 678.381 0.277912 1.8462 0
M  V30 6764 C 678.732 -1.18048 1.56714 0
M  V30 6765 O 677.857 -1.90404 1.02836 0
M  V30 6766 C 678.452 0.497619 3.35126 0
M  V30 6767 C 677.011 0.152063 3.76093 0
M  V30 6768 C 676.158 0.78872 2.65847 0
M  V30 6769 H 679.109 0.879527 1.32098 0
M  V30 6770 H 679.13 -0.24939 3.79682 0
M  V30 6771 H 678.642 1.55913 3.55405 0
M  V30 6772 H 676.743 -0.905896 3.6142 0
M  V30 6773 H 676.856 0.594514 4.75397 0
M  V30 6774 H 675.22 0.219813 2.5375 0
M  V30 6775 H 676.003 1.85374 2.88949 0
M  V30 6776 N 678.448 -1.51871 0.421078 0
M  V30 6777 C 679.859 -1.86644 -0.0457991 0
M  V30 6778 C 680.21 -1.33919 -1.43388 0
M  V30 6779 O 679.335 -0.683316 -2.05328 0
M  V30 6780 C 679.93 -3.38681 -0.0898844 0
M  V30 6781 C 678.489 -3.73049 -0.501127 0
M  V30 6782 C 677.636 -2.75485 0.316723 0
M  V30 6783 H 680.587 -1.45327 0.637635 0
M  V30 6784 H 680.608 -3.69636 -0.902734 0
M  V30 6785 H 680.12 -3.77025 0.920513 0
M  V30 6786 H 678.221 -3.40288 -1.51773 0
M  V30 6787 H 678.334 -4.78512 -0.237217 0
M  V30 6788 H 676.698 -2.53725 -0.222663 0
M  V30 6789 H 677.481 -3.16671 1.32569 0
M  V30 6790 N 679.926 -0.151884 -1.56866 0
M  V30 6791 C 680.858 0.817008 -2.14144 0
M  V30 6792 C 681.871 1.20735 -1.0921 0
M  V30 6793 O 683.06 1.15058 -1.36469 0
M  V30 6794 C 680.16 2.10844 -2.65326 0
M  V30 6795 C 679.333 1.88471 -3.94712 0
M  V30 6796 C 678.392 3.01649 -4.31155 0
M  V30 6797 O 677.418 2.73127 -4.9939 0
M  V30 6798 N 678.62 4.28947 -3.91132 0
M  V30 6799 H 681.385 0.327448 -2.97906 0
M  V30 6800 H 678.946 0.0315313 -1.61869 0
M  V30 6801 H 680.938 2.85616 -2.86715 0
M  V30 6802 H 679.508 2.51049 -1.86262 0
M  V30 6803 H 678.728 0.977088 -3.81899 0
M  V30 6804 H 680.016 1.70866 -4.79252 0
M  V30 6805 H 679.414 4.54986 -3.36161 0
M  V30 6806 H 677.971 5.00484 -4.17563 0
M  V30 6807 N 681.404 1.57128 0.121893 0
M  V30 6808 C 682.629 1.89254 0.848385 0
M  V30 6809 C 683.054 0.743527 1.72781 0
M  V30 6810 O 682.412 -0.306056 1.78698 0
M  V30 6811 C 682.46 3.20113 1.66012 0
M  V30 6812 O 681.564 3.05815 2.76679 0
M  V30 6813 H 680.905 0.621103 0.234793 0
M  V30 6814 H 683.435 2.0433 0.10516 0
M  V30 6815 H 683.445 3.52761 2.04996 0
M  V30 6816 H 682.12 4.03336 1.01452 0
M  V30 6817 H 680.697 2.84627 2.40918 0
M  V30 6818 N 682.882 -0.391992 1.52647 0
M  V30 6819 C 684.107 -1.16312 1.71716 0
M  V30 6820 C 684.532 -1.83042 0.433279 0
M  V30 6821 O 683.89 -1.70705 -0.610707 0
M  V30 6822 C 683.938 -2.18908 2.86551 0
M  V30 6823 O 683.042 -3.2543 2.53316 0
M  V30 6824 H 682.383 -0.338743 0.571095 0
M  V30 6825 H 684.913 -0.457202 1.99426 0
M  V30 6826 H 684.923 -2.62954 3.1196 0
M  V30 6827 H 683.598 -1.69726 3.79692 0
M  V30 6828 H 682.175 -2.86543 2.38637 0
M  V30 6829 N 684.36 -1.4356 -0.65026 0
M  V30 6830 C 685.27 -1.514 -1.79207 0
M  V30 6831 C 686.286 -0.400895 -1.69319 0
M  V30 6832 O 687.462 -0.655458 -1.90436 0
M  V30 6833 C 684.527 -1.43737 -3.155 0
M  V30 6834 C 683.588 -2.65743 -3.37163 0
M  V30 6835 C 682.821 -2.58436 -4.66954 0
M  V30 6836 O 683.044 -1.63374 -5.46503 0
M  V30 6837 O 681.978 -3.48984 -4.90402 0
M  V30 6838 H 685.804 -2.47825 -1.75547 0
M  V30 6839 H 683.389 -1.25594 -0.809111 0
M  V30 6840 H 685.271 -1.41916 -3.96784 0
M  V30 6841 H 683.946 -0.504488 -3.19745 0
M  V30 6842 H 682.853 -2.73136 -2.55632 0
M  V30 6843 H 684.186 -3.58014 -3.37768 0
M  V30 6844 N 685.838 0.888903 -1.30139 0
M  V30 6845 C 687.086 1.63713 -1.18501 0
M  V30 6846 C 687.407 1.9324 0.261399 0
M  V30 6847 O 686.677 1.56608 1.17689 0
M  V30 6848 H 685.257 0.606861 -0.435579 0
M  V30 6849 H 687.919 1.06525 -1.63213 0
M  V30 6850 H 687.015 2.58894 -1.743 0
M  V30 6851 N 687.317 1.12792 1.10072 0
M  V30 6852 C 688.247 0.821688 2.18565 0
M  V30 6853 C 689.228 -0.21612 1.68721 0
M  V30 6854 O 690.413 -0.0764932 1.94049 0
M  V30 6855 C 687.543 0.279624 3.46172 0
M  V30 6856 C 686.497 1.25092 4.09312 0
M  V30 6857 C 685.823 0.568916 5.31665 0
M  V30 6858 C 687.123 2.60699 4.52585 0
M  V30 6859 H 688.817 1.72888 2.44438 0
M  V30 6860 H 686.363 0.832702 1.17482 0
M  V30 6861 H 688.316 0.053099 4.21367 0
M  V30 6862 H 687.04 -0.662929 3.19801 0
M  V30 6863 H 685.699 1.46332 3.36129 0
M  V30 6864 H 685.347 -0.378898 5.01571 0
M  V30 6865 H 685.047 1.21687 5.74862 0
M  V30 6866 H 686.571 0.351517 6.09587 0
M  V30 6867 H 687.985 2.43465 5.19035 0
M  V30 6868 H 686.382 3.21608 5.06644 0
M  V30 6869 H 687.452 3.1886 3.65317 0
M  V30 6870 N 688.795 -1.27931 0.920396 0
M  V30 6871 C 690.041 -1.94977 0.557832 0
M  V30 6872 C 690.374 -1.72224 -0.897365 0
M  V30 6873 O 689.649 -1.04705 -1.63912 0
M  V30 6874 C 689.932 -3.49289 0.875741 0
M  V30 6875 C 689.785 -3.81416 2.38416 0
M  V30 6876 C 691.104 -4.38486 0.376517 0
M  V30 6877 H 688.223 -0.708164 0.20414 0
M  V30 6878 H 690.865 -1.5118 1.15085 0
M  V30 6879 H 689.015 -3.86724 0.371062 0
M  V30 6880 H 690.687 -3.53813 2.95997 0
M  V30 6881 H 688.93 -3.28225 2.83639 0
M  V30 6882 H 689.601 -4.89198 2.55713 0
M  V30 6883 H 692.077 -4.08161 0.808945 0
M  V30 6884 H 690.953 -5.45296 0.627976 0
M  V30 6885 H 691.214 -4.36143 -0.723293 0
M  V30 6886 N 690.273 -0.685099 -1.4193 0
M  V30 6887 C 691.521 -0.21124 -2.00993 0
M  V30 6888 C 691.842 1.18985 -1.54491 0
M  V30 6889 O 691.112 1.8009 -0.771 0
M  V30 6890 H 689.692 -0.0751059 -0.743215 0
M  V30 6891 H 692.354 -0.883915 -1.73704 0
M  V30 6892 H 691.45 -0.220513 -3.1132 0
M  V30 6893 N 691.751 1.51645 -0.429126 0
M  V30 6894 C 692.714 2.26116 0.374726 0
M  V30 6895 C 693.714 1.29242 0.956714 0
M  V30 6896 O 694.904 1.53022 0.832452 0
M  V30 6897 C 692.036 3.04669 1.52937 0
M  V30 6898 H 693.229 2.9861 -0.277818 0
M  V30 6899 H 690.782 1.55236 -0.182097 0
M  V30 6900 H 691.517 2.36571 2.21821 0
M  V30 6901 H 691.302 3.75814 1.11833 0
M  V30 6902 H 692.792 3.61102 2.09751 0
M  V30 6903 N 693.229 0.160201 1.56784 0
M  V30 6904 C 694.159 -0.770264 2.2043 0
M  V30 6905 C 695.14 -1.24736 1.15651 0
M  V30 6906 O 696.325 -1.30253 1.44041 0
M  V30 6907 C 693.455 -2.00427 2.83631 0
M  V30 6908 C 692.409 -1.66345 3.94352 0
M  V30 6909 C 691.735 -2.97119 4.4455 0
M  V30 6910 C 693.035 -0.899972 5.14488 0
M  V30 6911 H 694.729 -0.239783 2.98438 0
M  V30 6912 H 692.275 -0.113891 1.43549 0
M  V30 6913 H 694.228 -2.66012 3.26827 0
M  V30 6914 H 692.952 -2.5587 2.02973 0
M  V30 6915 H 691.611 -1.03133 3.51794 0
M  V30 6916 H 691.259 -3.5058 3.60698 0
M  V30 6917 H 690.959 -2.75073 5.19238 0
M  V30 6918 H 692.483 -3.63753 4.90425 0
M  V30 6919 H 693.897 -1.45818 5.54446 0
M  V30 6920 H 692.294 -0.778968 5.95023 0
M  V30 6921 H 693.364 0.105827 4.84785 0
M  V30 6922 N 694.707 -1.5719 -0.113559 0
M  V30 6923 C 695.64 -1.9595 -1.16957 0
M  V30 6924 C 696.618 -0.829951 -1.39823 0
M  V30 6925 O 697.802 -1.08861 -1.53888 0
M  V30 6926 C 694.929 -2.2604 -2.52237 0
M  V30 6927 C 693.975 -3.48571 -2.45765 0
M  V30 6928 S 694.808 -5.00962 -1.89203 0
M  V30 6929 C 695.964 -5.3421 -3.26145 0
M  V30 6930 H 696.197 -2.85214 -0.839069 0
M  V30 6931 H 693.73 -1.51036 -0.320529 0
M  V30 6932 H 695.688 -2.44054 -3.30073 0
M  V30 6933 H 694.349 -1.3738 -2.82463 0
M  V30 6934 H 693.542 -3.67008 -3.45429 0
M  V30 6935 H 693.144 -3.29972 -1.76053 0
M  V30 6936 H 695.436 -5.29725 -4.22371 0
M  V30 6937 H 696.379 -6.35398 -3.12529 0
M  V30 6938 H 696.787 -4.61681 -3.24825 0
M  V30 6939 N 696.185 0.383891 -1.52853 0
M  V30 6940 C 697.135 1.46892 -1.74375 0
M  V30 6941 C 698.119 1.49378 -0.597909 0
M  V30 6942 O 699.311 1.54929 -0.855929 0
M  V30 6943 C 696.44 2.84547 -1.92063 0
M  V30 6944 C 695.526 2.8661 -3.12594 0
M  V30 6945 N 695.917 2.58339 -4.3485 0
M  V30 6946 C 694.215 3.17777 -3.12944 0
M  V30 6947 C 694.916 2.67616 -5.16485 0
M  V30 6948 N 693.892 3.01561 -4.52285 0
M  V30 6949 H 697.694 1.23869 -2.66522 0
M  V30 6950 H 695.208 0.591895 -1.51229 0
M  V30 6951 H 697.205 3.62674 -2.05604 0
M  V30 6952 H 695.865 3.08549 -1.01133 0
M  V30 6953 H 696.876 2.32266 -4.62896 0
M  V30 6954 H 693.553 3.47211 -2.31842 0
M  V30 6955 H 694.943 2.4926 -6.23955 0
M  V30 6956 N 697.663 1.43903 0.642637 0
M  V30 6957 C 698.909 1.46296 1.40447 0
M  V30 6958 C 699.242 0.0908361 1.93987 0
M  V30 6959 O 698.517 -0.889884 1.72949 0
M  V30 6960 C 698.8 2.51399 2.57819 0
M  V30 6961 C 698.653 3.97926 2.09702 0
M  V30 6962 C 699.972 2.53125 3.60022 0
M  V30 6963 H 697.091 0.532676 0.509338 0
M  V30 6964 H 699.733 1.75515 0.727635 0
M  V30 6965 H 697.883 2.26614 3.1556 0
M  V30 6966 H 699.555 4.33804 1.5688 0
M  V30 6967 H 697.798 4.10252 1.40982 0
M  V30 6968 H 698.469 4.67096 2.94152 0
M  V30 6969 H 700.945 2.75242 3.12059 0
M  V30 6970 H 699.821 3.28589 4.39682 0
M  V30 6971 H 700.082 1.56895 4.13324 0
M  V30 6972 N 699.141 -0.881989 1.30609 0
M  V30 6973 C 700.074 -1.99066 1.11571 0
M  V30 6974 C 701.052 -1.62584 0.022516 0
M  V30 6975 O 702.236 -1.87671 0.176644 0
M  V30 6976 C 699.363 -3.3134 0.702237 0
M  V30 6977 C 698.409 -3.86807 1.79673 0
M  V30 6978 S 699.242 -4.13735 3.39976 0
M  V30 6979 C 700.398 -5.49024 3.00538 0
M  V30 6980 H 700.631 -2.1491 2.05429 0
M  V30 6981 H 698.164 -1.03074 1.14957 0
M  V30 6982 H 700.122 -4.07796 0.470415 0
M  V30 6983 H 698.783 -3.13349 -0.217034 0
M  V30 6984 H 697.976 -4.82397 1.45977 0
M  V30 6985 H 697.578 -3.17102 1.98298 0
M  V30 6986 H 699.87 -6.30208 2.48684 0
M  V30 6987 H 700.813 -5.8766 3.95046 0
M  V30 6988 H 701.221 -5.11726 2.3832 0
M  V30 6989 N 700.619 -1.13374 -1.09472 0
M  V30 6990 C 701.551 -0.768466 -2.15933 0
M  V30 6991 C 702.564 0.209585 -1.61445 0
M  V30 6992 O 703.753 -0.010539 -1.78497 0
M  V30 6993 C 700.853 -0.118266 -3.38694 0
M  V30 6994 C 700.026 -1.12829 -4.22597 0
M  V30 6995 C 699.085 -0.503875 -5.23782 0
M  V30 6996 O 698.111 -1.16374 -5.57177 0
M  V30 6997 N 699.313 0.724288 -5.75964 0
M  V30 6998 H 702.078 -1.68457 -2.47876 0
M  V30 6999 H 699.639 -1.02668 -1.25183 0
M  V30 7000 H 701.631 0.311698 -4.03498 0
M  V30 7001 H 700.201 0.700769 -3.04644 0
M  V30 7002 H 699.421 -1.73556 -3.53938 0
M  V30 7003 H 700.709 -1.81095 -4.75481 0
M  V30 7004 H 700.107 1.27918 -5.51048 0
M  V30 7005 H 698.664 1.09692 -6.42504 0
M  V30 7006 N 702.098 1.27442 -0.927168 0
M  V30 7007 C 703.045 2.26863 -0.424459 0
M  V30 7008 C 704.015 1.5813 0.508346 0
M  V30 7009 O 705.2 1.85946 0.42762 0
M  V30 7010 C 702.34 3.43639 0.31718 0
M  V30 7011 C 701.453 4.27087 -0.649675 0
M  V30 7012 C 700.588 5.31082 0.111753 0
M  V30 7013 C 699.627 6.062 -0.847843 0
M  V30 7014 N 698.764 7.01999 -0.119074 0
M  V30 7015 H 703.604 2.69239 -1.27728 0
M  V30 7016 H 701.141 1.32394 -0.641106 0
M  V30 7017 H 703.099 4.10155 0.763486 0
M  V30 7018 H 701.729 3.02217 1.13424 0
M  V30 7019 H 700.781 3.60491 -1.21451 0
M  V30 7020 H 702.093 4.79242 -1.38307 0
M  V30 7021 H 701.247 6.03544 0.618 0
M  V30 7022 H 699.986 4.7973 0.878114 0
M  V30 7023 H 698.991 5.32577 -1.36534 0
M  V30 7024 H 700.216 6.59642 -1.61398 0
M  V30 7025 H 698.162 6.52977 0.629051 0
M  V30 7026 H 698.079 7.5184 -0.792046 0
M  V30 7027 H 699.347 7.78638 0.366537 0
M  V30 7028 N 703.576 0.692616 1.41565 0
M  V30 7029 C 704.992 0.363878 1.55397 0
M  V30 7030 C 705.192 -1.1294 1.66874 0
M  V30 7031 O 704.248 -1.91517 1.64552 0
M  V30 7032 C 705.561 1.10982 2.7947 0
M  V30 7033 C 707.109 1.09387 2.93263 0
M  V30 7034 C 707.584 1.8215 4.20221 0
M  V30 7035 N 709.075 1.79105 4.27172 0
M  V30 7036 C 709.81 2.32247 5.2426 0
M  V30 7037 N 709.306 2.93847 6.27396 0
M  V30 7038 N 711.099 2.22519 5.1618 0
M  V30 7039 H 703.25 1.66116 1.3236 0
M  V30 7040 H 705.513 0.700848 0.63837 0
M  V30 7041 H 705.219 2.1647 2.77188 0
M  V30 7042 H 705.093 0.686492 3.709 0
M  V30 7043 H 707.48 0.0472638 2.95062 0
M  V30 7044 H 707.561 1.55623 2.03015 0
M  V30 7045 H 707.205 2.86789 4.19183 0
M  V30 7046 H 707.135 1.33351 5.09436 0
M  V30 7047 H 709.626 1.34191 3.53272 0
M  V30 7048 H 709.939 3.31972 6.97864 0
M  V30 7049 H 708.284 2.97924 6.27906 0
M  V30 7050 H 711.475 1.7407 4.34531 0
M  V30 7051 H 711.648 2.64239 5.91677 0
M  V30 7052 N 705.054 -1.51416 0.437162 0
M  V30 7053 C 706.279 -2.0699 -0.130424 0
M  V30 7054 C 706.704 -1.30249 -1.35709 0
M  V30 7055 O 706.062 -0.340388 -1.78076 0
M  V30 7056 C 706.11 -3.5801 -0.43142 0
M  V30 7057 O 705.214 -3.8345 -1.5179 0
M  V30 7058 H 704.555 -0.663997 -0.00194339 0
M  V30 7059 H 707.085 -1.95029 0.618445 0
M  V30 7060 H 707.095 -4.02261 -0.681926 0
M  V30 7061 H 705.77 -4.13291 0.465137 0
M  V30 7062 H 704.347 -3.51062 -1.25737 0
M  V30 7063 N 706.532 -0.168513 -1.56696 0
M  V30 7064 C 707.948 0.187686 -1.58493 0
M  V30 7065 C 708.148 1.63063 -1.18375 0
M  V30 7066 O 707.204 2.36142 -0.894042 0
M  V30 7067 C 708.517 -0.0905858 -3.00564 0
M  V30 7068 C 710.065 -0.028575 -3.12987 0
M  V30 7069 C 710.54 -0.279799 -4.57145 0
M  V30 7070 N 712.031 -0.227476 -4.62641 0
M  V30 7071 C 712.766 -0.396073 -5.7203 0
M  V30 7072 N 712.262 -0.623572 -6.89988 0
M  V30 7073 N 714.055 -0.332173 -5.61118 0
M  V30 7074 H 706.206 -1.11042 -1.81062 0
M  V30 7075 H 708.469 -0.441235 -0.839056 0
M  V30 7076 H 708.175 -1.09006 -3.34381 0
M  V30 7077 H 708.049 0.619078 -3.72085 0
M  V30 7078 H 710.436 0.961471 -2.78998 0
M  V30 7079 H 710.517 -0.770905 -2.43907 0
M  V30 7080 H 710.161 -1.26704 -4.91842 0
M  V30 7081 H 710.091 0.48311 -5.24379 0
M  V30 7082 H 712.582 -0.0571723 -3.77857 0
M  V30 7083 H 712.895 -0.741745 -7.69232 0
M  V30 7084 H 711.24 -0.660153 -6.91858 0
M  V30 7085 H 714.431 -0.155051 -4.67843 0
M  V30 7086 H 714.604 -0.466994 -6.46315 0
M  V30 7087 N 708.01 1.57248 0.105221 0
M  V30 7088 C 708.973 2.00388 1.11252 0
M  V30 7089 C 709.973 0.89594 1.33527 0
M  V30 7090 O 711.163 1.16166 1.29811 0
M  V30 7091 C 708.295 2.35589 2.46395 0
M  V30 7092 H 709.488 2.90591 0.741424 0
M  V30 7093 H 707.041 1.52332 0.349956 0
M  V30 7094 H 707.776 1.4831 2.884 0
M  V30 7095 H 707.561 3.16408 2.31578 0
M  V30 7096 H 709.051 2.69658 3.18864 0
M  V30 7097 N 709.488 -0.375779 1.53054 0
M  V30 7098 C 710.737 -1.11674 1.67964 0
M  V30 7099 C 711.05 -1.90755 0.432655 0
M  V30 7100 O 712.256 -2.67538 0.462109 0
M  V30 7101 C 710.712 -2.0344 2.96884 0
M  V30 7102 C 710.32 -1.29719 4.28809 0
M  V30 7103 C 712.064 -2.7759 3.2116 0
M  V30 7104 C 709.971 -2.20327 5.48826 0
M  V30 7105 H 708.901 -0.420597 0.625791 0
M  V30 7106 H 711.552 -0.378499 1.79554 0
M  V30 7107 H 709.934 -2.80953 2.79072 0
M  V30 7108 H 711.108 -0.573394 4.57219 0
M  V30 7109 H 709.423 -0.674735 4.10897 0
M  V30 7110 H 712.02 -3.4559 4.0801 0
M  V30 7111 H 712.363 -3.42399 2.36789 0
M  V30 7112 H 712.896 -2.07164 3.396 0
M  V30 7113 H 709.635 -1.60113 6.35645 0
M  V30 7114 H 709.155 -2.90585 5.2471 0
M  V30 7115 H 710.834 -2.80116 5.83219 0
M  V30 7116 N 710.966 -1.44241 -0.634997 0
M  V30 7117 C 711.916 -1.47247 -1.74076 0
M  V30 7118 C 712.9 -0.338708 -1.57295 0
M  V30 7119 O 714.092 -0.583751 -1.67097 0
M  V30 7120 C 711.221 -1.41579 -3.12746 0
M  V30 7121 C 710.307 -2.60055 -3.35011 0
M  V30 7122 N 710.698 -3.85321 -3.27661 0
M  V30 7123 C 708.996 -2.55168 -3.65794 0
M  V30 7124 C 709.697 -4.64241 -3.50508 0
M  V30 7125 N 708.673 -3.95254 -3.73196 0
M  V30 7126 H 712.475 -2.4195 -1.66845 0
M  V30 7127 H 709.989 -1.3915 -0.837326 0
M  V30 7128 H 711.986 -1.41816 -3.92038 0
M  V30 7129 H 710.646 -0.479108 -3.21146 0
M  V30 7130 H 711.657 -4.17345 -3.06665 0
M  V30 7131 H 708.334 -1.70276 -3.81198 0
M  V30 7132 H 709.724 -5.73267 -3.50449 0
M  V30 7133 N 712.444 0.87505 -1.31075 0
M  V30 7134 C 713.669 1.66583 -1.23551 0
M  V30 7135 C 714.094 1.87067 0.19686 0
M  V30 7136 O 713.452 1.40877 1.1412 0
M  V30 7137 C 713.5 3.01401 -1.97965 0
M  V30 7138 O 712.604 3.90923 -1.31351 0
M  V30 7139 H 711.945 0.508645 -0.426821 0
M  V30 7140 H 714.475 1.09139 -1.7306 0
M  V30 7141 H 714.485 3.51374 -2.07366 0
M  V30 7142 H 713.16 2.85812 -3.02133 0
M  V30 7143 H 711.737 3.49369 -1.30368 0
M  V30 7144 N 713.922 1.13953 1.08869 0
M  V30 7145 C 715.147 0.928559 1.85452 0
M  V30 7146 C 715.572 -0.517642 1.80837 0
M  V30 7147 O 714.93 -1.36779 1.19001 0
M  V30 7148 C 714.978 1.42814 3.31114 0
M  V30 7149 O 714.082 0.617129 4.07756 0
M  V30 7150 H 713.423 0.33235 0.574839 0
M  V30 7151 H 715.953 1.5156 1.37443 0
M  V30 7152 H 715.963 1.43425 3.8196 0
M  V30 7153 H 714.638 2.48109 3.33788 0
M  V30 7154 H 713.215 0.679365 3.66659 0
M  V30 7155 N 715.4 -1.26948 0.933913 0
M  V30 7156 C 716.677 -1.89212 0.495784 0
M  V30 7157 C 717.057 -1.84469 -1.02637 0
M  V30 7158 O 716.405 -1.29409 -1.88323 0
M  V30 7159 C 716.615 -3.32865 1.0489 0
M  V30 7160 C 717.963 -4.09749 1.11315 0
M  V30 7161 O 718.987 -3.41905 0.998966 0
M  V30 7162 O 717.846 -5.31061 1.28983 0
M  V30 7163 H 714.94 -0.811284 0.160459 0
M  V30 7164 H 717.486 -1.35171 1.02601 0
M  V30 7165 H 716.258 -3.30642 2.09265 0
M  V30 7166 H 715.881 -3.94435 0.500692 0
M  V30 7167 N 716.879 -0.700114 -1.41195 0
M  V30 7168 C 717.789 -0.0382854 -2.34569 0
M  V30 7169 C 718.805 0.761036 -1.56474 0
M  V30 7170 O 719.981 0.697553 -1.88934 0
M  V30 7171 C 717.046 0.883522 -3.35253 0
M  V30 7172 C 716.107 0.0758957 -4.29233 0
M  V30 7173 C 715.34 0.9538 -5.25108 0
M  V30 7174 O 715.563 2.19326 -5.26547 0
M  V30 7175 O 714.497 0.401049 -6.00562 0
M  V30 7176 H 718.323 -0.808073 -2.92752 0
M  V30 7177 H 715.908 -0.460479 -1.42127 0
M  V30 7178 H 717.79 1.41199 -3.9704 0
M  V30 7179 H 716.465 1.63272 -2.79506 0
M  V30 7180 H 715.372 -0.497274 -3.7078 0
M  V30 7181 H 716.705 -0.634741 -4.8809 0
M  V30 7182 N 718.357 1.51182 -0.445186 0
M  V30 7183 C 719.605 2.01753 0.11841 0
M  V30 7184 C 719.926 1.33087 1.42523 0
M  V30 7185 O 719.196 0.467891 1.9023 0
M  V30 7186 H 717.776 0.745536 0.0467492 0
M  V30 7187 H 720.438 1.85765 -0.589688 0
M  V30 7188 H 719.534 3.10762 0.288665 0
M  V30 7189 N 719.835 0.176821 1.56605 0
M  V30 7190 C 720.745 -0.763682 2.21822 0
M  V30 7191 C 721.761 -1.24889 1.21156 0
M  V30 7192 O 722.937 -1.29987 1.53836 0
M  V30 7193 C 720.002 -1.97352 2.8505 0
M  V30 7194 C 719.063 -1.53466 4.00932 0
M  V30 7195 C 718.296 -2.68682 4.61135 0
M  V30 7196 O 718.519 -3.85694 4.20234 0
M  V30 7197 O 717.453 -2.42442 5.50913 0
M  V30 7198 H 721.279 -0.238363 3.02763 0
M  V30 7199 H 718.864 -0.0516331 1.49311 0
M  V30 7200 H 720.746 -2.68096 3.25119 0
M  V30 7201 H 719.421 -2.48779 2.07101 0
M  V30 7202 H 718.328 -0.796551 3.65521 0
M  V30 7203 H 719.661 -1.06724 4.8049 0
M  V30 7204 N 721.313 -1.57302 -0.09688 0
M  V30 7205 C 722.59 -1.7701 -0.832272 0
M  V30 7206 C 722.97 -0.758025 -1.97021 0
M  V30 7207 O 722.318 0.213824 -2.27497 0
M  V30 7208 C 722.528 -3.22725 -1.32851 0
M  V30 7209 C 723.876 -3.85856 -1.772 0
M  V30 7210 O 724.9 -3.26464 -1.42478 0
M  V30 7211 O 723.759 -4.90295 -2.41398 0
M  V30 7212 H 720.853 -0.725558 -0.396856 0
M  V30 7213 H 723.399 -1.69516 -0.0789005 0
M  V30 7214 H 722.171 -3.87921 -0.51312 0
M  V30 7215 H 721.794 -3.34845 -2.14394 0
M  V30 7216 N 722.791 0.367657 -1.53252 0
M  V30 7217 C 723.723 1.47032 -1.75824 0
M  V30 7218 C 724.736 1.49736 -0.63898 0
M  V30 7219 O 725.925 1.53253 -0.915193 0
M  V30 7220 C 723.025 2.85805 -1.82122 0
M  V30 7221 C 722.198 3.06822 -3.11736 0
M  V30 7222 C 721.257 4.25698 -3.09302 0
M  V30 7223 O 720.283 4.20972 -3.83107 0
M  V30 7224 N 721.485 5.33002 -2.29977 0
M  V30 7225 H 724.25 1.28048 -2.70968 0
M  V30 7226 H 721.811 0.557363 -1.52004 0
M  V30 7227 H 723.803 3.63465 -1.77975 0
M  V30 7228 H 722.373 2.98046 -0.942716 0
M  V30 7229 H 721.593 2.1684 -3.29202 0
M  V30 7230 H 722.881 3.17731 -3.97397 0
M  V30 7231 H 722.279 5.39703 -1.69521 0
M  V30 7232 H 720.836 6.09247 -2.3165 0
M  V30 7233 N 724.269 1.44576 0.627338 0
M  V30 7234 C 725.232 1.51372 1.72102 0
M  V30 7235 C 726.232 0.395329 1.55865 0
M  V30 7236 O 727.422 0.658094 1.61291 0
M  V30 7237 C 724.554 1.39129 3.11217 0
M  V30 7238 H 725.747 2.48798 1.6745 0
M  V30 7239 H 723.3 1.31724 0.841336 0
M  V30 7240 H 724.035 0.428114 3.21462 0
M  V30 7241 H 723.82 2.20229 3.24409 0
M  V30 7242 H 725.31 1.46874 3.90919 0
M  V30 7243 N 725.747 -0.868086 1.31537 0
M  V30 7244 C 726.995 -1.61807 1.21091 0
M  V30 7245 C 727.316 -1.93631 -0.230623 0
M  V30 7246 O 726.586 -1.5846 -1.15183 0
M  V30 7247 H 725.166 -0.599854 0.445178 0
M  V30 7248 H 727.828 -1.03915 1.64887 0
M  V30 7249 H 726.924 -2.56088 1.78396 0
M  V30 7250 N 727.225 -1.14528 -1.08264 0
M  V30 7251 C 728.502 -0.825185 -1.77342 0
M  V30 7252 C 728.882 0.681037 -1.99813 0
M  V30 7253 O 728.23 1.62234 -1.60912 0
M  V30 7254 C 728.44 -1.62556 -3.08831 0
M  V30 7255 C 729.788 -1.82585 -3.83338 0
M  V30 7256 O 730.812 -1.59254 -3.18617 0
M  V30 7257 O 729.671 -2.21598 -4.99556 0
M  V30 7258 H 726.765 -0.302531 -0.769678 0
M  V30 7259 H 729.311 -1.25056 -1.14713 0
M  V30 7260 H 728.083 -2.64862 -2.88035 0
M  V30 7261 H 727.706 -1.1959 -3.79189 0
M  V30 7262 N 728.703 1.26451 -0.940633 0
M  V30 7263 C 729.613 2.30128 -0.455881 0
M  V30 7264 C 730.629 1.67536 0.469867 0
M  V30 7265 O 731.805 1.98344 0.349529 0
M  V30 7266 C 728.87 3.45634 0.271648 0
M  V30 7267 C 727.931 4.23709 -0.690594 0
M  V30 7268 C 727.164 5.337 0.00231047 0
M  V30 7269 O 727.387 5.57215 1.21935 0
M  V30 7270 O 726.321 5.98091 -0.676111 0
M  V30 7271 H 730.147 2.73655 -1.31707 0
M  V30 7272 H 727.732 1.3164 -0.706497 0
M  V30 7273 H 729.614 4.15853 0.681486 0
M  V30 7274 H 728.289 3.04138 1.10824 0
M  V30 7275 H 727.196 3.55974 -1.15037 0
M  V30 7276 H 728.529 4.68953 -1.49478 0
M  V30 7277 N 730.181 0.707592 1.40822 0
M  V30 7278 C 731.458 0.171172 1.9485 0
M  V30 7279 C 731.838 -1.32143 1.64625 0
M  V30 7280 O 731.186 -2.07372 0.959647 0
M  V30 7281 C 731.396 0.475334 3.45748 0
M  V30 7282 C 732.744 0.409625 4.22619 0
M  V30 7283 O 733.768 0.410934 3.53822 0
M  V30 7284 O 732.627 0.380185 5.45176 0
M  V30 7285 H 729.721 0.022015 0.826707 0
M  V30 7286 H 732.267 0.784577 1.50474 0
M  V30 7287 H 731.039 1.50801 3.61075 0
M  V30 7288 H 730.662 -0.168439 3.97243 0
M  V30 7289 N 731.66 -1.50943 0.453197 0
M  V30 7290 C 732.57 -2.31884 -0.355963 0
M  V30 7291 C 733.586 -1.41481 -1.01287 0
M  V30 7292 O 734.762 -1.74546 -1.00477 0
M  V30 7293 C 731.827 -3.15668 -1.43369 0
M  V30 7294 C 730.888 -4.2187 -0.795253 0
M  V30 7295 C 730.121 -5.0165 -1.82162 0
M  V30 7296 O 730.344 -4.82266 -3.04592 0
M  V30 7297 O 729.278 -5.85311 -1.40336 0
M  V30 7298 H 733.104 -3.02162 0.305248 0
M  V30 7299 H 730.689 -1.47839 0.215398 0
M  V30 7300 H 732.571 -3.67709 -2.05836 0
M  V30 7301 H 731.246 -2.48137 -2.07869 0
M  V30 7302 H 730.153 -3.73867 -0.132106 0
M  V30 7303 H 731.486 -4.9182 -0.193484 0
M  V30 7304 N 733.138 -0.185124 -1.56509 0
M  V30 7305 C 734.415 0.503348 -1.89013 0
M  V30 7306 C 734.795 1.80349 -1.09715 0
M  V30 7307 O 734.143 2.27665 -0.195203 0
M  V30 7308 C 734.353 0.731839 -3.41241 0
M  V30 7309 C 735.701 1.05568 -4.11267 0
M  V30 7310 O 736.725 0.819906 -3.46635 0
M  V30 7311 O 735.584 1.50116 -5.25478 0
M  V30 7312 H 732.678 0.261139 -0.784688 0
M  V30 7313 H 735.224 -0.224592 -1.68207 0
M  V30 7314 H 733.996 -0.18672 -3.90854 0
M  V30 7315 H 733.619 1.5126 -3.67704 0
M  V30 7316 N 734.616 1.57351 0.0885366 0
M  V30 7317 C 735.893 1.77449 0.822873 0
M  V30 7318 C 736.273 0.768463 1.96616 0
M  V30 7319 O 735.621 -0.201757 2.27608 0
M  V30 7320 C 735.831 3.23425 1.31137 0
M  V30 7321 C 737.179 3.86791 1.75152 0
M  V30 7322 O 738.203 3.27215 1.40745 0
M  V30 7323 O 737.062 4.91568 2.38794 0
M  V30 7324 H 734.156 0.727653 0.393002 0
M  V30 7325 H 736.702 1.69556 0.0699095 0
M  V30 7326 H 735.474 3.88188 0.49254 0
M  V30 7327 H 735.097 3.35977 2.12615 0
M  V30 7328 N 736.094 -0.359525 1.53444 0
M  V30 7329 C 737.004 -1.46445 1.83278 0
M  V30 7330 C 738.02 -1.5833 0.721629 0
M  V30 7331 O 739.196 -1.7411 1.01231 0
M  V30 7332 C 736.261 -2.81638 2.02191 0
M  V30 7333 C 735.322 -2.7923 3.26082 0
M  V30 7334 C 734.555 -4.07974 3.44082 0
M  V30 7335 O 734.778 -5.04447 2.66251 0
M  V30 7336 O 733.712 -4.13417 4.37458 0
M  V30 7337 H 737.538 -1.24156 2.77162 0
M  V30 7338 H 735.123 -0.550201 1.389 0
M  V30 7339 H 737.005 -3.61732 2.16167 0
M  V30 7340 H 735.68 -3.03892 1.11496 0
M  V30 7341 H 734.587 -1.97813 3.17523 0
M  V30 7342 H 735.92 -2.6193 4.16718 0
M  V30 7343 N 737.572 -1.44907 -0.619662 0
M  V30 7344 C 738.818 -1.49504 -1.37914 0
M  V30 7345 C 739.173 -0.130158 -1.91959 0
M  V30 7346 O 738.466 0.856263 -1.71402 0
M  V30 7347 C 738.66 -2.50002 -2.55409 0
M  V30 7348 C 738.489 -3.96128 -2.12867 0
M  V30 7349 C 737.259 -4.64204 -1.99606 0
M  V30 7350 C 739.457 -4.85014 -1.71074 0
M  V30 7351 N 737.439 -5.95104 -1.50748 0
M  V30 7352 C 738.81 -6.05447 -1.33544 0
M  V30 7353 C 740.865 -4.71979 -1.58557 0
M  V30 7354 C 739.568 -7.1429 -0.847484 0
M  V30 7355 C 741.594 -5.80858 -1.11165 0
M  V30 7356 C 740.956 -7.00439 -0.745932 0
M  V30 7357 H 737.055 -0.60207 -0.499034 0
M  V30 7358 H 739.639 -1.81305 -0.70968 0
M  V30 7359 H 737.81 -2.20172 -3.19967 0
M  V30 7360 H 739.542 -2.44823 -3.22248 0
M  V30 7361 H 736.297 -4.19182 -2.20417 0
M  V30 7362 H 736.721 -6.64676 -1.28585 0
M  V30 7363 H 741.363 -3.79953 -1.85461 0
M  V30 7364 H 739.081 -8.06116 -0.565974 0
M  V30 7365 H 742.667 -5.72803 -1.01923 0
M  V30 7366 H 741.547 -7.83255 -0.384848 0
M  V30 7367 N 739.05 0.861098 -1.31996 0
M  V30 7368 C 740.327 1.59788 -1.12814 0
M  V30 7369 C 740.707 2.08753 0.313882 0
M  V30 7370 O 740.055 1.87258 1.30946 0
M  V30 7371 C 740.265 2.74901 -2.15012 0
M  V30 7372 C 741.613 3.44643 -2.48004 0
M  V30 7373 O 742.637 2.85119 -2.13508 0
M  V30 7374 O 741.496 4.52044 -3.07113 0
M  V30 7375 H 738.59 0.703408 -0.434909 0
M  V30 7376 H 741.136 0.905788 -1.43505 0
M  V30 7377 H 739.908 2.36198 -3.11971 0
M  V30 7378 H 739.531 3.51792 -1.85279 0
M  V30 7379 N 740.528 1.15101 1.07655 0
M  V30 7380 C 741.805 0.834578 1.76902 0
M  V30 7381 C 742.185 -0.670431 2.00171 0
M  V30 7382 O 741.533 -1.61378 1.6177 0
M  V30 7383 C 741.743 1.64191 3.07965 0
M  V30 7384 C 743.091 1.84615 3.82364 0
M  V30 7385 O 744.115 1.60941 3.17768 0
M  V30 7386 O 742.974 2.24244 4.98374 0
M  V30 7387 H 740.068 0.306608 0.768063 0
M  V30 7388 H 742.614 1.25663 1.14048 0
M  V30 7389 H 741.386 2.66386 2.86626 0
M  V30 7390 H 741.009 1.216 3.78549 0
M  V30 7391 O 742.045 -1.2028 1.07773 0
M  V30 7392 H 742.736 -1.77907 0.76608 0
M  V30 END ATOM
M  V30 BEGIN BOND
M  V30 END BOND
M  V30 END CTAB
M  END
$$$$
