drugbank_target|P42858 Huntingtin (DB09130)
 OpenBabel12092121063D

  0  0  0     0  0            999 V3000
M  V30 BEGIN CTAB
M  V30 COUNTS 49031 49528 0 0 0
M  V30 BEGIN ATOM
M  V30 1 H -0.908 1.98254 -0.117106 0
M  V30 2 N 0 1.576 0 0
M  V30 3 C 0.933 2.03868 1.02534 0
M  V30 4 C 1.911 0.928543 1.3348 0
M  V30 5 O 3.095 1.19667 1.45644 0
M  V30 6 C 0.222 2.43627 2.35294 0
M  V30 7 C -0.732 3.65373 2.2001 0
M  V30 8 S 0.101 5.13292 1.52614 0
M  V30 9 C 1.257 5.56322 2.86805 0
M  V30 10 H 1.49 2.90518 0.631377 0
M  V30 11 H -0.977 1.52953 0.210867 0
M  V30 12 H 0.981 2.67203 3.11629 0
M  V30 13 H -0.358 1.57376 2.7183 0
M  V30 14 H -1.165 3.90944 3.18086 0
M  V30 15 H -1.563 3.418 1.51819 0
M  V30 16 H 0.729 5.58782 3.83104 0
M  V30 17 H 1.672 6.56266 2.65933 0
M  V30 18 H 2.08 4.83886 2.90714 0
M  V30 19 N 1.4781 -0.272755 1.55222 0
M  V30 20 C 2.4411 -1.32041 1.87344 0
M  V30 21 C 3.4411 -1.42342 0.74803 0
M  V30 22 O 4.6311 -1.41488 1.0162 0
M  V30 23 C 1.7631 -2.70173 2.07893 0
M  V30 24 H 2.9561 -1.04789 2.80997 0
M  V30 25 H 0.5091 -0.51083 1.47717 0
M  V30 26 H 1.2441 -3.02605 1.16622 0
M  V30 27 H 1.0291 -2.64082 2.89833 0
M  V30 28 H 2.5191 -3.45869 2.34017 0
M  V30 29 N 2.9562 -1.48159 -0.537278 0
M  V30 30 C 4.1842 -1.59454 -1.31841 0
M  V30 31 C 4.5992 -0.252065 -1.8711 0
M  V30 32 O 3.9562 0.757621 -1.66031 0
M  V30 33 C 4.0072 -2.63546 -2.47439 0
M  V30 34 O 3.7282 -3.92583 -1.94449 0
M  V30 35 C 5.2292 -2.85212 -3.39366 0
M  V30 36 H 2.4492 -0.53785 -0.401196 0
M  V30 37 H 4.9932 -1.93932 -0.648891 0
M  V30 38 H 3.1482 -2.31946 -3.1029 0
M  V30 39 H 3.5622 -4.49629 -2.70063 0
M  V30 40 H 5.0362 -3.61863 -4.16844 0
M  V30 41 H 5.5132 -1.93765 -3.94147 0
M  V30 42 H 6.1192 -3.18086 -2.82314 0
M  V30 43 N 4.4343 0.785586 -1.36625 0
M  V30 44 C 5.3643 1.91259 -1.33949 0
M  V30 45 C 6.3453 1.68795 -0.210325 0
M  V30 46 O 7.5303 1.89854 -0.408561 0
M  V30 47 C 4.6603 3.28339 -1.13186 0
M  V30 48 C 3.6143 3.65335 -2.22967 0
M  V30 49 C 2.9403 5.00806 -1.87342 0
M  V30 50 C 4.2403 3.7352 -3.65075 0
M  V30 51 H 5.9343 1.93755 -2.28253 0
M  V30 52 H 3.4803 0.930788 -1.09874 0
M  V30 53 H 5.4333 4.06804 -1.09948 0
M  V30 54 H 4.1573 3.2624 -0.153332 0
M  V30 55 H 2.8163 2.89169 -2.25337 0
M  V30 56 H 2.4643 4.95233 -0.880545 0
M  V30 57 H 2.1643 5.26529 -2.60846 0
M  V30 58 H 3.6883 5.81687 -1.85667 0
M  V30 59 H 5.1023 4.42168 -3.64911 0
M  V30 60 H 3.4993 4.10731 -4.37516 0
M  V30 61 H 4.5693 2.74527 -3.99703 0
M  V30 62 N 5.9124 1.20967 1.01018 0
M  V30 63 C 6.8224 0.980157 2.13143 0
M  V30 64 C 7.8384 -0.0660665 1.73875 0
M  V30 65 O 9.0144 0.122821 2.01025 0
M  V30 66 C 6.0794 0.54216 3.42435 0
M  V30 67 C 5.1404 1.65999 3.95908 0
M  V30 68 C 4.3734 1.2428 5.19028 0
M  V30 69 O 4.5964 0.114196 5.70286 0
M  V30 70 O 3.5304 2.05271 5.65816 0
M  V30 71 H 7.3564 1.91913 2.35379 0
M  V30 72 H 4.9414 0.994099 1.11526 0
M  V30 73 H 6.8234 0.30744 4.20277 0
M  V30 74 H 5.4984 -0.36815 3.216 0
M  V30 75 H 4.4054 1.94906 3.19316 0
M  V30 76 H 5.7384 2.54753 4.21143 0
M  V30 77 N 7.3905 -1.2043 1.01659 0
M  V30 78 C 8.3375 -2.23215 0.586822 0
M  V30 79 C 9.3075 -1.61382 -0.393085 0
M  V30 80 O 10.4925 -1.88544 -0.292525 0
M  V30 81 C 7.6325 -3.45032 -0.0687464 0
M  V30 82 C 6.7455 -4.21296 0.955724 0
M  V30 83 C 5.8805 -5.30507 0.271208 0
M  V30 84 C 4.9195 -5.98515 1.28244 0
M  V30 85 N 4.0565 -6.99316 0.62459 0
M  V30 86 H 8.8965 -2.59336 1.46796 0
M  V30 87 H 6.4335 -1.27431 0.734836 0
M  V30 88 H 8.3915 -4.1459 -0.465965 0
M  V30 89 H 7.0215 -3.09604 -0.913529 0
M  V30 90 H 6.0735 -3.50803 1.4711 0
M  V30 91 H 7.3855 -4.6803 1.72479 0
M  V30 92 H 6.5395 -6.06428 -0.18151 0
M  V30 93 H 5.2785 -4.8481 -0.530163 0
M  V30 94 H 4.2835 -5.21355 1.74554 0
M  V30 95 H 5.5085 -6.46298 2.08509 0
M  V30 96 H 3.4545 -6.55812 -0.156914 0
M  V30 97 H 3.3715 -7.44178 1.33172 0
M  V30 98 H 4.6395 -7.79255 0.195462 0
M  V30 99 N 8.8686 -0.792821 -1.36206 0
M  V30 100 C 9.7986 -0.207853 -2.32573 0
M  V30 101 C 10.7796 0.659055 -1.56813 0
M  V30 102 O 11.9646 0.592176 -1.84951 0
M  V30 103 C 9.0946 0.655449 -3.41059 0
M  V30 104 C 8.0486 -0.111842 -4.27854 0
M  V30 105 C 7.3746 0.872274 -5.27537 0
M  V30 106 C 8.6746 -1.30299 -5.05786 0
M  V30 107 H 10.3686 -1.01294 -2.81744 0
M  V30 108 H 7.9146 -0.48854 -1.3546 0
M  V30 109 H 9.8676 1.07464 -4.07467 0
M  V30 110 H 8.5916 1.49328 -2.90463 0
M  V30 111 H 7.2506 -0.512053 -3.63006 0
M  V30 112 H 6.8986 1.70523 -4.73214 0
M  V30 113 H 6.5986 0.363291 -5.86476 0
M  V30 114 H 8.1226 1.28996 -5.96818 0
M  V30 115 H 9.5366 -0.959379 -5.65216 0
M  V30 116 H 7.9336 -1.7455 -5.74154 0
M  V30 117 H 9.0036 -2.09663 -4.37229 0
M  V30 118 N 10.3467 1.47872 -0.545128 0
M  V30 119 C 11.2797 2.2675 0.256885 0
M  V30 120 C 12.2577 1.33293 0.931228 0
M  V30 121 O 13.4417 1.62657 0.95262 0
M  V30 122 C 10.5687 3.09976 1.36501 0
M  V30 123 C 9.6147 4.1892 0.800496 0
M  V30 124 S 10.4477 5.34397 -0.343505 0
M  V30 125 C 11.6037 6.21186 0.766733 0
M  V30 126 H 11.8367 2.94425 -0.412479 0
M  V30 127 H 9.3697 1.50806 -0.331204 0
M  V30 128 H 11.3277 3.585 1.9997 0
M  V30 129 H 9.9887 2.41686 2.00616 0
M  V30 130 H 9.1817 4.76836 1.63227 0
M  V30 131 H 8.7837 3.73215 0.242217 0
M  V30 132 H 11.0757 6.56804 1.66178 0
M  V30 133 H 12.0187 7.07742 0.225204 0
M  V30 134 H 12.4267 5.54574 1.05396 0
M  V30 135 N 11.8248 0.280983 1.55075 0
M  V30 136 C 12.7718 -0.603937 2.22758 0
M  V30 137 C 13.7418 -1.1452 1.20309 0
M  V30 138 O 14.9268 -1.19343 1.48869 0
M  V30 139 C 12.0668 -1.77947 2.95684 0
M  V30 140 C 11.1798 -1.2715 4.12864 0
M  V30 141 C 10.3148 -2.4093 4.7342 0
M  V30 142 C 9.3538 -1.87165 5.82783 0
M  V30 143 N 8.4908 -2.94441 6.37377 0
M  V30 144 H 13.3308 -0.020124 2.97993 0
M  V30 145 H 10.8678 0.00183425 1.471 0
M  V30 146 H 12.8258 -2.47055 3.36184 0
M  V30 147 H 11.4558 -2.33522 2.22861 0
M  V30 148 H 10.5078 -0.473331 3.77444 0
M  V30 149 H 11.8198 -0.837751 4.91715 0
M  V30 150 H 10.9738 -3.18021 5.1667 0
M  V30 151 H 9.7128 -2.87623 3.93859 0
M  V30 152 H 8.7178 -1.08556 5.38976 0
M  V30 153 H 9.9428 -1.41401 6.64216 0
M  V30 154 H 7.8888 -3.40505 5.60707 0
M  V30 155 H 7.8058 -2.55501 7.11516 0
M  V30 156 H 9.0738 -3.71489 6.85285 0
M  V30 157 N 13.3029 -1.57598 0.00835791 0
M  V30 158 C 14.2659 -2.07884 -0.965242 0
M  V30 159 C 15.2659 -0.989825 -1.26725 0
M  V30 160 O 16.4559 -1.25218 -1.21104 0
M  V30 161 C 13.5879 -2.52731 -2.28779 0
M  V30 162 H 14.7809 -2.95178 -0.530112 0
M  V30 163 H 12.3339 -1.54458 -0.239283 0
M  V30 164 H 13.0689 -1.68705 -2.76964 0
M  V30 165 H 12.8539 -3.32272 -2.08177 0
M  V30 166 H 14.3439 -2.91933 -2.98605 0
M  V30 167 N 14.781 0.264519 -1.55364 0
M  V30 168 C 16.028 0.994986 -1.7637 0
M  V30 169 C 16.356 1.85976 -0.5695 0
M  V30 170 O 15.611 1.90509 0.44776 0
M  V30 171 C 15.91 1.9004 -3.02687 0
M  V30 172 C 15.576 1.19243 -4.34847 0
M  V30 173 C 14.238 0.996709 -4.70764 0
M  V30 174 C 16.59 0.689296 -5.16622 0
M  V30 175 C 13.918 0.285261 -5.86006 0
M  V30 176 C 16.27 -0.00860079 -6.32599 0
M  V30 177 C 14.934 -0.215963 -6.67151 0
M  V30 178 H 14.204 0.364091 -0.645383 0
M  V30 179 H 16.851 0.266543 -1.89636 0
M  V30 180 H 15.156 2.69533 -2.84357 0
M  V30 181 H 16.853 2.46695 -3.16137 0
M  V30 182 H 13.443 1.3549 -4.06621 0
M  V30 183 H 17.627 0.828108 -4.89342 0
M  V30 184 H 12.883 0.113961 -6.11294 0
M  V30 185 H 17.057 -0.406186 -6.95214 0
M  V30 186 H 14.684 -0.769217 -7.56298 0
M  V30 187 N 16.2591 1.48442 0.529413 0
M  V30 188 C 17.1691 1.6569 1.66084 0
M  V30 189 C 18.1851 0.539432 1.65427 0
M  V30 190 O 19.3611 0.810572 1.84368 0
M  V30 191 C 16.4261 1.69315 3.02545 0
M  V30 192 C 15.4871 2.92694 3.14052 0
M  V30 193 C 14.7201 2.96137 4.44003 0
M  V30 194 O 14.9431 2.07973 5.31134 0
M  V30 195 O 13.8771 3.88312 4.59888 0
M  V30 196 H 17.7031 2.61483 1.54469 0
M  V30 197 H 15.2881 1.3185 0.702567 0
M  V30 198 H 17.1701 1.74217 3.83701 0
M  V30 199 H 15.8451 0.766966 3.14483 0
M  V30 200 H 14.7521 2.93324 2.32189 0
M  V30 201 H 16.0851 3.84699 3.0703 0
M  V30 202 N 17.7372 -0.778329 1.37039 0
M  V30 203 C 18.9622 -1.57248 1.35233 0
M  V30 204 C 19.3872 -1.87999 -0.0615568 0
M  V30 205 O 18.7452 -1.48734 -1.03672 0
M  V30 206 C 18.7932 -2.86353 2.19167 0
M  V30 207 O 17.8972 -3.80442 1.59178 0
M  V30 208 H 17.2382 -0.476569 0.462362 0
M  V30 209 H 19.7682 -0.963853 1.80474 0
M  V30 210 H 19.7782 -3.35519 2.32145 0
M  V30 211 H 18.4532 -2.63299 3.21942 0
M  V30 212 H 17.0302 -3.39067 1.55203 0
M  V30 213 N 19.2153 -1.21501 -1.00376 0
M  V30 214 C 20.1453 -0.999478 -2.11028 0
M  V30 215 C 21.1263 0.0759671 -1.6993 0
M  V30 216 O 22.3113 -0.0841106 -1.94018 0
M  V30 217 C 19.4413 -0.564709 -3.42678 0
M  V30 218 C 18.3953 -1.58486 -3.97576 0
M  V30 219 C 17.7213 -1.00628 -5.25146 0
M  V30 220 C 19.0213 -2.97204 -4.29496 0
M  V30 221 H 20.7153 -1.92495 -2.29317 0
M  V30 222 H 18.2613 -0.92693 -1.102 0
M  V30 223 H 20.2143 -0.401091 -4.19487 0
M  V30 224 H 18.9383 0.396411 -3.24185 0
M  V30 225 H 17.5973 -1.73606 -3.22888 0
M  V30 226 H 17.2453 -0.0368439 -5.02987 0
M  V30 227 H 16.9453 -1.68771 -5.62841 0
M  V30 228 H 18.4693 -0.854015 -6.04598 0
M  V30 229 H 19.8833 -2.8552 -4.97143 0
M  V30 230 H 18.2803 -3.62372 -4.78338 0
M  V30 231 H 19.3503 -3.47956 -3.3772 0
M  V30 232 N 20.6934 1.19889 -1.02296 0
M  V30 233 C 21.6404 2.22901 -0.598651 0
M  V30 234 C 22.6104 1.61588 0.384521 0
M  V30 235 O 23.7954 1.88697 0.282522 0
M  V30 236 C 20.9354 3.45063 0.0504476 0
M  V30 237 C 20.0484 4.20783 -0.978053 0
M  V30 238 C 19.1834 5.30356 -0.299338 0
M  V30 239 C 18.2224 5.97826 -1.31416 0
M  V30 240 N 17.3594 6.98975 -0.661667 0
M  V30 241 H 22.1994 2.58554 -1.48169 0
M  V30 242 H 19.7364 1.27039 -0.741584 0
M  V30 243 H 21.6944 4.14831 0.443971 0
M  V30 244 H 20.3244 3.10084 0.897097 0
M  V30 245 H 19.3764 3.50018 -1.48969 0
M  V30 246 H 20.6884 4.67109 -1.74958 0
M  V30 247 H 19.8424 6.06516 0.149347 0
M  V30 248 H 18.5814 4.85084 0.504445 0
M  V30 249 H 17.5864 5.20422 -1.77317 0
M  V30 250 H 18.8114 6.45183 -2.11933 0
M  V30 251 H 16.7574 6.55886 0.122132 0
M  V30 252 H 16.6744 7.43461 -1.37117 0
M  V30 253 H 17.9424 7.7914 -0.236785 0
M  V30 254 N 22.1715 0.800033 1.35784 0
M  V30 255 C 23.3965 0.388511 2.03729 0
M  V30 256 C 23.8215 -0.990481 1.5991 0
M  V30 257 O 23.1795 -1.64013 0.772612 0
M  V30 258 C 23.2275 0.4726 3.5749 0
M  V30 259 O 22.3315 -0.51646 4.09153 0
M  V30 260 H 21.6725 0.163271 0.643614 0
M  V30 261 H 24.2025 1.0841 1.73518 0
M  V30 262 H 24.2125 0.34003 4.06581 0
M  V30 263 H 22.8875 1.47848 3.88734 0
M  V30 264 H 21.4645 -0.344673 3.71304 0
M  V30 265 N 23.6496 -1.47581 0.552962 0
M  V30 266 C 24.8966 -2.02482 0.0273243 0
M  V30 267 C 25.2246 -1.42776 -1.32081 0
M  V30 268 O 24.4796 -0.571393 -1.87173 0
M  V30 269 C 24.7786 -3.57199 -0.119728 0
M  V30 270 C 24.4446 -4.35804 1.15697 0
M  V30 271 C 23.1066 -4.57 1.50681 0
M  V30 272 C 25.4586 -4.81167 2.00319 0
M  V30 273 C 22.7866 -5.20807 2.70142 0
M  V30 274 C 25.1386 -5.46293 3.18978 0
M  V30 275 C 23.8026 -5.65722 3.54281 0
M  V30 276 H 23.0726 -0.740933 0.00999866 0
M  V30 277 H 25.7196 -1.77302 0.72362 0
M  V30 278 H 24.0246 -3.81348 -0.89896 0
M  V30 279 H 25.7216 -3.97324 -0.541718 0
M  V30 280 H 22.3116 -4.19582 0.874561 0
M  V30 281 H 26.4956 -4.64574 1.74599 0
M  V30 282 H 21.7516 -5.34045 2.97668 0
M  V30 283 H 25.9256 -5.80407 3.84838 0
M  V30 284 H 23.5526 -6.14936 4.46942 0
M  V30 285 N 25.1277 -0.289203 -1.54924 0
M  V30 286 C 26.0597 0.625583 -2.20497 0
M  V30 287 C 27.0727 1.10667 -1.19402 0
M  V30 288 O 28.2617 1.02615 -1.46056 0
M  V30 289 C 25.3617 1.86702 -2.82835 0
M  V30 290 C 24.5347 1.5304 -4.09753 0
M  V30 291 C 23.5937 2.62576 -4.56005 0
M  V30 292 O 22.6197 2.28167 -5.21468 0
M  V30 293 N 23.8217 3.92901 -4.27328 0
M  V30 294 H 26.5867 0.0642801 -2.99631 0
M  V30 295 H 24.1477 -0.110896 -1.6152 0
M  V30 296 H 26.1397 2.59304 -3.10715 0
M  V30 297 H 24.7097 2.33702 -2.07611 0
M  V30 298 H 23.9297 0.637564 -3.8901 0
M  V30 299 H 25.2177 1.28072 -4.92418 0
M  V30 300 H 24.6157 4.23671 -3.74859 0
M  V30 301 H 23.1727 4.61837 -4.59946 0
M  V30 302 N 26.6058 1.57591 -0.0167156 0
M  V30 303 C 27.5378 2.06343 0.997753 0
M  V30 304 C 28.5508 0.984469 1.29661 0
M  V30 305 O 29.7398 1.26093 1.26344 0
M  V30 306 C 26.8398 2.46255 2.32834 0
M  V30 307 C 26.0128 3.77083 2.21646 0
M  V30 308 C 25.0718 4.0368 3.37534 0
M  V30 309 O 24.0978 4.7411 3.14973 0
M  V30 310 N 25.2998 3.52881 4.60929 0
M  V30 311 H 28.0648 2.93997 0.581875 0
M  V30 312 H 25.6258 1.61002 0.170316 0
M  V30 313 H 27.6178 2.61149 3.09166 0
M  V30 314 H 26.1878 1.64032 2.66106 0
M  V30 315 H 25.4078 3.72106 1.30119 0
M  V30 316 H 26.6958 4.62822 2.11361 0
M  V30 317 H 26.0938 2.95878 4.82154 0
M  V30 318 H 24.6508 3.73076 5.34469 0
M  V30 319 N 28.0839 -0.256276 1.55502 0
M  V30 320 C 29.0159 -1.33981 1.85962 0
M  V30 321 C 30.0289 -1.44743 0.745212 0
M  V30 322 O 31.2179 -1.4626 1.02324 0
M  V30 323 C 28.3179 -2.7194 2.02242 0
M  V30 324 C 27.4909 -2.83562 3.33033 0
M  V30 325 C 26.5499 -4.02304 3.39172 0
M  V30 326 O 25.5759 -3.92273 4.12444 0
M  V30 327 N 26.7779 -5.15045 2.67784 0
M  V30 328 H 29.5429 -1.08191 2.7949 0
M  V30 329 H 27.1039 -0.446388 1.55624 0
M  V30 330 H 29.0959 -3.49697 2.03701 0
M  V30 331 H 27.6659 -2.90479 1.15502 0
M  V30 332 H 26.8859 -1.92555 3.43971 0
M  V30 333 H 28.1739 -2.88271 4.19258 0
M  V30 334 H 27.5719 -5.26085 2.07968 0
M  V30 335 H 26.1289 -5.90972 2.74947 0
M  V30 336 N 29.562 -1.4872 -0.521534 0
M  V30 337 C 30.494 -1.59968 -1.64143 0
M  V30 338 C 31.507 -0.483463 -1.55456 0
M  V30 339 O 32.696 -0.75467 -1.61762 0
M  V30 340 C 29.796 -1.52127 -3.02838 0
M  V30 341 C 28.969 -2.78932 -3.36921 0
M  V30 342 C 28.028 -2.64428 -4.54933 0
M  V30 343 O 27.054 -3.38331 -4.57735 0
M  V30 344 N 28.256 -1.74606 -5.53618 0
M  V30 345 H 31.021 -2.56548 -1.54929 0
M  V30 346 H 28.582 -1.45551 -0.708988 0
M  V30 347 H 30.574 -1.40106 -3.79674 0
M  V30 348 H 29.144 -0.634868 -3.06085 0
M  V30 349 H 28.364 -3.05455 -2.4918 0
M  V30 350 H 29.652 -3.63041 -3.56481 0
M  V30 351 H 29.05 -1.13782 -5.54139 0
M  V30 352 H 27.607 -1.6852 -6.29638 0
M  V30 353 N 31.0401 0.771051 -1.3745 0
M  V30 354 C 31.9721 1.89352 -1.29146 0
M  V30 355 C 32.9851 1.61477 -0.207124 0
M  V30 356 O 34.1741 1.72382 -0.463324 0
M  V30 357 C 31.2741 3.24596 -0.974195 0
M  V30 358 C 30.4471 3.80111 -2.16413 0
M  V30 359 C 29.5061 4.93832 -1.81703 0
M  V30 360 O 28.5321 5.09382 -2.54006 0
M  V30 361 N 29.7341 5.75483 -0.761573 0
M  V30 362 H 32.4991 1.96991 -2.25864 0
M  V30 363 H 30.0601 0.950191 -1.31084 0
M  V30 364 H 32.0521 3.98193 -0.722828 0
M  V30 365 H 30.6221 3.12454 -0.0955527 0
M  V30 366 H 29.8421 2.98284 -2.57721 0
M  V30 367 H 31.1301 4.13932 -2.95867 0
M  V30 368 H 30.5281 5.65469 -0.161609 0
M  V30 369 H 29.0851 6.49302 -0.570064 0
M  V30 370 N 32.5182 1.22032 0.997298 0
M  V30 371 C 33.4502 0.944263 2.08845 0
M  V30 372 C 34.4632 -0.0754663 1.62625 0
M  V30 373 O 35.6522 0.157994 1.77799 0
M  V30 374 C 32.7522 0.397723 3.36558 0
M  V30 375 C 31.9252 1.47362 4.11829 0
M  V30 376 C 30.9842 0.934951 5.17827 0
M  V30 377 O 30.0102 1.62016 5.45655 0
M  V30 378 N 31.2122 -0.245895 5.79979 0
M  V30 379 H 33.9772 1.88363 2.33109 0
M  V30 380 H 31.5382 1.12661 1.16272 0
M  V30 381 H 33.5302 0.0227771 4.04694 0
M  V30 382 H 32.1002 -0.446646 3.09393 0
M  V30 383 H 31.3202 2.02208 3.38386 0
M  V30 384 H 32.6082 2.19764 4.58891 0
M  V30 385 H 32.0062 -0.819475 5.59733 0
M  V30 386 H 30.5632 -0.562272 6.4937 0
M  V30 387 N 33.9963 -1.19345 1.0293 0
M  V30 388 C 34.9283 -2.22036 0.56857 0
M  V30 389 C 35.9413 -1.58865 -0.355779 0
M  V30 390 O 37.1303 -1.77851 -0.152103 0
M  V30 391 C 34.2303 -3.38363 -0.190752 0
M  V30 392 C 33.4033 -4.31118 0.738643 0
M  V30 393 C 32.4623 -5.26194 0.0246497 0
M  V30 394 O 31.4883 -5.65461 0.651354 0
M  V30 395 N 32.6903 -5.66971 -1.24594 0
M  V30 396 H 35.4553 -2.6219 1.45177 0
M  V30 397 H 33.0163 -1.34015 0.908381 0
M  V30 398 H 35.0083 -3.98981 -0.677961 0
M  V30 399 H 33.5783 -2.96994 -0.975366 0
M  V30 400 H 32.7983 -3.68276 1.40593 0
M  V30 401 H 34.0863 -4.90001 1.37029 0
M  V30 402 H 33.4843 -5.37104 -1.77583 0
M  V30 403 H 32.0413 -6.2984 -1.67764 0
M  V30 404 N 35.4744 -0.807222 -1.35358 0
M  V30 405 C 36.4064 -0.175717 -2.28525 0
M  V30 406 C 37.4194 0.625354 -1.5031 0
M  V30 407 O 38.6084 0.457611 -1.72535 0
M  V30 408 C 35.7084 0.773471 -3.29956 0
M  V30 409 C 34.8814 0.0186296 -4.37396 0
M  V30 410 C 33.9404 0.886395 -5.18681 0
M  V30 411 O 32.9664 0.337106 -5.68201 0
M  V30 412 N 34.1684 2.20839 -5.36852 0
M  V30 413 H 36.9334 -0.976091 -2.83359 0
M  V30 414 H 34.4944 -0.662737 -1.47714 0
M  V30 415 H 36.4864 1.35824 -3.81227 0
M  V30 416 H 35.0564 1.47465 -2.75632 0
M  V30 417 H 34.2764 -0.747349 -3.87051 0
M  V30 418 H 35.5644 -0.501577 -5.06322 0
M  V30 419 H 34.9624 2.67858 -4.98265 0
M  V30 420 H 33.5194 2.74237 -5.91301 0
M  V30 421 N 36.9525 1.47285 -0.560781 0
M  V30 422 C 37.8845 2.28118 0.222438 0
M  V30 423 C 38.8975 1.37219 0.876056 0
M  V30 424 O 40.0865 1.62011 0.749307 0
M  V30 425 C 37.1865 3.1159 1.33285 0
M  V30 426 C 36.3595 4.30473 0.77534 0
M  V30 427 C 35.4185 4.95513 1.77069 0
M  V30 428 O 34.4445 5.53792 1.31539 0
M  V30 429 N 35.6465 4.90531 3.10418 0
M  V30 430 H 38.4115 2.95976 -0.470958 0
M  V30 431 H 35.9725 1.56955 -0.39709 0
M  V30 432 H 37.9645 3.51967 1.99752 0
M  V30 433 H 36.5345 2.45951 1.92943 0
M  V30 434 H 35.7545 3.94144 -0.0662113 0
M  V30 435 H 37.0425 5.07362 0.382272 0
M  V30 436 H 36.4405 4.44389 3.5005 0
M  V30 437 H 34.9975 5.34917 3.72434 0
M  V30 438 N 38.4306 0.297415 1.54768 0
M  V30 439 C 39.3626 -0.613881 2.20826 0
M  V30 440 C 40.3756 -1.10032 1.19987 0
M  V30 441 O 41.5646 -1.01839 1.46598 0
M  V30 442 C 38.6646 -1.852 2.83821 0
M  V30 443 C 37.8376 -1.50865 4.10559 0
M  V30 444 C 36.8966 -2.60154 4.57391 0
M  V30 445 O 35.9226 -2.25398 5.2267 0
M  V30 446 N 37.1246 -3.90629 4.29406 0
M  V30 447 H 39.8896 -0.048389 2.99661 0
M  V30 448 H 37.4506 0.11946 1.61459 0
M  V30 449 H 39.4426 -2.57652 3.12086 0
M  V30 450 H 38.0126 -2.32597 2.08847 0
M  V30 451 H 37.2326 -0.616925 3.89343 0
M  V30 452 H 38.5206 -1.25458 4.9309 0
M  V30 453 H 37.9186 -4.21677 3.77101 0
M  V30 454 H 36.4756 -4.59391 4.62388 0
M  V30 455 N 39.9087 -1.5758 0.0250728 0
M  V30 456 C 40.8407 -2.06869 -0.986796 0
M  V30 457 C 41.8537 -0.991332 -1.29137 0
M  V30 458 O 43.0427 -1.26761 -1.25674 0
M  V30 459 C 40.1427 -2.47486 -2.31525 0
M  V30 460 C 39.3157 -3.78253 -2.19643 0
M  V30 461 C 38.3747 -4.05464 -3.35388 0
M  V30 462 O 37.4007 -4.75774 -3.12454 0
M  V30 463 N 38.6027 -3.55321 -4.59051 0
M  V30 464 H 41.3677 -2.94302 -0.566276 0
M  V30 465 H 38.9287 -1.6109 -0.161776 0
M  V30 466 H 40.9207 -2.62785 -3.07776 0
M  V30 467 H 39.4907 -1.65441 -2.65232 0
M  V30 468 H 38.7107 -3.7279 -1.28144 0
M  V30 469 H 39.9987 -4.63936 -2.08903 0
M  V30 470 H 39.3967 -2.98431 -4.80578 0
M  V30 471 H 37.9537 -3.75905 -5.32483 0
M  V30 472 N 41.3868 0.248026 -1.55636 0
M  V30 473 C 42.3188 1.32993 -1.8667 0
M  V30 474 C 43.3318 1.44345 -0.752877 0
M  V30 475 O 44.5208 1.45715 -1.03098 0
M  V30 476 C 41.6208 2.70863 -2.03682 0
M  V30 477 C 40.7938 2.81792 -3.34532 0
M  V30 478 C 39.8528 4.005 -3.41301 0
M  V30 479 O 38.8788 3.9008 -4.14519 0
M  V30 480 N 40.0808 5.13618 -2.70512 0
M  V30 481 H 42.8458 1.06707 -2.8006 0
M  V30 482 H 40.4068 0.438129 -1.55859 0
M  V30 483 H 42.3988 3.48612 -2.05553 0
M  V30 484 H 40.9688 2.89862 -1.17041 0
M  V30 485 H 40.1888 1.90729 -3.44987 0
M  V30 486 H 41.4768 2.86043 -4.20781 0
M  V30 487 H 40.8748 5.24975 -2.10755 0
M  V30 488 H 39.4318 5.89505 -2.78077 0
M  V30 489 N 42.8649 1.48995 0.513639 0
M  V30 490 C 43.7969 1.60836 1.63293 0
M  V30 491 C 44.8099 0.491701 1.55197 0
M  V30 492 O 45.9989 0.763238 1.6136 0
M  V30 493 C 43.0989 1.53731 3.02027 0
M  V30 494 C 42.2719 2.80715 3.35437 0
M  V30 495 C 41.3309 2.66837 4.53525 0
M  V30 496 O 40.3569 3.40753 4.55934 0
M  V30 497 N 41.5589 1.77539 5.52684 0
M  V30 498 H 44.3239 2.57366 1.53566 0
M  V30 499 H 41.8849 1.45925 0.701259 0
M  V30 500 H 43.8769 1.42118 3.78926 0
M  V30 501 H 42.4469 0.651092 3.05744 0
M  V30 502 H 41.6669 3.06772 2.47557 0
M  V30 503 H 42.9549 3.64927 3.54551 0
M  V30 504 H 42.3529 1.16719 5.53528 0
M  V30 505 H 40.9099 1.71856 6.28736 0
M  V30 506 N 44.343 -0.763751 1.37857 0
M  V30 507 C 45.275 -1.88664 1.30148 0
M  V30 508 C 46.288 -1.61365 0.215685 0
M  V30 509 O 47.477 -1.72134 0.472459 0
M  V30 510 C 44.577 -3.24075 0.991396 0
M  V30 511 C 43.75 -3.78958 2.18426 0
M  V30 512 C 42.809 -4.92862 1.8432 0
M  V30 513 O 41.835 -5.08027 2.56704 0
M  V30 514 N 43.037 -5.75071 0.792081 0
M  V30 515 H 45.802 -1.95791 2.26905 0
M  V30 516 H 43.363 -0.943226 1.31586 0
M  V30 517 H 45.355 -3.97804 0.743935 0
M  V30 518 H 43.925 -3.12399 0.112122 0
M  V30 519 H 43.145 -2.96913 2.59299 0
M  V30 520 H 44.433 -4.12357 2.98058 0
M  V30 521 H 43.831 -5.65375 0.191595 0
M  V30 522 H 42.388 -6.48991 0.60449 0
M  V30 523 N 45.8211 -1.22559 -0.990812 0
M  V30 524 C 46.7531 -0.955325 -2.08342 0
M  V30 525 C 47.7661 0.0668408 -1.62663 0
M  V30 526 O 48.9551 -0.167421 -1.77713 0
M  V30 527 C 46.0551 -0.415566 -3.36342 0
M  V30 528 C 45.2281 -1.49544 -4.11042 0
M  V30 529 C 44.2871 -0.962399 -5.17324 0
M  V30 530 O 43.3131 -1.64907 -5.44788 0
M  V30 531 N 44.5151 0.215134 -5.80101 0
M  V30 532 H 47.2801 -1.89596 -2.32106 0
M  V30 533 H 44.8411 -1.13276 -1.15673 0
M  V30 534 H 46.8331 -0.0442386 -4.04676 0
M  V30 535 H 45.4031 0.430232 -3.09625 0
M  V30 536 H 44.6231 -2.04 -3.37309 0
M  V30 537 H 45.9111 -2.22195 -4.57719 0
M  V30 538 H 45.3091 0.789779 -5.6016 0
M  V30 539 H 43.8661 0.527826 -6.49659 0
M  V30 540 N 47.2992 1.18797 -1.03562 0
M  V30 541 C 48.2312 2.21731 -0.580337 0
M  V30 542 C 49.2442 1.59051 0.347349 0
M  V30 543 O 50.4332 1.77929 0.142669 0
M  V30 544 C 47.5332 3.38459 0.172805 0
M  V30 545 C 46.7062 4.3072 -0.761496 0
M  V30 546 C 45.7652 5.26174 -0.0525547 0
M  V30 547 O 44.7912 5.65108 -0.681333 0
M  V30 548 N 45.9932 5.67624 1.21586 0
M  V30 549 H 48.7582 2.61417 -1.46565 0
M  V30 550 H 46.3192 1.33531 -0.915476 0
M  V30 551 H 48.3112 3.99335 0.656793 0
M  V30 552 H 46.8812 2.97507 0.959602 0
M  V30 553 H 46.1012 3.67525 -1.42544 0
M  V30 554 H 47.3892 4.89267 -1.39626 0
M  V30 555 H 46.7872 5.38038 1.74732 0
M  V30 556 H 45.3442 6.30721 1.64421 0
M  V30 557 N 48.7773 0.814389 1.34928 0
M  V30 558 C 49.7093 0.187834 2.28429 0
M  V30 559 C 50.7223 -0.617374 1.5064 0
M  V30 560 O 51.9113 -0.448454 1.72775 0
M  V30 561 C 49.0113 -0.755962 3.30361 0
M  V30 562 C 48.1843 0.00456686 4.374 0
M  V30 563 C 47.2433 -0.858876 5.19143 0
M  V30 564 O 46.2693 -0.306968 5.68372 0
M  V30 565 N 47.4713 -2.17988 5.38016 0
M  V30 566 H 50.2363 0.991105 2.82838 0
M  V30 567 H 47.7973 0.670561 1.4736 0
M  V30 568 H 49.7893 -1.338 3.81942 0
M  V30 569 H 48.3593 -1.46001 2.7641 0
M  V30 570 H 47.5793 0.767865 3.86649 0
M  V30 571 H 48.8673 0.528422 5.06049 0
M  V30 572 H 48.2653 -2.65212 4.99679 0
M  V30 573 H 46.8223 -2.71098 5.92747 0
M  V30 574 N 50.2554 -1.46986 0.568584 0
M  V30 575 C 51.1874 -2.28233 -0.210337 0
M  V30 576 C 52.2004 -1.37682 -0.868767 0
M  V30 577 O 53.3894 -1.62406 -0.740705 0
M  V30 578 C 50.4894 -3.12293 -1.3163 0
M  V30 579 C 49.6624 -4.30878 -0.7525 0
M  V30 580 C 48.7214 -4.96445 -1.74439 0
M  V30 581 O 47.7474 -5.54482 -1.286 0
M  V30 582 N 48.9494 -4.92171 -3.07812 0
M  V30 583 H 51.7144 -2.95723 0.486648 0
M  V30 584 H 49.2754 -1.56742 0.405409 0
M  V30 585 H 51.2674 -3.53022 -1.97883 0
M  V30 586 H 49.8374 -2.46971 -1.91636 0
M  V30 587 H 49.0574 -3.94104 0.0871128 0
M  V30 588 H 50.3454 -5.07558 -0.35536 0
M  V30 589 H 49.7434 -4.46239 -3.47688 0
M  V30 590 H 48.3004 -5.36884 -3.69592 0
M  V30 591 N 51.7335 -0.305618 -1.54608 0
M  V30 592 C 52.6655 0.602161 -2.21149 0
M  V30 593 C 53.6785 1.09394 -1.20569 0
M  V30 594 O 54.8675 1.0106 -1.47136 0
M  V30 595 C 51.9675 1.83692 -2.84799 0
M  V30 596 C 51.1405 1.48686 -4.11353 0
M  V30 597 C 50.1995 2.57725 -4.58764 0
M  V30 598 O 49.2255 2.22623 -5.23858 0
M  V30 599 N 50.4275 3.88346 -4.31471 0
M  V30 600 H 53.1925 0.0324966 -2.99682 0
M  V30 601 H 50.7535 -0.128021 -1.61393 0
M  V30 602 H 52.7455 2.55994 -3.13448 0
M  V30 603 H 51.3155 2.31486 -2.10078 0
M  V30 604 H 50.5355 0.596269 -3.89664 0
M  V30 605 H 51.8235 1.22842 -4.93748 0
M  V30 606 H 51.2215 4.19671 -3.79331 0
M  V30 607 H 49.7785 4.56932 -4.64818 0
M  V30 608 N 53.2116 1.57565 -0.0334293 0
M  V30 609 C 54.1436 2.0739 0.975811 0
M  V30 610 C 55.1566 0.998166 1.2861 0
M  V30 611 O 56.3456 1.27426 1.25 0
M  V30 612 C 53.4456 2.4871 2.30209 0
M  V30 613 C 52.6186 3.79413 2.17634 0
M  V30 614 C 51.6776 4.07237 3.33233 0
M  V30 615 O 50.7036 4.77425 3.09927 0
M  V30 616 N 51.9056 3.5775 4.5716 0
M  V30 617 H 54.6706 2.94598 0.55066 0
M  V30 618 H 52.2316 1.61173 0.15323 0
M  V30 619 H 54.2236 2.64413 3.06378 0
M  V30 620 H 52.7936 1.66845 2.64351 0
M  V30 621 H 52.0136 3.73465 1.26165 0
M  V30 622 H 53.3016 4.65038 2.0644 0
M  V30 623 H 52.6996 3.00976 4.78989 0
M  V30 624 H 51.2566 3.78724 5.30482 0
M  V30 625 N 54.6897 -0.239769 1.55765 0
M  V30 626 C 55.6217 -1.32001 1.87372 0
M  V30 627 C 56.6347 -1.43944 0.760522 0
M  V30 628 O 57.8237 -1.45167 1.0387 0
M  V30 629 C 54.9237 -2.69779 2.05115 0
M  V30 630 C 54.0967 -2.80014 3.36022 0
M  V30 631 C 53.1557 -3.98684 3.4342 0
M  V30 632 O 52.1817 -3.87877 4.16582 0
M  V30 633 N 53.3837 -5.12176 2.73232 0
M  V30 634 H 56.1487 -1.0522 2.80622 0
M  V30 635 H 53.7097 -0.429857 1.56089 0
M  V30 636 H 55.7017 -3.47517 2.07399 0
M  V30 637 H 54.2717 -2.89237 1.18577 0
M  V30 638 H 53.4917 -1.88896 3.45994 0
M  V30 639 H 54.7797 -2.83808 4.22292 0
M  V30 640 H 54.1777 -5.2385 2.13536 0
M  V30 641 H 52.7347 -5.88022 2.81199 0
M  V30 642 N 56.1678 -1.49265 -0.50573 0
M  V30 643 C 57.5788 -1.51769 -1.08734 0
M  V30 644 C 57.9298 -0.301192 -1.93874 0
M  V30 645 O 57.0548 0.589456 -2.08217 0
M  V30 646 C 57.6498 -2.75017 -1.97867 0
M  V30 647 C 56.2088 -2.80314 -2.51199 0
M  V30 648 C 55.3558 -2.4562 -1.28709 0
M  V30 649 H 58.3068 -1.56031 -0.289855 0
M  V30 650 H 58.3278 -2.5491 -2.82491 0
M  V30 651 H 57.8398 -3.63539 -1.35873 0
M  V30 652 H 55.9408 -1.96061 -3.16845 0
M  V30 653 H 56.0538 -3.82366 -2.88675 0
M  V30 654 H 54.4178 -1.97297 -1.61078 0
M  V30 655 H 55.2008 -3.36411 -0.6843 0
M  V30 656 N 57.6459 0.756429 -1.3826 0
M  V30 657 C 59.0569 1.33359 -1.30661 0
M  V30 658 C 59.4079 1.96161 0.0388875 0
M  V30 659 O 58.5329 1.94874 0.940918 0
M  V30 660 C 59.1279 2.42477 -2.36622 0
M  V30 661 C 57.6869 2.95922 -2.3261 0
M  V30 662 C 56.8339 1.69275 -2.19639 0
M  V30 663 H 59.7849 0.55552 -1.4866 0
M  V30 664 H 59.8059 3.22345 -2.02174 0
M  V30 665 H 59.3179 1.96739 -3.34538 0
M  V30 666 H 57.4189 3.45996 -1.38267 0
M  V30 667 H 57.5319 3.50494 -3.26636 0
M  V30 668 H 55.8959 1.92793 -1.66442 0
M  V30 669 H 56.6789 1.25619 -3.19491 0
M  V30 670 N 59.124 1.23083 0.984299 0
M  V30 671 C 60.535 1.05609 1.5396 0
M  V30 672 C 60.886 -0.377793 1.92528 0
M  V30 673 O 60.011 -1.26398 1.75649 0
M  V30 674 C 60.606 1.91087 2.7977 0
M  V30 675 C 59.165 1.77885 3.31713 0
M  V30 676 C 58.312 1.87028 2.04733 0
M  V30 677 H 61.263 1.36802 0.804419 0
M  V30 678 H 61.284 1.43336 3.5247 0
M  V30 679 H 60.796 2.9544 2.51668 0
M  V30 680 H 58.897 0.762995 3.64704 0
M  V30 681 H 59.01 2.61047 4.01735 0
M  V30 682 H 57.374 1.30565 2.18689 0
M  V30 683 H 58.157 2.92929 1.79017 0
M  V30 684 N 60.6021 -1.18246 1.0419 0
M  V30 685 C 62.0131 -1.69914 0.773698 0
M  V30 686 C 62.3641 -1.83085 -0.705297 0
M  V30 687 O 61.4891 -1.51123 -1.5489 0
M  V30 688 C 62.0841 -3.08619 1.39784 0
M  V30 689 C 60.6431 -3.57494 1.17792 0
M  V30 690 C 59.7901 -2.34013 1.48773 0
M  V30 691 H 62.7411 -1.02904 1.20816 0
M  V30 692 H 62.7621 -3.71958 0.801714 0
M  V30 693 H 62.2741 -2.99001 2.47426 0
M  V30 694 H 60.3751 -3.72406 0.120295 0
M  V30 695 H 60.4881 -4.40852 1.87581 0
M  V30 696 H 58.8521 -2.37986 0.907463 0
M  V30 697 H 59.6351 -2.27013 2.57527 0
M  V30 698 N 62.0802 -0.821533 -1.34494 0
M  V30 699 C 63.4912 -0.467956 -1.8074 0
M  V30 700 C 63.8422 1.01151 -1.68116 0
M  V30 701 O 62.9672 1.78707 -1.22036 0
M  V30 702 C 63.5622 -0.842627 -3.28154 0
M  V30 703 C 62.1212 -0.541439 -3.72485 0
M  V30 704 C 61.2682 -1.06028 -2.56229 0
M  V30 705 H 64.2192 -1.01183 -1.22261 0
M  V30 706 H 64.2402 -0.145876 -3.8022 0
M  V30 707 H 63.7522 -1.91945 -3.37311 0
M  V30 708 H 61.8532 0.526034 -3.68868 0
M  V30 709 H 61.9662 -1.08453 -4.66663 0
M  V30 710 H 60.3302 -0.481892 -2.501 0
M  V30 711 H 61.1132 -2.14352 -2.68157 0
M  V30 712 N 63.5583 1.46682 -0.576371 0
M  V30 713 C 64.9693 1.86112 -0.148091 0
M  V30 714 C 65.3203 1.48073 1.2872 0
M  V30 715 O 64.4453 0.892656 1.97131 0
M  V30 716 C 65.0403 3.37786 -0.261982 0
M  V30 717 C 63.5993 3.76235 0.111384 0
M  V30 718 C 62.7463 2.70713 -0.60083 0
M  V30 719 H 65.6973 1.37927 -0.78497 0
M  V30 720 H 65.7183 3.77007 0.514364 0
M  V30 721 H 65.2303 3.6544 -1.30671 0
M  V30 722 H 63.3313 3.54198 1.15649 0
M  V30 723 H 63.4443 4.78391 -0.26052 0
M  V30 724 H 61.8083 2.54666 -0.0417783 0
M  V30 725 H 62.5913 3.01208 -1.64708 0
M  V30 726 N 65.0364 0.313813 1.54444 0
M  V30 727 C 66.4474 -0.176243 1.85866 0
M  V30 728 C 66.7984 -1.52405 1.23561 0
M  V30 729 O 65.9234 -2.09605 0.538016 0
M  V30 730 C 66.5184 -0.32657 3.37222 0
M  V30 731 C 65.0774 -0.760846 3.6863 0
M  V30 732 C 64.2244 0.123247 2.77026 0
M  V30 733 H 67.1754 0.534418 1.49431 0
M  V30 734 H 67.1964 -1.15908 3.62416 0
M  V30 735 H 66.7084 0.654531 3.82541 0
M  V30 736 H 64.8094 -1.75204 3.28838 0
M  V30 737 H 64.9224 -0.571353 4.75681 0
M  V30 738 H 63.2864 -0.399597 2.51546 0
M  V30 739 H 64.0694 1.10094 3.25168 0
M  V30 740 N 66.5145 -1.57545 0.0417849 0
M  V30 741 C 67.9255 -1.80011 -0.495259 0
M  V30 742 C 68.2765 -0.953199 -1.71489 0
M  V30 743 O 67.4015 -0.167138 -2.15754 0
M  V30 744 C 67.9965 -3.26482 -0.905265 0
M  V30 745 C 66.5555 -3.499 -1.38734 0
M  V30 746 C 65.7025 -2.74979 -0.358056 0
M  V30 747 H 68.6535 -1.56425 0.267736 0
M  V30 748 H 68.6745 -3.36887 -1.76882 0
M  V30 749 H 68.1865 -3.88096 -0.017401 0
M  V30 750 H 66.2875 -2.93553 -2.29471 0
M  V30 751 H 66.4005 -4.58615 -1.38598 0
M  V30 752 H 64.7645 -2.40834 -0.828912 0
M  V30 753 H 65.5475 -3.39315 0.521561 0
M  V30 754 N 67.9926 0.231505 -1.5589 0
M  V30 755 C 69.4036 0.799327 -1.68724 0
M  V30 756 C 69.7546 1.85398 -0.642022 0
M  V30 757 O 68.8796 2.1539 0.208784 0
M  V30 758 C 69.4746 1.45664 -3.05888 0
M  V30 759 C 68.0336 1.97197 -3.20609 0
M  V30 760 C 67.1806 0.828552 -2.64632 0
M  V30 761 H 70.1316 0.00702616 -1.58698 0
M  V30 762 H 70.1526 2.32517 -3.01191 0
M  V30 763 H 69.6646 0.688808 -3.81939 0
M  V30 764 H 67.7656 2.76813 -2.4941 0
M  V30 765 H 67.8786 2.15878 -4.27707 0
M  V30 766 H 66.2426 1.23321 -2.22854 0
M  V30 767 H 67.0256 0.0735544 -3.43221 0
M  V30 768 N 69.4707 1.49531 0.497807 0
M  V30 769 C 70.8817 1.52344 1.07927 0
M  V30 770 C 71.2327 0.311469 1.93712 0
M  V30 771 O 70.3577 -0.578405 2.08527 0
M  V30 772 C 70.9527 2.76062 1.96405 0
M  V30 773 C 69.5117 2.81643 2.49709 0
M  V30 774 C 68.6587 2.46299 1.27404 0
M  V30 775 H 71.6097 1.56182 0.281576 0
M  V30 776 H 71.6307 2.56405 2.81135 0
M  V30 777 H 71.1427 3.64254 1.33943 0
M  V30 778 H 69.2437 1.97739 3.15801 0
M  V30 779 H 69.3567 3.83891 2.86643 0
M  V30 780 H 67.7207 1.98148 1.60029 0
M  V30 781 H 68.5037 3.36769 0.66645 0
M  V30 782 N 70.9488 -0.749086 1.3866 0
M  V30 783 C 72.3598 -1.32664 1.31366 0
M  V30 784 C 72.7108 -1.96179 -0.028484 0
M  V30 785 O 71.8358 -1.9537 -0.93057 0
M  V30 786 C 72.4308 -2.41219 2.37905 0
M  V30 787 C 70.9898 -2.94684 2.34176 0
M  V30 788 C 70.1368 -1.68108 2.20533 0
M  V30 789 H 73.0878 -0.547628 1.48952 0
M  V30 790 H 73.1088 -3.21268 2.0388 0
M  V30 791 H 72.6208 -1.94962 3.35576 0
M  V30 792 H 70.7218 -3.45258 1.401 0
M  V30 793 H 70.8348 -3.48757 3.2849 0
M  V30 794 H 69.1988 -1.91907 1.67463 0
M  V30 795 H 69.9818 -1.23923 3.20153 0
M  V30 796 N 72.4269 -1.23603 -0.977757 0
M  V30 797 C 73.3589 -0.977369 -2.07317 0
M  V30 798 C 74.3719 0.0495845 -1.62724 0
M  V30 799 O 75.5609 -0.186261 -1.77526 0
M  V30 800 C 72.6609 -0.451216 -3.35883 0
M  V30 801 C 71.8339 -1.53896 -4.09432 0
M  V30 802 C 70.8929 -1.01721 -5.16274 0
M  V30 803 O 69.9189 -1.70676 -5.43009 0
M  V30 804 N 71.1209 0.153594 -5.80297 0
M  V30 805 H 73.8859 -1.92047 -2.30082 0
M  V30 806 H 71.4469 -1.14497 -1.14465 0
M  V30 807 H 73.4389 -0.0871574 -4.04606 0
M  V30 808 H 72.0089 0.397368 -3.10064 0
M  V30 809 H 71.2289 -2.07566 -3.35127 0
M  V30 810 H 72.5169 -2.27037 -4.55337 0
M  V30 811 H 71.9149 0.730323 -5.60966 0
M  V30 812 H 70.4719 0.458892 -6.50183 0
M  V30 813 N 73.905 1.17692 -1.04816 0
M  V30 814 C 74.835 2.23777 -0.666791 0
M  V30 815 C 75.816 1.66796 0.33361 0
M  V30 816 O 77.001 1.93039 0.212042 0
M  V30 817 C 74.131 3.47281 -0.0367933 0
M  V30 818 C 73.085 4.17059 -0.961546 0
M  V30 819 C 72.411 5.34342 -0.195626 0
M  V30 820 C 73.711 4.69713 -2.28402 0
M  V30 821 H 75.405 2.55933 -1.55367 0
M  V30 822 H 72.951 1.23019 -0.748484 0
M  V30 823 H 74.904 4.20706 0.241775 0
M  V30 824 H 73.628 3.14381 0.885004 0
M  V30 825 H 72.287 3.45541 -1.22462 0
M  V30 826 H 71.935 4.97692 0.728816 0
M  V30 827 H 71.635 5.81966 -0.811775 0
M  V30 828 H 73.159 6.10553 0.0757473 0
M  V30 829 H 74.573 5.34794 -2.06563 0
M  V30 830 H 72.97 5.279 -2.8538 0
M  V30 831 H 74.04 3.86726 -2.92525 0
M  V30 832 N 75.3831 0.828654 1.34056 0
M  V30 833 C 76.7941 0.477534 1.8049 0
M  V30 834 C 77.1451 -1.00258 1.6865 0
M  V30 835 O 76.2701 -1.78057 1.22982 0
M  V30 836 C 76.8651 0.860018 3.27703 0
M  V30 837 C 75.4241 0.561185 3.72193 0
M  V30 838 C 74.5711 1.07385 2.55663 0
M  V30 839 H 77.5221 1.0183 1.21722 0
M  V30 840 H 77.5431 0.166038 3.80138 0
M  V30 841 H 77.0551 1.93731 3.36288 0
M  V30 842 H 75.1561 -0.506465 3.69142 0
M  V30 843 H 75.2691 1.10926 4.66082 0
M  V30 844 H 73.6331 0.495149 2.49841 0
M  V30 845 H 74.4161 2.15771 2.67016 0
M  V30 846 N 76.8612 -1.46375 0.584142 0
M  V30 847 C 77.7932 -2.28443 -0.186119 0
M  V30 848 C 78.8062 -1.38596 -0.854115 0
M  V30 849 O 79.9952 -1.63183 -0.723438 0
M  V30 850 C 77.0952 -3.13671 -1.28311 0
M  V30 851 C 76.2682 -4.31652 -0.706758 0
M  V30 852 C 75.3272 -4.98267 -1.69163 0
M  V30 853 O 74.3532 -5.55815 -1.22712 0
M  V30 854 N 75.5552 -4.95408 -3.02575 0
M  V30 855 H 78.3202 -2.9519 0.517986 0
M  V30 856 H 75.8812 -1.56303 0.42201 0
M  V30 857 H 77.8732 -3.55101 -1.94128 0
M  V30 858 H 76.4432 -2.48989 -1.89005 0
M  V30 859 H 75.6632 -3.93989 0.128908 0
M  V30 860 H 76.9512 -5.07906 -0.301506 0
M  V30 861 H 76.3492 -4.49902 -3.42936 0
M  V30 862 H 74.9062 -5.40774 -3.63877 0
M  V30 863 N 78.3393 -0.321999 -1.54275 0
M  V30 864 C 79.7503 0.166384 -1.85957 0
M  V30 865 C 80.1013 1.51747 -1.24367 0
M  V30 866 O 79.2263 2.09317 -0.549124 0
M  V30 867 C 79.8213 0.308681 -3.37391 0
M  V30 868 C 78.3803 0.741286 -3.69028 0
M  V30 869 C 77.5273 -0.137937 -2.76957 0
M  V30 870 H 80.4783 -0.542335 -1.49146 0
M  V30 871 H 80.4993 1.13984 -3.63026 0
M  V30 872 H 80.0113 -0.674809 -3.82188 0
M  V30 873 H 78.1123 1.73458 -3.29762 0
M  V30 874 H 78.2253 0.546118 -4.75977 0
M  V30 875 H 76.5893 0.386251 -2.51754 0
M  V30 876 H 77.3723 -1.11816 -3.2458 0
M  V30 877 N 79.8174 1.5752 -0.0501392 0
M  V30 878 C 81.2284 1.80271 0.485705 0
M  V30 879 C 81.5794 0.96228 1.70981 0
M  V30 880 O 80.7044 0.178578 2.15662 0
M  V30 881 C 81.2994 3.26957 0.887938 0
M  V30 882 C 79.8584 3.5063 1.36877 0
M  V30 883 C 79.0054 2.75165 0.343468 0
M  V30 884 H 81.9564 1.56281 -0.276028 0
M  V30 885 H 81.9774 3.37821 1.75093 0
M  V30 886 H 81.4894 3.881 -0.0031809 0
M  V30 887 H 79.5904 2.94766 2.27911 0
M  V30 888 H 79.7034 4.59343 1.36164 0
M  V30 889 H 78.0674 2.4127 0.816128 0
M  V30 890 H 78.8504 3.39034 -0.539548 0
M  V30 891 N 81.2955 -0.223234 1.56011 0
M  V30 892 C 82.7065 -0.790368 1.69145 0
M  V30 893 C 83.0575 -1.85055 0.651845 0
M  V30 894 O 82.1825 -2.15498 -0.197359 0
M  V30 895 C 82.7775 -1.4404 3.06656 0
M  V30 896 C 81.3365 -1.95494 3.2165 0
M  V30 897 C 80.4835 -0.814506 2.65068 0
M  V30 898 H 83.4345 0.00139011 1.587 0
M  V30 899 H 83.4555 -2.30916 3.0242 0
M  V30 900 H 82.9675 -0.668543 3.82298 0
M  V30 901 H 81.0685 -2.75487 2.50874 0
M  V30 902 H 81.1815 -2.13607 4.28846 0
M  V30 903 H 79.5455 -1.22137 2.23505 0
M  V30 904 H 80.3285 -0.0553515 3.43255 0
M  V30 905 N 82.7736 -1.49793 -0.48987 0
M  V30 906 C 83.7056 -1.63413 -1.60713 0
M  V30 907 C 84.7186 -0.516329 -1.54395 0
M  V30 908 O 85.9076 -0.788812 -1.60125 0
M  V30 909 C 83.0076 -1.58516 -2.99543 0
M  V30 910 C 82.1806 -2.86016 -3.30928 0
M  V30 911 C 81.2396 -2.74018 -4.49222 0
M  V30 912 O 80.2656 -3.47964 -4.50455 0
M  V30 913 N 81.4676 -1.86309 -5.4979 0
M  V30 914 H 84.2326 -2.59777 -1.49452 0
M  V30 915 H 81.7936 -1.47022 -0.677955 0
M  V30 916 H 83.7856 -1.48128 -3.76617 0
M  V30 917 H 82.3556 -0.69965 -3.0467 0
M  V30 918 H 81.5756 -3.10672 -2.42645 0
M  V30 919 H 82.8636 -3.70521 -3.487 0
M  V30 920 H 82.2616 -1.2551 -5.51601 0
M  V30 921 H 80.8186 -1.81837 -6.25922 0
M  V30 922 N 84.2517 0.741722 -1.39055 0
M  V30 923 C 85.2147 1.83733 -1.37021 0
M  V30 924 C 86.2147 1.58542 -0.268534 0
M  V30 925 O 87.4047 1.66067 -0.526076 0
M  V30 926 C 84.5367 3.2141 -1.13617 0
M  V30 927 H 85.7297 1.86941 -2.34506 0
M  V30 928 H 83.2827 0.944676 -1.24521 0
M  V30 929 H 84.0177 3.23865 -0.167863 0
M  V30 930 H 83.8027 3.4109 -1.93391 0
M  V30 931 H 85.2927 4.01477 -1.14918 0
M  V30 932 N 85.7298 1.2412 0.971189 0
M  V30 933 C 86.6618 0.988349 2.06795 0
M  V30 934 C 87.6748 -0.0409541 1.62748 0
M  V30 935 O 88.8638 0.195673 1.77424 0
M  V30 936 C 85.9638 0.469023 3.35639 0
M  V30 937 C 85.1368 1.56065 4.08611 0
M  V30 938 C 84.1958 1.04458 5.15728 0
M  V30 939 O 83.2218 1.73553 5.42096 0
M  V30 940 N 84.4238 -0.122817 5.8037 0
M  V30 941 H 87.1888 1.93265 2.29061 0
M  V30 942 H 84.7498 1.15102 1.13856 0
M  V30 943 H 86.7418 0.108613 4.04554 0
M  V30 944 H 85.3118 -0.380919 3.1027 0
M  V30 945 H 84.5318 2.09341 3.34021 0
M  V30 946 H 85.8198 2.29449 4.54126 0
M  V30 947 H 85.2178 -0.700563 5.61345 0
M  V30 948 H 83.7748 -0.424404 6.50417 0
M  V30 949 N 87.2079 -1.17134 1.05439 0
M  V30 950 C 88.6189 -1.69084 0.791676 0
M  V30 951 C 88.9699 -1.83822 -0.685839 0
M  V30 952 O 88.0949 -1.52757 -1.53278 0
M  V30 953 C 88.6899 -3.07119 1.4305 0
M  V30 954 C 87.2489 -3.56225 1.21577 0
M  V30 955 C 86.3959 -2.32421 1.51247 0
M  V30 956 H 89.3469 -1.01617 1.219 0
M  V30 957 H 89.3679 -3.71087 0.84112 0
M  V30 958 H 88.8799 -2.9636 2.50584 0
M  V30 959 H 86.9809 -3.72257 0.159787 0
M  V30 960 H 87.0939 -4.38837 1.92246 0
M  V30 961 H 85.4579 -2.3701 0.932653 0
M  V30 962 H 86.2409 -2.24268 2.5992 0
M  V30 963 N 88.686 -0.835752 -1.33615 0
M  V30 964 C 89.616 -0.281739 -2.31794 0
M  V30 965 C 90.597 0.608833 -1.58831 0
M  V30 966 O 91.782 0.533035 -1.86741 0
M  V30 967 C 88.912 0.546612 -3.42971 0
M  V30 968 C 87.866 -0.247904 -4.27281 0
M  V30 969 C 87.192 0.704001 -5.30045 0
M  V30 970 C 88.492 -1.46324 -5.01385 0
M  V30 971 H 90.186 -1.10206 -2.78379 0
M  V30 972 H 87.732 -0.531388 -1.33837 0
M  V30 973 H 89.685 0.944467 -4.1068 0
M  V30 974 H 88.409 1.40011 -2.95067 0
M  V30 975 H 87.068 -0.627281 -3.61194 0
M  V30 976 H 86.716 1.55381 -4.78399 0
M  V30 977 H 86.416 0.176524 -5.87335 0
M  V30 978 H 87.94 1.09944 -6.0062 0
M  V30 979 H 89.354 -1.13871 -5.61877 0
M  V30 980 H 87.751 -1.92728 -5.6831 0
M  V30 981 H 88.821 -2.23467 -4.30338 0
M  V30 982 N 90.1641 1.46063 -0.591896 0
M  V30 983 C 91.0941 2.33172 0.123673 0
M  V30 984 C 92.0751 1.45897 0.87453 0
M  V30 985 O 93.2601 1.74698 0.848181 0
M  V30 986 C 90.3901 3.28336 1.13194 0
M  V30 987 C 89.3441 4.25124 0.495324 0
M  V30 988 C 88.6701 5.09863 1.61071 0
M  V30 989 C 89.9701 5.19143 -0.573425 0
M  V30 990 H 91.6641 2.93252 -0.603646 0
M  V30 991 H 89.2101 1.41014 -0.291741 0
M  V30 992 H 91.1631 3.88137 1.64097 0
M  V30 993 H 89.8871 2.66383 1.88965 0
M  V30 994 H 88.5461 3.66599 0.00729452 0
M  V30 995 H 88.1941 4.44288 2.35832 0
M  V30 996 H 87.8941 5.75417 1.19035 0
M  V30 997 H 89.4181 5.72529 2.12233 0
M  V30 998 H 90.8321 5.73106 -0.1491 0
M  V30 999 H 89.2291 5.93089 -0.914636 0
M  V30 1000 H 90.2991 4.62519 -1.45617 0
M  V30 1001 N 91.6422 0.330177 1.54103 0
M  V30 1002 C 93.0532 -0.15652 1.86043 0
M  V30 1003 C 93.4042 -1.51086 1.2517 0
M  V30 1004 O 92.5292 -2.09023 0.560217 0
M  V30 1005 C 93.1242 -0.290784 3.3755 0
M  V30 1006 C 91.6832 -0.721705 3.69416 0
M  V30 1007 C 90.8302 0.152622 2.7688 0
M  V30 1008 H 93.7812 0.550237 1.48856 0
M  V30 1009 H 93.8022 -1.12058 3.63625 0
M  V30 1010 H 93.3142 0.695068 3.81825 0
M  V30 1011 H 91.4152 -1.71706 3.30678 0
M  V30 1012 H 91.5282 -0.520869 4.7626 0
M  V30 1013 H 89.8922 -0.372894 2.51956 0
M  V30 1014 H 90.6752 1.13536 3.23982 0
M  V30 1015 N 93.1203 -1.57491 0.0584922 0
M  V30 1016 C 94.0523 -2.08916 -0.942694 0
M  V30 1017 C 95.0653 -1.0185 -1.27006 0
M  V30 1018 O 96.2543 -1.29398 -1.22957 0
M  V30 1019 C 93.3543 -2.52341 -2.26224 0
M  V30 1020 C 92.5273 -3.82827 -2.1157 0
M  V30 1021 C 91.5863 -4.12487 -3.26712 0
M  V30 1022 O 90.6123 -4.82295 -3.02292 0
M  V30 1023 N 91.8143 -3.64978 -4.5141 0
M  V30 1024 H 94.5793 -2.95437 -0.503722 0
M  V30 1025 H 92.1403 -1.61397 -0.12757 0
M  V30 1026 H 94.1323 -2.69254 -3.02133 0
M  V30 1027 H 92.7023 -1.7103 -2.61663 0
M  V30 1028 H 91.9223 -3.75425 -1.20208 0
M  V30 1029 H 93.2103 -4.68263 -1.99015 0
M  V30 1030 H 92.6083 -3.08558 -4.7414 0
M  V30 1031 H 91.1653 -3.87115 -5.2439 0
M  V30 1032 N 94.5984 0.214957 -1.56127 0
M  V30 1033 C 96.0094 0.781386 -1.69562 0
M  V30 1034 C 96.3604 1.84707 -0.66165 0
M  V30 1035 O 95.4854 2.156 0.185927 0
M  V30 1036 C 96.0804 1.42411 -3.07416 0
M  V30 1037 C 94.6394 1.93786 -3.22683 0
M  V30 1038 C 93.7864 0.800438 -2.65496 0
M  V30 1039 H 96.7374 -0.00980633 -1.58697 0
M  V30 1040 H 96.7584 2.29309 -3.0364 0
M  V30 1041 H 96.2704 0.64826 -3.82648 0
M  V30 1042 H 94.3714 2.74152 -2.52332 0
M  V30 1043 H 94.4844 2.1133 -4.29973 0
M  V30 1044 H 92.8484 1.2095 -2.2415 0
M  V30 1045 H 93.6314 0.0371471 -3.4328 0
M  V30 1046 N 96.0765 1.50051 0.48192 0
M  V30 1047 C 97.0085 1.64263 1.59844 0
M  V30 1048 C 98.0215 0.52451 1.54119 0
M  V30 1049 O 99.2105 0.797293 1.59704 0
M  V30 1050 C 96.3105 1.60102 2.98698 0
M  V30 1051 C 95.4835 2.87767 3.29407 0
M  V30 1052 C 94.5425 2.76397 4.47762 0
M  V30 1053 O 93.5685 3.50348 4.48603 0
M  V30 1054 N 94.7705 1.89222 5.48794 0
M  V30 1055 H 97.5355 2.60566 1.48073 0
M  V30 1056 H 95.0965 1.47379 0.670149 0
M  V30 1057 H 97.0885 1.50123 3.75826 0
M  V30 1058 H 95.6585 0.715798 3.04294 0
M  V30 1059 H 94.8785 3.11954 2.40994 0
M  V30 1060 H 96.1665 3.72365 3.4673 0
M  V30 1061 H 95.5645 1.28434 5.50928 0
M  V30 1062 H 94.1215 1.85154 6.24949 0
M  V30 1063 N 97.5546 -0.734337 1.39446 0
M  V30 1064 C 98.9656 -1.31264 1.32766 0
M  V30 1065 C 99.3166 -1.96198 -0.00767497 0
M  V30 1066 O 98.4416 -1.96346 -0.909796 0
M  V30 1067 C 99.0366 -2.38682 2.4045 0
M  V30 1068 C 97.5956 -2.92184 2.37288 0
M  V30 1069 C 96.7426 -1.6576 2.22304 0
M  V30 1070 H 99.6936 -0.531799 1.49525 0
M  V30 1071 H 99.7146 -3.19087 2.07276 0
M  V30 1072 H 99.2266 -1.91392 3.37625 0
M  V30 1073 H 97.3276 -3.43752 1.43754 0
M  V30 1074 H 97.4406 -3.45253 3.3217 0
M  V30 1075 H 95.8046 -1.9012 1.69489 0
M  V30 1076 H 96.5876 -1.20521 3.21449 0
M  V30 1077 N 99.0327 -1.24633 -0.964593 0
M  V30 1078 C 100.444 -1.08045 -1.5226 0
M  V30 1079 C 100.795 0.347116 -1.93105 0
M  V30 1080 O 99.9197 1.23588 -1.77637 0
M  V30 1081 C 100.515 -1.95514 -2.76695 0
M  V30 1082 C 99.0737 -1.8314 -3.28841 0
M  V30 1083 C 98.2207 -1.90262 -2.01732 0
M  V30 1084 H 101.172 -1.38064 -0.782553 0
M  V30 1085 H 101.193 -1.48925 -3.50145 0
M  V30 1086 H 100.705 -2.99407 -2.46936 0
M  V30 1087 H 98.8057 -0.82092 -3.63444 0
M  V30 1088 H 98.9187 -2.67406 -3.97531 0
M  V30 1089 H 97.2827 -1.34027 -2.16584 0
M  V30 1090 H 98.0657 -2.9574 -1.74334 0
M  V30 1091 N 100.511 1.16574 -1.06058 0
M  V30 1092 C 101.922 1.68662 -0.800632 0
M  V30 1093 C 102.273 1.84184 0.67608 0
M  V30 1094 O 101.398 1.53568 1.52466 0
M  V30 1095 C 101.993 3.06356 -1.44676 0
M  V30 1096 C 100.552 3.55575 -1.23465 0
M  V30 1097 C 99.6988 2.31616 -1.52477 0
M  V30 1098 H 102.65 1.00969 -1.22438 0
M  V30 1099 H 102.671 3.70636 -0.860788 0
M  V30 1100 H 102.183 2.95027 -2.52152 0
M  V30 1101 H 100.284 3.72167 -0.179527 0
M  V30 1102 H 100.397 4.37812 -1.94571 0
M  V30 1103 H 98.7608 2.36512 -0.945209 0
M  V30 1104 H 99.5438 2.22887 -2.61106 0
M  V30 1105 N 101.989 0.842826 1.3317 0
M  V30 1106 C 103.4 0.496651 1.79973 0
M  V30 1107 C 103.751 -0.984641 1.69703 0
M  V30 1108 O 102.876 -1.76743 1.24863 0
M  V30 1109 C 103.471 0.894727 3.26772 0
M  V30 1110 C 102.03 0.600629 3.71577 0
M  V30 1111 C 101.177 1.10091 2.5451 0
M  V30 1112 H 104.128 1.03116 1.20635 0
M  V30 1113 H 104.149 0.206347 3.7994 0
M  V30 1114 H 103.661 1.97287 3.34215 0
M  V30 1115 H 101.762 -0.467284 3.69658 0
M  V30 1116 H 101.875 1.15863 4.64879 0
M  V30 1117 H 100.239 0.52162 2.49301 0
M  V30 1118 H 101.022 2.18591 2.64713 0
M  V30 1119 N 103.467 -1.45747 0.599634 0
M  V30 1120 C 104.878 -1.85853 0.177681 0
M  V30 1121 C 105.229 -1.50102 -1.26348 0
M  V30 1122 O 104.354 -0.923905 -1.95686 0
M  V30 1123 C 104.949 -3.37326 0.315688 0
M  V30 1124 C 103.508 -3.76365 -0.0515144 0
M  V30 1125 C 102.655 -2.69722 0.643822 0
M  V30 1126 H 105.606 -1.36661 0.806814 0
M  V30 1127 H 105.627 -3.77778 -0.454321 0
M  V30 1128 H 105.139 -3.63315 1.36468 0
M  V30 1129 H 103.24 -3.55993 -1.09999 0
M  V30 1130 H 103.353 -4.77916 0.336594 0
M  V30 1131 H 101.717 -2.54567 0.0822881 0
M  V30 1132 H 102.5 -2.98549 1.6948 0
M  V30 1133 N 104.945 -0.338344 -1.53925 0
M  V30 1134 C 106.356 0.146651 -1.86123 0
M  V30 1135 C 106.707 1.5042 -1.2597 0
M  V30 1136 O 105.832 2.08723 -0.571294 0
M  V30 1137 C 106.427 0.272879 -3.37699 0
M  V30 1138 C 104.986 0.702103 -3.69794 0
M  V30 1139 C 104.133 -0.167304 -2.76795 0
M  V30 1140 H 107.084 -0.558123 -1.48562 0
M  V30 1141 H 107.105 1.10128 -3.64214 0
M  V30 1142 H 106.617 -0.715307 -3.81451 0
M  V30 1143 H 104.718 1.6995 -3.31584 0
M  V30 1144 H 104.831 0.495604 -4.7653 0
M  V30 1145 H 103.195 0.359527 -2.5215 0
M  V30 1146 H 103.978 -1.15253 -3.23375 0
M  V30 1147 N 106.423 1.57458 -0.0668435 0
M  V30 1148 C 107.834 1.80776 0.466558 0
M  V30 1149 C 108.185 0.980361 1.69951 0
M  V30 1150 O 107.31 0.201441 2.1546 0
M  V30 1151 C 107.905 3.27881 0.85321 0
M  V30 1152 C 106.464 3.52062 1.3315 0
M  V30 1153 C 105.611 2.75513 0.314264 0
M  V30 1154 H 108.562 1.5598 -0.292588 0
M  V30 1155 H 108.583 3.39659 1.715 0
M  V30 1156 H 108.095 3.88075 -0.0443439 0
M  V30 1157 H 106.196 2.97167 2.24772 0
M  V30 1158 H 106.309 4.60762 1.31285 0
M  V30 1159 H 104.673 2.42123 0.790492 0
M  V30 1160 H 105.456 3.38442 -0.575477 0
M  V30 1161 N 107.901 -0.206675 1.56239 0
M  V30 1162 C 109.312 -0.772383 1.69974 0
M  V30 1163 C 109.663 -1.84353 0.671436 0
M  V30 1164 O 108.788 -2.15695 -0.174491 0
M  V30 1165 C 109.383 -1.40779 3.08167 0
M  V30 1166 C 107.942 -1.92072 3.23706 0
M  V30 1167 C 107.089 -0.786347 2.65917 0
M  V30 1168 H 110.04 0.0182223 1.5869 0
M  V30 1169 H 110.061 -2.27696 3.04852 0
M  V30 1170 H 109.573 -0.627958 3.82986 0
M  V30 1171 H 107.674 -2.7281 2.53782 0
M  V30 1172 H 107.787 -2.09046 4.31087 0
M  V30 1173 H 106.151 -1.1976 2.24788 0
M  V30 1174 H 106.934 -0.0189416 3.43295 0
M  V30 1175 N 109.379 -1.50304 -0.473955 0
M  V30 1176 C 110.79 -1.54042 -1.0549 0
M  V30 1177 C 111.141 -0.342248 -1.93192 0
M  V30 1178 O 110.266 0.545157 -2.09421 0
M  V30 1179 C 110.861 -2.79152 -1.91989 0
M  V30 1180 C 109.42 -2.8558 -2.45196 0
M  V30 1181 C 108.567 -2.48295 -1.2347 0
M  V30 1182 H 111.518 -1.5661 -0.256693 0
M  V30 1183 H 111.539 -2.60845 -2.7702 0
M  V30 1184 H 111.051 -3.66339 -1.28131 0
M  V30 1185 H 109.152 -2.02738 -3.12615 0
M  V30 1186 H 109.265 -3.88403 -2.80499 0
M  V30 1187 H 107.629 -2.00669 -1.56856 0
M  V30 1188 H 108.412 -3.37787 -0.612789 0
M  V30 1189 N 110.857 0.726932 -1.39834 0
M  V30 1190 C 112.268 1.30558 -1.3346 0
M  V30 1191 C 112.619 1.962 -0.00273003 0
M  V30 1192 O 111.744 1.96826 0.899371 0
M  V30 1193 C 112.339 2.37404 -2.41713 0
M  V30 1194 C 110.898 2.90921 -2.38835 0
M  V30 1195 C 110.045 1.64578 -2.2318 0
M  V30 1196 H 112.996 0.523862 -1.49804 0
M  V30 1197 H 113.017 3.17984 -2.08966 0
M  V30 1198 H 112.529 1.89599 -3.38635 0
M  V30 1199 H 110.63 3.42985 -1.45575 0
M  V30 1200 H 110.743 3.43487 -3.33997 0
M  V30 1201 H 109.107 1.89219 -1.70494 0
M  V30 1202 H 109.89 1.18814 -3.22084 0
M  V30 1203 N 112.336 1.25143 0.95797 0
M  V30 1204 C 113.584 1.09476 1.69881 0
M  V30 1205 C 113.905 -0.365502 1.91544 0
M  V30 1206 O 113.175 -1.25985 1.50015 0
M  V30 1207 H 111.755 0.402128 0.629525 0
M  V30 1208 H 114.417 1.57214 1.15194 0
M  V30 1209 H 113.513 1.60046 2.6794 0
M  V30 1210 N 113.814 -1.1601 1.06675 0
M  V30 1211 C 115.225 -1.68235 0.809565 0
M  V30 1212 C 115.576 -1.8454 -0.666303 0
M  V30 1213 O 114.701 -1.54374 -1.5165 0
M  V30 1214 C 115.296 -3.05585 1.46299 0
M  V30 1215 C 113.855 -3.54915 1.25349 0
M  V30 1216 C 113.002 -2.30804 1.53703 0
M  V30 1217 H 115.953 -1.00318 1.22971 0
M  V30 1218 H 115.974 -3.70174 0.880431 0
M  V30 1219 H 115.486 -2.93686 2.53713 0
M  V30 1220 H 113.587 -3.72067 0.199261 0
M  V30 1221 H 113.7 -4.36774 1.9689 0
M  V30 1222 H 112.064 -2.36007 0.957739 0
M  V30 1223 H 112.847 -2.21499 2.62284 0
M  V30 1224 N 115.292 -0.849877 -1.32721 0
M  V30 1225 C 116.255 -0.296122 -2.27279 0
M  V30 1226 C 117.255 0.541458 -1.5141 0
M  V30 1227 O 118.445 0.353658 -1.70572 0
M  V30 1228 C 115.577 0.581579 -3.35902 0
M  V30 1229 H 116.77 -1.13064 -2.77771 0
M  V30 1230 H 114.323 -0.62383 -1.43311 0
M  V30 1231 H 115.058 1.43809 -2.9067 0
M  V30 1232 H 114.843 -0.0178814 -3.92096 0
M  V30 1233 H 116.333 0.961951 -4.0637 0
M  V30 1234 N 116.77 1.45427 -0.607355 0
M  V30 1235 C 118.016 2.0254 -0.102607 0
M  V30 1236 C 118.349 1.47478 1.26348 0
M  V30 1237 O 117.624 0.64939 1.83339 0
M  V30 1238 C 117.907 3.60044 -0.0634347 0
M  V30 1239 C 117.76 4.2544 -1.46017 0
M  V30 1240 C 119.079 4.35646 0.624514 0
M  V30 1241 H 116.198 0.73598 -0.0387607 0
M  V30 1242 H 118.84 1.73284 -0.779282 0
M  V30 1243 H 116.99 3.85101 0.512808 0
M  V30 1244 H 118.662 4.11569 -2.08347 0
M  V30 1245 H 116.905 3.83849 -2.02094 0
M  V30 1246 H 117.576 5.34342 -1.385 0
M  V30 1247 H 120.052 4.15882 0.134723 0
M  V30 1248 H 118.928 5.45376 0.621028 0
M  V30 1249 H 119.189 4.08501 1.69055 0
M  V30 1250 N 118.248 0.346503 1.53744 0
M  V30 1251 C 119.211 -0.496439 2.23759 0
M  V30 1252 C 120.211 -1.0252 1.2388 0
M  V30 1253 O 121.401 -0.913974 1.48297 0
M  V30 1254 C 118.533 -1.69187 2.95954 0
M  V30 1255 H 119.726 0.115952 2.99676 0
M  V30 1256 H 117.279 0.0978939 1.55993 0
M  V30 1257 H 118.014 -2.34288 2.24231 0
M  V30 1258 H 117.799 -1.31989 3.69217 0
M  V30 1259 H 119.289 -2.28969 3.49232 0
M  V30 1260 N 119.726 -1.57421 0.075193 0
M  V30 1261 C 120.636 -2.1642 -0.905511 0
M  V30 1262 C 121.652 -1.12828 -1.32461 0
M  V30 1263 O 122.828 -1.45109 -1.39661 0
M  V30 1264 C 119.893 -2.71693 -2.15369 0
M  V30 1265 C 118.954 -3.90171 -1.79068 0
M  V30 1266 C 118.187 -4.42798 -2.97936 0
M  V30 1267 O 118.41 -3.94416 -4.12058 0
M  V30 1268 O 117.344 -5.34085 -2.77555 0
M  V30 1269 H 121.17 -3.00588 -0.433626 0
M  V30 1270 H 118.755 -1.48664 -0.148067 0
M  V30 1271 H 120.637 -3.07104 -2.88557 0
M  V30 1272 H 119.312 -1.90582 -2.61649 0
M  V30 1273 H 118.219 -3.59606 -1.03122 0
M  V30 1274 H 119.552 -4.72584 -1.37569 0
M  V30 1275 N 121.204 0.198386 -1.56346 0
M  V30 1276 C 122.114 1.2664 -1.97483 0
M  V30 1277 C 123.13 1.49989 -0.882002 0
M  V30 1278 O 124.306 1.62668 -1.18748 0
M  V30 1279 C 121.371 2.59141 -2.30319 0
M  V30 1280 C 120.432 2.43892 -3.53292 0
M  V30 1281 C 119.665 3.70074 -3.84553 0
M  V30 1282 O 119.888 4.74101 -3.1715 0
M  V30 1283 O 118.822 3.658 -4.7799 0
M  V30 1284 H 122.648 0.947304 -2.88548 0
M  V30 1285 H 120.233 0.403123 -1.43859 0
M  V30 1286 H 122.115 3.37352 -2.5253 0
M  V30 1287 H 120.79 2.90684 -1.42423 0
M  V30 1288 H 119.697 1.63803 -3.36332 0
M  V30 1289 H 121.03 2.17282 -4.41644 0
M  V30 1290 N 122.682 1.50554 0.465978 0
M  V30 1291 C 124.093 1.54599 1.04671 0
M  V30 1292 C 124.444 0.352488 1.93008 0
M  V30 1293 O 123.569 -0.534044 2.09707 0
M  V30 1294 C 124.164 2.80166 1.90505 0
M  V30 1295 C 122.723 2.86876 2.43678 0
M  V30 1296 C 121.87 2.48947 1.22151 0
M  V30 1297 H 124.821 1.56744 0.248384 0
M  V30 1298 H 124.842 2.62311 2.75633 0
M  V30 1299 H 124.354 3.67013 1.26186 0
M  V30 1300 H 122.455 2.04393 3.11536 0
M  V30 1301 H 122.568 3.89885 2.78436 0
M  V30 1302 H 120.932 2.01498 1.5579 0
M  V30 1303 H 121.715 3.38107 0.594866 0
M  V30 1304 N 124.16 -0.719506 1.40217 0
M  V30 1305 C 125.09 -1.8465 1.42922 0
M  V30 1306 C 126.071 -1.67599 0.29062 0
M  V30 1307 O 127.256 -1.87688 0.498677 0
M  V30 1308 C 124.386 -3.22565 1.28722 0
M  V30 1309 C 123.34 -3.54281 2.40144 0
M  V30 1310 C 122.666 -4.91298 2.11023 0
M  V30 1311 C 123.966 -3.55676 3.82481 0
M  V30 1312 H 125.66 -1.82644 2.37237 0
M  V30 1313 H 123.206 -0.877305 1.1419 0
M  V30 1314 H 125.159 -4.01095 1.29232 0
M  V30 1315 H 123.883 -3.25137 0.308811 0
M  V30 1316 H 122.542 -2.78088 2.38877 0
M  V30 1317 H 122.19 -4.90468 1.11582 0
M  V30 1318 H 121.89 -5.13485 2.8567 0
M  V30 1319 H 123.414 -5.72166 2.13209 0
M  V30 1320 H 124.828 -4.24254 3.85592 0
M  V30 1321 H 123.225 -3.89388 4.56614 0
M  V30 1322 H 124.295 -2.55144 4.12346 0
M  V30 1323 N 125.638 -1.25649 -0.95132 0
M  V30 1324 C 126.588 -1.03004 -2.03406 0
M  V30 1325 C 127.572 0.034187 -1.60864 0
M  V30 1326 O 128.764 -0.181549 -1.76066 0
M  V30 1327 C 125.893 -0.654255 -3.37008 0
M  V30 1328 C 124.979 -1.75542 -3.86065 0
M  V30 1329 N 125.37 -2.99113 -4.07879 0
M  V30 1330 C 123.668 -1.63669 -4.14884 0
M  V30 1331 C 124.369 -3.70611 -4.48356 0
M  V30 1332 N 123.345 -2.98247 -4.54477 0
M  V30 1333 H 127.147 -1.96813 -2.1827 0
M  V30 1334 H 124.661 -1.16017 -1.13639 0
M  V30 1335 H 126.658 -0.473206 -4.14206 0
M  V30 1336 H 125.318 0.276468 -3.23521 0
M  V30 1337 H 126.329 -3.35124 -3.94857 0
M  V30 1338 H 123.006 -0.775161 -4.10241 0
M  V30 1339 H 124.396 -4.76695 -4.73509 0
M  V30 1340 N 127.117 1.15442 -1.07289 0
M  V30 1341 C 128.533 1.38201 -0.798288 0
M  V30 1342 C 128.733 1.92429 0.597769 0
M  V30 1343 O 127.789 2.12962 1.3566 0
M  V30 1344 C 129.102 2.35357 -1.87156 0
M  V30 1345 C 130.65 2.49021 -1.89624 0
M  V30 1346 C 131.125 3.49468 -2.96034 0
M  V30 1347 N 132.616 3.57003 -2.95132 0
M  V30 1348 C 133.351 4.34543 -3.74112 0
M  V30 1349 N 132.847 5.15421 -4.6294 0
M  V30 1350 N 134.64 4.29625 -3.62462 0
M  V30 1351 H 126.791 0.78584 -1.97328 0
M  V30 1352 H 129.054 0.408065 -0.855679 0
M  V30 1353 H 128.76 2.02626 -2.87464 0
M  V30 1354 H 128.634 3.35129 -1.73114 0
M  V30 1355 H 131.021 2.81051 -0.899687 0
M  V30 1356 H 131.102 1.4925 -2.07745 0
M  V30 1357 H 130.746 3.18173 -3.95889 0
M  V30 1358 H 130.676 4.48992 -2.75161 0
M  V30 1359 H 133.167 2.99276 -2.30743 0
M  V30 1360 H 133.48 5.7183 -5.19837 0
M  V30 1361 H 131.825 5.14729 -4.66989 0
M  V30 1362 H 135.016 3.65505 -2.92444 0
M  V30 1363 H 135.189 4.89807 -4.24256 0
M  V30 1364 N 128.595 0.856903 1.32268 0
M  V30 1365 C 130.006 0.515711 1.79436 0
M  V30 1366 C 130.357 -0.966586 1.70738 0
M  V30 1367 O 129.482 -1.75409 1.26731 0
M  V30 1368 C 130.077 0.929335 3.25805 0
M  V30 1369 C 128.636 0.640006 3.70919 0
M  V30 1370 C 127.783 1.12784 2.53328 0
M  V30 1371 H 130.734 1.04389 1.19535 0
M  V30 1372 H 130.755 0.246633 3.797 0
M  V30 1373 H 130.267 2.00821 3.32103 0
M  V30 1374 H 128.368 -0.428051 3.70133 0
M  V30 1375 H 128.481 1.20788 4.63624 0
M  V30 1376 H 126.845 0.548033 2.48734 0
M  V30 1377 H 127.628 2.21387 2.62379 0
M  V30 1378 N 130.073 -1.45103 0.615059 0
M  V30 1379 C 131.02 -2.30586 -0.0993978 0
M  V30 1380 C 131.99 -1.42544 -0.852669 0
M  V30 1381 O 133.175 -1.71465 -0.836917 0
M  V30 1382 C 130.315 -3.27572 -1.08583 0
M  V30 1383 C 129.428 -4.30717 -0.332656 0
M  V30 1384 C 128.563 -5.14807 -1.30947 0
M  V30 1385 C 127.602 -6.09673 -0.544538 0
M  V30 1386 N 126.739 -6.86517 -1.47101 0
M  V30 1387 H 131.579 -2.91144 0.635542 0
M  V30 1388 H 129.116 -1.4346 0.325206 0
M  V30 1389 H 131.074 -3.82276 -1.67095 0
M  V30 1390 H 129.704 -2.68751 -1.78809 0
M  V30 1391 H 128.756 -3.78615 0.368107 0
M  V30 1392 H 130.068 -4.98102 0.263842 0
M  V30 1393 H 129.222 -5.73948 -1.96643 0
M  V30 1394 H 127.961 -4.47458 -1.9399 0
M  V30 1395 H 126.966 -5.49656 0.126003 0
M  V30 1396 H 128.191 -6.79052 0.080947 0
M  V30 1397 H 126.137 -6.21851 -2.08895 0
M  V30 1398 H 126.054 -7.50281 -0.928137 0
M  V30 1399 H 127.322 -7.50194 -2.11731 0
M  V30 1400 N 131.551 -0.354651 -1.53558 0
M  V30 1401 C 132.498 0.496968 -2.25386 0
M  V30 1402 C 133.468 1.0865 -1.25636 0
M  V30 1403 O 134.653 1.12104 -1.54394 0
M  V30 1404 C 131.793 1.63637 -3.03837 0
M  V30 1405 C 130.906 1.07307 -4.18461 0
M  V30 1406 C 130.041 2.18068 -4.84376 0
M  V30 1407 C 129.08 1.59147 -5.91049 0
M  V30 1408 N 128.217 2.63695 -6.50699 0
M  V30 1409 H 133.057 -0.122075 -2.9775 0
M  V30 1410 H 130.594 -0.0720154 -1.46924 0
M  V30 1411 H 132.552 2.30734 -3.47589 0
M  V30 1412 H 131.182 2.22623 -2.33749 0
M  V30 1413 H 130.234 0.292708 -3.79272 0
M  V30 1414 H 131.546 0.602193 -4.95152 0
M  V30 1415 H 130.7 2.93007 -5.31255 0
M  V30 1416 H 129.439 2.68504 -4.07133 0
M  V30 1417 H 128.444 0.827175 -5.43542 0
M  V30 1418 H 129.669 1.09549 -6.70206 0
M  V30 1419 H 127.615 3.13365 -5.76315 0
M  V30 1420 H 127.532 2.21263 -7.22896 0
M  V30 1421 H 128.8 3.3837 -7.02229 0
M  V30 1422 N 133.029 1.57378 -0.0835403 0
M  V30 1423 C 133.939 2.16897 0.894021 0
M  V30 1424 C 134.955 1.13528 1.31861 0
M  V30 1425 O 136.131 1.45848 1.3889 0
M  V30 1426 C 133.196 2.72831 2.13925 0
M  V30 1427 C 132.257 3.91115 1.76997 0
M  V30 1428 C 131.49 4.44371 2.95584 0
M  V30 1429 O 131.713 3.96596 4.09961 0
M  V30 1430 O 130.647 5.35549 2.74719 0
M  V30 1431 H 134.473 3.00814 0.417679 0
M  V30 1432 H 132.058 1.48741 0.140181 0
M  V30 1433 H 133.94 3.0863 2.86924 0
M  V30 1434 H 132.615 1.91967 2.60635 0
M  V30 1435 H 131.522 3.60148 1.01214 0
M  V30 1436 H 132.855 4.73307 1.3506 0
M  V30 1437 N 134.507 -0.190092 1.56449 0
M  V30 1438 C 135.437 -1.23816 1.97969 0
M  V30 1439 C 136.418 -1.47201 0.852395 0
M  V30 1440 O 137.603 -1.58854 1.1171 0
M  V30 1441 C 134.733 -2.5813 2.3235 0
M  V30 1442 C 133.687 -2.49348 3.47864 0
M  V30 1443 C 133.013 -3.8798 3.67934 0
M  V30 1444 C 134.313 -2.01424 4.81898 0
M  V30 1445 H 136.007 -0.89311 2.85769 0
M  V30 1446 H 133.553 -0.428177 1.37487 0
M  V30 1447 H 135.506 -3.31637 2.59991 0
M  V30 1448 H 134.23 -2.94386 1.41438 0
M  V30 1449 H 132.889 -1.78297 3.20321 0
M  V30 1450 H 132.537 -4.21597 2.74344 0
M  V30 1451 H 132.237 -3.82978 4.45648 0
M  V30 1452 H 133.761 -4.63101 3.97957 0
M  V30 1453 H 135.175 -2.64693 5.08538 0
M  V30 1454 H 133.572 -2.07413 5.63116 0
M  V30 1455 H 134.642 -0.967677 4.75146 0
M  V30 1456 N 135.985 -1.50799 -0.457987 0
M  V30 1457 C 137.21 -1.66496 -1.23668 0
M  V30 1458 C 137.635 -0.353288 -1.84752 0
M  V30 1459 O 136.993 0.684346 -1.67888 0
M  V30 1460 C 137.041 -2.76763 -2.3116 0
M  V30 1461 O 136.145 -2.38928 -3.36136 0
M  V30 1462 H 135.486 -0.555828 -0.363252 0
M  V30 1463 H 138.016 -1.9725 -0.543474 0
M  V30 1464 H 138.026 -3.00232 -2.76269 0
M  V30 1465 H 136.701 -3.71954 -1.86073 0
M  V30 1466 H 135.278 -2.25953 -2.96647 0
M  V30 1467 N 137.463 0.71206 -1.40597 0
M  V30 1468 C 138.426 1.80785 -1.40888 0
M  V30 1469 C 139.426 1.57937 -0.302103 0
M  V30 1470 O 140.616 1.64913 -0.561182 0
M  V30 1471 C 137.748 3.18927 -1.20409 0
M  V30 1472 H 138.941 1.81924 -2.38419 0
M  V30 1473 H 136.494 0.91805 -1.26497 0
M  V30 1474 H 137.229 3.23436 -0.236522 0
M  V30 1475 H 137.014 3.36911 -2.00582 0
M  V30 1476 H 138.504 3.98949 -1.23408 0
M  V30 1477 N 138.941 1.26152 0.944643 0
M  V30 1478 C 140.169 1.14259 1.72489 0
M  V30 1479 C 140.584 -0.302555 1.8636 0
M  V30 1480 O 139.941 -1.20741 1.36849 0
M  V30 1481 C 139.992 1.80266 3.13347 0
M  V30 1482 O 139.713 3.19133 3.00143 0
M  V30 1483 C 141.214 1.74283 4.07603 0
M  V30 1484 H 138.434 0.398051 0.540181 0
M  V30 1485 H 140.978 1.66706 1.18446 0
M  V30 1486 H 139.133 1.31766 3.64303 0
M  V30 1487 H 139.547 3.51744 3.89071 0
M  V30 1488 H 141.021 2.25111 5.04013 0
M  V30 1489 H 141.498 0.708631 4.33446 0
M  V30 1490 H 142.104 2.22319 3.62567 0
M  V30 1491 N 140.419 -1.14872 1.07899 0
M  V30 1492 C 141.366 -2.19791 0.704319 0
M  V30 1493 C 142.336 -1.63238 -0.306987 0
M  V30 1494 O 143.521 -1.8983 -0.192171 0
M  V30 1495 C 140.661 -3.44911 0.114244 0
M  V30 1496 C 139.774 -4.15637 1.1777 0
M  V30 1497 C 138.909 -5.28324 0.552037 0
M  V30 1498 C 137.948 -5.90875 1.59789 0
M  V30 1499 N 137.085 -6.95022 0.994404 0
M  V30 1500 H 141.925 -2.5119 1.60336 0
M  V30 1501 H 139.462 -1.23356 0.801352 0
M  V30 1502 H 141.42 -4.16477 -0.245544 0
M  V30 1503 H 140.05 -3.14011 -0.74813 0
M  V30 1504 H 139.102 -3.42512 1.65499 0
M  V30 1505 H 140.414 -4.5823 1.97046 0
M  V30 1506 H 139.568 -6.06538 0.1402 0
M  V30 1507 H 138.307 -4.86939 -0.272431 0
M  V30 1508 H 137.312 -5.11369 2.01945 0
M  V30 1509 H 138.537 -6.34337 2.42474 0
M  V30 1510 H 136.483 -6.55722 0.190939 0
M  V30 1511 H 136.4 -7.36073 1.72432 0
M  V30 1512 H 137.668 -7.77123 0.608253 0
M  V30 1513 N 141.898 -0.863906 -1.31812 0
M  V30 1514 C 142.845 -0.313303 -2.28664 0
M  V30 1515 C 143.815 0.584868 -1.55462 0
M  V30 1516 O 145 0.517805 -1.83639 0
M  V30 1517 C 142.14 0.48441 -3.41683 0
M  V30 1518 C 141.253 -0.440594 -4.29747 0
M  V30 1519 C 140.388 0.370652 -5.29905 0
M  V30 1520 C 139.427 -0.551164 -6.09613 0
M  V30 1521 N 138.564 0.223462 -7.01744 0
M  V30 1522 H 143.404 -1.14444 -2.75148 0
M  V30 1523 H 140.941 -0.575769 -1.35364 0
M  V30 1524 H 142.899 0.962627 -4.05943 0
M  V30 1525 H 141.529 1.28029 -2.96325 0
M  V30 1526 H 140.581 -1.03724 -3.65986 0
M  V30 1527 H 141.893 -1.14767 -4.85417 0
M  V30 1528 H 141.047 0.911638 -5.99812 0
M  V30 1529 H 139.786 1.11105 -4.74876 0
M  V30 1530 H 138.791 -1.10396 -5.38603 0
M  V30 1531 H 140.016 -1.29032 -6.66729 0
M  V30 1532 H 137.962 0.946787 -6.49132 0
M  V30 1533 H 137.879 -0.424399 -7.54808 0
M  V30 1534 H 139.147 0.745876 -7.75923 0
M  V30 1535 N 143.376 1.44774 -0.622745 0
M  V30 1536 C 144.653 1.95522 -0.0551974 0
M  V30 1537 C 145.033 1.5649 1.41683 0
M  V30 1538 O 144.381 0.834848 2.12703 0
M  V30 1539 C 144.591 3.4796 -0.269242 0
M  V30 1540 C 145.939 4.24306 -0.158014 0
M  V30 1541 O 146.963 3.55637 -0.200162 0
M  V30 1542 O 145.822 5.46471 -0.0558693 0
M  V30 1543 H 142.916 0.826556 0.0271015 0
M  V30 1544 H 145.462 1.54866 -0.693864 0
M  V30 1545 H 144.234 3.6939 -1.29099 0
M  V30 1546 H 143.857 3.95543 0.403966 0
M  V30 1547 N 144.854 0.36279 1.53368 0
M  V30 1548 C 146.27 0.0116182 1.59596 0
M  V30 1549 C 146.47 -1.47012 1.37803 0
M  V30 1550 O 145.526 -2.23136 1.18181 0
M  V30 1551 C 146.839 0.465052 2.97082 0
M  V30 1552 C 148.387 0.419033 3.10182 0
M  V30 1553 C 148.862 0.848235 4.50077 0
M  V30 1554 N 150.353 0.803183 4.56183 0
M  V30 1555 C 151.088 1.107 5.62613 0
M  V30 1556 N 150.584 1.47996 6.76808 0
M  V30 1557 N 152.377 1.02998 5.52583 0
M  V30 1558 H 144.528 1.32775 1.65785 0
M  V30 1559 H 146.791 0.542518 0.777417 0
M  V30 1560 H 146.497 1.49892 3.18159 0
M  V30 1561 H 146.371 -0.149786 3.76902 0
M  V30 1562 H 148.758 -0.605696 2.88817 0
M  V30 1563 H 148.839 1.06933 2.32377 0
M  V30 1564 H 148.483 1.87107 4.7218 0
M  V30 1565 H 148.413 0.175218 5.26308 0
M  V30 1566 H 150.904 0.52838 3.74188 0
M  V30 1567 H 151.217 1.69613 7.53957 0
M  V30 1568 H 149.562 1.51859 6.78206 0
M  V30 1569 H 152.753 0.737817 4.62249 0
M  V30 1570 H 152.926 1.2701 6.35431 0
M  V30 1571 N 146.332 -1.57332 0.0918853 0
M  V30 1572 C 147.578 -1.94524 -0.573425 0
M  V30 1573 C 147.911 -0.973578 -1.68033 0
M  V30 1574 O 147.186 -0.00609226 -1.94499 0
M  V30 1575 C 147.469 -3.41858 -1.13161 0
M  V30 1576 C 147.322 -4.4979 -0.0299747 0
M  V30 1577 C 148.641 -3.90435 -2.03098 0
M  V30 1578 H 145.76 -0.70734 -0.206975 0
M  V30 1579 H 148.402 -1.89309 0.161942 0
M  V30 1580 H 146.552 -3.46433 -1.7583 0
M  V30 1581 H 148.224 -4.57327 0.604112 0
M  V30 1582 H 146.467 -4.291 0.636833 0
M  V30 1583 H 147.138 -5.50069 -0.461287 0
M  V30 1584 H 149.614 -3.87992 -1.50338 0
M  V30 1585 H 148.49 -4.94097 -2.39081 0
M  V30 1586 H 148.751 -3.29541 -2.94712 0
M  V30 1587 N 147.81 0.181792 -1.56548 0
M  V30 1588 C 148.758 1.24461 -1.965 0
M  V30 1589 C 149.752 1.464 -0.852261 0
M  V30 1590 O 150.958 1.47103 -1.03733 0
M  V30 1591 H 147.333 0.418138 -0.625031 0
M  V30 1592 H 149.304 0.880714 -2.85107 0
M  V30 1593 C 148.053 2.57891 -2.33212 0
M  V30 1594 H 147.376 2.41829 -3.18369 0
M  V30 1595 H 148.816 3.3097 -2.65019 0
M  V30 1596 C 147.275 3.15871 -1.17163 0
M  V30 1597 O 147.805 3.9913 -0.453708 0
M  V30 1598 N 146.011 2.74808 -0.944936 0
M  V30 1599 H 145.558 2.07205 -1.53049 0
M  V30 1600 H 145.516 3.13939 -0.170286 0
M  V30 1601 N 149.288 1.51039 0.449983 0
M  V30 1602 C 150.238 1.67824 1.54335 0
M  V30 1603 C 151.222 0.5324 1.51836 0
M  V30 1604 O 152.414 0.787762 1.58503 0
M  V30 1605 C 149.543 1.7951 2.92628 0
M  V30 1606 C 148.629 2.99838 2.9993 0
M  V30 1607 N 149.02 4.23207 2.77001 0
M  V30 1608 C 147.318 2.98832 3.31082 0
M  V30 1609 C 148.019 5.04361 2.89818 0
M  V30 1610 N 146.995 4.38746 3.2094 0
M  V30 1611 H 150.797 2.60884 1.35339 0
M  V30 1612 H 148.311 1.48513 0.657085 0
M  V30 1613 H 150.308 1.89642 3.7127 0
M  V30 1614 H 148.968 0.876227 3.12654 0
M  V30 1615 H 149.979 4.5236 2.52172 0
M  V30 1616 H 146.656 2.16527 3.56963 0
M  V30 1617 H 148.046 6.12528 2.76151 0
M  V30 1618 N 150.766 -0.704594 1.40972 0
M  V30 1619 C 152.006 -1.47691 1.41304 0
M  V30 1620 C 152.37 -1.91992 0.0178582 0
M  V30 1621 O 153.571 -2.68599 -0.103996 0
M  V30 1622 C 151.842 -2.66254 2.38419 0
M  V30 1623 S 153.401 -3.55516 2.57204 0
M  V30 1624 H 150.219 -0.504808 0.500689 0
M  V30 1625 H 152.821 -0.822962 1.77335 0
M  V30 1626 H 151.525 -2.31897 3.38603 0
M  V30 1627 H 151.056 -3.3655 2.03711 0
M  V30 1628 H 153.071 -4.61115 1.83268 0
M  V30 1629 N 152.244 -1.26651 -0.937939 0
M  V30 1630 C 153.174 -1.10993 -2.05433 0
M  V30 1631 C 154.155 -0.0142161 -1.70094 0
M  V30 1632 O 155.34 -0.186837 -1.93299 0
M  V30 1633 C 152.47 -0.745561 -3.39203 0
M  V30 1634 C 151.424 -1.79337 -3.88616 0
M  V30 1635 C 150.75 -1.28324 -5.19073 0
M  V30 1636 C 152.05 -3.19553 -4.13138 0
M  V30 1637 H 153.744 -2.0438 -2.1879 0
M  V30 1638 H 151.29 -0.984041 -1.05131 0
M  V30 1639 H 153.243 -0.622888 -4.16771 0
M  V30 1640 H 151.967 0.22401 -3.25831 0
M  V30 1641 H 150.626 -1.90477 -3.13231 0
M  V30 1642 H 150.274 -0.303414 -5.02084 0
M  V30 1643 H 149.974 -1.98369 -5.53103 0
M  V30 1644 H 151.498 -1.1733 -5.99221 0
M  V30 1645 H 152.912 -3.11471 -4.81309 0
M  V30 1646 H 151.309 -3.87218 -4.58457 0
M  V30 1647 H 152.379 -3.65368 -3.18801 0
M  V30 1648 N 153.722 1.14298 -1.08507 0
M  V30 1649 C 154.95 1.89219 -0.836876 0
M  V30 1650 C 155.365 1.78638 0.611054 0
M  V30 1651 O 154.722 1.14643 1.41998 0
M  V30 1652 C 154.773 3.39158 -1.25116 0
M  V30 1653 O 154.494 3.49449 -2.64229 0
M  V30 1654 C 155.995 4.31073 -1.03398 0
M  V30 1655 H 153.215 0.599328 -0.301739 0
M  V30 1656 H 155.759 1.44746 -1.44461 0
M  V30 1657 H 153.914 3.81251 -0.687514 0
M  V30 1658 H 154.328 4.42589 -2.81452 0
M  V30 1659 H 155.802 5.34646 -1.37323 0
M  V30 1660 H 156.279 4.3919 0.0289259 0
M  V30 1661 H 156.885 3.94738 -1.58311 0
M  V30 1662 N 155.201 0.870884 1.31352 0
M  V30 1663 C 156.45 0.478408 1.95944 0
M  V30 1664 C 156.763 -0.974493 1.69597 0
M  V30 1665 O 157.969 -1.47316 2.28058 0
M  V30 1666 C 156.425 0.804609 3.50791 0
M  V30 1667 C 156.033 2.27433 3.85977 0
M  V30 1668 C 157.777 0.480648 4.2177 0
M  V30 1669 C 155.684 2.5429 5.33939 0
M  V30 1670 H 154.614 0.175175 0.733369 0
M  V30 1671 H 157.265 1.06391 1.4951 0
M  V30 1672 H 155.647 0.148347 3.95722 0
M  V30 1673 H 156.821 2.97373 3.52002 0
M  V30 1674 H 155.136 2.56442 3.28065 0
M  V30 1675 H 157.733 0.658519 5.30629 0
M  V30 1676 H 158.076 -0.578979 4.12254 0
M  V30 1677 H 158.609 1.09349 3.82476 0
M  V30 1678 H 155.348 3.58939 5.48491 0
M  V30 1679 H 154.868 1.88945 5.69263 0
M  V30 1680 H 156.547 2.39066 6.01212 0
M  V30 1681 N 156.679 -1.44442 0.630414 0
M  V30 1682 C 157.919 -2.03934 0.137919 0
M  V30 1683 C 158.283 -1.48509 -1.21692 0
M  V30 1684 O 159.484 -1.99499 -1.80149 0
M  V30 1685 C 157.755 -3.57187 0.123373 0
M  V30 1686 S 159.314 -4.37741 -0.304604 0
M  V30 1687 H 156.132 -0.708401 0.0607353 0
M  V30 1688 H 158.734 -1.76835 0.833643 0
M  V30 1689 H 157.438 -3.95032 1.11256 0
M  V30 1690 H 156.969 -3.88895 -0.59362 0
M  V30 1691 H 158.984 -4.71403 -1.54897 0
M  V30 1692 N 158.157 -0.370918 -1.53173 0
M  V30 1693 C 159.067 0.480823 -2.2962 0
M  V30 1694 C 160.083 1.08789 -1.35798 0
M  V30 1695 O 161.259 1.09768 -1.68858 0
M  V30 1696 C 158.324 1.60227 -3.07454 0
M  V30 1697 C 157.385 1.0222 -4.16953 0
M  V30 1698 C 156.618 2.0902 -4.91066 0
M  V30 1699 O 156.841 3.30222 -4.65091 0
M  V30 1700 O 155.775 1.71778 -5.76867 0
M  V30 1701 H 159.601 -0.141421 -3.03371 0
M  V30 1702 H 157.186 -0.135146 -1.48787 0
M  V30 1703 H 159.068 2.25417 -3.56041 0
M  V30 1704 H 157.743 2.20982 -2.36535 0
M  V30 1705 H 156.65 0.334064 -3.72605 0
M  V30 1706 H 157.983 0.459131 -4.90054 0
M  V30 1707 N 159.635 1.57281 -0.100228 0
M  V30 1708 C 160.583 2.15542 0.874328 0
M  V30 1709 C 161.577 1.09962 1.28859 0
M  V30 1710 O 162.783 1.28298 1.26252 0
M  V30 1711 H 159.158 0.689567 0.300003 0
M  V30 1712 H 161.129 2.96241 0.35829 0
M  V30 1713 C 159.878 2.75454 2.1218 0
M  V30 1714 H 159.201 3.56384 1.81193 0
M  V30 1715 H 160.641 3.19781 2.78417 0
M  V30 1716 C 159.1 1.71602 2.89921 0
M  V30 1717 O 159.63 1.15804 3.84646 0
M  V30 1718 N 157.836 1.41975 2.53558 0
M  V30 1719 H 157.383 1.87539 1.76598 0
M  V30 1720 H 157.341 0.727274 3.05873 0
M  V30 1721 N 161.113 -0.173488 1.56642 0
M  V30 1722 C 162.362 -0.888758 1.81063 0
M  V30 1723 C 162.675 -1.83506 0.67712 0
M  V30 1724 O 163.881 -2.59254 0.806206 0
M  V30 1725 C 162.337 -1.63091 3.20826 0
M  V30 1726 C 161.945 -0.728357 4.4204 0
M  V30 1727 C 163.689 -2.33454 3.54541 0
M  V30 1728 C 161.596 -1.47062 5.72823 0
M  V30 1729 H 160.526 -0.335618 0.675186 0
M  V30 1730 H 163.177 -0.141712 1.82952 0
M  V30 1731 H 161.559 -2.42263 3.13248 0
M  V30 1732 H 162.733 0.0262449 4.60793 0
M  V30 1733 H 161.048 -0.134492 4.16183 0
M  V30 1734 H 163.645 -2.89578 4.49498 0
M  V30 1735 H 163.988 -3.08687 2.79317 0
M  V30 1736 H 164.521 -1.61227 3.63663 0
M  V30 1737 H 161.26 -0.760658 6.51072 0
M  V30 1738 H 160.78 -2.1986 5.58052 0
M  V30 1739 H 162.459 -2.01868 6.14702 0
M  V30 1740 N 162.591 -1.51276 -0.441967 0
M  V30 1741 C 163.837 -1.63958 -1.19355 0
M  V30 1742 C 164.17 -0.352543 -1.90973 0
M  V30 1743 O 163.445 0.647627 -1.83401 0
M  V30 1744 C 163.728 -2.83979 -2.21422 0
M  V30 1745 C 163.581 -4.22646 -1.53918 0
M  V30 1746 C 164.9 -2.99521 -3.22451 0
M  V30 1747 H 162.019 -0.596709 -0.432559 0
M  V30 1748 H 164.661 -1.83748 -0.483398 0
M  V30 1749 H 162.811 -2.67237 -2.81987 0
M  V30 1750 H 164.483 -4.51045 -0.967256 0
M  V30 1751 H 162.726 -4.25558 -0.841615 0
M  V30 1752 H 163.397 -5.02609 -2.28229 0
M  V30 1753 H 165.873 -3.14944 -2.71937 0
M  V30 1754 H 164.749 -3.85072 -3.91166 0
M  V30 1755 H 165.01 -2.11391 -3.88287 0
M  V30 1756 N 164.069 0.697108 -1.41344 0
M  V30 1757 C 165.032 1.79281 -1.42797 0
M  V30 1758 C 166.032 1.57607 -0.318837 0
M  V30 1759 O 167.222 1.64309 -0.578642 0
M  V30 1760 C 164.354 3.17632 -1.23785 0
M  V30 1761 H 165.547 1.79385 -2.40335 0
M  V30 1762 H 163.1 0.904582 -1.27464 0
M  V30 1763 H 163.835 3.23167 -0.270814 0
M  V30 1764 H 163.62 3.34765 -2.04144 0
M  V30 1765 H 165.11 3.97617 -1.27633 0
M  V30 1766 N 165.547 1.27147 0.931209 0
M  V30 1767 C 166.479 1.05364 2.03546 0
M  V30 1768 C 167.492 0.0108438 1.62796 0
M  V30 1769 O 168.681 0.25202 1.76712 0
M  V30 1770 C 165.781 0.575566 3.33977 0
M  V30 1771 C 164.954 1.68985 4.03439 0
M  V30 1772 C 164.013 1.20813 5.12143 0
M  V30 1773 O 163.039 1.90712 5.363 0
M  V30 1774 N 164.241 0.0618851 5.80467 0
M  V30 1775 H 167.006 2.00454 2.22796 0
M  V30 1776 H 164.567 1.18666 1.10136 0
M  V30 1777 H 166.559 0.237264 4.04004 0
M  V30 1778 H 165.129 -0.282016 3.11325 0
M  V30 1779 H 164.349 2.19861 3.27192 0
M  V30 1780 H 165.637 2.4378 4.46597 0
M  V30 1781 H 165.035 -0.521621 5.6329 0
M  V30 1782 H 163.592 -0.217264 6.51438 0
M  V30 1783 N 167.025 -1.13721 1.09112 0
M  V30 1784 C 168.25 -1.89314 0.847053 0
M  V30 1785 C 168.675 -1.78416 -0.595774 0
M  V30 1786 O 168.033 -1.12942 -1.41823 0
M  V30 1787 C 168.081 -3.3701 1.28284 0
M  V30 1788 O 167.185 -4.10054 0.439267 0
M  V30 1789 H 166.526 -0.588745 0.307044 0
M  V30 1790 H 169.056 -1.43902 1.45442 0
M  V30 1791 H 169.066 -3.87834 1.26683 0
M  V30 1792 H 167.741 -3.4426 2.33363 0
M  V30 1793 H 166.318 -3.69266 0.519312 0
M  V30 1794 N 168.503 -0.877838 -1.30888 0
M  V30 1795 C 169.749 -0.493426 -1.96706 0
M  V30 1796 C 170.082 0.953504 -1.6918 0
M  V30 1797 O 169.357 1.67266 -0.992594 0
M  V30 1798 C 169.64 -0.760429 -3.51979 0
M  V30 1799 C 169.493 -2.25747 -3.89048 0
M  V30 1800 C 170.812 -0.232148 -4.39487 0
M  V30 1801 H 167.931 -0.180746 -0.714493 0
M  V30 1802 H 170.573 -1.10052 -1.54882 0
M  V30 1803 H 168.723 -0.243715 -3.87735 0
M  V30 1804 H 170.395 -2.84204 -3.63354 0
M  V30 1805 H 168.638 -2.72694 -3.37373 0
M  V30 1806 H 169.309 -2.39491 -4.97341 0
M  V30 1807 H 171.785 -0.674314 -4.106 0
M  V30 1808 H 170.661 -0.448355 -5.47066 0
M  V30 1809 H 170.922 0.866297 -4.33529 0
M  V30 1810 N 169.982 1.44106 -0.638065 0
M  V30 1811 C 171.398 1.56672 -0.304286 0
M  V30 1812 C 171.598 1.6244 1.19228 0
M  V30 1813 O 170.654 1.57121 1.9766 0
M  V30 1814 C 171.967 2.83503 -1.00231 0
M  V30 1815 C 173.515 2.97226 -0.981116 0
M  V30 1816 C 173.99 4.26868 -1.65974 0
M  V30 1817 N 175.481 4.33698 -1.62666 0
M  V30 1818 C 176.216 5.32745 -2.12063 0
M  V30 1819 N 175.712 6.38157 -2.6968 0
M  V30 1820 N 177.505 5.24299 -2.02651 0
M  V30 1821 H 169.656 1.38605 -1.60942 0
M  V30 1822 H 171.919 0.664661 -0.675965 0
M  V30 1823 H 171.625 2.85251 -2.0573 0
M  V30 1824 H 171.499 3.73251 -0.54439 0
M  V30 1825 H 173.886 2.95027 0.0654188 0
M  V30 1826 H 173.967 2.08808 -1.47759 0
M  V30 1827 H 173.611 4.29826 -2.70576 0
M  V30 1828 H 173.541 5.14156 -1.13804 0
M  V30 1829 H 176.032 3.58138 -1.20606 0
M  V30 1830 H 176.345 7.10029 -3.05087 0
M  V30 1831 H 174.69 6.38823 -2.73734 0
M  V30 1832 H 177.881 4.4086 -1.57353 0
M  V30 1833 H 178.054 6.01334 -2.41457 0
M  V30 1834 N 171.46 0.379036 1.52974 0
M  V30 1835 C 172.408 -0.476033 2.27677 0
M  V30 1836 C 173.402 -1.0719 1.31174 0
M  V30 1837 O 174.608 -1.01355 1.48752 0
M  V30 1838 H 170.983 -0.172255 0.732006 0
M  V30 1839 H 172.954 0.175615 2.97883 0
M  V30 1840 C 171.703 -1.5967 3.0887 0
M  V30 1841 H 171.026 -1.1475 3.82978 0
M  V30 1842 H 172.466 -2.16943 3.64296 0
M  V30 1843 C 170.925 -2.54682 2.20542 0
M  V30 1844 O 171.455 -3.57836 1.82527 0
M  V30 1845 N 169.661 -2.24183 1.84907 0
M  V30 1846 H 169.208 -1.40333 2.1602 0
M  V30 1847 H 169.166 -2.88006 1.26096 0
M  V30 1848 N 172.938 -1.57226 0.108567 0
M  V30 1849 C 174.163 -1.99604 -0.563303 0
M  V30 1850 C 174.588 -0.987563 -1.6009 0
M  V30 1851 O 173.946 0.0421687 -1.81251 0
M  V30 1852 C 173.994 -3.40902 -1.17552 0
M  V30 1853 O 173.098 -3.42896 -2.2912 0
M  V30 1854 H 172.439 -0.648704 -0.1417 0
M  V30 1855 H 174.969 -2.03679 0.193961 0
M  V30 1856 H 174.979 -3.78886 -1.51357 0
M  V30 1857 H 173.654 -4.1382 -0.415445 0
M  V30 1858 H 172.231 -3.1672 -1.96832 0
M  V30 1859 N 174.416 0.165178 -1.56732 0
M  V30 1860 C 175.827 0.727046 -1.71962 0
M  V30 1861 C 176.178 1.82508 -0.720078 0
M  V30 1862 O 175.303 2.16082 0.117242 0
M  V30 1863 C 175.898 1.32559 -3.11791 0
M  V30 1864 C 174.457 1.83422 -3.28684 0
M  V30 1865 C 173.604 0.715567 -2.67908 0
M  V30 1866 H 176.555 -0.0602896 -1.58585 0
M  V30 1867 H 176.576 2.19533 -3.10782 0
M  V30 1868 H 176.088 0.526195 -3.84516 0
M  V30 1869 H 174.189 2.65986 -2.60926 0
M  V30 1870 H 174.302 1.97543 -4.36478 0
M  V30 1871 H 172.666 1.13758 -2.27884 0
M  V30 1872 H 173.449 -0.0720836 -3.43224 0
M  V30 1873 N 175.894 1.51508 0.433938 0
M  V30 1874 C 176.804 1.75917 1.5521 0
M  V30 1875 C 177.82 0.643545 1.61662 0
M  V30 1876 O 178.996 0.926183 1.7884 0
M  V30 1877 C 176.061 1.88213 2.91164 0
M  V30 1878 C 175.122 3.12074 2.94802 0
M  V30 1879 C 174.355 3.23774 4.24271 0
M  V30 1880 O 174.578 2.4133 5.16833 0
M  V30 1881 O 173.512 4.16774 4.34262 0
M  V30 1882 H 177.338 2.70777 1.37527 0
M  V30 1883 H 174.923 1.36051 0.617293 0
M  V30 1884 H 176.805 1.98267 3.71845 0
M  V30 1885 H 175.48 0.965413 3.08968 0
M  V30 1886 H 174.387 3.07497 2.13065 0
M  V30 1887 H 175.72 4.03446 2.81943 0
M  V30 1888 N 177.372 -0.689602 1.41712 0
M  V30 1889 C 178.619 -1.44966 1.4139 0
M  V30 1890 C 178.947 -1.94484 0.025105 0
M  V30 1891 O 178.202 -1.70307 -0.964048 0
M  V30 1892 C 178.501 -2.67298 2.37247 0
M  V30 1893 C 178.167 -2.36405 3.83958 0
M  V30 1894 C 176.829 -2.27691 4.23923 0
M  V30 1895 C 179.181 -2.11043 4.76561 0
M  V30 1896 C 176.509 -1.91719 5.54492 0
M  V30 1897 C 178.861 -1.76578 6.07456 0
M  V30 1898 C 177.525 -1.66363 6.46436 0
M  V30 1899 H 176.795 -0.53047 0.517381 0
M  V30 1900 H 179.442 -0.787655 1.74552 0
M  V30 1901 H 177.747 -3.38461 1.9736 0
M  V30 1902 H 179.444 -3.25452 2.34269 0
M  V30 1903 H 176.034 -2.44085 3.52308 0
M  V30 1904 H 180.218 -2.16717 4.46483 0
M  V30 1905 H 175.474 -1.82367 5.83568 0
M  V30 1906 H 179.648 -1.55974 6.78708 0
M  V30 1907 H 177.275 -1.38258 7.47522 0
M  V30 1908 N 178.85 -1.27639 -0.924453 0
M  V30 1909 C 179.782 -1.06442 -2.02985 0
M  V30 1910 C 180.795 -0.0194771 -1.62788 0
M  V30 1911 O 181.984 -0.261388 -1.76576 0
M  V30 1912 C 179.084 -0.59327 -3.33667 0
M  V30 1913 C 178.257 -1.71123 -4.02537 0
M  V30 1914 C 177.316 -1.23527 -5.11495 0
M  V30 1915 O 176.342 -1.93553 -5.35281 0
M  V30 1916 N 177.544 -0.0926678 -5.80426 0
M  V30 1917 H 180.309 -2.01633 -2.2173 0
M  V30 1918 H 177.87 -1.19248 -1.09505 0
M  V30 1919 H 179.862 -0.258686 -4.03872 0
M  V30 1920 H 178.432 0.265502 -3.1147 0
M  V30 1921 H 177.652 -2.21593 -3.26022 0
M  V30 1922 H 178.94 -2.46145 -4.45298 0
M  V30 1923 H 178.338 0.491741 -5.63559 0
M  V30 1924 H 176.895 0.182714 -6.51544 0
M  V30 1925 N 180.328 1.1314 -1.09713 0
M  V30 1926 C 181.275 2.18642 -0.739196 0
M  V30 1927 C 182.245 1.63706 0.280978 0
M  V30 1928 O 183.43 1.90111 0.161946 0
M  V30 1929 C 180.57 3.44685 -0.169102 0
M  V30 1930 C 179.683 4.13711 -1.24367 0
M  V30 1931 C 178.818 5.27379 -0.636019 0
M  V30 1932 C 177.857 5.88259 -1.69169 0
M  V30 1933 N 176.994 6.93352 -1.10485 0
M  V30 1934 H 181.834 2.48607 -1.64312 0
M  V30 1935 H 179.371 1.22066 -0.820875 0
M  V30 1936 H 181.329 4.16815 0.179256 0
M  V30 1937 H 179.959 3.15161 0.698079 0
M  V30 1938 H 179.011 3.39835 -1.70927 0
M  V30 1939 H 180.323 4.55037 -2.04311 0
M  V30 1940 H 179.477 6.06238 -0.236677 0
M  V30 1941 H 178.216 4.8731 0.194928 0
M  V30 1942 H 177.221 5.08092 -2.10055 0
M  V30 1943 H 178.446 6.30399 -2.52536 0
M  V30 1944 H 176.392 6.55335 -0.295234 0
M  V30 1945 H 176.309 7.33236 -1.84121 0
M  V30 1946 H 177.577 7.76057 -0.73181 0
M  V30 1947 N 181.806 0.884767 1.30421 0
M  V30 1948 C 182.736 0.367574 2.30589 0
M  V30 1949 C 183.717 -0.549464 1.60981 0
M  V30 1950 O 184.902 -0.46336 1.88591 0
M  V30 1951 C 182.032 -0.418944 3.44764 0
M  V30 1952 C 180.986 0.406316 4.26067 0
M  V30 1953 C 180.312 -0.506793 5.32293 0
M  V30 1954 C 181.612 1.64832 4.95608 0
M  V30 1955 H 183.306 1.20462 2.74097 0
M  V30 1956 H 180.852 0.580695 1.31772 0
M  V30 1957 H 182.805 -0.791395 4.13902 0
M  V30 1958 H 181.529 -1.28964 3.0006 0
M  V30 1959 H 180.188 0.760903 3.58617 0
M  V30 1960 H 179.836 -1.37519 4.83836 0
M  V30 1961 H 179.536 0.0415828 5.87585 0
M  V30 1962 H 181.06 -0.875764 6.04287 0
M  V30 1963 H 182.474 1.34646 5.57264 0
M  V30 1964 H 180.871 2.13688 5.60765 0
M  V30 1965 H 181.941 2.39284 4.21748 0
M  V30 1966 N 183.284 -1.43765 0.645699 0
M  V30 1967 C 184.214 -2.33471 -0.0370477 0
M  V30 1968 C 185.195 -1.49042 -0.819779 0
M  V30 1969 O 186.38 -1.77726 -0.782758 0
M  V30 1970 C 183.51 -3.32311 -1.0093 0
M  V30 1971 C 182.464 -4.2667 -0.337201 0
M  V30 1972 C 181.79 -5.1549 -1.42037 0
M  V30 1973 C 183.09 -5.16657 0.765706 0
M  V30 1974 H 184.784 -2.90809 0.712069 0
M  V30 1975 H 182.33 -1.39834 0.343876 0
M  V30 1976 H 184.283 -3.9396 -1.49578 0
M  V30 1977 H 183.007 -2.73213 -1.78948 0
M  V30 1978 H 181.666 -3.66374 0.128771 0
M  V30 1979 H 181.314 -4.52735 -2.1918 0
M  V30 1980 H 181.014 -5.79438 -0.975966 0
M  V30 1981 H 182.538 -5.80012 -1.90838 0
M  V30 1982 H 183.952 -5.72158 0.361702 0
M  V30 1983 H 182.349 -5.89286 1.13413 0
M  V30 1984 H 183.419 -4.56796 1.62683 0
M  V30 1985 N 184.763 -0.387143 -1.52771 0
M  V30 1986 C 186.011 0.195349 -2.01154 0
M  V30 1987 C 186.332 1.475 -1.27549 0
M  V30 1988 O 185.602 1.91878 -0.394924 0
M  V30 1989 H 184.182 0.075178 -0.743207 0
M  V30 1990 H 186.844 -0.518337 -1.87881 0
M  V30 1991 H 185.94 0.407096 -3.09434 0
M  V30 1992 N 186.241 1.57166 -0.116904 0
M  V30 1993 C 187.49 1.94298 0.541407 0
M  V30 1994 C 187.803 1.00236 1.67964 0
M  V30 1995 O 189.009 1.26826 2.40057 0
M  V30 1996 C 187.465 3.45306 1.01449 0
M  V30 1997 C 187.073 4.47899 -0.0951738 0
M  V30 1998 C 188.817 3.91361 1.6443 0
M  V30 1999 C 186.724 5.90083 0.394491 0
M  V30 2000 H 185.654 0.725308 0.206019 0
M  V30 2001 H 188.305 1.82446 -0.196419 0
M  V30 2002 H 186.687 3.52385 1.80667 0
M  V30 2003 H 187.861 4.52486 -0.871374 0
M  V30 2004 H 186.176 4.11583 -0.631505 0
M  V30 2005 H 188.773 4.95004 2.02176 0
M  V30 2006 H 189.116 3.3122 2.52189 0
M  V30 2007 H 189.649 3.87073 0.917559 0
M  V30 2008 H 186.388 6.53974 -0.447004 0
M  V30 2009 H 185.908 5.88921 1.13722 0
M  V30 2010 H 187.587 6.41307 0.856399 0
M  V30 2011 N 187.719 -0.156864 1.56817 0
M  V30 2012 C 188.682 -1.17781 1.96622 0
M  V30 2013 C 189.682 -1.36401 0.851555 0
M  V30 2014 O 190.872 -1.33561 1.11836 0
M  V30 2015 C 188.004 -2.54008 2.27361 0
M  V30 2016 H 189.197 -0.836564 2.87996 0
M  V30 2017 H 186.75 -0.39985 1.51099 0
M  V30 2018 H 187.485 -2.9312 1.38748 0
M  V30 2019 H 187.27 -2.41856 3.08623 0
M  V30 2020 H 188.76 -3.27558 2.59029 0
M  V30 2021 N 189.197 -1.51736 -0.425897 0
M  V30 2022 C 190.13 -1.68574 -1.53812 0
M  V30 2023 C 191.108 -0.53328 -1.53606 0
M  V30 2024 O 192.292 -0.758555 -1.72564 0
M  V30 2025 C 189.419 -1.70977 -2.92377 0
M  V30 2026 C 188.465 -2.92324 -3.10563 0
M  V30 2027 S 189.298 -4.52952 -2.85648 0
M  V30 2028 C 190.454 -4.58117 -4.26474 0
M  V30 2029 H 190.687 -2.62647 -1.39298 0
M  V30 2030 H 188.22 -1.41564 -0.616361 0
M  V30 2031 H 190.178 -1.73047 -3.72243 0
M  V30 2032 H 188.839 -0.78061 -3.04245 0
M  V30 2033 H 188.032 -2.90439 -4.11899 0
M  V30 2034 H 187.634 -2.88055 -2.38538 0
M  V30 2035 H 189.926 -4.34462 -5.19855 0
M  V30 2036 H 190.869 -5.59983 -4.33388 0
M  V30 2037 H 191.277 -3.8732 -4.10662 0
M  V30 2038 N 190.675 0.682077 -1.42076 0
M  V30 2039 C 191.585 1.82535 -1.47371 0
M  V30 2040 C 192.601 1.7017 -0.363079 0
M  V30 2041 O 193.777 1.91848 -0.612875 0
M  V30 2042 C 190.842 3.18624 -1.36674 0
M  V30 2043 C 189.903 3.42999 -2.58167 0
M  V30 2044 C 189.136 4.72595 -2.4797 0
M  V30 2045 O 189.359 5.50006 -1.5116 0
M  V30 2046 O 188.293 4.98054 -3.37974 0
M  V30 2047 H 192.119 1.81023 -2.43853 0
M  V30 2048 H 189.704 0.836887 -1.2376 0
M  V30 2049 H 191.586 3.99847 -1.33043 0
M  V30 2050 H 190.261 3.20789 -0.433138 0
M  V30 2051 H 189.168 2.61653 -2.67373 0
M  V30 2052 H 190.501 3.45659 -3.50401 0
M  V30 2053 N 192.153 1.28127 0.917671 0
M  V30 2054 C 193.083 1.14248 2.03641 0
M  V30 2055 C 194.064 0.0412748 1.7005 0
M  V30 2056 O 195.249 0.217566 1.92977 0
M  V30 2057 C 192.379 0.799431 3.37974 0
M  V30 2058 C 191.333 1.85497 3.85713 0
M  V30 2059 C 190.659 1.36565 5.16966 0
M  V30 2060 C 191.959 3.26085 4.08002 0
M  V30 2061 H 193.653 2.07835 2.15511 0
M  V30 2062 H 191.199 1.00064 1.03553 0
M  V30 2063 H 193.152 0.689114 4.15727 0
M  V30 2064 H 191.876 -0.172145 3.26146 0
M  V30 2065 H 190.535 1.95437 3.10161 0
M  V30 2066 H 190.183 0.383253 5.01538 0
M  V30 2067 H 189.883 2.07143 5.49878 0
M  V30 2068 H 191.407 1.26848 5.97279 0
M  V30 2069 H 192.821 3.19089 4.76293 0
M  V30 2070 H 191.218 3.94462 4.52238 0
M  V30 2071 H 192.288 3.70394 3.12948 0
M  V30 2072 N 193.631 -1.12557 1.10312 0
M  V30 2073 C 194.878 -1.84038 0.844759 0
M  V30 2074 C 195.206 -1.84026 -0.629668 0
M  V30 2075 O 194.461 -1.28026 -1.48013 0
M  V30 2076 C 194.76 -3.31462 1.33669 0
M  V30 2077 C 194.426 -3.51647 2.82232 0
M  V30 2078 C 193.088 -3.56864 3.22802 0
M  V30 2079 C 195.44 -3.58867 3.77974 0
M  V30 2080 C 192.768 -3.66844 4.57867 0
M  V30 2081 C 195.12 -3.70375 5.1284 0
M  V30 2082 C 193.784 -3.73848 5.52986 0
M  V30 2083 H 193.054 -0.673444 0.309119 0
M  V30 2084 H 195.701 -1.32824 1.37949 0
M  V30 2085 H 194.006 -3.85091 0.721949 0
M  V30 2086 H 195.703 -3.85236 1.11329 0
M  V30 2087 H 192.293 -3.48249 2.49842 0
M  V30 2088 H 196.477 -3.54107 3.47738 0
M  V30 2089 H 191.733 -3.67804 4.88396 0
M  V30 2090 H 195.907 -3.74904 5.86873 0
M  V30 2091 H 193.534 -3.81333 6.57639 0
M  V30 2092 N 195.109 -0.891671 -1.2995 0
M  V30 2093 C 196.039 -0.379797 -2.30391 0
M  V30 2094 C 197.02 0.540919 -1.6127 0
M  V30 2095 O 198.205 0.453352 -1.88834 0
M  V30 2096 C 195.335 0.400654 -3.44981 0
M  V30 2097 C 194.289 -0.428905 -4.25846 0
M  V30 2098 C 193.615 0.478557 -5.32554 0
M  V30 2099 C 194.915 -1.67458 -4.94727 0
M  V30 2100 H 196.609 -1.21914 -2.73454 0
M  V30 2101 H 194.155 -0.587675 -1.31462 0
M  V30 2102 H 196.108 0.769434 -4.14316 0
M  V30 2103 H 194.832 1.27371 -3.0074 0
M  V30 2104 H 193.491 -0.779911 -3.58208 0
M  V30 2105 H 193.139 1.34951 -4.84559 0
M  V30 2106 H 192.839 -0.0727433 -5.87555 0
M  V30 2107 H 194.363 0.843705 -6.04743 0
M  V30 2108 H 195.777 -1.376 -5.56542 0
M  V30 2109 H 194.174 -2.16659 -5.59624 0
M  V30 2110 H 195.244 -2.41518 -4.20473 0
M  V30 2111 N 196.587 1.43421 -0.653314 0
M  V30 2112 C 197.517 2.33487 0.0246656 0
M  V30 2113 C 198.498 1.49475 0.811863 0
M  V30 2114 O 199.683 1.78139 0.773322 0
M  V30 2115 C 196.813 3.32841 0.99166 0
M  V30 2116 C 195.767 4.26842 0.314568 0
M  V30 2117 C 195.093 5.16236 1.39302 0
M  V30 2118 C 196.393 5.16243 -0.793095 0
M  V30 2119 H 198.087 2.90427 -0.727481 0
M  V30 2120 H 195.633 1.39649 -0.351287 0
M  V30 2121 H 197.586 3.94747 1.47487 0
M  V30 2122 H 196.31 2.74158 1.77497 0
M  V30 2123 H 194.969 3.663 -0.148199 0
M  V30 2124 H 194.617 4.53891 2.16776 0
M  V30 2125 H 194.317 5.79948 0.945223 0
M  V30 2126 H 195.841 5.81015 1.87759 0
M  V30 2127 H 197.255 5.71958 -0.392039 0
M  V30 2128 H 195.652 5.88676 -1.16536 0
M  V30 2129 H 196.722 4.55927 -1.65103 0
M  V30 2130 N 198.065 0.39524 1.52563 0
M  V30 2131 C 199.305 -0.184744 2.03563 0
M  V30 2132 C 199.669 -1.43548 1.27507 0
M  V30 2133 O 200.87 -2.093 1.68662 0
M  V30 2134 C 199.141 -0.440294 3.54678 0
M  V30 2135 S 200.7 -0.989712 4.27493 0
M  V30 2136 H 197.518 -0.0515075 0.709132 0
M  V30 2137 H 200.12 0.544957 1.87751 0
M  V30 2138 H 198.824 0.477005 4.07618 0
M  V30 2139 H 198.355 -1.19825 3.74707 0
M  V30 2140 H 200.37 -2.27155 4.41152 0
M  V30 2141 N 199.544 -1.57102 0.125237 0
M  V30 2142 C 200.769 -2.0019 -0.542101 0
M  V30 2143 C 201.194 -1.00449 -1.59034 0
M  V30 2144 O 200.552 0.0229423 -1.81285 0
M  V30 2145 C 200.6 -3.42129 -1.13929 0
M  V30 2146 O 199.704 -3.45307 -2.2547 0
M  V30 2147 H 199.045 -0.650171 -0.134812 0
M  V30 2148 H 201.575 -2.03461 0.215553 0
M  V30 2149 H 201.585 -3.80471 -1.4733 0
M  V30 2150 H 200.26 -4.14237 -0.371531 0
M  V30 2151 H 198.837 -3.1879 -1.93462 0
M  V30 2152 N 201.022 0.148545 -1.56898 0
M  V30 2153 C 202.299 0.890019 -1.74178 0
M  V30 2154 C 202.679 1.99407 -0.692839 0
M  V30 2155 O 202.027 2.26671 0.288505 0
M  V30 2156 C 202.237 1.43389 -3.18183 0
M  V30 2157 C 203.585 1.89791 -3.79822 0
M  V30 2158 O 204.609 1.53134 -3.21603 0
M  V30 2159 O 203.468 2.57387 -4.82093 0
M  V30 2160 H 200.562 0.420496 -0.712118 0
M  V30 2161 H 203.108 0.134591 -1.69165 0
M  V30 2162 H 201.88 0.640383 -3.86024 0
M  V30 2163 H 201.503 2.25287 -3.27615 0
M  V30 2164 N 202.5 1.5196 0.417844 0
M  V30 2165 C 203.777 1.56146 1.17803 0
M  V30 2166 C 204.157 0.337275 2.08388 0
M  V30 2167 O 203.505 -0.676447 2.18258 0
M  V30 2168 C 203.715 2.88566 1.96293 0
M  V30 2169 C 205.063 3.41244 2.52662 0
M  V30 2170 O 206.087 2.90247 2.06483 0
M  V30 2171 O 204.946 4.30273 3.36938 0
M  V30 2172 H 202.04 0.628598 0.537395 0
M  V30 2173 H 204.586 1.64283 0.425331 0
M  V30 2174 H 203.358 3.69116 1.2988 0
M  V30 2175 H 202.981 2.83681 2.78587 0
M  V30 2176 N 203.978 -0.674533 1.42435 0
M  V30 2177 C 204.941 -1.76986 1.45632 0
M  V30 2178 C 205.941 -1.5708 0.343871 0
M  V30 2179 O 207.131 -1.63367 0.604709 0
M  V30 2180 C 204.263 -3.15623 1.28822 0
M  V30 2181 H 205.456 -1.75539 2.43158 0
M  V30 2182 H 203.009 -0.884189 1.28887 0
M  V30 2183 H 203.744 -3.22696 0.322193 0
M  V30 2184 H 203.529 -3.31475 2.09444 0
M  V30 2185 H 205.019 -3.95537 1.33942 0
M  V30 2186 N 205.456 -1.28612 -0.910864 0
M  V30 2187 C 206.366 -1.14643 -2.0468 0
M  V30 2188 C 207.382 -0.0723121 -1.7385 0
M  V30 2189 O 208.558 -0.282178 -1.99413 0
M  V30 2190 C 205.623 -0.812561 -3.37044 0
M  V30 2191 C 204.684 -1.96935 -3.81465 0
M  V30 2192 C 203.917 -1.65131 -5.07511 0
M  V30 2193 O 204.14 -0.567013 -5.67575 0
M  V30 2194 O 203.074 -2.49585 -5.47714 0
M  V30 2195 H 206.9 -2.1001 -2.19384 0
M  V30 2196 H 204.485 -1.07958 -1.03274 0
M  V30 2197 H 206.367 -0.640441 -4.16505 0
M  V30 2198 H 205.042 0.111426 -3.23508 0
M  V30 2199 H 203.949 -2.19664 -3.02818 0
M  V30 2200 H 205.282 -2.87414 -3.99567 0
M  V30 2201 N 206.934 1.1197 -1.10907 0
M  V30 2202 C 208.159 1.87942 -0.877064 0
M  V30 2203 C 208.584 1.79341 0.567314 0
M  V30 2204 O 207.942 1.15184 1.40009 0
M  V30 2205 C 207.99 3.34926 -1.33629 0
M  V30 2206 O 207.094 4.09303 -0.504447 0
M  V30 2207 H 206.435 0.583785 -0.316371 0
M  V30 2208 H 208.965 1.4157 -1.47712 0
M  V30 2209 H 208.975 3.8577 -1.32837 0
M  V30 2210 H 207.65 3.40504 -2.3881 0
M  V30 2211 H 206.227 3.68393 -0.577993 0
M  V30 2212 N 208.412 0.89855 1.29475 0
M  V30 2213 C 209.689 0.443416 1.90508 0
M  V30 2214 C 210.069 -1.07685 1.81569 0
M  V30 2215 O 209.417 -1.9182 1.24166 0
M  V30 2216 C 209.627 0.956708 3.35631 0
M  V30 2217 C 210.975 0.999728 4.12663 0
M  V30 2218 O 211.999 0.904299 3.4453 0
M  V30 2219 O 210.858 1.14289 5.34416 0
M  V30 2220 H 207.952 0.138025 0.815401 0
M  V30 2221 H 210.498 0.98834 1.37949 0
M  V30 2222 H 209.27 2.00067 3.36287 0
M  V30 2223 H 208.893 0.391728 3.95666 0
M  V30 2224 N 209.89 -1.43072 0.660911 0
M  V30 2225 C 211.136 -2.0202 0.177708 0
M  V30 2226 C 211.469 -1.52066 -1.20787 0
M  V30 2227 O 210.744 -0.716987 -1.80802 0
M  V30 2228 C 211.027 -3.59561 0.197019 0
M  V30 2229 C 210.88 -4.19727 1.61706 0
M  V30 2230 C 212.199 -4.37664 -0.462396 0
M  V30 2231 H 209.318 -0.734034 0.0660494 0
M  V30 2232 H 211.96 -1.70272 0.843058 0
M  V30 2233 H 210.11 -3.86739 -0.369527 0
M  V30 2234 H 211.782 -4.03553 2.23479 0
M  V30 2235 H 210.025 -3.76084 2.16201 0
M  V30 2236 H 210.696 -5.28834 1.58237 0
M  V30 2237 H 213.172 -4.16095 0.0197215 0
M  V30 2238 H 212.048 -5.47305 -0.418188 0
M  V30 2239 H 212.309 -4.14493 -1.53778 0
M  V30 2240 N 211.368 -0.403325 -1.52352 0
M  V30 2241 C 212.784 -0.0539281 -1.59509 0
M  V30 2242 C 212.984 1.43307 -1.41652 0
M  V30 2243 O 212.04 2.19924 -1.24056 0
M  V30 2244 C 213.353 -0.543654 -2.95745 0
M  V30 2245 C 214.901 -0.501125 -3.08962 0
M  V30 2246 C 215.376 -0.967267 -4.47669 0
M  V30 2247 N 216.867 -0.923849 -4.53893 0
M  V30 2248 C 217.602 -1.25578 -5.5948 0
M  V30 2249 N 217.098 -1.65889 -6.72646 0
M  V30 2250 N 218.891 -1.17613 -5.49658 0
M  V30 2251 H 211.042 -1.37123 -1.62206 0
M  V30 2252 H 213.305 -0.56294 -0.76276 0
M  V30 2253 H 213.011 -1.58275 -3.14073 0
M  V30 2254 H 212.885 0.0498042 -3.77167 0
M  V30 2255 H 215.272 0.528909 -2.90321 0
M  V30 2256 H 215.353 -1.13056 -2.2946 0
M  V30 2257 H 214.997 -1.9956 -4.67053 0
M  V30 2258 H 214.927 -0.314698 -5.25659 0
M  V30 2259 H 217.418 -0.627403 -3.72655 0
M  V30 2260 H 217.731 -1.89543 -7.49195 0
M  V30 2261 H 216.076 -1.69787 -6.73942 0
M  V30 2262 H 219.267 -0.860115 -4.6013 0
M  V30 2263 H 219.44 -1.43812 -6.3184 0
M  V30 2264 N 212.846 1.57033 -0.133567 0
M  V30 2265 C 213.779 2.11824 0.848872 0
M  V30 2266 C 214.757 1.03833 1.2513 0
M  V30 2267 O 215.941 1.31579 1.34978 0
M  V30 2268 C 213.068 2.62692 2.138 0
M  V30 2269 C 212.114 3.82705 1.88253 0
M  V30 2270 S 212.947 5.2438 1.08563 0
M  V30 2271 C 214.103 5.78627 2.38624 0
M  V30 2272 H 214.336 2.94824 0.38289 0
M  V30 2273 H 211.869 1.5419 0.0804796 0
M  V30 2274 H 213.827 2.92652 2.87863 0
M  V30 2275 H 212.488 1.79847 2.57515 0
M  V30 2276 H 211.681 4.16496 2.83809 0
M  V30 2277 H 211.283 3.53437 1.22305 0
M  V30 2278 H 213.575 5.8924 3.34369 0
M  V30 2279 H 214.518 6.76443 2.09358 0
M  V30 2280 H 214.926 5.06783 2.48658 0
M  V30 2281 N 214.325 -0.140222 1.56975 0
M  V30 2282 C 215.571 -0.852949 1.83991 0
M  V30 2283 C 215.904 -1.80512 0.716187 0
M  V30 2284 O 215.179 -1.92479 -0.279681 0
M  V30 2285 C 215.462 -1.6215 3.21527 0
M  V30 2286 C 215.315 -0.690363 4.4447 0
M  V30 2287 C 216.634 -2.58247 3.56366 0
M  V30 2288 H 213.753 -0.308634 0.669264 0
M  V30 2289 H 216.395 -0.117898 1.89634 0
M  V30 2290 H 214.545 -2.24812 3.16847 0
M  V30 2291 H 216.217 -0.0742264 4.6124 0
M  V30 2292 H 214.46 -0.000396433 4.338 0
M  V30 2293 H 215.131 -1.2643 5.37326 0
M  V30 2294 H 217.607 -2.05701 3.61699 0
M  V30 2295 H 216.483 -3.09067 4.53617 0
M  V30 2296 H 216.744 -3.39923 2.82674 0
M  V30 2297 N 215.803 -1.52179 -0.40978 0
M  V30 2298 C 216.766 -1.74853 -1.48186 0
M  V30 2299 C 217.766 -0.618417 -1.48433 0
M  V30 2300 O 218.956 -0.886286 -1.49969 0
M  V30 2301 C 216.088 -1.8303 -2.87598 0
M  V30 2302 H 217.281 -2.70559 -1.29374 0
M  V30 2303 H 214.834 -1.42586 -0.640233 0
M  V30 2304 H 215.569 -0.89236 -3.11781 0
M  V30 2305 H 215.354 -2.65187 -2.88822 0
M  V30 2306 H 216.844 -2.02316 -3.65319 0
M  V30 2307 N 217.281 0.66697 -1.42791 0
M  V30 2308 C 218.558 1.4234 -1.34159 0
M  V30 2309 C 218.938 2.11093 0.0172729 0
M  V30 2310 O 218.286 2.03808 1.03318 0
M  V30 2311 C 218.496 2.41942 -2.51526 0
M  V30 2312 C 219.844 3.06353 -2.93995 0
M  V30 2313 O 220.868 2.52269 -2.51473 0
M  V30 2314 O 219.727 4.04376 -3.67617 0
M  V30 2315 H 216.821 0.635277 -0.529483 0
M  V30 2316 H 219.367 0.695034 -1.54814 0
M  V30 2317 H 218.139 1.89991 -3.42081 0
M  V30 2318 H 217.762 3.22249 -2.32898 0
M  V30 2319 N 218.759 1.29093 0.90403 0
M  V30 2320 C 219.669 1.15727 2.0407 0
M  V30 2321 C 220.685 0.0815308 1.73809 0
M  V30 2322 O 221.861 0.292749 1.99261 0
M  V30 2323 C 218.926 0.830424 3.36608 0
M  V30 2324 C 217.987 1.98955 3.80415 0
M  V30 2325 C 217.22 1.6782 5.06628 0
M  V30 2326 O 217.443 0.597105 5.67266 0
M  V30 2327 O 216.377 2.52486 5.46383 0
M  V30 2328 H 220.203 2.11171 2.18267 0
M  V30 2329 H 217.788 1.08504 1.027 0
M  V30 2330 H 219.67 0.662521 4.16159 0
M  V30 2331 H 218.345 -0.0942678 3.23563 0
M  V30 2332 H 217.252 2.21267 3.01648 0
M  V30 2333 H 218.585 2.89529 3.98037 0
M  V30 2334 N 220.237 -1.11381 1.11499 0
M  V30 2335 C 221.477 -1.84763 0.874188 0
M  V30 2336 C 221.841 -1.82726 -0.589496 0
M  V30 2337 O 223.042 -2.51562 -0.947089 0
M  V30 2338 C 221.313 -3.27931 1.42112 0
M  V30 2339 S 222.872 -4.18557 1.31739 0
M  V30 2340 H 219.69 -0.637115 0.315603 0
M  V30 2341 H 222.292 -1.34097 1.42261 0
M  V30 2342 H 220.996 -3.26978 2.48019 0
M  V30 2343 H 220.527 -3.83665 0.869761 0
M  V30 2344 H 222.542 -4.95396 0.282335 0
M  V30 2345 N 221.715 -0.905404 -1.28997 0
M  V30 2346 C 222.645 -0.404212 -2.29975 0
M  V30 2347 C 223.626 0.523784 -1.61835 0
M  V30 2348 O 224.811 0.433298 -1.89304 0
M  V30 2349 C 221.941 0.364042 -3.45387 0
M  V30 2350 C 220.895 -0.474048 -4.25367 0
M  V30 2351 C 220.221 0.422045 -5.33032 0
M  V30 2352 C 221.521 -1.72696 -4.92923 0
M  V30 2353 H 223.215 -1.24807 -2.72146 0
M  V30 2354 H 220.761 -0.601585 -1.30832 0
M  V30 2355 H 222.714 0.725447 -4.15109 0
M  V30 2356 H 221.438 1.24174 -3.02074 0
M  V30 2357 H 220.097 -0.81786 -3.57361 0
M  V30 2358 H 219.745 1.29804 -4.85963 0
M  V30 2359 H 219.445 -0.135057 -5.87445 0
M  V30 2360 H 220.969 0.779517 -6.05604 0
M  V30 2361 H 222.383 -1.43495 -5.55051 0
M  V30 2362 H 220.78 -2.22582 -5.57295 0
M  V30 2363 H 221.85 -2.45964 -4.17887 0
M  V30 2364 N 223.193 1.4272 -0.668489 0
M  V30 2365 C 224.141 2.32586 0.0254857 0
M  V30 2366 C 225.135 1.49471 0.797176 0
M  V30 2367 O 226.341 1.65583 0.705853 0
M  V30 2368 H 222.716 0.751514 0.0270339 0
M  V30 2369 H 224.687 2.88823 -0.749936 0
M  V30 2370 C 223.436 3.3397 0.967427 0
M  V30 2371 H 222.759 3.97961 0.383048 0
M  V30 2372 H 224.199 3.9945 1.42181 0
M  V30 2373 C 222.658 2.65744 2.0708 0
M  V30 2374 O 223.188 2.48454 3.15648 0
M  V30 2375 N 221.394 2.2487 1.8407 0
M  V30 2376 H 220.941 2.39132 0.95778 0
M  V30 2377 H 220.899 1.79552 2.58086 0
M  V30 2378 N 224.671 0.411399 1.52136 0
M  V30 2379 C 225.618 -0.412975 2.27075 0
M  V30 2380 C 226.588 -1.03912 1.29582 0
M  V30 2381 O 227.773 -1.06296 1.58448 0
M  V30 2382 C 224.913 -1.52247 3.09701 0
M  V30 2383 C 224.026 -0.917021 4.22155 0
M  V30 2384 C 223.161 -1.9994 4.92135 0
M  V30 2385 C 222.2 -1.37101 5.96548 0
M  V30 2386 N 221.337 -2.39364 6.60038 0
M  V30 2387 H 226.177 0.232499 2.97092 0
M  V30 2388 H 223.714 0.126496 1.46555 0
M  V30 2389 H 225.672 -2.17674 3.55913 0
M  V30 2390 H 224.302 -2.13794 2.41851 0
M  V30 2391 H 223.354 -0.151742 3.80097 0
M  V30 2392 H 224.666 -0.418006 4.97045 0
M  V30 2393 H 223.82 -2.73088 5.41763 0
M  V30 2394 H 222.559 -2.53208 4.16818 0
M  V30 2395 H 221.564 -0.624873 5.46237 0
M  V30 2396 H 222.789 -0.845998 6.7381 0
M  V30 2397 H 220.735 -2.91759 5.87548 0
M  V30 2398 H 220.652 -1.9428 7.3061 0
M  V30 2399 H 221.92 -3.12074 7.14304 0
M  V30 2400 N 226.149 -1.5696 0.141893 0
M  V30 2401 C 227.395 -1.9625 -0.511248 0
M  V30 2402 C 227.728 -1.02654 -1.64851 0
M  V30 2403 O 227.003 -0.0679676 -1.94381 0
M  V30 2404 C 227.286 -3.45285 -1.02227 0
M  V30 2405 C 227.139 -4.49658 0.113138 0
M  V30 2406 C 228.458 -3.96698 -1.90574 0
M  V30 2407 H 225.577 -0.713567 -0.184367 0
M  V30 2408 H 228.219 -1.88698 0.222087 0
M  V30 2409 H 226.369 -3.51852 -1.64719 0
M  V30 2410 H 228.041 -4.55174 0.749302 0
M  V30 2411 H 226.284 -4.26857 0.773026 0
M  V30 2412 H 226.955 -5.51258 -0.286053 0
M  V30 2413 H 229.431 -3.92578 -1.37918 0
M  V30 2414 H 228.307 -5.01453 -2.2324 0
M  V30 2415 H 228.568 -3.3875 -2.84079 0
M  V30 2416 N 227.627 0.131896 -1.57047 0
M  V30 2417 C 228.876 0.84044 -1.83356 0
M  V30 2418 C 229.189 1.81646 -0.725535 0
M  V30 2419 O 230.395 2.57025 -0.874659 0
M  V30 2420 C 228.851 1.54528 -3.25037 0
M  V30 2421 C 228.459 0.610902 -4.43815 0
M  V30 2422 C 230.203 2.23972 -3.60606 0
M  V30 2423 C 228.11 1.31823 -5.76521 0
M  V30 2424 H 227.04 0.317599 -0.683847 0
M  V30 2425 H 229.691 0.0931561 -1.83263 0
M  V30 2426 H 228.073 2.33873 -3.19561 0
M  V30 2427 H 229.247 -0.148407 -4.60561 0
M  V30 2428 H 227.562 0.0241016 -4.16393 0
M  V30 2429 H 230.159 2.77558 -4.57018 0
M  V30 2430 H 230.502 3.01173 -2.87403 0
M  V30 2431 H 231.035 1.51529 -3.6781 0
M  V30 2432 H 227.774 0.587771 -6.52859 0
M  V30 2433 H 227.294 2.04987 -5.63685 0
M  V30 2434 H 228.973 1.855 -6.19838 0
M  V30 2435 N 229.106 1.52395 0.401703 0
M  V30 2436 C 230.053 1.76268 1.48991 0
M  V30 2437 C 231.023 0.605386 1.54675 0
M  V30 2438 O 232.208 0.843742 1.7113 0
M  V30 2439 C 229.348 1.92592 2.86361 0
M  V30 2440 C 228.461 3.20259 2.89928 0
M  V30 2441 C 227.596 3.26972 4.18644 0
M  V30 2442 C 226.635 4.48812 4.16214 0
M  V30 2443 N 225.772 4.52877 5.36514 0
M  V30 2444 H 230.612 2.6914 1.27935 0
M  V30 2445 H 228.149 1.33355 0.620871 0
M  V30 2446 H 230.107 2.0004 3.66115 0
M  V30 2447 H 228.737 1.03093 3.05895 0
M  V30 2448 H 227.789 3.21945 2.02621 0
M  V30 2449 H 229.101 4.10056 2.83999 0
M  V30 2450 H 228.255 3.33533 5.06794 0
M  V30 2451 H 226.994 2.35126 4.27278 0
M  V30 2452 H 225.999 4.4239 3.26453 0
M  V30 2453 H 227.224 5.41961 4.09213 0
M  V30 2454 H 225.17 3.63917 5.45802 0
M  V30 2455 H 225.087 5.36529 5.32609 0
M  V30 2456 H 226.355 4.63676 6.26597 0
M  V30 2457 N 230.584 -0.659388 1.43143 0
M  V30 2458 C 231.547 -1.75432 1.47501 0
M  V30 2459 C 232.547 -1.56707 0.360512 0
M  V30 2460 O 233.737 -1.62717 0.622002 0
M  V30 2461 C 230.869 -3.14239 1.32162 0
M  V30 2462 H 232.062 -1.7295 2.45006 0
M  V30 2463 H 229.615 -0.870469 1.29817 0
M  V30 2464 H 230.35 -3.22336 0.356401 0
M  V30 2465 H 230.135 -3.29235 2.12948 0
M  V30 2466 H 231.625 -3.94094 1.3813 0
M  V30 2467 N 232.062 -1.29571 -0.897171 0
M  V30 2468 C 232.992 -1.17473 -2.01798 0
M  V30 2469 C 233.973 -0.068323 -1.69963 0
M  V30 2470 O 235.158 -0.248239 -1.92607 0
M  V30 2471 C 232.288 -0.853099 -3.36659 0
M  V30 2472 C 231.242 -1.9161 -3.82713 0
M  V30 2473 C 230.568 -1.44773 -5.14728 0
M  V30 2474 C 231.868 -3.32535 -4.02763 0
M  V30 2475 H 233.562 -2.11237 -2.12177 0
M  V30 2476 H 231.108 -1.01699 -1.01948 0
M  V30 2477 H 233.061 -0.755165 -4.14578 0
M  V30 2478 H 231.785 0.120236 -3.26379 0
M  V30 2479 H 230.444 -2.00346 -3.07013 0
M  V30 2480 H 230.092 -0.462995 -5.00865 0
M  V30 2481 H 229.792 -2.15865 -5.46513 0
M  V30 2482 H 231.316 -1.36334 -5.95185 0
M  V30 2483 H 232.73 -3.26626 -4.71156 0
M  V30 2484 H 231.127 -4.01607 -4.45905 0
M  V30 2485 H 232.197 -3.75326 -3.07016 0
M  V30 2486 N 233.54 1.10788 -1.12088 0
M  V30 2487 C 234.473 2.16237 -0.729168 0
M  V30 2488 C 235.451 1.60207 0.277921 0
M  V30 2489 O 236.635 1.87707 0.172737 0
M  V30 2490 C 233.762 3.38609 -0.0786848 0
M  V30 2491 C 232.808 4.13322 -1.05201 0
M  V30 2492 S 233.641 4.69371 -2.57781 0
M  V30 2493 C 234.797 5.95058 -1.94053 0
M  V30 2494 H 235.03 2.4913 -1.62239 0
M  V30 2495 H 232.563 1.22519 -0.939603 0
M  V30 2496 H 234.521 4.09473 0.290254 0
M  V30 2497 H 233.182 3.03962 0.791593 0
M  V30 2498 H 232.375 5.01051 -0.544433 0
M  V30 2499 H 231.977 3.48251 -1.36371 0
M  V30 2500 H 234.269 6.65278 -1.28107 0
M  V30 2501 H 235.212 6.50472 -2.79807 0
M  V30 2502 H 235.62 5.46918 -1.39787 0
M  V30 2503 N 235.018 0.912232 1.28515 0
M  V30 2504 C 236.295 0.463597 1.90027 0
M  V30 2505 C 236.675 -1.05753 1.82701 0
M  V30 2506 O 236.023 -1.90492 1.26194 0
M  V30 2507 C 236.233 0.992253 3.34597 0
M  V30 2508 C 237.581 1.04344 4.11579 0
M  V30 2509 O 238.605 0.94079 3.43551 0
M  V30 2510 O 237.464 1.1995 5.33174 0
M  V30 2511 H 234.558 0.146666 0.813891 0
M  V30 2512 H 237.104 1.00292 1.36893 0
M  V30 2513 H 235.876 2.03623 3.34146 0
M  V30 2514 H 235.499 0.433672 3.95228 0
M  V30 2515 N 236.496 -1.42363 0.676048 0
M  V30 2516 C 237.721 -2.06377 0.205705 0
M  V30 2517 C 238.146 -1.50463 -1.12883 0
M  V30 2518 O 237.504 -0.623619 -1.70237 0
M  V30 2519 C 237.552 -3.60277 0.152655 0
M  V30 2520 O 236.656 -4.02935 -0.87845 0
M  V30 2521 H 235.997 -0.655588 0.105359 0
M  V30 2522 H 238.527 -1.82475 0.925412 0
M  V30 2523 H 238.537 -4.07993 -0.0230675 0
M  V30 2524 H 237.212 -4.00346 1.12675 0
M  V30 2525 H 235.789 -3.66764 -0.673668 0
M  V30 2526 N 237.974 -0.419461 -1.51915 0
M  V30 2527 C 238.922 0.415502 -2.28859 0
M  V30 2528 C 239.916 1.03674 -1.3397 0
M  V30 2529 O 241.122 0.973757 -1.51387 0
M  V30 2530 H 237.497 0.152786 -0.736315 0
M  V30 2531 H 239.468 -0.254531 -2.97312 0
M  V30 2532 C 238.217 1.51425 -3.12995 0
M  V30 2533 H 237.54 1.04556 -3.85886 0
M  V30 2534 H 238.98 2.07208 -3.6992 0
M  V30 2535 C 237.439 2.48745 -2.27217 0
M  V30 2536 O 237.969 3.52871 -1.9195 0
M  V30 2537 N 236.175 2.19202 -1.90785 0
M  V30 2538 H 235.722 1.34556 -2.19664 0
M  V30 2539 H 235.68 2.84561 -1.33687 0
M  V30 2540 N 239.452 1.56882 -0.150215 0
M  V30 2541 C 240.382 2.19935 0.784284 0
M  V30 2542 C 241.363 1.14854 1.25469 0
M  V30 2543 O 242.548 1.43209 1.31168 0
M  V30 2544 C 239.678 2.82349 2.02229 0
M  V30 2545 C 238.632 3.93285 1.68853 0
M  V30 2546 C 237.958 4.42649 2.99944 0
M  V30 2547 C 239.258 5.13904 0.932714 0
M  V30 2548 H 240.952 2.9828 0.258781 0
M  V30 2549 H 238.498 1.43473 0.123029 0
M  V30 2550 H 240.451 3.25126 2.68088 0
M  V30 2551 H 239.175 2.0134 2.57157 0
M  V30 2552 H 237.834 3.5113 1.05371 0
M  V30 2553 H 237.482 3.58458 3.52869 0
M  V30 2554 H 237.182 5.17476 2.78374 0
M  V30 2555 H 238.706 4.88099 3.66868 0
M  V30 2556 H 240.12 5.53506 1.49345 0
M  V30 2557 H 238.517 5.94515 0.81684 0
M  V30 2558 H 239.587 4.84842 -0.0749568 0
M  V30 2559 N 240.93 -0.123565 1.57115 0
M  V30 2560 C 242.341 -0.681198 1.73829 0
M  V30 2561 C 242.692 -1.80535 0.768214 0
M  V30 2562 O 241.817 -2.16317 -0.0599103 0
M  V30 2563 C 242.412 -1.24246 3.15196 0
M  V30 2564 C 240.971 -1.74643 3.33432 0
M  V30 2565 C 240.118 -0.644284 2.69711 0
M  V30 2566 H 243.069 0.102315 1.5837 0
M  V30 2567 H 243.09 -2.11216 3.16493 0
M  V30 2568 H 242.602 -0.424062 3.85776 0
M  V30 2569 H 240.703 -2.58974 2.67886 0
M  V30 2570 H 240.816 -1.85902 4.41562 0
M  V30 2571 H 239.18 -1.07676 2.3082 0
M  V30 2572 H 239.963 0.163058 3.42913 0
M  V30 2573 N 242.408 -1.52605 -0.393616 0
M  V30 2574 C 243.824 -1.41753 -0.733357 0
M  V30 2575 C 244.024 -0.534293 -1.94287 0
M  V30 2576 O 243.08 -0.0059787 -2.52499 0
M  V30 2577 C 244.393 -2.84531 -0.972772 0
M  V30 2578 C 245.941 -2.93978 -1.07453 0
M  V30 2579 C 246.416 -4.37756 -1.3466 0
M  V30 2580 N 247.907 -4.4106 -1.41492 0
M  V30 2581 C 248.642 -5.49387 -1.642 0
M  V30 2582 N 248.138 -6.67806 -1.8441 0
M  V30 2583 N 249.931 -5.36923 -1.66342 0
M  V30 2584 H 242.082 -2.08555 0.402328 0
M  V30 2585 H 244.345 -0.940654 0.117789 0
M  V30 2586 H 244.051 -3.51353 -0.156204 0
M  V30 2587 H 243.925 -3.26508 -1.88871 0
M  V30 2588 H 246.312 -2.27326 -1.88167 0
M  V30 2589 H 246.393 -2.55435 -0.136605 0
M  V30 2590 H 246.037 -5.04972 -0.544581 0
M  V30 2591 H 245.967 -4.73848 -2.2973 0
M  V30 2592 H 248.458 -3.55705 -1.27601 0
M  V30 2593 H 248.771 -7.46141 -2.01231 0
M  V30 2594 H 247.116 -6.70843 -1.81644 0
M  V30 2595 H 250.307 -4.43381 -1.50102 0
M  V30 2596 H 250.48 -6.21416 -1.837 0
M  V30 2597 N 243.887 0.651787 -1.4349 0
M  V30 2598 C 244.817 1.77621 -1.51569 0
M  V30 2599 C 245.798 1.66022 -0.370253 0
M  V30 2600 O 246.983 1.85095 -0.587658 0
M  V30 2601 C 244.113 3.16056 -1.43966 0
M  V30 2602 C 243.067 3.4242 -2.56774 0
M  V30 2603 C 242.393 4.8067 -2.34223 0
M  V30 2604 C 243.693 3.37023 -3.99015 0
M  V30 2605 H 245.387 1.71117 -2.45681 0
M  V30 2606 H 242.933 0.821825 -1.18246 0
M  V30 2607 H 244.886 3.94472 -1.48221 0
M  V30 2608 H 243.61 3.23293 -0.463586 0
M  V30 2609 H 242.269 2.66375 -2.51873 0
M  V30 2610 H 241.917 4.84585 -1.34856 0
M  V30 2611 H 241.617 4.9927 -3.09844 0
M  V30 2612 H 243.141 5.61342 -2.40265 0
M  V30 2613 H 244.555 4.05374 -4.05395 0
M  V30 2614 H 242.952 3.67159 -4.74673 0
M  V30 2615 H 244.022 2.3518 -4.2405 0
M  V30 2616 N 245.365 1.30045 0.890287 0
M  V30 2617 C 246.297 1.11786 2.00091 0
M  V30 2618 C 247.31 0.0626307 1.62679 0
M  V30 2619 O 248.499 0.308112 1.75821 0
M  V30 2620 C 245.599 0.681527 3.31977 0
M  V30 2621 C 244.772 1.81735 3.97858 0
M  V30 2622 C 243.831 1.37045 5.08041 0
M  V30 2623 O 242.857 2.07677 5.29961 0
M  V30 2624 N 244.059 0.246525 5.79976 0
M  V30 2625 H 246.824 2.07441 2.16306 0
M  V30 2626 H 244.385 1.2211 1.06305 0
M  V30 2627 H 246.377 0.365675 4.03045 0
M  V30 2628 H 244.947 -0.182828 3.12065 0
M  V30 2629 H 244.167 2.30159 3.20032 0
M  V30 2630 H 245.455 2.57865 4.38615 0
M  V30 2631 H 244.853 -0.34215 5.64664 0
M  V30 2632 H 243.41 -0.00990438 6.51799 0
M  V30 2633 N 246.843 -1.10192 1.12674 0
M  V30 2634 C 247.773 -2.18652 0.819362 0
M  V30 2635 C 248.754 -1.68698 -0.217915 0
M  V30 2636 O 249.939 -1.94041 -0.0785581 0
M  V30 2637 C 247.069 -3.46202 0.27594 0
M  V30 2638 C 246.023 -4.09444 1.24656 0
M  V30 2639 C 245.349 -5.31725 0.563258 0
M  V30 2640 C 246.649 -4.52863 2.60217 0
M  V30 2641 H 248.343 -2.44622 1.72628 0
M  V30 2642 H 245.889 -1.17571 0.831451 0
M  V30 2643 H 247.842 -4.21372 0.0486149 0
M  V30 2644 H 246.566 -3.1973 -0.666331 0
M  V30 2645 H 245.225 -3.36284 1.45974 0
M  V30 2646 H 244.873 -5.0153 -0.384235 0
M  V30 2647 H 244.573 -5.74991 1.21075 0
M  V30 2648 H 246.097 -6.09624 0.34503 0
M  V30 2649 H 247.511 -5.19294 2.42913 0
M  V30 2650 H 245.908 -5.06986 3.21068 0
M  V30 2651 H 246.978 -3.65656 3.18471 0
M  V30 2652 N 248.321 -0.919034 -1.28029 0
M  V30 2653 C 249.231 -0.416756 -2.30869 0
M  V30 2654 C 250.247 0.498235 -1.66714 0
M  V30 2655 O 251.423 0.383144 -1.97722 0
M  V30 2656 C 248.488 0.330274 -3.45123 0
M  V30 2657 C 247.549 -0.618578 -4.2482 0
M  V30 2658 C 246.782 0.0928959 -5.33619 0
M  V30 2659 O 247.005 1.31375 -5.55065 0
M  V30 2660 O 245.939 -0.574499 -5.99152 0
M  V30 2661 H 249.765 -1.27043 -2.75851 0
M  V30 2662 H 247.35 -0.684052 -1.3282 0
M  V30 2663 H 249.232 0.751972 -4.14636 0
M  V30 2664 H 247.907 1.1597 -3.02213 0
M  V30 2665 H 246.814 -1.08978 -3.57875 0
M  V30 2666 H 248.147 -1.41497 -4.71423 0
M  V30 2667 N 249.799 1.42003 -0.683588 0
M  V30 2668 C 250.729 2.33487 -0.024866 0
M  V30 2669 C 251.71 1.51163 0.779975 0
M  V30 2670 O 252.895 1.79739 0.735362 0
M  V30 2671 C 250.025 3.3487 0.920836 0
M  V30 2672 C 248.979 4.27414 0.223958 0
M  V30 2673 C 248.305 5.19074 1.2832 0
M  V30 2674 C 249.605 5.14445 -0.90242 0
M  V30 2675 H 251.299 2.88819 -0.788921 0
M  V30 2676 H 248.845 1.38873 -0.38083 0
M  V30 2677 H 250.798 3.97787 1.39081 0
M  V30 2678 H 249.522 2.77861 1.71642 0
M  V30 2679 H 248.181 3.65904 -0.225864 0
M  V30 2680 H 247.829 4.58387 2.071 0
M  V30 2681 H 247.529 5.81822 0.821995 0
M  V30 2682 H 249.053 5.84867 1.75392 0
M  V30 2683 H 250.467 5.70998 -0.513272 0
M  V30 2684 H 248.864 5.86072 -1.28997 0
M  V30 2685 H 249.934 4.52322 -1.74737 0
M  V30 2686 N 251.277 0.427512 1.51691 0
M  V30 2687 C 252.507 -0.140986 2.06118 0
M  V30 2688 C 252.915 -1.37854 1.29588 0
M  V30 2689 O 252.258 -1.80411 0.346036 0
M  V30 2690 C 252.32 -0.538276 3.55447 0
M  V30 2691 C 251.984 0.591095 4.53161 0
M  V30 2692 C 252.981 1.46027 4.98971 0
M  V30 2693 C 250.666 0.769028 4.96378 0
M  V30 2694 C 252.66 2.49216 5.8666 0
M  V30 2695 C 250.347 1.80421 5.83859 0
M  V30 2696 C 251.345 2.66417 6.28897 0
M  V30 2697 O 251.033 3.68159 7.14643 0
M  V30 2698 H 250.765 -0.0157455 0.675817 0
M  V30 2699 H 253.319 0.602495 1.96365 0
M  V30 2700 H 251.549 -1.33432 3.6295 0
M  V30 2701 H 253.238 -1.0368 3.92435 0
M  V30 2702 H 254.004 1.33429 4.66285 0
M  V30 2703 H 249.883 0.109273 4.6087 0
M  V30 2704 H 253.427 3.16372 6.21735 0
M  V30 2705 H 249.324 1.93042 6.15959 0
M  V30 2706 H 250.092 3.64622 7.32798 0
M  V30 2707 N 252.755 -1.56801 0.158532 0
M  V30 2708 C 253.702 -2.17337 -0.776729 0
M  V30 2709 C 254.672 -1.1096 -1.23601 0
M  V30 2710 O 255.857 -1.39054 -1.30647 0
M  V30 2711 C 252.997 -2.80822 -2.00582 0
M  V30 2712 C 252.11 -4.01624 -1.59129 0
M  V30 2713 C 251.245 -4.53072 -2.77306 0
M  V30 2714 C 250.284 -5.66314 -2.32282 0
M  V30 2715 N 249.421 -6.12329 -3.43508 0
M  V30 2716 H 254.261 -2.96918 -0.253701 0
M  V30 2717 H 251.798 -1.46661 -0.113504 0
M  V30 2718 H 253.756 -3.15779 -2.72652 0
M  V30 2719 H 252.386 -2.03866 -2.50277 0
M  V30 2720 H 251.438 -3.72571 -0.767806 0
M  V30 2721 H 252.75 -4.83633 -1.2207 0
M  V30 2722 H 251.904 -4.90145 -3.57551 0
M  V30 2723 H 250.643 -3.70095 -3.17617 0
M  V30 2724 H 249.648 -5.28806 -1.5048 0
M  V30 2725 H 250.873 -6.51085 -1.93043 0
M  V30 2726 H 248.819 -5.32284 -3.83418 0
M  V30 2727 H 248.736 -6.89293 -3.105 0
M  V30 2728 H 250.004 -6.5405 -4.24075 0
M  V30 2729 N 254.233 0.115231 -1.57178 0
M  V30 2730 C 255.143 1.15994 -2.03918 0
M  V30 2731 C 256.159 1.45103 -0.960268 0
M  V30 2732 O 257.335 1.56144 -1.27204 0
M  V30 2733 C 254.4 2.46568 -2.43732 0
M  V30 2734 C 253.461 2.24822 -3.65723 0
M  V30 2735 C 252.694 3.4917 -4.03629 0
M  V30 2736 O 252.917 4.56623 -3.41835 0
M  V30 2737 O 251.851 3.39949 -4.96708 0
M  V30 2738 H 255.677 0.793019 -2.93164 0
M  V30 2739 H 253.262 0.3263 -1.45793 0
M  V30 2740 H 255.144 3.23492 -2.70057 0
M  V30 2741 H 253.819 2.82726 -1.57631 0
M  V30 2742 H 252.726 1.45744 -3.44542 0
M  V30 2743 H 254.059 1.93566 -4.52541 0
M  V30 2744 N 255.711 1.52812 0.385517 0
M  V30 2745 C 256.96 1.67249 1.12741 0
M  V30 2746 C 257.273 0.4205 1.91027 0
M  V30 2747 O 258.479 0.445064 2.67827 0
M  V30 2748 C 256.935 2.95583 2.05326 0
M  V30 2749 C 256.543 4.27974 1.32447 0
M  V30 2750 C 258.287 3.19386 2.7963 0
M  V30 2751 C 256.194 5.47412 2.23818 0
M  V30 2752 H 255.124 0.6231 0.424573 0
M  V30 2753 H 257.775 1.79309 0.389924 0
M  V30 2754 H 256.157 2.77277 2.82725 0
M  V30 2755 H 257.331 4.56844 0.602495 0
M  V30 2756 H 255.646 4.10459 0.700885 0
M  V30 2757 H 258.243 4.05801 3.48181 0
M  V30 2758 H 258.586 2.34604 3.43899 0
M  V30 2759 H 259.119 3.38274 2.09322 0
M  V30 2760 H 255.858 6.34612 1.64157 0
M  V30 2761 H 255.378 5.22849 2.93921 0
M  V30 2762 H 257.057 5.81423 2.83824 0
M  V30 2763 N 257.189 -0.644168 1.43834 0
M  V30 2764 C 258.136 -1.75671 1.49694 0
M  V30 2765 C 259.106 -1.6246 0.345809 0
M  V30 2766 O 260.291 -1.82573 0.554234 0
M  V30 2767 C 257.431 -3.13867 1.43463 0
M  V30 2768 C 256.544 -3.38147 2.6885 0
M  V30 2769 C 255.679 -4.66241 2.54544 0
M  V30 2770 C 254.718 -4.83657 3.75157 0
M  V30 2771 N 253.855 -6.03016 3.59605 0
M  V30 2772 H 258.695 -1.69998 2.44754 0
M  V30 2773 H 256.232 -0.829458 1.21484 0
M  V30 2774 H 258.19 -3.9377 1.37843 0
M  V30 2775 H 256.82 -3.18588 0.519783 0
M  V30 2776 H 255.872 -2.52276 2.84712 0
M  V30 2777 H 257.184 -3.46899 3.58417 0
M  V30 2778 H 256.338 -5.54285 2.46683 0
M  V30 2779 H 255.077 -4.59826 1.62516 0
M  V30 2780 H 254.082 -3.94046 3.83416 0
M  V30 2781 H 255.307 -4.91896 4.68204 0
M  V30 2782 H 253.253 -5.97715 2.7032 0
M  V30 2783 H 253.17 -6.12766 4.42779 0
M  V30 2784 H 254.438 -6.93657 3.55613 0
M  V30 2785 N 258.668 -1.30515 -0.883378 0
M  V30 2786 C 259.615 -1.17032 -1.98927 0
M  V30 2787 C 260.585 -0.0594241 -1.65994 0
M  V30 2788 O 261.77 -0.229895 -1.8941 0
M  V30 2789 C 258.91 -0.869777 -3.33959 0
M  V30 2790 C 258.023 -2.06271 -3.79574 0
M  V30 2791 C 257.158 -1.70011 -5.03259 0
M  V30 2792 C 256.197 -2.8579 -5.41286 0
M  V30 2793 N 255.334 -2.49816 -6.56153 0
M  V30 2794 H 260.174 -2.1164 -2.09792 0
M  V30 2795 H 257.711 -1.05296 -1.02719 0
M  V30 2796 H 259.669 -0.676138 -4.11685 0
M  V30 2797 H 258.299 0.0394332 -3.22776 0
M  V30 2798 H 257.351 -2.36755 -2.97744 0
M  V30 2799 H 258.663 -2.92971 -4.03694 0
M  V30 2800 H 257.817 -1.47032 -5.88614 0
M  V30 2801 H 256.556 -0.804829 -4.81013 0
M  V30 2802 H 255.561 -3.09434 -4.54456 0
M  V30 2803 H 256.786 -3.76008 -5.65504 0
M  V30 2804 H 254.732 -1.62795 -6.35479 0
M  V30 2805 H 254.649 -3.30048 -6.8015 0
M  V30 2806 H 255.917 -2.30197 -7.44735 0
M  V30 2807 N 260.146 1.09593 -1.13257 0
M  V30 2808 C 261.094 2.18271 -0.803783 0
M  V30 2809 C 262.088 1.68054 0.213148 0
M  V30 2810 O 263.294 1.79862 0.0704699 0
M  V30 2811 H 259.669 0.711949 -0.242143 0
M  V30 2812 H 261.64 2.43235 -1.72856 0
M  V30 2813 C 260.389 3.46536 -0.28424 0
M  V30 2814 H 259.712 3.85545 -1.05807 0
M  V30 2815 H 261.152 4.23899 -0.0925945 0
M  V30 2816 C 259.611 3.22036 0.989684 0
M  V30 2817 O 260.141 3.44509 2.06584 0
M  V30 2818 N 258.347 2.7565 0.920086 0
M  V30 2819 H 257.894 2.57562 0.0442019 0
M  V30 2820 H 257.852 2.59635 1.77306 0
M  V30 2821 N 261.624 0.925811 1.2754 0
M  V30 2822 C 262.872 0.564138 1.94067 0
M  V30 2823 C 263.193 -0.897188 1.73134 0
M  V30 2824 O 262.463 -1.63573 1.07799 0
M  V30 2825 H 261.043 0.205645 0.718136 0
M  V30 2826 H 263.705 1.1778 1.55287 0
M  V30 2827 H 262.801 0.76881 3.02483 0
M  V30 2828 N 263.102 -1.41638 0.69111 0
M  V30 2829 C 264.065 -2.29178 0.0319786 0
M  V30 2830 C 265.065 -1.44153 -0.712496 0
M  V30 2831 O 266.255 -1.65354 -0.548053 0
M  V30 2832 C 263.387 -3.26952 -0.965161 0
M  V30 2833 H 264.58 -2.88959 0.802681 0
M  V30 2834 H 262.133 -1.4955 0.454356 0
M  V30 2835 H 262.868 -2.72142 -1.76378 0
M  V30 2836 H 262.653 -3.89685 -0.434522 0
M  V30 2837 H 264.143 -3.92561 -1.42428 0
M  V30 2838 N 264.58 -0.43555 -1.51462 0
M  V30 2839 C 265.991 0.0279871 -1.86679 0
M  V30 2840 C 266.342 1.42104 -1.35281 0
M  V30 2841 O 265.467 2.04667 -0.702878 0
M  V30 2842 C 266.062 0.0575626 -3.38751 0
M  V30 2843 C 264.621 0.465507 -3.7351 0
M  V30 2844 C 263.768 -0.342996 -2.75171 0
M  V30 2845 H 266.719 -0.651473 -1.44712 0
M  V30 2846 H 266.74 0.867421 -3.70481 0
M  V30 2847 H 266.252 -0.956448 -3.7613 0
M  V30 2848 H 264.353 1.48519 -3.41721 0
M  V30 2849 H 264.466 0.191546 -4.78717 0
M  V30 2850 H 262.83 0.198442 -2.53926 0
M  V30 2851 H 263.613 -1.35585 -3.15391 0
M  V30 2852 N 266.058 1.56714 -0.166846 0
M  V30 2853 C 267.474 1.58473 0.189372 0
M  V30 2854 C 267.674 1.18201 1.63189 0
M  V30 2855 O 266.73 0.891528 2.36237 0
M  V30 2856 C 268.043 3.00573 -0.0873872 0
M  V30 2857 C 269.591 3.1299 -0.0252443 0
M  V30 2858 C 270.066 4.57174 -0.274934 0
M  V30 2859 N 271.557 4.62665 -0.222553 0
M  V30 2860 C 272.292 5.72072 -0.389985 0
M  V30 2861 N 271.788 6.90054 -0.616229 0
M  V30 2862 N 273.581 5.61153 -0.326202 0
M  V30 2863 H 265.732 1.8118 -1.10849 0
M  V30 2864 H 267.995 0.839525 -0.440342 0
M  V30 2865 H 267.701 3.34497 -1.0865 0
M  V30 2866 H 267.575 3.72019 0.623037 0
M  V30 2867 H 269.962 2.78895 0.96444 0
M  V30 2868 H 270.043 2.43989 -0.768309 0
M  V30 2869 H 269.687 4.91976 -1.26181 0
M  V30 2870 H 269.617 5.24328 0.48869 0
M  V30 2871 H 272.108 3.77863 -0.0531512 0
M  V30 2872 H 272.421 7.69311 -0.733559 0
M  V30 2873 H 270.766 6.91927 -0.652791 0
M  V30 2874 H 273.957 4.67859 -0.150072 0
M  V30 2875 H 274.13 6.46364 -0.460116 0
M  V30 2876 N 267.536 -0.106894 1.57237 0
M  V30 2877 C 268.761 -0.830287 1.90055 0
M  V30 2878 C 269.186 -1.72064 0.75998 0
M  V30 2879 O 268.544 -1.78982 -0.288991 0
M  V30 2880 C 268.592 -1.6295 3.21683 0
M  V30 2881 O 267.696 -2.73748 3.08441 0
M  V30 2882 H 267.037 -0.228855 0.623315 0
M  V30 2883 H 269.567 -0.085658 2.04421 0
M  V30 2884 H 269.577 -2.01621 3.54701 0
M  V30 2885 H 268.252 -0.975989 4.04286 0
M  V30 2886 H 266.829 -2.38192 2.86913 0
M  V30 2887 N 269.014 -1.53014 -0.377408 0
M  V30 2888 C 269.944 -1.81589 -1.46791 0
M  V30 2889 C 270.925 -0.668622 -1.56408 0
M  V30 2890 O 272.11 -0.917337 -1.71168 0
M  V30 2891 C 269.24 -1.99519 -2.8427 0
M  V30 2892 C 268.194 -3.15249 -2.89486 0
M  V30 2893 C 267.52 -3.18451 -4.29527 0
M  V30 2894 C 268.82 -4.54084 -2.58079 0
M  V30 2895 H 270.514 -2.7291 -1.23127 0
M  V30 2896 H 268.06 -1.31319 -0.590883 0
M  V30 2897 H 270.013 -2.18092 -3.60575 0
M  V30 2898 H 268.737 -1.04897 -3.09296 0
M  V30 2899 H 267.396 -2.96477 -2.15631 0
M  V30 2900 H 267.044 -2.2149 -4.5161 0
M  V30 2901 H 266.744 -3.962 -4.33934 0
M  V30 2902 H 268.268 -3.39193 -5.07721 0
M  V30 2903 H 269.682 -4.72899 -3.24098 0
M  V30 2904 H 268.079 -5.33987 -2.7382 0
M  V30 2905 H 269.149 -4.60006 -1.53372 0
M  V30 2906 N 270.492 0.636531 -1.44174 0
M  V30 2907 C 271.908 0.954104 -1.27941 0
M  V30 2908 C 272.108 2.0039 -0.211248 0
M  V30 2909 O 271.164 2.49236 0.404695 0
M  V30 2910 C 272.477 1.4225 -2.64925 0
M  V30 2911 C 274.025 1.53827 -2.72592 0
M  V30 2912 C 274.5 2.04053 -4.10032 0
M  V30 2913 N 275.991 2.11331 -4.12182 0
M  V30 2914 C 276.726 2.51352 -5.15374 0
M  V30 2915 N 276.222 2.90549 -6.2893 0
M  V30 2916 N 278.015 2.51438 -5.02728 0
M  V30 2917 H 270.166 -0.0578386 -2.12321 0
M  V30 2918 H 272.429 0.0367406 -0.947288 0
M  V30 2919 H 272.135 0.725466 -3.44136 0
M  V30 2920 H 272.009 2.39451 -2.9145 0
M  V30 2921 H 274.396 2.22628 -1.93702 0
M  V30 2922 H 274.477 0.550154 -2.49814 0
M  V30 2923 H 274.121 1.35848 -4.89395 0
M  V30 2924 H 274.051 3.03726 -4.30184 0
M  V30 2925 H 276.542 1.83745 -3.30222 0
M  V30 2926 H 276.855 3.19884 -7.03487 0
M  V30 2927 H 275.2 2.88313 -6.32377 0
M  V30 2928 H 278.391 2.20203 -4.13072 0
M  V30 2929 H 278.564 2.82304 -5.83274 0
M  V30 2930 N 271.97 1.30982 0.876444 0
M  V30 2931 C 272.933 1.18054 1.96459 0
M  V30 2932 C 273.933 0.109399 1.60427 0
M  V30 2933 O 275.123 0.358173 1.70478 0
M  V30 2934 C 272.255 0.810616 3.31122 0
M  V30 2935 H 273.448 2.14735 2.09354 0
M  V30 2936 H 271.001 1.145 1.06392 0
M  V30 2937 H 271.736 -0.155322 3.23928 0
M  V30 2938 H 271.521 1.58481 3.58645 0
M  V30 2939 H 273.011 0.743876 4.10921 0
M  V30 2940 N 273.449 -1.08991 1.13837 0
M  V30 2941 C 274.412 -2.13925 0.822715 0
M  V30 2942 C 275.412 -1.599 -0.1699 0
M  V30 2943 O 276.602 -1.74104 0.0577251 0
M  V30 2944 C 273.734 -3.40155 0.225318 0
M  V30 2945 H 274.927 -2.43358 1.75262 0
M  V30 2946 H 272.48 -1.24603 0.943594 0
M  V30 2947 H 273.215 -3.16352 -0.713594 0
M  V30 2948 H 273 -3.80661 0.940193 0
M  V30 2949 H 274.49 -4.17594 0.0214784 0
M  V30 2950 N 274.927 -0.932562 -1.27047 0
M  V30 2951 C 275.857 -0.452902 -2.29066 0
M  V30 2952 C 276.838 0.489338 -1.62909 0
M  V30 2953 O 278.023 0.393046 -1.90181 0
M  V30 2954 C 275.153 0.290698 -3.46081 0
M  V30 2955 C 274.107 -0.564168 -4.24265 0
M  V30 2956 C 273.433 0.308886 -5.33807 0
M  V30 2957 C 274.733 -1.83112 -4.89149 0
M  V30 2958 H 276.427 -1.30552 -2.69437 0
M  V30 2959 H 273.973 -0.629201 -1.29526 0
M  V30 2960 H 275.926 0.637233 -4.16554 0
M  V30 2961 H 274.65 1.17738 -3.0464 0
M  V30 2962 H 273.309 -0.893477 -3.55545 0
M  V30 2963 H 272.957 1.19467 -4.88607 0
M  V30 2964 H 272.657 -0.259633 -5.87026 0
M  V30 2965 H 274.181 0.650884 -6.07121 0
M  V30 2966 H 275.595 -1.55236 -5.51883 0
M  V30 2967 H 273.992 -2.34353 -5.52448 0
M  V30 2968 H 275.062 -2.54772 -4.12576 0
M  V30 2969 N 276.405 1.4127 -0.698611 0
M  V30 2970 C 277.651 2.01979 -0.239972 0
M  V30 2971 C 278.006 1.54353 1.14861 0
M  V30 2972 O 277.299 0.746218 1.76471 0
M  V30 2973 C 277.493 3.56592 -0.240192 0
M  V30 2974 C 277.322 4.19226 -1.62726 0
M  V30 2975 C 276.092 4.53389 -2.23084 0
M  V30 2976 C 278.29 4.45228 -2.57443 0
M  V30 2977 N 276.272 5.01327 -3.54323 0
M  V30 2978 C 277.643 4.94973 -3.73365 0
M  V30 2979 C 279.698 4.27243 -2.55671 0
M  V30 2980 C 278.401 5.28624 -4.878 0
M  V30 2981 C 280.427 4.61985 -3.69221 0
M  V30 2982 C 279.789 5.11904 -4.83873 0
M  V30 2983 H 275.888 0.770561 -0.133269 0
M  V30 2984 H 278.472 1.71767 -0.916748 0
M  V30 2985 H 276.643 3.86271 0.406082 0
M  V30 2986 H 278.375 4.04025 0.23356 0
M  V30 2987 H 275.13 4.39946 -1.75341 0
M  V30 2988 H 275.554 5.29697 -4.21604 0
M  V30 2989 H 280.196 3.87884 -1.68243 0
M  V30 2990 H 277.914 5.66905 -5.75885 0
M  V30 2991 H 281.5 4.49725 -3.69105 0
M  V30 2992 H 280.38 5.38282 -5.70282 0
M  V30 2993 N 277.883 0.443576 1.51229 0
M  V30 2994 C 279.299 0.0962001 1.5931 0
M  V30 2995 C 279.499 -1.39501 1.45402 0
M  V30 2996 O 278.555 -2.16557 1.29843 0
M  V30 2997 C 279.868 0.621875 2.94199 0
M  V30 2998 C 281.416 0.582865 3.07525 0
M  V30 2999 C 281.891 1.08562 4.44948 0
M  V30 3000 N 283.382 1.04387 4.51284 0
M  V30 3001 C 284.117 1.40368 5.55954 0
M  V30 3002 N 283.613 1.83664 6.68011 0
M  V30 3003 N 285.406 1.32145 5.46346 0
M  V30 3004 H 277.557 1.41376 1.58514 0
M  V30 3005 H 279.82 0.582965 0.747567 0
M  V30 3006 H 279.526 1.66546 3.09767 0
M  V30 3007 H 279.4 0.0502125 3.77167 0
M  V30 3008 H 281.787 -0.451749 2.91622 0
M  V30 3009 H 281.868 1.191 2.26382 0
M  V30 3010 H 281.512 2.11873 4.61598 0
M  V30 3011 H 281.442 0.453956 5.2464 0
M  V30 3012 H 283.933 0.725986 3.70861 0
M  V30 3013 H 284.246 2.0934 7.43906 0
M  V30 3014 H 282.591 1.87596 6.69203 0
M  V30 3015 H 285.782 0.981808 4.57688 0
M  V30 3016 H 285.955 1.60514 6.27805 0
M  V30 3017 N 279.361 -1.56624 0.175154 0
M  V30 3018 C 280.608 -1.96999 -0.468811 0
M  V30 3019 C 280.936 -1.06129 -1.62994 0
M  V30 3020 O 280.191 -0.0961771 -1.95464 0
M  V30 3021 C 280.49 -3.43419 -0.989864 0
M  V30 3022 C 280.156 -4.50866 0.0557687 0
M  V30 3023 C 278.818 -4.79975 0.343134 0
M  V30 3024 C 281.17 -5.15551 0.765308 0
M  V30 3025 C 278.498 -5.71066 1.34536 0
M  V30 3026 C 280.85 -6.07724 1.75654 0
M  V30 3027 C 279.514 -6.35199 2.05132 0
M  V30 3028 H 278.784 -0.720869 -0.17155 0
M  V30 3029 H 281.431 -1.89616 0.267924 0
M  V30 3030 H 279.736 -3.47772 -1.80449 0
M  V30 3031 H 281.433 -3.72002 -1.49719 0
M  V30 3032 H 278.023 -4.28229 -0.178381 0
M  V30 3033 H 282.207 -4.9317 0.556513 0
M  V30 3034 H 277.463 -5.90635 1.57988 0
M  V30 3035 H 281.637 -6.56912 2.31169 0
M  V30 3036 H 279.264 -7.05584 2.8294 0
M  V30 3037 N 280.839 0.0985539 -1.57292 0
M  V30 3038 C 281.802 1.10402 -2.00858 0
M  V30 3039 C 282.802 1.33146 -0.901593 0
M  V30 3040 O 283.992 1.29318 -1.16716 0
M  V30 3041 C 281.124 2.45394 -2.36632 0
M  V30 3042 H 282.317 0.729099 -2.90902 0
M  V30 3043 H 279.87 0.343495 -1.52479 0
M  V30 3044 H 280.605 2.87769 -1.49531 0
M  V30 3045 H 280.39 2.30235 -3.17387 0
M  V30 3046 H 281.88 3.17718 -2.71007 0
M  V30 3047 N 282.317 1.53212 0.369288 0
M  V30 3048 C 283.227 1.82342 1.47609 0
M  V30 3049 C 284.243 0.711532 1.58787 0
M  V30 3050 O 285.419 1.0012 1.74751 0
M  V30 3051 C 282.484 2.00393 2.8292 0
M  V30 3052 C 281.545 3.24297 2.81301 0
M  V30 3053 C 280.778 3.41478 4.10157 0
M  V30 3054 O 281.001 2.63033 5.06132 0
M  V30 3055 O 279.935 4.34817 4.16194 0
M  V30 3056 H 283.761 2.76366 1.25918 0
M  V30 3057 H 281.346 1.38547 0.559034 0
M  V30 3058 H 283.228 2.13859 3.63101 0
M  V30 3059 H 281.903 1.09559 3.04596 0
M  V30 3060 H 280.81 3.16257 1.99831 0
M  V30 3061 H 282.143 4.15041 2.64578 0
M  V30 3062 N 283.795 -0.628877 1.44509 0
M  V30 3063 C 284.725 -1.75187 1.54376 0
M  V30 3064 C 285.706 -1.65411 0.396618 0
M  V30 3065 O 286.891 -1.84137 0.617031 0
M  V30 3066 C 284.021 -3.13725 1.48976 0
M  V30 3067 C 282.975 -3.38291 2.62189 0
M  V30 3068 C 282.301 -4.76883 2.41841 0
M  V30 3069 C 283.601 -3.30632 4.04326 0
M  V30 3070 H 285.295 -1.67187 2.48373 0
M  V30 3071 H 282.841 -0.802909 1.19538 0
M  V30 3072 H 284.794 -3.92064 1.54478 0
M  V30 3073 H 283.518 -3.22515 0.514961 0
M  V30 3074 H 282.177 -2.62334 2.56079 0
M  V30 3075 H 281.825 -4.82378 1.42548 0
M  V30 3076 H 281.525 -4.94278 3.17747 0
M  V30 3077 H 283.049 -5.57449 2.49165 0
M  V30 3078 H 284.463 -3.98873 4.11793 0
M  V30 3079 H 282.86 -3.59561 4.80454 0
M  V30 3080 H 283.93 -2.28404 4.27738 0
M  V30 3081 N 285.273 -1.31445 -0.869486 0
M  V30 3082 C 286.236 -1.19094 -1.9583 0
M  V30 3083 C 287.236 -0.117906 -1.60367 0
M  V30 3084 O 288.426 -0.367208 -1.70286 0
M  V30 3085 C 285.558 -0.828165 -3.30688 0
M  V30 3086 H 286.751 -2.15842 -2.08212 0
M  V30 3087 H 284.304 -1.15063 -1.05784 0
M  V30 3088 H 285.039 0.138142 -3.24006 0
M  V30 3089 H 284.824 -1.6038 -3.578 0
M  V30 3090 H 286.314 -0.765658 -4.10521 0
M  V30 3091 N 286.751 1.08385 -1.14413 0
M  V30 3092 C 287.701 2.13509 -0.79987 0
M  V30 3093 C 288.685 1.5951 0.211059 0
M  V30 3094 O 289.877 1.76995 0.0133694 0
M  V30 3095 C 287.006 3.42162 -0.279297 0
M  V30 3096 C 286.092 4.03042 -1.31976 0
M  V30 3097 N 286.483 4.38327 -2.52395 0
M  V30 3098 C 284.781 4.30379 -1.17004 0
M  V30 3099 C 285.482 4.86428 -3.19003 0
M  V30 3100 N 284.458 4.84547 -2.46405 0
M  V30 3101 H 288.26 2.38609 -1.7159 0
M  V30 3102 H 285.774 1.2572 -1.02802 0
M  V30 3103 H 287.771 4.16898 -0.0143688 0
M  V30 3104 H 286.431 3.18511 0.630923 0
M  V30 3105 H 287.442 4.29349 -2.89621 0
M  V30 3106 H 284.119 4.16281 -0.318854 0
M  V30 3107 H 285.509 5.23107 -4.21674 0
M  V30 3108 N 288.23 0.939286 1.26551 0
M  V30 3109 C 289.16 0.465044 2.28822 0
M  V30 3110 C 290.141 -0.480692 1.63167 0
M  V30 3111 O 291.326 -0.382955 1.90387 0
M  V30 3112 C 288.456 -0.27234 3.46231 0
M  V30 3113 C 287.41 0.58666 4.2396 0
M  V30 3114 C 286.736 -0.280573 5.33963 0
M  V30 3115 C 288.036 1.85704 4.88171 0
M  V30 3116 H 289.73 1.31979 2.68741 0
M  V30 3117 H 287.276 0.636061 1.29191 0
M  V30 3118 H 289.229 -0.615133 4.16886 0
M  V30 3119 H 287.953 -1.16121 3.0526 0
M  V30 3120 H 286.612 0.91232 3.55067 0
M  V30 3121 H 286.26 -1.16874 4.89234 0
M  V30 3122 H 285.96 0.29076 5.8688 0
M  V30 3123 H 287.484 -0.618678 6.07458 0
M  V30 3124 H 288.898 1.58161 5.51052 0
M  V30 3125 H 287.295 2.37279 5.51197 0
M  V30 3126 H 288.365 2.56957 4.11219 0
M  V30 3127 N 289.708 -1.40897 0.706093 0
M  V30 3128 C 290.954 -2.01352 0.241889 0
M  V30 3129 C 291.287 -1.55832 -1.15888 0
M  V30 3130 O 290.562 -0.774145 -1.7843 0
M  V30 3131 C 290.845 -3.58752 0.311311 0
M  V30 3132 C 290.698 -4.1437 1.74978 0
M  V30 3133 C 292.017 -4.38914 -0.322922 0
M  V30 3134 H 289.136 -0.731562 0.0893687 0
M  V30 3135 H 291.778 -1.67504 0.896802 0
M  V30 3136 H 289.928 -3.87718 -0.246302 0
M  V30 3137 H 291.6 -3.96239 2.36205 0
M  V30 3138 H 289.843 -3.69016 2.28057 0
M  V30 3139 H 290.514 -5.23532 1.74981 0
M  V30 3140 H 292.99 -4.15822 0.152089 0
M  V30 3141 H 291.866 -5.48358 -0.243855 0
M  V30 3142 H 292.127 -4.19176 -1.40513 0
M  V30 3143 N 291.186 -0.45159 -1.50991 0
M  V30 3144 C 292.602 -0.104647 -1.59257 0
M  V30 3145 C 292.802 1.38728 -1.4614 0
M  V30 3146 O 291.858 2.15866 -1.30989 0
M  V30 3147 C 293.171 -0.637468 -2.93865 0
M  V30 3148 C 294.719 -0.599166 -3.07212 0
M  V30 3149 C 295.194 -1.1092 -4.44366 0
M  V30 3150 N 296.685 -1.06778 -4.50725 0
M  V30 3151 C 297.42 -1.43314 -5.55201 0
M  V30 3152 N 296.916 -1.87204 -6.67028 0
M  V30 3153 N 298.709 -1.3504 -5.45638 0
M  V30 3154 H 290.86 -1.42214 -1.57762 0
M  V30 3155 H 293.123 -0.586921 -0.744465 0
M  V30 3156 H 292.829 -1.68187 -3.08879 0
M  V30 3157 H 292.703 -0.0702139 -3.77135 0
M  V30 3158 H 295.09 0.436277 -2.91857 0
M  V30 3159 H 295.171 -1.20299 -2.25747 0
M  V30 3160 H 294.815 -2.14318 -4.60467 0
M  V30 3161 H 294.745 -0.481773 -5.24392 0
M  V30 3162 H 297.236 -0.745643 -3.70471 0
M  V30 3163 H 297.549 -2.13282 -7.42786 0
M  V30 3164 H 295.894 -1.91142 -6.68199 0
M  V30 3165 H 299.085 -1.00607 -4.57161 0
M  V30 3166 H 299.258 -1.63841 -6.26945 0
M  V30 3167 N 292.664 1.56529 -0.183458 0
M  V30 3168 C 294.075 1.83739 0.331177 0
M  V30 3169 C 294.426 1.10373 1.62211 0
M  V30 3170 O 293.551 0.36071 2.13373 0
M  V30 3171 C 294.146 3.33306 0.607646 0
M  V30 3172 C 292.705 3.60969 1.06668 0
M  V30 3173 C 291.852 2.77086 0.109029 0
M  V30 3174 H 294.803 1.53379 -0.407484 0
M  V30 3175 H 294.824 3.51444 1.45832 0
M  V30 3176 H 294.336 3.86677 -0.332086 0
M  V30 3177 H 292.437 3.13021 2.0211 0
M  V30 3178 H 292.55 4.69231 0.967447 0
M  V30 3179 H 290.914 2.47319 0.608714 0
M  V30 3180 H 291.697 3.33241 -0.82494 0
M  V30 3181 N 294.142 -0.090211 1.57342 0
M  V30 3182 C 295.074 -1.13541 1.99101 0
M  V30 3183 C 296.087 -1.3604 0.894258 0
M  V30 3184 O 297.276 -1.34606 1.17233 0
M  V30 3185 C 294.376 -2.49001 2.29895 0
M  V30 3186 C 293.549 -2.46712 3.61182 0
M  V30 3187 C 292.608 -3.64136 3.79857 0
M  V30 3188 O 291.634 -3.46405 4.51655 0
M  V30 3189 N 292.836 -4.83802 3.20806 0
M  V30 3190 H 295.601 -0.779942 2.89373 0
M  V30 3191 H 293.162 -0.279125 1.59476 0
M  V30 3192 H 295.154 -3.26166 2.39578 0
M  V30 3193 H 293.724 -2.76619 1.45605 0
M  V30 3194 H 292.944 -1.55058 3.62423 0
M  V30 3195 H 294.232 -2.42265 4.4742 0
M  V30 3196 H 293.63 -5.01112 2.62494 0
M  V30 3197 H 292.187 -5.58543 3.35966 0
M  V30 3198 N 295.62 -1.53406 -0.361157 0
M  V30 3199 C 296.567 -1.80156 -1.44265 0
M  V30 3200 C 297.537 -0.646183 -1.53015 0
M  V30 3201 O 298.722 -0.888818 -1.68833 0
M  V30 3202 C 295.862 -2.00116 -2.81154 0
M  V30 3203 C 294.975 -3.27833 -2.81335 0
M  V30 3204 C 294.11 -3.37957 -4.09828 0
M  V30 3205 C 293.149 -4.59689 -4.04168 0
M  V30 3206 N 292.286 -4.66942 -5.24318 0
M  V30 3207 H 297.126 -2.72438 -1.20754 0
M  V30 3208 H 294.663 -1.34954 -0.585296 0
M  V30 3209 H 296.621 -2.09677 -3.60682 0
M  V30 3210 H 295.251 -1.11167 -3.03054 0
M  V30 3211 H 294.303 -3.27204 -1.94014 0
M  V30 3212 H 295.615 -4.17442 -2.73027 0
M  V30 3213 H 294.769 -3.46853 -4.97773 0
M  V30 3214 H 293.508 -2.46372 -4.20894 0
M  V30 3215 H 292.513 -4.50889 -3.14609 0
M  V30 3216 H 293.738 -5.5262 -3.947 0
M  V30 3217 H 291.684 -3.7826 -5.35962 0
M  V30 3218 H 291.601 -5.50462 -5.18197 0
M  V30 3219 H 292.869 -4.80127 -6.14084 0
M  V30 3220 N 297.098 0.621204 -1.44841 0
M  V30 3221 C 298.338 1.39201 -1.49674 0
M  V30 3222 C 298.702 1.91561 -0.129764 0
M  V30 3223 O 299.903 2.68748 -0.0527814 0
M  V30 3224 C 298.174 2.519 -2.53537 0
M  V30 3225 S 299.733 3.39916 -2.77494 0
M  V30 3226 H 296.551 0.474758 -0.529269 0
M  V30 3227 H 299.153 0.718171 -1.81831 0
M  V30 3228 H 297.857 2.11761 -3.51547 0
M  V30 3229 H 297.388 3.241 -2.22986 0
M  V30 3230 H 299.403 4.49646 -2.0984 0
M  V30 3231 N 298.576 1.31904 0.862503 0
M  V30 3232 C 299.992 1.10724 1.14945 0
M  V30 3233 C 300.192 -0.117421 2.01158 0
M  V30 3234 O 299.248 -0.804595 2.39338 0
M  V30 3235 C 300.561 2.38267 1.83437 0
M  V30 3236 C 302.109 2.43949 1.96106 0
M  V30 3237 C 302.584 3.71394 2.68013 0
M  V30 3238 N 304.075 3.72331 2.75543 0
M  V30 3239 C 304.81 4.67641 3.31812 0
M  V30 3240 N 304.306 5.73313 3.88953 0
M  V30 3241 N 306.099 4.5515 3.29841 0
M  V30 3242 H 298.25 2.10436 0.288191 0
M  V30 3243 H 300.513 0.928705 0.190292 0
M  V30 3244 H 300.219 3.27759 1.27542 0
M  V30 3245 H 300.093 2.48633 2.83657 0
M  V30 3246 H 302.48 1.54922 2.51164 0
M  V30 3247 H 302.561 2.37543 0.949059 0
M  V30 3248 H 302.205 4.60791 2.13621 0
M  V30 3249 H 302.135 3.75069 3.69636 0
M  V30 3250 H 304.626 2.95947 2.34997 0
M  V30 3251 H 304.939 6.42107 4.30022 0
M  V30 3252 H 303.284 5.77077 3.87308 0
M  V30 3253 H 306.475 3.71766 2.84443 0
M  V30 3254 H 306.648 5.29604 3.73394 0
M  V30 3255 N 300.054 -1.07777 1.14986 0
M  V30 3256 C 301.465 -1.61766 0.932127 0
M  V30 3257 C 301.816 -1.88974 -0.527581 0
M  V30 3258 O 300.941 -1.65198 -1.39781 0
M  V30 3259 C 301.536 -2.93891 1.68563 0
M  V30 3260 C 300.095 -3.44639 1.5133 0
M  V30 3261 C 299.242 -2.18767 1.704 0
M  V30 3262 H 302.193 -0.909201 1.30074 0
M  V30 3263 H 302.214 -3.62623 1.15259 0
M  V30 3264 H 301.726 -2.74057 2.74799 0
M  V30 3265 H 299.827 -3.69564 0.474702 0
M  V30 3266 H 299.94 -4.20966 2.28746 0
M  V30 3267 H 298.304 -2.28253 1.13016 0
M  V30 3268 H 299.087 -2.01433 2.77992 0
M  V30 3269 N 301.532 -0.945985 -1.26051 0
M  V30 3270 C 302.762 -0.612136 -1.97323 0
M  V30 3271 C 303.17 0.818171 -1.70595 0
M  V30 3272 O 302.513 1.55777 -0.973613 0
M  V30 3273 C 302.575 -0.780347 -3.50929 0
M  V30 3274 C 302.239 -2.18619 -4.01317 0
M  V30 3275 C 303.236 -3.16209 -4.12683 0
M  V30 3276 C 300.921 -2.50805 -4.35203 0
M  V30 3277 C 302.915 -4.44085 -4.57238 0
M  V30 3278 C 300.602 -3.78912 -4.79446 0
M  V30 3279 C 301.6 -4.75365 -4.90425 0
M  V30 3280 O 301.288 -6.01191 -5.3369 0
M  V30 3281 H 301.02 -0.229134 -0.635982 0
M  V30 3282 H 303.574 -1.27036 -1.61404 0
M  V30 3283 H 301.804 -0.0649864 -3.86645 0
M  V30 3284 H 303.493 -0.448842 -4.03411 0
M  V30 3285 H 304.259 -2.92668 -3.86744 0
M  V30 3286 H 300.138 -1.76463 -4.2589 0
M  V30 3287 H 303.682 -5.19373 -4.65723 0
M  V30 3288 H 299.579 -4.02265 -5.0483 0
M  V30 3289 H 300.347 -6.04442 -5.51899 0
M  V30 3290 N 303.011 1.40521 -0.713556 0
M  V30 3291 C 303.941 2.33381 -0.0743864 0
M  V30 3292 C 304.922 1.52784 0.747735 0
M  V30 3293 O 306.107 1.81258 0.697071 0
M  V30 3294 C 303.237 3.36748 0.849598 0
M  V30 3295 C 302.191 4.27793 0.133247 0
M  V30 3296 C 301.517 5.21679 1.17281 0
M  V30 3297 C 302.817 5.12415 -1.01134 0
M  V30 3298 H 304.511 2.87081 -0.850007 0
M  V30 3299 H 302.057 1.38034 -0.410201 0
M  V30 3300 H 304.01 4.00648 1.30612 0
M  V30 3301 H 302.734 2.81439 1.65709 0
M  V30 3302 H 301.393 3.65342 -0.303426 0
M  V30 3303 H 301.041 4.62677 1.9733 0
M  V30 3304 H 300.741 5.83435 0.698397 0
M  V30 3305 H 302.265 5.88456 1.62947 0
M  V30 3306 H 303.679 5.69781 -0.634274 0
M  V30 3307 H 302.076 5.83203 -1.41399 0
M  V30 3308 H 303.146 4.48514 -1.84292 0
M  V30 3309 N 304.489 0.459591 1.5075 0
M  V30 3310 C 305.735 -0.0994966 2.02556 0
M  V30 3311 C 306.068 -1.40399 1.3417 0
M  V30 3312 O 305.343 -1.88892 0.463683 0
M  V30 3313 C 305.626 -0.295242 3.58888 0
M  V30 3314 C 305.479 1.02947 4.37861 0
M  V30 3315 C 306.798 -1.05502 4.27267 0
M  V30 3316 H 303.917 -0.034686 0.736183 0
M  V30 3317 H 306.559 0.602938 1.8018 0
M  V30 3318 H 304.709 -0.893563 3.78084 0
M  V30 3319 H 306.381 1.66348 4.30263 0
M  V30 3320 H 304.624 1.62885 4.02058 0
M  V30 3321 H 305.295 0.846281 5.45474 0
M  V30 3322 H 307.771 -0.547993 4.12476 0
M  V30 3323 H 306.647 -1.16077 5.36486 0
M  V30 3324 H 306.908 -2.08875 3.89645 0
M  V30 3325 N 305.967 -1.56429 0.191757 0
M  V30 3326 C 306.915 -2.20273 -0.747174 0
M  V30 3327 C 307.909 -1.17288 -1.22229 0
M  V30 3328 O 309.115 -1.35441 -1.18557 0
M  V30 3329 H 305.49 -0.705885 -0.259289 0
M  V30 3330 H 307.461 -2.97826 -0.184963 0
M  V30 3331 C 306.21 -2.87356 -1.95759 0
M  V30 3332 H 305.533 -3.66341 -1.60106 0
M  V30 3333 H 306.973 -3.3547 -2.59299 0
M  V30 3334 C 305.432 -1.88213 -2.79423 0
M  V30 3335 O 305.962 -1.38033 -3.7724 0
M  V30 3336 N 304.168 -1.56516 -2.44849 0
M  V30 3337 H 303.715 -1.97516 -1.65364 0
M  V30 3338 H 303.673 -0.904369 -3.01112 0
M  V30 3339 N 307.445 0.0818655 -1.57387 0
M  V30 3340 C 308.375 1.09885 -2.06028 0
M  V30 3341 C 309.356 1.4098 -0.951774 0
M  V30 3342 O 310.541 1.50781 -1.22387 0
M  V30 3343 C 307.671 2.4151 -2.4958 0
M  V30 3344 C 306.625 2.24792 -3.64215 0
M  V30 3345 C 305.951 3.61712 -3.93787 0
M  V30 3346 C 307.251 1.67749 -4.94629 0
M  V30 3347 H 308.945 0.694128 -2.91243 0
M  V30 3348 H 306.491 0.332448 -1.4011 0
M  V30 3349 H 308.444 3.12939 -2.82219 0
M  V30 3350 H 307.168 2.83943 -1.61381 0
M  V30 3351 H 305.827 1.55807 -3.31843 0
M  V30 3352 H 305.475 4.01697 -3.02735 0
M  V30 3353 H 305.175 3.51368 -4.70971 0
M  V30 3354 H 306.699 4.34587 -4.28913 0
M  V30 3355 H 308.113 2.29032 -5.25564 0
M  V30 3356 H 306.51 1.68128 -5.76067 0
M  V30 3357 H 307.58 0.638059 -4.80684 0
M  V30 3358 N 308.923 1.53595 0.353017 0
M  V30 3359 C 309.853 1.83902 1.43883 0
M  V30 3360 C 310.834 0.693421 1.55324 0
M  V30 3361 O 312.019 0.944452 1.69687 0
M  V30 3362 C 309.149 2.04016 2.8106 0
M  V30 3363 C 308.103 3.19814 2.84434 0
M  V30 3364 C 307.429 3.25244 4.24406 0
M  V30 3365 C 308.729 4.58133 2.50822 0
M  V30 3366 H 310.423 2.74835 1.1877 0
M  V30 3367 H 307.969 1.32242 0.569917 0
M  V30 3368 H 309.922 2.238 3.57059 0
M  V30 3369 H 308.646 1.09804 3.07588 0
M  V30 3370 H 307.305 2.9987 2.10887 0
M  V30 3371 H 306.953 2.28646 4.48029 0
M  V30 3372 H 306.653 4.03054 4.27576 0
M  V30 3373 H 308.177 3.47228 5.0226 0
M  V30 3374 H 309.591 4.77995 3.16534 0
M  V30 3375 H 307.988 5.38276 2.6529 0
M  V30 3376 H 309.058 4.62387 1.46034 0
M  V30 3377 N 310.401 -0.613514 1.45168 0
M  V30 3378 C 311.812 -1.19539 1.43413 0
M  V30 3379 C 312.163 -1.95558 0.158632 0
M  V30 3380 O 311.288 -2.0335 -0.740119 0
M  V30 3381 C 311.883 -2.17445 2.59813 0
M  V30 3382 C 310.442 -2.71022 2.61197 0
M  V30 3383 C 309.589 -1.46323 2.35552 0
M  V30 3384 H 312.54 -0.403163 1.53494 0
M  V30 3385 H 312.561 -3.00373 2.33574 0
M  V30 3386 H 312.073 -1.62089 3.52631 0
M  V30 3387 H 310.174 -3.30332 1.7237 0
M  V30 3388 H 310.287 -3.15859 3.60236 0
M  V30 3389 H 308.651 -1.75072 1.84992 0
M  V30 3390 H 309.434 -0.92844 3.30507 0
M  V30 3391 N 311.879 -1.3236 -0.855495 0
M  V30 3392 C 313.119 -1.24187 -1.62348 0
M  V30 3393 C 313.483 0.193597 -1.91021 0
M  V30 3394 O 314.684 0.39904 -2.65822 0
M  V30 3395 C 312.955 -2.07661 -2.90881 0
M  V30 3396 S 314.514 -2.16505 -3.81669 0
M  V30 3397 H 311.332 -0.442076 -0.556857 0
M  V30 3398 H 313.934 -1.67198 -1.01317 0
M  V30 3399 H 312.638 -3.11018 -2.67761 0
M  V30 3400 H 312.169 -1.65425 -3.56929 0
M  V30 3401 H 314.184 -1.31394 -4.78487 0
M  V30 3402 N 313.357 1.07166 -1.15556 0
M  V30 3403 C 314.287 2.16403 -0.877046 0
M  V30 3404 C 315.268 1.69217 0.173111 0
M  V30 3405 O 316.453 1.94181 0.027084 0
M  V30 3406 C 313.583 3.45349 -0.367632 0
M  V30 3407 C 312.537 4.05995 -1.35468 0
M  V30 3408 C 311.863 5.30045 -0.704038 0
M  V30 3409 C 313.163 4.45804 -2.72132 0
M  V30 3410 H 314.857 2.39959 -1.79053 0
M  V30 3411 H 312.403 1.15325 -0.862331 0
M  V30 3412 H 314.356 4.21095 -0.160317 0
M  V30 3413 H 313.08 3.21385 0.581326 0
M  V30 3414 H 311.739 3.32296 -1.54839 0
M  V30 3415 H 311.387 5.02373 0.251128 0
M  V30 3416 H 311.087 5.71579 -1.36277 0
M  V30 3417 H 312.611 6.08495 -0.50654 0
M  V30 3418 H 314.025 5.12671 -2.56595 0
M  V30 3419 H 312.422 4.98296 -3.34397 0
M  V30 3420 H 313.492 3.57083 -3.28054 0
M  V30 3421 N 314.835 0.952656 1.25548 0
M  V30 3422 C 316.063 0.623496 1.97282 0
M  V30 3423 C 316.478 -0.803987 1.70826 0
M  V30 3424 O 315.835 -1.53755 0.983147 0
M  V30 3425 C 315.886 0.870209 3.5087 0
M  V30 3426 O 315.607 2.24156 3.76412 0
M  V30 3427 C 317.108 0.553164 4.39835 0
M  V30 3428 H 314.328 0.233931 0.628902 0
M  V30 3429 H 316.872 1.27649 1.59768 0
M  V30 3430 H 315.027 0.263652 3.86502 0
M  V30 3431 H 315.441 2.31021 4.70882 0
M  V30 3432 H 316.915 0.776342 5.46513 0
M  V30 3433 H 317.392 -0.512215 4.36203 0
M  V30 3434 H 317.998 1.13896 4.09766 0
M  V30 3435 N 316.313 -1.40141 0.720998 0
M  V30 3436 C 317.729 -1.54632 0.395113 0
M  V30 3437 C 317.929 -1.69115 -1.09555 0
M  V30 3438 O 316.985 -1.68377 -1.88163 0
M  V30 3439 C 318.298 -2.77177 1.1659 0
M  V30 3440 C 319.846 -2.91 1.15274 0
M  V30 3441 C 320.321 -4.16465 1.90579 0
M  V30 3442 N 321.812 -4.23476 1.87675 0
M  V30 3443 C 322.547 -5.19475 2.42762 0
M  V30 3444 N 322.043 -6.21348 3.06428 0
M  V30 3445 N 323.836 -5.11592 2.32874 0
M  V30 3446 H 315.987 -1.28986 1.68749 0
M  V30 3447 H 318.25 -0.62412 0.713567 0
M  V30 3448 H 317.956 -2.72771 2.22011 0
M  V30 3449 H 317.83 -3.69442 0.76108 0
M  V30 3450 H 320.217 -2.94907 0.106702 0
M  V30 3451 H 320.298 -1.99838 1.59682 0
M  V30 3452 H 319.942 -4.1332 2.95176 0
M  V30 3453 H 319.872 -5.06646 1.43587 0
M  V30 3454 H 322.363 -3.50497 1.41281 0
M  V30 3455 H 322.676 -6.91034 3.45965 0
M  V30 3456 H 321.021 -6.21777 3.10514 0
M  V30 3457 H 324.212 -4.30936 1.82789 0
M  V30 3458 H 324.385 -5.86233 2.76106 0
M  V30 3459 N 317.792 -0.46758 -1.50504 0
M  V30 3460 C 319.02 0.0864133 -2.06719 0
M  V30 3461 C 319.435 1.33819 -1.33184 0
M  V30 3462 O 318.792 1.78061 -0.400083 0
M  V30 3463 C 318.843 0.378079 -3.59517 0
M  V30 3464 O 318.564 -0.824044 -4.3028 0
M  V30 3465 C 320.065 0.979426 -4.32345 0
M  V30 3466 H 317.285 -0.00551697 -0.670977 0
M  V30 3467 H 319.829 -0.655354 -1.93715 0
M  V30 3468 H 317.984 1.06977 -3.72337 0
M  V30 3469 H 318.398 -0.566518 -5.21432 0
M  V30 3470 H 319.872 1.1333 -5.40241 0
M  V30 3471 H 320.349 1.9686 -3.9261 0
M  V30 3472 H 320.955 0.326216 -4.24047 0
M  V30 3473 N 319.27 1.56325 -0.20005 0
M  V30 3474 C 320.495 2.02548 0.44597 0
M  V30 3475 C 320.92 1.07922 1.5406 0
M  V30 3476 O 320.278 0.0635775 1.81188 0
M  V30 3477 C 320.326 3.47175 0.974761 0
M  V30 3478 O 319.43 3.55671 2.08739 0
M  V30 3479 H 318.771 0.655862 0.103638 0
M  V30 3480 H 321.301 2.02201 -0.312381 0
M  V30 3481 H 321.311 3.87067 1.2901 0
M  V30 3482 H 319.986 4.15538 0.17347 0
M  V30 3483 H 318.563 3.27657 1.78032 0
M  V30 3484 N 320.748 -0.0735177 1.57428 0
M  V30 3485 C 321.695 -1.08756 2.0357 0
M  V30 3486 C 322.665 -1.38559 0.916 0
M  V30 3487 O 323.85 -1.49656 1.18354 0
M  V30 3488 C 320.99 -2.39657 2.48311 0
M  V30 3489 C 320.103 -2.16399 3.73892 0
M  V30 3490 C 319.238 -3.40852 4.07423 0
M  V30 3491 C 318.277 -3.1295 5.2605 0
M  V30 3492 N 317.414 -4.29729 5.55228 0
M  V30 3493 H 322.254 -0.687104 2.8997 0
M  V30 3494 H 319.791 -0.327709 1.43403 0
M  V30 3495 H 321.749 -3.16081 2.72303 0
M  V30 3496 H 320.379 -2.77508 1.64891 0
M  V30 3497 H 319.431 -1.30676 3.57251 0
M  V30 3498 H 320.743 -1.91788 4.60455 0
M  V30 3499 H 319.897 -4.25671 4.32306 0
M  V30 3500 H 318.636 -3.68537 3.19425 0
M  V30 3501 H 317.641 -2.26526 5.00965 0
M  V30 3502 H 318.866 -2.86589 6.15665 0
M  V30 3503 H 316.812 -4.57448 4.70188 0
M  V30 3504 H 316.729 -4.08385 6.36206 0
M  V30 3505 H 317.997 -5.1555 5.84661 0
M  V30 3506 N 322.226 -1.5378 -0.344866 0
M  V30 3507 C 323.642 -1.44015 -0.687888 0
M  V30 3508 C 323.842 -0.595834 -1.92489 0
M  V30 3509 O 322.898 -0.0863064 -2.52352 0
M  V30 3510 C 324.211 -2.87481 -0.881758 0
M  V30 3511 C 325.759 -2.97247 -0.980459 0
M  V30 3512 C 326.234 -4.41819 -1.20665 0
M  V30 3513 N 327.725 -4.45339 -1.27389 0
M  V30 3514 C 328.46 -5.54333 -1.46639 0
M  V30 3515 N 327.956 -6.73335 -1.63071 0
M  V30 3516 N 329.749 -5.41944 -1.49176 0
M  V30 3517 H 321.9 -2.07169 0.468475 0
M  V30 3518 H 324.163 -0.93643 0.147655 0
M  V30 3519 H 323.869 -3.51672 -0.0443444 0
M  V30 3520 H 323.743 -3.32352 -1.78388 0
M  V30 3521 H 326.13 -2.33197 -1.8084 0
M  V30 3522 H 326.211 -2.5574 -0.0552713 0
M  V30 3523 H 325.855 -5.06449 -0.383652 0
M  V30 3524 H 325.785 -4.80917 -2.14539 0
M  V30 3525 H 328.276 -3.59585 -1.1622 0
M  V30 3526 H 328.589 -7.52165 -1.77391 0
M  V30 3527 H 326.934 -6.76282 -1.60209 0
M  V30 3528 H 330.125 -4.47932 -1.3592 0
M  V30 3529 H 330.298 -6.26946 -1.63837 0
M  V30 3530 N 323.704 0.605807 -1.45491 0
M  V30 3531 C 325.115 1.18777 -1.44045 0
M  V30 3532 C 325.466 1.95471 -0.169001 0
M  V30 3533 O 324.591 2.0374 0.729324 0
M  V30 3534 C 325.186 2.16064 -2.60963 0
M  V30 3535 C 323.745 2.69633 -2.62631 0
M  V30 3536 C 322.892 1.45072 -2.36325 0
M  V30 3537 H 325.843 0.395017 -1.53705 0
M  V30 3538 H 325.864 2.9913 -2.35163 0
M  V30 3539 H 325.376 1.60217 -3.53486 0
M  V30 3540 H 323.477 3.29414 -1.74119 0
M  V30 3541 H 323.59 3.13944 -3.61906 0
M  V30 3542 H 321.954 1.74089 -1.85917 0
M  V30 3543 H 322.737 0.910899 -3.30995 0
M  V30 3544 N 325.182 1.32811 0.848464 0
M  V30 3545 C 326.092 1.24278 1.98978 0
M  V30 3546 C 327.108 0.155176 1.73307 0
M  V30 3547 O 328.284 0.376999 1.9784 0
M  V30 3548 C 325.349 0.972444 3.32783 0
M  V30 3549 C 324.41 2.14911 3.71634 0
M  V30 3550 C 323.643 1.89157 4.99054 0
M  V30 3551 O 323.866 0.837165 5.64223 0
M  V30 3552 O 322.8 2.75433 5.35183 0
M  V30 3553 H 326.626 2.20238 2.09115 0
M  V30 3554 H 324.211 1.12762 0.980052 0
M  V30 3555 H 326.093 0.838432 4.12975 0
M  V30 3556 H 324.768 0.043051 3.23671 0
M  V30 3557 H 323.675 2.33862 2.91992 0
M  V30 3558 H 325.008 3.06151 3.85399 0
M  V30 3559 N 326.66 -1.06551 1.16123 0
M  V30 3560 C 327.57 -2.17484 0.879662 0
M  V30 3561 C 328.586 -1.73377 -0.147104 0
M  V30 3562 O 329.762 -2.01379 0.0289128 0
M  V30 3563 C 326.827 -3.44591 0.381829 0
M  V30 3564 C 325.888 -4.0322 1.4735 0
M  V30 3565 C 325.121 -5.24261 0.999324 0
M  V30 3566 O 325.344 -5.70198 -0.151957 0
M  V30 3567 O 324.278 -5.74775 1.78653 0
M  V30 3568 H 328.104 -2.44075 1.80724 0
M  V30 3569 H 325.689 -1.16042 0.940992 0
M  V30 3570 H 327.571 -4.21254 0.111053 0
M  V30 3571 H 326.246 -3.19532 -0.51777 0
M  V30 3572 H 325.153 -3.2806 1.79798 0
M  V30 3573 H 326.486 -4.32568 2.34831 0
M  V30 3574 N 328.138 -0.959301 -1.25041 0
M  V30 3575 C 329.363 -0.633507 -1.97488 0
M  V30 3576 C 329.788 0.788555 -1.70773 0
M  V30 3577 O 329.146 1.53394 -0.966431 0
M  V30 3578 C 329.194 -0.904057 -3.49083 0
M  V30 3579 O 328.298 0.0147939 -4.12397 0
M  V30 3580 H 327.639 -0.240368 -0.618966 0
M  V30 3581 H 330.169 -1.28717 -1.59038 0
M  V30 3582 H 330.179 -0.832203 -3.99423 0
M  V30 3583 H 328.854 -1.94048 -3.67856 0
M  V30 3584 H 327.431 -0.109664 -3.72739 0
M  V30 3585 N 329.616 1.39756 -0.72842 0
M  V30 3586 C 330.862 2.00942 -0.273892 0
M  V30 3587 C 331.195 1.57656 1.13394 0
M  V30 3588 O 330.47 0.802434 1.77176 0
M  V30 3589 C 330.753 3.58211 -0.368346 0
M  V30 3590 C 330.606 4.11534 -1.81548 0
M  V30 3591 C 331.925 4.39372 0.253054 0
M  V30 3592 H 329.044 0.730047 -0.100996 0
M  V30 3593 H 331.686 1.66056 -0.923337 0
M  V30 3594 H 329.836 3.88061 0.184588 0
M  V30 3595 H 331.508 3.92431 -2.42478 0
M  V30 3596 H 329.751 3.65341 -2.33898 0
M  V30 3597 H 330.422 5.20682 -1.83288 0
M  V30 3598 H 332.898 4.15527 -0.218224 0
M  V30 3599 H 331.774 5.48677 0.156585 0
M  V30 3600 H 332.035 4.21358 1.33826 0
M  V30 3601 N 331.094 0.475555 1.50254 0
M  V30 3602 C 332.026 -0.352649 2.26471 0
M  V30 3603 C 333.039 -0.953165 1.3198 0
M  V30 3604 O 334.228 -0.840815 1.57457 0
M  V30 3605 C 331.328 -1.50902 3.0345 0
M  V30 3606 C 330.501 -1.02047 4.25329 0
M  V30 3607 C 329.56 -2.05142 4.84565 0
M  V30 3608 O 328.586 -1.63023 5.45355 0
M  V30 3609 N 329.788 -3.37987 4.71959 0
M  V30 3610 H 332.553 0.300767 2.98187 0
M  V30 3611 H 330.114 0.306598 1.5897 0
M  V30 3612 H 332.106 -2.19572 3.39956 0
M  V30 3613 H 330.676 -2.06705 2.34504 0
M  V30 3614 H 329.896 -0.159507 3.93877 0
M  V30 3615 H 331.184 -0.672061 5.04342 0
M  V30 3616 H 330.582 -3.74913 4.23623 0
M  V30 3617 H 329.139 -4.02443 5.12721 0
M  V30 3618 N 332.573 -1.56217 0.208337 0
M  V30 3619 C 333.483 -2.23316 -0.718836 0
M  V30 3620 C 334.499 -1.23648 -1.22422 0
M  V30 3621 O 335.675 -1.56423 -1.26861 0
M  V30 3622 C 332.74 -2.88968 -1.91568 0
M  V30 3623 C 331.801 -4.03943 -1.45357 0
M  V30 3624 C 331.034 -4.66455 -2.59337 0
M  V30 3625 O 331.257 -4.27919 -3.77149 0
M  V30 3626 O 330.191 -5.55686 -2.31293 0
M  V30 3627 H 334.017 -3.03182 -0.177315 0
M  V30 3628 H 331.602 -1.49384 -0.0215402 0
M  V30 3629 H 333.484 -3.30455 -2.61491 0
M  V30 3630 H 332.159 -2.12071 -2.44556 0
M  V30 3631 H 331.066 -3.67052 -0.722746 0
M  V30 3632 H 332.399 -4.82543 -0.970219 0
M  V30 3633 N 334.051 0.0651679 -1.57465 0
M  V30 3634 C 335.279 0.775808 -1.91804 0
M  V30 3635 C 335.694 1.70782 -0.804916 0
M  V30 3636 O 335.051 1.81153 0.221311 0
M  V30 3637 C 335.102 1.56381 -3.25925 0
M  V30 3638 O 334.823 0.669248 -4.32958 0
M  V30 3639 C 336.324 2.37485 -3.7432 0
M  V30 3640 H 333.544 0.2202 -0.63384 0
M  V30 3641 H 336.088 0.0334587 -2.04473 0
M  V30 3642 H 334.243 2.25837 -3.14764 0
M  V30 3643 H 334.657 1.21801 -5.10162 0
M  V30 3644 H 336.131 2.88223 -4.70778 0
M  V30 3645 H 336.608 3.17307 -3.03666 0
M  V30 3646 H 337.214 1.73173 -3.88447 0
M  V30 3647 N 335.529 1.53961 0.336706 0
M  V30 3648 C 336.459 1.85417 1.41925 0
M  V30 3649 C 337.44 0.709856 1.5458 0
M  V30 3650 O 338.625 0.962396 1.68676 0
M  V30 3651 C 335.755 2.06985 2.78881 0
M  V30 3652 C 334.709 3.22813 2.81026 0
M  V30 3653 C 334.035 3.29727 4.20932 0
M  V30 3654 C 335.335 4.60767 2.45949 0
M  V30 3655 H 337.029 2.76079 1.15848 0
M  V30 3656 H 334.575 1.32839 0.555859 0
M  V30 3657 H 336.528 2.27575 3.54665 0
M  V30 3658 H 335.252 1.13061 3.06406 0
M  V30 3659 H 333.911 3.0209 2.07695 0
M  V30 3660 H 333.559 2.33385 4.45579 0
M  V30 3661 H 333.259 4.07566 4.23277 0
M  V30 3662 H 334.783 3.52536 4.98549 0
M  V30 3663 H 336.197 4.81325 3.11446 0
M  V30 3664 H 334.594 5.4106 2.59566 0
M  V30 3665 H 335.664 4.6391 1.41122 0
M  V30 3666 N 337.007 -0.598083 1.45811 0
M  V30 3667 C 337.97 -1.69018 1.54808 0
M  V30 3668 C 338.97 -1.55037 0.426652 0
M  V30 3669 O 340.16 -1.59932 0.690456 0
M  V30 3670 C 337.292 -3.0835 1.45371 0
M  V30 3671 H 338.485 -1.62403 2.52121 0
M  V30 3672 H 336.038 -0.814626 1.33392 0
M  V30 3673 H 336.773 -3.20534 0.492793 0
M  V30 3674 H 336.558 -3.19907 2.26721 0
M  V30 3675 H 338.048 -3.8788 1.54721 0
M  V30 3676 N 338.485 -1.33259 -0.841409 0
M  V30 3677 C 339.448 -1.23221 -1.9326 0
M  V30 3678 C 340.448 -0.151895 -1.60081 0
M  V30 3679 O 341.638 -0.403246 -1.69468 0
M  V30 3680 C 338.77 -0.898123 -3.28856 0
M  V30 3681 H 339.963 -2.2021 -2.03587 0
M  V30 3682 H 337.516 -1.17281 -1.03319 0
M  V30 3683 H 338.251 0.0693841 -3.24226 0
M  V30 3684 H 338.036 -1.67934 -3.54317 0
M  V30 3685 H 339.526 -0.852563 -4.08805 0
M  V30 3686 N 339.963 1.05934 -1.16686 0
M  V30 3687 C 340.926 2.11669 -0.879144 0
M  V30 3688 C 341.926 1.60294 0.127445 0
M  V30 3689 O 343.116 1.7389 -0.103865 0
M  V30 3690 C 340.248 3.39438 -0.315425 0
M  V30 3691 H 341.441 2.38626 -1.81653 0
M  V30 3692 H 338.994 1.22058 -0.976299 0
M  V30 3693 H 339.729 3.18132 0.629468 0
M  V30 3694 H 339.514 3.78034 -1.04079 0
M  V30 3695 H 341.004 4.17391 -0.132189 0
M  V30 3696 N 341.441 0.965919 1.2453 0
M  V30 3697 C 342.687 0.62776 1.92839 0
M  V30 3698 C 343.02 -0.834694 1.75347 0
M  V30 3699 O 342.295 -1.60031 1.10546 0
M  V30 3700 C 342.578 1.00109 3.45905 0
M  V30 3701 C 342.431 2.52011 3.72573 0
M  V30 3702 C 343.75 0.53435 4.36844 0
M  V30 3703 H 340.869 0.229537 0.700344 0
M  V30 3704 H 343.511 1.2046 1.46933 0
M  V30 3705 H 341.661 0.510238 3.85135 0
M  V30 3706 H 343.333 3.08559 3.42912 0
M  V30 3707 H 341.576 2.95287 3.17786 0
M  V30 3708 H 342.247 2.73183 4.79661 0
M  V30 3709 H 344.723 0.955565 4.04979 0
M  V30 3710 H 343.599 0.824152 5.42678 0
M  V30 3711 H 343.86 -0.565589 4.38467 0
M  V30 3712 N 342.919 -1.39368 0.735821 0
M  V30 3713 C 344.33 -1.83313 0.354015 0
M  V30 3714 C 344.681 -1.61461 -1.11466 0
M  V30 3715 O 343.806 -1.10621 -1.85989 0
M  V30 3716 C 344.401 -3.32781 0.635769 0
M  V30 3717 C 342.96 -3.75142 0.307448 0
M  V30 3718 C 342.107 -2.62358 0.897974 0
M  V30 3719 H 345.058 -1.28349 0.933398 0
M  V30 3720 H 345.079 -3.80388 -0.0921773 0
M  V30 3721 H 344.591 -3.48654 1.70476 0
M  V30 3722 H 342.692 -3.64857 -0.755674 0
M  V30 3723 H 342.805 -4.72532 0.790583 0
M  V30 3724 H 341.169 -2.52624 0.324551 0
M  V30 3725 H 341.952 -2.81036 1.97164 0
M  V30 3726 N 344.397 -0.483516 -1.5 0
M  V30 3727 C 345.344 0.304164 -2.28787 0
M  V30 3728 C 346.314 0.976114 -1.34392 0
M  V30 3729 O 347.499 0.986156 -1.63339 0
M  V30 3730 C 344.639 1.37298 -3.16612 0
M  V30 3731 C 343.752 0.714561 -4.26049 0
M  V30 3732 C 342.887 1.76232 -5.01114 0
M  V30 3733 C 341.926 1.08483 -6.0241 0
M  V30 3734 N 341.063 2.076 -6.70706 0
M  V30 3735 H 345.903 -0.373981 -2.95644 0
M  V30 3736 H 343.44 -0.196275 -1.45785 0
M  V30 3737 H 345.398 2.00445 -3.65893 0
M  V30 3738 H 344.028 2.02012 -2.51776 0
M  V30 3739 H 343.08 -0.0297798 -3.80388 0
M  V30 3740 H 344.392 0.180383 -4.98474 0
M  V30 3741 H 343.546 2.46929 -5.54176 0
M  V30 3742 H 342.285 2.33033 -4.28424 0
M  V30 3743 H 341.29 0.363545 -5.48597 0
M  V30 3744 H 342.515 0.523551 -6.77079 0
M  V30 3745 H 340.461 2.63394 -6.00799 0
M  V30 3746 H 340.378 1.59201 -7.39047 0
M  V30 3747 H 341.646 2.77639 -7.2838 0
M  V30 3748 N 345.875 1.56104 -0.216619 0
M  V30 3749 C 347.124 1.97348 0.416744 0
M  V30 3750 C 347.437 1.10715 1.6125 0
M  V30 3751 O 348.643 1.41836 2.31506 0
M  V30 3752 C 347.099 3.51059 0.792835 0
M  V30 3753 C 346.707 4.46387 -0.379828 0
M  V30 3754 C 348.451 4.01026 1.39208 0
M  V30 3755 C 346.358 5.91397 0.0184223 0
M  V30 3756 H 345.288 0.736942 0.159475 0
M  V30 3757 H 347.939 1.80827 -0.31205 0
M  V30 3758 H 346.321 3.63162 1.57891 0
M  V30 3759 H 347.495 4.46029 -1.15737 0
M  V30 3760 H 345.81 4.06734 -0.891979 0
M  V30 3761 H 348.407 5.0686 1.70286 0
M  V30 3762 H 348.75 3.46587 2.30614 0
M  V30 3763 H 349.283 3.92125 0.669537 0
M  V30 3764 H 346.022 6.49807 -0.862002 0
M  V30 3765 H 345.542 5.94961 0.760384 0
M  V30 3766 H 347.221 6.45455 0.446818 0
M  V30 3767 N 347.353 -0.0568162 1.57498 0
M  V30 3768 C 348.286 -1.09817 2.00039 0
M  V30 3769 C 349.264 -1.3674 0.879819 0
M  V30 3770 O 350.448 -1.49863 1.14338 0
M  V30 3771 C 347.575 -2.43924 2.34986 0
M  V30 3772 C 346.621 -2.33039 3.57204 0
M  V30 3773 S 347.454 -1.7102 5.07457 0
M  V30 3774 C 348.61 -3.06674 5.45621 0
M  V30 3775 H 348.843 -0.735701 2.88053 0
M  V30 3776 H 346.376 -0.265871 1.52094 0
M  V30 3777 H 348.334 -3.2106 2.55795 0
M  V30 3778 H 346.995 -2.77327 1.47474 0
M  V30 3779 H 346.188 -3.31973 3.79223 0
M  V30 3780 H 345.79 -1.64043 3.36104 0
M  V30 3781 H 348.082 -4.03 5.44608 0
M  V30 3782 H 349.025 -2.8942 6.46252 0
M  V30 3783 H 349.433 -3.07969 4.73091 0
M  V30 3784 N 348.832 -1.54138 -0.328536 0
M  V30 3785 C 349.795 -1.82462 -1.38709 0
M  V30 3786 C 350.795 -0.696229 -1.44946 0
M  V30 3787 O 351.985 -0.964535 -1.4506 0
M  V30 3788 C 349.117 -1.98018 -2.77492 0
M  V30 3789 H 350.31 -2.77037 -1.14851 0
M  V30 3790 H 347.863 -1.45779 -0.563751 0
M  V30 3791 H 348.598 -1.05637 -3.06613 0
M  V30 3792 H 348.383 -2.80124 -2.74359 0
M  V30 3793 H 349.873 -2.21396 -3.54081 0
M  V30 3794 N 350.31 0.590341 -1.46126 0
M  V30 3795 C 351.535 1.37991 -1.54833 0
M  V30 3796 C 351.96 1.87163 -0.187506 0
M  V30 3797 O 351.318 1.61133 0.831008 0
M  V30 3798 C 351.366 2.54867 -2.55098 0
M  V30 3799 O 350.47 3.56061 -2.08073 0
M  V30 3800 H 349.811 0.411265 -0.521303 0
M  V30 3801 H 352.341 0.716819 -1.91632 0
M  V30 3802 H 352.351 3.01886 -2.74461 0
M  V30 3803 H 351.026 2.18429 -3.53923 0
M  V30 3804 H 349.603 3.15574 -1.98664 0
M  V30 3805 N 351.788 1.33704 0.83433 0
M  V30 3806 C 353.035 1.25417 1.58987 0
M  V30 3807 C 353.363 -0.178869 1.93676 0
M  V30 3808 O 352.618 -1.13723 1.59265 0
M  V30 3809 C 352.917 2.07926 2.90692 0
M  V30 3810 C 352.583 3.57066 2.75345 0
M  V30 3811 C 351.245 3.97724 2.70867 0
M  V30 3812 C 353.597 4.51817 2.59828 0
M  V30 3813 C 350.925 5.31344 2.48778 0
M  V30 3814 C 353.277 5.85604 2.39272 0
M  V30 3815 C 351.941 6.25439 2.33199 0
M  V30 3816 H 351.211 0.458934 0.581774 0
M  V30 3817 H 353.858 1.65335 0.966261 0
M  V30 3818 H 352.163 1.608 3.57282 0
M  V30 3819 H 353.86 1.98868 3.48213 0
M  V30 3820 H 350.45 3.24785 2.79665 0
M  V30 3821 H 354.634 4.21311 2.62319 0
M  V30 3822 H 349.89 5.61241 2.42526 0
M  V30 3823 H 354.064 6.58623 2.2625 0
M  V30 3824 H 351.691 7.28914 2.15843 0
M  V30 3825 N 353.266 -1.05314 1.17247 0
M  V30 3826 C 354.514 -1.77941 0.958194 0
M  V30 3827 C 354.835 -1.88089 -0.514556 0
M  V30 3828 O 354.105 -1.39676 -1.37359 0
M  V30 3829 H 352.685 -0.659116 0.351533 0
M  V30 3830 H 355.347 -1.27166 1.47699 0
M  V30 3831 H 354.443 -2.79663 1.38546 0
M  V30 3832 N 354.744 -0.972509 -1.24016 0
M  V30 3833 C 355.692 -0.498562 -2.27194 0
M  V30 3834 C 356.686 0.440372 -1.63576 0
M  V30 3835 O 357.892 0.315133 -1.7722 0
M  V30 3836 H 354.267 -0.142775 -0.738322 0
M  V30 3837 H 356.238 -1.38065 -2.64539 0
M  V30 3838 C 354.987 0.191072 -3.47175 0
M  V30 3839 H 354.31 -0.522318 -3.96373 0
M  V30 3840 H 355.75 0.486445 -4.212 0
M  V30 3841 C 354.209 1.41967 -3.05527 0
M  V30 3842 O 354.739 2.51642 -3.13112 0
M  V30 3843 N 352.945 1.28746 -2.60524 0
M  V30 3844 H 352.492 0.395089 -2.54552 0
M  V30 3845 H 352.45 2.11061 -2.33025 0
M  V30 3846 N 356.222 1.38976 -0.743202 0
M  V30 3847 C 357.469 2.00343 -0.294752 0
M  V30 3848 C 357.797 1.58983 1.12047 0
M  V30 3849 O 357.052 0.813809 1.77977 0
M  V30 3850 C 357.351 3.55647 -0.353517 0
M  V30 3851 C 357.017 4.16685 -1.72292 0
M  V30 3852 C 355.679 4.3307 -2.09771 0
M  V30 3853 C 358.031 4.50464 -2.62168 0
M  V30 3854 C 355.359 4.80526 -3.36618 0
M  V30 3855 C 357.711 4.99332 -3.88395 0
M  V30 3856 C 356.375 5.13924 -4.25956 0
M  V30 3857 H 355.645 0.733108 -0.107857 0
M  V30 3858 H 358.292 1.6618 -0.951651 0
M  V30 3859 H 356.597 3.89884 0.386954 0
M  V30 3860 H 358.294 4.00998 0.0117269 0
M  V30 3861 H 354.884 4.04339 -1.42155 0
M  V30 3862 H 359.068 4.37416 -2.3448 0
M  V30 3863 H 354.324 4.90008 -3.65653 0
M  V30 3864 H 358.498 5.2444 -4.58187 0
M  V30 3865 H 356.125 5.50457 -5.2431 0
M  V30 3866 N 357.7 0.491464 1.49741 0
M  V30 3867 C 358.663 -0.280906 2.27472 0
M  V30 3868 C 359.663 -0.902454 1.33088 0
M  V30 3869 O 360.853 -0.768465 1.56334 0
M  V30 3870 C 357.985 -1.40209 3.10732 0
M  V30 3871 H 359.178 0.401056 2.97206 0
M  V30 3872 H 356.731 0.246131 1.5435 0
M  V30 3873 H 357.466 -2.11849 2.45541 0
M  V30 3874 H 357.251 -0.961969 3.80117 0
M  V30 3875 H 358.741 -1.9464 3.69466 0
M  V30 3876 N 359.178 -1.55987 0.224894 0
M  V30 3877 C 360.126 -2.21808 -0.700283 0
M  V30 3878 C 361.12 -1.19854 -1.19714 0
M  V30 3879 O 362.326 -1.37925 -1.15658 0
M  V30 3880 H 358.701 -0.711226 -0.244258 0
M  V30 3881 H 360.672 -2.98152 -0.121749 0
M  V30 3882 C 359.421 -2.91444 -1.8962 0
M  V30 3883 H 358.744 -3.69655 -1.52299 0
M  V30 3884 H 360.184 -3.40894 -2.52125 0
M  V30 3885 C 358.643 -1.94098 -2.75368 0
M  V30 3886 O 359.173 -1.46004 -3.74227 0
M  V30 3887 N 357.379 -1.61675 -2.41474 0
M  V30 3888 H 356.926 -2.00979 -1.61137 0
M  V30 3889 H 356.884 -0.968036 -2.99126 0
M  V30 3890 N 360.656 0.0484629 -1.57525 0
M  V30 3891 C 361.933 0.777447 -1.79486 0
M  V30 3892 C 362.313 1.94597 -0.818251 0
M  V30 3893 O 361.661 2.28047 0.143767 0
M  V30 3894 C 361.871 1.22864 -3.26658 0
M  V30 3895 C 363.219 1.65251 -3.91123 0
M  V30 3896 O 364.243 1.32372 -3.3069 0
M  V30 3897 O 363.102 2.26207 -4.97486 0
M  V30 3898 H 360.196 0.374357 -0.737419 0
M  V30 3899 H 362.742 0.0267359 -1.69679 0
M  V30 3900 H 361.514 0.393589 -3.89316 0
M  V30 3901 H 361.137 2.03996 -3.41279 0
M  V30 3902 N 362.134 1.5431 0.320358 0
M  V30 3903 C 363.082 1.84647 1.4145 0
M  V30 3904 C 364.076 0.718624 1.53402 0
M  V30 3905 O 365.282 0.902335 1.5575 0
M  V30 3906 H 361.657 0.585349 0.472091 0
M  V30 3907 H 363.628 2.7614 1.13089 0
M  V30 3908 C 362.377 2.09341 2.77617 0
M  V30 3909 H 361.7 2.9559 2.69196 0
M  V30 3910 H 363.14 2.3452 3.53237 0
M  V30 3911 C 361.599 0.885939 3.25043 0
M  V30 3912 O 362.129 0.0967891 4.01583 0
M  V30 3913 N 360.335 0.696682 2.82125 0
M  V30 3914 H 359.882 1.34006 2.2 0
M  V30 3915 H 359.84 -0.109712 3.14209 0
M  V30 3916 N 363.613 -0.582584 1.46437 0
M  V30 3917 C 364.523 -1.71949 1.59595 0
M  V30 3918 C 365.539 -1.67264 0.479443 0
M  V30 3919 O 366.715 -1.87171 0.743579 0
M  V30 3920 C 363.78 -3.08452 1.58298 0
M  V30 3921 C 362.841 -3.244 2.81182 0
M  V30 3922 C 362.074 -4.54391 2.79937 0
M  V30 3923 O 362.297 -5.38287 1.8869 0
M  V30 3924 O 361.231 -4.73588 3.71481 0
M  V30 3925 H 365.057 -1.63795 2.55744 0
M  V30 3926 H 362.642 -0.749643 1.29231 0
M  V30 3927 H 364.524 -3.89732 1.60271 0
M  V30 3928 H 363.199 -3.17043 0.653094 0
M  V30 3929 H 362.106 -2.42613 2.84763 0
M  V30 3930 H 363.439 -3.20699 3.7338 0
M  V30 3931 N 365.091 -1.34144 -0.827227 0
M  V30 3932 C 366.34 -1.25602 -1.5782 0
M  V30 3933 C 366.653 0.173445 -1.94829 0
M  V30 3934 O 367.859 0.380984 -2.68814 0
M  V30 3935 C 366.315 -2.20151 -2.84713 0
M  V30 3936 C 365.923 -3.68331 -2.55021 0
M  V30 3937 C 367.667 -2.20508 -3.62735 0
M  V30 3938 C 365.574 -4.54762 -3.78082 0
M  V30 3939 H 364.504 -0.466573 -0.592306 0
M  V30 3940 H 367.155 -1.59283 -0.911116 0
M  V30 3941 H 365.537 -1.79417 -3.53023 0
M  V30 3942 H 366.711 -4.17577 -1.94849 0
M  V30 3943 H 365.026 -3.7038 -1.90283 0
M  V30 3944 H 367.623 -2.82306 -4.54101 0
M  V30 3945 H 367.966 -1.20322 -3.98533 0
M  V30 3946 H 368.499 -2.59664 -3.01362 0
M  V30 3947 H 365.238 -5.55867 -3.47407 0
M  V30 3948 H 364.758 -4.10254 -4.37552 0
M  V30 3949 H 366.437 -4.69153 -4.45538 0
M  V30 3950 N 366.569 1.04691 -1.17803 0
M  V30 3951 C 367.516 2.12557 -0.899343 0
M  V30 3952 C 368.486 1.65339 0.158771 0
M  V30 3953 O 369.671 1.90789 0.0204797 0
M  V30 3954 C 366.811 3.42481 -0.424315 0
M  V30 3955 C 365.924 4.03346 -1.54713 0
M  V30 3956 C 365.059 5.21208 -1.02546 0
M  V30 3957 C 364.098 5.74089 -2.12339 0
M  V30 3958 N 363.235 6.83247 -1.61612 0
M  V30 3959 H 368.075 2.35734 -1.823 0
M  V30 3960 H 365.612 1.1564 -0.909159 0
M  V30 3961 H 367.57 4.16996 -0.130421 0
M  V30 3962 H 366.2 3.19471 0.462377 0
M  V30 3963 H 365.252 3.2622 -1.95664 0
M  V30 3964 H 366.564 4.38628 -2.37501 0
M  V30 3965 H 365.718 6.02812 -0.685718 0
M  V30 3966 H 364.457 4.87414 -0.167084 0
M  V30 3967 H 363.462 4.91111 -2.47165 0
M  V30 3968 H 364.687 6.0993 -2.98601 0
M  V30 3969 H 362.633 6.5134 -0.780533 0
M  V30 3970 H 362.55 7.17559 -2.38003 0
M  V30 3971 H 363.818 7.68491 -1.30545 0
M  V30 3972 N 368.047 0.979072 1.23499 0
M  V30 3973 C 369.293 0.648178 1.92163 0
M  V30 3974 C 369.626 -0.816049 1.76222 0
M  V30 3975 O 368.901 -1.58849 1.12237 0
M  V30 3976 C 369.184 1.03773 3.44824 0
M  V30 3977 C 369.037 2.55948 3.69879 0
M  V30 3978 C 370.356 0.580653 4.36253 0
M  V30 3979 H 367.475 0.236952 0.69787 0
M  V30 3980 H 370.117 1.22012 1.45647 0
M  V30 3981 H 368.267 0.551058 3.84572 0
M  V30 3982 H 369.939 3.12179 3.3962 0
M  V30 3983 H 368.182 2.98641 3.14636 0
M  V30 3984 H 368.853 2.78255 4.76737 0
M  V30 3985 H 371.329 0.998465 4.03943 0
M  V30 3986 H 370.205 0.881663 5.41773 0
M  V30 3987 H 370.466 -0.519052 4.39042 0
M  V30 3988 N 369.525 -1.3858 0.750561 0
M  V30 3989 C 370.455 -2.33102 0.136237 0
M  V30 3990 C 371.436 -1.54713 -0.706965 0
M  V30 3991 O 372.621 -1.83043 -0.648769 0
M  V30 3992 C 369.751 -3.38882 -0.760017 0
M  V30 3993 C 368.705 -4.27995 -0.0197785 0
M  V30 3994 C 368.031 -5.24605 -1.03408 0
M  V30 3995 C 369.331 -5.09554 1.14684 0
M  V30 3996 H 371.025 -2.84726 0.925822 0
M  V30 3997 H 368.571 -1.36898 0.446654 0
M  V30 3998 H 370.524 -4.0397 -1.19943 0
M  V30 3999 H 369.248 -2.85734 -1.58189 0
M  V30 4000 H 367.907 -3.64409 0.400184 0
M  V30 4001 H 367.555 -4.67746 -1.84994 0
M  V30 4002 H 367.255 -5.85081 -0.543464 0
M  V30 4003 H 368.779 -5.9257 -1.47288 0
M  V30 4004 H 370.193 -5.67899 0.785118 0
M  V30 4005 H 368.59 -5.7925 1.56812 0
M  V30 4006 H 369.66 -4.4347 1.96118 0
M  V30 4007 N 371.003 -0.499398 -1.49478 0
M  V30 4008 C 371.933 0.269244 -2.31943 0
M  V30 4009 C 372.914 0.964054 -1.40143 0
M  V30 4010 O 374.099 0.955767 -1.69052 0
M  V30 4011 C 371.229 1.33504 -3.20615 0
M  V30 4012 C 370.183 0.760202 -4.21195 0
M  V30 4013 C 369.509 1.9264 -4.98792 0
M  V30 4014 C 370.809 -0.247661 -5.21712 0
M  V30 4015 H 372.503 -0.419082 -2.96452 0
M  V30 4016 H 370.049 -0.202988 -1.42562 0
M  V30 4017 H 372.002 1.88048 -3.77115 0
M  V30 4018 H 370.726 2.05253 -2.54045 0
M  V30 4019 H 369.385 0.23653 -3.65836 0
M  V30 4020 H 369.033 2.63154 -4.28671 0
M  V30 4021 H 368.733 1.54785 -5.66847 0
M  V30 4022 H 370.257 2.4762 -5.58137 0
M  V30 4023 H 371.671 0.209579 -5.72917 0
M  V30 4024 H 370.068 -0.541962 -5.97648 0
M  V30 4025 H 371.138 -1.16409 -4.7072 0
M  V30 4026 N 372.481 1.55866 -0.233164 0
M  V30 4027 C 373.428 2.20796 0.67215 0
M  V30 4028 C 374.398 1.16731 1.18166 0
M  V30 4029 O 375.583 1.45129 1.23864 0
M  V30 4030 C 372.723 2.90072 1.86955 0
M  V30 4031 C 371.836 4.08759 1.39786 0
M  V30 4032 C 370.971 4.65787 2.55374 0
M  V30 4033 C 370.01 5.76752 2.04998 0
M  V30 4034 N 369.147 6.28021 3.13901 0
M  V30 4035 H 373.987 2.9779 0.111749 0
M  V30 4036 H 371.524 1.47036 0.0434007 0
M  V30 4037 H 373.482 3.28428 2.57276 0
M  V30 4038 H 372.112 2.15575 2.40265 0
M  V30 4039 H 371.164 3.7581 0.589173 0
M  V30 4040 H 372.476 4.88906 0.98856 0
M  V30 4041 H 371.63 5.06646 3.33758 0
M  V30 4042 H 370.369 3.84828 2.99598 0
M  V30 4043 H 369.374 5.35383 1.25079 0
M  V30 4044 H 370.599 6.59553 1.61759 0
M  V30 4045 H 368.545 5.49971 3.57586 0
M  V30 4046 H 368.462 7.03323 2.7726 0
M  V30 4047 H 369.73 6.73538 3.92386 0
M  V30 4048 N 373.959 -0.0401083 1.57549 0
M  V30 4049 C 374.922 -1.02871 2.04817 0
M  V30 4050 C 375.922 -1.29708 0.950388 0
M  V30 4051 O 377.112 -1.24897 1.21435 0
M  V30 4052 C 374.244 -2.36443 2.45576 0
M  V30 4053 H 375.437 -0.620631 2.93408 0
M  V30 4054 H 372.99 -0.286667 1.53649 0
M  V30 4055 H 373.725 -2.82021 1.60108 0
M  V30 4056 H 373.51 -2.18296 3.25713 0
M  V30 4057 H 375 -3.07441 2.82612 0
M  V30 4058 N 375.437 -1.54477 -0.31217 0
M  V30 4059 C 376.684 -1.73227 -1.04875 0
M  V30 4060 C 377.012 -0.512042 -1.87639 0
M  V30 4061 O 376.267 0.506131 -1.89042 0
M  V30 4062 C 376.566 -2.967 -1.99258 0
M  V30 4063 C 376.232 -4.30974 -1.32559 0
M  V30 4064 C 374.894 -4.67477 -1.141 0
M  V30 4065 C 377.246 -5.14258 -0.847835 0
M  V30 4066 C 374.574 -5.84852 -0.465326 0
M  V30 4067 C 376.926 -6.32327 -0.185931 0
M  V30 4068 C 375.59 -6.67499 0.0107077 0
M  V30 4069 H 374.86 -0.633881 -0.383765 0
M  V30 4070 H 377.507 -1.88727 -0.324731 0
M  V30 4071 H 375.812 -2.75935 -2.7815 0
M  V30 4072 H 377.509 -3.08401 -2.563 0
M  V30 4073 H 374.099 -4.02262 -1.4793 0
M  V30 4074 H 378.283 -4.86565 -0.978192 0
M  V30 4075 H 373.539 -6.10654 -0.301883 0
M  V30 4076 H 377.713 -6.96135 0.192211 0
M  V30 4077 H 375.34 -7.58306 0.536287 0
M  V30 4078 N 376.915 0.57481 -1.46744 0
M  V30 4079 C 378.164 1.32898 -1.51727 0
M  V30 4080 C 378.477 1.948 -0.176692 0
M  V30 4081 O 379.683 2.71299 -0.104385 0
M  V30 4082 C 378.139 2.40901 -2.67385 0
M  V30 4083 C 377.747 1.85266 -4.07898 0
M  V30 4084 C 379.491 3.17609 -2.81646 0
M  V30 4085 C 377.398 2.90945 -5.14883 0
M  V30 4086 H 376.328 0.499631 -0.564699 0
M  V30 4087 H 378.979 0.612536 -1.72975 0
M  V30 4088 H 377.361 3.15379 -2.39483 0
M  V30 4089 H 378.535 1.17278 -4.45626 0
M  V30 4090 H 376.85 1.21199 -3.98371 0
M  V30 4091 H 379.447 3.96493 -3.58744 0
M  V30 4092 H 379.79 3.70696 -1.89448 0
M  V30 4093 H 380.323 2.50239 -3.09233 0
M  V30 4094 H 377.062 2.42736 -6.089 0
M  V30 4095 H 376.582 3.57398 -4.81691 0
M  V30 4096 H 378.261 3.54755 -5.41071 0
M  V30 4097 N 378.394 1.34581 0.820102 0
M  V30 4098 C 379.357 1.2628 1.91275 0
M  V30 4099 C 380.357 0.177344 1.59819 0
M  V30 4100 O 381.547 0.430156 1.68806 0
M  V30 4101 C 378.679 0.950327 3.27386 0
M  V30 4102 H 379.872 2.23421 2.00057 0
M  V30 4103 H 377.425 1.1891 1.0144 0
M  V30 4104 H 378.16 -0.0177938 3.24295 0
M  V30 4105 H 377.945 1.73549 3.51601 0
M  V30 4106 H 379.435 0.917492 4.07396 0
M  V30 4107 N 379.872 -1.04064 1.18357 0
M  V30 4108 C 380.82 -2.14187 0.907007 0
M  V30 4109 C 381.814 -1.68879 -0.132725 0
M  V30 4110 O 383.02 -1.79993 0.0154248 0
M  V30 4111 H 379.395 -0.699585 0.275835 0
M  V30 4112 H 381.366 -2.34711 1.84264 0
M  V30 4113 C 380.115 -3.44785 0.449254 0
M  V30 4114 H 379.438 -3.80058 1.24081 0
M  V30 4115 H 380.878 -4.22974 0.294737 0
M  V30 4116 C 379.337 -3.26391 -0.834909 0
M  V30 4117 O 379.867 -3.53973 -1.89911 0
M  V30 4118 N 378.073 -2.79726 -0.787523 0
M  V30 4119 H 377.62 -2.5748 0.0787347 0
M  V30 4120 H 377.578 -2.67798 -1.64716 0
M  V30 4121 N 381.35 -0.985608 -1.22978 0
M  V30 4122 C 382.28 -0.549649 -2.26939 0
M  V30 4123 C 383.261 0.419803 -1.64838 0
M  V30 4124 O 384.446 0.31203 -1.91677 0
M  V30 4125 C 381.576 0.143652 -3.47003 0
M  V30 4126 C 380.53 -0.743606 -4.21491 0
M  V30 4127 C 379.856 0.0822027 -5.34637 0
M  V30 4128 C 381.156 -2.03694 -4.80943 0
M  V30 4129 H 382.85 -1.41862 -2.63658 0
M  V30 4130 H 380.396 -0.683571 -1.26741 0
M  V30 4131 H 382.349 0.459985 -4.18882 0
M  V30 4132 H 381.073 1.04711 -3.09359 0
M  V30 4133 H 379.732 -1.04347 -3.51436 0
M  V30 4134 H 379.38 0.986359 -4.93234 0
M  V30 4135 H 379.08 -0.508377 -5.85397 0
M  V30 4136 H 380.604 0.392797 -6.09335 0
M  V30 4137 H 382.018 -1.78504 -5.44802 0
M  V30 4138 H 380.415 -2.57573 -5.42011 0
M  V30 4139 H 381.485 -2.72042 -4.01399 0
M  V30 4140 N 382.828 1.3818 -0.7579 0
M  V30 4141 C 383.775 2.30416 -0.133057 0
M  V30 4142 C 384.745 1.50398 0.704957 0
M  V30 4143 O 385.93 1.79014 0.660192 0
M  V30 4144 C 383.07 3.36834 0.750813 0
M  V30 4145 C 382.183 4.31879 -0.102297 0
M  V30 4146 C 381.318 5.25368 0.784979 0
M  V30 4147 C 380.357 6.12058 -0.0715046 0
M  V30 4148 N 379.494 6.97832 0.772972 0
M  V30 4149 H 384.334 2.83274 -0.925186 0
M  V30 4150 H 381.871 1.39461 -0.467866 0
M  V30 4151 H 383.829 3.97145 1.27794 0
M  V30 4152 H 382.459 2.85374 1.50868 0
M  V30 4153 H 381.511 3.72991 -0.747095 0
M  V30 4154 H 382.823 4.92921 -0.763552 0
M  V30 4155 H 381.977 5.90818 1.37911 0
M  V30 4156 H 380.716 4.64703 1.47996 0
M  V30 4157 H 379.721 5.456 -0.678272 0
M  V30 4158 H 380.946 6.74793 -0.763606 0
M  V30 4159 H 378.892 6.3971 1.45282 0
M  V30 4160 H 378.809 7.55812 0.168709 0
M  V30 4161 H 380.077 7.67687 1.35194 0
M  V30 4162 N 384.306 0.507319 1.49211 0
M  V30 4163 C 385.531 -0.033725 2.07373 0
M  V30 4164 C 385.956 -1.29485 1.36437 0
M  V30 4165 O 385.314 -1.76294 0.423087 0
M  V30 4166 C 385.362 -0.263945 3.59633 0
M  V30 4167 O 384.466 -1.33737 3.90113 0
M  V30 4168 H 383.807 0.0290331 0.663365 0
M  V30 4169 H 386.337 0.708749 1.91932 0
M  V30 4170 H 386.347 -0.493536 4.05004 0
M  V30 4171 H 385.022 0.657424 4.10671 0
M  V30 4172 H 383.599 -1.09224 3.56545 0
M  V30 4173 N 385.784 -1.5574 0.241426 0
M  V30 4174 C 387.009 -2.0366 -0.392111 0
M  V30 4175 C 387.434 -1.11969 -1.51144 0
M  V30 4176 O 386.792 -0.111594 -1.80956 0
M  V30 4177 C 386.84 -3.49638 -0.882371 0
M  V30 4178 O 385.944 -3.6108 -1.99235 0
M  V30 4179 H 385.285 -0.658379 -0.0862122 0
M  V30 4180 H 387.815 -2.01302 0.365881 0
M  V30 4181 H 387.825 -3.90351 -1.18702 0
M  V30 4182 H 386.5 -4.15852 -0.0632361 0
M  V30 4183 H 385.077 -3.32262 -1.69282 0
M  V30 4184 N 387.262 0.0317525 -1.57568 0
M  V30 4185 C 388.487 0.738664 -1.938 0
M  V30 4186 C 388.912 1.68242 -0.841208 0
M  V30 4187 O 388.27 1.80157 0.203267 0
M  V30 4188 C 388.318 1.47417 -3.29091 0
M  V30 4189 O 387.422 2.5872 -3.2115 0
M  V30 4190 H 386.763 0.198856 -0.633524 0
M  V30 4191 H 389.293 -0.0119713 -2.04596 0
M  V30 4192 H 389.303 1.84468 -3.63917 0
M  V30 4193 H 387.978 0.781988 -4.08482 0
M  V30 4194 H 386.555 2.24231 -2.97951 0
M  V30 4195 N 388.74 1.54641 0.303973 0
M  V30 4196 C 390.151 1.64811 0.877163 0
M  V30 4197 C 390.502 0.554838 1.88191 0
M  V30 4198 O 389.627 -0.309033 2.14182 0
M  V30 4199 C 390.222 2.9876 1.59775 0
M  V30 4200 C 388.781 3.11061 2.11938 0
M  V30 4201 C 387.928 2.60479 0.951097 0
M  V30 4202 H 390.879 1.58493 0.0810486 0
M  V30 4203 H 390.9 2.90017 2.46314 0
M  V30 4204 H 390.412 3.7831 0.866226 0
M  V30 4205 H 388.513 2.36225 2.88146 0
M  V30 4206 H 388.626 4.17171 2.35595 0
M  V30 4207 H 386.99 2.16859 1.33583 0
M  V30 4208 H 387.773 3.42504 0.233581 0
M  V30 4209 N 390.218 -0.567019 1.47046 0
M  V30 4210 C 391.446 -1.35027 1.56765 0
M  V30 4211 C 391.861 -1.8758 0.214316 0
M  V30 4212 O 391.218 -1.64471 -0.790919 0
M  V30 4213 C 391.269 -2.52698 2.58507 0
M  V30 4214 O 390.99 -2.0232 3.88585 0
M  V30 4215 C 392.491 -3.45043 2.78316 0
M  V30 4216 H 389.711 -0.41195 0.529658 0
M  V30 4217 H 392.255 -0.687832 1.92585 0
M  V30 4218 H 390.41 -3.149 2.25648 0
M  V30 4219 H 390.824 -2.79068 4.44096 0
M  V30 4220 H 392.298 -4.2405 3.53391 0
M  V30 4221 H 392.775 -3.97971 1.85784 0
M  V30 4222 H 393.381 -2.88665 3.12334 0
M  V30 4223 N 391.696 -1.35014 -0.812953 0
M  V30 4224 C 392.945 -1.27269 -1.56479 0
M  V30 4225 C 393.258 0.152771 -1.95002 0
M  V30 4226 O 394.464 0.352451 -2.69203 0
M  V30 4227 C 392.92 -2.23159 -2.82362 0
M  V30 4228 C 392.528 -3.71016 -2.511 0
M  V30 4229 C 394.272 -2.24342 -3.60376 0
M  V30 4230 C 392.179 -4.58746 -3.73237 0
M  V30 4231 H 391.109 -0.472829 -0.587324 0
M  V30 4232 H 393.76 -1.6024 -0.894171 0
M  V30 4233 H 392.142 -1.83151 -3.51101 0
M  V30 4234 H 393.316 -4.1962 -1.90409 0
M  V30 4235 H 391.631 -3.72378 -1.86343 0
M  V30 4236 H 394.228 -2.87107 -4.51081 0
M  V30 4237 H 394.571 -1.24542 -3.97234 0
M  V30 4238 H 395.104 -2.62846 -2.98591 0
M  V30 4239 H 391.843 -5.59521 -3.41492 0
M  V30 4240 H 391.363 -4.14871 -4.33176 0
M  V30 4241 H 393.042 -4.73852 -4.40537 0
M  V30 4242 N 393.175 1.03435 -1.18907 0
M  V30 4243 C 394.591 1.28973 -0.940111 0
M  V30 4244 C 394.791 1.97676 0.390691 0
M  V30 4245 O 393.847 2.26127 1.12352 0
M  V30 4246 C 395.16 2.14221 -2.11021 0
M  V30 4247 C 396.708 2.27547 -2.14922 0
M  V30 4248 C 397.183 3.16164 -3.31367 0
M  V30 4249 N 398.674 3.23752 -3.31269 0
M  V30 4250 C 399.409 3.92495 -4.18014 0
M  V30 4251 N 398.905 4.63515 -5.14904 0
M  V30 4252 N 400.698 3.88838 -4.05908 0
M  V30 4253 H 392.849 0.57252 -2.04538 0
M  V30 4254 H 395.112 0.315184 -0.894071 0
M  V30 4255 H 394.818 1.71054 -3.073 0
M  V30 4256 H 394.692 3.14919 -2.0762 0
M  V30 4257 H 397.079 2.69947 -1.19217 0
M  V30 4258 H 397.16 1.26418 -2.22378 0
M  V30 4259 H 396.804 2.74474 -4.27348 0
M  V30 4260 H 396.734 4.17339 -3.21148 0
M  V30 4261 H 399.225 2.73167 -2.61129 0
M  V30 4262 H 399.538 5.13583 -5.77453 0
M  V30 4263 H 397.883 4.62398 -5.18857 0
M  V30 4264 H 401.074 3.32491 -3.29495 0
M  V30 4265 H 401.247 4.4214 -4.73726 0
M  V30 4266 N 394.653 0.992116 1.22453 0
M  V30 4267 C 396.069 0.702713 1.43297 0
M  V30 4268 C 396.269 -0.726909 1.87932 0
M  V30 4269 O 395.325 -1.49792 2.0327 0
M  V30 4270 C 396.638 1.70762 2.47509 0
M  V30 4271 C 398.186 1.72298 2.61309 0
M  V30 4272 C 398.661 2.71649 3.68742 0
M  V30 4273 N 400.152 2.70239 3.76199 0
M  V30 4274 C 400.887 3.43778 4.58917 0
M  V30 4275 N 400.383 4.26914 5.45633 0
M  V30 4276 N 402.176 3.32487 4.5322 0
M  V30 4277 H 394.327 1.91543 0.917871 0
M  V30 4278 H 396.59 0.826031 0.465162 0
M  V30 4279 H 396.296 2.73059 2.21657 0
M  V30 4280 H 396.17 1.49985 3.46099 0
M  V30 4281 H 398.557 0.706989 2.86506 0
M  V30 4282 H 398.638 1.97143 1.62997 0
M  V30 4283 H 398.282 3.73397 3.44292 0
M  V30 4284 H 398.212 2.44074 4.66622 0
M  V30 4285 H 400.703 2.09912 3.14237 0
M  V30 4286 H 401.016 4.79855 6.05771 0
M  V30 4287 H 399.361 4.31002 5.45218 0
M  V30 4288 H 402.552 2.6698 3.84499 0
M  V30 4289 H 402.725 3.90058 5.17454 0
M  V30 4290 N 396.131 -1.37776 0.765217 0
M  V30 4291 C 397.359 -2.04124 0.337767 0
M  V30 4292 C 397.774 -1.57715 -1.03785 0
M  V30 4293 O 397.131 -0.755447 -1.6613 0
M  V30 4294 C 397.182 -3.59658 0.364442 0
M  V30 4295 O 396.903 -4.04367 1.68579 0
M  V30 4296 C 398.404 -4.43236 -0.0754221 0
M  V30 4297 H 395.624 -0.655696 0.142491 0
M  V30 4298 H 398.168 -1.76238 1.03732 0
M  V30 4299 H 396.323 -3.86339 -0.286471 0
M  V30 4300 H 396.737 -4.98857 1.61993 0
M  V30 4301 H 398.211 -5.52 -0.00560067 0
M  V30 4302 H 398.688 -4.2455 -1.12491 0
M  V30 4303 H 399.294 -4.21767 0.547055 0
M  V30 4304 N 397.609 -0.515225 -1.4894 0
M  V30 4305 C 398.572 0.244681 -2.2789 0
M  V30 4306 C 399.572 0.881166 -1.34507 0
M  V30 4307 O 400.762 0.743497 -1.57537 0
M  V30 4308 C 397.894 1.35247 -3.12923 0
M  V30 4309 H 399.087 -0.448289 -2.96531 0
M  V30 4310 H 396.64 -0.270656 -1.53939 0
M  V30 4311 H 397.375 2.07916 -2.48881 0
M  V30 4312 H 397.16 0.901374 -3.81599 0
M  V30 4313 H 398.65 1.88737 -3.72516 0
M  V30 4314 N 399.087 1.5561 -0.249682 0
M  V30 4315 C 400.05 2.20217 0.635394 0
M  V30 4316 C 401.05 1.17227 1.10066 0
M  V30 4317 O 402.24 1.42292 1.00492 0
M  V30 4318 C 399.372 2.84794 1.87363 0
M  V30 4319 H 400.565 2.99814 0.0716752 0
M  V30 4320 H 398.118 1.563 -0.000153234 0
M  V30 4321 H 398.853 2.09142 2.47851 0
M  V30 4322 H 398.638 3.60241 1.5482 0
M  V30 4323 H 400.128 3.3423 2.5036 0
M  V30 4324 N 400.565 -0.0233959 1.57583 0
M  V30 4325 C 401.813 -0.711654 1.89156 0
M  V30 4326 C 402.134 -1.75591 0.848096 0
M  V30 4327 O 401.404 -1.95547 -0.117566 0
M  V30 4328 H 399.984 -0.265835 0.698098 0
M  V30 4329 H 402.646 0.0119948 1.94896 0
M  V30 4330 H 401.742 -1.19766 2.88206 0
M  V30 4331 N 402.043 -1.548 -0.295768 0
M  V30 4332 C 403.268 -1.78653 -1.05346 0
M  V30 4333 C 403.693 -0.546894 -1.79974 0
M  V30 4334 O 403.051 0.502763 -1.7419 0
M  V30 4335 C 403.099 -2.99679 -2.00561 0
M  V30 4336 O 402.203 -2.7317 -3.08953 0
M  V30 4337 H 401.544 -0.59116 -0.302367 0
M  V30 4338 H 404.074 -2.01895 -0.331598 0
M  V30 4339 H 404.084 -3.27793 -2.42932 0
M  V30 4340 H 402.759 -3.89562 -1.4565 0
M  V30 4341 H 401.336 -2.56089 -2.71059 0
M  V30 4342 N 403.521 0.559213 -1.47345 0
M  V30 4343 C 404.484 1.64854 -1.59235 0
M  V30 4344 C 405.484 1.53851 -0.467607 0
M  V30 4345 O 406.674 1.58045 -0.732617 0
M  V30 4346 C 403.806 3.04388 -1.53496 0
M  V30 4347 H 404.999 1.55662 -2.56339 0
M  V30 4348 H 402.552 0.778973 -1.35505 0
M  V30 4349 H 403.287 3.19115 -0.577604 0
M  V30 4350 H 403.072 3.13783 -2.35123 0
M  V30 4351 H 404.562 3.83642 -1.6495 0
M  V30 4352 N 404.999 1.35443 0.805782 0
M  V30 4353 C 406.245 1.28952 1.56522 0
M  V30 4354 C 406.578 -0.135597 1.93726 0
M  V30 4355 O 405.853 -1.08516 1.61414 0
M  V30 4356 C 406.136 2.19678 2.85331 0
M  V30 4357 C 405.989 3.7081 2.54598 0
M  V30 4358 C 407.308 2.09495 3.8704 0
M  V30 4359 H 404.427 0.469764 0.567883 0
M  V30 4360 H 407.069 1.65851 0.927001 0
M  V30 4361 H 405.219 1.8834 3.39795 0
M  V30 4362 H 406.891 4.12593 2.06312 0
M  V30 4363 H 405.134 3.91051 1.8778 0
M  V30 4364 H 405.805 4.29679 3.46525 0
M  V30 4365 H 408.281 2.37045 3.41978 0
M  V30 4366 H 407.157 2.75173 4.74943 0
M  V30 4367 H 407.418 1.07714 4.28777 0
M  V30 4368 N 406.477 -1.02803 1.19454 0
M  V30 4369 C 407.702 -1.80378 1.02364 0
M  V30 4370 C 408.127 -1.83282 -0.423007 0
M  V30 4371 O 407.485 -1.25945 -1.30413 0
M  V30 4372 C 407.533 -3.23248 1.59821 0
M  V30 4373 O 406.637 -4.04 0.828105 0
M  V30 4374 H 405.978 -0.556799 0.361761 0
M  V30 4375 H 408.508 -1.29385 1.58495 0
M  V30 4376 H 408.518 -3.73994 1.63073 0
M  V30 4377 H 407.193 -3.2045 2.65113 0
M  V30 4378 H 405.77 -3.62635 0.86891 0
M  V30 4379 N 407.956 -0.998596 -1.21925 0
M  V30 4380 C 409.205 -0.673085 -1.90138 0
M  V30 4381 C 409.518 0.79895 -1.78539 0
M  V30 4382 O 410.724 1.23628 -2.4172 0
M  V30 4383 C 409.18 -1.15339 -3.40918 0
M  V30 4384 C 408.788 -2.65106 -3.61141 0
M  V30 4385 C 410.532 -0.902476 -4.14796 0
M  V30 4386 C 408.439 -3.0671 -5.05651 0
M  V30 4387 H 407.369 -0.248057 -0.712028 0
M  V30 4388 H 410.02 -1.20891 -1.38049 0
M  V30 4389 H 408.402 -0.545658 -3.92223 0
M  V30 4390 H 409.576 -3.31274 -3.20304 0
M  V30 4391 H 407.891 -2.88142 -3.00605 0
M  V30 4392 H 410.488 -1.18895 -5.21314 0
M  V30 4393 H 410.831 0.161349 -4.15987 0
M  V30 4394 H 411.364 -1.47269 -3.69536 0
M  V30 4395 H 408.103 -4.12292 -5.09603 0
M  V30 4396 H 407.623 -2.45249 -5.47369 0
M  V30 4397 H 409.302 -2.9833 -5.74115 0
M  V30 4398 N 409.434 1.37368 -0.772513 0
M  V30 4399 C 410.674 2.01512 -0.342361 0
M  V30 4400 C 411.038 1.59997 1.06136 0
M  V30 4401 O 412.239 2.16609 1.59167 0
M  V30 4402 C 410.51 3.54134 -0.482048 0
M  V30 4403 S 412.069 4.38585 -0.137272 0
M  V30 4404 H 408.887 0.698699 -0.131686 0
M  V30 4405 H 411.489 1.67552 -1.0073 0
M  V30 4406 H 410.193 3.81837 -1.50428 0
M  V30 4407 H 409.724 3.92894 0.199413 0
M  V30 4408 H 411.739 4.84594 1.06692 0
M  V30 4409 N 410.912 0.523116 1.48665 0
M  V30 4410 C 411.844 -0.280421 2.27478 0
M  V30 4411 C 412.857 -0.910694 1.34945 0
M  V30 4412 O 414.046 -0.790295 1.60052 0
M  V30 4413 C 411.146 -1.41171 3.08097 0
M  V30 4414 C 410.319 -0.884642 4.28361 0
M  V30 4415 C 409.378 -1.89622 4.90846 0
M  V30 4416 O 408.404 -1.4559 5.50265 0
M  V30 4417 N 409.606 -3.22801 4.82472 0
M  V30 4418 H 412.371 0.395481 2.97079 0
M  V30 4419 H 409.932 0.357018 1.57915 0
M  V30 4420 H 411.924 -2.08645 3.4677 0
M  V30 4421 H 410.494 -1.99139 2.40961 0
M  V30 4422 H 409.714 -0.0341177 3.94185 0
M  V30 4423 H 411.002 -0.511268 5.06225 0
M  V30 4424 H 410.4 -3.61246 4.35336 0
M  V30 4425 H 408.957 -3.85927 5.25265 0
M  V30 4426 N 412.39 -1.55475 0.257931 0
M  V30 4427 C 413.34 -2.18506 -0.651094 0
M  V30 4428 C 414.324 -1.14431 -1.13112 0
M  V30 4429 O 415.516 -1.40305 -1.07905 0
M  V30 4430 C 412.645 -2.89653 -1.84272 0
M  V30 4431 C 411.731 -4.00996 -1.38068 0
M  V30 4432 N 412.122 -5.01816 -0.633609 0
M  V30 4433 C 410.42 -4.13753 -1.66506 0
M  V30 4434 C 411.121 -5.80371 -0.392922 0
M  V30 4435 N 410.097 -5.3505 -0.960359 0
M  V30 4436 H 413.899 -2.93811 -0.0722883 0
M  V30 4437 H 411.413 -1.62286 0.0607256 0
M  V30 4438 H 413.41 -3.33245 -2.50506 0
M  V30 4439 H 412.07 -2.15854 -2.42564 0
M  V30 4440 H 413.081 -5.17128 -0.282626 0
M  V30 4441 H 409.758 -3.51133 -2.25858 0
M  V30 4442 H 411.148 -6.7159 0.204235 0
M  V30 4443 N 413.868 0.0150385 -1.57593 0
M  V30 4444 C 415.093 0.718067 -1.94573 0
M  V30 4445 C 415.518 1.6734 -0.859005 0
M  V30 4446 O 414.876 1.80362 0.184147 0
M  V30 4447 C 414.924 1.43918 -3.30636 0
M  V30 4448 O 414.028 2.55299 -3.23876 0
M  V30 4449 H 413.369 0.192125 -0.635597 0
M  V30 4450 H 415.899 -0.0336708 -2.04572 0
M  V30 4451 H 415.909 1.80598 -3.65853 0
M  V30 4452 H 414.584 0.738619 -4.09289 0
M  V30 4453 H 413.161 2.21058 -3.00312 0
M  V30 4454 N 415.346 1.54954 0.287554 0
M  V30 4455 C 416.762 1.46469 0.633964 0
M  V30 4456 C 416.962 0.666865 1.90145 0
M  V30 4457 O 416.018 0.179906 2.51858 0
M  V30 4458 C 417.331 2.90556 0.774454 0
M  V30 4459 C 418.879 3.00681 0.869462 0
M  V30 4460 C 419.354 4.45993 1.04184 0
M  V30 4461 N 420.845 4.4976 1.10772 0
M  V30 4462 C 421.58 5.59393 1.25964 0
M  V30 4463 N 421.076 6.78923 1.37968 0
M  V30 4464 N 422.869 5.47107 1.28959 0
M  V30 4465 H 415.02 2.05288 -0.545041 0
M  V30 4466 H 417.283 0.930305 -0.182308 0
M  V30 4467 H 416.989 3.51594 -0.086207 0
M  V30 4468 H 416.863 3.38743 1.6593 0
M  V30 4469 H 419.25 2.39749 1.7206 0
M  V30 4470 H 419.331 2.55769 -0.0396831 0
M  V30 4471 H 418.975 5.07524 0.195422 0
M  V30 4472 H 418.905 4.88548 1.96542 0
M  V30 4473 H 421.396 3.63651 1.02794 0
M  V30 4474 H 421.709 7.58231 1.49353 0
M  V30 4475 H 420.054 6.81763 1.34999 0
M  V30 4476 H 423.245 4.52668 1.19202 0
M  V30 4477 H 423.418 6.32595 1.40455 0
M  V30 4478 N 416.824 -0.551391 1.4764 0
M  V30 4479 C 418.24 -0.877887 1.33287 0
M  V30 4480 C 418.44 -1.98817 0.327721 0
M  V30 4481 O 417.496 -2.51171 -0.258695 0
M  V30 4482 C 418.809 -1.26563 2.72768 0
M  V30 4483 C 420.357 -1.37673 2.81097 0
M  V30 4484 C 420.832 -1.79799 4.21232 0
M  V30 4485 N 422.323 -1.8694 4.23802 0
M  V30 4486 C 423.058 -2.20876 5.29151 0
M  V30 4487 N 422.554 -2.53386 6.448 0
M  V30 4488 N 424.347 -2.217 5.16532 0
M  V30 4489 H 416.498 0.18153 2.11623 0
M  V30 4490 H 418.761 0.0185514 0.947818 0
M  V30 4491 H 418.467 -0.523591 3.47781 0
M  V30 4492 H 418.341 -2.22052 3.04915 0
M  V30 4493 H 420.728 -2.10956 2.06353 0
M  V30 4494 H 420.809 -0.40357 2.52596 0
M  V30 4495 H 420.453 -1.07083 4.96483 0
M  V30 4496 H 420.383 -2.78128 4.4716 0
M  V30 4497 H 422.874 -1.64179 3.40373 0
M  V30 4498 H 423.187 -2.78325 7.20941 0
M  V30 4499 H 421.532 -2.50953 6.48111 0
M  V30 4500 H 424.723 -1.95745 4.25207 0
M  V30 4501 H 424.896 -2.47818 5.98741 0
M  V30 4502 N 418.302 -1.35869 -0.798587 0
M  V30 4503 C 419.53 -1.32722 -1.58722 0
M  V30 4504 C 419.945 0.0935631 -1.88568 0
M  V30 4505 O 419.302 1.04784 -1.49421 0
M  V30 4506 C 419.353 -2.13974 -2.91371 0
M  V30 4507 O 419.074 -3.50514 -2.62815 0
M  V30 4508 C 420.575 -2.18504 -3.85708 0
M  V30 4509 H 417.795 -0.45562 -0.492596 0
M  V30 4510 H 420.339 -1.78837 -0.991843 0
M  V30 4511 H 418.494 -1.71438 -3.47402 0
M  V30 4512 H 418.908 -3.92806 -3.47568 0
M  V30 4513 H 420.382 -2.79732 -4.75872 0
M  V30 4514 H 420.859 -1.18597 -4.22885 0
M  V30 4515 H 421.465 -2.61236 -3.35612 0
M  V30 4516 N 419.78 1.02168 -1.19998 0
M  V30 4517 C 420.712 2.10705 -0.901994 0
M  V30 4518 C 421.725 1.6244 0.108216 0
M  V30 4519 O 422.914 1.78082 -0.12214 0
M  V30 4520 C 420.014 3.37291 -0.329834 0
M  V30 4521 C 419.187 4.14714 -1.39035 0
M  V30 4522 C 418.246 5.19606 -0.830432 0
M  V30 4523 O 417.272 5.48809 -1.50989 0
M  V30 4524 N 418.474 5.79366 0.362696 0
M  V30 4525 H 421.239 2.36856 -1.83628 0
M  V30 4526 H 418.8 1.18518 -1.10296 0
M  V30 4527 H 420.792 4.04657 0.0587633 0
M  V30 4528 H 419.362 3.0843 0.508891 0
M  V30 4529 H 418.582 3.42392 -1.9535 0
M  V30 4530 H 419.87 4.63226 -2.10474 0
M  V30 4531 H 419.268 5.57968 0.932081 0
M  V30 4532 H 417.825 6.48106 0.69299 0
M  V30 4533 N 421.258 1.00505 1.21394 0
M  V30 4534 C 422.488 0.705584 1.94178 0
M  V30 4535 C 422.896 -0.735846 1.74304 0
M  V30 4536 O 422.239 -1.50954 1.04683 0
M  V30 4537 C 422.301 0.94689 3.46806 0
M  V30 4538 C 421.965 2.37517 3.90429 0
M  V30 4539 C 422.962 3.35539 3.97127 0
M  V30 4540 C 420.647 2.71284 4.22742 0
M  V30 4541 C 422.641 4.65395 4.3553 0
M  V30 4542 C 420.328 4.01356 4.60822 0
M  V30 4543 C 421.326 4.98223 4.67186 0
M  V30 4544 O 421.014 6.25969 5.04399 0
M  V30 4545 H 420.746 0.259216 0.624326 0
M  V30 4546 H 423.3 1.34592 1.55159 0
M  V30 4547 H 421.53 0.249386 3.85895 0
M  V30 4548 H 423.219 0.640804 4.0081 0
M  V30 4549 H 423.985 3.10786 3.7234 0
M  V30 4550 H 419.864 1.96581 4.16985 0
M  V30 4551 H 423.408 5.41002 4.40412 0
M  V30 4552 H 419.305 4.25893 4.85063 0
M  V30 4553 H 420.073 6.30085 5.22431 0
M  V30 4554 N 422.737 -1.36956 0.779787 0
M  V30 4555 C 423.984 -1.99491 0.347766 0
M  V30 4556 C 424.312 -1.61898 -1.07793 0
M  V30 4557 O 423.567 -0.86071 -1.75756 0
M  V30 4558 C 423.866 -3.54585 0.447686 0
M  V30 4559 C 423.532 -4.1197 1.83279 0
M  V30 4560 C 422.194 -4.27356 2.2118 0
M  V30 4561 C 424.546 -4.43354 2.74019 0
M  V30 4562 C 421.874 -4.71432 3.4924 0
M  V30 4563 C 424.226 -4.88858 4.01497 0
M  V30 4564 C 422.89 -5.0245 4.39432 0
M  V30 4565 H 422.16 -0.729991 0.127257 0
M  V30 4566 H 424.807 -1.63599 0.995376 0
M  V30 4567 H 423.112 -3.90773 -0.283447 0
M  V30 4568 H 424.809 -4.00888 0.0945948 0
M  V30 4569 H 421.399 -4.00428 1.52825 0
M  V30 4570 H 425.583 -4.31045 2.45995 0
M  V30 4571 H 420.839 -4.80141 3.78516 0
M  V30 4572 H 425.013 -5.12108 4.71931 0
M  V30 4573 H 422.64 -5.36362 5.38721 0
M  V30 4574 N 424.215 -0.530993 -1.48385 0
M  V30 4575 C 425.445 -0.00133928 -2.066 0
M  V30 4576 C 425.853 1.28599 -1.38777 0
M  V30 4577 O 425.196 1.77599 -0.469495 0
M  V30 4578 C 425.258 0.292137 -3.58311 0
M  V30 4579 C 424.922 -0.901864 -4.48013 0
M  V30 4580 C 425.919 -1.80053 -4.87726 0
M  V30 4581 C 423.604 -1.10915 -4.89901 0
M  V30 4582 C 425.598 -2.89038 -5.68098 0
M  V30 4583 C 423.285 -2.20213 -5.70043 0
M  V30 4584 C 424.283 -3.09107 -6.0905 0
M  V30 4585 O 423.971 -4.16514 -6.87583 0
M  V30 4586 H 423.703 -0.0308475 -0.675296 0
M  V30 4587 H 426.257 -0.736335 -1.91748 0
M  V30 4588 H 424.487 1.08112 -3.7128 0
M  V30 4589 H 426.176 0.763994 -3.98645 0
M  V30 4590 H 426.942 -1.65234 -4.55986 0
M  V30 4591 H 422.821 -0.426498 -4.59023 0
M  V30 4592 H 426.365 -3.58451 -5.98464 0
M  V30 4593 H 422.262 -2.35016 -6.01197 0
M  V30 4594 H 423.03 -4.14237 -7.05939 0
M  V30 4595 N 425.693 1.55336 -0.266172 0
M  V30 4596 C 426.918 2.04258 0.359661 0
M  V30 4597 C 427.343 1.14359 1.49344 0
M  V30 4598 O 426.701 0.140369 1.80756 0
M  V30 4599 C 426.749 3.50997 0.826635 0
M  V30 4600 O 425.853 3.64204 1.93466 0
M  V30 4601 H 425.194 0.659668 0.075727 0
M  V30 4602 H 427.724 2.00694 -0.39786 0
M  V30 4603 H 427.734 3.9219 1.12477 0
M  V30 4604 H 426.409 4.159 -0.00293032 0
M  V30 4605 H 424.986 3.34913 1.63974 0
M  V30 4606 N 427.171 -0.0066808 1.57599 0
M  V30 4607 C 428.417 -0.68835 1.91398 0
M  V30 4608 C 428.772 -1.7175 0.86716 0
M  V30 4609 O 428.065 -1.91215 -0.121475 0
M  V30 4610 C 428.259 -1.37939 3.29708 0
M  V30 4611 C 428.088 -0.418689 4.47747 0
M  V30 4612 C 426.858 -0.031526 5.0529 0
M  V30 4613 C 429.056 0.312301 5.13351 0
M  V30 4614 N 427.038 0.928088 6.06844 0
M  V30 4615 C 428.409 1.12682 6.09674 0
M  V30 4616 C 430.464 0.376853 4.96472 0
M  V30 4617 C 429.167 2 6.90936 0
M  V30 4618 C 431.193 1.23723 5.78314 0
M  V30 4619 C 430.555 2.03962 6.74225 0
M  V30 4620 H 426.654 -0.225292 0.748844 0
M  V30 4621 H 429.238 0.0520973 1.9463 0
M  V30 4622 H 427.409 -2.09017 3.27363 0
M  V30 4623 H 429.141 -2.01522 3.50957 0
M  V30 4624 H 425.896 -0.398485 4.71921 0
M  V30 4625 H 426.32 1.40307 6.62301 0
M  V30 4626 H 430.962 -0.22921 4.22178 0
M  V30 4627 H 428.68 2.61676 7.64559 0
M  V30 4628 H 432.266 1.291 5.67296 0
M  V30 4629 H 431.146 2.69461 7.36451 0
M  V30 4630 N 428.649 -1.55105 -0.279332 0
M  V30 4631 C 429.579 -1.90557 -1.34945 0
M  V30 4632 C 430.56 -0.766738 -1.51839 0
M  V30 4633 O 431.745 -1.02434 -1.64988 0
M  V30 4634 C 428.875 -2.17193 -2.71006 0
M  V30 4635 C 427.829 -3.33021 -2.68851 0
M  V30 4636 C 427.155 -3.45123 -4.08405 0
M  V30 4637 C 428.455 -4.69578 -2.28678 0
M  V30 4638 H 430.149 -2.80188 -1.05522 0
M  V30 4639 H 427.695 -1.34811 -0.506173 0
M  V30 4640 H 429.648 -2.40581 -3.45975 0
M  V30 4641 H 428.372 -1.24355 -3.01999 0
M  V30 4642 H 427.031 -3.0959 -1.9634 0
M  V30 4643 H 426.679 -2.49762 -4.3661 0
M  V30 4644 H 426.379 -4.22995 -4.07859 0
M  V30 4645 H 427.903 -3.70796 -4.85121 0
M  V30 4646 H 429.317 -4.92553 -2.93368 0
M  V30 4647 H 427.714 -5.5032 -2.39306 0
M  V30 4648 H 428.784 -4.68828 -1.23807 0
M  V30 4649 N 430.127 0.543554 -1.4793 0
M  V30 4650 C 431.057 1.65888 -1.64327 0
M  V30 4651 C 432.038 1.62818 -0.492383 0
M  V30 4652 O 433.223 1.80226 -0.723338 0
M  V30 4653 C 430.353 3.04506 -1.67013 0
M  V30 4654 C 429.307 3.2243 -2.81466 0
M  V30 4655 C 428.633 4.61972 -2.69233 0
M  V30 4656 C 429.933 3.06496 -4.22915 0
M  V30 4657 H 431.627 1.52421 -2.57698 0
M  V30 4658 H 429.173 0.731849 -1.24016 0
M  V30 4659 H 431.126 3.82391 -1.77074 0
M  V30 4660 H 429.85 3.18964 -0.70212 0
M  V30 4661 H 428.509 2.46957 -2.70938 0
M  V30 4662 H 428.157 4.73247 -1.7043 0
M  V30 4663 H 427.857 4.74911 -3.46025 0
M  V30 4664 H 429.381 5.41974 -2.81242 0
M  V30 4665 H 430.795 3.74186 -4.34348 0
M  V30 4666 H 429.192 3.30938 -5.006 0
M  V30 4667 H 430.262 2.03077 -4.40327 0
M  V30 4668 N 431.605 1.3629 0.791371 0
M  V30 4669 C 432.553 1.30514 1.92533 0
M  V30 4670 C 433.547 0.197285 1.68247 0
M  V30 4671 O 434.753 0.364176 1.76278 0
M  V30 4672 H 431.128 0.406263 0.632815 0
M  V30 4673 H 433.099 2.26282 1.94523 0
M  V30 4674 C 431.848 1.10933 3.29529 0
M  V30 4675 H 431.171 1.95427 3.48781 0
M  V30 4676 H 432.611 1.10937 4.0923 0
M  V30 4677 C 431.07 -0.186123 3.36385 0
M  V30 4678 O 431.6 -1.17664 3.84081 0
M  V30 4679 N 429.806 -0.230128 2.89687 0
M  V30 4680 H 429.353 0.576545 2.51065 0
M  V30 4681 H 429.311 -1.09658 2.94657 0
M  V30 4682 N 433.083 -1.0153 1.20538 0
M  V30 4683 C 434.329 -1.75408 1.01783 0
M  V30 4684 C 434.662 -1.88943 -0.448814 0
M  V30 4685 O 433.937 -1.4162 -1.33319 0
M  V30 4686 C 434.22 -3.17255 1.70356 0
M  V30 4687 C 434.073 -3.11508 3.24473 0
M  V30 4688 C 435.392 -4.15955 1.43769 0
M  V30 4689 H 432.511 -0.636713 0.371167 0
M  V30 4690 H 435.153 -1.18436 1.4857 0
M  V30 4691 H 433.303 -3.65898 1.30578 0
M  V30 4692 H 434.975 -2.70658 3.73553 0
M  V30 4693 H 433.218 -2.4887 3.55311 0
M  V30 4694 H 433.889 -4.11784 3.67611 0
M  V30 4695 H 436.365 -3.75973 1.7828 0
M  V30 4696 H 435.241 -5.13368 1.94279 0
M  V30 4697 H 435.502 -4.40586 0.365564 0
M  V30 4698 N 434.561 -1.01147 -1.20859 0
M  V30 4699 C 435.491 -0.597663 -2.25722 0
M  V30 4700 C 436.472 0.384744 -1.65692 0
M  V30 4701 O 437.657 0.271303 -1.92296 0
M  V30 4702 C 434.787 0.0700149 -3.47229 0
M  V30 4703 C 433.741 -0.832843 -4.19819 0
M  V30 4704 C 433.067 -0.0312202 -5.34691 0
M  V30 4705 C 434.367 -2.1385 -4.76514 0
M  V30 4706 H 436.061 -1.47423 -2.60589 0
M  V30 4707 H 433.607 -0.710301 -1.25263 0
M  V30 4708 H 435.56 0.37103 -4.19763 0
M  V30 4709 H 434.284 0.981259 -3.11511 0
M  V30 4710 H 432.943 -1.11778 -3.49144 0
M  V30 4711 H 432.591 0.881515 -4.95215 0
M  V30 4712 H 432.291 -0.632434 -5.84187 0
M  V30 4713 H 433.815 0.26346 -6.10031 0
M  V30 4714 H 435.229 -1.9002 -5.40893 0
M  V30 4715 H 433.626 -2.69012 -5.36426 0
M  V30 4716 H 434.696 -2.80495 -3.95538 0
M  V30 4717 N 436.039 1.36541 -0.78704 0
M  V30 4718 C 436.969 2.32659 -0.197992 0
M  V30 4719 C 437.95 1.56533 0.665697 0
M  V30 4720 O 439.135 1.84698 0.60001 0
M  V30 4721 C 436.265 3.40778 0.669901 0
M  V30 4722 C 435.219 4.27897 -0.0937039 0
M  V30 4723 C 434.545 5.27163 0.894629 0
M  V30 4724 C 435.845 5.06334 -1.28154 0
M  V30 4725 H 437.539 2.82171 -1.00099 0
M  V30 4726 H 435.085 1.35665 -0.482793 0
M  V30 4727 H 437.038 4.07008 1.09191 0
M  V30 4728 H 435.762 2.89827 1.50558 0
M  V30 4729 H 434.421 3.6322 -0.49666 0
M  V30 4730 H 434.069 4.72486 1.72527 0
M  V30 4731 H 433.769 5.86317 0.388149 0
M  V30 4732 H 435.293 5.96266 1.31525 0
M  V30 4733 H 436.707 5.65617 -0.93541 0
M  V30 4734 H 435.104 5.74888 -1.72115 0
M  V30 4735 H 436.174 4.38114 -2.07807 0
M  V30 4736 N 437.518 0.538854 1.48102 0
M  V30 4737 C 438.766 0.00798599 2.02098 0
M  V30 4738 C 439.087 -1.33922 1.41739 0
M  V30 4739 O 438.357 -1.86932 0.585934 0
M  V30 4740 H 436.937 -3.62179e-05 0.747 0
M  V30 4741 H 439.599 0.7047 1.81714 0
M  V30 4742 H 438.695 -0.0937672 3.11959 0
M  V30 4743 N 438.996 -1.55193 0.274407 0
M  V30 4744 C 439.926 -2.25471 -0.607032 0
M  V30 4745 C 440.907 -1.24461 -1.15946 0
M  V30 4746 O 442.092 -1.53179 -1.19373 0
M  V30 4747 C 439.222 -2.97526 -1.79153 0
M  V30 4748 C 438.176 -4.05459 -1.37067 0
M  V30 4749 C 437.502 -4.65084 -2.6382 0
M  V30 4750 C 438.802 -5.19691 -0.521389 0
M  V30 4751 H 440.496 -2.99393 -0.0209343 0
M  V30 4752 H 438.042 -1.43997 -0.00862866 0
M  V30 4753 H 439.995 -3.45402 -2.41404 0
M  V30 4754 H 438.719 -2.21138 -2.40344 0
M  V30 4755 H 437.378 -3.58393 -0.771355 0
M  V30 4756 H 437.026 -3.85365 -3.23268 0
M  V30 4757 H 436.726 -5.37961 -2.36372 0
M  V30 4758 H 438.25 -5.15708 -3.26921 0
M  V30 4759 H 439.664 -5.63623 -1.04889 0
M  V30 4760 H 438.061 -5.99126 -0.341825 0
M  V30 4761 H 439.131 -4.82713 0.46 0
M  V30 4762 N 440.474 -0.00167713 -1.576 0
M  V30 4763 C 441.404 0.988091 -2.11563 0
M  V30 4764 C 442.385 1.35736 -1.02517 0
M  V30 4765 O 443.57 1.44082 -1.30208 0
M  V30 4766 C 440.7 2.27941 -2.62031 0
M  V30 4767 C 439.654 2.0517 -3.75619 0
M  V30 4768 C 438.98 3.4033 -4.12407 0
M  V30 4769 C 440.28 1.41294 -5.02825 0
M  V30 4770 H 441.974 0.538771 -2.94513 0
M  V30 4771 H 439.52 0.257712 -1.41675 0
M  V30 4772 H 441.473 2.97539 -2.9841 0
M  V30 4773 H 440.197 2.74989 -1.76205 0
M  V30 4774 H 438.856 1.37998 -3.39635 0
M  V30 4775 H 438.504 3.85085 -3.23603 0
M  V30 4776 H 438.204 3.25909 -4.88935 0
M  V30 4777 H 439.728 4.1124 -4.51347 0
M  V30 4778 H 441.142 2.00851 -5.36965 0
M  V30 4779 H 439.539 1.37356 -5.84169 0
M  V30 4780 H 440.609 0.382362 -4.8339 0
M  V30 4781 N 441.952 1.55251 0.271103 0
M  V30 4782 C 443.198 1.76207 1.00394 0
M  V30 4783 C 443.531 0.562604 1.85872 0
M  V30 4784 O 442.806 -0.439785 1.89463 0
M  V30 4785 C 443.089 3.06828 1.8849 0
M  V30 4786 C 442.942 4.37134 1.05992 0
M  V30 4787 C 444.261 3.33503 2.87165 0
M  V30 4788 H 441.38 0.641086 0.363562 0
M  V30 4789 H 444.022 1.87982 0.276189 0
M  V30 4790 H 442.172 2.96921 2.5054 0
M  V30 4791 H 443.844 4.59001 0.459978 0
M  V30 4792 H 442.087 4.32275 0.363443 0
M  V30 4793 H 442.758 5.2486 1.70955 0
M  V30 4794 H 445.234 3.43215 2.3525 0
M  V30 4795 H 444.11 4.2616 3.45946 0
M  V30 4796 H 444.371 2.53235 3.62387 0
M  V30 4797 N 443.43 -0.535701 1.48216 0
M  V30 4798 C 444.841 -1.11769 1.49548 0
M  V30 4799 C 445.192 -1.94442 0.26207 0
M  V30 4800 O 444.317 -2.06987 -0.631287 0
M  V30 4801 C 444.912 -2.03367 2.70975 0
M  V30 4802 C 443.471 -2.56795 2.75196 0
M  V30 4803 C 442.618 -1.33631 2.42977 0
M  V30 4804 H 445.569 -0.321232 1.55415 0
M  V30 4805 H 445.59 -2.87569 2.49167 0
M  V30 4806 H 445.102 -1.43169 3.60727 0
M  V30 4807 H 443.203 -3.20731 1.89638 0
M  V30 4808 H 443.316 -2.9632 3.76472 0
M  V30 4809 H 441.68 -1.6502 1.94012 0
M  V30 4810 H 442.463 -0.75194 3.34964 0
M  V30 4811 N 444.908 -1.36708 -0.784132 0
M  V30 4812 C 446.154 -1.31426 -1.54451 0
M  V30 4813 C 446.487 0.10476 -1.93917 0
M  V30 4814 O 445.762 1.05934 -1.6312 0
M  V30 4815 C 446.045 -2.24189 -2.818 0
M  V30 4816 C 445.898 -3.74813 -2.48667 0
M  V30 4817 C 447.217 -2.15626 -3.83658 0
M  V30 4818 H 444.336 -0.478739 -0.560337 0
M  V30 4819 H 446.978 -1.67305 -0.900498 0
M  V30 4820 H 445.128 -1.93722 -3.36755 0
M  V30 4821 H 446.8 -4.15823 -1.99722 0
M  V30 4822 H 445.043 -3.93989 -1.81535 0
M  V30 4823 H 445.714 -4.35138 -3.39646 0
M  V30 4824 H 448.19 -2.42456 -3.38163 0
M  V30 4825 H 447.066 -2.82694 -4.70506 0
M  V30 4826 H 447.327 -1.14522 -4.27009 0
M  V30 4827 N 446.386 1.0089 -1.21074 0
M  V30 4828 C 447.296 2.13039 -0.982425 0
M  V30 4829 C 448.312 1.73881 0.0642161 0
M  V30 4830 O 449.488 2.01012 -0.12496 0
M  V30 4831 C 446.553 3.42377 -0.545803 0
M  V30 4832 C 445.614 3.95731 -1.6642 0
M  V30 4833 C 444.847 5.18896 -1.24832 0
M  V30 4834 O 445.07 5.70273 -0.120265 0
M  V30 4835 O 444.004 5.65597 -2.05873 0
M  V30 4836 H 447.83 2.35175 -1.92163 0
M  V30 4837 H 445.415 1.1142 -0.995285 0
M  V30 4838 H 447.297 4.20244 -0.311912 0
M  V30 4839 H 445.972 3.21639 0.364727 0
M  V30 4840 H 444.879 3.19108 -1.95246 0
M  V30 4841 H 446.212 4.20872 -2.55201 0
M  V30 4842 N 447.864 1.01787 1.20321 0
M  V30 4843 C 449.141 0.622978 1.85414 0
M  V30 4844 C 449.521 -0.898887 1.91006 0
M  V30 4845 O 448.869 -1.79112 1.41884 0
M  V30 4846 C 449.079 1.27226 3.24984 0
M  V30 4847 C 450.427 1.3885 4.01255 0
M  V30 4848 O 451.451 1.22857 3.34342 0
M  V30 4849 O 450.31 1.64705 5.2109 0
M  V30 4850 H 447.404 0.215116 0.798533 0
M  V30 4851 H 449.95 1.11533 1.27901 0
M  V30 4852 H 448.722 2.31209 3.15687 0
M  V30 4853 H 448.345 0.767069 3.90131 0
M  V30 4854 N 449.342 -1.36122 0.79427 0
M  V30 4855 C 450.252 -2.33769 0.197296 0
M  V30 4856 C 451.268 -1.61276 -0.653153 0
M  V30 4857 O 452.444 -1.9323 -0.5678 0
M  V30 4858 C 449.509 -3.40474 -0.654098 0
M  V30 4859 C 448.57 -4.28759 0.215411 0
M  V30 4860 C 447.803 -5.30368 -0.595443 0
M  V30 4861 O 448.026 -5.40211 -1.83107 0
M  V30 4862 O 446.96 -6.019 0.00721351 0
M  V30 4863 H 450.786 -2.86597 1.00478 0
M  V30 4864 H 448.371 -1.38676 0.555818 0
M  V30 4865 H 450.253 -4.05703 -1.13944 0
M  V30 4866 H 448.928 -2.89937 -1.43938 0
M  V30 4867 H 447.835 -3.66554 0.747615 0
M  V30 4868 H 449.168 -4.82661 0.964332 0
M  V30 4869 N 450.82 -0.546701 -1.47814 0
M  V30 4870 C 451.77 0.227042 -2.26867 0
M  V30 4871 C 452.754 0.894844 -1.33721 0
M  V30 4872 O 453.946 0.794887 -1.58147 0
M  V30 4873 C 451.075 1.26299 -3.19223 0
M  V30 4874 C 450.161 0.59913 -4.19847 0
M  V30 4875 N 450.552 -0.324777 -5.04756 0
M  V30 4876 C 448.85 0.854331 -4.37741 0
M  V30 4877 C 449.551 -0.709386 -5.77358 0
M  V30 4878 N 448.527 -0.0666153 -5.43559 0
M  V30 4879 H 452.329 -0.483476 -2.89896 0
M  V30 4880 H 449.843 -0.365893 -1.58224 0
M  V30 4881 H 451.84 1.83116 -3.74532 0
M  V30 4882 H 450.5 1.97471 -2.57751 0
M  V30 4883 H 451.511 -0.698351 -5.1317 0
M  V30 4884 H 448.188 1.55536 -3.87447 0
M  V30 4885 H 449.578 -1.46796 -6.55668 0
M  V30 4886 N 452.299 1.55045 -0.282633 0
M  V30 4887 C 453.524 2.04628 0.337977 0
M  V30 4888 C 453.949 1.15937 1.48123 0
M  V30 4889 O 453.307 0.159532 1.80597 0
M  V30 4890 C 453.355 3.51854 0.78936 0
M  V30 4891 O 452.459 3.66236 1.89592 0
M  V30 4892 H 451.8 0.660434 0.0687261 0
M  V30 4893 H 454.33 2.00261 -0.419124 0
M  V30 4894 H 454.34 3.93361 1.08311 0
M  V30 4895 H 453.015 4.15873 -0.0470419 0
M  V30 4896 H 451.592 3.36633 1.60413 0
M  V30 4897 N 453.777 0.010035 1.57597 0
M  V30 4898 C 455.005 -0.683413 1.95287 0
M  V30 4899 C 455.42 -1.66747 0.885481 0
M  V30 4900 O 454.777 -1.82003 -0.134629 0
M  V30 4901 C 454.828 -1.40652 3.33015 0
M  V30 4902 O 454.549 -0.461916 4.35658 0
M  V30 4903 C 456.05 -2.19356 3.85225 0
M  V30 4904 H 453.27 -0.189708 0.643624 0
M  V30 4905 H 455.814 0.0641359 2.04399 0
M  V30 4906 H 453.969 -2.10562 3.2518 0
M  V30 4907 H 454.383 -0.973215 5.15392 0
M  V30 4908 H 455.857 -2.65433 4.83993 0
M  V30 4909 H 456.334 -3.02457 3.18459 0
M  V30 4910 H 456.94 -1.54442 3.96267 0
M  V30 4911 N 455.255 -1.55392 -0.262866 0
M  V30 4912 C 456.185 -1.91978 -1.32917 0
M  V30 4913 C 457.166 -0.7828 -1.51017 0
M  V30 4914 O 458.351 -1.04178 -1.63892 0
M  V30 4915 C 455.481 -2.20055 -2.68687 0
M  V30 4916 C 454.435 -3.35854 -2.65304 0
M  V30 4917 C 453.761 -3.49435 -4.04721 0
M  V30 4918 C 455.061 -4.71977 -2.23685 0
M  V30 4919 H 456.755 -2.81292 -1.02544 0
M  V30 4920 H 454.301 -1.3534 -0.491846 0
M  V30 4921 H 456.254 -2.44237 -3.43404 0
M  V30 4922 H 454.978 -1.27551 -3.00663 0
M  V30 4923 H 453.637 -3.11655 -1.93045 0
M  V30 4924 H 453.285 -2.54379 -4.33936 0
M  V30 4925 H 452.985 -4.27297 -4.0335 0
M  V30 4926 H 454.509 -3.7592 -4.81161 0
M  V30 4927 H 455.923 -4.95637 -2.88127 0
M  V30 4928 H 454.32 -5.52828 -2.33456 0
M  V30 4929 H 455.39 -4.70115 -1.18827 0
M  V30 4930 N 456.733 0.527833 -1.48498 0
M  V30 4931 C 457.663 1.64136 -1.66077 0
M  V30 4932 C 458.644 1.62286 -0.509625 0
M  V30 4933 O 459.829 1.79449 -0.742413 0
M  V30 4934 C 456.959 3.02717 -1.70234 0
M  V30 4935 C 455.913 3.19426 -2.8487 0
M  V30 4936 C 455.239 4.5909 -2.74118 0
M  V30 4937 C 456.539 3.01993 -4.26142 0
M  V30 4938 H 458.233 1.4968 -2.593 0
M  V30 4939 H 455.779 0.718654 -1.24785 0
M  V30 4940 H 457.732 3.80491 -1.8112 0
M  V30 4941 H 456.456 3.18201 -0.735911 0
M  V30 4942 H 455.115 2.4407 -2.73542 0
M  V30 4943 H 454.763 4.71413 -1.7544 0
M  V30 4944 H 454.463 4.71214 -3.51042 0
M  V30 4945 H 455.987 5.3896 -2.86974 0
M  V30 4946 H 457.401 3.69558 -4.38292 0
M  V30 4947 H 455.798 3.2561 -5.04082 0
M  V30 4948 H 456.868 1.98396 -4.42456 0
M  V30 4949 N 458.211 1.37122 0.776871 0
M  V30 4950 C 459.46 1.31373 1.53049 0
M  V30 4951 C 459.773 -0.101016 1.95339 0
M  V30 4952 O 460.979 -0.280953 2.70042 0
M  V30 4953 C 459.435 2.30567 2.76346 0
M  V30 4954 C 459.043 3.77543 2.41175 0
M  V30 4955 C 460.787 2.33818 3.54301 0
M  V30 4956 C 458.694 4.68481 3.60943 0
M  V30 4957 H 457.624 0.488234 0.574581 0
M  V30 4958 H 460.275 1.62554 0.851372 0
M  V30 4959 H 458.657 1.92396 3.46121 0
M  V30 4960 H 459.831 4.24521 1.79216 0
M  V30 4961 H 458.146 3.77187 1.76405 0
M  V30 4962 H 460.743 2.98965 4.4331 0
M  V30 4963 H 461.086 1.3503 3.93793 0
M  V30 4964 H 461.619 2.7067 2.91518 0
M  V30 4965 H 458.358 5.68378 3.26537 0
M  V30 4966 H 457.878 4.2621 4.22025 0
M  V30 4967 H 459.557 4.85366 4.27819 0
M  V30 4968 N 459.689 -1.00246 1.21608 0
M  V30 4969 C 460.619 -2.10921 1.00172 0
M  V30 4970 C 461.6 -1.69938 -0.0741587 0
M  V30 4971 O 462.785 -1.94009 0.0861753 0
M  V30 4972 C 459.915 -3.42618 0.568355 0
M  V30 4973 C 458.869 -3.97407 1.58909 0
M  V30 4974 C 458.195 -5.25038 1.01187 0
M  V30 4975 C 459.495 -4.2918 2.97661 0
M  V30 4976 H 461.189 -2.29112 1.92739 0
M  V30 4977 H 458.735 -1.10101 0.928102 0
M  V30 4978 H 460.688 -4.19444 0.405555 0
M  V30 4979 H 459.412 -3.24227 -0.392961 0
M  V30 4980 H 458.071 -3.22703 1.73949 0
M  V30 4981 H 457.719 -5.02982 0.0421965 0
M  V30 4982 H 457.419 -5.62661 1.6937 0
M  V30 4983 H 458.943 -6.04507 0.860448 0
M  V30 4984 H 460.357 -4.96839 2.86049 0
M  V30 4985 H 458.754 -4.77952 3.6288 0
M  V30 4986 H 459.824 -3.3735 3.48315 0
M  V30 4987 N 461.167 -1.02423 -1.1978 0
M  V30 4988 C 462.415 -0.716569 -1.8897 0
M  V30 4989 C 462.736 0.756769 -1.79716 0
M  V30 4990 O 462.006 1.5449 -1.20456 0
M  V30 4991 H 460.586 -0.262062 -0.699523 0
M  V30 4992 H 463.248 -1.29747 -1.45436 0
M  V30 4993 H 462.344 -1.00675 -2.95417 0
M  V30 4994 N 462.645 1.35699 -0.801477 0
M  V30 4995 C 463.891 1.99208 -0.380022 0
M  V30 4996 C 464.224 1.63445 1.04878 0
M  V30 4997 O 463.499 0.895223 1.72673 0
M  V30 4998 C 463.782 3.55755 -0.557708 0
M  V30 4999 C 463.635 4.01332 -2.03107 0
M  V30 5000 C 464.954 4.40096 0.0197968 0
M  V30 5001 H 462.073 0.723667 -0.139552 0
M  V30 5002 H 464.715 1.60928 -1.01006 0
M  V30 5003 H 462.865 3.88494 -0.0213741 0
M  V30 5004 H 464.537 3.79026 -2.62939 0
M  V30 5005 H 462.78 3.52429 -2.52936 0
M  V30 5006 H 463.451 5.10234 -2.1063 0
M  V30 5007 H 465.927 4.13786 -0.438179 0
M  V30 5008 H 464.803 5.48735 -0.134477 0
M  V30 5009 H 465.064 4.2786 1.11303 0
M  V30 5010 N 464.123 0.554532 1.47522 0
M  V30 5011 C 465.053 -0.182974 2.32782 0
M  V30 5012 C 466.034 -0.911377 1.43624 0
M  V30 5013 O 467.219 -0.892366 1.72483 0
M  V30 5014 C 464.349 -1.21513 3.25349 0
M  V30 5015 C 463.303 -0.603355 4.23726 0
M  V30 5016 C 462.629 -1.73995 5.05598 0
M  V30 5017 C 463.929 0.441121 5.20434 0
M  V30 5018 H 465.623 0.52882 2.94693 0
M  V30 5019 H 463.169 0.255759 1.41711 0
M  V30 5020 H 465.122 -1.73922 3.83835 0
M  V30 5021 H 463.846 -1.95683 2.61487 0
M  V30 5022 H 462.505 -0.10059 3.66462 0
M  V30 5023 H 462.153 -2.47063 4.38143 0
M  V30 5024 H 461.853 -1.3364 5.72201 0
M  V30 5025 H 463.377 -2.26735 5.66942 0
M  V30 5026 H 464.791 0.00319931 5.733 0
M  V30 5027 H 463.188 0.763402 5.95224 0
M  V30 5028 H 464.258 1.33799 4.66075 0
M  V30 5029 N 465.601 -1.54893 0.290851 0
M  V30 5030 C 466.531 -2.26103 -0.583084 0
M  V30 5031 C 467.512 -1.25684 -1.14619 0
M  V30 5032 O 468.697 -1.54436 -1.17741 0
M  V30 5033 C 465.827 -2.99409 -1.75987 0
M  V30 5034 C 464.781 -4.0689 -1.32758 0
M  V30 5035 C 464.107 -4.67856 -2.58872 0
M  V30 5036 C 465.407 -5.20215 -0.46624 0
M  V30 5037 H 467.101 -2.99398 0.0108214 0
M  V30 5038 H 464.647 -1.43998 0.00664468 0
M  V30 5039 H 466.6 -3.47943 -2.37727 0
M  V30 5040 H 465.324 -2.23675 -2.37985 0
M  V30 5041 H 463.983 -3.59191 -0.733299 0
M  V30 5042 H 463.631 -3.88772 -3.19163 0
M  V30 5043 H 463.331 -5.40438 -2.30653 0
M  V30 5044 H 464.855 -5.19147 -3.21433 0
M  V30 5045 H 466.269 -5.64704 -0.989047 0
M  V30 5046 H 464.666 -5.99455 -0.27826 0
M  V30 5047 H 465.736 -4.82198 0.511173 0
M  V30 5048 N 467.08 -0.0183926 -1.57589 0
M  V30 5049 C 468.308 0.673046 -1.95647 0
M  V30 5050 C 468.723 1.66275 -0.894312 0
M  V30 5051 O 468.08 1.82072 0.124975 0
M  V30 5052 C 468.131 1.38884 -3.33756 0
M  V30 5053 O 467.852 0.438806 -4.35897 0
M  V30 5054 C 469.353 2.1731 -3.86383 0
M  V30 5055 H 466.573 0.186292 -0.644621 0
M  V30 5056 H 469.117 -0.0749748 -2.04363 0
M  V30 5057 H 467.272 2.08835 -3.26293 0
M  V30 5058 H 467.686 0.945869 -5.15901 0
M  V30 5059 H 469.16 2.62863 -4.85394 0
M  V30 5060 H 469.637 3.00764 -3.20059 0
M  V30 5061 H 470.243 1.52339 -3.97081 0
M  V30 5062 N 468.558 1.5553 0.254621 0
M  V30 5063 C 469.488 1.9268 1.31897 0
M  V30 5064 C 470.469 0.790797 1.506 0
M  V30 5065 O 471.654 1.05045 1.63337 0
M  V30 5066 C 468.784 2.21477 2.67517 0
M  V30 5067 C 467.738 3.37256 2.63519 0
M  V30 5068 C 467.064 3.51576 4.02862 0
M  V30 5069 C 468.364 4.73157 2.21179 0
M  V30 5070 H 470.058 2.81832 1.01051 0
M  V30 5071 H 467.604 1.35599 0.484662 0
M  V30 5072 H 469.557 2.46055 3.42104 0
M  V30 5073 H 468.281 1.29144 2.99982 0
M  V30 5074 H 466.94 3.12675 1.9139 0
M  V30 5075 H 466.588 2.56676 4.32581 0
M  V30 5076 H 466.288 4.2943 4.01078 0
M  V30 5077 H 467.812 3.78467 4.79161 0
M  V30 5078 H 469.226 4.97158 2.85494 0
M  V30 5079 H 467.623 5.54058 2.30521 0
M  V30 5080 H 468.693 4.70739 1.16332 0
M  V30 5081 N 470.036 -0.519951 1.48776 0
M  V30 5082 C 471.452 -0.849418 1.35119 0
M  V30 5083 C 471.652 -1.98077 0.36982 0
M  V30 5084 O 470.708 -2.51664 -0.205359 0
M  V30 5085 C 472.021 -1.20748 2.75391 0
M  V30 5086 C 473.569 -1.31679 2.83954 0
M  V30 5087 C 474.044 -1.70824 4.24951 0
M  V30 5088 N 475.535 -1.77908 4.27672 0
M  V30 5089 C 476.27 -2.09603 5.33717 0
M  V30 5090 N 475.766 -2.39652 6.5003 0
M  V30 5091 N 477.559 -2.10694 5.21119 0
M  V30 5092 H 469.71 0.226377 2.1119 0
M  V30 5093 H 471.973 0.0386519 0.947212 0
M  V30 5094 H 471.679 -0.449703 3.48813 0
M  V30 5095 H 471.553 -2.15534 3.09556 0
M  V30 5096 H 473.94 -2.06532 2.10781 0
M  V30 5097 H 474.021 -0.3499 2.53396 0
M  V30 5098 H 473.665 -0.965282 4.98643 0
M  V30 5099 H 473.595 -2.6858 4.52959 0
M  V30 5100 H 476.086 -1.56923 3.43779 0
M  V30 5101 H 476.399 -2.6297 7.26682 0
M  V30 5102 H 474.744 -2.37149 6.53288 0
M  V30 5103 H 477.935 -1.86682 4.29264 0
M  V30 5104 H 478.108 -2.35062 6.03863 0
M  V30 5105 N 471.514 -1.37532 -0.769588 0
M  V30 5106 C 472.744 -1.35861 -1.55645 0
M  V30 5107 C 473.152 0.0574398 -1.89113 0
M  V30 5108 O 472.495 1.03021 -1.52093 0
M  V30 5109 C 472.557 -2.13431 -2.89288 0
M  V30 5110 C 472.221 -3.62378 -2.78444 0
M  V30 5111 C 473.218 -4.56215 -2.49326 0
M  V30 5112 C 470.903 -4.05529 -2.96398 0
M  V30 5113 C 472.897 -5.91181 -2.38294 0
M  V30 5114 C 470.584 -5.40579 -2.84987 0
M  V30 5115 C 471.582 -6.33218 -2.55975 0
M  V30 5116 O 471.27 -7.65787 -2.44594 0
M  V30 5117 H 471.002 -0.467001 -0.48876 0
M  V30 5118 H 473.556 -1.81505 -0.961515 0
M  V30 5119 H 471.786 -1.62481 -3.50909 0
M  V30 5120 H 473.475 -2.04368 -3.50697 0
M  V30 5121 H 474.241 -4.24187 -2.35139 0
M  V30 5122 H 470.12 -3.33781 -3.1798 0
M  V30 5123 H 473.664 -6.63457 -2.15571 0
M  V30 5124 H 469.561 -5.72209 -2.98743 0
M  V30 5125 H 470.329 -7.76132 -2.59927 0
M  V30 5126 N 472.992 0.995999 -1.22138 0
M  V30 5127 C 473.922 2.10387 -1.01289 0
M  V30 5128 C 474.903 1.69975 0.0651454 0
M  V30 5129 O 476.088 1.9396 -0.0964628 0
M  V30 5130 C 473.218 3.42312 -0.586517 0
M  V30 5131 C 472.172 3.96558 -1.61014 0
M  V30 5132 C 471.498 5.24494 -1.0397 0
M  V30 5133 C 472.798 4.27595 -2.99933 0
M  V30 5134 H 474.492 2.28086 -1.93951 0
M  V30 5135 H 472.038 1.09607 -0.933928 0
M  V30 5136 H 473.991 4.19223 -0.427793 0
M  V30 5137 H 472.715 3.24431 0.375761 0
M  V30 5138 H 471.374 3.21776 -1.75658 0
M  V30 5139 H 471.022 5.02953 -0.0688703 0
M  V30 5140 H 470.722 5.61755 -1.72352 0
M  V30 5141 H 472.246 6.04042 -0.892494 0
M  V30 5142 H 473.66 4.95315 -2.8868 0
M  V30 5143 H 472.057 4.76021 -3.6541 0
M  V30 5144 H 473.127 3.35498 -3.50099 0
M  V30 5145 N 474.47 1.03057 1.19235 0
M  V30 5146 C 475.716 0.729098 1.89241 0
M  V30 5147 C 476.049 -0.740573 1.79525 0
M  V30 5148 O 475.324 -1.53946 1.18874 0
M  V30 5149 C 475.607 1.18304 3.40112 0
M  V30 5150 C 475.46 2.71406 3.5869 0
M  V30 5151 C 476.779 0.765161 4.33397 0
M  V30 5152 H 473.898 0.266338 0.687192 0
M  V30 5153 H 476.54 1.28079 1.40341 0
M  V30 5154 H 474.69 0.713672 3.81889 0
M  V30 5155 H 476.362 3.26303 3.26074 0
M  V30 5156 H 474.605 3.11717 3.01687 0
M  V30 5157 H 475.276 2.98225 4.64506 0
M  V30 5158 H 477.752 1.16889 3.99345 0
M  V30 5159 H 476.628 1.11065 5.37546 0
M  V30 5160 H 476.889 -0.332372 4.40849 0
M  V30 5161 N 475.948 -1.35272 0.808662 0
M  V30 5162 C 477.359 -1.81179 0.450688 0
M  V30 5163 C 477.71 -1.67143 -1.02751 0
M  V30 5164 O 476.835 -1.20325 -1.79864 0
M  V30 5165 C 477.43 -3.28943 0.811275 0
M  V30 5166 C 475.989 -3.72985 0.505871 0
M  V30 5167 C 475.136 -2.57229 1.03578 0
M  V30 5168 H 478.087 -1.2322 1.00012 0
M  V30 5169 H 478.108 -3.80342 0.109588 0
M  V30 5170 H 477.62 -3.39127 1.88718 0
M  V30 5171 H 475.721 -3.68349 -0.561209 0
M  V30 5172 H 475.834 -4.67677 1.03995 0
M  V30 5173 H 474.198 -2.50548 0.458005 0
M  V30 5174 H 474.981 -2.7019 2.11784 0
M  V30 5175 N 477.426 -0.562348 -1.47226 0
M  V30 5176 C 478.356 0.170627 -2.32876 0
M  V30 5177 C 479.337 0.903748 -1.44106 0
M  V30 5178 O 480.522 0.883206 -1.72954 0
M  V30 5179 C 477.652 1.19786 -3.25989 0
M  V30 5180 C 476.606 0.580875 -4.2404 0
M  V30 5181 C 475.932 1.71311 -5.06514 0
M  V30 5182 C 477.232 -0.468714 -5.20193 0
M  V30 5183 H 478.926 -0.544441 -2.94408 0
M  V30 5184 H 476.472 -0.263271 -1.41573 0
M  V30 5185 H 478.425 1.71884 -3.84752 0
M  V30 5186 H 477.149 1.94294 -2.62521 0
M  V30 5187 H 475.808 0.0811538 -3.6651 0
M  V30 5188 H 475.456 2.44736 -4.39447 0
M  V30 5189 H 475.156 1.30604 -5.72902 0
M  V30 5190 H 476.68 2.23725 -5.68137 0
M  V30 5191 H 478.094 -0.0336028 -5.7329 0
M  V30 5192 H 476.491 -0.794957 -5.94811 0
M  V30 5193 H 477.561 -1.36269 -4.65359 0
M  V30 5194 N 478.904 1.54736 -0.299062 0
M  V30 5195 C 479.834 2.26409 0.571085 0
M  V30 5196 C 480.815 1.2629 1.13951 0
M  V30 5197 O 482 1.55059 1.16921 0
M  V30 5198 C 479.13 3.00338 1.74396 0
M  V30 5199 C 478.084 4.07588 1.30599 0
M  V30 5200 C 477.41 4.69222 2.56387 0
M  V30 5201 C 478.71 5.20455 0.438645 0
M  V30 5202 H 480.404 2.99388 -0.0266991 0
M  V30 5203 H 477.95 1.43993 -0.0142812 0
M  V30 5204 H 479.903 3.49198 2.35878 0
M  V30 5205 H 478.627 2.24934 2.36796 0
M  V30 5206 H 477.286 3.59575 0.71424 0
M  V30 5207 H 476.934 3.9046 3.17097 0
M  V30 5208 H 476.634 5.41653 2.27784 0
M  V30 5209 H 478.158 5.20844 3.18675 0
M  V30 5210 H 479.572 5.65221 0.959085 0
M  V30 5211 H 477.969 5.99594 0.246466 0
M  V30 5212 H 479.039 4.8192 -0.536738 0
M  V30 5213 N 480.382 0.0267497 1.57577 0
M  V30 5214 C 481.314 -0.984594 2.06974 0
M  V30 5215 C 482.327 -1.29032 0.992705 0
M  V30 5216 O 483.516 -1.25539 1.26895 0
M  V30 5217 C 480.616 -2.31262 2.47732 0
M  V30 5218 C 479.789 -2.1924 3.78487 0
M  V30 5219 C 478.848 -3.34956 4.05821 0
M  V30 5220 O 477.874 -3.11948 4.76106 0
M  V30 5221 N 479.076 -4.58672 3.55809 0
M  V30 5222 H 481.841 -0.563143 2.94362 0
M  V30 5223 H 479.402 -0.160061 1.61107 0
M  V30 5224 H 481.394 -3.07496 2.63112 0
M  V30 5225 H 479.964 -2.65056 1.65723 0
M  V30 5226 H 479.184 -1.27747 3.72927 0
M  V30 5227 H 480.472 -2.08409 4.64158 0
M  V30 5228 H 479.87 -4.8026 2.98942 0
M  V30 5229 H 478.427 -5.32083 3.76472 0
M  V30 5230 N 481.861 -1.55662 -0.24637 0
M  V30 5231 C 482.793 -1.86811 -1.32794 0
M  V30 5232 C 483.806 -0.754413 -1.44265 0
M  V30 5233 O 484.995 -1.03253 -1.45606 0
M  V30 5234 C 482.095 -2.0397 -2.70646 0
M  V30 5235 C 481.268 -3.34832 -2.81436 0
M  V30 5236 C 480.327 -3.41727 -4.00136 0
M  V30 5237 O 479.353 -4.14934 -3.89639 0
M  V30 5238 N 480.555 -2.71058 -5.1333 0
M  V30 5239 H 483.32 -2.80174 -1.06409 0
M  V30 5240 H 480.881 -1.55906 -0.43647 0
M  V30 5241 H 482.873 -2.05924 -3.48393 0
M  V30 5242 H 481.443 -1.1735 -2.89738 0
M  V30 5243 H 480.663 -3.4519 -1.90361 0
M  V30 5244 H 481.951 -4.21085 -2.85595 0
M  V30 5245 H 481.349 -2.11314 -5.2475 0
M  V30 5246 H 479.906 -2.78704 -5.89209 0
M  V30 5247 N 483.339 0.512053 -1.4905 0
M  V30 5248 C 484.271 1.63121 -1.6101 0
M  V30 5249 C 485.284 1.55145 -0.493352 0
M  V30 5250 O 486.473 1.61278 -0.764955 0
M  V30 5251 C 483.573 3.01863 -1.54052 0
M  V30 5252 C 482.746 3.35138 -2.81072 0
M  V30 5253 C 481.805 4.5324 -2.67319 0
M  V30 5254 O 480.831 4.55571 -3.41238 0
M  V30 5255 N 482.033 5.52495 -1.78127 0
M  V30 5256 H 484.798 1.53292 -2.5753 0
M  V30 5257 H 482.359 0.699706 -1.45999 0
M  V30 5258 H 484.351 3.78774 -1.42521 0
M  V30 5259 H 482.921 3.05675 -0.654345 0
M  V30 5260 H 482.141 2.4723 -3.07036 0
M  V30 5261 H 483.429 3.54162 -3.65304 0
M  V30 5262 H 482.827 5.53403 -1.17308 0
M  V30 5263 H 481.384 6.28553 -1.72525 0
M  V30 5264 N 484.817 1.37938 0.762283 0
M  V30 5265 C 486.063 1.33866 1.52341 0
M  V30 5266 C 486.396 -0.0738961 1.94059 0
M  V30 5267 O 485.671 -1.03326 1.64785 0
M  V30 5268 C 485.954 2.28644 2.78197 0
M  V30 5269 C 485.807 3.78722 2.42672 0
M  V30 5270 C 487.126 2.21702 3.80179 0
M  V30 5271 H 484.245 0.487593 0.55265 0
M  V30 5272 H 486.887 1.68717 0.873767 0
M  V30 5273 H 485.037 1.99055 3.33631 0
M  V30 5274 H 486.709 4.18948 1.93081 0
M  V30 5275 H 484.952 3.96827 1.75244 0
M  V30 5276 H 485.623 4.40486 3.3268 0
M  V30 5277 H 488.099 2.47805 3.34263 0
M  V30 5278 H 486.975 2.90143 4.65949 0
M  V30 5279 H 487.236 1.21301 4.25133 0
M  V30 5280 N 486.295 -0.989507 1.22664 0
M  V30 5281 C 487.242 -2.08024 0.999733 0
M  V30 5282 C 488.212 -1.65909 -0.0797047 0
M  V30 5283 O 489.397 -1.90669 0.0705715 0
M  V30 5284 C 486.537 -3.40067 0.587234 0
M  V30 5285 C 485.65 -3.95505 1.73781 0
M  V30 5286 C 484.785 -5.15722 1.27297 0
M  V30 5287 C 483.824 -5.63305 2.39488 0
M  V30 5288 N 482.961 -6.74758 1.94026 0
M  V30 5289 H 487.801 -2.26768 1.9334 0
M  V30 5290 H 485.338 -1.11171 0.963297 0
M  V30 5291 H 487.296 -4.15899 0.329227 0
M  V30 5292 H 485.926 -3.21314 -0.309426 0
M  V30 5293 H 484.978 -3.16513 2.11006 0
M  V30 5294 H 486.29 -4.26797 2.58158 0
M  V30 5295 H 485.444 -5.98854 0.972546 0
M  V30 5296 H 484.183 -4.86061 0.399445 0
M  V30 5297 H 483.188 -4.78759 2.70315 0
M  V30 5298 H 484.413 -5.94988 3.27362 0
M  V30 5299 H 482.359 -6.46874 1.09041 0
M  V30 5300 H 482.276 -7.05386 2.71968 0
M  V30 5301 H 483.544 -7.61387 1.67062 0
M  V30 5302 N 487.773 -1.03688 -1.18687 0
M  V30 5303 C 489.05 -0.652397 -1.84399 0
M  V30 5304 C 489.43 0.868386 -1.92412 0
M  V30 5305 O 488.778 1.76832 -1.44716 0
M  V30 5306 C 488.988 -1.3238 -3.22919 0
M  V30 5307 C 490.336 -1.45216 -3.98996 0
M  V30 5308 O 491.36 -1.2816 -3.32345 0
M  V30 5309 O 490.219 -1.72975 -5.18403 0
M  V30 5310 H 487.313 -0.227793 -0.795009 0
M  V30 5311 H 489.859 -1.13553 -1.2611 0
M  V30 5312 H 488.631 -2.36202 -3.11968 0
M  V30 5313 H 488.254 -0.829039 -3.88861 0
M  V30 5314 N 489.251 1.34841 -0.815825 0
M  V30 5315 C 490.479 2.0273 -0.413294 0
M  V30 5316 C 490.894 1.61459 0.978599 0
M  V30 5317 O 490.251 0.816584 1.63212 0
M  V30 5318 C 490.302 3.58058 -0.497676 0
M  V30 5319 O 490.023 3.97832 -1.8347 0
M  V30 5320 C 491.524 4.4321 -0.0891339 0
M  V30 5321 H 488.744 0.649956 -0.166728 0
M  V30 5322 H 491.288 1.72267 -1.10201 0
M  V30 5323 H 489.443 3.87136 0.142886 0
M  V30 5324 H 489.857 4.92501 -1.80396 0
M  V30 5325 H 491.331 5.5164 -0.199274 0
M  V30 5326 H 491.808 4.28432 0.966571 0
M  V30 5327 H 492.414 4.19446 -0.703214 0
M  V30 5328 N 490.729 0.570148 1.46925 0
M  V30 5329 C 491.954 0.0542592 2.07329 0
M  V30 5330 C 492.379 -1.23582 1.41806 0
M  V30 5331 O 491.737 -1.74341 0.497479 0
M  V30 5332 C 491.785 -0.111175 3.60429 0
M  V30 5333 O 490.889 -1.17071 3.95434 0
M  V30 5334 H 490.23 0.0571425 0.661537 0
M  V30 5335 H 492.76 0.789516 1.88753 0
M  V30 5336 H 492.77 -0.321315 4.06733 0
M  V30 5337 H 491.445 0.831012 4.07513 0
M  V30 5338 H 490.022 -0.940029 3.60857 0
M  V30 5339 N 492.207 -1.54576 0.307264 0
M  V30 5340 C 493.137 -2.26708 -0.55907 0
M  V30 5341 C 494.118 -1.26893 -1.1328 0
M  V30 5342 O 495.303 -1.55677 -1.16097 0
M  V30 5343 C 492.433 -3.01259 -1.72801 0
M  V30 5344 C 491.387 -4.08275 -1.28435 0
M  V30 5345 C 490.713 -4.70575 -2.53895 0
M  V30 5346 C 492.013 -5.2068 -0.411038 0
M  V30 5347 H 493.707 -2.9937 0.042576 0
M  V30 5348 H 491.253 -1.43983 0.0219173 0
M  V30 5349 H 493.206 -3.50444 -2.34023 0
M  V30 5350 H 491.93 -2.26187 -2.356 0
M  V30 5351 H 490.589 -3.59949 -0.695161 0
M  V30 5352 H 490.237 -3.92136 -3.15021 0
M  V30 5353 H 489.937 -5.42854 -2.24908 0
M  V30 5354 H 491.461 -5.22527 -3.15908 0
M  V30 5355 H 492.875 -5.65721 -0.929097 0
M  V30 5356 H 491.272 -5.99716 -0.214664 0
M  V30 5357 H 492.342 -4.81629 0.562287 0
M  V30 5358 N 493.685 -0.035106 -1.57561 0
M  V30 5359 C 494.632 0.94474 -2.10578 0
M  V30 5360 C 495.602 1.3192 -1.00927 0
M  V30 5361 O 496.787 1.41147 -1.28382 0
M  V30 5362 C 493.927 2.21982 -2.64231 0
M  V30 5363 C 493.04 1.90128 -3.87911 0
M  V30 5364 C 492.175 3.11975 -4.29936 0
M  V30 5365 C 491.214 2.75968 -5.46359 0
M  V30 5366 N 490.351 3.90459 -5.83512 0
M  V30 5367 H 495.191 0.485717 -2.94015 0
M  V30 5368 H 492.728 0.228143 -1.4532 0
M  V30 5369 H 494.686 2.96572 -2.9343 0
M  V30 5370 H 493.316 2.6549 -1.83616 0
M  V30 5371 H 492.368 1.05755 -3.65404 0
M  V30 5372 H 493.68 1.59613 -4.72573 0
M  V30 5373 H 492.834 3.9488 -4.60603 0
M  V30 5374 H 491.573 3.45657 -3.44053 0
M  V30 5375 H 490.578 1.91478 -5.1538 0
M  V30 5376 H 491.803 2.43497 -6.33945 0
M  V30 5377 H 489.749 4.23971 -5.00584 0
M  V30 5378 H 489.666 3.63588 -6.62827 0
M  V30 5379 H 490.934 4.7405 -6.18787 0
M  V30 5380 N 495.163 1.55791 0.238111 0
M  V30 5381 C 496.411 1.77681 0.963001 0
M  V30 5382 C 496.732 0.600674 1.85518 0
M  V30 5383 O 496.002 -0.383182 1.92116 0
M  V30 5384 H 494.582 0.655315 0.358568 0
M  V30 5385 H 497.244 1.93239 0.253945 0
M  V30 5386 H 496.34 2.69177 1.57956 0
M  V30 5387 N 496.642 -0.504142 1.49319 0
M  V30 5388 C 497.867 -1.28729 1.62615 0
M  V30 5389 C 498.292 -1.85752 0.296309 0
M  V30 5390 O 497.65 -1.65704 -0.735649 0
M  V30 5391 C 497.698 -2.39561 2.69524 0
M  V30 5392 O 496.802 -3.43324 2.28478 0
M  V30 5393 H 496.143 -0.380172 0.544395 0
M  V30 5394 H 498.673 -0.603872 1.95485 0
M  V30 5395 H 498.683 -2.8537 2.91595 0
M  V30 5396 H 497.358 -1.97423 3.66056 0
M  V30 5397 H 495.935 -3.03455 2.16725 0
M  V30 5398 N 498.12 -1.38341 -0.754957 0
M  V30 5399 C 499.367 -1.34473 -1.51404 0
M  V30 5400 C 499.695 0.0656458 -1.94389 0
M  V30 5401 O 498.95 1.04244 -1.65625 0
M  V30 5402 C 499.249 -2.2452 -2.78075 0
M  V30 5403 C 498.915 -3.72512 -2.54059 0
M  V30 5404 C 497.577 -4.1284 -2.47218 0
M  V30 5405 C 499.929 -4.66197 -2.33044 0
M  V30 5406 C 497.257 -5.44945 -2.17376 0
M  V30 5407 C 499.609 -5.98558 -2.04723 0
M  V30 5408 C 498.273 -6.37972 -1.96337 0
M  V30 5409 H 497.543 -0.492072 -0.554027 0
M  V30 5410 H 500.19 -1.70687 -0.868223 0
M  V30 5411 H 498.495 -1.81357 -3.473 0
M  V30 5412 H 500.192 -2.18832 -3.36026 0
M  V30 5413 H 496.782 -3.40538 -2.60253 0
M  V30 5414 H 500.966 -4.35888 -2.37309 0
M  V30 5415 H 496.222 -5.74426 -2.09391 0
M  V30 5416 H 500.396 -6.70693 -1.87465 0
M  V30 5417 H 498.023 -7.40258 -1.72978 0
M  V30 5418 N 499.598 0.982988 -1.23187 0
M  V30 5419 C 500.846 1.72052 -1.06031 0
M  V30 5420 C 501.167 1.90769 0.404019 0
M  V30 5421 O 500.437 1.47446 1.28982 0
M  V30 5422 H 499.017 0.637499 -0.389363 0
M  V30 5423 H 501.679 1.18338 -1.54862 0
M  V30 5424 H 500.775 2.7111 -1.54615 0
M  V30 5425 N 501.076 1.04316 1.18135 0
M  V30 5426 C 502.322 0.749128 1.88457 0
M  V30 5427 C 502.655 -0.72149 1.803 0
M  V30 5428 O 501.93 -1.52676 1.205 0
M  V30 5429 C 502.213 1.21905 3.38838 0
M  V30 5430 C 502.066 2.75195 3.55792 0
M  V30 5431 C 503.385 0.811085 4.32561 0
M  V30 5432 H 500.504 0.273611 0.684329 0
M  V30 5433 H 503.146 1.29561 1.38975 0
M  V30 5434 H 501.296 0.754137 3.8111 0
M  V30 5435 H 502.968 3.29743 3.22595 0
M  V30 5436 H 501.211 3.14899 2.98364 0
M  V30 5437 H 501.882 3.03135 4.61317 0
M  V30 5438 H 504.358 1.21118 3.98082 0
M  V30 5439 H 503.234 1.16761 5.36338 0
M  V30 5440 H 503.495 -0.285596 4.41177 0
M  V30 5441 N 502.554 -1.34406 0.822964 0
M  V30 5442 C 503.782 -2.02508 0.424039 0
M  V30 5443 C 504.197 -1.61975 -0.970022 0
M  V30 5444 O 503.554 -0.825228 -1.62777 0
M  V30 5445 C 503.605 -3.57789 0.516657 0
M  V30 5446 O 503.326 -3.96853 1.85577 0
M  V30 5447 C 504.827 -4.43157 0.112637 0
M  V30 5448 H 502.047 -0.649063 0.170173 0
M  V30 5449 H 504.591 -1.7168 1.11113 0
M  V30 5450 H 502.746 -3.87207 -0.122353 0
M  V30 5451 H 503.16 -4.91538 1.83005 0
M  V30 5452 H 504.634 -5.51527 0.228526 0
M  V30 5453 H 505.111 -4.28939 -0.943837 0
M  V30 5454 H 505.717 -4.19067 0.725449 0
M  V30 5455 N 504.032 -0.577932 -1.46621 0
M  V30 5456 C 505.448 -0.239242 -1.57797 0
M  V30 5457 C 505.648 1.25843 -1.57371 0
M  V30 5458 O 504.704 2.03988 -1.48813 0
M  V30 5459 C 506.017 -0.884227 -2.87405 0
M  V30 5460 C 507.565 -0.857373 -3.01028 0
M  V30 5461 C 508.04 -1.48181 -4.33366 0
M  V30 5462 N 509.531 -1.44593 -4.40053 0
M  V30 5463 C 510.266 -1.89852 -5.41058 0
M  V30 5464 N 509.762 -2.43062 -6.48762 0
M  V30 5465 N 511.555 -1.80797 -5.3223 0
M  V30 5466 H 503.706 -1.55073 -1.45142 0
M  V30 5467 H 505.969 -0.647903 -0.692044 0
M  V30 5468 H 505.675 -1.93759 -2.93514 0
M  V30 5469 H 505.549 -0.389585 -3.75183 0
M  V30 5470 H 507.936 0.187357 -2.94505 0
M  V30 5471 H 508.017 -1.38999 -2.14739 0
M  V30 5472 H 507.661 -2.52572 -4.40647 0
M  V30 5473 H 507.591 -0.924464 -5.18422 0
M  V30 5474 H 510.082 -1.05694 -3.62819 0
M  V30 5475 H 510.395 -2.75466 -7.22038 0
M  V30 5476 H 508.74 -2.47085 -6.49595 0
M  V30 5477 H 511.931 -1.38989 -4.46989 0
M  V30 5478 H 512.104 -2.16385 -6.10804 0
M  V30 5479 N 505.51 1.54411 -0.315457 0
M  V30 5480 C 506.457 2.24048 0.554166 0
M  V30 5481 C 507.427 1.2283 1.11812 0
M  V30 5482 O 508.612 1.51491 1.15997 0
M  V30 5483 C 505.752 2.99574 1.71316 0
M  V30 5484 C 504.865 4.15594 1.17922 0
M  V30 5485 C 504 4.78669 2.30324 0
M  V30 5486 C 503.039 5.86807 1.74137 0
M  V30 5487 N 502.176 6.43777 2.8017 0
M  V30 5488 H 507.016 2.97964 -0.0462602 0
M  V30 5489 H 504.553 1.47059 -0.0346009 0
M  V30 5490 H 506.511 3.41604 2.39505 0
M  V30 5491 H 505.141 2.28008 2.285 0
M  V30 5492 H 504.193 3.78404 0.389136 0
M  V30 5493 H 505.505 4.93459 0.728012 0
M  V30 5494 H 504.659 5.23626 3.06433 0
M  V30 5495 H 503.398 4.00168 2.78778 0
M  V30 5496 H 502.403 5.41261 0.965236 0
M  V30 5497 H 503.628 6.67201 1.2657 0
M  V30 5498 H 501.574 5.68153 3.2793 0
M  V30 5499 H 501.491 7.17031 2.39588 0
M  V30 5500 H 502.759 6.9339 3.56132 0
M  V30 5501 N 506.988 0.0434614 1.5754 0
M  V30 5502 C 507.898 -0.94893 2.14552 0
M  V30 5503 C 508.914 -1.34707 1.10136 0
M  V30 5504 O 510.09 -1.42557 1.42266 0
M  V30 5505 C 507.155 -2.208 2.67298 0
M  V30 5506 C 506.216 -1.86893 3.86484 0
M  V30 5507 C 505.449 -3.06797 4.36705 0
M  V30 5508 O 505.672 -4.19921 3.86034 0
M  V30 5509 O 504.606 -2.8826 5.28384 0
M  V30 5510 H 508.432 -0.494099 2.99654 0
M  V30 5511 H 506.017 -0.177989 1.48336 0
M  V30 5512 H 507.899 -2.94686 3.01228 0
M  V30 5513 H 506.574 -2.65436 1.85272 0
M  V30 5514 H 505.481 -1.10347 3.57455 0
M  V30 5515 H 506.814 -1.47062 4.69716 0
M  V30 5516 N 508.466 -1.55915 -0.229846 0
M  V30 5517 C 509.399 -1.86734 -1.3117 0
M  V30 5518 C 510.377 -0.723947 -1.45595 0
M  V30 5519 O 511.561 -0.971462 -1.61539 0
M  V30 5520 C 508.688 -2.06707 -2.68309 0
M  V30 5521 C 507.734 -3.2938 -2.70944 0
M  V30 5522 S 508.567 -4.85547 -2.25842 0
M  V30 5523 C 509.723 -5.08546 -3.64873 0
M  V30 5524 H 509.956 -2.78204 -1.04832 0
M  V30 5525 H 507.489 -1.48243 -0.431681 0
M  V30 5526 H 509.447 -2.18898 -3.47267 0
M  V30 5527 H 508.108 -1.16049 -2.91876 0
M  V30 5528 H 507.301 -3.40374 -3.71701 0
M  V30 5529 H 506.903 -3.16004 -2.00044 0
M  V30 5530 H 509.195 -4.96935 -4.60502 0
M  V30 5531 H 510.138 -6.10465 -3.58801 0
M  V30 5532 H 510.546 -4.36314 -3.58176 0
M  V30 5533 N 509.944 0.496216 -1.49584 0
M  V30 5534 C 510.854 1.62352 -1.69349 0
M  V30 5535 C 511.87 1.64184 -0.576147 0
M  V30 5536 O 513.046 1.82517 -0.85144 0
M  V30 5537 C 510.111 2.98698 -1.76013 0
M  V30 5538 C 509.172 3.07454 -2.99617 0
M  V30 5539 C 508.405 4.37296 -3.05953 0
M  V30 5540 O 508.628 5.2637 -2.19752 0
M  V30 5541 O 507.562 4.51124 -3.9846 0
M  V30 5542 H 511.388 1.48606 -2.64859 0
M  V30 5543 H 508.973 0.673022 -1.33382 0
M  V30 5544 H 510.855 3.79725 -1.82721 0
M  V30 5545 H 509.53 3.12696 -0.836828 0
M  V30 5546 H 508.437 2.25597 -2.98424 0
M  V30 5547 H 509.77 2.98385 -3.91443 0
M  V30 5548 N 511.423 1.38739 0.74761 0
M  V30 5549 C 512.669 1.35475 1.50912 0
M  V30 5550 C 513.002 -0.0533093 1.94127 0
M  V30 5551 O 512.277 -1.01572 1.65871 0
M  V30 5552 C 512.56 2.31582 2.75757 0
M  V30 5553 C 512.413 3.81274 2.38642 0
M  V30 5554 C 513.732 2.25722 3.77806 0
M  V30 5555 H 510.851 0.493427 0.547447 0
M  V30 5556 H 513.493 1.69634 0.855823 0
M  V30 5557 H 511.643 2.02582 3.31501 0
M  V30 5558 H 513.315 4.20972 1.88626 0
M  V30 5559 H 511.558 3.98664 1.71025 0
M  V30 5560 H 512.229 4.4399 3.27989 0
M  V30 5561 H 514.705 2.51336 3.31616 0
M  V30 5562 H 513.581 2.95069 4.62845 0
M  V30 5563 H 513.842 1.25803 4.23823 0
M  V30 5564 N 512.901 -0.976442 1.23707 0
M  V30 5565 C 514.126 -1.75875 1.09922 0
M  V30 5566 C 514.551 -1.84911 -0.34489 0
M  V30 5567 O 513.909 -1.31363 -1.24954 0
M  V30 5568 C 513.957 -3.16179 1.73388 0
M  V30 5569 O 513.061 -4.00124 0.99871 0
M  V30 5570 H 512.402 -0.540954 0.385052 0
M  V30 5571 H 514.932 -1.22546 1.6384 0
M  V30 5572 H 514.942 -3.66741 1.78788 0
M  V30 5573 H 513.617 -3.08917 2.78466 0
M  V30 5574 H 512.194 -3.58624 1.02193 0
M  V30 5575 N 514.379 -1.04941 -1.1758 0
M  V30 5576 C 515.79 -0.784501 -1.69418 0
M  V30 5577 C 516.141 0.693625 -1.8353 0
M  V30 5578 O 515.266 1.53925 -1.52106 0
M  V30 5579 C 515.861 -1.41746 -3.07723 0
M  V30 5580 C 514.42 -1.20066 -3.56737 0
M  V30 5581 C 513.567 -1.5026 -2.33061 0
M  V30 5582 H 516.518 -1.21469 -1.02133 0
M  V30 5583 H 516.539 -0.825381 -3.7144 0
M  V30 5584 H 516.051 -2.49325 -2.9742 0
M  V30 5585 H 514.152 -0.144006 -3.72322 0
M  V30 5586 H 514.265 -1.90384 -4.39648 0
M  V30 5587 H 512.629 -0.922598 -2.37403 0
M  V30 5588 H 513.412 -2.58967 -2.25368 0
M  V30 5589 N 515.857 1.33968 -0.830081 0
M  V30 5590 C 517.082 2.02813 -0.433796 0
M  V30 5591 C 517.507 1.62076 0.954614 0
M  V30 5592 O 516.865 0.808955 1.62252 0
M  V30 5593 C 516.913 3.56348 -0.552115 0
M  V30 5594 O 516.017 4.10202 0.425191 0
M  V30 5595 H 515.358 0.639817 -0.177567 0
M  V30 5596 H 517.888 1.7106 -1.12248 0
M  V30 5597 H 517.898 4.05722 -0.430513 0
M  V30 5598 H 516.573 3.85344 -1.56471 0
M  V30 5599 H 515.15 3.71979 0.261878 0
M  V30 5600 N 517.335 0.585699 1.46312 0
M  V30 5601 C 518.298 -0.135673 2.28798 0
M  V30 5602 C 519.298 -0.815988 1.38558 0
M  V30 5603 O 520.488 -0.667487 1.60904 0
M  V30 5604 C 517.62 -1.20163 3.1902 0
M  V30 5605 H 518.813 0.589257 2.94054 0
M  V30 5606 H 516.366 0.343794 1.52472 0
M  V30 5607 H 517.101 -1.95804 2.58517 0
M  V30 5608 H 516.886 -0.718282 3.85465 0
M  V30 5609 H 518.376 -1.70749 3.81096 0
M  V30 5610 N 518.813 -1.54241 0.323641 0
M  V30 5611 C 519.723 -2.28033 -0.551205 0
M  V30 5612 C 520.739 -1.32388 -1.12913 0
M  V30 5613 O 521.915 -1.65403 -1.14908 0
M  V30 5614 C 518.98 -3.02382 -1.69606 0
M  V30 5615 C 518.041 -4.13612 -1.14993 0
M  V30 5616 C 517.274 -4.84407 -2.24022 0
M  V30 5617 O 517.497 -4.54716 -3.44368 0
M  V30 5618 O 516.431 -5.71312 -1.89436 0
M  V30 5619 H 520.257 -3.03662 0.048066 0
M  V30 5620 H 517.842 -1.49133 0.0893289 0
M  V30 5621 H 519.724 -3.48941 -2.36259 0
M  V30 5622 H 518.399 -2.29628 -2.28151 0
M  V30 5623 H 517.306 -3.71402 -0.448484 0
M  V30 5624 H 518.639 -4.8841 -0.609608 0
M  V30 5625 N 520.291 -0.0518155 -1.57515 0
M  V30 5626 C 521.223 0.951542 -2.08515 0
M  V30 5627 C 522.236 1.27436 -1.01311 0
M  V30 5628 O 523.425 1.23504 -1.28876 0
M  V30 5629 C 520.525 2.27291 -2.5138 0
M  V30 5630 C 519.698 2.13191 -3.81927 0
M  V30 5631 C 518.757 3.28458 -4.11098 0
M  V30 5632 O 517.783 3.04334 -4.81009 0
M  V30 5633 N 518.985 4.52954 -3.63061 0
M  V30 5634 H 521.75 0.516242 -2.9522 0
M  V30 5635 H 519.311 0.13441 -1.61341 0
M  V30 5636 H 521.303 3.03272 -2.67971 0
M  V30 5637 H 519.873 2.62386 -1.69919 0
M  V30 5638 H 519.093 1.21798 -3.74912 0
M  V30 5639 H 520.381 2.00999 -4.67415 0
M  V30 5640 H 519.779 4.75444 -3.06545 0
M  V30 5641 H 518.336 5.26026 -3.84889 0
M  V30 5642 N 521.769 1.56035 0.221574 0
M  V30 5643 C 522.699 1.95434 1.2778 0
M  V30 5644 C 523.68 0.822564 1.48889 0
M  V30 5645 O 524.865 1.08486 1.61072 0
M  V30 5646 C 521.995 2.27102 2.62759 0
M  V30 5647 C 520.949 3.4277 2.56306 0
M  V30 5648 C 520.275 3.60043 3.95314 0
M  V30 5649 C 521.575 4.77742 2.11093 0
M  V30 5650 H 523.269 2.83912 0.950504 0
M  V30 5651 H 520.815 1.36596 0.455791 0
M  V30 5652 H 522.768 2.53256 3.36807 0
M  V30 5653 H 521.492 1.35478 2.97176 0
M  V30 5654 H 520.151 3.16664 1.84715 0
M  V30 5655 H 519.799 2.65794 4.27039 0
M  V30 5656 H 519.499 4.37841 3.91879 0
M  V30 5657 H 521.023 3.88545 4.71025 0
M  V30 5658 H 522.437 5.03102 2.74885 0
M  V30 5659 H 520.834 5.58823 2.18716 0
M  V30 5660 H 521.904 4.731 1.06321 0
M  V30 5661 N 523.247 -0.488276 1.49845 0
M  V30 5662 C 524.493 -1.24341 1.6021 0
M  V30 5663 C 524.826 -1.91967 0.293651 0
M  V30 5664 O 524.101 -1.81323 -0.703718 0
M  V30 5665 C 524.384 -2.3005 2.77036 0
M  V30 5666 C 524.237 -1.66842 4.17713 0
M  V30 5667 C 525.556 -3.31509 2.89464 0
M  V30 5668 H 522.675 -0.450704 0.583125 0
M  V30 5669 H 525.317 -0.539673 1.82174 0
M  V30 5670 H 523.467 -2.90071 2.58439 0
M  V30 5671 H 525.139 -1.1055 4.47858 0
M  V30 5672 H 523.382 -0.972079 4.22768 0
M  V30 5673 H 524.053 -2.43576 4.95353 0
M  V30 5674 H 526.529 -2.81493 3.06433 0
M  V30 5675 H 525.405 -4.02822 3.72861 0
M  V30 5676 H 525.666 -3.94603 1.99351 0
M  V30 5677 N 524.725 -1.39134 -0.740242 0
M  V30 5678 C 525.657 -1.33332 -1.86428 0
M  V30 5679 C 526.67 -0.243042 -1.60976 0
M  V30 5680 O 527.859 -0.501608 -1.71307 0
M  V30 5681 C 524.959 -1.04626 -3.22346 0
M  V30 5682 C 524.132 -2.24826 -3.75196 0
M  V30 5683 C 523.191 -1.92659 -4.89662 0
M  V30 5684 O 522.217 -2.6529 -5.03597 0
M  V30 5685 N 523.419 -0.889575 -5.73643 0
M  V30 5686 H 526.184 -2.30196 -1.91911 0
M  V30 5687 H 523.745 -1.33168 -0.920756 0
M  V30 5688 H 525.737 -0.811347 -3.96484 0
M  V30 5689 H 524.307 -0.165129 -3.12164 0
M  V30 5690 H 523.527 -2.64301 -2.9247 0
M  V30 5691 H 524.815 -3.05015 -4.07239 0
M  V30 5692 H 524.213 -0.287529 -5.64969 0
M  V30 5693 H 522.77 -0.714557 -6.47871 0
M  V30 5694 N 526.204 0.969867 -1.24223 0
M  V30 5695 C 527.45 1.7151 -1.08223 0
M  V30 5696 C 527.783 1.90478 0.37838 0
M  V30 5697 O 527.058 1.4647 1.27971 0
M  V30 5698 C 527.341 3.10714 -1.82013 0
M  V30 5699 C 527.194 2.9925 -3.35811 0
M  V30 5700 C 528.513 4.10332 -1.59108 0
M  V30 5701 H 525.632 0.622499 -0.394543 0
M  V30 5702 H 528.274 1.1284 -1.52863 0
M  V30 5703 H 526.424 3.608 -1.44068 0
M  V30 5704 H 528.096 2.56608 -3.83341 0
M  V30 5705 H 526.339 2.35512 -3.64303 0
M  V30 5706 H 527.01 3.97857 -3.82641 0
M  V30 5707 H 529.486 3.69097 -1.92111 0
M  V30 5708 H 528.362 5.05804 -2.13198 0
M  V30 5709 H 528.623 4.38926 -0.528832 0
M  V30 5710 N 527.682 1.05563 1.17022 0
M  V30 5711 C 528.912 0.787307 1.91011 0
M  V30 5712 C 529.32 -0.661256 1.77268 0
M  V30 5713 O 528.663 -1.46379 1.10991 0
M  V30 5714 C 528.725 1.09313 3.42478 0
M  V30 5715 C 528.389 2.53863 3.80004 0
M  V30 5716 C 529.386 3.52081 3.82538 0
M  V30 5717 C 527.071 2.88969 4.10855 0
M  V30 5718 C 529.065 4.83449 4.15399 0
M  V30 5719 C 526.752 4.2054 4.43384 0
M  V30 5720 C 527.75 5.17589 4.45635 0
M  V30 5721 O 527.438 6.46799 4.77395 0
M  V30 5722 H 527.17 0.285463 0.61277 0
M  V30 5723 H 529.724 1.41051 1.49311 0
M  V30 5724 H 527.954 0.412833 3.8449 0
M  V30 5725 H 529.643 0.810224 3.97731 0
M  V30 5726 H 530.409 3.26299 3.58823 0
M  V30 5727 H 526.288 2.1409 4.08272 0
M  V30 5728 H 529.832 5.59194 4.1707 0
M  V30 5729 H 525.729 4.46083 4.66563 0
M  V30 5730 H 526.497 6.51677 4.95237 0
M  V30 5731 N 529.16 -1.33526 0.837174 0
M  V30 5732 C 530.07 -2.33023 0.271568 0
M  V30 5733 C 531.086 -1.63272 -0.601514 0
M  V30 5734 O 532.262 -1.94939 -0.506038 0
M  V30 5735 C 529.327 -3.42382 -0.545448 0
M  V30 5736 C 528.388 -4.27857 0.351709 0
M  V30 5737 C 527.621 -5.31994 -0.426409 0
M  V30 5738 O 527.844 -5.45763 -1.65828 0
M  V30 5739 O 526.778 -6.01572 0.1987 0
M  V30 5740 H 530.604 -2.83256 1.09545 0
M  V30 5741 H 528.189 -1.36837 0.599655 0
M  V30 5742 H 530.071 -4.09122 -1.00979 0
M  V30 5743 H 528.746 -2.94369 -1.34641 0
M  V30 5744 H 527.653 -3.6399 0.863853 0
M  V30 5745 H 528.986 -4.79349 1.1174 0
M  V30 5746 N 530.638 -0.59345 -1.46 0
M  V30 5747 C 531.568 0.121192 -2.33185 0
M  V30 5748 C 532.549 0.872977 -1.4599 0
M  V30 5749 O 533.734 0.846321 -1.74789 0
M  V30 5750 C 530.864 1.12844 -3.28456 0
M  V30 5751 C 529.818 0.4908 -4.25177 0
M  V30 5752 C 529.144 1.60529 -5.10034 0
M  V30 5753 C 530.444 -0.578949 -5.19081 0
M  V30 5754 H 532.138 -0.606767 -2.93187 0
M  V30 5755 H 529.684 -0.293242 -1.40983 0
M  V30 5756 H 531.637 1.63684 -3.88311 0
M  V30 5757 H 530.361 1.88681 -2.66584 0
M  V30 5758 H 529.02 0.00339328 -3.666 0
M  V30 5759 H 528.668 2.35359 -4.44539 0
M  V30 5760 H 528.368 1.18422 -5.75543 0
M  V30 5761 H 529.892 2.11623 -5.72755 0
M  V30 5762 H 531.306 -0.155199 -5.7309 0
M  V30 5763 H 529.703 -0.920947 -5.92991 0
M  V30 5764 H 530.773 -1.46109 -4.62364 0
M  V30 5765 N 532.116 1.54067 -0.331816 0
M  V30 5766 C 533.344 2.05131 0.269996 0
M  V30 5767 C 533.759 1.20749 1.45138 0
M  V30 5768 O 533.116 0.240069 1.80914 0
M  V30 5769 C 533.167 3.54728 0.696456 0
M  V30 5770 O 532.888 4.35906 -0.43794 0
M  V30 5771 C 534.389 4.21916 1.36021 0
M  V30 5772 H 531.609 0.668807 0.0542042 0
M  V30 5773 H 534.153 1.98777 -0.4804 0
M  V30 5774 H 532.308 3.61342 1.39681 0
M  V30 5775 H 532.722 5.24404 -0.100334 0
M  V30 5776 H 534.196 5.28015 1.60947 0
M  V30 5777 H 534.673 3.73538 2.31011 0
M  V30 5778 H 535.279 4.19463 0.702212 0
M  V30 5779 N 533.594 0.0601682 1.57485 0
M  V30 5780 C 534.524 -0.90889 2.15085 0
M  V30 5781 C 535.505 -1.31838 1.07484 0
M  V30 5782 O 536.69 -1.3915 1.35466 0
M  V30 5783 C 533.82 -2.18059 2.7031 0
M  V30 5784 C 532.774 -1.91088 3.82974 0
M  V30 5785 C 532.1 -3.24789 4.24754 0
M  V30 5786 C 533.4 -1.22535 5.07723 0
M  V30 5787 H 535.094 -0.429093 2.96309 0
M  V30 5788 H 532.64 -0.204952 1.42534 0
M  V30 5789 H 534.593 -2.86258 3.09248 0
M  V30 5790 H 533.317 -2.6826 1.8629 0
M  V30 5791 H 531.976 -1.25297 3.44523 0
M  V30 5792 H 531.624 -3.72809 3.37672 0
M  V30 5793 H 531.324 -3.07538 5.00694 0
M  V30 5794 H 532.848 -3.94205 4.66299 0
M  V30 5795 H 534.262 -1.80783 5.4405 0
M  V30 5796 H 532.659 -1.1558 5.88864 0
M  V30 5797 H 533.729 -0.202692 4.84476 0
M  V30 5798 N 535.072 -1.5615 -0.213296 0
M  V30 5799 C 536.022 -1.89485 -1.26804 0
M  V30 5800 C 537.006 -0.758713 -1.41889 0
M  V30 5801 O 538.198 -1.02127 -1.44565 0
M  V30 5802 C 535.327 -2.22219 -2.61675 0
M  V30 5803 C 534.413 -3.42245 -2.50458 0
M  V30 5804 N 534.804 -4.60645 -2.089 0
M  V30 5805 C 533.102 -3.46023 -2.81397 0
M  V30 5806 C 533.803 -5.42805 -2.09135 0
M  V30 5807 N 532.779 -4.82732 -2.49941 0
M  V30 5808 H 536.581 -2.78537 -0.937771 0
M  V30 5809 H 534.095 -1.56826 -0.421824 0
M  V30 5810 H 536.092 -2.44278 -3.37837 0
M  V30 5811 H 534.752 -1.34484 -2.95541 0
M  V30 5812 H 535.763 -4.85651 -1.79899 0
M  V30 5813 H 532.44 -2.68654 -3.1958 0
M  V30 5814 H 533.83 -6.47601 -1.79059 0
M  V30 5815 N 536.55 0.480323 -1.50102 0
M  V30 5816 C 537.5 1.57685 -1.6468 0
M  V30 5817 C 538.484 1.52878 -0.5017 0
M  V30 5818 O 539.676 1.60058 -0.755668 0
M  V30 5819 C 536.805 2.96185 -1.73578 0
M  V30 5820 C 535.891 3.0591 -2.93734 0
M  V30 5821 N 536.282 2.85471 -4.1754 0
M  V30 5822 C 534.58 3.37036 -2.92101 0
M  V30 5823 C 535.281 2.99921 -4.9842 0
M  V30 5824 N 534.257 3.29715 -4.32191 0
M  V30 5825 H 538.059 1.40568 -2.58104 0
M  V30 5826 H 535.573 0.686874 -1.47159 0
M  V30 5827 H 537.57 3.75015 -1.82124 0
M  V30 5828 H 536.23 3.14356 -0.813057 0
M  V30 5829 H 537.241 2.61235 -4.47188 0
M  V30 5830 H 533.918 3.61253 -2.09291 0
M  V30 5831 H 535.308 2.88436 -6.06839 0
M  V30 5832 N 538.028 1.39524 0.732853 0
M  V30 5833 C 539.256 1.40143 1.52209 0
M  V30 5834 C 539.671 -0.00348836 1.888 0
M  V30 5835 O 539.028 -0.975357 1.5425 0
M  V30 5836 C 539.079 2.27632 2.8083 0
M  V30 5837 O 538.8 3.62654 2.45792 0
M  V30 5838 C 540.301 2.36658 3.74844 0
M  V30 5839 H 537.521 0.478604 0.470297 0
M  V30 5840 H 540.065 1.83366 0.905388 0
M  V30 5841 H 538.22 1.87818 3.38826 0
M  V30 5842 H 538.634 4.08941 3.28431 0
M  V30 5843 H 540.108 3.02118 4.61984 0
M  V30 5844 H 540.585 1.38638 4.16745 0
M  V30 5845 H 541.191 2.76951 3.22766 0
M  V30 5846 N 539.506 -0.963266 1.24736 0
M  V30 5847 C 540.438 -2.06162 1.0015 0
M  V30 5848 C 541.451 -1.62771 -0.0305905 0
M  V30 5849 O 542.64 -1.77296 0.206966 0
M  V30 5850 C 539.74 -3.35333 0.490385 0
M  V30 5851 C 538.913 -4.07609 1.58663 0
M  V30 5852 C 537.972 -5.15052 1.0774 0
M  V30 5853 O 536.998 -5.4098 1.77002 0
M  V30 5854 N 538.2 -5.80436 -0.0858605 0
M  V30 5855 H 540.965 -2.27825 1.94719 0
M  V30 5856 H 538.526 -1.13121 1.15825 0
M  V30 5857 H 540.518 -4.04477 0.134371 0
M  V30 5858 H 539.088 -3.10507 -0.361155 0
M  V30 5859 H 538.308 -3.32681 2.11463 0
M  V30 5860 H 539.596 -4.52656 2.32336 0
M  V30 5861 H 538.994 -5.6178 -0.664806 0
M  V30 5862 H 537.551 -6.50674 -0.382981 0
M  V30 5863 N 540.985 -1.06182 -1.16461 0
M  V30 5864 C 541.935 -0.641619 -2.18786 0
M  V30 5865 C 542.919 0.327122 -1.5754 0
M  V30 5866 O 544.111 0.142746 -1.76423 0
M  V30 5867 C 541.24 -0.0283734 -3.43288 0
M  V30 5868 C 540.326 -1.02154 -4.11613 0
M  V30 5869 N 540.717 -2.19671 -4.55608 0
M  V30 5870 C 539.015 -0.852229 -4.37782 0
M  V30 5871 C 539.716 -2.82583 -5.0845 0
M  V30 5872 N 538.692 -2.10318 -5.01266 0
M  V30 5873 H 542.494 -1.53684 -2.50516 0
M  V30 5874 H 540.008 -0.933349 -1.329 0
M  V30 5875 H 542.005 0.29049 -4.15887 0
M  V30 5876 H 540.665 0.862118 -3.13046 0
M  V30 5877 H 541.676 -2.57453 -4.49375 0
M  V30 5878 H 538.353 -0.0136314 -4.17498 0
M  V30 5879 H 539.743 -3.82298 -5.52538 0
M  V30 5880 N 542.463 1.3308 -0.844243 0
M  V30 5881 C 543.395 2.27954 -0.238671 0
M  V30 5882 C 544.408 1.51978 0.583665 0
M  V30 5883 O 545.597 1.73731 0.409857 0
M  V30 5884 C 542.697 3.31963 0.682185 0
M  V30 5885 C 541.87 4.37281 -0.101998 0
M  V30 5886 C 540.929 5.20928 0.743022 0
M  V30 5887 O 539.955 5.68914 0.180285 0
M  V30 5888 N 541.157 5.42738 2.0595 0
M  V30 5889 H 543.922 2.8056 -1.05386 0
M  V30 5890 H 541.483 1.4583 -0.70322 0
M  V30 5891 H 543.475 3.84828 1.25259 0
M  V30 5892 H 542.045 2.79594 1.39808 0
M  V30 5893 H 541.265 3.84843 -0.853802 0
M  V30 5894 H 542.553 5.04746 -0.641015 0
M  V30 5895 H 541.951 5.05463 2.54016 0
M  V30 5896 H 540.508 5.98639 2.57827 0
M  V30 5897 N 543.941 0.601185 1.45683 0
M  V30 5898 C 545.218 0.0261659 1.95582 0
M  V30 5899 C 545.598 -1.4399 1.5437 0
M  V30 5900 O 544.946 -2.13919 0.80318 0
M  V30 5901 C 545.156 0.217557 3.48321 0
M  V30 5902 C 546.504 0.0950076 4.24494 0
M  V30 5903 O 547.528 0.147345 3.55895 0
M  V30 5904 O 546.387 -0.025261 5.46494 0
M  V30 5905 H 543.481 -0.0393688 0.826062 0
M  V30 5906 H 546.027 0.670798 1.55879 0
M  V30 5907 H 544.799 1.23601 3.71266 0
M  V30 5908 H 544.422 -0.46264 3.94899 0
M  V30 5909 N 545.419 -1.53889 0.339982 0
M  V30 5910 C 546.369 -2.2165 -0.534354 0
M  V30 5911 C 547.353 -1.20266 -1.06887 0
M  V30 5912 O 548.545 -1.45827 -1.00316 0
M  V30 5913 C 545.674 -2.99014 -1.68659 0
M  V30 5914 C 544.76 -4.07751 -1.16618 0
M  V30 5915 N 545.151 -5.04469 -0.366717 0
M  V30 5916 C 543.449 -4.21998 -1.4434 0
M  V30 5917 C 544.15 -5.81638 -0.0847275 0
M  V30 5918 N 543.126 -5.39388 -0.675391 0
M  V30 5919 H 546.928 -2.93781 0.0835562 0
M  V30 5920 H 544.442 -1.61736 0.146665 0
M  V30 5921 H 546.439 -3.46056 -2.32489 0
M  V30 5922 H 545.099 -2.28408 -2.30781 0
M  V30 5923 H 546.11 -5.17899 -0.00811038 0
M  V30 5924 H 542.787 -3.62612 -2.06928 0
M  V30 5925 H 544.177 -6.69563 0.559943 0
M  V30 5926 N 546.897 -0.0685191 -1.57451 0
M  V30 5927 C 547.845 0.917577 -2.13736 0
M  V30 5928 C 548.839 1.31049 -1.07344 0
M  V30 5929 O 550.045 1.28811 -1.25728 0
M  V30 5930 H 546.42 0.313835 -0.683382 0
M  V30 5931 H 548.391 0.417903 -2.95459 0
M  V30 5932 C 547.14 2.17686 -2.71123 0
M  V30 5933 H 546.463 1.88336 -3.52661 0
M  V30 5934 H 547.903 2.84803 -3.14107 0
M  V30 5935 C 546.362 2.9332 -1.65726 0
M  V30 5936 O 546.892 3.86901 -1.08031 0
M  V30 5937 N 545.098 2.56367 -1.36837 0
M  V30 5938 H 544.645 1.80341 -1.83943 0
M  V30 5939 H 544.603 3.07276 -0.665501 0
M  V30 5940 N 548.375 1.56261 0.205012 0
M  V30 5941 C 549.621 1.80306 0.9283 0
M  V30 5942 C 549.954 0.640932 1.83319 0
M  V30 5943 O 549.229 -0.359032 1.91158 0
M  V30 5944 C 549.512 3.14547 1.75306 0
M  V30 5945 C 549.365 4.41236 0.873562 0
M  V30 5946 C 550.684 3.45382 2.72762 0
M  V30 5947 H 547.803 0.655929 0.336044 0
M  V30 5948 H 550.445 1.88984 0.196211 0
M  V30 5949 H 548.595 3.0728 2.37721 0
M  V30 5950 H 550.267 4.60539 0.264887 0
M  V30 5951 H 548.51 4.33427 0.179773 0
M  V30 5952 H 549.181 5.31639 1.48541 0
M  V30 5953 H 551.657 3.52884 2.20481 0
M  V30 5954 H 550.533 4.40449 3.2756 0
M  V30 5955 H 550.794 2.68377 3.51321 0
M  V30 5956 N 549.853 -0.472356 1.50355 0
M  V30 5957 C 551.099 -1.22634 1.6152 0
M  V30 5958 C 551.432 -1.91645 0.313995 0
M  V30 5959 O 550.707 -1.82059 -0.684446 0
M  V30 5960 C 550.99 -2.27099 2.7946 0
M  V30 5961 C 550.843 -1.62402 4.19459 0
M  V30 5962 C 552.162 -3.28421 2.92964 0
M  V30 5963 H 549.281 -0.444494 0.587873 0
M  V30 5964 H 551.923 -0.520321 1.82737 0
M  V30 5965 H 550.073 -2.87314 2.61501 0
M  V30 5966 H 551.745 -1.05793 4.49005 0
M  V30 5967 H 549.988 -0.927184 4.23776 0
M  V30 5968 H 550.659 -2.38309 4.97909 0
M  V30 5969 H 553.135 -2.78227 3.09401 0
M  V30 5970 H 552.011 -3.98845 3.77113 0
M  V30 5971 H 552.272 -3.92467 2.03525 0
M  V30 5972 N 551.331 -1.39911 -0.725443 0
M  V30 5973 C 552.559 -1.40949 -1.51463 0
M  V30 5974 C 552.974 -0.0065242 -1.88799 0
M  V30 5975 O 552.331 0.967163 -1.54765 0
M  V30 5976 C 552.382 -2.29119 -2.79619 0
M  V30 5977 O 552.103 -3.63952 -2.43866 0
M  V30 5978 C 553.604 -2.38642 -3.73584 0
M  V30 5979 H 550.824 -0.481091 -0.467752 0
M  V30 5980 H 553.368 -1.83843 -0.895651 0
M  V30 5981 H 551.523 -1.89612 -3.37826 0
M  V30 5982 H 551.937 -4.10677 -3.26258 0
M  V30 5983 H 553.411 -3.04563 -4.60375 0
M  V30 5984 H 553.888 -1.40846 -4.16004 0
M  V30 5985 H 554.494 -2.78659 -3.21293 0
M  V30 5986 N 552.809 0.956637 -1.25245 0
M  V30 5987 C 554.057 1.69764 -1.09657 0
M  V30 5988 C 554.378 1.91583 0.363464 0
M  V30 5989 O 553.648 1.50149 1.25825 0
M  V30 5990 H 552.228 0.629097 -0.402798 0
M  V30 5991 H 554.89 1.15026 -1.57337 0
M  V30 5992 H 553.986 2.67769 -1.60331 0
M  V30 5993 N 554.287 1.06798 1.15896 0
M  V30 5994 C 555.25 0.687328 2.18651 0
M  V30 5995 C 556.25 -0.269559 1.58524 0
M  V30 5996 O 557.44 -0.0512627 1.74125 0
M  V30 5997 C 554.572 0.0121642 3.40898 0
M  V30 5998 H 555.765 1.59701 2.53842 0
M  V30 5999 H 553.318 0.863828 1.3026 0
M  V30 6000 H 554.053 -0.910025 3.1127 0
M  V30 6001 H 553.838 0.700309 3.85795 0
M  V30 6002 H 555.328 -0.239703 4.16911 0
M  V30 6003 N 555.766 -1.3263 0.851289 0
M  V30 6004 C 556.696 -2.31449 0.308771 0
M  V30 6005 C 557.677 -1.59531 -0.590255 0
M  V30 6006 O 558.862 -1.87351 -0.511205 0
M  V30 6007 C 555.992 -3.43586 -0.506548 0
M  V30 6008 C 554.946 -4.26963 0.297753 0
M  V30 6009 C 554.272 -5.30831 -0.642094 0
M  V30 6010 C 555.572 -4.99643 1.52166 0
M  V30 6011 H 557.266 -2.77074 1.13447 0
M  V30 6012 H 554.812 -1.33207 0.546971 0
M  V30 6013 H 556.765 -4.11754 -0.896474 0
M  V30 6014 H 555.489 -2.96681 -1.36558 0
M  V30 6015 H 554.148 -3.60437 0.669391 0
M  V30 6016 H 553.796 -4.8018 -1.49788 0
M  V30 6017 H 553.496 -5.87501 -0.107968 0
M  V30 6018 H 555.02 -6.01862 -1.02927 0
M  V30 6019 H 556.434 -5.6051 1.20421 0
M  V30 6020 H 554.831 -5.66022 1.99347 0
M  V30 6021 H 555.901 -4.27701 2.28474 0
M  V30 6022 N 557.244 -0.608902 -1.45362 0
M  V30 6023 C 558.154 0.110969 -2.34337 0
M  V30 6024 C 559.17 0.859007 -1.51318 0
M  V30 6025 O 560.346 0.816296 -1.84116 0
M  V30 6026 C 557.411 1.09494 -3.28956 0
M  V30 6027 C 556.472 0.348718 -4.27881 0
M  V30 6028 C 555.705 1.28582 -5.17979 0
M  V30 6029 O 555.928 2.52369 -5.11533 0
M  V30 6030 O 554.862 0.782172 -5.96796 0
M  V30 6031 H 558.688 -0.620258 -2.97299 0
M  V30 6032 H 556.273 -0.36916 -1.44767 0
M  V30 6033 H 558.155 1.66163 -3.87257 0
M  V30 6034 H 556.83 1.80717 -2.68557 0
M  V30 6035 H 555.737 -0.260465 -3.73192 0
M  V30 6036 H 557.07 -0.323049 -4.91139 0
M  V30 6037 N 558.722 1.53707 -0.348139 0
M  V30 6038 C 559.652 2.28111 0.498766 0
M  V30 6039 C 560.633 1.29851 1.09876 0
M  V30 6040 O 561.818 1.587 1.11928 0
M  V30 6041 C 558.948 3.05735 1.64753 0
M  V30 6042 C 557.902 4.11537 1.17565 0
M  V30 6043 C 557.228 4.77142 2.4133 0
M  V30 6044 C 558.528 5.21587 0.272844 0
M  V30 6045 H 560.222 2.99152 -0.121934 0
M  V30 6046 H 557.768 1.43875 -0.0600842 0
M  V30 6047 H 559.721 3.56526 2.24649 0
M  V30 6048 H 558.445 2.32354 2.2952 0
M  V30 6049 H 557.104 3.61665 0.599483 0
M  V30 6050 H 556.752 4.0035 3.04514 0
M  V30 6051 H 556.452 5.48626 2.10436 0
M  V30 6052 H 557.976 5.30719 3.01943 0
M  V30 6053 H 559.39 5.67986 0.778779 0
M  V30 6054 H 557.787 6.00074 0.0555849 0
M  V30 6055 H 558.857 4.79969 -0.689785 0
M  V30 6056 N 560.2 0.0768682 1.57412 0
M  V30 6057 C 561.13 -0.886026 2.16037 0
M  V30 6058 C 562.111 -1.30691 1.08876 0
M  V30 6059 O 563.296 -1.37705 1.36934 0
M  V30 6060 C 560.426 -2.1518 2.72608 0
M  V30 6061 C 559.38 -1.87015 3.8498 0
M  V30 6062 C 558.706 -3.20266 4.28175 0
M  V30 6063 C 560.006 -1.17143 5.08994 0
M  V30 6064 H 561.7 -0.397642 2.96748 0
M  V30 6065 H 559.246 -0.189823 1.42743 0
M  V30 6066 H 561.199 -2.82962 3.12266 0
M  V30 6067 H 559.923 -2.66269 1.89125 0
M  V30 6068 H 558.582 -1.21636 3.45833 0
M  V30 6069 H 558.23 -3.69207 3.41607 0
M  V30 6070 H 557.93 -3.0221 5.03927 0
M  V30 6071 H 559.454 -3.89237 4.70454 0
M  V30 6072 H 560.868 -1.75003 5.45937 0
M  V30 6073 H 559.265 -1.09328 5.90057 0
M  V30 6074 H 560.335 -0.151295 4.84664 0
M  V30 6075 N 561.678 -1.56367 -0.196722 0
M  V30 6076 C 562.61 -1.90941 -1.26784 0
M  V30 6077 C 563.623 -0.799928 -1.41792 0
M  V30 6078 O 564.812 -1.07833 -1.42247 0
M  V30 6079 C 561.912 -2.12477 -2.6402 0
M  V30 6080 C 561.085 -3.43616 -2.70641 0
M  V30 6081 C 560.144 -3.54284 -3.89062 0
M  V30 6082 O 559.17 -4.2712 -3.76241 0
M  V30 6083 N 560.372 -2.87252 -5.04447 0
M  V30 6084 H 563.137 -2.83417 -0.974417 0
M  V30 6085 H 560.698 -1.57215 -0.386649 0
M  V30 6086 H 562.69 -2.16904 -3.41665 0
M  V30 6087 H 561.26 -1.26508 -2.85857 0
M  V30 6088 H 560.48 -3.51072 -1.79283 0
M  V30 6089 H 561.768 -4.29958 -2.72054 0
M  V30 6090 H 561.166 -2.27901 -5.17762 0
M  V30 6091 H 559.723 -2.97308 -5.80044 0
M  V30 6092 N 563.156 0.464375 -1.50603 0
M  V30 6093 C 564.088 1.57916 -1.66118 0
M  V30 6094 C 565.101 1.53497 -0.54246 0
M  V30 6095 O 566.29 1.58763 -0.815877 0
M  V30 6096 C 563.39 2.96809 -1.63577 0
M  V30 6097 C 562.563 3.26026 -2.91592 0
M  V30 6098 C 561.622 4.44506 -2.81604 0
M  V30 6099 O 560.648 4.44484 -3.55559 0
M  V30 6100 N 561.85 5.46549 -1.95614 0
M  V30 6101 H 564.615 1.45022 -2.62276 0
M  V30 6102 H 562.176 0.652903 -1.48151 0
M  V30 6103 H 564.168 3.74048 -1.54499 0
M  V30 6104 H 562.738 3.03438 -0.751262 0
M  V30 6105 H 561.958 2.37337 -3.14746 0
M  V30 6106 H 563.246 3.42361 -3.76386 0
M  V30 6107 H 562.644 5.49391 -1.34854 0
M  V30 6108 H 561.201 6.22746 -1.92435 0
M  V30 6109 N 564.634 1.40294 0.718013 0
M  V30 6110 C 565.564 1.43118 1.84498 0
M  V30 6111 C 566.545 0.292403 1.67568 0
M  V30 6112 O 567.73 0.500675 1.87635 0
M  V30 6113 C 564.86 1.29065 3.22427 0
M  V30 6114 C 563.814 2.40521 3.54025 0
M  V30 6115 C 563.14 2.11546 4.91073 0
M  V30 6116 C 564.44 3.82859 3.55269 0
M  V30 6117 H 566.134 2.37432 1.82391 0
M  V30 6118 H 563.68 1.14283 0.87609 0
M  V30 6119 H 565.633 1.29658 4.00957 0
M  V30 6120 H 564.357 0.312271 3.25104 0
M  V30 6121 H 563.016 2.39173 2.77834 0
M  V30 6122 H 562.664 1.12104 4.90348 0
M  V30 6123 H 562.364 2.86216 5.1318 0
M  V30 6124 H 563.888 2.13817 5.71939 0
M  V30 6125 H 565.302 3.86044 4.23843 0
M  V30 6126 H 563.699 4.57029 3.88902 0
M  V30 6127 H 564.769 4.12617 2.54706 0
M  V30 6128 N 566.112 -0.949982 1.2575 0
M  V30 6129 C 567.359 -1.69515 1.10774 0
M  V30 6130 C 567.687 -1.91316 -0.350479 0
M  V30 6131 O 566.942 -1.48515 -1.27443 0
M  V30 6132 C 567.241 -3.08039 1.81237 0
M  V30 6133 C 566.907 -3.06023 3.31151 0
M  V30 6134 C 565.569 -3.0518 3.72047 0
M  V30 6135 C 567.921 -2.98998 4.26907 0
M  V30 6136 C 565.249 -2.95067 5.07102 0
M  V30 6137 C 567.601 -2.90426 5.61992 0
M  V30 6138 C 566.265 -2.87922 6.0221 0
M  V30 6139 H 565.535 -0.6203 0.405351 0
M  V30 6140 H 568.182 -1.10953 1.56082 0
M  V30 6141 H 566.487 -3.70172 1.28373 0
M  V30 6142 H 568.184 -3.64526 1.67098 0
M  V30 6143 H 564.774 -3.07453 2.98614 0
M  V30 6144 H 568.958 -2.98764 3.963 0
M  V30 6145 H 564.214 -2.915 5.37436 0
M  V30 6146 H 568.388 -2.83952 6.35881 0
M  V30 6147 H 566.015 -2.79841 7.06819 0
M  V30 6148 N 567.59 -1.07411 -1.15328 0
M  V30 6149 C 569.006 -0.799759 -1.38116 0
M  V30 6150 C 569.206 0.59572 -1.92493 0
M  V30 6151 O 568.262 1.35433 -2.13106 0
M  V30 6152 C 569.575 -1.87407 -2.35158 0
M  V30 6153 C 571.123 -1.89889 -2.48819 0
M  V30 6154 C 571.598 -2.96406 -3.49153 0
M  V30 6155 N 573.089 -2.95512 -3.56689 0
M  V30 6156 C 573.824 -3.74575 -4.34144 0
M  V30 6157 N 573.32 -4.63488 -5.14928 0
M  V30 6158 N 575.113 -3.62919 -4.29239 0
M  V30 6159 H 567.264 -1.97411 -0.78374 0
M  V30 6160 H 569.527 -0.856113 -0.407154 0
M  V30 6161 H 569.233 -2.8768 -2.0232 0
M  V30 6162 H 569.107 -1.73471 -3.34944 0
M  V30 6163 H 571.494 -0.902677 -2.80955 0
M  V30 6164 H 571.575 -2.07904 -1.49029 0
M  V30 6165 H 571.219 -3.96227 -3.17752 0
M  V30 6166 H 571.149 -2.75638 -4.48699 0
M  V30 6167 H 573.64 -2.31061 -2.99031 0
M  V30 6168 H 573.953 -5.20445 -5.71276 0
M  V30 6169 H 572.298 -4.67537 -5.14232 0
M  V30 6170 H 575.489 -2.92833 -3.65194 0
M  V30 6171 H 575.662 -4.24777 -4.89355 0
M  V30 6172 N 569.068 1.32177 -0.85831 0
M  V30 6173 C 570.296 2.01313 -0.477582 0
M  V30 6174 C 570.711 1.6449 0.926736 0
M  V30 6175 O 570.068 0.868096 1.60531 0
M  V30 6176 C 570.119 3.56293 -0.611337 0
M  V30 6177 O 569.84 3.91794 -1.96034 0
M  V30 6178 C 571.341 4.42702 -0.230093 0
M  V30 6179 H 568.561 0.644323 -0.187322 0
M  V30 6180 H 571.105 1.68674 -1.15626 0
M  V30 6181 H 569.26 3.87395 0.0196494 0
M  V30 6182 H 569.674 4.86513 -1.95973 0
M  V30 6183 H 571.148 5.50727 -0.374674 0
M  V30 6184 H 571.625 4.3129 0.829779 0
M  V30 6185 H 572.231 4.16997 -0.836302 0
M  V30 6186 N 570.547 0.616602 1.45037 0
M  V30 6187 C 571.958 0.199359 1.85633 0
M  V30 6188 C 572.309 -1.24588 1.51566 0
M  V30 6189 O 571.434 -1.94594 0.94668 0
M  V30 6190 C 572.029 0.355033 3.36935 0
M  V30 6191 C 570.588 -0.00758748 3.76399 0
M  V30 6192 C 569.735 0.675256 2.68953 0
M  V30 6193 H 572.686 0.822708 1.3571 0
M  V30 6194 H 572.707 -0.410201 3.78282 0
M  V30 6195 H 572.219 1.40699 3.61698 0
M  V30 6196 H 570.32 -1.05837 3.57252 0
M  V30 6197 H 570.433 0.392346 4.77491 0
M  V30 6198 H 568.797 0.111992 2.54454 0
M  V30 6199 H 569.58 1.72952 2.96551 0
M  V30 6200 N 572.025 -1.5352 0.356285 0
M  V30 6201 C 573.436 -1.86282 -0.12492 0
M  V30 6202 C 573.787 -1.27717 -1.48939 0
M  V30 6203 O 572.912 -0.595614 -2.08042 0
M  V30 6204 C 573.507 -3.37995 -0.23345 0
M  V30 6205 C 572.066 -3.70588 -0.658899 0
M  V30 6206 C 571.213 -2.76581 0.199596 0
M  V30 6207 H 574.164 -1.47901 0.575423 0
M  V30 6208 H 574.185 -3.65475 -1.0587 0
M  V30 6209 H 573.697 -3.8059 0.759776 0
M  V30 6210 H 571.798 -3.33544 -1.66069 0
M  V30 6211 H 571.911 -4.77076 -0.439957 0
M  V30 6212 H 570.275 -2.52552 -0.330076 0
M  V30 6213 H 571.058 -3.22008 1.19019 0
M  V30 6214 N 573.503 -0.0852151 -1.57369 0
M  V30 6215 C 574.914 0.445428 -1.81309 0
M  V30 6216 C 575.265 1.68795 -1.00013 0
M  V30 6217 O 574.39 2.15211 -0.226573 0
M  V30 6218 C 574.985 0.814887 -3.28854 0
M  V30 6219 C 573.544 1.29032 -3.53592 0
M  V30 6220 C 572.691 0.282089 -2.75861 0
M  V30 6221 H 575.642 -0.310771 -1.55627 0
M  V30 6222 H 575.663 1.67524 -3.41637 0
M  V30 6223 H 575.175 -0.0896309 -3.87996 0
M  V30 6224 H 573.276 2.21289 -2.9977 0
M  V30 6225 H 573.389 1.25898 -4.62262 0
M  V30 6226 H 571.753 0.762182 -2.43029 0
M  V30 6227 H 572.536 -0.614936 -3.37748 0
M  V30 6228 N 574.981 1.5647 0.188427 0
M  V30 6229 C 575.891 1.98285 1.2538 0
M  V30 6230 C 576.907 0.891535 1.49424 0
M  V30 6231 O 578.083 1.19782 1.61908 0
M  V30 6232 C 575.148 2.31965 2.57669 0
M  V30 6233 C 574.209 3.54838 2.41638 0
M  V30 6234 C 573.442 3.86901 3.67618 0
M  V30 6235 O 573.665 3.20163 4.72072 0
M  V30 6236 O 572.599 4.80309 3.62749 0
M  V30 6237 H 576.425 2.89145 0.928912 0
M  V30 6238 H 574.01 1.44112 0.393955 0
M  V30 6239 H 575.892 2.54673 3.35737 0
M  V30 6240 H 574.567 1.44271 2.89771 0
M  V30 6241 H 573.474 3.37369 1.61658 0
M  V30 6242 H 574.807 4.43019 2.14465 0
M  V30 6243 N 576.459 -0.456382 1.50847 0
M  V30 6244 C 577.389 -1.56025 1.73719 0
M  V30 6245 C 578.37 -1.5967 0.586473 0
M  V30 6246 O 579.555 -1.75702 0.827185 0
M  V30 6247 C 576.685 -2.94251 1.84483 0
M  V30 6248 C 575.639 -3.05471 2.99786 0
M  V30 6249 C 574.965 -4.45489 2.95709 0
M  V30 6250 C 576.265 -2.81318 4.40065 0
M  V30 6251 H 577.959 -1.37138 2.66146 0
M  V30 6252 H 575.505 -0.658299 1.28072 0
M  V30 6253 H 577.458 -3.71417 1.99067 0
M  V30 6254 H 576.182 -3.14328 0.886891 0
M  V30 6255 H 574.841 -2.30741 2.84876 0
M  V30 6256 H 574.489 -4.62505 1.97732 0
M  V30 6257 H 574.189 -4.53929 3.73125 0
M  V30 6258 H 575.713 -5.24655 3.12362 0
M  V30 6259 H 577.127 -3.48226 4.55425 0
M  V30 6260 H 575.524 -3.01188 5.19043 0
M  V30 6261 H 576.594 -1.7706 4.51418 0
M  V30 6262 N 577.937 -1.40673 -0.710563 0
M  V30 6263 C 578.867 -1.44095 -1.83736 0
M  V30 6264 C 579.848 -0.301286 -1.67411 0
M  V30 6265 O 581.033 -0.510618 -1.87367 0
M  V30 6266 C 578.163 -1.30773 -3.21738 0
M  V30 6267 C 577.117 -2.42395 -3.52745 0
M  V30 6268 C 576.443 -2.14147 -4.89944 0
M  V30 6269 C 577.743 -3.84738 -3.53234 0
M  V30 6270 H 579.437 -2.38396 -1.81129 0
M  V30 6271 H 576.983 -1.14746 -0.870017 0
M  V30 6272 H 578.936 -1.31783 -4.00264 0
M  V30 6273 H 577.66 -0.329507 -3.24934 0
M  V30 6274 H 576.319 -2.40643 -2.76562 0
M  V30 6275 H 575.967 -1.14703 -4.89747 0
M  V30 6276 H 575.667 -2.88934 -5.11655 0
M  V30 6277 H 577.191 -2.16848 -5.70797 0
M  V30 6278 H 578.605 -3.88286 -4.2179 0
M  V30 6279 H 577.002 -4.59085 -3.86473 0
M  V30 6280 H 578.072 -4.13962 -2.52514 0
M  V30 6281 N 579.415 0.9433 -1.26252 0
M  V30 6282 C 580.347 2.04542 -1.03417 0
M  V30 6283 C 581.36 1.62799 0.0046911 0
M  V30 6284 O 582.549 1.76944 -0.235146 0
M  V30 6285 C 579.649 3.34511 -0.543671 0
M  V30 6286 C 578.822 4.05033 -1.65128 0
M  V30 6287 C 577.881 5.13273 -1.1592 0
M  V30 6288 O 576.907 5.38095 -1.85586 0
M  V30 6289 N 578.109 5.805 -0.00649279 0
M  V30 6290 H 580.874 2.24699 -1.98319 0
M  V30 6291 H 578.435 1.11264 -1.1761 0
M  V30 6292 H 580.427 4.04212 -0.198703 0
M  V30 6293 H 578.997 3.11042 0.311711 0
M  V30 6294 H 578.217 3.29275 -2.16729 0
M  V30 6295 H 579.505 4.48903 -2.39508 0
M  V30 6296 H 578.903 5.62767 0.575347 0
M  V30 6297 H 577.46 6.51201 0.279416 0
M  V30 6298 N 580.893 1.08022 1.14757 0
M  V30 6299 C 582.121 0.828847 1.89572 0
M  V30 6300 C 582.536 -0.618621 1.78377 0
M  V30 6301 O 581.893 -1.42482 1.1404 0
M  V30 6302 C 581.944 1.23677 3.39685 0
M  V30 6303 O 581.665 2.62746 3.50566 0
M  V30 6304 C 583.166 1.01569 4.31507 0
M  V30 6305 H 580.386 0.299196 0.600602 0
M  V30 6306 H 582.93 1.43846 1.45357 0
M  V30 6307 H 581.085 0.671347 3.81539 0
M  V30 6308 H 581.499 2.79573 4.43778 0
M  V30 6309 H 582.973 1.35055 5.35223 0
M  V30 6310 H 583.45 -0.0475433 4.39174 0
M  V30 6311 H 584.056 1.56636 3.95405 0
M  V30 6312 N 582.371 -1.3172 0.865308 0
M  V30 6313 C 583.301 -2.31109 0.333302 0
M  V30 6314 C 584.282 -1.60148 -0.573301 0
M  V30 6315 O 585.467 -1.87882 -0.491305 0
M  V30 6316 C 582.597 -3.44104 -0.470078 0
M  V30 6317 C 581.551 -4.26623 0.343021 0
M  V30 6318 C 580.877 -5.31482 -0.585756 0
M  V30 6319 C 582.177 -4.98001 1.57456 0
M  V30 6320 H 583.871 -2.75855 1.1638 0
M  V30 6321 H 581.417 -1.3262 0.561069 0
M  V30 6322 H 583.37 -4.12682 -0.852752 0
M  V30 6323 H 582.094 -2.98112 -1.33404 0
M  V30 6324 H 580.753 -3.59707 0.707583 0
M  V30 6325 H 580.401 -4.81741 -1.44686 0
M  V30 6326 H 580.101 -5.87582 -0.0456494 0
M  V30 6327 H 581.625 -6.0292 -0.965375 0
M  V30 6328 H 583.039 -5.59201 1.26359 0
M  V30 6329 H 581.436 -5.63876 2.05339 0
M  V30 6330 H 582.506 -4.25253 2.32997 0
M  V30 6331 N 583.85 -0.624285 -1.44708 0
M  V30 6332 C 585.077 -0.132919 -2.06473 0
M  V30 6333 C 585.493 1.18967 -1.46602 0
M  V30 6334 O 584.85 1.72824 -0.586341 0
M  V30 6335 C 584.901 -0.00465418 -3.615 0
M  V30 6336 O 584.622 -1.27494 -4.19138 0
M  V30 6337 C 586.123 0.516213 -4.40284 0
M  V30 6338 H 583.343 -0.0765201 -0.666623 0
M  V30 6339 H 585.887 -0.856751 -1.85688 0
M  V30 6340 H 584.042 0.669583 -3.8157 0
M  V30 6341 H 584.456 -1.11536 -5.12504 0
M  V30 6342 H 585.93 0.554994 -5.49203 0
M  V30 6343 H 586.407 1.5419 -4.11245 0
M  V30 6344 H 587.013 -0.124542 -4.25118 0
M  V30 6345 N 585.328 1.53329 -0.364422 0
M  V30 6346 C 586.291 2.24323 0.470292 0
M  V30 6347 C 587.291 1.25068 1.01067 0
M  V30 6348 O 588.481 1.49354 0.896605 0
M  V30 6349 C 585.613 2.97908 1.65722 0
M  V30 6350 H 586.806 2.9952 -0.150917 0
M  V30 6351 H 584.359 1.55868 -0.116092 0
M  V30 6352 H 585.094 2.2695 2.31655 0
M  V30 6353 H 584.879 3.70732 1.27671 0
M  V30 6354 H 586.369 3.5188 2.24878 0
M  V30 6355 N 586.806 0.0935595 1.57322 0
M  V30 6356 C 588.052 -0.571355 1.94585 0
M  V30 6357 C 588.385 -1.67929 0.975366 0
M  V30 6358 O 587.66 -1.94498 0.00816206 0
M  V30 6359 C 587.943 -1.12797 3.41978 0
M  V30 6360 C 587.796 -0.0251881 4.49793 0
M  V30 6361 C 589.115 -2.02682 3.90651 0
M  V30 6362 H 586.234 -0.206223 0.70756 0
M  V30 6363 H 588.876 0.163956 1.89291 0
M  V30 6364 H 587.026 -1.75461 3.4662 0
M  V30 6365 H 588.698 0.608979 4.57263 0
M  V30 6366 H 586.941 0.641399 4.29032 0
M  V30 6367 H 587.612 -0.455433 5.50118 0
M  V30 6368 H 590.088 -1.49925 3.88152 0
M  V30 6369 H 588.964 -2.38555 4.94351 0
M  V30 6370 H 589.225 -2.94362 3.29854 0
M  V30 6371 N 588.284 -1.56567 -0.180126 0
M  V30 6372 C 589.532 -1.81133 -0.896392 0
M  V30 6373 C 589.853 -0.669114 -1.83161 0
M  V30 6374 O 589.123 0.311616 -1.93406 0
M  V30 6375 H 587.703 -0.668172 -0.333999 0
M  V30 6376 H 590.365 -1.94048 -0.182051 0
M  V30 6377 H 589.461 -2.74854 -1.47857 0
M  V30 6378 N 589.762 0.448376 -1.51087 0
M  V30 6379 C 591.01 1.19635 -1.62886 0
M  V30 6380 C 591.331 1.91977 -0.342024 0
M  V30 6381 O 590.601 1.85094 0.641636 0
M  V30 6382 H 589.181 0.444598 -0.600285 0
M  V30 6383 H 591.843 0.515138 -1.87969 0
M  V30 6384 H 590.939 1.93194 -2.45117 0
M  V30 6385 N 591.24 1.41047 0.703093 0
M  V30 6386 C 592.489 1.39301 1.4587 0
M  V30 6387 C 592.802 0.00267077 1.956 0
M  V30 6388 O 594.008 -0.137414 2.71152 0
M  V30 6389 C 592.464 2.44891 2.63735 0
M  V30 6390 C 592.072 3.89796 2.20824 0
M  V30 6391 C 593.816 2.5227 3.41409 0
M  V30 6392 C 591.723 4.86955 3.35602 0
M  V30 6393 H 590.653 0.518005 0.547893 0
M  V30 6394 H 593.304 1.66839 0.764009 0
M  V30 6395 H 591.686 2.10472 3.35436 0
M  V30 6396 H 592.86 4.33424 1.56461 0
M  V30 6397 H 591.175 3.86008 1.56163 0
M  V30 6398 H 593.772 3.22044 4.26839 0
M  V30 6399 H 594.115 1.55714 3.86081 0
M  V30 6400 H 594.648 2.85742 2.7676 0
M  V30 6401 H 591.387 5.84888 2.9595 0
M  V30 6402 H 590.907 4.47982 3.98839 0
M  V30 6403 H 592.586 5.07361 4.01489 0
M  V30 6404 N 592.718 -0.936591 1.26751 0
M  V30 6405 C 593.966 -1.67998 1.12343 0
M  V30 6406 C 594.287 -1.92137 -0.332938 0
M  V30 6407 O 593.557 -1.52132 -1.23421 0
M  V30 6408 H 592.137 -0.622609 0.412756 0
M  V30 6409 H 594.799 -1.12509 1.59147 0
M  V30 6410 H 593.895 -2.65185 1.64571 0
M  V30 6411 N 594.196 -1.08629 -1.14182 0
M  V30 6412 C 595.128 -0.676189 -2.18998 0
M  V30 6413 C 596.141 0.277871 -1.60411 0
M  V30 6414 O 597.33 0.0651771 -1.78381 0
M  V30 6415 C 594.43 0.0254916 -3.3889 0
M  V30 6416 C 593.603 -0.948039 -4.27002 0
M  V30 6417 C 592.662 -0.281268 -5.25448 0
M  V30 6418 O 591.688 -0.926378 -5.61611 0
M  V30 6419 N 592.89 0.967923 -5.72374 0
M  V30 6420 H 595.655 -1.57792 -2.54798 0
M  V30 6421 H 593.216 -0.972665 -1.29425 0
M  V30 6422 H 595.208 0.482554 -4.01813 0
M  V30 6423 H 593.778 0.829348 -3.01398 0
M  V30 6424 H 592.998 -1.58388 -3.6098 0
M  V30 6425 H 594.286 -1.60765 -4.82734 0
M  V30 6426 H 593.684 1.51175 -5.45126 0
M  V30 6427 H 592.241 1.36844 -6.37273 0
M  V30 6428 N 595.674 1.31259 -0.872281 0
M  V30 6429 C 596.604 2.30929 -0.345554 0
M  V30 6430 C 597.585 1.60449 0.5648 0
M  V30 6431 O 598.77 1.8814 0.481335 0
M  V30 6432 C 595.9 3.44348 0.451823 0
M  V30 6433 C 594.854 4.26435 -0.365641 0
M  V30 6434 C 594.18 5.31785 0.557562 0
M  V30 6435 C 595.48 4.97159 -1.60095 0
M  V30 6436 H 597.174 2.75234 -1.17841 0
M  V30 6437 H 594.72 1.3232 -0.568094 0
M  V30 6438 H 596.673 4.13128 0.830854 0
M  V30 6439 H 595.397 2.98816 1.31821 0
M  V30 6440 H 594.056 3.59326 -0.726649 0
M  V30 6441 H 593.704 4.82502 1.4213 0
M  V30 6442 H 593.404 5.87598 0.0144878 0
M  V30 6443 H 594.928 6.03424 0.933387 0
M  V30 6444 H 596.342 5.58523 -1.29323 0
M  V30 6445 H 594.739 5.62779 -2.08327 0
M  V30 6446 H 595.809 4.24012 -2.35249 0
M  V30 6447 N 597.152 0.631951 1.44375 0
M  V30 6448 C 598.38 0.143867 2.06399 0
M  V30 6449 C 598.795 -1.18188 1.47231 0
M  V30 6450 O 598.152 -1.72511 0.595498 0
M  V30 6451 C 598.203 0.0238253 3.61492 0
M  V30 6452 O 597.924 1.29715 4.18456 0
M  V30 6453 C 599.425 -0.492856 4.40552 0
M  V30 6454 H 596.645 0.0800542 0.666207 0
M  V30 6455 H 599.189 0.866586 1.85231 0
M  V30 6456 H 597.344 -0.649338 3.81919 0
M  V30 6457 H 597.758 1.14252 5.11905 0
M  V30 6458 H 599.232 -0.525861 5.49489 0
M  V30 6459 H 599.709 -1.52006 4.12057 0
M  V30 6460 H 600.315 0.147085 4.25046 0
M  V30 6461 N 598.631 -1.53133 0.372548 0
M  V30 6462 C 599.594 -2.24569 -0.458389 0
M  V30 6463 C 600.594 -1.25603 -1.00402 0
M  V30 6464 O 601.784 -1.49827 -0.888672 0
M  V30 6465 C 598.916 -2.98783 -1.6414 0
M  V30 6466 H 600.109 -2.99436 0.166799 0
M  V30 6467 H 597.662 -1.55805 0.124357 0
M  V30 6468 H 598.397 -2.28176 -2.30448 0
M  V30 6469 H 598.182 -3.71404 -1.25704 0
M  V30 6470 H 599.672 -3.53068 -2.23008 0
M  V30 6471 N 600.109 -0.101901 -1.5727 0
M  V30 6472 C 601.072 0.840129 -2.13247 0
M  V30 6473 C 602.072 1.20625 -1.06331 0
M  V30 6474 O 603.262 1.13456 -1.32186 0
M  V30 6475 C 600.394 2.13372 -2.65867 0
M  V30 6476 H 601.587 0.353945 -2.97804 0
M  V30 6477 H 599.14 0.147167 -1.55606 0
M  V30 6478 H 599.875 2.66461 -1.84849 0
M  V30 6479 H 599.66 1.88085 -3.44044 0
M  V30 6480 H 601.15 2.80748 -3.09145 0
M  V30 6481 N 601.587 1.56661 0.17182 0
M  V30 6482 C 602.534 1.96371 1.21273 0
M  V30 6483 C 603.504 0.82756 1.44016 0
M  V30 6484 O 604.689 1.08764 1.56764 0
M  V30 6485 C 601.829 2.32838 2.54716 0
M  V30 6486 C 600.942 3.59628 2.39356 0
M  V30 6487 C 600.077 3.85311 3.65662 0
M  V30 6488 C 599.116 5.0545 3.45234 0
M  V30 6489 N 598.253 5.27268 4.63608 0
M  V30 6490 H 603.093 2.85106 0.86709 0
M  V30 6491 H 600.63 1.41073 0.416744 0
M  V30 6492 H 602.588 2.52004 3.3249 0
M  V30 6493 H 601.218 1.47214 2.87277 0
M  V30 6494 H 600.27 3.4838 1.52761 0
M  V30 6495 H 601.582 4.4756 2.20207 0
M  V30 6496 H 600.736 4.04841 4.51872 0
M  V30 6497 H 599.475 2.95753 3.8779 0
M  V30 6498 H 598.48 4.85819 2.5741 0
M  V30 6499 H 599.705 5.96538 3.24529 0
M  V30 6500 H 597.651 4.40662 4.85956 0
M  V30 6501 H 597.568 6.09422 4.4737 0
M  V30 6502 H 598.836 5.51277 5.51103 0
M  V30 6503 N 603.065 -0.440357 1.51323 0
M  V30 6504 C 603.975 -1.55955 1.75258 0
M  V30 6505 C 604.991 -1.61933 0.636687 0
M  V30 6506 O 606.167 -1.79231 0.918593 0
M  V30 6507 C 603.232 -2.9196 1.86977 0
M  V30 6508 C 602.293 -2.96122 3.10822 0
M  V30 6509 C 601.526 -4.2564 3.21973 0
M  V30 6510 O 601.749 -5.17851 2.39137 0
M  V30 6511 O 600.683 -4.36025 4.14929 0
M  V30 6512 H 604.509 -1.38673 2.70191 0
M  V30 6513 H 602.094 -0.623055 1.35788 0
M  V30 6514 H 603.976 -3.72682 1.96688 0
M  V30 6515 H 602.651 -3.09375 0.952307 0
M  V30 6516 H 601.558 -2.14366 3.06591 0
M  V30 6517 H 602.891 -2.83651 4.02247 0
M  V30 6518 N 604.543 -1.41418 -0.695603 0
M  V30 6519 C 605.453 -1.45622 -1.83933 0
M  V30 6520 C 606.469 -0.346825 -1.70508 0
M  V30 6521 O 607.645 -0.59454 -1.92424 0
M  V30 6522 C 604.71 -1.33627 -3.19914 0
M  V30 6523 C 603.771 -2.54882 -3.45447 0
M  V30 6524 C 603.004 -2.43449 -4.7494 0
M  V30 6525 O 603.227 -1.45905 -5.51424 0
M  V30 6526 O 602.161 -3.33206 -5.01256 0
M  V30 6527 H 605.987 -2.42114 -1.83342 0
M  V30 6528 H 603.572 -1.22956 -0.848658 0
M  V30 6529 H 605.454 -1.29221 -4.01098 0
M  V30 6530 H 604.129 -0.402508 -3.21188 0
M  V30 6531 H 603.036 -2.64865 -2.64192 0
M  V30 6532 H 604.369 -3.47087 -3.48987 0
M  V30 6533 N 606.021 0.929856 -1.27246 0
M  V30 6534 C 607.246 1.71674 -1.16374 0
M  V30 6535 C 607.671 1.86064 0.276024 0
M  V30 6536 O 607.029 1.3591 1.19992 0
M  V30 6537 C 607.077 3.09526 -1.85003 0
M  V30 6538 O 606.181 3.96142 -1.14653 0
M  V30 6539 H 605.522 0.52629 -0.404863 0
M  V30 6540 H 608.052 1.16381 -1.68276 0
M  V30 6541 H 608.062 3.59852 -1.92276 0
M  V30 6542 H 606.737 2.98369 -2.89739 0
M  V30 6543 H 605.314 3.54584 -1.15433 0
M  V30 6544 N 607.499 1.09233 1.13605 0
M  V30 6545 C 608.747 0.825525 1.84471 0
M  V30 6546 C 609.068 -0.650702 1.83823 0
M  V30 6547 O 608.338 -1.47204 1.29259 0
M  V30 6548 H 606.918 0.3024 0.683054 0
M  V30 6549 H 609.58 1.38006 1.37624 0
M  V30 6550 H 608.676 1.17727 2.89045 0
M  V30 6551 N 608.977 -1.30795 0.87923 0
M  V30 6552 C 610.225 -1.95974 0.493809 0
M  V30 6553 C 610.546 -1.69787 -0.959021 0
M  V30 6554 O 609.816 -1.01832 -1.67353 0
M  V30 6555 H 608.396 -0.725083 0.179622 0
M  V30 6556 H 611.058 -1.59432 1.12105 0
M  V30 6557 H 610.154 -3.05058 0.659263 0
M  V30 6558 N 610.455 -0.639598 -1.44038 0
M  V30 6559 C 611.871 -0.305953 -1.5664 0
M  V30 6560 C 612.071 1.19055 -1.62567 0
M  V30 6561 O 611.127 1.97492 -1.57331 0
M  V30 6562 C 612.44 -1.00533 -2.83397 0
M  V30 6563 C 613.988 -0.984278 -2.97121 0
M  V30 6564 C 614.463 -1.66428 -4.26691 0
M  V30 6565 N 615.954 -1.63127 -4.33525 0
M  V30 6566 C 616.689 -2.12629 -5.32519 0
M  V30 6567 N 616.185 -2.70359 -6.3787 0
M  V30 6568 N 617.978 -2.03208 -5.24083 0
M  V30 6569 H 610.129 -1.6109 -1.38434 0
M  V30 6570 H 612.392 -0.676672 -0.663942 0
M  V30 6571 H 612.098 -2.06034 -2.85032 0
M  V30 6572 H 611.972 -0.548362 -3.73193 0
M  V30 6573 H 614.359 0.0622792 -2.95034 0
M  V30 6574 H 614.44 -1.47981 -2.08651 0
M  V30 6575 H 614.084 -2.71034 -4.29538 0
M  V30 6576 H 614.014 -1.14351 -5.14034 0
M  V30 6577 H 616.505 -1.20987 -3.58009 0
M  V30 6578 H 616.818 -3.05842 -7.09704 0
M  V30 6579 H 615.163 -2.74414 -6.38531 0
M  V30 6580 H 618.354 -1.57823 -4.40692 0
M  V30 6581 H 618.527 -2.42097 -6.01077 0
M  V30 6582 N 611.933 1.52934 -0.380664 0
M  V30 6583 C 613.158 2.06363 0.207157 0
M  V30 6584 C 613.583 1.25122 1.4045 0
M  V30 6585 O 612.941 0.274062 1.79217 0
M  V30 6586 C 612.989 3.56162 0.563996 0
M  V30 6587 O 612.093 3.77552 1.65917 0
M  V30 6588 H 611.434 0.663468 0.0265859 0
M  V30 6589 H 613.964 1.9719 -0.545635 0
M  V30 6590 H 613.974 3.99453 0.830752 0
M  V30 6591 H 612.649 4.14732 -0.311427 0
M  V30 6592 H 611.226 3.46154 1.3868 0
M  V30 6593 N 613.412 0.11024 1.57214 0
M  V30 6594 C 614.828 -0.24638 1.57687 0
M  V30 6595 C 615.028 -1.67344 1.12241 0
M  V30 6596 O 614.084 -2.39298 0.805783 0
M  V30 6597 C 615.397 -0.0210288 3.00693 0
M  V30 6598 C 616.945 -0.0876077 3.12877 0
M  V30 6599 C 617.42 0.10994 4.57868 0
M  V30 6600 N 618.911 0.0556135 4.63167 0
M  V30 6601 C 619.646 0.183495 5.73106 0
M  V30 6602 N 619.142 0.367058 6.91827 0
M  V30 6603 N 620.935 0.123689 5.61964 0
M  V30 6604 H 613.086 1.04246 1.85058 0
M  V30 6605 H 615.349 0.40979 0.854854 0
M  V30 6606 H 615.055 0.965203 3.38196 0
M  V30 6607 H 614.929 -0.756748 3.69531 0
M  V30 6608 H 617.316 -1.06436 2.75237 0
M  V30 6609 H 617.397 0.67985 2.466 0
M  V30 6610 H 617.041 1.08362 4.96206 0
M  V30 6611 H 616.971 -0.677397 5.22225 0
M  V30 6612 H 619.462 -0.0831062 3.77809 0
M  V30 6613 H 619.775 0.455739 7.71455 0
M  V30 6614 H 618.12 0.40292 6.93831 0
M  V30 6615 H 621.311 -0.0186928 4.68096 0
M  V30 6616 H 621.484 0.226797 6.47603 0
M  V30 6617 N 614.89 -1.56749 -0.16351 0
M  V30 6618 C 616.115 -1.86938 -0.898264 0
M  V30 6619 C 616.54 -0.697456 -1.74692 0
M  V30 6620 O 615.898 0.353327 -1.77824 0
M  V30 6621 C 615.946 -3.15599 -1.74441 0
M  V30 6622 O 615.05 -2.98371 -2.8469 0
M  V30 6623 H 614.391 -0.614659 -0.251178 0
M  V30 6624 H 616.921 -2.03979 -0.159298 0
M  V30 6625 H 616.931 -3.47202 -2.14277 0
M  V30 6626 H 615.606 -4.00505 -1.1211 0
M  V30 6627 H 614.183 -2.7814 -2.4838 0
M  V30 6628 N 616.368 0.432326 -1.51554 0
M  V30 6629 C 617.616 1.17901 -1.64146 0
M  V30 6630 C 617.937 1.91604 -0.362367 0
M  V30 6631 O 617.207 1.85764 0.621968 0
M  V30 6632 H 615.787 0.438206 -0.604966 0
M  V30 6633 H 618.449 0.495172 -1.88505 0
M  V30 6634 H 617.545 1.90584 -2.47152 0
M  V30 6635 N 617.846 1.41785 0.688094 0
M  V30 6636 C 619.071 1.45117 1.48175 0
M  V30 6637 C 619.496 0.060129 1.88004 0
M  V30 6638 O 618.854 -0.938385 1.55126 0
M  V30 6639 C 618.902 2.37224 2.71583 0
M  V30 6640 O 618.006 1.83443 3.69354 0
M  V30 6641 H 617.347 0.492208 0.445676 0
M  V30 6642 H 619.877 1.86329 0.845145 0
M  V30 6643 H 619.887 2.53353 3.19806 0
M  V30 6644 H 618.562 3.38293 2.41931 0
M  V30 6645 H 617.139 1.76802 3.28322 0
M  V30 6646 N 619.324 -0.923095 1.27737 0
M  V30 6647 C 620.573 -1.66581 1.13727 0
M  V30 6648 C 620.886 -1.9304 -0.315433 0
M  V30 6649 O 622.092 -2.65309 -0.57651 0
M  V30 6650 C 620.548 -3.00047 1.98745 0
M  V30 6651 C 620.156 -2.8127 3.48699 0
M  V30 6652 C 621.9 -3.77887 1.93395 0
M  V30 6653 C 619.807 -4.1032 4.25901 0
M  V30 6654 H 618.737 -0.624834 0.422017 0
M  V30 6655 H 621.388 -1.02514 1.52194 0
M  V30 6656 H 619.77 -3.65197 1.53125 0
M  V30 6657 H 620.944 -2.24859 4.02213 0
M  V30 6658 H 619.259 -2.16854 3.55476 0
M  V30 6659 H 621.856 -4.73526 2.48348 0
M  V30 6660 H 622.199 -4.06264 0.908605 0
M  V30 6661 H 622.732 -3.19541 2.36935 0
M  V30 6662 H 619.471 -3.8712 5.28978 0
M  V30 6663 H 618.991 -4.66377 3.77163 0
M  V30 6664 H 620.67 -4.78648 4.35321 0
M  V30 6665 N 620.802 -1.09834 -1.13024 0
M  V30 6666 C 622.048 -0.83819 -1.84668 0
M  V30 6667 C 622.381 0.634645 -1.83537 0
M  V30 6668 O 621.656 1.46753 -1.27647 0
M  V30 6669 C 621.939 -1.37933 -3.32636 0
M  V30 6670 C 621.792 -2.91857 -3.42257 0
M  V30 6671 C 623.111 -1.01654 -4.28199 0
M  V30 6672 H 620.23 -0.30595 -0.670495 0
M  V30 6673 H 622.872 -1.36044 -1.32635 0
M  V30 6674 H 621.022 -0.935111 -3.77078 0
M  V30 6675 H 622.694 -3.44759 -3.06495 0
M  V30 6676 H 620.937 -3.28776 -2.83 0
M  V30 6677 H 621.608 -3.24799 -4.46329 0
M  V30 6678 H 624.084 -1.39973 -3.9185 0
M  V30 6679 H 622.96 -1.42217 -5.30156 0
M  V30 6680 H 623.221 0.0747794 -4.42037 0
M  V30 6681 N 622.28 1.30327 -0.886154 0
M  V30 6682 C 623.19 2.31854 -0.357866 0
M  V30 6683 C 624.206 1.65392 0.540502 0
M  V30 6684 O 625.382 1.96683 0.433339 0
M  V30 6685 C 622.447 3.44171 0.417999 0
M  V30 6686 C 621.508 4.26257 -0.510263 0
M  V30 6687 C 620.741 5.3321 0.228669 0
M  V30 6688 O 620.964 5.51542 1.45458 0
M  V30 6689 O 619.898 6.0042 -0.421832 0
M  V30 6690 H 623.724 2.78995 -1.19982 0
M  V30 6691 H 621.309 1.34518 -0.650028 0
M  V30 6692 H 623.191 4.12588 0.857251 0
M  V30 6693 H 621.866 2.99164 1.23623 0
M  V30 6694 H 620.773 3.60533 -0.99835 0
M  V30 6695 H 622.106 4.74871 -1.29454 0
M  V30 6696 N 623.758 0.647228 1.43697 0
M  V30 6697 C 624.688 -0.0345631 2.33474 0
M  V30 6698 C 625.669 -0.818193 1.4913 0
M  V30 6699 O 626.854 -0.780867 1.77809 0
M  V30 6700 C 623.984 -1.00576 3.32418 0
M  V30 6701 C 622.938 -0.33266 4.26705 0
M  V30 6702 C 622.264 -1.41489 5.1564 0
M  V30 6703 C 623.564 0.771204 5.16575 0
M  V30 6704 H 625.258 0.715163 2.90733 0
M  V30 6705 H 622.804 0.345364 1.39797 0
M  V30 6706 H 624.757 -1.49159 3.94119 0
M  V30 6707 H 623.481 -1.78657 2.73403 0
M  V30 6708 H 622.14 0.13267 3.6636 0
M  V30 6709 H 621.788 -2.18698 4.52968 0
M  V30 6710 H 621.488 -0.969799 5.79542 0
M  V30 6711 H 623.012 -1.9022 5.80214 0
M  V30 6712 H 624.426 0.36779 5.72119 0
M  V30 6713 H 622.823 1.1404 5.89165 0
M  V30 6714 H 623.893 1.63169 4.56622 0
M  V30 6715 N 625.236 -1.5273 0.388769 0
M  V30 6716 C 626.485 -2.00757 -0.194833 0
M  V30 6717 C 626.798 -1.27951 -1.47946 0
M  V30 6718 O 628.004 -1.66686 -2.14308 0
M  V30 6719 C 626.46 -3.57695 -0.397762 0
M  V30 6720 C 626.068 -4.394 0.873583 0
M  V30 6721 C 627.812 -4.14012 -0.937759 0
M  V30 6722 C 625.719 -5.87938 0.638962 0
M  V30 6723 H 624.649 -0.750101 -0.0765845 0
M  V30 6724 H 627.3 -1.76239 0.511086 0
M  V30 6725 H 625.682 -3.7846 -1.16552 0
M  V30 6726 H 626.856 -4.30403 1.64591 0
M  V30 6727 H 625.171 -3.94301 1.33849 0
M  V30 6728 H 627.768 -5.22645 -1.12899 0
M  V30 6729 H 628.111 -3.7007 -1.90666 0
M  V30 6730 H 628.644 -3.97137 -0.229588 0
M  V30 6731 H 625.383 -6.36202 1.57885 0
M  V30 6732 H 624.903 -5.99726 -0.094443 0
M  V30 6733 H 626.582 -6.46423 0.273299 0
M  V30 6734 N 626.714 -0.118576 -1.57153 0
M  V30 6735 C 627.677 0.817464 -2.14127 0
M  V30 6736 C 628.677 1.1949 -1.07604 0
M  V30 6737 O 629.867 1.12048 -1.33382 0
M  V30 6738 C 626.999 2.10541 -2.68115 0
M  V30 6739 H 628.192 0.322339 -2.98163 0
M  V30 6740 H 625.745 0.130655 -1.55753 0
M  V30 6741 H 626.48 2.64485 -1.87665 0
M  V30 6742 H 626.265 1.84425 -3.4602 0
M  V30 6743 H 627.755 2.77453 -3.12105 0
M  V30 6744 N 628.193 1.56834 0.155195 0
M  V30 6745 C 629.441 1.82536 0.867462 0
M  V30 6746 C 629.762 0.698168 1.82073 0
M  V30 6747 O 629.032 -0.280807 1.93877 0
M  V30 6748 H 627.612 0.673401 0.323327 0
M  V30 6749 H 630.274 1.94313 0.151156 0
M  V30 6750 H 629.37 2.77171 1.43466 0
M  V30 6751 N 629.671 -0.424282 1.51781 0
M  V30 6752 C 630.919 -1.17028 1.64769 0
M  V30 6753 C 631.24 -1.91409 0.372523 0
M  V30 6754 O 630.51 -1.86091 -0.612108 0
M  V30 6755 H 629.09 -0.434992 0.607282 0
M  V30 6756 H 631.752 -0.485169 1.88765 0
M  V30 6757 H 630.848 -1.8927 2.4816 0
M  V30 6758 N 631.149 -1.42148 -0.680565 0
M  V30 6759 C 632.397 -1.42029 -1.43779 0
M  V30 6760 C 632.718 -0.0356347 -1.94967 0
M  V30 6761 O 631.988 0.924936 -1.7269 0
M  V30 6762 H 630.568 -0.522835 -0.533529 0
M  V30 6763 H 633.23 -1.7752 -0.804538 0
M  V30 6764 H 632.326 -2.11658 -2.29363 0
M  V30 6765 N 632.627 0.916307 -1.28225 0
M  V30 6766 C 633.852 1.7043 -1.18188 0
M  V30 6767 C 634.277 1.86346 0.256274 0
M  V30 6768 O 633.635 1.37175 1.18544 0
M  V30 6769 C 633.683 3.07546 -1.88275 0
M  V30 6770 O 632.787 3.94904 -1.18848 0
M  V30 6771 H 632.128 0.521967 -0.410423 0
M  V30 6772 H 634.658 1.14589 -1.69501 0
M  V30 6773 H 634.668 3.57793 -1.96082 0
M  V30 6774 H 633.343 2.95279 -2.92887 0
M  V30 6775 H 631.92 3.53339 -1.19187 0
M  V30 6776 N 634.105 1.10431 1.1244 0
M  V30 6777 C 635.33 0.869089 1.88313 0
M  V30 6778 C 635.755 -0.574912 1.79099 0
M  V30 6779 O 635.113 -1.40496 1.14589 0
M  V30 6780 C 635.161 1.32208 3.3549 0
M  V30 6781 O 634.265 0.487092 4.09513 0
M  V30 6782 H 633.606 0.313894 0.585121 0
M  V30 6783 H 636.136 1.47111 1.42195 0
M  V30 6784 H 636.146 1.31201 3.86329 0
M  V30 6785 H 634.821 2.37364 3.41513 0
M  V30 6786 H 633.398 0.562372 3.68635 0
M  V30 6787 N 635.583 -1.29855 0.893053 0
M  V30 6788 C 636.823 -1.97612 0.522399 0
M  V30 6789 C 637.187 -1.68903 -0.913 0
M  V30 6790 O 638.388 -2.30059 -1.39019 0
M  V30 6791 C 636.659 -3.48356 0.79893 0
M  V30 6792 S 638.218 -4.35568 0.531588 0
M  V30 6793 H 635.036 -0.684005 0.194058 0
M  V30 6794 H 637.638 -1.57803 1.15406 0
M  V30 6795 H 636.342 -3.66743 1.84196 0
M  V30 6796 H 635.873 -3.93094 0.155133 0
M  V30 6797 H 637.888 -4.92232 -0.626295 0
M  V30 6798 N 637.061 -0.65484 -1.43351 0
M  V30 6799 C 638.286 -0.175046 -2.0666 0
M  V30 6800 C 638.711 1.15104 -1.4877 0
M  V30 6801 O 638.069 1.71144 -0.598279 0
M  V30 6802 C 638.117 -0.0991544 -3.60464 0
M  V30 6803 O 637.221 0.938169 -4.01587 0
M  V30 6804 H 636.562 -0.0956148 -0.65708 0
M  V30 6805 H 639.092 -0.898222 -1.83829 0
M  V30 6806 H 639.102 0.083632 -4.07914 0
M  V30 6807 H 637.777 -1.06719 -4.01975 0
M  V30 6808 H 636.354 0.72804 -3.65724 0
M  V30 6809 N 638.539 1.52521 -0.396863 0
M  V30 6810 C 639.95 1.86547 0.0754868 0
M  V30 6811 C 640.301 1.31621 1.45501 0
M  V30 6812 O 639.426 0.650563 2.0639 0
M  V30 6813 C 640.021 3.38495 0.143754 0
M  V30 6814 C 638.58 3.72205 0.560413 0
M  V30 6815 C 637.727 2.75954 -0.272856 0
M  V30 6816 H 640.678 1.46323 -0.614434 0
M  V30 6817 H 640.699 3.68153 0.961425 0
M  V30 6818 H 640.211 3.78442 -0.860415 0
M  V30 6819 H 638.312 3.3783 1.57167 0
M  V30 6820 H 638.425 4.78074 0.313314 0
M  V30 6821 H 636.789 2.53339 0.263 0
M  V30 6822 H 637.572 3.1874 -1.27515 0
M  V30 6823 N 640.017 0.126909 1.57088 0
M  V30 6824 C 641.263 -0.529952 1.95753 0
M  V30 6825 C 641.596 -1.65823 1.01077 0
M  V30 6826 O 640.871 -1.94437 0.0494162 0
M  V30 6827 C 641.154 -1.05517 3.44294 0
M  V30 6828 C 641.007 0.0702253 4.49745 0
M  V30 6829 C 642.326 -1.9435 3.94862 0
M  V30 6830 H 639.445 -0.191168 0.711775 0
M  V30 6831 H 642.087 0.204071 1.88901 0
M  V30 6832 H 640.237 -1.68069 3.50264 0
M  V30 6833 H 641.909 0.705834 4.55868 0
M  V30 6834 H 640.152 0.732259 4.27575 0
M  V30 6835 H 640.823 -0.338642 5.5096 0
M  V30 6836 H 643.299 -1.41658 3.91244 0
M  V30 6837 H 642.175 -2.28015 4.993 0
M  V30 6838 H 642.436 -2.87299 3.36024 0
M  V30 6839 N 641.495 -1.56914 -0.146875 0
M  V30 6840 C 642.425 -2.01308 -1.1831 0
M  V30 6841 C 643.406 -0.892664 -1.44795 0
M  V30 6842 O 644.591 -1.16048 -1.55713 0
M  V30 6843 C 641.721 -2.3938 -2.51624 0
M  V30 6844 C 640.675 -3.54608 -2.3966 0
M  V30 6845 C 640.001 -3.78493 -3.77686 0
M  V30 6846 C 641.301 -4.87269 -1.88058 0
M  V30 6847 H 642.995 -2.88123 -0.813964 0
M  V30 6848 H 640.541 -1.38615 -0.3901 0
M  V30 6849 H 642.494 -2.69037 -3.24341 0
M  V30 6850 H 641.218 -1.49502 -2.90373 0
M  V30 6851 H 639.877 -3.25116 -1.69396 0
M  V30 6852 H 639.525 -2.85866 -4.13871 0
M  V30 6853 H 639.225 -4.56039 -3.70543 0
M  V30 6854 H 640.749 -4.10576 -4.51951 0
M  V30 6855 H 642.163 -5.15644 -2.50568 0
M  V30 6856 H 640.56 -5.68622 -1.91805 0
M  V30 6857 H 641.63 -4.77634 -0.836277 0
M  V30 6858 N 642.974 0.416227 -1.52004 0
M  V30 6859 C 644.199 1.19029 -1.69843 0
M  V30 6860 C 644.624 1.83708 -0.404103 0
M  V30 6861 O 643.982 1.69711 0.637787 0
M  V30 6862 C 644.03 2.23439 -2.83032 0
M  V30 6863 O 643.134 3.29419 -2.48106 0
M  V30 6864 H 642.475 0.347785 -0.565634 0
M  V30 6865 H 645.005 0.488871 -1.98674 0
M  V30 6866 H 645.015 2.67884 -3.07737 0
M  V30 6867 H 643.69 1.75745 -3.76944 0
M  V30 6868 H 642.267 2.90303 -2.34048 0
M  V30 6869 N 644.452 1.42507 0.673017 0
M  V30 6870 C 645.868 1.25472 0.986355 0
M  V30 6871 C 646.068 0.160181 2.00862 0
M  V30 6872 O 645.124 -0.467993 2.48125 0
M  V30 6873 C 646.437 2.61219 1.48947 0
M  V30 6874 C 647.985 2.68589 1.60715 0
M  V30 6875 C 648.46 4.04707 2.14422 0
M  V30 6876 N 649.951 4.0667 2.21752 0
M  V30 6877 C 650.686 5.0881 2.64386 0
M  V30 6878 N 650.182 6.21332 3.0646 0
M  V30 6879 N 651.975 4.96166 2.64151 0
M  V30 6880 H 644.126 2.124 -0.00378532 0
M  V30 6881 H 646.389 0.946046 0.0608367 0
M  V30 6882 H 646.095 3.42179 0.812812 0
M  V30 6883 H 645.969 2.85261 2.46791 0
M  V30 6884 H 648.356 1.87974 2.27486 0
M  V30 6885 H 648.437 2.48333 0.613552 0
M  V30 6886 H 648.081 4.8578 1.48258 0
M  V30 6887 H 648.011 4.22315 3.14575 0
M  V30 6888 H 650.502 3.25438 1.92089 0
M  V30 6889 H 650.815 6.95118 3.37684 0
M  V30 6890 H 649.16 6.24835 3.04313 0
M  V30 6891 H 652.351 4.07334 2.30644 0
M  V30 6892 H 652.524 5.759 2.97057 0
M  V30 6893 N 645.93 -0.909495 1.28709 0
M  V30 6894 C 646.877 -2.01245 1.13 0
M  V30 6895 C 647.847 -1.6608 0.0259684 0
M  V30 6896 O 649.032 -1.89835 0.191687 0
M  V30 6897 C 646.172 -3.35644 0.802315 0
M  V30 6898 C 645.285 -3.83653 1.98582 0
M  V30 6899 C 644.42 -5.06582 1.59837 0
M  V30 6900 C 643.459 -5.46934 2.74827 0
M  V30 6901 N 642.596 -6.61053 2.36546 0
M  V30 6902 H 647.436 -2.14013 2.0737 0
M  V30 6903 H 644.973 -1.0482 1.03205 0
M  V30 6904 H 646.931 -4.12963 0.593057 0
M  V30 6905 H 645.561 -3.22631 -0.104457 0
M  V30 6906 H 644.613 -3.02454 2.30708 0
M  V30 6907 H 645.925 -4.09515 2.84779 0
M  V30 6908 H 645.079 -5.91457 1.35143 0
M  V30 6909 H 643.818 -4.82537 0.707753 0
M  V30 6910 H 642.823 -4.60599 3.00215 0
M  V30 6911 H 644.048 -5.72965 3.64538 0
M  V30 6912 H 641.994 -6.3863 1.49959 0
M  V30 6913 H 641.911 -6.86662 3.16277 0
M  V30 6914 H 643.179 -7.49221 2.15146 0
M  V30 6915 N 647.408 -1.11026 -1.11852 0
M  V30 6916 C 648.34 -0.72249 -2.17515 0
M  V30 6917 C 649.353 0.243782 -1.60964 0
M  V30 6918 O 650.542 0.0273252 -1.78479 0
M  V30 6919 C 647.642 -0.0463979 -3.38868 0
M  V30 6920 C 646.815 -1.0384 -4.24895 0
M  V30 6921 C 645.874 -0.392659 -5.24733 0
M  V30 6922 O 644.9 -1.0453 -5.5952 0
M  V30 6923 N 646.102 0.846296 -5.74298 0
M  V30 6924 H 648.867 -1.63161 -2.51393 0
M  V30 6925 H 646.428 -0.999899 -1.27333 0
M  V30 6926 H 648.42 0.397215 -4.02746 0
M  V30 6927 H 646.99 0.765231 -3.03089 0
M  V30 6928 H 646.21 -1.6601 -3.57539 0
M  V30 6929 H 647.498 -1.70968 -4.79215 0
M  V30 6930 H 646.896 1.39578 -5.4821 0
M  V30 6931 H 645.453 1.23296 -6.40032 0
M  V30 6932 N 648.886 1.2938 -0.899927 0
M  V30 6933 C 649.833 2.27713 -0.376243 0
M  V30 6934 C 650.803 1.57016 0.541774 0
M  V30 6935 O 651.988 1.84997 0.466966 0
M  V30 6936 C 649.128 3.42889 0.39 0
M  V30 6937 C 648.241 4.28369 -0.558938 0
M  V30 6938 C 647.376 5.30726 0.224379 0
M  V30 6939 C 646.415 6.07862 -0.719068 0
M  V30 6940 N 645.552 7.02094 0.0298569 0
M  V30 6941 H 650.392 2.71888 -1.21988 0
M  V30 6942 H 647.929 1.33724 -0.612879 0
M  V30 6943 H 649.887 4.08443 0.850314 0
M  V30 6944 H 648.517 2.99743 1.19809 0
M  V30 6945 H 647.569 3.62986 -1.13777 0
M  V30 6946 H 648.881 4.82068 -1.2811 0
M  V30 6947 H 648.035 6.02098 0.745881 0
M  V30 6948 H 646.774 4.77759 0.979674 0
M  V30 6949 H 645.779 5.35353 -1.25207 0
M  V30 6950 H 647.004 6.62917 -1.4737 0
M  V30 6951 H 644.95 6.51496 0.767415 0
M  V30 6952 H 644.867 7.5335 -0.632391 0
M  V30 6953 H 646.135 7.77685 0.531615 0
M  V30 6954 N 650.364 0.662433 1.43002 0
M  V30 6955 C 651.612 0.179237 2.01304 0
M  V30 6956 C 651.933 -1.21428 1.52579 0
M  V30 6957 O 651.203 -1.81294 0.742252 0
M  V30 6958 H 649.783 0.0632725 0.744316 0
M  V30 6959 H 652.445 0.856169 1.75088 0
M  V30 6960 H 651.541 0.170957 3.11631 0
M  V30 6961 N 651.842 -1.52309 0.404946 0
M  V30 6962 C 652.789 -2.26898 -0.422597 0
M  V30 6963 C 653.759 -1.2914 -1.04461 0
M  V30 6964 O 654.944 -1.57996 -1.06967 0
M  V30 6965 C 652.084 -3.09053 -1.53559 0
M  V30 6966 C 651.197 -4.21762 -0.934908 0
M  V30 6967 C 650.332 -4.91283 -2.02025 0
M  V30 6968 C 649.371 -5.95962 -1.39628 0
M  V30 6969 N 648.508 -6.59017 -2.42159 0
M  V30 6970 H 653.348 -2.97188 0.219903 0
M  V30 6971 H 650.885 -1.46607 0.120282 0
M  V30 6972 H 652.843 -3.54987 -2.19181 0
M  V30 6973 H 651.473 -2.40942 -2.14818 0
M  V30 6974 H 650.525 -3.80029 -0.167854 0
M  V30 6975 H 651.837 -4.96864 -0.439073 0
M  V30 6976 H 650.991 -5.40601 -2.75383 0
M  V30 6977 H 649.73 -4.15741 -2.54973 0
M  V30 6978 H 648.735 -5.45968 -0.648023 0
M  V30 6979 H 649.96 -6.73445 -0.874553 0
M  V30 6980 H 647.906 -5.86306 -2.94247 0
M  V30 6981 H 647.823 -7.2978 -1.97376 0
M  V30 6982 H 649.091 -7.12974 -3.15099 0
M  V30 6983 N 653.32 -0.135238 -1.57019 0
M  V30 6984 C 654.566 0.519563 -1.96032 0
M  V30 6985 C 654.899 1.65284 -1.01955 0
M  V30 6986 O 654.174 1.94408 -0.059727 0
M  V30 6987 C 654.457 1.0369 -3.44848 0
M  V30 6988 C 654.31 -0.0940754 -4.49702 0
M  V30 6989 C 655.629 1.92254 -3.95887 0
M  V30 6990 H 652.748 0.18739 -0.712779 0
M  V30 6991 H 655.39 -0.214086 -1.8879 0
M  V30 6992 H 653.54 1.66209 -3.5115 0
M  V30 6993 H 655.212 -0.73 -4.55487 0
M  V30 6994 H 653.455 -0.754924 -4.27181 0
M  V30 6995 H 654.126 0.309419 -5.51132 0
M  V30 6996 H 656.602 1.39581 -3.9199 0
M  V30 6997 H 655.478 2.25364 -5.00502 0
M  V30 6998 H 655.739 2.85513 -3.37543 0
M  V30 6999 N 654.798 1.5699 0.138552 0
M  V30 7000 C 655.728 2.01933 1.17241 0
M  V30 7001 C 656.709 0.90033 1.44319 0
M  V30 7002 O 657.894 1.16872 1.55095 0
M  V30 7003 C 655.024 2.40711 2.50351 0
M  V30 7004 C 653.978 3.55874 2.37776 0
M  V30 7005 C 653.304 3.80491 3.75674 0
M  V30 7006 C 654.604 4.8826 1.85472 0
M  V30 7007 H 656.298 2.88551 0.798672 0
M  V30 7008 H 653.844 1.3882 0.382743 0
M  V30 7009 H 655.797 2.70754 3.22909 0
M  V30 7010 H 654.521 1.5104 2.89576 0
M  V30 7011 H 653.18 3.2601 1.67669 0
M  V30 7012 H 652.828 2.88057 4.12349 0
M  V30 7013 H 652.528 4.57998 3.68119 0
M  V30 7014 H 654.052 4.12967 4.49767 0
M  V30 7015 H 655.466 5.16965 2.4783 0
M  V30 7016 H 653.863 5.69631 1.88787 0
M  V30 7017 H 654.933 4.78071 0.810935 0
M  V30 7018 N 656.276 -0.40816 1.52223 0
M  V30 7019 C 657.206 -1.5042 1.78595 0
M  V30 7020 C 658.187 -1.57723 0.636974 0
M  V30 7021 O 659.372 -1.72982 0.882664 0
M  V30 7022 C 656.502 -2.88232 1.93751 0
M  V30 7023 C 655.456 -2.95779 3.09352 0
M  V30 7024 C 654.782 -4.35855 3.09732 0
M  V30 7025 C 656.082 -2.67175 4.48793 0
M  V30 7026 H 657.776 -1.28601 2.70374 0
M  V30 7027 H 655.322 -0.617221 1.30101 0
M  V30 7028 H 657.275 -3.64895 2.10783 0
M  V30 7029 H 655.999 -3.11347 0.986443 0
M  V30 7030 H 654.658 -2.21561 2.92072 0
M  V30 7031 H 654.306 -4.55981 2.12346 0
M  V30 7032 H 654.006 -4.41829 3.87377 0
M  V30 7033 H 655.53 -5.14451 3.28895 0
M  V30 7034 H 656.944 -3.3356 4.66273 0
M  V30 7035 H 655.341 -2.84523 5.28362 0
M  V30 7036 H 656.411 -1.62609 4.56822 0
M  V30 7037 N 657.755 -1.42862 -0.66545 0
M  V30 7038 C 659.003 -1.43546 -1.42264 0
M  V30 7039 C 659.324 -0.0563116 -1.94919 0
M  V30 7040 O 658.594 0.906568 -1.73661 0
M  V30 7041 H 657.174 -0.528464 -0.527953 0
M  V30 7042 H 659.836 -1.78363 -0.785665 0
M  V30 7043 H 658.932 -2.14079 -2.27105 0
M  V30 7044 N 659.233 0.902656 -1.29189 0
M  V30 7045 C 660.143 2.03946 -1.15944 0
M  V30 7046 C 661.159 1.738 -0.0833803 0
M  V30 7047 O 662.335 1.9923 -0.29487 0
M  V30 7048 C 659.4 3.36519 -0.834006 0
M  V30 7049 C 658.461 3.80203 -1.9936 0
M  V30 7050 C 657.694 5.06449 -1.68359 0
M  V30 7051 O 657.917 5.67202 -0.603141 0
M  V30 7052 O 656.851 5.46114 -2.53067 0
M  V30 7053 H 660.677 2.18043 -2.11403 0
M  V30 7054 H 658.262 1.02584 -1.08613 0
M  V30 7055 H 660.144 4.16089 -0.666949 0
M  V30 7056 H 658.819 3.23573 0.0908245 0
M  V30 7057 H 657.726 3.01413 -2.21588 0
M  V30 7058 H 659.059 3.97729 -2.89952 0
M  V30 7059 N 660.711 1.11618 1.11262 0
M  V30 7060 C 661.621 0.78898 2.20935 0
M  V30 7061 C 662.637 -0.21867 1.7262 0
M  V30 7062 O 663.813 -0.0543826 2.01327 0
M  V30 7063 C 660.878 0.239014 3.45875 0
M  V30 7064 C 659.939 1.3055 4.08968 0
M  V30 7065 C 659.172 0.781687 5.27944 0
M  V30 7066 O 659.395 -0.387605 5.69082 0
M  V30 7067 O 658.329 1.54734 5.81671 0
M  V30 7068 H 662.155 1.70477 2.51339 0
M  V30 7069 H 659.74 0.892203 1.19834 0
M  V30 7070 H 661.622 -0.0632312 4.21353 0
M  V30 7071 H 660.297 -0.649454 3.17118 0
M  V30 7072 H 659.204 1.66079 3.35214 0
M  V30 7073 H 660.537 2.16743 4.41909 0
M  V30 7074 N 662.189 -1.289 0.906776 0
M  V30 7075 C 663.099 -2.31256 0.394707 0
M  V30 7076 C 664.115 -1.66231 -0.514121 0
M  V30 7077 O 665.291 -1.97347 -0.401994 0
M  V30 7078 C 662.356 -3.44792 -0.363191 0
M  V30 7079 C 661.417 -4.25391 0.578012 0
M  V30 7080 C 660.65 -5.33506 -0.143811 0
M  V30 7081 O 660.873 -5.53786 -1.36665 0
M  V30 7082 O 659.807 -5.99673 0.5173 0
M  V30 7083 H 663.633 -2.77051 1.24405 0
M  V30 7084 H 661.218 -1.33466 0.671346 0
M  V30 7085 H 663.1 -4.139 -0.791503 0
M  V30 7086 H 661.775 -3.01093 -1.18848 0
M  V30 7087 H 660.682 -3.58899 1.05558 0
M  V30 7088 H 662.015 -4.72752 1.36992 0
M  V30 7089 N 663.667 -0.670007 -1.42649 0
M  V30 7090 C 664.63 0.00204659 -2.292 0
M  V30 7091 C 665.63 0.733817 -1.4308 0
M  V30 7092 O 666.82 0.57254 -1.64522 0
M  V30 7093 C 663.952 1.01359 -3.25483 0
M  V30 7094 H 665.145 -0.759696 -2.90118 0
M  V30 7095 H 662.698 -0.432105 -1.50208 0
M  V30 7096 H 663.433 1.80399 -2.69493 0
M  V30 7097 H 663.218 0.492323 -3.88997 0
M  V30 7098 H 664.708 1.4824 -3.90403 0
M  V30 7099 N 665.145 1.52092 -0.413018 0
M  V30 7100 C 666.075 2.30021 0.401567 0
M  V30 7101 C 667.056 1.34395 1.04269 0
M  V30 7102 O 668.241 1.63304 1.05097 0
M  V30 7103 C 665.371 3.12447 1.51638 0
M  V30 7104 C 664.325 4.16153 1.00005 0
M  V30 7105 C 663.651 4.86948 2.20875 0
M  V30 7106 C 664.951 5.22275 0.0513757 0
M  V30 7107 H 666.645 2.98365 -0.248704 0
M  V30 7108 H 664.191 1.4349 -0.121052 0
M  V30 7109 H 666.144 3.65733 2.09326 0
M  V30 7110 H 664.868 2.41879 2.19458 0
M  V30 7111 H 663.527 3.63882 0.445549 0
M  V30 7112 H 663.175 4.12905 2.8726 0
M  V30 7113 H 662.875 5.57057 1.86978 0
M  V30 7114 H 664.399 5.43048 2.79162 0
M  V30 7115 H 665.813 5.70778 0.537176 0
M  V30 7116 H 664.21 5.9977 -0.198977 0
M  V30 7117 H 665.28 4.76611 -0.892736 0
M  V30 7118 N 666.623 0.143563 1.56945 0
M  V30 7119 C 667.533 -0.810562 2.20152 0
M  V30 7120 C 668.549 -1.27431 1.1848 0
M  V30 7121 O 669.725 -1.33221 1.51044 0
M  V30 7122 C 666.79 -2.03353 2.80799 0
M  V30 7123 C 665.851 -1.61936 3.97587 0
M  V30 7124 C 665.084 -2.78403 4.55332 0
M  V30 7125 O 665.307 -3.94521 4.11958 0
M  V30 7126 O 664.241 -2.54073 5.45647 0
M  V30 7127 H 668.067 -0.30253 3.02189 0
M  V30 7128 H 665.652 -0.0832925 1.49168 0
M  V30 7129 H 667.534 -2.74932 3.19359 0
M  V30 7130 H 666.209 -2.53116 2.01777 0
M  V30 7131 H 665.116 -0.873904 3.6375 0
M  V30 7132 H 666.449 -1.16892 4.78118 0
M  V30 7133 N 668.101 -1.57061 -0.130224 0
M  V30 7134 C 669.378 -1.75205 -0.869631 0
M  V30 7135 C 669.758 -0.716063 -1.98584 0
M  V30 7136 O 669.106 0.262032 -2.26993 0
M  V30 7137 C 669.316 -3.19835 -1.39666 0
M  V30 7138 C 670.664 -3.82011 -1.85345 0
M  V30 7139 O 671.688 -3.23368 -1.49371 0
M  V30 7140 O 670.547 -4.85064 -2.51744 0
M  V30 7141 H 667.641 -0.716977 -0.412157 0
M  V30 7142 H 670.187 -1.69311 -0.11484 0
M  V30 7143 H 668.959 -3.86745 -0.595288 0
M  V30 7144 H 668.582 -3.30222 -2.21448 0
M  V30 7145 N 669.579 0.400081 -1.52437 0
M  V30 7146 C 670.856 1.15973 -1.57511 0
M  V30 7147 C 671.236 2.0798 -0.361572 0
M  V30 7148 O 670.584 2.19032 0.650929 0
M  V30 7149 C 670.794 1.92912 -2.90837 0
M  V30 7150 C 672.142 2.48662 -3.44169 0
M  V30 7151 O 673.166 2.03081 -2.92637 0
M  V30 7152 O 672.025 3.31894 -4.34176 0
M  V30 7153 H 669.119 0.530023 -0.634827 0
M  V30 7154 H 671.665 0.40613 -1.64769 0
M  V30 7155 H 670.437 1.25564 -3.70607 0
M  V30 7156 H 670.06 2.75257 -2.86913 0
M  V30 7157 N 671.057 1.43213 0.657864 0
M  V30 7158 C 672.282 1.48227 1.45064 0
M  V30 7159 C 672.707 0.0999939 1.87834 0
M  V30 7160 O 672.065 -0.905269 1.57081 0
M  V30 7161 C 672.113 2.42931 2.6649 0
M  V30 7162 O 671.217 1.91237 3.6538 0
M  V30 7163 H 670.558 0.501551 0.435135 0
M  V30 7164 H 673.088 1.8808 0.805431 0
M  V30 7165 H 673.098 2.6008 3.1436 0
M  V30 7166 H 671.773 3.43348 2.34701 0
M  V30 7167 H 670.35 1.83726 3.24498 0
M  V30 7168 N 672.536 -0.895792 1.29666 0
M  V30 7169 C 673.446 -2.03329 1.17024 0
M  V30 7170 C 674.462 -1.73753 0.0925962 0
M  V30 7171 O 675.638 -1.99071 0.305431 0
M  V30 7172 C 672.703 -3.36072 0.851841 0
M  V30 7173 C 671.764 -3.7914 2.01373 0
M  V30 7174 C 670.997 -5.05549 1.71043 0
M  V30 7175 O 671.22 -5.66874 0.633213 0
M  V30 7176 O 670.154 -5.44764 2.5596 0
M  V30 7177 H 673.98 -2.16918 2.12556 0
M  V30 7178 H 671.565 -1.02007 1.09156 0
M  V30 7179 H 673.447 -4.15729 0.689006 0
M  V30 7180 H 672.122 -3.23616 -0.0736634 0
M  V30 7181 H 671.029 -3.00233 2.23183 0
M  V30 7182 H 672.362 -3.96186 2.92058 0
M  V30 7183 N 674.014 -1.12206 -1.10668 0
M  V30 7184 C 675.239 -0.898938 -1.86906 0
M  V30 7185 C 675.664 0.546346 -1.79991 0
M  V30 7186 O 675.022 1.38655 -1.1681 0
M  V30 7187 C 675.07 -1.37529 -3.33344 0
M  V30 7188 O 674.174 -0.55218 -4.08687 0
M  V30 7189 H 673.515 -0.323163 -0.580053 0
M  V30 7190 H 676.045 -1.49355 -1.39837 0
M  V30 7191 H 676.055 -1.3733 -3.84193 0
M  V30 7192 H 674.73 -2.42767 -3.37693 0
M  V30 7193 H 673.307 -0.620947 -3.67694 0
M  V30 7194 N 675.492 1.28418 -0.913599 0
M  V30 7195 C 676.908 1.47411 -0.611728 0
M  V30 7196 C 677.108 1.83018 0.843008 0
M  V30 7197 O 676.164 1.93505 1.6221 0
M  V30 7198 C 677.477 2.57703 -1.5495 0
M  V30 7199 C 679.025 2.71572 -1.5562 0
M  V30 7200 C 679.5 3.85008 -2.48058 0
M  V30 7201 N 680.991 3.92361 -2.46184 0
M  V30 7202 C 681.726 4.79516 -3.14407 0
M  V30 7203 N 681.222 5.71262 -3.91958 0
M  V30 7204 N 683.015 4.73125 -3.03495 0
M  V30 7205 H 675.166 1.03585 -1.85429 0
M  V30 7206 H 677.429 0.515907 -0.795326 0
M  V30 7207 H 677.135 2.38298 -2.58663 0
M  V30 7208 H 677.009 3.54801 -1.28048 0
M  V30 7209 H 679.396 2.90366 -0.526441 0
M  V30 7210 H 679.477 1.75006 -1.86565 0
M  V30 7211 H 679.121 3.66969 -3.51136 0
M  V30 7212 H 679.051 4.80971 -2.14416 0
M  V30 7213 H 681.542 3.26749 -1.89851 0
M  V30 7214 H 681.855 6.34593 -4.41034 0
M  V30 7215 H 680.2 5.71103 -3.96063 0
M  V30 7216 H 683.391 4.00442 -2.42413 0
M  V30 7217 H 683.564 5.40834 -3.56935 0
M  V30 7218 N 676.97 0.677563 1.42291 0
M  V30 7219 C 678.195 0.207901 2.06355 0
M  V30 7220 C 678.62 -1.12723 1.50583 0
M  V30 7221 O 677.978 -1.70171 0.62543 0
M  V30 7222 C 678.026 0.156489 3.6026 0
M  V30 7223 O 677.13 -0.874162 4.03029 0
M  V30 7224 H 676.471 0.106056 0.655475 0
M  V30 7225 H 679.001 0.927354 1.82377 0
M  V30 7226 H 679.011 -0.0187258 4.07996 0
M  V30 7227 H 677.686 1.13101 4.00226 0
M  V30 7228 H 676.263 -0.669764 3.66836 0
M  V30 7229 N 678.448 -1.51871 0.421078 0
M  V30 7230 C 679.725 -1.9447 -0.20993 0
M  V30 7231 C 680.105 -1.35875 -1.61558 0
M  V30 7232 O 679.453 -0.539294 -2.22045 0
M  V30 7233 C 679.663 -3.48402 -0.204165 0
M  V30 7234 C 681.011 -4.2254 -0.417696 0
M  V30 7235 O 682.035 -3.55074 -0.282999 0
M  V30 7236 O 680.894 -5.422 -0.684239 0
M  V30 7237 H 677.988 -0.815283 -0.138718 0
M  V30 7238 H 680.534 -1.62832 0.477884 0
M  V30 7239 H 679.306 -3.83464 0.779183 0
M  V30 7240 H 678.929 -3.86436 -0.935576 0
M  V30 7241 N 679.926 -0.151884 -1.56866 0
M  V30 7242 C 681.172 0.498742 -1.96572 0
M  V30 7243 C 681.505 1.64194 -1.03702 0
M  V30 7244 O 680.78 1.94334 -0.0803432 0
M  V30 7245 C 681.063 1.00027 -3.45929 0
M  V30 7246 C 680.916 -0.141767 -4.49577 0
M  V30 7247 C 682.235 1.88044 -3.97904 0
M  V30 7248 H 679.354 0.17982 -0.714726 0
M  V30 7249 H 681.996 -0.234097 -1.88552 0
M  V30 7250 H 680.146 1.62476 -3.52894 0
M  V30 7251 H 681.818 -0.778269 -4.54687 0
M  V30 7252 H 680.061 -0.80019 -4.26356 0
M  V30 7253 H 680.732 0.250947 -5.51429 0
M  V30 7254 H 683.208 1.35416 -3.93449 0
M  V30 7255 H 682.084 2.20043 -5.02864 0
M  V30 7256 H 682.345 2.81916 -3.40552 0
M  V30 7257 N 681.404 1.57128 0.121893 0
M  V30 7258 C 682.629 1.89254 0.848385 0
M  V30 7259 C 683.054 0.743527 1.72781 0
M  V30 7260 O 682.412 -0.306056 1.78698 0
M  V30 7261 C 682.46 3.20113 1.66012 0
M  V30 7262 O 681.564 3.05815 2.76679 0
M  V30 7263 H 680.905 0.621103 0.234793 0
M  V30 7264 H 683.435 2.0433 0.10516 0
M  V30 7265 H 683.445 3.52761 2.04996 0
M  V30 7266 H 682.12 4.03336 1.01452 0
M  V30 7267 H 680.697 2.84627 2.40918 0
M  V30 7268 N 682.882 -0.391992 1.52647 0
M  V30 7269 C 684.107 -1.16312 1.71716 0
M  V30 7270 C 684.532 -1.83042 0.433279 0
M  V30 7271 O 683.89 -1.70705 -0.610707 0
M  V30 7272 C 683.938 -2.18908 2.86551 0
M  V30 7273 O 683.042 -3.2543 2.53316 0
M  V30 7274 H 682.383 -0.338743 0.571095 0
M  V30 7275 H 684.913 -0.457202 1.99426 0
M  V30 7276 H 684.923 -2.62954 3.1196 0
M  V30 7277 H 683.598 -1.69726 3.79692 0
M  V30 7278 H 682.175 -2.86543 2.38637 0
M  V30 7279 N 684.36 -1.4356 -0.65026 0
M  V30 7280 C 685.585 -1.48995 -1.44275 0
M  V30 7281 C 686.01 -0.109954 -1.87778 0
M  V30 7282 O 685.368 0.896926 -1.57559 0
M  V30 7283 C 685.416 -2.44341 -2.65198 0
M  V30 7284 O 684.52 -1.93172 -3.6436 0
M  V30 7285 H 683.861 -0.503852 -0.432469 0
M  V30 7286 H 686.391 -1.88504 -0.795446 0
M  V30 7287 H 686.401 -2.61743 -3.12977 0
M  V30 7288 H 685.076 -3.44588 -2.32877 0
M  V30 7289 H 683.653 -1.85445 -3.23519 0
M  V30 7290 N 685.838 0.888903 -1.30139 0
M  V30 7291 C 686.801 1.97576 -1.16174 0
M  V30 7292 C 687.801 1.60525 -0.094086 0
M  V30 7293 O 688.991 1.70812 -0.341889 0
M  V30 7294 C 686.123 3.3188 -0.778983 0
M  V30 7295 H 687.316 2.11393 -2.12728 0
M  V30 7296 H 684.869 1.0748 -1.1348 0
M  V30 7297 H 685.604 3.23765 0.186225 0
M  V30 7298 H 685.389 3.60141 -1.55051 0
M  V30 7299 H 686.879 4.11612 -0.704631 0
M  V30 7300 N 687.317 1.12792 1.10072 0
M  V30 7301 C 688.247 0.821688 2.18565 0
M  V30 7302 C 689.228 -0.21612 1.68721 0
M  V30 7303 O 690.413 -0.0764932 1.94049 0
M  V30 7304 C 687.543 0.279624 3.46172 0
M  V30 7305 C 686.497 1.25092 4.09312 0
M  V30 7306 C 685.823 0.568916 5.31665 0
M  V30 7307 C 687.123 2.60699 4.52585 0
M  V30 7308 H 688.817 1.72888 2.44438 0
M  V30 7309 H 686.363 0.832702 1.17482 0
M  V30 7310 H 688.316 0.053099 4.21367 0
M  V30 7311 H 687.04 -0.662929 3.19801 0
M  V30 7312 H 685.699 1.46332 3.36129 0
M  V30 7313 H 685.347 -0.378898 5.01571 0
M  V30 7314 H 685.047 1.21687 5.74862 0
M  V30 7315 H 686.571 0.351517 6.09587 0
M  V30 7316 H 687.985 2.43465 5.19035 0
M  V30 7317 H 686.382 3.21608 5.06644 0
M  V30 7318 H 687.452 3.1886 3.65317 0
M  V30 7319 N 688.795 -1.27931 0.920396 0
M  V30 7320 C 690.023 -1.98805 0.573087 0
M  V30 7321 C 690.438 -1.68724 -0.847201 0
M  V30 7322 O 689.795 -0.943699 -1.56207 0
M  V30 7323 C 689.846 -3.52971 0.780633 0
M  V30 7324 O 689.567 -3.81994 2.14504 0
M  V30 7325 C 691.068 -4.411 0.44105 0
M  V30 7326 H 688.288 -0.634651 0.21785 0
M  V30 7327 H 690.832 -1.62965 1.23542 0
M  V30 7328 H 688.987 -3.87048 0.165204 0
M  V30 7329 H 689.401 -4.76609 2.18962 0
M  V30 7330 H 690.875 -5.48312 0.637006 0
M  V30 7331 H 691.352 -4.34758 -0.62306 0
M  V30 7332 H 691.958 -4.12532 1.0343 0
M  V30 7333 N 690.273 -0.685099 -1.4193 0
M  V30 7334 C 691.236 -0.0222632 -2.29189 0
M  V30 7335 C 692.236 0.7186 -1.4385 0
M  V30 7336 O 693.426 0.555058 -1.6512 0
M  V30 7337 C 690.558 0.979013 -3.2654 0
M  V30 7338 H 691.751 -0.790424 -2.89296 0
M  V30 7339 H 689.304 -0.448012 -1.49742 0
M  V30 7340 H 690.039 1.77531 -2.71392 0
M  V30 7341 H 689.824 0.451037 -3.89497 0
M  V30 7342 H 691.314 1.44091 -3.91954 0
M  V30 7343 N 691.751 1.51645 -0.429126 0
M  V30 7344 C 692.976 2.06917 0.141399 0
M  V30 7345 C 693.401 1.29527 1.36398 0
M  V30 7346 O 692.759 0.33094 1.78254 0
M  V30 7347 C 692.807 3.57776 0.4504 0
M  V30 7348 O 691.911 3.82639 1.53821 0
M  V30 7349 H 691.252 0.663978 0.0054647 0
M  V30 7350 H 693.782 1.95355 -0.608093 0
M  V30 7351 H 693.792 4.01894 0.703249 0
M  V30 7352 H 692.467 4.13532 -0.443213 0
M  V30 7353 H 691.044 3.5039 1.27597 0
M  V30 7354 N 693.229 0.160201 1.56784 0
M  V30 7355 C 694.475 -0.48831 1.96833 0
M  V30 7356 C 694.808 -1.63641 1.04571 0
M  V30 7357 O 694.083 -1.94289 0.0906481 0
M  V30 7358 C 694.366 -0.981908 3.46454 0
M  V30 7359 C 694.219 0.165607 4.49495 0
M  V30 7360 C 695.538 -1.85931 3.98896 0
M  V30 7361 H 692.657 -0.176027 0.71567 0
M  V30 7362 H 695.299 0.244093 1.88426 0
M  V30 7363 H 693.449 -1.60602 3.5375 0
M  V30 7364 H 695.121 0.802372 4.54268 0
M  V30 7365 H 693.364 0.822789 4.25926 0
M  V30 7366 H 694.035 -0.221699 5.51555 0
M  V30 7367 H 696.511 -1.33327 3.94161 0
M  V30 7368 H 695.387 -2.17373 5.04024 0
M  V30 7369 H 695.648 -2.80106 3.42042 0
M  V30 7370 N 694.707 -1.5719 -0.113559 0
M  V30 7371 C 695.654 -2.00736 -1.13901 0
M  V30 7372 C 696.624 -0.88044 -1.40846 0
M  V30 7373 O 697.809 -1.14507 -1.5262 0
M  V30 7374 C 694.949 -2.42132 -2.45899 0
M  V30 7375 C 694.062 -3.68264 -2.25844 0
M  V30 7376 C 693.197 -3.98617 -3.5111 0
M  V30 7377 C 692.236 -5.17915 -3.26236 0
M  V30 7378 N 691.373 -5.44111 -4.4372 0
M  V30 7379 H 696.213 -2.88128 -0.760677 0
M  V30 7380 H 693.75 -1.42523 -0.364099 0
M  V30 7381 H 695.708 -2.6417 -3.22908 0
M  V30 7382 H 694.338 -1.57775 -2.81615 0
M  V30 7383 H 693.39 -3.53809 -1.39726 0
M  V30 7384 H 694.702 -4.55425 -2.03444 0
M  V30 7385 H 693.856 -4.21333 -4.36536 0
M  V30 7386 H 692.595 -3.09942 -3.76546 0
M  V30 7387 H 691.6 -4.95038 -2.39202 0
M  V30 7388 H 692.825 -6.08172 -3.02165 0
M  V30 7389 H 690.771 -4.58394 -4.69266 0
M  V30 7390 H 690.688 -6.25606 -4.24444 0
M  V30 7391 H 691.956 -5.71351 -5.30263 0
M  V30 7392 N 696.185 0.383891 -1.52853 0
M  V30 7393 C 697.462 1.14296 -1.58732 0
M  V30 7394 C 697.842 2.07585 -0.383611 0
M  V30 7395 O 697.19 2.1971 0.627661 0
M  V30 7396 C 697.4 1.89816 -2.92867 0
M  V30 7397 C 698.748 2.44998 -3.46787 0
M  V30 7398 O 699.772 1.99966 -2.94774 0
M  V30 7399 O 698.631 3.2727 -4.37672 0
M  V30 7400 H 695.725 0.52326 -0.640413 0
M  V30 7401 H 698.271 0.388631 -1.6519 0
M  V30 7402 H 697.043 1.21626 -3.71918 0
M  V30 7403 H 696.666 2.72199 -2.89816 0
M  V30 7404 N 697.663 1.43903 0.642637 0
M  V30 7405 C 698.573 1.52349 1.78401 0
M  V30 7406 C 699.589 0.409869 1.69104 0
M  V30 7407 O 700.765 0.665548 1.90085 0
M  V30 7408 C 697.83 1.45408 3.14734 0
M  V30 7409 C 696.891 2.67528 3.35749 0
M  V30 7410 C 696.124 2.60909 4.65577 0
M  V30 7411 O 696.347 1.6627 5.45628 0
M  V30 7412 O 695.281 3.5158 4.88544 0
M  V30 7413 H 699.107 2.48752 1.7423 0
M  V30 7414 H 696.692 1.26021 0.802439 0
M  V30 7415 H 698.574 1.44019 3.96026 0
M  V30 7416 H 697.249 0.521437 3.19473 0
M  V30 7417 H 696.156 2.74487 2.5418 0
M  V30 7418 H 697.489 3.598 3.35864 0
M  V30 7419 N 699.141 -0.881989 1.30609 0
M  V30 7420 C 700.39 -1.62878 1.18969 0
M  V30 7421 C 700.703 -1.93946 -0.253859 0
M  V30 7422 O 701.909 -2.67008 -0.491813 0
M  V30 7423 C 700.365 -2.93573 2.0819 0
M  V30 7424 C 699.973 -2.70034 3.57471 0
M  V30 7425 C 701.717 -3.71543 2.0532 0
M  V30 7426 C 699.624 -3.96563 4.38739 0
M  V30 7427 H 698.554 -0.611092 0.441682 0
M  V30 7428 H 701.205 -0.976201 1.55379 0
M  V30 7429 H 699.587 -3.6014 1.64666 0
M  V30 7430 H 700.761 -2.11949 4.09163 0
M  V30 7431 H 699.076 -2.05435 3.62195 0
M  V30 7432 H 701.673 -4.65386 2.63288 0
M  V30 7433 H 702.016 -4.03167 1.03739 0
M  V30 7434 H 702.549 -3.11842 2.46981 0
M  V30 7435 H 699.288 -3.70095 5.41027 0
M  V30 7436 H 698.808 -4.54142 3.9181 0
M  V30 7437 H 700.487 -4.64557 4.50329 0
M  V30 7438 N 700.619 -1.13374 -1.09472 0
M  V30 7439 C 701.844 -0.918711 -1.85942 0
M  V30 7440 C 702.269 0.527225 -1.8056 0
M  V30 7441 O 701.627 1.37408 -1.18274 0
M  V30 7442 C 701.675 -1.41056 -3.31867 0
M  V30 7443 O 700.779 -0.595496 -4.08078 0
M  V30 7444 H 700.12 -0.329297 -0.576593 0
M  V30 7445 H 702.65 -1.50829 -1.38245 0
M  V30 7446 H 702.66 -1.41398 -3.82715 0
M  V30 7447 H 701.335 -2.46335 -3.35099 0
M  V30 7448 H 699.912 -0.659911 -3.67014 0
M  V30 7449 N 702.098 1.27442 -0.927168 0
M  V30 7450 C 703.346 1.94007 -0.566203 0
M  V30 7451 C 703.667 1.7323 0.895345 0
M  V30 7452 O 702.937 1.07973 1.63459 0
M  V30 7453 H 701.517 0.717917 -0.206409 0
M  V30 7454 H 704.179 1.55161 -1.17945 0
M  V30 7455 H 703.275 3.02401 -0.772028 0
M  V30 7456 N 703.576 0.692616 1.41565 0
M  V30 7457 C 704.486 0.0258451 2.34586 0
M  V30 7458 C 705.502 -0.769324 1.56069 0
M  V30 7459 O 706.678 -0.707563 1.88562 0
M  V30 7460 C 703.743 -0.901289 3.3478 0
M  V30 7461 C 702.804 -0.0986579 4.29187 0
M  V30 7462 C 702.037 -0.981634 5.24595 0
M  V30 7463 O 702.26 -2.22115 5.25377 0
M  V30 7464 O 701.194 -0.432892 6.00341 0
M  V30 7465 H 705.02 0.792537 2.93177 0
M  V30 7466 H 702.605 0.452935 1.42369 0
M  V30 7467 H 704.487 -1.43302 3.96286 0
M  V30 7468 H 703.162 -1.64752 2.78637 0
M  V30 7469 H 702.069 0.477604 3.71039 0
M  V30 7470 H 703.402 0.608848 4.8842 0
M  V30 7471 N 705.054 -1.51416 0.437162 0
M  V30 7472 C 705.984 -2.30631 -0.364922 0
M  V30 7473 C 706.965 -1.36037 -1.02118 0
M  V30 7474 O 708.15 -1.64956 -1.02485 0
M  V30 7475 C 705.28 -3.1482 -1.46648 0
M  V30 7476 C 704.234 -4.17691 -0.933717 0
M  V30 7477 C 703.56 -4.904 -2.13101 0
M  V30 7478 C 704.86 -5.2229 0.0317201 0
M  V30 7479 H 706.554 -2.97932 0.29614 0
M  V30 7480 H 704.1 -1.4328 0.143865 0
M  V30 7481 H 706.053 -3.69017 -2.03481 0
M  V30 7482 H 704.777 -2.4534 -2.15583 0
M  V30 7483 H 703.436 -3.64545 -0.387602 0
M  V30 7484 H 703.084 -4.17423 -2.80654 0
M  V30 7485 H 702.784 -5.59962 -1.78092 0
M  V30 7486 H 704.308 -5.4742 -2.70487 0
M  V30 7487 H 705.722 -5.7156 -0.446302 0
M  V30 7488 H 704.119 -5.99378 0.29437 0
M  V30 7489 H 705.189 -4.75131 0.968447 0
M  V30 7490 N 706.532 -0.168513 -1.56696 0
M  V30 7491 C 707.495 0.748928 -2.16619 0
M  V30 7492 C 708.495 1.16007 -1.11351 0
M  V30 7493 O 709.685 1.07748 -1.3688 0
M  V30 7494 C 706.817 2.01904 -2.74677 0
M  V30 7495 H 708.01 0.227317 -2.99037 0
M  V30 7496 H 705.563 0.0810372 -1.5609 0
M  V30 7497 H 706.298 2.58381 -1.95985 0
M  V30 7498 H 706.083 1.73323 -3.51712 0
M  V30 7499 H 707.573 2.67383 -3.20774 0
M  V30 7500 N 708.01 1.57248 0.105221 0
M  V30 7501 C 708.973 2.00388 1.11252 0
M  V30 7502 C 709.973 0.89594 1.33527 0
M  V30 7503 O 711.163 1.16166 1.29811 0
M  V30 7504 C 708.295 2.35589 2.46395 0
M  V30 7505 H 709.488 2.90591 0.741424 0
M  V30 7506 H 707.041 1.52332 0.349956 0
M  V30 7507 H 707.776 1.4831 2.884 0
M  V30 7508 H 707.561 3.16408 2.31578 0
M  V30 7509 H 709.051 2.69658 3.18864 0
M  V30 7510 N 709.488 -0.375779 1.53054 0
M  V30 7511 C 710.713 -1.14484 1.7294 0
M  V30 7512 C 711.138 -1.82572 0.452668 0
M  V30 7513 O 710.496 -1.71343 -0.592567 0
M  V30 7514 C 710.544 -2.15857 2.88857 0
M  V30 7515 O 709.648 -3.22725 2.56753 0
M  V30 7516 H 708.989 -0.332666 0.574656 0
M  V30 7517 H 711.519 -0.436025 1.999 0
M  V30 7518 H 711.529 -2.59631 3.14731 0
M  V30 7519 H 710.204 -1.65689 3.81471 0
M  V30 7520 H 708.781 -2.83996 2.41663 0
M  V30 7521 N 710.966 -1.44241 -0.634997 0
M  V30 7522 C 712.191 -1.50516 -1.42687 0
M  V30 7523 C 712.616 -0.129864 -1.87651 0
M  V30 7524 O 711.974 0.880164 -1.58502 0
M  V30 7525 C 712.022 -2.4714 -2.62591 0
M  V30 7526 O 711.126 -1.97025 -3.62291 0
M  V30 7527 H 710.467 -0.50841 -0.427101 0
M  V30 7528 H 712.997 -1.89337 -0.775408 0
M  V30 7529 H 713.007 -2.65048 -3.10183 0
M  V30 7530 H 711.682 -3.47039 -2.29209 0
M  V30 7531 H 710.259 -1.88866 -3.21534 0
M  V30 7532 N 712.444 0.87505 -1.31075 0
M  V30 7533 C 713.692 1.62447 -1.20231 0
M  V30 7534 C 714.013 1.93506 0.240888 0
M  V30 7535 O 713.283 1.57847 1.16022 0
M  V30 7536 H 711.863 0.602207 -0.441991 0
M  V30 7537 H 714.525 1.04788 -1.64334 0
M  V30 7538 H 713.621 2.57031 -1.77036 0
M  V30 7539 N 713.922 1.13953 1.08869 0
M  V30 7540 C 715.168 0.906151 1.8143 0
M  V30 7541 C 715.501 -0.566089 1.85766 0
M  V30 7542 O 714.776 -1.41915 1.33006 0
M  V30 7543 C 715.059 1.50183 3.27287 0
M  V30 7544 C 714.912 3.04359 3.31189 0
M  V30 7545 C 716.231 1.17477 4.24131 0
M  V30 7546 H 713.35 0.330624 0.658678 0
M  V30 7547 H 715.992 1.40873 1.27495 0
M  V30 7548 H 714.142 1.07442 3.73348 0
M  V30 7549 H 715.814 3.55896 2.93488 0
M  V30 7550 H 714.057 3.39053 2.70602 0
M  V30 7551 H 714.728 3.41141 4.33966 0
M  V30 7552 H 717.204 1.5442 3.86385 0
M  V30 7553 H 716.08 1.61795 5.24513 0
M  V30 7554 H 716.341 0.0893312 4.4201 0
M  V30 7555 N 715.4 -1.26948 0.933913 0
M  V30 7556 C 716.625 -1.98724 0.593589 0
M  V30 7557 C 717.05 -1.6915 -0.822801 0
M  V30 7558 O 716.408 -0.93533 -1.5531 0
M  V30 7559 C 716.456 -3.50834 0.833542 0
M  V30 7560 O 715.56 -4.12284 -0.0978788 0
M  V30 7561 H 714.901 -0.623683 0.227849 0
M  V30 7562 H 717.431 -1.61599 1.25486 0
M  V30 7563 H 717.441 -4.01018 0.75156 0
M  V30 7564 H 716.116 -3.71691 1.86597 0
M  V30 7565 H 714.693 -3.72884 0.0345443 0
M  V30 7566 N 716.879 -0.700114 -1.41195 0
M  V30 7567 C 718.107 -0.242179 -2.05478 0
M  V30 7568 C 718.522 1.11029 -1.52702 0
M  V30 7569 O 717.879 1.69473 -0.677127 0
M  V30 7570 C 717.93 -0.196271 -3.60967 0
M  V30 7571 O 717.651 -1.49532 -4.11791 0
M  V30 7572 C 719.152 0.282102 -4.42401 0
M  V30 7573 H 716.372 -0.111749 -0.661629 0
M  V30 7574 H 718.916 -0.953975 -1.80885 0
M  V30 7575 H 717.071 0.46638 -3.84582 0
M  V30 7576 H 717.485 -1.38545 -5.05871 0
M  V30 7577 H 718.959 0.263093 -5.51373 0
M  V30 7578 H 719.436 1.32174 -4.1884 0
M  V30 7579 H 720.042 -0.349712 -4.2386 0
M  V30 7580 N 718.357 1.51182 -0.445186 0
M  V30 7581 C 719.768 1.86693 0.0160999 0
M  V30 7582 C 720.119 1.36183 1.4124 0
M  V30 7583 O 719.244 0.715895 2.04215 0
M  V30 7584 C 719.839 3.38781 0.0359918 0
M  V30 7585 C 718.398 3.73799 0.441715 0
M  V30 7586 C 717.545 2.74947 -0.360511 0
M  V30 7587 H 720.496 1.44294 -0.660674 0
M  V30 7588 H 720.517 3.71026 0.843813 0
M  V30 7589 H 720.029 3.75513 -0.980378 0
M  V30 7590 H 718.13 3.42659 1.4634 0
M  V30 7591 H 718.243 4.78829 0.16106 0
M  V30 7592 H 716.607 2.54047 0.182269 0
M  V30 7593 H 717.39 3.14521 -1.3759 0
M  V30 7594 N 719.835 0.176821 1.56605 0
M  V30 7595 C 721.083 -0.465793 1.96659 0
M  V30 7596 C 721.404 -1.63406 1.06412 0
M  V30 7597 O 720.674 -1.95457 0.131603 0
M  V30 7598 H 719.254 -0.175072 0.726195 0
M  V30 7599 H 721.916 0.25929 1.93168 0
M  V30 7600 H 721.012 -0.822138 3.01077 0
M  V30 7601 N 721.313 -1.57302 -0.09688 0
M  V30 7602 C 722.538 -1.9058 -0.818169 0
M  V30 7603 C 722.963 -0.770921 -1.71576 0
M  V30 7604 O 722.321 0.277588 -1.79162 0
M  V30 7605 C 722.369 -3.22714 -1.60898 0
M  V30 7606 O 721.473 -3.10178 -2.71779 0
M  V30 7607 H 720.814 -0.624759 -0.224882 0
M  V30 7608 H 723.344 -2.04471 -0.07264 0
M  V30 7609 H 723.354 -3.55978 -1.99358 0
M  V30 7610 H 722.029 -4.04899 -0.950227 0
M  V30 7611 H 720.606 -2.88424 -2.3636 0
M  V30 7612 N 722.791 0.367657 -1.53252 0
M  V30 7613 C 723.754 1.43308 -1.78873 0
M  V30 7614 C 724.754 1.46671 -0.659115 0
M  V30 7615 O 725.944 1.47468 -0.927306 0
M  V30 7616 C 723.076 2.82442 -1.90892 0
M  V30 7617 H 724.269 1.21864 -2.74024 0
M  V30 7618 H 721.822 0.600668 -1.44297 0
M  V30 7619 H 722.557 3.09202 -0.978 0
M  V30 7620 H 722.342 2.81399 -2.73051 0
M  V30 7621 H 723.832 3.59601 -2.12314 0
M  V30 7622 N 724.269 1.44576 0.627338 0
M  V30 7623 C 725.517 1.47267 1.38408 0
M  V30 7624 C 725.838 0.107971 1.94701 0
M  V30 7625 O 725.108 -0.860206 1.76004 0
M  V30 7626 H 723.688 0.542276 0.513756 0
M  V30 7627 H 726.35 1.80383 0.738099 0
M  V30 7628 H 725.446 2.20025 2.21349 0
M  V30 7629 N 725.747 -0.868086 1.31537 0
M  V30 7630 C 726.697 -1.96321 1.1594 0
M  V30 7631 C 727.681 -1.60748 0.0698962 0
M  V30 7632 O 728.873 -1.74524 0.295011 0
M  V30 7633 C 726.002 -3.32073 0.870789 0
M  V30 7634 C 725.088 -3.73907 2.00136 0
M  V30 7635 N 725.479 -3.87685 3.24859 0
M  V30 7636 C 723.777 -4.03433 1.90152 0
M  V30 7637 C 724.478 -4.23454 3.98825 0
M  V30 7638 N 723.454 -4.34242 3.27009 0
M  V30 7639 H 727.256 -2.05088 2.10514 0
M  V30 7640 H 724.77 -1.059 1.23122 0
M  V30 7641 H 726.767 -4.10279 0.740034 0
M  V30 7642 H 725.427 -3.24631 -0.0667068 0
M  V30 7643 H 726.438 -3.72363 3.59953 0
M  V30 7644 H 723.115 -4.0437 1.03879 0
M  V30 7645 H 724.505 -4.41696 5.06314 0
M  V30 7646 N 727.225 -1.14528 -1.08264 0
M  V30 7647 C 728.502 -0.825185 -1.77342 0
M  V30 7648 C 728.882 0.681037 -1.99813 0
M  V30 7649 O 728.23 1.62234 -1.60912 0
M  V30 7650 C 728.44 -1.62556 -3.08831 0
M  V30 7651 C 729.788 -1.82585 -3.83338 0
M  V30 7652 O 730.812 -1.59254 -3.18617 0
M  V30 7653 O 729.671 -2.21598 -4.99556 0
M  V30 7654 H 726.765 -0.302531 -0.769678 0
M  V30 7655 H 729.311 -1.25056 -1.14713 0
M  V30 7656 H 728.083 -2.64862 -2.88035 0
M  V30 7657 H 727.706 -1.1959 -3.79189 0
M  V30 7658 N 728.703 1.26451 -0.940633 0
M  V30 7659 C 729.952 1.93071 -0.583656 0
M  V30 7660 C 730.265 1.74618 0.881366 0
M  V30 7661 O 731.471 2.35689 1.34769 0
M  V30 7662 C 729.927 3.45927 -0.993106 0
M  V30 7663 C 729.535 3.73115 -2.4797 0
M  V30 7664 C 731.279 4.18554 -0.707998 0
M  V30 7665 C 729.186 5.19408 -2.82788 0
M  V30 7666 H 728.116 0.722824 -0.214572 0
M  V30 7667 H 730.767 1.43538 -1.1432 0
M  V30 7668 H 729.149 3.94341 -0.362099 0
M  V30 7669 H 730.323 3.35408 -3.15971 0
M  V30 7670 H 728.638 3.13719 -2.73805 0
M  V30 7671 H 731.235 5.26293 -0.94447 0
M  V30 7672 H 731.578 4.14782 0.355225 0
M  V30 7673 H 732.111 3.76003 -1.2987 0
M  V30 7674 H 728.85 5.28281 -3.88071 0
M  V30 7675 H 728.37 5.58214 -2.19449 0
M  V30 7676 H 730.049 5.87407 -2.71224 0
M  V30 7677 N 730.181 0.707592 1.40822 0
M  V30 7678 C 731.43 0.240705 2.00259 0
M  V30 7679 C 731.743 -1.17027 1.56729 0
M  V30 7680 O 732.949 -1.73526 2.08809 0
M  V30 7681 C 731.405 0.379432 3.57894 0
M  V30 7682 C 731.013 1.79654 4.104 0
M  V30 7683 C 732.757 -0.0270684 4.24491 0
M  V30 7684 C 730.664 1.88628 5.60512 0
M  V30 7685 H 729.594 0.0862369 0.749052 0
M  V30 7686 H 732.245 0.877528 1.61157 0
M  V30 7687 H 730.627 -0.325842 3.94657 0
M  V30 7688 H 731.801 2.53155 3.85032 0
M  V30 7689 H 730.116 2.15379 3.56372 0
M  V30 7690 H 732.713 0.0193743 5.34696 0
M  V30 7691 H 733.056 -1.06772 4.02375 0
M  V30 7692 H 733.589 0.628361 3.92806 0
M  V30 7693 H 730.328 2.90787 5.87472 0
M  V30 7694 H 729.848 1.19528 5.8777 0
M  V30 7695 H 731.527 1.6547 6.25483 0
M  V30 7696 N 731.66 -1.50943 0.453197 0
M  V30 7697 C 732.888 -2.06628 -0.106135 0
M  V30 7698 C 733.303 -1.31901 -1.35084 0
M  V30 7699 O 732.66 -0.383074 -1.78434 0
M  V30 7700 C 732.711 -3.5914 -0.412368 0
M  V30 7701 O 732.432 -4.31047 0.782948 0
M  V30 7702 C 733.933 -4.31391 -1.02064 0
M  V30 7703 H 731.153 -0.670999 -0.000885896 0
M  V30 7704 H 733.697 -1.94331 0.63684 0
M  V30 7705 H 731.852 -3.71299 -1.10526 0
M  V30 7706 H 732.266 -5.21948 0.516736 0
M  V30 7707 H 733.74 -5.39135 -1.1848 0
M  V30 7708 H 734.217 -3.90714 -2.00598 0
M  V30 7709 H 734.823 -4.23716 -0.366664 0
M  V30 7710 N 733.138 -0.185124 -1.56509 0
M  V30 7711 C 734.048 0.751908 -2.22224 0
M  V30 7712 C 735.064 1.24244 -1.21817 0
M  V30 7713 O 736.24 1.29169 -1.54523 0
M  V30 7714 C 733.305 1.95837 -2.86092 0
M  V30 7715 C 732.366 1.51337 -4.01741 0
M  V30 7716 C 731.599 2.66233 -4.62554 0
M  V30 7717 O 731.822 3.8346 -4.22273 0
M  V30 7718 O 730.756 2.39517 -5.52191 0
M  V30 7719 H 734.582 0.222304 -3.02885 0
M  V30 7720 H 732.167 0.0437141 -1.49336 0
M  V30 7721 H 734.049 2.66368 -3.26536 0
M  V30 7722 H 732.724 2.47677 -2.08417 0
M  V30 7723 H 731.631 0.777155 -3.65939 0
M  V30 7724 H 732.964 1.04175 -4.81049 0
M  V30 7725 N 734.616 1.57351 0.0885366 0
M  V30 7726 C 735.548 1.99221 1.13329 0
M  V30 7727 C 736.561 0.895705 1.35945 0
M  V30 7728 O 737.75 1.17376 1.34481 0
M  V30 7729 C 734.85 2.3016 2.48756 0
M  V30 7730 C 734.023 3.61444 2.46327 0
M  V30 7731 C 733.082 3.80244 3.63732 0
M  V30 7732 O 732.108 4.52024 3.45924 0
M  V30 7733 N 733.31 3.2132 4.8346 0
M  V30 7734 H 736.075 2.89456 0.776862 0
M  V30 7735 H 733.636 1.59505 0.277428 0
M  V30 7736 H 735.628 2.39925 3.25911 0
M  V30 7737 H 734.198 1.459 2.76464 0
M  V30 7738 H 733.418 3.62588 1.54673 0
M  V30 7739 H 734.706 4.47678 2.41789 0
M  V30 7740 H 734.104 2.63028 5.00832 0
M  V30 7741 H 732.661 3.3656 5.58185 0
M  V30 7742 N 736.094 -0.359525 1.53444 0
M  V30 7743 C 737.505 -0.936009 1.61542 0
M  V30 7744 C 737.856 -1.90069 0.486633 0
M  V30 7745 O 736.981 -2.12929 -0.386047 0
M  V30 7746 C 737.576 -1.70441 2.92806 0
M  V30 7747 C 736.135 -2.23015 3.03218 0
M  V30 7748 C 735.282 -1.04438 2.56881 0
M  V30 7749 H 738.233 -0.138134 1.58098 0
M  V30 7750 H 738.254 -2.56609 2.80948 0
M  V30 7751 H 737.766 -1.00205 3.74941 0
M  V30 7752 H 735.867 -2.96475 2.25684 0
M  V30 7753 H 735.98 -2.50481 4.08407 0
M  V30 7754 H 734.344 -1.41314 2.11902 0
M  V30 7755 H 735.127 -0.356905 3.4144 0
M  V30 7756 N 737.572 -1.44907 -0.619662 0
M  V30 7757 C 738.988 -1.29046 -0.939107 0
M  V30 7758 C 739.188 -0.23462 -2.00129 0
M  V30 7759 O 738.244 0.37558 -2.49691 0
M  V30 7760 C 739.557 -2.66567 -1.39149 0
M  V30 7761 C 741.105 -2.74368 -1.50635 0
M  V30 7762 C 741.58 -4.12386 -1.99253 0
M  V30 7763 N 743.071 -4.1462 -2.06506 0
M  V30 7764 C 743.806 -5.18272 -2.4532 0
M  V30 7765 N 743.302 -6.32278 -2.83189 0
M  V30 7766 N 745.095 -5.05628 -2.45554 0
M  V30 7767 H 737.246 -2.12239 0.0826135 0
M  V30 7768 H 739.509 -0.947652 -0.0256829 0
M  V30 7769 H 739.215 -3.4496 -0.685254 0
M  V30 7770 H 739.089 -2.94224 -2.36034 0
M  V30 7771 H 741.476 -1.96287 -2.20353 0
M  V30 7772 H 741.557 -2.50439 -0.520963 0
M  V30 7773 H 741.201 -4.90947 -1.30127 0
M  V30 7774 H 741.131 -4.33699 -2.98684 0
M  V30 7775 H 743.622 -3.32343 -1.79878 0
M  V30 7776 H 743.935 -7.07172 -3.11652 0
M  V30 7777 H 742.28 -6.35699 -2.80913 0
M  V30 7778 H 745.471 -4.15613 -2.15367 0
M  V30 7779 H 745.644 -5.86529 -2.75478 0
M  V30 7780 N 739.05 0.861098 -1.31996 0
M  V30 7781 C 740.275 1.65264 -1.2531 0
M  V30 7782 C 740.7 1.87265 0.177007 0
M  V30 7783 O 740.058 1.4208 1.12619 0
M  V30 7784 C 740.106 2.99284 -2.0115 0
M  V30 7785 O 739.21 3.89508 -1.3549 0
M  V30 7786 H 738.551 0.50409 -0.432192 0
M  V30 7787 H 741.081 1.07297 -1.74208 0
M  V30 7788 H 741.091 3.49154 -2.11081 0
M  V30 7789 H 739.766 2.82591 -3.05148 0
M  V30 7790 H 738.343 3.47966 -1.34066 0
M  V30 7791 N 740.528 1.15101 1.07655 0
M  V30 7792 C 741.46 0.802722 2.14684 0
M  V30 7793 C 742.473 -0.183874 1.61758 0
M  V30 7794 O 743.662 0.0389349 1.78458 0
M  V30 7795 C 740.762 0.172135 3.38463 0
M  V30 7796 C 739.935 1.19538 4.20749 0
M  V30 7797 C 738.994 0.58714 5.22914 0
M  V30 7798 O 738.02 1.25224 5.55255 0
M  V30 7799 N 739.222 -0.632566 5.77043 0
M  V30 7800 H 741.987 1.72379 2.45164 0
M  V30 7801 H 739.548 1.04647 1.23534 0
M  V30 7802 H 741.54 -0.247465 4.03943 0
M  V30 7803 H 740.11 -0.652214 3.0572 0
M  V30 7804 H 739.33 1.79165 3.51132 0
M  V30 7805 H 740.618 1.88636 4.7254 0
M  V30 7806 H 740.016 -1.19135 5.53013 0
M  V30 7807 H 738.573 -0.994566 6.44167 0
M  V30 7808 N 742.006 -1.2595 0.947325 0
M  V30 7809 C 742.956 -2.23859 0.432547 0
M  V30 7810 C 743.94 -1.53755 -0.474154 0
M  V30 7811 O 745.132 -1.74293 -0.308397 0
M  V30 7812 C 742.261 -3.42027 -0.295318 0
M  V30 7813 C 741.347 -4.19409 0.62903 0
M  V30 7814 N 741.738 -4.74284 1.7575 0
M  V30 7815 C 740.036 -4.43866 0.435805 0
M  V30 7816 C 740.737 -5.32821 2.33401 0
M  V30 7817 N 739.713 -5.18858 1.62135 0
M  V30 7818 H 743.515 -2.63886 1.29388 0
M  V30 7819 H 741.029 -1.41105 0.80393 0
M  V30 7820 H 743.026 -4.11297 -0.681188 0
M  V30 7821 H 741.686 -3.03526 -1.15334 0
M  V30 7822 H 742.697 -4.71641 2.13952 0
M  V30 7823 H 739.374 -4.15768 -0.37994 0
M  V30 7824 H 740.764 -5.86111 3.28517 0
M  V30 7825 N 743.484 -0.715051 -1.40445 0
M  V30 7826 C 744.712 -0.263959 -2.05209 0
M  V30 7827 C 745.127 1.09403 -1.53871 0
M  V30 7828 O 744.484 1.68746 -0.695064 0
M  V30 7829 C 744.535 -0.234545 -3.60738 0
M  V30 7830 O 744.256 -1.53891 -4.10182 0
M  V30 7831 C 745.757 0.235164 -4.42676 0
M  V30 7832 H 742.977 -0.11876 -0.660407 0
M  V30 7833 H 745.521 -0.973107 -1.79864 0
M  V30 7834 H 743.676 0.425563 -3.85055 0
M  V30 7835 H 744.09 -1.43903 -5.04373 0
M  V30 7836 H 745.564 0.204598 -5.51621 0
M  V30 7837 H 746.041 1.27724 -4.20218 0
M  V30 7838 H 746.647 -0.394649 -4.23465 0
M  V30 7839 N 744.962 1.50701 -0.461195 0
M  V30 7840 C 745.892 2.31182 0.328184 0
M  V30 7841 C 746.873 1.37644 0.999408 0
M  V30 7842 O 748.058 1.66565 0.99848 0
M  V30 7843 C 745.188 3.17113 1.41621 0
M  V30 7844 C 744.142 4.19124 0.867148 0
M  V30 7845 C 743.468 4.93728 2.05272 0
M  V30 7846 C 744.768 5.22174 -0.114808 0
M  V30 7847 H 746.462 2.97423 -0.343501 0
M  V30 7848 H 744.008 1.43033 -0.166641 0
M  V30 7849 H 745.961 3.72208 1.97584 0
M  V30 7850 H 744.685 2.48739 2.11652 0
M  V30 7851 H 743.344 3.65116 0.329557 0
M  V30 7852 H 742.992 4.21835 2.73978 0
M  V30 7853 H 742.692 5.62724 1.69161 0
M  V30 7854 H 744.216 5.51654 2.61744 0
M  V30 7855 H 745.63 5.72198 0.355316 0
M  V30 7856 H 744.027 5.98833 -0.389689 0
M  V30 7857 H 745.097 4.7353 -1.04391 0
M  V30 7858 N 746.441 0.193421 1.56409 0
M  V30 7859 C 747.373 -0.759944 2.16235 0
M  V30 7860 C 748.386 -1.17797 1.12373 0
M  V30 7861 O 749.575 -1.11399 1.39472 0
M  V30 7862 C 746.675 -2.03735 2.70823 0
M  V30 7863 C 745.848 -1.77939 3.9957 0
M  V30 7864 C 744.907 -2.90111 4.39001 0
M  V30 7865 O 743.933 -2.59791 5.06456 0
M  V30 7866 N 745.135 -4.18426 4.02368 0
M  V30 7867 H 747.9 -0.248348 2.98669 0
M  V30 7868 H 745.461 0.0113966 1.61896 0
M  V30 7869 H 747.453 -2.77914 2.94187 0
M  V30 7870 H 746.023 -2.46022 1.92852 0
M  V30 7871 H 745.243 -0.875491 3.84355 0
M  V30 7872 H 746.531 -1.58099 4.83614 0
M  V30 7873 H 745.929 -4.45913 3.48106 0
M  V30 7874 H 744.486 -4.89237 4.30686 0
M  V30 7875 N 747.919 -1.57396 -0.0801906 0
M  V30 7876 C 748.882 -2.02133 -1.0805 0
M  V30 7877 C 749.882 -0.91707 -1.32085 0
M  V30 7878 O 751.072 -1.18217 -1.27947 0
M  V30 7879 C 748.204 -2.39479 -2.42616 0
M  V30 7880 H 749.397 -2.91733 -0.6951 0
M  V30 7881 H 746.95 -1.52869 -0.325677 0
M  V30 7882 H 747.685 -1.52879 -2.86004 0
M  V30 7883 H 747.47 -3.20052 -2.26515 0
M  V30 7884 H 748.96 -2.74697 -3.14534 0
M  V30 7885 N 749.397 0.351382 -1.53633 0
M  V30 7886 C 750.674 1.10903 -1.6112 0
M  V30 7887 C 751.054 2.06725 -0.427556 0
M  V30 7888 O 750.402 2.20992 0.580916 0
M  V30 7889 C 750.612 1.83561 -2.96827 0
M  V30 7890 C 751.96 2.37587 -3.51906 0
M  V30 7891 O 752.984 1.93669 -2.9895 0
M  V30 7892 O 751.843 3.17913 -4.44515 0
M  V30 7893 H 748.937 0.509558 -0.651368 0
M  V30 7894 H 751.483 0.353504 -1.65977 0
M  V30 7895 H 750.255 1.1371 -3.74414 0
M  V30 7896 H 749.878 2.6599 -2.95525 0
M  V30 7897 N 750.875 1.45233 0.611969 0
M  V30 7898 C 752.1 1.52767 1.40274 0
M  V30 7899 C 752.525 0.159701 1.87421 0
M  V30 7900 O 751.883 -0.854837 1.59882 0
M  V30 7901 C 751.931 2.51286 2.58626 0
M  V30 7902 O 751.035 2.02764 3.59111 0
M  V30 7903 H 750.376 0.515141 0.418958 0
M  V30 7904 H 752.906 1.90547 0.745188 0
M  V30 7905 H 752.916 2.69949 3.05927 0
M  V30 7906 H 751.591 3.50641 2.23659 0
M  V30 7907 H 750.168 1.93957 3.18489 0
M  V30 7908 N 752.353 -0.854086 1.3245 0
M  V30 7909 C 753.599 -1.61069 1.23225 0
M  V30 7910 C 753.932 -1.93111 -0.205349 0
M  V30 7911 O 753.207 -1.57397 -1.14265 0
M  V30 7912 C 753.49 -2.93065 2.09249 0
M  V30 7913 C 753.343 -2.67801 3.6139 0
M  V30 7914 C 754.662 -3.94341 1.95406 0
M  V30 7915 H 751.781 -0.584449 0.448986 0
M  V30 7916 H 754.423 -0.986189 1.62402 0
M  V30 7917 H 752.573 -3.46364 1.75967 0
M  V30 7918 H 754.245 -2.21052 4.04887 0
M  V30 7919 H 752.488 -2.01756 3.84027 0
M  V30 7920 H 753.159 -3.6179 4.16907 0
M  V30 7921 H 755.635 -3.50301 2.24562 0
M  V30 7922 H 754.511 -4.84555 2.57872 0
M  V30 7923 H 754.772 -4.32382 0.921865 0
M  V30 7924 N 753.831 -1.1567 -1.07043 0
M  V30 7925 C 755.108 -0.843948 -1.76456 0
M  V30 7926 C 755.488 0.659806 -2.00524 0
M  V30 7927 O 754.836 1.60518 -1.62623 0
M  V30 7928 C 755.046 -1.65822 -3.0709 0
M  V30 7929 C 756.394 -1.8664 -3.8138 0
M  V30 7930 O 757.418 -1.62624 -3.1691 0
M  V30 7931 O 756.277 -2.26884 -4.97178 0
M  V30 7932 H 753.371 -0.310677 -0.766426 0
M  V30 7933 H 755.917 -1.26266 -1.1338 0
M  V30 7934 H 754.689 -2.67902 -2.85209 0
M  V30 7935 H 754.312 -1.23605 -3.77899 0
M  V30 7936 N 755.309 1.25446 -0.953992 0
M  V30 7937 C 756.239 2.28264 -0.491717 0
M  V30 7938 C 757.22 1.63717 0.461617 0
M  V30 7939 O 758.405 1.90821 0.36071 0
M  V30 7940 C 755.535 3.46525 0.231915 0
M  V30 7941 C 754.489 4.23247 -0.636098 0
M  V30 7942 C 753.815 5.34254 0.218238 0
M  V30 7943 C 755.115 4.85971 -1.91389 0
M  V30 7944 H 756.809 2.67183 -1.35106 0
M  V30 7945 H 754.355 1.2844 -0.651095 0
M  V30 7946 H 756.308 4.17576 0.566439 0
M  V30 7947 H 755.032 3.06594 1.12551 0
M  V30 7948 H 753.691 3.53978 -0.953696 0
M  V30 7949 H 753.339 4.90564 1.11156 0
M  V30 7950 H 753.039 5.86501 -0.359232 0
M  V30 7951 H 754.563 6.08138 0.547743 0
M  V30 7952 H 755.977 5.49168 -1.64581 0
M  V30 7953 H 754.374 5.48391 -2.43696 0
M  V30 7954 H 755.444 4.08192 -2.61738 0
M  V30 7955 N 756.787 0.722489 1.40064 0
M  V30 7956 C 757.75 0.0830209 2.2905 0
M  V30 7957 C 758.75 -0.680208 1.45705 0
M  V30 7958 O 759.94 -0.511084 1.66534 0
M  V30 7959 C 757.072 -0.892092 3.29021 0
M  V30 7960 H 758.265 0.866848 2.87099 0
M  V30 7961 H 755.818 0.487556 1.48501 0
M  V30 7962 H 756.553 -1.70273 2.76003 0
M  V30 7963 H 756.338 -0.34761 3.90556 0
M  V30 7964 H 757.828 -1.33648 3.95636 0
M  V30 7965 N 758.265 -1.50454 0.469181 0
M  V30 7966 C 759.49 -2.0722 -0.0864892 0
M  V30 7967 C 759.915 -1.33098 -1.32916 0
M  V30 7968 O 759.273 -0.378084 -1.77314 0
M  V30 7969 C 759.321 -3.58845 -0.355384 0
M  V30 7970 O 758.425 -3.86583 -1.43622 0
M  V30 7971 H 757.766 -0.663889 0.0121414 0
M  V30 7972 H 760.296 -1.93674 0.659674 0
M  V30 7973 H 760.306 -4.03617 -0.596447 0
M  V30 7974 H 758.981 -4.12211 0.552698 0
M  V30 7975 H 757.558 -3.5365 -1.18262 0
M  V30 7976 N 759.743 -0.201713 -1.56304 0
M  V30 7977 C 760.983 0.437395 -1.99665 0
M  V30 7978 C 761.347 1.58341 -1.08592 0
M  V30 7979 O 762.548 2.28716 -1.41217 0
M  V30 7980 C 760.819 0.879572 -3.46408 0
M  V30 7981 S 762.378 1.51558 -4.11795 0
M  V30 7982 H 759.196 0.139621 -0.697156 0
M  V30 7983 H 761.798 -0.306337 -1.93085 0
M  V30 7984 H 760.502 0.0355295 -4.10385 0
M  V30 7985 H 760.033 1.65661 -3.56819 0
M  V30 7986 H 762.048 2.80445 -4.09347 0
M  V30 7987 N 761.222 1.57436 0.0718424 0
M  V30 7988 C 762.499 1.78312 0.804006 0
M  V30 7989 C 762.879 0.789273 1.9579 0
M  V30 7990 O 762.227 -0.177605 2.27809 0
M  V30 7991 C 762.437 3.24798 1.277 0
M  V30 7992 C 763.785 3.88627 1.71039 0
M  V30 7993 O 764.809 3.28689 1.37266 0
M  V30 7994 O 763.668 4.94073 2.33567 0
M  V30 7995 H 760.762 0.73178 0.385262 0
M  V30 7996 H 763.308 1.69621 0.0519219 0
M  V30 7997 H 762.08 3.88688 0.45134 0
M  V30 7998 H 761.703 3.38213 2.0904 0
M  V30 7999 N 762.7 -0.34323 1.53817 0
M  V30 8000 C 763.63 -1.42709 1.84814 0
M  V30 8001 C 764.611 -1.5488 0.703297 0
M  V30 8002 O 765.796 -1.69082 0.955237 0
M  V30 8003 C 762.926 -2.79756 2.05801 0
M  V30 8004 C 761.88 -2.82392 3.21619 0
M  V30 8005 C 761.206 -4.22326 3.2794 0
M  V30 8006 C 762.506 -2.479 4.59721 0
M  V30 8007 H 764.2 -1.17018 2.75585 0
M  V30 8008 H 761.746 -0.561485 1.32602 0
M  V30 8009 H 763.699 -3.55627 2.26069 0
M  V30 8010 H 762.423 -3.06883 1.11761 0
M  V30 8011 H 761.082 -2.08974 3.01207 0
M  V30 8012 H 760.73 -4.46564 2.31494 0
M  V30 8013 H 760.43 -4.25001 4.05768 0
M  V30 8014 H 761.954 -5.00039 3.50419 0
M  V30 8015 H 763.368 -3.13484 4.80001 0
M  V30 8016 H 761.765 -2.61857 5.39954 0
M  V30 8017 H 762.835 -1.43087 4.63308 0
M  V30 8018 N 764.178 -1.45556 -0.604258 0
M  V30 8019 C 765.406 -1.53278 -1.38973 0
M  V30 8020 C 765.821 -0.166509 -1.88064 0
M  V30 8021 O 765.178 0.832519 -1.62405 0
M  V30 8022 C 765.229 -2.51992 -2.59195 0
M  V30 8023 O 764.95 -3.8331 -2.12143 0
M  V30 8024 C 766.451 -2.69445 -3.52015 0
M  V30 8025 H 763.671 -0.519003 -0.425297 0
M  V30 8026 H 766.215 -1.90773 -0.736621 0
M  V30 8027 H 764.37 -2.17561 -3.2054 0
M  V30 8028 H 764.784 -4.3685 -2.90279 0
M  V30 8029 H 766.258 -3.42485 -4.32907 0
M  V30 8030 H 766.735 -1.75596 -4.0257 0
M  V30 8031 H 767.341 -3.04886 -2.9652 0
M  V30 8032 N 765.656 0.84705 -1.32902 0
M  V30 8033 C 766.881 1.63925 -1.27056 0
M  V30 8034 C 767.306 1.87443 0.157136 0
M  V30 8035 O 766.664 1.43266 1.11106 0
M  V30 8036 C 766.712 2.97134 -2.04313 0
M  V30 8037 O 765.816 3.88049 -1.39614 0
M  V30 8038 H 765.157 0.499477 -0.437514 0
M  V30 8039 H 767.687 1.05443 -1.75336 0
M  V30 8040 H 767.697 3.46896 -2.14772 0
M  V30 8041 H 766.372 2.79339 -3.08128 0
M  V30 8042 H 764.949 3.46525 -1.3775 0
M  V30 8043 N 767.134 1.16236 1.06428 0
M  V30 8044 C 768.359 0.967688 1.83441 0
M  V30 8045 C 768.784 -0.479167 1.81894 0
M  V30 8046 O 768.142 -1.34224 1.21875 0
M  V30 8047 C 768.19 1.49806 3.2801 0
M  V30 8048 O 767.294 0.703481 4.06356 0
M  V30 8049 H 766.635 0.344468 0.56766 0
M  V30 8050 H 769.165 1.54442 1.34197 0
M  V30 8051 H 769.175 1.51495 3.78831 0
M  V30 8052 H 767.85 2.55133 3.2845 0
M  V30 8053 H 766.427 0.756986 3.65136 0
M  V30 8054 N 768.612 -1.24939 0.960631 0
M  V30 8055 C 769.575 -2.239 0.49006 0
M  V30 8056 C 770.575 -1.55497 -0.409535 0
M  V30 8057 O 771.765 -1.72978 -0.205984 0
M  V30 8058 C 768.897 -3.39654 -0.291193 0
M  V30 8059 H 770.09 -2.67044 1.36482 0
M  V30 8060 H 767.643 -1.37429 0.744505 0
M  V30 8061 H 768.378 -3.01939 -1.18336 0
M  V30 8062 H 768.163 -3.90496 0.354276 0
M  V30 8063 H 769.653 -4.13125 -0.609693 0
M  V30 8064 N 770.09 -0.729906 -1.39679 0
M  V30 8065 C 771.318 -0.285709 -2.04918 0
M  V30 8066 C 771.733 1.07765 -1.55023 0
M  V30 8067 O 771.09 1.67999 -0.712923 0
M  V30 8068 C 771.141 -0.272793 -3.60469 0
M  V30 8069 O 770.862 -1.58233 -4.08527 0
M  V30 8070 C 772.363 0.188199 -4.429 0
M  V30 8071 H 769.583 -0.125758 -0.65911 0
M  V30 8072 H 772.127 -0.992129 -1.78821 0
M  V30 8073 H 770.282 0.384699 -3.85485 0
M  V30 8074 H 770.696 -1.49245 -5.02818 0
M  V30 8075 H 772.17 0.14608 -5.51807 0
M  V30 8076 H 772.647 1.2326 -4.21549 0
M  V30 8077 H 773.253 -0.439541 -4.23023 0
M  V30 8078 N 771.568 1.50203 -0.477153 0
M  V30 8079 C 772.845 1.95115 0.137609 0
M  V30 8080 C 773.225 1.41778 1.56404 0
M  V30 8081 O 772.573 0.621333 2.1989 0
M  V30 8082 C 772.783 3.4892 0.0747168 0
M  V30 8083 C 774.131 4.238 0.260585 0
M  V30 8084 O 775.155 3.5588 0.151021 0
M  V30 8085 O 774.014 5.44366 0.482534 0
M  V30 8086 H 771.108 0.81987 0.108364 0
M  V30 8087 H 773.654 1.60946 -0.537989 0
M  V30 8088 H 772.426 3.80308 -0.920966 0
M  V30 8089 H 772.049 3.89642 0.791509 0
M  V30 8090 N 773.046 0.209999 1.56195 0
M  V30 8091 C 774.294 -0.423974 1.97603 0
M  V30 8092 C 774.615 -1.61112 1.09854 0
M  V30 8093 O 773.885 -1.95134 0.173032 0
M  V30 8094 H 772.465 -0.159629 0.729745 0
M  V30 8095 H 775.127 0.300205 1.92574 0
M  V30 8096 H 774.223 -0.75809 3.02753 0
M  V30 8097 N 774.524 -1.57472 -0.0634922 0
M  V30 8098 C 775.801 -1.78736 -0.794538 0
M  V30 8099 C 776.181 -0.799645 -1.95369 0
M  V30 8100 O 775.529 0.165521 -2.279 0
M  V30 8101 C 775.739 -3.25471 -1.25975 0
M  V30 8102 C 777.087 -3.89528 -1.68976 0
M  V30 8103 O 778.111 -3.29412 -1.35521 0
M  V30 8104 O 776.97 -4.95305 -2.30944 0
M  V30 8105 H 774.064 -0.733813 -0.381376 0
M  V30 8106 H 776.61 -1.69646 -0.0429258 0
M  V30 8107 H 775.382 -3.88922 -0.430721 0
M  V30 8108 H 775.005 -3.39317 -2.07243 0
M  V30 8109 N 776.003 0.335068 -1.53997 0
M  V30 8110 C 776.913 1.43511 -1.85585 0
M  V30 8111 C 777.929 1.57162 -0.746726 0
M  V30 8112 O 779.105 1.72477 -1.03988 0
M  V30 8113 C 776.17 2.78386 -2.06646 0
M  V30 8114 C 775.231 2.74007 -3.30483 0
M  V30 8115 C 774.464 4.02449 -3.50529 0
M  V30 8116 O 774.687 5.00147 -2.74242 0
M  V30 8117 O 773.621 4.06405 -4.4398 0
M  V30 8118 H 777.447 1.19731 -2.79102 0
M  V30 8119 H 775.032 0.528033 -1.39758 0
M  V30 8120 H 776.914 3.58247 -2.21894 0
M  V30 8121 H 775.589 3.0208 -1.16317 0
M  V30 8122 H 774.496 1.92736 -3.2063 0
M  V30 8123 H 775.829 2.55267 -4.20832 0
M  V30 8124 N 777.481 1.45874 0.596531 0
M  V30 8125 C 778.391 1.57947 1.73464 0
M  V30 8126 C 779.407 0.463461 1.67714 0
M  V30 8127 O 780.583 0.725685 1.87872 0
M  V30 8128 C 777.648 1.55348 3.09948 0
M  V30 8129 C 776.709 2.78074 3.27068 0
M  V30 8130 C 775.942 2.75589 4.57041 0
M  V30 8131 O 776.165 1.83545 5.40063 0
M  V30 8132 O 775.099 3.66945 4.77111 0
M  V30 8133 H 778.925 2.54169 1.66228 0
M  V30 8134 H 776.51 1.2851 0.76194 0
M  V30 8135 H 778.392 1.56545 3.91244 0
M  V30 8136 H 777.067 0.622811 3.17652 0
M  V30 8137 H 775.974 2.82435 2.45319 0
M  V30 8138 H 777.307 3.70303 3.24248 0
M  V30 8139 N 778.959 -0.83999 1.33349 0
M  V30 8140 C 780.236 -1.57973 1.15342 0
M  V30 8141 C 780.616 -2.09226 -0.280632 0
M  V30 8142 O 779.964 -1.89317 -1.2795 0
M  V30 8143 C 780.174 -2.71446 2.19359 0
M  V30 8144 C 781.522 -3.40654 2.53456 0
M  V30 8145 O 782.546 -2.81686 2.18017 0
M  V30 8146 O 781.405 -4.47101 3.14266 0
M  V30 8147 H 778.499 -0.6964 0.446044 0
M  V30 8148 H 781.045 -0.882843 1.44927 0
M  V30 8149 H 779.817 -2.31205 3.1569 0
M  V30 8150 H 779.44 -3.488 1.90852 0
M  V30 8151 N 780.437 -1.16799 -1.0581 0
M  V30 8152 C 781.686 -0.94698 -1.78088 0
M  V30 8153 C 781.999 0.526016 -1.88394 0
M  V30 8154 O 783.205 0.865061 -2.5735 0
M  V30 8155 C 781.661 -1.64508 -3.20102 0
M  V30 8156 C 781.269 -3.15618 -3.17946 0
M  V30 8157 C 783.013 -1.50622 -3.96879 0
M  V30 8158 C 780.92 -3.78144 -4.5471 0
M  V30 8159 H 779.85 -0.35067 -0.667493 0
M  V30 8160 H 782.501 -1.39985 -1.18645 0
M  V30 8161 H 780.883 -1.11993 -3.79834 0
M  V30 8162 H 782.057 -3.75016 -2.67768 0
M  V30 8163 H 780.372 -3.29444 -2.54667 0
M  V30 8164 H 782.969 -1.94713 -4.97987 0
M  V30 8165 H 783.312 -0.455864 -4.13797 0
M  V30 8166 H 783.845 -2.00319 -3.43682 0
M  V30 8167 H 780.584 -4.83149 -4.42998 0
M  V30 8168 H 780.104 -3.23532 -5.05062 0
M  V30 8169 H 781.783 -3.79986 -5.2366 0
M  V30 8170 N 781.915 1.24427 -0.967243 0
M  V30 8171 C 782.845 2.2773 -0.515899 0
M  V30 8172 C 783.826 1.64197 0.444227 0
M  V30 8173 O 785.011 1.91193 0.340451 0
M  V30 8174 C 782.141 3.46751 0.195149 0
M  V30 8175 C 781.095 4.22548 -0.680953 0
M  V30 8176 C 780.421 5.34456 0.161561 0
M  V30 8177 C 781.721 4.83914 -1.96532 0
M  V30 8178 H 783.415 2.65735 -1.37933 0
M  V30 8179 H 780.961 1.27742 -0.664681 0
M  V30 8180 H 782.914 4.18153 0.522117 0
M  V30 8181 H 781.638 3.07771 1.09292 0
M  V30 8182 H 780.297 3.52946 -0.991186 0
M  V30 8183 H 779.945 4.91716 1.05947 0
M  V30 8184 H 779.645 5.86087 -0.421418 0
M  V30 8185 H 781.169 6.08685 0.483211 0
M  V30 8186 H 782.583 5.47392 -1.70396 0
M  V30 8187 H 780.98 5.45775 -2.49499 0
M  V30 8188 H 782.05 4.05393 -2.66053 0
M  V30 8189 N 783.393 0.737304 1.3929 0
M  V30 8190 C 784.618 0.295237 2.05288 0
M  V30 8191 C 785.043 -1.06235 1.55228 0
M  V30 8192 O 784.401 -1.67365 0.697043 0
M  V30 8193 C 784.449 0.309146 3.59272 0
M  V30 8194 O 783.553 -0.702437 4.06374 0
M  V30 8195 H 782.894 0.133762 0.650387 0
M  V30 8196 H 785.424 1.00387 1.78279 0
M  V30 8197 H 785.434 0.154336 4.07708 0
M  V30 8198 H 784.109 1.29974 3.95069 0
M  V30 8199 H 782.686 -0.513574 3.69346 0
M  V30 8200 N 784.871 -1.49948 0.485112 0
M  V30 8201 C 785.821 -2.25734 -0.320658 0
M  V30 8202 C 786.805 -1.29907 -0.949373 0
M  V30 8203 O 787.997 -1.54725 -0.859601 0
M  V30 8204 C 785.126 -3.13728 -1.39391 0
M  V30 8205 C 784.212 -4.1701 -0.772225 0
M  V30 8206 N 784.603 -5.05667 0.115782 0
M  V30 8207 C 782.901 -4.33834 -1.03461 0
M  V30 8208 C 783.602 -5.79798 0.47004 0
M  V30 8209 N 782.578 -5.4337 -0.158204 0
M  V30 8210 H 786.38 -2.91647 0.36319 0
M  V30 8211 H 783.894 -1.59602 0.300154 0
M  V30 8212 H 785.891 -3.66639 -1.98447 0
M  V30 8213 H 784.551 -2.49365 -2.0796 0
M  V30 8214 H 785.562 -5.15619 0.485557 0
M  V30 8215 H 782.239 -3.80684 -1.71424 0
M  V30 8216 H 783.629 -6.61177 1.19558 0
M  V30 8217 N 786.349 -0.21828 -1.56081 0
M  V30 8218 C 787.574 0.422302 -2.03055 0
M  V30 8219 C 787.999 1.5279 -1.09713 0
M  V30 8220 O 787.357 1.81102 -0.0847187 0
M  V30 8221 C 787.405 0.934177 -3.48289 0
M  V30 8222 O 786.509 2.04574 -3.58083 0
M  V30 8223 H 785.85 0.0959764 -0.657027 0
M  V30 8224 H 788.38 -0.335958 -2.01823 0
M  V30 8225 H 788.39 1.24484 -3.88546 0
M  V30 8226 H 787.065 0.124963 -4.15712 0
M  V30 8227 H 785.642 1.74196 -3.29712 0
M  V30 8228 N 787.827 1.57504 0.0551401 0
M  V30 8229 C 789.052 1.92682 0.767352 0
M  V30 8230 C 789.477 0.81614 1.69472 0
M  V30 8231 O 788.835 -0.229989 1.79835 0
M  V30 8232 C 788.883 3.26866 1.52286 0
M  V30 8233 O 787.987 3.17274 2.63459 0
M  V30 8234 H 787.328 0.630502 0.208238 0
M  V30 8235 H 789.858 2.04592 0.0184026 0
M  V30 8236 H 789.868 3.61138 1.8985 0
M  V30 8237 H 788.543 4.07276 0.842541 0
M  V30 8238 H 787.12 2.94589 2.2863 0
M  V30 8239 N 789.305 -0.326896 1.54172 0
M  V30 8240 C 790.53 -1.08924 1.76494 0
M  V30 8241 C 790.955 -1.81039 0.510523 0
M  V30 8242 O 790.313 -1.73141 -0.537756 0
M  V30 8243 C 790.361 -2.06558 2.95578 0
M  V30 8244 O 789.465 -3.14394 2.6689 0
M  V30 8245 H 788.806 -0.314216 0.584948 0
M  V30 8246 H 791.336 -0.372207 2.01186 0
M  V30 8247 H 791.346 -2.49487 3.22832 0
M  V30 8248 H 790.021 -1.53469 3.86549 0
M  V30 8249 H 788.598 -2.76164 2.50576 0
M  V30 8250 N 790.784 -1.46188 -0.588786 0
M  V30 8251 C 791.716 -1.52319 -1.71265 0
M  V30 8252 C 792.729 -0.412096 -1.57498 0
M  V30 8253 O 793.918 -0.680146 -1.65034 0
M  V30 8254 C 791.018 -1.38164 -3.09458 0
M  V30 8255 C 790.191 -2.63284 -3.49286 0
M  V30 8256 C 789.25 -2.43415 -4.66514 0
M  V30 8257 O 788.276 -3.17113 -4.72682 0
M  V30 8258 N 789.478 -1.49187 -5.61002 0
M  V30 8259 H 792.243 -2.49219 -1.66463 0
M  V30 8260 H 789.804 -1.42167 -0.774601 0
M  V30 8261 H 791.796 -1.22653 -3.85666 0
M  V30 8262 H 790.366 -0.494678 -3.08661 0
M  V30 8263 H 789.586 -2.93779 -2.62845 0
M  V30 8264 H 790.874 -3.46413 -3.7266 0
M  V30 8265 H 790.272 -0.884027 -5.5875 0
M  V30 8266 H 788.829 -1.39642 -6.36666 0
M  V30 8267 N 792.262 0.832906 -1.33792 0
M  V30 8268 C 793.508 1.59089 -1.25772 0
M  V30 8269 C 793.841 1.93414 0.174601 0
M  V30 8270 O 793.116 1.59195 1.11746 0
M  V30 8271 C 793.399 2.89699 -2.13885 0
M  V30 8272 C 793.252 2.62017 -3.65605 0
M  V30 8273 C 794.571 3.91182 -2.01654 0
M  V30 8274 H 791.69 0.577232 -0.458227 0
M  V30 8275 H 794.332 0.960227 -1.6395 0
M  V30 8276 H 792.482 3.4352 -1.81456 0
M  V30 8277 H 794.154 2.14582 -4.08353 0
M  V30 8278 H 792.397 1.95621 -3.87189 0
M  V30 8279 H 793.068 3.55112 -4.2261 0
M  V30 8280 H 795.544 3.46684 -2.30107 0
M  V30 8281 H 794.42 4.80391 -2.65548 0
M  V30 8282 H 794.681 4.30861 -0.990536 0
M  V30 8283 N 793.74 1.17359 1.05189 0
M  V30 8284 C 794.965 0.98709 1.82404 0
M  V30 8285 C 795.39 -0.459848 1.82392 0
M  V30 8286 O 794.748 -1.32924 1.23292 0
M  V30 8287 C 794.796 1.53276 3.26403 0
M  V30 8288 O 793.9 0.746541 4.05587 0
M  V30 8289 H 793.241 0.35047 0.563974 0
M  V30 8290 H 795.771 1.55856 1.32552 0
M  V30 8291 H 795.781 1.55504 3.77203 0
M  V30 8292 H 794.456 2.58603 3.25726 0
M  V30 8293 H 793.033 0.795671 3.64312 0
M  V30 8294 N 795.218 -1.23913 0.973828 0
M  V30 8295 C 796.181 -2.23367 0.51378 0
M  V30 8296 C 797.181 -1.55923 -0.39302 0
M  V30 8297 O 798.371 -1.73187 -0.187626 0
M  V30 8298 C 795.503 -3.39944 -0.255152 0
M  V30 8299 H 796.696 -2.65581 1.39307 0
M  V30 8300 H 794.249 -1.36632 0.759039 0
M  V30 8301 H 794.984 -3.03177 -1.15127 0
M  V30 8302 H 794.769 -3.90098 0.395673 0
M  V30 8303 H 796.259 -4.13749 -0.565842 0
M  V30 8304 N 796.696 -0.74468 -1.38897 0
M  V30 8305 C 797.942 -0.297324 -2.00609 0
M  V30 8306 C 798.275 1.11547 -1.58968 0
M  V30 8307 O 797.55 1.76227 -0.823057 0
M  V30 8308 C 797.833 -0.410125 -3.57757 0
M  V30 8309 C 797.686 -1.86338 -4.09387 0
M  V30 8310 C 799.005 0.20176 -4.39637 0
M  V30 8311 H 796.124 -0.109509 -0.728819 0
M  V30 8312 H 798.766 -0.942653 -1.64967 0
M  V30 8313 H 796.916 0.139287 -3.8825 0
M  V30 8314 H 798.588 -2.47042 -3.89574 0
M  V30 8315 H 796.831 -2.38146 -3.62586 0
M  V30 8316 H 797.502 -1.89352 -5.18507 0
M  V30 8317 H 799.978 -0.266703 -4.15244 0
M  V30 8318 H 798.854 0.0925415 -5.48822 0
M  V30 8319 H 799.115 1.289 -4.22891 0
M  V30 8320 N 798.174 1.49689 -0.493057 0
M  V30 8321 C 799.585 1.8665 -0.0433032 0
M  V30 8322 C 799.936 1.40607 1.36836 0
M  V30 8323 O 799.061 0.780503 2.01834 0
M  V30 8324 C 799.656 3.38724 -0.0718069 0
M  V30 8325 C 798.215 3.75015 0.32257 0
M  V30 8326 C 797.362 2.7366 -0.4478 0
M  V30 8327 H 800.313 1.42119 -0.706246 0
M  V30 8328 H 800.334 3.73522 0.725347 0
M  V30 8329 H 799.846 3.72204 -1.09935 0
M  V30 8330 H 797.947 3.47142 1.35364 0
M  V30 8331 H 798.06 4.79099 0.00864259 0
M  V30 8332 H 796.424 2.54498 0.101354 0
M  V30 8333 H 797.207 3.09985 -1.47527 0
M  V30 8334 N 799.652 0.226554 1.55963 0
M  V30 8335 C 800.877 -0.411527 2.03276 0
M  V30 8336 C 801.302 -1.52206 1.10521 0
M  V30 8337 O 800.66 -1.81054 0.0943217 0
M  V30 8338 C 800.708 -0.915694 3.4878 0
M  V30 8339 O 799.812 -2.02672 3.59163 0
M  V30 8340 H 799.153 -0.0924907 0.657527 0
M  V30 8341 H 801.683 0.346656 2.01642 0
M  V30 8342 H 801.693 -1.22421 3.892 0
M  V30 8343 H 800.368 -0.102915 4.15773 0
M  V30 8344 H 798.945 -1.72445 3.30632 0
M  V30 8345 N 801.13 -1.57531 -0.0467866 0
M  V30 8346 C 802.407 -1.79568 -0.775536 0
M  V30 8347 C 802.787 -0.820322 -1.94509 0
M  V30 8348 O 802.135 0.14134 -2.28062 0
M  V30 8349 C 802.345 -3.26789 -1.22516 0
M  V30 8350 C 803.693 -3.91299 -1.64835 0
M  V30 8351 O 804.717 -3.30831 -1.3202 0
M  V30 8352 O 803.576 -4.97727 -2.25677 0
M  V30 8353 H 800.67 -0.737817 -0.373572 0
M  V30 8354 H 803.216 -1.69682 -0.0249302 0
M  V30 8355 H 801.988 -3.89357 -0.389446 0
M  V30 8356 H 801.611 -3.41496 -2.03633 0
M  V30 8357 N 802.608 0.318715 -1.54344 0
M  V30 8358 C 804.019 0.89285 -1.63967 0
M  V30 8359 C 804.37 1.88712 -0.536855 0
M  V30 8360 O 803.495 2.13877 0.329457 0
M  V30 8361 C 804.09 1.62618 -2.97222 0
M  V30 8362 C 802.649 2.14897 -3.09025 0
M  V30 8363 C 801.796 0.975909 -2.5956 0
M  V30 8364 H 804.747 0.0961687 -1.58408 0
M  V30 8365 H 804.768 2.4907 -2.87653 0
M  V30 8366 H 804.28 0.902286 -3.77466 0
M  V30 8367 H 802.381 2.90387 -2.33465 0
M  V30 8368 H 802.494 2.39565 -4.14904 0
M  V30 8369 H 800.858 1.35646 -2.15574 0
M  V30 8370 H 801.641 0.266253 -3.42266 0
M  V30 8371 N 804.086 1.46499 0.581025 0
M  V30 8372 C 805.049 1.5677 1.672 0
M  V30 8373 C 806.049 0.444716 1.54528 0
M  V30 8374 O 807.239 0.709074 1.59116 0
M  V30 8375 C 804.371 1.4896 3.06633 0
M  V30 8376 H 805.564 2.54 1.5945 0
M  V30 8377 H 803.117 1.34334 0.799003 0
M  V30 8378 H 803.852 0.530168 3.19937 0
M  V30 8379 H 803.637 2.30439 3.17239 0
M  V30 8380 H 805.127 1.59237 3.86048 0
M  V30 8381 N 805.565 -0.825799 1.34232 0
M  V30 8382 C 806.498 -1.94155 1.19914 0
M  V30 8383 C 807.476 -1.62343 0.0914533 0
M  V30 8384 O 808.66 -1.86752 0.256082 0
M  V30 8385 C 805.787 -3.28064 0.842138 0
M  V30 8386 C 804.833 -3.78839 1.95917 0
M  V30 8387 S 805.666 -3.98943 3.57218 0
M  V30 8388 C 806.822 -5.35783 3.23554 0
M  V30 8389 H 807.055 -2.06003 2.14359 0
M  V30 8390 H 804.588 -0.981053 1.19225 0
M  V30 8391 H 806.546 -4.05434 0.642952 0
M  V30 8392 H 805.207 -3.13988 -0.0839363 0
M  V30 8393 H 804.4 -4.75771 1.66306 0
M  V30 8394 H 804.002 -3.08406 2.11569 0
M  V30 8395 H 806.294 -6.19094 2.7519 0
M  V30 8396 H 807.237 -5.70376 4.19615 0
M  V30 8397 H 807.645 -5.01158 2.5981 0
M  V30 8398 N 807.043 -1.17915 -1.04565 0
M  V30 8399 C 808.32 -0.881187 -1.74627 0
M  V30 8400 C 808.7 0.617123 -2.01878 0
M  V30 8401 O 808.048 1.57032 -1.65991 0
M  V30 8402 C 808.258 -1.72299 -3.03503 0
M  V30 8403 C 809.606 -1.94688 -3.77335 0
M  V30 8404 O 810.63 -1.6931 -3.13389 0
M  V30 8405 O 809.489 -2.37379 -4.92253 0
M  V30 8406 H 806.583 -0.326864 -0.759664 0
M  V30 8407 H 809.129 -1.28642 -1.10676 0
M  V30 8408 H 807.901 -2.73891 -2.79462 0
M  V30 8409 H 807.524 -1.31593 -3.75192 0
M  V30 8410 N 808.521 1.23394 -0.980386 0
M  V30 8411 C 809.451 2.2717 -0.540024 0
M  V30 8412 C 810.432 1.64659 0.426787 0
M  V30 8413 O 811.617 1.91543 0.320153 0
M  V30 8414 C 808.747 3.46939 0.15836 0
M  V30 8415 C 807.701 4.21802 -0.725732 0
M  V30 8416 C 807.027 5.34597 0.104866 0
M  V30 8417 C 808.327 4.81802 -2.01654 0
M  V30 8418 H 810.021 2.64257 -1.40743 0
M  V30 8419 H 807.567 1.2703 -0.678193 0
M  V30 8420 H 809.52 4.18683 0.477737 0
M  V30 8421 H 808.244 3.08912 1.06022 0
M  V30 8422 H 806.903 3.51875 -1.02857 0
M  V30 8423 H 806.551 4.92812 1.00726 0
M  V30 8424 H 806.251 5.85607 -0.483557 0
M  V30 8425 H 807.775 6.09163 0.418624 0
M  V30 8426 H 809.189 5.45554 -1.76193 0
M  V30 8427 H 807.586 5.43098 -2.55273 0
M  V30 8428 H 808.656 4.02549 -2.70338 0
M  V30 8429 N 809.999 0.752036 1.385 0
M  V30 8430 C 810.947 0.112634 2.32327 0
M  V30 8431 C 811.941 -0.707037 1.53939 0
M  V30 8432 O 813.147 -0.606309 1.69481 0
M  V30 8433 H 809.522 0.0176275 0.751793 0
M  V30 8434 H 811.493 0.920074 2.83861 0
M  V30 8435 C 810.242 -0.767458 3.39124 0
M  V30 8436 H 809.565 -0.146122 3.99533 0
M  V30 8437 H 811.005 -1.18216 4.07187 0
M  V30 8438 C 809.464 -1.90938 2.77568 0
M  V30 8439 O 809.994 -3.00342 2.66754 0
M  V30 8440 N 808.2 -1.70396 2.35401 0
M  V30 8441 H 807.747 -0.81413 2.44397 0
M  V30 8442 H 807.705 -2.46972 1.94557 0
M  V30 8443 N 811.477 -1.49425 0.500989 0
M  V30 8444 C 812.754 -1.9531 -0.106551 0
M  V30 8445 C 813.134 -1.44248 -1.54129 0
M  V30 8446 O 812.482 -0.656237 -2.18874 0
M  V30 8447 C 812.692 -3.48995 -0.0191972 0
M  V30 8448 C 814.04 -4.24161 -0.193129 0
M  V30 8449 O 815.064 -3.56075 -0.0943843 0
M  V30 8450 O 813.923 -5.45064 -0.395869 0
M  V30 8451 H 811.017 -0.82149 -0.0953068 0
M  V30 8452 H 813.563 -1.6007 0.563526 0
M  V30 8453 H 812.335 -3.78794 0.981353 0
M  V30 8454 H 811.958 -3.90852 -0.72942 0
M  V30 8455 N 812.955 -0.234822 -1.55841 0
M  V30 8456 C 814.203 0.392483 -1.98252 0
M  V30 8457 C 814.524 1.59344 -1.12404 0
M  V30 8458 O 813.794 1.94834 -0.204055 0
M  V30 8459 H 812.374 0.147999 -0.732192 0
M  V30 8460 H 815.036 -0.330804 -1.92072 0
M  V30 8461 H 814.132 0.709829 -3.03921 0
M  V30 8462 N 814.433 1.57553 0.0384317 0
M  V30 8463 C 815.661 1.93093 0.743141 0
M  V30 8464 C 816.076 0.833787 1.69391 0
M  V30 8465 O 815.433 -0.190532 1.81503 0
M  V30 8466 C 815.484 3.28533 1.50826 0
M  V30 8467 O 815.205 4.34032 0.595665 0
M  V30 8468 C 816.706 3.78297 2.31098 0
M  V30 8469 H 813.926 0.637486 0.20941 0
M  V30 8470 H 816.47 2.045 -0.00125154 0
M  V30 8471 H 814.625 3.18552 2.20462 0
M  V30 8472 H 815.039 5.12155 1.13124 0
M  V30 8473 H 816.513 4.75602 2.80191 0
M  V30 8474 H 816.99 3.09008 3.12107 0
M  V30 8475 H 817.596 3.91331 1.66555 0
M  V30 8476 N 815.911 -0.310526 1.54511 0
M  V30 8477 C 816.843 -1.40405 1.8116 0
M  V30 8478 C 817.856 -1.47261 0.694114 0
M  V30 8479 O 819.045 -1.49751 0.971441 0
M  V30 8480 C 816.145 -2.78849 1.92604 0
M  V30 8481 C 815.318 -2.95041 3.22908 0
M  V30 8482 C 814.377 -4.13925 3.24889 0
M  V30 8483 O 813.403 -4.06463 3.98467 0
M  V30 8484 N 814.605 -5.24099 2.496 0
M  V30 8485 H 817.37 -1.17903 2.75534 0
M  V30 8486 H 814.931 -0.500564 1.53967 0
M  V30 8487 H 816.923 -3.5661 1.91342 0
M  V30 8488 H 815.493 -2.94342 1.05268 0
M  V30 8489 H 814.713 -2.04472 3.37023 0
M  V30 8490 H 816.001 -3.02763 4.08916 0
M  V30 8491 H 815.399 -5.33039 1.89435 0
M  V30 8492 H 813.956 -6.0023 2.54102 0
M  V30 8493 N 817.389 -1.46805 -0.573248 0
M  V30 8494 C 818.352 -1.57655 -1.66366 0
M  V30 8495 C 819.352 -0.452905 -1.5429 0
M  V30 8496 O 820.542 -0.717502 -1.58737 0
M  V30 8497 C 817.674 -1.50584 -3.05839 0
M  V30 8498 H 818.867 -2.54842 -1.581 0
M  V30 8499 H 816.42 -1.34756 -0.791868 0
M  V30 8500 H 817.155 -0.547127 -3.19651 0
M  V30 8501 H 816.94 -2.32118 -3.16012 0
M  V30 8502 H 818.43 -1.61282 -3.85199 0
M  V30 8503 N 818.867 0.818669 -1.34668 0
M  V30 8504 C 820.092 1.61193 -1.30505 0
M  V30 8505 C 820.517 1.87734 0.117341 0
M  V30 8506 O 819.875 1.45591 1.08042 0
M  V30 8507 C 819.923 2.92733 -2.1057 0
M  V30 8508 O 819.027 3.85 -1.47813 0
M  V30 8509 H 818.368 0.490085 -0.44801 0
M  V30 8510 H 820.898 1.01701 -1.77534 0
M  V30 8511 H 820.908 3.42262 -2.22082 0
M  V30 8512 H 819.583 2.7274 -3.13984 0
M  V30 8513 H 818.16 3.43525 -1.45069 0
M  V30 8514 N 820.346 1.18468 1.03938 0
M  V30 8515 C 821.571 1.00638 1.81347 0
M  V30 8516 C 821.996 -0.440477 1.8287 0
M  V30 8517 O 821.354 -1.31609 1.24695 0
M  V30 8518 C 821.402 1.5673 3.24759 0
M  V30 8519 O 820.506 0.789517 4.04772 0
M  V30 8520 H 819.847 0.356432 0.560225 0
M  V30 8521 H 822.377 1.57253 1.30891 0
M  V30 8522 H 822.387 1.59496 3.75533 0
M  V30 8523 H 821.062 2.62043 3.22965 0
M  V30 8524 H 819.639 0.834267 3.63448 0
M  V30 8525 N 821.824 -1.22873 0.986916 0
M  V30 8526 C 823.235 -1.73264 0.695438 0
M  V30 8527 C 823.586 -1.79679 -0.788023 0
M  V30 8528 O 822.711 -1.43905 -1.61618 0
M  V30 8529 C 823.306 -3.14671 1.2557 0
M  V30 8530 C 821.865 -3.62492 1.01373 0
M  V30 8531 C 821.012 -2.40551 1.37951 0
M  V30 8532 H 823.963 -1.08304 1.15999 0
M  V30 8533 H 823.984 -3.75226 0.631322 0
M  V30 8534 H 823.496 -3.0997 2.33539 0
M  V30 8535 H 821.597 -3.72567 -0.0495917 0
M  V30 8536 H 821.71 -4.48944 1.67289 0
M  V30 8537 H 820.074 -2.41875 0.798033 0
M  V30 8538 H 820.857 -2.38516 2.46911 0
M  V30 8539 N 823.302 -0.75937 -1.38099 0
M  V30 8540 C 824.551 -0.314864 -1.99227 0
M  V30 8541 C 824.864 1.1113 -1.60964 0
M  V30 8542 O 826.07 1.65657 -2.15105 0
M  V30 8543 C 824.526 -0.512001 -3.56239 0
M  V30 8544 C 824.134 -1.94762 -4.0345 0
M  V30 8545 C 825.878 -0.130497 -4.24299 0
M  V30 8546 C 823.785 -2.09301 -5.53125 0
M  V30 8547 H 822.715 -0.113978 -0.745335 0
M  V30 8548 H 825.366 -0.936736 -1.57789 0
M  V30 8549 H 823.748 0.179144 -3.95595 0
M  V30 8550 H 824.922 -2.67271 -3.75371 0
M  V30 8551 H 823.237 -2.28457 -3.48133 0
M  V30 8552 H 825.834 -0.21781 -5.34256 0
M  V30 8553 H 826.177 0.917644 -4.0606 0
M  V30 8554 H 826.71 -0.773716 -3.90203 0
M  V30 8555 H 823.449 -3.1239 -5.76275 0
M  V30 8556 H 822.969 -1.41261 -5.82928 0
M  V30 8557 H 824.648 -1.88571 -6.1891 0
M  V30 8558 N 824.78 1.49157 -0.508906 0
M  V30 8559 C 826.005 2.07376 0.0315182 0
M  V30 8560 C 826.43 1.36575 1.2934 0
M  V30 8561 O 825.788 0.424963 1.76249 0
M  V30 8562 C 825.836 3.59661 0.260118 0
M  V30 8563 O 824.94 3.90255 1.33322 0
M  V30 8564 H 824.281 0.663334 -0.029739 0
M  V30 8565 H 826.811 1.91857 -0.710791 0
M  V30 8566 H 826.821 4.05056 0.489225 0
M  V30 8567 H 825.496 4.10601 -0.661794 0
M  V30 8568 H 824.073 3.56661 1.08844 0
M  V30 8569 N 826.258 0.243083 1.55714 0
M  V30 8570 C 827.535 -0.432851 1.90751 0
M  V30 8571 C 827.915 -1.76153 1.16333 0
M  V30 8572 O 827.263 -2.26783 0.279565 0
M  V30 8573 C 827.473 -0.604685 3.43722 0
M  V30 8574 C 828.821 -0.90231 4.14902 0
M  V30 8575 O 829.845 -0.690689 3.49439 0
M  V30 8576 O 828.704 -1.3051 5.30688 0
M  V30 8577 H 825.798 -0.231835 0.79384 0
M  V30 8578 H 828.344 0.286867 1.67258 0
M  V30 8579 H 827.116 0.331655 3.89892 0
M  V30 8580 H 826.739 -1.37509 3.73065 0
M  V30 8581 N 827.736 -1.57571 -0.0300757 0
M  V30 8582 C 828.961 -1.93879 -0.736601 0
M  V30 8583 C 829.386 -0.842998 -1.68152 0
M  V30 8584 O 828.744 0.20135 -1.80178 0
M  V30 8585 C 828.792 -3.29247 -1.47066 0
M  V30 8586 O 827.896 -3.21426 -2.58378 0
M  V30 8587 H 827.237 -0.633735 -0.198181 0
M  V30 8588 H 829.767 -2.04595 0.0141485 0
M  V30 8589 H 829.777 -3.64113 -1.84081 0
M  V30 8590 H 828.452 -4.08565 -0.77764 0
M  V30 8591 H 827.029 -2.98189 -2.23914 0
M  V30 8592 N 829.214 0.302327 -1.54673 0
M  V30 8593 C 830.439 1.06103 -1.78205 0
M  V30 8594 C 830.864 1.80204 -0.53926 0
M  V30 8595 O 830.222 1.73975 0.510142 0
M  V30 8596 C 830.27 2.01829 -2.98827 0
M  V30 8597 O 829.374 3.10108 -2.71858 0
M  V30 8598 H 828.715 0.30487 -0.589873 0
M  V30 8599 H 831.245 0.340153 -2.01753 0
M  V30 8600 H 831.255 2.44319 -3.2676 0
M  V30 8601 H 829.93 1.473 -3.88942 0
M  V30 8602 H 828.507 2.72142 -2.54937 0
M  V30 8603 N 830.692 1.47107 0.565454 0
M  V30 8604 C 831.624 1.55024 1.6882 0
M  V30 8605 C 832.637 0.4371 1.56822 0
M  V30 8606 O 833.826 0.706315 1.63931 0
M  V30 8607 C 830.926 1.43069 3.0722 0
M  V30 8608 C 830.099 2.68807 3.45053 0
M  V30 8609 C 829.158 2.50806 4.62583 0
M  V30 8610 O 828.184 3.24593 4.67577 0
M  V30 8611 N 829.386 1.58093 5.58558 0
M  V30 8612 H 832.151 2.51836 1.62477 0
M  V30 8613 H 829.712 1.43382 0.751885 0
M  V30 8614 H 831.704 1.28773 3.83666 0
M  V30 8615 H 830.274 0.543721 3.07835 0
M  V30 8616 H 829.494 2.97923 2.58138 0
M  V30 8617 H 830.782 3.52298 3.67101 0
M  V30 8618 H 830.18 0.972807 5.57273 0
M  V30 8619 H 828.737 1.49753 6.34364 0
M  V30 8620 N 832.17 -0.811516 1.35101 0
M  V30 8621 C 833.398 -1.59981 1.31201 0
M  V30 8622 C 833.813 -1.8847 -0.111552 0
M  V30 8623 O 833.17 -1.48414 -1.06205 0
M  V30 8624 C 833.221 -2.934 2.11184 0
M  V30 8625 O 832.942 -2.66148 3.4799 0
M  V30 8626 C 834.443 -3.87776 2.14813 0
M  V30 8627 H 831.663 -0.496921 0.450899 0
M  V30 8628 H 834.207 -1.00886 1.77883 0
M  V30 8629 H 832.362 -3.49022 1.68115 0
M  V30 8630 H 832.776 -3.51301 3.89471 0
M  V30 8631 H 834.25 -4.7852 2.75178 0
M  V30 8632 H 834.727 -4.23997 1.14556 0
M  V30 8633 H 835.333 -3.3809 2.58022 0
M  V30 8634 N 833.648 -1.19017 -1.03309 0
M  V30 8635 C 834.876 -1.01534 -1.80273 0
M  V30 8636 C 835.291 0.43605 -1.83696 0
M  V30 8637 O 834.648 1.30288 -1.27794 0
M  V30 8638 C 834.699 -1.5722 -3.25522 0
M  V30 8639 O 834.42 -2.96677 -3.22358 0
M  V30 8640 C 835.921 -1.4446 -4.19102 0
M  V30 8641 H 833.141 -0.358094 -0.567459 0
M  V30 8642 H 835.685 -1.57738 -1.3015 0
M  V30 8643 H 833.84 -1.05174 -3.7285 0
M  V30 8644 H 834.254 -3.22795 -4.13405 0
M  V30 8645 H 835.728 -1.88209 -5.18923 0
M  V30 8646 H 836.205 -0.394471 -4.37425 0
M  V30 8647 H 836.811 -1.95616 -3.77643 0
M  V30 8648 N 835.127 1.22348 -0.993418 0
M  V30 8649 C 836.355 1.95125 -0.688021 0
M  V30 8650 C 836.77 1.73377 0.747388 0
M  V30 8651 O 836.127 1.03317 1.50439 0
M  V30 8652 C 836.178 3.47819 -0.985097 0
M  V30 8653 O 835.899 3.68838 -2.3641 0
M  V30 8654 C 837.4 4.37779 -0.697474 0
M  V30 8655 H 834.62 0.62087 -0.254481 0
M  V30 8656 H 837.164 1.55485 -1.32833 0
M  V30 8657 H 835.319 3.85426 -0.390583 0
M  V30 8658 H 835.733 4.63032 -2.46377 0
M  V30 8659 H 837.207 5.43666 -0.955604 0
M  V30 8660 H 837.684 4.37651 0.368524 0
M  V30 8661 H 838.29 4.05799 -1.27306 0
M  V30 8662 N 836.605 0.766683 1.37694 0
M  V30 8663 C 837.515 0.150158 2.34119 0
M  V30 8664 C 838.531 -0.685513 1.59927 0
M  V30 8665 O 839.707 -0.606616 1.92047 0
M  V30 8666 C 836.772 -0.722562 3.39087 0
M  V30 8667 C 835.833 0.128983 4.29106 0
M  V30 8668 C 835.066 -0.702178 5.29061 0
M  V30 8669 O 835.289 -1.93954 5.36412 0
M  V30 8670 O 834.223 -0.114056 6.01792 0
M  V30 8671 H 838.049 0.946829 2.88563 0
M  V30 8672 H 835.634 0.527765 1.39768 0
M  V30 8673 H 837.516 -1.22095 4.03325 0
M  V30 8674 H 836.191 -1.49751 2.86978 0
M  V30 8675 H 835.098 0.673612 3.67985 0
M  V30 8676 H 836.431 0.866892 4.84506 0
M  V30 8677 N 838.083 -1.48885 0.516809 0
M  V30 8678 C 839.331 -2.02088 -0.0220166 0
M  V30 8679 C 839.652 -1.39735 -1.36011 0
M  V30 8680 O 838.922 -0.558119 -1.87781 0
M  V30 8681 H 837.502 -0.746917 -0.0111255 0
M  V30 8682 H 840.164 -1.8274 0.677647 0
M  V30 8683 H 839.26 -3.11786 -0.140067 0
M  V30 8684 N 839.561 -0.251338 -1.55583 0
M  V30 8685 C 840.972 0.25098 -1.85005 0
M  V30 8686 C 841.323 1.57259 -1.17321 0
M  V30 8687 O 840.448 2.11603 -0.453136 0
M  V30 8688 C 841.043 0.462161 -3.35633 0
M  V30 8689 C 839.602 0.908737 -3.65266 0
M  V30 8690 C 838.749 -0.0115418 -2.77298 0
M  V30 8691 H 841.7 -0.473782 -1.51463 0
M  V30 8692 H 841.721 1.30415 -3.57452 0
M  V30 8693 H 841.233 -0.499886 -3.84867 0
M  V30 8694 H 839.334 1.8831 -3.21512 0
M  V30 8695 H 839.447 0.762526 -4.72993 0
M  V30 8696 H 837.811 0.500612 -2.49732 0
M  V30 8697 H 838.594 -0.969042 -3.29339 0
M  V30 8698 N 841.039 1.57585 0.0217189 0
M  V30 8699 C 842.316 1.80779 0.74687 0
M  V30 8700 C 842.696 0.851163 1.9318 0
M  V30 8701 O 842.044 -0.105039 2.28258 0
M  V30 8702 C 842.254 3.28696 1.17302 0
M  V30 8703 C 843.602 3.93871 1.58589 0
M  V30 8704 O 844.626 3.3289 1.2674 0
M  V30 8705 O 843.485 5.01254 2.1773 0
M  V30 8706 H 840.579 0.743666 0.361786 0
M  V30 8707 H 843.125 1.697 -0.00206785 0
M  V30 8708 H 841.897 3.89927 0.327453 0
M  V30 8709 H 841.52 3.44692 1.98174 0
M  V30 8710 N 842.517 -0.29412 1.54831 0
M  V30 8711 C 843.742 -1.05156 1.78765 0
M  V30 8712 C 844.167 -1.79916 0.548809 0
M  V30 8713 O 843.525 -1.74243 -0.500909 0
M  V30 8714 C 843.573 -2.00242 2.99893 0
M  V30 8715 O 842.677 -3.08662 2.73499 0
M  V30 8716 H 842.018 -0.301737 0.591482 0
M  V30 8717 H 844.548 -0.329449 2.0193 0
M  V30 8718 H 844.558 -2.42583 3.28051 0
M  V30 8719 H 843.233 -1.45235 3.89717 0
M  V30 8720 H 841.81 -2.70786 2.56377 0
M  V30 8721 N 843.995 -1.47404 -0.557645 0
M  V30 8722 C 844.958 -1.59411 -1.64684 0
M  V30 8723 C 845.958 -0.469244 -1.53801 0
M  V30 8724 O 847.148 -0.734298 -1.57967 0
M  V30 8725 C 844.28 -1.5382 -3.04224 0
M  V30 8726 H 845.473 -2.56504 -1.55389 0
M  V30 8727 H 843.026 -1.35588 -0.777531 0
M  V30 8728 H 843.761 -0.581 -3.19053 0
M  V30 8729 H 843.546 -2.35456 -3.13533 0
M  V30 8730 H 845.036 -1.65358 -3.83466 0
M  V30 8731 N 845.473 0.80434 -1.35529 0
M  V30 8732 C 846.719 1.56385 -1.29118 0
M  V30 8733 C 847.052 1.9374 0.133536 0
M  V30 8734 O 846.327 1.6153 1.08344 0
M  V30 8735 C 846.61 2.85097 -2.19981 0
M  V30 8736 C 846.463 2.54204 -3.7108 0
M  V30 8737 C 847.782 3.86817 -2.09907 0
M  V30 8738 H 844.901 0.567382 -0.470368 0
M  V30 8739 H 847.543 0.925235 -1.6595 0
M  V30 8740 H 845.693 3.39594 -1.88701 0
M  V30 8741 H 847.365 2.05872 -4.12813 0
M  V30 8742 H 845.608 1.87364 -3.91251 0
M  V30 8743 H 846.279 3.46068 -4.30048 0
M  V30 8744 H 848.755 3.41725 -2.37409 0
M  V30 8745 H 847.631 4.7465 -2.75678 0
M  V30 8746 H 847.892 4.28663 -1.08171 0
M  V30 8747 N 846.951 1.19563 1.02676 0
M  V30 8748 C 848.179 1.02488 1.79732 0
M  V30 8749 C 848.594 -0.426302 1.83924 0
M  V30 8750 O 847.951 -1.29609 1.28483 0
M  V30 8751 C 848.002 1.58944 3.24683 0
M  V30 8752 O 847.723 2.98382 3.2078 0
M  V30 8753 C 849.224 1.46681 4.1833 0
M  V30 8754 H 846.444 0.361098 0.565552 0
M  V30 8755 H 848.988 1.58426 1.29311 0
M  V30 8756 H 847.143 1.0715 3.72287 0
M  V30 8757 H 847.557 3.24983 4.11687 0
M  V30 8758 H 849.031 1.90959 5.17918 0
M  V30 8759 H 849.508 0.417663 4.3721 0
M  V30 8760 H 850.114 1.97616 3.76601 0
M  V30 8761 N 848.429 -1.21819 0.999893 0
M  V30 8762 C 849.84 -1.72517 0.713775 0
M  V30 8763 C 850.191 -1.80505 -0.768922 0
M  V30 8764 O 849.316 -1.45611 -1.60083 0
M  V30 8765 C 849.911 -3.13321 1.28901 0
M  V30 8766 C 848.47 -3.61396 1.05212 0
M  V30 8767 C 847.617 -2.39074 1.40494 0
M  V30 8768 H 850.568 -1.07068 1.17141 0
M  V30 8769 H 850.589 -3.74535 0.671084 0
M  V30 8770 H 850.101 -3.07475 2.36814 0
M  V30 8771 H 848.202 -3.72599 -0.0100732 0
M  V30 8772 H 848.315 -4.47145 1.72042 0
M  V30 8773 H 846.679 -2.41015 0.823642 0
M  V30 8774 H 847.462 -2.35884 2.49427 0
M  V30 8775 N 849.908 -0.773975 -1.37286 0
M  V30 8776 C 851.133 -0.349561 -2.04433 0
M  V30 8777 C 851.558 1.02082 -1.5799 0
M  V30 8778 O 850.916 1.65458 -0.741172 0
M  V30 8779 C 850.964 -0.404292 -3.58326 0
M  V30 8780 O 850.068 0.594447 -4.08093 0
M  V30 8781 H 849.409 -0.150959 -0.646612 0
M  V30 8782 H 851.939 -1.05079 -1.75555 0
M  V30 8783 H 851.949 -0.262378 -4.07155 0
M  V30 8784 H 850.624 -1.40403 -3.91484 0
M  V30 8785 H 849.201 0.415468 -3.70578 0
M  V30 8786 N 851.386 1.48609 -0.524698 0
M  V30 8787 C 852.663 1.95454 0.075465 0
M  V30 8788 C 853.043 1.46682 1.51814 0
M  V30 8789 O 852.391 0.690975 2.17802 0
M  V30 8790 C 852.601 3.48981 -0.0363273 0
M  V30 8791 C 853.949 4.24414 0.125624 0
M  V30 8792 O 854.973 3.5618 0.0377239 0
M  V30 8793 O 853.832 5.45625 0.309104 0
M  V30 8794 H 850.926 0.822902 0.0822256 0
M  V30 8795 H 853.472 1.59153 -0.588921 0
M  V30 8796 H 852.244 3.77185 -1.04149 0
M  V30 8797 H 851.867 3.91963 0.667146 0
M  V30 8798 N 852.864 0.259585 1.55447 0
M  V30 8799 C 854.089 -0.368317 2.04103 0
M  V30 8800 C 854.514 -1.49827 1.13725 0
M  V30 8801 O 853.872 -1.80814 0.132705 0
M  V30 8802 C 853.92 -0.841506 3.50644 0
M  V30 8803 O 853.024 -1.95008 3.63381 0
M  V30 8804 H 852.365 -0.0785227 0.659341 0
M  V30 8805 H 854.895 0.389349 2.00861 0
M  V30 8806 H 854.905 -1.14138 3.9171 0
M  V30 8807 H 853.58 -0.0147001 4.15897 0
M  V30 8808 H 852.157 -1.65393 3.34215 0
M  V30 8809 N 854.342 -1.57594 -0.0133615 0
M  V30 8810 C 855.567 -1.94649 -0.715996 0
M  V30 8811 C 855.992 -0.860786 -1.67249 0
M  V30 8812 O 855.35 0.182228 -1.80382 0
M  V30 8813 C 855.398 -3.30789 -1.43566 0
M  V30 8814 O 854.502 -3.24148 -2.54955 0
M  V30 8815 H 853.843 -0.635801 -0.191449 0
M  V30 8816 H 856.373 -2.04569 0.0358478 0
M  V30 8817 H 856.383 -3.66045 -1.80208 0
M  V30 8818 H 855.058 -4.09367 -0.734263 0
M  V30 8819 H 853.635 -3.00548 -2.20739 0
M  V30 8820 N 855.82 0.285905 -1.54985 0
M  V30 8821 C 856.73 1.37534 -1.90057 0
M  V30 8822 C 857.746 1.54707 -0.796348 0
M  V30 8823 O 858.922 1.69082 -1.09423 0
M  V30 8824 C 855.987 2.7167 -2.15398 0
M  V30 8825 C 855.048 2.63354 -3.39033 0
M  V30 8826 C 854.281 3.91093 -3.63155 0
M  V30 8827 O 854.504 4.91169 -2.90015 0
M  V30 8828 O 853.438 3.92075 -4.56685 0
M  V30 8829 H 857.264 1.10791 -2.8277 0
M  V30 8830 H 854.849 0.483303 -1.41367 0
M  V30 8831 H 856.731 3.51006 -2.33179 0
M  V30 8832 H 855.406 2.98226 -1.25868 0
M  V30 8833 H 854.313 1.82438 -3.26599 0
M  V30 8834 H 855.646 2.41749 -4.2874 0
M  V30 8835 N 857.298 1.47698 0.54982 0
M  V30 8836 C 858.547 1.53961 1.30303 0
M  V30 8837 C 858.86 0.209731 1.94472 0
M  V30 8838 O 860.066 0.150418 2.71083 0
M  V30 8839 C 858.522 2.71436 2.36328 0
M  V30 8840 C 858.13 4.10983 1.78316 0
M  V30 8841 C 859.874 2.86996 3.12783 0
M  V30 8842 C 857.781 5.19747 2.82164 0
M  V30 8843 H 856.711 0.573098 0.489975 0
M  V30 8844 H 859.362 1.73989 0.583089 0
M  V30 8845 H 857.744 2.44801 3.11269 0
M  V30 8846 H 858.918 4.47552 1.09697 0
M  V30 8847 H 857.233 4.00371 1.1442 0
M  V30 8848 H 859.83 3.65422 3.90347 0
M  V30 8849 H 860.173 1.95712 3.67427 0
M  V30 8850 H 860.706 3.13436 2.44954 0
M  V30 8851 H 857.445 6.12932 2.32366 0
M  V30 8852 H 856.965 4.87688 3.49171 0
M  V30 8853 H 858.644 5.47014 3.4552 0
M  V30 8854 N 858.776 -0.797141 1.35954 0
M  V30 8855 C 860.022 -1.55698 1.29946 0
M  V30 8856 C 860.355 -1.93808 -0.123259 0
M  V30 8857 O 859.63 -1.62102 -1.07486 0
M  V30 8858 C 859.913 -2.83926 2.2149 0
M  V30 8859 C 859.766 -2.52232 3.72423 0
M  V30 8860 C 861.085 -3.85698 2.11955 0
M  V30 8861 H 858.204 -0.56488 0.47337 0
M  V30 8862 H 860.846 -0.916421 1.66438 0
M  V30 8863 H 858.996 -3.38588 1.905 0
M  V30 8864 H 860.668 -2.0368 4.13899 0
M  V30 8865 H 858.911 -1.85286 3.92239 0
M  V30 8866 H 859.582 -3.43782 4.31877 0
M  V30 8867 H 862.058 -3.40462 2.39218 0
M  V30 8868 H 860.934 -4.73182 2.78191 0
M  V30 8869 H 861.195 -4.28083 1.10442 0
M  V30 8870 N 860.254 -1.20106 -1.0204 0
M  V30 8871 C 861.184 -0.970301 -2.12385 0
M  V30 8872 C 862.165 0.099378 -1.69809 0
M  V30 8873 O 863.35 -0.057365 -1.94115 0
M  V30 8874 C 860.48 -0.517431 -3.43424 0
M  V30 8875 C 859.434 -1.52992 -3.99722 0
M  V30 8876 C 858.76 -0.933817 -5.26483 0
M  V30 8877 C 860.06 -2.91257 -4.33551 0
M  V30 8878 H 861.754 -1.89316 -2.31948 0
M  V30 8879 H 859.3 -0.911655 -1.11467 0
M  V30 8880 H 861.253 -0.343243 -4.2 0
M  V30 8881 H 859.977 0.441049 -3.23608 0
M  V30 8882 H 858.636 -1.6914 -3.2525 0
M  V30 8883 H 858.284 0.0324763 -5.0299 0
M  V30 8884 H 857.984 -1.60999 -5.65113 0
M  V30 8885 H 859.508 -0.770614 -6.05718 0
M  V30 8886 H 860.922 -2.78642 -5.0103 0
M  V30 8887 H 859.319 -3.55745 -4.83286 0
M  V30 8888 H 860.389 -3.43269 -3.42483 0
M  V30 8889 N 861.732 1.21287 -1.00634 0
M  V30 8890 C 863.009 1.86 -0.605257 0
M  V30 8891 C 863.389 1.90139 0.917072 0
M  V30 8892 O 862.737 1.40169 1.80458 0
M  V30 8893 C 862.947 3.26183 -1.24119 0
M  V30 8894 C 864.295 4.02562 -1.35015 0
M  V30 8895 O 865.319 3.35499 -1.19661 0
M  V30 8896 O 864.178 5.22638 -1.59726 0
M  V30 8897 H 861.272 0.800549 -0.207486 0
M  V30 8898 H 863.818 1.28959 -1.10307 0
M  V30 8899 H 862.59 3.17878 -2.28186 0
M  V30 8900 H 862.213 3.90845 -0.729807 0
M  V30 8901 N 863.21 0.781244 1.36873 0
M  V30 8902 C 864.458 0.349198 1.9906 0
M  V30 8903 C 864.779 -1.0806 1.62321 0
M  V30 8904 O 864.049 -1.74351 0.893229 0
M  V30 8905 H 862.629 0.126126 0.736275 0
M  V30 8906 H 865.291 1.00148 1.67202 0
M  V30 8907 H 864.387 0.434451 3.09061 0
M  V30 8908 N 864.689 -1.48329 0.532571 0
M  V30 8909 C 865.917 -2.069 0.00354299 0
M  V30 8910 C 866.332 -1.38876 -1.27902 0
M  V30 8911 O 865.689 -0.477119 -1.76153 0
M  V30 8912 C 865.74 -3.60821 -0.221416 0
M  V30 8913 O 865.461 -4.26291 1.01034 0
M  V30 8914 C 866.962 -4.36194 -0.790531 0
M  V30 8915 H 864.182 -0.670103 0.0346836 0
M  V30 8916 H 866.726 -1.90682 0.738955 0
M  V30 8917 H 864.881 -3.76636 -0.906884 0
M  V30 8918 H 865.295 -5.18475 0.792683 0
M  V30 8919 H 866.769 -5.44657 -0.897347 0
M  V30 8920 H 867.246 -4.00798 -1.79605 0
M  V30 8921 H 867.852 -4.25064 -0.141546 0
M  V30 8922 N 866.167 -0.267825 -1.55308 0
M  V30 8923 C 867.444 0.402449 -1.91415 0
M  V30 8924 C 867.824 1.7428 -1.1912 0
M  V30 8925 O 867.172 2.2631 -0.315609 0
M  V30 8926 C 867.382 0.549926 -3.4464 0
M  V30 8927 C 868.73 0.836188 -4.16285 0
M  V30 8928 O 869.754 0.635009 -3.50494 0
M  V30 8929 O 868.613 1.22051 -5.32697 0
M  V30 8930 H 865.707 0.219177 -0.797427 0
M  V30 8931 H 868.253 -0.313439 -1.6678 0
M  V30 8932 H 867.025 -0.393641 -3.89315 0
M  V30 8933 H 866.648 1.31556 -3.75205 0
M  V30 8934 N 867.645 1.57599 0.00500368 0
M  V30 8935 C 868.593 2.09223 1.01628 0
M  V30 8936 C 869.587 1.01113 1.35913 0
M  V30 8937 O 870.793 1.19583 1.34536 0
M  V30 8938 H 867.168 0.667999 0.345372 0
M  V30 8939 H 869.139 2.93188 0.555274 0
M  V30 8940 C 867.888 2.60674 2.30097 0
M  V30 8941 H 867.211 3.43491 2.04582 0
M  V30 8942 H 868.651 3.00479 2.99146 0
M  V30 8943 C 867.11 1.51862 3.00731 0
M  V30 8944 O 867.64 0.898651 3.91519 0
M  V30 8945 N 865.846 1.24729 2.62471 0
M  V30 8946 H 865.393 1.7533 1.88725 0
M  V30 8947 H 865.351 0.521437 3.10046 0
M  V30 8948 N 869.123 -0.277682 1.55134 0
M  V30 8949 C 870.055 -1.36531 1.84098 0
M  V30 8950 C 871.068 -1.45756 0.725194 0
M  V30 8951 O 872.257 -1.47656 1.00299 0
M  V30 8952 C 869.357 -2.74701 1.98476 0
M  V30 8953 C 868.53 -2.88125 3.29094 0
M  V30 8954 C 867.589 -4.0694 3.33596 0
M  V30 8955 O 866.615 -3.9792 4.06999 0
M  V30 8956 N 867.817 -5.18687 2.60661 0
M  V30 8957 H 870.582 -1.12032 2.77973 0
M  V30 8958 H 868.143 -0.467793 1.54995 0
M  V30 8959 H 870.135 -3.52471 1.98863 0
M  V30 8960 H 868.705 -2.92043 1.11488 0
M  V30 8961 H 867.925 -1.97277 3.41285 0
M  V30 8962 H 869.213 -2.94021 4.15246 0
M  V30 8963 H 868.611 -5.28901 2.00699 0
M  V30 8964 H 867.168 -5.94705 2.66776 0
M  V30 8965 N 870.601 -1.47988 -0.541979 0
M  V30 8966 C 871.831 -1.58804 -1.32155 0
M  V30 8967 C 872.239 -0.242893 -1.87634 0
M  V30 8968 O 871.582 0.776239 -1.66494 0
M  V30 8969 C 871.644 -2.56567 -2.51821 0
M  V30 8970 C 871.308 -4.01915 -2.17517 0
M  V30 8971 C 872.305 -4.89954 -1.73901 0
M  V30 8972 C 869.99 -4.47365 -2.28408 0
M  V30 8973 C 871.984 -6.21467 -1.41625 0
M  V30 8974 C 869.671 -5.78902 -1.95745 0
M  V30 8975 C 870.669 -6.65775 -1.52423 0
M  V30 8976 O 870.357 -7.94866 -1.20183 0
M  V30 8977 H 870.089 -0.538536 -0.408601 0
M  V30 8978 H 872.643 -1.94446 -0.661818 0
M  V30 8979 H 870.873 -2.16023 -3.20735 0
M  V30 8980 H 872.562 -2.57347 -3.13891 0
M  V30 8981 H 873.328 -4.56082 -1.64966 0
M  V30 8982 H 869.207 -3.79942 -2.61084 0
M  V30 8983 H 872.751 -6.8923 -1.07738 0
M  V30 8984 H 868.648 -6.12311 -2.04316 0
M  V30 8985 H 869.416 -8.07509 -1.33683 0
M  V30 8986 N 872.079 0.78992 -1.36375 0
M  V30 8987 C 873.009 1.91683 -1.33341 0
M  V30 8988 C 873.99 1.68861 -0.204965 0
M  V30 8989 O 875.175 1.89982 -0.402531 0
M  V30 8990 C 872.305 3.28696 -1.12143 0
M  V30 8991 C 871.259 3.66041 -2.21806 0
M  V30 8992 C 870.585 5.01399 -1.85751 0
M  V30 8993 C 871.885 3.74677 -3.63888 0
M  V30 8994 H 873.579 1.94478 -2.27637 0
M  V30 8995 H 871.125 0.934271 -1.09578 0
M  V30 8996 H 873.078 4.07151 -1.08656 0
M  V30 8997 H 871.802 3.26287 -0.142974 0
M  V30 8998 H 870.461 2.89883 -2.24418 0
M  V30 8999 H 870.109 4.9551 -0.864817 0
M  V30 9000 H 869.809 5.27355 -2.59173 0
M  V30 9001 H 871.333 5.82274 -1.83819 0
M  V30 9002 H 872.747 4.43324 -3.63506 0
M  V30 9003 H 871.144 4.12118 -4.3621 0
M  V30 9004 H 872.214 2.75795 -3.9883 0
M  V30 9005 N 873.557 1.20646 1.01402 0
M  V30 9006 C 874.805 1.01618 1.74695 0
M  V30 9007 C 875.126 -0.452438 1.89679 0
M  V30 9008 O 874.396 -1.32693 1.44116 0
M  V30 9009 H 872.976 0.373013 0.647202 0
M  V30 9010 H 875.638 1.518 1.22241 0
M  V30 9011 H 874.734 1.47666 2.74957 0
M  V30 9012 N 875.035 -1.20752 1.01276 0
M  V30 9013 C 875.965 -2.25658 0.600064 0
M  V30 9014 C 876.946 -1.65733 -0.38298 0
M  V30 9015 O 878.131 -1.92324 -0.269256 0
M  V30 9016 C 875.261 -3.47237 -0.0663197 0
M  V30 9017 C 874.215 -4.1973 0.83731 0
M  V30 9018 C 873.541 -5.34687 0.0369102 0
M  V30 9019 C 874.841 -4.76286 2.14357 0
M  V30 9020 H 876.535 -2.60432 1.477 0
M  V30 9021 H 874.081 -1.25187 0.711634 0
M  V30 9022 H 876.034 -4.19803 -0.366563 0
M  V30 9023 H 874.758 -3.11615 -0.977944 0
M  V30 9024 H 873.417 -3.49024 1.1215 0
M  V30 9025 H 873.065 -4.95309 -0.876244 0
M  V30 9026 H 872.765 -5.84119 0.63865 0
M  V30 9027 H 874.289 -6.10059 -0.256968 0
M  V30 9028 H 875.703 -5.40691 1.90595 0
M  V30 9029 H 874.1 -5.36139 2.69583 0
M  V30 9030 H 875.17 -3.9524 2.80916 0
M  V30 9031 N 876.513 -0.788492 -1.36457 0
M  V30 9032 C 877.445 -0.144208 -2.28746 0
M  V30 9033 C 878.458 0.646009 -1.49434 0
M  V30 9034 O 879.647 0.481344 -1.71888 0
M  V30 9035 C 876.747 0.818869 -3.28858 0
M  V30 9036 C 875.92 0.0789055 -4.37329 0
M  V30 9037 C 874.979 0.957791 -5.1741 0
M  V30 9038 O 874.005 0.415378 -5.67682 0
M  V30 9039 N 875.207 2.28216 -5.33758 0
M  V30 9040 H 877.972 -0.936949 -2.84678 0
M  V30 9041 H 875.533 -0.642317 -1.48613 0
M  V30 9042 H 877.525 1.41065 -3.79319 0
M  V30 9043 H 876.095 1.51249 -2.73573 0
M  V30 9044 H 875.315 -0.693939 -3.88044 0
M  V30 9045 H 876.603 -0.431753 -5.06965 0
M  V30 9046 H 876.001 2.747 -4.94527 0
M  V30 9047 H 874.558 2.8236 -5.87466 0
M  V30 9048 N 877.991 1.48044 -0.54043 0
M  V30 9049 C 879.24 2.01698 -0.00809961 0
M  V30 9050 C 879.553 1.42184 1.34325 0
M  V30 9051 O 880.759 1.87398 1.96454 0
M  V30 9052 C 879.215 3.59882 0.035933 0
M  V30 9053 C 878.823 4.28384 -1.31115 0
M  V30 9054 C 880.567 4.21346 0.51654 0
M  V30 9055 C 878.474 5.78529 -1.22714 0
M  V30 9056 H 877.404 0.754 0.000742174 0
M  V30 9057 H 880.055 1.70204 -0.685775 0
M  V30 9058 H 878.437 3.88264 0.778906 0
M  V30 9059 H 879.611 4.11663 -2.07051 0
M  V30 9060 H 877.926 3.78837 -1.72834 0
M  V30 9061 H 880.523 5.31351 0.597529 0
M  V30 9062 H 880.866 3.87373 1.52473 0
M  V30 9063 H 881.399 3.97432 -0.171064 0
M  V30 9064 H 878.138 6.17093 -2.21081 0
M  V30 9065 H 877.658 5.97634 -0.50931 0
M  V30 9066 H 879.337 6.40395 -0.92216 0
M  V30 9067 N 879.47 0.276058 1.55163 0
M  V30 9068 C 880.718 -0.339782 1.99223 0
M  V30 9069 C 881.039 -1.56307 1.16589 0
M  V30 9070 O 880.309 -1.94225 0.25564 0
M  V30 9071 H 878.889 -0.128534 0.735859 0
M  V30 9072 H 881.551 0.381612 1.91128 0
M  V30 9073 H 880.647 -0.629 3.05696 0
M  V30 9074 N 880.948 -1.576 0.00335426 0
M  V30 9075 C 881.88 -2.0549 -1.01521 0
M  V30 9076 C 882.893 -0.973441 -1.30491 0
M  V30 9077 O 884.082 -1.25017 -1.27409 0
M  V30 9078 C 881.182 -2.44272 -2.34914 0
M  V30 9079 C 880.355 -3.75191 -2.24835 0
M  V30 9080 C 879.414 -4.00804 -3.40944 0
M  V30 9081 O 878.44 -4.71423 -3.18981 0
M  V30 9082 N 879.642 -3.48961 -4.63904 0
M  V30 9083 H 882.407 -2.93493 -0.60678 0
M  V30 9084 H 879.968 -1.60851 -0.18396 0
M  V30 9085 H 881.96 -2.58518 -3.11369 0
M  V30 9086 H 880.53 -1.6177 -2.67487 0
M  V30 9087 H 879.75 -3.70989 -1.3327 0
M  V30 9088 H 881.038 -4.61013 -2.15277 0
M  V30 9089 H 880.436 -2.9178 -4.84645 0
M  V30 9090 H 878.993 -3.68531 -5.37613 0
M  V30 9091 N 882.426 0.269451 -1.5528 0
M  V30 9092 C 883.837 0.840233 -1.66724 0
M  V30 9093 C 884.188 1.86909 -0.596621 0
M  V30 9094 O 883.313 2.14817 0.261246 0
M  V30 9095 C 883.908 1.5308 -3.02245 0
M  V30 9096 C 882.467 2.04957 -3.15705 0
M  V30 9097 C 881.614 0.892838 -2.62533 0
M  V30 9098 H 884.565 0.0457236 -1.58634 0
M  V30 9099 H 884.586 2.39792 -2.95432 0
M  V30 9100 H 884.098 0.781741 -3.80145 0
M  V30 9101 H 882.199 2.82813 -2.42585 0
M  V30 9102 H 882.312 2.26244 -4.22316 0
M  V30 9103 H 880.676 1.28719 -2.19781 0
M  V30 9104 H 881.459 0.157229 -3.4294 0
M  V30 9105 N 883.904 1.48273 0.534124 0
M  V30 9106 C 884.836 1.5857 1.65494 0
M  V30 9107 C 885.849 0.470266 1.5586 0
M  V30 9108 O 887.038 0.740928 1.62396 0
M  V30 9109 C 884.138 1.49554 3.04117 0
M  V30 9110 C 883.311 2.76066 3.39273 0
M  V30 9111 C 882.37 2.60562 4.57159 0
M  V30 9112 O 881.396 3.34438 4.60587 0
M  V30 9113 N 882.598 1.69906 5.55079 0
M  V30 9114 H 885.363 2.55226 1.57099 0
M  V30 9115 H 882.924 1.44944 0.721303 0
M  V30 9116 H 884.916 1.36882 3.80848 0
M  V30 9117 H 883.486 0.608895 3.06613 0
M  V30 9118 H 882.706 3.03332 2.51761 0
M  V30 9119 H 883.994 3.60006 3.59546 0
M  V30 9120 H 883.392 1.09079 5.55084 0
M  V30 9121 H 881.949 1.63175 6.31044 0
M  V30 9122 N 885.382 -0.782676 1.36792 0
M  V30 9123 C 886.659 -1.52939 1.21939 0
M  V30 9124 C 887.039 -2.10228 -0.191639 0
M  V30 9125 O 886.387 -1.94574 -1.19805 0
M  V30 9126 C 886.597 -2.61898 2.30674 0
M  V30 9127 C 887.945 -3.29598 2.67676 0
M  V30 9128 O 888.969 -2.72186 2.29768 0
M  V30 9129 O 887.828 -4.3337 3.32946 0
M  V30 9130 H 884.922 -0.676856 0.47518 0
M  V30 9131 H 887.468 -0.82058 1.48542 0
M  V30 9132 H 886.24 -2.17607 3.25212 0
M  V30 9133 H 885.863 -3.40391 2.05475 0
M  V30 9134 N 886.86 -1.21182 -1.00761 0
M  V30 9135 C 887.77 -0.984691 -2.12934 0
M  V30 9136 C 888.786 0.0623657 -1.73888 0
M  V30 9137 O 889.962 -0.1271 -2.00999 0
M  V30 9138 C 887.027 -0.549447 -3.42319 0
M  V30 9139 C 886.088 -1.66841 -3.95553 0
M  V30 9140 C 885.321 -1.25384 -5.18763 0
M  V30 9141 O 885.544 -0.126333 -5.7026 0
M  V30 9142 O 884.478 -2.06475 -5.65377 0
M  V30 9143 H 888.304 -1.92413 -2.3497 0
M  V30 9144 H 885.889 -0.99647 -1.11314 0
M  V30 9145 H 887.771 -0.316384 -4.20211 0
M  V30 9146 H 886.446 0.361304 -3.21677 0
M  V30 9147 H 885.353 -1.95585 -3.189 0
M  V30 9148 H 886.686 -2.55649 -4.206 0
M  V30 9149 N 888.338 1.20213 -1.01915 0
M  V30 9150 C 889.615 1.85348 -0.62495 0
M  V30 9151 C 889.995 1.91101 0.896854 0
M  V30 9152 O 889.343 1.42075 1.78961 0
M  V30 9153 C 889.553 3.24849 -1.27571 0
M  V30 9154 C 890.901 4.01107 -1.39277 0
M  V30 9155 O 891.925 3.34211 -1.23212 0
M  V30 9156 O 890.784 5.20914 -1.6526 0
M  V30 9157 H 887.878 0.798303 -0.215965 0
M  V30 9158 H 890.424 1.27782 -1.11669 0
M  V30 9159 H 889.196 3.1544 -2.31545 0
M  V30 9160 H 888.819 3.90049 -0.77122 0
M  V30 9161 N 889.816 0.795718 1.36037 0
M  V30 9162 C 890.726 0.199784 2.33748 0
M  V30 9163 C 891.742 -0.651436 1.61345 0
M  V30 9164 O 892.918 -0.565743 1.93291 0
M  V30 9165 C 889.983 -0.650475 3.40543 0
M  V30 9166 C 889.044 0.219974 4.28736 0
M  V30 9167 C 888.277 -0.589798 5.30431 0
M  V30 9168 O 888.5 -1.82532 5.40406 0
M  V30 9169 O 887.434 0.0136187 6.01898 0
M  V30 9170 H 891.26 1.00782 2.8649 0
M  V30 9171 H 888.845 0.557293 1.38617 0
M  V30 9172 H 890.727 -1.13512 4.05824 0
M  V30 9173 H 889.402 -1.4363 2.9009 0
M  V30 9174 H 888.309 0.751516 3.66474 0
M  V30 9175 H 889.642 0.969468 4.82558 0
M  V30 9176 N 891.294 -1.47756 0.548274 0
M  V30 9177 C 892.204 -2.33678 -0.207773 0
M  V30 9178 C 893.22 -1.47636 -0.920843 0
M  V30 9179 O 894.396 -1.80583 -0.89173 0
M  V30 9180 C 891.461 -3.24147 -1.23003 0
M  V30 9181 C 890.522 -4.26073 -0.52535 0
M  V30 9182 C 889.755 -5.12219 -1.4989 0
M  V30 9183 O 889.978 -5.0066 -2.73305 0
M  V30 9184 O 888.912 -5.93051 -1.02828 0
M  V30 9185 H 892.738 -2.99609 0.496794 0
M  V30 9186 H 890.323 -1.4617 0.308982 0
M  V30 9187 H 892.205 -3.80055 -1.82034 0
M  V30 9188 H 890.88 -2.60855 -1.91668 0
M  V30 9189 H 889.787 -3.7395 0.105927 0
M  V30 9190 H 891.12 -4.92054 0.119686 0
M  V30 9191 N 892.772 -0.284283 -1.55015 0
M  V30 9192 C 893.735 0.586182 -2.21577 0
M  V30 9193 C 894.735 1.07427 -1.1965 0
M  V30 9194 O 895.925 0.972977 -1.44495 0
M  V30 9195 C 893.057 1.80973 -2.88897 0
M  V30 9196 H 894.25 0.00487253 -2.999 0
M  V30 9197 H 891.803 -0.0349696 -1.56261 0
M  V30 9198 H 892.538 2.43131 -2.14611 0
M  V30 9199 H 892.323 1.46757 -3.636 0
M  V30 9200 H 893.813 2.42853 -3.39724 0
M  V30 9201 N 894.251 1.57596 -0.0117121 0
M  V30 9202 C 895.479 1.9536 0.681334 0
M  V30 9203 C 895.894 0.887255 1.66653 0
M  V30 9204 O 895.251 -0.132692 1.82017 0
M  V30 9205 C 895.302 3.33165 1.40298 0
M  V30 9206 O 895.023 4.35707 0.45728 0
M  V30 9207 C 896.524 3.85458 2.18946 0
M  V30 9208 H 893.744 0.643826 0.189023 0
M  V30 9209 H 896.288 2.04392 -0.066311 0
M  V30 9210 H 894.443 3.25404 2.10216 0
M  V30 9211 H 894.857 5.15495 0.96773 0
M  V30 9212 H 896.331 4.84275 2.64918 0
M  V30 9213 H 896.808 3.18781 3.02118 0
M  V30 9214 H 897.414 3.96431 1.5402 0
M  V30 9215 N 895.729 -0.261212 1.5542 0
M  V30 9216 C 896.977 -0.989272 1.76232 0
M  V30 9217 C 897.298 -1.86389 0.573067 0
M  V30 9218 O 896.568 -1.91526 -0.41166 0
M  V30 9219 H 895.148 -0.368256 0.64992 0
M  V30 9220 H 897.81 -0.282603 1.9284 0
M  V30 9221 H 896.906 -1.61935 2.66802 0
M  V30 9222 N 897.207 -1.48554 -0.526253 0
M  V30 9223 C 898.456 -1.56014 -1.27837 0
M  V30 9224 C 898.769 -0.240643 -1.94114 0
M  V30 9225 O 899.975 -0.193525 -2.70809 0
M  V30 9226 C 898.431 -2.75161 -2.31979 0
M  V30 9227 C 898.039 -4.13768 -1.71755 0
M  V30 9228 C 899.783 -2.91936 -3.08178 0
M  V30 9229 C 897.69 -5.24171 -2.7386 0
M  V30 9230 H 896.62 -0.58082 -0.480795 0
M  V30 9231 H 899.271 -1.74895 -0.555335 0
M  V30 9232 H 897.653 -2.49722 -3.07335 0
M  V30 9233 H 898.827 -4.49241 -1.02563 0
M  V30 9234 H 897.142 -4.02141 -1.08036 0
M  V30 9235 H 899.739 -3.71586 -3.84484 0
M  V30 9236 H 900.082 -2.01533 -3.64267 0
M  V30 9237 H 900.615 -3.17294 -2.39937 0
M  V30 9238 H 897.354 -6.16552 -2.22586 0
M  V30 9239 H 896.874 -4.93181 -3.41368 0
M  V30 9240 H 898.553 -5.52442 -3.36774 0
M  V30 9241 N 898.685 0.775411 -1.37205 0
M  V30 9242 C 899.615 1.90258 -1.35367 0
M  V30 9243 C 900.596 1.68634 -0.222864 0
M  V30 9244 O 901.781 1.89545 -0.422659 0
M  V30 9245 C 898.911 3.27488 -1.15623 0
M  V30 9246 C 897.865 3.63668 -2.25676 0
M  V30 9247 C 897.191 4.994 -1.91059 0
M  V30 9248 C 898.491 3.70797 -3.67841 0
M  V30 9249 H 900.185 1.92053 -2.29687 0
M  V30 9250 H 897.731 0.922597 -1.10563 0
M  V30 9251 H 899.684 4.05976 -1.12968 0
M  V30 9252 H 898.408 3.26117 -0.177573 0
M  V30 9253 H 897.067 2.87486 -2.2748 0
M  V30 9254 H 896.715 4.94565 -0.917324 0
M  V30 9255 H 896.415 5.24576 -2.64751 0
M  V30 9256 H 897.939 5.80291 -1.89985 0
M  V30 9257 H 899.353 4.39444 -3.68187 0
M  V30 9258 H 897.75 4.07468 -4.40556 0
M  V30 9259 H 898.82 2.71549 -4.01732 0
M  V30 9260 N 900.163 1.21714 1.00117 0
M  V30 9261 C 901.574 1.03477 1.55401 0
M  V30 9262 C 901.925 -0.40429 1.91989 0
M  V30 9263 O 901.05 -1.28807 1.7389 0
M  V30 9264 C 901.645 1.87213 2.82377 0
M  V30 9265 C 900.204 1.73297 3.34133 0
M  V30 9266 C 899.351 1.84189 2.07291 0
M  V30 9267 H 902.302 1.3568 0.823195 0
M  V30 9268 H 902.323 1.38465 3.54412 0
M  V30 9269 H 901.835 2.91944 2.55715 0
M  V30 9270 H 899.936 0.712662 3.65721 0
M  V30 9271 H 900.049 2.55486 4.05294 0
M  V30 9272 H 898.413 1.27538 2.20468 0
M  V30 9273 H 899.196 2.90435 1.83037 0
M  V30 9274 N 901.641 -1.19671 1.02551 0
M  V30 9275 C 902.918 -1.85014 0.634771 0
M  V30 9276 C 903.298 -1.91574 -0.886706 0
M  V30 9277 O 902.646 -1.43022 -1.78205 0
M  V30 9278 C 902.856 -3.24167 1.29292 0
M  V30 9279 C 904.204 -4.00363 1.41402 0
M  V30 9280 O 905.228 -3.33553 1.24983 0
M  V30 9281 O 904.087 -5.2003 1.6802 0
M  V30 9282 H 901.181 -0.797147 0.220196 0
M  V30 9283 H 903.727 -1.27188 1.12345 0
M  V30 9284 H 902.499 -3.14208 2.33215 0
M  V30 9285 H 902.122 -3.89634 0.791895 0
M  V30 9286 N 903.119 -0.802921 -1.35613 0
M  V30 9287 C 904.029 -0.212177 -2.33639 0
M  V30 9288 C 905.045 0.642871 -1.61689 0
M  V30 9289 O 906.221 0.555485 -1.93588 0
M  V30 9290 C 903.286 0.632406 -3.40883 0
M  V30 9291 C 902.347 -0.242708 -4.28613 0
M  V30 9292 C 901.58 0.56166 -5.30736 0
M  V30 9293 O 901.803 1.79664 -5.41366 0
M  V30 9294 O 900.737 -0.0455387 -6.01883 0
M  V30 9295 H 904.563 -1.023 -2.85952 0
M  V30 9296 H 902.148 -0.564636 -1.38319 0
M  V30 9297 H 904.03 1.11358 -4.0642 0
M  V30 9298 H 902.705 1.42089 -2.90848 0
M  V30 9299 H 901.612 -0.77094 -3.6607 0
M  V30 9300 H 902.945 -0.995046 -4.82037 0
M  V30 9301 N 904.597 1.47463 -0.556102 0
M  V30 9302 C 905.56 2.28478 0.181743 0
M  V30 9303 C 906.56 1.36886 0.843738 0
M  V30 9304 O 907.75 1.59527 0.69977 0
M  V30 9305 C 904.882 3.16534 1.26566 0
M  V30 9306 H 906.075 2.95182 -0.529892 0
M  V30 9307 H 903.628 1.53134 -0.313005 0
M  V30 9308 H 904.363 2.5452 2.00973 0
M  V30 9309 H 904.148 3.83939 0.795798 0
M  V30 9310 H 905.638 3.77579 1.78393 0
M  V30 9311 N 906.075 0.2925 1.54862 0
M  V30 9312 C 907.3 -0.32494 2.04839 0
M  V30 9313 C 907.725 -1.47381 1.16877 0
M  V30 9314 O 907.083 -1.80492 0.171028 0
M  V30 9315 C 907.131 -0.76694 3.5235 0
M  V30 9316 O 906.235 -1.87256 3.67436 0
M  V30 9317 H 905.576 -0.0645195 0.660858 0
M  V30 9318 H 908.106 0.431867 1.9999 0
M  V30 9319 H 908.116 -1.05804 3.94043 0
M  V30 9320 H 906.791 0.0735212 4.15835 0
M  V30 9321 H 905.368 -1.58266 3.37648 0
M  V30 9322 N 907.553 -1.57587 0.0200696 0
M  V30 9323 C 908.463 -2.13119 -0.980676 0
M  V30 9324 C 909.479 -1.08124 -1.36328 0
M  V30 9325 O 910.655 -1.40134 -1.44653 0
M  V30 9326 C 907.72 -2.63991 -2.24743 0
M  V30 9327 C 906.781 -3.83667 -1.9261 0
M  V30 9328 C 906.014 -4.32103 -3.13246 0
M  V30 9329 O 906.237 -3.79758 -4.25606 0
M  V30 9330 O 905.171 -5.24047 -2.96072 0
M  V30 9331 H 908.997 -2.98887 -0.538528 0
M  V30 9332 H 906.582 -1.48055 -0.19999 0
M  V30 9333 H 908.464 -2.9682 -2.99125 0
M  V30 9334 H 907.139 -1.81311 -2.68157 0
M  V30 9335 H 906.046 -3.55778 -1.15641 0
M  V30 9336 H 907.379 -4.67482 -1.54019 0
M  V30 9337 N 909.032 0.252966 -1.55557 0
M  V30 9338 C 909.995 1.29645 -1.8901 0
M  V30 9339 C 910.995 1.41378 -0.766096 0
M  V30 9340 O 912.185 1.40183 -1.03414 0
M  V30 9341 C 909.317 2.67504 -2.11316 0
M  V30 9342 H 910.51 1.01202 -2.82309 0
M  V30 9343 H 908.063 0.491977 -1.48355 0
M  V30 9344 H 908.798 3.01095 -1.20466 0
M  V30 9345 H 908.583 2.6037 -2.93172 0
M  V30 9346 H 910.073 3.42861 -2.38403 0
M  V30 9347 N 910.51 1.48831 0.518367 0
M  V30 9348 C 911.757 1.57439 1.27355 0
M  V30 9349 C 912.085 0.25338 1.92843 0
M  V30 9350 O 911.34 -0.757323 1.80452 0
M  V30 9351 C 911.639 2.67003 2.3758 0
M  V30 9352 C 911.305 4.09069 1.89667 0
M  V30 9353 C 909.967 4.47733 1.76319 0
M  V30 9354 C 912.319 4.98052 1.53603 0
M  V30 9355 C 909.647 5.73173 1.25258 0
M  V30 9356 C 911.999 6.23992 1.04001 0
M  V30 9357 C 910.663 6.61503 0.892784 0
M  V30 9358 H 909.933 0.57611 0.466023 0
M  V30 9359 H 912.58 1.82595 0.577166 0
M  V30 9360 H 910.885 2.35751 3.12936 0
M  V30 9361 H 912.582 2.70876 2.95681 0
M  V30 9362 H 909.172 3.7854 2.01011 0
M  V30 9363 H 913.356 4.68849 1.62771 0
M  V30 9364 H 908.612 6.0095 1.12557 0
M  V30 9365 H 912.786 6.92331 0.751706 0
M  V30 9366 H 910.413 7.58587 0.494939 0
M  V30 9367 N 911.988 -0.768124 1.37614 0
M  V30 9368 C 913.404 -1.06919 1.18493 0
M  V30 9369 C 913.604 -2.01486 0.0235753 0
M  V30 9370 O 912.66 -2.4438 -0.635209 0
M  V30 9371 C 913.973 -1.66321 2.50515 0
M  V30 9372 C 915.521 -1.78562 2.57069 0
M  V30 9373 C 915.996 -2.41377 3.89231 0
M  V30 9374 N 917.487 -2.48824 3.90693 0
M  V30 9375 C 918.222 -2.98288 4.89706 0
M  V30 9376 N 917.718 -3.47897 5.99115 0
M  V30 9377 N 919.511 -2.97196 4.77107 0
M  V30 9378 H 911.662 -0.140286 2.11936 0
M  V30 9379 H 913.925 -0.124863 0.939741 0
M  V30 9380 H 913.631 -1.04303 3.35878 0
M  V30 9381 H 913.505 -2.65571 2.67866 0
M  V30 9382 H 915.892 -2.39712 1.72111 0
M  V30 9383 H 915.973 -0.780574 2.43599 0
M  V30 9384 H 915.617 -1.80866 4.74605 0
M  V30 9385 H 915.547 -3.42495 4.00006 0
M  V30 9386 H 918.038 -2.1372 3.1166 0
M  V30 9387 H 918.351 -3.84053 6.70614 0
M  V30 9388 H 916.696 -3.45993 6.02755 0
M  V30 9389 H 919.887 -2.57741 3.90752 0
M  V30 9390 H 920.06 -3.35434 5.54426 0
M  V30 9391 N 913.466 -1.22244 -0.994698 0
M  V30 9392 C 914.414 -0.988118 -2.10568 0
M  V30 9393 C 915.408 0.0681541 -1.69263 0
M  V30 9394 O 916.614 -0.0841311 -1.79803 0
M  V30 9395 H 912.989 -0.302343 -0.688544 0
M  V30 9396 H 914.96 -1.93091 -2.27505 0
M  V30 9397 C 913.709 -0.580557 -3.42819 0
M  V30 9398 H 913.032 -1.385 -3.75044 0
M  V30 9399 H 914.472 -0.456004 -4.21541 0
M  V30 9400 C 912.931 0.709692 -3.2934 0
M  V30 9401 O 913.461 1.76259 -3.60965 0
M  V30 9402 N 911.667 0.680155 -2.82528 0
M  V30 9403 H 911.214 -0.176977 -2.56991 0
M  V30 9404 H 911.172 1.54372 -2.73892 0
M  V30 9405 N 914.944 1.19125 -1.03184 0
M  V30 9406 C 916.169 1.93379 -0.749628 0
M  V30 9407 C 916.594 1.75153 0.685785 0
M  V30 9408 O 915.952 1.05579 1.47386 0
M  V30 9409 C 916 3.43101 -1.1097 0
M  V30 9410 O 915.104 4.11758 -0.230053 0
M  V30 9411 H 914.445 0.603605 -0.276689 0
M  V30 9412 H 916.975 1.51116 -1.37931 0
M  V30 9413 H 916.985 3.93778 -1.06785 0
M  V30 9414 H 915.66 3.55688 -2.15544 0
M  V30 9415 H 914.237 3.7143 -0.330748 0
M  V30 9416 N 916.422 0.810101 1.35185 0
M  V30 9417 C 917.647 0.40364 2.03434 0
M  V30 9418 C 918.072 -0.97857 1.60641 0
M  V30 9419 O 917.43 -1.63435 0.784779 0
M  V30 9420 C 917.478 0.499154 3.57129 0
M  V30 9421 O 916.582 -0.486039 4.09526 0
M  V30 9422 H 915.923 0.168049 0.642383 0
M  V30 9423 H 918.453 1.09696 1.72708 0
M  V30 9424 H 918.463 0.370236 4.06317 0
M  V30 9425 H 917.138 1.50733 3.87624 0
M  V30 9426 H 915.715 -0.31707 3.7155 0
M  V30 9427 N 917.9 -1.47166 0.563914 0
M  V30 9428 C 918.833 -2.27058 -0.227989 0
M  V30 9429 C 919.811 -1.34468 -0.914179 0
M  V30 9430 O 920.995 -1.63857 -0.931829 0
M  V30 9431 C 918.122 -3.11689 -1.32543 0
M  V30 9432 C 917.168 -4.19906 -0.747084 0
M  V30 9433 S 918.001 -5.33916 0.41153 0
M  V30 9434 C 919.157 -6.22112 -0.687566 0
M  V30 9435 H 919.39 -2.93876 0.449939 0
M  V30 9436 H 916.923 -1.50372 0.350382 0
M  V30 9437 H 918.881 -3.61017 -1.95389 0
M  V30 9438 H 917.542 -2.44221 -1.97522 0
M  V30 9439 H 916.735 -4.78876 -1.57141 0
M  V30 9440 H 916.337 -3.73493 -0.194671 0
M  V30 9441 H 918.629 -6.58867 -1.578 0
M  V30 9442 H 919.572 -7.07971 -0.135058 0
M  V30 9443 H 919.98 -5.55871 -0.983255 0
M  V30 9444 N 919.378 -0.300708 -1.54705 0
M  V30 9445 C 920.341 0.562648 -2.22187 0
M  V30 9446 C 921.341 1.06152 -1.20782 0
M  V30 9447 O 922.531 0.957596 -1.45519 0
M  V30 9448 C 919.663 1.77899 -2.908 0
M  V30 9449 H 920.856 -0.0269361 -2.99888 0
M  V30 9450 H 918.409 -0.0515412 -1.56215 0
M  V30 9451 H 919.144 2.40841 -2.17177 0
M  V30 9452 H 918.929 1.42892 -3.65136 0
M  V30 9453 H 920.419 2.39236 -3.42281 0
M  V30 9454 N 920.856 1.57574 -0.0284266 0
M  V30 9455 C 921.786 2.1321 0.952039 0
M  V30 9456 C 922.767 1.04806 1.33977 0
M  V30 9457 O 923.952 1.32635 1.41851 0
M  V30 9458 C 921.082 2.65862 2.23461 0
M  V30 9459 C 920.036 3.79047 1.98765 0
M  V30 9460 C 919.362 4.18124 3.33281 0
M  V30 9461 C 920.662 5.05151 1.32739 0
M  V30 9462 H 922.356 2.95385 0.488705 0
M  V30 9463 H 919.902 1.42092 0.233628 0
M  V30 9464 H 921.855 3.03417 2.92431 0
M  V30 9465 H 920.579 1.80848 2.71959 0
M  V30 9466 H 919.238 3.41929 1.32213 0
M  V30 9467 H 918.886 3.30092 3.79537 0
M  V30 9468 H 918.586 4.94396 3.17563 0
M  V30 9469 H 920.11 4.58262 4.0352 0
M  V30 9470 H 921.524 5.40297 1.91708 0
M  V30 9471 H 919.921 5.86416 1.27421 0
M  V30 9472 H 920.991 4.83969 0.300261 0
M  V30 9473 N 922.334 -0.244713 1.55689 0
M  V30 9474 C 923.266 -1.32595 1.86952 0
M  V30 9475 C 924.279 -1.44185 0.755948 0
M  V30 9476 O 925.468 -1.45496 1.03408 0
M  V30 9477 C 922.568 -2.70429 2.04258 0
M  V30 9478 C 921.741 -2.8108 3.35131 0
M  V30 9479 C 920.8 -3.99773 3.42152 0
M  V30 9480 O 919.826 -3.89197 4.15348 0
M  V30 9481 N 921.028 -5.13041 2.71604 0
M  V30 9482 H 923.793 -1.06111 2.80287 0
M  V30 9483 H 921.354 -0.434811 1.55952 0
M  V30 9484 H 923.346 -3.48173 2.06295 0
M  V30 9485 H 921.916 -2.89612 1.17658 0
M  V30 9486 H 921.136 -1.89994 3.45392 0
M  V30 9487 H 922.424 -2.85147 4.21389 0
M  V30 9488 H 921.822 -5.24525 2.11872 0
M  V30 9489 H 920.379 -5.88912 2.79331 0
M  V30 9490 N 923.813 -1.49104 -0.510467 0
M  V30 9491 C 924.745 -1.61183 -1.6295 0
M  V30 9492 C 925.758 -0.495003 -1.55092 0
M  V30 9493 O 926.947 -0.766671 -1.61197 0
M  V30 9494 C 924.047 -1.54373 -3.01699 0
M  V30 9495 C 923.22 -2.81428 -3.34838 0
M  V30 9496 C 922.279 -2.67802 -4.52956 0
M  V30 9497 O 921.305 -3.41723 -4.55208 0
M  V30 9498 N 922.507 -1.78715 -5.52305 0
M  V30 9499 H 925.272 -2.57693 -1.53018 0
M  V30 9500 H 922.833 -1.46073 -0.698152 0
M  V30 9501 H 924.825 -1.42924 -3.78622 0
M  V30 9502 H 923.395 -0.657597 -3.05605 0
M  V30 9503 H 922.615 -3.07299 -2.46903 0
M  V30 9504 H 923.903 -3.6568 -3.53773 0
M  V30 9505 H 923.301 -1.17897 -5.53278 0
M  V30 9506 H 921.858 -1.73194 -6.28369 0
M  V30 9507 N 925.291 0.760815 -1.38019 0
M  V30 9508 C 926.254 1.85604 -1.34476 0
M  V30 9509 C 927.254 1.58897 -0.24666 0
M  V30 9510 O 928.444 1.66776 -0.50314 0
M  V30 9511 C 925.576 3.22945 -1.09176 0
M  V30 9512 H 926.769 1.90155 -2.31908 0
M  V30 9513 H 924.322 0.961746 -1.23208 0
M  V30 9514 H 925.057 3.24066 -0.123216 0
M  V30 9515 H 924.842 3.43723 -1.88672 0
M  V30 9516 H 926.332 4.03022 -1.09375 0
M  V30 9517 N 926.769 1.22769 0.988202 0
M  V30 9518 C 927.719 0.969202 2.06375 0
M  V30 9519 C 928.703 -0.0819274 1.60691 0
M  V30 9520 O 929.895 0.129201 1.76528 0
M  V30 9521 C 927.024 0.553919 3.38802 0
M  V30 9522 C 926.11 1.64003 3.91106 0
M  V30 9523 N 926.501 2.86872 4.16579 0
M  V30 9524 C 924.799 1.5128 4.1956 0
M  V30 9525 C 925.5 3.57137 4.5916 0
M  V30 9526 N 924.476 2.84624 4.63131 0
M  V30 9527 H 928.278 1.90247 2.24017 0
M  V30 9528 H 925.792 1.12592 1.17033 0
M  V30 9529 H 927.789 0.350033 4.15428 0
M  V30 9530 H 926.449 -0.37239 3.22558 0
M  V30 9531 H 927.46 3.23254 4.04632 0
M  V30 9532 H 924.137 0.653032 4.12361 0
M  V30 9533 H 925.527 4.62428 4.87452 0
M  V30 9534 N 928.247 -1.18576 1.03814 0
M  V30 9535 C 929.177 -2.24334 0.647795 0
M  V30 9536 C 930.158 -1.66508 -0.34774 0
M  V30 9537 O 931.343 -1.92852 -0.228401 0
M  V30 9538 C 928.473 -3.47299 0.00734922 0
M  V30 9539 C 927.427 -4.17859 0.926152 0
M  V30 9540 C 926.753 -5.34489 0.150317 0
M  V30 9541 C 928.053 -4.71632 2.24411 0
M  V30 9542 H 929.747 -2.57241 1.53191 0
M  V30 9543 H 927.293 -1.23649 0.738028 0
M  V30 9544 H 929.246 -4.20486 -0.277434 0
M  V30 9545 H 927.97 -3.13619 -0.911626 0
M  V30 9546 H 926.629 -3.46567 1.19528 0
M  V30 9547 H 926.277 -4.97056 -0.770985 0
M  V30 9548 H 925.977 -5.82633 0.762407 0
M  V30 9549 H 927.501 -6.10467 -0.127508 0
M  V30 9550 H 928.915 -5.36526 2.02021 0
M  V30 9551 H 927.312 -5.303 2.80894 0
M  V30 9552 H 928.382 -3.89192 2.89236 0
M  V30 9553 N 929.725 -0.817259 -1.34754 0
M  V30 9554 C 930.655 -0.249769 -2.3216 0
M  V30 9555 C 931.636 0.630663 -1.57977 0
M  V30 9556 O 932.821 0.558719 -1.85989 0
M  V30 9557 C 929.951 0.593825 -3.42186 0
M  V30 9558 C 928.905 -0.188997 -4.27583 0
M  V30 9559 C 928.231 0.776979 -5.29025 0
M  V30 9560 C 929.531 -1.39401 -5.03354 0
M  V30 9561 H 931.225 -1.06359 -2.79872 0
M  V30 9562 H 928.771 -0.512894 -1.34556 0
M  V30 9563 H 930.724 1.00097 -4.09339 0
M  V30 9564 H 929.448 1.44064 -2.93109 0
M  V30 9565 H 928.107 -0.577445 -3.62024 0
M  V30 9566 H 927.755 1.61959 -4.76212 0
M  V30 9567 H 927.455 0.257448 -5.87036 0
M  V30 9568 H 928.979 1.18211 -5.99048 0
M  V30 9569 H 930.393 -1.06117 -5.63393 0
M  V30 9570 H 928.79 -1.84878 -5.70912 0
M  V30 9571 H 929.86 -2.17515 -4.33377 0
M  V30 9572 N 931.203 1.46865 -0.571711 0
M  V30 9573 C 932.15 2.30189 0.167808 0
M  V30 9574 C 933.12 1.3995 0.89461 0
M  V30 9575 O 934.305 1.68905 0.887451 0
M  V30 9576 C 931.445 3.24205 1.1826 0
M  V30 9577 C 930.558 4.2954 0.460376 0
M  V30 9578 C 929.693 5.10693 1.46173 0
M  V30 9579 C 928.732 6.07788 0.725291 0
M  V30 9580 N 927.869 6.81847 1.67417 0
M  V30 9581 H 932.709 2.92902 -0.548831 0
M  V30 9582 H 930.246 1.44362 -0.282474 0
M  V30 9583 H 932.204 3.77147 1.7837 0
M  V30 9584 H 930.834 2.63324 1.86709 0
M  V30 9585 H 929.886 3.79541 -0.255546 0
M  V30 9586 H 931.198 4.98665 -0.115855 0
M  V30 9587 H 930.352 5.67857 2.13595 0
M  V30 9588 H 929.091 4.41502 2.07188 0
M  V30 9589 H 928.096 5.49787 0.037228 0
M  V30 9590 H 929.321 6.78993 0.120678 0
M  V30 9591 H 927.267 6.15376 2.27263 0
M  V30 9592 H 927.184 7.47195 1.15046 0
M  V30 9593 H 928.452 7.43577 2.33908 0
M  V30 9594 N 932.681 0.308908 1.54543 0
M  V30 9595 C 933.629 -0.579326 2.2527 0
M  V30 9596 C 934.623 -1.13058 1.26152 0
M  V30 9597 O 935.829 -1.08031 1.43977 0
M  V30 9598 H 932.204 -0.205444 0.723392 0
M  V30 9599 H 934.175 0.0396415 2.98374 0
M  V30 9600 C 932.924 -1.73584 3.01271 0
M  V30 9601 H 932.247 -1.32089 3.77349 0
M  V30 9602 H 933.687 -2.33324 3.54028 0
M  V30 9603 C 932.146 -2.6447 2.08703 0
M  V30 9604 O 932.676 -3.65785 1.66025 0
M  V30 9605 N 930.882 -2.32379 1.74495 0
M  V30 9606 H 930.429 -1.50034 2.09398 0
M  V30 9607 H 930.387 -2.93454 1.12836 0
M  V30 9608 N 934.159 -1.57557 0.0367827 0
M  V30 9609 C 935.092 -2.06205 -0.977479 0
M  V30 9610 C 936.07 -0.959444 -1.31276 0
M  V30 9611 O 937.254 -1.23033 -1.42811 0
M  V30 9612 C 934.381 -2.49053 -2.29544 0
M  V30 9613 C 933.427 -3.70409 -2.11423 0
M  V30 9614 S 934.26 -5.16715 -1.40593 0
M  V30 9615 C 935.416 -5.62864 -2.73742 0
M  V30 9616 H 935.649 -2.91913 -0.5634 0
M  V30 9617 H 933.182 -1.53404 -0.175111 0
M  V30 9618 H 935.14 -2.74403 -3.05308 0
M  V30 9619 H 933.801 -1.63677 -2.68083 0
M  V30 9620 H 932.994 -3.98262 -3.08875 0
M  V30 9621 H 932.596 -3.4525 -1.438 0
M  V30 9622 H 934.888 -5.67571 -3.69958 0
M  V30 9623 H 935.831 -6.62294 -2.50544 0
M  V30 9624 H 936.239 -4.90539 -2.79341 0
M  V30 9625 N 935.637 0.236453 -1.55816 0
M  V30 9626 C 936.862 0.98449 -1.82545 0
M  V30 9627 C 937.287 1.77755 -0.615206 0
M  V30 9628 O 936.645 1.75982 0.435895 0
M  V30 9629 C 936.693 1.88973 -3.07118 0
M  V30 9630 O 935.797 2.98298 -2.84766 0
M  V30 9631 H 935.138 0.279577 -0.602273 0
M  V30 9632 H 937.668 0.254277 -2.03014 0
M  V30 9633 H 937.678 2.3024 -3.36829 0
M  V30 9634 H 936.353 1.30671 -3.94839 0
M  V30 9635 H 934.93 2.61085 -2.6625 0
M  V30 9636 N 937.115 1.49373 0.502552 0
M  V30 9637 C 938.065 1.62321 1.60112 0
M  V30 9638 C 939.049 0.47895 1.53606 0
M  V30 9639 O 940.241 0.731824 1.61162 0
M  V30 9640 C 937.37 1.69162 2.98729 0
M  V30 9641 C 936.456 2.89161 3.10237 0
M  V30 9642 N 936.847 4.13256 2.91638 0
M  V30 9643 C 935.145 2.87065 3.41335 0
M  V30 9644 C 935.846 4.93913 3.07287 0
M  V30 9645 N 934.822 4.27249 3.36094 0
M  V30 9646 H 938.624 2.55989 1.44384 0
M  V30 9647 H 936.138 1.46123 0.708644 0
M  V30 9648 H 938.135 1.76536 3.77678 0
M  V30 9649 H 936.795 0.766301 3.15528 0
M  V30 9650 H 937.806 4.4326 2.67844 0
M  V30 9651 H 934.483 2.03905 3.6432 0
M  V30 9652 H 935.873 6.02491 2.97413 0
M  V30 9653 N 938.594 -0.753485 1.38421 0
M  V30 9654 C 939.834 -1.52544 1.3605 0
M  V30 9655 C 940.198 -1.91937 -0.0493257 0
M  V30 9656 O 941.399 -2.6807 -0.197908 0
M  V30 9657 C 939.67 -2.74432 2.28958 0
M  V30 9658 S 941.229 -3.64297 2.44607 0
M  V30 9659 H 938.047 -0.522017 0.48272 0
M  V30 9660 H 940.649 -0.884503 1.74347 0
M  V30 9661 H 939.353 -2.43602 3.30282 0
M  V30 9662 H 938.884 -3.43471 1.91811 0
M  V30 9663 H 940.899 -4.67245 1.67022 0
M  V30 9664 N 940.072 -1.23292 -0.981677 0
M  V30 9665 C 941.488 -0.995295 -1.24764 0
M  V30 9666 C 941.688 0.304379 -1.99188 0
M  V30 9667 O 940.744 1.02414 -2.30798 0
M  V30 9668 C 942.057 -2.20135 -2.04844 0
M  V30 9669 C 943.605 -2.24612 -2.17988 0
M  V30 9670 C 944.08 -3.448 -3.01458 0
M  V30 9671 N 945.571 -3.45031 -3.09044 0
M  V30 9672 C 946.306 -4.34683 -3.7395 0
M  V30 9673 N 945.802 -5.34569 -4.4069 0
M  V30 9674 N 947.595 -4.22429 -3.70823 0
M  V30 9675 H 939.746 -2.06834 -0.483052 0
M  V30 9676 H 942.009 -0.906929 -0.276014 0
M  V30 9677 H 941.715 -3.14446 -1.57532 0
M  V30 9678 H 941.589 -2.21115 -3.05594 0
M  V30 9679 H 943.976 -1.30841 -2.64508 0
M  V30 9680 H 944.057 -2.27664 -1.16631 0
M  V30 9681 H 943.701 -4.38877 -2.55635 0
M  V30 9682 H 943.631 -3.38988 -4.02982 0
M  V30 9683 H 946.122 -2.72759 -2.61555 0
M  V30 9684 H 946.435 -5.99236 -4.87991 0
M  V30 9685 H 944.78 -5.3847 -4.39403 0
M  V30 9686 H 947.971 -3.43639 -3.17851 0
M  V30 9687 H 948.144 -4.92501 -4.21126 0
M  V30 9688 N 941.55 1.18024 -1.04442 0
M  V30 9689 C 942.482 2.21294 -0.596799 0
M  V30 9690 C 943.495 1.59305 0.33552 0
M  V30 9691 O 944.684 1.7803 0.129443 0
M  V30 9692 C 941.784 3.38578 0.147648 0
M  V30 9693 C 940.957 4.30143 -0.793484 0
M  V30 9694 C 940.016 5.2612 -0.0916561 0
M  V30 9695 O 939.042 5.64586 -0.72331 0
M  V30 9696 N 940.244 5.68512 1.17364 0
M  V30 9697 H 943.009 2.6032 -1.48504 0
M  V30 9698 H 940.57 1.32847 -0.925374 0
M  V30 9699 H 942.562 3.99812 0.627098 0
M  V30 9700 H 941.132 2.98212 0.937466 0
M  V30 9701 H 940.352 3.66456 -1.45272 0
M  V30 9702 H 941.64 4.88216 -1.43258 0
M  V30 9703 H 941.038 5.39322 1.70729 0
M  V30 9704 H 939.595 6.31925 1.5973 0
M  V30 9705 N 943.028 0.824394 1.34319 0
M  V30 9706 C 944.439 0.471802 1.8064 0
M  V30 9707 C 944.79 -1.00793 1.6833 0
M  V30 9708 O 943.915 -1.78447 1.22416 0
M  V30 9709 C 944.51 0.849609 3.27974 0
M  V30 9710 C 943.069 0.549365 3.72369 0
M  V30 9711 C 942.216 1.06573 2.56003 0
M  V30 9712 H 945.167 1.01443 1.22045 0
M  V30 9713 H 945.188 0.153968 3.80188 0
M  V30 9714 H 944.7 1.92663 3.36902 0
M  V30 9715 H 942.801 -0.518182 3.68979 0
M  V30 9716 H 942.914 1.09446 4.66432 0
M  V30 9717 H 941.278 0.487214 2.49997 0
M  V30 9718 H 942.061 2.14923 2.677 0
M  V30 9719 N 944.506 -1.46559 0.579492 0
M  V30 9720 C 945.731 -2.0729 0.0674595 0
M  V30 9721 C 946.156 -1.4259 -1.22677 0
M  V30 9722 O 945.514 -0.50857 -1.74021 0
M  V30 9723 C 945.562 -3.60492 -0.0882227 0
M  V30 9724 O 944.666 -3.96172 -1.14551 0
M  V30 9725 H 944.007 -0.661159 0.0613536 0
M  V30 9726 H 946.537 -1.88247 0.801519 0
M  V30 9727 H 946.547 -4.06929 -0.295411 0
M  V30 9728 H 945.222 -4.06976 0.856943 0
M  V30 9729 H 943.799 -3.61448 -0.917033 0
M  V30 9730 N 945.984 -0.3171 -1.54377 0
M  V30 9731 C 947.261 0.341348 -1.92598 0
M  V30 9732 C 947.641 1.70402 -1.24605 0
M  V30 9733 O 946.989 2.25191 -0.387448 0
M  V30 9734 C 947.199 0.440003 -3.46215 0
M  V30 9735 C 948.547 0.703327 -4.18734 0
M  V30 9736 O 949.571 0.523181 -3.52337 0
M  V30 9737 O 948.43 1.05042 -5.3631 0
M  V30 9738 H 945.524 0.193696 -0.803997 0
M  V30 9739 H 948.07 -0.366341 -1.65699 0
M  V30 9740 H 946.842 -0.517299 -3.87866 0
M  V30 9741 H 946.465 1.19553 -3.792 0
M  V30 9742 N 947.462 1.57535 -0.0451378 0
M  V30 9743 C 948.687 1.97172 0.64326 0
M  V30 9744 C 949.112 0.922266 1.63939 0
M  V30 9745 O 948.47 -0.115155 1.80934 0
M  V30 9746 C 948.518 3.35889 1.3119 0
M  V30 9747 O 947.622 3.33387 2.42748 0
M  V30 9748 H 946.963 0.642469 0.167719 0
M  V30 9749 H 949.493 2.04295 -0.111747 0
M  V30 9750 H 949.503 3.72481 1.66499 0
M  V30 9751 H 948.178 4.1181 0.581823 0
M  V30 9752 H 946.755 3.08533 2.09432 0
M  V30 9753 N 948.94 -0.228186 1.55939 0
M  V30 9754 C 950.165 -0.974795 1.83064 0
M  V30 9755 C 950.59 -1.77426 0.624624 0
M  V30 9756 O 949.948 -1.76211 -0.426556 0
M  V30 9757 C 949.996 -1.87342 3.08116 0
M  V30 9758 O 949.1 -2.96784 2.86344 0
M  V30 9759 H 948.441 -0.276379 0.603747 0
M  V30 9760 H 950.971 -0.243507 2.03146 0
M  V30 9761 H 950.981 -2.28451 3.38045 0
M  V30 9762 H 949.656 -1.28575 3.95526 0
M  V30 9763 H 948.233 -2.59669 2.67631 0
M  V30 9764 N 950.418 -1.49637 -0.494624 0
M  V30 9765 C 951.664 -1.59681 -1.25019 0
M  V30 9766 C 951.997 -0.285511 -1.9209 0
M  V30 9767 O 951.272 0.711398 -1.81023 0
M  V30 9768 C 951.555 -2.76058 -2.31222 0
M  V30 9769 C 951.408 -4.17002 -1.68611 0
M  V30 9770 C 952.727 -2.88056 -3.32734 0
M  V30 9771 H 949.846 -0.581209 -0.453172 0
M  V30 9772 H 952.488 -1.81944 -0.547391 0
M  V30 9773 H 950.638 -2.57207 -2.91164 0
M  V30 9774 H 952.31 -4.47385 -1.12447 0
M  V30 9775 H 950.553 -4.22352 -0.989991 0
M  V30 9776 H 951.224 -4.94316 -2.45674 0
M  V30 9777 H 953.7 -3.05237 -2.82789 0
M  V30 9778 H 952.576 -3.71151 -4.04399 0
M  V30 9779 H 952.837 -1.97676 -3.95445 0
M  V30 9780 N 951.896 0.746133 -1.38819 0
M  V30 9781 C 953.173 1.49652 -1.25951 0
M  V30 9782 C 953.553 2.10663 0.135833 0
M  V30 9783 O 952.901 1.97682 1.14604 0
M  V30 9784 C 953.111 2.5569 -2.37537 0
M  V30 9785 C 954.459 3.22385 -2.76321 0
M  V30 9786 O 955.483 2.65998 -2.36904 0
M  V30 9787 O 954.342 4.2439 -3.44319 0
M  V30 9788 H 951.436 0.664019 -0.492958 0
M  V30 9789 H 953.982 0.780908 -1.50665 0
M  V30 9790 H 952.754 2.08908 -3.30867 0
M  V30 9791 H 952.377 3.34823 -2.14427 0
M  V30 9792 N 953.375 1.23811 0.975125 0
M  V30 9793 C 954.322 1.02394 2.06843 0
M  V30 9794 C 955.292 -0.060337 1.6599 0
M  V30 9795 O 956.477 0.0928187 1.90574 0
M  V30 9796 C 953.617 0.626882 3.39359 0
M  V30 9797 C 952.73 1.78385 3.9345 0
M  V30 9798 C 951.865 1.33307 5.14201 0
M  V30 9799 C 950.904 2.46045 5.60471 0
M  V30 9800 N 950.041 2.01888 6.72448 0
M  V30 9801 H 954.881 1.95973 2.24496 0
M  V30 9802 H 952.418 0.976206 1.10039 0
M  V30 9803 H 954.376 0.377742 4.15486 0
M  V30 9804 H 953.006 -0.271907 3.21653 0
M  V30 9805 H 952.058 2.14685 3.14029 0
M  V30 9806 H 953.37 2.63122 4.23755 0
M  V30 9807 H 952.524 1.04237 5.97678 0
M  V30 9808 H 951.263 0.456143 4.85562 0
M  V30 9809 H 950.268 2.75884 4.75571 0
M  V30 9810 H 951.493 3.34283 5.91127 0
M  V30 9811 H 949.439 1.16583 6.45558 0
M  V30 9812 H 949.356 2.80182 7.02164 0
M  V30 9813 H 950.624 1.75937 7.59386 0
M  V30 9814 N 954.853 -1.17469 1.05066 0
M  V30 9815 C 956.1 -1.87698 0.759987 0
M  V30 9816 C 956.428 -1.80964 -0.712902 0
M  V30 9817 O 955.683 -1.21146 -1.53695 0
M  V30 9818 C 955.982 -3.37211 1.18421 0
M  V30 9819 C 955.648 -3.64148 2.65909 0
M  V30 9820 C 954.31 -3.71209 3.06199 0
M  V30 9821 C 956.662 -3.75724 3.61222 0
M  V30 9822 C 953.99 -3.87334 4.40669 0
M  V30 9823 C 956.342 -3.93368 4.95424 0
M  V30 9824 C 955.006 -3.98667 5.3537 0
M  V30 9825 H 954.276 -0.686835 0.278099 0
M  V30 9826 H 956.923 -1.38975 1.31751 0
M  V30 9827 H 955.228 -3.87982 0.545654 0
M  V30 9828 H 956.925 -3.89911 0.936518 0
M  V30 9829 H 953.515 -3.59276 2.33707 0
M  V30 9830 H 957.699 -3.69591 3.31235 0
M  V30 9831 H 952.955 -3.89685 4.71122 0
M  V30 9832 H 957.129 -4.01267 5.69173 0
M  V30 9833 H 954.756 -4.10915 6.39572 0
M  V30 9834 N 956.331 -0.831506 -1.3388 0
M  V30 9835 C 957.577 -0.424302 -1.98312 0
M  V30 9836 C 957.91 1.01211 -1.65741 0
M  V30 9837 O 957.185 1.70636 -0.933464 0
M  V30 9838 C 957.468 -0.636815 -3.54424 0
M  V30 9839 C 957.321 -2.11997 -3.96708 0
M  V30 9840 C 958.64 -0.0782411 -4.4003 0
M  V30 9841 H 955.759 -0.155637 -0.720379 0
M  V30 9842 H 958.401 -1.04566 -1.58638 0
M  V30 9843 H 956.551 -0.107907 -3.8835 0
M  V30 9844 H 958.223 -2.71317 -3.73075 0
M  V30 9845 H 956.466 -2.60723 -3.46707 0
M  V30 9846 H 957.137 -2.21944 -5.05416 0
M  V30 9847 H 959.613 -0.530243 -4.12708 0
M  V30 9848 H 958.489 -0.256676 -5.483 0
M  V30 9849 H 958.75 1.01745 -4.30233 0
M  V30 9850 N 957.809 1.4625 -0.587256 0
M  V30 9851 C 958.739 2.33132 0.131076 0
M  V30 9852 C 959.72 1.45619 0.879158 0
M  V30 9853 O 960.905 1.74428 0.853723 0
M  V30 9854 C 958.035 3.27975 1.14236 0
M  V30 9855 C 956.989 4.24965 0.508819 0
M  V30 9856 C 956.315 5.09349 1.62689 0
M  V30 9857 C 957.615 5.19322 -0.55694 0
M  V30 9858 H 959.309 2.93442 -0.594333 0
M  V30 9859 H 956.855 1.41106 -0.287263 0
M  V30 9860 H 958.808 3.87614 1.65328 0
M  V30 9861 H 957.532 2.65781 1.8981 0
M  V30 9862 H 956.191 3.66595 0.0189337 0
M  V30 9863 H 955.839 4.43537 2.37242 0
M  V30 9864 H 955.539 5.75036 1.20861 0
M  V30 9865 H 957.063 5.71852 2.14049 0
M  V30 9866 H 958.477 5.73151 -0.130903 0
M  V30 9867 H 956.874 5.93376 -0.895801 0
M  V30 9868 H 957.944 4.62979 -1.44148 0
M  V30 9869 N 959.287 0.325282 1.54207 0
M  V30 9870 C 960.703 -0.0273036 1.59577 0
M  V30 9871 C 960.903 -1.50329 1.34177 0
M  V30 9872 O 959.959 -2.25951 1.12705 0
M  V30 9873 C 961.272 0.392468 2.98128 0
M  V30 9874 C 962.82 0.343269 3.11112 0
M  V30 9875 C 963.295 0.738229 4.52011 0
M  V30 9876 N 964.786 0.691701 4.58006 0
M  V30 9877 C 965.521 0.969479 5.65145 0
M  V30 9878 N 965.017 1.31448 6.80216 0
M  V30 9879 N 966.81 0.894926 5.5493 0
M  V30 9880 H 958.961 1.28692 1.68974 0
M  V30 9881 H 961.224 0.523399 0.790416 0
M  V30 9882 H 960.93 1.42089 3.2172 0
M  V30 9883 H 960.804 -0.241651 3.76425 0
M  V30 9884 H 963.191 -0.675946 2.87254 0
M  V30 9885 H 963.272 1.01235 2.34915 0
M  V30 9886 H 962.916 1.75537 4.76602 0
M  V30 9887 H 962.846 0.0468226 5.26579 0
M  V30 9888 H 965.337 0.436975 3.75365 0
M  V30 9889 H 965.65 1.51177 7.57869 0
M  V30 9890 H 963.995 1.35276 6.81708 0
M  V30 9891 H 967.186 0.624876 4.6391 0
M  V30 9892 H 967.359 1.11476 6.38339 0
M  V30 9893 N 960.765 -1.57509 0.0534917 0
M  V30 9894 C 962.042 -1.84137 -0.659767 0
M  V30 9895 C 962.422 -0.942362 -1.88899 0
M  V30 9896 O 961.77 -0.00398566 -2.285 0
M  V30 9897 C 961.98 -3.33919 -1.01486 0
M  V30 9898 C 963.328 -4.00989 -1.39616 0
M  V30 9899 O 964.352 -3.38557 -1.10713 0
M  V30 9900 O 963.211 -5.11071 -1.93567 0
M  V30 9901 H 960.305 -0.760081 -0.325893 0
M  V30 9902 H 962.851 -1.69497 0.0830315 0
M  V30 9903 H 961.623 -3.91046 -0.141041 0
M  V30 9904 H 961.246 -3.53755 -1.81503 0
M  V30 9905 N 962.243 0.219913 -1.56058 0
M  V30 9906 C 963.153 1.29349 -1.95719 0
M  V30 9907 C 964.169 1.5119 -0.861248 0
M  V30 9908 O 965.345 1.64289 -1.16495 0
M  V30 9909 C 962.41 2.6229 -2.26726 0
M  V30 9910 C 961.471 2.48738 -3.49897 0
M  V30 9911 C 960.704 3.75339 -3.79416 0
M  V30 9912 O 960.927 4.78427 -3.10586 0
M  V30 9913 O 959.861 3.72352 -4.72903 0
M  V30 9914 H 963.687 0.986979 -2.87215 0
M  V30 9915 H 961.272 0.42291 -1.43289 0
M  V30 9916 H 963.154 3.408 -2.47857 0
M  V30 9917 H 961.829 2.92619 -1.38404 0
M  V30 9918 H 960.736 1.68422 -3.34043 0
M  V30 9919 H 962.069 2.23347 -4.38608 0
M  V30 9920 N 963.721 1.49897 0.486681 0
M  V30 9921 C 964.684 1.67086 1.56891 0
M  V30 9922 C 965.684 0.54209 1.51387 0
M  V30 9923 O 966.874 0.80883 1.54284 0
M  V30 9924 C 964.006 1.68159 2.96539 0
M  V30 9925 H 965.199 2.63626 1.42974 0
M  V30 9926 H 962.752 1.39143 0.711954 0
M  V30 9927 H 963.487 0.732562 3.15918 0
M  V30 9928 H 963.272 2.50147 3.01942 0
M  V30 9929 H 964.762 1.83466 3.7514 0
M  V30 9930 N 965.199 -0.738761 1.39212 0
M  V30 9931 C 966.427 -1.52801 1.39497 0
M  V30 9932 C 966.842 -1.88797 -0.0114917 0
M  V30 9933 O 966.199 -1.53835 -0.981887 0
M  V30 9934 C 966.25 -2.81793 2.2644 0
M  V30 9935 O 965.971 -2.47328 3.61608 0
M  V30 9936 C 967.472 -3.75844 2.35067 0
M  V30 9937 H 964.692 -0.472322 0.476606 0
M  V30 9938 H 967.236 -0.913153 1.8298 0
M  V30 9939 H 965.391 -3.3962 1.8638 0
M  V30 9940 H 965.805 -3.30162 4.07545 0
M  V30 9941 H 967.279 -4.6326 3.00157 0
M  V30 9942 H 967.756 -4.17329 1.3687 0
M  V30 9943 H 968.362 -3.23937 2.75581 0
M  V30 9944 N 966.677 -1.24326 -0.968545 0
M  V30 9945 C 967.587 -1.05194 -2.09694 0
M  V30 9946 C 968.603 0.00701291 -1.73999 0
M  V30 9947 O 969.779 -0.190981 -2.00492 0
M  V30 9948 C 966.844 -0.658075 -3.40397 0
M  V30 9949 C 965.905 -1.79341 -3.90045 0
M  V30 9950 C 965.138 -1.41824 -5.14511 0
M  V30 9951 O 965.361 -0.307693 -5.69569 0
M  V30 9952 O 964.295 -2.24358 -5.58522 0
M  V30 9953 H 968.121 -1.99791 -2.2873 0
M  V30 9954 H 965.706 -1.03138 -1.08088 0
M  V30 9955 H 967.588 -0.449911 -4.18991 0
M  V30 9956 H 966.263 0.258782 -3.22664 0
M  V30 9957 H 965.17 -2.05632 -3.12516 0
M  V30 9958 H 966.503 -2.68901 -4.12254 0
M  V30 9959 N 968.156 1.1691 -1.05688 0
M  V30 9960 C 969.567 1.68915 -0.795273 0
M  V30 9961 C 969.918 1.83968 0.681925 0
M  V30 9962 O 969.043 1.53083 1.52953 0
M  V30 9963 C 969.638 3.06814 -1.43703 0
M  V30 9964 C 968.197 3.55965 -1.22335 0
M  V30 9965 C 967.344 2.32099 -1.51741 0
M  V30 9966 H 970.295 1.01357 -1.22116 0
M  V30 9967 H 970.316 3.70907 -0.849016 0
M  V30 9968 H 969.828 2.95826 -2.51214 0
M  V30 9969 H 967.929 3.72222 -0.16771 0
M  V30 9970 H 968.042 4.38427 -1.9318 0
M  V30 9971 H 966.406 2.36811 -0.937696 0
M  V30 9972 H 967.189 2.23715 -2.60397 0
M  V30 9973 N 969.634 0.838594 1.33437 0
M  V30 9974 C 970.882 0.433312 1.974 0
M  V30 9975 C 971.203 -1.01078 1.66758 0
M  V30 9976 O 970.473 -1.70406 0.966373 0
M  V30 9977 H 969.053 0.15724 0.730263 0
M  V30 9978 H 971.715 1.07149 1.62804 0
M  V30 9979 H 970.811 0.565144 3.06941 0
M  V30 9980 N 971.112 -1.45937 0.595003 0
M  V30 9981 C 972.389 -1.95592 0.0178748 0
M  V30 9982 C 972.769 -1.53758 -1.44643 0
M  V30 9983 O 972.117 -0.794104 -2.14257 0
M  V30 9984 C 972.327 -3.4841 0.202789 0
M  V30 9985 C 973.675 -4.2453 0.0770121 0
M  V30 9986 O 974.699 -3.55954 0.132257 0
M  V30 9987 O 973.558 -5.46479 -0.0484271 0
M  V30 9988 H 970.652 -0.825888 -0.0428702 0
M  V30 9989 H 973.198 -1.56162 0.664184 0
M  V30 9990 H 971.97 -3.71787 1.22027 0
M  V30 9991 H 971.593 -3.947 -0.479376 0
M  V30 9992 N 972.59 -0.333456 -1.54032 0
M  V30 9993 C 973.522 0.562174 -2.22199 0
M  V30 9994 C 974.535 1.07202 -1.22522 0
M  V30 9995 O 975.724 0.983897 -1.48935 0
M  V30 9996 C 972.824 1.78525 -2.88066 0
M  V30 9997 C 971.997 1.41242 -4.13968 0
M  V30 9998 C 971.056 2.49408 -4.63338 0
M  V30 9999 O 970.082 2.13138 -5.27789 0
M  V30 10000 N 971.284 3.805 -4.38406 0
M  V30 10001 H 974.049 -0.0215629 -2.99692 0
M  V30 10002 H 971.61 -0.157111 -1.61136 0
M  V30 10003 H 973.602 2.50298 -3.18014 0
M  V30 10004 H 972.172 2.2766 -2.14219 0
M  V30 10005 H 971.392 0.525887 -3.90676 0
M  V30 10006 H 972.68 1.13916 -4.95884 0
M  V30 10007 H 972.078 4.12761 -3.86839 0
M  V30 10008 H 970.635 4.48474 -4.72984 0
M  V30 10009 N 974.068 1.57479 -0.061844 0
M  V30 10010 C 974.978 2.15645 0.923826 0
M  V30 10011 C 975.994 1.117 1.33413 0
M  V30 10012 O 977.17 1.4392 1.40887 0
M  V30 10013 C 974.235 2.69857 2.17665 0
M  V30 10014 C 973.296 3.88638 1.8237 0
M  V30 10015 C 972.529 4.40256 3.01679 0
M  V30 10016 O 972.752 3.90908 4.15388 0
M  V30 10017 O 971.686 5.31713 2.82073 0
M  V30 10018 H 975.512 3.0021 0.459094 0
M  V30 10019 H 973.097 1.48534 0.160665 0
M  V30 10020 H 974.979 3.04647 2.9115 0
M  V30 10021 H 973.654 1.88357 2.63255 0
M  V30 10022 H 972.561 3.58719 1.06167 0
M  V30 10023 H 973.894 4.71401 1.4157 0
M  V30 10024 N 975.546 -0.211634 1.56173 0
M  V30 10025 C 976.494 -1.28188 1.94089 0
M  V30 10026 C 977.488 -1.47999 0.824167 0
M  V30 10027 O 978.694 -1.49056 1.00907 0
M  V30 10028 H 975.069 -0.42999 0.616938 0
M  V30 10029 H 977.04 -0.934962 2.83374 0
M  V30 10030 C 975.789 -2.62294 2.28248 0
M  V30 10031 H 975.112 -2.4786 3.13696 0
M  V30 10032 H 976.552 -3.35967 2.58655 0
M  V30 10033 C 975.011 -3.18049 1.11113 0
M  V30 10034 O 975.541 -3.99923 0.377458 0
M  V30 10035 N 973.747 -2.76561 0.892321 0
M  V30 10036 H 973.294 -2.10088 1.49067 0
M  V30 10037 H 973.252 -3.14206 0.110344 0
M  V30 10038 N 977.024 -1.50153 -0.478725 0
M  V30 10039 C 977.971 -1.68458 -1.57767 0
M  V30 10040 C 978.941 -0.5259 -1.57555 0
M  V30 10041 O 980.126 -0.755574 -1.75202 0
M  V30 10042 C 977.266 -1.77772 -2.95789 0
M  V30 10043 C 976.379 -3.05092 -3.05848 0
M  V30 10044 C 975.514 -3.05247 -4.34739 0
M  V30 10045 C 974.553 -4.27053 -4.38512 0
M  V30 10046 N 973.69 -4.24991 -5.58862 0
M  V30 10047 H 978.53 -2.62282 -1.41464 0
M  V30 10048 H 976.067 -1.30023 -0.687921 0
M  V30 10049 H 978.025 -1.81152 -3.75819 0
M  V30 10050 H 976.655 -0.873944 -3.10744 0
M  V30 10051 H 975.707 -3.11219 -2.1874 0
M  V30 10052 H 977.019 -3.95075 -3.04495 0
M  V30 10053 H 976.173 -3.07314 -5.23109 0
M  V30 10054 H 974.912 -2.13081 -4.38689 0
M  V30 10055 H 973.917 -4.25206 -3.4854 0
M  V30 10056 H 975.142 -5.20437 -4.36259 0
M  V30 10057 H 973.088 -3.35674 -5.63612 0
M  V30 10058 H 973.005 -5.08734 -5.59219 0
M  V30 10059 H 974.273 -4.31193 -6.49379 0
M  V30 10060 N 978.502 0.731368 -1.39602 0
M  V30 10061 C 979.913 1.30981 -1.33045 0
M  V30 10062 C 980.264 1.962 0.00349918 0
M  V30 10063 O 979.389 1.96539 0.905615 0
M  V30 10064 C 979.984 2.3817 -2.40958 0
M  V30 10065 C 978.543 2.91678 -2.3791 0
M  V30 10066 C 977.69 1.65286 -2.22656 0
M  V30 10067 H 980.641 0.528615 -1.49637 0
M  V30 10068 H 980.662 3.18645 -2.07955 0
M  V30 10069 H 980.174 1.90673 -3.38032 0
M  V30 10070 H 978.275 3.43446 -1.44485 0
M  V30 10071 H 978.388 3.44545 -3.32904 0
M  V30 10072 H 976.752 1.89759 -1.69893 0
M  V30 10073 H 977.535 1.19836 -3.21705 0
M  V30 10074 N 979.98 1.24838 0.961938 0
M  V30 10075 C 981.22 1.10348 1.72054 0
M  V30 10076 C 981.584 -0.350775 1.88769 0
M  V30 10077 O 982.785 -0.617323 2.61615 0
M  V30 10078 C 981.056 1.82916 3.07045 0
M  V30 10079 S 982.615 1.84227 3.98253 0
M  V30 10080 H 979.433 0.394552 0.591481 0
M  V30 10081 H 982.035 1.58254 1.14786 0
M  V30 10082 H 980.739 2.87829 2.92545 0
M  V30 10083 H 980.27 1.35366 3.69377 0
M  V30 10084 H 982.285 0.914073 4.87708 0
M  V30 10085 N 981.458 -1.16348 1.06306 0
M  V30 10086 C 982.874 -1.38873 0.786543 0
M  V30 10087 C 983.074 -1.91915 -0.614061 0
M  V30 10088 O 982.13 -2.11804 -1.3746 0
M  V30 10089 C 983.443 -2.36936 1.85154 0
M  V30 10090 C 984.991 -2.5062 1.87506 0
M  V30 10091 C 985.466 -3.51965 2.9306 0
M  V30 10092 N 986.957 -3.59492 2.92095 0
M  V30 10093 C 987.692 -4.37699 3.70415 0
M  V30 10094 N 987.188 -5.19327 4.58553 0
M  V30 10095 N 988.981 -4.32683 3.58806 0
M  V30 10096 H 981.132 -0.802542 1.96655 0
M  V30 10097 H 983.395 -0.415304 0.852189 0
M  V30 10098 H 983.101 -2.05056 2.85736 0
M  V30 10099 H 982.975 -3.36585 1.70267 0
M  V30 10100 H 985.362 -2.81804 0.875827 0
M  V30 10101 H 985.443 -1.51006 2.06472 0
M  V30 10102 H 985.087 -3.21518 3.93177 0
M  V30 10103 H 985.017 -4.51309 2.71344 0
M  V30 10104 H 987.508 -3.01222 2.28197 0
M  V30 10105 H 987.821 -5.76216 5.1497 0
M  V30 10106 H 986.166 -5.1867 4.62608 0
M  V30 10107 H 989.357 -3.67971 2.89335 0
M  V30 10108 H 989.53 -4.93386 4.20088 0
M  V30 10109 N 982.937 -0.845659 -1.3299 0
M  V30 10110 C 984.186 -0.440928 -1.96822 0
M  V30 10111 C 984.499 1.00668 -1.67706 0
M  V30 10112 O 985.705 1.51641 -2.25205 0
M  V30 10113 C 984.161 -0.73752 -3.52262 0
M  V30 10114 C 983.769 -2.20026 -3.90247 0
M  V30 10115 C 985.513 -0.400072 -4.22611 0
M  V30 10116 C 983.42 -2.44054 -5.38694 0
M  V30 10117 H 982.35 -0.161148 -0.736578 0
M  V30 10118 H 985.001 -1.03519 -1.51513 0
M  V30 10119 H 983.383 -0.0728025 -3.95933 0
M  V30 10120 H 984.557 -2.90602 -3.57613 0
M  V30 10121 H 982.872 -2.50135 -3.32899 0
M  V30 10122 H 985.469 -0.557136 -5.3179 0
M  V30 10123 H 985.812 0.657547 -4.11074 0
M  V30 10124 H 986.345 -1.0203 -3.84493 0
M  V30 10125 H 983.084 -3.48407 -5.55241 0
M  V30 10126 H 982.604 -1.78047 -5.72765 0
M  V30 10127 H 984.283 -2.27549 -6.05665 0
M  V30 10128 N 984.415 1.45619 -0.602734 0
M  V30 10129 C 985.362 2.30493 0.118944 0
M  V30 10130 C 986.332 1.41816 0.864723 0
M  V30 10131 O 987.517 1.7075 0.851424 0
M  V30 10132 C 984.657 3.2664 1.11356 0
M  V30 10133 C 983.77 4.3042 0.369161 0
M  V30 10134 C 982.905 5.13678 1.35307 0
M  V30 10135 C 981.944 6.09189 0.596207 0
M  V30 10136 N 981.081 6.85245 1.52916 0
M  V30 10137 H 985.921 2.91672 -0.610836 0
M  V30 10138 H 983.458 1.43731 -0.313032 0
M  V30 10139 H 985.416 3.80846 1.7033 0
M  V30 10140 H 984.046 2.67225 1.81081 0
M  V30 10141 H 983.098 3.78913 -0.335994 0
M  V30 10142 H 984.41 4.98307 -0.221603 0
M  V30 10143 H 983.564 5.7226 2.01502 0
M  V30 10144 H 982.303 4.45798 1.97777 0
M  V30 10145 H 981.308 5.49743 -0.0793984 0
M  V30 10146 H 982.533 6.79096 -0.0233734 0
M  V30 10147 H 980.479 6.20058 2.14159 0
M  V30 10148 H 980.396 7.49467 0.991713 0
M  V30 10149 H 981.664 7.48371 2.18083 0
M  V30 10150 N 985.893 0.34162 1.53853 0
M  V30 10151 C 987.141 -0.254979 2.00485 0
M  V30 10152 C 987.462 -1.51222 1.23114 0
M  V30 10153 O 986.732 -1.92966 0.337787 0
M  V30 10154 H 985.312 -0.0972084 0.740648 0
M  V30 10155 H 987.974 0.462332 1.89337 0
M  V30 10156 H 987.07 -0.498778 3.08089 0
M  V30 10157 N 987.371 -1.57444 0.0701946 0
M  V30 10158 C 988.648 -1.84826 -0.6402 0
M  V30 10159 C 989.028 -0.962344 -1.87889 0
M  V30 10160 O 988.376 -0.0282209 -2.28483 0
M  V30 10161 C 988.586 -3.34976 -0.979382 0
M  V30 10162 C 989.934 -4.02448 -1.35355 0
M  V30 10163 O 990.958 -3.39713 -1.07116 0
M  V30 10164 O 989.817 -5.13096 -1.88136 0
M  V30 10165 H 986.911 -0.763494 -0.317813 0
M  V30 10166 H 989.457 -1.69399 0.101004 0
M  V30 10167 H 988.229 -3.91173 -0.0995576 0
M  V30 10168 H 987.852 -3.5566 -1.7774 0
M  V30 10169 N 988.849 0.203349 -1.56283 0
M  V30 10170 C 990.098 0.92315 -1.79334 0
M  V30 10171 C 990.411 1.84765 -0.641977 0
M  V30 10172 O 991.617 2.60745 -0.756584 0
M  V30 10173 C 990.073 1.69184 -3.17655 0
M  V30 10174 C 989.681 0.812581 -4.40569 0
M  V30 10175 C 991.425 2.40177 -3.50022 0
M  V30 10176 C 989.332 1.57967 -5.69913 0
M  V30 10177 H 988.262 0.348442 -0.668659 0
M  V30 10178 H 990.913 0.1766 -1.82648 0
M  V30 10179 H 989.295 2.48197 -3.08568 0
M  V30 10180 H 990.469 0.0616956 -4.60759 0
M  V30 10181 H 988.784 0.21389 -4.1585 0
M  V30 10182 H 991.381 2.98103 -4.4389 0
M  V30 10183 H 991.724 3.13961 -2.73376 0
M  V30 10184 H 992.257 1.68138 -3.6052 0
M  V30 10185 H 988.996 0.884767 -6.49501 0
M  V30 10186 H 988.516 2.3047 -5.53754 0
M  V30 10187 H 990.195 2.13562 -6.10737 0
M  V30 10188 N 990.327 1.50405 0.470755 0
M  V30 10189 C 991.575 1.61092 1.2204 0
M  V30 10190 C 991.896 0.313487 1.92464 0
M  V30 10191 O 991.166 -0.669043 1.84121 0
M  V30 10192 H 989.746 0.593618 0.45346 0
M  V30 10193 H 992.408 1.87184 0.542985 0
M  V30 10194 H 991.504 2.42222 1.96812 0
M  V30 10195 N 991.805 -0.723954 1.39988 0
M  V30 10196 C 992.737 -1.84859 1.35498 0
M  V30 10197 C 993.75 -1.60681 0.261812 0
M  V30 10198 O 994.939 -1.7071 0.521566 0
M  V30 10199 C 992.039 -3.21103 1.08381 0
M  V30 10200 C 991.212 -3.72546 2.2919 0
M  V30 10201 C 990.271 -4.8738 1.9836 0
M  V30 10202 O 989.297 -5.00467 2.71149 0
M  V30 10203 N 990.499 -5.72566 0.956461 0
M  V30 10204 H 993.264 -1.89212 2.3242 0
M  V30 10205 H 990.825 -0.905152 1.34233 0
M  V30 10206 H 992.817 -3.9551 0.857564 0
M  V30 10207 H 991.387 -3.1195 0.201549 0
M  V30 10208 H 990.607 -2.89365 2.67697 0
M  V30 10209 H 991.895 -4.03652 3.09746 0
M  V30 10210 H 991.293 -5.64595 0.353444 0
M  V30 10211 H 989.85 -6.46993 0.790118 0
M  V30 10212 N 993.283 -1.25346 -0.955304 0
M  V30 10213 C 994.508 -1.12892 -1.73983 0
M  V30 10214 C 994.933 0.313455 -1.8547 0
M  V30 10215 O 994.291 1.22706 -1.33465 0
M  V30 10216 C 994.339 -1.78729 -3.1319 0
M  V30 10217 O 993.443 -1.06648 -3.98372 0
M  V30 10218 H 992.784 -0.394178 -0.534341 0
M  V30 10219 H 995.314 -1.65897 -1.19747 0
M  V30 10220 H 995.324 -1.84987 -3.63653 0
M  V30 10221 H 993.999 -2.83669 -3.04146 0
M  V30 10222 H 992.576 -1.08266 -3.56837 0
M  V30 10223 N 994.761 1.15782 -1.06922 0
M  V30 10224 C 995.989 1.90355 -0.81072 0
M  V30 10225 C 996.404 1.77779 0.635614 0
M  V30 10226 O 995.761 1.12675 1.43564 0
M  V30 10227 C 995.812 3.4085 -1.2043 0
M  V30 10228 O 995.533 3.53057 -2.59388 0
M  V30 10229 C 997.034 4.32457 -0.974473 0
M  V30 10230 H 994.254 0.60343 -0.293451 0
M  V30 10231 H 996.798 1.46723 -1.42452 0
M  V30 10232 H 994.953 3.82162 -0.634909 0
M  V30 10233 H 995.367 4.46426 -2.75326 0
M  V30 10234 H 996.841 5.36488 -1.29942 0
M  V30 10235 H 997.318 4.39109 0.0894481 0
M  V30 10236 H 997.924 3.96882 -1.52856 0
M  V30 10237 N 996.239 0.8527 1.3254 0
M  V30 10238 C 997.516 0.376491 1.91942 0
M  V30 10239 C 997.896 -1.13972 1.7769 0
M  V30 10240 O 997.244 -1.96047 1.17379 0
M  V30 10241 C 997.454 0.838694 3.38773 0
M  V30 10242 C 998.802 0.854736 4.15908 0
M  V30 10243 O 999.826 0.783203 3.47483 0
M  V30 10244 O 998.685 0.955207 5.38087 0
M  V30 10245 H 995.779 0.109412 0.81973 0
M  V30 10246 H 998.325 0.93947 1.41322 0
M  V30 10247 H 997.097 1.88179 3.43081 0
M  V30 10248 H 996.72 0.253055 3.96794 0
M  V30 10249 N 997.718 -1.45297 0.610449 0
M  V30 10250 C 998.995 -1.95562 0.0386189 0
M  V30 10251 C 999.375 -1.55284 -1.43004 0
M  V30 10252 O 998.723 -0.816785 -2.13403 0
M  V30 10253 C 998.933 -3.48176 0.239731 0
M  V30 10254 C 1000.28 -4.24425 0.122035 0
M  V30 10255 O 1001.3 -3.55794 0.170003 0
M  V30 10256 O 1000.16 -5.46499 0.00953695 0
M  V30 10257 H 997.258 -0.826296 -0.0341081 0
M  V30 10258 H 999.804 -1.55449 0.68071 0
M  V30 10259 H 998.576 -3.70471 1.25963 0
M  V30 10260 H 998.199 -3.95186 -0.437486 0
M  V30 10261 N 999.196 -0.349774 -1.5367 0
M  V30 10262 C 1000.47 0.300419 -1.93279 0
M  V30 10263 C 1000.85 1.67721 -1.28191 0
M  V30 10264 O 1000.2 2.24319 -0.435127 0
M  V30 10265 C 1000.41 0.366466 -3.47071 0
M  V30 10266 C 1001.76 0.614349 -4.20132 0
M  V30 10267 O 1002.78 0.448327 -3.53367 0
M  V30 10268 O 1001.64 0.936421 -5.38417 0
M  V30 10269 H 998.736 0.176599 -0.807924 0
M  V30 10270 H 1001.28 -0.401405 -1.64884 0
M  V30 10271 H 1000.05 -0.599455 -3.86681 0
M  V30 10272 H 999.677 1.11482 -3.81651 0
M  V30 10273 N 1000.67 1.57404 -0.0785433 0
M  V30 10274 C 1001.9 1.98492 0.601292 0
M  V30 10275 C 1002.32 0.956832 1.61945 0
M  V30 10276 O 1001.68 -0.0767502 1.81137 0
M  V30 10277 C 1001.73 3.38596 1.24036 0
M  V30 10278 O 1000.83 3.38461 2.35622 0
M  V30 10279 H 1000.17 0.645882 0.154054 0
M  V30 10280 H 1002.7 2.04012 -0.155056 0
M  V30 10281 H 1002.71 3.75929 1.5856 0
M  V30 10282 H 1001.39 4.12952 0.494341 0
M  V30 10283 H 999.967 3.12906 2.02841 0
M  V30 10284 N 1002.15 -0.195058 1.56388 0
M  V30 10285 C 1003.11 -1.2254 1.93692 0
M  V30 10286 C 1004.11 -1.38437 0.81804 0
M  V30 10287 O 1005.3 -1.36248 1.08545 0
M  V30 10288 C 1002.44 -2.59476 2.21099 0
M  V30 10289 H 1003.63 -0.906544 2.8587 0
M  V30 10290 H 1001.18 -0.436577 1.50079 0
M  V30 10291 H 1001.92 -2.96417 1.31558 0
M  V30 10292 H 1001.7 -2.4931 3.02634 0
M  V30 10293 H 1003.19 -3.33777 2.50964 0
M  V30 10294 N 1003.63 -1.50653 -0.462772 0
M  V30 10295 C 1005.04 -1.54821 -1.04342 0
M  V30 10296 C 1005.39 -0.356595 -1.92932 0
M  V30 10297 O 1004.52 0.529579 -2.0982 0
M  V30 10298 C 1005.11 -2.80571 -1.89909 0
M  V30 10299 C 1003.67 -2.87394 -2.43067 0
M  V30 10300 C 1002.82 -2.49206 -1.21621 0
M  V30 10301 H 1005.77 -1.56797 -0.245048 0
M  V30 10302 H 1005.79 -2.62897 -2.75074 0
M  V30 10303 H 1005.3 -3.67281 -1.25405 0
M  V30 10304 H 1003.4 -2.05055 -3.111 0
M  V30 10305 H 1003.52 -3.90477 -2.77605 0
M  V30 10306 H 1001.88 -2.01829 -1.55361 0
M  V30 10307 H 1002.66 -3.38233 -0.587669 0
M  V30 10308 N 1005.11 0.71652 -1.4037 0
M  V30 10309 C 1006.04 1.84345 -1.43315 0
M  V30 10310 C 1007.02 1.67537 -0.294186 0
M  V30 10311 O 1008.2 1.87582 -0.502671 0
M  V30 10312 C 1005.33 3.2229 -1.29408 0
M  V30 10313 C 1004.29 3.53769 -2.40897 0
M  V30 10314 C 1003.61 4.90847 -2.12068 0
M  V30 10315 C 1004.91 3.54862 -3.83237 0
M  V30 10316 H 1006.61 1.82138 -2.37626 0
M  V30 10317 H 1004.15 0.874873 -1.14376 0
M  V30 10318 H 1006.11 4.00819 -1.30085 0
M  V30 10319 H 1004.83 3.2507 -0.31573 0
M  V30 10320 H 1003.49 2.77579 -2.39469 0
M  V30 10321 H 1003.14 4.90229 -1.12626 0
M  V30 10322 H 1002.84 5.12875 -2.86762 0
M  V30 10323 H 1004.36 5.71711 -2.14426 0
M  V30 10324 H 1005.78 4.23432 -3.86494 0
M  V30 10325 H 1004.17 3.88416 -4.57442 0
M  V30 10326 H 1005.24 2.54266 -4.12888 0
M  V30 10327 N 1006.59 1.25851 0.948643 0
M  V30 10328 C 1007.83 1.11119 1.69648 0
M  V30 10329 C 1008.17 -0.345995 1.91093 0
M  V30 10330 O 1007.44 -1.25467 1.48621 0
M  V30 10331 C 1007.72 1.87261 3.0758 0
M  V30 10332 C 1007.58 3.40842 2.93507 0
M  V30 10333 C 1008.9 1.6605 4.07573 0
M  V30 10334 H 1006.01 0.405052 0.615713 0
M  V30 10335 H 1008.66 1.54756 1.10229 0
M  V30 10336 H 1006.81 1.50172 3.58303 0
M  V30 10337 H 1008.48 3.87641 2.50064 0
M  V30 10338 H 1006.72 3.68248 2.29294 0
M  V30 10339 H 1007.39 3.89339 3.91305 0
M  V30 10340 H 1009.87 1.98348 3.65783 0
M  V30 10341 H 1008.74 2.21753 5.02113 0
M  V30 10342 H 1009.01 0.603256 4.37965 0
M  V30 10343 N 1008.06 -1.15214 1.07534 0
M  V30 10344 C 1009.01 -2.18022 0.667108 0
M  V30 10345 C 1010 -1.57911 -0.308714 0
M  V30 10346 O 1011.19 -1.76578 -0.122147 0
M  V30 10347 C 1008.32 -3.43232 0.0684348 0
M  V30 10348 C 1007.41 -4.10393 1.06951 0
M  V30 10349 N 1007.8 -4.53013 2.24973 0
M  V30 10350 C 1006.09 -4.36758 0.903262 0
M  V30 10351 C 1006.8 -5.05118 2.88498 0
M  V30 10352 N 1005.77 -4.98777 2.16153 0
M  V30 10353 H 1009.57 -2.48706 1.56597 0
M  V30 10354 H 1007.09 -1.31801 0.948796 0
M  V30 10355 H 1009.08 -4.16197 -0.241934 0
M  V30 10356 H 1007.74 -3.14031 -0.825525 0
M  V30 10357 H 1008.76 -4.4634 2.6268 0
M  V30 10358 H 1005.43 -4.17453 0.0623543 0
M  V30 10359 H 1006.82 -5.48039 3.8872 0
M  V30 10360 N 1009.54 -0.859717 -1.32086 0
M  V30 10361 C 1010.78 -0.471939 -1.98877 0
M  V30 10362 C 1011.15 0.955689 -1.66525 0
M  V30 10363 O 1012.35 1.44829 -2.26447 0
M  V30 10364 C 1010.62 -0.710016 -3.50276 0
M  V30 10365 S 1012.18 -0.420566 -4.3678 0
M  V30 10366 H 1009 -0.176588 -0.688722 0
M  V30 10367 H 1011.6 -1.11352 -1.60689 0
M  V30 10368 H 1010.3 -1.74803 -3.71311 0
M  V30 10369 H 1009.83 -0.0550429 -3.93361 0
M  V30 10370 H 1011.85 0.751362 -4.90478 0
M  V30 10371 N 1011.02 1.44971 -0.618145 0
M  V30 10372 C 1012.27 2.02458 -0.117656 0
M  V30 10373 C 1012.6 1.48413 1.25248 0
M  V30 10374 O 1011.87 0.662997 1.82851 0
M  V30 10375 C 1012.16 3.59987 -0.0901897 0
M  V30 10376 C 1012.01 4.24343 -1.49175 0
M  V30 10377 C 1013.33 4.36099 0.592121 0
M  V30 10378 H 1010.45 0.735672 -0.0442291 0
M  V30 10379 H 1013.09 1.727 -0.792138 0
M  V30 10380 H 1011.24 3.85471 0.484175 0
M  V30 10381 H 1012.91 4.10009 -2.114 0
M  V30 10382 H 1011.16 3.82337 -2.04941 0
M  V30 10383 H 1011.83 5.33298 -1.42468 0
M  V30 10384 H 1014.3 4.1597 0.103813 0
M  V30 10385 H 1013.18 5.45822 0.580481 0
M  V30 10386 H 1013.44 4.09746 1.66015 0
M  V30 10387 N 1012.5 0.357919 1.53482 0
M  V30 10388 C 1013.91 0.00655107 1.59599 0
M  V30 10389 C 1014.11 -1.47449 1.37336 0
M  V30 10390 O 1013.17 -2.2351 1.17472 0
M  V30 10391 C 1014.48 0.455617 2.97228 0
M  V30 10392 C 1016.03 0.409183 3.10314 0
M  V30 10393 C 1016.51 0.833941 4.50344 0
M  V30 10394 N 1018 0.788695 4.56436 0
M  V30 10395 C 1018.73 1.08914 5.62961 0
M  V30 10396 N 1018.23 1.45847 6.77274 0
M  V30 10397 N 1020.02 1.01243 5.52907 0
M  V30 10398 H 1012.17 1.32248 1.66206 0
M  V30 10399 H 1014.44 0.540047 0.779136 0
M  V30 10400 H 1014.14 1.48881 3.18634 0
M  V30 10401 H 1014.02 -0.161751 3.76853 0
M  V30 10402 H 1016.4 -0.614863 2.88623 0
M  V30 10403 H 1016.48 1.06195 2.32715 0
M  V30 10404 H 1016.13 1.85607 4.72771 0
M  V30 10405 H 1016.06 0.158507 5.26361 0
M  V30 10406 H 1018.55 0.516497 3.74354 0
M  V30 10407 H 1018.86 1.67218 7.54492 0
M  V30 10408 H 1017.21 1.49705 6.78685 0
M  V30 10409 H 1020.4 0.723137 4.62481 0
M  V30 10410 H 1020.57 1.24991 6.35831 0
M  V30 10411 N 1013.98 -1.5736 0.0868897 0
M  V30 10412 C 1014.91 -2.16596 -0.872252 0
M  V30 10413 C 1015.89 -1.09706 -1.29995 0
M  V30 10414 O 1017.07 -1.37808 -1.36831 0
M  V30 10415 C 1014.2 -2.73972 -2.1344 0
M  V30 10416 C 1013.16 -3.86163 -1.8456 0
M  V30 10417 C 1012.48 -4.30206 -3.17533 0
M  V30 10418 C 1013.78 -5.0973 -1.13899 0
M  V30 10419 H 1015.48 -2.96995 -0.378738 0
M  V30 10420 H 1013.02 -1.42861 -0.18073 0
M  V30 10421 H 1014.98 -3.14062 -2.80968 0
M  V30 10422 H 1013.7 -1.90817 -2.6506 0
M  V30 10423 H 1012.36 -3.466 -1.19432 0
M  V30 10424 H 1012.01 -3.43951 -3.67024 0
M  V30 10425 H 1011.71 -5.05841 -2.98996 0
M  V30 10426 H 1013.23 -4.72922 -3.86234 0
M  V30 10427 H 1014.64 -5.4704 -1.71523 0
M  V30 10428 H 1013.04 -5.90741 -1.05569 0
M  V30 10429 H 1014.11 -4.8475 -0.120432 0
M  V30 10430 N 1015.45 0.186762 -1.56489 0
M  V30 10431 C 1016.38 1.23395 -1.98232 0
M  V30 10432 C 1017.37 1.4702 -0.855526 0
M  V30 10433 O 1018.55 1.58616 -1.12048 0
M  V30 10434 C 1015.68 2.57635 -2.32898 0
M  V30 10435 C 1014.63 2.48607 -3.48394 0
M  V30 10436 C 1013.96 3.87196 -3.68759 0
M  V30 10437 C 1015.26 2.00398 -4.82325 0
M  V30 10438 H 1016.95 0.887026 -2.85958 0
M  V30 10439 H 1014.5 0.42525 -1.37578 0
M  V30 10440 H 1016.45 3.31082 -2.60696 0
M  V30 10441 H 1015.18 2.94084 -1.42064 0
M  V30 10442 H 1013.84 1.77615 -3.207 0
M  V30 10443 H 1013.48 4.21012 -2.75241 0
M  V30 10444 H 1013.18 3.82029 -4.46462 0
M  V30 10445 H 1014.71 4.62253 -3.98941 0
M  V30 10446 H 1016.12 2.6361 -5.091 0
M  V30 10447 H 1014.52 2.06214 -5.63556 0
M  V30 10448 H 1015.59 0.957562 -4.75351 0
M  V30 10449 N 1016.93 1.50896 0.454776 0
M  V30 10450 C 1018.16 1.66759 1.23313 0
M  V30 10451 C 1018.58 0.35722 1.84677 0
M  V30 10452 O 1017.94 -0.680771 1.68033 0
M  V30 10453 C 1017.99 2.77254 2.3057 0
M  V30 10454 O 1017.09 2.39642 3.35627 0
M  V30 10455 H 1016.43 0.556599 0.362068 0
M  V30 10456 H 1018.96 1.97365 0.539274 0
M  V30 10457 H 1018.97 3.0082 2.75629 0
M  V30 10458 H 1017.65 3.72349 1.85281 0
M  V30 10459 H 1016.23 2.26584 2.96165 0
M  V30 10460 N 1018.41 -0.709066 1.40748 0
M  V30 10461 C 1019.37 -1.80485 1.41272 0
M  V30 10462 C 1020.37 -1.57872 0.305463 0
M  V30 10463 O 1021.56 -1.64793 0.564691 0
M  V30 10464 C 1018.7 -3.1867 1.21087 0
M  V30 10465 H 1019.89 -1.81417 2.38805 0
M  V30 10466 H 1017.44 -0.915356 1.26692 0
M  V30 10467 H 1018.18 -3.23385 0.243406 0
M  V30 10468 H 1017.96 -3.36484 2.01299 0
M  V30 10469 H 1019.45 -3.98685 1.24257 0
M  V30 10470 N 1019.89 -1.26353 -0.941956 0
M  V30 10471 C 1021.11 -1.14731 -1.72776 0
M  V30 10472 C 1021.54 0.293766 -1.85792 0
M  V30 10473 O 1020.9 1.21284 -1.34759 0
M  V30 10474 C 1020.95 -1.82041 -3.11277 0
M  V30 10475 O 1020.05 -1.10867 -3.97218 0
M  V30 10476 H 1019.39 -0.399823 -0.53013 0
M  V30 10477 H 1021.92 -1.67157 -1.17981 0
M  V30 10478 H 1021.93 -1.88834 -3.61671 0
M  V30 10479 H 1020.61 -2.86879 -3.0112 0
M  V30 10480 H 1019.18 -1.12044 -3.55669 0
M  V30 10481 N 1021.37 1.14642 -1.08144 0
M  V30 10482 C 1022.61 1.85617 -0.809484 0
M  V30 10483 C 1022.94 1.8279 0.664672 0
M  V30 10484 O 1022.2 1.25178 1.50429 0
M  V30 10485 C 1022.5 3.33953 -1.2732 0
M  V30 10486 C 1022.16 3.56969 -2.7547 0
M  V30 10487 C 1020.82 3.6296 -3.15933 0
M  V30 10488 C 1023.18 3.66014 -3.71057 0
M  V30 10489 C 1020.5 3.75515 -4.50783 0
M  V30 10490 C 1022.86 3.80094 -5.05679 0
M  V30 10491 C 1021.52 3.84333 -5.45751 0
M  V30 10492 H 1020.79 0.67922 -0.296211 0
M  V30 10493 H 1023.44 1.35433 -1.35389 0
M  V30 10494 H 1021.74 3.86399 -0.648329 0
M  V30 10495 H 1023.44 3.87291 -1.03957 0
M  V30 10496 H 1020.03 3.52953 -2.4315 0
M  V30 10497 H 1024.21 3.60679 -3.40917 0
M  V30 10498 H 1019.47 3.77057 -4.81288 0
M  V30 10499 H 1023.64 3.86035 -5.79612 0
M  V30 10500 H 1021.27 3.93814 -6.50242 0
M  V30 10501 N 1022.85 0.866709 1.31628 0
M  V30 10502 C 1023.78 0.335762 2.31073 0
M  V30 10503 C 1024.76 -0.571597 1.60209 0
M  V30 10504 O 1025.94 -0.489306 1.87935 0
M  V30 10505 C 1023.07 -0.466416 3.44154 0
M  V30 10506 C 1022.03 0.347561 4.26586 0
M  V30 10507 C 1021.35 -0.5801 5.31544 0
M  V30 10508 C 1022.65 1.57986 4.97833 0
M  V30 10509 H 1024.35 1.16673 2.75731 0
M  V30 10510 H 1021.89 0.56248 1.3256 0
M  V30 10511 H 1023.84 -0.84836 4.12772 0
M  V30 10512 H 1022.57 -1.33086 2.98254 0
M  V30 10513 H 1021.23 0.71141 3.59631 0
M  V30 10514 H 1020.88 -1.44174 4.81895 0
M  V30 10515 H 1020.58 -0.0393965 5.87587 0
M  V30 10516 H 1022.1 -0.958958 6.03023 0
M  V30 10517 H 1023.51 1.26954 5.59067 0
M  V30 10518 H 1021.91 2.05939 5.63657 0
M  V30 10519 H 1022.98 2.3345 4.25005 0
M  V30 10520 N 1024.32 -1.44642 0.625825 0
M  V30 10521 C 1025.25 -2.33397 -0.0692188 0
M  V30 10522 C 1026.23 -1.47898 -0.840241 0
M  V30 10523 O 1027.42 -1.7663 -0.807176 0
M  V30 10524 C 1024.55 -3.30888 -1.055 0
M  V30 10525 C 1023.5 -4.26164 -0.395968 0
M  V30 10526 C 1022.83 -5.13483 -1.49128 0
M  V30 10527 C 1024.13 -5.17663 0.694433 0
M  V30 10528 H 1025.82 -2.91763 0.671925 0
M  V30 10529 H 1023.37 -1.40294 0.324573 0
M  V30 10530 H 1025.32 -3.91861 -1.54993 0
M  V30 10531 H 1024.05 -2.7072 -1.82696 0
M  V30 10532 H 1022.71 -3.66516 0.0782691 0
M  V30 10533 H 1022.35 -4.49672 -2.25399 0
M  V30 10534 H 1022.05 -5.78038 -1.05573 0
M  V30 10535 H 1023.58 -5.77327 -1.98813 0
M  V30 10536 H 1024.99 -5.72602 0.282818 0
M  V30 10537 H 1023.39 -5.90793 1.05281 0
M  V30 10538 H 1024.46 -4.58994 1.56372 0
M  V30 10539 N 1025.8 -0.366053 -1.5329 0
M  V30 10540 C 1027.03 0.224236 -2.05681 0
M  V30 10541 C 1027.44 1.42412 -1.23952 0
M  V30 10542 O 1026.8 1.80334 -0.280309 0
M  V30 10543 C 1026.85 0.617266 -3.56191 0
M  V30 10544 O 1026.57 -0.534931 -4.34822 0
M  V30 10545 C 1028.07 1.26589 -4.24841 0
M  V30 10546 H 1025.29 0.0392928 -0.669849 0
M  V30 10547 H 1027.84 -0.52456 -1.97658 0
M  V30 10548 H 1025.99 1.31598 -3.64364 0
M  V30 10549 H 1026.41 -0.217123 -5.2405 0
M  V30 10550 H 1027.88 1.49146 -5.31469 0
M  V30 10551 H 1028.36 2.22633 -3.78591 0
M  V30 10552 H 1028.96 0.6086 -4.20923 0
M  V30 10553 N 1027.28 1.57312 -0.0952337 0
M  V30 10554 C 1028.53 1.93974 0.567319 0
M  V30 10555 C 1028.85 0.977805 1.68713 0
M  V30 10556 O 1028.12 0.0298944 1.95877 0
M  V30 10557 H 1026.7 0.71612 0.212558 0
M  V30 10558 H 1029.36 1.94254 -0.158598 0
M  V30 10559 H 1028.46 2.964 0.977423 0
M  V30 10560 N 1028.76 -0.17846 1.56586 0
M  V30 10561 C 1030.01 -0.894464 1.81228 0
M  V30 10562 C 1030.33 -1.83089 0.671062 0
M  V30 10563 O 1029.6 -1.93439 -0.309557 0
M  V30 10564 H 1028.18 -0.333288 0.668527 0
M  V30 10565 H 1030.84 -0.179986 1.94067 0
M  V30 10566 H 1029.93 -1.47565 2.75011 0
M  V30 10567 N 1030.24 -1.51135 -0.446768 0
M  V30 10568 C 1031.18 -1.71767 -1.54158 0
M  V30 10569 C 1032.15 -0.559201 -1.56404 0
M  V30 10570 O 1033.34 -0.792567 -1.7356 0
M  V30 10571 C 1030.48 -1.84006 -2.91952 0
M  V30 10572 C 1029.59 -3.11511 -2.99308 0
M  V30 10573 C 1028.73 -3.144 -4.28166 0
M  V30 10574 C 1027.76 -4.36258 -4.29355 0
M  V30 10575 N 1026.9 -4.3675 -5.49722 0
M  V30 10576 H 1031.74 -2.65224 -1.35869 0
M  V30 10577 H 1029.28 -1.31453 -0.660186 0
M  V30 10578 H 1031.24 -1.89083 -3.71892 0
M  V30 10579 H 1029.87 -0.939661 -3.08821 0
M  V30 10580 H 1028.92 -3.15788 -2.12089 0
M  V30 10581 H 1030.23 -4.01445 -2.96047 0
M  V30 10582 H 1029.38 -3.18341 -5.16473 0
M  V30 10583 H 1028.12 -2.22338 -4.3407 0
M  V30 10584 H 1027.13 -4.32503 -3.39442 0
M  V30 10585 H 1028.35 -5.29574 -4.25122 0
M  V30 10586 H 1026.3 -3.47554 -5.56365 0
M  V30 10587 H 1026.22 -5.20481 -5.48302 0
M  V30 10588 H 1027.48 -4.4487 -6.40086 0
M  V30 10589 N 1031.71 0.701592 -1.41122 0
M  V30 10590 C 1032.66 1.83691 -1.4269 0
M  V30 10591 C 1033.66 1.6662 -0.305658 0
M  V30 10592 O 1034.86 1.73554 -0.477392 0
M  V30 10593 H 1031.24 0.605222 -0.44633 0
M  V30 10594 H 1033.21 1.79485 -2.38386 0
M  V30 10595 C 1031.96 3.21666 -1.32008 0
M  V30 10596 H 1031.28 3.35416 -2.17569 0
M  V30 10597 H 1032.72 4.012 -1.37165 0
M  V30 10598 C 1031.18 3.36885 -0.0317678 0
M  V30 10599 O 1031.71 3.90885 0.925836 0
M  V30 10600 N 1029.91 2.90569 0.0423401 0
M  V30 10601 H 1029.46 2.46812 -0.737673 0
M  V30 10602 H 1029.42 3.0113 0.903764 0
M  V30 10603 N 1033.19 1.2685 0.935242 0
M  V30 10604 C 1034.44 1.12912 1.6846 0
M  V30 10605 C 1034.77 -0.325708 1.91449 0
M  V30 10606 O 1034.05 -1.23884 1.49944 0
M  V30 10607 C 1034.33 1.90513 3.05576 0
M  V30 10608 C 1034.18 3.43936 2.89876 0
M  V30 10609 C 1035.5 1.70363 4.05789 0
M  V30 10610 H 1032.62 0.411559 0.611382 0
M  V30 10611 H 1035.26 1.55917 1.08582 0
M  V30 10612 H 1033.41 1.53963 3.5669 0
M  V30 10613 H 1035.08 3.90272 2.45939 0
M  V30 10614 H 1033.33 3.70659 2.25376 0
M  V30 10615 H 1034 3.93467 3.87153 0
M  V30 10616 H 1036.47 2.02217 3.63659 0
M  V30 10617 H 1035.35 2.27066 4.99732 0
M  V30 10618 H 1035.61 0.649674 4.373 0
M  V30 10619 N 1034.67 -1.14067 1.0875 0
M  V30 10620 C 1035.6 -2.21385 0.74236 0
M  V30 10621 C 1036.58 -1.67833 -0.276805 0
M  V30 10622 O 1037.77 -1.93647 -0.1464 0
M  V30 10623 C 1034.9 -3.46956 0.154644 0
M  V30 10624 C 1033.85 -4.13555 1.10255 0
M  V30 10625 C 1033.18 -5.3337 0.376877 0
M  V30 10626 C 1034.48 -4.6169 2.44213 0
M  V30 10627 H 1036.17 -2.50512 1.63964 0
M  V30 10628 H 1033.72 -1.20408 0.789807 0
M  V30 10629 H 1035.67 -4.21284 -0.0988419 0
M  V30 10630 H 1034.39 -3.17203 -0.777789 0
M  V30 10631 H 1033.05 -3.41186 1.34119 0
M  V30 10632 H 1032.7 -4.99879 -0.559472 0
M  V30 10633 H 1032.4 -5.78875 1.00884 0
M  V30 10634 H 1033.92 -6.10458 0.131527 0
M  V30 10635 H 1035.34 -5.27475 2.24595 0
M  V30 10636 H 1033.74 -5.17909 3.03134 0
M  V30 10637 H 1034.81 -3.76574 3.05483 0
M  V30 10638 N 1036.15 -0.873678 -1.31166 0
M  V30 10639 C 1037.39 -0.487178 -1.96861 0
M  V30 10640 C 1037.73 0.95887 -1.68877 0
M  V30 10641 O 1037 1.6758 -0.987279 0
M  V30 10642 C 1037.29 -0.74925 -3.52219 0
M  V30 10643 C 1037.14 -2.2451 -3.89763 0
M  V30 10644 C 1038.46 -0.218194 -4.39559 0
M  V30 10645 H 1035.58 -0.178477 -0.715063 0
M  V30 10646 H 1038.22 -1.0956 -1.55231 0
M  V30 10647 H 1036.37 -0.231403 -3.8781 0
M  V30 10648 H 1038.04 -2.83049 -3.64254 0
M  V30 10649 H 1036.28 -2.71621 -3.38237 0
M  V30 10650 H 1036.95 -2.37911 -4.98099 0
M  V30 10651 H 1039.43 -0.661274 -4.10812 0
M  V30 10652 H 1038.31 -0.430983 -5.47205 0
M  V30 10653 H 1038.57 0.880056 -4.33252 0
M  V30 10654 N 1037.63 1.44308 -0.633487 0
M  V30 10655 C 1039.04 1.85387 -0.221009 0
M  V30 10656 C 1039.39 1.5301 1.22811 0
M  V30 10657 O 1038.51 0.969325 1.93476 0
M  V30 10658 C 1039.11 3.36497 -0.394331 0
M  V30 10659 C 1037.67 3.76382 -0.0363405 0
M  V30 10660 C 1036.81 2.68146 -0.706598 0
M  V30 10661 H 1039.77 1.34741 -0.83849 0
M  V30 10662 H 1039.79 3.78735 0.366026 0
M  V30 10663 H 1039.3 3.60031 -1.44911 0
M  V30 10664 H 1037.4 3.58463 1.01661 0
M  V30 10665 H 1037.51 4.77 -0.448045 0
M  V30 10666 H 1035.88 2.54306 -0.14168 0
M  V30 10667 H 1036.66 2.94512 -1.76401 0
M  V30 10668 N 1039.1 0.374177 1.53094 0
M  V30 10669 C 1040.38 -0.269632 1.93733 0
M  V30 10670 C 1040.76 -1.6566 1.30843 0
M  V30 10671 O 1040.11 -2.23598 0.470759 0
M  V30 10672 C 1040.32 -0.311204 3.4761 0
M  V30 10673 C 1041.67 -0.547432 4.21056 0
M  V30 10674 O 1042.69 -0.392053 3.54036 0
M  V30 10675 O 1041.55 -0.850645 5.39839 0
M  V30 10676 H 1038.64 -0.163723 0.810632 0
M  V30 10677 H 1041.19 0.427586 1.64225 0
M  V30 10678 H 1039.96 0.660897 3.85678 0
M  V30 10679 H 1039.59 -1.05397 3.83376 0
M  V30 10680 N 1040.58 -1.57259 0.103575 0
M  V30 10681 C 1042 -1.57581 -0.253062 0
M  V30 10682 C 1042.2 -1.11531 -1.67819 0
M  V30 10683 O 1041.25 -0.795632 -2.39637 0
M  V30 10684 C 1042.57 -3.00681 -0.0337753 0
M  V30 10685 C 1044.12 -3.12837 -0.10087 0
M  V30 10686 C 1044.59 -4.57911 0.0905295 0
M  V30 10687 N 1046.08 -4.63186 0.0359789 0
M  V30 10688 C 1046.82 -5.73179 0.159199 0
M  V30 10689 N 1046.31 -6.91976 0.337728 0
M  V30 10690 N 1048.11 -5.62011 0.0998662 0
M  V30 10691 H 1040.26 -1.85499 1.0346 0
M  V30 10692 H 1042.52 -0.856584 0.406163 0
M  V30 10693 H 1042.23 -3.38602 0.950858 0
M  V30 10694 H 1042.1 -3.69207 -0.772406 0
M  V30 10695 H 1044.49 -2.74783 -1.07601 0
M  V30 10696 H 1044.57 -2.46886 0.66939 0
M  V30 10697 H 1044.21 -4.9666 1.06258 0
M  V30 10698 H 1044.14 -5.21933 -0.699528 0
M  V30 10699 H 1046.63 -3.7777 -0.099121 0
M  V30 10700 H 1046.95 -7.71641 0.423032 0
M  V30 10701 H 1045.29 -6.93996 0.373504 0
M  V30 10702 H 1048.48 -4.68084 -0.0385356 0
M  V30 10703 H 1048.65 -6.47693 0.199342 0
M  V30 10704 N 1042.06 0.170153 -1.56679 0
M  V30 10705 C 1043.34 0.913938 -1.72935 0
M  V30 10706 C 1043.72 2.00342 -0.665293 0
M  V30 10707 O 1043.07 2.26252 0.319715 0
M  V30 10708 C 1043.28 1.47761 -3.16177 0
M  V30 10709 C 1044.62 1.95007 -3.7717 0
M  V30 10710 O 1045.65 1.57552 -3.19462 0
M  V30 10711 O 1044.51 2.64007 -4.78501 0
M  V30 10712 H 1041.6 0.43027 -0.706256 0
M  V30 10713 H 1044.15 0.157891 -1.68964 0
M  V30 10714 H 1042.92 0.69352 -3.85105 0
M  V30 10715 H 1042.54 2.2978 -3.24479 0
M  V30 10716 N 1043.54 1.5137 0.438746 0
M  V30 10717 C 1044.78 1.64211 1.19006 0
M  V30 10718 C 1045.12 0.356607 1.90898 0
M  V30 10719 O 1044.39 -0.643722 1.83539 0
M  V30 10720 C 1044.68 2.8445 2.20817 0
M  V30 10721 C 1044.53 4.22972 1.53018 0
M  V30 10722 C 1045.85 3.00207 3.21813 0
M  V30 10723 H 1042.97 0.597628 0.431288 0
M  V30 10724 H 1045.61 1.8385 0.479487 0
M  V30 10725 H 1043.76 2.67836 2.81418 0
M  V30 10726 H 1045.43 4.5125 0.957654 0
M  V30 10727 H 1043.67 4.25736 0.832556 0
M  V30 10728 H 1044.34 5.03094 2.27158 0
M  V30 10729 H 1046.82 3.15522 2.71266 0
M  V30 10730 H 1045.7 3.85904 3.90345 0
M  V30 10731 H 1045.96 2.12216 3.87836 0
M  V30 10732 N 1045.02 -0.694098 1.41492 0
M  V30 10733 C 1046.43 -1.00487 1.23994 0
M  V30 10734 C 1046.63 -2.01078 0.130346 0
M  V30 10735 O 1045.69 -2.47403 -0.504775 0
M  V30 10736 C 1047 -1.52808 2.58979 0
M  V30 10737 C 1048.55 -1.64684 2.66173 0
M  V30 10738 C 1049.02 -2.20406 4.01479 0
M  V30 10739 N 1050.52 -2.27765 4.03333 0
M  V30 10740 C 1051.25 -2.7191 5.04829 0
M  V30 10741 N 1050.75 -3.1565 6.16714 0
M  V30 10742 N 1052.54 -2.71487 4.9219 0
M  V30 10743 H 1044.69 -0.027746 2.12382 0
M  V30 10744 H 1046.95 -0.0748741 0.945039 0
M  V30 10745 H 1046.66 -0.863519 3.40934 0
M  V30 10746 H 1046.53 -2.50998 2.81566 0
M  V30 10747 H 1048.92 -2.30251 1.84576 0
M  V30 10748 H 1049 -0.65035 2.47395 0
M  V30 10749 H 1048.65 -1.55454 4.83525 0
M  V30 10750 H 1048.58 -3.2081 4.17599 0
M  V30 10751 H 1051.07 -1.96899 3.22551 0
M  V30 10752 H 1051.38 -3.47966 6.90029 0
M  V30 10753 H 1049.72 -3.13555 6.20248 0
M  V30 10754 H 1052.92 -2.36666 4.03865 0
M  V30 10755 H 1053.09 -3.05573 5.71427 0
M  V30 10756 N 1046.49 -1.27344 -0.928501 0
M  V30 10757 C 1047.74 -1.13804 -1.67859 0
M  V30 10758 C 1048.07 0.31555 -1.91619 0
M  V30 10759 O 1047.35 1.23087 -1.50599 0
M  V30 10760 C 1047.63 -1.9213 -3.04562 0
M  V30 10761 C 1047.48 -3.45468 -2.88048 0
M  V30 10762 C 1048.8 -1.72513 -4.04879 0
M  V30 10763 H 1045.92 -0.414796 -0.609191 0
M  V30 10764 H 1048.56 -1.5649 -1.07753 0
M  V30 10765 H 1046.71 -1.55853 -3.55868 0
M  V30 10766 H 1048.39 -3.9157 -2.43865 0
M  V30 10767 H 1046.63 -3.71849 -2.23407 0
M  V30 10768 H 1047.3 -3.95515 -3.85061 0
M  V30 10769 H 1049.78 -2.04143 -3.62581 0
M  V30 10770 H 1048.65 -2.29713 -4.98521 0
M  V30 10771 H 1048.91 -0.672856 -4.3695 0
M  V30 10772 N 1047.97 1.13488 -1.09353 0
M  V30 10773 C 1049.2 1.89133 -0.85108 0
M  V30 10774 C 1049.62 1.78542 0.591976 0
M  V30 10775 O 1048.98 1.13243 1.41583 0
M  V30 10776 C 1049.03 3.36736 -1.29001 0
M  V30 10777 O 1048.13 4.09959 -0.447993 0
M  V30 10778 H 1047.47 0.58809 -0.308296 0
M  V30 10779 H 1050 1.43593 -1.45747 0
M  V30 10780 H 1050.01 3.87564 -1.27508 0
M  V30 10781 H 1048.69 3.43762 -2.34095 0
M  V30 10782 H 1047.27 3.69155 -0.52717 0
M  V30 10783 N 1049.45 0.880621 1.30701 0
M  V30 10784 C 1050.7 0.497611 1.966 0
M  V30 10785 C 1051.03 -0.949901 1.69383 0
M  V30 10786 O 1050.31 -1.67054 0.996152 0
M  V30 10787 C 1050.59 0.767919 3.51817 0
M  V30 10788 C 1050.44 2.26574 3.88567 0
M  V30 10789 C 1051.76 0.241502 4.39437 0
M  V30 10790 H 1048.88 0.182267 0.714106 0
M  V30 10791 H 1051.52 1.10382 1.54648 0
M  V30 10792 H 1049.67 0.251967 3.87682 0
M  V30 10793 H 1051.34 2.84977 3.62748 0
M  V30 10794 H 1049.59 2.73411 3.36792 0
M  V30 10795 H 1050.26 2.40549 4.9683 0
M  V30 10796 H 1052.73 0.683051 4.10455 0
M  V30 10797 H 1051.61 0.459997 5.46969 0
M  V30 10798 H 1051.87 -0.857068 4.33713 0
M  V30 10799 N 1050.93 -1.4397 0.641131 0
M  V30 10800 C 1051.88 -2.30728 -0.0577905 0
M  V30 10801 C 1052.85 -1.44059 -0.826819 0
M  V30 10802 O 1054.03 -1.72947 -0.805853 0
M  V30 10803 C 1051.17 -3.29478 -1.02657 0
M  V30 10804 C 1050.28 -4.31247 -0.254913 0
M  V30 10805 C 1049.42 -5.17085 -1.2164 0
M  V30 10806 C 1048.46 -6.10556 -0.434481 0
M  V30 10807 N 1047.6 -6.89059 -1.34694 0
M  V30 10808 H 1052.44 -2.8995 0.687953 0
M  V30 10809 H 1049.97 -1.4285 0.351029 0
M  V30 10810 H 1051.93 -3.85228 -1.60173 0
M  V30 10811 H 1050.56 -2.71932 -1.73933 0
M  V30 10812 H 1049.61 -3.77889 0.436338 0
M  V30 10813 H 1050.92 -4.97545 0.353642 0
M  V30 10814 H 1050.08 -5.77402 -1.86258 0
M  V30 10815 H 1048.82 -4.50885 -1.85888 0
M  V30 10816 H 1047.82 -5.49339 0.225125 0
M  V30 10817 H 1049.05 -6.78795 0.203415 0
M  V30 10818 H 1046.99 -6.25518 -1.97644 0
M  V30 10819 H 1046.91 -7.51833 -0.792657 0
M  V30 10820 H 1048.18 -7.5389 -1.98165 0
M  V30 10821 N 1052.41 -0.382291 -1.52893 0
M  V30 10822 C 1053.37 0.44408 -2.24857 0
M  V30 10823 C 1054.37 0.996004 -1.26239 0
M  V30 10824 O 1055.56 0.879114 -1.5039 0
M  V30 10825 C 1052.69 1.62234 -2.99822 0
M  V30 10826 H 1053.89 -0.185862 -2.99324 0
M  V30 10827 H 1051.44 -0.134275 -1.55722 0
M  V30 10828 H 1052.17 2.28991 -2.29638 0
M  V30 10829 H 1051.96 1.23336 -3.72197 0
M  V30 10830 H 1053.45 2.20756 -3.54481 0
M  V30 10831 N 1053.89 1.57202 -0.111913 0
M  V30 10832 C 1054.82 2.17957 0.837683 0
M  V30 10833 C 1055.8 1.1176 1.28233 0
M  V30 10834 O 1056.98 1.39967 1.34621 0
M  V30 10835 C 1054.11 2.77333 2.09054 0
M  V30 10836 C 1053.07 3.8905 1.78393 0
M  V30 10837 C 1052.39 4.35203 3.10649 0
M  V30 10838 C 1053.69 5.11477 1.05775 0
M  V30 10839 H 1055.39 2.9756 0.331441 0
M  V30 10840 H 1052.93 1.43131 0.157979 0
M  V30 10841 H 1054.88 3.18492 2.75936 0
M  V30 10842 H 1053.61 1.95009 2.6199 0
M  V30 10843 H 1052.27 3.48456 1.13903 0
M  V30 10844 H 1051.92 3.49747 3.61506 0
M  V30 10845 H 1051.62 5.10534 2.9091 0
M  V30 10846 H 1053.14 4.79007 3.78661 0
M  V30 10847 H 1054.55 5.497 1.62798 0
M  V30 10848 H 1052.95 5.92346 0.961573 0
M  V30 10849 H 1054.02 4.84881 0.043297 0
M  V30 10850 N 1055.36 -0.161842 1.56767 0
M  V30 10851 C 1056.33 -1.18404 1.96247 0
M  V30 10852 C 1057.33 -1.3667 0.84722 0
M  V30 10853 O 1058.52 -1.33915 1.11411 0
M  V30 10854 C 1055.65 -2.54728 2.26553 0
M  V30 10855 H 1056.84 -0.845703 2.87729 0
M  V30 10856 H 1054.39 -0.404645 1.50971 0
M  V30 10857 H 1055.13 -2.93559 1.37816 0
M  V30 10858 H 1054.91 -2.42834 3.07854 0
M  V30 10859 H 1056.4 -3.28378 2.57987 0
M  V30 10860 N 1056.84 -1.516 -0.430713 0
M  V30 10861 C 1057.77 -1.76342 -1.53054 0
M  V30 10862 C 1058.75 -0.61349 -1.58652 0
M  V30 10863 O 1059.94 -0.856888 -1.74273 0
M  V30 10864 C 1057.07 -1.8945 -2.91077 0
M  V30 10865 C 1056.02 -3.04928 -3.00339 0
M  V30 10866 C 1055.35 -3.03228 -4.40405 0
M  V30 10867 C 1056.65 -4.44777 -2.73808 0
M  V30 10868 H 1058.34 -2.68435 -1.326 0
M  V30 10869 H 1055.89 -1.29171 -0.636466 0
M  V30 10870 H 1057.84 -2.05343 -3.67984 0
M  V30 10871 H 1056.56 -0.940114 -3.12777 0
M  V30 10872 H 1055.22 -2.88751 -2.25872 0
M  V30 10873 H 1054.87 -2.05553 -4.59083 0
M  V30 10874 H 1054.57 -3.80776 -4.47531 0
M  V30 10875 H 1056.1 -3.21222 -5.19277 0
M  V30 10876 H 1057.51 -4.6127 -3.40445 0
M  V30 10877 H 1055.91 -5.2408 -2.92335 0
M  V30 10878 H 1056.98 -4.54358 -1.69372 0
M  V30 10879 N 1058.32 0.686584 -1.41858 0
M  V30 10880 C 1059.54 1.4802 -1.45275 0
M  V30 10881 C 1059.97 1.87997 -0.0621297 0
M  V30 10882 O 1059.33 1.55226 0.936733 0
M  V30 10883 C 1059.38 2.7133 -2.37513 0
M  V30 10884 O 1058.48 3.69159 -1.83836 0
M  V30 10885 H 1057.82 0.445152 -0.492682 0
M  V30 10886 H 1060.35 0.843161 -1.86419 0
M  V30 10887 H 1060.36 3.19537 -2.53693 0
M  V30 10888 H 1059.04 2.41571 -3.3855 0
M  V30 10889 H 1057.61 3.28134 -1.77151 0
M  V30 10890 N 1059.8 1.27835 0.921735 0
M  V30 10891 C 1061.04 1.15766 1.68457 0
M  V30 10892 C 1061.4 -0.290542 1.89789 0
M  V30 10893 O 1062.6 -0.53378 2.63447 0
M  V30 10894 C 1060.87 1.92591 3.0107 0
M  V30 10895 S 1062.43 1.96804 3.92191 0
M  V30 10896 H 1059.25 0.413169 0.578629 0
M  V30 10897 H 1061.85 1.61826 1.09693 0
M  V30 10898 H 1060.56 2.96991 2.8324 0
M  V30 10899 H 1060.09 1.47049 3.64884 0
M  V30 10900 H 1062.1 1.06877 4.84553 0
M  V30 10901 N 1061.28 -1.12907 1.09954 0
M  V30 10902 C 1062.52 -1.84579 0.840155 0
M  V30 10903 C 1062.85 -1.83605 -0.632692 0
M  V30 10904 O 1062.13 -1.27803 -1.46617 0
M  V30 10905 C 1062.41 -3.32489 1.38286 0
M  V30 10906 C 1062.27 -3.41946 2.92221 0
M  V30 10907 C 1063.58 -4.28091 1.0211 0
M  V30 10908 H 1060.7 -0.670169 0.306663 0
M  V30 10909 H 1063.35 -1.3249 1.36185 0
M  V30 10910 H 1061.5 -3.76978 0.939123 0
M  V30 10911 H 1063.17 -3.06128 3.45085 0
M  V30 10912 H 1061.41 -2.8265 3.29077 0
M  V30 10913 H 1062.08 -4.45983 3.25274 0
M  V30 10914 H 1064.56 -3.91701 1.4039 0
M  V30 10915 H 1063.43 -5.30005 1.42781 0
M  V30 10916 H 1063.69 -4.42044 -0.0700753 0
M  V30 10917 N 1062.75 -0.88754 -1.30232 0
M  V30 10918 C 1064 -0.506277 -1.95656 0
M  V30 10919 C 1064.32 0.948191 -1.70395 0
M  V30 10920 O 1063.59 1.66701 -1.02895 0
M  V30 10921 H 1062.17 -0.184235 -0.723924 0
M  V30 10922 H 1064.83 -1.13118 -1.58715 0
M  V30 10923 H 1063.93 -0.678673 -3.04632 0
M  V30 10924 N 1064.23 1.43628 -0.648757 0
M  V30 10925 C 1065.2 2.29172 0.0360713 0
M  V30 10926 C 1066.2 1.41974 0.754976 0
M  V30 10927 O 1067.39 1.63654 0.5969 0
M  V30 10928 C 1064.52 3.23942 1.0618 0
M  V30 10929 H 1065.71 2.91214 -0.716544 0
M  V30 10930 H 1063.26 1.50833 -0.409759 0
M  V30 10931 H 1064 2.66786 1.8438 0
M  V30 10932 H 1063.78 3.88223 0.550016 0
M  V30 10933 H 1065.27 3.8816 1.54019 0
M  V30 10934 N 1065.71 0.390394 1.52688 0
M  V30 10935 C 1066.67 -0.432149 2.25089 0
M  V30 10936 C 1067.67 -0.989296 1.26766 0
M  V30 10937 O 1068.86 -0.871126 1.50854 0
M  V30 10938 C 1066 -1.60642 3.00678 0
M  V30 10939 H 1067.19 0.201734 2.99221 0
M  V30 10940 H 1064.74 0.142531 1.55649 0
M  V30 10941 H 1065.48 -2.2777 2.3085 0
M  V30 10942 H 1065.26 -1.21361 3.72846 0
M  V30 10943 H 1066.75 -2.18873 3.55647 0
M  V30 10944 N 1067.19 -1.57141 0.120249 0
M  V30 10945 C 1068.43 -1.95527 -0.538245 0
M  V30 10946 C 1068.77 -1.00373 -1.6625 0
M  V30 10947 O 1068.04 -0.0411734 -1.94456 0
M  V30 10948 C 1068.33 -3.43843 -1.06976 0
M  V30 10949 C 1068.18 -4.49771 0.0511596 0
M  V30 10950 C 1069.5 -3.94035 -1.96022 0
M  V30 10951 H 1066.62 -0.710958 -0.194183 0
M  V30 10952 H 1069.26 -1.88986 0.196061 0
M  V30 10953 H 1067.41 -3.49548 -1.69553 0
M  V30 10954 H 1069.08 -4.56163 0.686503 0
M  V30 10955 H 1067.32 -4.27882 0.714127 0
M  V30 10956 H 1067.99 -5.50812 -0.361995 0
M  V30 10957 H 1070.47 -3.9064 -1.43315 0
M  V30 10958 H 1069.35 -4.98329 -2.3013 0
M  V30 10959 H 1069.61 -3.34803 -2.8872 0
M  V30 10960 N 1068.67 0.153526 -1.5685 0
M  V30 10961 C 1069.63 1.17362 -1.96873 0
M  V30 10962 C 1070.63 1.36219 -0.854456 0
M  V30 10963 O 1071.82 1.33322 -1.1212 0
M  V30 10964 C 1068.95 2.53523 -2.27901 0
M  V30 10965 H 1070.14 0.830432 -2.88173 0
M  V30 10966 H 1067.7 0.396633 -1.51184 0
M  V30 10967 H 1068.43 2.92824 -1.39371 0
M  V30 10968 H 1068.22 2.41198 -3.09137 0
M  V30 10969 H 1069.71 3.27006 -2.59725 0
M  V30 10970 N 1070.14 1.51827 0.422667 0
M  V30 10971 C 1071.07 1.77152 1.52117 0
M  V30 10972 C 1072.06 0.621895 1.58324 0
M  V30 10973 O 1073.24 0.866118 1.73816 0
M  V30 10974 C 1070.37 1.90991 2.90068 0
M  V30 10975 C 1069.32 3.06516 2.98717 0
M  V30 10976 C 1068.65 3.05559 4.38791 0
M  V30 10977 C 1069.95 4.46223 2.71445 0
M  V30 10978 H 1071.64 2.69135 1.31175 0
M  V30 10979 H 1069.19 1.29507 0.629607 0
M  V30 10980 H 1071.14 2.07291 3.6689 0
M  V30 10981 H 1069.87 0.956688 3.12274 0
M  V30 10982 H 1068.53 2.89945 2.24338 0
M  V30 10983 H 1068.17 2.07985 4.57986 0
M  V30 10984 H 1067.87 3.83144 4.45505 0
M  V30 10985 H 1069.4 3.23971 5.17566 0
M  V30 10986 H 1070.81 4.63069 3.37994 0
M  V30 10987 H 1069.21 5.25623 2.89552 0
M  V30 10988 H 1070.28 4.5525 1.6696 0
M  V30 10989 N 1071.62 -0.679052 1.4222 0
M  V30 10990 C 1072.57 -1.78522 1.41824 0
M  V30 10991 C 1073.56 -1.58262 0.290179 0
M  V30 10992 O 1074.75 -1.68813 0.532092 0
M  V30 10993 C 1071.88 -3.16952 1.31895 0
M  V30 10994 C 1070.96 -3.42849 2.4963 0
M  V30 10995 N 1071.35 -3.39354 3.75063 0
M  V30 10996 C 1069.65 -3.73468 2.43799 0
M  V30 10997 C 1070.35 -3.64617 4.53243 0
M  V30 10998 N 1069.33 -3.85174 3.83591 0
M  V30 10999 H 1073.13 -1.74206 2.36705 0
M  V30 11000 H 1070.65 -0.879719 1.36509 0
M  V30 11001 H 1072.64 -3.96214 1.29693 0
M  V30 11002 H 1071.3 -3.22467 0.380127 0
M  V30 11003 H 1072.31 -3.19354 4.07718 0
M  V30 11004 H 1068.99 -3.86254 1.58474 0
M  V30 11005 H 1070.38 -3.67912 5.62219 0
M  V30 11006 N 1073.1 -1.28322 -0.914942 0
M  V30 11007 C 1074.51 -1.13937 -1.47903 0
M  V30 11008 C 1074.86 0.271072 -1.94318 0
M  V30 11009 O 1073.99 1.16522 -1.8235 0
M  V30 11010 C 1074.58 -2.06221 -2.68809 0
M  V30 11011 C 1073.14 -1.95903 -3.21402 0
M  V30 11012 C 1072.29 -1.98031 -1.94111 0
M  V30 11013 H 1075.24 -1.41029 -0.727772 0
M  V30 11014 H 1075.26 -1.6255 -3.44031 0
M  V30 11015 H 1074.77 -3.08866 -2.34997 0
M  V30 11016 H 1072.87 -0.962907 -3.59943 0
M  V30 11017 H 1072.99 -2.82799 -3.86732 0
M  V30 11018 H 1071.35 -1.42423 -2.11158 0
M  V30 11019 H 1072.13 -3.02354 -1.62595 0
M  V30 11020 N 1074.58 1.12322 -1.10551 0
M  V30 11021 C 1075.49 2.21678 -0.767862 0
M  V30 11022 C 1076.5 1.72404 0.235132 0
M  V30 11023 O 1077.68 2.01266 0.0735912 0
M  V30 11024 C 1074.75 3.46087 -0.205999 0
M  V30 11025 C 1073.81 4.10195 -1.26642 0
M  V30 11026 C 1073.04 5.28666 -0.731274 0
M  V30 11027 O 1073.26 5.68686 0.44189 0
M  V30 11028 O 1072.2 5.83121 -1.49176 0
M  V30 11029 H 1076.02 2.52955 -1.6807 0
M  V30 11030 H 1073.61 1.2068 -0.880728 0
M  V30 11031 H 1075.49 4.21273 0.103435 0
M  V30 11032 H 1074.16 3.16484 0.679685 0
M  V30 11033 H 1073.07 3.36784 -1.62873 0
M  V30 11034 H 1074.4 4.43957 -2.12516 0
M  V30 11035 N 1076.06 0.894434 1.2976 0
M  V30 11036 C 1077.28 0.5322 2.00455 0
M  V30 11037 C 1077.71 -0.874427 1.66539 0
M  V30 11038 O 1077.06 -1.58113 0.887129 0
M  V30 11039 C 1077.11 0.725264 3.53231 0
M  V30 11040 O 1076.22 -0.224612 4.11788 0
M  V30 11041 H 1075.56 0.208562 0.630395 0
M  V30 11042 H 1078.09 1.20458 1.65382 0
M  V30 11043 H 1078.1 0.627889 4.0314 0
M  V30 11044 H 1076.77 1.75079 3.77253 0
M  V30 11045 H 1075.35 -0.0801361 3.72814 0
M  V30 11046 N 1077.53 -1.43282 0.656365 0
M  V30 11047 C 1078.78 -2.01776 0.171039 0
M  V30 11048 C 1079.11 -1.51795 -1.21609 0
M  V30 11049 O 1078.36 -0.702864 -1.82643 0
M  V30 11050 C 1078.66 -3.57148 0.134225 0
M  V30 11051 C 1078.33 -4.26488 1.46352 0
M  V30 11052 C 1076.99 -4.45146 1.82753 0
M  V30 11053 C 1079.34 -4.65728 2.33981 0
M  V30 11054 C 1076.67 -5.0031 3.06443 0
M  V30 11055 C 1079.02 -5.22263 3.56966 0
M  V30 11056 C 1077.69 -5.39136 3.93559 0
M  V30 11057 H 1076.96 -0.738352 0.0625878 0
M  V30 11058 H 1079.6 -1.71716 0.847697 0
M  V30 11059 H 1077.91 -3.86768 -0.625892 0
M  V30 11060 H 1079.61 -4.00168 -0.258207 0
M  V30 11061 H 1076.2 -4.12313 1.1703 0
M  V30 11062 H 1080.38 -4.51003 2.07148 0
M  V30 11063 H 1075.64 -5.11559 3.34839 0
M  V30 11064 H 1079.81 -5.51614 4.25082 0
M  V30 11065 H 1077.44 -5.81646 4.89481 0
M  V30 11066 N 1079.01 -0.398486 -1.52479 0
M  V30 11067 C 1080.26 0.180752 -2.01692 0
M  V30 11068 C 1080.59 1.46044 -1.28457 0
M  V30 11069 O 1079.84 1.92051 -0.376162 0
M  V30 11070 C 1080.14 0.485909 -3.54081 0
M  V30 11071 C 1079.81 -0.703321 -4.45381 0
M  V30 11072 C 1078.47 -1.02955 -4.70057 0
M  V30 11073 C 1080.82 -1.49848 -4.99194 0
M  V30 11074 C 1078.15 -2.15231 -5.45795 0
M  V30 11075 C 1080.5 -2.61192 -5.76161 0
M  V30 11076 C 1079.17 -2.94313 -5.99113 0
M  V30 11077 H 1078.44 0.0661417 -0.738042 0
M  V30 11078 H 1081.08 -0.53772 -1.83796 0
M  V30 11079 H 1079.39 1.28582 -3.701 0
M  V30 11080 H 1081.09 0.946872 -3.89661 0
M  V30 11081 H 1077.68 -0.439062 -4.26345 0
M  V30 11082 H 1081.86 -1.25968 -4.80048 0
M  V30 11083 H 1077.12 -2.41252 -5.61789 0
M  V30 11084 H 1081.29 -3.23201 -6.16858 0
M  V30 11085 H 1078.92 -3.81431 -6.57583 0
M  V30 11086 N 1080.49 1.57075 -0.12858 0
M  V30 11087 C 1081.72 2.00305 0.537839 0
M  V30 11088 C 1082.14 1.00787 1.58819 0
M  V30 11089 O 1081.5 -0.0190839 1.8129 0
M  V30 11090 C 1081.55 3.42371 1.13201 0
M  V30 11091 O 1080.65 3.45786 2.24735 0
M  V30 11092 H 1079.99 0.650456 0.133428 0
M  V30 11093 H 1082.52 2.03415 -0.219882 0
M  V30 11094 H 1082.53 3.80783 1.4652 0
M  V30 11095 H 1081.21 4.14315 0.362713 0
M  V30 11096 H 1079.78 3.19201 1.92783 0
M  V30 11097 N 1081.97 -0.145205 1.5693 0
M  V30 11098 C 1082.92 -1.17923 1.98401 0
M  V30 11099 C 1083.89 -1.42591 0.851885 0
M  V30 11100 O 1085.07 -1.54896 1.11409 0
M  V30 11101 C 1082.21 -2.50727 2.37128 0
M  V30 11102 C 1081.32 -2.33218 3.63639 0
M  V30 11103 C 1080.46 -3.5907 3.91462 0
M  V30 11104 C 1079.5 -3.36605 5.11237 0
M  V30 11105 N 1078.64 -4.54592 5.35061 0
M  V30 11106 H 1083.48 -0.818573 2.86537 0
M  V30 11107 H 1081.01 -0.392739 1.4176 0
M  V30 11108 H 1082.97 -3.28165 2.57611 0
M  V30 11109 H 1081.6 -2.84736 1.52069 0
M  V30 11110 H 1080.65 -1.46826 3.50922 0
M  V30 11111 H 1081.96 -2.12579 4.51234 0
M  V30 11112 H 1081.12 -4.44936 4.12453 0
M  V30 11113 H 1079.86 -3.82715 3.02293 0
M  V30 11114 H 1078.86 -2.49127 4.90118 0
M  V30 11115 H 1080.09 -3.14357 6.01961 0
M  V30 11116 H 1078.03 -4.78406 4.48847 0
M  V30 11117 H 1077.95 -4.36962 6.16928 0
M  V30 11118 H 1079.22 -5.41666 5.60551 0
M  V30 11119 N 1083.45 -1.52049 -0.414609 0
M  V30 11120 C 1084.38 -1.77956 -1.51175 0
M  V30 11121 C 1085.36 -0.630282 -1.57992 0
M  V30 11122 O 1086.54 -0.875324 -1.73354 0
M  V30 11123 C 1083.67 -1.92527 -2.89051 0
M  V30 11124 C 1082.63 -3.08096 -2.97087 0
M  V30 11125 C 1081.95 -3.07882 -4.37164 0
M  V30 11126 C 1083.25 -4.47656 -2.69075 0
M  V30 11127 H 1084.95 -2.69827 -1.29746 0
M  V30 11128 H 1082.49 -1.29839 -0.62273 0
M  V30 11129 H 1084.45 -2.09234 -3.65786 0
M  V30 11130 H 1083.17 -0.973235 -3.11762 0
M  V30 11131 H 1081.83 -2.91131 -2.22797 0
M  V30 11132 H 1081.48 -2.10411 -4.56877 0
M  V30 11133 H 1081.18 -3.85501 -4.43467 0
M  V30 11134 H 1082.7 -3.26712 -5.15841 0
M  V30 11135 H 1084.12 -4.64855 -3.35534 0
M  V30 11136 H 1082.51 -5.27151 -2.8676 0
M  V30 11137 H 1083.58 -4.56129 -1.64544 0
M  V30 11138 N 1084.93 0.6715 -1.42579 0
M  V30 11139 C 1086.16 1.4576 -1.46416 0
M  V30 11140 C 1086.56 1.89051 -0.0749843 0
M  V30 11141 O 1085.91 1.58927 0.921296 0
M  V30 11142 C 1085.97 2.7365 -2.33144 0
M  V30 11143 C 1085.63 2.52414 -3.80968 0
M  V30 11144 C 1086.63 2.16804 -4.72538 0
M  V30 11145 C 1084.31 2.67306 -4.25268 0
M  V30 11146 C 1086.31 1.96358 -6.06401 0
M  V30 11147 C 1084 2.46475 -5.5919 0
M  V30 11148 C 1084.99 2.11055 -6.49573 0
M  V30 11149 O 1084.68 1.90428 -7.8102 0
M  V30 11150 H 1084.41 0.454896 -0.500045 0
M  V30 11151 H 1086.97 0.832198 -1.87786 0
M  V30 11152 H 1085.2 3.38684 -1.86629 0
M  V30 11153 H 1086.89 3.35543 -2.28398 0
M  V30 11154 H 1087.65 2.04891 -4.39596 0
M  V30 11155 H 1083.53 2.93854 -3.55206 0
M  V30 11156 H 1087.08 1.68634 -6.76911 0
M  V30 11157 H 1082.97 2.57985 -5.91704 0
M  V30 11158 H 1083.74 2.05 -7.92412 0
M  V30 11159 N 1086.4 1.28806 0.908124 0
M  V30 11160 C 1087.35 1.13215 2.01125 0
M  V30 11161 C 1088.32 0.0277357 1.66077 0
M  V30 11162 O 1089.51 0.193707 1.89814 0
M  V30 11163 C 1086.65 0.805887 3.35558 0
M  V30 11164 C 1085.76 1.9899 3.83441 0
M  V30 11165 C 1084.89 1.60376 5.06412 0
M  V30 11166 C 1083.93 2.75409 5.46641 0
M  V30 11167 N 1083.07 2.37249 6.60801 0
M  V30 11168 H 1087.91 2.07598 2.13792 0
M  V30 11169 H 1085.45 1.03316 1.0471 0
M  V30 11170 H 1087.4 0.597451 4.129 0
M  V30 11171 H 1086.03 -0.101023 3.22642 0
M  V30 11172 H 1085.09 2.31029 3.02208 0
M  V30 11173 H 1086.4 2.85214 4.09212 0
M  V30 11174 H 1085.55 1.35772 5.91313 0
M  V30 11175 H 1084.29 0.712888 4.82462 0
M  V30 11176 H 1083.3 3.00705 4.60279 0
M  V30 11177 H 1084.52 3.65148 5.72577 0
M  V30 11178 H 1082.47 1.50638 6.3847 0
M  V30 11179 H 1082.38 3.17008 6.86325 0
M  V30 11180 H 1083.65 2.15943 7.48992 0
M  V30 11181 N 1087.88 -1.11734 1.11145 0
M  V30 11182 C 1089.13 -1.83677 0.859684 0
M  V30 11183 C 1089.46 -1.84265 -0.613182 0
M  V30 11184 O 1088.74 -1.29351 -1.45254 0
M  V30 11185 C 1089.02 -3.31003 1.41805 0
M  V30 11186 C 1088.87 -3.38827 2.95831 0
M  V30 11187 C 1090.19 -4.26984 1.06645 0
M  V30 11188 H 1087.31 -0.666879 0.313754 0
M  V30 11189 H 1089.95 -1.31038 1.37583 0
M  V30 11190 H 1088.1 -3.75961 0.979054 0
M  V30 11191 H 1089.77 -3.02451 3.48312 0
M  V30 11192 H 1088.02 -2.79143 3.32056 0
M  V30 11193 H 1088.69 -4.42508 3.29986 0
M  V30 11194 H 1091.16 -3.9019 1.44537 0
M  V30 11195 H 1090.04 -5.2846 1.48394 0
M  V30 11196 H 1090.3 -4.42094 -0.0231866 0
M  V30 11197 N 1089.36 -0.901303 -1.29284 0
M  V30 11198 C 1090.77 -0.576317 -1.77582 0
M  V30 11199 C 1091.12 0.908078 -1.73921 0
M  V30 11200 O 1090.25 1.71006 -1.32611 0
M  V30 11201 C 1090.84 -1.03938 -3.22463 0
M  V30 11202 C 1089.4 -0.765533 -3.68533 0
M  V30 11203 C 1088.55 -1.21318 -2.49354 0
M  V30 11204 H 1091.5 -1.08386 -1.15923 0
M  V30 11205 H 1091.52 -0.375367 -3.78644 0
M  V30 11206 H 1091.03 -2.11977 -3.25096 0
M  V30 11207 H 1089.13 0.302176 -3.71373 0
M  V30 11208 H 1089.25 -1.36454 -4.59257 0
M  V30 11209 H 1087.61 -0.632141 -2.46731 0
M  V30 11210 H 1088.39 -2.30165 -2.54714 0
M  V30 11211 N 1090.84 1.42931 -0.663954 0
M  V30 11212 C 1091.77 2.33499 0.00731327 0
M  V30 11213 C 1092.75 1.50074 0.800733 0
M  V30 11214 O 1093.93 1.78708 0.760062 0
M  V30 11215 C 1091.06 3.33569 0.966897 0
M  V30 11216 C 1090.02 4.27064 0.282839 0
M  V30 11217 C 1089.34 5.17257 1.35461 0
M  V30 11218 C 1090.64 5.1564 -0.831438 0
M  V30 11219 H 1092.34 2.89879 -0.749044 0
M  V30 11220 H 1089.88 1.39385 -0.361656 0
M  V30 11221 H 1091.84 3.95833 1.44549 0
M  V30 11222 H 1090.56 2.75469 1.75455 0
M  V30 11223 H 1089.22 3.6618 -0.175417 0
M  V30 11224 H 1088.87 4.5549 2.13397 0
M  V30 11225 H 1088.57 5.80634 0.902098 0
M  V30 11226 H 1090.09 5.82395 1.83436 0
M  V30 11227 H 1091.51 5.71651 -0.434534 0
M  V30 11228 H 1089.9 5.87794 -1.20908 0
M  V30 11229 H 1090.97 4.54687 -1.68487 0
M  V30 11230 N 1092.32 0.406567 1.52266 0
M  V30 11231 C 1093.59 -0.228477 1.94261 0
M  V30 11232 C 1093.97 -1.62848 1.34328 0
M  V30 11233 O 1093.32 -2.22549 0.518082 0
M  V30 11234 C 1093.53 -0.237401 3.48192 0
M  V30 11235 C 1094.88 -0.457997 4.22123 0
M  V30 11236 O 1095.9 -0.316868 3.54788 0
M  V30 11237 O 1094.76 -0.735946 5.41522 0
M  V30 11238 H 1091.86 -0.146492 0.813922 0
M  V30 11239 H 1094.4 0.462325 1.63281 0
M  V30 11240 H 1093.17 0.742556 3.8419 0
M  V30 11241 H 1092.8 -0.972408 3.85526 0
M  V30 11242 N 1093.79 -1.57004 0.136909 0
M  V30 11243 C 1095.02 -2.00156 -0.523936 0
M  V30 11244 C 1095.44 -1.01688 -1.59075 0
M  V30 11245 O 1094.79 -0.0123678 -1.82496 0
M  V30 11246 C 1094.85 -3.4326 -1.13379 0
M  V30 11247 O 1094.57 -4.37963 -0.109598 0
M  V30 11248 C 1096.07 -4.01637 -1.87623 0
M  V30 11249 H 1093.29 -0.65681 -0.137263 0
M  V30 11250 H 1095.83 -2.03219 0.228522 0
M  V30 11251 H 1093.99 -3.4108 -1.83693 0
M  V30 11252 H 1094.4 -5.21555 -0.55503 0
M  V30 11253 H 1095.87 -5.03795 -2.25597 0
M  V30 11254 H 1096.35 -3.41781 -2.75831 0
M  V30 11255 H 1096.96 -4.07417 -1.22031 0
M  V30 11256 N 1095.27 0.136881 -1.57004 0
M  V30 11257 C 1096.5 0.862436 -1.88068 0
M  V30 11258 C 1096.92 1.74274 -0.726227 0
M  V30 11259 O 1096.27 1.79956 0.30366 0
M  V30 11260 C 1096.32 1.71076 -3.18458 0
M  V30 11261 O 1096.04 0.865918 -4.29457 0
M  V30 11262 C 1097.55 2.54302 -3.63105 0
M  V30 11263 H 1094.77 0.248865 -0.623143 0
M  V30 11264 H 1097.31 0.126633 -2.04108 0
M  V30 11265 H 1095.46 2.39951 -3.04142 0
M  V30 11266 H 1095.88 1.4493 -5.04079 0
M  V30 11267 H 1097.35 3.09384 -4.57149 0
M  V30 11268 H 1097.83 3.3082 -2.88886 0
M  V30 11269 H 1098.44 1.907 -3.80149 0
M  V30 11270 N 1096.75 1.52266 0.40654 0
M  V30 11271 C 1097.66 1.78688 1.52012 0
M  V30 11272 C 1098.68 0.6726 1.60475 0
M  V30 11273 O 1099.85 0.95829 1.77141 0
M  V30 11274 C 1096.92 1.93434 2.87722 0
M  V30 11275 C 1095.98 3.17341 2.89125 0
M  V30 11276 C 1095.21 3.31374 4.18362 0
M  V30 11277 O 1095.43 2.50613 5.12396 0
M  V30 11278 O 1094.37 4.24539 4.26674 0
M  V30 11279 H 1098.19 2.73213 1.3262 0
M  V30 11280 H 1095.78 1.37142 0.592653 0
M  V30 11281 H 1097.66 2.04941 3.68208 0
M  V30 11282 H 1096.34 1.02099 3.07177 0
M  V30 11283 H 1095.24 3.1129 2.07483 0
M  V30 11284 H 1096.58 4.08466 2.7462 0
M  V30 11285 N 1098.23 -0.663929 1.42933 0
M  V30 11286 C 1099.46 -1.44981 1.47187 0
M  V30 11287 C 1099.87 -1.89009 0.0850091 0
M  V30 11288 O 1099.21 -1.59413 -0.912855 0
M  V30 11289 C 1099.27 -2.72409 2.34592 0
M  V30 11290 C 1098.94 -2.5039 3.82301 0
M  V30 11291 C 1099.93 -2.14295 4.73681 0
M  V30 11292 C 1097.62 -2.65047 4.2668 0
M  V30 11293 C 1099.61 -1.93139 6.07434 0
M  V30 11294 C 1097.3 -2.43506 5.60489 0
M  V30 11295 C 1098.3 -2.07607 6.50683 0
M  V30 11296 O 1097.98 -1.86284 7.82019 0
M  V30 11297 H 1097.72 -0.452238 0.502451 0
M  V30 11298 H 1100.27 -0.822228 1.88225 0
M  V30 11299 H 1098.5 -3.37689 1.88422 0
M  V30 11300 H 1100.19 -3.34327 2.30174 0
M  V30 11301 H 1100.96 -2.02557 4.40676 0
M  V30 11302 H 1096.83 -2.91966 3.56759 0
M  V30 11303 H 1100.38 -1.65042 6.77796 0
M  V30 11304 H 1096.28 -2.54844 5.93064 0
M  V30 11305 H 1097.04 -2.00795 7.93488 0
M  V30 11306 N 1099.71 -1.29285 -0.901281 0
M  V30 11307 C 1101.12 -1.15499 -1.46686 0
M  V30 11308 C 1101.47 0.250446 -1.94595 0
M  V30 11309 O 1100.59 1.14581 -1.83576 0
M  V30 11310 C 1101.19 -2.0906 -2.66607 0
M  V30 11311 C 1099.75 -1.99301 -3.19306 0
M  V30 11312 C 1098.89 -2.00079 -1.91999 0
M  V30 11313 H 1101.85 -1.41793 -0.712773 0
M  V30 11314 H 1101.87 -1.6619 -3.42288 0
M  V30 11315 H 1101.38 -3.11341 -2.31707 0
M  V30 11316 H 1099.48 -1.00103 -3.58901 0
M  V30 11317 H 1099.59 -2.86885 -3.8371 0
M  V30 11318 H 1097.96 -1.44655 -2.09636 0
M  V30 11319 H 1098.74 -3.04061 -1.59379 0
M  V30 11320 N 1101.18 1.11143 -1.11736 0
M  V30 11321 C 1102.09 2.20851 -0.791331 0
M  V30 11322 C 1103.11 1.72644 0.216833 0
M  V30 11323 O 1104.29 2.01332 0.0522401 0
M  V30 11324 C 1101.35 3.4585 -0.242694 0
M  V30 11325 C 1100.41 4.08829 -1.30986 0
M  V30 11326 C 1099.65 5.27861 -0.787305 0
M  V30 11327 O 1099.87 5.69122 0.381549 0
M  V30 11328 O 1098.8 5.81506 -1.55352 0
M  V30 11329 H 1102.63 2.51158 -1.70744 0
M  V30 11330 H 1100.21 1.19739 -0.893478 0
M  V30 11331 H 1102.1 4.21359 0.0587472 0
M  V30 11332 H 1100.77 3.17187 0.646079 0
M  V30 11333 H 1099.68 3.35037 -1.66436 0
M  V30 11334 H 1101.01 4.41678 -2.17213 0
M  V30 11335 N 1102.66 0.908147 1.28804 0
M  V30 11336 C 1103.57 0.397167 2.31214 0
M  V30 11337 C 1104.59 -0.512352 1.66286 0
M  V30 11338 O 1105.76 -0.399893 1.9739 0
M  V30 11339 C 1102.83 -0.359522 3.44831 0
M  V30 11340 C 1101.89 0.582539 4.25329 0
M  V30 11341 C 1101.12 -0.138133 5.33521 0
M  V30 11342 O 1101.35 -1.36076 5.53931 0
M  V30 11343 O 1100.28 0.523682 5.99618 0
M  V30 11344 H 1104.11 1.247 2.76918 0
M  V30 11345 H 1101.69 0.672766 1.33395 0
M  V30 11346 H 1103.57 -0.787098 4.13984 0
M  V30 11347 H 1102.25 -1.18528 3.01219 0
M  V30 11348 H 1101.16 1.0594 3.58786 0
M  V30 11349 H 1102.49 1.37495 4.72605 0
M  V30 11350 N 1104.14 -1.42577 0.671525 0
M  V30 11351 C 1105.07 -2.2915 -0.0477361 0
M  V30 11352 C 1106.09 -1.43503 -0.768805 0
M  V30 11353 O 1107.27 -1.67256 -0.623509 0
M  V30 11354 C 1104.37 -3.20851 -1.09122 0
M  V30 11355 C 1103.55 -4.35134 -0.44463 0
M  V30 11356 C 1102.61 -5.07579 -1.38745 0
M  V30 11357 O 1101.63 -5.62215 -0.889015 0
M  V30 11358 N 1102.83 -5.12786 -2.72086 0
M  V30 11359 H 1105.6 -2.9152 0.695415 0
M  V30 11360 H 1103.16 -1.53467 0.515689 0
M  V30 11361 H 1105.15 -3.66183 -1.72315 0
M  V30 11362 H 1103.72 -2.59956 -1.73614 0
M  V30 11363 H 1102.94 -3.9249 0.36675 0
M  V30 11364 H 1104.23 -5.088 0.00595927 0
M  V30 11365 H 1103.63 -4.69802 -3.15123 0
M  V30 11366 H 1102.19 -5.61774 -3.30535 0
M  V30 11367 N 1105.62 -0.414636 -1.52048 0
M  V30 11368 C 1106.85 0.158456 -2.05991 0
M  V30 11369 C 1107.26 1.38947 -1.28415 0
M  V30 11370 O 1106.6 1.80698 -0.330728 0
M  V30 11371 C 1106.66 0.568392 -3.54978 0
M  V30 11372 C 1106.33 -0.552654 -4.53646 0
M  V30 11373 C 1107.32 -1.41791 -5.00191 0
M  V30 11374 C 1105.01 -0.726917 -4.97012 0
M  V30 11375 C 1107 -2.44234 -5.88752 0
M  V30 11376 C 1104.69 -1.75464 -5.85368 0
M  V30 11377 C 1105.69 -2.61075 -6.31133 0
M  V30 11378 O 1105.37 -3.62087 -7.17738 0
M  V30 11379 H 1105.11 0.0214746 -0.675659 0
M  V30 11380 H 1107.66 -0.585825 -1.96869 0
M  V30 11381 H 1105.89 1.36504 -3.61806 0
M  V30 11382 H 1107.58 1.07003 -3.91542 0
M  V30 11383 H 1108.35 -1.29471 -4.67399 0
M  V30 11384 H 1104.22 -0.0701964 -4.60947 0
M  V30 11385 H 1107.77 -3.1109 -6.24395 0
M  V30 11386 H 1103.67 -1.87813 -6.17573 0
M  V30 11387 H 1104.43 -3.58396 -7.35863 0
M  V30 11388 N 1107.1 1.56929 -0.145233 0
M  V30 11389 C 1108.34 1.96358 0.50707 0
M  V30 11390 C 1108.68 1.03005 1.64632 0
M  V30 11391 O 1107.95 0.0721045 1.94366 0
M  V30 11392 C 1108.23 3.45502 1.01492 0
M  V30 11393 C 1108.09 4.49633 -0.122708 0
M  V30 11394 C 1109.41 3.97103 1.89729 0
M  V30 11395 H 1106.52 0.713958 0.182848 0
M  V30 11396 H 1109.17 1.8865 -0.226102 0
M  V30 11397 H 1107.32 3.52202 1.6397 0
M  V30 11398 H 1108.99 4.55013 -0.758988 0
M  V30 11399 H 1107.23 4.26691 -0.782109 0
M  V30 11400 H 1107.9 5.51318 0.27432 0
M  V30 11401 H 1110.38 3.92871 1.37082 0
M  V30 11402 H 1109.25 5.01927 2.22173 0
M  V30 11403 H 1109.52 3.39354 2.83357 0
M  V30 11404 N 1108.58 -0.128553 1.57075 0
M  V30 11405 C 1109.8 -0.8564 1.88893 0
M  V30 11406 C 1110.23 -1.73095 0.736196 0
M  V30 11407 O 1109.58 -1.78567 -0.313629 0
M  V30 11408 C 1109.63 -1.67368 3.19406 0
M  V30 11409 O 1108.74 -2.77973 3.04639 0
M  V30 11410 H 1108.08 -0.237424 0.620102 0
M  V30 11411 H 1110.61 -0.113821 2.04283 0
M  V30 11412 H 1110.62 -2.0649 3.51889 0
M  V30 11413 H 1109.29 -1.03161 4.02903 0
M  V30 11414 H 1107.87 -2.42123 2.83603 0
M  V30 11415 N 1110.05 -1.5248 -0.398459 0
M  V30 11416 C 1111.33 -1.57634 -1.15805 0
M  V30 11417 C 1111.71 -0.363785 -2.07942 0
M  V30 11418 O 1111.06 0.648598 -2.19101 0
M  V30 11419 C 1111.27 -2.91042 -1.92602 0
M  V30 11420 C 1112.62 -3.44433 -2.48296 0
M  V30 11421 O 1113.64 -2.92853 -2.0277 0
M  V30 11422 O 1112.5 -4.34529 -3.31432 0
M  V30 11423 H 1109.59 -0.63539 -0.529347 0
M  V30 11424 H 1112.14 -1.64812 -0.404376 0
M  V30 11425 H 1110.91 -3.7074 -1.25169 0
M  V30 11426 H 1110.53 -2.87206 -2.74952 0
M  V30 11427 N 1111.53 0.65634 -1.43283 0
M  V30 11428 C 1112.78 1.41212 -1.44021 0
M  V30 11429 C 1113.09 1.95485 -0.0669783 0
M  V30 11430 O 1114.3 2.71457 0.0481909 0
M  V30 11431 C 1112.76 2.55541 -2.5343 0
M  V30 11432 C 1112.36 2.07889 -3.96845 0
M  V30 11433 C 1114.11 3.3293 -2.63359 0
M  V30 11434 C 1112.01 3.19411 -4.97726 0
M  V30 11435 H 1110.94 0.530566 -0.535739 0
M  V30 11436 H 1113.6 0.708743 -1.6926 0
M  V30 11437 H 1111.98 3.28335 -2.21387 0
M  V30 11438 H 1113.15 1.42127 -4.38334 0
M  V30 11439 H 1111.47 1.43388 -3.90933 0
M  V30 11440 H 1114.06 4.1602 -3.35903 0
M  V30 11441 H 1114.41 3.80753 -1.68324 0
M  V30 11442 H 1114.94 2.67216 -2.94687 0
M  V30 11443 H 1111.68 2.7656 -5.94302 0
M  V30 11444 H 1111.2 3.83895 -4.60853 0
M  V30 11445 H 1112.88 3.84591 -5.20287 0
M  V30 11446 N 1113.01 1.29761 0.894412 0
M  V30 11447 C 1113.94 1.17902 2.01547 0
M  V30 11448 C 1114.92 0.0719402 1.69948 0
M  V30 11449 O 1116.11 0.252338 1.92554 0
M  V30 11450 C 1113.24 0.860262 3.36477 0
M  V30 11451 C 1112.19 1.92424 3.82305 0
M  V30 11452 C 1111.52 1.45868 5.14419 0
M  V30 11453 C 1112.82 3.33391 4.02054 0
M  V30 11454 H 1114.51 2.11688 2.11727 0
M  V30 11455 H 1112.06 1.01916 1.01731 0
M  V30 11456 H 1114.01 0.763987 4.14417 0
M  V30 11457 H 1112.73 -0.113289 3.26403 0
M  V30 11458 H 1111.39 2.00999 3.06586 0
M  V30 11459 H 1111.04 0.473654 5.00765 0
M  V30 11460 H 1110.74 2.17028 5.46052 0
M  V30 11461 H 1112.26 1.37601 5.94894 0
M  V30 11462 H 1113.68 3.27628 4.7046 0
M  V30 11463 H 1112.07 4.02555 4.4505 0
M  V30 11464 H 1113.14 3.75978 3.06216 0
M  V30 11465 N 1114.49 -1.10549 1.12324 0
M  V30 11466 C 1115.44 -2.18944 0.785248 0
M  V30 11467 C 1116.43 -1.67867 -0.227389 0
M  V30 11468 O 1117.64 -1.79796 -0.0857162 0
M  V30 11469 H 1114.01 -0.713976 0.236098 0
M  V30 11470 H 1115.98 -2.44692 1.70788 0
M  V30 11471 C 1114.73 -3.46765 0.25485 0
M  V30 11472 H 1114.05 -3.86428 1.02534 0
M  V30 11473 H 1115.49 -4.23962 0.0566526 0
M  V30 11474 C 1113.95 -3.21185 -1.01695 0
M  V30 11475 O 1114.48 -3.42745 -2.09497 0
M  V30 11476 N 1112.69 -2.7486 -0.943423 0
M  V30 11477 H 1112.24 -2.57515 -0.0660366 0
M  V30 11478 H 1112.19 -2.58122 -1.795 0
M  V30 11479 N 1115.97 -0.914965 -1.28321 0
M  V30 11480 C 1117.2 -0.563835 -1.98757 0
M  V30 11481 C 1117.6 0.859528 -1.68549 0
M  V30 11482 O 1116.95 1.58105 -0.935336 0
M  V30 11483 C 1117.01 -0.694539 -3.52727 0
M  V30 11484 C 1116.67 -2.08767 -4.06528 0
M  V30 11485 C 1117.67 -3.06052 -4.20272 0
M  V30 11486 C 1115.35 -2.40118 -4.4119 0
M  V30 11487 C 1117.35 -4.32803 -4.67932 0
M  V30 11488 C 1115.04 -3.67108 -4.88544 0
M  V30 11489 C 1116.03 -4.63265 -5.01871 0
M  V30 11490 O 1115.72 -5.87997 -5.48192 0
M  V30 11491 H 1115.45 -0.213557 -0.641381 0
M  V30 11492 H 1118.01 -1.23062 -1.64453 0
M  V30 11493 H 1116.24 0.0293186 -3.86689 0
M  V30 11494 H 1117.93 -0.350335 -4.04385 0
M  V30 11495 H 1118.69 -2.8315 -3.93765 0
M  V30 11496 H 1114.57 -1.66025 -4.30066 0
M  V30 11497 H 1118.12 -5.07861 -4.78249 0
M  V30 11498 H 1114.01 -3.89834 -5.14489 0
M  V30 11499 H 1114.78 -5.90804 -5.66474 0
M  V30 11500 N 1117.44 1.42219 -0.679077 0
M  V30 11501 C 1118.69 2.00703 -0.200309 0
M  V30 11502 C 1119.01 1.54339 1.20161 0
M  V30 11503 O 1120.21 2.0527 1.77698 0
M  V30 11504 C 1118.67 3.58586 -0.307248 0
M  V30 11505 C 1118.28 4.13937 -1.71349 0
M  V30 11506 C 1120.02 4.24351 0.112588 0
M  V30 11507 C 1117.93 5.64198 -1.77297 0
M  V30 11508 H 1116.86 0.750638 -0.0711279 0
M  V30 11509 H 1119.51 1.62893 -0.844881 0
M  V30 11510 H 1117.89 3.93921 0.40529 0
M  V30 11511 H 1119.06 3.90054 -2.45346 0
M  V30 11512 H 1117.38 3.60639 -2.08155 0
M  V30 11513 H 1119.98 5.34627 0.0883578 0
M  V30 11514 H 1120.32 4.00142 1.14857 0
M  V30 11515 H 1120.85 3.93992 -0.549093 0
M  V30 11516 H 1117.59 5.93211 -2.78892 0
M  V30 11517 H 1117.11 5.90058 -1.07662 0
M  V30 11518 H 1118.79 6.2869 -1.52835 0
M  V30 11519 N 1118.92 0.422693 1.51826 0
M  V30 11520 C 1120.2 -0.20786 1.94492 0
M  V30 11521 C 1120.58 -1.61414 1.36047 0
M  V30 11522 O 1119.93 -2.21987 0.541657 0
M  V30 11523 C 1120.14 -0.200457 3.48424 0
M  V30 11524 C 1121.48 -0.413199 4.22585 0
M  V30 11525 O 1122.51 -0.27922 3.55104 0
M  V30 11526 O 1121.37 -0.678469 5.42272 0
M  V30 11527 H 1118.46 -0.137851 0.81543 0
M  V30 11528 H 1121.01 0.479617 1.62781 0
M  V30 11529 H 1119.78 0.783263 3.83381 0
M  V30 11530 H 1119.4 -0.931464 3.86535 0
M  V30 11531 N 1120.4 -1.5685 0.153553 0
M  V30 11532 C 1121.35 -2.13671 -0.795526 0
M  V30 11533 C 1122.33 -1.06624 -1.20499 0
M  V30 11534 O 1123.53 -1.32788 -1.17032 0
M  V30 11535 C 1120.65 -2.76704 -2.03199 0
M  V30 11536 C 1119.74 -3.90884 -1.64532 0
M  V30 11537 N 1120.13 -4.96466 -0.96723 0
M  V30 11538 C 1118.43 -4.01713 -1.93759 0
M  V30 11539 C 1119.13 -5.76453 -0.779527 0
M  V30 11540 N 1118.11 -5.27444 -1.31544 0
M  V30 11541 H 1121.91 -2.92673 -0.268288 0
M  V30 11542 H 1119.42 -1.6233 -0.0477596 0
M  V30 11543 H 1121.42 -3.15777 -2.72196 0
M  V30 11544 H 1120.08 -1.99177 -2.56434 0
M  V30 11545 H 1121.09 -5.14087 -0.627253 0
M  V30 11546 H 1117.77 -3.3527 -2.48797 0
M  V30 11547 H 1119.16 -6.71455 -0.244604 0
M  V30 11548 N 1121.88 0.120221 -1.57141 0
M  V30 11549 C 1123.13 0.826586 -1.84423 0
M  V30 11550 C 1123.45 1.80473 -0.738553 0
M  V30 11551 O 1122.72 1.94454 0.23755 0
M  V30 11552 H 1121.3 0.308246 -0.680436 0
M  V30 11553 H 1123.96 0.107835 -1.94601 0
M  V30 11554 H 1123.05 1.37256 -2.80298 0
M  V30 11555 N 1123.36 1.52689 0.390367 0
M  V30 11556 C 1124.63 1.58246 1.14968 0
M  V30 11557 C 1125.01 0.374808 2.07746 0
M  V30 11558 O 1124.36 -0.636969 2.19442 0
M  V30 11559 C 1124.57 2.92059 1.91056 0
M  V30 11560 C 1125.92 3.45745 2.46466 0
M  V30 11561 O 1126.94 2.93924 2.01214 0
M  V30 11562 O 1125.8 4.3628 3.29122 0
M  V30 11563 H 1122.9 0.638189 0.52597 0
M  V30 11564 H 1125.44 1.65024 0.39563 0
M  V30 11565 H 1124.21 3.71399 1.23201 0
M  V30 11566 H 1123.84 2.8866 2.73425 0
M  V30 11567 N 1124.83 -0.648732 1.43629 0
M  V30 11568 C 1126.25 -1.23001 1.40455 0
M  V30 11569 C 1126.6 -1.95886 0.110897 0
M  V30 11570 O 1125.72 -2.01485 -0.789487 0
M  V30 11571 C 1126.32 -2.23716 2.54434 0
M  V30 11572 C 1124.88 -2.77311 2.54511 0
M  V30 11573 C 1124.02 -1.52024 2.31914 0
M  V30 11574 H 1126.97 -0.440473 1.52465 0
M  V30 11575 H 1126.99 -3.05979 2.26179 0
M  V30 11576 H 1126.51 -1.7064 3.48574 0
M  V30 11577 H 1124.61 -3.34437 1.64263 0
M  V30 11578 H 1124.72 -3.2455 3.52426 0
M  V30 11579 H 1123.08 -1.79531 1.80667 0
M  V30 11580 H 1123.87 -1.00876 3.28145 0
M  V30 11581 N 1126.31 -1.30234 -0.887518 0
M  V30 11582 C 1127.24 -1.12212 -1.99853 0
M  V30 11583 C 1128.26 -0.0660929 -1.62666 0
M  V30 11584 O 1129.45 -0.311853 -1.75755 0
M  V30 11585 C 1126.55 -0.688591 -3.31831 0
M  V30 11586 C 1125.72 -1.82581 -3.97471 0
M  V30 11587 C 1124.78 -1.38126 -5.07748 0
M  V30 11588 O 1123.8 -2.08805 -5.29518 0
M  V30 11589 N 1125.01 -0.258868 -5.79923 0
M  V30 11590 H 1127.77 -2.07901 -2.15864 0
M  V30 11591 H 1125.33 -1.22336 -1.06045 0
M  V30 11592 H 1127.32 -0.374252 -4.02966 0
M  V30 11593 H 1125.89 0.176185 -3.12103 0
M  V30 11594 H 1125.11 -2.3084 -3.19541 0
M  V30 11595 H 1126.4 -2.58798 -4.38065 0
M  V30 11596 H 1125.8 0.330131 -5.64736 0
M  V30 11597 H 1124.36 -0.00396813 -6.518 0
M  V30 11598 N 1127.79 1.09952 -1.12909 0
M  V30 11599 C 1129.04 1.82286 -0.888797 0
M  V30 11600 C 1129.37 1.85218 0.58379 0
M  V30 11601 O 1128.64 1.31645 1.43177 0
M  V30 11602 C 1128.93 3.28706 -1.47053 0
M  V30 11603 C 1128.78 3.34078 -3.01184 0
M  V30 11604 C 1130.1 4.25233 -1.13424 0
M  V30 11605 H 1127.22 0.661803 -0.324324 0
M  V30 11606 H 1129.86 1.28833 -1.3965 0
M  V30 11607 H 1128.01 3.74356 -1.03874 0
M  V30 11608 H 1129.68 2.96871 -3.5308 0
M  V30 11609 H 1127.93 2.73825 -3.36455 0
M  V30 11610 H 1128.6 4.37202 -3.36984 0
M  V30 11611 H 1131.07 3.87841 -1.50726 0
M  V30 11612 H 1129.95 5.26033 -1.56783 0
M  V30 11613 H 1130.21 4.42075 -0.0471496 0
M  V30 11614 N 1129.27 0.921757 1.27833 0
M  V30 11615 C 1130.68 0.621102 1.47019 0
M  V30 11616 C 1130.88 -0.831338 1.83551 0
M  V30 11617 O 1129.94 -1.60974 1.94534 0
M  V30 11618 C 1131.25 1.56588 2.56712 0
M  V30 11619 C 1132.8 1.57346 2.70576 0
M  V30 11620 C 1133.28 2.50505 3.8342 0
M  V30 11621 N 1134.77 2.48678 3.90786 0
M  V30 11622 C 1135.5 3.17454 4.77505 0
M  V30 11623 N 1135 3.95588 5.68755 0
M  V30 11624 N 1136.79 3.06501 4.71183 0
M  V30 11625 H 1128.94 1.86085 1.02403 0
M  V30 11626 H 1131.21 0.798595 0.510833 0
M  V30 11627 H 1130.91 2.60175 2.36647 0
M  V30 11628 H 1130.79 1.30305 3.53978 0
M  V30 11629 H 1133.17 0.544919 2.90025 0
M  V30 11630 H 1133.25 1.87675 1.73815 0
M  V30 11631 H 1132.9 3.53466 3.64725 0
M  V30 11632 H 1132.83 2.17474 4.79596 0
M  V30 11633 H 1135.32 1.91928 3.25534 0
M  V30 11634 H 1135.63 4.45066 6.31772 0
M  V30 11635 H 1133.98 3.99692 5.6857 0
M  V30 11636 H 1137.17 2.44958 3.9889 0
M  V30 11637 H 1137.34 3.60372 5.3855 0
M  V30 11638 N 1130.75 -1.41857 0.686609 0
M  V30 11639 C 1131.99 -2.0097 0.213378 0
M  V30 11640 C 1132.32 -1.54618 -1.1882 0
M  V30 11641 O 1131.59 -0.772916 -1.80008 0
M  V30 11642 H 1130.17 -0.743134 0.0758968 0
M  V30 11643 H 1132.83 -1.73609 0.885763 0
M  V30 11644 H 1131.92 -3.11296 0.223826 0
M  V30 11645 N 1132.22 -0.430739 -1.51599 0
M  V30 11646 C 1133.19 0.372319 -2.26156 0
M  V30 11647 C 1134.19 0.955338 -1.29344 0
M  V30 11648 O 1135.38 0.830823 -1.53111 0
M  V30 11649 C 1132.51 1.52613 -3.04831 0
M  V30 11650 H 1133.7 -0.280996 -2.98581 0
M  V30 11651 H 1131.26 -0.183749 -1.55216 0
M  V30 11652 H 1131.99 2.21569 -2.36807 0
M  V30 11653 H 1131.78 1.11433 -3.75932 0
M  V30 11654 H 1133.27 2.09366 -3.61325 0
M  V30 11655 N 1133.7 1.56767 -0.161869 0
M  V30 11656 C 1134.93 2.00964 0.492027 0
M  V30 11657 C 1135.35 1.04206 1.57437 0
M  V30 11658 O 1134.7 0.0413998 1.82453 0
M  V30 11659 C 1134.75 3.4502 1.07904 0
M  V30 11660 O 1134.47 4.38082 0.0399085 0
M  V30 11661 C 1135.98 4.04572 1.81209 0
M  V30 11662 H 1133.2 0.658911 0.126797 0
M  V30 11663 H 1135.74 2.0283 -0.260824 0
M  V30 11664 H 1133.89 3.43959 1.78243 0
M  V30 11665 H 1134.31 5.22372 0.471985 0
M  V30 11666 H 1135.78 5.07321 2.17554 0
M  V30 11667 H 1136.26 3.46126 2.70359 0
M  V30 11668 H 1136.87 4.09307 1.15534 0
M  V30 11669 N 1135.18 -0.111886 1.57202 0
M  V30 11670 C 1136.14 -1.12101 1.99915 0
M  V30 11671 C 1137.14 -1.33906 0.890272 0
M  V30 11672 O 1138.33 -1.30303 1.15615 0
M  V30 11673 C 1135.47 -2.47392 2.34543 0
M  V30 11674 H 1136.66 -0.753736 2.90274 0
M  V30 11675 H 1134.21 -0.35641 1.52182 0
M  V30 11676 H 1134.95 -2.89026 1.47086 0
M  V30 11677 H 1134.73 -2.32917 3.15423 0
M  V30 11678 H 1136.22 -3.20004 2.68304 0
M  V30 11679 N 1136.66 -1.52894 -0.382264 0
M  V30 11680 C 1137.91 -1.67489 -1.12385 0
M  V30 11681 C 1138.22 -0.424565 -1.90937 0
M  V30 11682 O 1139.43 -0.450763 -2.67732 0
M  V30 11683 C 1137.88 -2.96019 -2.04697 0
M  V30 11684 C 1137.49 -4.28255 -1.31535 0
M  V30 11685 C 1139.23 -3.19981 -2.78949 0
M  V30 11686 C 1137.14 -5.47887 -2.22652 0
M  V30 11687 H 1136.07 -0.624002 -0.423246 0
M  V30 11688 H 1138.72 -1.79392 -0.386107 0
M  V30 11689 H 1137.1 -2.77878 -2.82134 0
M  V30 11690 H 1138.28 -4.56971 -0.592771 0
M  V30 11691 H 1136.59 -4.10607 -0.692148 0
M  V30 11692 H 1139.19 -4.06541 -3.47316 0
M  V30 11693 H 1139.53 -2.35335 -3.43399 0
M  V30 11694 H 1140.07 -3.38718 -2.08602 0
M  V30 11695 H 1136.81 -6.3496 -1.62806 0
M  V30 11696 H 1136.33 -5.23473 -2.92807 0
M  V30 11697 H 1138 -5.82026 -2.82586 0
M  V30 11698 N 1138.14 0.641106 -1.43971 0
M  V30 11699 C 1139.07 1.76489 -1.52885 0
M  V30 11700 C 1140.05 1.65742 -0.38258 0
M  V30 11701 O 1141.23 1.84653 -0.601397 0
M  V30 11702 C 1138.36 3.14977 -1.4631 0
M  V30 11703 C 1137.32 3.40502 -2.59311 0
M  V30 11704 C 1136.64 4.78916 -2.37789 0
M  V30 11705 C 1137.94 3.34048 -4.01509 0
M  V30 11706 H 1139.64 1.69286 -2.46946 0
M  V30 11707 H 1137.18 0.813015 -1.18853 0
M  V30 11708 H 1139.14 3.9336 -1.51149 0
M  V30 11709 H 1137.86 3.2294 -0.487599 0
M  V30 11710 H 1136.52 2.64495 -2.53846 0
M  V30 11711 H 1136.17 4.8357 -1.38454 0
M  V30 11712 H 1135.87 4.96954 -3.13545 0
M  V30 11713 H 1137.39 5.59541 -2.4443 0
M  V30 11714 H 1138.81 4.0235 -4.08396 0
M  V30 11715 H 1137.2 3.63622 -4.77388 0
M  V30 11716 H 1138.27 2.32022 -4.25786 0
M  V30 11717 N 1139.62 1.30703 0.880598 0
M  V30 11718 C 1140.86 1.21066 1.64688 0
M  V30 11719 C 1141.22 -0.230015 1.90617 0
M  V30 11720 O 1142.42 -0.449696 2.65012 0
M  V30 11721 C 1140.69 2.02072 2.94791 0
M  V30 11722 S 1142.25 2.09182 3.85731 0
M  V30 11723 H 1139.07 0.431369 0.565192 0
M  V30 11724 H 1141.67 1.65234 1.04489 0
M  V30 11725 H 1140.37 3.05851 2.73648 0
M  V30 11726 H 1139.91 1.58583 3.60021 0
M  V30 11727 H 1141.92 1.22239 4.80908 0
M  V30 11728 N 1141.09 -1.09351 1.1349 0
M  V30 11729 C 1142.34 -1.81185 0.89535 0
M  V30 11730 C 1142.66 -1.86173 -0.580048 0
M  V30 11731 O 1141.93 -1.34784 -1.42162 0
M  V30 11732 H 1140.51 -0.671011 0.328257 0
M  V30 11733 H 1143.17 -1.32255 1.43159 0
M  V30 11734 H 1142.27 -2.84339 1.28676 0
M  V30 11735 N 1142.57 -0.928524 -1.27343 0
M  V30 11736 C 1143.8 -0.585734 -1.98436 0
M  V30 11737 C 1144.21 0.83644 -1.69261 0
M  V30 11738 O 1143.57 1.55603 -0.953626 0
M  V30 11739 C 1143.62 -0.803092 -3.52467 0
M  V30 11740 O 1143.34 -2.16932 -3.80621 0
M  V30 11741 C 1144.84 -0.469127 -4.40811 0
M  V30 11742 H 1142.06 -0.221887 -0.633251 0
M  V30 11743 H 1144.61 -1.24577 -1.62175 0
M  V30 11744 H 1142.76 -0.189846 -3.86935 0
M  V30 11745 H 1143.18 -2.21992 -4.75205 0
M  V30 11746 H 1144.65 -0.671906 -5.47895 0
M  V30 11747 H 1145.13 0.595365 -4.35146 0
M  V30 11748 H 1145.73 -1.06055 -4.11865 0
M  V30 11749 N 1144.05 1.41491 -0.694123 0
M  V30 11750 C 1144.98 2.33462 -0.0422169 0
M  V30 11751 C 1145.96 1.51739 0.76872 0
M  V30 11752 O 1147.15 1.8028 0.721985 0
M  V30 11753 C 1144.28 3.35545 0.895925 0
M  V30 11754 C 1143.23 4.27568 0.192188 0
M  V30 11755 C 1142.56 5.20014 1.24459 0
M  V30 11756 C 1143.86 5.1376 -0.940626 0
M  V30 11757 H 1145.55 2.88225 -0.810363 0
M  V30 11758 H 1143.1 1.38586 -0.39114 0
M  V30 11759 H 1145.05 3.9881 1.36121 0
M  V30 11760 H 1143.77 2.79129 1.69572 0
M  V30 11761 H 1142.43 3.65726 -0.25305 0
M  V30 11762 H 1142.08 4.59913 2.03687 0
M  V30 11763 H 1141.78 5.82417 0.778734 0
M  V30 11764 H 1143.3 5.86155 1.71041 0
M  V30 11765 H 1144.72 5.70601 -0.555692 0
M  V30 11766 H 1143.11 5.85097 -1.33349 0
M  V30 11767 H 1144.18 4.51011 -1.78093 0
M  V30 11768 N 1145.53 0.438773 1.51369 0
M  V30 11769 C 1146.78 -0.128723 2.01289 0
M  V30 11770 C 1147.09 -1.43659 1.32745 0
M  V30 11771 O 1148.3 -2.08712 1.73642 0
M  V30 11772 C 1146.75 -0.279945 3.5881 0
M  V30 11773 C 1146.36 1.01758 4.3629 0
M  V30 11774 C 1148.1 -0.801133 4.16872 0
M  V30 11775 C 1146.01 0.831918 5.85519 0
M  V30 11776 H 1144.94 -0.0518814 0.752213 0
M  V30 11777 H 1147.59 0.568753 1.74463 0
M  V30 11778 H 1145.97 -1.04046 3.82087 0
M  V30 11779 H 1147.15 1.78653 4.24758 0
M  V30 11780 H 1145.46 1.46741 3.89687 0
M  V30 11781 H 1148.06 -0.956548 5.26074 0
M  V30 11782 H 1148.4 -1.78396 3.76139 0
M  V30 11783 H 1148.94 -0.0988934 3.97677 0
M  V30 11784 H 1145.67 1.78716 6.30667 0
M  V30 11785 H 1145.19 0.102785 5.99712 0
M  V30 11786 H 1146.87 0.485681 6.45174 0
M  V30 11787 N 1147.01 -1.56678 0.170181 0
M  V30 11788 C 1148.25 -1.98743 -0.477534 0
M  V30 11789 C 1148.61 -1.0538 -1.60497 0
M  V30 11790 O 1149.81 -1.3658 -2.31515 0
M  V30 11791 C 1148.08 -3.44565 -0.949186 0
M  V30 11792 S 1149.64 -4.08658 -1.59824 0
M  V30 11793 H 1146.46 -0.694202 -0.153639 0
M  V30 11794 H 1149.06 -1.93663 0.267373 0
M  V30 11795 H 1147.76 -4.1023 -0.118205 0
M  V30 11796 H 1147.3 -3.53409 -1.72816 0
M  V30 11797 H 1149.31 -4.03614 -2.88635 0
M  V30 11798 N 1148.48 0.103547 -1.57259 0
M  V30 11799 C 1149.71 0.82624 -1.90232 0
M  V30 11800 C 1150.13 1.71902 -0.763641 0
M  V30 11801 O 1149.49 1.79043 0.285181 0
M  V30 11802 C 1149.54 1.62265 -3.22029 0
M  V30 11803 O 1148.64 2.73091 -3.09023 0
M  V30 11804 H 1147.98 0.227528 -0.6238 0
M  V30 11805 H 1150.51 0.081307 -2.04438 0
M  V30 11806 H 1150.52 2.00865 -3.5513 0
M  V30 11807 H 1149.2 0.967383 -4.04493 0
M  V30 11808 H 1147.78 2.3758 -2.8742 0
M  V30 11809 N 1149.96 1.53094 0.37415 0
M  V30 11810 C 1151.21 1.68082 1.11495 0
M  V30 11811 C 1151.52 0.434685 1.90709 0
M  V30 11812 O 1152.73 0.464956 2.67489 0
M  V30 11813 C 1151.19 2.97101 2.03124 0
M  V30 11814 C 1150.79 4.28947 1.29262 0
M  V30 11815 C 1152.54 3.21456 2.77248 0
M  V30 11816 C 1150.44 5.4906 2.19743 0
M  V30 11817 H 1149.37 0.626238 0.419931 0
M  V30 11818 H 1152.03 1.79594 0.376588 0
M  V30 11819 H 1150.41 2.79371 2.80656 0
M  V30 11820 H 1151.58 4.57279 0.568528 0
M  V30 11821 H 1149.9 4.10968 0.670362 0
M  V30 11822 H 1152.49 4.08377 3.45155 0
M  V30 11823 H 1152.84 2.37153 3.42146 0
M  V30 11824 H 1153.37 3.3982 2.06803 0
M  V30 11825 H 1150.11 6.35815 1.59437 0
M  V30 11826 H 1149.63 5.25019 2.90027 0
M  V30 11827 H 1151.31 5.83517 2.79495 0
M  V30 11828 N 1151.44 -0.633461 1.44309 0
M  V30 11829 C 1152.37 -1.75676 1.53819 0
M  V30 11830 C 1153.35 -1.65537 0.391365 0
M  V30 11831 O 1154.54 -1.84332 0.611181 0
M  V30 11832 C 1151.67 -3.14197 1.47979 0
M  V30 11833 C 1150.62 -3.39122 2.61113 0
M  V30 11834 C 1149.95 -4.77648 2.40325 0
M  V30 11835 C 1151.25 -3.31914 4.03274 0
M  V30 11836 H 1152.94 -1.67974 2.47841 0
M  V30 11837 H 1150.49 -0.8067 1.19283 0
M  V30 11838 H 1152.44 -3.92553 1.53233 0
M  V30 11839 H 1151.16 -3.22677 0.504718 0
M  V30 11840 H 1149.82 -2.63145 2.55245 0
M  V30 11841 H 1149.47 -4.82829 1.41016 0
M  V30 11842 H 1149.17 -4.95284 3.16177 0
M  V30 11843 H 1150.69 -5.58237 2.47394 0
M  V30 11844 H 1152.11 -4.00178 4.10524 0
M  V30 11845 H 1150.5 -3.61085 4.7931 0
M  V30 11846 H 1151.57 -2.29761 4.2701 0
M  V30 11847 N 1152.92 -1.31168 -0.873655 0
M  V30 11848 C 1154.14 -1.23728 -1.66452 0
M  V30 11849 C 1154.57 0.194869 -1.87088 0
M  V30 11850 O 1153.93 1.1397 -1.40998 0
M  V30 11851 C 1153.97 -1.98285 -3.0119 0
M  V30 11852 O 1153.08 -1.31767 -3.90783 0
M  V30 11853 H 1152.42 -0.427362 -0.508191 0
M  V30 11854 H 1154.95 -1.73176 -1.08955 0
M  V30 11855 H 1154.96 -2.0774 -3.51153 0
M  V30 11856 H 1153.63 -3.02437 -2.8549 0
M  V30 11857 H 1152.21 -1.3074 -3.4923 0
M  V30 11858 N 1154.4 1.08748 -1.14068 0
M  V30 11859 C 1155.81 1.33125 -0.880341 0
M  V30 11860 C 1156.01 1.9569 0.480396 0
M  V30 11861 O 1155.07 2.2077 1.22543 0
M  V30 11862 C 1156.38 2.23618 -2.01036 0
M  V30 11863 C 1157.93 2.37108 -2.04326 0
M  V30 11864 C 1158.4 3.30941 -3.1661 0
M  V30 11865 N 1159.9 3.38517 -3.16166 0
M  V30 11866 C 1160.63 4.11142 -3.99687 0
M  V30 11867 N 1160.13 4.86505 -4.93239 0
M  V30 11868 N 1161.92 4.06938 -3.87761 0
M  V30 11869 H 1154.07 0.665164 -2.01716 0
M  V30 11870 H 1156.33 0.355612 -0.878774 0
M  V30 11871 H 1156.04 1.84885 -2.99183 0
M  V30 11872 H 1155.91 3.24056 -1.93049 0
M  V30 11873 H 1158.3 2.75101 -1.06787 0
M  V30 11874 H 1158.38 1.36424 -2.16384 0
M  V30 11875 H 1158.03 2.93669 -4.14392 0
M  V30 11876 H 1157.96 4.31545 -3.01789 0
M  V30 11877 H 1160.45 2.84786 -2.48405 0
M  V30 11878 H 1160.76 5.39372 -5.53441 0
M  V30 11879 H 1159.1 4.8557 -4.9724 0
M  V30 11880 H 1162.3 3.47166 -3.13996 0
M  V30 11881 H 1162.47 4.63275 -4.53079 0
M  V30 11882 N 1155.87 0.935264 1.26849 0
M  V30 11883 C 1157.1 0.595704 1.98661 0
M  V30 11884 C 1157.52 -0.821001 1.69237 0
M  V30 11885 O 1156.88 -1.55211 0.936982 0
M  V30 11886 C 1156.93 0.837275 3.50745 0
M  V30 11887 O 1156.03 -0.0934914 4.12294 0
M  V30 11888 H 1155.38 0.228512 0.623441 0
M  V30 11889 H 1157.91 1.25658 1.61466 0
M  V30 11890 H 1157.92 0.755827 4.00938 0
M  V30 11891 H 1156.59 1.86993 3.71492 0
M  V30 11892 H 1155.17 0.0385124 3.7288 0
M  V30 11893 N 1157.35 -1.41121 0.701616 0
M  V30 11894 C 1158.77 -1.55162 0.373766 0
M  V30 11895 C 1158.97 -1.6759 -1.11875 0
M  V30 11896 O 1158.02 -1.65768 -1.90465 0
M  V30 11897 C 1159.34 -2.78758 1.12759 0
M  V30 11898 C 1160.89 -2.92561 1.11253 0
M  V30 11899 C 1161.36 -4.19052 1.84822 0
M  V30 11900 N 1162.85 -4.26023 1.81821 0
M  V30 11901 C 1163.59 -5.22771 2.3558 0
M  V30 11902 N 1163.08 -6.25512 2.97836 0
M  V30 11903 N 1164.88 -5.14752 2.25802 0
M  V30 11904 H 1157.03 -1.31299 1.66956 0
M  V30 11905 H 1159.29 -0.633894 0.704898 0
M  V30 11906 H 1159 -2.75804 2.18231 0
M  V30 11907 H 1158.87 -3.70456 0.710095 0
M  V30 11908 H 1161.26 -2.95026 0.0660506 0
M  V30 11909 H 1161.34 -2.0202 1.56913 0
M  V30 11910 H 1160.98 -4.17349 2.89452 0
M  V30 11911 H 1160.91 -5.08577 1.36592 0
M  V30 11912 H 1163.4 -3.52411 1.36438 0
M  V30 11913 H 1163.72 -6.95736 3.36409 0
M  V30 11914 H 1162.06 -6.25997 3.01916 0
M  V30 11915 H 1165.25 -4.33414 1.76833 0
M  V30 11916 H 1165.42 -5.89983 2.68001 0
M  V30 11917 N 1158.83 -0.446794 -1.51134 0
M  V30 11918 C 1160.08 0.116493 -2.02165 0
M  V30 11919 C 1160.41 1.41884 -1.33039 0
M  V30 11920 O 1159.66 1.90757 -0.437071 0
M  V30 11921 C 1159.96 0.373015 -3.55448 0
M  V30 11922 C 1159.63 -0.844659 -4.42918 0
M  V30 11923 C 1158.29 -1.17857 -4.66544 0
M  V30 11924 C 1160.64 -1.65653 -4.94174 0
M  V30 11925 C 1157.97 -2.32486 -5.38672 0
M  V30 11926 C 1160.32 -2.7939 -5.6756 0
M  V30 11927 C 1158.98 -3.13224 -5.89446 0
M  V30 11928 H 1158.25 0.0426279 -0.739773 0
M  V30 11929 H 1160.9 -0.595921 -1.81992 0
M  V30 11930 H 1159.21 1.16742 -3.74003 0
M  V30 11931 H 1160.9 0.822425 -3.92476 0
M  V30 11932 H 1157.49 -0.574478 -4.24733 0
M  V30 11933 H 1161.68 -1.41176 -4.75797 0
M  V30 11934 H 1156.93 -2.59003 -5.5383 0
M  V30 11935 H 1161.11 -3.42662 -6.06264 0
M  V30 11936 H 1158.73 -4.02158 -6.45115 0
M  V30 11937 N 1160.31 1.56586 -0.178487 0
M  V30 11938 C 1161.26 2.1491 0.761432 0
M  V30 11939 C 1162.24 1.08528 1.18788 0
M  V30 11940 O 1163.43 1.34633 1.14904 0
M  V30 11941 C 1160.56 2.79902 1.98771 0
M  V30 11942 C 1159.65 3.93452 1.58293 0
M  V30 11943 N 1160.04 4.97942 0.888124 0
M  V30 11944 C 1158.34 4.04745 1.87343 0
M  V30 11945 C 1159.04 5.7762 0.68772 0
M  V30 11946 N 1158.02 5.2947 1.23136 0
M  V30 11947 H 1161.82 2.93063 0.221693 0
M  V30 11948 H 1159.33 1.62385 0.0219283 0
M  V30 11949 H 1161.33 3.20067 2.67138 0
M  V30 11950 H 1159.99 2.03232 2.53233 0
M  V30 11951 H 1161 5.1502 0.545387 0
M  V30 11952 H 1157.68 3.39186 2.43432 0
M  V30 11953 H 1159.07 6.71759 0.13775 0
M  V30 11954 N 1161.79 -0.095206 1.57312 0
M  V30 11955 C 1163.03 -0.799903 1.86358 0
M  V30 11956 C 1163.37 -1.78386 0.767593 0
M  V30 11957 O 1162.64 -1.93201 -0.224439 0
M  V30 11958 C 1162.92 -1.52875 3.26039 0
M  V30 11959 C 1162.78 -0.562781 4.46265 0
M  V30 11960 C 1164.1 -2.47935 3.63616 0
M  V30 11961 H 1161.21 -0.289339 0.677829 0
M  V30 11962 H 1163.86 -0.0635369 1.89894 0
M  V30 11963 H 1162.01 -2.15645 3.23156 0
M  V30 11964 H 1163.68 0.0579068 4.61264 0
M  V30 11965 H 1161.92 0.123847 4.33623 0
M  V30 11966 H 1162.59 -1.10989 5.40727 0
M  V30 11967 H 1165.07 -1.95257 3.67442 0
M  V30 11968 H 1163.94 -2.95948 4.62283 0
M  V30 11969 H 1164.21 -3.31687 2.92294 0
M  V30 11970 N 1163.26 -1.53291 -0.366026 0
M  V30 11971 C 1164.51 -1.69117 -1.10653 0
M  V30 11972 C 1164.83 -0.445327 -1.89847 0
M  V30 11973 O 1164.1 0.540616 -1.88293 0
M  V30 11974 H 1162.68 -0.623446 -0.41149 0
M  V30 11975 H 1165.35 -1.90479 -0.412749 0
M  V30 11976 H 1164.44 -2.55205 -1.79658 0
M  V30 11977 N 1164.74 0.6258 -1.44643 0
M  V30 11978 C 1166.02 1.38439 -1.38181 0
M  V30 11979 C 1166.4 2.11056 -0.0431928 0
M  V30 11980 O 1165.75 2.06683 0.974383 0
M  V30 11981 C 1165.96 2.34639 -2.58352 0
M  V30 11982 C 1167.31 2.97807 -3.02649 0
M  V30 11983 O 1168.33 2.44963 -2.58595 0
M  V30 11984 O 1167.19 3.93682 -3.79048 0
M  V30 11985 H 1164.28 0.619852 -0.54746 0
M  V30 11986 H 1166.83 0.650409 -1.56741 0
M  V30 11987 H 1165.6 1.80116 -3.47382 0
M  V30 11988 H 1165.22 3.15446 -2.42032 0
M  V30 11989 N 1166.22 1.31629 0.866686 0
M  V30 11990 C 1167.47 1.22693 1.62228 0
M  V30 11991 C 1167.82 -0.212134 1.91227 0
M  V30 11992 O 1167.11 -1.1465 1.53512 0
M  V30 11993 C 1167.31 2.00775 2.95676 0
M  V30 11994 C 1167.14 3.52128 2.79708 0
M  V30 11995 C 1165.91 4.21476 2.78722 0
M  V30 11996 C 1168.11 4.47013 2.5433 0
M  V30 11997 N 1166.09 5.58963 2.53838 0
M  V30 11998 C 1167.46 5.72192 2.3874 0
M  V30 11999 C 1169.51 4.36404 2.39701 0
M  V30 12000 C 1168.22 6.8796 2.10008 0
M  V30 12001 C 1170.24 5.51959 2.12358 0
M  V30 12002 C 1169.6 6.76129 1.97559 0
M  V30 12003 H 1165.7 0.504088 0.597845 0
M  V30 12004 H 1168.29 1.65856 1.01979 0
M  V30 12005 H 1166.46 1.59975 3.53924 0
M  V30 12006 H 1168.19 1.83831 3.60539 0
M  V30 12007 H 1164.95 3.73478 2.91224 0
M  V30 12008 H 1165.37 6.31362 2.44358 0
M  V30 12009 H 1170.01 3.41066 2.49868 0
M  V30 12010 H 1167.73 7.83321 1.98578 0
M  V30 12011 H 1171.32 5.45669 2.01834 0
M  V30 12012 H 1170.2 7.64033 1.76701 0
M  V30 12013 N 1167.7 -1.08142 1.14644 0
M  V30 12014 C 1168.63 -2.14476 0.779437 0
M  V30 12015 C 1169.61 -1.60812 -0.240454 0
M  V30 12016 O 1170.79 -1.88059 -0.128881 0
M  V30 12017 C 1167.92 -3.38333 0.157692 0
M  V30 12018 C 1166.97 -4.10754 1.14819 0
M  V30 12019 S 1167.8 -4.63227 2.68666 0
M  V30 12020 C 1168.96 -5.90367 2.07888 0
M  V30 12021 H 1169.19 -2.45276 1.68009 0
M  V30 12022 H 1166.72 -1.20292 0.967942 0
M  V30 12023 H 1168.68 -4.10038 -0.194607 0
M  V30 12024 H 1167.34 -3.05726 -0.720435 0
M  V30 12025 H 1166.53 -4.99644 0.661226 0
M  V30 12026 H 1166.14 -3.44974 1.44462 0
M  V30 12027 H 1168.43 -6.62107 1.43599 0
M  V30 12028 H 1169.37 -6.43764 2.94913 0
M  V30 12029 H 1169.78 -5.43507 1.52514 0
M  V30 12030 N 1169.18 -0.941978 -1.26351 0
M  V30 12031 C 1170.43 -0.588806 -1.93333 0
M  V30 12032 C 1170.75 0.875067 -1.74263 0
M  V30 12033 O 1170.02 1.62187 -1.09873 0
M  V30 12034 H 1168.6 -0.214774 -0.715459 0
M  V30 12035 H 1171.26 -1.19747 -1.53774 0
M  V30 12036 H 1170.35 -0.807267 -3.01479 0
M  V30 12037 N 1170.66 1.40747 -0.709091 0
M  V30 12038 C 1171.88 2.05319 -0.255258 0
M  V30 12039 C 1172.3 1.53406 1.10054 0
M  V30 12040 O 1171.66 0.687905 1.69039 0
M  V30 12041 C 1171.71 3.60835 -0.219251 0
M  V30 12042 O 1171.43 4.1083 -1.52151 0
M  V30 12043 C 1172.93 4.42572 0.253927 0
M  V30 12044 H 1170.15 0.660904 -0.115959 0
M  V30 12045 H 1172.69 1.80274 -0.965474 0
M  V30 12046 H 1170.85 3.84872 0.441882 0
M  V30 12047 H 1171.26 5.04979 -1.41764 0
M  V30 12048 H 1172.74 5.51529 0.22798 0
M  V30 12049 H 1173.21 4.19673 1.29504 0
M  V30 12050 H 1173.82 4.23629 -0.376694 0
M  V30 12051 N 1172.13 0.454803 1.50895 0
M  V30 12052 C 1173.38 -0.107367 2.01414 0
M  V30 12053 C 1173.7 -1.42243 1.34262 0
M  V30 12054 O 1174.9 -2.06858 1.75846 0
M  V30 12055 C 1173.36 -0.241872 3.59086 0
M  V30 12056 C 1172.97 1.06379 4.35187 0
M  V30 12057 C 1174.71 -0.756873 4.17698 0
M  V30 12058 C 1172.62 0.893973 5.84604 0
M  V30 12059 H 1171.55 -0.0439003 0.752721 0
M  V30 12060 H 1174.2 0.587225 1.7385 0
M  V30 12061 H 1172.58 -0.999873 3.83169 0
M  V30 12062 H 1173.75 1.83148 4.2284 0
M  V30 12063 H 1172.07 1.50865 3.88109 0
M  V30 12064 H 1174.67 -0.900697 5.27059 0
M  V30 12065 H 1175.01 -1.74397 3.7801 0
M  V30 12066 H 1175.54 -0.0567088 3.9776 0
M  V30 12067 H 1172.28 1.85395 6.28736 0
M  V30 12068 H 1171.8 0.166387 5.99569 0
M  V30 12069 H 1173.48 0.554084 6.44623 0
M  V30 12070 N 1173.61 -1.56489 0.186789 0
M  V30 12071 C 1175.03 -1.58701 -0.169176 0
M  V30 12072 C 1175.23 -1.2027 -1.61671 0
M  V30 12073 O 1174.28 -0.92154 -2.35083 0
M  V30 12074 C 1175.6 -3.00437 0.125657 0
M  V30 12075 C 1177.14 -3.12932 0.0651 0
M  V30 12076 C 1177.62 -4.56787 0.333131 0
M  V30 12077 N 1179.11 -4.62344 0.281453 0
M  V30 12078 C 1179.85 -5.71529 0.462805 0
M  V30 12079 N 1179.34 -6.89213 0.704054 0
M  V30 12080 N 1181.13 -5.60692 0.397636 0
M  V30 12081 H 1173.29 -1.79754 1.13148 0
M  V30 12082 H 1175.55 -0.83385 0.450997 0
M  V30 12083 H 1175.25 -3.33086 1.12901 0
M  V30 12084 H 1175.13 -3.72782 -0.575612 0
M  V30 12085 H 1177.52 -2.80101 -0.928845 0
M  V30 12086 H 1177.6 -2.42991 0.799318 0
M  V30 12087 H 1177.24 -4.9033 1.32436 0
M  V30 12088 H 1177.17 -5.24907 -0.421879 0
M  V30 12089 H 1179.66 -3.77764 0.101266 0
M  V30 12090 H 1179.97 -7.68314 0.831468 0
M  V30 12091 H 1178.32 -6.9104 0.740851 0
M  V30 12092 H 1181.51 -4.6763 0.20964 0
M  V30 12093 H 1181.68 -6.45726 0.54239 0
M  V30 12094 N 1175.09 0.086862 -1.5736 0
M  V30 12095 C 1176.32 0.802167 -1.90717 0
M  V30 12096 C 1176.73 1.71875 -0.781304 0
M  V30 12097 O 1176.09 1.80831 0.246255 0
M  V30 12098 C 1176.14 1.60858 -3.23739 0
M  V30 12099 O 1175.86 0.728851 -4.31995 0
M  V30 12100 C 1177.36 2.42621 -3.71012 0
M  V30 12101 H 1174.58 0.228914 -0.630745 0
M  V30 12102 H 1177.13 0.061634 -2.04407 0
M  V30 12103 H 1175.28 2.30153 -3.11622 0
M  V30 12104 H 1175.7 1.2882 -5.08435 0
M  V30 12105 H 1177.17 2.94683 -4.66761 0
M  V30 12106 H 1177.65 3.21462 -2.99264 0
M  V30 12107 H 1178.25 1.78509 -3.86024 0
M  V30 12108 N 1176.57 1.53483 0.357892 0
M  V30 12109 C 1177.5 1.83444 1.44466 0
M  V30 12110 C 1178.48 0.688486 1.55544 0
M  V30 12111 O 1179.66 0.93906 1.69986 0
M  V30 12112 C 1176.79 2.03122 2.81707 0
M  V30 12113 C 1175.75 3.1891 2.85448 0
M  V30 12114 C 1175.07 3.23895 4.25436 0
M  V30 12115 C 1176.37 4.57334 2.52275 0
M  V30 12116 H 1178.07 2.74456 1.19642 0
M  V30 12117 H 1175.61 1.3206 0.574112 0
M  V30 12118 H 1177.57 2.22666 3.57768 0
M  V30 12119 H 1176.29 1.08827 3.07935 0
M  V30 12120 H 1174.95 2.99199 2.11838 0
M  V30 12121 H 1174.6 2.27223 4.48753 0
M  V30 12122 H 1174.3 4.01694 4.28854 0
M  V30 12123 H 1175.82 3.45632 5.0336 0
M  V30 12124 H 1177.24 4.76988 3.1805 0
M  V30 12125 H 1175.63 5.37431 2.66998 0
M  V30 12126 H 1176.7 4.61921 1.47501 0
M  V30 12127 N 1178.05 -0.61812 1.44973 0
M  V30 12128 C 1179.27 -1.40429 1.51945 0
M  V30 12129 C 1179.69 -1.88215 0.148556 0
M  V30 12130 O 1179.05 -1.61603 -0.847978 0
M  V30 12131 C 1179.1 -2.61588 2.49507 0
M  V30 12132 O 1178.82 -2.15791 3.81269 0
M  V30 12133 C 1180.32 -3.5457 2.66074 0
M  V30 12134 H 1177.54 -0.43023 0.514921 0
M  V30 12135 H 1180.08 -0.754791 1.90061 0
M  V30 12136 H 1178.24 -3.22602 2.14492 0
M  V30 12137 H 1178.65 -2.94434 4.34061 0
M  V30 12138 H 1180.13 -4.36155 3.38338 0
M  V30 12139 H 1180.6 -4.04227 1.71746 0
M  V30 12140 H 1181.21 -2.99416 3.02043 0
M  V30 12141 N 1179.52 -1.32087 -0.859693 0
M  V30 12142 C 1180.77 -1.22119 -1.61033 0
M  V30 12143 C 1181.09 0.218289 -1.93774 0
M  V30 12144 O 1180.36 1.14172 -1.5919 0
M  V30 12145 H 1178.94 -0.448989 -0.597008 0
M  V30 12146 H 1181.6 -1.65545 -1.02863 0
M  V30 12147 H 1180.7 -1.80023 -2.54947 0
M  V30 12148 N 1181 1.07532 -1.15215 0
M  V30 12149 C 1181.95 2.16785 -0.843022 0
M  V30 12150 C 1182.94 1.68411 0.182802 0
M  V30 12151 O 1184.15 1.7996 0.0380164 0
M  V30 12152 H 1180.52 0.707465 -0.254945 0
M  V30 12153 H 1182.5 2.40078 -1.77215 0
M  V30 12154 C 1181.24 3.45967 -0.346699 0
M  V30 12155 H 1180.57 3.83574 -1.12744 0
M  V30 12156 H 1182.01 4.23663 -0.169039 0
M  V30 12157 C 1180.47 3.23768 0.931437 0
M  V30 12158 O 1181 3.48179 2.00336 0
M  V30 12159 N 1179.2 2.77264 0.870217 0
M  V30 12160 H 1178.75 2.576 -0.00226223 0
M  V30 12161 H 1178.71 2.6279 1.72594 0
M  V30 12162 N 1182.48 0.948665 1.2585 0
M  V30 12163 C 1183.71 0.617229 1.97479 0
M  V30 12164 C 1184.12 -0.809406 1.7057 0
M  V30 12165 O 1183.48 -1.54066 0.97826 0
M  V30 12166 C 1183.53 0.859065 3.51144 0
M  V30 12167 O 1183.25 2.2296 3.77121 0
M  V30 12168 C 1184.75 0.539197 4.40009 0
M  V30 12169 H 1181.97 0.231933 0.629641 0
M  V30 12170 H 1184.52 1.27141 1.60173 0
M  V30 12171 H 1182.67 0.25138 3.86584 0
M  V30 12172 H 1183.09 2.29524 4.71613 0
M  V30 12173 H 1184.56 0.758986 5.46757 0
M  V30 12174 H 1185.04 -0.526062 4.36038 0
M  V30 12175 H 1185.64 1.12594 4.10125 0
M  V30 12176 N 1183.96 -1.40369 0.716545 0
M  V30 12177 C 1185.21 -2.00869 0.256466 0
M  V30 12178 C 1185.53 -1.56816 -1.15061 0
M  V30 12179 O 1184.79 -0.779696 -1.79497 0
M  V30 12180 C 1185.09 -3.56257 0.285583 0
M  V30 12181 C 1184.75 -4.19897 1.64309 0
M  V30 12182 C 1183.42 -4.36994 2.01469 0
M  V30 12183 C 1185.77 -4.55385 2.53524 0
M  V30 12184 C 1183.1 -4.86862 3.27387 0
M  V30 12185 C 1185.45 -5.06653 3.78795 0
M  V30 12186 C 1184.11 -5.21959 4.16071 0
M  V30 12187 H 1183.38 -0.735033 0.0938475 0
M  V30 12188 H 1186.03 -1.67966 0.919765 0
M  V30 12189 H 1184.33 -3.89075 -0.461287 0
M  V30 12190 H 1186.03 -4.00903 -0.0882496 0
M  V30 12191 H 1182.62 -4.06978 1.34413 0
M  V30 12192 H 1186.8 -4.41811 2.2609 0
M  V30 12193 H 1182.06 -4.96897 3.56235 0
M  V30 12194 H 1186.23 -5.33089 4.48095 0
M  V30 12195 H 1183.86 -5.60362 5.1371 0
M  V30 12196 N 1185.44 -0.462799 -1.50652 0
M  V30 12197 C 1186.66 0.0952726 -2.07181 0
M  V30 12198 C 1187.09 1.33479 -1.32533 0
M  V30 12199 O 1186.44 1.77473 -0.370564 0
M  V30 12200 C 1186.49 0.370592 -3.58691 0
M  V30 12201 O 1185.6 1.4526 -3.85971 0
M  V30 12202 H 1184.94 -0.00932702 -0.663934 0
M  V30 12203 H 1187.47 -0.651458 -1.93951 0
M  V30 12204 H 1187.48 0.613551 -4.0336 0
M  V30 12205 H 1186.15 -0.535219 -4.12442 0
M  V30 12206 H 1184.73 1.1976 -3.53146 0
M  V30 12207 N 1186.91 1.56388 -0.195085 0
M  V30 12208 C 1187.84 2.22091 0.720971 0
M  V30 12209 C 1188.83 1.184 1.22128 0
M  V30 12210 O 1190.01 1.46907 1.27012 0
M  V30 12211 C 1187.14 2.88025 1.94059 0
M  V30 12212 C 1186.09 3.97959 1.5752 0
M  V30 12213 C 1185.42 4.51058 2.87143 0
M  V30 12214 C 1186.72 5.16365 0.785145 0
M  V30 12215 H 1188.41 2.98898 0.173245 0
M  V30 12216 H 1185.96 1.43767 0.0818868 0
M  V30 12217 H 1187.91 3.32671 2.58666 0
M  V30 12218 H 1186.64 2.08623 2.51285 0
M  V30 12219 H 1185.3 3.54004 0.952715 0
M  V30 12220 H 1184.94 3.68418 3.42458 0
M  V30 12221 H 1184.64 5.25237 2.63439 0
M  V30 12222 H 1186.17 4.98406 3.52738 0
M  V30 12223 H 1187.58 5.57556 1.33431 0
M  V30 12224 H 1185.98 5.9661 0.646231 0
M  V30 12225 H 1187.05 4.84428 -0.213789 0
M  V30 12226 N 1188.39 -0.0785156 1.57404 0
M  V30 12227 C 1189.36 -1.07835 2.02248 0
M  V30 12228 C 1190.36 -1.31987 0.918475 0
M  V30 12229 O 1191.55 -1.27821 1.18353 0
M  V30 12230 C 1188.68 -2.42361 2.39737 0
M  V30 12231 H 1189.87 -0.691995 2.91807 0
M  V30 12232 H 1187.42 -0.32405 1.52904 0
M  V30 12233 H 1188.16 -2.85841 1.53183 0
M  V30 12234 H 1187.94 -2.26174 3.20293 0
M  V30 12235 H 1189.43 -3.14241 2.75031 0
M  V30 12236 N 1189.87 -1.5367 -0.349747 0
M  V30 12237 C 1191.15 -1.61238 -1.10732 0
M  V30 12238 C 1191.53 -0.429756 -2.06679 0
M  V30 12239 O 1190.88 0.578564 -2.21054 0
M  V30 12240 C 1191.09 -2.97022 -1.83245 0
M  V30 12241 C 1192.43 -3.52158 -2.37212 0
M  V30 12242 O 1193.46 -2.99156 -1.9335 0
M  V30 12243 O 1192.32 -4.44853 -3.1744 0
M  V30 12244 H 1189.41 -0.65191 -0.508864 0
M  V30 12245 H 1191.96 -1.66015 -0.351738 0
M  V30 12246 H 1190.73 -3.74535 -1.13311 0
M  V30 12247 H 1190.35 -2.95808 -2.65675 0
M  V30 12248 N 1191.35 0.610423 -1.45298 0
M  V30 12249 C 1192.59 1.38085 -1.50705 0
M  V30 12250 C 1192.95 1.91459 -0.143997 0
M  V30 12251 O 1194.15 2.68702 -0.0727521 0
M  V30 12252 C 1192.42 2.50009 -2.55402 0
M  V30 12253 S 1193.98 3.37844 -2.80012 0
M  V30 12254 H 1190.8 0.470812 -0.532783 0
M  V30 12255 H 1193.4 0.704638 -1.8236 0
M  V30 12256 H 1192.11 2.09143 -3.53111 0
M  V30 12257 H 1191.64 3.22434 -2.25388 0
M  V30 12258 H 1193.65 4.48074 -2.13176 0
M  V30 12259 N 1192.83 1.32541 0.852676 0
M  V30 12260 C 1194.08 1.22567 1.60188 0
M  V30 12261 C 1194.39 -0.210594 1.94463 0
M  V30 12262 O 1195.59 -0.432214 2.68038 0
M  V30 12263 C 1194.05 2.14678 2.88862 0
M  V30 12264 C 1193.66 3.63398 2.62004 0
M  V30 12265 C 1195.4 2.13545 3.66877 0
M  V30 12266 C 1193.31 4.47464 3.86691 0
M  V30 12267 H 1192.24 0.455184 0.601102 0
M  V30 12268 H 1194.89 1.57515 0.941347 0
M  V30 12269 H 1193.27 1.72647 3.56383 0
M  V30 12270 H 1194.45 4.13783 2.02782 0
M  V30 12271 H 1192.76 3.66681 1.97316 0
M  V30 12272 H 1195.36 2.73589 4.59405 0
M  V30 12273 H 1195.7 1.12694 4.00756 0
M  V30 12274 H 1196.23 2.53866 3.06263 0
M  V30 12275 H 1192.97 5.49136 3.57952 0
M  V30 12276 H 1192.49 4.01829 4.45302 0
M  V30 12277 H 1194.17 4.60565 4.5441 0
M  V30 12278 N 1194.3 -1.0692 1.15784 0
M  V30 12279 C 1195.72 -1.61069 0.944123 0
M  V30 12280 C 1196.07 -1.8936 -0.513522 0
M  V30 12281 O 1195.19 -1.66232 -1.38549 0
M  V30 12282 C 1195.79 -2.9263 1.70743 0
M  V30 12283 C 1194.35 -3.43505 1.53887 0
M  V30 12284 C 1193.49 -2.17495 1.72021 0
M  V30 12285 H 1196.44 -0.89951 1.30746 0
M  V30 12286 H 1196.46 -3.61757 1.17951 0
M  V30 12287 H 1195.98 -2.72007 2.76828 0
M  V30 12288 H 1194.08 -3.69201 0.502153 0
M  V30 12289 H 1194.19 -4.19254 2.31868 0
M  V30 12290 H 1192.55 -2.27407 1.1471 0
M  V30 12291 H 1193.34 -1.99362 2.79481 0
M  V30 12292 N 1195.78 -0.955326 -1.25345 0
M  V30 12293 C 1196.71 -0.494145 -2.28211 0
M  V30 12294 C 1197.69 0.459875 -1.63766 0
M  V30 12295 O 1198.88 0.358679 -1.90859 0
M  V30 12296 C 1196.01 0.228228 -3.46549 0
M  V30 12297 C 1194.96 -0.640601 -4.23179 0
M  V30 12298 C 1194.29 0.212553 -5.34277 0
M  V30 12299 C 1195.59 -1.91906 -4.85767 0
M  V30 12300 H 1197.28 -1.35391 -2.67039 0
M  V30 12301 H 1194.83 -0.652462 -1.2837 0
M  V30 12302 H 1196.78 0.561995 -4.17636 0
M  V30 12303 H 1195.51 1.12224 -3.06714 0
M  V30 12304 H 1194.16 -0.957462 -3.53876 0
M  V30 12305 H 1193.81 1.10634 -4.90682 0
M  V30 12306 H 1193.51 -0.365473 -5.86462 0
M  V30 12307 H 1195.04 0.541271 -6.08196 0
M  V30 12308 H 1196.45 -1.65165 -5.48993 0
M  V30 12309 H 1194.85 -2.44279 -5.48131 0
M  V30 12310 H 1195.92 -2.62173 -4.07914 0
M  V30 12311 N 1197.26 1.39987 -0.723979 0
M  V30 12312 C 1198.19 2.3332 -0.0917282 0
M  V30 12313 C 1199.17 1.53335 0.736361 0
M  V30 12314 O 1200.36 1.81771 0.683582 0
M  V30 12315 C 1197.49 3.3737 0.824549 0
M  V30 12316 C 1196.44 4.2788 0.101452 0
M  V30 12317 C 1195.77 5.22536 1.13401 0
M  V30 12318 C 1197.07 5.11649 -1.04939 0
M  V30 12319 H 1198.76 2.86441 -0.871318 0
M  V30 12320 H 1196.31 1.37725 -0.420448 0
M  V30 12321 H 1198.26 4.01607 1.27631 0
M  V30 12322 H 1196.98 2.82663 1.63613 0
M  V30 12323 H 1195.64 3.65107 -0.330569 0
M  V30 12324 H 1195.29 4.64131 1.93886 0
M  V30 12325 H 1194.99 5.83938 0.65502 0
M  V30 12326 H 1196.52 5.89651 1.58569 0
M  V30 12327 H 1197.93 5.69293 -0.6766 0
M  V30 12328 H 1196.33 5.82137 -1.45729 0
M  V30 12329 H 1197.4 4.47132 -1.8762 0
M  V30 12330 N 1198.74 0.470782 1.50404 0
M  V30 12331 C 1200.16 0.124919 1.5911 0
M  V30 12332 C 1200.36 -1.36855 1.47895 0
M  V30 12333 O 1199.41 -2.1418 1.33728 0
M  V30 12334 C 1200.72 0.674839 2.9303 0
M  V30 12335 C 1202.27 0.638239 3.06424 0
M  V30 12336 C 1202.75 1.1657 4.42917 0
M  V30 12337 N 1204.24 1.1251 4.49328 0
M  V30 12338 C 1204.97 1.50373 5.53331 0
M  V30 12339 N 1204.47 1.95684 6.6459 0
M  V30 12340 N 1206.26 1.41978 5.43874 0
M  V30 12341 H 1198.41 1.44212 1.55938 0
M  V30 12342 H 1200.68 0.596354 0.73693 0
M  V30 12343 H 1200.38 1.72106 3.06712 0
M  V30 12344 H 1200.26 0.118234 3.77015 0
M  V30 12345 H 1202.64 -0.399075 2.92389 0
M  V30 12346 H 1202.72 1.23164 2.24197 0
M  V30 12347 H 1202.37 2.20164 4.57701 0
M  V30 12348 H 1202.3 0.548513 5.23736 0
M  V30 12349 H 1204.79 0.79276 3.69491 0
M  V30 12350 H 1205.1 2.22724 7.40009 0
M  V30 12351 H 1203.45 1.99636 6.65711 0
M  V30 12352 H 1206.64 1.0642 4.55842 0
M  V30 12353 H 1206.81 1.71812 6.24808 0
M  V30 12354 N 1200.22 -1.56282 0.203376 0
M  V30 12355 C 1201.16 -2.19473 -0.714164 0
M  V30 12356 C 1202.13 -1.14454 -1.20372 0
M  V30 12357 O 1203.32 -1.42739 -1.26611 0
M  V30 12358 C 1200.46 -2.86451 -1.92457 0
M  V30 12359 C 1199.57 -4.06017 -1.47561 0
M  V30 12360 C 1198.71 -4.60829 -2.64216 0
M  V30 12361 C 1197.75 -5.72734 -2.15967 0
M  V30 12362 N 1196.88 -6.21916 -3.25829 0
M  V30 12363 H 1201.72 -2.97523 -0.168558 0
M  V30 12364 H 1199.26 -1.46926 -0.0714525 0
M  V30 12365 H 1201.22 -3.23459 -2.63496 0
M  V30 12366 H 1199.85 -2.10951 -2.44335 0
M  V30 12367 H 1198.9 -3.74617 -0.660784 0
M  V30 12368 H 1200.21 -4.8693 -1.08168 0
M  V30 12369 H 1199.37 -5.00185 -3.43366 0
M  V30 12370 H 1198.11 -3.7904 -3.06887 0
M  V30 12371 H 1197.11 -5.32899 -1.35273 0
M  V30 12372 H 1198.34 -6.56346 -1.74316 0
M  V30 12373 H 1196.28 -5.43047 -3.68016 0
M  V30 12374 H 1196.2 -6.97904 -2.90631 0
M  V30 12375 H 1197.47 -6.65927 -4.05168 0
M  V30 12376 N 1201.7 0.070167 -1.57444 0
M  V30 12377 C 1202.92 0.781894 -1.91557 0
M  V30 12378 C 1203.34 1.71037 -0.799489 0
M  V30 12379 O 1202.7 1.81082 0.227062 0
M  V30 12380 C 1202.75 1.57415 -3.25427 0
M  V30 12381 O 1202.47 0.682991 -4.32743 0
M  V30 12382 C 1203.97 2.38673 -3.73564 0
M  V30 12383 H 1201.19 0.222211 -0.633138 0
M  V30 12384 H 1203.73 0.0399504 -2.04461 0
M  V30 12385 H 1201.89 2.26835 -3.14045 0
M  V30 12386 H 1202.3 1.2342 -5.09772 0
M  V30 12387 H 1203.78 2.89716 -4.6986 0
M  V30 12388 H 1204.25 3.18269 -3.02657 0
M  V30 12389 H 1204.86 1.74405 -3.87896 0
M  V30 12390 N 1203.17 1.53854 0.341593 0
M  V30 12391 C 1204.1 1.84966 1.42513 0
M  V30 12392 C 1205.08 0.704944 1.54805 0
M  V30 12393 O 1206.27 0.957036 1.68981 0
M  V30 12394 C 1203.4 2.06099 2.79536 0
M  V30 12395 C 1202.35 3.21919 2.82049 0
M  V30 12396 C 1201.68 3.28389 4.21977 0
M  V30 12397 C 1202.98 4.59984 2.4741 0
M  V30 12398 H 1204.67 2.7571 1.16724 0
M  V30 12399 H 1202.22 1.32662 0.560073 0
M  V30 12400 H 1204.17 2.26448 3.55386 0
M  V30 12401 H 1202.9 1.12087 3.06764 0
M  V30 12402 H 1201.56 3.01429 2.08653 0
M  V30 12403 H 1201.2 2.3197 4.46317 0
M  V30 12404 H 1200.9 4.0622 4.24569 0
M  V30 12405 H 1202.43 3.50951 4.99666 0
M  V30 12406 H 1203.84 4.80334 3.12973 0
M  V30 12407 H 1202.24 5.40233 2.61282 0
M  V30 12408 H 1203.31 4.6346 1.42594 0
M  V30 12409 N 1204.65 -0.602709 1.4562 0
M  V30 12410 C 1205.6 -1.71312 1.54664 0
M  V30 12411 C 1206.57 -1.61403 0.392197 0
M  V30 12412 O 1207.75 -1.80911 0.606297 0
M  V30 12413 C 1204.89 -3.09629 1.52393 0
M  V30 12414 C 1204.01 -3.30308 2.78425 0
M  V30 12415 C 1203.14 -4.5876 2.67793 0
M  V30 12416 C 1202.18 -4.72713 3.88855 0
M  V30 12417 N 1201.32 -5.92469 3.76729 0
M  V30 12418 H 1206.16 -1.62918 2.49523 0
M  V30 12419 H 1203.69 -0.794324 1.2381 0
M  V30 12420 H 1205.65 -3.89661 1.49064 0
M  V30 12421 H 1204.28 -3.16968 0.610816 0
M  V30 12422 H 1203.33 -2.44018 2.9182 0
M  V30 12423 H 1204.65 -3.36491 3.68205 0
M  V30 12424 H 1203.8 -5.46993 2.62457 0
M  V30 12425 H 1202.54 -4.54983 1.75619 0
M  V30 12426 H 1201.54 -3.82903 3.94545 0
M  V30 12427 H 1202.77 -4.78284 4.82101 0
M  V30 12428 H 1200.72 -5.89728 2.87328 0
M  V30 12429 H 1200.63 -5.99833 4.60148 0
M  V30 12430 H 1201.9 -6.83187 3.75334 0
M  V30 12431 N 1206.13 -1.32992 -0.845635 0
M  V30 12432 C 1207.41 -1.14671 -1.58461 0
M  V30 12433 C 1207.79 0.289498 -2.09106 0
M  V30 12434 O 1207.13 1.28751 -1.88773 0
M  V30 12435 C 1207.34 -2.18206 -2.72373 0
M  V30 12436 C 1208.69 -2.5201 -3.41726 0
M  V30 12437 O 1209.72 -2.16821 -2.82608 0
M  V30 12438 O 1208.58 -3.12368 -4.48429 0
M  V30 12439 H 1205.67 -0.443088 -0.698285 0
M  V30 12440 H 1208.22 -1.44552 -0.888978 0
M  V30 12441 H 1206.99 -3.14707 -2.32541 0
M  V30 12442 H 1206.61 -1.89372 -3.49605 0
M  V30 12443 N 1207.61 1.06304 -1.1635 0
M  V30 12444 C 1208.52 2.17296 -0.884289 0
M  V30 12445 C 1209.53 1.73408 0.143414 0
M  V30 12446 O 1210.71 2.01373 -0.0331987 0
M  V30 12447 C 1207.77 3.44509 -0.389163 0
M  V30 12448 C 1206.84 4.02906 -1.48208 0
M  V30 12449 C 1206.07 5.24047 -1.01048 0
M  V30 12450 O 1206.29 5.70229 0.139821 0
M  V30 12451 O 1205.23 5.74394 -1.79876 0
M  V30 12452 H 1209.05 2.4369 -1.81243 0
M  V30 12453 H 1206.64 1.15841 -0.943459 0
M  V30 12454 H 1208.52 4.21229 -0.120018 0
M  V30 12455 H 1207.19 3.19642 0.510968 0
M  V30 12456 H 1206.1 3.27677 -1.80496 0
M  V30 12457 H 1207.43 4.32068 -2.35751 0
M  V30 12458 N 1209.09 0.96196 1.24836 0
M  V30 12459 C 1210.31 0.637709 1.97353 0
M  V30 12460 C 1210.74 -0.784919 1.7094 0
M  V30 12461 O 1210.09 -1.53188 0.969694 0
M  V30 12462 C 1210.14 0.911485 3.4889 0
M  V30 12463 O 1209.25 -0.00601668 4.124 0
M  V30 12464 H 1208.59 0.241685 0.618453 0
M  V30 12465 H 1211.12 1.29055 1.58764 0
M  V30 12466 H 1211.13 0.840702 3.99245 0
M  V30 12467 H 1209.8 1.9483 3.67442 0
M  V30 12468 H 1208.38 0.117597 3.72715 0
M  V30 12469 N 1210.56 -1.39601 0.731392 0
M  V30 12470 C 1211.79 -2.05411 0.286532 0
M  V30 12471 C 1212.21 -1.54777 -1.06892 0
M  V30 12472 O 1211.57 -0.689942 -1.67659 0
M  V30 12473 C 1211.62 -3.594 0.293914 0
M  V30 12474 O 1210.72 -4.06072 -0.719657 0
M  V30 12475 H 1210.06 -0.650949 0.131004 0
M  V30 12476 H 1212.59 -1.78703 0.996305 0
M  V30 12477 H 1212.6 -4.0777 0.137052 0
M  V30 12478 H 1211.28 -3.95617 1.28298 0
M  V30 12479 H 1209.86 -3.69125 -0.529226 0
M  V30 12480 N 1212.04 -0.478751 -1.50152 0
M  V30 12481 C 1213.29 0.073694 -2.02666 0
M  V30 12482 C 1213.62 1.38679 -1.35947 0
M  V30 12483 O 1212.9 1.88286 -0.4877 0
M  V30 12484 C 1213.18 0.249516 -3.59235 0
M  V30 12485 C 1213.03 -1.08514 -4.36514 0
M  V30 12486 C 1214.35 1.00053 -4.28576 0
M  V30 12487 H 1211.47 0.0253082 -0.736565 0
M  V30 12488 H 1214.11 -0.625834 -1.79397 0
M  V30 12489 H 1212.26 0.845343 -3.79192 0
M  V30 12490 H 1213.93 -1.71814 -4.28109 0
M  V30 12491 H 1212.18 -1.67992 -3.99952 0
M  V30 12492 H 1212.85 -0.915676 -5.44352 0
M  V30 12493 H 1215.32 0.495422 -4.1314 0
M  V30 12494 H 1214.2 1.09236 -5.37921 0
M  V30 12495 H 1214.46 2.03896 -3.92274 0
M  V30 12496 N 1213.52 1.56172 -0.211661 0
M  V30 12497 C 1214.75 2.02428 0.427843 0
M  V30 12498 C 1215.16 1.09162 1.54043 0
M  V30 12499 O 1214.52 0.0994249 1.82229 0
M  V30 12500 C 1214.57 3.48279 0.968728 0
M  V30 12501 O 1214.29 4.37987 -0.0994841 0
M  V30 12502 C 1215.79 4.10132 1.68246 0
M  V30 12503 H 1213.01 0.662611 0.10577 0
M  V30 12504 H 1215.56 2.01897 -0.32522 0
M  V30 12505 H 1213.71 3.49456 1.6721 0
M  V30 12506 H 1214.13 5.23609 0.305558 0
M  V30 12507 H 1215.6 5.13985 2.01304 0
M  V30 12508 H 1216.08 3.54552 2.5921 0
M  V30 12509 H 1216.68 4.12775 1.02453 0
M  V30 12510 N 1215 -0.0618163 1.57479 0
M  V30 12511 C 1216.24 -0.764296 1.89573 0
M  V30 12512 C 1216.6 -1.74235 0.806605 0
M  V30 12513 O 1217.8 -2.49067 1.0109 0
M  V30 12514 C 1216.07 -1.44503 3.26885 0
M  V30 12515 S 1217.63 -2.1812 3.80748 0
M  V30 12516 H 1214.45 -0.253946 0.664103 0
M  V30 12517 H 1217.05 -0.0200064 1.9549 0
M  V30 12518 H 1215.76 -0.719525 4.04043 0
M  V30 12519 H 1215.29 -2.22855 3.2419 0
M  V30 12520 H 1217.3 -3.44793 3.56837 0
M  V30 12521 N 1216.48 -1.54033 -0.333429 0
M  V30 12522 C 1217.42 -1.82729 -1.40992 0
M  V30 12523 C 1218.39 -0.673677 -1.51825 0
M  V30 12524 O 1219.58 -0.919126 -1.67203 0
M  V30 12525 C 1216.72 -2.05155 -2.77498 0
M  V30 12526 C 1215.83 -3.32854 -2.75376 0
M  V30 12527 C 1214.97 -3.45294 -4.03665 0
M  V30 12528 C 1214.01 -4.66905 -3.95811 0
M  V30 12529 N 1213.14 -4.76323 -5.1581 0
M  V30 12530 H 1217.98 -2.74572 -1.15821 0
M  V30 12531 H 1215.52 -1.35988 -0.560859 0
M  V30 12532 H 1217.48 -2.16148 -3.56841 0
M  V30 12533 H 1216.11 -1.16615 -3.01 0
M  V30 12534 H 1215.16 -3.30651 -1.88081 0
M  V30 12535 H 1216.47 -4.22299 -2.65453 0
M  V30 12536 H 1215.63 -3.55775 -4.91436 0
M  V30 12537 H 1214.36 -2.53924 -4.16382 0
M  V30 12538 H 1213.37 -4.56491 -3.06425 0
M  V30 12539 H 1214.59 -5.59649 -3.84668 0
M  V30 12540 H 1212.54 -3.87866 -5.29052 0
M  V30 12541 H 1212.46 -5.59719 -5.08184 0
M  V30 12542 H 1213.73 -4.91125 -6.05324 0
M  V30 12543 N 1217.95 0.594978 -1.45938 0
M  V30 12544 C 1218.88 1.71536 -1.58422 0
M  V30 12545 C 1219.87 1.64441 -0.435116 0
M  V30 12546 O 1221.05 1.82647 -0.659839 0
M  V30 12547 C 1218.18 3.10163 -1.56257 0
M  V30 12548 C 1217.13 3.3208 -2.70013 0
M  V30 12549 C 1216.46 4.71108 -2.52905 0
M  V30 12550 C 1217.76 3.21105 -4.11933 0
M  V30 12551 H 1219.45 1.61344 -2.52207 0
M  V30 12552 H 1217 0.774791 -1.2138 0
M  V30 12553 H 1218.95 3.88352 -1.63587 0
M  V30 12554 H 1217.68 3.21225 -0.590093 0
M  V30 12555 H 1216.34 2.56286 -2.62132 0
M  V30 12556 H 1215.98 4.7892 -1.53768 0
M  V30 12557 H 1215.68 4.86727 -3.29197 0
M  V30 12558 H 1217.21 5.51482 -2.62107 0
M  V30 12559 H 1218.62 3.89153 -4.2099 0
M  V30 12560 H 1217.02 3.4825 -4.88715 0
M  V30 12561 H 1218.09 2.18359 -4.32952 0
M  V30 12562 N 1219.43 1.33438 0.838571 0
M  V30 12563 C 1220.4 1.23632 1.92997 0
M  V30 12564 C 1221.4 0.155302 1.60048 0
M  V30 12565 O 1222.59 0.406852 1.69382 0
M  V30 12566 C 1219.72 0.90512 3.28665 0
M  V30 12567 H 1220.91 2.20643 2.03117 0
M  V30 12568 H 1218.46 1.17501 1.03069 0
M  V30 12569 H 1219.2 -0.0624833 3.2424 0
M  V30 12570 H 1218.98 1.68688 3.53959 0
M  V30 12571 H 1220.47 0.861262 4.08622 0
M  V30 12572 N 1220.91 -1.05686 1.16912 0
M  V30 12573 C 1222.15 -1.80177 0.965182 0
M  V30 12574 C 1222.51 -1.85437 -0.497698 0
M  V30 12575 O 1223.72 -2.5597 -0.82054 0
M  V30 12576 C 1221.99 -3.20441 1.58279 0
M  V30 12577 S 1223.55 -4.11472 1.52435 0
M  V30 12578 H 1220.36 -0.620595 0.346962 0
M  V30 12579 H 1222.97 -1.26841 1.48767 0
M  V30 12580 H 1221.67 -3.14211 2.64006 0
M  V30 12581 H 1221.2 -3.78853 1.05989 0
M  V30 12582 H 1223.22 -4.93373 0.528876 0
M  V30 12583 N 1222.39 -0.968567 -1.24324 0
M  V30 12584 C 1223.62 -0.648568 -1.96472 0
M  V30 12585 C 1224.03 0.782168 -1.71836 0
M  V30 12586 O 1223.39 1.5249 -1.00265 0
M  V30 12587 C 1223.44 -0.91482 -3.49733 0
M  V30 12588 O 1223.16 -2.28931 -3.73527 0
M  V30 12589 C 1224.66 -0.609131 -4.39095 0
M  V30 12590 H 1221.88 -0.241921 -0.625872 0
M  V30 12591 H 1224.43 -1.29673 -1.5813 0
M  V30 12592 H 1222.58 -0.31285 -3.86135 0
M  V30 12593 H 1222.99 -2.36998 -4.67902 0
M  V30 12594 H 1224.47 -0.845875 -5.4548 0
M  V30 12595 H 1224.95 0.456625 -4.3682 0
M  V30 12596 H 1225.55 -1.19105 -4.08282 0
M  V30 12597 N 1223.87 1.39211 -0.738786 0
M  V30 12598 C 1224.83 2.28937 -0.109746 0
M  V30 12599 C 1225.83 1.46488 0.663157 0
M  V30 12600 O 1227.02 1.67119 0.491614 0
M  V30 12601 C 1224.15 3.30039 0.853633 0
M  V30 12602 H 1225.34 2.86068 -0.900295 0
M  V30 12603 H 1222.9 1.47922 -0.504853 0
M  V30 12604 H 1223.63 2.77971 1.6704 0
M  V30 12605 H 1223.42 3.90935 0.302007 0
M  V30 12606 H 1224.91 3.97169 1.29022 0
M  V30 12607 N 1225.34 0.486708 1.49896 0
M  V30 12608 C 1226.59 -0.0629451 2.02702 0
M  V30 12609 C 1226.92 -1.37956 1.36681 0
M  V30 12610 O 1226.2 -1.88025 0.497678 0
M  V30 12611 C 1226.48 -0.230461 3.59362 0
M  V30 12612 C 1226.33 1.10828 4.35933 0
M  V30 12613 C 1227.65 -0.977785 4.29101 0
M  V30 12614 H 1224.77 -0.0214017 0.736689 0
M  V30 12615 H 1227.41 0.635339 1.79063 0
M  V30 12616 H 1225.56 -0.825222 3.79634 0
M  V30 12617 H 1227.24 1.74082 4.27192 0
M  V30 12618 H 1225.48 1.7011 3.99055 0
M  V30 12619 H 1226.15 0.944532 5.43859 0
M  V30 12620 H 1228.63 -0.473505 4.13397 0
M  V30 12621 H 1227.5 -1.06382 5.38492 0
M  V30 12622 H 1227.76 -2.01813 3.9335 0
M  V30 12623 N 1226.82 -1.56058 0.219941 0
M  V30 12624 C 1228.24 -1.59024 -0.135476 0
M  V30 12625 C 1228.44 -1.23672 -1.59083 0
M  V30 12626 O 1227.5 -0.971197 -2.33075 0
M  V30 12627 C 1228.81 -3.00103 0.189356 0
M  V30 12628 C 1230.36 -3.12724 0.131463 0
M  V30 12629 C 1230.83 -4.55977 0.429947 0
M  V30 12630 N 1232.32 -4.61643 0.37946 0
M  V30 12631 C 1233.06 -5.70419 0.58393 0
M  V30 12632 N 1232.55 -6.87565 0.850088 0
M  V30 12633 N 1234.35 -5.59722 0.516477 0
M  V30 12634 H 1226.5 -1.77313 1.16935 0
M  V30 12635 H 1228.76 -0.824096 0.468583 0
M  V30 12636 H 1228.47 -3.30616 1.19941 0
M  V30 12637 H 1228.34 -3.73919 -0.49641 0
M  V30 12638 H 1230.73 -2.82008 -0.869223 0
M  V30 12639 H 1230.81 -2.41241 0.85068 0
M  V30 12640 H 1230.45 -4.8741 1.42806 0
M  V30 12641 H 1230.38 -5.25684 -0.310444 0
M  V30 12642 H 1232.87 -3.77465 0.181373 0
M  V30 12643 H 1233.19 -7.66378 0.994251 0
M  V30 12644 H 1231.53 -6.89313 0.887265 0
M  V30 12645 H 1234.72 -4.6708 0.308784 0
M  V30 12646 H 1234.9 -6.4443 0.679236 0
M  V30 12647 N 1228.3 0.053464 -1.57509 0
M  V30 12648 C 1229.25 1.08014 -2.05999 0
M  V30 12649 C 1230.24 1.38958 -0.968862 0
M  V30 12650 O 1231.45 1.3815 -1.15389 0
M  V30 12651 H 1227.82 0.36575 -0.657062 0
M  V30 12652 H 1229.8 0.645169 -2.91342 0
M  V30 12653 C 1228.54 2.38004 -2.53475 0
M  V30 12654 H 1227.87 2.15048 -3.37038 0
M  V30 12655 H 1229.31 3.08244 -2.91138 0
M  V30 12656 C 1227.77 3.05259 -1.42543 0
M  V30 12657 O 1228.3 3.94097 -0.777832 0
M  V30 12658 N 1226.5 2.66182 -1.16599 0
M  V30 12659 H 1226.05 1.94027 -1.69444 0
M  V30 12660 H 1226.01 3.11503 -0.42585 0
M  V30 12661 N 1229.78 1.54207 0.325255 0
M  V30 12662 C 1231.02 1.74055 1.07164 0
M  V30 12663 C 1231.38 0.502722 1.85302 0
M  V30 12664 O 1232.58 0.578525 2.62501 0
M  V30 12665 C 1230.86 2.97994 1.97319 0
M  V30 12666 S 1232.41 3.38737 2.78931 0
M  V30 12667 H 1229.23 0.612059 0.361808 0
M  V30 12668 H 1231.83 1.92381 0.347837 0
M  V30 12669 H 1230.54 3.86235 1.38747 0
M  V30 12670 H 1230.07 2.82187 2.74106 0
M  V30 12671 H 1232.08 2.93904 3.99794 0
M  V30 12672 N 1231.26 -0.58723 1.46251 0
M  V30 12673 C 1232.5 -1.3476 1.51551 0
M  V30 12674 C 1232.84 -1.93499 0.16483 0
M  V30 12675 O 1232.11 -1.7622 -0.823207 0
M  V30 12676 C 1232.39 -2.48033 2.61059 0
M  V30 12677 C 1232.25 -1.94358 4.05642 0
M  V30 12678 C 1233.57 -3.50096 2.66685 0
M  V30 12679 H 1230.69 -0.48863 0.551733 0
M  V30 12680 H 1233.33 -0.660097 1.78165 0
M  V30 12681 H 1231.48 -3.06679 2.38496 0
M  V30 12682 H 1233.15 -1.40204 4.39478 0
M  V30 12683 H 1231.39 -1.25217 4.15335 0
M  V30 12684 H 1232.06 -2.76105 4.77986 0
M  V30 12685 H 1234.54 -3.01324 2.86955 0
M  V30 12686 H 1233.42 -4.26817 3.45135 0
M  V30 12687 H 1233.68 -4.07032 1.7256 0
M  V30 12688 N 1232.74 -1.33881 -0.831482 0
M  V30 12689 C 1233.67 -1.19089 -1.94661 0
M  V30 12690 C 1234.65 -0.0845706 -1.6238 0
M  V30 12691 O 1235.83 -0.248163 -1.86859 0
M  V30 12692 C 1232.96 -0.828223 -3.28418 0
M  V30 12693 C 1232 -1.94309 -3.79666 0
M  V30 12694 S 1232.84 -3.55524 -4.00454 0
M  V30 12695 C 1233.99 -3.21279 -5.3715 0
M  V30 12696 H 1234.23 -2.13484 -2.0691 0
M  V30 12697 H 1231.76 -1.18809 -0.986098 0
M  V30 12698 H 1233.72 -0.625759 -4.05702 0
M  V30 12699 H 1232.38 0.0972457 -3.13949 0
M  V30 12700 H 1231.57 -1.64288 -4.76472 0
M  V30 12701 H 1231.17 -2.1026 -3.093 0
M  V30 12702 H 1233.46 -2.72563 -6.20255 0
M  V30 12703 H 1234.41 -4.17193 -5.7215 0
M  V30 12704 H 1234.82 -2.57683 -5.02255 0
M  V30 12705 N 1234.21 1.05064 -1.1747 0
M  V30 12706 C 1235.44 1.82299 -0.98903 0
M  V30 12707 C 1235.86 1.82441 0.457907 0
M  V30 12708 O 1235.22 1.23433 1.32793 0
M  V30 12709 C 1235.27 3.26239 -1.53624 0
M  V30 12710 O 1234.37 4.05507 -0.750857 0
M  V30 12711 H 1233.71 0.563601 -0.35107 0
M  V30 12712 H 1236.24 1.32386 -1.55997 0
M  V30 12713 H 1236.25 3.77038 -1.55906 0
M  V30 12714 H 1234.93 3.25451 -2.58949 0
M  V30 12715 H 1233.51 3.64227 -0.799548 0
M  V30 12716 N 1235.69 0.975146 1.23809 0
M  V30 12717 C 1236.62 0.530389 2.27396 0
M  V30 12718 C 1237.6 -0.433763 1.64476 0
M  V30 12719 O 1238.79 -0.32827 1.91405 0
M  V30 12720 C 1235.92 -0.173066 3.46869 0
M  V30 12721 C 1234.87 0.707844 4.22106 0
M  V30 12722 C 1234.2 -0.127527 5.34548 0
M  V30 12723 C 1235.5 1.99609 4.82652 0
M  V30 12724 H 1237.19 1.39622 2.64851 0
M  V30 12725 H 1234.74 0.672802 1.27316 0
M  V30 12726 H 1236.69 -0.495481 4.18477 0
M  V30 12727 H 1235.41 -1.0733 3.0846 0
M  V30 12728 H 1234.07 1.01364 3.52308 0
M  V30 12729 H 1233.72 -1.02814 4.9238 0
M  V30 12730 H 1233.42 0.458728 5.85807 0
M  V30 12731 H 1234.95 -0.444443 6.0898 0
M  V30 12732 H 1236.36 1.73878 5.46296 0
M  V30 12733 H 1234.76 2.52969 5.44175 0
M  V30 12734 H 1235.83 2.68629 4.03691 0
M  V30 12735 N 1237.17 -1.38817 0.746158 0
M  V30 12736 C 1238.41 -2.02129 0.303843 0
M  V30 12737 C 1238.77 -1.57943 -1.0917 0
M  V30 12738 O 1239.97 -2.13532 -1.63272 0
M  V30 12739 C 1238.25 -3.5499 0.414379 0
M  V30 12740 S 1239.8 -4.38767 0.0535495 0
M  V30 12741 H 1236.62 -0.701084 0.118329 0
M  V30 12742 H 1239.22 -1.69444 0.975137 0
M  V30 12743 H 1237.93 -3.84638 1.43114 0
M  V30 12744 H 1237.46 -3.92442 -0.274355 0
M  V30 12745 H 1239.47 -4.82469 -1.15921 0
M  V30 12746 N 1238.65 -0.49465 -1.49636 0
M  V30 12747 C 1239.87 0.051305 -2.07337 0
M  V30 12748 C 1240.3 1.30637 -1.35335 0
M  V30 12749 O 1239.66 1.76647 -0.408126 0
M  V30 12750 C 1239.7 0.294425 -3.59396 0
M  V30 12751 O 1238.81 1.3704 -3.88965 0
M  V30 12752 H 1238.15 -0.023408 -0.663587 0
M  V30 12753 H 1240.68 -0.692451 -1.92526 0
M  V30 12754 H 1240.69 0.527854 -4.04571 0
M  V30 12755 H 1239.36 -0.622583 -4.11214 0
M  V30 12756 H 1237.94 1.12242 -3.55607 0
M  V30 12757 N 1240.13 1.55939 -0.228214 0
M  V30 12758 C 1241.35 2.0332 0.409364 0
M  V30 12759 C 1241.78 1.10683 1.52088 0
M  V30 12760 O 1241.13 0.0962484 1.81044 0
M  V30 12761 C 1241.18 3.48877 0.911981 0
M  V30 12762 O 1240.29 3.59378 2.02289 0
M  V30 12763 H 1239.63 0.657625 0.0917909 0
M  V30 12764 H 1242.16 2.01605 -0.348802 0
M  V30 12765 H 1242.17 3.89331 1.22007 0
M  V30 12766 H 1240.84 4.15783 0.0984902 0
M  V30 12767 H 1239.42 3.30815 1.72093 0
M  V30 12768 N 1241.6 -0.0451101 1.57535 0
M  V30 12769 C 1242.83 -0.755068 1.93167 0
M  V30 12770 C 1243.25 -1.68949 0.826915 0
M  V30 12771 O 1242.61 -1.79978 -0.218534 0
M  V30 12772 C 1242.66 -1.50201 3.27829 0
M  V30 12773 O 1241.76 -2.61434 3.18945 0
M  V30 12774 H 1241.11 -0.204219 0.631815 0
M  V30 12775 H 1243.64 -0.00537504 2.04599 0
M  V30 12776 H 1243.65 -1.87547 3.6234 0
M  V30 12777 H 1242.32 -0.816591 4.07805 0
M  V30 12778 H 1240.9 -2.26749 2.96039 0
M  V30 12779 N 1243.08 -1.54377 -0.317073 0
M  V30 12780 C 1244.31 -1.76608 -1.07206 0
M  V30 12781 C 1244.72 -0.517818 -1.81976 0
M  V30 12782 O 1244.06 0.521375 -1.76146 0
M  V30 12783 C 1244.13 -2.91 -2.11091 0
M  V30 12784 C 1243.79 -4.29673 -1.55661 0
M  V30 12785 C 1244.79 -5.1029 -0.994999 0
M  V30 12786 C 1242.47 -4.76234 -1.59708 0
M  V30 12787 C 1244.47 -6.35581 -0.48123 0
M  V30 12788 C 1242.15 -6.01491 -1.07944 0
M  V30 12789 C 1243.15 -6.80999 -0.522467 0
M  V30 12790 O 1242.84 -8.03899 -0.0126274 0
M  V30 12791 H 1242.57 -0.593061 -0.32443 0
M  V30 12792 H 1245.12 -2.02097 -0.366859 0
M  V30 12793 H 1243.35 -2.61097 -2.85246 0
M  V30 12794 H 1245.04 -3.00954 -2.72363 0
M  V30 12795 H 1245.81 -4.7547 -0.956752 0
M  V30 12796 H 1241.69 -4.14387 -2.02 0
M  V30 12797 H 1245.23 -6.97585 -0.0458374 0
M  V30 12798 H 1241.13 -6.35801 -1.11478 0
M  V30 12799 H 1241.9 -8.18401 -0.127442 0
M  V30 12800 N 1244.56 0.579466 -1.4656 0
M  V30 12801 C 1245.79 1.36837 -1.55854 0
M  V30 12802 C 1246.21 1.87019 -0.20141 0
M  V30 12803 O 1245.57 1.61746 0.81901 0
M  V30 12804 C 1245.62 2.52965 -2.56985 0
M  V30 12805 O 1244.72 3.54505 -2.10713 0
M  V30 12806 H 1244.06 0.407379 -0.524345 0
M  V30 12807 H 1246.59 0.702558 -1.9216 0
M  V30 12808 H 1246.6 2.99838 -2.76697 0
M  V30 12809 H 1245.28 2.15793 -3.55536 0
M  V30 12810 H 1243.85 3.14089 -2.01003 0
M  V30 12811 N 1246.04 1.3432 0.824371 0
M  V30 12812 C 1246.95 1.27847 1.96704 0
M  V30 12813 C 1247.96 0.18641 1.72999 0
M  V30 12814 O 1249.14 0.412623 1.97128 0
M  V30 12815 C 1246.21 1.03231 3.30975 0
M  V30 12816 C 1245.27 2.21579 3.67697 0
M  V30 12817 C 1244.5 1.98128 4.95561 0
M  V30 12818 O 1244.72 0.938798 5.62621 0
M  V30 12819 O 1243.66 2.85041 5.30128 0
M  V30 12820 H 1247.48 2.23974 2.05108 0
M  V30 12821 H 1245.07 1.14512 0.959554 0
M  V30 12822 H 1246.95 0.912784 4.11395 0
M  V30 12823 H 1245.62 0.101425 3.23541 0
M  V30 12824 H 1244.53 2.3909 2.87727 0
M  V30 12825 H 1245.86 3.13052 3.79815 0
M  V30 12826 N 1247.52 -1.0444 1.18026 0
M  V30 12827 C 1248.45 -2.14297 0.927314 0
M  V30 12828 C 1249.43 -1.69575 -0.13357 0
M  V30 12829 O 1250.61 -1.94191 0.0182439 0
M  V30 12830 C 1247.74 -3.44397 0.448134 0
M  V30 12831 C 1246.7 -4.02723 1.44907 0
M  V30 12832 C 1246.02 -5.28257 0.827555 0
M  V30 12833 C 1247.32 -4.39331 2.82463 0
M  V30 12834 H 1249.02 -2.35715 1.84605 0
M  V30 12835 H 1246.56 -1.13281 0.889012 0
M  V30 12836 H 1248.52 -4.20606 0.258554 0
M  V30 12837 H 1247.24 -3.22654 -0.506159 0
M  V30 12838 H 1245.9 -3.28591 1.62552 0
M  V30 12839 H 1245.55 -5.02822 -0.13381 0
M  V30 12840 H 1245.25 -5.68242 1.49581 0
M  V30 12841 H 1246.77 -6.07147 0.64842 0
M  V30 12842 H 1248.18 -5.06543 2.68491 0
M  V30 12843 H 1246.58 -4.90355 3.45936 0
M  V30 12844 H 1247.65 -3.4933 3.36299 0
M  V30 12845 N 1248.99 -0.981699 -1.2329 0
M  V30 12846 C 1250.24 -0.650015 -1.91361 0
M  V30 12847 C 1250.56 0.819184 -1.76959 0
M  V30 12848 O 1249.83 1.5861 -1.14977 0
M  V30 12849 H 1248.41 -0.237427 -0.708264 0
M  V30 12850 H 1251.08 -1.24579 -1.49887 0
M  V30 12851 H 1250.17 -0.902772 -2.98758 0
M  V30 12852 N 1250.47 1.3842 -0.753509 0
M  V30 12853 C 1251.4 2.33073 -0.141198 0
M  V30 12854 C 1252.38 1.54863 0.70367 0
M  V30 12855 O 1253.57 1.8318 0.644872 0
M  V30 12856 C 1250.7 3.39043 0.752802 0
M  V30 12857 C 1249.65 4.27999 0.0106692 0
M  V30 12858 C 1248.98 5.24824 1.02291 0
M  V30 12859 C 1250.28 5.09308 -1.15768 0
M  V30 12860 H 1251.97 2.84528 -0.93188 0
M  V30 12861 H 1249.52 1.36802 -0.449567 0
M  V30 12862 H 1251.47 4.04224 1.19083 0
M  V30 12863 H 1250.2 2.8607 1.57581 0
M  V30 12864 H 1248.85 3.64323 -0.407939 0
M  V30 12865 H 1248.5 4.68139 1.83998 0
M  V30 12866 H 1248.2 5.85196 0.53101 0
M  V30 12867 H 1249.73 5.92882 1.46026 0
M  V30 12868 H 1251.14 5.6773 -0.797203 0
M  V30 12869 H 1249.54 5.78914 -1.58044 0
M  V30 12870 H 1250.61 4.43051 -1.97062 0
M  V30 12871 N 1251.95 0.502579 1.49372 0
M  V30 12872 C 1252.88 -0.311743 2.2707 0
M  V30 12873 C 1253.9 -0.929204 1.33677 0
M  V30 12874 O 1255.08 -0.812277 1.58948 0
M  V30 12875 C 1252.18 -1.45404 3.06122 0
M  V30 12876 C 1251.36 -0.943591 4.27101 0
M  V30 12877 C 1250.42 -1.96368 4.88186 0
M  V30 12878 O 1249.44 -1.5316 5.48207 0
M  V30 12879 N 1250.64 -3.29419 4.77978 0
M  V30 12880 H 1253.41 0.354503 2.97596 0
M  V30 12881 H 1250.97 0.335222 1.58392 0
M  V30 12882 H 1252.96 -2.13404 3.43862 0
M  V30 12883 H 1251.53 -2.02441 2.38194 0
M  V30 12884 H 1250.75 -0.0884372 3.94101 0
M  V30 12885 H 1252.04 -0.580983 5.05472 0
M  V30 12886 H 1251.44 -3.67211 4.30317 0
M  V30 12887 H 1250 -3.93129 5.19897 0
M  V30 12888 N 1253.43 -1.55816 0.23648 0
M  V30 12889 C 1254.36 -2.23924 -0.661834 0
M  V30 12890 C 1255.34 -1.21597 -1.18946 0
M  V30 12891 O 1256.52 -1.50222 -1.23073 0
M  V30 12892 C 1253.65 -2.93069 -1.86355 0
M  V30 12893 C 1252.61 -4.01996 -1.46913 0
M  V30 12894 C 1251.93 -4.58512 -2.75083 0
M  V30 12895 C 1253.23 -5.18265 -0.647964 0
M  V30 12896 H 1254.93 -2.99253 -0.0939368 0
M  V30 12897 H 1252.47 -1.43934 -0.0437407 0
M  V30 12898 H 1254.43 -3.39412 -2.49755 0
M  V30 12899 H 1253.15 -2.15212 -2.45665 0
M  V30 12900 H 1251.81 -3.56406 -0.858522 0
M  V30 12901 H 1251.46 -3.77368 -3.3257 0
M  V30 12902 H 1251.16 -5.32037 -2.49421 0
M  V30 12903 H 1252.68 -5.07583 -3.39399 0
M  V30 12904 H 1254.1 -5.60898 -1.18602 0
M  V30 12905 H 1252.49 -5.98114 -0.487823 0
M  V30 12906 H 1253.56 -4.83691 0.342151 0
M  V30 12907 N 1254.91 0.036755 -1.57557 0
M  V30 12908 C 1256.16 0.728107 -1.881 0
M  V30 12909 C 1256.47 1.7693 -0.833974 0
M  V30 12910 O 1257.67 2.5127 -1.02837 0
M  V30 12911 C 1256.13 1.34604 -3.33781 0
M  V30 12912 C 1255.74 0.341599 -4.46696 0
M  V30 12913 C 1257.48 2.01772 -3.73481 0
M  V30 12914 C 1255.39 0.967444 -5.83433 0
M  V30 12915 H 1254.32 0.275695 -0.701789 0
M  V30 12916 H 1256.97 -0.0177555 -1.83491 0
M  V30 12917 H 1255.35 2.14135 -3.3311 0
M  V30 12918 H 1256.53 -0.426441 -4.58823 0
M  V30 12919 H 1254.84 -0.227558 -4.15778 0
M  V30 12920 H 1257.44 2.49435 -4.72955 0
M  V30 12921 H 1257.78 2.83255 -3.05077 0
M  V30 12922 H 1258.31 1.29026 -3.76294 0
M  V30 12923 H 1255.05 0.19219 -6.55218 0
M  V30 12924 H 1254.57 1.70551 -5.75041 0
M  V30 12925 H 1256.25 1.47705 -6.29914 0
M  V30 12926 N 1256.39 1.54543 0.308881 0
M  V30 12927 C 1257.63 1.7266 1.04266 0
M  V30 12928 C 1257.95 0.51518 1.88694 0
M  V30 12929 O 1259.15 0.577988 2.65276 0
M  V30 12930 C 1257.61 3.05448 1.9034 0
M  V30 12931 C 1257.22 4.34043 1.10953 0
M  V30 12932 C 1258.96 3.32925 2.63365 0
M  V30 12933 C 1256.87 5.57886 1.96258 0
M  V30 12934 H 1255.8 0.643485 0.392992 0
M  V30 12935 H 1258.45 1.8103 0.300077 0
M  V30 12936 H 1256.83 2.91023 2.68555 0
M  V30 12937 H 1258.01 4.59279 0.374069 0
M  V30 12938 H 1256.32 4.13442 0.495453 0
M  V30 12939 H 1258.92 4.22649 3.27524 0
M  V30 12940 H 1259.26 2.51451 3.3178 0
M  V30 12941 H 1259.79 3.48285 1.92204 0
M  V30 12942 H 1256.53 6.42005 1.32326 0
M  V30 12943 H 1256.05 5.36847 2.67498 0
M  V30 12944 H 1257.73 5.94846 2.54494 0
M  V30 12945 N 1257.86 -0.571685 1.46866 0
M  V30 12946 C 1259.14 -1.33216 1.43223 0
M  V30 12947 C 1259.52 -2.1075 0.121495 0
M  V30 12948 O 1258.87 -2.10157 -0.897003 0
M  V30 12949 C 1259.08 -2.24888 2.66882 0
M  V30 12950 C 1260.43 -2.86369 3.13493 0
M  V30 12951 O 1261.45 -2.35197 2.67509 0
M  V30 12952 O 1260.31 -3.79342 3.93398 0
M  V30 12953 H 1257.4 -0.599106 0.570089 0
M  V30 12954 H 1259.95 -0.591788 1.59047 0
M  V30 12955 H 1258.72 -1.67099 3.53827 0
M  V30 12956 H 1258.34 -3.06246 2.53573 0
M  V30 12957 N 1259.34 -1.34755 -0.817236 0
M  V30 12958 C 1260.59 -1.2762 -1.5761 0
M  V30 12959 C 1260.92 0.152017 -1.93604 0
M  V30 12960 O 1260.2 1.09881 -1.60488 0
M  V30 12961 C 1260.48 -2.17251 -2.87183 0
M  V30 12962 C 1260.33 -3.68638 -2.57733 0
M  V30 12963 C 1261.65 -2.06206 -3.88802 0
M  V30 12964 H 1258.77 -0.464933 -0.571845 0
M  V30 12965 H 1261.41 -1.6506 -0.941028 0
M  V30 12966 H 1259.56 -1.85452 -3.41379 0
M  V30 12967 H 1261.23 -4.10829 -2.09802 0
M  V30 12968 H 1259.48 -3.89445 -1.91089 0
M  V30 12969 H 1260.15 -4.26726 -3.50156 0
M  V30 12970 H 1262.62 -2.34137 -3.43975 0
M  V30 12971 H 1261.5 -2.71136 -4.77259 0
M  V30 12972 H 1261.76 -1.04075 -4.29675 0
M  V30 12973 N 1260.82 1.03812 -1.18578 0
M  V30 12974 C 1261.75 2.13802 -0.938665 0
M  V30 12975 C 1262.73 1.69643 0.124575 0
M  V30 12976 O 1263.92 1.94179 -0.0285421 0
M  V30 12977 C 1261.05 3.44154 -0.466392 0
M  V30 12978 C 1260 4.01949 -1.47041 0
M  V30 12979 C 1259.33 5.27811 -0.855558 0
M  V30 12980 C 1260.63 4.37827 -2.84789 0
M  V30 12981 H 1262.32 2.34732 -1.85852 0
M  V30 12982 H 1259.87 1.12808 -0.895007 0
M  V30 12983 H 1261.82 4.20463 -0.280856 0
M  V30 12984 H 1260.54 3.22918 0.489041 0
M  V30 12985 H 1259.2 3.27725 -1.64293 0
M  V30 12986 H 1258.85 5.02886 0.107142 0
M  V30 12987 H 1258.55 5.67441 -1.52592 0
M  V30 12988 H 1260.07 6.06795 -0.680609 0
M  V30 12989 H 1261.49 5.05112 -2.71173 0
M  V30 12990 H 1259.88 4.88514 -3.48532 0
M  V30 12991 H 1260.95 3.47541 -3.38147 0
M  V30 12992 N 1262.3 0.988223 1.22768 0
M  V30 12993 C 1263.53 0.679743 1.95415 0
M  V30 12994 C 1263.94 -0.754731 1.73059 0
M  V30 12995 O 1263.3 -1.50876 1.02678 0
M  V30 12996 C 1263.35 0.970344 3.48234 0
M  V30 12997 O 1263.07 2.34845 3.69837 0
M  V30 12998 C 1264.57 0.67891 4.3807 0
M  V30 12999 H 1261.79 0.251847 0.621944 0
M  V30 13000 H 1264.33 1.32173 1.56047 0
M  V30 13001 H 1262.49 0.374241 3.85588 0
M  V30 13002 H 1262.9 2.44412 4.64072 0
M  V30 13003 H 1264.38 0.932549 5.44066 0
M  V30 13004 H 1264.85 -0.387073 4.37491 0
M  V30 13005 H 1265.46 1.25585 4.06335 0
M  V30 13006 N 1263.78 -1.38018 0.760839 0
M  V30 13007 C 1264.71 -2.32995 0.153557 0
M  V30 13008 C 1265.69 -1.55234 -0.695448 0
M  V30 13009 O 1266.87 -1.8352 -0.635148 0
M  V30 13010 C 1264 -3.39437 -0.734811 0
M  V30 13011 C 1262.96 -4.27998 0.0120287 0
M  V30 13012 C 1262.28 -5.25359 -0.995067 0
M  V30 13013 C 1263.58 -5.08687 1.18468 0
M  V30 13014 H 1265.28 -2.8403 0.946956 0
M  V30 13015 H 1262.82 -1.36562 0.456816 0
M  V30 13016 H 1264.77 -4.0485 -1.16938 0
M  V30 13017 H 1263.5 -2.86901 -1.56061 0
M  V30 13018 H 1262.16 -3.64102 0.427254 0
M  V30 13019 H 1261.81 -4.69108 -1.81512 0
M  V30 13020 H 1261.51 -5.85469 -0.499969 0
M  V30 13021 H 1263.03 -5.93648 -1.4288 0
M  V30 13022 H 1264.44 -5.67299 0.8273 0
M  V30 13023 H 1262.84 -5.78068 1.61112 0
M  V30 13024 H 1263.91 -4.42 1.99409 0
M  V30 13025 N 1265.25 -0.510493 -1.49103 0
M  V30 13026 C 1266.67 -0.167061 -1.58723 0
M  V30 13027 C 1266.87 1.32886 -1.51471 0
M  V30 13028 O 1265.93 2.10559 -1.39359 0
M  V30 13029 C 1267.24 -0.752293 -2.91137 0
M  V30 13030 C 1268.79 -0.719258 -3.04624 0
M  V30 13031 C 1269.26 -1.28272 -4.39671 0
M  V30 13032 N 1270.75 -1.24383 -4.46187 0
M  V30 13033 C 1271.49 -1.6499 -5.4915 0
M  V30 13034 N 1270.98 -2.13235 -6.59168 0
M  V30 13035 N 1272.78 -1.56348 -5.39918 0
M  V30 13036 H 1264.93 -1.48296 -1.5206 0
M  V30 13037 H 1267.19 -0.615683 -0.72086 0
M  V30 13038 H 1266.9 -1.80178 -3.02041 0
M  V30 13039 H 1266.77 -0.218152 -3.76569 0
M  V30 13040 H 1269.16 0.321413 -2.93344 0
M  V30 13041 H 1269.24 -1.29065 -2.20852 0
M  V30 13042 H 1268.88 -2.32222 -4.51703 0
M  V30 13043 H 1268.81 -0.687179 -5.22097 0
M  V30 13044 H 1271.3 -0.890446 -3.67259 0
M  V30 13045 H 1271.62 -2.42266 -7.33844 0
M  V30 13046 H 1269.96 -2.17216 -6.60183 0
M  V30 13047 H 1273.15 -1.18469 -4.52861 0
M  V30 13048 H 1273.33 -1.88317 -6.20033 0
M  V30 13049 N 1266.73 1.55688 -0.24474 0
M  V30 13050 C 1267.68 2.22682 0.67198 0
M  V30 13051 C 1268.67 1.21369 1.18178 0
M  V30 13052 O 1269.88 1.39387 1.13892 0
M  V30 13053 H 1266.25 0.714279 0.235181 0
M  V30 13054 H 1268.23 2.98282 0.0837704 0
M  V30 13055 C 1266.97 2.93835 1.85893 0
M  V30 13056 H 1266.3 3.71565 1.4758 0
M  V30 13057 H 1267.74 3.44077 2.47764 0
M  V30 13058 C 1266.2 1.97589 2.72874 0
M  V30 13059 O 1266.73 1.50758 3.72337 0
M  V30 13060 N 1264.93 1.64737 2.39395 0
M  V30 13061 H 1264.48 2.03015 1.58564 0
M  V30 13062 H 1264.44 1.00605 2.97869 0
M  V30 13063 N 1268.21 -0.0283989 1.57574 0
M  V30 13064 C 1269.43 -0.734537 1.93957 0
M  V30 13065 C 1269.86 -1.68062 0.844787 0
M  V30 13066 O 1269.22 -1.802 -0.199432 0
M  V30 13067 C 1269.27 -1.46716 3.29404 0
M  V30 13068 O 1268.37 -2.58036 3.217 0
M  V30 13069 H 1267.71 -0.197507 0.633946 0
M  V30 13070 H 1270.24 0.0163258 2.04593 0
M  V30 13071 H 1270.25 -1.83693 3.64309 0
M  V30 13072 H 1268.93 -0.773292 4.08648 0
M  V30 13073 H 1267.5 -2.23597 2.98427 0
M  V30 13074 N 1269.69 -1.54705 -0.300681 0
M  V30 13075 C 1270.91 -1.78318 -1.05913 0
M  V30 13076 C 1271.34 -0.541177 -1.80147 0
M  V30 13077 O 1270.7 0.508291 -1.74029 0
M  V30 13078 C 1270.74 -2.99041 -2.01511 0
M  V30 13079 O 1269.85 -2.72188 -3.09818 0
M  V30 13080 H 1269.19 -0.590197 -0.304242 0
M  V30 13081 H 1271.72 -2.01789 -0.338006 0
M  V30 13082 H 1271.73 -3.2702 -2.43971 0
M  V30 13083 H 1270.4 -3.89098 -1.46886 0
M  V30 13084 H 1268.98 -2.55227 -2.71871 0
M  V30 13085 N 1271.17 0.563888 -1.47167 0
M  V30 13086 C 1272.4 1.34498 -1.56825 0
M  V30 13087 C 1272.8 1.87974 -0.215011 0
M  V30 13088 O 1272.15 1.65323 0.80087 0
M  V30 13089 C 1272.21 2.55602 -2.528 0
M  V30 13090 C 1271.87 2.23459 -3.98642 0
M  V30 13091 C 1272.87 1.81155 -4.87318 0
M  V30 13092 C 1270.56 2.35024 -4.43925 0
M  V30 13093 C 1272.55 1.50835 -6.19296 0
M  V30 13094 C 1270.24 2.04317 -5.75932 0
M  V30 13095 C 1271.23 1.6229 -6.63439 0
M  V30 13096 O 1270.92 1.31969 -7.92994 0
M  V30 13097 H 1270.65 0.416551 -0.532411 0
M  V30 13098 H 1273.21 0.690611 -1.93442 0
M  V30 13099 H 1271.44 3.23907 -2.11237 0
M  V30 13100 H 1273.13 3.17677 -2.52659 0
M  V30 13101 H 1273.89 1.71719 -4.53583 0
M  V30 13102 H 1269.77 2.66696 -3.76024 0
M  V30 13103 H 1273.32 1.17958 -6.87555 0
M  V30 13104 H 1269.21 2.13383 -6.09211 0
M  V30 13105 H 1269.98 1.45656 -8.05436 0
M  V30 13106 N 1272.64 1.35187 0.810078 0
M  V30 13107 C 1273.89 1.29463 1.56879 0
M  V30 13108 C 1274.25 -0.130837 1.91955 0
M  V30 13109 O 1273.54 -1.08036 1.58236 0
M  V30 13110 C 1273.73 2.13135 2.86894 0
M  V30 13111 C 1273.56 3.63674 2.64521 0
M  V30 13112 C 1272.33 4.32918 2.60595 0
M  V30 13113 C 1274.53 4.57398 2.35141 0
M  V30 13114 N 1272.51 5.69226 2.29902 0
M  V30 13115 C 1273.88 5.81802 2.14257 0
M  V30 13116 C 1275.94 4.46177 2.20976 0
M  V30 13117 C 1274.64 6.96248 1.80641 0
M  V30 13118 C 1276.67 5.60469 1.88756 0
M  V30 13119 C 1276.03 6.83899 1.68704 0
M  V30 13120 H 1272.13 0.528991 0.575927 0
M  V30 13121 H 1274.71 1.70032 0.948529 0
M  V30 13122 H 1272.88 1.74842 3.46821 0
M  V30 13123 H 1274.61 1.98957 3.52418 0
M  V30 13124 H 1271.37 3.85494 2.75121 0
M  V30 13125 H 1271.79 6.41158 2.1736 0
M  V30 13126 H 1276.44 3.51357 2.35177 0
M  V30 13127 H 1274.15 7.91039 1.65176 0
M  V30 13128 H 1277.74 5.53738 1.78509 0
M  V30 13129 H 1276.62 7.7084 1.44136 0
M  V30 13130 N 1274.12 -1.03182 1.19127 0
M  V30 13131 C 1275.05 -2.13301 0.94999 0
M  V30 13132 C 1276.03 -1.69707 -0.115577 0
M  V30 13133 O 1277.22 -1.94161 0.0388395 0
M  V30 13134 C 1274.35 -3.43902 0.484637 0
M  V30 13135 C 1273.3 -4.01164 1.4917 0
M  V30 13136 C 1272.63 -5.2735 0.883537 0
M  V30 13137 C 1273.93 -4.36311 2.87107 0
M  V30 13138 H 1275.62 -2.33743 1.87095 0
M  V30 13139 H 1273.17 -1.12332 0.900977 0
M  V30 13140 H 1275.12 -4.20308 0.30315 0
M  V30 13141 H 1273.85 -3.23173 -0.471909 0
M  V30 13142 H 1272.5 -3.26849 1.66028 0
M  V30 13143 H 1272.15 -5.02936 -0.0804712 0
M  V30 13144 H 1271.85 -5.66624 1.55599 0
M  V30 13145 H 1273.38 -6.06425 0.71278 0
M  V30 13146 H 1274.79 -5.03666 2.73848 0
M  V30 13147 H 1273.19 -4.86659 3.51117 0
M  V30 13148 H 1274.26 -3.45743 3.39985 0
M  V30 13149 N 1275.6 -0.99472 -1.22242 0
M  V30 13150 C 1276.85 -0.672596 -1.91322 0
M  V30 13151 C 1277.18 0.793542 -1.77247 0
M  V30 13152 O 1276.45 1.57407 -1.14251 0
M  V30 13153 C 1276.74 -1.08155 -3.43474 0
M  V30 13154 C 1276.59 -2.60638 -3.6659 0
M  V30 13155 C 1277.91 -0.636161 -4.35478 0
M  V30 13156 H 1275.03 -0.24582 -0.694796 0
M  V30 13157 H 1277.67 -1.23857 -1.44082 0
M  V30 13158 H 1275.82 -0.599987 -3.83839 0
M  V30 13159 H 1277.49 -3.16479 -3.35617 0
M  V30 13160 H 1275.74 -3.02624 -3.10808 0
M  V30 13161 H 1276.41 -2.84304 -4.73155 0
M  V30 13162 H 1278.88 -1.04982 -4.02639 0
M  V30 13163 H 1277.76 -0.950584 -5.40606 0
M  V30 13164 H 1278.02 0.4631 -4.39668 0
M  V30 13165 N 1277.08 1.37613 -0.768148 0
M  V30 13166 C 1278.49 1.53202 -0.44737 0
M  V30 13167 C 1278.69 1.72736 1.03752 0
M  V30 13168 O 1277.75 1.74667 1.8234 0
M  V30 13169 C 1279.06 2.7306 -1.25931 0
M  V30 13170 C 1280.61 2.8692 -1.25084 0
M  V30 13171 C 1281.09 4.09757 -2.04605 0
M  V30 13172 N 1282.58 4.16862 -2.0194 0
M  V30 13173 C 1283.31 5.10936 -2.60254 0
M  V30 13174 N 1282.81 6.1059 -3.27341 0
M  V30 13175 N 1284.6 5.03393 -2.50104 0
M  V30 13176 H 1276.75 1.23184 -1.7303 0
M  V30 13177 H 1279.02 0.599541 -0.73434 0
M  V30 13178 H 1278.72 2.65078 -2.31141 0
M  V30 13179 H 1278.6 3.66646 -0.886036 0
M  V30 13180 H 1280.98 2.94375 -0.206736 0
M  V30 13181 H 1281.06 1.94303 -1.66373 0
M  V30 13182 H 1280.71 4.03063 -3.09035 0
M  V30 13183 H 1280.64 5.01481 -1.60701 0
M  V30 13184 H 1283.13 3.455 -1.53096 0
M  V30 13185 H 1283.44 6.78893 -3.6922 0
M  V30 13186 H 1281.79 6.10879 -3.31439 0
M  V30 13187 H 1284.98 4.24483 -1.9731 0
M  V30 13188 H 1285.15 5.76524 -2.95844 0
M  V30 13189 N 1278.56 0.518393 1.4883 0
M  V30 13190 C 1279.78 -0.0162 2.06894 0
M  V30 13191 C 1280.2 -1.29222 1.37649 0
M  V30 13192 O 1279.56 -1.766 0.460288 0
M  V30 13193 C 1279.61 -0.255836 3.60594 0
M  V30 13194 O 1279.33 0.969612 4.27235 0
M  V30 13195 C 1280.83 -0.832117 4.3542 0
M  V30 13196 H 1278.05 0.0282877 0.670403 0
M  V30 13197 H 1280.59 0.720726 1.91379 0
M  V30 13198 H 1278.75 -0.942782 3.75753 0
M  V30 13199 H 1279.16 0.743172 5.19208 0
M  V30 13200 H 1280.64 -0.949279 5.43776 0
M  V30 13201 H 1281.11 -1.83421 3.99066 0
M  V30 13202 H 1281.72 -0.1821 4.2491 0
M  V30 13203 N 1280.03 -1.55556 0.252993 0
M  V30 13204 C 1280.94 -2.25283 -0.654581 0
M  V30 13205 C 1281.96 -1.27103 -1.18831 0
M  V30 13206 O 1283.14 -1.59993 -1.22329 0
M  V30 13207 C 1280.2 -2.94336 -1.83214 0
M  V30 13208 C 1279.26 -4.0794 -1.33728 0
M  V30 13209 C 1278.5 -4.73691 -2.45871 0
M  V30 13210 O 1278.72 -4.38545 -3.64738 0
M  V30 13211 O 1277.65 -5.62083 -2.15283 0
M  V30 13212 H 1281.48 -3.03565 -0.0904091 0
M  V30 13213 H 1279.06 -1.49385 0.0212535 0
M  V30 13214 H 1280.95 -3.37808 -2.5192 0
M  V30 13215 H 1279.62 -2.18989 -2.38381 0
M  V30 13216 H 1278.53 -3.68971 -0.617323 0
M  V30 13217 H 1279.86 -4.85124 -0.831617 0
M  V30 13218 N 1281.51 0.0200419 -1.57587 0
M  V30 13219 C 1282.44 1.01715 -2.10181 0
M  V30 13220 C 1283.42 1.37136 -1.00636 0
M  V30 13221 O 1284.61 1.45862 -1.2821 0
M  V30 13222 C 1281.74 2.31531 -2.58865 0
M  V30 13223 C 1280.69 2.10327 -3.72755 0
M  V30 13224 C 1280.02 3.45981 -4.07678 0
M  V30 13225 C 1281.32 1.4821 -5.0083 0
M  V30 13226 H 1283.01 0.579307 -2.93742 0
M  V30 13227 H 1280.56 0.277211 -1.41307 0
M  V30 13228 H 1282.51 3.01623 -2.94281 0
M  V30 13229 H 1281.24 2.77392 -1.72399 0
M  V30 13230 H 1279.89 1.42665 -3.37701 0
M  V30 13231 H 1279.54 3.89508 -3.18265 0
M  V30 13232 H 1279.24 3.32616 -4.84397 0
M  V30 13233 H 1280.77 4.17421 -4.45637 0
M  V30 13234 H 1282.18 2.08232 -5.34146 0
M  V30 13235 H 1280.58 1.45393 -5.82221 0
M  V30 13236 H 1281.65 0.448942 -4.82817 0
M  V30 13237 N 1282.99 1.54862 0.292472 0
M  V30 13238 C 1283.92 1.89406 1.36556 0
M  V30 13239 C 1284.9 0.753838 1.52484 0
M  V30 13240 O 1286.09 1.01031 1.6585 0
M  V30 13241 C 1283.22 2.14888 2.72838 0
M  V30 13242 C 1282.17 3.3073 2.71665 0
M  V30 13243 C 1281.5 3.41648 4.11316 0
M  V30 13244 C 1282.8 4.67622 2.32651 0
M  V30 13245 H 1284.49 2.79284 1.07894 0
M  V30 13246 H 1282.04 1.34377 0.517585 0
M  V30 13247 H 1283.99 2.3764 3.48002 0
M  V30 13248 H 1282.71 1.2179 3.03042 0
M  V30 13249 H 1281.37 3.07915 1.98958 0
M  V30 13250 H 1281.02 2.46051 4.38711 0
M  V30 13251 H 1280.72 4.19522 4.11431 0
M  V30 13252 H 1282.24 3.6667 4.88248 0
M  V30 13253 H 1283.66 4.90048 2.97533 0
M  V30 13254 H 1282.06 5.48272 2.43963 0
M  V30 13255 H 1283.13 4.67762 1.27777 0
M  V30 13256 N 1284.47 -0.556076 1.47464 0
M  V30 13257 C 1285.38 -1.69043 1.62671 0
M  V30 13258 C 1286.39 -1.66372 0.509535 0
M  V30 13259 O 1287.57 -1.85799 0.777218 0
M  V30 13260 C 1284.64 -3.05546 1.63836 0
M  V30 13261 C 1283.7 -3.19275 2.86988 0
M  V30 13262 C 1282.93 -4.49267 2.88088 0
M  V30 13263 O 1283.15 -5.34796 1.98368 0
M  V30 13264 O 1282.09 -4.66811 3.79962 0
M  V30 13265 H 1285.91 -1.59155 2.58657 0
M  V30 13266 H 1283.5 -0.726211 1.30562 0
M  V30 13267 H 1285.38 -3.86778 1.67275 0
M  V30 13268 H 1284.05 -3.15814 0.710173 0
M  V30 13269 H 1282.96 -2.37437 2.89093 0
M  V30 13270 H 1284.29 -3.13912 3.79104 0
M  V30 13271 N 1285.95 -1.35615 -0.802897 0
M  V30 13272 C 1287.18 -1.32217 -1.59142 0
M  V30 13273 C 1287.59 0.0995496 -1.88537 0
M  V30 13274 O 1286.95 1.05258 -1.49087 0
M  V30 13275 C 1287 -2.13048 -2.92049 0
M  V30 13276 O 1286.72 -3.49677 -2.63927 0
M  V30 13277 C 1288.22 -2.17278 -3.864 0
M  V30 13278 H 1285.44 -0.454054 -0.49404 0
M  V30 13279 H 1287.98 -1.78521 -0.997516 0
M  V30 13280 H 1286.14 -1.70334 -3.47944 0
M  V30 13281 H 1286.55 -3.917 -3.48814 0
M  V30 13282 H 1288.03 -2.7822 -4.76758 0
M  V30 13283 H 1288.5 -1.17253 -4.23259 0
M  V30 13284 H 1289.11 -2.6017 -3.3644 0
M  V30 13285 N 1287.43 1.02549 -1.19673 0
M  V30 13286 C 1288.36 2.12794 -0.961289 0
M  V30 13287 C 1289.34 1.69766 0.106575 0
M  V30 13288 O 1290.52 1.94138 -0.0491358 0
M  V30 13289 C 1287.65 3.4364 -0.502868 0
M  V30 13290 C 1286.61 4.00367 -1.51296 0
M  V30 13291 C 1285.93 5.26874 -0.911491 0
M  V30 13292 C 1287.23 4.34782 -2.89416 0
M  V30 13293 H 1288.93 2.32748 -1.88331 0
M  V30 13294 H 1286.47 1.11852 -0.906922 0
M  V30 13295 H 1288.42 4.20141 -0.325436 0
M  V30 13296 H 1287.15 3.23418 0.454764 0
M  V30 13297 H 1285.81 3.25964 -1.67759 0
M  V30 13298 H 1285.46 5.02971 0.0537982 0
M  V30 13299 H 1285.16 5.65791 -1.58602 0
M  V30 13300 H 1286.68 6.06039 -0.74493 0
M  V30 13301 H 1288.09 5.02207 -2.76516 0
M  V30 13302 H 1286.49 4.8479 -3.53693 0
M  V30 13303 H 1287.56 3.43935 -3.41814 0
M  V30 13304 N 1288.9 1.00119 1.21713 0
M  V30 13305 C 1289.87 0.563409 2.22167 0
M  V30 13306 C 1290.87 -0.35819 1.5676 0
M  V30 13307 O 1292.06 -0.149001 1.73562 0
M  V30 13308 C 1289.19 -0.179365 3.40428 0
M  V30 13309 H 1290.38 1.45189 2.62412 0
M  V30 13310 H 1287.93 0.789286 1.34907 0
M  V30 13311 H 1288.67 -1.08345 3.05666 0
M  V30 13312 H 1288.45 0.482471 3.8912 0
M  V30 13313 H 1289.94 -0.473537 4.14906 0
M  V30 13314 N 1290.38 -1.37203 0.775435 0
M  V30 13315 C 1291.29 -2.34019 0.165062 0
M  V30 13316 C 1292.31 -1.6036 -0.675316 0
M  V30 13317 O 1293.48 -1.9243 -0.594375 0
M  V30 13318 C 1290.55 -3.3954 -0.700957 0
M  V30 13319 C 1289.61 -4.29015 0.156304 0
M  V30 13320 C 1288.84 -5.29497 -0.668476 0
M  V30 13321 O 1289.07 -5.37636 -1.90535 0
M  V30 13322 O 1288 -6.01852 -0.0757351 0
M  V30 13323 H 1291.83 -2.87955 0.965184 0
M  V30 13324 H 1289.41 -1.39429 0.536654 0
M  V30 13325 H 1291.29 -4.04094 -1.19524 0
M  V30 13326 H 1289.97 -2.87926 -1.4792 0
M  V30 13327 H 1288.87 -3.67549 0.69703 0
M  V30 13328 H 1290.21 -4.83944 0.897725 0
M  V30 13329 N 1291.86 -0.526279 -1.48553 0
M  V30 13330 C 1293.11 0.0111473 -2.01697 0
M  V30 13331 C 1293.42 1.35675 -1.40895 0
M  V30 13332 O 1294.63 1.98233 -1.85515 0
M  V30 13333 C 1293.08 0.0702721 -3.59831 0
M  V30 13334 C 1292.69 -1.27022 -4.29616 0
M  V30 13335 C 1294.44 0.556722 -4.20834 0
M  V30 13336 C 1292.34 -1.17188 -5.79673 0
M  V30 13337 H 1291.27 0.00793697 -0.753958 0
M  V30 13338 H 1293.92 -0.669503 -1.70851 0
M  V30 13339 H 1292.31 0.81592 -3.87503 0
M  V30 13340 H 1293.48 -2.03114 -4.1362 0
M  V30 13341 H 1291.79 -1.69211 -3.80469 0
M  V30 13342 H 1294.39 0.648205 -5.30756 0
M  V30 13343 H 1294.73 1.56163 -3.859 0
M  V30 13344 H 1295.27 -0.133132 -3.97577 0
M  V30 13345 H 1292.01 -2.15182 -6.19174 0
M  V30 13346 H 1291.53 -0.452259 -5.98093 0
M  V30 13347 H 1293.21 -0.861011 -6.41245 0
M  V30 13348 N 1293.34 1.5542 -0.261239 0
M  V30 13349 C 1294.61 1.91243 0.41056 0
M  V30 13350 C 1294.99 1.1838 1.74784 0
M  V30 13351 O 1294.34 0.306013 2.26442 0
M  V30 13352 C 1294.55 3.44404 0.56453 0
M  V30 13353 C 1295.9 4.15927 0.853827 0
M  V30 13354 O 1296.92 3.50222 0.649861 0
M  V30 13355 O 1295.78 5.32175 1.24308 0
M  V30 13356 H 1292.88 0.796491 0.222555 0
M  V30 13357 H 1295.42 1.66912 -0.306367 0
M  V30 13358 H 1294.2 3.89478 -0.377134 0
M  V30 13359 H 1293.82 3.74644 1.33145 0
M  V30 13360 N 1294.82 -0.0116844 1.57596 0
M  V30 13361 C 1296.06 -0.698958 1.90055 0
M  V30 13362 C 1296.39 -1.74422 0.860659 0
M  V30 13363 O 1295.65 -1.95226 -0.136132 0
M  V30 13364 C 1295.94 -1.38985 3.29269 0
M  V30 13365 C 1295.61 -0.478916 4.48349 0
M  V30 13366 C 1294.27 -0.228071 4.80659 0
M  V30 13367 C 1296.62 0.14897 5.20987 0
M  V30 13368 C 1293.95 0.659147 5.82986 0
M  V30 13369 C 1296.3 1.02399 6.24257 0
M  V30 13370 C 1294.97 1.28413 6.55032 0
M  V30 13371 H 1294.24 -0.255767 0.69546 0
M  V30 13372 H 1296.89 0.0413339 1.91455 0
M  V30 13373 H 1295.19 -2.2039 3.23937 0
M  V30 13374 H 1296.89 -1.92747 3.51638 0
M  V30 13375 H 1293.48 -0.68459 4.23097 0
M  V30 13376 H 1297.66 -0.0318326 4.9629 0
M  V30 13377 H 1292.92 0.86882 6.05195 0
M  V30 13378 H 1297.09 1.51694 6.79678 0
M  V30 13379 H 1294.72 1.97332 7.34142 0
M  V30 13380 N 1296.29 -1.55015 -0.284256 0
M  V30 13381 C 1297.71 -1.46603 -0.630845 0
M  V30 13382 C 1297.91 -0.67091 -1.90003 0
M  V30 13383 O 1296.97 -0.185266 -2.51819 0
M  V30 13384 C 1298.28 -2.9072 -0.768268 0
M  V30 13385 C 1299.83 -3.00866 -0.863061 0
M  V30 13386 C 1300.3 -4.46214 -1.03235 0
M  V30 13387 N 1301.79 -4.49994 -1.09815 0
M  V30 13388 C 1302.53 -5.5966 -1.24773 0
M  V30 13389 N 1302.02 -6.79215 -1.36523 0
M  V30 13390 N 1303.82 -5.4738 -1.27795 0
M  V30 13391 H 1295.97 -2.05171 0.549409 0
M  V30 13392 H 1298.23 -0.929915 0.184288 0
M  V30 13393 H 1297.94 -3.51575 0.0936899 0
M  V30 13394 H 1297.81 -3.39096 -1.65209 0
M  V30 13395 H 1300.2 -2.40114 -1.71549 0
M  V30 13396 H 1300.28 -2.5576 0.0451267 0
M  V30 13397 H 1299.92 -5.07564 -0.18462 0
M  V30 13398 H 1299.85 -4.88965 -1.95502 0
M  V30 13399 H 1302.34 -3.63869 -1.0202 0
M  V30 13400 H 1302.66 -7.58547 -1.47739 0
M  V30 13401 H 1301 -6.82048 -1.33548 0
M  V30 13402 H 1304.19 -4.52921 -1.18238 0
M  V30 13403 H 1304.37 -6.32892 -1.39109 0
M  V30 13404 N 1297.77 0.548248 -1.47757 0
M  V30 13405 C 1298.7 1.66409 -1.63799 0
M  V30 13406 C 1299.68 1.62973 -0.487211 0
M  V30 13407 O 1300.87 1.80455 -0.717612 0
M  V30 13408 C 1298 3.05035 -1.66046 0
M  V30 13409 C 1296.95 3.23322 -2.80441 0
M  V30 13410 C 1296.28 4.62824 -2.67765 0
M  V30 13411 C 1297.58 3.07837 -4.2194 0
M  V30 13412 H 1299.27 1.53239 -2.57212 0
M  V30 13413 H 1296.82 0.735783 -1.23783 0
M  V30 13414 H 1298.77 3.82951 -1.75859 0
M  V30 13415 H 1297.49 3.19185 -0.69199 0
M  V30 13416 H 1296.15 2.47816 -2.70153 0
M  V30 13417 H 1295.8 4.73786 -1.68927 0
M  V30 13418 H 1295.5 4.76007 -3.44515 0
M  V30 13419 H 1297.03 5.42864 -2.7952 0
M  V30 13420 H 1298.44 3.75563 -4.33157 0
M  V30 13421 H 1296.84 3.32525 -4.99547 0
M  V30 13422 H 1297.91 2.04474 -4.3968 0
M  V30 13423 N 1299.25 1.36039 0.795694 0
M  V30 13424 C 1300.5 1.30112 1.5556 0
M  V30 13425 C 1300.83 -0.121197 1.93821 0
M  V30 13426 O 1300.1 -1.07313 1.62216 0
M  V30 13427 C 1300.39 2.21792 2.8369 0
M  V30 13428 C 1300.24 3.72691 2.51836 0
M  V30 13429 C 1301.56 2.12365 3.85472 0
M  V30 13430 H 1298.68 0.473971 0.564376 0
M  V30 13431 H 1301.32 1.66536 0.91465 0
M  V30 13432 H 1299.47 1.9086 3.38386 0
M  V30 13433 H 1301.14 4.14115 2.0324 0
M  V30 13434 H 1299.38 3.92436 1.84869 0
M  V30 13435 H 1300.06 4.32242 3.43323 0
M  V30 13436 H 1302.53 2.3958 3.40207 0
M  V30 13437 H 1301.41 2.78695 4.72885 0
M  V30 13438 H 1301.67 1.10898 4.27965 0
M  V30 13439 N 1300.73 -1.01913 1.20215 0
M  V30 13440 C 1301.95 -1.79613 1.03702 0
M  V30 13441 C 1302.38 -1.83591 -0.409374 0
M  V30 13442 O 1301.74 -1.26911 -1.29473 0
M  V30 13443 C 1301.78 -3.22052 1.62219 0
M  V30 13444 O 1300.89 -4.03374 0.858106 0
M  V30 13445 H 1300.23 -0.554095 0.365889 0
M  V30 13446 H 1302.76 -1.28203 1.59452 0
M  V30 13447 H 1302.77 -3.72772 1.65847 0
M  V30 13448 H 1301.44 -3.18471 2.67487 0
M  V30 13449 H 1300.02 -3.6198 0.895835 0
M  V30 13450 N 1302.21 -1.00763 -1.2118 0
M  V30 13451 C 1303.45 -0.691826 -1.90316 0
M  V30 13452 C 1303.78 0.777678 -1.78276 0
M  V30 13453 O 1303.04 1.57962 -1.15526 0
M  V30 13454 C 1303.34 -1.06187 -3.41261 0
M  V30 13455 C 1303 -2.52608 -3.73497 0
M  V30 13456 C 1301.66 -2.92617 -3.82006 0
M  V30 13457 C 1304.02 -3.47442 -3.88502 0
M  V30 13458 C 1301.34 -4.26419 -4.02969 0
M  V30 13459 C 1303.7 -4.8092 -4.10973 0
M  V30 13460 C 1302.36 -5.20649 -4.17709 0
M  V30 13461 H 1301.63 -0.253157 -0.696414 0
M  V30 13462 H 1304.28 -1.26655 -1.43634 0
M  V30 13463 H 1302.58 -0.405428 -3.89697 0
M  V30 13464 H 1304.28 -0.795343 -3.93033 0
M  V30 13465 H 1300.87 -2.20603 -3.67468 0
M  V30 13466 H 1305.05 -3.17695 -3.81292 0
M  V30 13467 H 1300.31 -4.56767 -4.06416 0
M  V30 13468 H 1304.48 -5.54337 -4.21525 0
M  V30 13469 H 1302.11 -6.24343 -4.33705 0
M  V30 13470 N 1303.68 1.3679 -0.7827 0
M  V30 13471 C 1304.61 2.32721 -0.190604 0
M  V30 13472 C 1305.6 1.56321 0.670663 0
M  V30 13473 O 1306.78 1.84507 0.605871 0
M  V30 13474 C 1303.91 3.40564 0.680717 0
M  V30 13475 C 1302.86 4.27925 -0.080118 0
M  V30 13476 C 1302.19 5.26876 0.911361 0
M  V30 13477 C 1303.49 5.06738 -1.26545 0
M  V30 13478 H 1305.18 2.82488 -0.992023 0
M  V30 13479 H 1302.73 1.35818 -0.478484 0
M  V30 13480 H 1304.68 4.06659 1.10482 0
M  V30 13481 H 1303.41 2.89348 1.51477 0
M  V30 13482 H 1302.07 3.63376 -0.485125 0
M  V30 13483 H 1301.71 4.71936 1.74026 0
M  V30 13484 H 1301.41 5.8619 0.406762 0
M  V30 13485 H 1302.94 5.95846 1.33418 0
M  V30 13486 H 1304.35 5.65911 -0.917448 0
M  V30 13487 H 1302.75 5.75432 -1.70289 0
M  V30 13488 H 1303.82 4.38772 -2.06415 0
M  V30 13489 N 1305.16 0.53415 1.48272 0
M  V30 13490 C 1306.07 -0.230062 2.33469 0
M  V30 13491 C 1307.09 -0.934889 1.46751 0
M  V30 13492 O 1308.26 -0.908921 1.79724 0
M  V30 13493 C 1305.33 -1.2609 3.22958 0
M  V30 13494 C 1304.39 -0.565983 4.25553 0
M  V30 13495 C 1303.62 -1.54771 5.10766 0
M  V30 13496 O 1303.85 -2.7807 4.9803 0
M  V30 13497 O 1302.78 -1.08482 5.92043 0
M  V30 13498 H 1306.61 0.468182 3.0007 0
M  V30 13499 H 1304.19 0.29502 1.46458 0
M  V30 13500 H 1306.07 -1.85652 3.783 0
M  V30 13501 H 1304.75 -1.94148 2.59014 0
M  V30 13502 H 1303.66 0.0702391 3.74034 0
M  V30 13503 H 1304.99 0.0727277 4.92146 0
M  V30 13504 N 1306.64 -1.55279 0.269478 0
M  V30 13505 C 1307.6 -2.21008 -0.607299 0
M  V30 13506 C 1308.6 -1.18619 -1.08564 0
M  V30 13507 O 1309.79 -1.4356 -0.986721 0
M  V30 13508 C 1306.93 -2.87157 -1.83721 0
M  V30 13509 H 1308.12 -2.99881 -0.0334894 0
M  V30 13510 H 1305.67 -1.56287 0.0200573 0
M  V30 13511 H 1306.41 -2.12281 -2.45168 0
M  V30 13512 H 1306.19 -3.62183 -1.5022 0
M  V30 13513 H 1307.68 -3.37391 -2.46083 0
M  V30 13514 N 1308.12 0.00332656 -1.576 0
M  V30 13515 C 1309.07 0.99581 -2.08212 0
M  V30 13516 C 1310.04 1.34342 -0.976804 0
M  V30 13517 O 1311.22 1.44236 -1.24902 0
M  V30 13518 C 1308.36 2.2836 -2.58739 0
M  V30 13519 C 1307.47 1.99531 -3.8316 0
M  V30 13520 C 1306.61 3.22367 -4.222 0
M  V30 13521 C 1305.65 2.89209 -5.39467 0
M  V30 13522 N 1304.78 4.04572 -5.73817 0
M  V30 13523 H 1309.62 0.55727 -2.92743 0
M  V30 13524 H 1307.16 0.263513 -1.4472 0
M  V30 13525 H 1309.12 3.03639 -2.86111 0
M  V30 13526 H 1307.75 2.69889 -1.77087 0
M  V30 13527 H 1306.8 1.14634 -3.62716 0
M  V30 13528 H 1308.11 1.71089 -4.6854 0
M  V30 13529 H 1307.27 4.05994 -4.50837 0
M  V30 13530 H 1306.01 3.53944 -3.35522 0
M  V30 13531 H 1305.01 2.03989 -5.10557 0
M  V30 13532 H 1306.24 2.58883 -6.27819 0
M  V30 13533 H 1304.18 4.36052 -4.90096 0
M  V30 13534 H 1304.1 3.79643 -6.53764 0
M  V30 13535 H 1305.37 4.88998 -6.07043 0
M  V30 13536 N 1309.6 1.55164 0.276031 0
M  V30 13537 C 1310.56 1.87065 1.32436 0
M  V30 13538 C 1311.56 0.745024 1.42499 0
M  V30 13539 O 1312.75 1.01321 1.41702 0
M  V30 13540 C 1309.88 2.07322 2.70611 0
M  V30 13541 H 1311.07 2.80775 1.05382 0
M  V30 13542 H 1308.63 1.47609 0.513947 0
M  V30 13543 H 1309.36 1.15983 3.0285 0
M  V30 13544 H 1309.15 2.89275 2.64693 0
M  V30 13545 H 1310.64 2.33287 3.46362 0
M  V30 13546 N 1311.07 -0.540404 1.48045 0
M  V30 13547 C 1311.98 -1.67308 1.64455 0
M  V30 13548 C 1313 -1.65823 0.527152 0
M  V30 13549 O 1314.18 -1.84964 0.796881 0
M  V30 13550 C 1311.24 -3.03792 1.67068 0
M  V30 13551 C 1310.3 -3.16213 2.90358 0
M  V30 13552 C 1309.54 -4.46187 2.92837 0
M  V30 13553 O 1309.76 -5.32662 2.04029 0
M  V30 13554 O 1308.69 -4.62754 3.84892 0
M  V30 13555 H 1312.52 -1.56403 2.6033 0
M  V30 13556 H 1310.1 -0.712323 1.31325 0
M  V30 13557 H 1311.99 -3.84982 1.71368 0
M  V30 13558 H 1310.66 -3.15043 0.74363 0
M  V30 13559 H 1309.57 -2.34357 2.91595 0
M  V30 13560 H 1310.9 -3.09874 3.82412 0
M  V30 13561 N 1312.55 -1.36459 -0.788468 0
M  V30 13562 C 1313.5 -1.30924 -1.92254 0
M  V30 13563 C 1314.49 -0.200866 -1.68205 0
M  V30 13564 O 1315.7 -0.367927 -1.762 0
M  V30 13565 H 1312.08 -0.407609 -0.631949 0
M  V30 13566 H 1314.05 -2.26695 -1.94041 0
M  V30 13567 C 1312.8 -1.11635 -3.29292 0
M  V30 13568 H 1312.12 -1.96168 -3.48365 0
M  V30 13569 H 1313.56 -1.11808 -4.08993 0
M  V30 13570 C 1312.02 0.178963 -3.36424 0
M  V30 13571 O 1312.55 1.16846 -3.8433 0
M  V30 13572 N 1310.75 0.223962 -2.89736 0
M  V30 13573 H 1310.3 -0.581888 -2.50942 0
M  V30 13574 H 1310.26 1.0903 -2.94889 0
M  V30 13575 N 1314.03 1.01274 -1.20754 0
M  V30 13576 C 1314.96 2.11763 -0.983805 0
M  V30 13577 C 1315.94 1.69869 0.0885635 0
M  V30 13578 O 1317.13 1.94075 -0.0697239 0
M  V30 13579 C 1314.26 3.43087 -0.539287 0
M  V30 13580 C 1313.21 3.9874 -1.55534 0
M  V30 13581 C 1312.54 5.25877 -0.967322 0
M  V30 13582 C 1313.84 4.31688 -2.94012 0
M  V30 13583 H 1315.53 2.30737 -1.90789 0
M  V30 13584 H 1313.08 1.10884 -0.918734 0
M  V30 13585 H 1315.03 4.19773 -0.369979 0
M  V30 13586 H 1313.75 3.23883 0.420435 0
M  V30 13587 H 1312.41 3.24166 -1.71207 0
M  V30 13588 H 1312.06 5.03 0.000448307 0
M  V30 13589 H 1311.76 5.64077 -1.64594 0
M  V30 13590 H 1313.28 6.05215 -0.809167 0
M  V30 13591 H 1314.7 4.99246 -2.81827 0
M  V30 13592 H 1313.1 4.81011 -3.58815 0
M  V30 13593 H 1314.17 3.4029 -3.45442 0
M  V30 13594 N 1315.51 1.01404 1.20644 0
M  V30 13595 C 1316.46 0.552956 2.21193 0
M  V30 13596 C 1317.44 -0.390324 1.56094 0
M  V30 13597 O 1318.64 -0.213705 1.75705 0
M  V30 13598 C 1315.76 -0.10995 3.43124 0
M  V30 13599 C 1314.85 0.854886 4.15394 0
M  V30 13600 N 1315.24 2.01137 4.64088 0
M  V30 13601 C 1313.54 0.675168 4.4086 0
M  V30 13602 C 1314.24 2.6187 5.19422 0
M  V30 13603 N 1313.22 1.89952 5.09332 0
M  V30 13604 H 1317.02 1.43467 2.56504 0
M  V30 13605 H 1314.53 0.87905 1.36552 0
M  V30 13606 H 1316.53 -0.457802 4.14379 0
M  V30 13607 H 1315.19 -0.987534 3.09318 0
M  V30 13608 H 1316.2 2.3914 4.59383 0
M  V30 13609 H 1312.88 -0.154577 4.17214 0
M  V30 13610 H 1314.27 3.59727 5.67491 0
M  V30 13611 N 1316.99 -1.36373 0.789944 0
M  V30 13612 C 1318.4 -1.52471 0.471686 0
M  V30 13613 C 1318.6 -1.74365 -1.0099 0
M  V30 13614 O 1317.66 -1.77546 -1.79538 0
M  V30 13615 C 1318.97 -2.71022 1.30259 0
M  V30 13616 C 1320.52 -2.84893 1.29633 0
M  V30 13617 C 1321 -4.0645 2.11098 0
M  V30 13618 N 1322.49 -4.13597 2.08547 0
M  V30 13619 C 1323.22 -5.06731 2.6835 0
M  V30 13620 N 1322.72 -6.05305 3.37013 0
M  V30 13621 N 1324.51 -4.9935 2.58081 0
M  V30 13622 H 1316.66 -1.20416 1.74968 0
M  V30 13623 H 1318.92 -0.587782 0.743785 0
M  V30 13624 H 1318.63 -2.61368 2.35329 0
M  V30 13625 H 1318.5 -3.6519 0.944254 0
M  V30 13626 H 1320.89 -2.94009 0.253542 0
M  V30 13627 H 1320.97 -1.91632 1.69443 0
M  V30 13628 H 1320.62 -3.98096 3.15408 0
M  V30 13629 H 1320.55 -4.98861 1.68659 0
M  V30 13630 H 1323.04 -3.4302 1.58573 0
M  V30 13631 H 1323.35 -6.72934 3.79974 0
M  V30 13632 H 1321.7 -6.05529 3.41116 0
M  V30 13633 H 1324.89 -4.21291 2.04039 0
M  V30 13634 H 1325.06 -5.71745 3.04979 0
M  V30 13635 N 1318.47 -0.542005 -1.47987 0
M  V30 13636 C 1319.71 -0.0122873 -2.02096 0
M  V30 13637 C 1320.03 1.3362 -1.42024 0
M  V30 13638 O 1319.3 1.86807 -0.589911 0
M  V30 13639 H 1317.88 -0.00155365 -0.746998 0
M  V30 13640 H 1320.55 -0.708566 -1.81564 0
M  V30 13641 H 1319.64 0.0871275 -3.11978 0
M  V30 13642 N 1319.94 1.55134 -0.277709 0
M  V30 13643 C 1320.91 2.21327 0.595569 0
M  V30 13644 C 1321.91 1.19193 1.07933 0
M  V30 13645 O 1323.1 1.44081 0.979093 0
M  V30 13646 C 1320.23 2.88127 1.82196 0
M  V30 13647 H 1321.42 2.99895 0.0175855 0
M  V30 13648 H 1318.97 1.56274 -0.0283453 0
M  V30 13649 H 1319.71 2.13578 2.44039 0
M  V30 13650 H 1319.49 3.62974 1.48297 0
M  V30 13651 H 1320.98 3.38691 2.44291 0
M  V30 13652 N 1321.42 0.00503138 1.57599 0
M  V30 13653 C 1322.37 -0.993379 2.05222 0
M  V30 13654 C 1323.36 -1.30013 0.947919 0
M  V30 13655 O 1324.55 -1.29027 1.21166 0
M  V30 13656 C 1321.68 -2.28375 2.5632 0
M  V30 13657 C 1320.76 -2.00642 3.73636 0
M  V30 13658 N 1321.15 -1.43087 4.85139 0
M  V30 13659 C 1319.45 -2.30759 3.81662 0
M  V30 13660 C 1320.15 -1.31939 5.66539 0
M  V30 13661 N 1319.13 -1.80672 5.12697 0
M  V30 13662 H 1322.93 -0.542951 2.88841 0
M  V30 13663 H 1320.44 -0.20055 1.61157 0
M  V30 13664 H 1322.44 -3.00748 2.88715 0
M  V30 13665 H 1321.1 -2.74066 1.74121 0
M  V30 13666 H 1322.11 -1.10901 5.05887 0
M  V30 13667 H 1318.79 -2.7929 3.10327 0
M  V30 13668 H 1320.18 -0.876391 6.6616 0
M  V30 13669 N 1322.9 -1.55308 -0.267798 0
M  V30 13670 C 1323.85 -1.84933 -1.33356 0
M  V30 13671 C 1324.83 -0.708605 -1.44456 0
M  V30 13672 O 1326.03 -0.970069 -1.4805 0
M  V30 13673 C 1323.15 -2.12927 -2.69289 0
M  V30 13674 C 1322.24 -3.33273 -2.62279 0
M  V30 13675 N 1322.63 -4.53055 -2.24889 0
M  V30 13676 C 1320.93 -3.35966 -2.93331 0
M  V30 13677 C 1321.63 -5.35156 -2.27998 0
M  V30 13678 N 1320.61 -4.73692 -2.66677 0
M  V30 13679 H 1324.41 -2.75086 -1.03465 0
M  V30 13680 H 1321.92 -1.55254 -0.476435 0
M  V30 13681 H 1323.92 -2.32309 -3.46177 0
M  V30 13682 H 1322.58 -1.24061 -3.00065 0
M  V30 13683 H 1323.59 -4.79059 -1.9678 0
M  V30 13684 H 1320.27 -2.57308 -3.28784 0
M  V30 13685 H 1321.66 -6.4094 -2.01608 0
M  V30 13686 N 1324.38 0.532545 -1.4833 0
M  V30 13687 C 1325.61 1.31141 -1.59642 0
M  V30 13688 C 1326.02 1.87476 -0.254835 0
M  V30 13689 O 1325.36 1.66985 0.765622 0
M  V30 13690 C 1325.42 2.50182 -2.58165 0
M  V30 13691 C 1325.08 2.14953 -4.03292 0
M  V30 13692 C 1326.08 1.70777 -4.91051 0
M  V30 13693 C 1323.77 2.25555 -4.4881 0
M  V30 13694 C 1325.76 1.37665 -6.22356 0
M  V30 13695 C 1323.45 1.92055 -5.80136 0
M  V30 13696 C 1324.45 1.48181 -6.66732 0
M  V30 13697 O 1324.13 1.15119 -7.95615 0
M  V30 13698 H 1323.87 0.405164 -0.541127 0
M  V30 13699 H 1326.42 0.649423 -1.94863 0
M  V30 13700 H 1324.65 3.19353 -2.1806 0
M  V30 13701 H 1326.34 3.12246 -2.5934 0
M  V30 13702 H 1327.1 1.62059 -4.57124 0
M  V30 13703 H 1322.98 2.5866 -3.81597 0
M  V30 13704 H 1326.53 1.03348 -6.89902 0
M  V30 13705 H 1322.42 2.00413 -6.136 0
M  V30 13706 H 1323.19 1.28539 -8.08344 0
M  V30 13707 N 1325.86 1.36875 0.78122 0
M  V30 13708 C 1327.08 1.34732 1.57019 0
M  V30 13709 C 1327.5 -0.0695423 1.88672 0
M  V30 13710 O 1326.86 -1.02873 1.50743 0
M  V30 13711 C 1326.91 2.17668 2.88623 0
M  V30 13712 O 1326.63 3.53832 2.5833 0
M  V30 13713 C 1328.13 2.23398 3.82895 0
M  V30 13714 H 1325.35 0.461857 0.486754 0
M  V30 13715 H 1327.89 1.80086 0.968989 0
M  V30 13716 H 1326.05 1.75848 3.4519 0
M  V30 13717 H 1326.46 3.972 3.42538 0
M  V30 13718 H 1327.94 2.85769 4.72271 0
M  V30 13719 H 1328.41 1.23972 4.2134 0
M  V30 13720 H 1329.02 2.65489 3.32258 0
M  V30 13721 N 1327.33 -1.00632 1.21289 0
M  V30 13722 C 1328.58 -1.74044 1.02728 0
M  V30 13723 C 1328.9 -1.89963 -0.440351 0
M  V30 13724 O 1328.17 -1.44958 -1.31772 0
M  V30 13725 H 1326.75 -0.644813 0.377127 0
M  V30 13726 H 1329.41 -1.21272 1.52575 0
M  V30 13727 H 1328.51 -2.74011 1.49413 0
M  V30 13728 N 1328.81 -1.02043 -1.20104 0
M  V30 13729 C 1329.74 -0.614421 -2.25271 0
M  V30 13730 C 1330.72 0.37242 -1.65973 0
M  V30 13731 O 1331.91 0.257005 -1.92492 0
M  V30 13732 C 1329.04 0.0442085 -3.47272 0
M  V30 13733 C 1327.99 -0.864019 -4.19188 0
M  V30 13734 C 1327.32 -0.0709551 -5.34653 0
M  V30 13735 C 1328.62 -2.17385 -4.74912 0
M  V30 13736 H 1330.31 -1.49355 -2.59487 0
M  V30 13737 H 1327.86 -0.719591 -1.24731 0
M  V30 13738 H 1329.81 0.339825 -4.20028 0
M  V30 13739 H 1328.53 0.958082 -3.12231 0
M  V30 13740 H 1327.19 -1.1437 -3.48303 0
M  V30 13741 H 1326.84 0.844688 -4.95857 0
M  V30 13742 H 1326.54 -0.67583 -5.83701 0
M  V30 13743 H 1328.07 0.218118 -6.1021 0
M  V30 13744 H 1329.48 -1.94034 -5.39466 0
M  V30 13745 H 1327.88 -2.72991 -5.34412 0
M  V30 13746 H 1328.95 -2.83427 -3.93443 0
M  V30 13747 N 1330.29 1.35952 -0.797165 0
M  V30 13748 C 1331.22 2.32506 -0.215277 0
M  V30 13749 C 1332.2 1.57023 0.654046 0
M  V30 13750 O 1333.39 1.85139 0.586268 0
M  V30 13751 C 1330.52 3.41266 0.644557 0
M  V30 13752 C 1329.47 4.27816 -0.125501 0
M  V30 13753 C 1328.8 5.27813 0.855428 0
M  V30 13754 C 1330.1 5.05367 -1.31913 0
M  V30 13755 H 1331.79 2.8142 -1.02193 0
M  V30 13756 H 1329.34 1.35303 -0.492862 0
M  V30 13757 H 1331.29 4.07808 1.06163 0
M  V30 13758 H 1330.01 2.90938 1.484 0
M  V30 13759 H 1328.67 3.62841 -0.523639 0
M  V30 13760 H 1328.32 4.73755 1.69011 0
M  V30 13761 H 1328.02 5.86589 0.344566 0
M  V30 13762 H 1329.54 5.97227 1.2709 0
M  V30 13763 H 1330.96 5.64907 -0.977418 0
M  V30 13764 H 1329.36 5.73593 -1.76382 0
M  V30 13765 H 1330.43 4.36558 -2.11057 0
M  V30 13766 N 1331.77 0.549846 1.47697 0
M  V30 13767 C 1332.72 -0.201961 2.29915 0
M  V30 13768 C 1333.69 -0.915287 1.38606 0
M  V30 13769 O 1334.87 -0.912427 1.67569 0
M  V30 13770 C 1332.01 -1.2306 3.22413 0
M  V30 13771 C 1331.12 -0.524091 4.28809 0
M  V30 13772 C 1330.26 -1.53738 5.08466 0
M  V30 13773 C 1329.3 -0.815437 6.06644 0
M  V30 13774 N 1328.43 -1.77521 6.79287 0
M  V30 13775 H 1333.27 0.505289 2.93685 0
M  V30 13776 H 1330.81 0.261012 1.44766 0
M  V30 13777 H 1332.77 -1.83949 3.74458 0
M  V30 13778 H 1331.4 -1.90597 2.60523 0
M  V30 13779 H 1330.45 0.199174 3.79878 0
M  V30 13780 H 1331.76 0.0418145 4.98782 0
M  V30 13781 H 1330.92 -2.22001 5.64624 0
M  V30 13782 H 1329.66 -2.1372 4.38378 0
M  V30 13783 H 1328.66 -0.11884 5.49672 0
M  V30 13784 H 1329.89 -0.221462 6.78739 0
M  V30 13785 H 1327.83 -2.36374 6.11934 0
M  V30 13786 H 1327.75 -1.26126 7.45405 0
M  V30 13787 H 1329.02 -2.44921 7.40023 0
M  V30 13788 N 1333.25 -1.54984 0.285932 0
M  V30 13789 C 1334.18 -2.25916 -0.590259 0
M  V30 13790 C 1335.16 -1.25319 -1.15018 0
M  V30 13791 O 1336.34 -1.54062 -1.18231 0
M  V30 13792 C 1333.47 -2.98849 -1.76936 0
M  V30 13793 C 1332.43 -4.06466 -1.3405 0
M  V30 13794 C 1331.75 -4.67032 -2.60356 0
M  V30 13795 C 1333.05 -5.20064 -0.482754 0
M  V30 13796 H 1334.75 -2.994 0.00131571 0
M  V30 13797 H 1332.29 -1.44 0.00207281 0
M  V30 13798 H 1334.25 -3.47186 -2.3883 0
M  V30 13799 H 1332.97 -2.22918 -2.38694 0
M  V30 13800 H 1331.63 -3.58957 -0.7447 0
M  V30 13801 H 1331.28 -3.87757 -3.20396 0
M  V30 13802 H 1330.98 -5.39703 -2.32368 0
M  V30 13803 H 1332.5 -5.18124 -3.23079 0
M  V30 13804 H 1333.91 -5.64387 -1.00697 0
M  V30 13805 H 1332.31 -5.99363 -0.297291 0
M  V30 13806 H 1333.38 -4.82358 0.495861 0
M  V30 13807 N 1334.72 -0.0133892 -1.57594 0
M  V30 13808 C 1335.66 1.00211 -2.06132 0
M  V30 13809 C 1336.67 1.29869 -0.98173 0
M  V30 13810 O 1337.86 1.2661 -1.25826 0
M  V30 13811 C 1334.96 2.33354 -2.45763 0
M  V30 13812 C 1334.13 2.22441 -3.76615 0
M  V30 13813 C 1333.19 3.38385 -4.02967 0
M  V30 13814 O 1332.22 3.15973 -4.73445 0
M  V30 13815 N 1333.42 4.61672 -3.51908 0
M  V30 13816 H 1336.18 0.588079 -2.93874 0
M  V30 13817 H 1333.74 0.173714 -1.60965 0
M  V30 13818 H 1335.74 3.09716 -2.60496 0
M  V30 13819 H 1334.31 2.66451 -1.6347 0
M  V30 13820 H 1333.53 1.30905 -3.7183 0
M  V30 13821 H 1334.81 2.12337 -4.62375 0
M  V30 13822 H 1334.21 4.82777 -2.9486 0
M  V30 13823 H 1332.77 5.35256 -3.71947 0
M  V30 13824 N 1336.2 1.55448 0.259558 0
M  V30 13825 C 1337.11 1.92364 1.34289 0
M  V30 13826 C 1338.13 0.822492 1.53333 0
M  V30 13827 O 1339.3 1.12277 1.672 0
M  V30 13828 C 1336.37 2.19978 2.67975 0
M  V30 13829 C 1335.43 3.43454 2.57562 0
M  V30 13830 C 1334.66 3.69741 3.84873 0
M  V30 13831 O 1334.89 2.9831 4.86176 0
M  V30 13832 O 1333.82 4.63274 3.84267 0
M  V30 13833 H 1337.65 2.8461 1.05975 0
M  V30 13834 H 1335.23 1.42167 0.459239 0
M  V30 13835 H 1337.11 2.39104 3.46998 0
M  V30 13836 H 1335.79 1.30912 2.96047 0
M  V30 13837 H 1334.7 3.29649 1.76869 0
M  V30 13838 H 1336.03 4.32782 2.34437 0
M  V30 13839 N 1337.68 -0.524672 1.4861 0
M  V30 13840 C 1339.1 -0.853703 1.34848 0
M  V30 13841 C 1339.3 -1.98194 0.363529 0
M  V30 13842 O 1338.35 -2.51597 -0.213348 0
M  V30 13843 C 1339.67 -1.21622 2.75006 0
M  V30 13844 C 1341.21 -1.3258 2.83534 0
M  V30 13845 C 1341.69 -1.72172 4.24406 0
M  V30 13846 N 1343.18 -1.79265 4.27105 0
M  V30 13847 C 1343.91 -2.11296 5.33049 0
M  V30 13848 N 1343.41 -2.41714 6.49266 0
M  V30 13849 N 1345.2 -2.12347 5.20447 0
M  V30 13850 H 1337.35 0.219671 2.11261 0
M  V30 13851 H 1339.62 0.0356444 0.94733 0
M  V30 13852 H 1339.32 -0.460776 3.48669 0
M  V30 13853 H 1339.2 -2.16516 3.0887 0
M  V30 13854 H 1341.58 -2.072 2.10124 0
M  V30 13855 H 1341.67 -0.357943 2.53283 0
M  V30 13856 H 1341.31 -0.981108 4.98334 0
M  V30 13857 H 1341.24 -2.70017 4.52104 0
M  V30 13858 H 1343.73 -1.58013 3.43279 0
M  V30 13859 H 1344.04 -2.65276 7.25843 0
M  V30 13860 H 1342.39 -2.39222 6.52532 0
M  V30 13861 H 1345.58 -1.88044 4.28669 0
M  V30 13862 H 1345.75 -2.36978 6.03113 0
M  V30 13863 N 1339.16 -1.37287 -0.77395 0
M  V30 13864 C 1340.4 -1.3257 -1.5347 0
M  V30 13865 C 1340.74 0.090346 -1.9399 0
M  V30 13866 O 1340.01 1.04719 -1.63903 0
M  V30 13867 C 1340.3 -2.26277 -2.80126 0
M  V30 13868 C 1340.15 -3.76651 -2.45874 0
M  V30 13869 C 1341.47 -2.18471 -3.82045 0
M  V30 13870 H 1338.59 -0.48289 -0.556764 0
M  V30 13871 H 1341.23 -1.6797 -0.888039 0
M  V30 13872 H 1339.38 -1.96219 -3.35306 0
M  V30 13873 H 1341.05 -4.17296 -1.96626 0
M  V30 13874 H 1339.29 -3.95327 -1.78602 0
M  V30 13875 H 1339.96 -4.3765 -3.36403 0
M  V30 13876 H 1342.44 -2.44962 -3.36352 0
M  V30 13877 H 1341.32 -2.86183 -4.68392 0
M  V30 13878 H 1341.58 -1.17692 -4.26147 0
M  V30 13879 N 1340.64 0.999871 -1.21821 0
M  V30 13880 C 1341.57 2.10708 -1.00621 0
M  V30 13881 C 1342.55 1.69954 0.0705417 0
M  V30 13882 O 1343.73 1.9399 -0.0903042 0
M  V30 13883 C 1340.86 3.42496 -0.575646 0
M  V30 13884 C 1339.82 3.97068 -1.59754 0
M  V30 13885 C 1339.14 5.24822 -1.02304 0
M  V30 13886 C 1340.44 4.28545 -2.98574 0
M  V30 13887 H 1342.14 2.28701 -1.93226 0
M  V30 13888 H 1339.68 1.09903 -0.930443 0
M  V30 13889 H 1341.64 4.19357 -0.414481 0
M  V30 13890 H 1340.36 3.2431 0.386059 0
M  V30 13891 H 1339.02 3.22332 -1.74636 0
M  V30 13892 H 1338.67 5.02972 -0.0529016 0
M  V30 13893 H 1338.37 5.62299 -1.70567 0
M  V30 13894 H 1339.89 6.04322 -0.873312 0
M  V30 13895 H 1341.3 4.96229 -2.87106 0
M  V30 13896 H 1339.7 4.77178 -3.63897 0
M  V30 13897 H 1340.77 3.36607 -3.49032 0
M  V30 13898 N 1342.11 1.02678 1.19562 0
M  V30 13899 C 1343.06 0.599259 2.24748 0
M  V30 13900 C 1344.06 -0.367079 1.65375 0
M  V30 13901 O 1345.26 -0.235887 1.78448 0
M  V30 13902 H 1341.64 0.175517 0.73123 0
M  V30 13903 H 1343.61 1.4971 2.58127 0
M  V30 13904 C 1342.36 -0.0362515 3.47681 0
M  V30 13905 H 1341.68 0.698343 3.93654 0
M  V30 13906 H 1343.12 -0.298361 4.22949 0
M  V30 13907 C 1341.58 -1.28218 3.11547 0
M  V30 13908 O 1342.11 -2.37446 3.24009 0
M  V30 13909 N 1340.32 -1.17014 2.66 0
M  V30 13910 H 1339.86 -0.28132 2.56059 0
M  V30 13911 H 1339.82 -2.00473 2.42194 0
M  V30 13912 N 1343.59 -1.35528 0.804364 0
M  V30 13913 C 1344.54 -2.31728 0.20125 0
M  V30 13914 C 1345.53 -1.56527 -0.647751 0
M  V30 13915 O 1346.74 -1.71672 -0.541163 0
M  V30 13916 H 1343.12 -0.750572 0.0463165 0
M  V30 13917 H 1345.09 -2.80142 1.02777 0
M  V30 13918 C 1343.84 -3.41807 -0.637429 0
M  V30 13919 H 1343.16 -3.99799 0.00651699 0
M  V30 13920 H 1344.6 -4.11403 -1.02585 0
M  V30 13921 C 1343.06 -2.84655 -1.80202 0
M  V30 13922 O 1343.59 -2.78026 -2.89939 0
M  V30 13923 N 1341.79 -2.41735 -1.61285 0
M  V30 13924 H 1341.34 -2.47327 -0.720231 0
M  V30 13925 H 1341.3 -2.03844 -2.39364 0
M  V30 13926 N 1345.07 -0.557671 -1.47404 0
M  V30 13927 C 1346.32 -0.0338384 -2.02772 0
M  V30 13928 C 1346.65 1.31278 -1.43107 0
M  V30 13929 O 1345.93 1.85436 -0.58682 0
M  V30 13930 C 1346.21 0.0587427 -3.60052 0
M  V30 13931 C 1346.06 -1.315 -4.30148 0
M  V30 13932 C 1347.38 0.771942 -4.33277 0
M  V30 13933 H 1344.5 -0.0137711 -0.736871 0
M  V30 13934 H 1347.14 -0.720049 -1.75827 0
M  V30 13935 H 1345.29 0.643154 -3.83139 0
M  V30 13936 H 1346.96 -1.94265 -4.184 0
M  V30 13937 H 1345.21 -1.88956 -3.90484 0
M  V30 13938 H 1345.88 -1.20294 -5.38733 0
M  V30 13939 H 1348.35 0.275729 -4.15185 0
M  V30 13940 H 1347.23 0.805683 -5.42955 0
M  V30 13941 H 1347.49 1.82816 -4.0253 0
M  V30 13942 N 1346.55 1.54831 -0.294147 0
M  V30 13943 C 1347.8 2.00298 0.317605 0
M  V30 13944 C 1348.13 1.18228 1.54064 0
M  V30 13945 O 1347.4 0.257034 1.92794 0
M  V30 13946 C 1347.69 3.53602 0.680991 0
M  V30 13947 C 1347.54 4.46416 -0.550711 0
M  V30 13948 C 1348.86 4.13379 1.51016 0
M  V30 13949 H 1345.98 0.728135 0.113965 0
M  V30 13950 H 1348.62 1.85636 -0.404883 0
M  V30 13951 H 1346.77 3.66227 1.29654 0
M  V30 13952 H 1348.44 4.45707 -1.18922 0
M  V30 13953 H 1346.68 4.17294 -1.18524 0
M  V30 13954 H 1347.36 5.51423 -0.252412 0
M  V30 13955 H 1349.83 4.04148 0.99012 0
M  V30 13956 H 1348.71 5.20818 1.73321 0
M  V30 13957 H 1348.97 3.64817 2.49722 0
M  V30 13958 N 1348.03 0.0217466 1.57585 0
M  V30 13959 C 1349.28 -0.657793 1.90672 0
M  V30 13960 C 1349.59 -1.73713 0.899066 0
M  V30 13961 O 1350.8 -2.4728 1.12092 0
M  V30 13962 C 1349.25 -1.22124 3.38547 0
M  V30 13963 C 1348.86 -0.175575 4.47656 0
M  V30 13964 C 1350.6 -1.87771 3.80713 0
M  V30 13965 C 1348.51 -0.750239 5.86622 0
M  V30 13966 H 1347.44 -0.249459 0.711538 0
M  V30 13967 H 1350.09 0.0858449 1.83299 0
M  V30 13968 H 1348.47 -2.01625 3.40828 0
M  V30 13969 H 1349.65 0.596436 4.56924 0
M  V30 13970 H 1347.96 0.381715 4.14647 0
M  V30 13971 H 1350.56 -2.3171 4.81887 0
M  V30 13972 H 1350.9 -2.71737 3.1538 0
M  V30 13973 H 1351.44 -1.14971 3.80823 0
M  V30 13974 H 1348.17 0.0511222 6.5548 0
M  V30 13975 H 1347.69 -1.49091 5.80975 0
M  V30 13976 H 1349.37 -1.24225 6.34962 0
M  V30 13977 N 1349.51 -1.55583 -0.251311 0
M  V30 13978 C 1350.46 -1.86337 -1.31387 0
M  V30 13979 C 1351.44 -0.723887 -1.43697 0
M  V30 13980 O 1352.63 -0.985717 -1.47012 0
M  V30 13981 C 1349.76 -2.15772 -2.67016 0
M  V30 13982 C 1348.85 -3.36036 -2.58729 0
M  V30 13983 N 1349.24 -4.55414 -2.20071 0
M  V30 13984 C 1347.54 -3.39058 -2.89751 0
M  V30 13985 C 1348.24 -5.37544 -2.22309 0
M  V30 13986 N 1347.21 -4.76494 -2.61638 0
M  V30 13987 H 1351.01 -2.76168 -1.00541 0
M  V30 13988 H 1348.53 -1.55751 -0.459941 0
M  V30 13989 H 1350.53 -2.35967 -3.43693 0
M  V30 13990 H 1349.19 -1.27237 -2.98732 0
M  V30 13991 H 1350.2 -4.8112 -1.91688 0
M  V30 13992 H 1346.87 -2.60781 -3.26036 0
M  V30 13993 H 1348.26 -6.43042 -1.94798 0
M  V30 13994 N 1350.98 0.516783 -1.48886 0
M  V30 13995 C 1351.91 1.62897 -1.67292 0
M  V30 13996 C 1352.89 1.61903 -0.521671 0
M  V30 13997 O 1354.08 1.78892 -0.755728 0
M  V30 13998 C 1351.21 3.01444 -1.72478 0
M  V30 13999 C 1350.16 3.173 -2.87236 0
M  V30 14000 C 1349.49 4.5704 -2.77522 0
M  V30 14001 C 1350.79 2.98818 -4.28375 0
M  V30 14002 H 1352.48 1.47748 -2.60405 0
M  V30 14003 H 1350.03 0.709361 -1.25316 0
M  V30 14004 H 1351.98 3.79135 -1.83942 0
M  V30 14005 H 1350.71 3.17645 -0.759538 0
M  V30 14006 H 1349.37 2.4203 -2.75349 0
M  V30 14007 H 1349.01 4.70096 -1.78938 0
M  V30 14008 H 1348.71 4.68593 -3.54534 0
M  V30 14009 H 1350.24 5.36813 -2.90972 0
M  V30 14010 H 1351.65 3.66291 -4.41026 0
M  V30 14011 H 1350.05 3.21854 -5.06488 0
M  V30 14012 H 1351.12 1.95102 -4.43918 0
M  V30 14013 N 1352.46 1.37696 0.766659 0
M  V30 14014 C 1353.39 1.36576 1.89392 0
M  V30 14015 C 1354.37 0.233597 1.68488 0
M  V30 14016 O 1355.56 0.434719 1.89272 0
M  V30 14017 C 1352.69 1.17705 3.26746 0
M  V30 14018 C 1351.64 2.27987 3.62224 0
M  V30 14019 C 1350.97 1.94235 4.98174 0
M  V30 14020 C 1352.27 3.70195 3.68447 0
M  V30 14021 H 1353.96 2.30905 1.90587 0
M  V30 14022 H 1351.51 1.11148 0.915538 0
M  V30 14023 H 1353.46 1.15551 4.05248 0
M  V30 14024 H 1352.18 0.198334 3.25997 0
M  V30 14025 H 1350.84 2.29306 2.86032 0
M  V30 14026 H 1350.49 0.948796 4.93971 0
M  V30 14027 H 1350.19 2.68086 5.2288 0
M  V30 14028 H 1351.72 1.93676 5.7907 0
M  V30 14029 H 1353.13 3.70978 4.37091 0
M  V30 14030 H 1351.53 4.43142 4.04654 0
M  V30 14031 H 1352.6 4.03453 2.68986 0
M  V30 14032 N 1353.94 -0.993397 1.22349 0
M  V30 14033 C 1355.19 -1.72945 1.04568 0
M  V30 14034 C 1355.51 -1.90419 -0.420178 0
M  V30 14035 O 1354.78 -1.46348 -1.30227 0
M  V30 14036 H 1353.36 -0.640777 0.383945 0
M  V30 14037 H 1356.02 -1.19647 1.53853 0
M  V30 14038 H 1355.12 -2.72411 1.52311 0
M  V30 14039 N 1355.42 -1.03311 -1.19015 0
M  V30 14040 C 1356.69 -0.646539 -1.84606 0
M  V30 14041 C 1357.07 0.87449 -1.92135 0
M  V30 14042 O 1356.42 1.77291 -1.44154 0
M  V30 14043 C 1356.63 -1.31354 -3.23338 0
M  V30 14044 C 1357.98 -1.43949 -3.99455 0
M  V30 14045 O 1359 -1.27104 -3.32751 0
M  V30 14046 O 1357.86 -1.71328 -5.1895 0
M  V30 14047 H 1354.96 -0.225267 -0.795728 0
M  V30 14048 H 1357.5 -1.13152 -1.2647 0
M  V30 14049 H 1356.28 -2.3521 -3.12717 0
M  V30 14050 H 1355.9 -0.816688 -3.89122 0
M  V30 14051 N 1356.9 1.35099 -0.81154 0
M  V30 14052 C 1357.81 2.33499 -0.22705 0
M  V30 14053 C 1358.82 1.62095 0.632562 0
M  V30 14054 O 1360 1.93938 0.543147 0
M  V30 14055 C 1357.06 3.41279 0.610687 0
M  V30 14056 C 1356.12 4.2845 -0.269994 0
M  V30 14057 C 1355.36 5.31083 0.527854 0
M  V30 14058 O 1355.58 5.42499 1.76213 0
M  V30 14059 O 1354.51 6.01842 -0.083862 0
M  V30 14060 H 1358.34 2.85294 -1.04119 0
M  V30 14061 H 1355.92 1.37957 -0.573432 0
M  V30 14062 H 1357.81 4.07121 1.08768 0
M  V30 14063 H 1356.48 2.91746 1.40235 0
M  V30 14064 H 1355.39 3.65572 -0.794234 0
M  V30 14065 H 1356.72 4.81394 -1.02572 0
M  V30 14066 N 1358.37 0.56548 1.47106 0
M  V30 14067 C 1359.65 -0.0215358 1.95588 0
M  V30 14068 C 1360.03 -1.47712 1.50813 0
M  V30 14069 O 1359.38 -2.15814 0.750776 0
M  V30 14070 C 1359.59 0.132552 3.48748 0
M  V30 14071 C 1360.94 -0.00853591 4.24599 0
M  V30 14072 O 1361.96 0.0605142 3.56149 0
M  V30 14073 O 1360.82 -0.158519 5.4627 0
M  V30 14074 H 1357.91 -0.0595011 0.824857 0
M  V30 14075 H 1360.46 0.632586 1.57469 0
M  V30 14076 H 1359.23 1.14511 3.7417 0
M  V30 14077 H 1358.85 -0.558801 3.93654 0
M  V30 14078 N 1359.85 -1.54672 0.302354 0
M  V30 14079 C 1361.26 -1.85731 -0.190019 0
M  V30 14080 C 1361.61 -1.22427 -1.53317 0
M  V30 14081 O 1360.74 -0.522461 -2.09998 0
M  V30 14082 C 1361.33 -3.36971 -0.351562 0
M  V30 14083 C 1359.89 -3.68056 -0.788155 0
M  V30 14084 C 1359.04 -2.7711 0.102705 0
M  V30 14085 H 1361.99 -1.49823 0.523324 0
M  V30 14086 H 1362.01 -3.61547 -1.18592 0
M  V30 14087 H 1361.52 -3.83016 0.626152 0
M  V30 14088 H 1359.63 -3.2753 -1.77637 0
M  V30 14089 H 1359.74 -4.75244 -0.606604 0
M  V30 14090 H 1358.1 -2.51243 -0.418235 0
M  V30 14091 H 1358.89 -3.25975 1.0768 0
M  V30 14092 N 1361.33 -0.0301034 -1.57571 0
M  V30 14093 C 1362.75 0.326296 -1.56229 0
M  V30 14094 C 1362.95 1.72839 -1.03581 0
M  V30 14095 O 1362 2.43088 -0.682979 0
M  V30 14096 C 1363.32 0.174001 -3.00196 0
M  V30 14097 C 1364.86 0.246694 -3.12026 0
M  V30 14098 C 1365.34 0.123177 -4.57834 0
M  V30 14099 N 1366.83 0.180129 -4.6285 0
M  V30 14100 C 1367.56 0.108353 -5.73298 0
M  V30 14101 N 1367.06 -0.0145648 -6.92798 0
M  V30 14102 N 1368.85 0.162411 -5.61865 0
M  V30 14103 H 1361 -0.946945 -1.90123 0
M  V30 14104 H 1363.27 -0.365762 -0.874598 0
M  V30 14105 H 1362.97 -0.791871 -3.42669 0
M  V30 14106 H 1362.85 0.943794 -3.65202 0
M  V30 14107 H 1365.23 1.20303 -2.69465 0
M  V30 14108 H 1365.32 -0.553493 -2.4974 0
M  V30 14109 H 1364.96 -0.82974 -5.01077 0
M  V30 14110 H 1364.89 0.94224 -5.18102 0
M  V30 14111 H 1367.38 0.275236 -3.76896 0
M  V30 14112 H 1367.69 -0.062614 -7.72775 0
M  V30 14113 H 1366.04 -0.0493606 -6.94982 0
M  V30 14114 H 1369.23 0.256847 -4.67395 0
M  V30 14115 H 1369.4 0.103013 -6.47918 0
M  V30 14116 N 1362.81 1.55714 0.243056 0
M  V30 14117 C 1364.05 1.77989 0.971993 0
M  V30 14118 C 1364.39 0.596038 1.84827 0
M  V30 14119 O 1363.66 -0.40554 1.90225 0
M  V30 14120 C 1363.95 3.10178 1.82925 0
M  V30 14121 C 1363.8 4.38974 0.9809 0
M  V30 14122 C 1365.12 3.38628 2.81103 0
M  V30 14123 H 1362.24 0.64754 0.35194 0
M  V30 14124 H 1364.88 1.88449 0.242237 0
M  V30 14125 H 1363.03 3.01392 2.45143 0
M  V30 14126 H 1364.7 4.59756 0.377113 0
M  V30 14127 H 1362.94 4.3286 0.285414 0
M  V30 14128 H 1363.61 5.27858 1.61461 0
M  V30 14129 H 1366.09 3.47403 2.29021 0
M  V30 14130 H 1364.97 4.32331 3.38203 0
M  V30 14131 H 1365.23 2.5973 3.57761 0
M  V30 14132 N 1364.29 -0.50888 1.49158 0
M  V30 14133 C 1365.7 -0.839353 1.35746 0
M  V30 14134 C 1365.9 -1.97797 0.38453 0
M  V30 14135 O 1364.96 -2.51809 -0.186651 0
M  V30 14136 C 1366.27 -1.18698 2.76281 0
M  V30 14137 C 1367.82 -1.29565 2.84924 0
M  V30 14138 C 1368.29 -1.67661 4.26209 0
M  V30 14139 N 1369.79 -1.74725 4.28982 0
M  V30 14140 C 1370.52 -2.05631 5.3526 0
M  V30 14141 N 1370.02 -2.34814 6.51793 0
M  V30 14142 N 1371.81 -2.06815 5.2267 0
M  V30 14143 H 1363.96 0.242065 2.11016 0
M  V30 14144 H 1366.22 0.0456901 0.946898 0
M  V30 14145 H 1365.93 -0.423769 3.49138 0
M  V30 14146 H 1365.8 -2.13227 3.11149 0
M  V30 14147 H 1368.19 -2.0496 2.1231 0
M  V30 14148 H 1368.27 -0.331059 2.53649 0
M  V30 14149 H 1367.92 -0.928198 4.99346 0
M  V30 14150 H 1367.85 -2.65207 4.54943 0
M  V30 14151 H 1370.34 -1.54364 3.44935 0
M  V30 14152 H 1370.65 -2.57562 7.28616 0
M  V30 14153 H 1368.99 -2.32288 6.55032 0
M  V30 14154 H 1372.19 -1.83487 4.30639 0
M  V30 14155 H 1372.36 -2.30568 6.05593 0
M  V30 14156 N 1365.76 -1.381 -0.759346 0
M  V30 14157 C 1366.71 -1.31373 -1.86347 0
M  V30 14158 C 1367.7 -0.199113 -1.59663 0
M  V30 14159 O 1368.89 -0.43459 -1.71582 0
M  V30 14160 C 1366.02 -1.13537 -3.23982 0
M  V30 14161 C 1365.11 -2.29596 -3.56576 0
M  V30 14162 N 1365.5 -3.55023 -3.60267 0
M  V30 14163 C 1363.79 -2.22022 -3.86811 0
M  V30 14164 C 1364.5 -4.31629 -3.89963 0
M  V30 14165 N 1363.47 -3.60915 -4.06499 0
M  V30 14166 H 1367.27 -2.26345 -1.8747 0
M  V30 14167 H 1364.79 -1.3125 -0.956415 0
M  V30 14168 H 1366.78 -1.06801 -4.02988 0
M  V30 14169 H 1365.44 -0.194922 -3.24114 0
M  V30 14170 H 1366.46 -3.88769 -3.42168 0
M  V30 14171 H 1363.13 -1.36104 -3.94692 0
M  V30 14172 H 1364.52 -5.40238 -3.9949 0
M  V30 14173 N 1367.24 0.986894 -1.22875 0
M  V30 14174 C 1368.49 1.72985 -1.05849 0
M  V30 14175 C 1368.82 1.89939 0.404594 0
M  V30 14176 O 1368.1 1.44693 1.29978 0
M  V30 14177 C 1368.38 3.13193 -1.77714 0
M  V30 14178 C 1368.23 3.0385 -3.31655 0
M  V30 14179 C 1369.55 4.12486 -1.53438 0
M  V30 14180 H 1366.67 0.627877 -0.385926 0
M  V30 14181 H 1369.31 1.14936 -1.51294 0
M  V30 14182 H 1367.46 3.62751 -1.39083 0
M  V30 14183 H 1369.13 2.61866 -3.79768 0
M  V30 14184 H 1367.38 2.4051 -3.61023 0
M  V30 14185 H 1368.05 4.03092 -3.77122 0
M  V30 14186 H 1370.52 3.71709 -1.87007 0
M  V30 14187 H 1369.4 5.08694 -2.06207 0
M  V30 14188 H 1369.66 4.39613 -0.468294 0
M  V30 14189 N 1368.72 1.0394 1.18466 0
M  V30 14190 C 1369.68 0.633804 2.20262 0
M  V30 14191 C 1370.68 -0.308136 1.5782 0
M  V30 14192 O 1371.87 -0.0937087 1.73948 0
M  V30 14193 C 1369.01 -0.0709693 3.40826 0
M  V30 14194 H 1370.2 1.53463 2.57661 0
M  V30 14195 H 1367.75 0.831806 1.32328 0
M  V30 14196 H 1368.49 -0.985659 3.08958 0
M  V30 14197 H 1368.27 0.606023 3.87388 0
M  V30 14198 H 1369.76 -0.341298 4.16203 0
M  V30 14199 N 1370.2 -1.34667 0.818693 0
M  V30 14200 C 1371.16 -2.27908 0.243037 0
M  V30 14201 C 1372.16 -1.50106 -0.576622 0
M  V30 14202 O 1373.35 -1.69701 -0.393342 0
M  V30 14203 C 1370.48 -3.34455 -0.659759 0
M  V30 14204 H 1371.68 -2.80332 1.06555 0
M  V30 14205 H 1369.23 -1.44727 0.590237 0
M  V30 14206 H 1369.96 -2.87238 -1.50549 0
M  V30 14207 H 1369.75 -3.92031 -0.073567 0
M  V30 14208 H 1371.24 -4.04016 -1.05646 0
M  V30 14209 N 1371.68 -0.573274 -1.46804 0
M  V30 14210 C 1372.64 0.155066 -2.28675 0
M  V30 14211 C 1373.64 0.827706 -1.37861 0
M  V30 14212 O 1374.83 0.681105 -1.60333 0
M  V30 14213 C 1371.96 1.22864 -3.1799 0
M  V30 14214 H 1373.15 -0.564305 -2.94543 0
M  V30 14215 H 1370.71 -0.330855 -1.52758 0
M  V30 14216 H 1371.44 1.97989 -2.56848 0
M  V30 14217 H 1371.23 0.750936 -3.84842 0
M  V30 14218 H 1372.72 1.73974 -3.79635 0
M  V30 14219 N 1373.15 1.5451 -0.310553 0
M  V30 14220 C 1374.38 2.05204 0.301013 0
M  V30 14221 C 1374.8 1.1859 1.46007 0
M  V30 14222 O 1374.16 0.192081 1.8028 0
M  V30 14223 C 1374.21 3.53221 0.725767 0
M  V30 14224 O 1373.31 3.69596 1.82955 0
M  V30 14225 H 1372.66 0.661566 0.0568026 0
M  V30 14226 H 1375.19 1.99473 -0.455178 0
M  V30 14227 H 1375.2 3.9525 1.01198 0
M  V30 14228 H 1373.87 4.15721 -0.122046 0
M  V30 14229 H 1372.45 3.39472 1.54315 0
M  V30 14230 N 1374.63 0.0384594 1.57553 0
M  V30 14231 C 1375.56 -0.938444 2.13812 0
M  V30 14232 C 1376.54 -1.33307 1.05657 0
M  V30 14233 O 1377.73 -1.41003 1.33535 0
M  V30 14234 C 1374.86 -2.21764 2.67279 0
M  V30 14235 C 1373.81 -1.96347 3.80305 0
M  V30 14236 C 1373.14 -3.30612 4.20238 0
M  V30 14237 C 1374.44 -1.2952 5.05986 0
M  V30 14238 H 1376.13 -0.469887 2.9569 0
M  V30 14239 H 1373.68 -0.224576 1.42238 0
M  V30 14240 H 1375.63 -2.90493 3.05273 0
M  V30 14241 H 1374.36 -2.70802 1.82576 0
M  V30 14242 H 1373.02 -1.30033 3.42764 0
M  V30 14243 H 1372.66 -3.77427 3.32502 0
M  V30 14244 H 1372.36 -3.14409 4.96408 0
M  V30 14245 H 1373.89 -4.00594 4.60822 0
M  V30 14246 H 1375.3 -1.88264 5.41507 0
M  V30 14247 H 1373.7 -1.23685 5.87216 0
M  V30 14248 H 1374.77 -0.269439 4.84151 0
M  V30 14249 N 1376.11 -1.55841 -0.234795 0
M  V30 14250 C 1377.36 -1.77438 -0.959094 0
M  V30 14251 C 1377.67 -0.604621 -1.86021 0
M  V30 14252 O 1378.88 -0.703897 -2.62217 0
M  V30 14253 C 1377.34 -3.14182 -1.7555 0
M  V30 14254 C 1376.94 -4.38843 -0.90118 0
M  V30 14255 C 1378.69 -3.45112 -2.47181 0
M  V30 14256 C 1376.59 -5.66614 -1.69417 0
M  V30 14257 H 1375.52 -0.661503 -0.361843 0
M  V30 14258 H 1378.18 -1.82255 -0.213364 0
M  V30 14259 H 1376.56 -3.03505 -2.54364 0
M  V30 14260 H 1377.73 -4.60541 -0.154515 0
M  V30 14261 H 1376.05 -4.15335 -0.297631 0
M  V30 14262 H 1378.64 -4.37794 -3.06986 0
M  V30 14263 H 1378.99 -2.66995 -3.19405 0
M  V30 14264 H 1379.52 -3.57059 -1.75368 0
M  V30 14265 H 1376.26 -6.47587 -1.01545 0
M  V30 14266 H 1375.78 -5.48998 -2.4158 0
M  V30 14267 H 1377.46 -6.06311 -2.25824 0
M  V30 14268 N 1377.59 0.500963 -1.49426 0
M  V30 14269 C 1379.01 0.832142 -1.36189 0
M  V30 14270 C 1379.21 1.9759 -0.395014 0
M  V30 14271 O 1378.26 2.51905 0.173294 0
M  V30 14272 C 1379.57 1.17232 -2.76907 0
M  V30 14273 C 1381.12 1.28052 -2.85607 0
M  V30 14274 C 1381.6 1.65399 -4.27092 0
M  V30 14275 N 1383.09 1.72448 -4.29902 0
M  V30 14276 C 1383.82 2.02789 -5.36343 0
M  V30 14277 N 1383.32 2.31354 -6.53029 0
M  V30 14278 N 1385.11 2.0404 -5.23759 0
M  V30 14279 H 1377.26 -0.253253 -2.10885 0
M  V30 14280 H 1379.53 -0.0507111 -0.946643 0
M  V30 14281 H 1379.23 0.405247 -3.49357 0
M  V30 14282 H 1379.11 2.11574 -3.12276 0
M  V30 14283 H 1381.49 2.03831 -2.13394 0
M  V30 14284 H 1381.57 0.317603 -2.53821 0
M  V30 14285 H 1381.22 0.901704 -4.99832 0
M  V30 14286 H 1381.15 2.6279 -4.56343 0
M  V30 14287 H 1383.64 1.52532 -3.45749 0
M  V30 14288 H 1383.95 2.53695 -7.29972 0
M  V30 14289 H 1382.3 2.28811 -6.56255 0
M  V30 14290 H 1385.49 1.812 -4.31606 0
M  V30 14291 H 1385.66 2.27353 -6.06807 0
M  V30 14292 N 1379.07 1.38501 0.752011 0
M  V30 14293 C 1380 1.38577 1.87933 0
M  V30 14294 C 1380.98 0.251454 1.68231 0
M  V30 14295 O 1382.16 0.45477 1.888 0
M  V30 14296 C 1379.29 1.21164 3.25479 0
M  V30 14297 C 1378.25 2.31816 3.59785 0
M  V30 14298 C 1377.57 1.99508 4.96085 0
M  V30 14299 C 1378.87 3.74082 3.645 0
M  V30 14300 H 1380.57 2.32913 1.88127 0
M  V30 14301 H 1378.11 1.12113 0.903698 0
M  V30 14302 H 1380.07 1.19842 4.04 0
M  V30 14303 H 1378.79 0.232899 3.25769 0
M  V30 14304 H 1377.45 2.32327 2.83584 0
M  V30 14305 H 1377.1 1.00114 4.92936 0
M  V30 14306 H 1376.8 2.73617 5.20007 0
M  V30 14307 H 1378.32 1.99807 5.76983 0
M  V30 14308 H 1379.74 3.75593 4.33131 0
M  V30 14309 H 1378.13 4.47409 3.99931 0
M  V30 14310 H 1379.2 4.06284 2.64692 0
M  V30 14311 N 1380.55 -0.980364 1.23396 0
M  V30 14312 C 1381.79 -1.72421 1.06765 0
M  V30 14313 C 1382.12 -1.90151 -0.394515 0
M  V30 14314 O 1381.4 -1.4538 -1.29209 0
M  V30 14315 C 1381.68 -3.12246 1.79372 0
M  V30 14316 C 1381.54 -3.02087 3.33262 0
M  V30 14317 C 1382.85 -4.11667 1.55624 0
M  V30 14318 H 1379.97 -0.625822 0.389251 0
M  V30 14319 H 1382.62 -1.14132 1.51901 0
M  V30 14320 H 1380.77 -3.62008 1.41004 0
M  V30 14321 H 1382.44 -2.59848 3.81152 0
M  V30 14322 H 1380.68 -2.38592 3.62293 0
M  V30 14323 H 1381.35 -4.01087 3.79254 0
M  V30 14324 H 1383.83 -3.70712 1.88975 0
M  V30 14325 H 1382.7 -5.07593 2.08902 0
M  V30 14326 H 1382.96 -4.39358 0.491601 0
M  V30 14327 N 1382.02 -1.04567 -1.17913 0
M  V30 14328 C 1383.43 -0.779118 -1.69666 0
M  V30 14329 C 1383.79 0.699448 -1.83309 0
M  V30 14330 O 1382.91 1.54407 -1.51616 0
M  V30 14331 C 1383.51 -1.40769 -3.08171 0
M  V30 14332 C 1382.06 -1.18933 -3.57116 0
M  V30 14333 C 1381.21 -1.49519 -2.33536 0
M  V30 14334 H 1384.16 -1.21144 -1.02518 0
M  V30 14335 H 1384.18 -0.813584 -3.717 0
M  V30 14336 H 1383.7 -2.4838 -2.9821 0
M  V30 14337 H 1381.8 -0.132184 -3.72365 0
M  V30 14338 H 1381.91 -1.88987 -4.40251 0
M  V30 14339 H 1380.27 -0.915056 -2.37695 0
M  V30 14340 H 1381.06 -2.5825 -2.26189 0
M  V30 14341 N 1383.5 1.34231 -0.825823 0
M  V30 14342 C 1384.45 2.29467 -0.247724 0
M  V30 14343 C 1385.42 1.53724 0.629127 0
M  V30 14344 O 1386.6 1.82082 0.570156 0
M  V30 14345 C 1383.74 3.40157 0.582012 0
M  V30 14346 C 1382.86 4.30832 -0.317406 0
M  V30 14347 C 1381.99 5.28627 0.522176 0
M  V30 14348 C 1381.03 6.10941 -0.376448 0
M  V30 14349 N 1380.17 7.00817 0.424232 0
M  V30 14350 H 1385.01 2.78311 -1.06521 0
M  V30 14351 H 1382.54 1.36956 -0.536788 0
M  V30 14352 H 1384.5 4.03021 1.07843 0
M  V30 14353 H 1383.13 2.92539 1.36459 0
M  V30 14354 H 1382.18 3.68805 -0.932054 0
M  V30 14355 H 1383.5 4.88503 -1.00826 0
M  V30 14356 H 1382.65 5.96957 1.08295 0
M  V30 14357 H 1381.39 4.71501 1.24652 0
M  V30 14358 H 1380.39 5.41542 -0.94934 0
M  V30 14359 H 1381.62 6.70149 -1.09895 0
M  V30 14360 H 1379.57 6.46156 1.1322 0
M  V30 14361 H 1379.48 7.55713 -0.208175 0
M  V30 14362 H 1380.75 7.7347 0.967664 0
M  V30 14363 N 1384.98 0.581051 1.46498 0
M  V30 14364 C 1385.91 -0.140957 2.33074 0
M  V30 14365 C 1386.89 -0.885323 1.45245 0
M  V30 14366 O 1388.08 -0.86111 1.74065 0
M  V30 14367 C 1385.21 -1.15625 3.27488 0
M  V30 14368 C 1384.16 -0.526829 4.24745 0
M  V30 14369 C 1383.49 -1.64847 5.08655 0
M  V30 14370 C 1384.79 0.53492 5.19554 0
M  V30 14371 H 1386.48 0.581888 2.93691 0
M  V30 14372 H 1384.03 0.281278 1.41226 0
M  V30 14373 H 1385.98 -1.6697 3.8691 0
M  V30 14374 H 1384.7 -1.90935 2.64974 0
M  V30 14375 H 1383.36 -0.0344738 3.66584 0
M  V30 14376 H 1383.01 -2.3912 4.42528 0
M  V30 14377 H 1382.71 -1.23298 5.74518 0
M  V30 14378 H 1384.23 -2.16472 5.7094 0
M  V30 14379 H 1385.65 0.106606 5.73201 0
M  V30 14380 H 1384.04 0.870639 5.93751 0
M  V30 14381 H 1385.11 1.42184 4.63586 0
M  V30 14382 N 1386.46 -1.54343 0.318742 0
M  V30 14383 C 1387.7 -2.0048 -0.285276 0
M  V30 14384 C 1388.03 -1.20698 -1.5252 0
M  V30 14385 O 1387.29 -0.275893 -1.93746 0
M  V30 14386 C 1387.59 -3.51079 -0.669181 0
M  V30 14387 C 1387.25 -4.48433 0.471017 0
M  V30 14388 C 1385.91 -4.74771 0.783985 0
M  V30 14389 C 1388.27 -5.06304 1.23715 0
M  V30 14390 C 1385.59 -5.56239 1.86589 0
M  V30 14391 C 1387.95 -5.88951 2.30911 0
M  V30 14392 C 1386.61 -6.13592 2.62794 0
M  V30 14393 H 1385.88 -0.73361 -0.10439 0
M  V30 14394 H 1388.53 -1.86341 0.441521 0
M  V30 14395 H 1386.83 -3.62921 -1.47633 0
M  V30 14396 H 1388.53 -3.84216 -1.148 0
M  V30 14397 H 1385.12 -4.2805 0.217004 0
M  V30 14398 H 1389.3 -4.85943 1.00862 0
M  V30 14399 H 1384.56 -5.73563 2.11744 0
M  V30 14400 H 1388.73 -6.32814 2.90722 0
M  V30 14401 H 1386.36 -6.76508 3.46757 0
M  V30 14402 N 1387.94 -0.0468143 -1.5753 0
M  V30 14403 C 1389.17 0.636723 -1.96544 0
M  V30 14404 C 1389.57 1.65169 -0.922814 0
M  V30 14405 O 1388.92 1.83417 0.101892 0
M  V30 14406 C 1388.98 1.38435 -3.31777 0
M  V30 14407 C 1388.64 0.525714 -4.53966 0
M  V30 14408 C 1389.64 -0.206392 -5.1949 0
M  V30 14409 C 1387.32 0.457919 -5.00208 0
M  V30 14410 C 1389.32 -0.994779 -6.29589 0
M  V30 14411 C 1387.01 -0.334159 -6.10186 0
M  V30 14412 C 1388 -1.0592 -6.74737 0
M  V30 14413 O 1387.69 -1.83826 -7.826 0
M  V30 14414 H 1387.42 0.179197 -0.651816 0
M  V30 14415 H 1389.98 -0.108214 -2.05115 0
M  V30 14416 H 1388.21 2.17482 -3.19748 0
M  V30 14417 H 1389.9 1.9577 -3.55568 0
M  V30 14418 H 1390.66 -0.163457 -4.84724 0
M  V30 14419 H 1386.54 1.01185 -4.49758 0
M  V30 14420 H 1390.09 -1.56121 -6.79906 0
M  V30 14421 H 1385.98 -0.378748 -6.44388 0
M  V30 14422 H 1386.75 -1.75991 -7.99356 0
M  V30 14423 N 1389.41 1.55964 0.226527 0
M  V30 14424 C 1390.36 1.92007 1.28069 0
M  V30 14425 C 1391.33 0.776666 1.46823 0
M  V30 14426 O 1392.52 1.03213 1.60474 0
M  V30 14427 C 1389.66 2.23784 2.62707 0
M  V30 14428 C 1388.77 3.51034 2.51792 0
M  V30 14429 C 1387.9 3.72281 3.7892 0
M  V30 14430 C 1386.94 4.93062 3.62707 0
M  V30 14431 N 1386.08 5.10725 4.81772 0
M  V30 14432 H 1390.92 2.81898 0.96631 0
M  V30 14433 H 1388.46 1.39529 0.465847 0
M  V30 14434 H 1390.42 2.40217 3.41104 0
M  V30 14435 H 1389.05 1.37073 2.92251 0
M  V30 14436 H 1388.1 3.42822 1.64856 0
M  V30 14437 H 1389.41 4.39582 2.35731 0
M  V30 14438 H 1388.56 3.88783 4.6576 0
M  V30 14439 H 1387.3 2.82004 3.97901 0
M  V30 14440 H 1386.31 4.76515 2.7425 0
M  V30 14441 H 1387.53 5.84819 3.45201 0
M  V30 14442 H 1385.48 4.2339 5.01076 0
M  V30 14443 H 1385.4 5.93397 4.68419 0
M  V30 14444 H 1386.66 5.31658 5.70053 0
M  V30 14445 N 1390.89 -0.493031 1.4969 0
M  V30 14446 C 1392.13 -1.25673 1.61201 0
M  V30 14447 C 1392.5 -1.8971 0.295685 0
M  V30 14448 O 1393.7 -2.67274 0.286046 0
M  V30 14449 C 1391.97 -2.28923 2.74462 0
M  V30 14450 S 1393.53 -3.14525 3.05973 0
M  V30 14451 H 1390.35 -0.426985 0.568511 0
M  V30 14452 H 1392.95 -0.557497 1.87383 0
M  V30 14453 H 1391.65 -1.80421 3.68614 0
M  V30 14454 H 1391.18 -3.03504 2.50298 0
M  V30 14455 H 1393.2 -4.29717 2.48108 0
M  V30 14456 N 1392.37 -1.38898 -0.744656 0
M  V30 14457 C 1393.65 -1.2611 -1.49518 0
M  V30 14458 C 1394.03 0.133592 -2.10677 0
M  V30 14459 O 1393.38 1.14394 -1.97804 0
M  V30 14460 C 1393.59 -2.37809 -2.55437 0
M  V30 14461 C 1394.93 -2.76664 -3.22091 0
M  V30 14462 O 1395.96 -2.37187 -2.65746 0
M  V30 14463 O 1394.82 -3.44771 -4.24023 0
M  V30 14464 H 1391.91 -0.493664 -0.663494 0
M  V30 14465 H 1394.46 -1.50748 -0.779304 0
M  V30 14466 H 1393.23 -3.31089 -2.08556 0
M  V30 14467 H 1392.85 -2.14783 -3.34595 0
M  V30 14468 N 1393.85 0.973806 -1.23914 0
M  V30 14469 C 1394.78 2.07003 -0.983982 0
M  V30 14470 C 1395.79 1.62739 0.0443893 0
M  V30 14471 O 1396.98 1.77465 -0.191927 0
M  V30 14472 C 1394.08 3.35737 -0.461937 0
M  V30 14473 C 1393.26 4.08939 -1.55202 0
M  V30 14474 C 1392.31 5.15947 -1.03369 0
M  V30 14475 O 1391.34 5.42461 -1.72409 0
M  V30 14476 N 1392.54 5.80343 0.135067 0
M  V30 14477 H 1395.31 2.29468 -1.92781 0
M  V30 14478 H 1392.87 1.14098 -1.14861 0
M  V30 14479 H 1394.86 4.04576 -0.100074 0
M  V30 14480 H 1393.43 3.10189 0.387467 0
M  V30 14481 H 1392.65 3.34462 -2.08635 0
M  V30 14482 H 1393.94 4.5461 -2.2849 0
M  V30 14483 H 1393.34 5.61196 0.71241 0
M  V30 14484 H 1391.89 6.50326 0.438132 0
M  V30 14485 N 1395.33 1.05191 1.17357 0
M  V30 14486 C 1396.57 0.760479 1.87246 0
M  V30 14487 C 1396.9 -0.714618 1.81434 0
M  V30 14488 O 1396.17 -1.51636 1.24029 0
M  V30 14489 H 1394.75 0.278317 0.693216 0
M  V30 14490 H 1397.41 1.33106 1.42369 0
M  V30 14491 H 1396.5 1.07542 2.92987 0
M  V30 14492 N 1396.8 -1.33791 0.83293 0
M  V30 14493 C 1397.74 -2.28148 0.219336 0
M  V30 14494 C 1398.75 -1.51477 -0.596529 0
M  V30 14495 O 1399.94 -1.73377 -0.424571 0
M  V30 14496 C 1397.04 -3.31373 -0.710305 0
M  V30 14497 C 1396.21 -4.37352 0.0649215 0
M  V30 14498 C 1395.27 -5.20279 -0.78716 0
M  V30 14499 O 1394.3 -5.68741 -0.228511 0
M  V30 14500 N 1395.5 -5.40973 -2.10544 0
M  V30 14501 H 1398.26 -2.81443 1.03004 0
M  V30 14502 H 1395.82 -1.46421 0.690831 0
M  V30 14503 H 1397.82 -3.83752 -1.28517 0
M  V30 14504 H 1396.39 -2.78398 -1.42173 0
M  V30 14505 H 1395.61 -3.85553 0.821144 0
M  V30 14506 H 1396.89 -5.05271 0.598199 0
M  V30 14507 H 1396.29 -5.03291 -2.58292 0
M  V30 14508 H 1394.85 -5.96432 -2.62893 0
M  V30 14509 N 1398.28 -0.588812 -1.46187 0
M  V30 14510 C 1399.25 0.130803 -2.28826 0
M  V30 14511 C 1400.25 0.813037 -1.38731 0
M  V30 14512 O 1401.44 0.664061 -1.61046 0
M  V30 14513 C 1398.57 1.19484 -3.19275 0
M  V30 14514 H 1399.76 -0.595514 -2.93928 0
M  V30 14515 H 1397.31 -0.347038 -1.52399 0
M  V30 14516 H 1398.05 1.95254 -2.58933 0
M  V30 14517 H 1397.83 0.710077 -3.85617 0
M  V30 14518 H 1399.32 1.69938 -3.81459 0
M  V30 14519 N 1399.76 1.54172 -0.326923 0
M  V30 14520 C 1401.04 1.92812 0.329078 0
M  V30 14521 C 1401.42 1.25687 1.69605 0
M  V30 14522 O 1400.77 0.401779 2.2494 0
M  V30 14523 C 1400.98 3.46488 0.417949 0
M  V30 14524 C 1402.32 4.19174 0.67665 0
M  V30 14525 O 1403.35 3.52663 0.500735 0
M  V30 14526 O 1402.21 5.36968 1.01625 0
M  V30 14527 H 1399.3 0.805214 0.188573 0
M  V30 14528 H 1401.85 1.65462 -0.376884 0
M  V30 14529 H 1400.62 3.87528 -0.541986 0
M  V30 14530 H 1400.24 3.79954 1.17136 0
M  V30 14531 N 1401.24 0.0551678 1.57503 0
M  V30 14532 C 1402.65 -0.479948 1.80426 0
M  V30 14533 C 1403 -1.70673 0.967733 0
M  V30 14534 O 1402.13 -2.15604 0.185462 0
M  V30 14535 C 1402.72 -0.877496 3.27239 0
M  V30 14536 C 1401.28 -1.35757 3.51066 0
M  V30 14537 C 1400.43 -0.334681 2.75273 0
M  V30 14538 H 1403.38 0.281016 1.56192 0
M  V30 14539 H 1403.4 -1.74013 3.38378 0
M  V30 14540 H 1402.91 0.015571 3.88097 0
M  V30 14541 H 1401.01 -2.26969 2.95492 0
M  V30 14542 H 1401.12 -1.34697 4.59776 0
M  V30 14543 H 1399.49 -0.808421 2.4153 0
M  V30 14544 H 1400.27 0.550369 3.3886 0
M  V30 14545 N 1402.72 -1.56081 -0.218252 0
M  V30 14546 C 1403.96 -1.79513 -0.943553 0
M  V30 14547 C 1404.3 -0.625367 -1.83855 0
M  V30 14548 O 1403.57 0.375226 -1.90846 0
M  V30 14549 C 1403.85 -3.13049 -1.77967 0
M  V30 14550 C 1403.71 -4.40479 -0.910939 0
M  V30 14551 C 1405.03 -3.43057 -2.7568 0
M  V30 14552 H 1402.14 -0.653057 -0.341593 0
M  V30 14553 H 1404.79 -1.88811 -0.212226 0
M  V30 14554 H 1402.94 -3.05254 -2.40318 0
M  V30 14555 H 1404.61 -4.60298 -0.303922 0
M  V30 14556 H 1402.85 -4.33259 -0.216513 0
M  V30 14557 H 1403.52 -5.3036 -1.53042 0
M  V30 14558 H 1406 -3.51002 -2.23465 0
M  V30 14559 H 1404.87 -4.37657 -3.31282 0
M  V30 14560 H 1405.14 -2.65389 -3.53584 0
M  V30 14561 N 1404.2 0.485086 -1.49949 0
M  V30 14562 C 1405.44 1.23999 -1.60474 0
M  V30 14563 C 1405.77 1.91904 -0.297736 0
M  V30 14564 O 1405.05 1.81472 0.699857 0
M  V30 14565 C 1405.33 2.2946 -2.77525 0
M  V30 14566 C 1405.19 1.65952 -4.18067 0
M  V30 14567 C 1406.5 3.30893 -2.90169 0
M  V30 14568 H 1403.62 0.449462 -0.584083 0
M  V30 14569 H 1406.27 0.535795 -1.82289 0
M  V30 14570 H 1404.42 2.89521 -2.59056 0
M  V30 14571 H 1406.09 1.09596 -4.48092 0
M  V30 14572 H 1404.33 0.963079 -4.22974 0
M  V30 14573 H 1405 2.42521 -4.9587 0
M  V30 14574 H 1407.48 2.8084 -3.07031 0
M  V30 14575 H 1406.35 4.02027 -3.73718 0
M  V30 14576 H 1406.61 3.94178 -2.0019 0
M  V30 14577 N 1405.67 1.39291 0.737279 0
M  V30 14578 C 1406.64 1.37607 1.83294 0
M  V30 14579 C 1407.64 0.273594 1.58455 0
M  V30 14580 O 1408.83 0.531375 1.65898 0
M  V30 14581 C 1405.96 1.14642 3.21045 0
M  V30 14582 H 1407.15 2.35102 1.86191 0
M  V30 14583 H 1404.7 1.24822 0.940696 0
M  V30 14584 H 1405.44 0.178202 3.2381 0
M  V30 14585 H 1405.22 1.94479 3.40471 0
M  V30 14586 H 1406.71 1.162 4.01108 0
M  V30 14587 N 1407.15 -0.967221 1.24429 0
M  V30 14588 C 1408.4 -1.71279 1.08588 0
M  V30 14589 C 1408.73 -1.90558 -0.374325 0
M  V30 14590 O 1408.01 -1.46742 -1.27659 0
M  V30 14591 C 1408.29 -3.10326 1.82674 0
M  V30 14592 C 1408.14 -2.98535 3.36447 0
M  V30 14593 C 1409.46 -4.09993 1.59981 0
M  V30 14594 H 1406.58 -0.621658 0.395867 0
M  V30 14595 H 1409.22 -1.12514 1.53103 0
M  V30 14596 H 1407.37 -3.60492 1.44836 0
M  V30 14597 H 1409.04 -2.55791 3.83886 0
M  V30 14598 H 1407.29 -2.34736 3.64803 0
M  V30 14599 H 1407.96 -3.97041 3.83487 0
M  V30 14600 H 1410.43 -3.68687 1.92897 0
M  V30 14601 H 1409.31 -5.05349 2.14274 0
M  V30 14602 H 1409.57 -4.38812 0.538173 0
M  V30 14603 N 1408.63 -1.05812 -1.16797 0
M  V30 14604 C 1409.59 -0.668766 -2.19226 0
M  V30 14605 C 1410.59 0.28299 -1.5829 0
M  V30 14606 O 1411.78 0.0660233 -1.74075 0
M  V30 14607 C 1408.91 0.0167379 -3.40896 0
M  V30 14608 H 1410.11 -1.57543 -2.55187 0
M  V30 14609 H 1407.66 -0.852753 -1.30988 0
M  V30 14610 H 1408.4 0.936382 -3.10487 0
M  V30 14611 H 1408.18 -0.667576 -3.86375 0
M  V30 14612 H 1409.67 0.275041 -4.16693 0
M  V30 14613 N 1410.11 1.33347 -0.840014 0
M  V30 14614 C 1411.52 1.50615 -0.52795 0
M  V30 14615 C 1411.72 1.77993 0.944493 0
M  V30 14616 O 1410.78 1.84087 1.72824 0
M  V30 14617 C 1412.09 2.66001 -1.40228 0
M  V30 14618 C 1413.64 2.79886 -1.40117 0
M  V30 14619 C 1414.12 3.98335 -2.26038 0
M  V30 14620 N 1415.61 4.05572 -2.23753 0
M  V30 14621 C 1416.34 4.96422 -2.86972 0
M  V30 14622 N 1415.84 5.9238 -3.59247 0
M  V30 14623 N 1417.63 4.89428 -2.76436 0
M  V30 14624 H 1409.78 1.13839 -1.79317 0
M  V30 14625 H 1412.04 0.559772 -0.765088 0
M  V30 14626 H 1411.75 2.52453 -2.44868 0
M  V30 14627 H 1411.62 3.61434 -1.07914 0
M  V30 14628 H 1414.01 2.92865 -0.362487 0
M  V30 14629 H 1414.09 1.85211 -1.76439 0
M  V30 14630 H 1413.74 3.86115 -3.29966 0
M  V30 14631 H 1413.67 4.92257 -1.87057 0
M  V30 14632 H 1416.16 3.36899 -1.71195 0
M  V30 14633 H 1416.47 6.58367 -4.04688 0
M  V30 14634 H 1414.82 5.92451 -3.63354 0
M  V30 14635 H 1418.01 4.13428 -2.19534 0
M  V30 14636 H 1418.18 5.60032 -3.25989 0
M  V30 14637 N 1411.59 0.596556 1.45873 0
M  V30 14638 C 1412.86 0.0199562 1.9559 0
M  V30 14639 C 1413.24 -1.44479 1.53912 0
M  V30 14640 O 1412.59 -2.14173 0.796384 0
M  V30 14641 C 1412.8 0.206497 3.48389 0
M  V30 14642 C 1414.15 0.0815298 4.24522 0
M  V30 14643 O 1415.17 0.136045 3.5594 0
M  V30 14644 O 1414.03 -0.0426117 5.46483 0
M  V30 14645 H 1411.13 -0.0419913 0.825933 0
M  V30 14646 H 1413.67 0.665846 1.56092 0
M  V30 14647 H 1412.44 1.22422 3.71656 0
M  V30 14648 H 1412.07 -0.475175 3.9475 0
M  V30 14649 N 1413.06 -1.53996 0.335095 0
M  V30 14650 C 1414 -2.22258 -0.559809 0
M  V30 14651 C 1415.01 -1.22636 -1.07071 0
M  V30 14652 O 1416.2 -1.4904 -0.982312 0
M  V30 14653 C 1413.3 -2.88256 -1.78218 0
M  V30 14654 C 1412.47 -4.14118 -1.40801 0
M  V30 14655 C 1411.53 -4.63603 -2.48915 0
M  V30 14656 O 1410.56 -5.28015 -2.12576 0
M  V30 14657 N 1411.76 -4.3881 -3.80034 0
M  V30 14658 H 1414.52 -2.9969 0.0247521 0
M  V30 14659 H 1412.08 -1.61119 0.158826 0
M  V30 14660 H 1414.08 -3.1828 -2.4996 0
M  V30 14661 H 1412.65 -2.14461 -2.27431 0
M  V30 14662 H 1411.87 -3.90732 -0.521729 0
M  V30 14663 H 1413.15 -4.96005 -1.13388 0
M  V30 14664 H 1412.55 -3.87278 -4.12349 0
M  V30 14665 H 1411.11 -4.73461 -4.47971 0
M  V30 14666 N 1414.54 -0.0635198 -1.57472 0
M  V30 14667 C 1415.77 0.620205 -1.9791 0
M  V30 14668 C 1416.19 1.62851 -0.941335 0
M  V30 14669 O 1415.55 1.81056 0.0940313 0
M  V30 14670 C 1415.6 1.27261 -3.37397 0
M  V30 14671 O 1414.7 2.38841 -3.36197 0
M  V30 14672 H 1414.04 0.16021 -0.644382 0
M  V30 14673 H 1416.57 -0.135582 -2.0415 0
M  V30 14674 H 1416.58 1.6214 -3.74399 0
M  V30 14675 H 1415.26 0.533723 -4.12461 0
M  V30 14676 H 1413.83 2.05817 -3.10956 0
M  V30 14677 N 1416.02 1.56195 0.209972 0
M  V30 14678 C 1417.24 1.84189 0.953364 0
M  V30 14679 C 1417.67 0.645288 1.76685 0
M  V30 14680 O 1417.03 -0.405962 1.76696 0
M  V30 14681 C 1417.08 3.10281 1.83733 0
M  V30 14682 O 1416.18 2.89788 2.93422 0
M  V30 14683 H 1415.52 0.606931 0.269314 0
M  V30 14684 H 1418.05 2.03416 0.219783 0
M  V30 14685 H 1418.06 3.40688 2.2449 0
M  V30 14686 H 1416.74 3.97 1.23951 0
M  V30 14687 H 1415.31 2.70643 2.56528 0
M  V30 14688 N 1417.5 -0.477127 1.50204 0
M  V30 14689 C 1418.74 -1.23147 1.6113 0
M  V30 14690 C 1419.08 -1.91743 0.307909 0
M  V30 14691 O 1418.35 -1.81841 -0.690223 0
M  V30 14692 C 1418.63 -2.27985 2.78738 0
M  V30 14693 C 1418.49 -1.63733 4.18941 0
M  V30 14694 C 1419.81 -3.29349 2.9192 0
M  V30 14695 H 1416.93 -0.446358 0.586459 0
M  V30 14696 H 1419.57 -0.52612 1.8257 0
M  V30 14697 H 1417.72 -2.88143 2.60588 0
M  V30 14698 H 1419.39 -1.07218 4.48667 0
M  V30 14699 H 1417.63 -0.940634 4.23479 0
M  V30 14700 H 1418.3 -2.39888 4.9715 0
M  V30 14701 H 1420.78 -2.79208 3.08516 0
M  V30 14702 H 1419.66 -4.0004 3.75845 0
M  V30 14703 H 1419.92 -3.93111 2.02278 0
M  V30 14704 N 1418.98 -1.3968 -0.729882 0
M  V30 14705 C 1420.21 -1.40263 -1.5169 0
M  V30 14706 C 1420.61 0.00325293 -1.892 0
M  V30 14707 O 1419.96 0.986225 -1.54982 0
M  V30 14708 C 1420.02 -2.21629 -2.83056 0
M  V30 14709 C 1419.68 -3.70204 -2.67951 0
M  V30 14710 C 1420.68 -4.63169 -2.36158 0
M  V30 14711 C 1418.37 -4.13851 -2.84662 0
M  V30 14712 C 1420.36 -5.97763 -2.21265 0
M  V30 14713 C 1418.05 -5.4852 -2.69387 0
M  V30 14714 C 1419.04 -6.4029 -2.37734 0
M  V30 14715 O 1418.73 -7.72478 -2.22561 0
M  V30 14716 H 1418.46 -0.480808 -0.475184 0
M  V30 14717 H 1421.02 -1.84184 -0.909136 0
M  V30 14718 H 1419.25 -1.72465 -3.46111 0
M  V30 14719 H 1420.94 -2.14328 -3.447 0
M  V30 14720 H 1421.7 -4.30748 -2.22893 0
M  V30 14721 H 1417.58 -3.42751 -3.0829 0
M  V30 14722 H 1421.13 -6.69359 -1.96481 0
M  V30 14723 H 1417.02 -5.8053 -2.82232 0
M  V30 14724 H 1417.79 -7.83258 -2.37591 0
M  V30 14725 N 1420.45 0.960609 -1.2494 0
M  V30 14726 C 1421.38 2.074 -1.07274 0
M  V30 14727 C 1422.37 1.70092 0.0164365 0
M  V30 14728 O 1423.55 1.93604 -0.151975 0
M  V30 14729 C 1420.68 3.40491 -0.684317 0
M  V30 14730 C 1419.63 3.91784 -1.72306 0
M  V30 14731 C 1418.96 5.21301 -1.18949 0
M  V30 14732 C 1420.26 4.18829 -3.12056 0
M  V30 14733 H 1421.95 2.22438 -2.00404 0
M  V30 14734 H 1419.5 1.06888 -0.964937 0
M  V30 14735 H 1421.45 4.17826 -0.547686 0
M  V30 14736 H 1420.18 3.25374 0.282687 0
M  V30 14737 H 1418.84 3.16613 -1.84802 0
M  V30 14738 H 1418.48 5.02549 -0.212892 0
M  V30 14739 H 1418.18 5.56588 -1.8837 0
M  V30 14740 H 1419.71 6.01238 -1.06513 0
M  V30 14741 H 1421.12 4.86844 -3.02748 0
M  V30 14742 H 1419.52 4.6536 -3.78894 0
M  V30 14743 H 1420.59 3.25333 -3.59564 0
M  V30 14744 N 1421.93 1.0643 1.16234 0
M  V30 14745 C 1422.88 0.676311 2.20669 0
M  V30 14746 C 1423.85 -0.327721 1.62835 0
M  V30 14747 O 1425.03 -0.216296 1.8957 0
M  V30 14748 C 1422.17 0.0703726 3.45028 0
M  V30 14749 C 1421.29 1.12475 4.17101 0
M  V30 14750 C 1420.42 0.484806 5.28983 0
M  V30 14751 C 1419.46 1.52262 5.9286 0
M  V30 14752 N 1418.6 0.905938 6.96231 0
M  V30 14753 H 1423.44 1.57129 2.53209 0
M  V30 14754 H 1420.98 0.7856 1.24365 0
M  V30 14755 H 1422.93 -0.298488 4.16131 0
M  V30 14756 H 1421.56 -0.788002 3.13034 0
M  V30 14757 H 1420.62 1.6113 3.44589 0
M  V30 14758 H 1421.93 1.91202 4.60698 0
M  V30 14759 H 1421.08 0.0630553 6.06667 0
M  V30 14760 H 1419.82 -0.334332 4.86553 0
M  V30 14761 H 1418.83 1.95425 5.13896 0
M  V30 14762 H 1420.05 2.34388 6.37369 0
M  V30 14763 H 1418 0.107536 6.55912 0
M  V30 14764 H 1417.91 1.63058 7.38206 0
M  V30 14765 H 1419.18 0.509378 7.77834 0
M  V30 14766 N 1423.41 -1.329 0.847073 0
M  V30 14767 C 1424.34 -2.31546 0.301422 0
M  V30 14768 C 1425.32 -1.59342 -0.595317 0
M  V30 14769 O 1426.51 -1.87188 -0.517151 0
M  V30 14770 C 1423.64 -3.43423 -0.517454 0
M  V30 14771 C 1422.59 -4.27055 0.284195 0
M  V30 14772 C 1421.92 -5.30624 -0.658944 0
M  V30 14773 C 1423.22 -5.00123 1.50578 0
M  V30 14774 H 1424.91 -2.77433 1.12567 0
M  V30 14775 H 1422.46 -1.3338 0.542739 0
M  V30 14776 H 1424.41 -4.11467 -0.909543 0
M  V30 14777 H 1423.13 -2.96246 -1.37499 0
M  V30 14778 H 1421.79 -3.60648 0.657944 0
M  V30 14779 H 1421.44 -4.79702 -1.51311 0
M  V30 14780 H 1421.14 -5.87464 -0.12662 0
M  V30 14781 H 1422.66 -6.01533 -1.04837 0
M  V30 14782 H 1424.08 -5.6089 1.18641 0
M  V30 14783 H 1422.48 -5.66652 1.97549 0
M  V30 14784 H 1423.55 -4.28424 2.27115 0
M  V30 14785 N 1424.89 -0.604284 -1.45555 0
M  V30 14786 C 1425.82 0.103859 -2.33269 0
M  V30 14787 C 1426.8 0.862104 -1.46635 0
M  V30 14788 O 1427.98 0.833308 -1.75413 0
M  V30 14789 C 1425.11 1.104 -3.29286 0
M  V30 14790 C 1424.07 0.459189 -4.2553 0
M  V30 14791 C 1423.39 1.56734 -5.11213 0
M  V30 14792 C 1424.69 -0.617509 -5.18637 0
M  V30 14793 H 1426.39 -0.628538 -2.92728 0
M  V30 14794 H 1423.93 -0.303711 -1.40761 0
M  V30 14795 H 1425.89 1.60794 -3.89517 0
M  V30 14796 H 1424.61 1.86695 -2.67979 0
M  V30 14797 H 1423.27 -0.0238508 -3.66592 0
M  V30 14798 H 1422.92 2.32049 -4.46276 0
M  V30 14799 H 1422.62 1.14142 -5.76407 0
M  V30 14800 H 1424.14 2.07361 -5.74312 0
M  V30 14801 H 1425.56 -0.197784 -5.72959 0
M  V30 14802 H 1423.95 -0.96499 -5.9229 0
M  V30 14803 H 1425.02 -1.49541 -4.61265 0
M  V30 14804 N 1426.37 1.53816 -0.343257 0
M  V30 14805 C 1427.3 2.21306 0.556696 0
M  V30 14806 C 1428.28 1.19697 1.10051 0
M  V30 14807 O 1429.46 1.48515 1.16084 0
M  V30 14808 C 1426.59 2.89026 1.76583 0
M  V30 14809 C 1425.63 4.04521 1.35149 0
M  V30 14810 S 1426.47 5.3421 0.37154 0
M  V30 14811 C 1427.62 6.05433 1.58751 0
M  V30 14812 H 1427.86 2.97295 -0.0165367 0
M  V30 14813 H 1425.39 1.53874 -0.127331 0
M  V30 14814 H 1427.35 3.28662 2.45951 0
M  V30 14815 H 1426.01 2.12803 2.31028 0
M  V30 14816 H 1425.2 4.50839 2.25301 0
M  V30 14817 H 1424.8 3.66661 0.737296 0
M  V30 14818 H 1427.1 6.28808 2.52203 0
M  V30 14819 H 1428.04 6.98432 1.16613 0
M  V30 14820 H 1428.45 5.35588 1.78343 0
M  V30 14821 N 1427.84 0.0718701 1.57436 0
M  V30 14822 C 1428.79 -0.905443 2.0925 0
M  V30 14823 C 1429.78 -1.25875 1.00221 0
M  V30 14824 O 1430.97 -1.23771 1.26529 0
M  V30 14825 C 1428.1 -2.17298 2.65775 0
M  V30 14826 C 1427.19 -1.84614 3.81809 0
M  V30 14827 N 1427.58 -1.22381 4.90771 0
M  V30 14828 C 1425.87 -2.14364 3.91106 0
M  V30 14829 C 1426.58 -1.07791 5.71626 0
M  V30 14830 N 1425.55 -1.58764 5.19899 0
M  V30 14831 H 1429.35 -0.419955 2.90884 0
M  V30 14832 H 1426.87 -0.132017 1.61863 0
M  V30 14833 H 1428.86 -2.88231 3.01211 0
M  V30 14834 H 1427.52 -2.66434 1.85588 0
M  V30 14835 H 1428.54 -0.89345 5.10135 0
M  V30 14836 H 1425.21 -2.65877 3.21894 0
M  V30 14837 H 1426.6 -0.593061 6.69278 0
M  V30 14838 N 1429.32 -1.56304 -0.201686 0
M  V30 14839 C 1430.23 -1.97215 -1.27057 0
M  V30 14840 C 1431.25 -0.878834 -1.50175 0
M  V30 14841 O 1432.42 -1.18405 -1.62918 0
M  V30 14842 C 1429.49 -2.29772 -2.59626 0
M  V30 14843 C 1428.55 -3.52776 -2.44637 0
M  V30 14844 C 1427.78 -3.83771 -3.70885 0
M  V30 14845 O 1428.01 -3.16149 -4.7477 0
M  V30 14846 O 1426.94 -4.77216 -3.66808 0
M  V30 14847 H 1430.77 -2.88347 -0.953393 0
M  V30 14848 H 1428.35 -1.43773 -0.406158 0
M  V30 14849 H 1430.23 -2.51817 -3.37885 0
M  V30 14850 H 1428.91 -1.41809 -2.90984 0
M  V30 14851 H 1427.82 -3.35986 -1.64512 0
M  V30 14852 H 1429.15 -4.41184 -2.18214 0
M  V30 14853 N 1430.8 0.469154 -1.50455 0
M  V30 14854 C 1432.03 1.24432 -1.653 0
M  V30 14855 C 1432.44 1.85766 -0.33713 0
M  V30 14856 O 1431.8 1.69313 0.681118 0
M  V30 14857 C 1431.85 2.35163 -2.74555 0
M  V30 14858 O 1431.57 1.76344 -4.01042 0
M  V30 14859 C 1433.07 3.26006 -3.00391 0
M  V30 14860 H 1430.29 0.376251 -0.555587 0
M  V30 14861 H 1432.84 0.559777 -1.96689 0
M  V30 14862 H 1430.99 2.99389 -2.45855 0
M  V30 14863 H 1431.41 2.49278 -4.61477 0
M  V30 14864 H 1432.88 3.99909 -3.80496 0
M  V30 14865 H 1433.36 3.84901 -2.11537 0
M  V30 14866 H 1433.96 2.67515 -3.3063 0
M  V30 14867 N 1432.28 1.40065 0.722464 0
M  V30 14868 C 1433.21 1.35695 1.84715 0
M  V30 14869 C 1434.22 0.263522 1.60653 0
M  V30 14870 O 1435.41 0.523382 1.70655 0
M  V30 14871 C 1432.51 1.08722 3.20987 0
M  V30 14872 C 1431.69 2.29586 3.72302 0
M  V30 14873 C 1430.74 1.98879 4.87169 0
M  V30 14874 O 1429.77 2.71681 5.00178 0
M  V30 14875 N 1430.97 0.962554 5.72464 0
M  V30 14876 H 1433.74 2.32621 1.88964 0
M  V30 14877 H 1431.3 1.3433 0.903723 0
M  V30 14878 H 1433.29 0.861772 3.95418 0
M  V30 14879 H 1431.86 0.204869 3.11928 0
M  V30 14880 H 1431.08 2.68004 2.8908 0
M  V30 14881 H 1432.37 3.10176 4.03322 0
M  V30 14882 H 1431.77 0.359452 5.64557 0
M  V30 14883 H 1430.32 0.797003 6.46909 0
M  V30 14884 N 1433.76 -0.95397 1.25448 0
M  V30 14885 C 1435.17 -1.51337 1.09335 0
M  V30 14886 C 1435.52 -1.93393 -0.330698 0
M  V30 14887 O 1434.64 -1.78681 -1.22074 0
M  V30 14888 C 1435.24 -2.75024 1.97857 0
M  V30 14889 C 1433.8 -3.27274 1.85927 0
M  V30 14890 C 1432.95 -2.00108 1.91969 0
M  V30 14891 H 1435.9 -0.770795 1.38724 0
M  V30 14892 H 1435.92 -3.48867 1.51894 0
M  V30 14893 H 1435.43 -2.44383 3.01494 0
M  V30 14894 H 1433.53 -3.62734 0.851767 0
M  V30 14895 H 1433.64 -3.95245 2.70773 0
M  V30 14896 H 1432.01 -2.15438 1.35862 0
M  V30 14897 H 1432.79 -1.71816 2.97211 0
M  V30 14898 N 1435.24 -1.07045 -1.15668 0
M  V30 14899 C 1436.65 -0.814932 -1.67975 0
M  V30 14900 C 1437 0.660408 -1.84751 0
M  V30 14901 O 1436.12 1.51156 -1.54857 0
M  V30 14902 C 1436.72 -1.47274 -3.05116 0
M  V30 14903 C 1435.28 -1.26481 -3.54513 0
M  V30 14904 C 1434.42 -1.54439 -2.30312 0
M  V30 14905 H 1437.37 -1.23291 -0.999251 0
M  V30 14906 H 1437.4 -0.892244 -3.69891 0
M  V30 14907 H 1436.91 -2.54649 -2.92874 0
M  V30 14908 H 1435.01 -0.211138 -3.72001 0
M  V30 14909 H 1435.12 -1.98283 -4.36143 0
M  V30 14910 H 1433.49 -0.965269 -2.357 0
M  V30 14911 H 1434.27 -2.6299 -2.20661 0
M  V30 14912 N 1436.71 1.32449 -0.85411 0
M  V30 14913 C 1437.94 2.01997 -0.470307 0
M  V30 14914 C 1438.36 1.63772 0.925225 0
M  V30 14915 O 1437.72 0.838089 1.60766 0
M  V30 14916 C 1437.77 3.55294 -0.616301 0
M  V30 14917 O 1436.87 4.10902 0.351133 0
M  V30 14918 H 1436.21 0.63651 -0.189079 0
M  V30 14919 H 1438.74 1.69008 -1.15315 0
M  V30 14920 H 1438.75 4.0488 -0.503624 0
M  V30 14921 H 1437.43 3.82459 -1.63396 0
M  V30 14922 H 1436.01 3.72391 0.194741 0
M  V30 14923 N 1438.19 0.611994 1.45232 0
M  V30 14924 C 1439.14 -0.125771 2.27653 0
M  V30 14925 C 1440.13 -0.834397 1.37574 0
M  V30 14926 O 1441.32 -0.72366 1.61531 0
M  V30 14927 C 1438.45 -1.11955 3.24532 0
M  V30 14928 C 1437.53 -0.411537 4.22099 0
M  V30 14929 N 1437.92 0.549272 5.02809 0
M  V30 14930 C 1436.22 -0.658514 4.41112 0
M  V30 14931 C 1436.92 0.965836 5.73626 0
M  V30 14932 N 1435.9 0.308649 5.42723 0
M  V30 14933 H 1439.7 0.612115 2.87455 0
M  V30 14934 H 1437.21 0.436003 1.56438 0
M  V30 14935 H 1439.21 -1.66253 3.82316 0
M  V30 14936 H 1437.87 -1.85795 2.6629 0
M  V30 14937 H 1438.88 0.926222 5.0955 0
M  V30 14938 H 1435.56 -1.38125 3.9399 0
M  V30 14939 H 1436.95 1.75853 6.48479 0
M  V30 14940 N 1439.67 -1.53632 0.351409 0
M  V30 14941 C 1440.92 -2.0104 -0.242687 0
M  V30 14942 C 1441.24 -1.23906 -1.49925 0
M  V30 14943 O 1440.5 -0.316927 -1.93117 0
M  V30 14944 C 1440.8 -3.5242 -0.594561 0
M  V30 14945 C 1440.46 -4.47333 0.566031 0
M  V30 14946 C 1439.13 -4.73001 0.884515 0
M  V30 14947 C 1441.48 -5.03566 1.34426 0
M  V30 14948 C 1438.81 -5.52156 1.98346 0
M  V30 14949 C 1441.16 -5.8392 2.43351 0
M  V30 14950 C 1439.82 -6.0788 2.7575 0
M  V30 14951 H 1439.09 -0.735659 -0.0888056 0
M  V30 14952 H 1441.74 -1.85362 0.480948 0
M  V30 14953 H 1440.04 -3.65971 -1.39902 0
M  V30 14954 H 1441.74 -3.86565 -1.06625 0
M  V30 14955 H 1438.33 -4.27494 0.307751 0
M  V30 14956 H 1442.52 -4.83694 1.11146 0
M  V30 14957 H 1437.77 -5.68942 2.23863 0
M  V30 14958 H 1441.95 -6.26505 3.04079 0
M  V30 14959 H 1439.57 -6.69001 3.61029 0
M  V30 14960 N 1441.15 -0.0802183 -1.57396 0
M  V30 14961 C 1442.37 0.599179 -1.98556 0
M  V30 14962 C 1442.8 1.61844 -0.958555 0
M  V30 14963 O 1442.16 1.81146 0.0748226 0
M  V30 14964 C 1442.2 1.23675 -3.38728 0
M  V30 14965 O 1441.31 2.35262 -3.38712 0
M  V30 14966 H 1440.65 0.153366 -0.646045 0
M  V30 14967 H 1443.18 -0.157227 -2.03995 0
M  V30 14968 H 1443.19 1.5816 -3.76098 0
M  V30 14969 H 1441.86 0.489946 -4.13004 0
M  V30 14970 H 1440.44 2.02507 -3.13122 0
M  V30 14971 N 1442.63 1.56409 0.193394 0
M  V30 14972 C 1443.87 1.80991 0.914875 0
M  V30 14973 C 1444.2 0.654538 1.82837 0
M  V30 14974 O 1443.48 -0.344816 1.91419 0
M  V30 14975 C 1443.76 3.15841 1.72964 0
M  V30 14976 C 1443.62 4.41873 0.840748 0
M  V30 14977 C 1444.93 3.474 2.70188 0
M  V30 14978 H 1442.05 0.658408 0.331161 0
M  V30 14979 H 1444.7 1.89125 0.182161 0
M  V30 14980 H 1442.85 3.09038 2.35431 0
M  V30 14981 H 1444.52 4.60723 0.230654 0
M  V30 14982 H 1442.76 4.33549 0.147558 0
M  V30 14983 H 1443.43 5.32728 1.44586 0
M  V30 14984 H 1445.91 3.54513 2.17852 0
M  V30 14985 H 1444.78 4.42872 3.24278 0
M  V30 14986 H 1445.04 2.7098 3.49317 0
M  V30 14987 N 1444.1 -0.461169 1.50702 0
M  V30 14988 C 1445.33 -1.24019 1.66235 0
M  V30 14989 C 1445.75 -1.84827 0.349388 0
M  V30 14990 O 1445.11 -1.67743 -0.687888 0
M  V30 14991 C 1445.16 -2.31743 2.76274 0
M  V30 14992 O 1444.26 -3.3664 2.38217 0
M  V30 14993 H 1443.6 -0.364424 0.55506 0
M  V30 14994 H 1446.13 -0.547636 1.97135 0
M  V30 14995 H 1446.14 -2.76902 2.99649 0
M  V30 14996 H 1444.82 -1.86858 3.7156 0
M  V30 14997 H 1443.4 -2.97123 2.25327 0
M  V30 14998 N 1445.58 -1.40446 -0.715026 0
M  V30 14999 C 1446.81 -1.4207 -1.50412 0
M  V30 15000 C 1447.22 -0.0205547 -1.88789 0
M  V30 15001 O 1446.58 0.955635 -1.55479 0
M  V30 15002 C 1446.63 -2.3119 -2.77909 0
M  V30 15003 O 1446.35 -3.65754 -2.41154 0
M  V30 15004 C 1447.85 -2.41412 -3.718 0
M  V30 15005 H 1445.07 -0.484554 -0.464164 0
M  V30 15006 H 1447.62 -1.84504 -0.881964 0
M  V30 15007 H 1445.77 -1.92117 -3.36407 0
M  V30 15008 H 1446.19 -4.13091 -3.23197 0
M  V30 15009 H 1447.66 -3.07976 -4.58099 0
M  V30 15010 H 1448.14 -1.43934 -4.14945 0
M  V30 15011 H 1448.74 -2.81039 -3.19213 0
M  V30 15012 N 1447.06 0.947303 -1.25952 0
M  V30 15013 C 1448.31 1.68721 -1.10527 0
M  V30 15014 C 1448.62 1.92403 0.352215 0
M  V30 15015 O 1449.83 2.6416 0.627036 0
M  V30 15016 C 1448.28 3.03785 -1.92983 0
M  V30 15017 C 1447.89 2.87873 -3.43268 0
M  V30 15018 C 1449.64 3.81509 -1.86149 0
M  V30 15019 C 1447.54 4.18373 -4.17993 0
M  V30 15020 H 1446.47 0.632774 -0.410016 0
M  V30 15021 H 1449.12 1.054 -1.5021 0
M  V30 15022 H 1447.51 3.68052 -1.46128 0
M  V30 15023 H 1448.68 2.32493 -3.97848 0
M  V30 15024 H 1446.99 2.23598 -3.51273 0
M  V30 15025 H 1449.59 4.78179 -2.39267 0
M  V30 15026 H 1449.93 4.07923 -0.83091 0
M  V30 15027 H 1450.47 3.24005 -2.30794 0
M  V30 15028 H 1447.21 3.97145 -5.21494 0
M  V30 15029 H 1446.73 4.7349 -3.68194 0
M  V30 15030 H 1448.41 4.86869 -4.26108 0
M  V30 15031 N 1448.54 1.07657 1.15099 0
M  V30 15032 C 1449.77 0.822825 1.89835 0
M  V30 15033 C 1450.18 -0.624281 1.7818 0
M  V30 15034 O 1449.54 -1.42844 1.13587 0
M  V30 15035 C 1449.59 1.22598 3.40076 0
M  V30 15036 O 1449.31 2.61631 3.51398 0
M  V30 15037 C 1450.81 1.00199 4.31828 0
M  V30 15038 H 1448.03 0.297288 0.601549 0
M  V30 15039 H 1450.58 1.43384 1.45813 0
M  V30 15040 H 1448.73 0.65923 3.8175 0
M  V30 15041 H 1449.14 2.78163 4.44664 0
M  V30 15042 H 1450.62 1.33355 5.35649 0
M  V30 15043 H 1451.1 -0.0614865 4.39157 0
M  V30 15044 H 1451.7 1.5538 3.959 0
M  V30 15045 N 1450.02 -1.31994 0.861122 0
M  V30 15046 C 1451.43 -1.49756 0.551844 0
M  V30 15047 C 1451.63 -1.79473 -0.916056 0
M  V30 15048 O 1450.69 -1.86813 -1.69874 0
M  V30 15049 C 1452 -2.63737 1.44442 0
M  V30 15050 C 1453.55 -2.77621 1.44552 0
M  V30 15051 C 1454.02 -3.94689 2.32346 0
M  V30 15052 N 1455.52 -4.01961 2.30177 0
M  V30 15053 C 1456.25 -4.91794 2.94833 0
M  V30 15054 N 1455.75 -5.86589 3.68626 0
M  V30 15055 N 1457.54 -4.84968 2.84188 0
M  V30 15056 H 1449.69 -1.10972 1.81105 0
M  V30 15057 H 1451.95 -0.54753 0.773896 0
M  V30 15058 H 1451.66 -2.48526 2.48853 0
M  V30 15059 H 1451.53 -3.59671 1.13651 0
M  V30 15060 H 1453.92 -2.92251 0.409034 0
M  V30 15061 H 1454 -1.8238 1.79363 0
M  V30 15062 H 1453.65 -3.80817 3.36067 0
M  V30 15063 H 1453.58 -4.89219 1.94865 0
M  V30 15064 H 1456.07 -3.34132 1.76533 0
M  V30 15065 H 1456.38 -6.51846 4.15111 0
M  V30 15066 H 1454.72 -5.86596 3.72734 0
M  V30 15067 H 1457.92 -4.09883 2.26084 0
M  V30 15068 H 1458.09 -5.54774 3.34857 0
M  V30 15069 N 1451.49 -0.619688 -1.44906 0
M  V30 15070 C 1452.74 -0.117147 -2.0136 0
M  V30 15071 C 1453.06 1.2644 -1.49239 0
M  V30 15072 O 1454.26 1.86034 -1.97747 0
M  V30 15073 C 1452.72 -0.15871 -3.5955 0
M  V30 15074 C 1452.33 -1.54086 -4.20668 0
M  V30 15075 C 1454.07 0.287961 -4.23522 0
M  V30 15076 C 1451.98 -1.53816 -5.71047 0
M  V30 15077 H 1450.91 -0.040028 -0.752937 0
M  V30 15078 H 1453.56 -0.776802 -1.66247 0
M  V30 15079 H 1451.94 0.56783 -3.91908 0
M  V30 15080 H 1453.11 -2.29007 -3.99865 0
M  V30 15081 H 1451.43 -1.93065 -3.68938 0
M  V30 15082 H 1454.03 0.309351 -5.33804 0
M  V30 15083 H 1454.37 1.31305 -3.9505 0
M  V30 15084 H 1454.9 -0.385707 -3.95926 0
M  V30 15085 H 1451.64 -2.54124 -6.04236 0
M  V30 15086 H 1451.16 -0.831708 -5.94006 0
M  V30 15087 H 1452.84 -1.26708 -6.34472 0
M  V30 15088 N 1452.97 1.53444 -0.359552 0
M  V30 15089 C 1454.2 2.05286 0.232615 0
M  V30 15090 C 1454.61 1.23322 1.43486 0
M  V30 15091 O 1453.95 0.265369 1.81773 0
M  V30 15092 C 1454.02 3.52698 0.695995 0
M  V30 15093 C 1453.68 4.55344 -0.388751 0
M  V30 15094 C 1454.68 5.04978 -1.23667 0
M  V30 15095 C 1452.36 4.9931 -0.547267 0
M  V30 15096 C 1454.36 5.97174 -2.2285 0
M  V30 15097 C 1452.04 5.91313 -1.54247 0
M  V30 15098 C 1453.04 6.40135 -2.38153 0
M  V30 15099 O 1452.73 7.30325 -3.35976 0
M  V30 15100 H 1452.46 0.674445 0.0458187 0
M  V30 15101 H 1455.01 1.98853 -0.514472 0
M  V30 15102 H 1453.24 3.5665 1.49459 0
M  V30 15103 H 1454.93 3.8743 1.21049 0
M  V30 15104 H 1455.7 4.71763 -1.12537 0
M  V30 15105 H 1451.58 4.609 0.0960246 0
M  V30 15106 H 1455.12 6.35204 -2.88378 0
M  V30 15107 H 1451.02 6.23942 -1.65427 0
M  V30 15108 H 1451.79 7.48305 -3.31635 0
M  V30 15109 N 1454.45 0.0885642 1.57351 0
M  V30 15110 C 1455.87 -0.268088 1.57332 0
M  V30 15111 C 1456.07 -1.68875 1.09924 0
M  V30 15112 O 1455.12 -2.40385 0.772729 0
M  V30 15113 C 1456.44 -0.0624654 3.00635 0
M  V30 15114 C 1457.98 -0.130717 3.12727 0
M  V30 15115 C 1458.46 0.0468305 4.57976 0
M  V30 15116 N 1459.95 -0.00822093 4.63199 0
M  V30 15117 C 1460.68 0.104497 5.73305 0
M  V30 15118 N 1460.18 0.271682 6.92267 0
M  V30 15119 N 1461.97 0.0462333 5.62081 0
M  V30 15120 H 1454.12 1.01686 1.86477 0
M  V30 15121 H 1456.39 0.397971 0.86042 0
M  V30 15122 H 1456.09 0.918505 3.39494 0
M  V30 15123 H 1455.97 -0.807602 3.68453 0
M  V30 15124 H 1458.35 -1.10219 2.73744 0
M  V30 15125 H 1458.44 0.645801 2.47514 0
M  V30 15126 H 1458.08 1.01514 4.97652 0
M  V30 15127 H 1458.01 -0.7493 5.21242 0
M  V30 15128 H 1460.5 -0.135164 3.77658 0
M  V30 15129 H 1460.81 0.349381 7.7201 0
M  V30 15130 H 1459.16 0.307265 6.9432 0
M  V30 15131 H 1462.35 -0.0831995 4.68026 0
M  V30 15132 H 1462.52 0.137529 6.47854 0
M  V30 15133 N 1455.93 -1.56509 -0.185096 0
M  V30 15134 C 1457.18 -1.80848 -0.902139 0
M  V30 15135 C 1457.5 -0.663295 -1.83372 0
M  V30 15136 O 1456.77 0.317754 -1.93306 0
M  V30 15137 H 1455.35 -0.667108 -0.336119 0
M  V30 15138 H 1458.01 -1.93989 -0.188211 0
M  V30 15139 H 1457.11 -2.74383 -1.48729 0
M  V30 15140 N 1457.41 0.45317 -1.50944 0
M  V30 15141 C 1458.64 1.22494 -1.66369 0
M  V30 15142 C 1459.04 1.85862 -0.353854 0
M  V30 15143 O 1458.39 1.70808 0.676031 0
M  V30 15144 C 1458.45 2.36145 -2.71064 0
M  V30 15145 C 1458.11 1.93273 -4.14119 0
M  V30 15146 C 1459.11 1.44508 -4.99413 0
M  V30 15147 C 1456.8 2.01447 -4.60135 0
M  V30 15148 C 1458.79 1.04482 -6.28778 0
M  V30 15149 C 1456.48 1.61033 -5.89501 0
M  V30 15150 C 1457.47 1.1263 -6.73649 0
M  V30 15151 O 1457.16 0.727835 -8.00598 0
M  V30 15152 H 1456.89 0.37591 -0.561843 0
M  V30 15153 H 1459.45 0.545218 -1.98032 0
M  V30 15154 H 1457.68 3.07345 -2.34682 0
M  V30 15155 H 1459.37 2.9806 -2.75527 0
M  V30 15156 H 1460.13 1.376 -4.65071 0
M  V30 15157 H 1456.01 2.38068 -3.94771 0
M  V30 15158 H 1459.56 0.666322 -6.9441 0
M  V30 15159 H 1455.45 1.67606 -6.23361 0
M  V30 15160 H 1456.22 0.855097 -8.14021 0
M  V30 15161 N 1458.88 1.40823 0.707568 0
M  V30 15162 C 1459.83 1.4191 1.84294 0
M  V30 15163 C 1460.83 0.298592 1.66748 0
M  V30 15164 O 1462.03 0.47003 1.73755 0
M  V30 15165 H 1458.41 0.44376 0.607109 0
M  V30 15166 H 1460.38 2.37623 1.80494 0
M  V30 15167 C 1459.13 1.30643 3.22223 0
M  V30 15168 H 1458.45 2.16145 3.36335 0
M  V30 15169 H 1459.89 1.35463 4.01778 0
M  V30 15170 C 1458.35 0.0174867 3.36895 0
M  V30 15171 O 1458.88 -0.942398 3.90489 0
M  V30 15172 N 1457.09 -0.0546572 2.90549 0
M  V30 15173 H 1456.63 0.727204 2.47122 0
M  V30 15174 H 1456.59 -0.916521 3.00744 0
M  V30 15175 N 1460.36 -0.94061 1.26453 0
M  V30 15176 C 1461.29 -2.05667 1.10559 0
M  V30 15177 C 1462.27 -1.70097 0.0106258 0
M  V30 15178 O 1463.46 -1.93338 0.182756 0
M  V30 15179 C 1460.59 -3.3936 0.7384 0
M  V30 15180 C 1459.54 -3.88993 1.78517 0
M  V30 15181 C 1458.87 -5.19343 1.27228 0
M  V30 15182 C 1460.17 -4.13812 3.1868 0
M  V30 15183 H 1461.86 -2.19221 2.03918 0
M  V30 15184 H 1459.41 -1.05339 0.98182 0
M  V30 15185 H 1461.36 -4.16902 0.61409 0
M  V30 15186 H 1460.09 -3.25783 -0.230887 0
M  V30 15187 H 1458.74 -3.13633 1.89816 0
M  V30 15188 H 1458.39 -5.02147 0.292816 0
M  V30 15189 H 1458.09 -5.53521 1.97201 0
M  V30 15190 H 1459.62 -5.99468 1.16065 0
M  V30 15191 H 1461.03 -4.81966 3.10455 0
M  V30 15192 H 1459.43 -4.59273 3.86249 0
M  V30 15193 H 1460.5 -3.19571 3.64695 0
M  V30 15194 N 1461.84 -1.08266 -1.14527 0
M  V30 15195 C 1462.77 -0.732968 -2.21698 0
M  V30 15196 C 1463.75 0.283917 -1.67714 0
M  V30 15197 O 1464.94 0.154607 -1.93584 0
M  V30 15198 C 1462.07 -0.139935 -3.47018 0
M  V30 15199 C 1461.02 -1.08501 -4.14019 0
M  V30 15200 C 1460.35 -0.354263 -5.33525 0
M  V30 15201 C 1461.65 -2.42254 -4.62721 0
M  V30 15202 H 1463.34 -1.629 -2.51205 0
M  V30 15203 H 1460.89 -0.784696 -1.20742 0
M  V30 15204 H 1462.84 0.1167 -4.21238 0
M  V30 15205 H 1461.56 0.791228 -3.16871 0
M  V30 15206 H 1460.22 -1.32672 -3.41751 0
M  V30 15207 H 1459.87 0.580658 -4.99637 0
M  V30 15208 H 1459.57 -0.984287 -5.79297 0
M  V30 15209 H 1461.09 -0.105648 -6.10509 0
M  V30 15210 H 1462.51 -2.22357 -5.28422 0
M  V30 15211 H 1460.91 -3.00935 -5.1919 0
M  V30 15212 H 1461.98 -3.03884 -3.77866 0
M  V30 15213 N 1463.32 1.31536 -0.86811 0
M  V30 15214 C 1464.73 1.78991 -0.530937 0
M  V30 15215 C 1465.08 1.71553 0.952046 0
M  V30 15216 O 1464.21 1.28216 1.74326 0
M  V30 15217 C 1464.8 3.25004 -0.956981 0
M  V30 15218 C 1463.36 3.70362 -0.671495 0
M  V30 15219 C 1462.51 2.52361 -1.14932 0
M  V30 15220 H 1465.46 1.18644 -1.05401 0
M  V30 15221 H 1465.48 3.79477 -0.278883 0
M  V30 15222 H 1464.99 3.30385 -2.03635 0
M  V30 15223 H 1463.09 3.70483 0.39659 0
M  V30 15224 H 1463.21 4.62581 -1.24722 0
M  V30 15225 H 1461.57 2.4826 -0.569144 0
M  V30 15226 H 1462.35 2.60489 -2.23608 0
M  V30 15227 N 1464.8 0.627364 1.44575 0
M  V30 15228 C 1466.02 0.135576 2.06956 0
M  V30 15229 C 1466.45 -1.17922 1.46547 0
M  V30 15230 O 1465.81 -1.72255 0.565509 0
M  V30 15231 C 1465.85 0.030347 3.60587 0
M  V30 15232 O 1464.96 -1.01464 3.99724 0
M  V30 15233 H 1464.3 0.083058 0.658785 0
M  V30 15234 H 1466.83 0.862977 1.8551 0
M  V30 15235 H 1466.84 -0.161461 4.0768 0
M  V30 15236 H 1465.51 0.990285 4.03938 0
M  V30 15237 H 1464.09 -0.797701 3.64268 0
M  V30 15238 N 1466.28 -1.53251 0.367684 0
M  V30 15239 C 1467.52 -2.00469 -0.222481 0
M  V30 15240 C 1467.84 -1.259 -1.49695 0
M  V30 15241 O 1469.04 -1.63717 -2.16585 0
M  V30 15242 C 1467.5 -3.57113 -0.447018 0
M  V30 15243 C 1467.11 -4.40562 0.812946 0
M  V30 15244 C 1468.85 -4.12681 -0.994725 0
M  V30 15245 C 1466.76 -5.88763 0.557877 0
M  V30 15246 H 1465.69 -0.748974 -0.0869144 0
M  V30 15247 H 1468.34 -1.76927 0.48675 0
M  V30 15248 H 1466.72 -3.76818 -1.21756 0
M  V30 15249 H 1467.9 -4.3263 1.58644 0
M  V30 15250 H 1466.21 -3.96108 1.28403 0
M  V30 15251 H 1468.81 -5.2104 -1.20091 0
M  V30 15252 H 1469.15 -3.67408 -1.95748 0
M  V30 15253 H 1469.68 -3.96783 -0.284295 0
M  V30 15254 H 1466.42 -6.38317 1.49102 0
M  V30 15255 H 1465.94 -5.99539 -0.177082 0
M  V30 15256 H 1467.62 -6.46738 0.18419 0
M  V30 15257 N 1467.75 -0.0969077 -1.57302 0
M  V30 15258 C 1468.98 0.574705 -1.98758 0
M  V30 15259 C 1469.4 1.61612 -0.976067 0
M  V30 15260 O 1468.75 1.82468 0.0340803 0
M  V30 15261 C 1468.8 1.22078 -3.40263 0
M  V30 15262 O 1468.53 0.221022 -4.37542 0
M  V30 15263 C 1470.03 1.97783 -3.96732 0
M  V30 15264 H 1467.25 0.153934 -0.653104 0
M  V30 15265 H 1469.79 -0.17673 -2.03735 0
M  V30 15266 H 1467.95 1.92314 -3.36295 0
M  V30 15267 H 1468.36 0.687583 -5.19974 0
M  V30 15268 H 1469.83 2.38346 -4.97891 0
M  V30 15269 H 1470.31 2.8444 -3.3465 0
M  V30 15270 H 1470.92 1.3236 -4.04179 0
M  V30 15271 N 1469.23 1.56605 0.176793 0
M  V30 15272 C 1470.51 1.72546 0.921261 0
M  V30 15273 C 1470.89 0.656794 2.00623 0
M  V30 15274 O 1470.24 -0.329303 2.26115 0
M  V30 15275 C 1470.45 3.15548 1.491 0
M  V30 15276 C 1471.79 3.7634 1.96604 0
M  V30 15277 O 1472.82 3.18791 1.58905 0
M  V30 15278 O 1471.68 4.77377 2.66033 0
M  V30 15279 H 1468.77 0.704425 0.43326 0
M  V30 15280 H 1471.32 1.68895 0.165052 0
M  V30 15281 H 1470.09 3.84808 0.709839 0
M  V30 15282 H 1469.71 3.23502 2.31154 0
M  V30 15283 N 1470.71 -0.445159 1.51182 0
M  V30 15284 C 1471.96 -1.19701 1.63705 0
M  V30 15285 C 1472.29 -1.91047 0.348511 0
M  V30 15286 O 1471.56 -1.83264 -0.651497 0
M  V30 15287 C 1471.85 -2.22021 2.83511 0
M  V30 15288 C 1471.7 -1.54809 4.2232 0
M  V30 15289 C 1473.02 -3.23083 2.9884 0
M  V30 15290 H 1470.14 -0.433818 0.595795 0
M  V30 15291 H 1472.78 -0.487276 1.83645 0
M  V30 15292 H 1470.93 -2.82551 2.66641 0
M  V30 15293 H 1472.6 -0.976774 4.5084 0
M  V30 15294 H 1470.84 -0.850596 4.25379 0
M  V30 15295 H 1471.52 -2.29289 5.02126 0
M  V30 15296 H 1473.99 -2.72601 3.14369 0
M  V30 15297 H 1472.87 -3.91978 3.84246 0
M  V30 15298 H 1473.13 -3.88732 2.1057 0
M  V30 15299 N 1472.19 -1.41197 -0.700089 0
M  V30 15300 C 1473.42 -1.43658 -1.48896 0
M  V30 15301 C 1473.83 -0.0405771 -1.88756 0
M  V30 15302 O 1473.19 0.93909 -1.56484 0
M  V30 15303 C 1473.24 -2.34125 -2.75441 0
M  V30 15304 O 1472.96 -3.68291 -2.37261 0
M  V30 15305 C 1474.46 -2.45342 -3.69218 0
M  V30 15306 H 1471.68 -0.48945 -0.458999 0
M  V30 15307 H 1474.22 -1.85429 -0.862345 0
M  V30 15308 H 1472.38 -1.95674 -3.34351 0
M  V30 15309 H 1472.79 -4.16495 -3.18798 0
M  V30 15310 H 1474.27 -3.12818 -4.54807 0
M  V30 15311 H 1474.74 -1.48327 -4.13395 0
M  V30 15312 H 1475.35 -2.84409 -3.16214 0
M  V30 15313 N 1473.67 0.933891 -1.2695 0
M  V30 15314 C 1474.6 2.03399 -1.03461 0
M  V30 15315 C 1475.58 1.62543 0.0430025 0
M  V30 15316 O 1476.76 1.8823 -0.100894 0
M  V30 15317 C 1473.89 3.339 -0.56818 0
M  V30 15318 C 1472.93 3.93732 -1.63944 0
M  V30 15319 S 1473.77 4.27096 -3.23032 0
M  V30 15320 C 1474.92 5.60686 -2.78176 0
M  V30 15321 H 1475.16 2.23011 -1.96604 0
M  V30 15322 H 1472.69 1.07621 -1.10711 0
M  V30 15323 H 1474.65 4.0936 -0.305745 0
M  V30 15324 H 1473.31 3.12221 0.343096 0
M  V30 15325 H 1472.5 4.87886 -1.26424 0
M  V30 15326 H 1472.1 3.24833 -1.85362 0
M  V30 15327 H 1474.39 6.39715 -2.23093 0
M  V30 15328 H 1475.34 6.03098 -3.7105 0
M  V30 15329 H 1475.75 5.20912 -2.17511 0
M  V30 15330 N 1475.14 1.08871 1.13951 0
M  V30 15331 C 1476.05 0.734869 2.22793 0
M  V30 15332 C 1477.07 -0.260699 1.72036 0
M  V30 15333 O 1478.25 -0.103461 2.01134 0
M  V30 15334 C 1475.31 0.154599 3.46355 0
M  V30 15335 C 1474.37 1.20539 4.1203 0
M  V30 15336 C 1473.6 0.652712 5.29694 0
M  V30 15337 O 1473.83 -0.526264 5.67967 0
M  V30 15338 O 1472.76 1.40503 5.85271 0
M  V30 15339 H 1476.59 1.64297 2.55422 0
M  V30 15340 H 1474.17 0.862716 1.21974 0
M  V30 15341 H 1476.05 -0.165962 4.21073 0
M  V30 15342 H 1474.73 -0.726592 3.1544 0
M  V30 15343 H 1473.64 1.57855 3.39164 0
M  V30 15344 H 1474.97 2.05902 4.47063 0
M  V30 15345 N 1476.62 -1.31073 0.875073 0
M  V30 15346 C 1477.57 -2.30335 0.3238 0
M  V30 15347 C 1478.56 -1.5974 -0.563869 0
M  V30 15348 O 1479.77 -1.743 -0.449402 0
M  V30 15349 H 1476.14 -0.747062 0.0860376 0
M  V30 15350 H 1478.12 -2.743 1.17483 0
M  V30 15351 C 1476.86 -3.44705 -0.455348 0
M  V30 15352 H 1476.19 -3.99203 0.218433 0
M  V30 15353 H 1477.63 -4.16262 -0.806329 0
M  V30 15354 C 1476.09 -2.93807 -1.6486 0
M  V30 15355 O 1476.62 -2.93004 -2.74794 0
M  V30 15356 N 1474.82 -2.49944 -1.48244 0
M  V30 15357 H 1474.37 -2.50797 -0.588116 0
M  V30 15358 H 1474.33 -2.16245 -2.28222 0
M  V30 15359 N 1478.1 -0.635022 -1.4424 0
M  V30 15360 C 1479.05 0.0797218 -2.32463 0
M  V30 15361 C 1480.04 0.831818 -1.47571 0
M  V30 15362 O 1481.25 0.744277 -1.63892 0
M  V30 15363 H 1477.62 0.0445532 -0.750679 0
M  V30 15364 H 1479.59 -0.682374 -2.90493 0
M  V30 15365 C 1478.34 1.04505 -3.31623 0
M  V30 15366 H 1477.67 0.475755 -3.96959 0
M  V30 15367 H 1479.11 1.51458 -3.96026 0
M  V30 15368 C 1477.57 2.13221 -2.60842 0
M  V30 15369 O 1478.1 3.21357 -2.41025 0
M  V30 15370 N 1476.3 1.89264 -2.20516 0
M  V30 15371 H 1475.85 1.01329 -2.36834 0
M  V30 15372 H 1475.81 2.62203 -1.73484 0
M  V30 15373 N 1479.58 1.53054 -0.375806 0
M  V30 15374 C 1480.51 2.28973 0.45754 0
M  V30 15375 C 1481.49 1.31812 1.07516 0
M  V30 15376 O 1482.67 1.60693 1.09048 0
M  V30 15377 C 1479.8 3.08657 1.59212 0
M  V30 15378 C 1478.76 4.1359 1.10123 0
M  V30 15379 C 1478.08 4.81417 2.32684 0
M  V30 15380 C 1479.38 5.21994 0.17872 0
M  V30 15381 H 1481.08 2.98883 -0.175872 0
M  V30 15382 H 1478.62 1.43743 -0.0860253 0
M  V30 15383 H 1480.58 3.6052 2.18182 0
M  V30 15384 H 1479.3 2.36456 2.25291 0
M  V30 15385 H 1477.96 3.62688 0.534151 0
M  V30 15386 H 1477.61 4.05778 2.97243 0
M  V30 15387 H 1477.31 5.52332 2.00506 0
M  V30 15388 H 1478.83 5.36079 2.92322 0
M  V30 15389 H 1480.25 5.69298 0.676204 0
M  V30 15390 H 1478.64 6.00077 -0.0526605 0
M  V30 15391 H 1479.71 4.78646 -0.776246 0
M  V30 15392 N 1481.06 0.105248 1.57248 0
M  V30 15393 C 1482.28 -0.567515 1.99484 0
M  V30 15394 C 1482.71 -1.60298 0.984182 0
M  V30 15395 O 1482.06 -1.81242 -0.0459944 0
M  V30 15396 C 1482.11 -1.18271 3.40653 0
M  V30 15397 O 1481.22 -2.29843 3.42412 0
M  V30 15398 H 1480.56 -0.143069 0.648404 0
M  V30 15399 H 1483.09 0.189661 2.03719 0
M  V30 15400 H 1483.1 -1.52157 3.78566 0
M  V30 15401 H 1481.77 -0.424179 4.13731 0
M  V30 15402 H 1480.35 -1.975 3.16304 0
M  V30 15403 N 1482.53 -1.56697 -0.168486 0
M  V30 15404 C 1483.95 -1.50879 -0.52036 0
M  V30 15405 C 1484.15 -0.810001 -1.84503 0
M  V30 15406 O 1483.21 -0.371549 -2.49751 0
M  V30 15407 C 1484.52 -2.95618 -0.550502 0
M  V30 15408 C 1486.07 -3.06439 -0.637508 0
M  V30 15409 C 1486.54 -4.52642 -0.698516 0
M  V30 15410 N 1488.03 -4.569 -0.761328 0
M  V30 15411 C 1488.77 -5.67373 -0.829155 0
M  V30 15412 N 1488.26 -6.87471 -0.857642 0
M  V30 15413 N 1490.06 -5.55352 -0.868392 0
M  V30 15414 H 1482.21 -2.00531 0.700087 0
M  V30 15415 H 1484.47 -0.913683 0.252759 0
M  V30 15416 H 1484.18 -3.49912 0.354222 0
M  V30 15417 H 1484.05 -3.50416 -1.396 0
M  V30 15418 H 1486.44 -2.52178 -1.53266 0
M  V30 15419 H 1486.52 -2.54721 0.234719 0
M  V30 15420 H 1486.16 -5.07535 0.192387 0
M  V30 15421 H 1486.09 -5.0212 -1.58693 0
M  V30 15422 H 1488.58 -3.70434 -0.747482 0
M  V30 15423 H 1488.9 -7.67416 -0.910648 0
M  V30 15424 H 1487.24 -6.90076 -0.825872 0
M  V30 15425 H 1490.43 -4.60444 -0.843158 0
M  V30 15426 H 1490.61 -6.41468 -0.917789 0
M  V30 15427 N 1484.01 0.437135 -1.51416 0
M  V30 15428 C 1485.26 1.18831 -1.64338 0
M  V30 15429 C 1485.59 1.9086 -0.358638 0
M  V30 15430 O 1484.87 1.83607 0.641769 0
M  V30 15431 C 1485.15 2.20515 -2.84685 0
M  V30 15432 C 1485 1.52568 -4.23135 0
M  V30 15433 C 1486.32 3.21494 -3.00549 0
M  V30 15434 H 1483.44 0.430652 -0.598087 0
M  V30 15435 H 1486.08 0.47753 -1.83901 0
M  V30 15436 H 1484.23 2.81132 -2.68136 0
M  V30 15437 H 1485.9 0.952851 -4.51352 0
M  V30 15438 H 1484.15 0.828025 -4.25824 0
M  V30 15439 H 1484.82 2.26623 -5.03335 0
M  V30 15440 H 1487.29 2.7093 -3.1581 0
M  V30 15441 H 1486.17 3.89934 -3.86319 0
M  V30 15442 H 1486.43 3.8761 -2.12629 0
M  V30 15443 N 1485.49 1.41566 0.692592 0
M  V30 15444 C 1486.74 1.40381 1.44831 0
M  V30 15445 C 1487.05 0.0172068 1.95592 0
M  V30 15446 O 1488.26 -0.11726 2.71247 0
M  V30 15447 C 1486.71 2.46844 2.61908 0
M  V30 15448 C 1486.32 3.91426 2.17921 0
M  V30 15449 C 1488.07 2.548 3.39525 0
M  V30 15450 C 1485.97 4.89436 3.31974 0
M  V30 15451 H 1484.9 0.522062 0.544028 0
M  V30 15452 H 1487.55 1.67402 0.751589 0
M  V30 15453 H 1485.94 2.12959 3.33863 0
M  V30 15454 H 1487.11 4.34575 1.53236 0
M  V30 15455 H 1485.43 3.87158 1.5329 0
M  V30 15456 H 1488.02 3.25207 4.24434 0
M  V30 15457 H 1488.37 1.58579 3.84913 0
M  V30 15458 H 1488.9 2.87791 2.74629 0
M  V30 15459 H 1485.64 5.87071 2.91595 0
M  V30 15460 H 1485.16 4.50933 3.95499 0
M  V30 15461 H 1486.84 5.10331 3.97708 0
M  V30 15462 N 1486.97 -0.927146 1.27443 0
M  V30 15463 C 1487.93 -2.00938 1.10257 0
M  V30 15464 C 1488.93 -1.60733 0.0463898 0
M  V30 15465 O 1490.12 -1.71752 0.291029 0
M  V30 15466 C 1487.25 -3.34047 0.680115 0
M  V30 15467 H 1488.45 -2.17615 2.06358 0
M  V30 15468 H 1486 -1.10802 1.10239 0
M  V30 15469 H 1486.73 -3.23069 -0.282259 0
M  V30 15470 H 1486.52 -3.64585 1.44291 0
M  V30 15471 H 1488.01 -4.13523 0.582126 0
M  V30 15472 N 1488.45 -1.09474 -1.13372 0
M  V30 15473 C 1489.41 -0.738173 -2.16988 0
M  V30 15474 C 1490.41 0.232488 -1.5911 0
M  V30 15475 O 1491.6 0.0106093 -1.74197 0
M  V30 15476 C 1488.73 -0.091724 -3.40777 0
M  V30 15477 H 1489.92 -1.65582 -2.50045 0
M  V30 15478 H 1487.48 -0.893994 -1.28209 0
M  V30 15479 H 1488.21 0.837129 -3.13309 0
M  V30 15480 H 1488 -0.790161 -3.84056 0
M  V30 15481 H 1489.49 0.142334 -4.17357 0
M  V30 15482 N 1489.92 1.30607 -0.882012 0
M  V30 15483 C 1491.17 1.96547 -0.499703 0
M  V30 15484 C 1491.5 1.69484 0.948098 0
M  V30 15485 O 1490.78 0.997929 1.66948 0
M  V30 15486 C 1491.06 3.51735 -0.771662 0
M  V30 15487 C 1490.91 3.88326 -2.26987 0
M  V30 15488 C 1492.23 4.39411 -0.246178 0
M  V30 15489 H 1489.35 0.713912 -0.183026 0
M  V30 15490 H 1491.99 1.5453 -1.10546 0
M  V30 15491 H 1490.14 3.87655 -0.256092 0
M  V30 15492 H 1491.82 3.62444 -2.85362 0
M  V30 15493 H 1490.06 3.36501 -2.7377 0
M  V30 15494 H 1490.73 4.96574 -2.41078 0
M  V30 15495 H 1493.21 4.10382 -0.687419 0
M  V30 15496 H 1492.08 5.4692 -0.465817 0
M  V30 15497 H 1492.34 4.33804 0.852452 0
M  V30 15498 N 1491.4 0.642663 1.43901 0
M  V30 15499 C 1492.63 0.157518 2.06801 0
M  V30 15500 C 1493.05 -1.16361 1.47789 0
M  V30 15501 O 1492.41 -1.71645 0.583747 0
M  V30 15502 C 1492.46 0.0685904 3.60535 0
M  V30 15503 O 1491.56 -0.972183 4.00777 0
M  V30 15504 H 1490.9 0.0900406 0.657867 0
M  V30 15505 H 1493.43 0.882604 1.84584 0
M  V30 15506 H 1493.44 -0.118212 4.07829 0
M  V30 15507 H 1492.12 1.03307 4.02865 0
M  V30 15508 H 1490.7 -0.75902 3.65094 0
M  V30 15509 N 1492.88 -1.52852 0.383918 0
M  V30 15510 C 1493.83 -2.23089 -0.470652 0
M  V30 15511 C 1494.82 -1.23278 -1.03399 0
M  V30 15512 O 1496.01 -1.48641 -0.960985 0
M  V30 15513 C 1493.14 -3.03721 -1.60025 0
M  V30 15514 C 1492.22 -4.10924 -1.04892 0
M  V30 15515 N 1492.61 -5.05312 -0.222083 0
M  V30 15516 C 1490.91 -4.25958 -1.32195 0
M  V30 15517 C 1491.61 -5.81642 0.0818929 0
M  V30 15518 N 1490.59 -5.41101 -0.520629 0
M  V30 15519 H 1494.39 -2.93421 0.167663 0
M  V30 15520 H 1491.9 -1.6125 0.192927 0
M  V30 15521 H 1493.9 -3.52572 -2.22482 0
M  V30 15522 H 1492.56 -2.34924 -2.24145 0
M  V30 15523 H 1493.57 -5.1771 0.140223 0
M  V30 15524 H 1490.25 -3.68389 -1.96457 0
M  V30 15525 H 1491.64 -6.67684 0.751481 0
M  V30 15526 N 1494.36 -0.113586 -1.5719 0
M  V30 15527 C 1495.27 0.852428 -2.18565 0
M  V30 15528 C 1496.29 1.29668 -1.16026 0
M  V30 15529 O 1497.46 1.36079 -1.48474 0
M  V30 15530 C 1494.53 2.08675 -2.76867 0
M  V30 15531 C 1493.59 1.69493 -3.94424 0
M  V30 15532 C 1492.82 2.87042 -4.49936 0
M  V30 15533 O 1493.04 4.02311 -4.04354 0
M  V30 15534 O 1491.98 2.64439 -5.40699 0
M  V30 15535 H 1495.8 0.360144 -3.01557 0
M  V30 15536 H 1493.39 0.111744 -1.48982 0
M  V30 15537 H 1495.27 2.80976 -3.14054 0
M  V30 15538 H 1493.95 2.5692 -1.9691 0
M  V30 15539 H 1492.85 0.943161 -3.62016 0
M  V30 15540 H 1494.19 1.25995 -4.758 0
M  V30 15541 N 1495.84 1.56784 0.160173 0
M  V30 15542 C 1496.77 2.00298 1.20012 0
M  V30 15543 C 1497.75 0.880356 1.45546 0
M  V30 15544 O 1498.93 1.14724 1.56691 0
M  V30 15545 C 1496.06 2.37238 2.53645 0
M  V30 15546 C 1495.02 3.52563 2.42658 0
M  V30 15547 C 1494.34 3.75278 3.80881 0
M  V30 15548 C 1495.64 4.85657 1.92183 0
M  V30 15549 H 1497.34 2.87423 0.838362 0
M  V30 15550 H 1494.88 1.3828 0.401838 0
M  V30 15551 H 1496.84 2.66278 3.2661 0
M  V30 15552 H 1495.56 1.47035 2.9163 0
M  V30 15553 H 1494.22 3.23669 1.72146 0
M  V30 15554 H 1493.87 2.82347 4.1628 0
M  V30 15555 H 1493.57 4.52882 3.74396 0
M  V30 15556 H 1495.09 4.0673 4.55415 0
M  V30 15557 H 1496.51 5.13501 2.54931 0
M  V30 15558 H 1494.9 5.66975 1.96619 0
M  V30 15559 H 1495.97 4.76908 0.876742 0
M  V30 15560 N 1497.32 -0.429099 1.51646 0
M  V30 15561 C 1498.56 -1.17482 1.63954 0
M  V30 15562 C 1498.88 -1.92152 0.36565 0
M  V30 15563 O 1500.08 -2.68991 0.368221 0
M  V30 15564 C 1498.54 -2.13703 2.89585 0
M  V30 15565 C 1498.15 -1.44642 4.24008 0
M  V30 15566 C 1499.89 -2.88657 3.11252 0
M  V30 15567 C 1497.8 -2.39395 5.40781 0
M  V30 15568 H 1496.73 -0.442234 0.610692 0
M  V30 15569 H 1499.38 -0.441088 1.7812 0
M  V30 15570 H 1497.76 -2.90545 2.69071 0
M  V30 15571 H 1498.94 -0.733012 4.54932 0
M  V30 15572 H 1497.25 -0.818084 4.08285 0
M  V30 15573 H 1499.85 -3.59653 3.95669 0
M  V30 15574 H 1500.19 -3.50473 2.24664 0
M  V30 15575 H 1500.72 -2.18919 3.32144 0
M  V30 15576 H 1497.46 -1.82255 6.29653 0
M  V30 15577 H 1496.98 -3.08766 5.14222 0
M  V30 15578 H 1498.66 -3.0035 5.73061 0
M  V30 15579 N 1498.79 -1.41931 -0.685074 0
M  V30 15580 C 1500.02 -1.45229 -1.47364 0
M  V30 15581 C 1500.44 -0.060595 -1.88703 0
M  V30 15582 O 1499.79 0.92244 -1.57472 0
M  V30 15583 C 1499.84 -2.37033 -2.72942 0
M  V30 15584 O 1499.57 -3.70787 -2.33342 0
M  V30 15585 C 1501.07 -2.49244 -3.66596 0
M  V30 15586 H 1498.29 -0.494291 -0.453781 0
M  V30 15587 H 1500.83 -1.86333 -0.84263 0
M  V30 15588 H 1498.99 -1.9921 -3.32256 0
M  V30 15589 H 1499.4 -4.19853 -3.14362 0
M  V30 15590 H 1500.87 -3.17624 -4.51463 0
M  V30 15591 H 1501.35 -1.52703 -4.11799 0
M  V30 15592 H 1501.96 -2.87747 -3.1318 0
M  V30 15593 N 1500.27 0.920374 -1.27933 0
M  V30 15594 C 1501.5 1.70804 -1.17647 0
M  V30 15595 C 1501.92 1.86264 0.262189 0
M  V30 15596 O 1501.28 1.36798 1.18979 0
M  V30 15597 C 1501.33 3.08142 -1.87298 0
M  V30 15598 O 1500.43 3.95279 -1.17593 0
M  V30 15599 H 1499.77 0.523267 -0.408763 0
M  V30 15600 H 1502.3 1.15127 -1.69136 0
M  V30 15601 H 1502.31 3.58414 -1.94945 0
M  V30 15602 H 1500.99 2.96208 -2.91948 0
M  V30 15603 H 1499.56 3.53716 -1.18065 0
M  V30 15604 N 1501.75 1.10074 1.1279 0
M  V30 15605 C 1502.98 0.862906 1.88047 0
M  V30 15606 C 1503.39 -0.586346 1.79464 0
M  V30 15607 O 1502.75 -1.40402 1.16591 0
M  V30 15608 C 1502.8 1.29784 3.37399 0
M  V30 15609 O 1502.52 2.69026 3.4577 0
M  V30 15610 C 1504.02 1.09336 4.29605 0
M  V30 15611 H 1501.24 0.309981 0.595108 0
M  V30 15612 H 1503.79 1.46444 1.42738 0
M  V30 15613 H 1501.94 0.740056 3.80266 0
M  V30 15614 H 1502.36 2.87532 4.38663 0
M  V30 15615 H 1503.83 1.44687 5.327 0
M  V30 15616 H 1504.31 0.031679 4.39189 0
M  V30 15617 H 1504.91 1.63743 3.92516 0
M  V30 15618 N 1503.23 -1.30138 0.888926 0
M  V30 15619 C 1504.46 -2.00143 0.524437 0
M  V30 15620 C 1504.87 -1.66608 -0.888093 0
M  V30 15621 O 1504.23 -0.905326 -1.58462 0
M  V30 15622 C 1504.28 -3.54769 0.694327 0
M  V30 15623 O 1504 -3.87112 2.05125 0
M  V30 15624 C 1505.5 -4.42045 0.333354 0
M  V30 15625 H 1502.72 -0.639775 0.202309 0
M  V30 15626 H 1505.26 -1.65929 1.19531 0
M  V30 15627 H 1503.42 -3.87335 0.0707712 0
M  V30 15628 H 1503.83 -4.81807 2.07275 0
M  V30 15629 H 1505.31 -5.49702 0.503107 0
M  V30 15630 H 1505.78 -4.33109 -0.728893 0
M  V30 15631 H 1506.39 -4.14931 0.933398 0
M  V30 15632 N 1504.71 -0.650285 -1.43559 0
M  V30 15633 C 1506.12 -0.317586 -1.56408 0
M  V30 15634 C 1506.32 1.17844 -1.63447 0
M  V30 15635 O 1505.38 1.96318 -1.58794 0
M  V30 15636 C 1506.69 -1.02636 -2.82642 0
M  V30 15637 C 1508.24 -1.00633 -2.96381 0
M  V30 15638 C 1508.71 -1.69595 -4.25443 0
M  V30 15639 N 1510.2 -1.66345 -4.323 0
M  V30 15640 C 1510.94 -2.16581 -5.30924 0
M  V30 15641 N 1510.44 -2.75092 -6.35843 0
M  V30 15642 N 1512.23 -2.07098 -5.22558 0
M  V30 15643 H 1504.38 -1.62114 -1.37233 0
M  V30 15644 H 1506.64 -0.681588 -0.658895 0
M  V30 15645 H 1506.35 -2.08146 -2.83493 0
M  V30 15646 H 1506.22 -0.576081 -3.72775 0
M  V30 15647 H 1508.61 0.0403519 -2.95072 0
M  V30 15648 H 1508.69 -1.49528 -2.07545 0
M  V30 15649 H 1508.33 -2.74218 -4.27512 0
M  V30 15650 H 1508.26 -1.18168 -5.1317 0
M  V30 15651 H 1510.76 -1.23644 -3.571 0
M  V30 15652 H 1511.07 -3.11108 -7.07412 0
M  V30 15653 H 1509.41 -2.79152 -6.36474 0
M  V30 15654 H 1512.6 -1.61093 -4.39507 0
M  V30 15655 H 1512.78 -2.46557 -5.99261 0
M  V30 15656 N 1506.18 1.52647 -0.392018 0
M  V30 15657 C 1507.15 2.25135 0.429754 0
M  V30 15658 C 1508.15 1.26871 0.987946 0
M  V30 15659 O 1509.34 1.50947 0.86952 0
M  V30 15660 C 1506.47 3.00849 1.60321 0
M  V30 15661 H 1507.66 2.99199 -0.204918 0
M  V30 15662 H 1505.21 1.55634 -0.144188 0
M  V30 15663 H 1505.95 2.31092 2.27524 0
M  V30 15664 H 1505.73 3.72975 1.20964 0
M  V30 15665 H 1507.22 3.55879 2.18494 0
M  V30 15666 N 1507.66 0.121921 1.57128 0
M  V30 15667 C 1508.59 -0.823788 2.18486 0
M  V30 15668 C 1509.57 -1.27519 1.12574 0
M  V30 15669 O 1510.76 -1.33727 1.40822 0
M  V30 15670 C 1507.89 -2.07284 2.78659 0
M  V30 15671 C 1506.84 -1.75912 3.90178 0
M  V30 15672 C 1506.17 -3.07871 4.37172 0
M  V30 15673 C 1507.47 -1.02517 5.1214 0
M  V30 15674 H 1509.16 -0.312488 2.97765 0
M  V30 15675 H 1506.71 -0.148862 1.43228 0
M  V30 15676 H 1508.66 -2.73903 3.20242 0
M  V30 15677 H 1507.39 -2.60743 1.96673 0
M  V30 15678 H 1506.04 -1.11681 3.49174 0
M  V30 15679 H 1505.69 -3.59271 3.52041 0
M  V30 15680 H 1505.39 -2.87653 5.12376 0
M  V30 15681 H 1506.92 -3.75604 4.81409 0
M  V30 15682 H 1508.33 -1.59295 5.50725 0
M  V30 15683 H 1506.73 -0.923836 5.92946 0
M  V30 15684 H 1507.8 -0.0124219 4.84898 0
M  V30 15685 N 1509.14 -1.56867 -0.151857 0
M  V30 15686 C 1510.37 -1.87237 -0.880343 0
M  V30 15687 C 1510.78 -0.709565 -1.74959 0
M  V30 15688 O 1510.14 0.320818 -1.79658 0
M  V30 15689 C 1510.19 -3.16811 -1.74107 0
M  V30 15690 O 1509.91 -4.28611 -0.906858 0
M  V30 15691 C 1511.41 -3.60662 -2.57755 0
M  V30 15692 H 1508.63 -0.62074 -0.254799 0
M  V30 15693 H 1511.18 -2.03977 -0.146104 0
M  V30 15694 H 1509.33 -3.01838 -2.42842 0
M  V30 15695 H 1509.75 -5.02673 -1.49733 0
M  V30 15696 H 1511.22 -4.54176 -3.13732 0
M  V30 15697 H 1511.7 -2.85716 -3.33561 0
M  V30 15698 H 1512.3 -3.78312 -1.94319 0
M  V30 15699 N 1510.62 0.421051 -1.51871 0
M  V30 15700 C 1511.87 1.16908 -1.65344 0
M  V30 15701 C 1512.19 1.90801 -0.377538 0
M  V30 15702 O 1511.45 1.84972 0.639061 0
M  V30 15703 C 1511.75 2.19819 -2.81806 0
M  V30 15704 C 1511.41 1.62821 -4.20476 0
M  V30 15705 C 1510.08 1.47 -4.58197 0
M  V30 15706 C 1512.43 1.21079 -5.06941 0
M  V30 15707 C 1509.76 0.879359 -5.80073 0
M  V30 15708 C 1512.11 0.634373 -6.29411 0
M  V30 15709 C 1510.77 0.4632 -6.65891 0
M  V30 15710 H 1510.04 0.427798 -0.605037 0
M  V30 15711 H 1512.69 0.457896 -1.85945 0
M  V30 15712 H 1510.99 2.97037 -2.55492 0
M  V30 15713 H 1512.69 2.77548 -2.89427 0
M  V30 15714 H 1509.28 1.76115 -3.90745 0
M  V30 15715 H 1513.46 1.32115 -4.78392 0
M  V30 15716 H 1508.72 0.734646 -6.0697 0
M  V30 15717 H 1512.89 0.302484 -6.95743 0
M  V30 15718 H 1510.52 0.00341397 -7.602 0
M  V30 15719 N 1512.1 1.42293 0.677538 0
M  V30 15720 C 1513.34 1.42334 1.43476 0
M  V30 15721 C 1513.67 0.0397842 1.94959 0
M  V30 15722 O 1512.94 -0.921258 1.72886 0
M  V30 15723 H 1511.52 0.523969 0.532415 0
M  V30 15724 H 1514.18 1.7769 0.800758 0
M  V30 15725 H 1513.27 2.12146 2.28912 0
M  V30 15726 N 1513.57 -0.913576 1.28419 0
M  V30 15727 C 1514.81 -1.67716 1.16836 0
M  V30 15728 C 1515.18 -1.8997 -0.278452 0
M  V30 15729 O 1516.38 -2.63781 -0.516994 0
M  V30 15730 C 1514.65 -2.99838 1.94504 0
M  V30 15731 S 1516.21 -3.9093 1.99297 0
M  V30 15732 H 1513.03 -0.575987 0.416845 0
M  V30 15733 H 1515.63 -1.08661 1.62521 0
M  V30 15734 H 1514.33 -2.81343 2.98788 0
M  V30 15735 H 1513.86 -3.6394 1.4937 0
M  V30 15736 H 1515.88 -4.83863 1.0996 0
M  V30 15737 N 1515.05 -1.1067 -1.12204 0
M  V30 15738 C 1516.29 -0.860466 -1.85406 0
M  V30 15739 C 1516.66 0.603027 -1.82284 0
M  V30 15740 O 1517.86 0.965713 -2.50853 0
M  V30 15741 C 1516.13 -1.39677 -3.28976 0
M  V30 15742 S 1517.69 -1.28633 -4.19522 0
M  V30 15743 H 1514.51 -0.31087 -0.639438 0
M  V30 15744 H 1517.11 -1.41263 -1.35148 0
M  V30 15745 H 1515.81 -2.45588 -3.28808 0
M  V30 15746 H 1515.34 -0.841293 -3.84299 0
M  V30 15747 H 1517.36 -0.245599 -4.95592 0
M  V30 15748 N 1516.53 1.29665 -0.895815 0
M  V30 15749 C 1517.44 2.31582 -0.375086 0
M  V30 15750 C 1518.46 1.65789 0.528196 0
M  V30 15751 O 1519.63 1.96999 0.41871 0
M  V30 15752 C 1516.7 3.44472 0.39241 0
M  V30 15753 C 1515.76 4.25866 -0.541926 0
M  V30 15754 C 1514.99 5.33365 0.189037 0
M  V30 15755 O 1515.21 5.52607 1.41355 0
M  V30 15756 O 1514.15 6.0009 -0.466441 0
M  V30 15757 H 1517.97 2.78095 -1.22052 0
M  V30 15758 H 1515.56 1.34031 -0.660007 0
M  V30 15759 H 1517.44 4.13214 0.826565 0
M  V30 15760 H 1516.12 3.00074 1.21397 0
M  V30 15761 H 1515.02 3.59781 -1.02512 0
M  V30 15762 H 1516.36 4.73896 -1.32979 0
M  V30 15763 N 1518.01 0.657889 1.43212 0
M  V30 15764 C 1518.97 -0.0214783 2.2919 0
M  V30 15765 C 1519.97 -0.745921 1.42452 0
M  V30 15766 O 1521.16 -0.586468 1.64031 0
M  V30 15767 C 1518.29 -1.04115 3.24612 0
M  V30 15768 H 1519.49 0.735072 2.90752 0
M  V30 15769 H 1517.04 0.419354 1.50569 0
M  V30 15770 H 1517.77 -1.82677 2.67954 0
M  V30 15771 H 1517.56 -0.525285 3.88566 0
M  V30 15772 H 1519.05 -1.51544 3.89132 0
M  V30 15773 N 1519.49 -1.52437 0.400108 0
M  V30 15774 C 1520.42 -2.29672 -0.421054 0
M  V30 15775 C 1521.4 -1.33506 -1.05405 0
M  V30 15776 O 1522.58 -1.62408 -1.06477 0
M  V30 15777 C 1519.71 -3.1115 -1.54281 0
M  V30 15778 C 1518.67 -4.1529 -1.0353 0
M  V30 15779 C 1517.99 -4.85058 -2.24996 0
M  V30 15780 C 1519.29 -5.22212 -0.0956529 0
M  V30 15781 H 1520.99 -2.98565 0.2234 0
M  V30 15782 H 1518.53 -1.43588 0.108883 0
M  V30 15783 H 1520.49 -3.63945 -2.12419 0
M  V30 15784 H 1519.21 -2.4001 -2.21501 0
M  V30 15785 H 1517.87 -3.63492 -0.476383 0
M  V30 15786 H 1517.52 -4.10455 -2.9075 0
M  V30 15787 H 1517.22 -5.55452 -1.91694 0
M  V30 15788 H 1518.74 -5.40661 -2.83756 0
M  V30 15789 H 1520.15 -5.70302 -0.585548 0
M  V30 15790 H 1518.55 -5.99917 0.148121 0
M  V30 15791 H 1519.62 -4.77351 0.852296 0
M  V30 15792 N 1520.96 -0.130252 -1.57061 0
M  V30 15793 C 1522.2 0.527958 -1.97464 0
M  V30 15794 C 1522.57 1.63126 -1.01261 0
M  V30 15795 O 1523.77 2.34916 -1.30644 0
M  V30 15796 C 1522.04 1.03657 -3.42038 0
M  V30 15797 S 1523.6 1.70173 -4.04459 0
M  V30 15798 H 1520.42 0.171256 -0.690067 0
M  V30 15799 H 1523.02 -0.218 -1.94281 0
M  V30 15800 H 1521.72 0.222568 -4.09796 0
M  V30 15801 H 1521.25 1.81754 -3.48897 0
M  V30 15802 H 1523.27 2.98813 -3.96138 0
M  V30 15803 N 1522.44 1.56945 0.143535 0
M  V30 15804 C 1523.37 2.0156 1.17881 0
M  V30 15805 C 1524.35 0.895744 1.44604 0
M  V30 15806 O 1525.54 1.16379 1.55466 0
M  V30 15807 C 1522.67 2.39915 2.51114 0
M  V30 15808 C 1521.62 3.55117 2.38905 0
M  V30 15809 C 1520.95 3.79296 3.7688 0
M  V30 15810 C 1522.25 4.87668 1.87021 0
M  V30 15811 H 1523.94 2.88296 0.80783 0
M  V30 15812 H 1521.49 1.38698 0.387149 0
M  V30 15813 H 1523.44 2.69727 3.23767 0
M  V30 15814 H 1522.17 1.5012 2.90055 0
M  V30 15815 H 1520.83 3.25476 1.68703 0
M  V30 15816 H 1520.47 2.86747 4.13262 0
M  V30 15817 H 1520.17 4.56827 3.69571 0
M  V30 15818 H 1521.7 4.11537 4.51076 0
M  V30 15819 H 1523.11 5.16176 2.4947 0
M  V30 15820 H 1521.51 5.69029 1.90594 0
M  V30 15821 H 1522.58 4.77811 0.82611 0
M  V30 15822 N 1523.92 -0.412991 1.52093 0
M  V30 15823 C 1524.85 -1.50986 1.78117 0
M  V30 15824 C 1525.83 -1.57925 0.631963 0
M  V30 15825 O 1527.02 -1.73261 0.877168 0
M  V30 15826 C 1524.15 -2.88846 1.92835 0
M  V30 15827 C 1523.1 -2.96759 3.08412 0
M  V30 15828 C 1522.43 -4.36837 3.08347 0
M  V30 15829 C 1523.73 -2.68599 4.47942 0
M  V30 15830 H 1525.42 -1.29459 2.69964 0
M  V30 15831 H 1522.97 -0.621348 1.29905 0
M  V30 15832 H 1524.92 -3.65563 2.09623 0
M  V30 15833 H 1523.64 -3.11658 0.976553 0
M  V30 15834 H 1522.3 -2.22487 2.91368 0
M  V30 15835 H 1521.95 -4.56652 2.10897 0
M  V30 15836 H 1521.65 -4.43056 3.85973 0
M  V30 15837 H 1523.18 -5.15493 3.2726 0
M  V30 15838 H 1524.59 -3.35039 4.65212 0
M  V30 15839 H 1522.99 -2.86199 5.27456 0
M  V30 15840 H 1524.06 -1.64058 4.56304 0
M  V30 15841 N 1525.4 -1.4265 -0.669982 0
M  V30 15842 C 1526.62 -1.46992 -1.46315 0
M  V30 15843 C 1527.05 -0.0840655 -1.87912 0
M  V30 15844 O 1526.41 0.918554 -1.56308 0
M  V30 15845 C 1526.46 -2.40663 -2.6854 0
M  V30 15846 O 1525.56 -1.88132 -3.66988 0
M  V30 15847 H 1524.9 -0.497844 -0.439372 0
M  V30 15848 H 1527.43 -1.8739 -0.821348 0
M  V30 15849 H 1527.44 -2.57405 -3.16554 0
M  V30 15850 H 1526.12 -3.41346 -2.37604 0
M  V30 15851 H 1524.69 -1.80969 -3.26044 0
M  V30 15852 N 1526.88 0.906753 -1.28902 0
M  V30 15853 C 1528.11 1.69019 -1.19333 0
M  V30 15854 C 1528.52 1.87176 0.247065 0
M  V30 15855 O 1527.88 1.40376 1.16623 0
M  V30 15856 C 1527.93 3.07854 -1.89495 0
M  V30 15857 O 1527.65 2.90531 -3.27908 0
M  V30 15858 C 1529.15 4.02246 -1.86314 0
M  V30 15859 H 1526.37 0.528119 -0.413922 0
M  V30 15860 H 1528.91 1.13441 -1.70151 0
M  V30 15861 H 1527.07 3.60228 -1.42529 0
M  V30 15862 H 1527.48 3.78451 -3.63146 0
M  V30 15863 H 1528.96 4.97104 -2.39983 0
M  V30 15864 H 1529.43 4.31149 -0.837071 0
M  V30 15865 H 1530.04 3.55803 -2.3299 0
M  V30 15866 N 1528.36 1.11264 1.11616 0
M  V30 15867 C 1529.32 0.7726 2.15786 0
M  V30 15868 C 1530.32 -0.207145 1.5946 0
M  V30 15869 O 1531.51 0.0171053 1.74192 0
M  V30 15870 C 1528.64 0.145927 3.40588 0
M  V30 15871 H 1529.83 1.69539 2.47379 0
M  V30 15872 H 1527.39 0.914278 1.2677 0
M  V30 15873 H 1528.12 -0.787178 3.14601 0
M  V30 15874 H 1527.91 0.851161 3.8275 0
M  V30 15875 H 1529.4 -0.0759176 4.17531 0
M  V30 15876 N 1529.83 -1.29188 0.902679 0
M  V30 15877 C 1531.08 -1.95438 0.530124 0
M  V30 15878 C 1531.41 -1.71142 -0.924149 0
M  V30 15879 O 1530.66 -1.01901 -1.67077 0
M  V30 15880 C 1530.96 -3.48951 0.772542 0
M  V30 15881 C 1530.63 -3.93328 2.20464 0
M  V30 15882 C 1529.29 -4.05155 2.59621 0
M  V30 15883 C 1531.64 -4.16216 3.13709 0
M  V30 15884 C 1528.97 -4.37242 3.91198 0
M  V30 15885 C 1531.32 -4.49779 4.44839 0
M  V30 15886 C 1529.99 -4.59817 4.83865 0
M  V30 15887 H 1529.26 -0.715158 0.193986 0
M  V30 15888 H 1531.9 -1.5373 1.1419 0
M  V30 15889 H 1530.21 -3.91723 0.0778683 0
M  V30 15890 H 1531.91 -3.98311 0.463623 0
M  V30 15891 H 1528.5 -3.84641 1.89075 0
M  V30 15892 H 1532.68 -4.06542 2.8467 0
M  V30 15893 H 1527.94 -4.43217 4.21152 0
M  V30 15894 H 1532.11 -4.66439 5.17115 0
M  V30 15895 H 1529.74 -4.84435 5.85856 0
M  V30 15896 N 1531.31 -0.665475 -1.42861 0
M  V30 15897 C 1532.72 -0.26225 -1.84849 0
M  V30 15898 C 1533.07 1.19372 -1.55707 0
M  V30 15899 O 1532.2 1.91269 -1.01218 0
M  V30 15900 C 1532.79 -0.469189 -3.35535 0
M  V30 15901 C 1531.35 -0.120172 -3.76208 0
M  V30 15902 C 1530.5 -0.766153 -2.66506 0
M  V30 15903 H 1533.45 -0.868296 -1.32839 0
M  V30 15904 H 1533.47 0.281571 -3.79457 0
M  V30 15905 H 1532.98 -1.52894 -3.56714 0
M  V30 15906 H 1531.08 0.936505 -3.60639 0
M  V30 15907 H 1531.2 -0.554188 -4.75884 0
M  V30 15908 H 1529.56 -0.198292 -2.53927 0
M  V30 15909 H 1530.34 -1.82918 -2.9051 0
M  V30 15910 N 1532.79 1.52222 -0.408187 0
M  V30 15911 C 1534.04 2.02102 0.168154 0
M  V30 15912 C 1534.37 1.2933 1.4487 0
M  V30 15913 O 1533.64 0.399336 1.90356 0
M  V30 15914 C 1533.93 3.57679 0.416821 0
M  V30 15915 C 1533.78 4.41101 -0.880335 0
M  V30 15916 C 1535.1 4.23442 1.19936 0
M  V30 15917 H 1532.22 0.734583 0.0596402 0
M  V30 15918 H 1534.86 1.82121 -0.541467 0
M  V30 15919 H 1533.01 3.74835 1.02131 0
M  V30 15920 H 1534.68 4.35658 -1.51656 0
M  V30 15921 H 1532.92 4.07353 -1.49152 0
M  V30 15922 H 1533.6 5.48031 -0.660748 0
M  V30 15923 H 1536.07 4.10379 0.687605 0
M  V30 15924 H 1534.95 5.32239 1.3421 0
M  V30 15925 H 1535.21 3.82335 2.21973 0
M  V30 15926 N 1534.27 0.138579 1.5699 0
M  V30 15927 C 1535.51 -0.517479 1.97741 0
M  V30 15928 C 1535.87 -1.62587 1.02125 0
M  V30 15929 O 1537.07 -2.3422 1.31888 0
M  V30 15930 C 1535.34 -1.01841 3.42583 0
M  V30 15931 S 1536.9 -1.68025 4.05355 0
M  V30 15932 H 1533.72 -0.167594 0.690965 0
M  V30 15933 H 1536.32 0.2283 1.94162 0
M  V30 15934 H 1535.03 -0.200832 4.09908 0
M  V30 15935 H 1534.56 -1.79901 3.49856 0
M  V30 15936 H 1536.57 -2.96708 3.97717 0
M  V30 15937 N 1535.75 -1.57019 -0.13521 0
M  V30 15938 C 1536.99 -1.83178 -0.844308 0
M  V30 15939 C 1537.31 -0.7217 -1.81799 0
M  V30 15940 O 1538.51 -0.869232 -2.57209 0
M  V30 15941 C 1536.97 -3.2471 -1.55214 0
M  V30 15942 C 1536.58 -4.43685 -0.620268 0
M  V30 15943 C 1538.32 -3.60133 -2.24732 0
M  V30 15944 C 1536.23 -5.76242 -1.3304 0
M  V30 15945 H 1535.16 -0.683175 -0.319041 0
M  V30 15946 H 1537.81 -1.83243 -0.0970242 0
M  V30 15947 H 1536.19 -3.19067 -2.34547 0
M  V30 15948 H 1537.37 -4.60591 0.138685 0
M  V30 15949 H 1535.68 -4.16387 -0.0328906 0
M  V30 15950 H 1538.28 -4.56431 -2.78522 0
M  V30 15951 H 1538.62 -2.86767 -3.01779 0
M  V30 15952 H 1539.15 -3.67489 -1.52305 0
M  V30 15953 H 1535.89 -6.52734 -0.60155 0
M  V30 15954 H 1535.41 -5.63251 -2.06176 0
M  V30 15955 H 1537.09 -6.19445 -1.86808 0
M  V30 15956 N 1537.22 0.404919 -1.52309 0
M  V30 15957 C 1538.47 1.1499 -1.67776 0
M  V30 15958 C 1538.83 1.88094 -0.404753 0
M  V30 15959 O 1538.12 1.81931 0.600975 0
M  V30 15960 C 1538.31 2.16817 -2.84121 0
M  V30 15961 C 1538.14 1.53712 -4.22614 0
M  V30 15962 C 1536.91 1.30802 -4.88077 0
M  V30 15963 C 1539.11 0.995747 -5.04569 0
M  V30 15964 N 1537.09 0.636344 -6.10593 0
M  V30 15965 C 1538.46 0.451225 -6.18356 0
M  V30 15966 C 1540.52 0.890617 -4.8987 0
M  V30 15967 C 1539.22 -0.188129 -7.19054 0
M  V30 15968 C 1541.25 0.26511 -5.90805 0
M  V30 15969 C 1540.61 -0.268716 -7.03887 0
M  V30 15970 H 1536.71 0.407302 -0.667554 0
M  V30 15971 H 1539.29 0.441678 -1.89624 0
M  V30 15972 H 1537.46 2.84993 -2.63882 0
M  V30 15973 H 1539.19 2.83707 -2.88604 0
M  V30 15974 H 1535.95 1.57869 -4.46513 0
M  V30 15975 H 1536.37 0.317008 -6.76257 0
M  V30 15976 H 1541.02 1.28915 -4.02667 0
M  V30 15977 H 1538.73 -0.598717 -8.05879 0
M  V30 15978 H 1542.32 0.185229 -5.81505 0
M  V30 15979 H 1541.2 -0.745099 -7.80652 0
M  V30 15980 N 1538.7 1.43003 0.662408 0
M  V30 15981 C 1539.93 1.47766 1.45533 0
M  V30 15982 C 1540.35 0.0940298 1.87865 0
M  V30 15983 O 1539.71 -0.910252 1.56793 0
M  V30 15984 C 1539.76 2.42084 2.6726 0
M  V30 15985 O 1538.86 1.90076 3.65985 0
M  V30 15986 H 1538.2 0.500167 0.436725 0
M  V30 15987 H 1540.73 1.87823 0.811399 0
M  V30 15988 H 1540.74 2.5908 3.15185 0
M  V30 15989 H 1539.42 3.42601 2.3579 0
M  V30 15990 H 1538 1.82695 3.2508 0
M  V30 15991 N 1540.18 -0.899904 1.29381 0
M  V30 15992 C 1541.11 -2.02045 1.17047 0
M  V30 15993 C 1542.09 -1.69977 0.0647354 0
M  V30 15994 O 1543.28 -1.92659 0.244173 0
M  V30 15995 C 1540.41 -3.36839 0.845991 0
M  V30 15996 C 1539.36 -3.83117 1.90802 0
M  V30 15997 C 1538.69 -5.15032 1.43686 0
M  V30 15998 C 1539.99 -4.03464 3.31684 0
M  V30 15999 H 1541.68 -2.12623 2.10789 0
M  V30 16000 H 1539.23 -1.02162 1.01484 0
M  V30 16001 H 1541.18 -4.14737 0.746413 0
M  V30 16002 H 1539.9 -3.26352 -0.127125 0
M  V30 16003 H 1538.56 -3.07435 1.99698 0
M  V30 16004 H 1538.21 -5.00961 0.452422 0
M  V30 16005 H 1537.91 -5.46967 2.14711 0
M  V30 16006 H 1539.43 -5.95472 1.35078 0
M  V30 16007 H 1540.85 -4.71845 3.25631 0
M  V30 16008 H 1539.25 -4.46752 4.00665 0
M  V30 16009 H 1540.32 -3.07807 3.74677 0
M  V30 16010 N 1541.66 -1.11854 -1.11024 0
M  V30 16011 C 1542.91 -0.868355 -1.82494 0
M  V30 16012 C 1543.23 0.607622 -1.85292 0
M  V30 16013 O 1542.5 1.44147 -1.32659 0
M  V30 16014 H 1541.08 -0.31826 -0.67581 0
M  V30 16015 H 1543.74 -1.4118 -1.34366 0
M  V30 16016 H 1542.84 -1.24441 -2.86218 0
M  V30 16017 N 1543.14 1.28707 -0.909517 0
M  V30 16018 C 1544.38 1.95803 -0.550719 0
M  V30 16019 C 1544.74 1.70317 0.894977 0
M  V30 16020 O 1544.03 1.01121 1.62742 0
M  V30 16021 C 1544.22 3.48536 -0.791037 0
M  V30 16022 C 1544.05 3.8887 -2.25854 0
M  V30 16023 C 1542.82 4.13246 -2.90785 0
M  V30 16024 C 1545.02 3.99848 -3.2346 0
M  V30 16025 N 1543 4.40221 -4.27877 0
M  V30 16026 C 1544.37 4.30988 -4.45701 0
M  V30 16027 C 1546.43 3.82357 -3.18916 0
M  V30 16028 C 1545.13 4.46459 -5.63974 0
M  V30 16029 C 1547.16 3.99043 -4.36484 0
M  V30 16030 C 1546.52 4.30552 -5.57498 0
M  V30 16031 H 1542.62 0.740517 -0.251314 0
M  V30 16032 H 1545.2 1.55447 -1.17237 0
M  V30 16033 H 1543.37 3.87891 -0.198693 0
M  V30 16034 H 1545.11 4.02751 -0.396693 0
M  V30 16035 H 1541.86 4.0738 -2.41534 0
M  V30 16036 H 1542.29 4.578 -4.98747 0
M  V30 16037 H 1546.93 3.57052 -2.26438 0
M  V30 16038 H 1544.65 4.70598 -6.56935 0
M  V30 16039 H 1548.23 3.86951 -4.34466 0
M  V30 16040 H 1547.11 4.43192 -6.46955 0
M  V30 16041 N 1544.61 0.673042 1.42506 0
M  V30 16042 C 1545.56 -0.0291025 2.27981 0
M  V30 16043 C 1546.55 -0.775296 1.40989 0
M  V30 16044 O 1547.74 -0.654498 1.64455 0
M  V30 16045 C 1544.87 -0.9809 3.28988 0
M  V30 16046 C 1543.96 -0.232141 4.23464 0
M  V30 16047 N 1544.35 0.762036 5.00027 0
M  V30 16048 C 1542.64 -0.470831 4.43508 0
M  V30 16049 C 1543.35 1.20826 5.69013 0
M  V30 16050 N 1542.32 0.538559 5.40926 0
M  V30 16051 H 1546.12 0.733484 2.846 0
M  V30 16052 H 1543.64 0.501961 1.54448 0
M  V30 16053 H 1545.63 -1.49888 3.89023 0
M  V30 16054 H 1544.29 -1.74333 2.73931 0
M  V30 16055 H 1545.31 1.14151 5.05163 0
M  V30 16056 H 1541.98 -1.2129 3.99493 0
M  V30 16057 H 1543.37 2.03199 6.40437 0
M  V30 16058 N 1546.09 -1.52004 0.416254 0
M  V30 16059 C 1547.33 -2.03799 -0.156638 0
M  V30 16060 C 1547.7 -1.29476 -1.41775 0
M  V30 16061 O 1548.9 -1.71534 -2.06953 0
M  V30 16062 C 1547.17 -3.55251 -0.391311 0
M  V30 16063 S 1548.73 -4.28818 -0.93063 0
M  V30 16064 H 1545.55 -0.709775 -0.0417176 0
M  V30 16065 H 1548.15 -1.86981 0.570812 0
M  V30 16066 H 1546.85 -4.06921 0.533206 0
M  V30 16067 H 1546.38 -3.76325 -1.14644 0
M  V30 16068 H 1548.4 -4.44244 -2.21046 0
M  V30 16069 N 1547.57 -0.146903 -1.56914 0
M  V30 16070 C 1548.82 0.503237 -1.95734 0
M  V30 16071 C 1549.14 1.65407 -1.03275 0
M  V30 16072 O 1548.41 1.95673 -0.0942784 0
M  V30 16073 H 1546.99 0.188899 -0.722721 0
M  V30 16074 H 1549.65 -0.222379 -1.93627 0
M  V30 16075 H 1548.75 0.879445 -2.99453 0
M  V30 16076 N 1549.05 1.57088 0.126881 0
M  V30 16077 C 1550.29 1.84709 0.837287 0
M  V30 16078 C 1550.63 0.731496 1.79897 0
M  V30 16079 O 1549.9 -0.263319 1.92709 0
M  V30 16080 C 1550.19 3.22893 1.59412 0
M  V30 16081 C 1550.04 4.45041 0.652578 0
M  V30 16082 C 1551.36 3.58547 2.5521 0
M  V30 16083 H 1548.48 0.671862 0.302937 0
M  V30 16084 H 1551.12 1.89727 0.101783 0
M  V30 16085 H 1549.27 3.18746 2.22112 0
M  V30 16086 H 1550.94 4.61287 0.0350382 0
M  V30 16087 H 1549.18 4.33785 -0.0364578 0
M  V30 16088 H 1549.85 5.38381 1.21861 0
M  V30 16089 H 1552.33 3.63434 2.0262 0
M  V30 16090 H 1551.21 4.56227 3.05202 0
M  V30 16091 H 1551.47 2.85552 3.37509 0
M  V30 16092 N 1550.53 -0.396836 1.52522 0
M  V30 16093 C 1551.94 -0.975124 1.59211 0
M  V30 16094 C 1552.29 -1.91199 0.440138 0
M  V30 16095 O 1551.41 -2.11924 -0.437856 0
M  V30 16096 C 1552.01 -1.77531 2.88562 0
M  V30 16097 C 1550.57 -2.30343 2.9769 0
M  V30 16098 C 1549.71 -1.10671 2.54258 0
M  V30 16099 H 1552.67 -0.176646 1.57714 0
M  V30 16100 H 1552.69 -2.63384 2.74607 0
M  V30 16101 H 1552.2 -1.09318 3.72386 0
M  V30 16102 H 1550.3 -3.01891 2.18387 0
M  V30 16103 H 1550.41 -2.60366 4.02177 0
M  V30 16104 H 1548.78 -1.46439 2.08393 0
M  V30 16105 H 1549.56 -0.440061 3.40468 0
M  V30 16106 N 1552.01 -1.43353 -0.654814 0
M  V30 16107 C 1553.42 -1.39933 -1.23595 0
M  V30 16108 C 1553.77 -0.102592 -1.95932 0
M  V30 16109 O 1552.89 0.798021 -2.01148 0
M  V30 16110 C 1553.49 -2.53483 -2.24793 0
M  V30 16111 C 1552.05 -2.53333 -2.78387 0
M  V30 16112 C 1551.19 -2.31268 -1.53005 0
M  V30 16113 H 1554.14 -1.52277 -0.446932 0
M  V30 16114 H 1554.17 -2.2488 -3.06935 0
M  V30 16115 H 1553.68 -3.47847 -1.72116 0
M  V30 16116 H 1551.78 -1.62844 -3.35131 0
M  V30 16117 H 1551.89 -3.51047 -3.26041 0
M  V30 16118 H 1550.26 -1.79905 -1.80295 0
M  V30 16119 H 1551.04 -3.27714 -1.02266 0
M  V30 16120 N 1553.48 0.89303 -1.29857 0
M  V30 16121 C 1554.41 2.01422 -1.18117 0
M  V30 16122 C 1555.39 1.6994 -0.0737487 0
M  V30 16123 O 1556.58 1.92527 -0.254387 0
M  V30 16124 C 1553.71 3.36385 -0.863842 0
M  V30 16125 C 1552.66 3.821 -1.92831 0
M  V30 16126 C 1551.99 5.14263 -1.46415 0
M  V30 16127 C 1553.29 4.01699 -3.33819 0
M  V30 16128 H 1554.98 2.11502 -2.11913 0
M  V30 16129 H 1552.53 1.01622 -1.02024 0
M  V30 16130 H 1554.48 4.14335 -0.768397 0
M  V30 16131 H 1553.21 3.26415 0.109816 0
M  V30 16132 H 1551.87 3.06372 -2.01325 0
M  V30 16133 H 1551.51 5.00714 -0.478983 0
M  V30 16134 H 1551.21 5.45821 -2.17609 0
M  V30 16135 H 1552.74 5.94747 -1.38234 0
M  V30 16136 H 1554.15 4.70111 -3.28129 0
M  V30 16137 H 1552.55 4.44621 -4.03029 0
M  V30 16138 H 1553.62 3.05816 -3.76304 0
M  V30 16139 N 1554.96 1.12442 1.10429 0
M  V30 16140 C 1556.19 0.902914 1.86714 0
M  V30 16141 C 1556.61 -0.542514 1.80107 0
M  V30 16142 O 1555.97 -1.38406 1.17105 0
M  V30 16143 C 1556.02 1.38238 3.33051 0
M  V30 16144 O 1555.12 0.560877 4.08568 0
M  V30 16145 H 1554.46 0.324397 0.579364 0
M  V30 16146 H 1556.99 1.49652 1.39519 0
M  V30 16147 H 1557 1.38148 3.839 0
M  V30 16148 H 1555.68 2.43486 3.37176 0
M  V30 16149 H 1554.25 0.628771 3.67561 0
M  V30 16150 N 1556.44 -1.28223 0.91633 0
M  V30 16151 C 1557.4 -2.25477 0.411423 0
M  V30 16152 C 1558.4 -1.53969 -0.463689 0
M  V30 16153 O 1559.59 -1.72151 -0.266379 0
M  V30 16154 C 1556.72 -3.38427 -0.409851 0
M  V30 16155 H 1557.92 -2.71656 1.27056 0
M  V30 16156 H 1555.47 -1.3995 0.695966 0
M  V30 16157 H 1556.21 -2.97614 -1.28828 0
M  V30 16158 H 1555.99 -3.91497 0.217435 0
M  V30 16159 H 1557.48 -4.10739 -0.753862 0
M  V30 16160 N 1557.92 -0.68059 -1.42147 0
M  V30 16161 C 1559.14 -0.212293 -2.06311 0
M  V30 16162 C 1559.57 1.12402 -1.50822 0
M  V30 16163 O 1558.93 1.70037 -0.629051 0
M  V30 16164 C 1558.97 -0.164156 -3.60226 0
M  V30 16165 O 1558.08 0.865582 -4.03214 0
M  V30 16166 H 1557.42 -0.107451 -0.655248 0
M  V30 16167 H 1559.95 -0.931233 -1.82179 0
M  V30 16168 H 1559.96 0.0100422 -4.07999 0
M  V30 16169 H 1558.63 -1.13952 -3.99985 0
M  V30 16170 H 1557.21 0.661955 -3.66978 0
M  V30 16171 N 1559.4 1.51781 -0.424309 0
M  V30 16172 C 1560.67 1.94514 0.205791 0
M  V30 16173 C 1561.05 1.36219 1.61269 0
M  V30 16174 O 1560.4 0.544019 2.21929 0
M  V30 16175 C 1560.61 3.48445 0.196749 0
M  V30 16176 C 1561.96 4.22628 0.408702 0
M  V30 16177 O 1562.98 3.55133 0.275441 0
M  V30 16178 O 1561.84 5.42344 0.672698 0
M  V30 16179 H 1558.94 0.815576 0.136983 0
M  V30 16180 H 1561.48 1.6273 -0.481349 0
M  V30 16181 H 1560.25 3.83297 -0.787342 0
M  V30 16182 H 1559.88 3.86634 0.92735 0
M  V30 16183 N 1560.87 0.155222 1.56834 0
M  V30 16184 C 1561.78 -0.794179 2.20749 0
M  V30 16185 C 1562.8 -1.26546 1.19424 0
M  V30 16186 O 1563.98 -1.32094 1.5203 0
M  V30 16187 C 1561.04 -2.01261 2.82303 0
M  V30 16188 C 1560.1 -1.58976 3.98779 0
M  V30 16189 C 1559.33 -2.75011 4.57389 0
M  V30 16190 O 1559.56 -3.91449 4.14879 0
M  V30 16191 O 1558.49 -2.50011 5.4752 0
M  V30 16192 H 1562.32 -0.280064 3.02406 0
M  V30 16193 H 1559.9 -0.0722048 1.49225 0
M  V30 16194 H 1561.78 -2.72551 3.21394 0
M  V30 16195 H 1560.46 -2.51609 2.03653 0
M  V30 16196 H 1559.37 -0.846848 3.64389 0
M  V30 16197 H 1560.7 -1.13336 4.78974 0
M  V30 16198 N 1562.35 -1.57153 -0.118549 0
M  V30 16199 C 1563.58 -1.89434 -0.844355 0
M  V30 16200 C 1564 -0.747203 -1.72622 0
M  V30 16201 O 1563.36 0.302252 -1.78763 0
M  V30 16202 C 1563.41 -3.20466 -1.65331 0
M  V30 16203 O 1562.51 -3.06403 -2.76027 0
M  V30 16204 H 1561.85 -0.621601 -0.23347 0
M  V30 16205 H 1564.38 -2.04351 -0.100811 0
M  V30 16206 H 1564.39 -3.53197 -2.04245 0
M  V30 16207 H 1563.07 -4.03551 -1.00594 0
M  V30 16208 H 1561.64 -2.85139 -2.40312 0
M  V30 16209 N 1563.83 0.388742 -1.5273 0
M  V30 16210 C 1565.25 0.728828 -1.41987 0
M  V30 16211 C 1565.45 1.94116 -0.540493 0
M  V30 16212 O 1564.5 2.52496 -0.0140397 0
M  V30 16213 C 1565.81 0.963683 -2.8484 0
M  V30 16214 C 1567.36 1.06514 -2.94319 0
M  V30 16215 C 1567.84 1.33262 -4.38184 0
M  V30 16216 N 1569.33 1.40083 -4.4151 0
M  V30 16217 C 1570.06 1.62446 -5.49908 0
M  V30 16218 N 1569.56 1.82277 -6.68391 0
M  V30 16219 N 1571.35 1.64627 -5.37452 0
M  V30 16220 H 1563.5 -0.408984 -2.08425 0
M  V30 16221 H 1565.77 -0.120791 -0.940273 0
M  V30 16222 H 1565.47 0.144986 -3.51401 0
M  V30 16223 H 1565.35 1.87828 -3.27109 0
M  V30 16224 H 1567.73 1.8744 -2.27926 0
M  V30 16225 H 1567.81 0.12845 -2.55477 0
M  V30 16226 H 1567.46 0.528457 -5.05143 0
M  V30 16227 H 1567.39 2.28216 -4.74579 0
M  V30 16228 H 1569.88 1.26465 -3.56111 0
M  V30 16229 H 1570.19 1.98848 -7.46779 0
M  V30 16230 H 1568.54 1.79501 -6.7142 0
M  V30 16231 H 1571.73 1.48686 -4.43858 0
M  V30 16232 H 1571.9 1.81715 -6.22 0
M  V30 16233 N 1565.31 1.43698 0.647203 0
M  V30 16234 C 1566.25 1.49323 1.75987 0
M  V30 16235 C 1567.22 0.342379 1.62533 0
M  V30 16236 O 1568.41 0.550379 1.8269 0
M  V30 16237 C 1565.55 1.428 3.14169 0
M  V30 16238 C 1564.66 2.68136 3.38714 0
M  V30 16239 C 1563.8 2.53559 4.66778 0
M  V30 16240 C 1562.84 3.74135 4.84447 0
M  V30 16241 N 1561.97 3.58332 6.03774 0
M  V30 16242 H 1566.81 2.44395 1.70514 0
M  V30 16243 H 1564.35 1.21309 0.832021 0
M  V30 16244 H 1566.31 1.37011 3.94061 0
M  V30 16245 H 1564.94 0.513057 3.18697 0
M  V30 16246 H 1563.99 2.84179 2.52877 0
M  V30 16247 H 1565.3 3.57684 3.47654 0
M  V30 16248 H 1564.46 2.45513 5.54805 0
M  V30 16249 H 1563.2 1.61545 4.60168 0
M  V30 16250 H 1562.2 3.82584 3.94854 0
M  V30 16251 H 1563.43 4.67165 4.92883 0
M  V30 16252 H 1561.37 2.69057 5.98284 0
M  V30 16253 H 1561.29 4.41485 6.13699 0
M  V30 16254 H 1562.56 3.54148 6.94406 0
M  V30 16255 N 1566.79 -0.886131 1.30328 0
M  V30 16256 C 1568.01 -1.67625 1.22134 0
M  V30 16257 C 1568.44 -1.86893 -0.212712 0
M  V30 16258 O 1567.79 -1.39905 -1.1531 0
M  V30 16259 C 1567.84 -3.03068 1.95402 0
M  V30 16260 O 1566.95 -3.92022 1.28032 0
M  V30 16261 H 1566.29 -0.512246 0.422493 0
M  V30 16262 H 1568.82 -1.10602 1.72129 0
M  V30 16263 H 1568.83 -3.53119 2.04379 0
M  V30 16264 H 1567.5 -2.88363 2.99699 0
M  V30 16265 H 1566.08 -3.50461 1.27402 0
M  V30 16266 N 1568.26 -1.13026 -1.09832 0
M  V30 16267 C 1569.5 -0.8996 -1.83539 0
M  V30 16268 C 1569.87 0.564226 -1.83522 0
M  V30 16269 O 1571.07 0.912286 -2.52845 0
M  V30 16270 C 1569.34 -1.46624 -3.25939 0
M  V30 16271 S 1570.9 -1.37502 -4.167 0
M  V30 16272 H 1567.72 -0.324364 -0.6327 0
M  V30 16273 H 1570.32 -1.44098 -1.32121 0
M  V30 16274 H 1569.02 -2.52507 -3.23525 0
M  V30 16275 H 1568.55 -0.922619 -3.82428 0
M  V30 16276 H 1570.57 -0.350666 -4.94959 0
M  V30 16277 N 1569.74 1.27735 -0.923117 0
M  V30 16278 C 1570.97 1.98682 -0.577317 0
M  V30 16279 C 1571.39 1.68904 0.843608 0
M  V30 16280 O 1570.74 0.947021 1.56006 0
M  V30 16281 C 1570.79 3.52804 -0.788144 0
M  V30 16282 O 1570.51 3.81537 -2.15316 0
M  V30 16283 C 1572.02 4.41006 -0.450437 0
M  V30 16284 H 1569.24 0.634186 -0.2192 0
M  V30 16285 H 1571.78 1.62702 -1.23888 0
M  V30 16286 H 1569.93 3.87012 -0.173441 0
M  V30 16287 H 1570.35 4.76142 -2.19976 0
M  V30 16288 H 1571.82 5.48175 -0.648674 0
M  V30 16289 H 1572.3 4.3489 0.613806 0
M  V30 16290 H 1572.91 4.1231 -1.04308 0
M  V30 16291 N 1571.22 0.688118 1.41784 0
M  V30 16292 C 1572.47 0.216263 2.01644 0
M  V30 16293 C 1572.8 -1.17861 1.54345 0
M  V30 16294 O 1572.07 -1.794 0.751392 0
M  V30 16295 C 1572.36 0.265663 3.59119 0
M  V30 16296 C 1572.21 1.69694 4.16562 0
M  V30 16297 C 1573.53 -0.378713 4.38468 0
M  V30 16298 H 1570.65 0.0800582 0.732639 0
M  V30 16299 H 1573.29 0.875428 1.68631 0
M  V30 16300 H 1571.44 -0.295588 3.87374 0
M  V30 16301 H 1573.11 2.31146 3.9921 0
M  V30 16302 H 1571.36 2.23345 3.71886 0
M  V30 16303 H 1572.03 1.68309 5.25715 0
M  V30 16304 H 1574.5 0.0991969 4.15982 0
M  V30 16305 H 1573.38 -0.31357 5.48004 0
M  V30 16306 H 1573.64 -1.45832 4.17355 0
M  V30 16307 N 1572.7 -1.51554 0.432352 0
M  V30 16308 C 1573.95 -2.01645 -0.135511 0
M  V30 16309 C 1574.27 -1.31874 -1.43647 0
M  V30 16310 O 1573.54 -0.451746 -1.9062 0
M  V30 16311 H 1572.12 -0.745113 -0.0530683 0
M  V30 16312 H 1574.78 -1.86258 0.573917 0
M  V30 16313 H 1573.88 -3.10506 -0.315001 0
M  V30 16314 N 1574.18 -0.163538 -1.56749 0
M  V30 16315 C 1575.11 0.808257 -2.13407 0
M  V30 16316 C 1576.09 1.23124 -1.06204 0
M  V30 16317 O 1577.27 1.3244 -1.34134 0
M  V30 16318 C 1574.4 2.08743 -2.66728 0
M  V30 16319 C 1573.44 1.80909 -3.86231 0
M  V30 16320 S 1574.28 0.985273 -5.26358 0
M  V30 16321 C 1575.43 2.27528 -5.8308 0
M  V30 16322 H 1575.67 0.326505 -2.95502 0
M  V30 16323 H 1573.2 0.0510128 -1.54316 0
M  V30 16324 H 1575.16 2.8222 -2.98097 0
M  V30 16325 H 1573.82 2.54032 -1.84733 0
M  V30 16326 H 1573.01 2.75802 -4.21841 0
M  V30 16327 H 1572.61 1.15532 -3.55708 0
M  V30 16328 H 1574.91 3.23053 -5.95519 0
M  V30 16329 H 1575.85 1.96399 -6.80318 0
M  V30 16330 H 1576.26 2.38933 -5.1144 0
M  V30 16331 N 1575.65 1.57214 0.110213 0
M  V30 16332 C 1576.62 2.00034 1.11888 0
M  V30 16333 C 1577.62 0.891697 1.33811 0
M  V30 16334 O 1578.81 1.15754 1.3018 0
M  V30 16335 C 1575.94 2.34806 2.47142 0
M  V30 16336 H 1577.13 2.90354 0.750647 0
M  V30 16337 H 1574.69 1.5222 0.35479 0
M  V30 16338 H 1575.42 1.47393 2.8887 0
M  V30 16339 H 1575.21 3.15671 2.32581 0
M  V30 16340 H 1576.7 2.68644 3.19719 0
M  V30 16341 N 1577.13 -0.380637 1.52934 0
M  V30 16342 C 1578.36 -1.14583 1.72274 0
M  V30 16343 C 1578.78 -1.83484 0.444864 0
M  V30 16344 O 1578.13 -1.72997 -0.581245 0
M  V30 16345 C 1578.18 -2.18756 2.87799 0
M  V30 16346 O 1577.9 -1.52662 4.10641 0
M  V30 16347 C 1579.41 -3.07938 3.18887 0
M  V30 16348 H 1576.63 -0.343218 0.576578 0
M  V30 16349 H 1579.17 -0.444149 1.99619 0
M  V30 16350 H 1577.32 -2.84546 2.62892 0
M  V30 16351 H 1577.74 -2.21949 4.75225 0
M  V30 16352 H 1579.21 -3.77045 4.03164 0
M  V30 16353 H 1579.69 -3.71913 2.33618 0
M  V30 16354 H 1580.3 -2.47783 3.45664 0
M  V30 16355 N 1578.61 -1.44039 -0.639573 0
M  V30 16356 C 1579.54 -1.44715 -1.76445 0
M  V30 16357 C 1580.52 -0.306957 -1.59676 0
M  V30 16358 O 1581.71 -0.502643 -1.81675 0
M  V30 16359 C 1578.83 -1.27177 -3.13917 0
M  V30 16360 C 1577.88 -2.44649 -3.49355 0
M  V30 16361 S 1578.71 -4.07191 -3.47787 0
M  V30 16362 C 1579.87 -3.92061 -4.87893 0
M  V30 16363 H 1580.1 -2.39897 -1.75603 0
M  V30 16364 H 1577.63 -1.31235 -0.813438 0
M  V30 16365 H 1579.59 -1.17745 -3.93251 0
M  V30 16366 H 1578.25 -0.335196 -3.12306 0
M  V30 16367 H 1577.45 -2.28219 -4.49369 0
M  V30 16368 H 1577.05 -2.50777 -2.77465 0
M  V30 16369 H 1579.34 -3.55229 -5.76904 0
M  V30 16370 H 1580.28 -4.91875 -5.09377 0
M  V30 16371 H 1580.69 -3.24271 -4.6207 0
M  V30 16372 N 1580.09 0.879207 -1.30796 0
M  V30 16373 C 1581.34 1.62625 -1.19315 0
M  V30 16374 C 1581.65 1.93999 0.249731 0
M  V30 16375 O 1582.86 2.67112 0.486129 0
M  V30 16376 C 1581.31 2.93129 -2.08815 0
M  V30 16377 C 1580.92 2.69272 -3.58045 0
M  V30 16378 C 1582.66 3.71105 -2.0611 0
M  V30 16379 C 1580.57 3.95628 -4.39582 0
M  V30 16380 H 1579.5 0.61015 -0.442981 0
M  V30 16381 H 1582.15 0.972892 -1.55586 0
M  V30 16382 H 1580.53 3.59789 -1.65432 0
M  V30 16383 H 1581.71 2.11078 -4.09613 0
M  V30 16384 H 1580.02 2.04664 -3.62632 0
M  V30 16385 H 1582.62 4.64824 -2.64277 0
M  V30 16386 H 1582.96 4.02946 -1.04597 0
M  V30 16387 H 1583.5 3.11315 -2.47644 0
M  V30 16388 H 1580.24 3.68943 -5.41813 0
M  V30 16389 H 1579.76 4.53307 -3.92775 0
M  V30 16390 H 1581.43 4.63597 -4.51317 0
M  V30 16391 N 1581.57 1.13606 1.09231 0
M  V30 16392 C 1582.5 0.837908 2.17948 0
M  V30 16393 C 1583.48 -0.203575 1.68877 0
M  V30 16394 O 1584.66 -0.0620702 1.94101 0
M  V30 16395 C 1581.79 0.305342 3.45955 0
M  V30 16396 C 1580.75 1.2813 4.08371 0
M  V30 16397 C 1580.07 0.608412 5.31227 0
M  V30 16398 C 1581.37 2.64055 4.50636 0
M  V30 16399 H 1583.07 1.747 2.43147 0
M  V30 16400 H 1580.61 0.84141 1.1686 0
M  V30 16401 H 1582.57 0.0844116 4.21315 0
M  V30 16402 H 1581.29 -0.639144 3.20285 0
M  V30 16403 H 1579.95 1.48826 3.35032 0
M  V30 16404 H 1579.6 -0.341613 5.01839 0
M  V30 16405 H 1579.3 1.25956 5.73942 0
M  V30 16406 H 1580.82 0.396809 6.09309 0
M  V30 16407 H 1582.24 2.47316 5.17212 0
M  V30 16408 H 1580.63 3.25364 5.0424 0
M  V30 16409 H 1581.7 3.21566 3.62937 0
M  V30 16410 N 1583.05 -1.27244 0.929878 0
M  V30 16411 C 1584.27 -1.98373 0.587845 0
M  V30 16412 C 1584.69 -1.69349 -0.834638 0
M  V30 16413 O 1584.05 -0.955281 -1.55501 0
M  V30 16414 C 1584.1 -3.52381 0.806843 0
M  V30 16415 O 1583.82 -3.8039 2.17337 0
M  V30 16416 C 1585.32 -4.40761 0.473818 0
M  V30 16417 H 1582.54 -0.633015 0.22256 0
M  V30 16418 H 1585.08 -1.62043 1.2475 0
M  V30 16419 H 1583.24 -3.86914 0.193963 0
M  V30 16420 H 1583.65 -4.74968 2.22498 0
M  V30 16421 H 1585.13 -5.47824 0.677736 0
M  V30 16422 H 1585.6 -4.35209 -0.590734 0
M  V30 16423 H 1586.21 -4.11751 1.06493 0
M  V30 16424 N 1584.52 -0.695628 -1.41417 0
M  V30 16425 C 1585.45 -0.0447013 -2.33457 0
M  V30 16426 C 1586.43 0.767104 -1.51821 0
M  V30 16427 O 1587.62 0.720066 -1.80357 0
M  V30 16428 C 1584.75 0.892353 -3.3564 0
M  V30 16429 C 1583.7 0.187638 -4.27588 0
M  V30 16430 C 1583.03 1.23906 -5.20146 0
M  V30 16431 C 1584.33 -0.946093 -5.1366 0
M  V30 16432 H 1586.02 -0.81343 -2.88138 0
M  V30 16433 H 1583.57 -0.392614 -1.38544 0
M  V30 16434 H 1585.52 1.35696 -3.98954 0
M  V30 16435 H 1584.25 1.69275 -2.79309 0
M  V30 16436 H 1582.91 -0.256942 -3.65698 0
M  V30 16437 H 1582.55 2.03198 -4.6013 0
M  V30 16438 H 1582.25 0.772536 -5.82499 0
M  V30 16439 H 1583.78 1.70417 -5.86336 0
M  V30 16440 H 1585.19 -0.561764 -5.70541 0
M  V30 16441 H 1583.59 -1.33971 -5.84954 0
M  V30 16442 H 1584.66 -1.78573 -4.50821 0
M  V30 16443 N 1586 1.51322 -0.440383 0
M  V30 16444 C 1586.93 2.30708 0.360013 0
M  V30 16445 C 1587.91 1.36254 1.01828 0
M  V30 16446 O 1589.1 1.65174 1.02134 0
M  V30 16447 C 1586.23 3.15132 1.45977 0
M  V30 16448 C 1585.18 4.17889 0.924825 0
M  V30 16449 C 1584.51 4.90853 2.12056 0
M  V30 16450 C 1585.81 5.22282 -0.0428362 0
M  V30 16451 H 1587.5 2.97868 -0.30248 0
M  V30 16452 H 1585.05 1.43249 -0.146914 0
M  V30 16453 H 1587 3.69449 2.02695 0
M  V30 16454 H 1585.72 2.45798 2.1506 0
M  V30 16455 H 1584.38 3.64627 0.379842 0
M  V30 16456 H 1584.03 4.1802 2.79765 0
M  V30 16457 H 1583.73 5.60339 1.769 0
M  V30 16458 H 1585.26 5.47995 2.69322 0
M  V30 16459 H 1586.67 5.71654 0.434137 0
M  V30 16460 H 1585.07 5.99314 -0.307126 0
M  V30 16461 H 1586.14 4.74923 -0.978557 0
M  V30 16462 N 1587.48 0.171848 1.5666 0
M  V30 16463 C 1588.7 -0.482396 2.01712 0
M  V30 16464 C 1589.13 -1.5598 1.05128 0
M  V30 16465 O 1588.49 -1.81274 0.0309178 0
M  V30 16466 C 1588.54 -1.03716 3.45363 0
M  V30 16467 O 1587.64 -2.15114 3.51852 0
M  V30 16468 H 1586.98 -0.115439 0.653888 0
M  V30 16469 H 1589.51 0.275895 2.02731 0
M  V30 16470 H 1589.52 -1.35964 3.84679 0
M  V30 16471 H 1588.2 -0.24832 4.15158 0
M  V30 16472 H 1586.77 -1.83907 3.24396 0
M  V30 16473 N 1588.96 -1.5727 -0.101874 0
M  V30 16474 C 1590.18 -1.90319 -0.824215 0
M  V30 16475 C 1590.61 -0.765469 -1.7182 0
M  V30 16476 O 1589.97 0.283275 -1.79073 0
M  V30 16477 C 1590.01 -3.22201 -1.61922 0
M  V30 16478 O 1589.12 -3.09313 -2.72762 0
M  V30 16479 H 1588.46 -0.624042 -0.226864 0
M  V30 16480 H 1590.99 -2.04447 -0.0791314 0
M  V30 16481 H 1591 -3.55343 -2.00487 0
M  V30 16482 H 1589.67 -4.04596 -0.963078 0
M  V30 16483 H 1588.25 -2.87672 -2.37274 0
M  V30 16484 N 1590.44 0.372521 -1.53134 0
M  V30 16485 C 1591.4 1.43875 -1.78417 0
M  V30 16486 C 1592.4 1.46879 -0.654455 0
M  V30 16487 O 1593.59 1.47761 -0.922619 0
M  V30 16488 C 1590.72 2.83046 -1.89994 0
M  V30 16489 H 1591.91 1.22733 -2.73636 0
M  V30 16490 H 1589.47 0.605247 -1.44106 0
M  V30 16491 H 1590.2 3.09511 -0.968179 0
M  V30 16492 H 1589.99 2.82265 -2.72156 0
M  V30 16493 H 1591.48 3.60273 -2.11171 0
M  V30 16494 N 1591.91 1.44376 0.631925 0
M  V30 16495 C 1593.16 1.48329 1.39176 0
M  V30 16496 C 1593.51 0.113879 1.92063 0
M  V30 16497 O 1592.81 -0.870764 1.7067 0
M  V30 16498 C 1593 2.47828 2.57519 0
M  V30 16499 C 1592.83 3.94309 2.16218 0
M  V30 16500 C 1591.6 4.62495 2.03534 0
M  V30 16501 C 1593.8 4.83546 1.75179 0
M  V30 16502 N 1591.78 5.93804 1.55788 0
M  V30 16503 C 1593.15 6.04293 1.38672 0
M  V30 16504 C 1595.21 4.70618 1.62553 0
M  V30 16505 C 1593.91 7.13546 0.908012 0
M  V30 16506 C 1595.94 5.79895 1.16086 0
M  V30 16507 C 1595.3 6.99782 0.805289 0
M  V30 16508 H 1591.4 0.597818 0.504121 0
M  V30 16509 H 1593.98 1.80697 0.725026 0
M  V30 16510 H 1592.15 2.17452 3.21822 0
M  V30 16511 H 1593.88 2.42082 3.24312 0
M  V30 16512 H 1590.64 4.17298 2.23963 0
M  V30 16513 H 1591.06 6.63562 1.34216 0
M  V30 16514 H 1595.7 3.78367 1.88675 0
M  V30 16515 H 1593.42 8.05607 0.634297 0
M  V30 16516 H 1597.01 5.71918 1.06776 0
M  V30 16517 H 1595.89 7.82901 0.451239 0
M  V30 16518 N 1593.39 -0.872258 1.31261 0
M  V30 16519 C 1594.64 -1.62511 1.20815 0
M  V30 16520 C 1594.97 -1.93084 -0.234231 0
M  V30 16521 O 1594.22 -1.55945 -1.18236 0
M  V30 16522 C 1594.52 -2.96524 1.9952 0
M  V30 16523 C 1594.19 -2.85453 3.49038 0
M  V30 16524 C 1592.85 -2.8214 3.89808 0
M  V30 16525 C 1595.2 -2.72654 4.44195 0
M  V30 16526 C 1592.53 -2.63885 5.24005 0
M  V30 16527 C 1594.88 -2.55936 5.78515 0
M  V30 16528 C 1593.54 -2.51005 6.18508 0
M  V30 16529 H 1592.81 -0.594672 0.442093 0
M  V30 16530 H 1595.46 -1.01319 1.62501 0
M  V30 16531 H 1593.77 -3.61739 1.50507 0
M  V30 16532 H 1595.46 -3.53763 1.8882 0
M  V30 16533 H 1592.05 -2.88847 3.16647 0
M  V30 16534 H 1596.24 -2.7427 4.1363 0
M  V30 16535 H 1591.49 -2.58491 5.54069 0
M  V30 16536 H 1595.67 -2.45009 6.51877 0
M  V30 16537 H 1593.29 -2.36619 7.22437 0
M  V30 16538 N 1594.87 -1.14184 -1.08627 0
M  V30 16539 C 1596.28 -0.920108 -1.62453 0
M  V30 16540 C 1596.63 0.541577 -1.88577 0
M  V30 16541 O 1595.76 1.41002 -1.64157 0
M  V30 16542 C 1596.35 -1.6638 -2.95132 0
M  V30 16543 C 1594.91 -1.48771 -3.45752 0
M  V30 16544 C 1594.06 -1.68774 -2.20024 0
M  V30 16545 H 1597.01 -1.29396 -0.91882 0
M  V30 16546 H 1597.03 -1.12568 -3.63468 0
M  V30 16547 H 1596.54 -2.72759 -2.76087 0
M  V30 16548 H 1594.64 -0.44729 -3.69905 0
M  V30 16549 H 1594.76 -2.25619 -4.2265 0
M  V30 16550 H 1593.12 -1.11321 -2.29084 0
M  V30 16551 H 1593.9 -2.76491 -2.03489 0
M  V30 16552 N 1596.35 1.26749 -0.936613 0
M  V30 16553 C 1597.28 2.2892 -0.460213 0
M  V30 16554 C 1598.26 1.63065 0.484135 0
M  V30 16555 O 1599.44 1.90305 0.386973 0
M  V30 16556 C 1596.57 3.46172 0.279648 0
M  V30 16557 C 1595.53 4.24083 -0.57771 0
M  V30 16558 C 1594.85 5.33903 0.291843 0
M  V30 16559 C 1596.15 4.88562 -1.84673 0
M  V30 16560 H 1597.85 2.69019 -1.31412 0
M  V30 16561 H 1595.39 1.29325 -0.633333 0
M  V30 16562 H 1597.35 4.16755 0.623931 0
M  V30 16563 H 1596.07 3.05014 1.16765 0
M  V30 16564 H 1594.73 3.55258 -0.904824 0
M  V30 16565 H 1594.38 4.88986 1.17906 0
M  V30 16566 H 1594.08 5.8694 -0.278372 0
M  V30 16567 H 1595.6 6.07326 0.631498 0
M  V30 16568 H 1597.02 5.51384 -1.56997 0
M  V30 16569 H 1595.41 5.51697 -2.36115 0
M  V30 16570 H 1596.48 4.11761 -2.56088 0
M  V30 16571 N 1597.83 0.703118 1.41046 0
M  V30 16572 C 1599.1 0.164985 1.94903 0
M  V30 16573 C 1599.48 -1.32665 1.64205 0
M  V30 16574 O 1598.83 -2.07675 0.953058 0
M  V30 16575 C 1599.04 0.464354 3.45897 0
M  V30 16576 C 1600.39 0.396205 4.22747 0
M  V30 16577 O 1601.41 0.399698 3.5395 0
M  V30 16578 O 1600.27 0.362874 5.45294 0
M  V30 16579 H 1597.37 0.0193901 0.826773 0
M  V30 16580 H 1599.91 0.779796 1.50722 0
M  V30 16581 H 1598.68 1.49653 3.61552 0
M  V30 16582 H 1598.31 -0.18105 3.97188 0
M  V30 16583 N 1599.3 -1.51086 0.448402 0
M  V30 16584 C 1600.23 -2.30896 -0.347773 0
M  V30 16585 C 1601.22 -1.36792 -1.01104 0
M  V30 16586 O 1602.4 -1.65713 -1.01257 0
M  V30 16587 C 1599.53 -3.15901 -1.44304 0
M  V30 16588 C 1598.48 -4.18373 -0.90265 0
M  V30 16589 C 1597.81 -4.9197 -2.0945 0
M  V30 16590 C 1599.11 -5.22252 0.0705335 0
M  V30 16591 H 1600.8 -2.97704 0.318273 0
M  V30 16592 H 1598.35 -1.43169 0.154509 0
M  V30 16593 H 1600.3 -3.70519 -2.00733 0
M  V30 16594 H 1599.03 -2.46935 -2.13753 0
M  V30 16595 H 1597.69 -3.64823 -0.3605 0
M  V30 16596 H 1597.33 -4.19497 -2.77545 0
M  V30 16597 H 1597.03 -5.6127 -1.73926 0
M  V30 16598 H 1598.56 -5.49415 -2.66412 0
M  V30 16599 H 1599.97 -5.71876 -0.403814 0
M  V30 16600 H 1598.37 -5.99142 0.338905 0
M  V30 16601 H 1599.44 -4.74398 1.00373 0
M  V30 16602 N 1600.78 -0.180154 -1.56567 0
M  V30 16603 C 1602.01 0.471692 -2.01965 0
M  V30 16604 C 1602.43 1.5542 -1.05954 0
M  V30 16605 O 1601.79 1.81255 -0.0405307 0
M  V30 16606 C 1601.84 1.01883 -3.45908 0
M  V30 16607 O 1600.94 2.13245 -3.52988 0
M  V30 16608 H 1600.28 0.11197 -0.654491 0
M  V30 16609 H 1602.81 -0.286642 -2.02582 0
M  V30 16610 H 1602.82 1.33922 -3.85395 0
M  V30 16611 H 1601.5 0.226299 -4.15284 0
M  V30 16612 H 1600.08 1.82184 -3.25367 0
M  V30 16613 N 1602.26 1.57322 0.0935319 0
M  V30 16614 C 1603.22 2.0121 1.0976 0
M  V30 16615 C 1604.22 0.905839 1.32858 0
M  V30 16616 O 1605.41 1.17128 1.28945 0
M  V30 16617 C 1602.55 2.37414 2.44638 0
M  V30 16618 H 1603.74 2.91134 0.719809 0
M  V30 16619 H 1601.29 1.52588 0.338625 0
M  V30 16620 H 1602.03 1.50449 2.8729 0
M  V30 16621 H 1601.81 3.1812 2.2922 0
M  V30 16622 H 1603.3 2.7202 3.16851 0
M  V30 16623 N 1603.74 -0.364395 1.53329 0
M  V30 16624 C 1604.69 -1.4466 1.76232 0
M  V30 16625 C 1605.67 -1.48605 0.616884 0
M  V30 16626 O 1606.86 -1.53826 0.875589 0
M  V30 16627 C 1603.99 -2.82078 1.95671 0
M  V30 16628 C 1603.08 -2.82606 3.16219 0
M  V30 16629 N 1603.47 -2.52781 4.38105 0
M  V30 16630 C 1601.77 -3.13766 3.16965 0
M  V30 16631 C 1602.47 -2.61017 5.19851 0
M  V30 16632 N 1601.45 -2.95777 4.56088 0
M  V30 16633 H 1605.25 -1.20465 2.68077 0
M  V30 16634 H 1602.76 -0.572589 1.51971 0
M  V30 16635 H 1604.76 -3.60026 2.10206 0
M  V30 16636 H 1603.42 -3.07236 1.05054 0
M  V30 16637 H 1604.43 -2.26353 4.65816 0
M  V30 16638 H 1601.11 -3.44231 2.36245 0
M  V30 16639 H 1602.5 -2.41294 6.27078 0
M  V30 16640 N 1605.22 -1.44709 -0.62426 0
M  V30 16641 C 1606.15 -1.48097 -1.74928 0
M  V30 16642 C 1607.16 -0.373567 -1.58456 0
M  V30 16643 O 1608.35 -0.639699 -1.66644 0
M  V30 16644 C 1605.45 -1.30576 -3.12735 0
M  V30 16645 C 1604.62 -2.54688 -3.55602 0
M  V30 16646 C 1603.68 -2.31966 -4.72311 0
M  V30 16647 O 1602.71 -3.05492 -4.80274 0
M  V30 16648 N 1603.91 -1.35463 -5.64473 0
M  V30 16649 H 1606.68 -2.45086 -1.72491 0
M  V30 16650 H 1604.24 -1.40236 -0.809039 0
M  V30 16651 H 1606.23 -1.13212 -3.88542 0
M  V30 16652 H 1604.8 -0.419262 -3.09776 0
M  V30 16653 H 1604.02 -2.87282 -2.69931 0
M  V30 16654 H 1605.31 -3.37223 -3.80996 0
M  V30 16655 H 1604.7 -0.747509 -5.60739 0
M  V30 16656 H 1603.26 -1.24075 -6.39882 0
M  V30 16657 N 1606.69 0.865285 -1.31722 0
M  V30 16658 C 1607.97 1.60146 -1.12306 0
M  V30 16659 C 1608.35 2.08653 0.320508 0
M  V30 16660 O 1607.7 1.86841 1.31539 0
M  V30 16661 C 1607.91 2.75583 -2.14138 0
M  V30 16662 C 1609.26 3.45429 -2.46909 0
M  V30 16663 O 1610.28 2.85795 -2.12602 0
M  V30 16664 O 1609.14 4.53017 -3.05676 0
M  V30 16665 H 1606.23 0.704786 -0.432673 0
M  V30 16666 H 1608.78 0.910339 -1.43216 0
M  V30 16667 H 1607.55 2.37187 -3.1122 0
M  V30 16668 H 1607.18 3.52378 -1.84161 0
M  V30 16669 N 1608.17 1.14759 1.0802 0
M  V30 16670 C 1609.14 0.840859 2.13219 0
M  V30 16671 C 1610.14 -0.156309 1.60038 0
M  V30 16672 O 1611.33 0.0725143 1.74049 0
M  V30 16673 C 1608.46 0.254208 3.39951 0
M  V30 16674 H 1609.65 1.77323 2.4186 0
M  V30 16675 H 1607.2 0.954146 1.23797 0
M  V30 16676 H 1607.94 -0.686692 3.16946 0
M  V30 16677 H 1607.72 0.972499 3.79848 0
M  V30 16678 H 1609.21 0.0569551 4.17561 0
M  V30 16679 N 1609.65 -1.26251 0.943322 0
M  V30 16680 C 1610.58 -2.28673 0.472347 0
M  V30 16681 C 1611.56 -1.63319 -0.475481 0
M  V30 16682 O 1612.75 -1.90508 -0.376875 0
M  V30 16683 C 1609.88 -3.46316 -0.261286 0
M  V30 16684 C 1608.83 -4.23771 0.600192 0
M  V30 16685 C 1608.16 -5.3405 -0.263525 0
M  V30 16686 C 1609.46 -4.87576 1.87262 0
M  V30 16687 H 1611.15 -2.68319 1.32836 0
M  V30 16688 H 1608.7 -1.28987 0.640182 0
M  V30 16689 H 1610.65 -4.1708 -0.601821 0
M  V30 16690 H 1609.37 -3.05629 -1.15146 0
M  V30 16691 H 1608.03 -3.54774 0.923651 0
M  V30 16692 H 1607.68 -4.89604 -1.15312 0
M  V30 16693 H 1607.38 -5.86784 0.309495 0
M  V30 16694 H 1608.9 -6.07652 -0.599281 0
M  V30 16695 H 1610.32 -5.50544 1.59919 0
M  V30 16696 H 1608.72 -5.50437 2.39038 0
M  V30 16697 H 1609.79 -4.10397 2.58268 0
M  V30 16698 N 1611.13 -0.710588 -1.40671 0
M  V30 16699 C 1612.38 -0.244967 -2.00207 0
M  V30 16700 C 1612.69 1.16693 -1.56978 0
M  V30 16701 O 1613.9 1.73081 -2.09177 0
M  V30 16702 C 1612.35 -0.387049 -3.57813 0
M  V30 16703 C 1611.96 -1.80527 -4.10017 0
M  V30 16704 C 1613.71 0.0180338 -4.24496 0
M  V30 16705 C 1611.61 -1.89821 -5.60109 0
M  V30 16706 H 1610.54 -0.087831 -0.748867 0
M  V30 16707 H 1613.19 -0.880956 -1.6097 0
M  V30 16708 H 1611.58 0.317442 -3.94726 0
M  V30 16709 H 1612.75 -2.53974 -3.84492 0
M  V30 16710 H 1611.06 -2.16137 -3.55913 0
M  V30 16711 H 1613.66 -0.0307544 -5.34691 0
M  V30 16712 H 1614 1.05915 -4.02601 0
M  V30 16713 H 1614.54 -0.63672 -3.92671 0
M  V30 16714 H 1611.28 -2.92036 -5.86852 0
M  V30 16715 H 1610.8 -1.20779 -5.87514 0
M  V30 16716 H 1612.48 -1.66801 -6.25129 0
M  V30 16717 N 1612.61 1.50847 -0.456408 0
M  V30 16718 C 1613.54 2.31077 0.335523 0
M  V30 16719 C 1614.52 1.37326 1.00377 0
M  V30 16720 O 1615.7 1.66247 1.00376 0
M  V30 16721 C 1612.83 3.16662 1.42627 0
M  V30 16722 C 1611.79 4.18846 0.88045 0
M  V30 16723 C 1611.11 4.93074 2.06838 0
M  V30 16724 C 1612.41 5.22208 -0.0982288 0
M  V30 16725 H 1614.11 2.97531 -0.334056 0
M  V30 16726 H 1611.65 1.43085 -0.162099 0
M  V30 16727 H 1613.61 3.71578 1.98765 0
M  V30 16728 H 1612.33 2.48066 2.12441 0
M  V30 16729 H 1610.99 3.65009 0.341147 0
M  V30 16730 H 1610.64 4.20963 2.75316 0
M  V30 16731 H 1610.34 5.62184 1.70947 0
M  V30 16732 H 1611.86 5.5082 2.63494 0
M  V30 16733 H 1613.28 5.72082 0.373481 0
M  V30 16734 H 1611.67 5.98954 -0.370674 0
M  V30 16735 H 1612.74 4.73859 -1.02887 0
M  V30 16736 N 1614.09 0.188454 1.56469 0
M  V30 16737 C 1615.05 -0.721282 2.17555 0
M  V30 16738 C 1616.05 -1.14579 1.1282 0
M  V30 16739 O 1617.24 -1.05996 1.38241 0
M  V30 16740 C 1614.37 -1.9839 2.77226 0
M  V30 16741 H 1615.56 -0.189218 2.99302 0
M  V30 16742 H 1613.12 -0.0611533 1.5618 0
M  V30 16743 H 1613.85 -2.55864 1.99259 0
M  V30 16744 H 1613.64 -1.68831 3.53891 0
M  V30 16745 H 1615.13 -2.63277 3.24153 0
M  V30 16746 N 1615.56 -1.5737 -0.0851874 0
M  V30 16747 C 1616.81 -1.86219 -0.7853 0
M  V30 16748 C 1617.13 -0.77857 -1.78783 0
M  V30 16749 O 1616.4 0.194176 -1.94935 0
M  V30 16750 H 1614.98 -0.687134 -0.293013 0
M  V30 16751 H 1617.64 -1.94793 -0.0644597 0
M  V30 16752 H 1616.74 -2.83286 -1.30978 0
M  V30 16753 N 1617.04 0.356258 -1.53521 0
M  V30 16754 C 1617.99 1.45718 -1.81298 0
M  V30 16755 C 1618.98 1.55036 -0.682652 0
M  V30 16756 O 1620.19 1.57812 -0.865766 0
M  V30 16757 H 1616.56 0.485614 -0.57418 0
M  V30 16758 H 1618.54 1.19498 -2.73428 0
M  V30 16759 C 1617.28 2.82424 -2.0281 0
M  V30 16760 H 1616.61 2.76016 -2.89232 0
M  V30 16761 H 1618.05 3.5861 -2.26218 0
M  V30 16762 C 1616.51 3.2702 -0.809893 0
M  V30 16763 O 1617.04 4.017 -0.00310668 0
M  V30 16764 N 1615.24 2.83673 -0.630696 0
M  V30 16765 H 1614.79 2.23066 -1.28839 0
M  V30 16766 H 1614.75 3.13867 0.182961 0
M  V30 16767 N 1618.52 1.45038 0.616577 0
M  V30 16768 C 1619.45 1.55858 1.73869 0
M  V30 16769 C 1620.43 0.410657 1.65069 0
M  V30 16770 O 1621.62 0.632652 1.83606 0
M  V30 16771 C 1618.75 1.51635 3.12448 0
M  V30 16772 C 1617.7 2.65053 3.36052 0
M  V30 16773 C 1617.03 2.45883 4.74811 0
M  V30 16774 C 1618.33 4.07121 3.27185 0
M  V30 16775 H 1620.02 2.49784 1.6507 0
M  V30 16776 H 1617.57 1.20216 0.792724 0
M  V30 16777 H 1619.52 1.57803 3.90738 0
M  V30 16778 H 1618.24 0.542342 3.22066 0
M  V30 16779 H 1616.9 2.58299 2.60149 0
M  V30 16780 H 1616.55 1.46641 4.8115 0
M  V30 16781 H 1616.25 3.21935 4.9156 0
M  V30 16782 H 1617.77 2.53892 5.55312 0
M  V30 16783 H 1619.19 4.15167 3.9536 0
M  V30 16784 H 1617.58 4.83491 3.55466 0
M  V30 16785 H 1618.65 4.29663 2.24762 0
M  V30 16786 N 1620 -0.858287 1.32179 0
M  V30 16787 C 1620.93 -1.98219 1.23415 0
M  V30 16788 C 1621.91 -1.69685 0.118779 0
M  V30 16789 O 1623.09 -1.91785 0.305342 0
M  V30 16790 C 1620.22 -3.33977 0.952725 0
M  V30 16791 C 1619.18 -3.76853 2.02894 0
M  V30 16792 C 1618.5 -5.10201 1.59999 0
M  V30 16793 C 1619.8 -3.92707 3.44352 0
M  V30 16794 H 1621.5 -2.05809 2.17446 0
M  V30 16795 H 1619.04 -0.988817 1.04682 0
M  V30 16796 H 1621 -4.12152 0.87798 0
M  V30 16797 H 1619.72 -3.26592 -0.023234 0
M  V30 16798 H 1618.38 -3.00926 2.09378 0
M  V30 16799 H 1618.03 -4.99268 0.61157 0
M  V30 16800 H 1617.73 -5.39859 2.32004 0
M  V30 16801 H 1619.25 -5.90873 1.53954 0
M  V30 16802 H 1620.67 -4.61246 3.40477 0
M  V30 16803 H 1619.06 -4.33779 4.14675 0
M  V30 16804 H 1620.13 -2.95731 3.8428 0
M  V30 16805 N 1621.48 -1.1533 -1.07409 0
M  V30 16806 C 1622.44 -0.852155 -2.1277 0
M  V30 16807 C 1623.44 0.14782 -1.60119 0
M  V30 16808 O 1624.63 -0.0817436 -1.74008 0
M  V30 16809 C 1621.76 -0.272233 -3.39811 0
M  V30 16810 H 1622.95 -1.78604 -2.40917 0
M  V30 16811 H 1620.51 -0.960698 -1.23289 0
M  V30 16812 H 1621.24 0.669873 -3.17306 0
M  V30 16813 H 1621.03 -0.992629 -3.79327 0
M  V30 16814 H 1622.52 -0.0790986 -4.17525 0
M  V30 16815 N 1622.95 1.25748 -0.950004 0
M  V30 16816 C 1623.92 2.24307 -0.47106 0
M  V30 16817 C 1624.92 1.55145 0.422704 0
M  V30 16818 O 1626.11 1.72797 0.220642 0
M  V30 16819 C 1623.24 3.39395 0.319979 0
M  V30 16820 H 1624.43 2.68192 -1.34214 0
M  V30 16821 H 1621.98 1.38056 -0.732827 0
M  V30 16822 H 1622.72 3.00925 1.20892 0
M  V30 16823 H 1622.5 3.90783 -0.321157 0
M  V30 16824 H 1623.99 4.12594 0.644697 0
M  V30 16825 N 1624.43 0.718038 1.40292 0
M  V30 16826 C 1625.66 0.266918 2.05675 0
M  V30 16827 C 1626.08 -1.08364 1.53749 0
M  V30 16828 O 1625.44 -1.6831 0.673912 0
M  V30 16829 C 1625.49 0.259606 3.59664 0
M  V30 16830 O 1624.59 -0.758372 4.05367 0
M  V30 16831 H 1623.93 0.124786 0.652169 0
M  V30 16832 H 1626.46 0.979207 1.79646 0
M  V30 16833 H 1626.47 0.098135 4.07882 0
M  V30 16834 H 1625.15 1.24517 3.96823 0
M  V30 16835 H 1623.72 -0.564425 3.68604 0
M  V30 16836 N 1625.91 -1.50602 0.464402 0
M  V30 16837 C 1626.87 -2.26929 -0.32185 0
M  V30 16838 C 1627.87 -1.3144 -0.926289 0
M  V30 16839 O 1629.06 -1.54924 -0.796511 0
M  V30 16840 C 1626.2 -3.08155 -1.45785 0
M  V30 16841 H 1627.39 -2.97881 0.347436 0
M  V30 16842 H 1624.94 -1.54768 0.218278 0
M  V30 16843 H 1625.68 -2.41684 -2.16239 0
M  V30 16844 H 1625.46 -3.78321 -1.03031 0
M  V30 16845 H 1626.95 -3.65899 -2.01266 0
M  V30 16846 N 1627.39 -0.19675 -1.56367 0
M  V30 16847 C 1628.8 0.315555 -1.84014 0
M  V30 16848 C 1629.15 1.61267 -1.11747 0
M  V30 16849 O 1628.28 2.13058 -0.378824 0
M  V30 16850 C 1628.87 0.579307 -3.33811 0
M  V30 16851 C 1627.43 1.03598 -3.61862 0
M  V30 16852 C 1626.58 0.0854845 -2.77168 0
M  V30 16853 H 1629.53 -0.4205 -1.53028 0
M  V30 16854 H 1629.55 1.42841 -3.52671 0
M  V30 16855 H 1629.06 -0.364925 -3.86381 0
M  V30 16856 H 1627.16 1.99443 -3.14727 0
M  V30 16857 H 1627.27 0.927547 -4.70035 0
M  V30 16858 H 1625.64 0.58768 -2.47827 0
M  V30 16859 H 1626.42 -0.853221 -3.32528 0
M  V30 16860 N 1628.87 1.57413 0.0768405 0
M  V30 16861 C 1629.81 2.0334 1.09185 0
M  V30 16862 C 1630.78 0.913073 1.38752 0
M  V30 16863 O 1631.97 1.18038 1.49906 0
M  V30 16864 C 1629.11 2.47805 2.40181 0
M  V30 16865 C 1628.22 3.73435 2.17188 0
M  V30 16866 C 1627.36 4.06703 3.41711 0
M  V30 16867 C 1626.4 5.25388 3.1406 0
M  V30 16868 N 1625.53 5.54319 4.309 0
M  V30 16869 H 1630.37 2.89825 0.693223 0
M  V30 16870 H 1627.91 1.43334 0.330736 0
M  V30 16871 H 1629.87 2.71635 3.16655 0
M  V30 16872 H 1628.5 1.64305 2.77856 0
M  V30 16873 H 1627.55 3.56974 1.3143 0
M  V30 16874 H 1628.86 4.60049 1.9276 0
M  V30 16875 H 1628.02 4.31407 4.26583 0
M  V30 16876 H 1626.75 3.18646 3.6921 0
M  V30 16877 H 1625.76 5.00486 2.27583 0
M  V30 16878 H 1626.98 6.15059 2.87888 0
M  V30 16879 H 1624.93 4.69222 4.5844 0
M  V30 16880 H 1624.85 6.35342 4.09727 0
M  V30 16881 H 1626.12 5.83571 5.16783 0
M  V30 16882 N 1630.34 -0.348112 1.53707 0
M  V30 16883 C 1631.57 -1.11346 1.74976 0
M  V30 16884 C 1631.99 -1.81726 0.485525 0
M  V30 16885 O 1631.35 -1.72384 -0.561565 0
M  V30 16886 C 1631.4 -2.10611 2.92703 0
M  V30 16887 O 1630.5 -3.18042 2.62532 0
M  V30 16888 H 1629.85 -0.322247 0.580563 0
M  V30 16889 H 1632.38 -0.399898 2.00654 0
M  V30 16890 H 1632.39 -2.53912 3.19363 0
M  V30 16891 H 1631.06 -1.58782 3.84397 0
M  V30 16892 H 1629.64 -2.79591 2.46746 0
M  V30 16893 N 1631.82 -1.45363 -0.608876 0
M  V30 16894 C 1632.75 -1.56778 -1.7304 0
M  V30 16895 C 1633.73 -0.419405 -1.64848 0
M  V30 16896 O 1634.92 -0.64238 -1.83268 0
M  V30 16897 C 1632.05 -1.5329 -3.1164 0
M  V30 16898 C 1631 -2.66832 -3.34641 0
M  V30 16899 C 1630.33 -2.48398 -4.735 0
M  V30 16900 C 1631.63 -4.0885 -3.25021 0
M  V30 16901 H 1633.32 -2.50656 -1.63743 0
M  V30 16902 H 1630.87 -1.20635 -0.786338 0
M  V30 16903 H 1632.82 -1.59873 -3.89895 0
M  V30 16904 H 1631.55 -0.559414 -3.21773 0
M  V30 16905 H 1630.2 -2.59675 -2.58775 0
M  V30 16906 H 1629.85 -1.49191 -4.80366 0
M  V30 16907 H 1629.55 -3.24537 -4.89846 0
M  V30 16908 H 1631.08 -2.56833 -5.53958 0
M  V30 16909 H 1632.49 -4.17257 -3.93153 0
M  V30 16910 H 1630.89 -4.85369 -3.52897 0
M  V30 16911 H 1631.96 -4.30849 -2.2248 0
M  V30 16912 N 1633.3 0.851265 -1.32632 0
M  V30 16913 C 1634.72 1.14 -1.11696 0
M  V30 16914 C 1634.92 2.0125 0.100327 0
M  V30 16915 O 1633.97 2.40013 0.784233 0
M  V30 16916 C 1635.29 1.81406 -2.39817 0
M  V30 16917 C 1636.83 1.94027 -2.45607 0
M  V30 16918 C 1637.31 2.64848 -3.73657 0
M  V30 16919 N 1638.8 2.7237 -3.74658 0
M  V30 16920 C 1639.53 3.27827 -4.70443 0
M  V30 16921 N 1639.03 3.84068 -5.76596 0
M  V30 16922 N 1640.82 3.25962 -4.57936 0
M  V30 16923 H 1632.97 0.270302 -2.10673 0
M  V30 16924 H 1635.24 0.182395 -0.930288 0
M  V30 16925 H 1634.94 1.24753 -3.28831 0
M  V30 16926 H 1634.82 2.81535 -2.51034 0
M  V30 16927 H 1637.2 2.49838 -1.5705 0
M  V30 16928 H 1637.29 0.928844 -2.3834 0
M  V30 16929 H 1636.93 2.09699 -4.62589 0
M  V30 16930 H 1636.86 3.66436 -3.78196 0
M  V30 16931 H 1639.35 2.32474 -2.97933 0
M  V30 16932 H 1639.66 4.24551 -6.45737 0
M  V30 16933 H 1638.01 3.82391 -5.80347 0
M  V30 16934 H 1641.2 2.81274 -3.74169 0
M  V30 16935 H 1641.37 3.68881 -5.32758 0
M  V30 16936 N 1634.78 1.15898 1.06796 0
M  V30 16937 C 1636 0.961859 1.83747 0
M  V30 16938 C 1636.43 -0.48494 1.81741 0
M  V30 16939 O 1635.79 -1.3461 1.21449 0
M  V30 16940 C 1635.83 1.48764 3.28484 0
M  V30 16941 O 1634.94 0.690576 4.06577 0
M  V30 16942 H 1634.28 0.342664 0.568751 0
M  V30 16943 H 1636.81 1.54015 1.34687 0
M  V30 16944 H 1636.82 1.50291 3.79311 0
M  V30 16945 H 1635.49 2.54089 3.29259 0
M  V30 16946 H 1634.07 0.74539 3.65374 0
M  V30 16947 N 1636.26 -1.25243 0.956659 0
M  V30 16948 C 1637.48 -1.97621 0.629337 0
M  V30 16949 C 1637.91 -1.70606 -0.792158 0
M  V30 16950 O 1637.26 -0.963192 -1.53598 0
M  V30 16951 C 1637.31 -3.49273 0.896687 0
M  V30 16952 O 1636.42 -4.12393 -0.0234986 0
M  V30 16953 H 1635.76 -0.619472 0.239061 0
M  V30 16954 H 1638.29 -1.5931 1.28381 0
M  V30 16955 H 1638.3 -3.99597 0.82377 0
M  V30 16956 H 1636.97 -3.68265 1.93271 0
M  V30 16957 H 1635.55 -3.72761 0.101796 0
M  V30 16958 N 1637.73 -0.725468 -1.3991 0
M  V30 16959 C 1638.98 -0.278509 -2.01484 0
M  V30 16960 C 1639.34 1.11892 -1.56518 0
M  V30 16961 O 1638.63 1.75014 -0.77979 0
M  V30 16962 C 1638.82 -0.308261 -3.56068 0
M  V30 16963 C 1638.65 -1.70704 -4.16041 0
M  V30 16964 C 1637.42 -2.31703 -4.49045 0
M  V30 16965 C 1639.62 -2.659 -4.40229 0
M  V30 16966 N 1637.6 -3.63834 -4.94467 0
M  V30 16967 C 1638.97 -3.82751 -4.87751 0
M  V30 16968 C 1641.03 -2.63785 -4.22282 0
M  V30 16969 C 1639.73 -4.97809 -5.1921 0
M  V30 16970 C 1641.76 -3.77978 -4.54848 0
M  V30 16971 C 1641.12 -4.93563 -5.02568 0
M  V30 16972 H 1637.22 -0.147963 -0.767874 0
M  V30 16973 H 1639.8 -0.94939 -1.69984 0
M  V30 16974 H 1637.97 0.332226 -3.86977 0
M  V30 16975 H 1639.7 0.156344 -4.04398 0
M  V30 16976 H 1636.46 -1.83712 -4.36517 0
M  V30 16977 H 1636.88 -4.31644 -5.21548 0
M  V30 16978 H 1641.53 -1.75622 -3.846 0
M  V30 16979 H 1639.24 -5.86609 -5.55802 0
M  V30 16980 H 1642.83 -3.77628 -4.42593 0
M  V30 16981 H 1641.71 -5.8046 -5.27291 0
M  V30 16982 N 1639.21 1.50354 -0.472382 0
M  V30 16983 C 1640.18 2.27096 0.30981 0
M  V30 16984 C 1641.18 1.3193 0.919306 0
M  V30 16985 O 1642.37 1.55344 0.788284 0
M  V30 16986 C 1639.5 3.08924 1.44149 0
M  V30 16987 H 1640.69 2.97692 -0.363228 0
M  V30 16988 H 1638.24 1.5465 -0.226483 0
M  V30 16989 H 1638.98 2.42828 2.14954 0
M  V30 16990 H 1638.76 3.78862 1.01023 0
M  V30 16991 H 1640.25 3.66961 1.99323 0
M  V30 16992 N 1640.69 0.205039 1.56261 0
M  V30 16993 C 1641.92 -0.439502 2.0269 0
M  V30 16994 C 1642.34 -1.53715 1.08413 0
M  V30 16995 O 1641.7 -1.81167 0.0693616 0
M  V30 16996 C 1641.75 -0.963672 3.47485 0
M  V30 16997 O 1640.85 -2.07602 3.56336 0
M  V30 16998 H 1640.19 -0.101543 0.65619 0
M  V30 16999 H 1642.72 0.318835 2.021 0
M  V30 17000 H 1642.73 -1.27773 3.87476 0
M  V30 17001 H 1641.41 -0.160203 4.15591 0
M  V30 17002 H 1639.98 -1.76985 3.28224 0
M  V30 17003 N 1642.17 -1.57451 -0.0684915 0
M  V30 17004 C 1643.08 -2.07274 -1.09885 0
M  V30 17005 C 1644.1 -1.00295 -1.42186 0
M  V30 17006 O 1645.27 -1.31786 -1.52297 0
M  V30 17007 C 1642.34 -2.50949 -2.39219 0
M  V30 17008 C 1641.4 -3.7224 -2.13859 0
M  V30 17009 C 1640.63 -4.13823 -3.37026 0
M  V30 17010 O 1640.85 -3.55248 -4.46268 0
M  V30 17011 O 1639.79 -5.06587 -3.25044 0
M  V30 17012 H 1643.61 -2.9539 -0.705587 0
M  V30 17013 H 1641.2 -1.46698 -0.282849 0
M  V30 17014 H 1643.08 -2.79547 -3.15327 0
M  V30 17015 H 1641.76 -1.6596 -2.77919 0
M  V30 17016 H 1640.66 -3.4872 -1.35445 0
M  V30 17017 H 1642 -4.58091 -1.80038 0
M  V30 17018 N 1643.65 0.339955 -1.5389 0
M  V30 17019 C 1644.56 1.441 -1.85128 0
M  V30 17020 C 1645.57 1.57399 -0.741733 0
M  V30 17021 O 1646.75 1.72807 -1.0344 0
M  V30 17022 C 1643.81 2.7904 -2.05761 0
M  V30 17023 C 1642.88 2.75055 -3.29611 0
M  V30 17024 C 1642.11 4.0356 -3.4925 0
M  V30 17025 O 1642.33 5.01015 -2.72653 0
M  V30 17026 O 1641.27 4.07813 -4.42687 0
M  V30 17027 H 1645.09 1.20616 -2.78721 0
M  V30 17028 H 1642.68 0.532468 -1.39589 0
M  V30 17029 H 1644.56 3.5895 -2.20756 0
M  V30 17030 H 1643.23 3.02447 -1.15357 0
M  V30 17031 H 1642.14 1.93753 -3.20016 0
M  V30 17032 H 1643.47 2.56602 -4.20019 0
M  V30 17033 N 1645.13 1.45684 0.601159 0
M  V30 17034 C 1646.04 1.57396 1.73965 0
M  V30 17035 C 1647.05 0.458133 1.6786 0
M  V30 17036 O 1648.23 0.719717 1.88101 0
M  V30 17037 C 1645.29 1.54363 3.1044 0
M  V30 17038 C 1644.35 2.77034 3.27949 0
M  V30 17039 C 1643.59 2.74136 4.57914 0
M  V30 17040 O 1643.81 1.81829 5.40643 0
M  V30 17041 O 1642.74 3.65428 4.78274 0
M  V30 17042 H 1646.57 2.5364 1.67034 0
M  V30 17043 H 1644.15 1.28267 0.766017 0
M  V30 17044 H 1646.04 1.55302 3.91739 0
M  V30 17045 H 1644.71 0.612723 3.17848 0
M  V30 17046 H 1643.62 2.81655 2.46214 0
M  V30 17047 H 1644.95 3.69272 3.25422 0
M  V30 17048 N 1646.6 -0.84422 1.33082 0
M  V30 17049 C 1647.57 -1.93519 1.22813 0
M  V30 17050 C 1648.57 -1.60113 0.148516 0
M  V30 17051 O 1649.76 -1.69553 0.399668 0
M  V30 17052 C 1646.89 -3.29045 0.891179 0
M  V30 17053 H 1648.08 -2.04051 2.1978 0
M  V30 17054 H 1645.63 -1.03567 1.17063 0
M  V30 17055 H 1646.37 -3.2421 -0.0762276 0
M  V30 17056 H 1646.15 -3.54671 1.67186 0
M  V30 17057 H 1647.64 -4.08984 0.843932 0
M  V30 17058 N 1648.08 -1.16463 -1.0618 0
M  V30 17059 C 1649.03 -0.868264 -2.15787 0
M  V30 17060 C 1650.02 0.163135 -1.68613 0
M  V30 17061 O 1651.23 0.0170117 -1.79992 0
M  V30 17062 H 1647.6 -0.263184 -0.704442 0
M  V30 17063 H 1649.58 -1.80005 -2.37993 0
M  V30 17064 C 1648.32 -0.387052 -3.45539 0
M  V30 17065 H 1647.65 -1.17212 -3.82232 0
M  V30 17066 H 1649.09 -0.218471 -4.23437 0
M  V30 17067 C 1647.55 0.893588 -3.24833 0
M  V30 17068 O 1648.08 1.96259 -3.50493 0
M  V30 17069 N 1646.28 0.8378 -2.78261 0
M  V30 17070 H 1645.83 -0.0323251 -2.5758 0
M  V30 17071 H 1645.79 1.69515 -2.64787 0
M  V30 17072 N 1649.56 1.24734 -0.963288 0
M  V30 17073 C 1650.97 1.7456 -0.662246 0
M  V30 17074 C 1651.32 1.78143 0.822169 0
M  V30 17075 O 1650.45 1.40794 1.64335 0
M  V30 17076 C 1651.04 3.1701 -1.19542 0
M  V30 17077 C 1649.6 3.64361 -0.944371 0
M  V30 17078 C 1648.75 2.4314 -1.33335 0
M  V30 17079 H 1651.7 1.10498 -1.13911 0
M  V30 17080 H 1651.72 3.76362 -0.559601 0
M  V30 17081 H 1651.23 3.1437 -2.27581 0
M  V30 17082 H 1649.33 3.72405 0.120682 0
M  V30 17083 H 1649.45 4.52055 -1.58692 0
M  V30 17084 H 1647.81 2.43354 -0.751729 0
M  V30 17085 H 1648.59 2.43185 -2.42314 0
M  V30 17086 N 1651.04 0.732878 1.39523 0
M  V30 17087 C 1652 0.10004 2.28982 0
M  V30 17088 C 1653 -0.669361 1.46206 0
M  V30 17089 O 1654.19 -0.498694 1.66909 0
M  V30 17090 C 1651.32 -0.867616 3.29674 0
M  V30 17091 H 1652.52 0.88816 2.86447 0
M  V30 17092 H 1650.07 0.498578 1.48135 0
M  V30 17093 H 1650.8 -1.68217 2.77261 0
M  V30 17094 H 1650.59 -0.318577 3.90804 0
M  V30 17095 H 1652.08 -1.30704 3.96618 0
M  V30 17096 N 1652.52 -1.50101 0.480349 0
M  V30 17097 C 1653.48 -2.27258 -0.297763 0
M  V30 17098 C 1654.48 -1.32415 -0.912296 0
M  V30 17099 O 1655.67 -1.5576 -0.780035 0
M  V30 17100 C 1652.8 -3.09684 -1.42508 0
M  V30 17101 H 1653.99 -2.97495 0.379011 0
M  V30 17102 H 1651.55 -1.54528 0.234681 0
M  V30 17103 H 1652.28 -2.43964 -2.13663 0
M  V30 17104 H 1652.07 -3.79393 -0.990125 0
M  V30 17105 H 1653.56 -3.68013 -1.97374 0
M  V30 17106 N 1653.99 -0.213323 -1.5615 0
M  V30 17107 C 1655.22 0.425688 -2.02473 0
M  V30 17108 C 1655.64 1.53926 -1.09326 0
M  V30 17109 O 1654.99 1.82218 -0.101364 0
M  V30 17110 C 1655.04 0.965021 -3.48381 0
M  V30 17111 O 1654.77 -0.104145 -4.37976 0
M  V30 17112 C 1656.27 1.6781 -4.10311 0
M  V30 17113 H 1653.49 0.105064 -0.662724 0
M  V30 17114 H 1656.03 -0.327369 -2.01863 0
M  V30 17115 H 1654.19 1.66838 -3.49634 0
M  V30 17116 H 1654.6 0.299985 -5.23641 0
M  V30 17117 H 1656.07 2.00757 -5.14199 0
M  V30 17118 H 1656.55 2.58833 -3.54827 0
M  V30 17119 H 1657.16 1.02014 -4.12884 0
M  V30 17120 N 1655.47 1.57485 0.0601405 0
M  V30 17121 C 1656.42 2.04487 1.07023 0
M  V30 17122 C 1657.39 0.927738 1.37776 0
M  V30 17123 O 1658.57 1.19621 1.48645 0
M  V30 17124 C 1655.71 2.50338 2.37539 0
M  V30 17125 C 1654.83 3.75717 2.13215 0
M  V30 17126 C 1653.96 4.10304 3.37378 0
M  V30 17127 C 1653 5.2869 3.0847 0
M  V30 17128 N 1652.14 5.58858 4.24996 0
M  V30 17129 H 1656.98 2.90544 0.662444 0
M  V30 17130 H 1654.52 1.43676 0.315515 0
M  V30 17131 H 1656.47 2.74978 3.13756 0
M  V30 17132 H 1655.1 1.67242 2.76098 0
M  V30 17133 H 1654.16 3.58348 1.27636 0
M  V30 17134 H 1655.47 4.62068 1.87869 0
M  V30 17135 H 1654.62 4.35907 4.21983 0
M  V30 17136 H 1653.36 3.22544 3.6581 0
M  V30 17137 H 1652.37 5.02871 2.22262 0
M  V30 17138 H 1653.59 6.18077 2.81349 0
M  V30 17139 H 1651.54 4.74058 4.53437 0
M  V30 17140 H 1651.45 6.39652 4.02965 0
M  V30 17141 H 1652.72 5.89019 5.10565 0
M  V30 17142 N 1656.95 -0.331789 1.54068 0
M  V30 17143 C 1657.88 -1.42889 1.79208 0
M  V30 17144 C 1658.9 -1.48204 0.673754 0
M  V30 17145 O 1660.08 -1.51075 0.950712 0
M  V30 17146 C 1657.18 -2.81477 1.88743 0
M  V30 17147 C 1656.36 -2.99463 3.18812 0
M  V30 17148 C 1655.42 -4.18363 3.19154 0
M  V30 17149 O 1654.44 -4.11916 3.92828 0
M  V30 17150 N 1655.64 -5.27489 2.42354 0
M  V30 17151 H 1658.41 -1.21689 2.73883 0
M  V30 17152 H 1655.97 -0.521735 1.53263 0
M  V30 17153 H 1657.96 -3.59213 1.86409 0
M  V30 17154 H 1656.53 -2.95765 1.01202 0
M  V30 17155 H 1655.75 -2.09097 3.34174 0
M  V30 17156 H 1657.04 -3.0837 4.04704 0
M  V30 17157 H 1656.44 -5.35599 1.82071 0
M  V30 17158 H 1655 -6.03674 2.45806 0
M  V30 17159 N 1658.43 -1.46001 -0.593424 0
M  V30 17160 C 1659.34 -1.58316 -1.73128 0
M  V30 17161 C 1660.35 -0.467029 -1.67615 0
M  V30 17162 O 1661.53 -0.729682 -1.87717 0
M  V30 17163 C 1658.6 -1.56007 -3.09617 0
M  V30 17164 C 1657.66 -2.78769 -3.26475 0
M  V30 17165 C 1656.89 -2.76561 -4.56453 0
M  V30 17166 O 1657.11 -1.84694 -5.39671 0
M  V30 17167 O 1656.05 -3.67959 -4.76329 0
M  V30 17168 H 1659.87 -2.54522 -1.65686 0
M  V30 17169 H 1657.46 -1.28672 -0.759204 0
M  V30 17170 H 1659.34 -1.57377 -3.9091 0
M  V30 17171 H 1658.01 -0.629571 -3.17519 0
M  V30 17172 H 1656.92 -2.82956 -2.44717 0
M  V30 17173 H 1658.25 -3.70992 -3.23459 0
M  V30 17174 N 1659.91 0.83715 -1.33527 0
M  V30 17175 C 1660.82 1.97915 -1.25964 0
M  V30 17176 C 1661.83 1.73169 -0.169894 0
M  V30 17177 O 1663.01 1.97513 -0.393793 0
M  V30 17178 C 1660.07 3.31945 -1.00068 0
M  V30 17179 C 1659.13 3.69795 -2.1806 0
M  V30 17180 C 1658.37 4.97429 -1.9339 0
M  V30 17181 O 1658.59 5.63492 -0.885069 0
M  V30 17182 O 1657.52 5.32823 -2.79969 0
M  V30 17183 H 1661.35 2.07236 -2.22007 0
M  V30 17184 H 1658.94 0.970437 -1.13591 0
M  V30 17185 H 1660.82 4.12248 -0.873487 0
M  V30 17186 H 1659.49 3.23623 -0.0705475 0
M  V30 17187 H 1658.4 2.89995 -2.36334 0
M  V30 17188 H 1659.73 3.82784 -3.09414 0
M  V30 17189 N 1661.38 1.17024 1.05561 0
M  V30 17190 C 1662.63 0.957742 1.7876 0
M  V30 17191 C 1662.96 -0.512652 1.87311 0
M  V30 17192 O 1662.24 -1.38047 1.37016 0
M  V30 17193 C 1662.52 1.59495 3.22852 0
M  V30 17194 C 1662.37 3.13719 3.22336 0
M  V30 17195 C 1663.69 1.29576 4.20593 0
M  V30 17196 H 1660.81 0.349354 0.648938 0
M  V30 17197 H 1663.45 1.44467 1.23408 0
M  V30 17198 H 1661.6 1.18091 3.70117 0
M  V30 17199 H 1663.28 3.64156 2.83175 0
M  V30 17200 H 1661.52 3.46664 2.60781 0
M  V30 17201 H 1662.19 3.5343 4.24018 0
M  V30 17202 H 1664.67 1.65423 3.81804 0
M  V30 17203 H 1663.54 1.76751 5.19663 0
M  V30 17204 H 1663.8 0.21589 4.41573 0
M  V30 17205 N 1662.86 -1.24221 0.969889 0
M  V30 17206 C 1664.11 -1.92952 0.643512 0
M  V30 17207 C 1664.46 -1.74393 -0.812698 0
M  V30 17208 O 1663.76 -1.08771 -1.57732 0
M  V30 17209 C 1663.95 -3.44365 0.956427 0
M  V30 17210 C 1663.78 -3.77651 2.4415 0
M  V30 17211 C 1662.55 -3.98901 3.1017 0
M  V30 17212 C 1664.75 -3.8396 3.42169 0
M  V30 17213 N 1662.73 -4.19305 4.48393 0
M  V30 17214 C 1664.1 -4.09232 4.65756 0
M  V30 17215 C 1666.16 -3.66705 3.36796 0
M  V30 17216 C 1664.86 -4.19043 5.84633 0
M  V30 17217 C 1666.88 -3.77764 4.55026 0
M  V30 17218 C 1666.25 -4.03463 5.77405 0
M  V30 17219 H 1662.35 -0.727683 0.286359 0
M  V30 17220 H 1664.93 -1.49676 1.2452 0
M  V30 17221 H 1663.1 -3.86502 0.383535 0
M  V30 17222 H 1664.83 -4.004 0.588399 0
M  V30 17223 H 1661.59 -3.95392 2.60695 0
M  V30 17224 H 1662.01 -4.33483 5.20021 0
M  V30 17225 H 1666.65 -3.45841 2.43215 0
M  V30 17226 H 1664.37 -4.38718 6.7864 0
M  V30 17227 H 1667.96 -3.65781 4.52433 0
M  V30 17228 H 1666.84 -4.1182 6.67363 0
M  V30 17229 N 1664.34 -0.740267 -1.39132 0
M  V30 17230 C 1665.75 -0.359866 -1.83199 0
M  V30 17231 C 1666.1 1.1095 -1.61816 0
M  V30 17232 O 1665.23 1.85635 -1.11215 0
M  V30 17233 C 1665.82 -0.64639 -3.32577 0
M  V30 17234 C 1664.38 -0.319423 -3.75042 0
M  V30 17235 C 1663.53 -0.906345 -2.6207 0
M  V30 17236 H 1666.48 -0.93749 -1.2805 0
M  V30 17237 H 1666.5 0.080033 -3.80416 0
M  V30 17238 H 1666.01 -1.71588 -3.48108 0
M  V30 17239 H 1664.11 0.744022 -3.65096 0
M  V30 17240 H 1664.23 -0.805664 -4.72277 0
M  V30 17241 H 1662.59 -0.332615 -2.52519 0
M  V30 17242 H 1663.37 -1.9806 -2.80405 0
M  V30 17243 N 1665.82 1.49844 -0.488302 0
M  V30 17244 C 1666.78 2.27412 0.285706 0
M  V30 17245 C 1667.78 1.32897 0.905261 0
M  V30 17246 O 1668.97 1.56171 0.771763 0
M  V30 17247 C 1666.1 3.10435 1.40864 0
M  V30 17248 H 1667.3 2.9729 -0.394782 0
M  V30 17249 H 1664.85 1.54401 -0.242873 0
M  V30 17250 H 1665.58 2.45094 2.12367 0
M  V30 17251 H 1665.37 3.79913 0.969991 0
M  V30 17252 H 1666.86 3.69054 1.95419 0
M  V30 17253 N 1667.3 0.221601 1.56034 0
M  V30 17254 C 1668.23 -0.683171 2.23282 0
M  V30 17255 C 1669.21 -1.20101 1.20456 0
M  V30 17256 O 1670.39 -1.245 1.49041 0
M  V30 17257 C 1667.52 -1.89143 2.91277 0
M  V30 17258 C 1666.48 -1.50742 4.00576 0
M  V30 17259 C 1665.8 -2.79446 4.55867 0
M  V30 17260 C 1667.1 -0.697388 5.17623 0
M  V30 17261 H 1668.8 -0.122488 2.99149 0
M  V30 17262 H 1666.34 -0.0574732 1.43885 0
M  V30 17263 H 1668.3 -2.52982 3.37013 0
M  V30 17264 H 1667.02 -2.47708 2.12858 0
M  V30 17265 H 1665.68 -0.892492 3.5557 0
M  V30 17266 H 1665.33 -3.36155 3.74177 0
M  V30 17267 H 1665.03 -2.54486 5.29633 0
M  V30 17268 H 1666.55 -3.44228 5.04321 0
M  V30 17269 H 1667.96 -1.23948 5.59741 0
M  V30 17270 H 1666.36 -0.544875 5.97621 0
M  V30 17271 H 1667.43 0.295981 4.83996 0
M  V30 17272 N 1668.77 -1.57515 -0.0517878 0
M  V30 17273 C 1670.02 -1.87843 -0.745624 0
M  V30 17274 C 1670.34 -0.816318 -1.77091 0
M  V30 17275 O 1669.61 0.152784 -1.95303 0
M  V30 17276 H 1668.19 -0.693194 -0.278372 0
M  V30 17277 H 1670.86 -1.94886 -0.0231267 0
M  V30 17278 H 1669.95 -2.86001 -1.2494 0
M  V30 17279 N 1670.25 0.323614 -1.54242 0
M  V30 17280 C 1671.53 1.07979 -1.63095 0
M  V30 17281 C 1671.91 2.0592 -0.464774 0
M  V30 17282 O 1671.26 2.22004 0.540961 0
M  V30 17283 C 1671.47 1.78178 -3.0009 0
M  V30 17284 C 1672.82 2.31201 -3.56134 0
M  V30 17285 O 1673.84 1.88245 -3.02394 0
M  V30 17286 O 1672.7 3.09843 -4.50177 0
M  V30 17287 H 1669.79 0.497726 -0.660453 0
M  V30 17288 H 1672.34 0.323509 -1.66588 0
M  V30 17289 H 1671.11 1.06938 -3.76404 0
M  V30 17290 H 1670.73 2.60616 -3.00275 0
M  V30 17291 N 1671.73 1.46313 0.585673 0
M  V30 17292 C 1673.15 1.31203 0.908733 0
M  V30 17293 C 1673.35 0.281265 1.99527 0
M  V30 17294 O 1672.4 -0.317202 2.505 0
M  V30 17295 C 1673.72 2.69742 1.3289 0
M  V30 17296 C 1675.26 2.77809 1.44191 0
M  V30 17297 C 1675.74 4.16924 1.89574 0
M  V30 17298 N 1677.23 4.19327 1.96773 0
M  V30 17299 C 1677.97 5.23856 2.33157 0
M  V30 17300 N 1677.46 6.38716 2.68355 0
M  V30 17301 N 1679.25 5.11221 2.33686 0
M  V30 17302 H 1671.41 2.11989 -0.132126 0
M  V30 17303 H 1673.67 0.947993 0.00355835 0
M  V30 17304 H 1673.37 3.46465 0.604557 0
M  V30 17305 H 1673.25 2.99653 2.29102 0
M  V30 17306 H 1675.64 2.01377 2.15712 0
M  V30 17307 H 1675.72 2.51587 0.46237 0
M  V30 17308 H 1675.36 4.93851 1.18633 0
M  V30 17309 H 1675.29 4.40552 2.88481 0
M  V30 17310 H 1677.78 3.36451 1.72073 0
M  V30 17311 H 1678.09 7.14253 2.95063 0
M  V30 17312 H 1676.44 6.42082 2.66 0
M  V30 17313 H 1679.63 4.20527 2.05609 0
M  V30 17314 H 1679.8 5.92798 2.61714 0
M  V30 17315 N 1673.21 -0.830057 1.33969 0
M  V30 17316 C 1674.17 -1.92206 1.24858 0
M  V30 17317 C 1675.17 -1.59946 0.16549 0
M  V30 17318 O 1676.36 -1.6912 0.417629 0
M  V30 17319 C 1673.49 -3.28082 0.926029 0
M  V30 17320 H 1674.69 -2.01708 2.21932 0
M  V30 17321 H 1672.24 -1.02319 1.18154 0
M  V30 17322 H 1672.98 -3.24273 -0.0418364 0
M  V30 17323 H 1672.76 -3.52878 1.70938 0
M  V30 17324 H 1674.25 -4.08065 0.887263 0
M  V30 17325 N 1674.69 -1.17582 -1.04939 0
M  V30 17326 C 1675.62 -0.918221 -2.14688 0
M  V30 17327 C 1676.6 0.140757 -1.69517 0
M  V30 17328 O 1677.78 -0.0100118 -1.94197 0
M  V30 17329 C 1674.91 -0.433531 -3.44584 0
M  V30 17330 C 1673.87 -1.43199 -4.03334 0
M  V30 17331 C 1673.19 -0.805154 -5.28603 0
M  V30 17332 C 1674.49 -2.80598 -4.40525 0
M  V30 17333 H 1676.19 -1.83604 -2.36495 0
M  V30 17334 H 1673.73 -0.884202 -1.13657 0
M  V30 17335 H 1675.69 -0.240722 -4.20712 0
M  V30 17336 H 1674.41 0.519832 -3.22437 0
M  V30 17337 H 1673.07 -1.61158 -3.29277 0
M  V30 17338 H 1672.72 0.155124 -5.02761 0
M  V30 17339 H 1672.42 -1.4717 -5.68871 0
M  V30 17340 H 1673.94 -0.622677 -6.07417 0
M  V30 17341 H 1675.36 -2.66341 -5.07676 0
M  V30 17342 H 1673.75 -3.43854 -4.91817 0
M  V30 17343 H 1674.82 -3.34815 -3.50752 0
M  V30 17344 N 1676.17 1.23705 -0.976463 0
M  V30 17345 C 1677.41 1.92299 -0.64412 0
M  V30 17346 C 1677.74 1.7605 0.819767 0
M  V30 17347 O 1677.02 1.11902 1.59086 0
M  V30 17348 C 1677.3 3.45042 -1.03044 0
M  V30 17349 C 1677.16 3.70418 -2.55167 0
M  V30 17350 C 1678.47 4.36374 -0.571444 0
M  V30 17351 H 1675.59 0.698369 -0.235478 0
M  V30 17352 H 1678.24 1.45904 -1.21704 0
M  V30 17353 H 1676.39 3.84687 -0.54294 0
M  V30 17354 H 1678.06 3.40278 -3.11462 0
M  V30 17355 H 1676.3 3.15266 -2.97976 0
M  V30 17356 H 1676.97 4.77323 -2.77248 0
M  V30 17357 H 1679.45 4.04153 -0.989936 0
M  V30 17358 H 1678.32 5.41958 -0.870226 0
M  V30 17359 H 1678.58 4.38932 0.528318 0
M  V30 17360 N 1677.64 0.747635 1.38738 0
M  V30 17361 C 1679.05 0.369576 1.83006 0
M  V30 17362 C 1679.41 -1.10091 1.62402 0
M  V30 17363 O 1678.53 -1.85042 1.12198 0
M  V30 17364 C 1679.13 0.664018 3.32229 0
M  V30 17365 C 1677.68 0.339308 3.74868 0
M  V30 17366 C 1676.83 0.920231 2.61586 0
M  V30 17367 H 1679.78 0.944268 1.27551 0
M  V30 17368 H 1679.8 -0.0598575 3.80453 0
M  V30 17369 H 1679.32 1.73432 3.47193 0
M  V30 17370 H 1677.42 -0.724649 3.65485 0
M  V30 17371 H 1677.53 0.830699 4.71843 0
M  V30 17372 H 1675.89 0.346002 2.52339 0
M  V30 17373 H 1676.68 1.99544 2.79351 0
M  V30 17374 N 1679.12 -1.49583 0.496242 0
M  V30 17375 C 1680.05 -2.25783 -0.331257 0
M  V30 17376 C 1681.03 -1.3016 -0.974526 0
M  V30 17377 O 1682.22 -1.59439 -1.00556 0
M  V30 17378 C 1679.34 -3.05323 -1.46614 0
M  V30 17379 C 1678.39 -4.16064 -0.937722 0
M  V30 17380 S 1679.22 -5.35237 0.167715 0
M  V30 17381 C 1680.38 -6.18331 -0.970443 0
M  V30 17382 H 1680.61 -2.95621 0.315507 0
M  V30 17383 H 1678.14 -1.51813 0.28147 0
M  V30 17384 H 1680.1 -3.51735 -2.11642 0
M  V30 17385 H 1678.76 -2.34963 -2.0845 0
M  V30 17386 H 1677.96 -4.71215 -1.78808 0
M  V30 17387 H 1677.56 -3.72217 -0.364726 0
M  V30 17388 H 1679.85 -6.50988 -1.87671 0
M  V30 17389 H 1680.79 -7.0662 -0.457649 0
M  V30 17390 H 1681.2 -5.50811 -1.23563 0
M  V30 17391 N 1680.6 -0.229873 -1.55915 0
M  V30 17392 C 1681.85 0.400157 -1.98813 0
M  V30 17393 C 1682.18 1.58821 -1.11756 0
M  V30 17394 O 1681.45 1.93692 -0.177094 0
M  V30 17395 C 1681.74 0.826623 -3.50484 0
M  V30 17396 C 1681.59 -0.365647 -4.48311 0
M  V30 17397 C 1682.91 1.6798 -4.06781 0
M  V30 17398 H 1680.03 0.143977 -0.7228 0
M  V30 17399 H 1682.67 -0.327775 -1.87151 0
M  V30 17400 H 1680.82 1.44687 -3.60552 0
M  V30 17401 H 1682.49 -1.00391 -4.50244 0
M  V30 17402 H 1680.73 -1.01168 -4.21838 0
M  V30 17403 H 1681.41 -0.0241816 -5.51995 0
M  V30 17404 H 1683.88 1.15639 -3.99708 0
M  V30 17405 H 1682.76 1.94708 -5.13206 0
M  V30 17406 H 1683.02 2.64594 -3.54179 0
M  V30 17407 N 1682.08 1.5754 0.0434337 0
M  V30 17408 C 1682.99 2.08996 1.06574 0
M  V30 17409 C 1684 1.02544 1.40573 0
M  V30 17410 O 1685.18 1.34192 1.50181 0
M  V30 17411 C 1682.24 2.54723 2.35196 0
M  V30 17412 C 1681.31 3.75595 2.0791 0
M  V30 17413 C 1680.54 4.19132 3.304 0
M  V30 17414 O 1680.76 3.62303 4.40559 0
M  V30 17415 O 1679.7 5.11694 3.16944 0
M  V30 17416 H 1683.52 2.96475 0.658503 0
M  V30 17417 H 1681.11 1.47129 0.259475 0
M  V30 17418 H 1682.99 2.84529 3.1084 0
M  V30 17419 H 1681.66 1.70361 2.75243 0
M  V30 17420 H 1680.57 3.5083 1.2988 0
M  V30 17421 H 1681.9 4.60897 1.72727 0
M  V30 17422 N 1683.56 -0.31543 1.54411 0
M  V30 17423 C 1684.49 -1.4098 1.80713 0
M  V30 17424 C 1685.5 -1.47481 0.689435 0
M  V30 17425 O 1686.69 -1.50058 0.966682 0
M  V30 17426 C 1683.79 -2.79459 1.91718 0
M  V30 17427 C 1682.96 -2.96064 3.2197 0
M  V30 17428 C 1682.02 -4.14954 3.23573 0
M  V30 17429 O 1681.05 -4.07726 3.97175 0
M  V30 17430 N 1682.25 -5.24889 2.47935 0
M  V30 17431 H 1685.01 -1.18778 2.75158 0
M  V30 17432 H 1682.58 -0.50545 1.53808 0
M  V30 17433 H 1684.57 -3.57215 1.90209 0
M  V30 17434 H 1683.14 -2.94675 1.04333 0
M  V30 17435 H 1682.36 -2.05541 3.36372 0
M  V30 17436 H 1683.65 -3.0406 4.07952 0
M  V30 17437 H 1683.04 -5.33638 1.87741 0
M  V30 17438 H 1681.6 -6.01033 2.52195 0
M  V30 17439 N 1685.03 -1.46622 -0.577906 0
M  V30 17440 C 1685.96 -1.60413 -1.69676 0
M  V30 17441 C 1686.95 -0.454277 -1.63922 0
M  V30 17442 O 1688.13 -0.68111 -1.81864 0
M  V30 17443 C 1685.26 -1.59866 -3.08318 0
M  V30 17444 C 1684.21 -2.7387 -3.28906 0
M  V30 17445 C 1683.54 -2.58386 -4.68125 0
M  V30 17446 C 1684.84 -4.15652 -3.16276 0
M  V30 17447 H 1686.53 -2.54073 -1.5839 0
M  V30 17448 H 1684.08 -1.22275 -0.760572 0
M  V30 17449 H 1686.03 -1.68108 -3.86417 0
M  V30 17450 H 1684.76 -0.627541 -3.20514 0
M  V30 17451 H 1683.42 -2.65105 -2.53209 0
M  V30 17452 H 1683.06 -1.59347 -4.77093 0
M  V30 17453 H 1682.76 -3.34855 -4.82852 0
M  V30 17454 H 1684.29 -2.68525 -5.48385 0
M  V30 17455 H 1685.7 -4.25503 -3.84214 0
M  V30 17456 H 1684.1 -4.92746 -3.42523 0
M  V30 17457 H 1685.17 -4.35471 -2.13291 0
M  V30 17458 N 1686.51 0.822941 -1.34408 0
M  V30 17459 C 1687.76 1.57916 -1.26763 0
M  V30 17460 C 1688.09 1.93821 0.162408 0
M  V30 17461 O 1687.34 1.60226 1.12366 0
M  V30 17462 C 1687.64 2.88915 -2.10388 0
M  V30 17463 C 1687.31 2.72302 -3.59392 0
M  V30 17464 C 1685.97 2.67479 -4.00011 0
M  V30 17465 C 1688.32 2.5598 -4.54008 0
M  V30 17466 C 1685.65 2.44255 -5.33438 0
M  V30 17467 C 1688 2.34288 -5.87615 0
M  V30 17468 C 1686.67 2.27877 -6.27398 0
M  V30 17469 H 1685.94 0.577854 -0.46386 0
M  V30 17470 H 1688.58 0.95218 -1.6615 0
M  V30 17471 H 1686.89 3.55903 -1.63829 0
M  V30 17472 H 1688.58 3.46511 -2.01819 0
M  V30 17473 H 1685.17 2.76896 -3.27149 0
M  V30 17474 H 1689.36 2.5873 -4.23524 0
M  V30 17475 H 1684.61 2.37749 -5.63281 0
M  V30 17476 H 1688.79 2.20646 -6.60521 0
M  V30 17477 H 1686.42 2.09643 -7.30722 0
M  V30 17478 N 1687.99 1.18137 1.04314 0
M  V30 17479 C 1689.22 1.00062 1.81666 0
M  V30 17480 C 1689.64 -0.446281 1.82729 0
M  V30 17481 O 1689 -1.32004 1.24277 0
M  V30 17482 C 1689.05 1.55698 3.25255 0
M  V30 17483 O 1688.15 0.776662 4.05021 0
M  V30 17484 H 1687.49 0.354651 0.561354 0
M  V30 17485 H 1690.02 1.56837 1.3139 0
M  V30 17486 H 1690.03 1.58303 3.76037 0
M  V30 17487 H 1688.71 2.61016 3.23795 0
M  V30 17488 H 1687.28 0.822723 3.63711 0
M  V30 17489 N 1689.47 -1.23186 0.98301 0
M  V30 17490 C 1690.42 -2.22529 0.496484 0
M  V30 17491 C 1691.4 -1.5505 -0.429923 0
M  V30 17492 O 1692.59 -1.75104 -0.258352 0
M  V30 17493 C 1689.72 -3.42733 -0.197237 0
M  V30 17494 C 1688.81 -4.17435 0.748894 0
M  V30 17495 N 1689.2 -4.69056 1.89261 0
M  V30 17496 C 1687.5 -4.42435 0.562753 0
M  V30 17497 C 1688.2 -5.25918 2.48566 0
M  V30 17498 N 1687.18 -5.14001 1.76929 0
M  V30 17499 H 1690.98 -2.60072 1.36893 0
M  V30 17500 H 1688.49 -1.38745 0.844014 0
M  V30 17501 H 1690.49 -4.1308 -0.56311 0
M  V30 17502 H 1689.15 -3.06705 -1.06593 0
M  V30 17503 H 1690.16 -4.6532 2.27372 0
M  V30 17504 H 1686.84 -4.16685 -0.260705 0
M  V30 17505 H 1688.23 -5.76462 3.45168 0
M  V30 17506 N 1690.95 -0.754982 -1.38339 0
M  V30 17507 C 1691.88 -0.143678 -2.33058 0
M  V30 17508 C 1692.86 0.702022 -1.54938 0
M  V30 17509 O 1694.04 0.642922 -1.83249 0
M  V30 17510 C 1691.17 0.749194 -3.39123 0
M  V30 17511 C 1690.13 0.00611459 -4.28 0
M  V30 17512 C 1689.45 1.01733 -5.24933 0
M  V30 17513 C 1690.75 -1.1631 -5.09185 0
M  V30 17514 H 1692.45 -0.934907 -2.84429 0
M  V30 17515 H 1689.99 -0.451023 -1.36754 0
M  V30 17516 H 1691.95 1.18653 -4.04351 0
M  V30 17517 H 1690.67 1.57276 -2.86237 0
M  V30 17518 H 1689.33 -0.411816 -3.6428 0
M  V30 17519 H 1688.98 1.83499 -4.68334 0
M  V30 17520 H 1688.68 0.524783 -5.85252 0
M  V30 17521 H 1690.2 1.45395 -5.93037 0
M  V30 17522 H 1691.61 -0.803244 -5.67645 0
M  V30 17523 H 1690.01 -1.5866 -5.78746 0
M  V30 17524 H 1691.08 -1.97533 -4.42842 0
M  V30 17525 N 1692.42 1.49318 -0.504168 0
M  V30 17526 C 1693.35 2.32027 0.261837 0
M  V30 17527 C 1694.34 1.4045 0.959575 0
M  V30 17528 O 1695.52 1.69357 0.950365 0
M  V30 17529 C 1692.65 3.21039 1.3248 0
M  V30 17530 C 1691.6 4.21435 0.746752 0
M  V30 17531 C 1690.93 4.99405 1.91047 0
M  V30 17532 C 1692.23 5.21631 -0.264315 0
M  V30 17533 H 1693.92 2.96317 -0.428544 0
M  V30 17534 H 1691.47 1.42497 -0.207539 0
M  V30 17535 H 1693.42 3.77714 1.86843 0
M  V30 17536 H 1692.15 2.54699 2.04441 0
M  V30 17537 H 1690.81 3.6591 0.22485 0
M  V30 17538 H 1690.45 4.29509 2.61784 0
M  V30 17539 H 1690.15 5.67338 1.52975 0
M  V30 17540 H 1691.68 5.58924 2.45837 0
M  V30 17541 H 1693.09 5.72981 0.191288 0
M  V30 17542 H 1691.49 5.97472 -0.561039 0
M  V30 17543 H 1692.56 4.70346 -1.17911 0
M  V30 17544 N 1693.9 0.238138 1.5579 0
M  V30 17545 C 1694.85 -0.665098 2.21009 0
M  V30 17546 C 1695.82 -1.17793 1.17107 0
M  V30 17547 O 1697 -1.234 1.45523 0
M  V30 17548 C 1694.14 -1.86028 2.90667 0
M  V30 17549 C 1693.26 -1.3848 4.09203 0
M  V30 17550 C 1692.39 -2.53885 4.666 0
M  V30 17551 C 1691.43 -2.03155 5.77403 0
M  V30 17552 N 1690.57 -3.11895 6.2902 0
M  V30 17553 H 1695.41 -0.102242 2.97825 0
M  V30 17554 H 1692.95 -0.0387064 1.47049 0
M  V30 17555 H 1694.9 -2.56226 3.29248 0
M  V30 17556 H 1693.53 -2.39575 2.16341 0
M  V30 17557 H 1692.59 -0.577172 3.75996 0
M  V30 17558 H 1693.9 -0.972946 4.89219 0
M  V30 17559 H 1693.05 -3.32139 5.07709 0
M  V30 17560 H 1691.79 -2.98368 3.85782 0
M  V30 17561 H 1690.8 -1.23369 5.3578 0
M  V30 17562 H 1692.02 -1.59653 6.60067 0
M  V30 17563 H 1689.97 -3.55828 5.5111 0
M  V30 17564 H 1689.88 -2.75013 7.04204 0
M  V30 17565 H 1691.15 -3.90234 6.74787 0
M  V30 17566 N 1695.38 -1.57561 -0.0350783 0
M  V30 17567 C 1696.63 -1.89276 -0.728172 0
M  V30 17568 C 1696.96 -0.835137 -1.75326 0
M  V30 17569 O 1696.23 0.150516 -1.93917 0
M  V30 17570 C 1696.52 -3.31638 -1.40316 0
M  V30 17571 C 1696.37 -4.48089 -0.391996 0
M  V30 17572 C 1697.69 -3.72816 -2.33872 0
M  V30 17573 H 1694.81 -0.688381 -0.26325 0
M  V30 17574 H 1697.45 -1.89998 0.00900661 0
M  V30 17575 H 1695.6 -3.31153 -2.0315 0
M  V30 17576 H 1697.27 -4.60706 0.233965 0
M  V30 17577 H 1695.52 -4.32834 0.289305 0
M  V30 17578 H 1696.19 -5.4457 -0.902641 0
M  V30 17579 H 1698.66 -3.74629 -1.81086 0
M  V30 17580 H 1697.54 -4.73245 -2.78084 0
M  V30 17581 H 1697.8 -3.04744 -3.20287 0
M  V30 17582 N 1696.86 0.307236 -1.54576 0
M  V30 17583 C 1698.11 1.04082 -1.72771 0
M  V30 17584 C 1698.42 1.88639 -0.517188 0
M  V30 17585 O 1699.63 2.65215 -0.580811 0
M  V30 17586 C 1698.08 1.90015 -3.05651 0
M  V30 17587 C 1697.69 1.10491 -4.34161 0
M  V30 17588 C 1699.43 2.6301 -3.33205 0
M  V30 17589 C 1697.34 1.95664 -5.58094 0
M  V30 17590 H 1696.27 0.392307 -0.643903 0
M  V30 17591 H 1698.92 0.29815 -1.81062 0
M  V30 17592 H 1697.3 2.68245 -2.91309 0
M  V30 17593 H 1698.48 0.369181 -4.59319 0
M  V30 17594 H 1696.79 0.491053 -4.13494 0
M  V30 17595 H 1699.39 3.27074 -4.22997 0
M  V30 17596 H 1699.73 3.31512 -2.51804 0
M  V30 17597 H 1700.27 1.91833 -3.4849 0
M  V30 17598 H 1697.01 1.31643 -6.42145 0
M  V30 17599 H 1696.53 2.66927 -5.37131 0
M  V30 17600 H 1698.2 2.53861 -5.95116 0
M  V30 17601 N 1698.34 1.46926 0.570122 0
M  V30 17602 C 1699.28 1.5883 1.69929 0
M  V30 17603 C 1700.28 0.456167 1.63143 0
M  V30 17604 O 1701.48 0.633503 1.68484 0
M  V30 17605 H 1697.86 0.499606 0.562048 0
M  V30 17606 H 1699.83 2.53744 1.57023 0
M  V30 17607 C 1698.58 1.60761 3.08304 0
M  V30 17608 H 1697.9 2.47219 3.14202 0
M  V30 17609 H 1699.34 1.73142 3.87037 0
M  V30 17610 C 1697.8 0.338515 3.35195 0
M  V30 17611 O 1698.33 -0.565917 3.97694 0
M  V30 17612 N 1696.54 0.222525 2.89747 0
M  V30 17613 H 1696.08 0.959435 2.39066 0
M  V30 17614 H 1696.04 -0.625697 3.08111 0
M  V30 17615 N 1699.82 -0.815801 1.34842 0
M  V30 17616 C 1701.06 -1.56747 1.26938 0
M  V30 17617 C 1701.38 -1.9497 -0.156887 0
M  V30 17618 O 1702.58 -2.69128 -0.358132 0
M  V30 17619 C 1701.04 -2.82832 2.22562 0
M  V30 17620 C 1700.65 -2.51883 3.70485 0
M  V30 17621 C 1702.39 -3.60849 2.23581 0
M  V30 17622 C 1700.3 -3.74204 4.57957 0
M  V30 17623 H 1699.23 -0.58832 0.471588 0
M  V30 17624 H 1701.88 -0.897551 1.60051 0
M  V30 17625 H 1700.26 -3.51486 1.8241 0
M  V30 17626 H 1701.44 -1.91294 4.19217 0
M  V30 17627 H 1699.75 -1.87129 3.71983 0
M  V30 17628 H 1702.35 -4.51686 2.86154 0
M  V30 17629 H 1702.69 -3.97496 1.23703 0
M  V30 17630 H 1703.22 -2.99146 2.62215 0
M  V30 17631 H 1699.96 -3.42672 5.58799 0
M  V30 17632 H 1699.48 -4.34051 4.13956 0
M  V30 17633 H 1701.16 -4.41536 4.72921 0
M  V30 17634 N 1701.29 -1.18689 -1.03686 0
M  V30 17635 C 1702.53 -0.995625 -1.78512 0
M  V30 17636 C 1702.9 0.466151 -1.86255 0
M  V30 17637 O 1704.1 0.776976 -2.57326 0
M  V30 17638 C 1702.37 -1.63695 -3.17709 0
M  V30 17639 S 1703.93 -1.59397 -4.08825 0
M  V30 17640 H 1700.75 -0.357446 -0.614616 0
M  V30 17641 H 1703.35 -1.50899 -1.24297 0
M  V30 17642 H 1702.05 -2.69301 -3.09685 0
M  V30 17643 H 1701.58 -1.12404 -3.77 0
M  V30 17644 H 1703.6 -0.61254 -4.92405 0
M  V30 17645 N 1702.77 1.22662 -0.989529 0
M  V30 17646 C 1703.73 2.22695 -0.542183 0
M  V30 17647 C 1704.73 1.56411 0.373132 0
M  V30 17648 O 1705.92 1.73412 0.165556 0
M  V30 17649 C 1703.06 3.40241 0.211841 0
M  V30 17650 H 1704.25 2.63786 -1.42678 0
M  V30 17651 H 1701.8 1.35654 -0.776377 0
M  V30 17652 H 1702.54 3.04618 1.11257 0
M  V30 17653 H 1702.32 3.89563 -0.445319 0
M  V30 17654 H 1703.81 4.14436 0.513107 0
M  V30 17655 N 1704.25 0.762308 1.37937 0
M  V30 17656 C 1705.2 0.115944 2.27705 0
M  V30 17657 C 1706.18 -0.684063 1.45634 0
M  V30 17658 O 1707.38 -0.548586 1.68284 0
M  V30 17659 C 1704.5 -0.76969 3.3456 0
M  V30 17660 C 1703.59 0.0376368 4.24083 0
M  V30 17661 N 1703.98 1.07849 4.94168 0
M  V30 17662 C 1702.28 -0.187824 4.45604 0
M  V30 17663 C 1702.98 1.56769 5.60177 0
M  V30 17664 N 1701.96 0.881477 5.36406 0
M  V30 17665 H 1705.76 0.912994 2.79359 0
M  V30 17666 H 1703.27 0.599168 1.50943 0
M  V30 17667 H 1705.27 -1.24844 3.97768 0
M  V30 17668 H 1703.93 -1.56559 2.84463 0
M  V30 17669 H 1704.94 1.46046 4.96881 0
M  V30 17670 H 1701.62 -0.95638 4.06398 0
M  V30 17671 H 1703.01 2.43517 6.26218 0
M  V30 17672 N 1705.73 -1.49049 0.51208 0
M  V30 17673 C 1706.97 -2.0278 -0.0285311 0
M  V30 17674 C 1707.31 -1.39003 -1.35617 0
M  V30 17675 O 1706.58 -0.52952 -1.87153 0
M  V30 17676 C 1706.86 -3.59701 -0.169433 0
M  V30 17677 C 1706.72 -4.33989 1.18211 0
M  V30 17678 C 1708.04 -4.30698 -0.904812 0
M  V30 17679 H 1705.16 -0.736946 -0.00889467 0
M  V30 17680 H 1707.8 -1.77959 0.66564 0
M  V30 17681 H 1705.95 -3.8098 -0.760667 0
M  V30 17682 H 1707.62 -4.24176 1.81307 0
M  V30 17683 H 1705.86 -3.9611 1.76859 0
M  V30 17684 H 1706.53 -5.42177 1.03671 0
M  V30 17685 H 1709.01 -4.14141 -0.40327 0
M  V30 17686 H 1707.89 -5.40221 -0.972264 0
M  V30 17687 H 1708.15 -3.96718 -1.95108 0
M  V30 17688 N 1707.21 -0.246397 -1.55662 0
M  V30 17689 C 1708.14 0.647563 -2.24341 0
M  V30 17690 C 1709.12 1.1817 -1.22352 0
M  V30 17691 O 1710.3 1.22114 -1.51003 0
M  V30 17692 C 1707.43 1.84485 -2.94249 0
M  V30 17693 C 1706.39 1.4435 -4.02923 0
M  V30 17694 C 1705.71 2.72158 -4.60255 0
M  V30 17695 C 1707.01 0.614951 -5.18667 0
M  V30 17696 H 1708.71 0.0748803 -2.99306 0
M  V30 17697 H 1706.25 0.034575 -1.43958 0
M  V30 17698 H 1708.2 2.47588 -3.40995 0
M  V30 17699 H 1706.93 2.4429 -2.16772 0
M  V30 17700 H 1705.59 0.835811 -3.56945 0
M  V30 17701 H 1705.24 3.3016 -3.79478 0
M  V30 17702 H 1704.94 2.46028 -5.33614 0
M  V30 17703 H 1706.46 3.36161 -5.09734 0
M  V30 17704 H 1707.87 1.15028 -5.61642 0
M  V30 17705 H 1706.27 0.449729 -5.98412 0
M  V30 17706 H 1707.34 -0.372943 -4.83464 0
M  V30 17707 N 1708.68 1.57577 0.026722 0
M  V30 17708 C 1709.96 1.80541 0.752606 0
M  V30 17709 C 1710.34 0.845025 1.93449 0
M  V30 17710 O 1709.69 -0.112286 2.28224 0
M  V30 17711 C 1709.9 3.28322 1.18345 0
M  V30 17712 C 1711.25 3.93366 1.59839 0
M  V30 17713 O 1712.27 3.32486 1.27796 0
M  V30 17714 O 1711.13 5.0056 2.19321 0
M  V30 17715 H 1708.22 0.742514 0.364146 0
M  V30 17716 H 1710.77 1.697 0.00332 0
M  V30 17717 H 1709.54 3.89822 0.339832 0
M  V30 17718 H 1709.16 3.44061 1.99267 0
M  V30 17719 N 1710.16 -0.299034 1.54737 0
M  V30 17720 C 1711.44 -1.05371 1.64792 0
M  V30 17721 C 1711.82 -2.05155 0.497475 0
M  V30 17722 O 1711.17 -2.22837 -0.505573 0
M  V30 17723 C 1711.38 -1.73381 3.02886 0
M  V30 17724 C 1712.72 -2.25506 3.59767 0
M  V30 17725 O 1713.75 -1.8341 3.05351 0
M  V30 17726 O 1712.61 -3.02642 4.55049 0
M  V30 17727 H 1709.7 -0.487156 0.668287 0
M  V30 17728 H 1712.25 -0.296965 1.67081 0
M  V30 17729 H 1711.02 -1.00936 3.78058 0
M  V30 17730 H 1710.64 -2.55806 3.04383 0
M  V30 17731 N 1711.64 -1.47227 -0.562322 0
M  V30 17732 C 1712.89 -1.53816 -1.32168 0
M  V30 17733 C 1713.22 -0.197649 -1.93192 0
M  V30 17734 O 1712.49 0.793178 -1.77592 0
M  V30 17735 C 1712.78 -2.65231 -2.43566 0
M  V30 17736 C 1712.63 -4.08882 -1.87445 0
M  V30 17737 C 1713.95 -2.72589 -3.45519 0
M  V30 17738 H 1711.07 -0.559947 -0.479195 0
M  V30 17739 H 1713.71 -1.7926 -0.629762 0
M  V30 17740 H 1711.86 -2.43667 -3.02587 0
M  V30 17741 H 1713.53 -4.41794 -1.32725 0
M  V30 17742 H 1711.77 -4.17401 -1.18149 0
M  V30 17743 H 1712.45 -4.82603 -2.67952 0
M  V30 17744 H 1714.92 -2.92028 -2.9641 0
M  V30 17745 H 1713.8 -3.5233 -4.20898 0
M  V30 17746 H 1714.06 -1.79444 -4.04045 0
M  V30 17747 N 1713.12 0.808639 -1.35273 0
M  V30 17748 C 1714.08 1.90195 -1.279 0
M  V30 17749 C 1715.08 1.59663 -0.190915 0
M  V30 17750 O 1716.27 1.68434 -0.444482 0
M  V30 17751 C 1713.4 3.26567 -0.978106 0
M  V30 17752 H 1714.6 1.98152 -2.25113 0
M  V30 17753 H 1712.15 1.00426 -1.19767 0
M  V30 17754 H 1712.88 3.24299 -0.00975789 0
M  V30 17755 H 1712.67 3.50114 -1.7653 0
M  V30 17756 H 1714.16 4.06602 -0.95207 0
M  V30 17757 N 1714.6 1.19237 1.03055 0
M  V30 17758 C 1716.01 0.996569 1.57878 0
M  V30 17759 C 1716.36 -0.450987 1.90946 0
M  V30 17760 O 1715.48 -1.33009 1.70697 0
M  V30 17761 C 1716.08 1.80272 2.86858 0
M  V30 17762 C 1714.64 1.65097 3.3826 0
M  V30 17763 C 1713.78 1.79079 2.11721 0
M  V30 17764 H 1716.74 1.33633 0.856037 0
M  V30 17765 H 1716.76 1.29781 3.57683 0
M  V30 17766 H 1716.27 2.85621 2.62759 0
M  V30 17767 H 1714.37 0.623267 3.6735 0
M  V30 17768 H 1714.48 2.45527 4.11404 0
M  V30 17769 H 1712.85 1.22124 2.23512 0
M  V30 17770 H 1713.63 2.85885 1.90065 0
M  V30 17771 N 1716.07 -1.22136 0.99602 0
M  V30 17772 C 1717.32 -1.9059 0.672303 0
M  V30 17773 C 1717.64 -1.77903 -0.798476 0
M  V30 17774 O 1716.91 -1.1682 -1.57257 0
M  V30 17775 H 1715.49 -0.705445 0.245676 0
M  V30 17776 H 1718.16 -1.48423 1.2632 0
M  V30 17777 H 1717.25 -2.97684 0.937577 0
M  V30 17778 N 1717.55 -0.769612 -1.37531 0
M  V30 17779 C 1718.96 -0.398644 -1.82394 0
M  V30 17780 C 1719.31 1.07493 -1.64133 0
M  V30 17781 O 1718.44 1.83234 -1.15127 0
M  V30 17782 C 1719.03 -0.716789 -3.31131 0
M  V30 17783 C 1717.59 -0.398903 -3.7428 0
M  V30 17784 C 1716.74 -0.96173 -2.60089 0
M  V30 17785 H 1719.69 -0.964441 -1.26033 0
M  V30 17786 H 1719.71 -0.00067688 -3.805 0
M  V30 17787 H 1719.22 -1.78933 -3.4439 0
M  V30 17788 H 1717.33 0.666412 -3.66592 0
M  V30 17789 H 1717.44 -0.90566 -4.70462 0
M  V30 17790 H 1715.8 -0.386103 -2.51757 0
M  V30 17791 H 1716.59 -2.03963 -2.76141 0
M  V30 17792 N 1719.03 1.48775 -0.519977 0
M  V30 17793 C 1719.99 2.27967 0.237405 0
M  V30 17794 C 1720.99 1.34787 0.876868 0
M  V30 17795 O 1722.18 1.57773 0.738463 0
M  V30 17796 C 1719.32 3.13353 1.34248 0
M  V30 17797 H 1720.51 2.96386 -0.457753 0
M  V30 17798 H 1718.06 1.53852 -0.275569 0
M  V30 17799 H 1718.8 2.49543 2.0712 0
M  V30 17800 H 1718.58 3.81885 0.889187 0
M  V30 17801 H 1720.07 3.73116 1.87547 0
M  V30 17802 N 1720.51 0.254649 1.55529 0
M  V30 17803 C 1721.76 -0.368461 1.98306 0
M  V30 17804 C 1722.07 -1.585 1.14617 0
M  V30 17805 O 1723.28 -2.27975 1.47443 0
M  V30 17806 C 1721.73 -0.70693 3.52889 0
M  V30 17807 C 1721.34 0.488648 4.45327 0
M  V30 17808 C 1723.08 -1.2938 4.04303 0
M  V30 17809 C 1720.99 0.125903 5.91266 0
M  V30 17810 H 1719.92 -0.141444 0.740614 0
M  V30 17811 H 1722.57 0.356085 1.80012 0
M  V30 17812 H 1720.95 -1.48982 3.66907 0
M  V30 17813 H 1722.13 1.26587 4.43071 0
M  V30 17814 H 1720.44 0.990969 4.04436 0
M  V30 17815 H 1723.04 -1.57866 5.10864 0
M  V30 17816 H 1723.38 -2.22088 3.52112 0
M  V30 17817 H 1723.92 -0.573647 3.93642 0
M  V30 17818 H 1720.66 1.02032 6.4751 0
M  V30 17819 H 1720.18 -0.614969 5.96639 0
M  V30 17820 H 1721.85 -0.289174 6.46353 0
M  V30 17821 N 1721.99 -1.57589 -0.0183649 0
M  V30 17822 C 1722.93 -2.07252 -1.01563 0
M  V30 17823 C 1723.9 -0.963941 -1.35268 0
M  V30 17824 O 1725.09 -1.2352 -1.45421 0
M  V30 17825 C 1722.23 -2.56548 -2.30818 0
M  V30 17826 C 1721.34 -3.81238 -2.03178 0
M  V30 17827 C 1720.48 -4.19105 -3.26381 0
M  V30 17828 C 1719.52 -5.36682 -2.94344 0
M  V30 17829 N 1718.65 -5.6993 -4.1003 0
M  V30 17830 H 1723.49 -2.92198 -0.585179 0
M  V30 17831 H 1721.03 -1.44462 -0.27731 0
M  V30 17832 H 1722.99 -2.832 -3.06355 0
M  V30 17833 H 1721.62 -1.74504 -2.71566 0
M  V30 17834 H 1720.67 -3.61606 -1.1809 0
M  V30 17835 H 1721.98 -4.66886 -1.75552 0
M  V30 17836 H 1721.14 -4.46942 -4.10278 0
M  V30 17837 H 1719.87 -3.32129 -3.57129 0
M  V30 17838 H 1718.88 -5.08587 -2.08851 0
M  V30 17839 H 1720.1 -6.2532 -2.64862 0
M  V30 17840 H 1718.05 -4.85913 -4.40709 0
M  V30 17841 H 1717.97 -6.50111 -3.85865 0
M  V30 17842 H 1719.24 -6.02349 -4.94768 0
M  V30 17843 N 1723.46 0.290824 -1.54893 0
M  V30 17844 C 1724.43 1.34215 -1.85793 0
M  V30 17845 C 1725.43 1.43204 -0.731393 0
M  V30 17846 O 1726.62 1.42663 -0.999647 0
M  V30 17847 C 1723.75 2.72577 -2.0473 0
M  V30 17848 H 1724.94 1.08056 -2.79757 0
M  V30 17849 H 1722.5 0.528008 -1.47111 0
M  V30 17850 H 1723.23 3.03943 -1.13088 0
M  V30 17851 H 1723.02 2.67442 -2.86736 0
M  V30 17852 H 1724.51 3.48573 -2.29971 0
M  V30 17853 N 1724.94 1.47523 0.554506 0
M  V30 17854 C 1725.91 1.59761 1.64345 0
M  V30 17855 C 1726.91 0.472516 1.53701 0
M  V30 17856 O 1728.1 0.737659 1.57811 0
M  V30 17857 C 1725.23 1.54467 3.03896 0
M  V30 17858 H 1726.42 2.56834 1.54842 0
M  V30 17859 H 1723.97 1.35753 0.774643 0
M  V30 17860 H 1724.71 0.587789 3.18929 0
M  V30 17861 H 1724.49 2.36123 3.13031 0
M  V30 17862 H 1725.98 1.66174 3.83113 0
M  V30 17863 N 1726.42 -0.801453 1.357 0
M  V30 17864 C 1727.35 -1.92807 1.31711 0
M  V30 17865 C 1728.33 -1.69028 0.190642 0
M  V30 17866 O 1729.52 -1.90317 0.38641 0
M  V30 17867 C 1726.65 -3.29635 1.09352 0
M  V30 17868 C 1725.6 -3.67908 2.18695 0
M  V30 17869 C 1724.93 -5.02955 1.81494 0
M  V30 17870 C 1726.23 -3.77749 3.60698 0
M  V30 17871 H 1727.92 -1.96401 2.2598 0
M  V30 17872 H 1725.47 -0.943528 1.08782 0
M  V30 17873 H 1727.42 -4.08058 1.052 0
M  V30 17874 H 1726.14 -3.26396 0.115306 0
M  V30 17875 H 1724.8 -2.91775 2.21952 0
M  V30 17876 H 1724.45 -4.96225 0.822776 0
M  V30 17877 H 1724.15 -5.29533 2.54692 0
M  V30 17878 H 1725.67 -5.83811 1.78876 0
M  V30 17879 H 1727.09 -4.4639 3.59734 0
M  V30 17880 H 1725.49 -4.15801 4.327 0
M  V30 17881 H 1726.56 -2.79167 3.96477 0
M  V30 17882 N 1727.9 -1.19782 -1.02421 0
M  V30 17883 C 1729.31 -1.00493 -1.57347 0
M  V30 17884 C 1729.66 0.440854 -1.91183 0
M  V30 17885 O 1728.79 1.32102 -1.714 0
M  V30 17886 C 1729.38 -1.8179 -2.85898 0
M  V30 17887 C 1727.94 -1.66889 -3.3738 0
M  V30 17888 C 1727.09 -1.80199 -2.10769 0
M  V30 17889 H 1730.04 -1.34085 -0.848938 0
M  V30 17890 H 1730.06 -1.31676 -3.5699 0
M  V30 17891 H 1729.57 -2.87011 -2.6124 0
M  V30 17892 H 1727.67 -0.64274 -3.67014 0
M  V30 17893 H 1727.78 -2.47705 -4.10096 0
M  V30 17894 H 1726.15 -1.23308 -2.22862 0
M  V30 17895 H 1726.93 -2.86889 -1.88546 0
M  V30 17896 N 1729.38 1.21606 -1.00248 0
M  V30 17897 C 1730.6 1.95149 -0.702249 0
M  V30 17898 C 1731.03 1.73429 0.728293 0
M  V30 17899 O 1730.39 1.01953 1.49917 0
M  V30 17900 C 1730.43 3.45705 -1.0257 0
M  V30 17901 O 1729.54 4.12196 -0.129575 0
M  V30 17902 H 1728.88 0.610173 -0.261888 0
M  V30 17903 H 1731.41 1.54435 -1.34205 0
M  V30 17904 H 1731.42 3.96265 -0.97151 0
M  V30 17905 H 1730.09 3.60838 -2.06806 0
M  V30 17906 H 1728.67 3.72126 -0.240074 0
M  V30 17907 N 1730.86 0.776895 1.37121 0
M  V30 17908 C 1731.79 0.180738 2.32799 0
M  V30 17909 C 1732.77 -0.677284 1.56035 0
M  V30 17910 O 1733.95 -0.613687 1.84249 0
M  V30 17911 C 1731.08 -0.695148 3.40272 0
M  V30 17912 C 1730.04 0.0619772 4.27955 0
M  V30 17913 C 1729.36 -0.933688 5.26485 0
M  V30 17914 C 1730.66 1.24396 5.0727 0
M  V30 17915 H 1732.36 0.980039 2.82906 0
M  V30 17916 H 1729.9 0.472722 1.3602 0
M  V30 17917 H 1731.85 -1.12205 4.06187 0
M  V30 17918 H 1730.58 -1.52702 2.88703 0
M  V30 17919 H 1729.24 0.469717 3.63578 0
M  V30 17920 H 1728.89 -1.76025 4.71194 0
M  V30 17921 H 1728.59 -0.431608 5.86013 0
M  V30 17922 H 1730.11 -1.35942 5.95275 0
M  V30 17923 H 1731.52 0.89345 5.66295 0
M  V30 17924 H 1729.92 1.67848 5.76149 0
M  V30 17925 H 1730.99 2.04553 4.39643 0
M  V30 17926 N 1732.33 -1.48497 0.527859 0
M  V30 17927 C 1733.56 -2.069 -0.00302594 0
M  V30 17928 C 1733.98 -1.38469 -1.28342 0
M  V30 17929 O 1733.33 -0.471524 -1.76303 0
M  V30 17930 C 1733.38 -3.60749 -0.232871 0
M  V30 17931 O 1733.11 -4.26609 0.996797 0
M  V30 17932 C 1734.61 -4.35941 -0.804376 0
M  V30 17933 H 1731.83 -0.67021 0.0325559 0
M  V30 17934 H 1734.37 -1.90916 0.732897 0
M  V30 17935 H 1732.53 -3.76346 -0.918837 0
M  V30 17936 H 1732.94 -5.18725 0.776217 0
M  V30 17937 H 1734.41 -5.4437 -0.914635 0
M  V30 17938 H 1734.89 -4.00225 -1.80876 0
M  V30 17939 H 1735.5 -4.25017 -0.155041 0
M  V30 17940 N 1733.81 -0.262893 -1.55392 0
M  V30 17941 C 1734.76 0.645946 -2.23451 0
M  V30 17942 C 1735.75 1.16753 -1.2274 0
M  V30 17943 O 1736.96 1.12257 -1.40706 0
M  V30 17944 H 1733.33 0.226829 -0.716975 0
M  V30 17945 H 1735.31 0.0489539 -2.9836 0
M  V30 17946 C 1734.05 1.82451 -2.95985 0
M  V30 17947 H 1733.38 1.43233 -3.73262 0
M  V30 17948 H 1734.82 2.43731 -3.46945 0
M  V30 17949 C 1733.28 2.7055 -2.0076 0
M  V30 17950 O 1733.81 3.70552 -1.55093 0
M  V30 17951 N 1732.01 2.37457 -1.67519 0
M  V30 17952 H 1731.56 1.56184 -2.04852 0
M  V30 17953 H 1731.52 2.96675 -1.04074 0
M  V30 17954 N 1735.29 1.57597 0.0100073 0
M  V30 17955 C 1736.7 1.78287 0.554143 0
M  V30 17956 C 1737.05 0.896332 1.74529 0
M  V30 17957 O 1736.18 0.0961505 2.16186 0
M  V30 17958 C 1736.77 3.23331 1.01206 0
M  V30 17959 C 1735.33 3.45152 1.50157 0
M  V30 17960 C 1734.48 2.73654 0.448221 0
M  V30 17961 H 1737.43 1.57221 -0.216189 0
M  V30 17962 H 1737.45 3.30893 1.87856 0
M  V30 17963 H 1736.96 3.87829 0.144921 0
M  V30 17964 H 1735.06 2.85854 2.38994 0
M  V30 17965 H 1735.18 4.53813 1.53594 0
M  V30 17966 H 1733.54 2.3798 0.907603 0
M  V30 17967 H 1734.32 3.40846 -0.40978 0
M  V30 17968 N 1736.77 -0.282606 1.55045 0
M  V30 17969 C 1738.18 -0.854338 1.66006 0
M  V30 17970 C 1738.53 -1.87408 0.580753 0
M  V30 17971 O 1737.65 -2.14588 -0.279449 0
M  V30 17972 C 1738.25 -1.55637 3.00936 0
M  V30 17973 C 1736.81 -2.07626 3.13956 0
M  V30 17974 C 1735.96 -0.915064 2.61767 0
M  V30 17975 H 1738.91 -0.0591711 1.5859 0
M  V30 17976 H 1738.93 -2.42289 2.93388 0
M  V30 17977 H 1738.44 -0.813942 3.79469 0
M  V30 17978 H 1736.54 -2.84859 2.40179 0
M  V30 17979 H 1736.65 -2.29816 4.20382 0
M  V30 17980 H 1735.02 -1.30577 2.18682 0
M  V30 17981 H 1735.8 -0.186298 3.42794 0
M  V30 17982 N 1738.25 -1.47815 -0.546675 0
M  V30 17983 C 1739.47 -1.58864 -1.33331 0
M  V30 17984 C 1739.9 -0.24302 -1.86524 0
M  V30 17985 O 1739.25 0.782777 -1.63531 0
M  V30 17986 C 1739.3 -2.62556 -2.47177 0
M  V30 17987 O 1738.41 -2.18558 -3.49723 0
M  V30 17988 H 1737.75 -0.53329 -0.395598 0
M  V30 17989 H 1740.28 -1.93677 -0.659579 0
M  V30 17990 H 1740.29 -2.83307 -2.936 0
M  V30 17991 H 1738.96 -3.60255 -2.0782 0
M  V30 17992 H 1737.54 -2.0795 -3.09534 0
M  V30 17993 N 1739.72 0.794246 -1.36123 0
M  V30 17994 C 1740.65 1.92105 -1.32732 0
M  V30 17995 C 1741.63 1.68925 -0.199603 0
M  V30 17996 O 1742.82 1.90109 -0.396498 0
M  V30 17997 C 1739.95 3.29051 -1.11098 0
M  V30 17998 C 1738.9 3.66743 -2.20643 0
M  V30 17999 C 1738.23 5.01986 -1.84159 0
M  V30 18000 C 1739.53 3.75831 -3.62696 0
M  V30 18001 H 1741.22 1.952 -2.27018 0
M  V30 18002 H 1738.77 0.937746 -1.09281 0
M  V30 18003 H 1740.72 4.07494 -1.07362 0
M  V30 18004 H 1739.45 3.26331 -0.132614 0
M  V30 18005 H 1738.11 2.90594 -2.23497 0
M  V30 18006 H 1737.75 4.95782 -0.849081 0
M  V30 18007 H 1737.45 5.28175 -2.57497 0
M  V30 18008 H 1738.98 5.82855 -1.8197 0
M  V30 18009 H 1740.39 4.44476 -3.62096 0
M  V30 18010 H 1738.79 4.135 -4.34899 0
M  V30 18011 H 1739.86 2.7706 -3.97952 0
M  V30 18012 N 1741.2 1.20323 1.01785 0
M  V30 18013 C 1742.43 1.03893 1.79502 0
M  V30 18014 C 1742.85 -0.407421 1.83635 0
M  V30 18015 O 1742.21 -1.29338 1.27049 0
M  V30 18016 C 1742.26 1.62562 3.21879 0
M  V30 18017 O 1741.36 0.862398 4.03282 0
M  V30 18018 H 1740.7 0.366479 0.553705 0
M  V30 18019 H 1743.23 1.59589 1.28034 0
M  V30 18020 H 1743.24 1.66244 3.72595 0
M  V30 18021 H 1741.92 2.67826 3.18186 0
M  V30 18022 H 1740.49 0.899687 3.61884 0
M  V30 18023 N 1742.68 -1.21073 1.00892 0
M  V30 18024 C 1744.09 -1.71982 0.726576 0
M  V30 18025 C 1744.44 -1.81071 -0.755486 0
M  V30 18026 O 1743.57 -1.46797 -1.58996 0
M  V30 18027 C 1744.16 -3.12354 1.31226 0
M  V30 18028 C 1742.72 -3.60605 1.07895 0
M  V30 18029 C 1741.87 -2.38024 1.42267 0
M  V30 18030 H 1744.82 -1.06195 1.17934 0
M  V30 18031 H 1744.84 -3.74026 0.6989 0
M  V30 18032 H 1744.35 -3.05707 2.39092 0
M  V30 18033 H 1742.45 -3.72596 0.0176168 0
M  V30 18034 H 1742.57 -4.45854 1.7536 0
M  V30 18035 H 1740.93 -2.40396 0.841531 0
M  V30 18036 H 1741.71 -2.34024 2.51173 0
M  V30 18037 N 1744.16 -0.784156 -1.36707 0
M  V30 18038 C 1745.41 -0.350748 -1.98627 0
M  V30 18039 C 1745.72 1.08208 -1.62943 0
M  V30 18040 O 1746.93 1.6175 -2.18058 0
M  V30 18041 C 1745.38 -0.576173 -3.55258 0
M  V30 18042 C 1744.99 -2.02008 -3.99871 0
M  V30 18043 C 1746.73 -0.207008 -4.23995 0
M  V30 18044 C 1744.64 -2.19244 -5.4926 0
M  V30 18045 H 1743.57 -0.127403 -0.743158 0
M  V30 18046 H 1746.22 -0.965044 -1.56074 0
M  V30 18047 H 1744.6 0.10776 -3.95853 0
M  V30 18048 H 1745.78 -2.73998 -3.70489 0
M  V30 18049 H 1744.09 -2.34699 -3.43955 0
M  V30 18050 H 1746.69 -0.314139 -5.33776 0
M  V30 18051 H 1747.03 0.844253 -4.07649 0
M  V30 18052 H 1747.57 -0.843971 -3.88744 0
M  V30 18053 H 1744.31 -3.22734 -5.70546 0
M  V30 18054 H 1743.83 -1.51752 -5.80286 0
M  V30 18055 H 1745.5 -1.99703 -6.15408 0
M  V30 18056 N 1745.64 1.48215 -0.535727 0
M  V30 18057 C 1747.05 1.58417 -0.193977 0
M  V30 18058 C 1747.25 1.53705 1.30296 0
M  V30 18059 O 1746.31 1.42913 2.08164 0
M  V30 18060 C 1747.62 2.89819 -0.8016 0
M  V30 18061 C 1749.17 3.03359 -0.770858 0
M  V30 18062 C 1749.64 4.3743 -1.35716 0
M  V30 18063 N 1751.14 4.44012 -1.31938 0
M  V30 18064 C 1751.87 5.4627 -1.74287 0
M  V30 18065 N 1751.37 6.55454 -2.24393 0
M  V30 18066 N 1753.16 5.37187 -1.65489 0
M  V30 18067 H 1745.31 1.49521 -1.50855 0
M  V30 18068 H 1747.57 0.710306 -0.627829 0
M  V30 18069 H 1747.28 2.98939 -1.85278 0
M  V30 18070 H 1747.15 3.76144 -0.282036 0
M  V30 18071 H 1749.54 2.93848 0.271577 0
M  V30 18072 H 1749.62 2.1863 -1.32795 0
M  V30 18073 H 1749.27 4.47696 -2.39855 0
M  V30 18074 H 1749.2 5.20856 -0.775696 0
M  V30 18075 H 1751.69 3.65695 -0.952653 0
M  V30 18076 H 1752 7.29626 -2.54686 0
M  V30 18077 H 1750.34 6.56402 -2.2839 0
M  V30 18078 H 1753.54 4.50785 -1.26138 0
M  V30 18079 H 1753.71 6.16747 -1.98814 0
M  V30 18080 N 1747.11 0.27113 1.5525 0
M  V30 18081 C 1748.53 -0.0831186 1.59383 0
M  V30 18082 C 1748.73 -1.54931 1.28835 0
M  V30 18083 O 1747.79 -2.29756 1.0473 0
M  V30 18084 C 1749.1 0.287921 2.99318 0
M  V30 18085 C 1750.65 0.234209 3.12123 0
M  V30 18086 C 1751.12 0.57963 4.54317 0
M  V30 18087 N 1752.61 0.531033 4.60146 0
M  V30 18088 C 1753.35 0.771156 5.68191 0
M  V30 18089 N 1752.84 1.07569 6.84398 0
M  V30 18090 N 1754.64 0.700223 5.57722 0
M  V30 18091 H 1746.79 1.22702 1.73373 0
M  V30 18092 H 1749.05 0.495424 0.808244 0
M  V30 18093 H 1748.76 1.30746 3.26494 0
M  V30 18094 H 1748.63 -0.373205 3.75349 0
M  V30 18095 H 1751.02 -0.776035 2.84713 0
M  V30 18096 H 1751.1 0.929535 2.38313 0
M  V30 18097 H 1750.74 1.58754 4.82452 0
M  V30 18098 H 1750.67 -0.137442 5.26421 0
M  V30 18099 H 1753.16 0.305377 3.76664 0
M  V30 18100 H 1753.48 1.24568 7.62694 0
M  V30 18101 H 1751.82 1.11342 6.86023 0
M  V30 18102 H 1755.01 0.462183 4.65813 0
M  V30 18103 H 1755.19 0.890744 6.41849 0
M  V30 18104 N 1748.59 -1.576 -0.00164943 0
M  V30 18105 C 1749.54 -2.08318 -0.993594 0
M  V30 18106 C 1750.51 -0.978234 -1.34238 0
M  V30 18107 O 1751.69 -1.25056 -1.44103 0
M  V30 18108 C 1748.83 -2.58982 -2.28084 0
M  V30 18109 C 1747.95 -3.83372 -1.99123 0
M  V30 18110 C 1747.08 -4.22543 -3.21917 0
M  V30 18111 C 1746.12 -5.39774 -2.88635 0
M  V30 18112 N 1745.26 -5.74247 -4.03962 0
M  V30 18113 H 1750.1 -2.92802 -0.554154 0
M  V30 18114 H 1747.64 -1.44748 -0.261973 0
M  V30 18115 H 1749.59 -2.86434 -3.03334 0
M  V30 18116 H 1748.22 -1.77374 -2.697 0
M  V30 18117 H 1747.28 -3.62838 -1.14248 0
M  V30 18118 H 1748.59 -4.68722 -1.70591 0
M  V30 18119 H 1747.74 -4.51268 -4.05514 0
M  V30 18120 H 1746.48 -3.35899 -3.53587 0
M  V30 18121 H 1745.49 -5.10774 -2.03445 0
M  V30 18122 H 1746.71 -6.28094 -2.58215 0
M  V30 18123 H 1744.66 -4.9056 -4.35531 0
M  V30 18124 H 1744.57 -6.54167 -3.78948 0
M  V30 18125 H 1745.84 -6.07563 -4.88352 0
M  V30 18126 N 1750.07 0.274379 -1.55193 0
M  V30 18127 C 1751.32 1.00418 -1.75387 0
M  V30 18128 C 1751.64 1.86868 -0.557244 0
M  V30 18129 O 1750.91 1.9117 0.427883 0
M  V30 18130 H 1749.49 0.373753 -0.646775 0
M  V30 18131 H 1752.15 0.298942 -1.92594 0
M  V30 18132 H 1751.25 1.64191 -2.6542 0
M  V30 18133 N 1751.55 1.48103 0.538828 0
M  V30 18134 C 1752.5 1.61966 1.64425 0
M  V30 18135 C 1753.47 0.461999 1.59546 0
M  V30 18136 O 1754.65 0.684377 1.78104 0
M  V30 18137 C 1751.79 1.65711 3.02711 0
M  V30 18138 C 1750.9 2.92522 3.17891 0
M  V30 18139 C 1750.04 2.87485 4.46683 0
M  V30 18140 C 1749.08 4.0904 4.5536 0
M  V30 18141 N 1748.21 4.02131 5.7553 0
M  V30 18142 H 1753.05 2.5637 1.51916 0
M  V30 18143 H 1750.59 1.27146 0.739745 0
M  V30 18144 H 1752.55 1.65864 3.82812 0
M  V30 18145 H 1751.18 0.748045 3.14013 0
M  V30 18146 H 1750.23 3.02154 2.311 0
M  V30 18147 H 1751.54 3.82487 3.20165 0
M  V30 18148 H 1750.7 2.8599 5.35065 0
M  V30 18149 H 1749.44 1.95234 4.46917 0
M  V30 18150 H 1748.44 4.10819 3.65387 0
M  V30 18151 H 1749.67 5.02439 4.56872 0
M  V30 18152 H 1747.61 3.12695 5.76678 0
M  V30 18153 H 1747.53 4.85791 5.7926 0
M  V30 18154 H 1748.8 4.04682 6.66223 0
M  V30 18155 N 1753.03 -0.787016 1.36542 0
M  V30 18156 C 1753.94 -1.93103 1.33223 0
M  V30 18157 C 1754.95 -1.72419 0.234047 0
M  V30 18158 O 1756.13 -1.95915 0.466828 0
M  V30 18159 C 1753.19 -3.28002 1.12319 0
M  V30 18160 C 1752.25 -3.61447 2.31635 0
M  V30 18161 C 1751.49 -4.89909 2.11719 0
M  V30 18162 O 1751.71 -5.59818 1.0936 0
M  V30 18163 O 1750.64 -5.22065 2.99552 0
M  V30 18164 H 1754.47 -1.98853 2.29545 0
M  V30 18165 H 1752.06 -0.92761 1.17114 0
M  V30 18166 H 1753.94 -4.08722 1.02589 0
M  V30 18167 H 1752.61 -3.23138 0.19061 0
M  V30 18168 H 1751.52 -2.81024 2.46934 0
M  V30 18169 H 1752.85 -3.71037 3.23407 0
M  V30 18170 N 1754.5 -1.20861 -1.01145 0
M  V30 18171 C 1755.45 -0.962085 -2.09792 0
M  V30 18172 C 1756.42 0.109588 -1.65738 0
M  V30 18173 O 1757.61 -0.0362022 -1.90766 0
M  V30 18174 C 1754.75 -0.52586 -3.4107 0
M  V30 18175 C 1753.86 -1.66626 -3.98572 0
M  V30 18176 C 1752.99 -1.17983 -5.17932 0
M  V30 18177 C 1752.03 -2.29298 -5.67529 0
M  V30 18178 N 1751.17 -1.81836 -6.78145 0
M  V30 18179 H 1756.01 -1.89222 -2.30215 0
M  V30 18180 H 1753.55 -0.943108 -1.12889 0
M  V30 18181 H 1755.51 -0.25423 -4.16425 0
M  V30 18182 H 1754.14 0.367275 -3.20704 0
M  V30 18183 H 1753.19 -2.05268 -3.20264 0
M  V30 18184 H 1754.5 -2.50426 -4.3138 0
M  V30 18185 H 1753.65 -0.864477 -6.0051 0
M  V30 18186 H 1752.39 -0.311793 -4.86702 0
M  V30 18187 H 1751.4 -2.61644 -4.83552 0
M  V30 18188 H 1752.62 -3.16587 -6.00791 0
M  V30 18189 H 1750.57 -0.973665 -6.48734 0
M  V30 18190 H 1750.49 -2.59213 -7.10172 0
M  V30 18191 H 1751.75 -1.53315 -7.64274 0
M  V30 18192 N 1755.98 1.20536 -1.01532 0
M  V30 18193 C 1756.89 2.26953 -0.594109 0
M  V30 18194 C 1757.91 1.70069 0.367771 0
M  V30 18195 O 1759.08 2.00093 0.229036 0
M  V30 18196 C 1756.15 3.46644 0.0622939 0
M  V30 18197 C 1755.21 4.18762 -0.945368 0
M  V30 18198 C 1754.44 5.32739 -0.320195 0
M  V30 18199 O 1754.67 5.63565 0.880407 0
M  V30 18200 O 1753.6 5.92912 -1.03629 0
M  V30 18201 H 1757.43 2.65196 -1.48003 0
M  V30 18202 H 1755.01 1.2713 -0.784752 0
M  V30 18203 H 1756.89 4.19211 0.428952 0
M  V30 18204 H 1755.57 3.10279 0.922428 0
M  V30 18205 H 1754.48 3.48372 -1.36337 0
M  V30 18206 H 1755.81 4.59064 -1.77543 0
M  V30 18207 N 1757.46 0.791395 1.36289 0
M  V30 18208 C 1758.87 0.427611 1.81737 0
M  V30 18209 C 1759.22 -1.04868 1.65822 0
M  V30 18210 O 1758.35 -1.81379 1.18028 0
M  V30 18211 C 1758.94 0.769378 3.29949 0
M  V30 18212 C 1757.5 0.458397 3.73598 0
M  V30 18213 C 1756.65 1.00299 2.58526 0
M  V30 18214 H 1759.6 0.98437 1.24482 0
M  V30 18215 H 1759.62 0.061211 3.80451 0
M  V30 18216 H 1759.13 1.8439 3.415 0
M  V30 18217 H 1757.23 -0.608006 3.67606 0
M  V30 18218 H 1757.35 0.980392 4.68962 0
M  V30 18219 H 1755.71 0.426106 2.5111 0
M  V30 18220 H 1756.49 2.08331 2.72861 0
M  V30 18221 N 1758.94 -1.47929 0.54358 0
M  V30 18222 C 1760.19 -2.02095 0.0144379 0
M  V30 18223 C 1760.51 -1.42166 -1.33469 0
M  V30 18224 O 1759.78 -0.591899 -1.86744 0
M  V30 18225 H 1758.36 -0.746996 0.00234858 0
M  V30 18226 H 1761.02 -1.81488 0.710498 0
M  V30 18227 H 1760.12 -3.11987 -0.0838074 0
M  V30 18228 N 1760.42 -0.27936 -1.55104 0
M  V30 18229 C 1761.33 0.616249 -2.26361 0
M  V30 18230 C 1762.34 1.16656 -1.29102 0
M  V30 18231 O 1763.52 1.19596 -1.62046 0
M  V30 18232 C 1760.58 1.78191 -2.97403 0
M  V30 18233 C 1759.65 1.26785 -4.10151 0
M  V30 18234 C 1758.88 2.37795 -4.77796 0
M  V30 18235 O 1759.1 3.57242 -4.44673 0
M  V30 18236 O 1758.04 2.05711 -5.65656 0
M  V30 18237 H 1761.86 0.0388715 -3.03675 0
M  V30 18238 H 1759.45 -0.0466058 -1.49327 0
M  V30 18239 H 1761.33 2.4615 -3.42036 0
M  V30 18240 H 1760 2.3463 -2.23003 0
M  V30 18241 H 1758.91 0.554608 -3.69966 0
M  V30 18242 H 1760.24 0.749157 -4.86465 0
M  V30 18243 N 1761.9 1.57599 -0.0067085 0
M  V30 18244 C 1762.83 2.05706 1.01084 0
M  V30 18245 C 1763.84 0.976216 1.30284 0
M  V30 18246 O 1765.03 1.25288 1.27142 0
M  V30 18247 C 1762.13 2.44771 2.34393 0
M  V30 18248 C 1761.3 3.75668 2.24036 0
M  V30 18249 C 1760.36 4.01528 3.4009 0
M  V30 18250 O 1759.39 4.72101 3.17977 0
M  V30 18251 N 1760.59 3.49947 4.6316 0
M  V30 18252 H 1763.35 2.93622 0.600532 0
M  V30 18253 H 1760.92 1.6089 0.180536 0
M  V30 18254 H 1762.91 2.5918 3.10818 0
M  V30 18255 H 1761.48 1.62339 2.67142 0
M  V30 18256 H 1760.7 3.71272 1.3248 0
M  V30 18257 H 1761.99 4.6147 2.14295 0
M  V30 18258 H 1761.38 2.92811 4.84023 0
M  V30 18259 H 1759.94 3.69675 5.36828 0
M  V30 18260 N 1763.37 -0.266145 1.55336 0
M  V30 18261 C 1764.34 -1.31242 1.87904 0
M  V30 18262 C 1765.34 -1.42022 0.754083 0
M  V30 18263 O 1766.53 -1.41054 1.02222 0
M  V30 18264 C 1763.66 -2.69285 2.09041 0
M  V30 18265 H 1764.85 -1.03592 2.81441 0
M  V30 18266 H 1762.4 -0.504537 1.47933 0
M  V30 18267 H 1763.14 -3.02106 1.17909 0
M  V30 18268 H 1762.92 -2.62846 2.90954 0
M  V30 18269 H 1764.41 -3.4487 2.35488 0
M  V30 18270 N 1764.85 -1.48386 -0.530967 0
M  V30 18271 C 1766.08 -1.60269 -1.31638 0
M  V30 18272 C 1766.5 -0.262789 -1.86255 0
M  V30 18273 O 1765.86 0.765389 -1.64352 0
M  V30 18274 C 1765.91 -2.65163 -2.44379 0
M  V30 18275 O 1765.01 -2.22254 -3.47386 0
M  V30 18276 H 1764.35 -0.537456 -0.38992 0
M  V30 18277 H 1766.88 -1.94366 -0.639 0
M  V30 18278 H 1766.89 -2.86405 -2.90579 0
M  V30 18279 H 1765.57 -3.62439 -2.03987 0
M  V30 18280 H 1764.14 -2.11221 -3.07311 0
M  V30 18281 N 1766.33 0.779763 -1.36958 0
M  V30 18282 C 1767.58 1.54031 -1.31918 0
M  V30 18283 C 1767.91 1.9395 0.0985685 0
M  V30 18284 O 1767.18 1.63458 1.05413 0
M  V30 18285 C 1767.47 2.81083 -2.25088 0
M  V30 18286 C 1767.32 2.47469 -3.75605 0
M  V30 18287 C 1768.64 3.82968 -2.1685 0
M  V30 18288 H 1765.76 0.558806 -0.480526 0
M  V30 18289 H 1768.4 0.895152 -1.67592 0
M  V30 18290 H 1766.55 3.36135 -1.94796 0
M  V30 18291 H 1768.22 1.98393 -4.16459 0
M  V30 18292 H 1766.46 1.80276 -3.94567 0
M  V30 18293 H 1767.14 3.38255 -4.3622 0
M  V30 18294 H 1769.61 3.37388 -2.43534 0
M  V30 18295 H 1768.49 4.69601 -2.84194 0
M  V30 18296 H 1768.75 4.26642 -1.15885 0
M  V30 18297 N 1767.81 1.21396 1.00503 0
M  V30 18298 C 1769.22 1.02983 1.55728 0
M  V30 18299 C 1769.57 -0.410383 1.9186 0
M  V30 18300 O 1768.69 -1.29358 1.7348 0
M  V30 18301 C 1769.29 1.86316 2.8297 0
M  V30 18302 C 1767.85 1.72235 3.34682 0
M  V30 18303 C 1767 1.8353 2.07875 0
M  V30 18304 H 1769.95 1.35418 0.827499 0
M  V30 18305 H 1769.97 1.37339 3.5485 0
M  V30 18306 H 1769.48 2.91131 2.56641 0
M  V30 18307 H 1767.58 0.701047 3.65945 0
M  V30 18308 H 1767.69 2.54198 4.06103 0
M  V30 18309 H 1766.06 1.26838 2.20872 0
M  V30 18310 H 1766.84 2.89852 1.83958 0
M  V30 18311 N 1769.29 -1.19996 1.0217 0
M  V30 18312 C 1770.22 -2.25206 0.616818 0
M  V30 18313 C 1771.2 -1.66013 -0.370653 0
M  V30 18314 O 1772.38 -1.92519 -0.254956 0
M  V30 18315 C 1769.51 -3.47276 -0.0405129 0
M  V30 18316 C 1768.47 -4.19096 0.868479 0
M  V30 18317 C 1767.79 -5.34645 0.0766447 0
M  V30 18318 C 1769.09 -4.7468 2.1789 0
M  V30 18319 H 1770.79 -2.59328 1.49632 0
M  V30 18320 H 1768.33 -1.24655 0.720917 0
M  V30 18321 H 1770.28 -4.20063 -0.335355 0
M  V30 18322 H 1769.01 -3.12333 -0.954759 0
M  V30 18323 H 1767.67 -3.48181 1.1474 0
M  V30 18324 H 1767.32 -4.95946 -0.839411 0
M  V30 18325 H 1767.02 -5.83628 0.682041 0
M  V30 18326 H 1768.54 -6.10233 -0.211624 0
M  V30 18327 H 1769.95 -5.39259 1.94608 0
M  V30 18328 H 1768.35 -5.34121 2.7356 0
M  V30 18329 H 1769.42 -3.93141 2.83845 0
M  V30 18330 N 1770.76 -0.798611 -1.35867 0
M  V30 18331 C 1771.99 -0.386378 -2.03769 0
M  V30 18332 C 1772.41 0.992154 -1.59806 0
M  V30 18333 O 1771.77 1.64094 -0.770895 0
M  V30 18334 C 1771.82 -0.468859 -3.57539 0
M  V30 18335 O 1770.92 0.520742 -4.09099 0
M  V30 18336 H 1770.26 -0.162597 -0.643784 0
M  V30 18337 H 1772.79 -1.08228 -1.73631 0
M  V30 18338 H 1772.8 -0.335775 -4.06616 0
M  V30 18339 H 1771.48 -1.47441 -3.88888 0
M  V30 18340 H 1770.06 0.348559 -3.71267 0
M  V30 18341 N 1772.24 1.47639 -0.551417 0
M  V30 18342 C 1773.65 1.86336 -0.116513 0
M  V30 18343 C 1774 1.45869 1.31213 0
M  V30 18344 O 1773.13 0.859103 1.98616 0
M  V30 18345 C 1773.72 3.38181 -0.204671 0
M  V30 18346 C 1772.28 3.75992 0.175161 0
M  V30 18347 C 1771.43 2.71692 -0.554843 0
M  V30 18348 H 1774.38 1.39238 -0.761471 0
M  V30 18349 H 1774.4 3.76081 0.578214 0
M  V30 18350 H 1773.91 3.67604 -1.24456 0
M  V30 18351 H 1772.01 3.52186 1.21638 0
M  V30 18352 H 1772.13 4.78764 -0.179368 0
M  V30 18353 H 1770.49 2.547 0.00140775 0
M  V30 18354 H 1771.27 3.03957 -1.59578 0
M  V30 18355 N 1773.72 0.287581 1.54954 0
M  V30 18356 C 1774.67 -0.594449 2.23013 0
M  V30 18357 C 1775.64 -1.14007 1.20795 0
M  V30 18358 O 1776.82 -1.18708 1.49376 0
M  V30 18359 C 1773.96 -1.76687 2.96439 0
M  V30 18360 C 1773.08 -1.25391 4.13402 0
M  V30 18361 C 1772.21 -2.38912 4.74441 0
M  V30 18362 C 1771.25 -1.84683 5.83574 0
M  V30 18363 N 1770.39 -2.91725 6.38624 0
M  V30 18364 H 1775.23 -0.00743921 2.97999 0
M  V30 18365 H 1772.76 0.00809578 1.47098 0
M  V30 18366 H 1774.72 -2.45621 3.37233 0
M  V30 18367 H 1773.35 -2.32571 2.23853 0
M  V30 18368 H 1772.4 -0.45726 3.77642 0
M  V30 18369 H 1773.72 -0.816813 4.92067 0
M  V30 18370 H 1772.87 -3.15818 5.18019 0
M  V30 18371 H 1771.61 -2.85943 3.95079 0
M  V30 18372 H 1770.61 -1.06261 5.39434 0
M  V30 18373 H 1771.84 -1.38572 6.64812 0
M  V30 18374 H 1769.78 -3.38115 5.62152 0
M  V30 18375 H 1769.7 -2.5247 7.12597 0
M  V30 18376 H 1770.97 -3.68569 6.86861 0
M  V30 18377 N 1775.2 -1.57593 0.0150662 0
M  V30 18378 C 1776.15 -2.0936 -0.971443 0
M  V30 18379 C 1777.12 -0.992416 -1.33193 0
M  V30 18380 O 1778.3 -1.26577 -1.42769 0
M  V30 18381 C 1775.44 -2.61386 -2.25324 0
M  V30 18382 C 1774.55 -3.85462 -1.95046 0
M  V30 18383 C 1773.69 -4.25934 -3.17418 0
M  V30 18384 C 1772.73 -5.42805 -2.82894 0
M  V30 18385 N 1771.86 -5.78499 -3.97848 0
M  V30 18386 H 1776.7 -2.93373 -0.523068 0
M  V30 18387 H 1774.24 -1.45018 -0.246605 0
M  V30 18388 H 1776.2 -2.89635 -3.00279 0
M  V30 18389 H 1774.83 -1.80225 -2.67804 0
M  V30 18390 H 1773.88 -3.64029 -1.10394 0
M  V30 18391 H 1775.19 -4.70505 -1.6561 0
M  V30 18392 H 1774.35 -4.55544 -4.00705 0
M  V30 18393 H 1773.09 -3.3963 -3.50004 0
M  V30 18394 H 1772.09 -5.12903 -1.98016 0
M  V30 18395 H 1773.32 -6.30797 -2.51539 0
M  V30 18396 H 1771.26 -4.95152 -4.30303 0
M  V30 18397 H 1771.18 -6.5815 -3.71988 0
M  V30 18398 H 1772.45 -6.12708 -4.8188 0
M  V30 18399 N 1776.68 0.257904 -1.55475 0
M  V30 18400 C 1777.92 0.985519 -1.76442 0
M  V30 18401 C 1778.25 1.86267 -0.577033 0
M  V30 18402 O 1777.52 1.91613 0.407582 0
M  V30 18403 H 1776.1 0.366872 -0.650702 0
M  V30 18404 H 1778.76 0.278498 -1.929 0
M  V30 18405 H 1777.85 1.61367 -2.67146 0
M  V30 18406 N 1778.15 1.48666 0.52309 0
M  V30 18407 C 1779.38 1.60965 1.30787 0
M  V30 18408 C 1779.8 0.272663 1.86113 0
M  V30 18409 O 1779.16 -0.756662 1.64755 0
M  V30 18410 C 1779.21 2.66455 2.42969 0
M  V30 18411 O 1778.31 2.24094 3.46202 0
M  V30 18412 H 1777.66 0.539516 0.387064 0
M  V30 18413 H 1780.19 1.94702 0.628683 0
M  V30 18414 H 1780.2 2.87942 2.89056 0
M  V30 18415 H 1778.87 3.63516 2.02062 0
M  V30 18416 H 1777.45 2.12848 3.06186 0
M  V30 18417 N 1779.63 -0.772489 1.37369 0
M  V30 18418 C 1780.54 -1.91679 1.35263 0
M  V30 18419 C 1781.56 -1.72161 0.252321 0
M  V30 18420 O 1782.73 -1.95409 0.487581 0
M  V30 18421 C 1779.8 -3.26792 1.15792 0
M  V30 18422 C 1778.86 -3.5897 2.35455 0
M  V30 18423 C 1778.09 -4.87636 2.16903 0
M  V30 18424 O 1778.32 -5.58627 1.15291 0
M  V30 18425 O 1777.25 -5.18859 3.05072 0
M  V30 18426 H 1781.08 -1.96408 2.31641 0
M  V30 18427 H 1778.66 -0.915136 1.18092 0
M  V30 18428 H 1780.54 -4.07611 1.06918 0
M  V30 18429 H 1779.22 -3.22918 0.224872 0
M  V30 18430 H 1778.13 -2.78389 2.49901 0
M  V30 18431 H 1779.46 -3.67586 3.27325 0
M  V30 18432 N 1781.11 -1.21927 -0.998575 0
M  V30 18433 C 1782.07 -0.985744 -2.0692 0
M  V30 18434 C 1783.07 0.0456907 -1.60735 0
M  V30 18435 O 1784.26 -0.192241 -1.73136 0
M  V30 18436 C 1781.4 -0.48779 -3.37392 0
M  V30 18437 H 1782.59 -1.93563 -2.2907 0
M  V30 18438 H 1780.14 -1.03716 -1.1693 0
M  V30 18439 H 1780.88 0.466723 -3.20924 0
M  V30 18440 H 1780.66 -1.23186 -3.72247 0
M  V30 18441 H 1782.15 -0.344469 -4.16177 0
M  V30 18442 N 1782.59 1.19452 -1.02805 0
M  V30 18443 C 1783.81 1.93616 -0.743485 0
M  V30 18444 C 1784.24 1.74934 0.691342 0
M  V30 18445 O 1783.6 1.05111 1.47721 0
M  V30 18446 C 1783.64 3.43451 -1.0988 0
M  V30 18447 O 1782.75 4.11829 -0.216978 0
M  V30 18448 H 1782.09 0.60448 -0.274771 0
M  V30 18449 H 1784.62 1.51554 -1.37451 0
M  V30 18450 H 1784.63 3.94115 -1.05535 0
M  V30 18451 H 1783.3 3.5637 -2.14413 0
M  V30 18452 H 1781.88 3.71533 -0.318954 0
M  V30 18453 N 1784.07 0.805805 1.35442 0
M  V30 18454 C 1785.03 0.221278 2.28129 0
M  V30 18455 C 1786.03 -0.590919 1.49549 0
M  V30 18456 O 1787.22 -0.409518 1.69318 0
M  V30 18457 C 1784.35 -0.691643 3.3381 0
M  V30 18458 H 1785.54 1.03875 2.81336 0
M  V30 18459 H 1783.1 0.5764 1.45284 0
M  V30 18460 H 1783.83 -1.53283 2.85788 0
M  V30 18461 H 1783.62 -0.110972 3.91943 0
M  V30 18462 H 1785.11 -1.09497 4.02989 0
M  V30 18463 N 1785.54 -1.47344 0.559239 0
M  V30 18464 C 1786.51 -2.28516 -0.17688 0
M  V30 18465 C 1787.51 -1.37065 -0.840823 0
M  V30 18466 O 1788.7 -1.59676 -0.696373 0
M  V30 18467 C 1785.83 -3.16803 -1.25892 0
M  V30 18468 H 1787.02 -2.95068 0.536174 0
M  V30 18469 H 1784.58 -1.53067 0.316263 0
M  V30 18470 H 1785.31 -2.54947 -2.00431 0
M  V30 18471 H 1785.1 -3.84108 -0.787625 0
M  V30 18472 H 1786.59 -3.77958 -1.77589 0
M  V30 18473 N 1787.02 -0.295795 -1.54799 0
M  V30 18474 C 1788.25 0.32058 -2.04907 0
M  V30 18475 C 1788.67 1.47132 -1.17191 0
M  V30 18476 O 1788.03 1.80455 -0.174869 0
M  V30 18477 C 1788.08 0.759439 -3.52512 0
M  V30 18478 O 1787.18 1.86474 -3.67833 0
M  V30 18479 H 1786.52 0.0631128 -0.660994 0
M  V30 18480 H 1789.05 -0.436123 -1.99898 0
M  V30 18481 H 1789.06 1.04965 -3.94267 0
M  V30 18482 H 1787.74 -0.0823715 -4.15818 0
M  V30 18483 H 1786.32 1.57547 -3.37984 0
M  V30 18484 N 1788.5 1.57583 -0.0234236 0
M  V30 18485 C 1789.92 1.56089 0.332916 0
M  V30 18486 C 1790.12 1.02847 1.73276 0
M  V30 18487 O 1789.17 0.672668 2.43375 0
M  V30 18488 C 1790.49 3.0012 0.186725 0
M  V30 18489 C 1792.03 3.11919 0.259918 0
M  V30 18490 C 1792.51 4.57778 0.142583 0
M  V30 18491 N 1794 4.62769 0.199748 0
M  V30 18492 C 1794.74 5.73247 0.132655 0
M  V30 18493 N 1794.23 6.92798 0.0148037 0
M  V30 18494 N 1796.02 5.61791 0.186228 0
M  V30 18495 H 1788.18 1.90523 -0.938877 0
M  V30 18496 H 1790.44 0.876141 -0.362052 0
M  V30 18497 H 1790.14 3.43002 -0.777338 0
M  V30 18498 H 1790.02 3.64798 0.959267 0
M  V30 18499 H 1792.41 2.68952 1.21444 0
M  V30 18500 H 1792.49 2.49972 -0.542901 0
M  V30 18501 H 1792.13 5.01424 -0.808491 0
M  V30 18502 H 1792.06 5.17698 0.964194 0
M  V30 18503 H 1794.55 3.76776 0.291211 0
M  V30 18504 H 1794.86 7.72794 -0.0298548 0
M  V30 18505 H 1793.21 6.94997 -0.0198993 0
M  V30 18506 H 1796.4 4.67282 0.276658 0
M  V30 18507 H 1796.57 6.47869 0.130478 0
M  V30 18508 N 1789.98 -0.249655 1.5561 0
M  V30 18509 C 1790.91 -1.33188 1.8653 0
M  V30 18510 C 1791.92 -1.44424 0.751366 0
M  V30 18511 O 1793.11 -1.45823 1.02946 0
M  V30 18512 C 1790.21 -2.71076 2.03398 0
M  V30 18513 C 1789.39 -2.82142 3.34237 0
M  V30 18514 C 1788.45 -4.00857 3.40882 0
M  V30 18515 O 1787.47 -3.90514 4.1411 0
M  V30 18516 N 1788.67 -5.13901 2.69974 0
M  V30 18517 H 1791.44 -1.07 2.79948 0
M  V30 18518 H 1789 -0.43976 1.55813 0
M  V30 18519 H 1790.99 -3.48826 2.05188 0
M  V30 18520 H 1789.56 -2.89985 1.16738 0
M  V30 18521 H 1788.78 -1.9109 3.44788 0
M  V30 18522 H 1790.07 -2.86483 4.20481 0
M  V30 18523 H 1789.47 -5.25195 2.10206 0
M  V30 18524 H 1788.02 -5.89796 2.7746 0
M  V30 18525 N 1791.46 -1.48941 -0.515198 0
M  V30 18526 C 1792.68 -1.61656 -1.29931 0
M  V30 18527 C 1793.11 -0.282529 -1.85966 0
M  V30 18528 O 1792.47 0.747914 -1.65154 0
M  V30 18529 C 1792.51 -2.6774 -2.41553 0
M  V30 18530 O 1791.62 -2.25926 -3.45009 0
M  V30 18531 H 1790.96 -0.541561 -0.384197 0
M  V30 18532 H 1793.49 -1.95032 -0.618349 0
M  V30 18533 H 1793.5 -2.89471 -2.87525 0
M  V30 18534 H 1792.17 -3.64582 -2.00131 0
M  V30 18535 H 1790.75 -2.14469 -3.05053 0
M  V30 18536 N 1792.94 0.765193 -1.37777 0
M  V30 18537 C 1794.21 1.51374 -1.23876 0
M  V30 18538 C 1794.59 2.10455 0.164852 0
M  V30 18539 O 1793.94 1.96084 1.17318 0
M  V30 18540 C 1794.15 2.58939 -2.33991 0
M  V30 18541 C 1795.5 3.26162 -2.71852 0
M  V30 18542 O 1796.52 2.69238 -2.33216 0
M  V30 18543 O 1795.38 4.29094 -3.38438 0
M  V30 18544 H 1792.48 0.670749 -0.48376 0
M  V30 18545 H 1795.02 0.801597 -1.49574 0
M  V30 18546 H 1793.79 2.13448 -3.27957 0
M  V30 18547 H 1793.42 3.37747 -2.09793 0
M  V30 18548 N 1794.41 1.22455 0.992094 0
M  V30 18549 C 1795.64 1.07594 1.76723 0
M  V30 18550 C 1796.06 -0.37345 1.8507 0
M  V30 18551 O 1795.41 -1.25876 1.32142 0
M  V30 18552 C 1795.46 1.68178 3.19998 0
M  V30 18553 O 1795.19 3.07447 3.12102 0
M  V30 18554 C 1796.69 1.58602 4.13957 0
M  V30 18555 H 1793.91 0.377148 0.554978 0
M  V30 18556 H 1796.45 1.62065 1.24721 0
M  V30 18557 H 1794.61 1.17768 3.69066 0
M  V30 18558 H 1795.02 3.36641 4.0221 0
M  V30 18559 H 1796.49 2.05714 5.12236 0
M  V30 18560 H 1796.97 0.542712 4.35834 0
M  V30 18561 H 1797.58 2.08321 3.70786 0
M  V30 18562 N 1795.89 -1.18905 1.03437 0
M  V30 18563 C 1797.12 -1.93219 0.753743 0
M  V30 18564 C 1797.54 -1.75299 -0.682055 0
M  V30 18565 O 1796.9 -1.05892 -1.47161 0
M  V30 18566 C 1796.95 -3.42864 1.117 0
M  V30 18567 O 1796.05 -4.11708 0.238816 0
M  V30 18568 H 1795.39 -0.603015 0.277973 0
M  V30 18569 H 1797.92 -1.50823 1.38252 0
M  V30 18570 H 1797.93 -3.9355 1.07623 0
M  V30 18571 H 1796.61 -3.55228 2.163 0
M  V30 18572 H 1795.18 -3.71359 0.338652 0
M  V30 18573 N 1797.37 -0.812977 -1.35013 0
M  V30 18574 C 1798.62 -0.395562 -1.98191 0
M  V30 18575 C 1798.94 1.04242 -1.64799 0
M  V30 18576 O 1798.21 1.72219 -0.933678 0
M  V30 18577 H 1796.79 -0.143276 -0.733131 0
M  V30 18578 H 1799.45 -1.04023 -1.64819 0
M  V30 18579 H 1798.55 -0.506466 -3.07963 0
M  V30 18580 N 1798.85 1.47045 -0.567045 0
M  V30 18581 C 1800.26 1.86202 -0.13627 0
M  V30 18582 C 1800.61 1.47252 1.29658 0
M  V30 18583 O 1799.73 0.880121 1.97694 0
M  V30 18584 C 1800.33 3.37945 -0.240528 0
M  V30 18585 C 1798.89 3.76157 0.135272 0
M  V30 18586 C 1798.04 2.71089 -0.583628 0
M  V30 18587 H 1800.99 1.38423 -0.776196 0
M  V30 18588 H 1801.01 3.76673 0.538293 0
M  V30 18589 H 1800.52 3.66263 -1.28348 0
M  V30 18590 H 1798.62 3.53456 1.17896 0
M  V30 18591 H 1798.73 4.78547 -0.230137 0
M  V30 18592 H 1797.1 2.54687 -0.0256067 0
M  V30 18593 H 1797.88 3.02247 -1.62792 0
M  V30 18594 N 1800.33 0.304 1.5464 0
M  V30 18595 C 1801.57 -0.304845 2.00496 0
M  V30 18596 C 1801.9 -1.53308 1.19206 0
M  V30 18597 O 1801.18 -1.92627 0.269305 0
M  V30 18598 C 1801.46 -0.658462 3.54029 0
M  V30 18599 C 1801.32 0.579125 4.46056 0
M  V30 18600 C 1802.63 -1.4838 4.14332 0
M  V30 18601 H 1799.75 -0.109327 0.728846 0
M  V30 18602 H 1802.4 0.416694 1.85374 0
M  V30 18603 H 1800.55 -1.27319 3.67045 0
M  V30 18604 H 1802.22 1.21758 4.44941 0
M  V30 18605 H 1800.46 1.21179 4.16531 0
M  V30 18606 H 1801.13 0.287518 5.51251 0
M  V30 18607 H 1803.61 -0.964367 4.04771 0
M  V30 18608 H 1802.48 -1.70001 5.21911 0
M  V30 18609 H 1802.74 -2.47394 3.66399 0
M  V30 18610 N 1801.8 -1.57568 0.0317802 0
M  V30 18611 C 1803.03 -1.96212 -0.656401 0
M  V30 18612 C 1803.45 -0.908406 -1.6551 0
M  V30 18613 O 1802.8 0.109502 -1.82171 0
M  V30 18614 C 1802.85 -3.34924 -1.36044 0
M  V30 18615 O 1802.58 -4.36254 -0.401757 0
M  V30 18616 C 1804.08 -3.88215 -2.14019 0
M  V30 18617 H 1801.3 -0.646181 -0.180808 0
M  V30 18618 H 1803.84 -2.04291 0.0923341 0
M  V30 18619 H 1802 -3.28055 -2.06055 0
M  V30 18620 H 1802.41 -5.16686 -0.902005 0
M  V30 18621 H 1803.88 -4.87609 -2.5873 0
M  V30 18622 H 1804.36 -3.22602 -2.98034 0
M  V30 18623 H 1804.97 -3.98361 -1.4896 0
M  V30 18624 N 1803.28 0.241399 -1.5574 0
M  V30 18625 C 1804.51 0.986075 -1.81891 0
M  V30 18626 C 1804.93 1.78734 -0.608254 0
M  V30 18627 O 1804.28 1.77527 0.423129 0
M  V30 18628 C 1804.33 1.91956 -3.06325 0
M  V30 18629 O 1804.05 1.15071 -4.22718 0
M  V30 18630 C 1805.56 2.77977 -3.45317 0
M  V30 18631 H 1802.78 0.289913 -0.605137 0
M  V30 18632 H 1805.32 0.262622 -2.02807 0
M  V30 18633 H 1803.47 2.59721 -2.87443 0
M  V30 18634 H 1803.89 1.78261 -4.93278 0
M  V30 18635 H 1805.36 3.39215 -4.35474 0
M  V30 18636 H 1805.84 3.49369 -2.66154 0
M  V30 18637 H 1806.45 2.15655 -3.66569 0
M  V30 18638 N 1804.76 1.49212 0.507292 0
M  V30 18639 C 1805.99 1.62343 1.29072 0
M  V30 18640 C 1806.41 0.292387 1.85814 0
M  V30 18641 O 1805.77 -0.739145 1.65549 0
M  V30 18642 C 1805.82 2.69017 2.40129 0
M  V30 18643 O 1804.92 2.27753 3.43806 0
M  V30 18644 H 1804.26 0.543591 0.38132 0
M  V30 18645 H 1806.79 1.95358 0.607997 0
M  V30 18646 H 1806.8 2.90992 2.85985 0
M  V30 18647 H 1805.48 3.65638 1.98195 0
M  V30 18648 H 1804.05 2.16084 3.03912 0
M  V30 18649 N 1806.24 -0.757876 1.38181 0
M  V30 18650 C 1807.19 -1.87152 1.35065 0
M  V30 18651 C 1808.16 -1.64717 0.213892 0
M  V30 18652 O 1809.34 -1.86442 0.405448 0
M  V30 18653 C 1806.48 -3.24398 1.17728 0
M  V30 18654 C 1805.59 -3.58694 2.40754 0
M  V30 18655 C 1804.73 -4.85221 2.16181 0
M  V30 18656 C 1803.77 -5.1229 3.35001 0
M  V30 18657 N 1802.9 -6.3001 3.0989 0
M  V30 18658 H 1807.74 -1.89151 2.30274 0
M  V30 18659 H 1805.28 -0.924571 1.14412 0
M  V30 18660 H 1807.24 -4.0359 1.05694 0
M  V30 18661 H 1805.87 -3.21738 0.261606 0
M  V30 18662 H 1804.92 -2.74379 2.63477 0
M  V30 18663 H 1806.23 -3.74628 3.29325 0
M  V30 18664 H 1805.39 -5.72346 2.01258 0
M  V30 18665 H 1804.13 -4.71417 1.24969 0
M  V30 18666 H 1803.13 -4.23635 3.50448 0
M  V30 18667 H 1804.36 -5.27993 4.27083 0
M  V30 18668 H 1802.3 -6.17538 2.21321 0
M  V30 18669 H 1802.22 -6.46425 3.92009 0
M  V30 18670 H 1803.49 -7.20035 2.98613 0
M  V30 18671 N 1807.72 -1.22979 -0.985586 0
M  V30 18672 C 1808.94 -1.08615 -1.76685 0
M  V30 18673 C 1809.37 0.35859 -1.8465 0
M  V30 18674 O 1808.72 1.25924 -1.30433 0
M  V30 18675 C 1808.77 -1.71039 -3.17456 0
M  V30 18676 O 1807.88 -0.969018 -4.00854 0
M  V30 18677 H 1807.22 -0.38103 -0.543794 0
M  V30 18678 H 1809.75 -1.62927 -1.23757 0
M  V30 18679 H 1809.76 -1.76064 -3.68056 0
M  V30 18680 H 1808.43 -2.76168 -3.10973 0
M  V30 18681 H 1807.01 -0.995318 -3.59371 0
M  V30 18682 N 1809.19 1.18355 -1.04066 0
M  V30 18683 C 1810.42 1.92816 -0.763979 0
M  V30 18684 C 1810.84 1.75658 0.672749 0
M  V30 18685 O 1810.2 1.06671 1.46598 0
M  V30 18686 C 1810.25 3.42267 -1.13516 0
M  V30 18687 O 1809.35 4.11576 -0.260646 0
M  V30 18688 H 1808.7 0.601532 -0.281167 0
M  V30 18689 H 1811.23 1.50087 -1.3905 0
M  V30 18690 H 1811.24 3.92973 -1.09709 0
M  V30 18691 H 1809.91 3.54076 -2.18181 0
M  V30 18692 H 1808.49 3.71174 -0.358342 0
M  V30 18693 N 1810.67 0.820125 1.3458 0
M  V30 18694 C 1811.9 0.418747 2.03129 0
M  V30 18695 C 1812.32 -0.966605 1.61364 0
M  V30 18696 O 1811.68 -1.62847 0.796903 0
M  V30 18697 C 1811.73 0.525681 3.56748 0
M  V30 18698 O 1810.83 -0.455592 4.09876 0
M  V30 18699 H 1810.17 0.172819 0.641116 0
M  V30 18700 H 1812.7 1.10977 1.71888 0
M  V30 18701 H 1812.71 0.400422 4.0603 0
M  V30 18702 H 1811.39 1.53609 3.86493 0
M  V30 18703 H 1809.97 -0.289449 3.71775 0
M  V30 18704 N 1812.15 -1.46743 0.574835 0
M  V30 18705 C 1813.08 -2.33012 -0.150836 0
M  V30 18706 C 1814.06 -1.44868 -0.891472 0
M  V30 18707 O 1815.25 -1.73698 -0.868481 0
M  V30 18708 C 1812.38 -3.26995 -1.17012 0
M  V30 18709 C 1811.33 -4.24518 -0.544829 0
M  V30 18710 C 1810.66 -5.07951 -1.67002 0
M  V30 18711 C 1811.96 -5.19776 0.512891 0
M  V30 18712 H 1813.65 -2.93935 0.569433 0
M  V30 18713 H 1811.2 -1.41344 0.275289 0
M  V30 18714 H 1813.15 -3.86198 -1.68609 0
M  V30 18715 H 1811.87 -2.64163 -1.92056 0
M  V30 18716 H 1810.53 -3.66566 -0.0500133 0
M  V30 18717 H 1810.18 -4.4151 -2.40993 0
M  V30 18718 H 1809.88 -5.73991 -1.25732 0
M  V30 18719 H 1811.4 -5.70017 -2.1889 0
M  V30 18720 H 1812.82 -5.73241 0.0823064 0
M  V30 18721 H 1811.22 -5.94114 0.845462 0
M  V30 18722 H 1812.29 -4.64184 1.40217 0
M  V30 18723 N 1813.63 -0.312197 -1.54477 0
M  V30 18724 C 1814.88 0.293192 -1.99962 0
M  V30 18725 C 1815.2 1.53544 -1.20205 0
M  V30 18726 O 1814.47 1.93575 -0.300901 0
M  V30 18727 H 1813.05 0.111325 -0.738658 0
M  V30 18728 H 1815.71 -0.426116 -1.90185 0
M  V30 18729 H 1814.81 0.557482 -3.07081 0
M  V30 18730 N 1815.11 1.57549 -0.040136 0
M  V30 18731 C 1816.33 1.96967 0.649517 0
M  V30 18732 C 1816.76 0.917056 1.64231 0
M  V30 18733 O 1816.11 -0.120899 1.80896 0
M  V30 18734 C 1816.16 3.35471 1.32256 0
M  V30 18735 O 1815.27 3.32615 2.43806 0
M  V30 18736 H 1814.61 0.641933 0.169758 0
M  V30 18737 H 1817.14 2.04329 -0.105261 0
M  V30 18738 H 1817.15 3.71951 1.6768 0
M  V30 18739 H 1815.82 4.11623 0.594895 0
M  V30 18740 H 1814.4 3.07867 2.10411 0
M  V30 18741 N 1816.58 -0.233136 1.55866 0
M  V30 18742 C 1817.83 -0.959219 1.7834 0
M  V30 18743 C 1818.16 -1.84789 0.606886 0
M  V30 18744 O 1817.41 -1.91373 -0.409253 0
M  V30 18745 C 1817.71 -1.83897 3.06458 0
M  V30 18746 C 1817.38 -1.1045 4.37163 0
M  V30 18747 C 1816.04 -0.901577 4.72679 0
M  V30 18748 C 1818.39 -0.584979 5.17907 0
M  V30 18749 C 1815.72 -0.167034 5.86462 0
M  V30 18750 C 1818.07 0.136163 6.32453 0
M  V30 18751 C 1816.74 0.35045 6.66579 0
M  V30 18752 H 1816.01 -0.351003 0.652593 0
M  V30 18753 H 1818.65 -0.228249 1.90135 0
M  V30 18754 H 1816.96 -2.63744 2.89735 0
M  V30 18755 H 1818.66 -2.4027 3.21047 0
M  V30 18756 H 1815.25 -1.27263 4.0927 0
M  V30 18757 H 1819.43 -0.729263 4.90913 0
M  V30 18758 H 1814.69 0.00933042 6.11399 0
M  V30 18759 H 1818.86 0.546294 6.94254 0
M  V30 18760 H 1816.49 0.921569 7.54593 0
M  V30 18761 N 1818.06 -1.49479 -0.499372 0
M  V30 18762 C 1819.29 -1.62524 -1.27552 0
M  V30 18763 C 1819.7 -0.296533 -1.86862 0
M  V30 18764 O 1819.04 0.728236 -1.68649 0
M  V30 18765 C 1819.11 -2.63674 -2.44369 0
M  V30 18766 C 1818.77 -4.0798 -2.05916 0
M  V30 18767 C 1819.77 -4.94733 -1.59797 0
M  V30 18768 C 1817.45 -4.53723 -2.15501 0
M  V30 18769 C 1819.45 -6.25268 -1.23768 0
M  V30 18770 C 1817.13 -5.84271 -1.79084 0
M  V30 18771 C 1818.13 -6.69867 -1.33292 0
M  V30 18772 O 1817.82 -7.97982 -0.97368 0
M  V30 18773 H 1817.55 -0.550018 -0.393009 0
M  V30 18774 H 1820.11 -1.96261 -0.605856 0
M  V30 18775 H 1818.34 -2.2512 -3.14417 0
M  V30 18776 H 1820.02 -2.66231 -3.06392 0
M  V30 18777 H 1820.79 -4.6062 -1.51836 0
M  V30 18778 H 1816.67 -3.87264 -2.50095 0
M  V30 18779 H 1820.21 -6.92033 -0.879542 0
M  V30 18780 H 1816.11 -6.17912 -1.86695 0
M  V30 18781 H 1816.88 -8.11007 -1.10501 0
M  V30 18782 N 1819.54 0.750537 -1.38581 0
M  V30 18783 C 1820.49 1.85507 -1.32557 0
M  V30 18784 C 1821.48 1.59533 -0.209275 0
M  V30 18785 O 1822.67 1.71302 -0.445507 0
M  V30 18786 C 1819.8 3.23253 -1.15597 0
M  V30 18787 C 1818.88 3.55107 -2.31862 0
M  V30 18788 N 1819.27 3.57999 -3.5731 0
M  V30 18789 C 1817.57 3.85389 -2.2448 0
M  V30 18790 C 1818.27 3.87207 -4.34103 0
M  V30 18791 N 1817.25 4.04193 -3.63496 0
M  V30 18792 H 1821.05 1.86025 -2.27535 0
M  V30 18793 H 1818.56 0.948038 -1.31856 0
M  V30 18794 H 1820.56 4.023 -1.09365 0
M  V30 18795 H 1819.22 3.23984 -0.215556 0
M  V30 18796 H 1820.23 3.39686 -3.9094 0
M  V30 18797 H 1816.91 3.93817 -1.38615 0
M  V30 18798 H 1818.3 3.96042 -5.42771 0
M  V30 18799 N 1821.02 1.235 0.979051 0
M  V30 18800 C 1821.95 1.04183 2.08969 0
M  V30 18801 C 1822.93 -0.041685 1.70049 0
M  V30 18802 O 1824.12 0.123217 1.93809 0
M  V30 18803 C 1821.25 0.633696 3.4147 0
M  V30 18804 C 1820.2 1.66471 3.94299 0
M  V30 18805 C 1819.53 1.11198 5.2301 0
M  V30 18806 C 1820.83 3.05804 4.23416 0
M  V30 18807 H 1822.52 1.9708 2.25388 0
M  V30 18808 H 1820.07 0.948963 1.08308 0
M  V30 18809 H 1822.02 0.485599 4.18593 0
M  V30 18810 H 1820.74 -0.330958 3.24919 0
M  V30 18811 H 1819.4 1.80082 3.19321 0
M  V30 18812 H 1819.05 0.138264 5.0281 0
M  V30 18813 H 1818.75 1.80087 5.59323 0
M  V30 18814 H 1820.27 0.975759 6.02753 0
M  V30 18815 H 1821.69 2.95487 4.91284 0
M  V30 18816 H 1820.08 3.71944 4.70933 0
M  V30 18817 H 1821.15 3.54695 3.30635 0
M  V30 18818 N 1822.5 -1.17802 1.04693 0
M  V30 18819 C 1823.91 -1.69583 0.780923 0
M  V30 18820 C 1824.26 -1.83383 -0.697497 0
M  V30 18821 O 1823.38 -1.51781 -1.54245 0
M  V30 18822 C 1823.98 -3.08021 1.41097 0
M  V30 18823 C 1822.54 -3.56989 1.19313 0
M  V30 18824 C 1821.69 -2.33377 1.49768 0
M  V30 18825 H 1824.64 -1.02389 1.21253 0
M  V30 18826 H 1824.66 -3.71613 0.817539 0
M  V30 18827 H 1824.17 -2.97945 2.48697 0
M  V30 18828 H 1822.27 -3.72351 0.136146 0
M  V30 18829 H 1822.38 -4.40049 1.89456 0
M  V30 18830 H 1820.75 -2.37597 0.917585 0
M  V30 18831 H 1821.53 -2.25914 2.58491 0
M  V30 18832 N 1823.98 -0.827251 -1.34143 0
M  V30 18833 C 1825.2 -0.429514 -2.02904 0
M  V30 18834 C 1825.63 0.958033 -1.61874 0
M  V30 18835 O 1824.98 1.62422 -0.805528 0
M  V30 18836 C 1825.03 -0.544592 -3.56464 0
M  V30 18837 O 1824.14 0.433849 -4.10112 0
M  V30 18838 H 1823.48 -0.176216 -0.64019 0
M  V30 18839 H 1826.01 -1.11887 -1.71297 0
M  V30 18840 H 1826.02 -0.421949 -4.05812 0
M  V30 18841 H 1824.69 -1.55657 -3.85673 0
M  V30 18842 H 1823.27 0.269729 -3.71923 0
M  V30 18843 N 1825.45 1.46436 -0.582609 0
M  V30 18844 C 1826.68 2.06469 -0.0736587 0
M  V30 18845 C 1827.09 1.43193 1.23662 0
M  V30 18846 O 1826.43 0.531376 1.75847 0
M  V30 18847 C 1826.5 3.59114 0.166531 0
M  V30 18848 C 1826.16 4.44581 -1.05814 0
M  V30 18849 C 1827.16 4.81125 -1.97016 0
M  V30 18850 C 1824.84 4.85718 -1.27996 0
M  V30 18851 C 1826.84 5.57632 -3.08747 0
M  V30 18852 C 1824.52 5.61986 -2.40032 0
M  V30 18853 C 1825.52 5.97856 -3.30237 0
M  V30 18854 O 1825.21 6.72582 -4.40328 0
M  V30 18855 H 1824.94 0.673802 -0.0544673 0
M  V30 18856 H 1827.5 1.89053 -0.803005 0
M  V30 18857 H 1825.73 3.74837 0.950489 0
M  V30 18858 H 1827.41 4.01075 0.62398 0
M  V30 18859 H 1828.18 4.49922 -1.81094 0
M  V30 18860 H 1824.06 4.57249 -0.586917 0
M  V30 18861 H 1827.6 5.85549 -3.7918 0
M  V30 18862 H 1823.5 5.92602 -2.55917 0
M  V30 18863 H 1824.27 6.91006 -4.38694 0
M  V30 18864 N 1826.93 0.320385 1.54309 0
M  V30 18865 C 1827.86 -0.539789 2.27175 0
M  V30 18866 C 1828.84 -1.12198 1.2785 0
M  V30 18867 O 1830.03 -1.1477 1.56657 0
M  V30 18868 C 1827.16 -1.70236 3.02716 0
M  V30 18869 C 1826.11 -1.24962 4.09351 0
M  V30 18870 C 1825.44 -2.49888 4.72715 0
M  V30 18871 C 1826.74 -0.366788 5.21011 0
M  V30 18872 H 1828.43 0.0680079 2.99323 0
M  V30 18873 H 1825.98 0.0341488 1.4396 0
M  V30 18874 H 1827.93 -2.31037 3.5242 0
M  V30 18875 H 1826.65 -2.33669 2.2818 0
M  V30 18876 H 1825.31 -0.664556 3.60526 0
M  V30 18877 H 1824.96 -3.11679 3.94798 0
M  V30 18878 H 1824.66 -2.20288 5.44745 0
M  V30 18879 H 1826.19 -3.11458 5.25192 0
M  V30 18880 H 1827.6 -0.881001 5.6649 0
M  V30 18881 H 1826 -0.163707 5.99877 0
M  V30 18882 H 1827.07 0.603185 4.81134 0
M  V30 18883 N 1828.41 -1.57525 0.0484906 0
M  V30 18884 C 1829.36 -2.11374 -0.926816 0
M  V30 18885 C 1830.33 -1.02045 -1.31058 0
M  V30 18886 O 1831.51 -1.29577 -1.40052 0
M  V30 18887 C 1828.65 -2.66107 -2.19729 0
M  V30 18888 C 1827.76 -3.89513 -1.86826 0
M  V30 18889 C 1826.9 -4.32571 -3.08312 0
M  V30 18890 C 1825.94 -5.48684 -2.71317 0
M  V30 18891 N 1825.08 -5.86808 -3.85488 0
M  V30 18892 H 1829.92 -2.94417 -0.460721 0
M  V30 18893 H 1827.45 -1.45509 -0.215789 0
M  V30 18894 H 1829.41 -2.95939 -2.94068 0
M  V30 18895 H 1828.04 -1.85865 -2.63921 0
M  V30 18896 H 1827.09 -3.66289 -1.02647 0
M  V30 18897 H 1828.4 -4.73912 -1.55592 0
M  V30 18898 H 1827.56 -4.63941 -3.90952 0
M  V30 18899 H 1826.3 -3.46978 -3.42721 0
M  V30 18900 H 1825.3 -5.16988 -1.87092 0
M  V30 18901 H 1826.53 -6.35991 -2.38102 0
M  V30 18902 H 1824.47 -5.04168 -4.19703 0
M  V30 18903 H 1824.39 -6.65892 -3.57944 0
M  V30 18904 H 1825.66 -6.22792 -4.68776 0
M  V30 18905 N 1829.89 0.224867 -1.55988 0
M  V30 18906 C 1830.82 1.28192 -1.95164 0
M  V30 18907 C 1831.8 1.49062 -0.81942 0
M  V30 18908 O 1832.98 1.61301 -1.08146 0
M  V30 18909 C 1830.11 2.63237 -2.26547 0
M  V30 18910 C 1829.07 2.57029 -3.42228 0
M  V30 18911 C 1828.39 3.96073 -3.59207 0
M  V30 18912 C 1829.69 2.12101 -4.77295 0
M  V30 18913 H 1831.39 0.956495 -2.8371 0
M  V30 18914 H 1828.93 0.458673 -1.365 0
M  V30 18915 H 1830.89 3.37341 -2.52545 0
M  V30 18916 H 1829.61 2.97461 -1.3485 0
M  V30 18917 H 1828.27 1.85382 -3.16273 0
M  V30 18918 H 1827.92 4.27599 -2.64892 0
M  V30 18919 H 1827.62 3.92802 -4.37013 0
M  V30 18920 H 1829.14 4.71844 -3.8755 0
M  V30 18921 H 1830.56 2.75946 -5.0252 0
M  V30 18922 H 1828.95 2.19895 -5.5836 0
M  V30 18923 H 1830.02 1.07319 -4.72875 0
M  V30 18924 N 1831.37 1.49742 0.491438 0
M  V30 18925 C 1832.32 1.63507 1.58901 0
M  V30 18926 C 1833.3 0.490352 1.53246 0
M  V30 18927 O 1834.49 0.74378 1.60614 0
M  V30 18928 C 1831.62 1.71377 2.97464 0
M  V30 18929 C 1830.71 2.91458 3.08079 0
M  V30 18930 N 1831.1 4.15412 2.88559 0
M  V30 18931 C 1829.4 2.89594 3.39192 0
M  V30 18932 C 1830.1 4.96183 3.03608 0
M  V30 18933 N 1829.07 4.29735 3.3291 0
M  V30 18934 H 1832.87 2.57055 1.42478 0
M  V30 18935 H 1830.39 1.46646 0.697765 0
M  V30 18936 H 1832.39 1.79338 3.76355 0
M  V30 18937 H 1831.05 0.789729 3.1495 0
M  V30 18938 H 1832.06 4.45239 2.64543 0
M  V30 18939 H 1828.73 2.06607 3.62794 0
M  V30 18940 H 1830.12 6.04684 2.92927 0
M  V30 18941 N 1832.84 -0.743177 1.38977 0
M  V30 18942 C 1834.12 -1.49384 1.26269 0
M  V30 18943 C 1834.5 -2.10691 -0.131349 0
M  V30 18944 O 1833.85 -1.97925 -1.14183 0
M  V30 18945 C 1834.06 -2.55184 2.3808 0
M  V30 18946 C 1835.41 -3.21796 2.77006 0
M  V30 18947 O 1836.43 -2.65493 2.37469 0
M  V30 18948 O 1835.29 -4.23656 3.45222 0
M  V30 18949 H 1832.38 -0.662968 0.49437 0
M  V30 18950 H 1834.93 -0.7777 1.50831 0
M  V30 18951 H 1833.7 -2.08204 3.31311 0
M  V30 18952 H 1833.33 -3.34366 2.15139 0
M  V30 18953 N 1834.32 -1.24018 -0.972487 0
M  V30 18954 C 1835.57 -1.07861 -1.71738 0
M  V30 18955 C 1835.9 0.382399 -1.90398 0
M  V30 18956 O 1835.18 1.2828 -1.462 0
M  V30 18957 C 1835.46 -1.81357 -3.11098 0
M  V30 18958 C 1835.31 -3.35179 -2.99959 0
M  V30 18959 C 1836.63 -1.58242 -4.10667 0
M  V30 18960 H 1833.75 -0.393228 -0.623331 0
M  V30 18961 H 1836.39 -1.52625 -1.13162 0
M  V30 18962 H 1834.54 -1.43307 -3.61103 0
M  V30 18963 H 1836.21 -3.82798 -2.57416 0
M  V30 18964 H 1834.46 -3.63805 -2.3628 0
M  V30 18965 H 1835.13 -3.818 -3.98664 0
M  V30 18966 H 1837.6 -1.91332 -3.69501 0
M  V30 18967 H 1836.48 -2.1213 -5.06253 0
M  V30 18968 H 1836.74 -0.519567 -4.39036 0
M  V30 18969 N 1835.8 1.17245 -1.05316 0
M  V30 18970 C 1836.73 2.23491 -0.67631 0
M  V30 18971 C 1837.71 1.66937 0.326507 0
M  V30 18972 O 1838.9 1.93127 0.203823 0
M  V30 18973 C 1836.03 3.47262 -0.0515755 0
M  V30 18974 C 1834.98 4.16646 -0.97929 0
M  V30 18975 C 1834.31 5.34254 -0.218369 0
M  V30 18976 C 1835.61 4.68736 -2.30399 0
M  V30 18977 H 1837.3 2.55269 -1.56455 0
M  V30 18978 H 1834.85 1.22699 -0.753714 0
M  V30 18979 H 1836.8 4.20805 0.223865 0
M  V30 18980 H 1835.52 3.14755 0.871614 0
M  V30 18981 H 1834.18 3.45017 -1.23931 0
M  V30 18982 H 1833.83 4.97998 0.707624 0
M  V30 18983 H 1833.53 5.81615 -0.83654 0
M  V30 18984 H 1835.05 6.1058 0.0497574 0
M  V30 18985 H 1836.47 5.3391 -2.08837 0
M  V30 18986 H 1834.87 5.2668 -2.87625 0
M  V30 18987 H 1835.94 3.85477 -2.94169 0
M  V30 18988 N 1837.28 0.834353 1.33702 0
M  V30 18989 C 1838.23 0.26233 2.29304 0
M  V30 18990 C 1839.2 -0.619326 1.54122 0
M  V30 18991 O 1840.38 -0.558551 1.82441 0
M  V30 18992 C 1837.52 -0.560341 3.4052 0
M  V30 18993 C 1836.63 0.344832 4.30622 0
M  V30 18994 C 1835.77 -0.488505 5.28949 0
M  V30 18995 C 1834.81 0.415341 6.10689 0
M  V30 18996 N 1833.94 -0.3796 7.01073 0
M  V30 18997 H 1838.78 1.08291 2.77628 0
M  V30 18998 H 1836.32 0.545497 1.36612 0
M  V30 18999 H 1838.28 -1.05274 4.03699 0
M  V30 19000 H 1836.91 -1.34593 2.93402 0
M  V30 19001 H 1835.96 0.955519 3.68204 0
M  V30 19002 H 1837.27 1.03935 4.87851 0
M  V30 19003 H 1836.43 -1.04492 5.97634 0
M  V30 19004 H 1835.17 -1.21648 4.72285 0
M  V30 19005 H 1834.17 0.983803 5.40926 0
M  V30 19006 H 1835.4 1.1416 6.69436 0
M  V30 19007 H 1833.34 -1.09103 6.46864 0
M  V30 19008 H 1833.26 0.25629 7.55565 0
M  V30 19009 H 1834.53 -0.918394 7.74071 0
M  V30 19010 N 1838.76 -1.46125 0.590367 0
M  V30 19011 C 1839.72 -2.2884 -0.128368 0
M  V30 19012 C 1840.72 -1.38818 -0.81156 0
M  V30 19013 O 1841.91 -1.61117 -0.662347 0
M  V30 19014 C 1839.04 -3.19402 -1.19144 0
M  V30 19015 H 1840.23 -2.93864 0.598641 0
M  V30 19016 H 1837.79 -1.52362 0.34866 0
M  V30 19017 H 1838.52 -2.59141 -1.94978 0
M  V30 19018 H 1838.31 -3.85692 -0.705973 0
M  V30 19019 H 1839.8 -3.8164 -1.69532 0
M  V30 19020 N 1840.23 -0.328564 -1.54137 0
M  V30 19021 C 1841.46 0.274326 -2.05073 0
M  V30 19022 C 1841.88 1.45393 -1.20442 0
M  V30 19023 O 1841.23 1.80964 -0.23625 0
M  V30 19024 C 1841.29 0.703941 -3.5458 0
M  V30 19025 O 1841.01 -0.428738 -4.35997 0
M  V30 19026 C 1842.51 1.36912 -4.21628 0
M  V30 19027 H 1839.73 0.0556157 -0.668691 0
M  V30 19028 H 1842.27 -0.476204 -1.98878 0
M  V30 19029 H 1840.43 1.40444 -3.61046 0
M  V30 19030 H 1840.84 -0.0892654 -5.24424 0
M  V30 19031 H 1842.31 1.62062 -5.27674 0
M  V30 19032 H 1842.79 2.31799 -3.73049 0
M  V30 19033 H 1843.4 0.711064 -4.19314 0
M  V30 19034 N 1841.71 1.57497 -0.0568439 0
M  V30 19035 C 1842.66 2.08377 0.925369 0
M  V30 19036 C 1843.65 0.990152 1.26826 0
M  V30 19037 O 1844.84 1.25342 1.24973 0
M  V30 19038 C 1841.97 2.6369 2.19824 0
M  V30 19039 C 1841.05 3.8003 1.88249 0
M  V30 19040 N 1841.44 4.89581 1.27059 0
M  V30 19041 C 1839.74 3.89043 2.18087 0
M  V30 19042 C 1840.44 5.70571 1.13241 0
M  V30 19043 N 1839.42 5.1836 1.63718 0
M  V30 19044 H 1843.22 2.9047 0.447693 0
M  V30 19045 H 1840.74 1.61729 0.147457 0
M  V30 19046 H 1842.73 2.98447 2.91093 0
M  V30 19047 H 1841.39 1.83037 2.68193 0
M  V30 19048 H 1842.4 5.09259 0.942087 0
M  V30 19049 H 1839.08 3.19342 2.68937 0
M  V30 19050 H 1840.47 6.68681 0.656898 0
M  V30 19051 N 1843.19 -0.216591 1.56105 0
M  V30 19052 C 1844.15 -1.25198 1.91985 0
M  V30 19053 C 1845.15 -1.39551 0.798884 0
M  V30 19054 O 1846.34 -1.37731 1.06657 0
M  V30 19055 C 1843.48 -2.62499 2.17502 0
M  V30 19056 H 1844.67 -0.945854 2.84594 0
M  V30 19057 H 1842.22 -0.457218 1.49463 0
M  V30 19058 H 1842.96 -2.98202 1.27461 0
M  V30 19059 H 1842.74 -2.53457 2.99169 0
M  V30 19060 H 1844.23 -3.37204 2.4634 0
M  V30 19061 N 1844.67 -1.5 -0.48349 0
M  V30 19062 C 1845.62 -1.68467 -1.6038 0
M  V30 19063 C 1846.61 -0.550508 -1.60205 0
M  V30 19064 O 1847.82 -0.730656 -1.64504 0
M  V30 19065 H 1844.19 -0.531525 -0.531964 0
M  V30 19066 H 1846.16 -2.62468 -1.41962 0
M  V30 19067 C 1844.91 -1.78462 -2.98407 0
M  V30 19068 H 1844.23 -2.65117 -2.99254 0
M  V30 19069 H 1845.67 -1.95413 -3.76284 0
M  V30 19070 C 1844.13 -0.533368 -3.32651 0
M  V30 19071 O 1844.66 0.333087 -4.00317 0
M  V30 19072 N 1842.87 -0.391077 -2.87957 0
M  V30 19073 H 1842.42 -1.09719 -2.33066 0
M  V30 19074 H 1842.37 0.444995 -3.11235 0
M  V30 19075 N 1846.15 0.735796 -1.39369 0
M  V30 19076 C 1847.38 1.52283 -1.39619 0
M  V30 19077 C 1847.78 1.89197 0.0112732 0
M  V30 19078 O 1847.13 1.54562 0.992786 0
M  V30 19079 C 1847.19 2.83993 -2.20427 0
M  V30 19080 C 1846.85 2.69518 -3.69065 0
M  V30 19081 C 1847.85 2.38119 -4.62164 0
M  V30 19082 C 1845.54 2.86414 -4.12641 0
M  V30 19083 C 1847.53 2.23797 -5.9682 0
M  V30 19084 C 1845.22 2.7171 -5.47373 0
M  V30 19085 C 1846.21 2.40447 -6.39277 0
M  V30 19086 O 1845.9 2.25833 -7.71527 0
M  V30 19087 H 1845.63 0.477218 -0.478789 0
M  V30 19088 H 1848.19 0.916936 -1.83797 0
M  V30 19089 H 1846.42 3.46839 -1.70996 0
M  V30 19090 H 1848.11 3.45606 -2.12865 0
M  V30 19091 H 1848.87 2.24717 -4.29799 0
M  V30 19092 H 1844.75 3.0974 -3.41441 0
M  V30 19093 H 1848.3 1.99316 -6.6852 0
M  V30 19094 H 1844.19 2.8469 -5.79329 0
M  V30 19095 H 1844.96 2.40909 -7.82244 0
M  V30 19096 N 1847.63 1.24532 0.965897 0
M  V30 19097 C 1848.57 1.03929 2.06076 0
M  V30 19098 C 1849.54 -0.0479997 1.66031 0
M  V30 19099 O 1850.73 0.106979 1.905 0
M  V30 19100 C 1847.87 0.652084 3.38883 0
M  V30 19101 C 1846.98 1.81304 3.92113 0
M  V30 19102 C 1846.12 1.37125 5.13196 0
M  V30 19103 C 1845.15 2.50204 5.58627 0
M  V30 19104 N 1844.29 2.0688 6.70929 0
M  V30 19105 H 1849.13 1.97636 2.23033 0
M  V30 19106 H 1846.67 0.984356 1.09311 0
M  V30 19107 H 1848.63 0.408608 4.15194 0
M  V30 19108 H 1847.26 -0.247995 3.21846 0
M  V30 19109 H 1846.31 2.17013 3.12425 0
M  V30 19110 H 1847.62 2.66264 4.21788 0
M  V30 19111 H 1846.77 1.08676 5.96887 0
M  V30 19112 H 1845.51 0.492215 4.8521 0
M  V30 19113 H 1844.52 2.7941 4.73508 0
M  V30 19114 H 1845.74 3.38667 5.88627 0
M  V30 19115 H 1843.69 1.21377 6.44673 0
M  V30 19116 H 1843.61 2.85392 7.00062 0
M  V30 19117 H 1844.87 1.81575 7.58057 0
M  V30 19118 N 1849.1 -1.16685 1.05936 0
M  V30 19119 C 1850.35 -1.87405 0.775061 0
M  V30 19120 C 1850.68 -1.81279 -0.696543 0
M  V30 19121 O 1849.96 -1.22595 -1.50999 0
M  V30 19122 C 1850.24 -3.37124 1.26569 0
M  V30 19123 C 1850.09 -3.5196 2.80078 0
M  V30 19124 C 1851.41 -4.31401 0.870695 0
M  V30 19125 H 1848.53 -0.680488 0.283028 0
M  V30 19126 H 1851.17 -1.37174 1.31466 0
M  V30 19127 H 1849.32 -3.80033 0.806653 0
M  V30 19128 H 1851 -3.18014 3.34163 0
M  V30 19129 H 1849.24 -2.9399 3.18986 0
M  V30 19130 H 1849.91 -4.5709 3.09471 0
M  V30 19131 H 1852.39 -3.96373 1.266 0
M  V30 19132 H 1851.26 -5.34676 1.2415 0
M  V30 19133 H 1851.52 -4.41529 -0.224692 0
M  V30 19134 N 1850.58 -0.841432 -1.33258 0
M  V30 19135 C 1851.81 -0.451942 -2.01904 0
M  V30 19136 C 1852.22 0.94758 -1.63298 0
M  V30 19137 O 1851.58 1.61622 -0.847611 0
M  V30 19138 C 1851.63 -0.565978 -3.57042 0
M  V30 19139 O 1851.35 -1.91036 -3.94255 0
M  V30 19140 C 1852.85 -0.173776 -4.42959 0
M  V30 19141 H 1850.07 -0.179113 -0.646653 0
M  V30 19142 H 1852.62 -1.13472 -1.70131 0
M  V30 19143 H 1850.77 0.0689126 -3.87339 0
M  V30 19144 H 1851.19 -1.8977 -4.88966 0
M  V30 19145 H 1852.66 -0.304608 -5.51159 0
M  V30 19146 H 1853.14 0.884559 -4.302 0
M  V30 19147 H 1853.74 -0.783205 -4.18026 0
M  V30 19148 N 1852.06 1.4581 -0.598108 0
M  V30 19149 C 1852.99 2.33223 0.113747 0
M  V30 19150 C 1853.97 1.46268 0.868312 0
M  V30 19151 O 1855.16 1.75058 0.840737 0
M  V30 19152 C 1852.29 3.28815 1.11795 0
M  V30 19153 C 1851.24 4.25331 0.477223 0
M  V30 19154 C 1850.57 5.10544 1.589 0
M  V30 19155 C 1851.87 5.18894 -0.595518 0
M  V30 19156 H 1853.56 2.92992 -0.616123 0
M  V30 19157 H 1851.11 1.40888 -0.297741 0
M  V30 19158 H 1853.06 3.88832 1.62443 0
M  V30 19159 H 1851.78 2.67185 1.87829 0
M  V30 19160 H 1850.44 3.66599 -0.00831044 0
M  V30 19161 H 1850.09 4.45288 2.33939 0
M  V30 19162 H 1849.79 5.75918 1.16584 0
M  V30 19163 H 1851.31 5.73427 2.09794 0
M  V30 19164 H 1852.73 5.73037 -0.173494 0
M  V30 19165 H 1851.12 5.92694 -0.939873 0
M  V30 19166 H 1852.19 4.61895 -1.47584 0
M  V30 19167 N 1853.54 0.336733 1.53961 0
M  V30 19168 C 1854.81 -0.316794 1.93018 0
M  V30 19169 C 1855.19 -1.68802 1.26764 0
M  V30 19170 O 1854.54 -2.2468 0.416094 0
M  V30 19171 C 1854.75 -0.395878 3.46747 0
M  V30 19172 C 1856.1 -0.649946 4.19596 0
M  V30 19173 O 1857.12 -0.47827 3.52975 0
M  V30 19174 O 1855.98 -0.982035 5.37604 0
M  V30 19175 H 1853.08 -0.183442 0.806398 0
M  V30 19176 H 1855.62 0.387412 1.65219 0
M  V30 19177 H 1854.4 0.56665 3.87175 0
M  V30 19178 H 1854.02 -1.14714 3.80692 0
M  V30 19179 N 1855.02 -1.57465 0.0651956 0
M  V30 19180 C 1855.95 -2.15374 -0.902018 0
M  V30 19181 C 1856.93 -1.07904 -1.31494 0
M  V30 19182 O 1858.11 -1.35909 -1.38717 0
M  V30 19183 C 1855.24 -2.71005 -2.17195 0
M  V30 19184 C 1854.2 -3.83583 -1.89864 0
M  V30 19185 C 1853.52 -4.25789 -3.23432 0
M  V30 19186 C 1854.82 -5.08112 -1.20913 0
M  V30 19187 H 1856.52 -2.96445 -0.419631 0
M  V30 19188 H 1854.06 -1.42599 -0.200401 0
M  V30 19189 H 1856.01 -3.1016 -2.8527 0
M  V30 19190 H 1854.74 -1.87146 -2.67664 0
M  V30 19191 H 1853.4 -3.44921 -1.24197 0
M  V30 19192 H 1853.05 -3.38861 -3.71729 0
M  V30 19193 H 1852.75 -5.01673 -3.05938 0
M  V30 19194 H 1854.27 -4.67555 -3.92715 0
M  V30 19195 H 1855.68 -5.44624 -1.79046 0
M  V30 19196 H 1854.08 -5.8923 -1.137 0
M  V30 19197 H 1855.15 -4.84538 -0.187224 0
M  V30 19198 N 1856.49 0.20831 -1.56217 0
M  V30 19199 C 1857.43 1.28196 -1.89996 0
M  V30 19200 C 1858.44 1.42381 -0.789394 0
M  V30 19201 O 1859.63 1.43043 -1.06776 0
M  V30 19202 C 1856.73 2.65588 -2.10514 0
M  V30 19203 C 1855.9 2.73181 -3.416 0
M  V30 19204 C 1854.96 3.91678 -3.5139 0
M  V30 19205 O 1853.99 3.79397 -4.24319 0
M  V30 19206 N 1855.19 5.06562 -2.83505 0
M  V30 19207 H 1857.95 0.995403 -2.82687 0
M  V30 19208 H 1855.51 0.398294 -1.56924 0
M  V30 19209 H 1857.51 3.43264 -2.14365 0
M  V30 19210 H 1856.08 2.86788 -1.24385 0
M  V30 19211 H 1855.3 1.81881 -3.49733 0
M  V30 19212 H 1856.58 2.75234 -4.27929 0
M  V30 19213 H 1855.98 5.19437 -2.24056 0
M  V30 19214 H 1854.54 5.82232 -2.93 0
M  V30 19215 N 1857.97 1.50255 0.475528 0
M  V30 19216 C 1858.92 1.69315 1.59484 0
M  V30 19217 C 1859.91 0.558996 1.59911 0
M  V30 19218 O 1861.12 0.73937 1.64114 0
M  V30 19219 H 1857.49 0.534338 0.529138 0
M  V30 19220 H 1859.47 2.63217 1.40568 0
M  V30 19221 C 1858.21 1.80042 2.97456 0
M  V30 19222 H 1857.54 2.667 2.97844 0
M  V30 19223 H 1858.98 1.97405 3.75243 0
M  V30 19224 C 1857.44 0.551002 3.32364 0
M  V30 19225 O 1857.97 -0.311853 4.00488 0
M  V30 19226 N 1856.17 0.406343 2.87745 0
M  V30 19227 H 1855.72 1.10953 2.32481 0
M  V30 19228 H 1855.68 -0.428483 3.11467 0
M  V30 19229 N 1859.45 -0.728395 1.39758 0
M  V30 19230 C 1860.67 -1.52268 1.40816 0
M  V30 19231 C 1861.1 -1.88099 0.00629167 0
M  V30 19232 O 1860.46 -1.52376 -0.982402 0
M  V30 19233 C 1860.51 -2.78262 2.29353 0
M  V30 19234 O 1859.61 -3.74453 1.72796 0
M  V30 19235 H 1858.95 -0.459582 0.47925 0
M  V30 19236 H 1861.48 -0.898132 1.83833 0
M  V30 19237 H 1861.49 -3.26927 2.44096 0
M  V30 19238 H 1860.17 -2.51515 3.31229 0
M  V30 19239 H 1858.74 -3.33248 1.67332 0
M  V30 19240 N 1860.93 -1.25042 -0.959279 0
M  V30 19241 C 1862.16 -1.12242 -1.73809 0
M  V30 19242 C 1862.57 0.324251 -1.85995 0
M  V30 19243 O 1861.93 1.22328 -1.35433 0
M  V30 19244 C 1861.98 -1.76603 -3.15426 0
M  V30 19245 O 1861.7 -3.15614 -3.03841 0
M  V30 19246 C 1863.2 -1.69522 -4.09606 0
M  V30 19247 H 1860.42 -0.39173 -0.544783 0
M  V30 19248 H 1862.96 -1.65314 -1.2038 0
M  V30 19249 H 1861.12 -1.27512 -3.65813 0
M  V30 19250 H 1861.53 -3.47186 -3.93144 0
M  V30 19251 H 1863.01 -2.19223 -5.06602 0
M  V30 19252 H 1863.48 -0.658074 -4.34242 0
M  V30 19253 H 1864.09 -2.18079 -3.65133 0
M  V30 19254 N 1862.41 1.16121 -1.06553 0
M  V30 19255 C 1863.32 2.24229 -0.689833 0
M  V30 19256 C 1864.33 1.71476 0.295308 0
M  V30 19257 O 1865.51 2.00885 0.143964 0
M  V30 19258 C 1862.57 3.46596 -0.0847857 0
M  V30 19259 C 1861.63 4.14375 -1.12213 0
M  V30 19260 C 1860.87 5.30901 -0.54586 0
M  V30 19261 O 1861.09 5.66792 0.640588 0
M  V30 19262 O 1860.02 5.87983 -1.28683 0
M  V30 19263 H 1863.85 2.5868 -1.59117 0
M  V30 19264 H 1861.44 1.23687 -0.837966 0
M  V30 19265 H 1863.32 4.20653 0.250764 0
M  V30 19266 H 1861.99 3.13912 0.789998 0
M  V30 19267 H 1860.9 3.42276 -1.5099 0
M  V30 19268 H 1862.23 4.5112 -1.96853 0
M  V30 19269 N 1863.88 0.848487 1.3281 0
M  V30 19270 C 1864.83 0.286636 2.29013 0
M  V30 19271 C 1865.8 -0.602944 1.5477 0
M  V30 19272 O 1866.99 -0.539169 1.83024 0
M  V30 19273 C 1864.13 -0.524193 3.41096 0
M  V30 19274 C 1863.24 0.390486 4.30232 0
M  V30 19275 C 1862.37 -0.432376 5.29437 0
M  V30 19276 C 1861.41 0.48009 6.10214 0
M  V30 19277 N 1860.55 -0.30522 7.01436 0
M  V30 19278 H 1865.39 1.1123 2.76463 0
M  V30 19279 H 1862.93 0.559956 1.36025 0
M  V30 19280 H 1864.89 -1.00987 4.04793 0
M  V30 19281 H 1863.52 -1.31474 2.94813 0
M  V30 19282 H 1862.57 0.994518 3.6717 0
M  V30 19283 H 1863.88 1.09103 4.86722 0
M  V30 19284 H 1863.03 -0.981471 5.98709 0
M  V30 19285 H 1861.77 -1.16631 4.73549 0
M  V30 19286 H 1860.78 1.04112 5.39853 0
M  V30 19287 H 1862 1.21254 6.68187 0
M  V30 19288 H 1859.95 -1.02236 6.47984 0
M  V30 19289 H 1859.87 0.336414 7.55251 0
M  V30 19290 H 1861.13 -0.836242 7.75001 0
M  V30 19291 N 1865.36 -1.4549 0.605832 0
M  V30 19292 C 1866.61 -2.02251 0.100338 0
M  V30 19293 C 1866.94 -1.47447 -1.26845 0
M  V30 19294 O 1866.19 -0.638532 -1.8499 0
M  V30 19295 C 1866.49 -3.57399 0.00918576 0
M  V30 19296 C 1866.16 -4.31347 1.31341 0
M  V30 19297 C 1864.82 -4.51267 1.67067 0
M  V30 19298 C 1867.17 -4.73629 2.17543 0
M  V30 19299 C 1864.5 -5.10725 2.88751 0
M  V30 19300 C 1866.85 -5.34432 3.38474 0
M  V30 19301 C 1865.52 -5.52576 3.74455 0
M  V30 19302 H 1864.79 -0.74009 0.0367165 0
M  V30 19303 H 1867.43 -1.74577 0.787099 0
M  V30 19304 H 1865.74 -3.84342 -0.760829 0
M  V30 19305 H 1867.43 -3.99019 -0.398057 0
M  V30 19306 H 1864.02 -4.16155 1.02533 0
M  V30 19307 H 1868.21 -4.57974 1.91241 0
M  V30 19308 H 1863.46 -5.22961 3.16736 0
M  V30 19309 H 1867.64 -5.66149 4.05522 0
M  V30 19310 H 1865.27 -5.98416 4.68831 0
M  V30 19311 N 1866.84 -0.344893 -1.5378 0
M  V30 19312 C 1868.09 0.250711 -2.00539 0
M  V30 19313 C 1868.41 1.5096 -1.23435 0
M  V30 19314 O 1867.68 1.92893 -0.341893 0
M  V30 19315 H 1866.26 0.0956318 -0.740853 0
M  V30 19316 H 1868.92 -0.466361 -1.89238 0
M  V30 19317 H 1868.02 0.49222 -3.08194 0
M  V30 19318 N 1868.32 1.57428 -0.0735454 0
M  V30 19319 C 1869.57 1.93174 0.593996 0
M  V30 19320 C 1869.89 0.954462 1.70044 0
M  V30 19321 O 1869.16 0.00289765 1.959 0
M  V30 19322 H 1867.74 0.713123 0.222407 0
M  V30 19323 H 1870.4 1.94454 -0.131813 0
M  V30 19324 H 1869.5 2.95025 1.01818 0
M  V30 19325 N 1869.8 -0.200022 1.56326 0
M  V30 19326 C 1871.04 -0.921174 1.80335 0
M  V30 19327 C 1871.37 -1.83461 0.645946 0
M  V30 19328 O 1870.63 -1.92198 -0.368568 0
M  V30 19329 C 1870.93 -1.77356 3.1029 0
M  V30 19330 C 1870.59 -1.01153 4.39407 0
M  V30 19331 C 1869.25 -0.801112 4.74485 0
M  V30 19332 C 1871.61 -0.474992 5.19031 0
M  V30 19333 C 1868.93 -0.0425991 5.86685 0
M  V30 19334 C 1871.29 0.270286 6.32022 0
M  V30 19335 C 1869.95 0.491763 6.65686 0
M  V30 19336 H 1869.22 -0.337082 0.659892 0
M  V30 19337 H 1871.87 -0.187867 1.90576 0
M  V30 19338 H 1870.17 -2.57539 2.95264 0
M  V30 19339 H 1871.87 -2.33406 3.26071 0
M  V30 19340 H 1868.46 -1.18553 4.11877 0
M  V30 19341 H 1872.64 -0.624969 4.92349 0
M  V30 19342 H 1867.9 0.139015 6.11242 0
M  V30 19343 H 1872.07 0.693432 6.92939 0
M  V30 19344 H 1869.7 1.08142 7.52469 0
M  V30 19345 N 1871.27 -1.50505 -0.467553 0
M  V30 19346 C 1872.2 -1.72558 -1.57309 0
M  V30 19347 C 1873.19 -0.574619 -1.601 0
M  V30 19348 O 1874.37 -0.814135 -1.76311 0
M  V30 19349 C 1871.5 -1.82296 -2.9561 0
M  V30 19350 C 1870.45 -2.97513 -3.07685 0
M  V30 19351 C 1869.78 -2.92398 -4.47669 0
M  V30 19352 C 1871.08 -4.37968 -2.84573 0
M  V30 19353 H 1872.77 -2.65122 -1.39107 0
M  V30 19354 H 1870.32 -1.2758 -0.667776 0
M  V30 19355 H 1872.27 -1.96308 -3.72882 0
M  V30 19356 H 1871 -0.863562 -3.14976 0
M  V30 19357 H 1869.66 -2.83157 -2.32847 0
M  V30 19358 H 1869.3 -1.94297 -4.63959 0
M  V30 19359 H 1869 -3.69749 -4.56683 0
M  V30 19360 H 1870.53 -3.08464 -5.26956 0
M  V30 19361 H 1871.94 -4.52831 -3.51593 0
M  V30 19362 H 1870.34 -5.16796 -3.05028 0
M  V30 19363 H 1871.41 -4.50093 -1.80402 0
M  V30 19364 N 1872.75 0.720973 -1.40142 0
M  V30 19365 C 1874.17 1.02835 -1.22054 0
M  V30 19366 C 1874.37 2.0129 -0.091949 0
M  V30 19367 O 1873.42 2.46395 0.551897 0
M  V30 19368 C 1874.74 1.57722 -2.56016 0
M  V30 19369 C 1876.29 1.69734 -2.62982 0
M  V30 19370 C 1876.76 2.28027 -3.972 0
M  V30 19371 N 1878.25 2.3542 -3.98913 0
M  V30 19372 C 1878.99 2.81495 -4.99548 0
M  V30 19373 N 1878.48 3.27362 -6.10578 0
M  V30 19374 N 1880.28 2.80831 -4.86919 0
M  V30 19375 H 1872.43 0.068271 -2.1229 0
M  V30 19376 H 1874.69 0.0928952 -0.943438 0
M  V30 19377 H 1874.4 0.928424 -3.39224 0
M  V30 19378 H 1874.27 2.56326 -2.76725 0
M  V30 19379 H 1876.66 2.33732 -1.80148 0
M  V30 19380 H 1876.74 0.697443 -2.46108 0
M  V30 19381 H 1876.38 1.64653 -4.80471 0
M  V30 19382 H 1876.31 3.28721 -4.114 0
M  V30 19383 H 1878.8 2.03019 -3.18735 0
M  V30 19384 H 1879.12 3.61071 -6.83263 0
M  V30 19385 H 1877.46 3.25335 -6.14152 0
M  V30 19386 H 1880.65 2.4433 -3.99275 0
M  V30 19387 H 1880.82 3.16423 -5.65492 0
M  V30 19388 N 1874.23 1.25549 0.952634 0
M  V30 19389 C 1875.46 1.13262 1.73743 0
M  V30 19390 C 1875.88 -0.309507 1.85536 0
M  V30 19391 O 1875.24 -1.22422 1.33726 0
M  V30 19392 C 1875.29 1.79395 3.12809 0
M  V30 19393 O 1874.39 1.07496 3.98144 0
M  V30 19394 H 1873.73 0.395314 0.5335 0
M  V30 19395 H 1876.26 1.66151 1.19394 0
M  V30 19396 H 1876.27 1.85761 3.63259 0
M  V30 19397 H 1874.95 2.84316 3.03542 0
M  V30 19398 H 1873.52 1.09025 3.56606 0
M  V30 19399 N 1875.71 -1.15554 1.07168 0
M  V30 19400 C 1876.67 -2.18431 0.694305 0
M  V30 19401 C 1877.67 -1.5861 -0.264497 0
M  V30 19402 O 1878.86 -1.7414 -0.0457035 0
M  V30 19403 C 1875.99 -3.40892 0.0230473 0
M  V30 19404 H 1877.19 -2.53331 1.60511 0
M  V30 19405 H 1874.74 -1.29984 0.867982 0
M  V30 19406 H 1875.47 -3.11559 -0.900083 0
M  V30 19407 H 1875.26 -3.8557 0.712622 0
M  V30 19408 H 1876.75 -4.16986 -0.226392 0
M  V30 19409 N 1877.19 -0.855519 -1.32358 0
M  V30 19410 C 1878.12 -0.316159 -2.3135 0
M  V30 19411 C 1879.1 0.585159 -1.59718 0
M  V30 19412 O 1880.28 0.505221 -1.87513 0
M  V30 19413 C 1877.41 0.495577 -3.43746 0
M  V30 19414 C 1876.37 -0.311382 -4.26866 0
M  V30 19415 C 1875.69 0.625144 -5.31033 0
M  V30 19416 C 1876.99 -1.5376 -4.99154 0
M  V30 19417 H 1878.69 -1.14331 -2.7671 0
M  V30 19418 H 1876.23 -0.551221 -1.33032 0
M  V30 19419 H 1878.19 0.883325 -4.12038 0
M  V30 19420 H 1876.91 1.3561 -2.97115 0
M  V30 19421 H 1875.57 -0.680895 -3.60221 0
M  V30 19422 H 1875.22 1.48254 -4.80656 0
M  V30 19423 H 1874.92 0.0892112 -5.87532 0
M  V30 19424 H 1876.44 1.01005 -6.02188 0
M  V30 19425 H 1877.86 -1.2221 -5.60123 0
M  V30 19426 H 1876.25 -2.01153 -5.65382 0
M  V30 19427 H 1877.32 -2.29838 -4.26969 0
M  V30 19428 N 1878.67 1.45167 -0.61354 0
M  V30 19429 C 1879.94 1.95553 -0.042781 0
M  V30 19430 C 1880.32 1.55588 1.42673 0
M  V30 19431 O 1879.67 0.821325 2.13229 0
M  V30 19432 C 1879.88 3.48124 -0.247141 0
M  V30 19433 C 1881.23 4.24398 -0.131068 0
M  V30 19434 O 1882.25 3.55757 -0.177576 0
M  V30 19435 O 1881.11 5.46496 -0.0211683 0
M  V30 19436 H 1878.21 0.826367 0.0323494 0
M  V30 19437 H 1880.75 1.55304 -0.684017 0
M  V30 19438 H 1879.52 3.70202 -1.26751 0
M  V30 19439 H 1879.15 3.95278 0.429074 0
M  V30 19440 N 1880.14 0.353044 1.53595 0
M  V30 19441 C 1881.39 -0.240904 2.01364 0
M  V30 19442 C 1881.72 -1.49438 1.24023 0
M  V30 19443 O 1881 -1.91672 0.330451 0
M  V30 19444 C 1881.28 -0.545497 3.55944 0
M  V30 19445 C 1881.13 0.720742 4.43988 0
M  V30 19446 C 1882.45 -1.35124 4.18843 0
M  V30 19447 H 1879.57 -0.0860838 0.731955 0
M  V30 19448 H 1882.21 0.475459 1.83955 0
M  V30 19449 H 1880.36 -1.15578 3.7091 0
M  V30 19450 H 1882.04 1.35852 4.40842 0
M  V30 19451 H 1880.28 1.34369 4.12465 0
M  V30 19452 H 1880.95 0.462749 5.50057 0
M  V30 19453 H 1883.43 -0.835104 4.07634 0
M  V30 19454 H 1882.3 -1.53311 5.27055 0
M  V30 19455 H 1882.56 -2.35612 3.74085 0
M  V30 19456 N 1881.62 -1.57387 0.0818932 0
M  V30 19457 C 1882.55 -2.16318 -0.879124 0
M  V30 19458 C 1883.53 -1.09293 -1.30342 0
M  V30 19459 O 1884.72 -1.37373 -1.37267 0
M  V30 19460 C 1881.85 -2.73293 -2.14308 0
M  V30 19461 C 1880.8 -3.85575 -1.85785 0
M  V30 19462 C 1880.13 -4.29195 -3.18897 0
M  V30 19463 C 1881.43 -5.09365 -1.15517 0
M  V30 19464 H 1883.12 -2.96873 -0.388166 0
M  V30 19465 H 1880.67 -1.42803 -0.185265 0
M  V30 19466 H 1882.62 -3.13168 -2.81964 0
M  V30 19467 H 1881.34 -1.89974 -2.65664 0
M  V30 19468 H 1880 -3.46219 -1.20532 0
M  V30 19469 H 1879.65 -3.42784 -3.68114 0
M  V30 19470 H 1879.35 -5.04889 -3.006 0
M  V30 19471 H 1880.88 -4.71694 -3.87734 0
M  V30 19472 H 1882.29 -5.46493 -1.73259 0
M  V30 19473 H 1880.69 -5.90403 -1.07444 0
M  V30 19474 H 1881.76 -4.8471 -0.135822 0
M  V30 19475 N 1883.1 0.191729 -1.56429 0
M  V30 19476 C 1884.32 0.931804 -1.85289 0
M  V30 19477 C 1884.75 1.7592 -0.665864 0
M  V30 19478 O 1884.11 1.77158 0.385313 0
M  V30 19479 C 1884.16 1.801 -3.12404 0
M  V30 19480 O 1883.26 2.9002 -2.93193 0
M  V30 19481 H 1882.6 0.262213 -0.610033 0
M  V30 19482 H 1885.13 0.196028 -2.03659 0
M  V30 19483 H 1885.14 2.20499 -3.43285 0
M  V30 19484 H 1883.82 1.19309 -3.9842 0
M  V30 19485 H 1882.39 2.53352 -2.73619 0
M  V30 19486 N 1884.58 1.50751 0.459565 0
M  V30 19487 C 1885.51 1.66621 1.57385 0
M  V30 19488 C 1886.52 0.547358 1.53323 0
M  V30 19489 O 1887.71 0.820941 1.58502 0
M  V30 19490 C 1884.81 1.64524 2.96285 0
M  V30 19491 C 1883.98 2.92631 3.25093 0
M  V30 19492 C 1883.04 2.83021 4.43605 0
M  V30 19493 O 1882.07 3.56977 4.43347 0
M  V30 19494 N 1883.27 1.97358 5.45921 0
M  V30 19495 H 1886.04 2.62738 1.44184 0
M  V30 19496 H 1883.6 1.48359 0.64817 0
M  V30 19497 H 1885.59 1.55693 3.73553 0
M  V30 19498 H 1884.16 0.760945 3.03197 0
M  V30 19499 H 1883.38 3.15502 2.36331 0
M  V30 19500 H 1884.67 3.77477 3.41157 0
M  V30 19501 H 1884.07 1.36608 5.48958 0
M  V30 19502 H 1882.62 1.94422 6.22128 0
M  V30 19503 N 1886.06 -0.713531 1.40522 0
M  V30 19504 C 1887.3 -1.46899 1.38216 0
M  V30 19505 C 1887.62 -1.95596 -0.011831 0
M  V30 19506 O 1888.82 -2.71043 -0.157513 0
M  V30 19507 C 1887.28 -2.65544 2.42929 0
M  V30 19508 C 1886.89 -2.23707 3.88148 0
M  V30 19509 C 1888.63 -3.4327 2.49732 0
M  V30 19510 C 1886.54 -3.39203 4.84453 0
M  V30 19511 H 1885.47 -0.551718 0.513929 0
M  V30 19512 H 1888.12 -0.776357 1.66268 0
M  V30 19513 H 1886.5 -3.36987 2.0798 0
M  V30 19514 H 1887.68 -1.5967 4.32252 0
M  V30 19515 H 1885.99 -1.59021 3.84839 0
M  V30 19516 H 1888.59 -4.29215 3.18871 0
M  V30 19517 H 1888.93 -3.87225 1.52848 0
M  V30 19518 H 1889.46 -2.78871 2.83683 0
M  V30 19519 H 1886.2 -3.00278 5.82678 0
M  V30 19520 H 1885.72 -4.02149 4.45012 0
M  V30 19521 H 1887.4 -4.0524 5.04371 0
M  V30 19522 N 1887.53 -1.26053 -0.945962 0
M  V30 19523 C 1888.46 -1.09687 -2.06134 0
M  V30 19524 C 1889.44 -0.00341513 -1.701 0
M  V30 19525 O 1890.63 -0.174559 -1.93414 0
M  V30 19526 C 1887.76 -0.724007 -3.3967 0
M  V30 19527 C 1886.71 -1.76866 -3.89747 0
M  V30 19528 C 1886.04 -1.25025 -5.19878 0
M  V30 19529 C 1887.34 -3.16923 -4.15159 0
M  V30 19530 H 1889.03 -2.02986 -2.20084 0
M  V30 19531 H 1886.58 -0.977346 -1.05754 0
M  V30 19532 H 1888.53 -0.596411 -4.17158 0
M  V30 19533 H 1887.26 0.244695 -3.25682 0
M  V30 19534 H 1885.92 -1.88485 -3.14435 0
M  V30 19535 H 1885.56 -0.271527 -5.02267 0
M  V30 19536 H 1885.26 -1.94853 -5.54352 0
M  V30 19537 H 1886.79 -1.13523 -5.99954 0
M  V30 19538 H 1888.2 -3.08409 -4.83277 0
M  V30 19539 H 1886.6 -3.84299 -4.60906 0
M  V30 19540 H 1887.67 -3.63337 -3.21114 0
M  V30 19541 N 1889.01 1.14984 -1.07779 0
M  V30 19542 C 1889.92 2.23484 -0.713576 0
M  V30 19543 C 1890.94 1.71779 0.277104 0
M  V30 19544 O 1892.11 2.01026 0.122649 0
M  V30 19545 C 1889.18 3.46487 -0.121542 0
M  V30 19546 C 1888.24 4.13162 -1.16602 0
M  V30 19547 C 1887.47 5.30292 -0.602138 0
M  V30 19548 O 1887.7 5.67439 0.580436 0
M  V30 19549 O 1886.63 5.86585 -1.34912 0
M  V30 19550 H 1890.46 2.56978 -1.61852 0
M  V30 19551 H 1888.04 1.22791 -0.851038 0
M  V30 19552 H 1889.92 4.20896 0.206134 0
M  V30 19553 H 1888.6 3.14732 0.756659 0
M  V30 19554 H 1887.5 3.40655 -1.54612 0
M  V30 19555 H 1888.84 4.49007 -2.01627 0
M  V30 19556 N 1890.49 0.862526 1.31902 0
M  V30 19557 C 1891.42 0.328423 2.31179 0
M  V30 19558 C 1892.4 -0.57668 1.60026 0
M  V30 19559 O 1893.59 -0.49527 1.87778 0
M  V30 19560 C 1890.72 -0.47734 3.44004 0
M  V30 19561 C 1889.67 0.334015 4.26695 0
M  V30 19562 C 1889 -0.596973 5.31357 0
M  V30 19563 C 1890.3 1.56405 4.98332 0
M  V30 19564 H 1891.99 1.15797 2.761 0
M  V30 19565 H 1889.54 0.558268 1.32738 0
M  V30 19566 H 1891.49 -0.861461 4.12501 0
M  V30 19567 H 1890.21 -1.34033 2.9783 0
M  V30 19568 H 1888.87 0.699989 3.59855 0
M  V30 19569 H 1888.52 -1.45703 4.81435 0
M  V30 19570 H 1888.22 -0.0580517 5.87571 0
M  V30 19571 H 1889.74 -0.978099 6.02715 0
M  V30 19572 H 1891.16 1.25178 5.59467 0
M  V30 19573 H 1889.55 2.04149 5.64308 0
M  V30 19574 H 1890.62 2.32099 4.25744 0
M  V30 19575 N 1891.97 -1.4484 0.62123 0
M  V30 19576 C 1892.93 -2.29061 -0.0797989 0
M  V30 19577 C 1893.93 -1.40508 -0.781932 0
M  V30 19578 O 1895.12 -1.62485 -0.628023 0
M  V30 19579 C 1892.25 -3.21857 -1.12342 0
M  V30 19580 H 1893.45 -2.92528 0.66084 0
M  V30 19581 H 1891 -1.51588 0.3809 0
M  V30 19582 H 1891.73 -2.63218 -1.89437 0
M  V30 19583 H 1891.52 -3.87103 -0.624003 0
M  V30 19584 H 1893.01 -3.8515 -1.61398 0
M  V30 19585 N 1893.45 -0.361184 -1.53405 0
M  V30 19586 C 1894.67 0.230765 -2.05609 0
M  V30 19587 C 1895.09 1.42805 -1.23499 0
M  V30 19588 O 1894.45 1.80423 -0.274582 0
M  V30 19589 C 1894.5 0.628571 -3.55993 0
M  V30 19590 O 1894.22 -0.521123 -4.3499 0
M  V30 19591 C 1895.72 1.27938 -4.24437 0
M  V30 19592 H 1892.94 0.0414193 -0.66972 0
M  V30 19593 H 1895.48 -0.518281 -1.97823 0
M  V30 19594 H 1893.64 1.32754 -3.63944 0
M  V30 19595 H 1894.05 -0.200483 -5.24117 0
M  V30 19596 H 1895.53 1.50832 -5.30993 0
M  V30 19597 H 1896 2.23834 -3.77882 0
M  V30 19598 H 1896.61 0.621961 -4.20728 0
M  V30 19599 N 1894.92 1.57341 -0.0902386 0
M  V30 19600 C 1895.85 2.16782 0.86764 0
M  V30 19601 C 1896.84 1.09982 1.29761 0
M  V30 19602 O 1898.02 1.38099 1.36537 0
M  V30 19603 C 1895.15 2.74426 2.12856 0
M  V30 19604 C 1894.1 3.86555 1.83738 0
M  V30 19605 C 1893.43 4.3088 3.16617 0
M  V30 19606 C 1894.73 5.09971 1.12814 0
M  V30 19607 H 1896.42 2.97075 0.372417 0
M  V30 19608 H 1893.97 1.42899 0.177689 0
M  V30 19609 H 1895.92 3.14659 2.80299 0
M  V30 19610 H 1894.65 1.9138 2.64653 0
M  V30 19611 H 1893.31 3.46853 1.18694 0
M  V30 19612 H 1892.95 3.44732 3.66291 0
M  V30 19613 H 1892.65 5.06477 2.97918 0
M  V30 19614 H 1894.18 4.73743 3.85227 0
M  V30 19615 H 1895.59 5.47404 1.70358 0
M  V30 19616 H 1893.99 5.90965 1.04311 0
M  V30 19617 H 1895.06 4.84775 0.110114 0
M  V30 19618 N 1896.4 -0.183431 1.56529 0
M  V30 19619 C 1897.33 -1.25157 1.92011 0
M  V30 19620 C 1898.35 -1.41107 0.811945 0
M  V30 19621 O 1899.54 -1.41326 1.09038 0
M  V30 19622 C 1896.64 -2.62206 2.14712 0
M  V30 19623 C 1895.81 -2.67712 3.45903 0
M  V30 19624 C 1894.87 -3.86038 3.57576 0
M  V30 19625 O 1893.89 -3.72599 4.30301 0
M  V30 19626 N 1895.1 -5.01988 2.91528 0
M  V30 19627 H 1897.86 -0.950304 2.84235 0
M  V30 19628 H 1895.42 -0.373278 1.57538 0
M  V30 19629 H 1897.41 -3.3981 2.19798 0
M  V30 19630 H 1895.98 -2.84772 1.28932 0
M  V30 19631 H 1895.2 -1.76294 3.52582 0
M  V30 19632 H 1896.49 -2.68392 4.32254 0
M  V30 19633 H 1895.89 -5.15807 2.32292 0
M  V30 19634 H 1894.45 -5.77497 3.02225 0
M  V30 19635 N 1897.88 -1.50992 -0.451564 0
M  V30 19636 C 1899.16 -1.53486 -1.2125 0
M  V30 19637 C 1899.54 -0.290809 -2.09087 0
M  V30 19638 O 1898.89 0.724859 -2.16698 0
M  V30 19639 C 1899.1 -2.84125 -2.02667 0
M  V30 19640 C 1900.44 -3.35535 -2.60195 0
M  V30 19641 O 1901.47 -2.85579 -2.12892 0
M  V30 19642 O 1900.33 -4.22667 -3.46432 0
M  V30 19643 H 1897.42 -0.616481 -0.551253 0
M  V30 19644 H 1899.97 -1.63296 -0.461792 0
M  V30 19645 H 1898.74 -3.66134 -1.38064 0
M  V30 19646 H 1898.36 -2.7741 -2.84832 0
M  V30 19647 N 1899.36 0.706069 -1.40899 0
M  V30 19648 C 1900.61 1.46164 -1.38993 0
M  V30 19649 C 1900.92 1.956 0.00145788 0
M  V30 19650 O 1902.13 2.71122 0.143137 0
M  V30 19651 C 1900.58 2.64252 -2.44334 0
M  V30 19652 C 1900.19 2.21646 -3.89329 0
M  V30 19653 C 1901.93 3.41941 -2.51549 0
M  V30 19654 C 1899.84 3.36629 -4.86245 0
M  V30 19655 H 1898.77 0.548985 -0.516847 0
M  V30 19656 H 1901.42 0.767528 -1.66677 0
M  V30 19657 H 1899.8 3.3588 -2.09764 0
M  V30 19658 H 1900.98 1.57376 -4.33093 0
M  V30 19659 H 1899.29 1.56978 -3.85677 0
M  V30 19660 H 1901.89 4.27518 -3.21142 0
M  V30 19661 H 1902.23 3.86409 -1.54899 0
M  V30 19662 H 1902.77 2.77363 -2.85158 0
M  V30 19663 H 1899.51 2.97183 -5.84262 0
M  V30 19664 H 1899.03 3.99784 -4.47139 0
M  V30 19665 H 1900.7 4.02559 -5.06513 0
M  V30 19666 N 1900.84 1.26553 0.939264 0
M  V30 19667 C 1902.08 1.11989 1.68235 0
M  V30 19668 C 1902.41 -0.336993 1.92066 0
M  V30 19669 O 1901.68 -1.23742 1.51871 0
M  V30 19670 H 1900.26 0.41144 0.623479 0
M  V30 19671 H 1902.92 1.58909 1.12845 0
M  V30 19672 H 1902.01 1.64011 2.65531 0
M  V30 19673 N 1902.31 -1.14411 1.08387 0
M  V30 19674 C 1903.26 -2.19489 0.713668 0
M  V30 19675 C 1904.23 -1.63368 -0.300036 0
M  V30 19676 O 1905.42 -1.8991 -0.184088 0
M  V30 19677 C 1902.56 -3.44859 0.128925 0
M  V30 19678 C 1901.67 -4.15132 1.19538 0
M  V30 19679 C 1900.8 -5.28084 0.574521 0
M  V30 19680 C 1899.84 -5.9019 1.62303 0
M  V30 19681 N 1898.98 -6.94593 1.02398 0
M  V30 19682 H 1903.82 -2.50505 1.61404 0
M  V30 19683 H 1901.36 -1.23014 0.806595 0
M  V30 19684 H 1903.32 -4.16578 -0.227814 0
M  V30 19685 H 1901.95 -3.14327 -0.734757 0
M  V30 19686 H 1901 -3.41804 1.66955 0
M  V30 19687 H 1902.31 -4.57387 1.98994 0
M  V30 19688 H 1901.46 -6.06473 0.166017 0
M  V30 19689 H 1900.2 -4.8705 -0.251701 0
M  V30 19690 H 1899.21 -5.10505 2.0412 0
M  V30 19691 H 1900.43 -6.33299 2.45172 0
M  V30 19692 H 1898.38 -6.55635 0.218849 0
M  V30 19693 H 1898.3 -7.35332 1.75564 0
M  V30 19694 H 1899.56 -7.76857 0.641327 0
M  V30 19695 N 1903.79 -0.869509 -1.31443 0
M  V30 19696 C 1905.03 -0.486705 -1.98521 0
M  V30 19697 C 1905.4 0.943287 -1.67231 0
M  V30 19698 O 1906.6 1.43142 -2.27517 0
M  V30 19699 C 1904.87 -0.736028 -3.49739 0
M  V30 19700 S 1906.43 -0.453014 -4.36455 0
M  V30 19701 H 1903.25 -0.181701 -0.687391 0
M  V30 19702 H 1905.85 -1.12544 -1.59857 0
M  V30 19703 H 1904.55 -1.77557 -3.70002 0
M  V30 19704 H 1904.08 -0.0842742 -3.9331 0
M  V30 19705 H 1906.1 0.714891 -4.91023 0
M  V30 19706 N 1905.27 1.44508 -0.628902 0
M  V30 19707 C 1906.52 2.02365 -0.132699 0
M  V30 19708 C 1906.85 1.4934 1.24142 0
M  V30 19709 O 1906.12 0.676567 1.82354 0
M  V30 19710 C 1906.41 3.5991 -0.11694 0
M  V30 19711 C 1906.26 4.23223 -1.52324 0
M  V30 19712 C 1907.58 4.36527 0.559696 0
M  V30 19713 H 1904.7 0.735323 -0.049695 0
M  V30 19714 H 1907.34 1.72106 -0.80495 0
M  V30 19715 H 1905.49 3.8582 0.455515 0
M  V30 19716 H 1907.16 4.08427 -2.14441 0
M  V30 19717 H 1905.41 3.80803 -2.07777 0
M  V30 19718 H 1906.08 5.32225 -1.46427 0
M  V30 19719 H 1908.55 4.16036 0.0728971 0
M  V30 19720 H 1907.43 5.46238 0.539902 0
M  V30 19721 H 1907.69 4.10968 1.62965 0
M  V30 19722 N 1906.75 0.369315 1.53212 0
M  V30 19723 C 1907.66 -0.483226 2.29569 0
M  V30 19724 C 1908.68 -1.08931 1.35684 0
M  V30 19725 O 1909.85 -1.09944 1.68743 0
M  V30 19726 C 1906.92 -1.60549 3.07286 0
M  V30 19727 C 1905.98 -1.02656 4.16846 0
M  V30 19728 C 1905.21 -2.09534 4.90847 0
M  V30 19729 O 1905.43 -3.30709 4.64745 0
M  V30 19730 O 1904.37 -1.72382 5.76687 0
M  V30 19731 H 1908.19 0.138246 3.03385 0
M  V30 19732 H 1905.78 0.133589 1.48802 0
M  V30 19733 H 1907.66 -2.25789 3.55805 0
M  V30 19734 H 1906.34 -2.21229 2.36303 0
M  V30 19735 H 1905.24 -0.337963 3.7257 0
M  V30 19736 H 1906.58 -0.464259 4.90006 0
M  V30 19737 N 1908.23 -1.57291 0.0985816 0
M  V30 19738 C 1909.14 -2.17742 -0.873245 0
M  V30 19739 C 1910.15 -1.14784 -1.3077 0
M  V30 19740 O 1911.33 -1.47169 -1.37489 0
M  V30 19741 C 1908.39 -2.74864 -2.11308 0
M  V30 19742 C 1907.46 -3.92789 -1.73249 0
M  V30 19743 C 1906.69 -4.47177 -2.91322 0
M  V30 19744 O 1906.91 -4.00497 -4.06151 0
M  V30 19745 O 1905.85 -5.38151 -2.69587 0
M  V30 19746 H 1909.67 -3.012 -0.388902 0
M  V30 19747 H 1907.26 -1.48868 -0.125955 0
M  V30 19748 H 1909.14 -3.11359 -2.8396 0
M  V30 19749 H 1907.81 -1.9445 -2.58787 0
M  V30 19750 H 1906.72 -3.61099 -0.977663 0
M  V30 19751 H 1908.05 -4.74577 -1.3053 0
M  V30 19752 N 1909.71 0.175127 -1.56624 0
M  V30 19753 C 1910.95 0.890653 -1.8097 0
M  V30 19754 C 1911.27 1.83577 -0.675199 0
M  V30 19755 O 1912.47 2.59338 -0.803492 0
M  V30 19756 C 1910.93 1.63427 -3.20655 0
M  V30 19757 C 1910.54 0.732982 -4.41963 0
M  V30 19758 C 1912.28 2.33825 -3.54297 0
M  V30 19759 C 1910.19 1.47661 -5.72669 0
M  V30 19760 H 1909.12 0.336324 -0.674835 0
M  V30 19761 H 1911.77 0.143627 -1.82937 0
M  V30 19762 H 1910.15 2.42591 -3.12994 0
M  V30 19763 H 1911.33 -0.0214223 -4.60795 0
M  V30 19764 H 1909.64 0.138848 -4.16168 0
M  V30 19765 H 1912.24 2.90048 -4.49195 0
M  V30 19766 H 1912.58 3.08979 -2.78994 0
M  V30 19767 H 1913.11 1.61608 -3.63494 0
M  V30 19768 H 1909.85 0.767472 -6.50992 0
M  V30 19769 H 1909.37 2.20444 -5.57821 0
M  V30 19770 H 1911.05 2.02512 -6.1449 0
M  V30 19771 N 1911.18 1.5123 0.44355 0
M  V30 19772 C 1912.11 1.75038 1.54544 0
M  V30 19773 C 1913.09 0.600017 1.59166 0
M  V30 19774 O 1914.28 0.842082 1.74993 0
M  V30 19775 C 1911.41 1.86976 2.92673 0
M  V30 19776 C 1910.36 3.0237 3.02913 0
M  V30 19777 C 1909.69 2.99483 4.4296 0
M  V30 19778 C 1910.99 4.4244 2.77569 0
M  V30 19779 H 1912.68 2.67301 1.34872 0
M  V30 19780 H 1910.23 1.28627 0.647395 0
M  V30 19781 H 1912.18 2.02215 3.69712 0
M  V30 19782 H 1910.91 0.913563 3.13563 0
M  V30 19783 H 1909.57 2.86826 2.28312 0
M  V30 19784 H 1909.21 2.01654 4.60809 0
M  V30 19785 H 1908.91 3.76968 4.50743 0
M  V30 19786 H 1910.44 3.16808 5.21982 0
M  V30 19787 H 1911.85 4.58367 3.44344 0
M  V30 19788 H 1910.25 5.21583 2.96768 0
M  V30 19789 H 1911.32 4.52906 1.73218 0
M  V30 19790 N 1912.66 -0.698586 1.41271 0
M  V30 19791 C 1913.91 -1.45573 1.40189 0
M  V30 19792 C 1914.23 -1.94997 0.0108379 0
M  V30 19793 O 1913.5 -1.715 -0.946822 0
M  V30 19794 H 1912.08 -0.540134 0.516008 0
M  V30 19795 H 1914.74 -0.827048 1.76482 0
M  V30 19796 H 1913.84 -2.32036 2.08724 0
M  V30 19797 N 1914.14 -1.27049 -0.93254 0
M  V30 19798 C 1915.37 -1.15735 -1.7114 0
M  V30 19799 C 1915.78 0.289069 -1.86979 0
M  V30 19800 O 1915.12 1.20906 -1.38302 0
M  V30 19801 C 1915.18 -1.76319 -3.13292 0
M  V30 19802 C 1914.85 -3.25471 -3.20808 0
M  V30 19803 C 1915.84 -4.22172 -3.03425 0
M  V30 19804 C 1913.53 -3.66092 -3.43921 0
M  V30 19805 C 1915.52 -5.57471 -3.09038 0
M  V30 19806 C 1913.21 -5.01522 -3.49168 0
M  V30 19807 C 1914.21 -5.97022 -3.31744 0
M  V30 19808 O 1913.9 -7.29985 -3.36716 0
M  V30 19809 H 1913.63 -0.403495 -0.542372 0
M  V30 19810 H 1916.18 -1.68334 -1.17698 0
M  V30 19811 H 1914.41 -1.18192 -3.68195 0
M  V30 19812 H 1916.1 -1.59788 -3.73125 0
M  V30 19813 H 1916.87 -3.92127 -2.85415 0
M  V30 19814 H 1912.75 -2.92238 -3.56536 0
M  V30 19815 H 1916.29 -6.3199 -2.95356 0
M  V30 19816 H 1912.19 -5.31225 -3.66702 0
M  V30 19817 H 1912.95 -7.3837 -3.53203 0
M  V30 19818 N 1915.62 1.13835 -1.08993 0
M  V30 19819 C 1916.55 2.21226 -0.74707 0
M  V30 19820 C 1917.53 1.67891 0.273232 0
M  V30 19821 O 1918.71 1.93678 0.142278 0
M  V30 19822 C 1915.84 3.46922 -0.162028 0
M  V30 19823 C 1914.8 4.1332 -1.11135 0
M  V30 19824 C 1914.12 5.33289 -0.388228 0
M  V30 19825 C 1915.42 4.61169 -2.45195 0
M  V30 19826 H 1917.12 2.50162 -1.64497 0
M  V30 19827 H 1914.66 1.20239 -0.792368 0
M  V30 19828 H 1916.62 4.21304 0.0898753 0
M  V30 19829 H 1915.34 3.17368 0.771036 0
M  V30 19830 H 1914 3.40899 -1.34845 0
M  V30 19831 H 1913.65 4.99997 0.548832 0
M  V30 19832 H 1913.35 5.78659 -1.02115 0
M  V30 19833 H 1914.87 6.10429 -0.144519 0
M  V30 19834 H 1916.29 5.26996 -2.25717 0
M  V30 19835 H 1914.68 5.17263 -3.04235 0
M  V30 19836 H 1915.75 3.75923 -3.06284 0
M  V30 19837 N 1917.1 0.876467 1.3098 0
M  V30 19838 C 1918.04 0.335149 2.28354 0
M  V30 19839 C 1919.01 -0.569979 1.56014 0
M  V30 19840 O 1920.2 -0.500226 1.84126 0
M  V30 19841 C 1917.34 -0.451723 3.42131 0
M  V30 19842 C 1916.45 0.481657 4.29306 0
M  V30 19843 C 1915.59 -0.319977 5.30235 0
M  V30 19844 C 1914.62 0.609417 6.09059 0
M  V30 19845 N 1913.76 -0.156366 7.01926 0
M  V30 19846 H 1918.6 1.17069 2.74042 0
M  V30 19847 H 1916.14 0.588683 1.34807 0
M  V30 19848 H 1918.1 -0.923775 4.06844 0
M  V30 19849 H 1916.73 -1.25191 2.97535 0
M  V30 19850 H 1915.78 1.07218 3.64977 0
M  V30 19851 H 1917.09 1.19403 4.84298 0
M  V30 19852 H 1916.24 -0.854256 6.00656 0
M  V30 19853 H 1914.98 -1.06561 4.75916 0
M  V30 19854 H 1913.99 1.1554 5.37523 0
M  V30 19855 H 1915.21 1.354 6.65465 0
M  V30 19856 H 1913.16 -0.884688 6.50007 0
M  V30 19857 H 1913.08 0.496538 7.54368 0
M  V30 19858 H 1914.34 -0.671665 7.76601 0
M  V30 19859 N 1918.57 -1.44173 0.636557 0
M  V30 19860 C 1919.8 -2.06866 0.148751 0
M  V30 19861 C 1920.22 -1.47295 -1.16987 0
M  V30 19862 O 1919.58 -0.576466 -1.71891 0
M  V30 19863 C 1919.63 -3.60561 0.0533064 0
M  V30 19864 O 1918.73 -4.00361 -0.989163 0
M  V30 19865 H 1918.07 -0.658243 0.087251 0
M  V30 19866 H 1920.6 -1.84956 0.874772 0
M  V30 19867 H 1920.61 -4.07775 -0.135499 0
M  V30 19868 H 1919.29 -4.033 1.01599 0
M  V30 19869 H 1917.87 -3.64769 -0.77449 0
M  V30 19870 N 1920.05 -0.377435 -1.53014 0
M  V30 19871 C 1921.29 0.208453 -2.03334 0
M  V30 19872 C 1921.66 1.45024 -1.25826 0
M  V30 19873 O 1922.86 2.11252 -1.66211 0
M  V30 19874 C 1921.13 0.481594 -3.5414 0
M  V30 19875 S 1922.69 1.03946 -4.26311 0
M  V30 19876 H 1919.5 0.0597675 -0.708483 0
M  V30 19877 H 1922.11 -0.523042 -1.88373 0
M  V30 19878 H 1920.81 -0.429474 -4.08147 0
M  V30 19879 H 1920.34 1.24184 -3.73285 0
M  V30 19880 H 1922.36 2.3228 -4.38475 0
M  V30 19881 N 1921.53 1.57237 -0.106922 0
M  V30 19882 C 1922.78 1.94775 0.553982 0
M  V30 19883 C 1923.11 0.989452 1.67452 0
M  V30 19884 O 1922.36 0.0111396 1.95697 0
M  V30 19885 C 1922.66 3.38792 1.13817 0
M  V30 19886 C 1922.33 4.50682 0.140226 0
M  V30 19887 C 1920.99 4.81013 -0.134218 0
M  V30 19888 C 1923.34 5.1839 -0.540532 0
M  V30 19889 C 1920.67 5.76374 -1.09591 0
M  V30 19890 C 1923.02 6.14783 -1.49077 0
M  V30 19891 C 1921.68 6.43513 -1.77333 0
M  V30 19892 H 1920.95 0.712732 0.202716 0
M  V30 19893 H 1923.6 1.90602 -0.185265 0
M  V30 19894 H 1921.91 3.39601 1.95393 0
M  V30 19895 H 1923.6 3.65144 1.65744 0
M  V30 19896 H 1920.19 4.27049 0.364316 0
M  V30 19897 H 1924.38 4.95123 -0.34166 0
M  V30 19898 H 1919.63 5.96943 -1.3217 0
M  V30 19899 H 1923.81 6.66338 -2.02402 0
M  V30 19900 H 1921.43 7.17214 -2.52008 0
M  V30 19901 N 1923.01 -0.166818 1.56715 0
M  V30 19902 C 1924.23 -0.902208 1.86748 0
M  V30 19903 C 1924.66 -1.74838 0.693767 0
M  V30 19904 O 1924.02 -1.77749 -0.35708 0
M  V30 19905 C 1924.06 -1.75107 3.1523 0
M  V30 19906 O 1923.17 -2.85319 2.9777 0
M  V30 19907 H 1922.51 -0.252474 0.614128 0
M  V30 19908 H 1925.04 -0.163603 2.03945 0
M  V30 19909 H 1925.05 -2.15009 3.46749 0
M  V30 19910 H 1923.72 -1.12955 4.00267 0
M  V30 19911 H 1922.3 -2.48967 2.77615 0
M  V30 19912 N 1924.49 -1.51463 -0.435524 0
M  V30 19913 C 1925.9 -1.39679 -0.772145 0
M  V30 19914 C 1926.1 -0.480546 -1.95686 0
M  V30 19915 O 1925.16 0.063611 -2.5242 0
M  V30 19916 C 1926.47 -2.81742 -1.05082 0
M  V30 19917 C 1928.02 -2.90905 -1.15514 0
M  V30 19918 C 1928.49 -4.33879 -1.46674 0
M  V30 19919 N 1929.99 -4.36993 -1.53594 0
M  V30 19920 C 1930.72 -5.44653 -1.79279 0
M  V30 19921 N 1930.22 -6.6247 -2.02744 0
M  V30 19922 N 1932.01 -5.32135 -1.81076 0
M  V30 19923 H 1924.16 -2.09584 0.344699 0
M  V30 19924 H 1926.42 -0.943543 0.0918199 0
M  V30 19925 H 1926.13 -3.50789 -0.252975 0
M  V30 19926 H 1926 -3.21179 -1.97798 0
M  V30 19927 H 1928.39 -2.22054 -1.94361 0
M  V30 19928 H 1928.47 -2.54961 -0.20695 0
M  V30 19929 H 1928.12 -5.03279 -0.683541 0
M  V30 19930 H 1928.05 -4.67337 -2.42702 0
M  V30 19931 H 1930.54 -3.52054 -1.37356 0
M  V30 19932 H 1930.85 -7.40311 -2.21718 0
M  V30 19933 H 1929.19 -6.65582 -2.00063 0
M  V30 19934 H 1932.39 -4.39076 -1.62264 0
M  V30 19935 H 1932.56 -6.16118 -2.00756 0
M  V30 19936 N 1925.96 0.691085 -1.4164 0
M  V30 19937 C 1926.87 1.83467 -1.46209 0
M  V30 19938 C 1927.89 1.70397 -0.352267 0
M  V30 19939 O 1929.07 1.92234 -0.60068 0
M  V30 19940 C 1926.13 3.19485 -1.34648 0
M  V30 19941 C 1925.19 3.44631 -2.55984 0
M  V30 19942 C 1924.43 4.7416 -2.44964 0
M  V30 19943 O 1924.65 5.50955 -1.47664 0
M  V30 19944 O 1923.58 5.0019 -3.34804 0
M  V30 19945 H 1927.41 1.82568 -2.42698 0
M  V30 19946 H 1924.99 0.844729 -1.23226 0
M  V30 19947 H 1926.88 4.00684 -1.30501 0
M  V30 19948 H 1925.55 3.21058 -0.41276 0
M  V30 19949 H 1924.46 2.63345 -2.65707 0
M  V30 19950 H 1925.79 3.47877 -3.48199 0
M  V30 19951 N 1927.44 1.27542 0.925789 0
M  V30 19952 C 1928.85 1.12679 1.48864 0
M  V30 19953 C 1929.2 -0.287536 1.94082 0
M  V30 19954 O 1928.33 -1.18064 1.81356 0
M  V30 19955 C 1928.92 2.03934 2.70548 0
M  V30 19956 C 1927.48 1.93171 3.23051 0
M  V30 19957 C 1926.63 1.96378 1.95783 0
M  V30 19958 H 1929.58 1.40407 0.739703 0
M  V30 19959 H 1929.6 1.59628 3.45397 0
M  V30 19960 H 1929.11 3.06863 2.37607 0
M  V30 19961 H 1927.22 0.932356 3.60746 0
M  V30 19962 H 1927.33 2.7951 3.89115 0
M  V30 19963 H 1925.69 1.40628 2.12358 0
M  V30 19964 H 1926.48 3.00964 1.65153 0
M  V30 19965 N 1928.92 -1.13255 1.09595 0
M  V30 19966 C 1929.85 -2.17806 0.680857 0
M  V30 19967 C 1930.83 -1.59549 -0.313511 0
M  V30 19968 O 1932.02 -1.87276 -0.214474 0
M  V30 19969 C 1929.14 -3.387 0.00329844 0
M  V30 19970 C 1928.19 -4.15561 0.959753 0
M  V30 19971 S 1929.02 -4.74992 2.4727 0
M  V30 19972 C 1930.18 -5.9923 1.8076 0
M  V30 19973 H 1930.41 -2.52679 1.56654 0
M  V30 19974 H 1927.94 -1.2458 0.9121 0
M  V30 19975 H 1929.9 -4.08725 -0.381322 0
M  V30 19976 H 1928.56 -3.02124 -0.859052 0
M  V30 19977 H 1927.76 -5.02138 0.432775 0
M  V30 19978 H 1927.36 -3.512 1.28586 0
M  V30 19979 H 1929.65 -6.67965 1.13268 0
M  V30 19980 H 1930.59 -6.56539 2.6526 0
M  V30 19981 H 1931 -5.49894 1.27579 0
M  V30 19982 N 1930.4 -0.883401 -1.30514 0
M  V30 19983 C 1931.33 -0.293631 -2.26303 0
M  V30 19984 C 1932.31 0.584908 -1.51715 0
M  V30 19985 O 1933.49 0.535352 -1.80738 0
M  V30 19986 C 1930.62 0.582932 -3.33646 0
M  V30 19987 C 1929.67 -0.226068 -4.259 0
M  V30 19988 S 1930.5 -1.61333 -5.10619 0
M  V30 19989 C 1931.66 -0.743252 -6.21471 0
M  V30 19990 H 1931.89 -1.10559 -2.75978 0
M  V30 19991 H 1929.42 -0.682729 -1.38485 0
M  V30 19992 H 1931.38 1.08294 -3.95958 0
M  V30 19993 H 1930.04 1.36897 -2.82698 0
M  V30 19994 H 1929.23 0.442796 -5.02051 0
M  V30 19995 H 1928.84 -0.65864 -3.68155 0
M  V30 19996 H 1931.13 0.0404453 -6.77488 0
M  V30 19997 H 1932.07 -1.47631 -6.92539 0
M  V30 19998 H 1932.48 -0.304852 -5.63676 0
M  V30 19999 N 1931.88 1.43833 -0.644194 0
M  V30 20000 C 1932.84 2.29159 0.0433471 0
M  V30 20001 C 1933.84 1.41734 0.75948 0
M  V30 20002 O 1935.03 1.63464 0.602093 0
M  V30 20003 C 1932.16 3.23604 1.07208 0
M  V30 20004 H 1933.35 2.9144 -0.707295 0
M  V30 20005 H 1930.91 1.50963 -0.404968 0
M  V30 20006 H 1931.64 2.66199 1.85226 0
M  V30 20007 H 1931.43 3.88047 0.562339 0
M  V30 20008 H 1932.92 3.87669 1.55251 0
M  V30 20009 N 1933.35 0.385544 1.52811 0
M  V30 20010 C 1934.58 -0.198025 2.0595 0
M  V30 20011 C 1935 -1.40822 1.25756 0
M  V30 20012 O 1934.35 -1.79963 0.303251 0
M  V30 20013 C 1934.41 -0.571856 3.56948 0
M  V30 20014 O 1934.13 0.59026 4.34105 0
M  V30 20015 C 1935.63 -1.21169 4.26419 0
M  V30 20016 H 1932.85 -0.0307594 0.670295 0
M  V30 20017 H 1935.39 0.549688 1.96974 0
M  V30 20018 H 1933.55 -1.26947 3.6601 0
M  V30 20019 H 1933.96 0.28384 5.23731 0
M  V30 20020 H 1935.43 -1.42366 5.33325 0
M  V30 20021 H 1935.91 -2.17794 3.81395 0
M  V30 20022 H 1936.52 -0.554949 4.21664 0
M  V30 20023 N 1934.83 -1.57178 0.115259 0
M  V30 20024 C 1936.08 -1.95355 -0.54445 0
M  V30 20025 C 1936.41 -0.998445 -1.66567 0
M  V30 20026 O 1935.69 -0.0349993 -1.94469 0
M  V30 20027 C 1935.97 -3.43502 -1.08067 0
M  V30 20028 C 1935.82 -4.49785 0.0368794 0
M  V30 20029 C 1937.14 -3.9341 -1.97273 0
M  V30 20030 H 1934.26 -0.710338 -0.19644 0
M  V30 20031 H 1936.9 -1.89047 0.19006 0
M  V30 20032 H 1935.05 -3.49008 -1.70662 0
M  V30 20033 H 1936.72 -4.56379 0.672017 0
M  V30 20034 H 1934.97 -4.28106 0.700539 0
M  V30 20035 H 1935.64 -5.50694 -0.379481 0
M  V30 20036 H 1938.11 -3.90184 -1.44555 0
M  V30 20037 H 1936.99 -4.97596 -2.31711 0
M  V30 20038 H 1937.25 -3.33884 -2.89782 0
M  V30 20039 N 1936.31 0.158505 -1.56801 0
M  V30 20040 C 1937.55 0.879385 -1.84516 0
M  V30 20041 C 1937.92 1.78864 -0.697973 0
M  V30 20042 O 1939.12 2.5481 -0.855886 0
M  V30 20043 C 1937.39 1.64324 -3.17383 0
M  V30 20044 S 1938.95 2.41113 -3.6662 0
M  V30 20045 H 1935.76 0.29429 -0.647236 0
M  V30 20046 H 1938.37 0.14014 -1.94997 0
M  V30 20047 H 1937.07 0.966538 -3.98856 0
M  V30 20048 H 1936.6 2.42362 -3.09878 0
M  V30 20049 H 1938.62 3.66076 -3.34967 0
M  V30 20050 N 1937.79 1.51692 0.427485 0
M  V30 20051 C 1939.04 1.65091 1.17782 0
M  V30 20052 C 1939.37 0.370783 1.90627 0
M  V30 20053 O 1938.64 -0.630065 1.84012 0
M  V30 20054 C 1938.93 2.86083 2.18697 0
M  V30 20055 C 1938.78 4.24098 1.4987 0
M  V30 20056 C 1940.1 3.0259 3.19573 0
M  V30 20057 H 1937.22 0.600817 0.426835 0
M  V30 20058 H 1939.86 1.84202 0.46581 0
M  V30 20059 H 1938.01 2.6992 2.79419 0
M  V30 20060 H 1939.68 4.51949 0.924093 0
M  V30 20061 H 1937.92 4.26343 0.800894 0
M  V30 20062 H 1938.6 5.04768 2.23413 0
M  V30 20063 H 1941.07 3.17529 2.68914 0
M  V30 20064 H 1939.95 3.88794 3.87467 0
M  V30 20065 H 1940.21 2.15093 3.86248 0
M  V30 20066 N 1939.27 -0.683564 1.42004 0
M  V30 20067 C 1940.2 -1.80902 1.40737 0
M  V30 20068 C 1941.21 -1.59865 0.307725 0
M  V30 20069 O 1942.4 -1.69146 0.570244 0
M  V30 20070 C 1939.5 -3.17867 1.17533 0
M  V30 20071 C 1938.67 -3.65829 2.39766 0
M  V30 20072 C 1937.73 -4.81499 2.12238 0
M  V30 20073 O 1936.76 -4.92495 2.85371 0
M  V30 20074 N 1937.96 -5.69592 1.12006 0
M  V30 20075 H 1940.73 -1.82478 2.37744 0
M  V30 20076 H 1938.29 -0.866335 1.36771 0
M  V30 20077 H 1940.28 -3.92891 0.970489 0
M  V30 20078 H 1938.85 -3.11244 0.290811 0
M  V30 20079 H 1938.07 -2.81579 2.75874 0
M  V30 20080 H 1939.36 -3.94615 3.2118 0
M  V30 20081 H 1938.76 -5.63351 0.515003 0
M  V30 20082 H 1937.31 -6.44465 0.975098 0
M  V30 20083 N 1940.75 -1.28031 -0.919012 0
M  V30 20084 C 1941.68 -1.07305 -2.0253 0
M  V30 20085 C 1942.69 -0.0264063 -1.62779 0
M  V30 20086 O 1943.88 -0.268902 -1.76463 0
M  V30 20087 C 1940.98 -0.607467 -3.33411 0
M  V30 20088 C 1940.15 -1.72834 -4.01805 0
M  V30 20089 C 1939.21 -1.25703 -5.10965 0
M  V30 20090 O 1938.24 -1.9583 -5.34452 0
M  V30 20091 N 1939.44 -0.117374 -5.80381 0
M  V30 20092 H 1942.2 -2.02575 -2.2087 0
M  V30 20093 H 1939.77 -1.19713 -1.08997 0
M  V30 20094 H 1941.76 -0.275875 -4.03759 0
M  V30 20095 H 1940.33 0.252241 -3.11581 0
M  V30 20096 H 1939.55 -2.22979 -3.25075 0
M  V30 20097 H 1940.84 -2.48038 -4.44246 0
M  V30 20098 H 1940.23 0.467747 -5.63763 0
M  V30 20099 H 1938.79 0.154978 -6.51616 0
M  V30 20100 N 1942.22 1.12672 -1.10194 0
M  V30 20101 C 1943.15 2.20422 -0.770492 0
M  V30 20102 C 1944.13 1.68172 0.25541 0
M  V30 20103 O 1945.32 1.93818 0.121728 0
M  V30 20104 C 1942.45 3.4673 -0.198815 0
M  V30 20105 C 1941.4 4.12118 -1.15512 0
M  V30 20106 C 1940.73 5.32847 -0.444768 0
M  V30 20107 C 1942.03 4.58542 -2.50073 0
M  V30 20108 H 1943.72 2.48404 -1.67141 0
M  V30 20109 H 1941.27 1.19392 -0.805077 0
M  V30 20110 H 1943.22 4.21376 0.0451853 0
M  V30 20111 H 1941.95 3.18168 0.737331 0
M  V30 20112 H 1940.61 3.3945 -1.38453 0
M  V30 20113 H 1940.25 5.00551 0.49577 0
M  V30 20114 H 1939.95 5.77543 -1.08247 0
M  V30 20115 H 1941.48 6.10241 -0.209255 0
M  V30 20116 H 1942.89 5.24572 -2.31294 0
M  V30 20117 H 1941.29 5.14007 -3.09704 0
M  V30 20118 H 1942.36 3.72654 -3.10254 0
M  V30 20119 N 1943.7 0.89031 1.30043 0
M  V30 20120 C 1944.63 0.377386 2.3043 0
M  V30 20121 C 1945.61 -0.542607 1.61213 0
M  V30 20122 O 1946.8 -0.455328 1.88787 0
M  V30 20123 C 1943.93 -0.404264 3.44939 0
M  V30 20124 C 1942.88 0.424448 4.2589 0
M  V30 20125 C 1942.21 -0.48413 5.32504 0
M  V30 20126 C 1943.51 1.6694 4.94902 0
M  V30 20127 H 1945.2 1.21628 2.73582 0
M  V30 20128 H 1942.75 0.586299 1.31524 0
M  V30 20129 H 1944.7 -0.773769 4.14235 0
M  V30 20130 H 1943.42 -1.27685 3.00606 0
M  V30 20131 H 1942.08 0.776162 3.58289 0
M  V30 20132 H 1941.73 -1.35458 4.84417 0
M  V30 20133 H 1941.43 0.0665939 5.87562 0
M  V30 20134 H 1942.96 -0.850034 6.04654 0
M  V30 20135 H 1944.37 1.37017 5.56686 0
M  V30 20136 H 1942.77 2.16073 5.59851 0
M  V30 20137 H 1943.84 2.41077 4.20725 0
M  V30 20138 N 1945.18 -1.43489 0.651812 0
M  V30 20139 C 1946.13 -2.30764 -0.0406423 0
M  V30 20140 C 1947.1 -1.44669 -0.816091 0
M  V30 20141 O 1948.28 -1.73541 -0.792978 0
M  V30 20142 C 1945.42 -3.30232 -1.00206 0
M  V30 20143 C 1944.53 -4.31425 -0.222857 0
M  V30 20144 C 1943.67 -5.17975 -1.17794 0
M  V30 20145 C 1942.71 -6.10862 -0.389096 0
M  V30 20146 N 1941.85 -6.90041 -1.2957 0
M  V30 20147 H 1946.69 -2.89431 0.709482 0
M  V30 20148 H 1944.22 -1.42585 0.361636 0
M  V30 20149 H 1946.18 -3.86408 -1.57306 0
M  V30 20150 H 1944.81 -2.73217 -1.71907 0
M  V30 20151 H 1943.86 -3.77554 0.464409 0
M  V30 20152 H 1945.17 -4.97268 0.390608 0
M  V30 20153 H 1944.33 -5.7877 -1.81962 0
M  V30 20154 H 1943.07 -4.52254 -1.82532 0
M  V30 20155 H 1942.07 -5.49156 0.265943 0
M  V30 20156 H 1943.3 -6.78625 0.253855 0
M  V30 20157 H 1941.24 -6.2697 -1.9299 0
M  V30 20158 H 1941.16 -7.52401 -0.736762 0
M  V30 20159 H 1942.43 -7.55342 -1.92557 0
M  V30 20160 N 1946.66 -0.393643 -1.52605 0
M  V30 20161 C 1947.89 0.1871 -2.06052 0
M  V30 20162 C 1948.3 1.40154 -1.26501 0
M  V30 20163 O 1947.66 1.798 -0.31279 0
M  V30 20164 C 1947.71 0.552918 -3.57246 0
M  V30 20165 O 1947.43 -0.613274 -4.33786 0
M  V30 20166 C 1948.93 1.18906 -4.27055 0
M  V30 20167 H 1946.15 0.0272042 -0.670448 0
M  V30 20168 H 1948.69 -0.560126 -1.9668 0
M  V30 20169 H 1946.85 1.25004 -3.66678 0
M  V30 20170 H 1947.26 -0.311611 -5.23574 0
M  V30 20171 H 1948.74 1.39535 -5.34073 0
M  V30 20172 H 1949.21 2.15768 -3.82545 0
M  V30 20173 H 1949.82 0.532579 -4.21952 0
M  V30 20174 N 1948.14 1.57115 -0.123593 0
M  V30 20175 C 1949.07 2.18573 0.821462 0
M  V30 20176 C 1950.05 1.1271 1.27399 0
M  V30 20177 O 1951.23 1.40964 1.33577 0
M  V30 20178 C 1948.36 2.78879 2.06987 0
M  V30 20179 C 1947.32 3.90365 1.75497 0
M  V30 20180 C 1946.64 4.37499 3.07406 0
M  V30 20181 C 1947.94 5.12249 1.01972 0
M  V30 20182 H 1949.64 2.97798 0.309319 0
M  V30 20183 H 1947.18 1.43244 0.147338 0
M  V30 20184 H 1949.13 3.20534 2.73562 0
M  V30 20185 H 1947.86 1.96951 2.60534 0
M  V30 20186 H 1946.52 3.49293 1.1131 0
M  V30 20187 H 1946.17 3.52424 3.58896 0
M  V30 20188 H 1945.87 5.12682 2.87108 0
M  V30 20189 H 1947.39 4.81808 3.75091 0
M  V30 20190 H 1948.8 5.50894 1.58709 0
M  V30 20191 H 1947.2 5.93044 0.917526 0
M  V30 20192 H 1948.27 4.84899 0.00726173 0
M  V30 20193 N 1949.61 -0.150187 1.56883 0
M  V30 20194 C 1950.86 -0.863336 1.83174 0
M  V30 20195 C 1951.19 -1.81313 0.703986 0
M  V30 20196 O 1950.44 -1.93273 -0.307235 0
M  V30 20197 C 1950.74 -1.67394 3.15775 0
M  V30 20198 C 1950.41 -0.871221 4.42403 0
M  V30 20199 C 1949.07 -0.649752 4.76793 0
M  V30 20200 C 1951.42 -0.309625 5.2028 0
M  V30 20201 C 1948.75 0.144072 5.86523 0
M  V30 20202 C 1951.1 0.471222 6.30843 0
M  V30 20203 C 1949.77 0.703297 6.63785 0
M  V30 20204 H 1949.04 -0.315917 0.670282 0
M  V30 20205 H 1951.68 -0.127141 1.91077 0
M  V30 20206 H 1949.99 -2.48015 3.03308 0
M  V30 20207 H 1951.69 -2.22915 3.33332 0
M  V30 20208 H 1948.28 -1.0539 4.15441 0
M  V30 20209 H 1952.46 -0.468015 4.94088 0
M  V30 20210 H 1947.72 0.333407 6.1049 0
M  V30 20211 H 1951.89 0.913535 6.90382 0
M  V30 20212 H 1949.52 1.32027 7.48647 0
M  V30 20213 N 1951.09 -1.51916 -0.419434 0
M  V30 20214 C 1952.34 -1.65142 -1.16502 0
M  V30 20215 C 1952.66 -0.378632 -1.91289 0
M  V30 20216 O 1951.93 0.606164 -1.86286 0
M  V30 20217 H 1950.51 -0.608667 -0.433051 0
M  V30 20218 H 1953.17 -1.88919 -0.47914 0
M  V30 20219 H 1952.27 -2.48762 -1.88477 0
M  V30 20220 N 1952.57 0.676023 -1.42365 0
M  V30 20221 C 1953.8 1.46436 -1.46164 0
M  V30 20222 C 1954.21 1.8866 -0.0726092 0
M  V30 20223 O 1953.57 1.58056 0.912395 0
M  V30 20224 C 1953.62 2.71428 -2.38766 0
M  V30 20225 O 1953.34 2.30976 -3.72266 0
M  V30 20226 C 1954.84 3.65001 -2.51573 0
M  V30 20227 H 1952.06 0.450625 -0.49717 0
M  V30 20228 H 1954.61 0.830748 -1.86866 0
M  V30 20229 H 1952.76 3.30981 -2.01321 0
M  V30 20230 H 1953.18 3.11682 -4.21846 0
M  V30 20231 H 1954.65 4.49432 -3.20492 0
M  V30 20232 H 1955.13 4.10818 -1.55322 0
M  V30 20233 H 1955.73 3.11342 -2.89735 0
M  V30 20234 N 1954.05 1.28517 0.912209 0
M  V30 20235 C 1955 1.12437 2.03619 0
M  V30 20236 C 1955.99 0.0432331 1.69345 0
M  V30 20237 O 1957.2 0.202116 1.78862 0
M  V30 20238 H 1953.57 0.34694 0.667185 0
M  V30 20239 H 1955.54 2.07625 2.14323 0
M  V30 20240 C 1954.29 0.804603 3.38262 0
M  V30 20241 H 1953.61 1.62849 3.65131 0
M  V30 20242 H 1955.05 0.732055 4.17633 0
M  V30 20243 C 1953.51 -0.491715 3.33292 0
M  V30 20244 O 1954.04 -1.52155 3.71768 0
M  V30 20245 N 1952.25 -0.493007 2.86388 0
M  V30 20246 H 1951.8 0.34549 2.55273 0
M  V30 20247 H 1951.75 -1.36038 2.83445 0
M  V30 20248 N 1955.53 -1.12086 1.1079 0
M  V30 20249 C 1956.46 -2.2001 0.78217 0
M  V30 20250 C 1957.44 -1.68305 -0.246488 0
M  V30 20251 O 1958.62 -1.9388 -0.111448 0
M  V30 20252 C 1955.75 -3.4662 0.2172 0
M  V30 20253 C 1954.71 -4.11499 1.17696 0
M  V30 20254 C 1954.03 -5.32604 0.47302 0
M  V30 20255 C 1955.33 -4.5721 2.52501 0
M  V30 20256 H 1957.03 -2.47514 1.68456 0
M  V30 20257 H 1954.57 -1.18964 0.811397 0
M  V30 20258 H 1956.53 -4.21394 -0.0228381 0
M  V30 20259 H 1955.25 -3.18555 -0.720448 0
M  V30 20260 H 1953.91 -3.38711 1.40252 0
M  V30 20261 H 1953.56 -5.00807 -0.469217 0
M  V30 20262 H 1953.26 -5.76961 1.11308 0
M  V30 20263 H 1954.78 -6.10122 0.241615 0
M  V30 20264 H 1956.19 -5.23338 2.34073 0
M  V30 20265 H 1954.59 -5.12357 3.12426 0
M  V30 20266 H 1955.66 -3.71003 3.12226 0
M  V30 20267 N 1957 -0.897194 -1.29569 0
M  V30 20268 C 1957.97 -0.377906 -2.26063 0
M  V30 20269 C 1958.97 0.486495 -1.53264 0
M  V30 20270 O 1960.16 0.291905 -1.71737 0
M  V30 20271 C 1957.29 0.460046 -3.37782 0
M  V30 20272 H 1958.48 -1.23009 -2.73512 0
M  V30 20273 H 1956.04 -0.675114 -1.40968 0
M  V30 20274 H 1956.77 1.33232 -2.95668 0
M  V30 20275 H 1956.56 -0.159293 -3.91776 0
M  V30 20276 H 1958.05 0.814753 -4.09575 0
M  V30 20277 N 1958.48 1.43142 -0.659413 0
M  V30 20278 C 1959.71 2.06603 -0.181642 0
M  V30 20279 C 1960.13 1.49137 1.14629 0
M  V30 20280 O 1959.49 0.603739 1.70952 0
M  V30 20281 C 1959.54 3.6043 -0.110662 0
M  V30 20282 O 1958.64 4.01884 0.925344 0
M  V30 20283 H 1957.98 0.656771 -0.097712 0
M  V30 20284 H 1960.51 1.83541 -0.904086 0
M  V30 20285 H 1960.52 4.07939 0.0706089 0
M  V30 20286 H 1959.2 4.01632 -1.08002 0
M  V30 20287 H 1957.78 3.65954 0.716361 0
M  V30 20288 N 1959.96 0.40173 1.52394 0
M  V30 20289 C 1960.89 -0.46265 2.24482 0
M  V30 20290 C 1961.91 -1.01638 1.27175 0
M  V30 20291 O 1963.09 -0.916585 1.5317 0
M  V30 20292 C 1960.19 -1.65517 2.95732 0
M  V30 20293 C 1959.37 -1.22664 4.19848 0
M  V30 20294 C 1958.43 -2.28524 4.73987 0
M  V30 20295 O 1957.45 -1.89419 5.36758 0
M  V30 20296 N 1958.65 -3.60596 4.54918 0
M  V30 20297 H 1961.42 0.155024 2.99299 0
M  V30 20298 H 1958.98 0.228724 1.60276 0
M  V30 20299 H 1960.97 -2.35886 3.28847 0
M  V30 20300 H 1959.54 -2.17892 2.24147 0
M  V30 20301 H 1958.76 -0.351359 3.92631 0
M  V30 20302 H 1960.05 -0.917162 5.00465 0
M  V30 20303 H 1959.45 -3.95122 4.0484 0
M  V30 20304 H 1958.01 -4.26962 4.9249 0
M  V30 20305 N 1961.44 -1.57047 0.131923 0
M  V30 20306 C 1962.69 -1.95632 -0.522925 0
M  V30 20307 C 1963.01 -1.01597 -1.65856 0
M  V30 20308 O 1962.27 -0.0422719 -1.95654 0
M  V30 20309 C 1962.57 -3.4056 -1.08413 0
M  V30 20310 C 1962.23 -4.50848 -0.0685085 0
M  V30 20311 C 1960.9 -4.80738 0.210726 0
M  V30 20312 C 1963.25 -5.17464 0.622935 0
M  V30 20313 C 1960.58 -5.74557 1.18747 0
M  V30 20314 C 1962.93 -6.12334 1.58839 0
M  V30 20315 C 1961.59 -6.40611 1.87548 0
M  V30 20316 H 1960.86 -0.715867 -0.191352 0
M  V30 20317 H 1963.51 -1.90283 0.215565 0
M  V30 20318 H 1961.81 -3.42667 -1.89965 0
M  V30 20319 H 1963.51 -3.67734 -1.59914 0
M  V30 20320 H 1960.1 -4.27574 -0.29633 0
M  V30 20321 H 1964.28 -4.94516 0.420386 0
M  V30 20322 H 1959.54 -5.94765 1.4165 0
M  V30 20323 H 1963.71 -6.63034 2.12977 0
M  V30 20324 H 1961.34 -7.13114 2.63387 0
M  V30 20325 N 1962.92 0.141865 -1.5696 0
M  V30 20326 C 1964.19 0.882597 -1.74555 0
M  V30 20327 C 1964.57 1.9911 -0.701321 0
M  V30 20328 O 1963.92 2.26792 0.278854 0
M  V30 20329 C 1964.13 1.42034 -3.18791 0
M  V30 20330 C 1965.48 1.88172 -3.80626 0
M  V30 20331 O 1966.5 1.51764 -3.22252 0
M  V30 20332 O 1965.36 2.55333 -4.83185 0
M  V30 20333 H 1962.46 0.417461 -0.713902 0
M  V30 20334 H 1965 0.127389 -1.69221 0
M  V30 20335 H 1963.77 0.623945 -3.86293 0
M  V30 20336 H 1963.4 2.2389 -3.28571 0
M  V30 20337 N 1964.39 1.52136 0.411372 0
M  V30 20338 C 1965.64 1.65757 1.15624 0
M  V30 20339 C 1965.96 0.388771 1.91085 0
M  V30 20340 O 1965.23 -0.596276 1.86605 0
M  V30 20341 H 1963.81 0.610955 0.429817 0
M  V30 20342 H 1966.48 1.8917 0.469114 0
M  V30 20343 H 1965.57 2.49759 1.87155 0
M  V30 20344 N 1965.87 -0.668464 1.42721 0
M  V30 20345 C 1966.8 -1.79375 1.49489 0
M  V30 20346 C 1967.78 -1.66442 0.350881 0
M  V30 20347 O 1968.97 -1.85767 0.566049 0
M  V30 20348 C 1966.1 -3.17712 1.40273 0
M  V30 20349 C 1965.05 -3.45389 2.52766 0
M  V30 20350 C 1964.38 -4.83367 2.28606 0
M  V30 20351 C 1965.68 -3.4165 3.95061 0
M  V30 20352 H 1967.37 -1.73968 2.43671 0
M  V30 20353 H 1964.92 -0.835548 1.1728 0
M  V30 20354 H 1966.87 -3.96173 1.43614 0
M  V30 20355 H 1965.6 -3.23811 0.425882 0
M  V30 20356 H 1964.26 -2.69292 2.48752 0
M  V30 20357 H 1963.9 -4.86124 1.292 0
M  V30 20358 H 1963.6 -5.02847 3.04005 0
M  V30 20359 H 1965.13 -5.64104 2.33707 0
M  V30 20360 H 1966.54 -4.1007 4.00644 0
M  V30 20361 H 1964.94 -3.72666 4.70362 0
M  V30 20362 H 1966.01 -2.40106 4.2128 0
M  V30 20363 N 1967.35 -1.28999 -0.905381 0
M  V30 20364 C 1968.58 -1.19632 -1.69419 0
M  V30 20365 C 1969 0.240433 -1.86557 0
M  V30 20366 O 1968.36 1.17374 -1.38177 0
M  V30 20367 C 1968.41 -1.90881 -3.05936 0
M  V30 20368 O 1967.51 -1.22198 -3.9388 0
M  V30 20369 H 1966.85 -0.414842 -0.518461 0
M  V30 20370 H 1969.38 -1.70468 -1.13145 0
M  V30 20371 H 1969.39 -1.99115 -3.56114 0
M  V30 20372 H 1968.07 -2.95385 -2.9278 0
M  V30 20373 H 1966.64 -1.22185 -3.52314 0
M  V30 20374 N 1968.83 1.11497 -1.11383 0
M  V30 20375 C 1970.05 1.87567 -0.885056 0
M  V30 20376 C 1970.48 1.79581 0.559675 0
M  V30 20377 O 1969.84 1.15779 1.39517 0
M  V30 20378 C 1969.89 3.34354 -1.35053 0
M  V30 20379 O 1968.99 4.09085 -0.521865 0
M  V30 20380 H 1968.33 0.582433 -0.318853 0
M  V30 20381 H 1970.86 1.4094 -1.48314 0
M  V30 20382 H 1970.87 3.85201 -1.34478 0
M  V30 20383 H 1969.55 3.39484 -2.40257 0
M  V30 20384 H 1968.12 3.68144 -0.593669 0
M  V30 20385 N 1970.31 0.904053 1.29092 0
M  V30 20386 C 1971.26 0.375028 2.29557 0
M  V30 20387 C 1972.25 -0.528146 1.60956 0
M  V30 20388 O 1973.46 -0.410465 1.75257 0
M  V30 20389 H 1969.83 0.102657 0.74496 0
M  V30 20390 H 1971.8 1.23564 2.71615 0
M  V30 20391 C 1970.55 -0.37845 3.45634 0
M  V30 20392 H 1969.87 0.307303 3.98617 0
M  V30 20393 H 1971.31 -0.713405 4.17955 0
M  V30 20394 C 1969.77 -1.58274 2.97407 0
M  V30 20395 O 1970.3 -2.68199 2.99052 0
M  V30 20396 N 1968.51 -1.4264 2.53184 0
M  V30 20397 H 1968.06 -0.532104 2.52044 0
M  V30 20398 H 1968.01 -2.23348 2.21276 0
M  V30 20399 N 1971.79 -1.4279 0.666995 0
M  V30 20400 C 1973.2 -1.84821 0.264217 0
M  V30 20401 C 1973.55 -1.55834 -1.19206 0
M  V30 20402 O 1972.67 -1.01422 -1.91161 0
M  V30 20403 C 1973.27 -3.35485 0.47276 0
M  V30 20404 C 1971.83 -3.76195 0.124176 0
M  V30 20405 C 1970.97 -2.66424 0.768989 0
M  V30 20406 H 1973.92 -1.32747 0.869709 0
M  V30 20407 H 1973.95 -3.79487 -0.277532 0
M  V30 20408 H 1973.46 -3.56551 1.53274 0
M  V30 20409 H 1971.56 -3.60738 -0.932667 0
M  V30 20410 H 1971.67 -4.75825 0.559251 0
M  V30 20411 H 1970.04 -2.53906 0.200994 0
M  V30 20412 H 1970.82 -2.90315 1.83227 0
M  V30 20413 N 1973.26 -0.409806 -1.52179 0
M  V30 20414 C 1974.49 0.167702 -2.06721 0
M  V30 20415 C 1974.91 1.38034 -1.27782 0
M  V30 20416 O 1974.27 1.7866 -0.308244 0
M  V30 20417 C 1974.32 0.495862 -3.57174 0
M  V30 20418 O 1973.42 1.58675 -3.80652 0
M  V30 20419 H 1972.76 0.013908 -0.663854 0
M  V30 20420 H 1975.29 -0.583201 -1.96112 0
M  V30 20421 H 1975.3 0.754301 -4.00967 0
M  V30 20422 H 1973.98 -0.390588 -4.14062 0
M  V30 20423 H 1972.56 1.32042 -3.48739 0
M  V30 20424 N 1974.74 1.56975 -0.14025 0
M  V30 20425 C 1975.69 2.16418 0.802003 0
M  V30 20426 C 1976.66 1.09512 1.24885 0
M  V30 20427 O 1977.84 1.37522 1.32259 0
M  V30 20428 C 1974.98 2.78465 2.03841 0
M  V30 20429 C 1974.1 3.99743 1.63798 0
M  V30 20430 C 1973.23 4.4981 2.82567 0
M  V30 20431 C 1972.27 5.63569 2.38865 0
M  V30 20432 N 1971.41 6.08285 3.5062 0
M  V30 20433 H 1976.25 2.96602 0.288284 0
M  V30 20434 H 1973.78 1.46519 0.130587 0
M  V30 20435 H 1975.74 3.12581 2.76314 0
M  V30 20436 H 1974.37 2.00936 2.52635 0
M  V30 20437 H 1973.42 3.71651 0.811169 0
M  V30 20438 H 1974.74 4.82177 1.27697 0
M  V30 20439 H 1973.89 4.85945 3.63238 0
M  V30 20440 H 1972.63 3.66369 3.21908 0
M  V30 20441 H 1971.63 5.27017 1.56632 0
M  V30 20442 H 1972.86 6.48791 2.00617 0
M  V30 20443 H 1970.81 5.2778 3.89595 0
M  V30 20444 H 1970.72 6.85628 3.18512 0
M  V30 20445 H 1971.99 6.49063 4.31668 0
M  V30 20446 N 1976.22 -0.133539 1.57033 0
M  V30 20447 C 1977.44 -0.862393 1.8862 0
M  V30 20448 C 1977.87 -1.73328 0.730696 0
M  V30 20449 O 1977.23 -1.78466 -0.319297 0
M  V30 20450 C 1977.28 -1.68381 3.18873 0
M  V30 20451 O 1976.38 -2.78939 3.03755 0
M  V30 20452 H 1975.72 -0.239391 0.619345 0
M  V30 20453 H 1978.25 -0.120306 2.04246 0
M  V30 20454 H 1978.26 -2.07606 3.51232 0
M  V30 20455 H 1976.94 -1.0444 4.02573 0
M  V30 20456 H 1975.51 -2.43022 2.82833 0
M  V30 20457 N 1977.7 -1.52352 -0.403298 0
M  V30 20458 C 1978.63 -1.72347 -1.51093 0
M  V30 20459 C 1979.64 -0.603886 -1.51186 0
M  V30 20460 O 1980.83 -0.879203 -1.55346 0
M  V30 20461 C 1977.93 -1.75407 -2.89975 0
M  V30 20462 C 1977.1 -3.04495 -3.14009 0
M  V30 20463 C 1976.16 -2.9929 -4.32795 0
M  V30 20464 O 1975.19 -3.73185 -4.29792 0
M  V30 20465 N 1976.39 -2.17484 -5.3822 0
M  V30 20466 H 1979.16 -2.67908 -1.34333 0
M  V30 20467 H 1976.72 -1.50662 -0.592661 0
M  V30 20468 H 1978.71 -1.6945 -3.67517 0
M  V30 20469 H 1977.28 -0.87295 -3.00164 0
M  V30 20470 H 1976.5 -3.24056 -2.24458 0
M  V30 20471 H 1977.79 -3.89879 -3.26913 0
M  V30 20472 H 1977.19 -1.56888 -5.4351 0
M  V30 20473 H 1975.74 -2.17378 -6.14484 0
M  V30 20474 N 1979.18 0.660885 -1.43074 0
M  V30 20475 C 1980.42 1.41805 -1.43999 0
M  V30 20476 C 1980.74 1.949 -0.0625341 0
M  V30 20477 O 1980.01 1.7395 0.901019 0
M  V30 20478 H 1978.59 0.526263 -0.530147 0
M  V30 20479 H 1981.26 0.779967 -1.78613 0
M  V30 20480 H 1980.35 2.2642 -2.14803 0
M  V30 20481 N 1980.65 1.29477 0.898527 0
M  V30 20482 C 1982.07 1.07514 1.17953 0
M  V30 20483 C 1982.27 -0.172814 2.00758 0
M  V30 20484 O 1981.33 -0.87025 2.37029 0
M  V30 20485 C 1982.64 2.33121 1.89934 0
M  V30 20486 C 1984.19 2.38452 2.02755 0
M  V30 20487 C 1984.66 3.63866 2.78146 0
M  V30 20488 N 1986.15 3.64595 2.857 0
M  V30 20489 C 1986.89 4.58319 3.44574 0
M  V30 20490 N 1986.38 5.62376 4.04605 0
M  V30 20491 N 1988.18 4.45887 3.42259 0
M  V30 20492 H 1980.33 2.09562 0.346076 0
M  V30 20493 H 1982.59 0.923108 0.215814 0
M  V30 20494 H 1982.3 3.2412 1.36526 0
M  V30 20495 H 1982.17 2.40721 2.90402 0
M  V30 20496 H 1984.56 1.47941 2.55338 0
M  V30 20497 H 1984.64 2.34837 1.01416 0
M  V30 20498 H 1984.28 4.54729 2.26239 0
M  V30 20499 H 1984.21 3.6474 3.79832 0
M  V30 20500 H 1986.7 2.89358 2.43064 0
M  V30 20501 H 1987.02 6.30012 4.47555 0
M  V30 20502 H 1985.36 5.66184 4.03064 0
M  V30 20503 H 1988.55 3.63786 2.9458 0
M  V30 20504 H 1988.73 5.19113 3.87848 0
M  V30 20505 N 1982.13 -1.10905 1.11972 0
M  V30 20506 C 1983.1 -2.1529 0.786324 0
M  V30 20507 C 1984.1 -1.59589 -0.196987 0
M  V30 20508 O 1985.29 -1.74177 0.0281964 0
M  V30 20509 C 1982.42 -3.40488 0.167611 0
M  V30 20510 H 1983.61 -2.46295 1.71111 0
M  V30 20511 H 1981.16 -1.26185 0.922332 0
M  V30 20512 H 1981.9 -3.15096 -0.76713 0
M  V30 20513 H 1981.68 -3.822 0.875514 0
M  V30 20514 H 1983.17 -4.17571 -0.0493303 0
M  V30 20515 N 1983.61 -0.910886 -1.2861 0
M  V30 20516 C 1984.54 -0.35439 -2.26444 0
M  V30 20517 C 1985.56 0.505552 -1.54751 0
M  V30 20518 O 1986.74 0.320897 -1.75592 0
M  V30 20519 C 1983.84 0.512332 -3.35005 0
M  V30 20520 C 1983.02 -0.324442 -4.36195 0
M  V30 20521 C 1982.08 0.476907 -5.24034 0
M  V30 20522 O 1981.1 -0.109526 -5.69095 0
M  V30 20523 N 1982.3 1.78057 -5.52518 0
M  V30 20524 H 1985.07 -1.1953 -2.74832 0
M  V30 20525 H 1982.63 -0.776536 -1.42062 0
M  V30 20526 H 1984.62 1.05509 -3.90704 0
M  V30 20527 H 1983.19 1.25395 -2.86347 0
M  V30 20528 H 1982.41 -1.04858 -3.79998 0
M  V30 20529 H 1983.7 -0.897099 -5.00829 0
M  V30 20530 H 1983.1 2.27959 -5.17737 0
M  V30 20531 H 1981.66 2.27022 -6.10986 0
M  V30 20532 N 1985.09 1.42434 -0.674558 0
M  V30 20533 C 1986.5 1.55847 -0.344087 0
M  V30 20534 C 1986.7 1.65424 1.15053 0
M  V30 20535 O 1985.76 1.62103 1.93594 0
M  V30 20536 C 1987.07 2.80859 -1.07419 0
M  V30 20537 C 1988.62 2.94631 -1.05649 0
M  V30 20538 C 1989.1 4.22503 -1.76791 0
M  V30 20539 N 1990.59 4.29415 -1.73658 0
M  V30 20540 C 1991.32 5.27171 -2.25561 0
M  V30 20541 N 1990.82 6.31082 -2.85845 0
M  V30 20542 N 1992.61 5.18968 -2.15937 0
M  V30 20543 H 1984.76 1.34461 -1.6442 0
M  V30 20544 H 1987.03 0.647231 -0.692673 0
M  V30 20545 H 1986.73 2.79919 -2.12928 0
M  V30 20546 H 1986.61 3.71743 -0.63927 0
M  V30 20547 H 1988.99 2.95098 -0.00973704 0
M  V30 20548 H 1989.07 2.04977 -1.53029 0
M  V30 20549 H 1988.72 4.22796 -2.81435 0
M  V30 20550 H 1988.65 5.11091 -1.26861 0
M  V30 20551 H 1991.14 3.5495 -1.29687 0
M  V30 20552 H 1991.45 7.02029 -3.2307 0
M  V30 20553 H 1989.8 6.31644 -2.89914 0
M  V30 20554 H 1992.99 4.3671 -1.6853 0
M  V30 20555 H 1993.16 5.9499 -2.56693 0
M  V30 20556 N 1986.57 0.417871 1.51959 0
M  V30 20557 C 1987.5 -0.394222 2.30148 0
M  V30 20558 C 1988.48 -1.0384 1.34727 0
M  V30 20559 O 1989.66 -1.04575 1.63639 0
M  V30 20560 C 1986.79 -1.50639 3.1293 0
M  V30 20561 C 1985.75 -0.986759 4.1647 0
M  V30 20562 C 1985.07 -2.1932 4.8765 0
M  V30 20563 C 1986.37 -0.0347019 5.22288 0
M  V30 20564 H 1988.07 0.258228 2.98284 0
M  V30 20565 H 1985.61 0.125633 1.43451 0
M  V30 20566 H 1987.57 -2.08157 3.664 0
M  V30 20567 H 1986.29 -2.18685 2.42579 0
M  V30 20568 H 1984.95 -0.43393 3.64023 0
M  V30 20569 H 1984.6 -2.8594 4.1382 0
M  V30 20570 H 1984.3 -1.85199 5.57652 0
M  V30 20571 H 1985.82 -2.77427 5.43936 0
M  V30 20572 H 1987.23 -0.518951 5.70946 0
M  V30 20573 H 1985.63 0.218124 5.99703 0
M  V30 20574 H 1986.7 0.907947 4.76324 0
M  V30 20575 N 1988.04 -1.56898 0.148573 0
M  V30 20576 C 1989.29 -1.95788 -0.501154 0
M  V30 20577 C 1989.61 -1.03451 -1.65297 0
M  V30 20578 O 1988.88 -0.0963607 -1.95663 0
M  V30 20579 H 1987.46 -0.722922 -0.188129 0
M  V30 20580 H 1990.13 -1.93603 0.224439 0
M  V30 20581 H 1989.22 -2.99547 -0.876258 0
M  V30 20582 N 1989.52 0.125209 -1.57102 0
M  V30 20583 C 1990.75 0.852378 -1.89075 0
M  V30 20584 C 1991.17 1.72938 -0.739878 0
M  V30 20585 O 1990.53 1.78633 0.309828 0
M  V30 20586 C 1990.58 1.66688 -3.19762 0
M  V30 20587 O 1989.68 2.77324 -3.0523 0
M  V30 20588 H 1989.02 0.236103 -0.620606 0
M  V30 20589 H 1991.55 0.109473 -2.04307 0
M  V30 20590 H 1991.56 2.0574 -3.52328 0
M  V30 20591 H 1990.24 1.02303 -4.03121 0
M  V30 20592 H 1988.82 2.41519 -2.84118 0
M  V30 20593 N 1991 1.52564 0.395213 0
M  V30 20594 C 1992.23 1.7147 1.16674 0
M  V30 20595 C 1992.65 0.429414 1.83133 0
M  V30 20596 O 1992.01 -0.614309 1.70575 0
M  V30 20597 C 1992.06 2.86088 2.19513 0
M  V30 20598 O 1991.16 2.52628 3.25964 0
M  V30 20599 H 1990.5 0.570379 0.339947 0
M  V30 20600 H 1993.03 1.99329 0.461411 0
M  V30 20601 H 1993.04 3.11404 2.63612 0
M  V30 20602 H 1991.72 3.79333 1.70527 0
M  V30 20603 H 1990.29 2.38032 2.87046 0
M  V30 20604 N 1992.48 -0.653289 1.43422 0
M  V30 20605 C 1993.7 -1.4459 1.4869 0
M  V30 20606 C 1994.13 -1.87801 0.10599 0
M  V30 20607 O 1993.49 -1.5737 -0.90025 0
M  V30 20608 C 1993.53 -2.65713 2.43781 0
M  V30 20609 O 1992.64 -3.64767 1.92402 0
M  V30 20610 H 1991.98 -0.433532 0.502938 0
M  V30 20611 H 1994.51 -0.799423 1.88336 0
M  V30 20612 H 1994.52 -3.13528 2.61082 0
M  V30 20613 H 1993.19 -2.33604 3.44096 0
M  V30 20614 H 1991.77 -3.2391 1.84761 0
M  V30 20615 N 1993.96 -1.29952 -0.891648 0
M  V30 20616 C 1995.2 -1.18565 -1.6453 0
M  V30 20617 C 1995.54 0.260539 -1.92444 0
M  V30 20618 O 1994.81 1.18723 -1.54062 0
M  V30 20619 C 1995.09 -2.00774 -2.98934 0
M  V30 20620 C 1994.95 -3.53577 -2.78035 0
M  V30 20621 C 1996.27 -1.84038 -3.99772 0
M  V30 20622 H 1993.38 -0.432073 -0.597061 0
M  V30 20623 H 1996.03 -1.59512 -1.03227 0
M  V30 20624 H 1994.18 -1.65981 -3.51258 0
M  V30 20625 H 1995.85 -3.98394 -2.3255 0
M  V30 20626 H 1994.09 -3.78095 -2.12665 0
M  V30 20627 H 1994.76 -4.06381 -3.73575 0
M  V30 20628 H 1997.24 -2.14444 -3.56585 0
M  V30 20629 H 1996.11 -2.43896 -4.91737 0
M  V30 20630 H 1996.38 -0.797726 -4.34843 0
M  V30 20631 N 1995.44 1.1031 -1.12559 0
M  V30 20632 C 1996.85 1.34325 -0.861911 0
M  V30 20633 C 1997.05 1.95009 0.507319 0
M  V30 20634 O 1996.11 2.1906 1.25574 0
M  V30 20635 C 1997.42 2.26367 -1.97935 0
M  V30 20636 C 1998.97 2.39901 -2.01039 0
M  V30 20637 C 1999.44 3.35273 -3.1202 0
M  V30 20638 N 2000.93 3.42841 -3.11471 0
M  V30 20639 C 2001.67 4.16611 -3.93983 0
M  V30 20640 N 2001.17 4.93256 -4.86488 0
M  V30 20641 N 2002.96 4.12243 -3.82116 0
M  V30 20642 H 1995.11 0.692899 -2.0078 0
M  V30 20643 H 1997.37 0.367689 -0.87379 0
M  V30 20644 H 1997.08 1.8899 -2.96607 0
M  V30 20645 H 1996.95 3.26685 -1.88565 0
M  V30 20646 H 1999.34 2.76546 -1.02986 0
M  V30 20647 H 1999.42 1.39393 -2.14484 0
M  V30 20648 H 1999.06 2.99352 -4.10306 0
M  V30 20649 H 1998.99 4.35663 -2.95813 0
M  V30 20650 H 2001.49 2.88182 -2.44457 0
M  V30 20651 H 2001.8 5.46948 -5.45956 0
M  V30 20652 H 2000.14 4.92376 -4.90501 0
M  V30 20653 H 2003.33 3.5146 -3.09182 0
M  V30 20654 H 2003.51 4.69475 -4.46651 0
M  V30 20655 N 1996.91 0.917694 1.28125 0
M  V30 20656 C 1998.32 0.598885 1.76834 0
M  V30 20657 C 1998.68 -0.885857 1.75063 0
M  V30 20658 O 1997.8 -1.69304 1.34778 0
M  V30 20659 C 1998.4 1.08036 3.21113 0
M  V30 20660 C 1996.95 0.812402 3.67528 0
M  V30 20661 C 1996.1 1.24483 2.47789 0
M  V30 20662 H 1999.05 1.09854 1.14533 0
M  V30 20663 H 1999.07 0.423555 3.78135 0
M  V30 20664 H 1998.59 2.161 3.2237 0
M  V30 20665 H 1996.69 -0.254859 3.71727 0
M  V30 20666 H 1996.8 1.42291 4.57482 0
M  V30 20667 H 1995.16 0.663509 2.45906 0
M  V30 20668 H 1995.95 2.3339 2.51762 0
M  V30 20669 N 1998.39 -1.42074 0.682102 0
M  V30 20670 C 1999.64 -2.01037 0.206997 0
M  V30 20671 C 1999.96 -1.5424 -1.19311 0
M  V30 20672 O 1999.23 -0.767197 -1.80252 0
M  V30 20673 H 1997.81 -0.743372 0.073537 0
M  V30 20674 H 2000.47 -1.7389 0.880247 0
M  V30 20675 H 1999.57 -3.11366 0.213942 0
M  V30 20676 N 1999.87 -0.425924 -1.51735 0
M  V30 20677 C 2000.8 0.382011 -2.30354 0
M  V30 20678 C 2001.78 1.03124 -1.35276 0
M  V30 20679 O 2002.97 1.03705 -1.64191 0
M  V30 20680 C 2000.1 1.48978 -3.13724 0
M  V30 20681 C 1999.05 0.964659 -4.16987 0
M  V30 20682 C 1998.38 2.1673 -4.88807 0
M  V30 20683 C 1999.68 0.00700314 -5.223 0
M  V30 20684 H 2001.37 -0.274043 -2.98143 0
M  V30 20685 H 1998.92 -0.133238 -1.43382 0
M  V30 20686 H 2000.87 2.06211 -3.67498 0
M  V30 20687 H 1999.59 2.17396 -2.43735 0
M  V30 20688 H 1998.25 0.414618 -3.64248 0
M  V30 20689 H 1997.9 2.83741 -4.15331 0
M  V30 20690 H 1997.6 1.82239 -5.58626 0
M  V30 20691 H 1999.12 2.74538 -5.454 0
M  V30 20692 H 2000.54 0.488665 -5.71214 0
M  V30 20693 H 1998.93 -0.249924 -5.99579 0
M  V30 20694 H 2000 -0.933195 -4.75836 0
M  V30 20695 N 2001.35 1.56817 -0.156891 0
M  V30 20696 C 2002.58 2.00516 0.497682 0
M  V30 20697 C 2002.99 1.03609 1.58309 0
M  V30 20698 O 2002.33 0.0266573 1.83681 0
M  V30 20699 C 2002.39 3.40648 1.14888 0
M  V30 20700 C 2002.05 4.56531 0.206879 0
M  V30 20701 C 2003.05 5.16774 -0.569267 0
M  V30 20702 C 2000.74 5.02186 0.106904 0
M  V30 20703 C 2002.73 6.21089 -1.43274 0
M  V30 20704 C 2000.42 6.06354 -0.760162 0
M  V30 20705 C 2001.42 6.65675 -1.52858 0
M  V30 20706 O 2001.1 7.67825 -2.38118 0
M  V30 20707 H 2000.84 0.662754 0.133164 0
M  V30 20708 H 2003.39 2.03855 -0.251425 0
M  V30 20709 H 2001.62 3.34177 1.94583 0
M  V30 20710 H 2003.31 3.68391 1.70419 0
M  V30 20711 H 2004.07 4.82394 -0.502119 0
M  V30 20712 H 1999.95 4.55735 0.694764 0
M  V30 20713 H 2003.5 6.6732 -2.03298 0
M  V30 20714 H 1999.39 6.4016 -0.828566 0
M  V30 20715 H 2000.16 7.85087 -2.31475 0
M  V30 20716 N 2002.83 -0.116876 1.57166 0
M  V30 20717 C 2003.78 -1.14913 1.96924 0
M  V30 20718 C 2004.76 -1.36955 0.844524 0
M  V30 20719 O 2005.95 -1.38012 1.10823 0
M  V30 20720 C 2003.08 -2.47515 2.37889 0
M  V30 20721 C 2002.17 -2.28939 3.56998 0
M  V30 20722 N 2002.56 -1.8018 4.72619 0
M  V30 20723 C 2000.86 -2.59587 3.62671 0
M  V30 20724 C 2001.56 -1.75362 5.54638 0
M  V30 20725 N 2000.53 -2.19785 4.97188 0
M  V30 20726 H 2004.33 -0.764725 2.83777 0
M  V30 20727 H 2001.85 -0.324594 1.59123 0
M  V30 20728 H 2003.85 -3.22177 2.6459 0
M  V30 20729 H 2002.51 -2.86712 1.52402 0
M  V30 20730 H 2003.52 -1.49696 4.95794 0
M  V30 20731 H 2000.19 -3.02456 2.87797 0
M  V30 20732 H 2001.58 -1.389 6.57386 0
M  V30 20733 N 2004.3 -1.52772 -0.387116 0
M  V30 20734 C 2005.53 -1.71538 -1.15145 0
M  V30 20735 C 2005.94 -0.434325 -1.84147 0
M  V30 20736 O 2005.28 0.60113 -1.73586 0
M  V30 20737 C 2005.35 -2.81074 -2.24137 0
M  V30 20738 C 2005.01 -4.2213 -1.75086 0
M  V30 20739 C 2006.01 -5.05224 -1.22658 0
M  V30 20740 C 2003.69 -4.68458 -1.81252 0
M  V30 20741 C 2005.69 -6.32726 -0.770461 0
M  V30 20742 C 2003.37 -5.95945 -1.35251 0
M  V30 20743 C 2004.37 -6.77909 -0.832359 0
M  V30 20744 O 2004.06 -8.03006 -0.379074 0
M  V30 20745 H 2003.79 -0.577655 -0.351128 0
M  V30 20746 H 2006.35 -2.00215 -0.458605 0
M  V30 20747 H 2004.58 -2.47822 -2.96852 0
M  V30 20748 H 2006.26 -2.88225 -2.85799 0
M  V30 20749 H 2007.03 -4.70614 -1.1725 0
M  V30 20750 H 2002.91 -4.04748 -2.2068 0
M  V30 20751 H 2006.45 -6.96651 -0.363786 0
M  V30 20752 H 2002.35 -6.30058 -1.40345 0
M  V30 20753 H 2003.12 -8.16969 -0.500379 0
M  V30 20754 N 2005.78 0.645673 -1.43767 0
M  V30 20755 C 2007.02 1.41719 -1.47293 0
M  V30 20756 C 2007.39 1.91753 -0.0972655 0
M  V30 20757 O 2008.59 2.68799 -0.007206 0
M  V30 20758 C 2006.86 2.56163 -2.4923 0
M  V30 20759 S 2008.42 3.44572 -2.7169 0
M  V30 20760 H 2005.23 0.483664 -0.521143 0
M  V30 20761 H 2007.84 0.748898 -1.80587 0
M  V30 20762 H 2006.54 2.17691 -3.47906 0
M  V30 20763 H 2006.07 3.27834 -2.17458 0
M  V30 20764 H 2008.09 4.53139 -2.02186 0
M  V30 20765 N 2007.26 1.30423 0.884744 0
M  V30 20766 C 2008.51 1.19259 1.63657 0
M  V30 20767 C 2008.83 -0.252645 1.92852 0
M  V30 20768 O 2008.09 -1.19718 1.5481 0
M  V30 20769 C 2008.39 1.96681 2.98415 0
M  V30 20770 C 2008.05 3.46298 2.8877 0
M  V30 20771 C 2006.72 3.87098 2.85847 0
M  V30 20772 C 2009.07 4.41573 2.7688 0
M  V30 20773 C 2006.4 5.21464 2.68873 0
M  V30 20774 C 2008.75 5.76047 2.61444 0
M  V30 20775 C 2007.41 6.16085 2.56896 0
M  V30 20776 H 2006.68 0.436399 0.598863 0
M  V30 20777 H 2009.33 1.61527 1.02865 0
M  V30 20778 H 2007.63 1.47049 3.63158 0
M  V30 20779 H 2009.33 1.85436 3.55548 0
M  V30 20780 H 2005.92 3.13877 2.91855 0
M  V30 20781 H 2010.11 4.10994 2.78205 0
M  V30 20782 H 2005.36 5.51577 2.63766 0
M  V30 20783 H 2009.54 6.49509 2.51218 0
M  V30 20784 H 2007.16 7.20147 2.43501 0
M  V30 20785 N 2008.74 -1.09711 1.13142 0
M  V30 20786 C 2009.67 -2.1553 0.749806 0
M  V30 20787 C 2010.65 -1.60466 -0.262593 0
M  V30 20788 O 2011.83 -1.87863 -0.154785 0
M  V30 20789 C 2008.96 -3.38518 0.111052 0
M  V30 20790 C 2008.01 -4.12297 1.09147 0
M  V30 20791 S 2008.84 -4.66885 2.62257 0
M  V30 20792 C 2009.99 -5.93176 1.99733 0
M  V30 20793 H 2010.23 -2.47568 1.64613 0
M  V30 20794 H 2007.76 -1.21615 0.951273 0
M  V30 20795 H 2009.72 -4.09731 -0.251096 0
M  V30 20796 H 2008.38 -3.04704 -0.762499 0
M  V30 20797 H 2007.57 -5.00507 0.592307 0
M  V30 20798 H 2007.17 -3.46932 1.39694 0
M  V30 20799 H 2009.47 -6.64023 1.34461 0
M  V30 20800 H 2010.41 -6.47767 2.86013 0
M  V30 20801 H 2010.82 -5.45557 1.45009 0
M  V30 20802 N 2010.22 -0.924476 -1.27637 0
M  V30 20803 C 2011.18 -0.425772 -2.25211 0
M  V30 20804 C 2012.18 0.453876 -1.54261 0
M  V30 20805 O 2013.37 0.255412 -1.72317 0
M  V30 20806 C 2010.5 0.388294 -3.38681 0
M  V30 20807 H 2011.69 -1.28783 -2.70841 0
M  V30 20808 H 2009.25 -0.704863 -1.39504 0
M  V30 20809 H 2009.98 1.2693 -2.98428 0
M  V30 20810 H 2009.77 -0.242358 -3.9135 0
M  V30 20811 H 2011.26 0.727693 -4.11211 0
M  V30 20812 N 2011.69 1.41711 -0.689627 0
M  V30 20813 C 2013.11 1.84377 -0.293587 0
M  V30 20814 C 2013.46 1.57711 1.16712 0
M  V30 20815 O 2012.58 1.0445 1.89523 0
M  V30 20816 C 2013.18 3.34691 -0.526073 0
M  V30 20817 C 2011.74 3.7595 -0.184009 0
M  V30 20818 C 2010.88 2.65167 -0.811277 0
M  V30 20819 H 2013.83 1.31347 -0.890718 0
M  V30 20820 H 2013.85 3.7988 0.217124 0
M  V30 20821 H 2013.37 3.54068 -1.58927 0
M  V30 20822 H 2011.47 3.62176 0.875158 0
M  V30 20823 H 2011.58 4.74875 -0.63488 0
M  V30 20824 H 2009.94 2.53554 -0.241363 0
M  V30 20825 H 2010.73 2.87363 -1.87822 0
M  V30 20826 N 2013.17 0.433965 1.51507 0
M  V30 20827 C 2014.4 -0.132211 2.06177 0
M  V30 20828 C 2014.81 -1.37301 1.30174 0
M  V30 20829 O 2014.15 -1.80262 0.353712 0
M  V30 20830 C 2014.22 -0.523141 3.55673 0
M  V30 20831 C 2013.88 0.610379 4.52905 0
M  V30 20832 C 2014.88 1.4815 4.98345 0
M  V30 20833 C 2012.56 0.79015 4.96046 0
M  V30 20834 C 2014.56 2.51711 5.85594 0
M  V30 20835 C 2012.24 1.82904 5.83086 0
M  V30 20836 C 2013.24 2.69091 6.27757 0
M  V30 20837 O 2012.93 3.71197 7.13069 0
M  V30 20838 H 2012.66 -0.0128686 0.675878 0
M  V30 20839 H 2015.21 0.610848 1.96107 0
M  V30 20840 H 2013.44 -1.31885 3.63515 0
M  V30 20841 H 2015.13 -1.02008 3.92873 0
M  V30 20842 H 2015.9 1.35413 4.65713 0
M  V30 20843 H 2011.78 0.12889 4.6082 0
M  V30 20844 H 2015.32 3.19016 6.20383 0
M  V30 20845 H 2011.22 1.95662 6.15131 0
M  V30 20846 H 2011.99 3.67738 7.31239 0
M  V30 20847 N 2014.65 -1.56732 0.165206 0
M  V30 20848 C 2015.88 -2.01069 -0.487749 0
M  V30 20849 C 2016.29 -1.04541 -1.57215 0
M  V30 20850 O 2015.65 -0.0452829 -1.82444 0
M  V30 20851 C 2015.7 -3.45249 -1.07169 0
M  V30 20852 O 2015.42 -4.38089 -0.0305845 0
M  V30 20853 C 2016.92 -4.04956 -1.80348 0
M  V30 20854 H 2014.14 -0.659179 -0.125394 0
M  V30 20855 H 2016.69 -2.02774 0.26514 0
M  V30 20856 H 2014.84 -3.44338 -1.77511 0
M  V30 20857 H 2015.26 -5.22471 -0.460866 0
M  V30 20858 H 2016.73 -5.07783 -2.16474 0
M  V30 20859 H 2017.21 -3.467 -2.69621 0
M  V30 20860 H 2017.81 -4.09552 -1.14662 0
M  V30 20861 N 2016.13 0.10854 -1.57226 0
M  V30 20862 C 2017.08 1.13867 -1.97531 0
M  V30 20863 C 2018.06 1.36505 -0.851775 0
M  V30 20864 O 2019.25 1.37422 -1.11554 0
M  V30 20865 C 2016.38 2.4625 -2.39198 0
M  V30 20866 C 2015.47 2.27043 -3.58207 0
M  V30 20867 N 2015.86 1.77671 -4.73568 0
M  V30 20868 C 2014.16 2.5766 -3.64043 0
M  V30 20869 C 2014.86 1.72418 -5.5556 0
M  V30 20870 N 2013.84 2.17145 -4.98346 0
M  V30 20871 H 2017.64 0.749664 -2.84178 0
M  V30 20872 H 2015.15 0.31615 -1.59293 0
M  V30 20873 H 2017.15 3.20769 -2.66295 0
M  V30 20874 H 2015.81 2.859 -1.5392 0
M  V30 20875 H 2016.82 1.47065 -4.96581 0
M  V30 20876 H 2013.5 3.00925 -2.89397 0
M  V30 20877 H 2014.89 1.35411 -6.58113 0
M  V30 20878 N 2017.61 1.52975 0.379009 0
M  V30 20879 C 2018.85 1.68505 1.12304 0
M  V30 20880 C 2019.18 0.430012 1.89687 0
M  V30 20881 O 2018.44 -0.587809 1.86664 0
M  V30 20882 C 2018.74 2.8776 2.11964 0
M  V30 20883 C 2018.4 4.24806 1.51163 0
M  V30 20884 C 2017.06 4.62077 1.34308 0
M  V30 20885 C 2019.42 5.10087 1.07053 0
M  V30 20886 C 2016.74 5.82277 0.719058 0
M  V30 20887 C 2019.1 6.30921 0.460559 0
M  V30 20888 C 2017.76 6.66915 0.279391 0
M  V30 20889 H 2017.03 0.616604 0.41095 0
M  V30 20890 H 2019.68 1.87137 0.406443 0
M  V30 20891 H 2017.98 2.63586 2.89879 0
M  V30 20892 H 2019.68 2.96971 2.69461 0
M  V30 20893 H 2016.27 3.95453 1.65272 0
M  V30 20894 H 2020.45 4.81854 1.18872 0
M  V30 20895 H 2015.71 6.08765 0.566983 0
M  V30 20896 H 2019.88 6.96312 0.110504 0
M  V30 20897 H 2017.51 7.5992 -0.206228 0
M  V30 20898 N 2019.08 -0.63804 1.44107 0
M  V30 20899 C 2020.31 -1.4251 1.49995 0
M  V30 20900 C 2020.73 -1.88401 0.122604 0
M  V30 20901 O 2020.08 -1.60419 -0.870168 0
M  V30 20902 C 2020.14 -2.65002 2.45879 0
M  V30 20903 O 2019.86 -2.21025 3.78259 0
M  V30 20904 C 2021.36 -3.58203 2.61162 0
M  V30 20905 H 2018.58 -0.437285 0.508943 0
M  V30 20906 H 2021.12 -0.780912 1.89003 0
M  V30 20907 H 2019.28 -3.25527 2.10026 0
M  V30 20908 H 2019.69 -3.00388 4.29962 0
M  V30 20909 H 2021.16 -4.40776 3.32295 0
M  V30 20910 H 2021.64 -4.06556 1.6616 0
M  V30 20911 H 2022.25 -3.0355 2.97888 0
M  V30 20912 N 2020.56 -1.3089 -0.877815 0
M  V30 20913 C 2021.49 -1.13694 -1.99013 0
M  V30 20914 C 2022.51 -0.0781797 -1.62612 0
M  V30 20915 O 2023.7 -0.324906 -1.75518 0
M  V30 20916 C 2020.8 -0.713232 -3.3131 0
M  V30 20917 C 2019.97 -1.8553 -3.96103 0
M  V30 20918 C 2019.03 -1.41895 -5.06707 0
M  V30 20919 O 2018.05 -2.12734 -5.27952 0
M  V30 20920 N 2019.26 -0.301958 -5.79714 0
M  V30 20921 H 2022.02 -2.09499 -2.14313 0
M  V30 20922 H 2019.58 -1.2312 -1.05133 0
M  V30 20923 H 2021.57 -0.404189 -4.02677 0
M  V30 20924 H 2020.14 0.152987 -3.12225 0
M  V30 20925 H 2019.36 -2.33208 -3.17817 0
M  V30 20926 H 2020.65 -2.62046 -4.3613 0
M  V30 20927 H 2020.05 0.288154 -5.64966 0
M  V30 20928 H 2018.61 -0.0524068 -6.51779 0
M  V30 20929 N 2022.04 1.0911 -1.13723 0
M  V30 20930 C 2023 2.14011 -0.820475 0
M  V30 20931 C 2024 1.59882 0.171573 0
M  V30 20932 O 2025.19 1.7411 -0.0559029 0
M  V30 20933 C 2022.33 3.40178 -0.221758 0
M  V30 20934 H 2023.52 2.43541 -1.75007 0
M  V30 20935 H 2021.07 1.24702 -0.94229 0
M  V30 20936 H 2021.81 3.16277 0.716904 0
M  V30 20937 H 2021.59 3.80759 -0.936208 0
M  V30 20938 H 2023.08 4.17596 -0.0171079 0
M  V30 20939 N 2023.52 0.931232 1.27145 0
M  V30 20940 C 2024.45 0.450505 2.29113 0
M  V30 20941 C 2025.43 -0.491043 1.62858 0
M  V30 20942 O 2026.61 -0.395036 1.9014 0
M  V30 20943 C 2023.74 -0.29432 3.46051 0
M  V30 20944 C 2022.7 0.559727 4.24324 0
M  V30 20945 C 2022.02 -0.314473 5.33774 0
M  V30 20946 C 2023.32 1.826 4.89341 0
M  V30 20947 H 2025.02 1.3027 2.69574 0
M  V30 20948 H 2022.56 0.627845 1.29592 0
M  V30 20949 H 2024.52 -0.641592 4.16487 0
M  V30 20950 H 2023.24 -1.18057 3.04516 0
M  V30 20951 H 2021.9 0.889756 3.55639 0
M  V30 20952 H 2021.55 -1.19978 4.88482 0
M  V30 20953 H 2021.25 0.253489 5.87053 0
M  V30 20954 H 2022.77 -0.657238 6.07053 0
M  V30 20955 H 2024.19 1.54659 5.52045 0
M  V30 20956 H 2022.58 2.33775 5.52693 0
M  V30 20957 H 2023.65 2.5434 4.12842 0
M  V30 20958 N 2025 -1.41343 0.697132 0
M  V30 20959 C 2025.96 -2.29162 0.0417336 0
M  V30 20960 C 2026.96 -1.44455 -0.706353 0
M  V30 20961 O 2028.15 -1.65586 -0.54101 0
M  V30 20962 C 2025.28 -3.2736 -0.951235 0
M  V30 20963 H 2026.48 -2.88614 0.814974 0
M  V30 20964 H 2024.03 -1.49356 0.460717 0
M  V30 20965 H 2024.76 -2.7289 -1.75218 0
M  V30 20966 H 2024.55 -3.89866 -0.417931 0
M  V30 20967 H 2026.04 -3.93164 -1.40756 0
M  V30 20968 N 2026.48 -0.441993 -1.51275 0
M  V30 20969 C 2027.75 0.183076 -1.94741 0
M  V30 20970 C 2028.13 1.59668 -1.38092 0
M  V30 20971 O 2027.48 2.21279 -0.569882 0
M  V30 20972 C 2027.69 0.156071 -3.48651 0
M  V30 20973 C 2029.04 0.359351 -4.23077 0
M  V30 20974 O 2030.06 0.233977 -3.55431 0
M  V30 20975 O 2028.92 0.609358 -5.43092 0
M  V30 20976 H 2026.02 0.127455 -0.817119 0
M  V30 20977 H 2028.56 -0.500307 -1.62157 0
M  V30 20978 H 2027.33 -0.832021 -3.82352 0
M  V30 20979 H 2026.96 0.882165 -3.8769 0
M  V30 20980 N 2027.95 1.56642 -0.173515 0
M  V30 20981 C 2028.92 2.16857 0.742008 0
M  V30 20982 C 2029.92 1.11721 1.1565 0
M  V30 20983 O 2031.11 1.37223 1.0731 0
M  V30 20984 C 2028.24 2.7532 2.01026 0
M  V30 20985 H 2029.43 2.99108 0.217769 0
M  V30 20986 H 2026.98 1.56115 0.0760536 0
M  V30 20987 H 2027.72 1.96808 2.57754 0
M  V30 20988 H 2027.5 3.52264 1.722 0
M  V30 20989 H 2028.99 3.21626 2.66358 0
M  V30 20990 N 2029.43 -0.1002 1.57281 0
M  V30 20991 C 2030.66 -0.82219 1.90407 0
M  V30 20992 C 2031.08 -1.71739 0.767297 0
M  V30 20993 O 2030.44 -1.79103 -0.281369 0
M  V30 20994 C 2030.49 -1.61579 3.22373 0
M  V30 20995 O 2029.59 -2.72433 3.09603 0
M  V30 20996 H 2028.93 -0.2262 0.624283 0
M  V30 20997 H 2031.46 -0.0769557 2.04455 0
M  V30 20998 H 2031.47 -2.00109 3.55556 0
M  V30 20999 H 2030.15 -0.958772 4.04698 0
M  V30 21000 H 2028.72 -2.36968 2.87925 0
M  V30 21001 N 2030.91 -1.53174 -0.370891 0
M  V30 21002 C 2031.84 -1.82213 -1.46017 0
M  V30 21003 C 2032.82 -0.675274 -1.56122 0
M  V30 21004 O 2034.01 -0.924614 -1.70776 0
M  V30 21005 C 2031.14 -2.00727 -2.83419 0
M  V30 21006 C 2030.09 -3.16478 -2.88141 0
M  V30 21007 C 2029.42 -3.20276 -4.28167 0
M  V30 21008 C 2030.72 -4.55179 -2.56143 0
M  V30 21009 H 2032.41 -2.73432 -1.21965 0
M  V30 21010 H 2029.96 -1.31569 -0.585288 0
M  V30 21011 H 2031.91 -2.19625 -3.59643 0
M  V30 21012 H 2030.63 -1.06213 -3.08847 0
M  V30 21013 H 2029.29 -2.97392 -2.14367 0
M  V30 21014 H 2028.94 -2.2341 -4.50663 0
M  V30 21015 H 2028.64 -3.98044 -4.32244 0
M  V30 21016 H 2030.16 -3.41352 -5.06272 0
M  V30 21017 H 2031.58 -4.74274 -3.22082 0
M  V30 21018 H 2029.97 -5.35148 -2.71544 0
M  V30 21019 H 2031.04 -4.60654 -1.51412 0
M  V30 21020 N 2032.39 0.630389 -1.44443 0
M  V30 21021 C 2033.8 0.948649 -1.28346 0
M  V30 21022 C 2034 2.00298 -0.219776 0
M  V30 21023 O 2033.06 2.49406 0.394082 0
M  V30 21024 C 2034.37 1.41121 -2.65528 0
M  V30 21025 C 2035.92 1.52665 -2.73244 0
M  V30 21026 C 2036.4 2.02305 -4.10897 0
M  V30 21027 N 2037.89 2.09574 -4.13077 0
M  V30 21028 C 2038.62 2.49156 -5.16439 0
M  V30 21029 N 2038.12 2.87869 -6.30161 0
M  V30 21030 N 2039.91 2.49296 -5.03794 0
M  V30 21031 H 2032.06 -0.0668759 -2.12295 0
M  V30 21032 H 2034.32 0.032708 -0.947436 0
M  V30 21033 H 2034.03 0.710811 -3.44442 0
M  V30 21034 H 2033.9 2.38208 -2.92466 0
M  V30 21035 H 2036.29 2.21802 -1.94648 0
M  V30 21036 H 2036.37 0.539516 -2.50046 0
M  V30 21037 H 2036.02 1.33763 -4.89969 0
M  V30 21038 H 2035.95 3.01892 -4.31473 0
M  V30 21039 H 2038.44 1.82338 -3.31001 0
M  V30 21040 H 2038.75 3.16887 -7.04842 0
M  V30 21041 H 2037.1 2.85619 -6.33598 0
M  V30 21042 H 2040.29 2.18443 -4.14005 0
M  V30 21043 H 2040.46 2.79819 -5.8447 0
M  V30 21044 N 2033.87 1.31354 0.870861 0
M  V30 21045 C 2034.81 1.18858 1.99939 0
M  V30 21046 C 2035.81 0.0970869 1.69122 0
M  V30 21047 O 2037.01 0.258917 1.78128 0
M  V30 21048 H 2033.39 0.367991 0.65581 0
M  V30 21049 H 2035.36 2.14338 2.07609 0
M  V30 21050 C 2034.11 0.911812 3.35531 0
M  V30 21051 H 2033.43 1.74383 3.59765 0
M  V30 21052 H 2034.87 0.864551 4.15092 0
M  V30 21053 C 2033.33 -0.385431 3.34688 0
M  V30 21054 O 2033.86 -1.40251 3.76421 0
M  V30 21055 N 2032.07 -0.401645 2.87811 0
M  V30 21056 H 2031.61 0.426528 2.54044 0
M  V30 21057 H 2031.57 -1.26952 2.87629 0
M  V30 21058 N 2035.34 -1.08505 1.143 0
M  V30 21059 C 2036.28 -2.14723 0.772624 0
M  V30 21060 C 2037.25 -1.60735 -0.245558 0
M  V30 21061 O 2038.44 -1.88017 -0.134851 0
M  V30 21062 C 2035.57 -3.38381 0.14695 0
M  V30 21063 C 2034.61 -4.11116 1.13514 0
M  V30 21064 S 2035.44 -4.64077 2.67194 0
M  V30 21065 C 2036.6 -5.91024 2.06013 0
M  V30 21066 H 2036.83 -2.45808 1.6723 0
M  V30 21067 H 2034.37 -1.20599 0.964118 0
M  V30 21068 H 2036.32 -4.09975 -0.207624 0
M  V30 21069 H 2034.99 -3.05496 -0.730138 0
M  V30 21070 H 2034.18 -4.99851 0.645359 0
M  V30 21071 H 2033.78 -3.45431 1.43366 0
M  V30 21072 H 2036.07 -6.62559 1.41497 0
M  V30 21073 H 2037.02 -6.44697 2.92867 0
M  V30 21074 H 2037.42 -5.43988 1.50788 0
M  V30 21075 N 2036.82 -0.937962 -1.26649 0
M  V30 21076 C 2038.07 -0.584683 -1.94189 0
M  V30 21077 C 2038.4 0.873516 -1.73446 0
M  V30 21078 O 2037.68 1.62451 -1.06957 0
M  V30 21079 C 2037.96 -0.923855 -3.48047 0
M  V30 21080 C 2037.81 -2.43656 -3.7809 0
M  V30 21081 C 2039.13 -0.436986 -4.37925 0
M  V30 21082 H 2036.25 -0.213892 -0.70528 0
M  V30 21083 H 2038.89 -1.1716 -1.49578 0
M  V30 21084 H 2037.04 -0.424389 -3.86175 0
M  V30 21085 H 2038.71 -3.00851 -3.49695 0
M  V30 21086 H 2036.96 -2.88141 -3.2428 0
M  V30 21087 H 2037.63 -2.62439 -4.85623 0
M  V30 21088 H 2040.1 -0.865189 -4.07006 0
M  V30 21089 H 2038.98 -0.703159 -5.44378 0
M  V30 21090 H 2039.24 0.663042 -4.371 0
M  V30 21091 N 2038.3 1.40971 -0.704618 0
M  V30 21092 C 2039.23 2.29199 -0.00575899 0
M  V30 21093 C 2040.24 1.45259 0.735102 0
M  V30 21094 O 2041.43 1.68666 0.584302 0
M  V30 21095 C 2038.53 3.23311 1.01604 0
M  V30 21096 C 2037.71 4.36053 0.342951 0
M  V30 21097 C 2036.77 5.10679 1.26861 0
M  V30 21098 O 2035.79 5.64136 0.757556 0
M  V30 21099 N 2036.99 5.18997 2.60043 0
M  V30 21100 H 2039.76 2.89818 -0.763264 0
M  V30 21101 H 2037.32 1.52222 -0.551367 0
M  V30 21102 H 2039.31 3.70104 1.63722 0
M  V30 21103 H 2037.88 2.63937 1.675 0
M  V30 21104 H 2037.1 3.91527 -0.458254 0
M  V30 21105 H 2038.39 5.08647 -0.124708 0
M  V30 21106 H 2037.79 4.77029 3.04072 0
M  V30 21107 H 2036.34 5.69336 3.17333 0
M  V30 21108 N 2039.78 0.45001 1.51039 0
M  V30 21109 C 2040.74 -0.343489 2.26612 0
M  V30 21110 C 2041.74 -0.938789 1.3055 0
M  V30 21111 O 2042.93 -0.811258 1.54157 0
M  V30 21112 C 2040.06 -1.48719 3.0675 0
M  V30 21113 H 2041.26 0.318996 2.98199 0
M  V30 21114 H 2038.81 0.2035 1.5497 0
M  V30 21115 H 2039.54 -2.18535 2.3961 0
M  V30 21116 H 2039.33 -1.06636 3.77321 0
M  V30 21117 H 2040.82 -2.04748 3.63961 0
M  V30 21118 N 2041.26 -1.56548 0.18182 0
M  V30 21119 C 2042.17 -2.22065 -0.756597 0
M  V30 21120 C 2043.18 -1.21554 -1.24501 0
M  V30 21121 O 2044.36 -1.5425 -1.29495 0
M  V30 21122 C 2041.42 -2.85678 -1.9644 0
M  V30 21123 C 2040.48 -4.0142 -1.52185 0
M  V30 21124 C 2039.72 -4.61991 -2.67209 0
M  V30 21125 O 2039.94 -4.21463 -3.8435 0
M  V30 21126 O 2038.87 -5.51685 -2.40682 0
M  V30 21127 H 2042.7 -3.02838 -0.228696 0
M  V30 21128 H 2040.29 -1.49326 -0.0468661 0
M  V30 21129 H 2042.17 -3.25973 -2.67057 0
M  V30 21130 H 2040.84 -2.07894 -2.48116 0
M  V30 21131 H 2039.75 -3.65774 -0.784878 0
M  V30 21132 H 2041.08 -4.80828 -1.0519 0
M  V30 21133 N 2042.73 0.0918577 -1.57332 0
M  V30 21134 C 2043.67 1.13749 -1.98982 0
M  V30 21135 C 2044.68 1.36133 -0.892834 0
M  V30 21136 O 2045.87 1.34728 -1.17092 0
M  V30 21137 C 2042.97 2.49241 -2.29635 0
M  V30 21138 C 2042.14 2.4709 -3.60923 0
M  V30 21139 C 2041.2 3.64534 -3.79475 0
M  V30 21140 O 2040.23 3.46877 -4.51292 0
M  V30 21141 N 2041.43 4.84137 -3.20299 0
M  V30 21142 H 2044.19 0.78297 -2.89292 0
M  V30 21143 H 2041.75 0.280794 -1.59446 0
M  V30 21144 H 2043.75 3.26417 -2.39236 0
M  V30 21145 H 2042.32 2.76771 -1.45316 0
M  V30 21146 H 2041.54 1.55438 -3.62261 0
M  V30 21147 H 2042.82 2.42733 -4.47167 0
M  V30 21148 H 2042.22 5.01386 -2.6197 0
M  V30 21149 H 2040.78 5.58894 -3.35381 0
M  V30 21150 N 2044.21 1.53368 0.362763 0
M  V30 21151 C 2045.12 1.82969 1.46832 0
M  V30 21152 C 2046.14 0.718285 1.58482 0
M  V30 21153 O 2047.31 1.00863 1.74323 0
M  V30 21154 C 2044.38 2.01596 2.82064 0
M  V30 21155 C 2043.44 3.25491 2.79918 0
M  V30 21156 C 2042.67 3.4322 4.087 0
M  V30 21157 O 2042.9 2.65185 5.05008 0
M  V30 21158 O 2041.83 4.36585 4.1434 0
M  V30 21159 H 2045.66 2.769 1.24741 0
M  V30 21160 H 2043.24 1.38783 0.553131 0
M  V30 21161 H 2045.12 2.15403 3.62187 0
M  V30 21162 H 2043.8 1.10854 3.04127 0
M  V30 21163 H 2042.71 3.17105 1.98483 0
M  V30 21164 H 2044.04 4.16164 2.62809 0
M  V30 21165 N 2045.69 -0.62272 1.44776 0
M  V30 21166 C 2046.64 -1.75545 1.526 0
M  V30 21167 C 2047.63 -1.64681 0.397056 0
M  V30 21168 O 2048.84 -1.70658 0.572351 0
M  V30 21169 H 2045.21 -0.579694 0.479018 0
M  V30 21170 H 2047.18 -1.66069 2.47919 0
M  V30 21171 C 2045.93 -3.13899 1.49542 0
M  V30 21172 H 2045.26 -3.2291 2.35731 0
M  V30 21173 H 2046.7 -3.93028 1.59076 0
M  V30 21174 C 2045.16 -3.36197 0.217454 0
M  V30 21175 O 2045.69 -3.95395 -0.708921 0
M  V30 21176 N 2043.89 -2.90361 0.117924 0
M  V30 21177 H 2043.44 -2.4237 0.872626 0
M  V30 21178 H 2043.4 -3.05655 -0.736367 0
M  V30 21179 N 2047.17 -1.31814 -0.863883 0
M  V30 21180 C 2048.45 -1.12477 -1.60026 0
M  V30 21181 C 2048.83 0.318288 -2.08687 0
M  V30 21182 O 2048.17 1.31341 -1.86981 0
M  V30 21183 C 2048.38 -2.14432 -2.75355 0
M  V30 21184 C 2049.73 -2.47276 -3.45166 0
M  V30 21185 O 2050.76 -2.12906 -2.85569 0
M  V30 21186 O 2049.61 -3.06158 -4.52691 0
M  V30 21187 H 2046.71 -0.433423 -0.704325 0
M  V30 21188 H 2049.25 -1.43313 -0.908815 0
M  V30 21189 H 2048.03 -3.11472 -2.36856 0
M  V30 21190 H 2047.65 -1.84536 -3.52182 0
M  V30 21191 N 2048.65 1.07897 -1.14873 0
M  V30 21192 C 2049.87 1.84117 -0.943847 0
M  V30 21193 C 2050.29 1.81844 0.507767 0
M  V30 21194 O 2049.65 1.22585 1.352 0
M  V30 21195 C 2049.7 3.31438 -1.4433 0
M  V30 21196 O 2049.42 3.33746 -2.83805 0
M  V30 21197 C 2050.92 4.24445 -1.2791 0
M  V30 21198 H 2048.14 0.581068 -0.335561 0
M  V30 21199 H 2050.68 1.36237 -1.52512 0
M  V30 21200 H 2048.84 3.76689 -0.904683 0
M  V30 21201 H 2049.25 4.25748 -3.06332 0
M  V30 21202 H 2050.73 5.25906 -1.67711 0
M  V30 21203 H 2051.2 4.38636 -0.222593 0
M  V30 21204 H 2051.81 3.85025 -1.80653 0
M  V30 21205 N 2050.12 0.944665 1.2615 0
M  V30 21206 C 2051.35 0.610451 1.98213 0
M  V30 21207 C 2051.77 -0.808401 1.69843 0
M  V30 21208 O 2051.13 -1.5451 0.948491 0
M  V30 21209 C 2051.18 0.863318 3.50113 0
M  V30 21210 O 2050.28 -0.062849 4.12352 0
M  V30 21211 H 2049.63 0.233139 0.621725 0
M  V30 21212 H 2052.16 1.26855 1.60527 0
M  V30 21213 H 2052.17 0.785602 4.00365 0
M  V30 21214 H 2050.84 1.89748 3.70092 0
M  V30 21215 H 2049.42 0.066222 3.72841 0
M  V30 21216 N 2051.6 -1.40596 0.712085 0
M  V30 21217 C 2052.85 -2.00553 0.249593 0
M  V30 21218 C 2053.17 -1.56736 -1.16012 0
M  V30 21219 O 2052.44 -0.805259 -1.78584 0
M  V30 21220 H 2051.02 -0.741644 0.0892885 0
M  V30 21221 H 2053.68 -1.71984 0.916933 0
M  V30 21222 H 2052.78 -3.10842 0.279939 0
M  V30 21223 N 2053.08 -0.458013 -1.50798 0
M  V30 21224 C 2054.33 0.0937906 -2.03184 0
M  V30 21225 C 2054.68 1.38571 -1.33476 0
M  V30 21226 O 2053.97 1.86304 -0.447373 0
M  V30 21227 C 2054.17 0.346589 -3.55716 0
M  V30 21228 C 2054 -0.919282 -4.40204 0
M  V30 21229 C 2052.77 -1.45882 -4.83784 0
M  V30 21230 C 2054.97 -1.81113 -4.81355 0
M  V30 21231 N 2052.95 -2.67507 -5.52551 0
M  V30 21232 C 2054.32 -2.87332 -5.494 0
M  V30 21233 C 2056.37 -1.82308 -4.63323 0
M  V30 21234 C 2055.08 -3.94718 -6.01324 0
M  V30 21235 C 2057.1 -2.88642 -5.16178 0
M  V30 21236 C 2056.46 -3.9358 -5.84187 0
M  V30 21237 H 2052.56 -0.00537405 -0.781982 0
M  V30 21238 H 2055.15 -0.623303 -1.84453 0
M  V30 21239 H 2053.32 1.03272 -3.74419 0
M  V30 21240 H 2055.05 0.891577 -3.94757 0
M  V30 21241 H 2051.81 -1.00982 -4.62709 0
M  V30 21242 H 2052.23 -3.29238 -5.9155 0
M  V30 21243 H 2056.87 -1.025 -4.10187 0
M  V30 21244 H 2054.59 -4.75351 -6.53504 0
M  V30 21245 H 2058.18 -2.90534 -5.04065 0
M  V30 21246 H 2057.06 -4.74507 -6.2435 0
M  V30 21247 N 2054.56 1.56449 -0.190119 0
M  V30 21248 C 2055.81 1.97438 0.449957 0
M  V30 21249 C 2056.13 1.07682 1.61972 0
M  V30 21250 O 2055.39 0.114859 1.95363 0
M  V30 21251 C 2055.69 3.44349 0.956988 0
M  V30 21252 C 2055.35 4.50792 -0.098868 0
M  V30 21253 C 2054.02 4.79625 -0.389003 0
M  V30 21254 C 2056.37 5.14795 -0.814559 0
M  V30 21255 C 2053.7 5.69754 -1.39989 0
M  V30 21256 C 2056.05 6.06017 -1.81456 0
M  V30 21257 C 2054.71 6.33209 -2.11195 0
M  V30 21258 H 2053.98 0.722476 0.164651 0
M  V30 21259 H 2056.63 1.89352 -0.286039 0
M  V30 21260 H 2054.93 3.49481 1.77116 0
M  V30 21261 H 2056.63 3.73416 1.46155 0
M  V30 21262 H 2053.22 4.2838 0.137435 0
M  V30 21263 H 2057.41 4.92615 -0.603633 0
M  V30 21264 H 2052.66 5.89098 -1.63627 0
M  V30 21265 H 2056.84 6.54672 -2.37438 0
M  V30 21266 H 2054.46 7.02847 -2.89672 0
M  V30 21267 N 2056.04 -0.0835127 1.57379 0
M  V30 21268 C 2057.31 -0.817204 1.77711 0
M  V30 21269 C 2057.69 -1.9637 0.774736 0
M  V30 21270 O 2057.04 -2.27671 -0.194489 0
M  V30 21271 C 2057.25 -1.30104 3.23842 0
M  V30 21272 C 2058.6 -1.73916 3.87348 0
M  V30 21273 O 2059.62 -1.39699 3.27662 0
M  V30 21274 O 2058.48 -2.37224 4.92328 0
M  V30 21275 H 2055.58 -0.390677 0.728904 0
M  V30 21276 H 2058.12 -0.0644961 1.69577 0
M  V30 21277 H 2056.9 -0.480145 3.88343 0
M  V30 21278 H 2056.52 -2.11541 3.36654 0
M  V30 21279 N 2057.52 -1.53558 -0.354624 0
M  V30 21280 C 2058.76 -1.70523 -1.09772 0
M  V30 21281 C 2059.09 -0.461312 -1.88641 0
M  V30 21282 O 2058.37 0.541553 -1.86809 0
M  V30 21283 C 2058.65 -2.96191 -2.04799 0
M  V30 21284 C 2058.51 -4.30765 -1.29465 0
M  V30 21285 C 2059.82 -3.17493 -3.04772 0
M  V30 21286 H 2056.94 -0.620497 -0.397683 0
M  V30 21287 H 2059.59 -1.86214 -0.377395 0
M  V30 21288 H 2057.74 -2.82944 -2.66223 0
M  V30 21289 H 2059.41 -4.55844 -0.707409 0
M  V30 21290 H 2057.65 -4.29678 -0.596569 0
M  V30 21291 H 2058.32 -5.14852 -1.99076 0
M  V30 21292 H 2060.8 -3.29998 -2.53458 0
M  V30 21293 H 2059.67 -4.06838 -3.68476 0
M  V30 21294 H 2059.93 -2.33276 -3.75546 0
M  V30 21295 N 2058.99 0.615033 -1.45104 0
M  V30 21296 C 2059.92 1.73703 -1.56043 0
M  V30 21297 C 2060.9 1.65025 -0.412413 0
M  V30 21298 O 2062.09 1.83539 -0.634606 0
M  V30 21299 C 2059.22 3.12287 -1.51968 0
M  V30 21300 C 2058.17 3.35769 -2.65411 0
M  V30 21301 C 2057.5 4.74549 -2.46389 0
M  V30 21302 C 2058.8 3.26752 -4.07469 0
M  V30 21303 H 2060.49 1.64805 -2.4996 0
M  V30 21304 H 2058.04 0.791445 -1.203 0
M  V30 21305 H 2059.99 3.9057 -1.58219 0
M  V30 21306 H 2058.72 3.22008 -0.545769 0
M  V30 21307 H 2057.38 2.59874 -2.58575 0
M  V30 21308 H 2057.02 4.80994 -1.47153 0
M  V30 21309 H 2056.72 4.91217 -3.22458 0
M  V30 21310 H 2058.25 5.55041 -2.54482 0
M  V30 21311 H 2059.66 3.94918 -4.15587 0
M  V30 21312 H 2058.06 3.54952 -4.83869 0
M  V30 21313 H 2059.13 2.24305 -4.29902 0
M  V30 21314 N 2060.47 1.3227 0.85688 0
M  V30 21315 C 2061.4 1.16846 1.97179 0
M  V30 21316 C 2062.42 0.10404 1.62467 0
M  V30 21317 O 2063.61 0.352788 1.74979 0
M  V30 21318 C 2060.71 0.76585 3.30133 0
M  V30 21319 C 2059.88 1.91808 3.93101 0
M  V30 21320 C 2058.94 1.49939 5.04386 0
M  V30 21321 O 2057.96 2.21106 5.245 0
M  V30 21322 N 2059.17 0.394147 5.7916 0
M  V30 21323 H 2061.93 2.12882 2.10953 0
M  V30 21324 H 2059.49 1.24777 1.03161 0
M  V30 21325 H 2061.48 0.4682 4.01983 0
M  V30 21326 H 2060.05 -0.103295 3.12429 0
M  V30 21327 H 2059.27 2.38235 3.14067 0
M  V30 21328 H 2060.56 2.68952 4.31906 0
M  V30 21329 H 2059.96 -0.198236 5.65353 0
M  V30 21330 H 2058.52 0.156093 6.51613 0
M  V30 21331 N 2061.95 -1.07287 1.15444 0
M  V30 21332 C 2062.9 -2.14506 0.85181 0
M  V30 21333 C 2063.87 -1.64945 -0.195533 0
M  V30 21334 O 2065.05 -1.90696 -0.0629401 0
M  V30 21335 C 2062.19 -3.43341 0.347981 0
M  V30 21336 C 2061.3 -4.0669 1.45697 0
M  V30 21337 C 2060.44 -5.23361 0.9092 0
M  V30 21338 C 2059.48 -5.78673 1.99508 0
M  V30 21339 N 2058.62 -6.86675 1.46364 0
M  V30 21340 H 2063.46 -2.39733 1.77008 0
M  V30 21341 H 2060.99 -1.17635 0.883195 0
M  V30 21342 H 2062.95 -4.17183 0.0375747 0
M  V30 21343 H 2061.58 -3.18363 -0.53337 0
M  V30 21344 H 2060.63 -3.30495 1.88355 0
M  V30 21345 H 2061.94 -4.43806 2.2768 0
M  V30 21346 H 2061.1 -6.04189 0.551375 0
M  V30 21347 H 2059.84 -4.87665 0.0585544 0
M  V30 21348 H 2058.84 -4.9649 2.36173 0
M  V30 21349 H 2060.07 -6.16425 2.84952 0
M  V30 21350 H 2058.01 -6.52916 0.635365 0
M  V30 21351 H 2057.93 -7.22678 2.21973 0
M  V30 21352 H 2059.2 -7.71206 1.13408 0
M  V30 21353 N 2063.43 -0.951342 -1.25647 0
M  V30 21354 C 2064.67 -0.605246 -1.93558 0
M  V30 21355 C 2065.01 0.85507 -1.74362 0
M  V30 21356 O 2064.28 1.61308 -1.08674 0
M  V30 21357 C 2064.56 -0.960718 -3.47048 0
M  V30 21358 C 2064.42 -2.47652 -3.75484 0
M  V30 21359 C 2065.74 -0.483409 -4.37437 0
M  V30 21360 H 2062.86 -0.22136 -0.702971 0
M  V30 21361 H 2065.5 -1.1874 -1.48327 0
M  V30 21362 H 2063.65 -0.465324 -3.85703 0
M  V30 21363 H 2065.32 -3.04543 -3.46484 0
M  V30 21364 H 2063.56 -2.91564 -3.21205 0
M  V30 21365 H 2064.23 -2.67575 -4.82812 0
M  V30 21366 H 2066.71 -0.908309 -4.06065 0
M  V30 21367 H 2065.59 -0.760858 -5.43601 0
M  V30 21368 H 2065.85 0.616645 -4.37778 0
M  V30 21369 N 2064.91 1.40216 -0.719531 0
M  V30 21370 C 2066.13 2.05647 -0.269106 0
M  V30 21371 C 2066.56 1.53865 1.082 0
M  V30 21372 O 2065.91 0.675703 1.68238 0
M  V30 21373 C 2065.96 3.59636 -0.263433 0
M  V30 21374 O 2065.07 4.05448 0.754058 0
M  V30 21375 H 2064.41 0.652036 -0.12548 0
M  V30 21376 H 2066.94 1.79542 -0.981119 0
M  V30 21377 H 2066.95 4.07871 -0.102475 0
M  V30 21378 H 2065.62 3.9669 -1.24939 0
M  V30 21379 H 2064.2 3.68664 0.560502 0
M  V30 21380 N 2066.38 0.466004 1.50553 0
M  V30 21381 C 2067.61 -0.0885768 2.0671 0
M  V30 21382 C 2068.03 -1.33958 1.33044 0
M  V30 21383 O 2067.38 -1.78102 0.398219 0
M  V30 21384 C 2067.43 -0.381842 3.59478 0
M  V30 21385 O 2067.16 0.81954 4.30366 0
M  V30 21386 C 2068.66 -0.98395 4.32242 0
M  V30 21387 H 2065.88 0.00481473 0.670983 0
M  V30 21388 H 2068.42 0.653327 1.93783 0
M  V30 21389 H 2066.58 -1.07367 3.72224 0
M  V30 21390 H 2066.99 0.56106 5.21491 0
M  V30 21391 H 2068.46 -1.13895 5.40122 0
M  V30 21392 H 2068.94 -1.97271 3.92404 0
M  V30 21393 H 2069.55 -0.330654 4.24013 0
M  V30 21394 N 2067.86 -1.56346 0.198413 0
M  V30 21395 C 2068.79 -2.16476 -0.753037 0
M  V30 21396 C 2069.81 -1.12748 -1.17438 0
M  V30 21397 O 2071 -1.39827 -1.10953 0
M  V30 21398 C 2068.1 -2.71472 -2.0287 0
M  V30 21399 C 2067.27 -4.00136 -1.76663 0
M  V30 21400 C 2066.33 -4.39925 -2.88708 0
M  V30 21401 O 2065.35 -5.07283 -2.58173 0
M  V30 21402 N 2066.56 -4.03701 -4.1714 0
M  V30 21403 H 2069.32 -2.98747 -0.238812 0
M  V30 21404 H 2066.88 -1.61892 0.0165651 0
M  V30 21405 H 2068.87 -2.95073 -2.76973 0
M  V30 21406 H 2067.44 -1.93637 -2.45405 0
M  V30 21407 H 2066.66 -3.84633 -0.863216 0
M  V30 21408 H 2067.95 -4.84116 -1.56555 0
M  V30 21409 H 2067.35 -3.49528 -4.448 0
M  V30 21410 H 2065.91 -4.32245 -4.8786 0
M  V30 21411 N 2069.34 0.0751653 -1.57421 0
M  V30 21412 C 2070.27 1.09007 -2.06494 0
M  V30 21413 C 2071.25 1.40573 -0.957766 0
M  V30 21414 O 2072.44 1.50259 -1.23028 0
M  V30 21415 C 2069.57 2.40446 -2.50605 0
M  V30 21416 C 2068.52 2.2324 -3.65168 0
M  V30 21417 C 2067.85 3.60033 -3.95323 0
M  V30 21418 C 2069.15 1.65642 -4.95338 0
M  V30 21419 H 2070.84 0.681725 -2.91535 0
M  V30 21420 H 2068.39 0.326481 -1.4025 0
M  V30 21421 H 2070.34 3.11734 -2.83548 0
M  V30 21422 H 2069.06 2.83254 -1.62588 0
M  V30 21423 H 2067.72 1.54393 -3.32503 0
M  V30 21424 H 2067.37 4.00404 -3.04443 0
M  V30 21425 H 2067.07 3.4936 -4.72463 0
M  V30 21426 H 2068.59 4.32757 -4.30759 0
M  V30 21427 H 2070.01 2.26793 -5.26534 0
M  V30 21428 H 2068.41 1.65675 -5.76777 0
M  V30 21429 H 2069.48 0.617593 -4.80951 0
M  V30 21430 N 2070.82 1.53744 0.346476 0
M  V30 21431 C 2071.77 1.81527 1.42536 0
M  V30 21432 C 2072.74 0.660781 1.52391 0
M  V30 21433 O 2073.92 0.904918 1.67976 0
M  V30 21434 C 2071.06 2.02795 2.79228 0
M  V30 21435 C 2070.17 3.30508 2.78188 0
M  V30 21436 C 2069.31 3.41859 4.06578 0
M  V30 21437 C 2068.35 4.63532 3.99755 0
M  V30 21438 N 2067.48 4.71933 5.1983 0
M  V30 21439 H 2072.32 2.7358 1.18144 0
M  V30 21440 H 2069.86 1.35508 0.572368 0
M  V30 21441 H 2071.82 2.13115 3.58661 0
M  V30 21442 H 2070.45 1.14059 3.01978 0
M  V30 21443 H 2069.5 3.29044 1.90877 0
M  V30 21444 H 2070.81 4.20033 2.69024 0
M  V30 21445 H 2069.97 3.51595 4.94435 0
M  V30 21446 H 2068.71 2.50385 4.1852 0
M  V30 21447 H 2067.71 4.53876 3.10284 0
M  V30 21448 H 2068.94 5.56368 3.89399 0
M  V30 21449 H 2066.88 3.83367 5.32321 0
M  V30 21450 H 2066.8 5.5539 5.12911 0
M  V30 21451 H 2068.07 4.85975 6.09466 0
M  V30 21452 N 2072.3 -0.607329 1.45428 0
M  V30 21453 C 2073.52 -1.39296 1.52984 0
M  V30 21454 C 2073.94 -1.88099 0.162539 0
M  V30 21455 O 2073.3 -1.62229 -0.835945 0
M  V30 21456 C 2073.35 -2.59727 2.51444 0
M  V30 21457 O 2073.07 -2.12952 3.82862 0
M  V30 21458 C 2074.57 -3.52583 2.68701 0
M  V30 21459 H 2071.79 -0.426391 0.518104 0
M  V30 21460 H 2074.33 -0.740646 1.90617 0
M  V30 21461 H 2072.49 -3.20999 2.16883 0
M  V30 21462 H 2072.9 -2.91201 4.36237 0
M  V30 21463 H 2074.38 -4.33629 3.4157 0
M  V30 21464 H 2074.85 -4.0294 1.74746 0
M  V30 21465 H 2075.46 -2.97163 3.0426 0
M  V30 21466 N 2073.77 -1.32722 -0.849853 0
M  V30 21467 C 2074.72 -1.22024 -1.98023 0
M  V30 21468 C 2075.72 -0.12398 -1.68946 0
M  V30 21469 O 2076.92 -0.287223 -1.77694 0
M  V30 21470 H 2073.3 -0.378378 -0.649873 0
M  V30 21471 H 2075.27 -2.17614 -2.04173 0
M  V30 21472 C 2074.02 -0.965076 -3.34038 0
M  V30 21473 H 2073.34 -1.80084 -3.56945 0
M  V30 21474 H 2074.78 -0.93048 -4.13664 0
M  V30 21475 C 2073.24 0.332137 -3.35259 0
M  V30 21476 O 2073.77 1.34244 -3.78604 0
M  V30 21477 N 2071.98 0.355806 -2.88414 0
M  V30 21478 H 2071.52 -0.46689 -2.53334 0
M  V30 21479 H 2071.48 1.2236 -2.89613 0
M  V30 21480 N 2075.25 1.06673 -1.16011 0
M  V30 21481 C 2076.18 2.16027 -0.886249 0
M  V30 21482 C 2077.16 1.69289 0.165907 0
M  V30 21483 O 2078.35 1.94191 0.0188181 0
M  V30 21484 C 2075.48 3.45189 -0.382329 0
M  V30 21485 C 2074.43 4.05415 -1.37195 0
M  V30 21486 C 2073.76 5.2974 -0.726594 0
M  V30 21487 C 2075.06 4.44642 -2.74027 0
M  V30 21488 H 2076.75 2.39195 -1.80073 0
M  V30 21489 H 2074.3 1.14957 -0.867232 0
M  V30 21490 H 2076.25 4.21023 -0.17824 0
M  V30 21491 H 2074.98 3.21629 0.567641 0
M  V30 21492 H 2073.63 3.31634 -1.56252 0
M  V30 21493 H 2073.28 5.02475 0.229742 0
M  V30 21494 H 2072.98 5.70993 -1.38709 0
M  V30 21495 H 2074.51 6.08274 -0.532437 0
M  V30 21496 H 2075.92 5.11574 -2.58775 0
M  V30 21497 H 2074.32 4.96868 -3.36515 0
M  V30 21498 H 2075.39 3.55684 -3.29571 0
M  V30 21499 N 2076.73 0.957992 1.25141 0
M  V30 21500 C 2077.96 0.631888 1.97015 0
M  V30 21501 C 2078.37 -0.796708 1.71167 0
M  V30 21502 O 2077.73 -1.53335 0.989683 0
M  V30 21503 C 2077.78 0.885137 3.50496 0
M  V30 21504 O 2077.5 2.25756 3.75454 0
M  V30 21505 C 2079 0.571882 4.39596 0
M  V30 21506 H 2076.22 0.236606 0.6279 0
M  V30 21507 H 2078.77 1.28328 1.59224 0
M  V30 21508 H 2076.92 0.280102 3.86386 0
M  V30 21509 H 2077.34 2.33023 4.69894 0
M  V30 21510 H 2078.81 0.799598 5.46178 0
M  V30 21511 H 2079.29 -0.493643 4.36417 0
M  V30 21512 H 2079.89 1.15639 4.09277 0
M  V30 21513 N 2078.21 -1.39832 0.726957 0
M  V30 21514 C 2079.43 -2.05501 0.280008 0
M  V30 21515 C 2079.86 -1.54436 -1.07383 0
M  V30 21516 O 2079.22 -0.684615 -1.67877 0
M  V30 21517 C 2079.26 -3.59492 0.282502 0
M  V30 21518 O 2078.37 -4.05842 -0.732546 0
M  V30 21519 H 2077.71 -0.651361 0.128936 0
M  V30 21520 H 2080.24 -1.79019 0.990626 0
M  V30 21521 H 2080.25 -4.07811 0.124104 0
M  V30 21522 H 2078.92 -3.96022 1.27041 0
M  V30 21523 H 2077.5 -3.68956 -0.540943 0
M  V30 21524 N 2079.69 -0.473982 -1.50304 0
M  V30 21525 C 2080.93 0.0801282 -2.02642 0
M  V30 21526 C 2081.27 1.3911 -1.35506 0
M  V30 21527 O 2080.54 1.8844 -0.481719 0
M  V30 21528 C 2080.82 0.26092 -3.59153 0
M  V30 21529 C 2080.68 -1.07128 -4.36857 0
M  V30 21530 C 2082 1.01413 -4.28256 0
M  V30 21531 H 2079.11 0.0276467 -0.736481 0
M  V30 21532 H 2081.76 -0.620135 -1.79595 0
M  V30 21533 H 2079.91 0.857378 -3.78921 0
M  V30 21534 H 2081.58 -1.70454 -4.28653 0
M  V30 21535 H 2079.82 -1.66721 -4.00483 0
M  V30 21536 H 2080.49 -0.898389 -5.4464 0
M  V30 21537 H 2082.97 0.508536 -4.12981 0
M  V30 21538 H 2081.84 1.10943 -5.37571 0
M  V30 21539 H 2082.11 2.05141 -3.91624 0
M  V30 21540 N 2081.16 1.56239 -0.206702 0
M  V30 21541 C 2082.39 2.02291 0.434267 0
M  V30 21542 C 2082.81 1.08672 1.54388 0
M  V30 21543 O 2082.16 0.0936387 1.8226 0
M  V30 21544 C 2082.22 3.47969 0.97978 0
M  V30 21545 O 2081.94 4.38016 -0.0855779 0
M  V30 21546 C 2083.44 4.09596 1.69548 0
M  V30 21547 H 2080.66 0.662272 0.107873 0
M  V30 21548 H 2083.2 2.02 -0.318809 0
M  V30 21549 H 2081.36 3.48923 1.68319 0
M  V30 21550 H 2081.77 5.2351 0.32218 0
M  V30 21551 H 2083.24 5.13343 2.02935 0
M  V30 21552 H 2083.72 3.53727 2.60334 0
M  V30 21553 H 2084.33 4.12448 1.03764 0
M  V30 21554 N 2082.64 -0.0668159 1.57458 0
M  V30 21555 C 2083.59 -1.07888 2.04031 0
M  V30 21556 C 2084.56 -1.38168 0.921889 0
M  V30 21557 O 2085.74 -1.49151 1.1899 0
M  V30 21558 C 2082.88 -2.38598 2.49329 0
M  V30 21559 C 2082 -2.14805 3.7481 0
M  V30 21560 C 2081.13 -3.39114 4.0887 0
M  V30 21561 C 2080.17 -3.10708 5.27377 0
M  V30 21562 N 2079.31 -4.27361 5.57052 0
M  V30 21563 H 2084.15 -0.674755 2.9026 0
M  V30 21564 H 2081.69 -0.321602 1.43541 0
M  V30 21565 H 2083.64 -3.14919 2.73646 0
M  V30 21566 H 2082.27 -2.76804 1.6607 0
M  V30 21567 H 2081.33 -1.29154 3.57804 0
M  V30 21568 H 2082.64 -1.89826 4.61267 0
M  V30 21569 H 2081.79 -4.23827 4.34114 0
M  V30 21570 H 2080.53 -3.67174 3.2099 0
M  V30 21571 H 2079.54 -2.24392 5.01925 0
M  V30 21572 H 2080.76 -2.83966 6.16879 0
M  V30 21573 H 2078.71 -4.55443 4.72131 0
M  V30 21574 H 2078.62 -4.05673 6.37938 0
M  V30 21575 H 2079.89 -5.13057 5.8685 0
M  V30 21576 N 2084.12 -1.53926 -0.338317 0
M  V30 21577 C 2085.07 -1.82986 -1.43592 0
M  V30 21578 C 2086.06 -0.700699 -1.54229 0
M  V30 21579 O 2087.27 -0.884124 -1.5679 0
M  V30 21580 H 2083.64 -0.579808 -0.47888 0
M  V30 21581 H 2085.62 -2.74804 -1.16299 0
M  V30 21582 C 2084.36 -2.06092 -2.80038 0
M  V30 21583 H 2083.69 -2.92433 -2.72622 0
M  V30 21584 H 2085.13 -2.30388 -3.55946 0
M  V30 21585 C 2083.59 -0.848002 -3.26053 0
M  V30 21586 O 2084.12 -0.0499866 -4.01669 0
M  V30 21587 N 2082.32 -0.663759 -2.82918 0
M  V30 21588 H 2081.87 -1.31433 -2.21547 0
M  V30 21589 H 2081.83 0.146319 -3.14059 0
M  V30 21590 N 2085.6 0.599608 -1.45748 0
M  V30 21591 C 2087.02 0.921212 -1.3033 0
M  V30 21592 C 2087.22 1.99787 -0.262213 0
M  V30 21593 O 2086.27 2.50186 0.34109 0
M  V30 21594 C 2087.58 1.35457 -2.68462 0
M  V30 21595 C 2089.13 1.46835 -2.76421 0
M  V30 21596 C 2089.61 1.93544 -4.15096 0
M  V30 21597 N 2091.1 2.00765 -4.1743 0
M  V30 21598 C 2091.83 2.38145 -5.21608 0
M  V30 21599 N 2091.33 2.74437 -6.36126 0
M  V30 21600 N 2093.12 2.38554 -5.08968 0
M  V30 21601 H 2085.27 -0.111892 -2.12105 0
M  V30 21602 H 2087.54 0.0126042 -0.947916 0
M  V30 21603 H 2087.24 0.63759 -3.45872 0
M  V30 21604 H 2087.12 2.31951 -2.97453 0
M  V30 21605 H 2089.5 2.17623 -1.99309 0
M  V30 21606 H 2089.58 0.486356 -2.51134 0
M  V30 21607 H 2089.23 1.2334 -4.92696 0
M  V30 21608 H 2089.16 2.92672 -4.3778 0
M  V30 21609 H 2091.65 1.75275 -3.34794 0
M  V30 21610 H 2091.96 3.01865 -7.11405 0
M  V30 21611 H 2090.31 2.72115 -6.39514 0
M  V30 21612 H 2093.5 2.09612 -4.18546 0
M  V30 21613 H 2093.67 2.67359 -5.90274 0
M  V30 21614 N 2087.08 1.33171 0.842803 0
M  V30 21615 C 2088.04 1.23019 1.93388 0
M  V30 21616 C 2089.04 0.15022 1.60097 0
M  V30 21617 O 2090.23 0.401472 1.69511 0
M  V30 21618 C 2087.36 0.89468 3.2895 0
M  V30 21619 H 2088.56 2.19997 2.03817 0
M  V30 21620 H 2086.11 1.17173 1.03442 0
M  V30 21621 H 2086.84 -0.0727774 3.24218 0
M  V30 21622 H 2086.63 1.67563 3.54493 0
M  V30 21623 H 2088.12 0.848284 4.08894 0
M  V30 21624 N 2088.56 -1.06056 1.16576 0
M  V30 21625 C 2089.83 -1.75733 0.858908 0
M  V30 21626 C 2090.21 -2.01077 -0.642746 0
M  V30 21627 O 2089.56 -1.63981 -1.5913 0
M  V30 21628 C 2089.77 -3.0567 1.68425 0
M  V30 21629 C 2091.12 -3.7978 1.89874 0
M  V30 21630 O 2092.14 -3.15517 1.65311 0
M  V30 21631 O 2091 -4.95232 2.311 0
M  V30 21632 H 2088.1 -0.763759 0.317177 0
M  V30 21633 H 2090.64 -1.12303 1.27225 0
M  V30 21634 H 2089.41 -2.82923 2.70315 0
M  V30 21635 H 2089.04 -3.76835 1.26811 0
M  V30 21636 N 2090.03 -0.964615 -1.24631 0
M  V30 21637 C 2090.98 -0.49166 -2.25502 0
M  V30 21638 C 2091.95 0.46115 -1.5957 0
M  V30 21639 O 2093.14 0.372197 -1.87135 0
M  V30 21640 C 2090.28 0.214964 -3.4443 0
M  V30 21641 C 2089.39 -0.776253 -4.24969 0
M  V30 21642 C 2088.52 -0.0460512 -5.3118 0
M  V30 21643 C 2087.56 -1.02754 -6.03414 0
M  V30 21644 N 2086.7 -0.327547 -7.01336 0
M  V30 21645 H 2091.54 -1.35669 -2.65326 0
M  V30 21646 H 2089.08 -0.68015 -1.30431 0
M  V30 21647 H 2091.03 0.641314 -4.12241 0
M  V30 21648 H 2089.66 1.04397 -3.05452 0
M  V30 21649 H 2088.72 -1.32105 -3.56724 0
M  V30 21650 H 2090.03 -1.52481 -4.74922 0
M  V30 21651 H 2089.18 0.438447 -6.05114 0
M  V30 21652 H 2087.92 0.735226 -4.82126 0
M  V30 21653 H 2086.93 -1.52294 -5.28286 0
M  V30 21654 H 2088.15 -1.80921 -6.54557 0
M  V30 21655 H 2086.1 0.43481 -6.54557 0
M  V30 21656 H 2086.01 -1.01503 -7.49155 0
M  V30 21657 H 2087.28 0.135085 -7.79383 0
M  V30 21658 N 2091.51 1.39445 -0.734362 0
M  V30 21659 C 2092.46 2.32452 -0.0830804 0
M  V30 21660 C 2093.45 1.53028 0.726556 0
M  V30 21661 O 2094.66 1.68697 0.627813 0
M  V30 21662 H 2091.03 0.751957 -0.00806559 0
M  V30 21663 H 2093.01 2.85008 -0.883901 0
M  V30 21664 C 2091.75 3.38121 0.810522 0
M  V30 21665 H 2091.08 3.99315 0.196919 0
M  V30 21666 H 2092.52 4.0565 1.23385 0
M  V30 21667 C 2090.98 2.75118 1.94453 0
M  V30 21668 O 2091.51 2.62913 3.0371 0
M  V30 21669 N 2089.71 2.33215 1.73376 0
M  V30 21670 H 2089.26 2.43341 0.845144 0
M  V30 21671 H 2089.22 1.914 2.49426 0
M  V30 21672 N 2092.99 0.481946 1.5005 0
M  V30 21673 C 2093.95 -0.295344 2.27289 0
M  V30 21674 C 2094.95 -0.910886 1.32512 0
M  V30 21675 O 2096.14 -0.778377 1.55843 0
M  V30 21676 C 2093.27 -1.42179 3.09835 0
M  V30 21677 H 2094.47 0.382176 2.97455 0
M  V30 21678 H 2092.02 0.236325 1.54503 0
M  V30 21679 H 2092.76 -2.13404 2.44191 0
M  V30 21680 H 2092.54 -0.986087 3.79498 0
M  V30 21681 H 2094.03 -1.96982 3.68223 0
M  V30 21682 N 2094.47 -1.56127 0.214985 0
M  V30 21683 C 2095.72 -1.97304 -0.41881 0
M  V30 21684 C 2096.03 -1.10547 -1.61366 0
M  V30 21685 O 2097.24 -1.41593 -2.31654 0
M  V30 21686 C 2095.69 -3.50975 -0.796509 0
M  V30 21687 C 2095.3 -4.46426 0.375156 0
M  V30 21688 C 2097.04 -4.0088 -1.39627 0
M  V30 21689 C 2094.95 -5.91395 -0.0246118 0
M  V30 21690 H 2093.88 -0.736775 -0.160246 0
M  V30 21691 H 2096.53 -1.8086 0.310157 0
M  V30 21692 H 2094.91 -3.62996 -1.58271 0
M  V30 21693 H 2096.09 -4.46149 1.15271 0
M  V30 21694 H 2094.4 -4.06827 0.887721 0
M  V30 21695 H 2097 -5.06681 -1.70816 0
M  V30 21696 H 2097.34 -3.46346 -2.30977 0
M  V30 21697 H 2097.88 -3.92055 -0.673641 0
M  V30 21698 H 2094.61 -6.49897 0.855201 0
M  V30 21699 H 2094.13 -5.94881 -0.766611 0
M  V30 21700 H 2095.81 -6.45408 -0.453573 0
M  V30 21701 N 2095.95 0.0584645 -1.57492 0
M  V30 21702 C 2096.9 1.07525 -2.01053 0
M  V30 21703 C 2097.88 1.33726 -0.894772 0
M  V30 21704 O 2099.07 1.33803 -1.15869 0
M  V30 21705 C 2096.2 2.38516 -2.46911 0
M  V30 21706 C 2095.29 2.15532 -3.65249 0
M  V30 21707 N 2095.68 1.62515 -4.78981 0
M  V30 21708 C 2093.98 2.45948 -3.72056 0
M  V30 21709 C 2094.68 1.54656 -5.60764 0
M  V30 21710 N 2093.65 2.01181 -5.05002 0
M  V30 21711 H 2097.45 0.658876 -2.86419 0
M  V30 21712 H 2094.97 0.265312 -1.60218 0
M  V30 21713 H 2096.97 3.12135 -2.76365 0
M  V30 21714 H 2095.63 2.80858 -1.62938 0
M  V30 21715 H 2096.64 1.31192 -5.01008 0
M  V30 21716 H 2093.31 2.91566 -2.98824 0
M  V30 21717 H 2094.7 1.14405 -6.62088 0
M  V30 21718 N 2097.42 1.54103 0.330149 0
M  V30 21719 C 2098.37 1.83745 1.4262 0
M  V30 21720 C 2099.37 0.708869 1.53855 0
M  V30 21721 O 2100.57 0.892427 1.56319 0
M  V30 21722 H 2096.95 0.58234 0.475799 0
M  V30 21723 H 2098.92 2.75417 1.1484 0
M  V30 21724 C 2097.67 2.07574 2.78941 0
M  V30 21725 H 2096.99 2.93875 2.71068 0
M  V30 21726 H 2098.43 2.32273 3.54719 0
M  V30 21727 C 2096.89 0.865282 3.25599 0
M  V30 21728 O 2097.42 0.0712874 4.01637 0
M  V30 21729 N 2095.62 0.678754 2.82562 0
M  V30 21730 H 2095.17 1.32607 2.20847 0
M  V30 21731 H 2095.13 -0.129662 3.14133 0
M  V30 21732 N 2098.9 -0.59187 1.46064 0
M  V30 21733 C 2099.85 -1.69625 1.52352 0
M  V30 21734 C 2100.84 -1.56219 0.385282 0
M  V30 21735 O 2102.03 -1.65289 0.633129 0
M  V30 21736 C 2099.16 -3.08403 1.50807 0
M  V30 21737 C 2098.24 -3.27138 2.69891 0
M  V30 21738 N 2098.63 -3.1607 3.94884 0
M  V30 21739 C 2096.93 -3.58053 2.65921 0
M  V30 21740 C 2097.63 -3.36563 4.74447 0
M  V30 21741 N 2096.61 -3.6129 4.06165 0
M  V30 21742 H 2100.41 -1.59585 2.468 0
M  V30 21743 H 2097.93 -0.795623 1.41575 0
M  V30 21744 H 2099.92 -3.87653 1.53398 0
M  V30 21745 H 2098.58 -3.19581 0.574291 0
M  V30 21746 H 2099.59 -2.94133 4.2627 0
M  V30 21747 H 2096.27 -3.75972 1.81524 0
M  V30 21748 H 2097.66 -3.33266 5.83424 0
M  V30 21749 N 2100.38 -1.33616 -0.835729 0
M  V30 21750 C 2101.63 -1.24597 -1.58614 0
M  V30 21751 C 2101.94 0.185813 -1.94715 0
M  V30 21752 O 2103.15 0.398045 -2.68566 0
M  V30 21753 C 2101.6 -2.18339 -2.86105 0
M  V30 21754 C 2101.21 -3.66705 -2.57355 0
M  V30 21755 C 2102.96 -2.182 -3.64128 0
M  V30 21756 C 2100.86 -4.52352 -3.80962 0
M  V30 21757 H 2099.79 -0.462802 -0.595256 0
M  V30 21758 H 2102.44 -1.58701 -0.921212 0
M  V30 21759 H 2100.83 -1.77172 -3.54156 0
M  V30 21760 H 2102 -4.16331 -1.97496 0
M  V30 21761 H 2100.32 -3.69164 -1.92631 0
M  V30 21762 H 2102.91 -2.79417 -4.55884 0
M  V30 21763 H 2103.26 -1.17789 -3.99289 0
M  V30 21764 H 2103.79 -2.57745 -3.03005 0
M  V30 21765 H 2100.53 -5.5365 -3.5093 0
M  V30 21766 H 2100.05 -4.07467 -4.40149 0
M  V30 21767 H 2101.73 -4.66315 -4.48508 0
M  V30 21768 N 2101.86 1.05436 -1.17136 0
M  V30 21769 C 2103.27 1.30549 -0.918108 0
M  V30 21770 C 2103.47 1.96985 0.424152 0
M  V30 21771 O 2102.53 2.24189 1.1617 0
M  V30 21772 C 2103.84 2.17768 -2.07358 0
M  V30 21773 C 2105.39 2.31158 -2.11033 0
M  V30 21774 C 2105.87 3.21737 -3.25959 0
M  V30 21775 N 2107.36 3.29322 -3.25731 0
M  V30 21776 C 2108.09 3.99526 -4.11299 0
M  V30 21777 N 2107.59 4.72178 -5.06971 0
M  V30 21778 N 2109.38 3.95665 -3.99256 0
M  V30 21779 H 2101.53 0.607118 -2.03538 0
M  V30 21780 H 2103.8 0.330298 -0.888599 0
M  V30 21781 H 2103.5 1.7624 -3.04356 0
M  V30 21782 H 2103.38 3.18394 -2.02251 0
M  V30 21783 H 2105.76 2.71929 -1.14623 0
M  V30 21784 H 2105.84 1.30171 -2.20203 0
M  V30 21785 H 2105.49 2.8168 -4.22633 0
M  V30 21786 H 2105.42 4.22724 -3.14025 0
M  V30 21787 H 2107.91 2.77555 -2.5646 0
M  V30 21788 H 2108.22 5.233 -5.68662 0
M  V30 21789 H 2106.57 4.71129 -5.10943 0
M  V30 21790 H 2109.76 3.3803 -3.2381 0
M  V30 21791 H 2109.93 4.50108 -4.66161 0
M  V30 21792 N 2103.34 0.971211 1.24118 0
M  V30 21793 C 2104.27 0.523167 2.27564 0
M  V30 21794 C 2105.25 -0.438983 1.64338 0
M  V30 21795 O 2106.43 -0.334345 1.913 0
M  V30 21796 C 2103.56 -0.184078 3.46812 0
M  V30 21797 C 2102.52 0.694439 4.22329 0
M  V30 21798 C 2101.84 -0.144498 5.34505 0
M  V30 21799 C 2103.14 1.98076 4.83284 0
M  V30 21800 H 2104.84 1.3878 2.65293 0
M  V30 21801 H 2102.38 0.668756 1.27529 0
M  V30 21802 H 2104.34 -0.508765 4.18318 0
M  V30 21803 H 2103.06 -1.08309 3.08118 0
M  V30 21804 H 2101.72 1.00245 3.52628 0
M  V30 21805 H 2101.37 -1.04377 4.92051 0
M  V30 21806 H 2101.07 0.440127 5.85949 0
M  V30 21807 H 2102.59 -0.463776 6.08836 0
M  V30 21808 H 2104 1.72143 5.46845 0
M  V30 21809 H 2102.4 2.5124 5.44976 0
M  V30 21810 H 2103.47 2.67346 4.04542 0
M  V30 21811 N 2104.81 -1.39054 0.741747 0
M  V30 21812 C 2106.06 -2.00374 0.292655 0
M  V30 21813 C 2106.39 -1.58866 -1.12214 0
M  V30 21814 O 2105.64 -0.811946 -1.78062 0
M  V30 21815 C 2105.94 -3.55684 0.349795 0
M  V30 21816 C 2105.61 -4.16865 1.71856 0
M  V30 21817 C 2104.27 -4.33289 2.09318 0
M  V30 21818 C 2106.62 -4.50738 2.61696 0
M  V30 21819 C 2103.95 -4.80878 3.36115 0
M  V30 21820 C 2106.3 -4.99738 3.87872 0
M  V30 21821 C 2104.97 -5.14369 4.25418 0
M  V30 21822 H 2104.24 -0.733221 0.10709 0
M  V30 21823 H 2106.88 -1.6628 0.949911 0
M  V30 21824 H 2105.19 -3.89844 -0.391034 0
M  V30 21825 H 2106.89 -4.00997 -0.0159237 0
M  V30 21826 H 2103.48 -4.04488 1.41731 0
M  V30 21827 H 2107.66 -4.37661 2.34022 0
M  V30 21828 H 2102.92 -4.90391 3.6514 0
M  V30 21829 H 2107.09 -5.24919 4.57638 0
M  V30 21830 H 2104.72 -5.51005 5.23734 0
M  V30 21831 N 2106.29 -0.489897 -1.49792 0
M  V30 21832 C 2107.2 0.29927 -2.32683 0
M  V30 21833 C 2108.22 0.978042 -1.43911 0
M  V30 21834 O 2109.39 0.961875 -1.76946 0
M  V30 21835 C 2106.46 1.35623 -3.19073 0
M  V30 21836 C 2105.52 0.692067 -4.23685 0
M  V30 21837 C 2104.75 1.69866 -5.05946 0
M  V30 21838 O 2104.98 2.92732 -4.89555 0
M  V30 21839 O 2103.91 1.2601 -5.88562 0
M  V30 21840 H 2107.74 -0.378894 -3.01327 0
M  V30 21841 H 2105.32 -0.251411 -1.47269 0
M  V30 21842 H 2107.2 1.96801 -3.72622 0
M  V30 21843 H 2105.88 2.01752 -2.53136 0
M  V30 21844 H 2104.79 0.040831 -3.74078 0
M  V30 21845 H 2106.12 0.0734074 -4.92145 0
M  V30 21846 N 2107.77 1.56011 -0.223262 0
M  V30 21847 C 2109.18 1.84523 0.284276 0
M  V30 21848 C 2109.53 1.14468 1.59347 0
M  V30 21849 O 2108.66 0.414932 2.12385 0
M  V30 21850 C 2109.25 3.34746 0.522566 0
M  V30 21851 C 2107.81 3.63569 0.974409 0
M  V30 21852 C 2106.96 2.77273 0.038428 0
M  V30 21853 H 2109.91 1.52292 -0.446413 0
M  V30 21854 H 2109.93 3.55044 1.36835 0
M  V30 21855 H 2109.44 3.85705 -0.430453 0
M  V30 21856 H 2107.54 3.18067 1.94073 0
M  V30 21857 H 2107.66 4.71542 0.847634 0
M  V30 21858 H 2106.02 2.48789 0.545532 0
M  V30 21859 H 2106.8 3.31032 -0.909539 0
M  V30 21860 N 2109.25 -0.0501116 1.5752 0
M  V30 21861 C 2110.18 -1.05708 2.08202 0
M  V30 21862 C 2111.16 -1.39032 0.980009 0
M  V30 21863 O 2112.34 -1.48283 1.25403 0
M  V30 21864 C 2109.47 -2.36429 2.54399 0
M  V30 21865 C 2108.43 -2.17402 3.68674 0
M  V30 21866 C 2107.75 -3.53698 4.01001 0
M  V30 21867 C 2109.05 -1.57741 4.97911 0
M  V30 21868 H 2110.75 -0.635258 2.92583 0
M  V30 21869 H 2108.29 -0.304127 1.40752 0
M  V30 21870 H 2110.25 -3.07184 2.88472 0
M  V30 21871 H 2108.97 -2.80631 1.67074 0
M  V30 21872 H 2107.63 -1.49084 3.34917 0
M  V30 21873 H 2107.28 -3.9551 3.10774 0
M  V30 21874 H 2106.98 -3.418 4.77961 0
M  V30 21875 H 2108.5 -4.25849 4.3759 0
M  V30 21876 H 2109.92 -2.18387 5.30075 0
M  V30 21877 H 2108.31 -1.56478 5.7934 0
M  V30 21878 H 2109.38 -0.540999 4.81873 0
M  V30 21879 N 2110.73 -1.54276 -0.321972 0
M  V30 21880 C 2111.97 -1.72813 -1.0613 0
M  V30 21881 C 2112.31 -0.501222 -1.8762 0
M  V30 21882 O 2111.58 0.501806 -1.87915 0
M  V30 21883 C 2111.86 -3.00469 -1.9847 0
M  V30 21884 C 2111.72 -4.33415 -1.20299 0
M  V30 21885 C 2113.04 -3.23886 -2.97969 0
M  V30 21886 H 2110.15 -0.628793 -0.384432 0
M  V30 21887 H 2112.8 -1.86973 -0.337811 0
M  V30 21888 H 2110.95 -2.88528 -2.60161 0
M  V30 21889 H 2112.62 -4.57242 -0.610559 0
M  V30 21890 H 2110.86 -4.30847 -0.505293 0
M  V30 21891 H 2111.53 -5.18959 -1.8811 0
M  V30 21892 H 2114.01 -3.353 -2.46401 0
M  V30 21893 H 2112.88 -4.14562 -3.59763 0
M  V30 21894 H 2113.15 -2.4119 -3.70513 0
M  V30 21895 N 2112.2 0.584116 -1.46376 0
M  V30 21896 C 2113.45 1.33858 -1.5088 0
M  V30 21897 C 2113.77 1.94909 -0.164319 0
M  V30 21898 O 2114.97 2.7136 -0.0871554 0
M  V30 21899 C 2113.43 2.42594 -2.6585 0
M  V30 21900 C 2113.04 1.87853 -4.06713 0
M  V30 21901 C 2114.78 3.19391 -2.79624 0
M  V30 21902 C 2112.69 2.94209 -5.13026 0
M  V30 21903 H 2111.62 0.503207 -0.561515 0
M  V30 21904 H 2114.27 0.623507 -1.72582 0
M  V30 21905 H 2112.65 3.16894 -2.37475 0
M  V30 21906 H 2113.82 1.20105 -4.44872 0
M  V30 21907 H 2112.14 1.23726 -3.97594 0
M  V30 21908 H 2114.74 3.98763 -3.56219 0
M  V30 21909 H 2115.08 3.71891 -1.8709 0
M  V30 21910 H 2115.61 2.52197 -3.07638 0
M  V30 21911 H 2112.35 2.46598 -6.07347 0
M  V30 21912 H 2111.87 3.6045 -4.79412 0
M  V30 21913 H 2113.55 3.58184 -5.38807 0
M  V30 21914 N 2113.68 1.34058 0.828631 0
M  V30 21915 C 2114.63 1.25161 1.93916 0
M  V30 21916 C 2115.6 0.128041 1.65606 0
M  V30 21917 O 2116.79 0.308053 1.88297 0
M  V30 21918 C 2113.93 1.00718 3.30075 0
M  V30 21919 C 2113.04 2.21797 3.70716 0
M  V30 21920 C 2112.17 1.90684 4.95795 0
M  V30 21921 C 2111.21 3.07938 5.29 0
M  V30 21922 N 2110.35 2.76746 6.45257 0
M  V30 21923 H 2115.19 2.20137 2.00857 0
M  V30 21924 H 2112.73 1.09455 0.982754 0
M  V30 21925 H 2114.68 0.845864 4.08535 0
M  V30 21926 H 2113.31 0.0941257 3.22663 0
M  V30 21927 H 2112.37 2.48869 2.87695 0
M  V30 21928 H 2113.68 3.09421 3.91229 0
M  V30 21929 H 2112.83 1.71255 5.82028 0
M  V30 21930 H 2111.57 1.00312 4.77272 0
M  V30 21931 H 2110.58 3.27969 4.41267 0
M  V30 21932 H 2111.8 3.9908 5.49465 0
M  V30 21933 H 2109.75 1.88944 6.28201 0
M  V30 21934 H 2109.66 3.57901 6.65915 0
M  V30 21935 H 2110.93 2.60808 7.34574 0
M  V30 21936 N 2115.16 -1.04814 1.17694 0
M  V30 21937 C 2116.12 -2.10819 0.899339 0
M  V30 21938 C 2117.12 -1.60409 -0.112116 0
M  V30 21939 O 2118.31 -1.73783 0.120484 0
M  V30 21940 C 2115.45 -3.39121 0.34786 0
M  V30 21941 H 2116.64 -2.36878 1.83926 0
M  V30 21942 H 2114.19 -1.21119 0.987923 0
M  V30 21943 H 2114.93 -3.1872 -0.599026 0
M  V30 21944 H 2114.71 -3.77022 1.07688 0
M  V30 21945 H 2116.2 -4.17245 0.172084 0
M  V30 21946 N 2116.64 -0.977779 -1.23601 0
M  V30 21947 C 2117.57 -0.535228 -2.27283 0
M  V30 21948 C 2118.55 0.430261 -1.64568 0
M  V30 21949 O 2119.74 0.324195 -1.91475 0
M  V30 21950 C 2116.87 0.165683 -3.46905 0
M  V30 21951 C 2115.82 -0.716827 -4.21954 0
M  V30 21952 C 2115.15 0.116149 -5.34574 0
M  V30 21953 C 2116.45 -2.00636 -4.82227 0
M  V30 21954 H 2118.14 -1.40185 -2.64553 0
M  V30 21955 H 2115.69 -0.67551 -1.27173 0
M  V30 21956 H 2117.64 0.486573 -4.18581 0
M  V30 21957 H 2116.36 1.06674 -3.08688 0
M  V30 21958 H 2115.02 -1.02114 -3.52091 0
M  V30 21959 H 2114.67 1.01766 -4.92598 0
M  V30 21960 H 2114.37 -0.471195 -5.85708 0
M  V30 21961 H 2115.89 0.431481 -6.09074 0
M  V30 21962 H 2117.31 -1.75041 -5.45925 0
M  V30 21963 H 2115.7 -2.54126 -5.43636 0
M  V30 21964 H 2116.77 -2.69488 -4.03118 0
M  V30 21965 N 2118.12 1.38658 -0.749111 0
M  V30 21966 C 2119.06 2.30496 -0.118423 0
M  V30 21967 C 2120.03 1.49947 0.714492 0
M  V30 21968 O 2121.22 1.78591 0.671546 0
M  V30 21969 C 2118.36 3.3635 0.772186 0
M  V30 21970 C 2117.47 4.31935 -0.0748716 0
M  V30 21971 C 2116.61 5.24859 0.818323 0
M  V30 21972 C 2115.65 6.12091 -0.0326386 0
M  V30 21973 N 2114.78 6.97327 0.817267 0
M  V30 21974 H 2119.62 2.83856 -0.90718 0
M  V30 21975 H 2117.16 1.39755 -0.459001 0
M  V30 21976 H 2119.12 3.96326 1.30313 0
M  V30 21977 H 2117.75 2.84411 1.52677 0
M  V30 21978 H 2116.8 3.73458 -0.723395 0
M  V30 21979 H 2118.11 4.93396 -0.732237 0
M  V30 21980 H 2117.27 5.8993 1.4166 0
M  V30 21981 H 2116.01 4.63754 1.50943 0
M  V30 21982 H 2115.01 5.4602 -0.643614 0
M  V30 21983 H 2116.24 6.75264 -0.720742 0
M  V30 21984 H 2114.18 6.38775 1.49341 0
M  V30 21985 H 2114.1 7.55689 0.216698 0
M  V30 21986 H 2115.37 7.66813 1.40066 0
M  V30 21987 N 2119.6 0.497834 1.49531 0
M  V30 21988 C 2120.53 -0.318951 2.2697 0
M  V30 21989 C 2121.54 -0.933444 1.33382 0
M  V30 21990 O 2122.73 -0.81732 1.58689 0
M  V30 21991 C 2119.83 -1.46375 3.05659 0
M  V30 21992 C 2119 -0.957146 4.26799 0
M  V30 21993 C 2118.06 -1.97917 4.8756 0
M  V30 21994 O 2117.09 -1.54899 5.47718 0
M  V30 21995 N 2118.29 -3.30935 4.7693 0
M  V30 21996 H 2121.05 0.345053 2.97707 0
M  V30 21997 H 2118.62 0.330191 1.58497 0
M  V30 21998 H 2120.61 -2.14495 3.43182 0
M  V30 21999 H 2119.18 -2.03196 2.3755 0
M  V30 22000 H 2118.4 -0.100949 3.94071 0
M  V30 22001 H 2119.69 -0.597028 5.05285 0
M  V30 22002 H 2119.08 -3.68576 4.29149 0
M  V30 22003 H 2117.64 -3.94778 5.18646 0
M  V30 22004 N 2121.07 -1.5589 0.231532 0
M  V30 22005 C 2122.3 -2.02662 -0.401447 0
M  V30 22006 C 2122.71 -1.11044 -1.53186 0
M  V30 22007 O 2122.05 -0.114263 -1.83344 0
M  V30 22008 C 2122.12 -3.45741 -0.985048 0
M  V30 22009 C 2121.78 -4.56999 0.0111732 0
M  V30 22010 C 2122.78 -5.13469 0.815178 0
M  V30 22011 C 2120.46 -5.02124 0.132817 0
M  V30 22012 C 2122.46 -6.13546 1.72743 0
M  V30 22013 C 2120.14 -6.02036 1.0486 0
M  V30 22014 C 2121.14 -6.57624 1.84444 0
M  V30 22015 O 2120.83 -7.55589 2.74481 0
M  V30 22016 H 2120.56 -0.668353 -0.101391 0
M  V30 22017 H 2123.12 -2.02424 0.348401 0
M  V30 22018 H 2121.35 -3.4308 -1.78417 0
M  V30 22019 H 2123.03 -3.76103 -1.52648 0
M  V30 22020 H 2123.8 -4.79449 0.731703 0
M  V30 22021 H 2119.68 -4.5853 -0.476536 0
M  V30 22022 H 2123.22 -6.5686 2.34905 0
M  V30 22023 H 2119.12 -6.35478 1.13305 0
M  V30 22024 H 2119.89 -7.73149 2.68668 0
M  V30 22025 N 2122.55 0.0417572 -1.57545 0
M  V30 22026 C 2123.78 0.747215 -1.92936 0
M  V30 22027 C 2124.19 1.69567 -0.830209 0
M  V30 22028 O 2123.55 1.81462 0.194363 0
M  V30 22029 C 2123.6 1.51519 -3.28214 0
M  V30 22030 O 2123.32 0.604825 -4.33905 0
M  V30 22031 C 2124.82 2.31896 -3.77809 0
M  V30 22032 H 2122.04 0.210755 -0.637043 0
M  V30 22033 H 2124.59 0.00306497 -2.045 0
M  V30 22034 H 2122.74 2.21134 -3.18086 0
M  V30 22035 H 2123.16 1.14205 -5.11916 0
M  V30 22036 H 2124.63 2.81194 -4.75009 0
M  V30 22037 H 2125.11 3.12759 -3.08348 0
M  V30 22038 H 2125.71 1.6738 -3.90978 0
M  V30 22039 N 2124.03 1.54445 0.313786 0
M  V30 22040 C 2125.26 1.77093 1.06985 0
M  V30 22041 C 2125.67 0.524216 1.81376 0
M  V30 22042 O 2125.03 -0.505482 1.7536 0
M  V30 22043 C 2125.08 2.97038 2.06036 0
M  V30 22044 O 2124.8 4.1689 1.34665 0
M  V30 22045 C 2126.3 3.31974 2.93783 0
M  V30 22046 H 2123.52 0.590955 0.317826 0
M  V30 22047 H 2126.07 2.01361 0.356942 0
M  V30 22048 H 2124.22 2.75015 2.72847 0
M  V30 22049 H 2124.64 4.84425 2.01078 0
M  V30 22050 H 2126.11 4.19176 3.5916 0
M  V30 22051 H 2126.59 2.49567 3.61404 0
M  V30 22052 H 2127.19 3.5611 2.3252 0
M  V30 22053 N 2125.51 -0.576345 1.46683 0
M  V30 22054 C 2126.74 -1.3602 1.55905 0
M  V30 22055 C 2127.15 -1.87712 0.202401 0
M  V30 22056 O 2126.51 -1.63966 -0.801346 0
M  V30 22057 C 2126.56 -2.54335 2.56897 0
M  V30 22058 O 2126.28 -2.04783 3.87293 0
M  V30 22059 C 2127.78 -3.46804 2.7612 0
M  V30 22060 H 2125 -0.415305 0.527032 0
M  V30 22061 H 2127.54 -0.700047 1.92145 0
M  V30 22062 H 2125.7 -3.16326 2.23644 0
M  V30 22063 H 2126.11 -2.81882 4.42315 0
M  V30 22064 H 2127.59 -4.26286 3.50691 0
M  V30 22065 H 2128.06 -3.99143 1.83253 0
M  V30 22066 H 2128.67 -2.90643 3.10495 0
M  V30 22067 N 2126.99 -1.34495 -0.82151 0
M  V30 22068 C 2128.21 -1.30011 -1.60949 0
M  V30 22069 C 2128.63 0.125523 -1.88382 0
M  V30 22070 O 2127.99 1.07303 -1.47623 0
M  V30 22071 C 2128.04 -2.09003 -2.94957 0
M  V30 22072 O 2127.76 -3.46007 -2.68721 0
M  V30 22073 C 2129.26 -2.11933 -3.89358 0
M  V30 22074 H 2126.48 -0.447203 -0.500251 0
M  V30 22075 H 2129.02 -1.7713 -1.02202 0
M  V30 22076 H 2127.18 -1.65523 -3.50258 0
M  V30 22077 H 2127.59 -3.86856 -3.54179 0
M  V30 22078 H 2129.07 -2.71623 -4.80547 0
M  V30 22079 H 2129.54 -1.11409 -4.24835 0
M  V30 22080 H 2130.15 -2.55508 -3.39993 0
M  V30 22081 N 2128.46 1.04188 -1.18248 0
M  V30 22082 C 2129.7 1.78933 -0.988049 0
M  V30 22083 C 2130.07 1.86056 0.474043 0
M  V30 22084 O 2131.27 2.56994 0.787877 0
M  V30 22085 C 2129.54 3.184 -1.62347 0
M  V30 22086 S 2131.1 4.09497 -1.57663 0
M  V30 22087 H 2127.92 0.616126 -0.354837 0
M  V30 22088 H 2130.52 1.24936 -1.5037 0
M  V30 22089 H 2129.22 3.10824 -2.67986 0
M  V30 22090 H 2128.75 3.77473 -1.10805 0
M  V30 22091 H 2130.77 4.9266 -0.591661 0
M  V30 22092 N 2129.94 0.98432 1.23081 0
M  V30 22093 C 2131.19 0.656352 1.91885 0
M  V30 22094 C 2131.52 -0.808541 1.76568 0
M  V30 22095 O 2130.8 -1.5837 1.12912 0
M  V30 22096 C 2131.08 1.05239 3.44379 0
M  V30 22097 C 2130.93 2.57521 3.68786 0
M  V30 22098 C 2132.25 0.599218 4.36002 0
M  V30 22099 H 2129.37 0.23992 0.696855 0
M  V30 22100 H 2132.01 1.22631 1.45127 0
M  V30 22101 H 2130.16 0.567423 3.84334 0
M  V30 22102 H 2131.83 3.13622 3.38288 0
M  V30 22103 H 2130.08 2.99978 3.13362 0
M  V30 22104 H 2130.75 2.80282 4.75548 0
M  V30 22105 H 2133.22 1.01565 4.03514 0
M  V30 22106 H 2132.1 0.904717 5.41393 0
M  V30 22107 H 2132.36 -0.500359 4.39259 0
M  V30 22108 N 2131.42 -1.38259 0.756453 0
M  V30 22109 C 2132.35 -2.2902 0.0908208 0
M  V30 22110 C 2133.37 -1.47887 -0.680684 0
M  V30 22111 O 2134.55 -1.70718 -0.521301 0
M  V30 22112 C 2131.65 -3.26859 -0.895342 0
M  V30 22113 C 2130.83 -4.37026 -0.180877 0
M  V30 22114 C 2129.89 -5.15035 -1.0782 0
M  V30 22115 O 2128.91 -5.66559 -0.547658 0
M  V30 22116 N 2130.11 -5.28291 -2.40602 0
M  V30 22117 H 2132.88 -2.86785 0.870302 0
M  V30 22118 H 2130.44 -1.50071 0.607483 0
M  V30 22119 H 2132.43 -3.75926 -1.49873 0
M  V30 22120 H 2131 -2.69972 -1.57588 0
M  V30 22121 H 2130.22 -3.89557 0.603252 0
M  V30 22122 H 2131.51 -5.07834 0.313403 0
M  V30 22123 H 2130.91 -4.87986 -2.86158 0
M  V30 22124 H 2129.47 -5.80721 -2.95984 0
M  V30 22125 N 2132.9 -0.505757 -1.49264 0
M  V30 22126 C 2133.83 0.259368 -2.32055 0
M  V30 22127 C 2134.81 0.95808 -1.40552 0
M  V30 22128 O 2135.99 0.948562 -1.69458 0
M  V30 22129 C 2133.12 1.32138 -3.2118 0
M  V30 22130 C 2132.08 0.742267 -4.21514 0
M  V30 22131 C 2131.4 1.90515 -4.99608 0
M  V30 22132 C 2132.7 -0.269866 -5.21602 0
M  V30 22133 H 2134.4 -0.431697 -2.96271 0
M  V30 22134 H 2131.94 -0.209055 -1.42474 0
M  V30 22135 H 2133.9 1.86441 -3.77912 0
M  V30 22136 H 2132.62 2.0417 -2.54916 0
M  V30 22137 H 2131.28 0.220956 -3.65934 0
M  V30 22138 H 2130.93 2.61327 -4.29788 0
M  V30 22139 H 2130.63 1.52371 -5.67501 0
M  V30 22140 H 2132.15 2.45242 -5.59186 0
M  V30 22141 H 2133.57 0.18519 -5.73001 0
M  V30 22142 H 2131.96 -0.567397 -5.97412 0
M  V30 22143 H 2133.03 -1.18411 -4.7022 0
M  V30 22144 N 2134.38 1.55765 -0.239796 0
M  V30 22145 C 2135.31 2.18397 0.695377 0
M  V30 22146 C 2136.32 1.15822 1.14407 0
M  V30 22147 O 2137.51 1.4272 1.07207 0
M  V30 22148 C 2134.61 2.76755 1.95601 0
M  V30 22149 C 2133.78 4.0468 1.65992 0
M  V30 22150 C 2132.84 4.47425 2.76943 0
M  V30 22151 O 2131.87 5.13949 2.44632 0
M  V30 22152 N 2133.07 4.14619 4.0629 0
M  V30 22153 H 2135.84 2.99275 0.15952 0
M  V30 22154 H 2133.4 1.61791 -0.0594819 0
M  V30 22155 H 2135.39 3.02313 2.69052 0
M  V30 22156 H 2133.96 2.00075 2.40185 0
M  V30 22157 H 2133.18 3.86786 0.760934 0
M  V30 22158 H 2134.47 4.88096 1.43664 0
M  V30 22159 H 2133.86 3.61198 4.35376 0
M  V30 22160 H 2132.42 4.45028 4.76228 0
M  V30 22161 N 2135.85 -0.0334016 1.57565 0
M  V30 22162 C 2136.8 -1.03536 2.06274 0
M  V30 22163 C 2137.77 -1.36182 0.950989 0
M  V30 22164 O 2138.96 -1.46593 1.22127 0
M  V30 22165 C 2136.1 -2.33256 2.54334 0
M  V30 22166 C 2135.21 -2.06807 3.79282 0
M  V30 22167 C 2134.34 -3.30365 4.15971 0
M  V30 22168 C 2133.38 -2.99452 5.33849 0
M  V30 22169 N 2132.52 -4.15449 5.65991 0
M  V30 22170 H 2137.36 -0.613034 2.91626 0
M  V30 22171 H 2134.9 -0.291083 1.44191 0
M  V30 22172 H 2136.86 -3.09044 2.80264 0
M  V30 22173 H 2135.49 -2.73219 1.71905 0
M  V30 22174 H 2134.54 -1.21536 3.60463 0
M  V30 22175 H 2135.85 -1.8 4.6519 0
M  V30 22176 H 2135 -4.14524 4.43007 0
M  V30 22177 H 2133.74 -3.60282 3.28706 0
M  V30 22178 H 2132.75 -2.13695 5.06571 0
M  V30 22179 H 2133.97 -2.70817 6.22764 0
M  V30 22180 H 2131.92 -4.45326 4.81686 0
M  V30 22181 H 2131.84 -3.9205 6.464 0
M  V30 22182 H 2133.1 -5.00494 5.976 0
M  V30 22183 N 2137.33 -1.54609 -0.305591 0
M  V30 22184 C 2138.26 -1.81607 -1.39826 0
M  V30 22185 C 2139.28 -0.698812 -1.47039 0
M  V30 22186 O 2140.47 -0.976217 -1.4944 0
M  V30 22187 C 2137.57 -1.93493 -2.78233 0
M  V30 22188 C 2136.74 -3.23849 -2.94008 0
M  V30 22189 C 2135.8 -3.26209 -4.12885 0
M  V30 22190 O 2134.82 -3.99763 -4.05189 0
M  V30 22191 N 2136.03 -2.51272 -5.233 0
M  V30 22192 H 2138.79 -2.75909 -1.17023 0
M  V30 22193 H 2136.35 -1.54126 -0.495646 0
M  V30 22194 H 2138.34 -1.92479 -3.55997 0
M  V30 22195 H 2136.91 -1.06208 -2.94005 0
M  V30 22196 H 2136.13 -3.37674 -2.03395 0
M  V30 22197 H 2137.42 -4.0988 -3.01456 0
M  V30 22198 H 2136.82 -1.91135 -5.32432 0
M  V30 22199 H 2135.38 -2.56017 -5.99415 0
M  V30 22200 N 2138.81 0.568558 -1.46987 0
M  V30 22201 C 2140.06 1.32819 -1.53255 0
M  V30 22202 C 2140.39 1.93274 -0.189458 0
M  V30 22203 O 2139.66 1.77254 0.800699 0
M  V30 22204 C 2139.95 2.44688 -2.64196 0
M  V30 22205 C 2139.8 1.89176 -4.08084 0
M  V30 22206 C 2141.12 3.46671 -2.71122 0
M  V30 22207 H 2138.24 0.481565 -0.557911 0
M  V30 22208 H 2140.88 0.637355 -1.78991 0
M  V30 22209 H 2139.03 3.03617 -2.42382 0
M  V30 22210 H 2140.7 1.34596 -4.41227 0
M  V30 22211 H 2138.95 1.19918 -4.16896 0
M  V30 22212 H 2139.62 2.69995 -4.81463 0
M  V30 22213 H 2142.09 2.97645 -2.90769 0
M  V30 22214 H 2140.97 4.22387 -3.50543 0
M  V30 22215 H 2141.23 4.04802 -1.7773 0
M  V30 22216 N 2140.29 1.34929 0.814366 0
M  V30 22217 C 2141.22 1.29866 1.94055 0
M  V30 22218 C 2142.2 0.174504 1.69203 0
M  V30 22219 O 2143.38 0.368232 1.90677 0
M  V30 22220 C 2140.51 1.06201 3.30664 0
M  V30 22221 C 2139.47 2.15174 3.69978 0
M  V30 22222 C 2138.79 1.76686 5.04664 0
M  V30 22223 C 2140.09 3.57077 3.81174 0
M  V30 22224 H 2141.79 2.24095 1.98549 0
M  V30 22225 H 2139.33 1.07877 0.953865 0
M  V30 22226 H 2141.29 1.01301 4.09043 0
M  V30 22227 H 2140.01 0.0841549 3.26492 0
M  V30 22228 H 2138.67 2.19158 2.9388 0
M  V30 22229 H 2138.32 0.775388 4.96988 0
M  V30 22230 H 2138.02 2.49628 5.3194 0
M  V30 22231 H 2139.54 1.73297 5.85492 0
M  V30 22232 H 2140.96 3.55458 4.49803 0
M  V30 22233 H 2139.35 4.28713 4.19911 0
M  V30 22234 H 2140.42 3.93795 2.82937 0
M  V30 22235 N 2141.77 -1.0356 1.18799 0
M  V30 22236 C 2143.04 -1.73872 0.895991 0
M  V30 22237 C 2143.42 -2.02395 -0.59995 0
M  V30 22238 O 2142.77 -1.6732 -1.55616 0
M  V30 22239 C 2142.98 -3.02028 1.74871 0
M  V30 22240 C 2144.33 -3.75667 1.97887 0
M  V30 22241 O 2145.35 -3.11939 1.71966 0
M  V30 22242 O 2144.21 -4.90219 2.41553 0
M  V30 22243 H 2141.31 -0.756859 0.333306 0
M  V30 22244 H 2143.85 -1.09579 1.29578 0
M  V30 22245 H 2142.62 -2.77126 2.76256 0
M  V30 22246 H 2142.25 -3.7406 1.34776 0
M  V30 22247 N 2143.25 -0.990834 -1.22557 0
M  V30 22248 C 2144.18 -0.559304 -2.26703 0
M  V30 22249 C 2145.16 0.412782 -1.65016 0
M  V30 22250 O 2146.34 0.303868 -1.91808 0
M  V30 22251 C 2143.47 0.12888 -3.47061 0
M  V30 22252 C 2142.43 -0.76154 -4.2117 0
M  V30 22253 C 2141.75 0.0594442 -5.34667 0
M  V30 22254 C 2143.05 -2.0574 -4.80071 0
M  V30 22255 H 2144.75 -1.42983 -2.63052 0
M  V30 22256 H 2142.29 -0.68896 -1.26449 0
M  V30 22257 H 2144.24 0.44215 -4.19074 0
M  V30 22258 H 2142.97 1.03394 -3.09802 0
M  V30 22259 H 2141.63 -1.05842 -3.50989 0
M  V30 22260 H 2141.28 0.965355 -4.9365 0
M  V30 22261 H 2140.98 -0.533291 -5.85175 0
M  V30 22262 H 2142.5 0.366857 -6.09497 0
M  V30 22263 H 2143.91 -1.80821 -5.44037 0
M  V30 22264 H 2142.31 -2.59878 -5.4091 0
M  V30 22265 H 2143.38 -2.73748 -4.00237 0
M  V30 22266 N 2144.72 1.37856 -0.763775 0
M  V30 22267 C 2145.65 2.32961 -0.158515 0
M  V30 22268 C 2146.63 1.55381 0.692142 0
M  V30 22269 O 2147.82 1.83655 0.631241 0
M  V30 22270 C 2144.95 3.39593 0.727585 0
M  V30 22271 C 2143.9 4.27995 -0.0211379 0
M  V30 22272 C 2143.23 5.2557 0.983884 0
M  V30 22273 C 2144.53 5.08434 -1.1955 0
M  V30 22274 H 2146.22 2.83828 -0.952999 0
M  V30 22275 H 2143.77 1.36465 -0.459721 0
M  V30 22276 H 2145.72 4.05098 1.16076 0
M  V30 22277 H 2144.45 2.87233 1.5545 0
M  V30 22278 H 2143.11 3.6401 -0.435002 0
M  V30 22279 H 2142.75 4.69493 1.80514 0
M  V30 22280 H 2142.45 5.85574 0.487507 0
M  V30 22281 H 2143.98 5.9395 1.41616 0
M  V30 22282 H 2145.39 5.67122 -0.839372 0
M  V30 22283 H 2143.79 5.77724 -1.62342 0
M  V30 22284 H 2144.86 4.41575 -2.00349 0
M  V30 22285 N 2146.2 0.513665 1.48994 0
M  V30 22286 C 2147.16 -0.247066 2.27864 0
M  V30 22287 C 2148.16 -0.882574 1.34415 0
M  V30 22288 O 2149.35 -0.745145 1.57459 0
M  V30 22289 C 2146.49 -1.35575 3.12782 0
M  V30 22290 H 2147.68 0.445185 2.96577 0
M  V30 22291 H 2145.23 0.269045 1.53967 0
M  V30 22292 H 2145.97 -2.08176 2.48663 0
M  V30 22293 H 2145.75 -0.905368 3.81504 0
M  V30 22294 H 2147.24 -1.89127 3.72318 0
M  V30 22295 N 2147.68 -1.55636 0.248053 0
M  V30 22296 C 2148.61 -2.18762 -0.683786 0
M  V30 22297 C 2149.62 -1.16427 -1.13791 0
M  V30 22298 O 2150.81 -1.43286 -1.06449 0
M  V30 22299 C 2147.91 -2.77789 -1.9413 0
M  V30 22300 C 2147.09 -4.05554 -1.63843 0
M  V30 22301 C 2146.15 -4.48887 -2.74566 0
M  V30 22302 O 2145.17 -5.15239 -2.41903 0
M  V30 22303 N 2146.37 -4.16768 -4.04085 0
M  V30 22304 H 2149.14 -2.99356 -0.143647 0
M  V30 22305 H 2146.7 -1.61757 0.0680612 0
M  V30 22306 H 2148.69 -3.03735 -2.67445 0
M  V30 22307 H 2147.26 -2.01346 -2.3912 0
M  V30 22308 H 2146.48 -3.87184 -0.740411 0
M  V30 22309 H 2147.77 -4.88851 -1.41074 0
M  V30 22310 H 2147.17 -3.63502 -4.33455 0
M  V30 22311 H 2145.72 -4.47548 -4.73861 0
M  V30 22312 N 2149.16 0.0250451 -1.5758 0
M  V30 22313 C 2150.09 1.02382 -2.09857 0
M  V30 22314 C 2151.07 1.37455 -1.002 0
M  V30 22315 O 2152.25 1.46269 -1.27746 0
M  V30 22316 C 2149.38 2.32351 -2.58128 0
M  V30 22317 C 2148.34 2.11509 -3.72086 0
M  V30 22318 C 2147.66 3.47274 -4.06577 0
M  V30 22319 C 2148.96 1.49799 -5.00357 0
M  V30 22320 H 2150.66 0.58863 -2.93557 0
M  V30 22321 H 2148.2 0.281696 -1.41218 0
M  V30 22322 H 2150.16 3.02556 -2.93322 0
M  V30 22323 H 2148.88 2.77938 -1.71518 0
M  V30 22324 H 2147.54 1.43737 -3.37247 0
M  V30 22325 H 2147.19 3.90516 -3.17027 0
M  V30 22326 H 2146.89 3.34153 -4.83338 0
M  V30 22327 H 2148.41 4.18834 -4.44309 0
M  V30 22328 H 2149.83 2.09927 -5.33483 0
M  V30 22329 H 2148.22 1.47241 -5.81756 0
M  V30 22330 H 2149.29 0.464269 -4.82672 0
M  V30 22331 N 2150.64 1.54769 0.297388 0
M  V30 22332 C 2151.88 1.74479 1.03367 0
M  V30 22333 C 2152.21 0.531007 1.86799 0
M  V30 22334 O 2151.49 -0.471847 1.8869 0
M  V30 22335 C 2151.77 3.03588 1.93665 0
M  V30 22336 C 2151.63 4.35274 1.13389 0
M  V30 22337 C 2152.94 3.28586 2.92779 0
M  V30 22338 H 2150.06 0.63483 0.37438 0
M  V30 22339 H 2152.71 1.87487 0.308023 0
M  V30 22340 H 2150.86 2.9263 2.55538 0
M  V30 22341 H 2152.53 4.58155 0.537739 0
M  V30 22342 H 2150.77 4.31596 0.436685 0
M  V30 22343 H 2151.44 5.21886 1.7983 0
M  V30 22344 H 2153.92 3.39177 2.41035 0
M  V30 22345 H 2152.79 4.20233 3.53122 0
M  V30 22346 H 2153.05 2.47054 3.66629 0
M  V30 22347 N 2152.11 -0.560755 1.47286 0
M  V30 22348 C 2153.05 -1.68324 1.55562 0
M  V30 22349 C 2154.06 -1.56682 0.442105 0
M  V30 22350 O 2155.25 -1.63705 0.711545 0
M  V30 22351 C 2152.35 -3.06762 1.44049 0
M  V30 22352 C 2151.52 -3.44193 2.69907 0
M  V30 22353 C 2150.58 -4.6178 2.52281 0
M  V30 22354 O 2149.61 -4.66538 3.26084 0
M  V30 22355 N 2150.81 -5.5805 1.59876 0
M  V30 22356 H 2153.57 -1.61672 2.52353 0
M  V30 22357 H 2151.13 -0.747304 1.43621 0
M  V30 22358 H 2153.13 -3.83253 1.29997 0
M  V30 22359 H 2151.7 -3.0766 0.553546 0
M  V30 22360 H 2150.92 -2.57186 2.98746 0
M  V30 22361 H 2152.2 -3.65975 3.53468 0
M  V30 22362 H 2151.6 -5.56959 0.990593 0
M  V30 22363 H 2150.16 -6.33882 1.51778 0
M  V30 22364 N 2153.59 -1.35359 -0.807199 0
M  V30 22365 C 2154.52 -1.30893 -1.93363 0
M  V30 22366 C 2155.5 -0.183475 -1.69108 0
M  V30 22367 O 2156.69 -0.378339 -1.90479 0
M  V30 22368 C 2153.82 -1.07954 -3.30096 0
M  V30 22369 C 2152.77 -2.17133 -3.68832 0
M  V30 22370 C 2152.1 -1.7936 -5.0372 0
M  V30 22371 C 2153.4 -3.59094 -3.79274 0
M  V30 22372 H 2155.09 -2.25145 -1.97357 0
M  V30 22373 H 2152.64 -1.08381 -0.948131 0
M  V30 22374 H 2154.59 -1.03469 -4.085 0
M  V30 22375 H 2153.31 -0.101468 -3.26442 0
M  V30 22376 H 2151.97 -2.20714 -2.92713 0
M  V30 22377 H 2151.62 -0.801733 -4.96569 0
M  V30 22378 H 2151.32 -2.52445 -5.30608 0
M  V30 22379 H 2152.85 -1.764 -5.84564 0
M  V30 22380 H 2154.26 -3.57839 -4.47911 0
M  V30 22381 H 2152.66 -4.30934 -4.17632 0
M  V30 22382 H 2153.73 -3.9529 -2.80845 0
M  V30 22383 N 2155.07 1.02928 -1.19346 0
M  V30 22384 C 2156.49 1.28572 -0.945592 0
M  V30 22385 C 2156.69 1.97841 0.382273 0
M  V30 22386 O 2155.74 2.26603 1.11388 0
M  V30 22387 C 2157.05 2.13321 -2.11931 0
M  V30 22388 C 2158.6 2.2663 -2.15889 0
M  V30 22389 C 2159.08 3.14751 -3.3271 0
M  V30 22390 N 2160.57 3.22339 -3.32644 0
M  V30 22391 C 2161.3 3.90712 -4.19681 0
M  V30 22392 N 2160.8 4.61319 -5.16872 0
M  V30 22393 N 2162.59 3.87107 -4.07559 0
M  V30 22394 H 2154.74 0.563808 -2.0478 0
M  V30 22395 H 2157.01 0.311375 -0.895405 0
M  V30 22396 H 2156.71 1.69745 -3.08025 0
M  V30 22397 H 2156.59 3.14032 -2.08959 0
M  V30 22398 H 2158.97 2.69437 -1.20365 0
M  V30 22399 H 2159.05 1.25471 -2.22914 0
M  V30 22400 H 2158.7 2.72652 -4.28513 0
M  V30 22401 H 2158.63 4.15968 -3.22921 0
M  V30 22402 H 2161.12 2.72052 -2.6229 0
M  V30 22403 H 2161.43 5.1112 -5.79634 0
M  V30 22404 H 2159.78 4.60185 -5.20821 0
M  V30 22405 H 2162.97 3.31086 -3.30908 0
M  V30 22406 H 2163.14 4.40119 -4.75604 0
M  V30 22407 N 2156.55 0.997319 1.2203 0
M  V30 22408 C 2157.79 0.676667 1.91178 0
M  V30 22409 C 2158.13 -0.789768 1.77416 0
M  V30 22410 O 2157.4 -1.57163 1.14586 0
M  V30 22411 C 2157.68 1.08886 3.43243 0
M  V30 22412 C 2157.54 2.61418 3.66034 0
M  V30 22413 C 2158.86 0.645428 4.35342 0
M  V30 22414 H 2155.98 0.247298 0.694271 0
M  V30 22415 H 2158.62 1.24163 1.43818 0
M  V30 22416 H 2156.77 0.608155 3.8371 0
M  V30 22417 H 2158.44 3.17192 3.34943 0
M  V30 22418 H 2156.68 3.03284 3.10163 0
M  V30 22419 H 2157.35 2.8531 4.72549 0
M  V30 22420 H 2159.83 1.05839 4.02414 0
M  V30 22421 H 2158.71 0.962088 5.40403 0
M  V30 22422 H 2158.97 -0.453741 4.39765 0
M  V30 22423 N 2158.03 -1.37449 0.771075 0
M  V30 22424 C 2158.97 -2.3215 0.144682 0
M  V30 22425 C 2159.97 -1.549 -0.685728 0
M  V30 22426 O 2161.17 -1.70302 -0.582865 0
M  V30 22427 H 2157.55 -0.751479 0.0279996 0
M  V30 22428 H 2159.52 -2.82565 0.959155 0
M  V30 22429 C 2158.27 -3.40151 -0.720591 0
M  V30 22430 H 2157.59 -3.99696 -0.0909784 0
M  V30 22431 H 2159.03 -4.08779 -1.12586 0
M  V30 22432 C 2157.49 -2.80177 -1.8709 0
M  V30 22433 O 2158.02 -2.70873 -2.96632 0
M  V30 22434 N 2156.23 -2.3773 -1.67132 0
M  V30 22435 H 2155.77 -2.45497 -0.780329 0
M  V30 22436 H 2155.73 -1.97946 -2.44263 0
M  V30 22437 N 2159.5 -0.52156 -1.4872 0
M  V30 22438 C 2160.73 0.0117795 -2.06597 0
M  V30 22439 C 2161.14 1.29478 -1.37957 0
M  V30 22440 O 2160.49 1.77894 -0.458208 0
M  V30 22441 C 2160.55 0.314883 -3.58118 0
M  V30 22442 C 2160.21 -0.873397 -4.48576 0
M  V30 22443 C 2161.21 -1.76953 -4.8886 0
M  V30 22444 C 2158.89 -1.07801 -4.90596 0
M  V30 22445 C 2160.89 -2.85425 -5.69922 0
M  V30 22446 C 2158.57 -2.16589 -5.7143 0
M  V30 22447 C 2159.57 -3.05234 -6.11 0
M  V30 22448 O 2159.26 -4.1214 -6.90214 0
M  V30 22449 H 2158.99 -0.0265589 -0.675478 0
M  V30 22450 H 2161.55 -0.724145 -1.92212 0
M  V30 22451 H 2159.78 1.10467 -3.70586 0
M  V30 22452 H 2161.47 0.789292 -3.98152 0
M  V30 22453 H 2162.23 -1.62335 -4.57026 0
M  V30 22454 H 2158.11 -0.397342 -4.59284 0
M  V30 22455 H 2161.65 -3.54643 -6.00728 0
M  V30 22456 H 2157.55 -2.31193 -6.02677 0
M  V30 22457 H 2158.32 -4.09746 -7.08555 0
M  V30 22458 N 2160.98 1.55502 -0.256304 0
M  V30 22459 C 2162.22 2.01074 0.367234 0
M  V30 22460 C 2162.59 1.14068 1.54443 0
M  V30 22461 O 2163.79 1.49137 2.23633 0
M  V30 22462 C 2162.06 3.49274 0.757773 0
M  V30 22463 S 2163.62 4.16848 1.37051 0
M  V30 22464 H 2160.44 0.701616 0.115132 0
M  V30 22465 H 2163.04 1.91894 -0.373739 0
M  V30 22466 H 2161.74 4.10257 -0.108147 0
M  V30 22467 H 2161.27 3.624 1.53069 0
M  V30 22468 H 2163.29 4.18913 2.65944 0
M  V30 22469 N 2162.46 -0.0166879 1.57591 0
M  V30 22470 C 2163.39 -1.01268 2.10398 0
M  V30 22471 C 2164.37 -1.36922 1.00928 0
M  V30 22472 O 2165.56 -1.45589 1.2852 0
M  V30 22473 C 2162.69 -2.30979 2.59357 0
M  V30 22474 C 2161.64 -2.09533 3.73202 0
M  V30 22475 C 2160.97 -3.45113 4.08413 0
M  V30 22476 C 2162.27 -1.47144 5.01145 0
M  V30 22477 H 2163.96 -0.573053 2.93865 0
M  V30 22478 H 2161.51 -0.274203 1.41365 0
M  V30 22479 H 2163.46 -3.00996 2.94923 0
M  V30 22480 H 2162.18 -2.77024 1.72989 0
M  V30 22481 H 2160.84 -1.41946 3.38004 0
M  V30 22482 H 2160.49 -3.88829 3.19094 0
M  V30 22483 H 2160.19 -3.31585 4.85104 0
M  V30 22484 H 2161.71 -4.16472 4.46524 0
M  V30 22485 H 2163.13 -2.07094 5.34588 0
M  V30 22486 H 2161.53 -1.44154 5.82529 0
M  V30 22487 H 2162.6 -0.438665 4.82912 0
M  V30 22488 N 2163.94 -1.54924 -0.289176 0
M  V30 22489 C 2164.87 -1.89696 -1.36153 0
M  V30 22490 C 2165.85 -0.757081 -1.52323 0
M  V30 22491 O 2167.03 -1.01384 -1.65635 0
M  V30 22492 C 2164.16 -2.15468 -2.7238 0
M  V30 22493 C 2163.12 -3.31307 -2.70961 0
M  V30 22494 C 2162.44 -3.42522 -4.10588 0
M  V30 22495 C 2163.74 -4.68117 -2.31655 0
M  V30 22496 H 2165.44 -2.79513 -1.07299 0
M  V30 22497 H 2162.98 -1.34486 -0.514723 0
M  V30 22498 H 2164.94 -2.3838 -3.47495 0
M  V30 22499 H 2163.66 -1.22435 -3.02783 0
M  V30 22500 H 2162.32 -3.08337 -1.98302 0
M  V30 22501 H 2161.97 -2.46985 -4.38187 0
M  V30 22502 H 2161.67 -4.20397 -4.10537 0
M  V30 22503 H 2163.19 -3.67708 -4.87466 0
M  V30 22504 H 2164.61 -4.9068 -2.96489 0
M  V30 22505 H 2163 -5.4879 -2.42796 0
M  V30 22506 H 2164.07 -4.68033 -1.26781 0
M  V30 22507 N 2165.42 0.552936 -1.47582 0
M  V30 22508 C 2166.69 1.31381 -1.44908 0
M  V30 22509 C 2167.07 2.10578 -0.148323 0
M  V30 22510 O 2166.42 2.11283 0.870167 0
M  V30 22511 C 2166.63 2.21471 -2.69725 0
M  V30 22512 C 2167.98 2.82353 -3.17115 0
M  V30 22513 O 2169 2.31771 -2.70482 0
M  V30 22514 O 2167.86 3.74302 -3.98196 0
M  V30 22515 H 2164.96 0.591798 -0.577672 0
M  V30 22516 H 2167.5 0.571486 -1.59788 0
M  V30 22517 H 2166.27 1.62579 -3.55926 0
M  V30 22518 H 2165.9 3.02992 -2.57452 0
M  V30 22519 N 2166.89 1.35785 0.800009 0
M  V30 22520 C 2168.12 1.32717 1.59377 0
M  V30 22521 C 2168.54 -0.0914251 1.87878 0
M  V30 22522 O 2167.9 -1.06023 1.47068 0
M  V30 22523 C 2167.95 2.14589 2.898 0
M  V30 22524 O 2167.05 1.53112 3.82924 0
M  V30 22525 H 2166.4 0.45473 0.483856 0
M  V30 22526 H 2168.93 1.7892 0.992412 0
M  V30 22527 H 2168.94 2.26784 3.39165 0
M  V30 22528 H 2167.61 3.17717 2.68382 0
M  V30 22529 H 2166.19 1.49795 3.41491 0
M  V30 22530 N 2168.37 -1.02294 1.19891 0
M  V30 22531 C 2169.65 -1.72912 0.914382 0
M  V30 22532 C 2170.03 -2.0302 -0.57845 0
M  V30 22533 O 2169.38 -1.68961 -1.53833 0
M  V30 22534 C 2169.59 -3.00157 1.78064 0
M  V30 22535 C 2170.94 -3.73547 2.0186 0
M  V30 22536 O 2171.96 -3.10098 1.75265 0
M  V30 22537 O 2170.82 -4.87629 2.46738 0
M  V30 22538 H 2167.91 -0.753281 0.341315 0
M  V30 22539 H 2170.46 -1.08199 1.30733 0
M  V30 22540 H 2169.23 -2.7418 2.79179 0
M  V30 22541 H 2168.85 -3.7261 1.38736 0
M  V30 22542 N 2169.85 -1.00378 -1.21499 0
M  V30 22543 C 2170.78 -0.521384 -2.23191 0
M  V30 22544 C 2171.8 0.389369 -1.58075 0
M  V30 22545 O 2172.98 0.189763 -1.77488 0
M  V30 22546 C 2170.08 0.262422 -3.37882 0
M  V30 22547 C 2169.26 -0.647107 -4.32587 0
M  V30 22548 C 2168.32 0.0868769 -5.26128 0
M  V30 22549 O 2167.34 -0.531365 -5.66714 0
M  V30 22550 N 2168.54 1.36582 -5.64203 0
M  V30 22551 H 2171.31 -1.39587 -2.65208 0
M  V30 22552 H 2168.87 -0.879774 -1.3591 0
M  V30 22553 H 2170.86 0.762368 -3.97454 0
M  V30 22554 H 2169.43 1.03809 -2.9486 0
M  V30 22555 H 2168.65 -1.32756 -3.71173 0
M  V30 22556 H 2169.94 -1.26613 -4.92795 0
M  V30 22557 H 2169.34 1.88926 -5.3322 0
M  V30 22558 H 2167.9 1.81075 -6.26143 0
M  V30 22559 N 2171.33 1.37038 -0.778354 0
M  V30 22560 C 2172.57 1.99823 -0.34619 0
M  V30 22561 C 2172.91 1.61643 1.07634 0
M  V30 22562 O 2172.18 0.865817 1.74166 0
M  V30 22563 C 2172.47 3.56649 -0.497307 0
M  V30 22564 C 2172.32 4.04718 -1.96273 0
M  V30 22565 C 2173.64 4.39999 0.0944148 0
M  V30 22566 H 2170.76 0.725929 -0.127262 0
M  V30 22567 H 2173.4 1.62617 -0.98263 0
M  V30 22568 H 2171.55 3.88475 0.0445004 0
M  V30 22569 H 2173.22 3.8343 -2.56475 0
M  V30 22570 H 2171.46 3.56667 -2.46924 0
M  V30 22571 H 2172.13 5.13732 -2.01949 0
M  V30 22572 H 2174.61 4.1447 -0.367956 0
M  V30 22573 H 2173.49 5.48884 -0.0414159 0
M  V30 22574 H 2173.75 4.25911 1.18542 0
M  V30 22575 N 2172.81 0.529439 1.48441 0
M  V30 22576 C 2174.05 -0.00485664 2.02499 0
M  V30 22577 C 2174.38 -1.34333 1.40659 0
M  V30 22578 O 2173.64 -1.88057 0.541576 0
M  V30 22579 C 2173.94 -0.176478 3.56964 0
M  V30 22580 C 2173.6 1.08757 4.37587 0
M  V30 22581 C 2172.26 1.434 4.59336 0
M  V30 22582 C 2174.62 1.92647 4.8429 0
M  V30 22583 C 2171.94 2.61831 5.25035 0
M  V30 22584 C 2174.3 3.10256 5.51293 0
M  V30 22585 C 2172.96 3.45246 5.71281 0
M  V30 22586 H 2172.23 -0.00177717 0.740998 0
M  V30 22587 H 2174.88 0.695352 1.7843 0
M  V30 22588 H 2173.18 -0.959449 3.79871 0
M  V30 22589 H 2174.88 -0.604791 3.96413 0
M  V30 22590 H 2171.47 0.807773 4.20919 0
M  V30 22591 H 2175.65 1.67194 4.6729 0
M  V30 22592 H 2170.91 2.89143 5.38708 0
M  V30 22593 H 2175.08 3.75566 5.86449 0
M  V30 22594 H 2172.71 4.37113 6.21961 0
M  V30 22595 N 2174.29 -1.55364 0.264547 0
M  V30 22596 C 2175.53 -1.98537 -0.355827 0
M  V30 22597 C 2175.85 -1.15624 -1.57767 0
M  V30 22598 O 2177.05 -1.48892 -2.27032 0
M  V30 22599 C 2175.51 -3.53332 -0.684446 0
M  V30 22600 C 2175.12 -4.45007 0.516993 0
M  V30 22601 C 2176.86 -4.05119 -1.26803 0
M  V30 22602 C 2174.77 -5.91174 0.163548 0
M  V30 22603 H 2173.7 -0.7415 -0.136725 0
M  V30 22604 H 2176.35 -1.79782 0.367539 0
M  V30 22605 H 2174.73 -3.67848 -1.46643 0
M  V30 22606 H 2175.91 -4.42256 1.29406 0
M  V30 22607 H 2174.22 -4.03797 1.0167 0
M  V30 22608 H 2176.82 -5.11859 -1.5461 0
M  V30 22609 H 2177.16 -3.53519 -2.19841 0
M  V30 22610 H 2177.69 -3.93999 -0.548571 0
M  V30 22611 H 2174.43 -6.46848 1.06153 0
M  V30 22612 H 2173.95 -5.97019 -0.576966 0
M  V30 22613 H 2175.63 -6.46524 -0.248012 0
M  V30 22614 N 2175.76 0.00833021 -1.57598 0
M  V30 22615 C 2177.01 0.693539 -1.89827 0
M  V30 22616 C 2177.33 1.74773 -0.864844 0
M  V30 22617 O 2176.6 1.9565 0.0988666 0
M  V30 22618 H 2175.18 0.25915 -0.700607 0
M  V30 22619 H 2177.84 -0.0306259 -1.94876 0
M  V30 22620 H 2176.94 1.17005 -2.89337 0
M  V30 22621 N 2177.24 1.55075 0.280956 0
M  V30 22622 C 2178.49 1.75306 1.01361 0
M  V30 22623 C 2178.82 0.549775 1.86568 0
M  V30 22624 O 2178.07 -0.467908 1.90024 0
M  V30 22625 C 2178.37 3.00658 1.93234 0
M  V30 22626 C 2178.04 4.3356 1.23841 0
M  V30 22627 C 2176.7 4.69683 1.0465 0
M  V30 22628 C 2179.05 5.15863 0.743962 0
M  V30 22629 C 2176.38 5.85671 0.347296 0
M  V30 22630 C 2178.73 6.32573 0.0583841 0
M  V30 22631 C 2177.39 6.67342 -0.145308 0
M  V30 22632 H 2176.66 0.641491 0.370905 0
M  V30 22633 H 2179.31 1.89343 0.286608 0
M  V30 22634 H 2177.62 2.81488 2.72529 0
M  V30 22635 H 2179.31 3.13507 2.50029 0
M  V30 22636 H 2175.9 4.05163 1.39788 0
M  V30 22637 H 2180.09 4.88438 0.879877 0
M  V30 22638 H 2175.34 6.11139 0.178683 0
M  V30 22639 H 2179.52 6.95606 -0.332548 0
M  V30 22640 H 2177.14 7.5707 -0.689091 0
M  V30 22641 N 2178.72 -0.545102 1.47873 0
M  V30 22642 C 2179.97 -1.30364 1.55348 0
M  V30 22643 C 2180.3 -1.92948 0.220182 0
M  V30 22644 O 2179.57 -1.78506 -0.772398 0
M  V30 22645 C 2179.86 -2.40454 2.68055 0
M  V30 22646 C 2179.71 -1.8266 4.11042 0
M  V30 22647 C 2181.03 -3.42314 2.76603 0
M  V30 22648 H 2178.15 -0.472628 0.565502 0
M  V30 22649 H 2180.79 -0.608798 1.79982 0
M  V30 22650 H 2178.94 -2.99722 2.47182 0
M  V30 22651 H 2180.61 -1.2756 4.43313 0
M  V30 22652 H 2178.85 -1.1327 4.18751 0
M  V30 22653 H 2179.53 -2.62302 4.85697 0
M  V30 22654 H 2182 -2.92981 2.95468 0
M  V30 22655 H 2180.88 -4.16757 3.57218 0
M  V30 22656 H 2181.14 -4.01923 1.84147 0
M  V30 22657 N 2180.2 -1.36208 -0.792797 0
M  V30 22658 C 2181.13 -1.32936 -1.91964 0
M  V30 22659 C 2182.11 -0.2014 -1.68903 0
M  V30 22660 O 2183.29 -0.39852 -1.90067 0
M  V30 22661 C 2180.42 -1.11449 -3.28932 0
M  V30 22662 C 2179.38 -2.21033 -3.66508 0
M  V30 22663 C 2178.7 -1.84693 -5.01789 0
M  V30 22664 C 2180 -3.63096 -3.75444 0
M  V30 22665 H 2181.7 -2.27226 -1.94958 0
M  V30 22666 H 2179.24 -1.09381 -0.936582 0
M  V30 22667 H 2181.2 -1.07796 -4.07379 0
M  V30 22668 H 2179.92 -0.136086 -3.26316 0
M  V30 22669 H 2178.58 -2.23806 -2.90356 0
M  V30 22670 H 2178.23 -0.854356 -4.95691 0
M  V30 22671 H 2177.93 -2.58059 -5.27901 0
M  V30 22672 H 2179.45 -1.8259 -5.82661 0
M  V30 22673 H 2180.87 -3.62569 -4.44091 0
M  V30 22674 H 2179.26 -4.35339 -4.13037 0
M  V30 22675 H 2180.33 -3.98247 -2.76636 0
M  V30 22676 N 2181.68 1.01656 -1.20431 0
M  V30 22677 C 2182.62 2.10198 -0.953184 0
M  V30 22678 C 2183.59 1.6569 0.116613 0
M  V30 22679 O 2184.78 1.90779 -0.0281152 0
M  V30 22680 C 2181.92 3.4129 -0.511397 0
M  V30 22681 C 2181.03 3.99275 -1.64935 0
M  V30 22682 C 2180.17 5.18427 -1.15787 0
M  V30 22683 C 2179.2 5.68496 -2.2689 0
M  V30 22684 N 2178.34 6.78909 -1.7896 0
M  V30 22685 H 2183.18 2.31015 -1.88245 0
M  V30 22686 H 2180.72 1.13288 -0.938314 0
M  V30 22687 H 2182.68 4.16529 -0.236575 0
M  V30 22688 H 2181.31 3.20545 0.380867 0
M  V30 22689 H 2180.36 3.21132 -2.03909 0
M  V30 22690 H 2181.67 4.32437 -2.48595 0
M  V30 22691 H 2180.82 6.00871 -0.839013 0
M  V30 22692 H 2179.56 4.8683 -0.291159 0
M  V30 22693 H 2178.57 4.84657 -2.59592 0
M  V30 22694 H 2179.79 6.02127 -3.14037 0
M  V30 22695 H 2177.74 6.49141 -0.946156 0
M  V30 22696 H 2177.66 7.11265 -2.562 0
M  V30 22697 H 2178.92 7.64917 -1.50074 0
M  V30 22698 N 2183.15 1.01021 1.20965 0
M  V30 22699 C 2184.09 0.533213 2.22911 0
M  V30 22700 C 2185.1 -0.38098 1.58279 0
M  V30 22701 O 2186.29 -0.180348 1.77587 0
M  V30 22702 C 2183.39 -0.244499 3.38017 0
M  V30 22703 C 2182.56 0.670039 4.32237 0
M  V30 22704 C 2181.62 -0.0589738 5.26167 0
M  V30 22705 O 2180.65 0.561411 5.66425 0
M  V30 22706 N 2181.85 -1.33588 5.6492 0
M  V30 22707 H 2184.61 1.40992 2.64464 0
M  V30 22708 H 2182.17 0.886969 1.35442 0
M  V30 22709 H 2184.17 -0.74128 3.97853 0
M  V30 22710 H 2182.74 -1.02244 2.95406 0
M  V30 22711 H 2181.96 1.34723 3.70464 0
M  V30 22712 H 2183.24 1.29225 4.92116 0
M  V30 22713 H 2182.64 -1.86096 5.34214 0
M  V30 22714 H 2181.2 -1.77752 6.27095 0
M  V30 22715 N 2184.63 -1.36623 0.78561 0
M  V30 22716 C 2185.88 -1.99342 0.356255 0
M  V30 22717 C 2186.21 -1.62355 -1.07103 0
M  V30 22718 O 2185.46 -0.868184 -1.75388 0
M  V30 22719 C 2185.76 -3.54391 0.462776 0
M  V30 22720 C 2185.43 -4.11186 1.85031 0
M  V30 22721 C 2184.09 -4.2641 2.22997 0
M  V30 22722 C 2186.44 -4.42184 2.75904 0
M  V30 22723 C 2183.77 -4.69941 3.51244 0
M  V30 22724 C 2186.12 -4.87145 4.03575 0
M  V30 22725 C 2184.78 -5.00575 4.41567 0
M  V30 22726 H 2184.05 -0.729443 0.130363 0
M  V30 22727 H 2186.7 -1.63173 1.00233 0
M  V30 22728 H 2185.01 -3.9089 -0.266811 0
M  V30 22729 H 2186.7 -4.00845 0.111658 0
M  V30 22730 H 2183.29 -3.99774 1.54528 0
M  V30 22731 H 2187.48 -4.29994 2.47827 0
M  V30 22732 H 2182.73 -4.78526 3.80556 0
M  V30 22733 H 2186.91 -5.10094 4.74106 0
M  V30 22734 H 2184.53 -5.34064 5.40999 0
M  V30 22735 N 2186.11 -0.537304 -1.48158 0
M  V30 22736 C 2187.02 0.225092 -2.33518 0
M  V30 22737 C 2188.04 0.931763 -1.4695 0
M  V30 22738 O 2189.21 0.905094 -1.79917 0
M  V30 22739 C 2186.28 1.25403 -3.23226 0
M  V30 22740 C 2185.34 0.556924 -4.25672 0
M  V30 22741 C 2184.57 1.53684 -5.11094 0
M  V30 22742 O 2184.79 2.77009 -4.9862 0
M  V30 22743 O 2183.73 1.07222 -5.92273 0
M  V30 22744 H 2187.55 -0.474567 -2.99969 0
M  V30 22745 H 2185.14 -0.298137 -1.46395 0
M  V30 22746 H 2187.02 1.84847 -3.78695 0
M  V30 22747 H 2185.7 1.93596 -2.59427 0
M  V30 22748 H 2184.6 -0.0781996 -3.74018 0
M  V30 22749 H 2185.94 -0.0832021 -4.9213 0
M  V30 22750 N 2187.59 1.55221 -0.272782 0
M  V30 22751 C 2188.82 2.03655 0.347573 0
M  V30 22752 C 2189.23 1.15066 1.50188 0
M  V30 22753 O 2188.57 0.162834 1.82977 0
M  V30 22754 C 2188.63 3.48231 0.893035 0
M  V30 22755 C 2188.3 4.56808 -0.132334 0
M  V30 22756 C 2189.29 5.11128 -0.951029 0
M  V30 22757 C 2186.98 5.01596 -0.2659 0
M  V30 22758 C 2188.97 6.0875 -1.8895 0
M  V30 22759 C 2186.66 5.99044 -1.20785 0
M  V30 22760 C 2187.66 6.52503 -2.01815 0
M  V30 22761 O 2187.34 7.48046 -2.94418 0
M  V30 22762 H 2187.08 0.670806 0.0836353 0
M  V30 22763 H 2189.63 2.01429 -0.401948 0
M  V30 22764 H 2187.86 3.4769 1.69258 0
M  V30 22765 H 2189.55 3.80018 1.42623 0
M  V30 22766 H 2190.32 4.7734 -0.858563 0
M  V30 22767 H 2186.19 4.59633 0.354797 0
M  V30 22768 H 2189.74 6.50401 -2.52238 0
M  V30 22769 H 2185.64 6.3225 -1.30114 0
M  V30 22770 H 2186.4 7.65754 -2.89073 0
M  V30 22771 N 2189.07 2.77022e-05 1.576 0
M  V30 22772 C 2190.32 -0.684007 1.89748 0
M  V30 22773 C 2190.63 -1.74935 0.875041 0
M  V30 22774 O 2191.83 -2.48802 1.08674 0
M  V30 22775 C 2190.29 -1.26778 3.36831 0
M  V30 22776 C 2189.9 -0.23725 4.47371 0
M  V30 22777 C 2191.64 -1.93 3.78089 0
M  V30 22778 C 2189.55 -0.831011 5.85532 0
M  V30 22779 H 2188.48 -0.259241 0.708033 0
M  V30 22780 H 2191.13 0.0605762 1.834 0
M  V30 22781 H 2189.51 -2.06303 3.38017 0
M  V30 22782 H 2190.69 0.53341 4.57702 0
M  V30 22783 H 2189 0.324536 4.15133 0
M  V30 22784 H 2191.6 -2.38328 4.78648 0
M  V30 22785 H 2191.94 -2.76058 3.11605 0
M  V30 22786 H 2192.47 -1.20209 3.79203 0
M  V30 22787 H 2189.21 -0.0392145 6.55488 0
M  V30 22788 H 2188.73 -1.57083 5.78865 0
M  V30 22789 H 2190.41 -1.32963 6.3319 0
M  V30 22790 N 2190.54 -1.55222 -0.272728 0
M  V30 22791 C 2191.45 -1.91218 -1.35915 0
M  V30 22792 C 2192.47 -0.809463 -1.54025 0
M  V30 22793 O 2193.65 -1.10855 -1.68146 0
M  V30 22794 C 2190.71 -2.17698 -2.69831 0
M  V30 22795 C 2189.77 -3.41258 -2.60464 0
M  V30 22796 C 2189.01 -3.66465 -3.87994 0
M  V30 22797 O 2189.23 -2.94178 -4.88688 0
M  V30 22798 O 2188.16 -4.59999 -3.88181 0
M  V30 22799 H 2191.99 -2.83701 -1.08385 0
M  V30 22800 H 2189.57 -1.41772 -0.471276 0
M  V30 22801 H 2191.46 -2.36153 -3.49012 0
M  V30 22802 H 2190.13 -1.28397 -2.97146 0
M  V30 22803 H 2189.04 -3.28137 -1.79657 0
M  V30 22804 H 2190.37 -4.30778 -2.38098 0
M  V30 22805 N 2192.02 0.537252 -1.4816 0
M  V30 22806 C 2193.27 1.29538 -1.56038 0
M  V30 22807 C 2193.6 1.92828 -0.230411 0
M  V30 22808 O 2192.88 1.78913 0.762921 0
M  V30 22809 C 2193.16 2.39029 -2.69327 0
M  V30 22810 C 2193.01 1.80478 -4.12005 0
M  V30 22811 C 2194.33 3.40842 -2.78414 0
M  V30 22812 H 2191.45 0.469622 -0.568 0
M  V30 22813 H 2194.09 0.599245 -1.80303 0
M  V30 22814 H 2192.24 2.98407 -2.48768 0
M  V30 22815 H 2193.91 1.25207 -4.43983 0
M  V30 22816 H 2192.16 1.11048 -4.19346 0
M  V30 22817 H 2192.83 2.59722 -4.87082 0
M  V30 22818 H 2195.3 2.9141 -2.97017 0
M  V30 22819 H 2194.18 4.14857 -3.59423 0
M  V30 22820 H 2194.44 4.00941 -1.86276 0
M  V30 22821 N 2193.5 1.36626 0.785562 0
M  V30 22822 C 2194.75 1.30811 1.54055 0
M  V30 22823 C 2195.07 -0.111123 1.94683 0
M  V30 22824 O 2194.34 -1.05221 1.65243 0
M  V30 22825 H 2192.92 0.481221 0.571345 0
M  V30 22826 H 2195.58 1.70965 0.935791 0
M  V30 22827 H 2194.68 1.93806 2.44634 0
M  V30 22828 N 2194.98 -1.01016 1.20969 0
M  V30 22829 C 2195.91 -2.09833 0.922096 0
M  V30 22830 C 2196.92 -1.62536 -0.092682 0
M  V30 22831 O 2198.11 -1.77957 0.139159 0
M  V30 22832 C 2195.21 -3.3696 0.362064 0
M  V30 22833 C 2194.39 -4.13366 1.42993 0
M  V30 22834 C 2193.44 -5.18788 0.880067 0
M  V30 22835 O 2192.47 -5.4734 1.56229 0
M  V30 22836 N 2193.67 -5.79686 -0.307294 0
M  V30 22837 H 2196.44 -2.3509 1.85884 0
M  V30 22838 H 2194 -1.17458 1.11424 0
M  V30 22839 H 2195.99 -4.04695 -0.0200762 0
M  V30 22840 H 2194.56 -3.08902 -0.479382 0
M  V30 22841 H 2193.78 -3.40509 1.98614 0
M  V30 22842 H 2195.07 -4.61192 2.14893 0
M  V30 22843 H 2194.47 -5.58834 -0.878698 0
M  V30 22844 H 2193.02 -6.48738 -0.631001 0
M  V30 22845 N 2196.46 -1.01661 -1.20428 0
M  V30 22846 C 2197.7 -0.70595 -1.89796 0
M  V30 22847 C 2198.03 0.764408 -1.78849 0
M  V30 22848 O 2197.29 1.571 -1.16697 0
M  V30 22849 C 2197.59 -1.0872 -3.40462 0
M  V30 22850 C 2197.25 -2.55377 -3.71609 0
M  V30 22851 C 2195.91 -2.95448 -3.79821 0
M  V30 22852 C 2198.27 -3.50319 -3.85909 0
M  V30 22853 C 2195.59 -4.29402 -3.99789 0
M  V30 22854 C 2197.95 -4.83961 -4.07387 0
M  V30 22855 C 2196.61 -5.23739 -4.13828 0
M  V30 22856 H 2195.88 -0.258325 -0.694513 0
M  V30 22857 H 2198.53 -1.27719 -1.42689 0
M  V30 22858 H 2196.83 -0.434378 -3.89385 0
M  V30 22859 H 2198.53 -0.82453 -3.92432 0
M  V30 22860 H 2195.12 -2.23327 -3.65818 0
M  V30 22861 H 2199.3 -3.2052 -3.7892 0
M  V30 22862 H 2194.56 -4.59775 -4.0301 0
M  V30 22863 H 2198.73 -5.57454 -4.17394 0
M  V30 22864 H 2196.36 -6.27549 -4.29053 0
M  V30 22865 N 2197.93 1.36205 -0.792844 0
M  V30 22866 C 2199.35 1.5237 -0.47493 0
M  V30 22867 C 2199.55 1.7458 1.00619 0
M  V30 22868 O 2198.61 1.77927 1.79159 0
M  V30 22869 C 2199.92 2.70745 -1.30835 0
M  V30 22870 C 2201.47 2.84617 -1.30239 0
M  V30 22871 C 2201.94 4.06 -2.11963 0
M  V30 22872 N 2203.43 4.13152 -2.09427 0
M  V30 22873 C 2204.17 5.06158 -2.69428 0
M  V30 22874 N 2203.66 6.04586 -3.38301 0
M  V30 22875 N 2205.46 4.988 -2.59143 0
M  V30 22876 H 2197.61 1.20043 -1.75224 0
M  V30 22877 H 2199.87 0.586198 -0.745034 0
M  V30 22878 H 2199.58 2.60866 -2.35885 0
M  V30 22879 H 2199.45 3.64988 -0.952024 0
M  V30 22880 H 2201.84 2.93954 -0.259799 0
M  V30 22881 H 2201.92 1.91271 -1.6985 0
M  V30 22882 H 2201.56 3.97423 -3.16255 0
M  V30 22883 H 2201.49 4.985 -1.6972 0
M  V30 22884 H 2203.98 3.42682 -1.59303 0
M  V30 22885 H 2204.3 6.72123 -3.81405 0
M  V30 22886 H 2202.64 6.04801 -3.42404 0
M  V30 22887 H 2205.83 4.20855 -2.04935 0
M  V30 22888 H 2206.01 5.71094 -3.06195 0
M  V30 22889 N 2199.41 0.545154 1.47871 0
M  V30 22890 C 2200.32 -0.212705 2.33634 0
M  V30 22891 C 2201.34 -0.923957 1.47442 0
M  V30 22892 O 2202.51 -0.89554 1.80394 0
M  V30 22893 C 2199.58 -1.23687 3.23886 0
M  V30 22894 C 2198.64 -0.534342 4.25962 0
M  V30 22895 C 2197.87 -1.50971 5.11902 0
M  V30 22896 O 2198.1 -2.74361 5.00082 0
M  V30 22897 O 2197.03 -1.0408 5.92833 0
M  V30 22898 H 2200.86 0.490469 2.99713 0
M  V30 22899 H 2198.44 0.305896 1.46235 0
M  V30 22900 H 2200.32 -1.82836 3.7967 0
M  V30 22901 H 2199 -1.92218 2.6045 0
M  V30 22902 H 2197.91 0.0980336 3.73972 0
M  V30 22903 H 2199.24 0.1093 4.92079 0
M  V30 22904 N 2200.89 -1.55074 0.28101 0
M  V30 22905 C 2202.12 -2.04592 -0.340118 0
M  V30 22906 C 2202.54 -1.15782 -1.48244 0
M  V30 22907 O 2201.9 -0.157642 -1.80613 0
M  V30 22908 C 2201.95 -3.51772 -0.793042 0
M  V30 22909 O 2201.05 -3.66037 -1.89975 0
M  V30 22910 H 2200.39 -0.660361 -0.0694173 0
M  V30 22911 H 2202.92 -2.00305 0.417028 0
M  V30 22912 H 2202.93 -3.93247 -1.08722 0
M  V30 22913 H 2201.61 -4.15878 0.0426894 0
M  V30 22914 H 2200.18 -3.36465 -1.60765 0
M  V30 22915 N 2202.37 -0.00838561 -1.57598 0
M  V30 22916 C 2203.28 0.99645 -2.12387 0
M  V30 22917 C 2204.3 1.37125 -1.0711 0
M  V30 22918 O 2205.47 1.45688 -1.39058 0
M  V30 22919 C 2202.54 2.26694 -2.62318 0
M  V30 22920 C 2201.6 1.95449 -3.82228 0
M  V30 22921 C 2200.83 3.16441 -4.29768 0
M  V30 22922 O 2201.05 4.2841 -3.76592 0
M  V30 22923 O 2199.99 2.99949 -5.21837 0
M  V30 22924 H 2203.81 0.560673 -2.9848 0
M  V30 22925 H 2201.4 0.210961 -1.47903 0
M  V30 22926 H 2203.28 3.01317 -2.94594 0
M  V30 22927 H 2201.96 2.69494 -1.79318 0
M  V30 22928 H 2200.86 1.18275 -3.54911 0
M  V30 22929 H 2202.2 1.57481 -4.66327 0
M  V30 22930 N 2203.85 1.55365 0.264492 0
M  V30 22931 C 2204.81 1.88044 1.31042 0
M  V30 22932 C 2205.81 0.755594 1.41942 0
M  V30 22933 O 2207 1.02372 1.40946 0
M  V30 22934 C 2204.13 2.09327 2.69063 0
M  V30 22935 H 2205.33 2.81551 1.03292 0
M  V30 22936 H 2202.88 1.47986 0.502963 0
M  V30 22937 H 2203.61 1.18231 3.0198 0
M  V30 22938 H 2203.4 2.91234 2.62536 0
M  V30 22939 H 2204.89 2.35854 3.44619 0
M  V30 22940 N 2205.33 -0.529387 1.48443 0
M  V30 22941 C 2206.57 -1.28166 1.55744 0
M  V30 22942 C 2206.89 -1.94164 0.236545 0
M  V30 22943 O 2208.09 -2.7085 0.187809 0
M  V30 22944 C 2206.55 -2.3256 2.74671 0
M  V30 22945 C 2206.16 -1.72628 4.13405 0
M  V30 22946 C 2207.9 -3.08793 2.91285 0
M  V30 22947 C 2205.81 -2.74965 5.23591 0
M  V30 22948 H 2204.74 -0.48202 0.579804 0
M  V30 22949 H 2207.39 -0.559025 1.74777 0
M  V30 22950 H 2205.77 -3.07862 2.49073 0
M  V30 22951 H 2206.95 -1.03511 4.49024 0
M  V30 22952 H 2205.26 -1.08885 4.01912 0
M  V30 22953 H 2207.86 -3.85267 3.70774 0
M  V30 22954 H 2208.2 -3.64691 2.00764 0
M  V30 22955 H 2208.73 -2.40606 3.16786 0
M  V30 22956 H 2205.47 -2.23887 6.1608 0
M  V30 22957 H 2204.99 -3.42409 4.9246 0
M  V30 22958 H 2206.67 -3.37939 5.5173 0
M  V30 22959 N 2206.8 -1.37041 -0.778305 0
M  V30 22960 C 2208.05 -1.31213 -1.53187 0
M  V30 22961 C 2208.37 0.103061 -1.95328 0
M  V30 22962 O 2209.57 0.283779 -2.70013 0
M  V30 22963 C 2208.03 -2.30277 -2.76587 0
M  V30 22964 C 2207.64 -3.7729 -2.4157 0
M  V30 22965 C 2209.38 -2.33447 -3.54546 0
M  V30 22966 C 2207.29 -4.68103 -3.61433 0
M  V30 22967 H 2206.22 -0.487633 -0.575092 0
M  V30 22968 H 2208.87 -1.62465 -0.853073 0
M  V30 22969 H 2207.25 -1.92033 -3.46322 0
M  V30 22970 H 2208.42 -4.24333 -1.7966 0
M  V30 22971 H 2206.74 -3.77002 -1.768 0
M  V30 22972 H 2209.34 -2.98501 -4.43623 0
M  V30 22973 H 2209.68 -1.34618 -3.93934 0
M  V30 22974 H 2210.21 -2.70365 -2.91801 0
M  V30 22975 H 2206.95 -5.68036 -3.27132 0
M  V30 22976 H 2206.47 -4.25768 -4.2247 0
M  V30 22977 H 2208.15 -4.84918 -4.28327 0
M  V30 22978 N 2208.28 1.00373 -1.21503 0
M  V30 22979 C 2209.69 1.55619 -1.03149 0
M  V30 22980 C 2210.04 1.91904 0.408341 0
M  V30 22981 O 2209.17 1.73618 1.29174 0
M  V30 22982 C 2209.76 2.82771 -1.86617 0
M  V30 22983 C 2208.32 3.34498 -1.72591 0
M  V30 22984 C 2207.47 2.0768 -1.83751 0
M  V30 22985 H 2210.42 0.826057 -1.35506 0
M  V30 22986 H 2210.44 3.54703 -1.37716 0
M  V30 22987 H 2209.95 2.56331 -2.91403 0
M  V30 22988 H 2208.05 3.65871 -0.704941 0
M  V30 22989 H 2208.17 4.05833 -2.5463 0
M  V30 22990 H 2206.53 2.20736 -1.27073 0
M  V30 22991 H 2207.31 1.8365 -2.90048 0
M  V30 22992 N 2209.76 1.02298 1.19887 0
M  V30 22993 C 2210.71 0.59212 2.24937 0
M  V30 22994 C 2211.7 -0.372328 1.65258 0
M  V30 22995 O 2212.91 -0.241551 1.78372 0
M  V30 22996 H 2209.28 0.173195 0.731784 0
M  V30 22997 H 2211.25 1.4889 2.58601 0
M  V30 22998 C 2210 -0.0472899 3.47668 0
M  V30 22999 H 2209.33 0.685841 3.93873 0
M  V30 23000 H 2210.77 -0.311787 4.22852 0
M  V30 23001 C 2209.22 -1.29207 3.11139 0
M  V30 23002 O 2209.75 -2.38474 3.23254 0
M  V30 23003 N 2207.96 -1.17858 2.65627 0
M  V30 23004 H 2207.51 -0.289448 2.55969 0
M  V30 23005 H 2207.47 -2.01241 2.41556 0
M  V30 23006 N 2211.24 -1.35782 0.800057 0
M  V30 23007 C 2212.49 -1.98204 0.373905 0
M  V30 23008 C 2212.8 -1.64194 -1.06299 0
M  V30 23009 O 2214.01 -2.19931 -1.59194 0
M  V30 23010 C 2212.46 -3.54561 0.617594 0
M  V30 23011 C 2212.07 -3.97486 2.06661 0
M  V30 23012 C 2213.81 -4.23725 0.256476 0
M  V30 23013 C 2211.72 -5.46663 2.25639 0
M  V30 23014 H 2210.65 -0.741621 0.136068 0
M  V30 23015 H 2213.3 -1.54937 0.983193 0
M  V30 23016 H 2211.68 -3.95952 -0.0615552 0
M  V30 23017 H 2212.86 -3.67266 2.78303 0
M  V30 23018 H 2211.17 -3.41193 2.38697 0
M  V30 23019 H 2213.77 -5.33373 0.376412 0
M  V30 23020 H 2214.11 -4.08607 -0.796621 0
M  V30 23021 H 2214.65 -3.87733 0.889282 0
M  V30 23022 H 2211.38 -5.66741 3.2937 0
M  V30 23023 H 2210.9 -5.78475 1.58514 0
M  V30 23024 H 2212.58 -6.13036 2.06872 0
M  V30 23025 N 2212.72 -0.552988 -1.4758 0
M  V30 23026 C 2213.96 -0.0273599 -2.02482 0
M  V30 23027 C 2214.29 1.32078 -1.42778 0
M  V30 23028 O 2213.55 1.87172 -0.571426 0
M  V30 23029 C 2213.84 0.119666 -3.572 0
M  V30 23030 C 2213.51 -1.15705 -4.35802 0
M  V30 23031 C 2212.17 -1.50689 -4.56997 0
M  V30 23032 C 2214.52 -2.00327 -4.81164 0
M  V30 23033 C 2211.85 -2.70151 -5.20803 0
M  V30 23034 C 2214.2 -3.18988 -5.46287 0
M  V30 23035 C 2212.87 -3.5429 -5.65716 0
M  V30 23036 H 2212.14 -0.0100117 -0.740932 0
M  V30 23037 H 2214.79 -0.723651 -1.77301 0
M  V30 23038 H 2213.09 0.898893 -3.81349 0
M  V30 23039 H 2214.79 0.541648 -3.97325 0
M  V30 23040 H 2211.38 -0.874635 -4.19581 0
M  V30 23041 H 2215.56 -1.74607 -4.64571 0
M  V30 23042 H 2210.82 -2.97677 -5.3404 0
M  V30 23043 H 2214.99 -3.84849 -5.804 0
M  V30 23044 H 2212.62 -4.46953 -6.14929 0
M  V30 23045 N 2214.19 1.54923 -0.28923 0
M  V30 23046 C 2215.44 1.999 0.323483 0
M  V30 23047 C 2215.77 1.17765 1.54795 0
M  V30 23048 O 2215.02 0.238869 1.94237 0
M  V30 23049 C 2215.32 3.49738 0.736058 0
M  V30 23050 C 2214.99 4.4925 -0.385354 0
M  V30 23051 C 2213.65 4.7618 -0.69324 0
M  V30 23052 C 2216 5.08573 -1.1403 0
M  V30 23053 C 2213.33 5.59698 -1.7594 0
M  V30 23054 C 2215.68 5.9325 -2.19629 0
M  V30 23055 C 2214.35 6.18496 -2.51037 0
M  V30 23056 H 2213.62 0.731484 0.118371 0
M  V30 23057 H 2216.26 1.87149 -0.40588 0
M  V30 23058 H 2214.57 3.60038 1.54532 0
M  V30 23059 H 2216.27 3.81955 1.22112 0
M  V30 23060 H 2212.86 4.28386 -0.135277 0
M  V30 23061 H 2217.04 4.87779 -0.915696 0
M  V30 23062 H 2212.3 5.77499 -2.0076 0
M  V30 23063 H 2216.47 6.38247 -2.78593 0
M  V30 23064 H 2214.1 6.83002 -3.33784 0
M  V30 23065 N 2215.67 0.0167433 1.57591 0
M  V30 23066 C 2216.92 -0.664564 1.91285 0
M  V30 23067 C 2217.25 -1.72841 0.891979 0
M  V30 23068 O 2216.5 -1.9544 -0.100896 0
M  V30 23069 C 2216.8 -1.33024 3.31722 0
M  V30 23070 C 2216.47 -0.397968 4.4914 0
M  V30 23071 C 2215.13 -0.141336 4.80992 0
M  V30 23072 C 2217.48 0.242917 5.20634 0
M  V30 23073 C 2214.81 0.764194 5.81702 0
M  V30 23074 C 2217.16 1.13643 6.22309 0
M  V30 23075 C 2215.82 1.40207 6.52609 0
M  V30 23076 H 2215.09 -0.243181 0.69996 0
M  V30 23077 H 2217.74 0.0758603 1.9135 0
M  V30 23078 H 2216.05 -2.14511 3.2786 0
M  V30 23079 H 2217.74 -1.86373 3.55058 0
M  V30 23080 H 2214.33 -0.608164 4.24263 0
M  V30 23081 H 2218.52 0.0576892 4.96266 0
M  V30 23082 H 2213.77 0.977838 6.0353 0
M  V30 23083 H 2217.95 1.63928 6.76831 0
M  V30 23084 H 2215.57 2.10541 7.30463 0
M  V30 23085 N 2217.15 -1.55503 -0.256249 0
M  V30 23086 C 2218.08 -1.92542 -1.32098 0
M  V30 23087 C 2219.06 -0.789221 -1.50683 0
M  V30 23088 O 2220.25 -1.04874 -1.63447 0
M  V30 23089 C 2217.38 -2.21197 -2.67748 0
M  V30 23090 C 2216.33 -3.3698 -2.63872 0
M  V30 23091 C 2215.66 -3.51154 -4.0323 0
M  V30 23092 C 2216.96 -4.72925 -2.21674 0
M  V30 23093 H 2218.65 -2.81726 -1.01346 0
M  V30 23094 H 2216.2 -1.35548 -0.486081 0
M  V30 23095 H 2218.15 -2.45697 -3.42361 0
M  V30 23096 H 2216.87 -1.2883 -3.00117 0
M  V30 23097 H 2215.53 -3.12474 -1.91717 0
M  V30 23098 H 2215.18 -2.56224 -4.32849 0
M  V30 23099 H 2214.88 -4.2901 -4.01527 0
M  V30 23100 H 2216.4 -3.77965 -4.79557 0
M  V30 23101 H 2217.82 -4.96859 -2.86015 0
M  V30 23102 H 2216.22 -5.53816 -2.311 0
M  V30 23103 H 2217.29 -4.70617 -1.16825 0
M  V30 23104 N 2218.63 0.521507 -1.48721 0
M  V30 23105 C 2219.87 1.27876 -1.57403 0
M  V30 23106 C 2220.21 1.92573 -0.25085 0
M  V30 23107 O 2219.48 1.79712 0.743902 0
M  V30 23108 C 2219.77 2.36159 -2.71847 0
M  V30 23109 C 2219.62 1.76098 -4.13896 0
M  V30 23110 C 2220.94 3.3787 -2.82014 0
M  V30 23111 H 2218.06 0.463571 -0.572949 0
M  V30 23112 H 2220.7 0.580088 -1.80928 0
M  V30 23113 H 2218.85 2.95752 -2.51919 0
M  V30 23114 H 2220.52 1.20491 -4.45286 0
M  V30 23115 H 2218.76 1.06594 -4.205 0
M  V30 23116 H 2219.43 2.54541 -4.89809 0
M  V30 23117 H 2221.91 2.88244 -3.00091 0
M  V30 23118 H 2220.79 4.11021 -3.63803 0
M  V30 23119 H 2221.05 3.98943 -1.90518 0
M  V30 23120 N 2220.11 1.37452 0.771027 0
M  V30 23121 C 2221.04 1.35974 1.89825 0
M  V30 23122 C 2222.02 0.228246 1.68562 0
M  V30 23123 O 2223.2 0.428708 1.89409 0
M  V30 23124 C 2220.33 1.16668 3.27118 0
M  V30 23125 C 2219.29 2.26836 3.62946 0
M  V30 23126 C 2218.61 1.92652 4.98788 0
M  V30 23127 C 2219.91 3.69023 3.6962 0
M  V30 23128 H 2221.61 2.30299 1.91319 0
M  V30 23129 H 2219.15 1.10857 0.919062 0
M  V30 23130 H 2221.11 1.14263 4.05613 0
M  V30 23131 H 2219.83 0.187983 3.26059 0
M  V30 23132 H 2218.49 2.28397 2.86759 0
M  V30 23133 H 2218.14 0.933108 4.94269 0
M  V30 23134 H 2217.84 2.66425 5.23729 0
M  V30 23135 H 2219.36 1.91836 5.79682 0
M  V30 23136 H 2220.77 3.69588 4.38266 0
M  V30 23137 H 2219.17 4.41855 4.06059 0
M  V30 23138 H 2220.24 4.02597 2.70266 0
M  V30 23139 N 2221.58 -0.997276 1.22033 0
M  V30 23140 C 2222.51 -2.10493 1.01069 0
M  V30 23141 C 2223.5 -1.69968 -0.0669243 0
M  V30 23142 O 2224.68 -1.9397 0.0944328 0
M  V30 23143 C 2221.81 -3.42373 0.582934 0
M  V30 23144 C 2220.76 -3.96727 1.60599 0
M  V30 23145 C 2220.09 -5.24603 1.03421 0
M  V30 23146 C 2221.39 -4.27909 2.99485 0
M  V30 23147 H 2223.08 -2.28289 1.93712 0
M  V30 23148 H 2220.63 -1.09705 0.93278 0
M  V30 23149 H 2222.58 -4.19268 0.423406 0
M  V30 23150 H 2221.31 -3.24392 -0.379156 0
M  V30 23151 H 2219.97 -3.21959 1.75322 0
M  V30 23152 H 2219.61 -5.0296 0.0636064 0
M  V30 23153 H 2219.31 -5.61935 1.71764 0
M  V30 23154 H 2220.84 -6.04135 0.886172 0
M  V30 23155 H 2222.25 -4.95617 2.88161 0
M  V30 23156 H 2220.65 -4.76403 3.64912 0
M  V30 23157 H 2221.72 -3.35864 3.49748 0
M  V30 23158 N 2223.06 -1.02932 -1.19343 0
M  V30 23159 C 2224.29 -0.745545 -1.93537 0
M  V30 23160 C 2224.71 0.68948 -1.75008 0
M  V30 23161 O 2224.07 1.47609 -1.05268 0
M  V30 23162 C 2224.12 -1.10245 -3.43334 0
M  V30 23163 O 2223.22 -0.221361 -4.11805 0
M  V30 23164 H 2222.56 -0.275415 -0.604188 0
M  V30 23165 H 2225.09 -1.37612 -1.51407 0
M  V30 23166 H 2225.1 -1.05954 -3.94002 0
M  V30 23167 H 2223.78 -2.14792 -3.56142 0
M  V30 23168 H 2222.36 -0.322907 -3.71499 0
M  V30 23169 N 2224.54 1.35356 -0.807246 0
M  V30 23170 C 2225.77 2.02694 -0.399832 0
M  V30 23171 C 2226.18 1.60976 0.994148 0
M  V30 23172 O 2225.52 0.803255 1.65207 0
M  V30 23173 C 2225.58 3.57217 -0.404508 0
M  V30 23174 C 2225.25 4.22203 -1.74911 0
M  V30 23175 C 2226.24 4.43836 -2.70751 0
M  V30 23176 C 2223.93 4.59306 -2.0333 0
M  V30 23177 C 2225.92 5.01676 -3.93192 0
M  V30 23178 C 2223.61 5.1686 -3.26035 0
M  V30 23179 C 2224.61 5.37987 -4.20784 0
M  V30 23180 O 2224.3 5.94327 -5.41323 0
M  V30 23181 H 2224.03 0.656663 -0.160528 0
M  V30 23182 H 2226.58 1.73943 -1.09238 0
M  V30 23183 H 2224.81 3.85161 0.344639 0
M  V30 23184 H 2226.5 4.05895 -0.0193143 0
M  V30 23185 H 2227.27 4.1555 -2.50087 0
M  V30 23186 H 2223.15 4.42175 -1.30391 0
M  V30 23187 H 2226.69 5.18082 -4.67159 0
M  V30 23188 H 2222.59 5.44573 -3.46569 0
M  V30 23189 H 2223.36 6.12778 -5.42628 0
M  V30 23190 N 2226.02 0.560807 1.47284 0
M  V30 23191 C 2226.93 -0.187913 2.33846 0
M  V30 23192 C 2227.94 -0.908267 1.48413 0
M  V30 23193 O 2229.12 -0.876357 1.81334 0
M  V30 23194 C 2226.19 -1.20245 3.2518 0
M  V30 23195 C 2225.25 -0.489133 4.26504 0
M  V30 23196 C 2224.48 -1.45533 5.13474 0
M  V30 23197 O 2224.7 -2.69041 5.02964 0
M  V30 23198 O 2223.64 -0.977859 5.93904 0
M  V30 23199 H 2227.46 0.52223 2.99176 0
M  V30 23200 H 2225.05 0.321389 1.45902 0
M  V30 23201 H 2226.93 -1.78799 3.81587 0
M  V30 23202 H 2225.6 -1.89445 2.62474 0
M  V30 23203 H 2224.51 0.137693 3.73847 0
M  V30 23204 H 2225.84 0.161485 4.91935 0
M  V30 23205 N 2227.5 -1.54768 0.297442 0
M  V30 23206 C 2228.91 -1.59502 -0.0560543 0
M  V30 23207 C 2229.11 -1.31446 -1.52722 0
M  V30 23208 O 2228.17 -1.08615 -2.27945 0
M  V30 23209 C 2229.48 -2.98787 0.338683 0
M  V30 23210 C 2231.03 -3.1168 0.287152 0
M  V30 23211 C 2231.5 -4.53268 0.656659 0
M  V30 23212 N 2233 -4.59178 0.609058 0
M  V30 23213 C 2233.73 -5.668 0.867485 0
M  V30 23214 N 2233.23 -6.82474 1.19169 0
M  V30 23215 N 2235.02 -5.56453 0.794785 0
M  V30 23216 H 2227.17 -1.71265 1.25627 0
M  V30 23217 H 2229.43 -0.799719 0.509071 0
M  V30 23218 H 2229.14 -3.24228 1.36268 0
M  V30 23219 H 2229.01 -3.75929 -0.309442 0
M  V30 23220 H 2231.4 -2.8599 -0.727598 0
M  V30 23221 H 2231.48 -2.36701 0.96985 0
M  V30 23222 H 2231.13 -4.79688 1.6692 0
M  V30 23223 H 2231.06 -5.26578 -0.0480724 0
M  V30 23224 H 2233.55 -3.76092 0.369265 0
M  V30 23225 H 2233.86 -7.6047 1.37496 0
M  V30 23226 H 2232.2 -6.84035 1.2297 0
M  V30 23227 H 2235.4 -4.64961 0.54118 0
M  V30 23228 H 2235.57 -6.40244 0.999557 0
M  V30 23229 N 2228.97 -0.0251005 -1.5758 0
M  V30 23230 C 2230.2 0.663748 -1.95647 0
M  V30 23231 C 2230.61 1.66425 -0.899965 0
M  V30 23232 O 2229.96 1.83259 0.127159 0
M  V30 23233 C 2230.02 1.42994 -3.29838 0
M  V30 23234 C 2229.68 0.588225 -4.53199 0
M  V30 23235 C 2230.68 -0.134781 -5.19725 0
M  V30 23236 C 2228.36 0.526809 -4.9953 0
M  V30 23237 C 2230.36 -0.907921 -6.30901 0
M  V30 23238 C 2228.04 -0.250037 -6.10588 0
M  V30 23239 C 2229.04 -0.966113 -6.76133 0
M  V30 23240 O 2228.73 -1.73023 -7.85059 0
M  V30 23241 H 2228.46 0.188163 -0.649285 0
M  V30 23242 H 2231.02 -0.0799366 -2.05244 0
M  V30 23243 H 2229.25 2.21868 -3.1672 0
M  V30 23244 H 2230.94 2.00652 -3.52837 0
M  V30 23245 H 2231.7 -0.0966414 -4.84904 0
M  V30 23246 H 2227.58 1.07373 -4.48321 0
M  V30 23247 H 2231.12 -1.46736 -6.81993 0
M  V30 23248 H 2227.02 -0.289909 -6.44849 0
M  V30 23249 H 2227.79 -1.64958 -8.01705 0
M  V30 23250 N 2230.45 1.55637 0.247999 0
M  V30 23251 C 2231.4 1.86616 1.3099 0
M  V30 23252 C 2232.39 0.726943 1.43542 0
M  V30 23253 O 2233.58 0.988844 1.46802 0
M  V30 23254 C 2230.71 2.16339 2.66556 0
M  V30 23255 C 2229.79 3.36586 2.58013 0
M  V30 23256 N 2230.18 4.55882 2.19102 0
M  V30 23257 C 2228.48 3.39674 2.89029 0
M  V30 23258 C 2229.18 5.38016 2.21164 0
M  V30 23259 N 2228.16 4.7705 2.60623 0
M  V30 23260 H 2231.96 2.76381 0.999535 0
M  V30 23261 H 2229.48 1.55848 0.456625 0
M  V30 23262 H 2231.47 2.36698 3.4319 0
M  V30 23263 H 2230.13 1.27872 2.98461 0
M  V30 23264 H 2231.14 4.81526 1.90664 0
M  V30 23265 H 2227.82 2.61474 3.2548 0
M  V30 23266 H 2229.21 6.43455 1.93429 0
M  V30 23267 N 2231.93 -0.513613 1.48996 0
M  V30 23268 C 2233.16 -1.29759 1.61794 0
M  V30 23269 C 2233.58 -1.85936 0.284508 0
M  V30 23270 O 2232.94 -1.65234 -0.746156 0
M  V30 23271 C 2232.99 -2.41268 2.67997 0
M  V30 23272 O 2232.09 -3.44768 2.26294 0
M  V30 23273 H 2231.43 -0.383621 0.54197 0
M  V30 23274 H 2233.96 -0.616273 1.95098 0
M  V30 23275 H 2233.97 -2.87216 2.89777 0
M  V30 23276 H 2232.65 -1.99743 3.64795 0
M  V30 23277 H 2231.22 -3.04825 2.14793 0
M  V30 23278 N 2233.41 -1.37859 -0.763727 0
M  V30 23279 C 2234.36 -1.34271 -1.87723 0
M  V30 23280 C 2235.33 -0.206908 -1.64806 0
M  V30 23281 O 2236.51 -0.397541 -1.86613 0
M  V30 23282 C 2233.65 -1.16352 -3.24894 0
M  V30 23283 C 2232.76 -2.39231 -3.59711 0
M  V30 23284 C 2231.9 -2.14122 -4.86133 0
M  V30 23285 C 2230.94 -3.32826 -5.13705 0
M  V30 23286 N 2230.08 -3.07217 -6.31318 0
M  V30 23287 H 2234.92 -2.2947 -1.90125 0
M  V30 23288 H 2232.45 -1.14019 -0.929412 0
M  V30 23289 H 2234.41 -1.03982 -4.04034 0
M  V30 23290 H 2233.04 -0.247965 -3.21846 0
M  V30 23291 H 2232.09 -2.62312 -2.75494 0
M  V30 23292 H 2233.4 -3.27734 -3.76021 0
M  V30 23293 H 2232.56 -1.9883 -5.73194 0
M  V30 23294 H 2231.3 -1.22969 -4.71943 0
M  V30 23295 H 2230.3 -3.48649 -4.25116 0
M  V30 23296 H 2231.53 -4.24841 -5.29799 0
M  V30 23297 H 2229.47 -2.18701 -6.18471 0
M  V30 23298 H 2229.39 -3.89265 -6.48081 0
M  V30 23299 H 2230.66 -2.95558 -7.21294 0
M  V30 23300 N 2234.89 0.990791 -1.22561 0
M  V30 23301 C 2235.82 2.0834 -0.955362 0
M  V30 23302 C 2236.83 1.62663 0.0668122 0
M  V30 23303 O 2238.02 1.77713 -0.167452 0
M  V30 23304 C 2235.12 3.36342 -0.415625 0
M  V30 23305 C 2234.29 4.11039 -1.49552 0
M  V30 23306 C 2233.35 5.17322 -0.96249 0
M  V30 23307 O 2232.38 5.44785 -1.64917 0
M  V30 23308 N 2233.58 5.80102 0.215032 0
M  V30 23309 H 2236.35 2.32103 -1.896 0
M  V30 23310 H 2233.91 1.15671 -1.13278 0
M  V30 23311 H 2235.9 4.04676 -0.0443098 0
M  V30 23312 H 2234.47 3.09626 0.430178 0
M  V30 23313 H 2233.69 3.37306 -2.04006 0
M  V30 23314 H 2234.98 4.57715 -2.22203 0
M  V30 23315 H 2234.38 5.60161 0.789681 0
M  V30 23316 H 2232.93 6.4966 0.527712 0
M  V30 23317 N 2236.37 1.03564 1.18795 0
M  V30 23318 C 2237.61 0.731269 1.87977 0
M  V30 23319 C 2237.93 -0.743639 1.80913 0
M  V30 23320 O 2239.13 -1.16132 2.45409 0
M  V30 23321 C 2237.59 1.25774 3.37207 0
M  V30 23322 C 2237.2 2.76092 3.52814 0
M  V30 23323 C 2238.94 1.02967 4.11823 0
M  V30 23324 C 2236.85 3.22123 4.95975 0
M  V30 23325 H 2235.78 0.269848 0.704058 0
M  V30 23326 H 2238.43 1.25081 1.34264 0
M  V30 23327 H 2236.81 0.66608 3.90358 0
M  V30 23328 H 2237.99 3.40972 3.09959 0
M  V30 23329 H 2236.3 2.97254 2.91597 0
M  V30 23330 H 2238.9 1.34878 5.17409 0
M  V30 23331 H 2239.24 -0.0332814 4.16287 0
M  V30 23332 H 2239.77 1.58569 3.6483 0
M  V30 23333 H 2236.51 4.27777 4.96676 0
M  V30 23334 H 2236.03 2.61975 5.39564 0
M  V30 23335 H 2237.71 3.15854 5.64664 0
M  V30 23336 N 2237.84 -1.34926 0.814413 0
M  V30 23337 C 2239.09 -1.97796 0.394906 0
M  V30 23338 C 2239.41 -1.65313 -1.04552 0
M  V30 23339 O 2240.61 -2.21607 -1.56852 0
M  V30 23340 C 2239.07 -3.53886 0.655165 0
M  V30 23341 C 2238.68 -3.95272 2.10865 0
M  V30 23342 C 2240.42 -4.23429 0.301403 0
M  V30 23343 C 2238.33 -5.4424 2.31425 0
M  V30 23344 H 2237.26 -0.740136 0.143926 0
M  V30 23345 H 2239.91 -1.53886 0.999571 0
M  V30 23346 H 2238.29 -3.95995 -0.0195557 0
M  V30 23347 H 2239.46 -3.64293 2.82183 0
M  V30 23348 H 2237.78 -3.38642 2.42303 0
M  V30 23349 H 2240.38 -5.32944 0.432962 0
M  V30 23350 H 2240.72 -4.09429 -0.753238 0
M  V30 23351 H 2241.25 -3.86768 0.930356 0
M  V30 23352 H 2237.99 -5.63216 3.35363 0
M  V30 23353 H 2237.51 -5.76761 1.6464 0
M  V30 23354 H 2239.19 -6.10807 2.13362 0
M  V30 23355 N 2239.32 -0.56861 -1.46985 0
M  V30 23356 C 2240.57 -0.0487377 -2.02041 0
M  V30 23357 C 2240.89 1.31037 -1.44411 0
M  V30 23358 O 2240.16 1.85713 -0.62351 0
M  V30 23359 H 2238.74 -0.0150271 -0.746849 0
M  V30 23360 H 2241.4 -0.7412 -1.80256 0
M  V30 23361 H 2240.5 0.0308412 -3.12085 0
M  V30 23362 N 2240.8 1.54608 -0.305646 0
M  V30 23363 C 2242.05 1.9941 0.303063 0
M  V30 23364 C 2242.36 1.19767 1.54646 0
M  V30 23365 O 2243.57 1.54859 2.23005 0
M  V30 23366 C 2242.02 3.55022 0.590525 0
M  V30 23367 C 2241.63 4.4348 -0.634797 0
M  V30 23368 C 2243.38 4.08338 1.16017 0
M  V30 23369 C 2241.28 5.90532 -0.32023 0
M  V30 23370 H 2240.21 0.744864 0.117018 0
M  V30 23371 H 2242.86 1.78744 -0.415076 0
M  V30 23372 H 2241.25 3.71606 1.36838 0
M  V30 23373 H 2242.42 4.3867 -1.41086 0
M  V30 23374 H 2240.73 4.0096 -1.1234 0
M  V30 23375 H 2243.33 5.15778 1.40985 0
M  V30 23376 H 2243.67 3.59223 2.10391 0
M  V30 23377 H 2244.21 3.95315 0.443916 0
M  V30 23378 H 2240.95 6.43806 -1.23265 0
M  V30 23379 H 2240.47 5.98338 0.418474 0
M  V30 23380 H 2242.15 6.46955 0.0765103 0
M  V30 23381 N 2242.28 0.033457 1.57564 0
M  V30 23382 C 2243.69 -0.504766 1.79747 0
M  V30 23383 C 2244.04 -1.71991 0.944121 0
M  V30 23384 O 2243.16 -2.15839 0.155732 0
M  V30 23385 C 2243.76 -0.922509 3.25999 0
M  V30 23386 C 2242.32 -1.40582 3.49161 0
M  V30 23387 C 2241.47 -0.372585 2.74786 0
M  V30 23388 H 2244.42 0.259464 1.56565 0
M  V30 23389 H 2244.44 -1.7866 3.35948 0
M  V30 23390 H 2243.95 -0.0379142 3.88081 0
M  V30 23391 H 2242.05 -2.3102 2.92336 0
M  V30 23392 H 2242.16 -1.4102 4.57876 0
M  V30 23393 H 2240.53 -0.84163 2.40393 0
M  V30 23394 H 2241.31 0.503619 3.39586 0
M  V30 23395 N 2243.76 -1.55766 -0.239741 0
M  V30 23396 C 2244.7 -1.90915 -1.29693 0
M  V30 23397 C 2245.67 -0.76419 -1.47477 0
M  V30 23398 O 2246.86 -1.01848 -1.61343 0
M  V30 23399 C 2244 -2.21549 -2.64594 0
M  V30 23400 C 2243.11 -3.48886 -2.54759 0
M  V30 23401 C 2242.25 -3.69055 -3.82062 0
M  V30 23402 C 2241.28 -4.89969 -3.66874 0
M  V30 23403 N 2240.42 -5.06622 -4.86085 0
M  V30 23404 H 2245.26 -2.81069 -0.990175 0
M  V30 23405 H 2242.8 -1.39129 -0.477659 0
M  V30 23406 H 2244.76 -2.37316 -3.43128 0
M  V30 23407 H 2243.39 -1.3459 -2.93403 0
M  V30 23408 H 2242.44 -3.41412 -1.67757 0
M  V30 23409 H 2243.75 -4.37568 -2.3945 0
M  V30 23410 H 2242.9 -3.84821 -4.69039 0
M  V30 23411 H 2241.64 -2.78621 -4.00277 0
M  V30 23412 H 2240.65 -4.74173 -2.7828 0
M  V30 23413 H 2241.87 -5.81871 -3.50147 0
M  V30 23414 H 2239.82 -4.19126 -5.04647 0
M  V30 23415 H 2239.74 -5.89404 -4.73433 0
M  V30 23416 H 2241 -5.26806 -5.7454 0
M  V30 23417 N 2245.23 0.505704 -1.49266 0
M  V30 23418 C 2246.48 1.25672 -1.57764 0
M  V30 23419 C 2246.8 1.93764 -0.267405 0
M  V30 23420 O 2248 2.70517 -0.230875 0
M  V30 23421 C 2246.46 2.2816 -2.78336 0
M  V30 23422 C 2246.07 1.6603 -4.16099 0
M  V30 23423 C 2247.81 3.0412 -2.96161 0
M  V30 23424 C 2245.72 2.66601 -5.279 0
M  V30 23425 H 2244.65 0.472735 -0.587399 0
M  V30 23426 H 2247.3 0.531149 -1.75645 0
M  V30 23427 H 2245.68 3.0386 -2.53939 0
M  V30 23428 H 2246.85 0.963543 -4.50613 0
M  V30 23429 H 2245.17 1.02477 -4.03593 0
M  V30 23430 H 2247.77 3.7932 -3.76856 0
M  V30 23431 H 2248.11 3.61451 -2.0654 0
M  V30 23432 H 2248.64 2.35536 -3.20574 0
M  V30 23433 H 2245.38 2.14057 -6.19564 0
M  V30 23434 H 2244.9 3.34531 -4.97845 0
M  V30 23435 H 2246.58 3.29119 -5.57036 0
M  V30 23436 N 2246.71 1.38262 0.756405 0
M  V30 23437 C 2247.96 1.33633 1.5108 0
M  V30 23438 C 2248.27 -0.0719725 1.95468 0
M  V30 23439 O 2249.48 -0.240786 2.7043 0
M  V30 23440 C 2247.94 2.34648 2.72888 0
M  V30 23441 C 2247.54 3.81085 2.35537 0
M  V30 23442 C 2249.29 2.39058 3.50787 0
M  V30 23443 C 2247.2 4.73794 3.5394 0
M  V30 23444 H 2246.13 0.49672 0.567261 0
M  V30 23445 H 2248.78 1.63802 0.827118 0
M  V30 23446 H 2247.16 1.97519 3.43223 0
M  V30 23447 H 2248.33 4.27138 1.72887 0
M  V30 23448 H 2246.65 3.79767 1.7078 0
M  V30 23449 H 2249.24 3.05521 4.38818 0
M  V30 23450 H 2249.59 1.40868 3.91742 0
M  V30 23451 H 2250.12 2.74973 2.87462 0
M  V30 23452 H 2246.86 5.73169 3.18053 0
M  V30 23453 H 2246.38 4.32436 4.15643 0
M  V30 23454 H 2248.06 4.91671 4.20558 0
M  V30 23455 N 2248.19 -0.984277 1.23084 0
M  V30 23456 C 2249.12 -2.0783 0.966397 0
M  V30 23457 C 2250.14 -1.62696 -0.0581849 0
M  V30 23458 O 2251.32 -1.77622 0.176875 0
M  V30 23459 C 2248.42 -3.36117 0.433456 0
M  V30 23460 C 2247.6 -4.1024 1.51729 0
M  V30 23461 C 2246.66 -5.16805 0.989912 0
M  V30 23462 O 2245.68 -5.43903 1.67803 0
M  V30 23463 N 2246.88 -5.80207 -0.184265 0
M  V30 23464 H 2249.65 -2.31094 1.90829 0
M  V30 23465 H 2247.21 -1.15068 1.1389 0
M  V30 23466 H 2249.2 -4.04647 0.0657701 0
M  V30 23467 H 2247.77 -3.0985 -0.413752 0
M  V30 23468 H 2246.99 -3.36219 2.05792 0
M  V30 23469 H 2248.28 -4.5653 2.24627 0
M  V30 23470 H 2247.68 -5.60572 -0.759963 0
M  V30 23471 H 2246.24 -6.49931 -0.493252 0
M  V30 23472 N 2249.67 -1.04192 -1.18244 0
M  V30 23473 C 2250.6 -0.654953 -2.24126 0
M  V30 23474 C 2251.58 0.342422 -1.66618 0
M  V30 23475 O 2252.76 0.222243 -1.92924 0
M  V30 23476 C 2249.89 -0.0184367 -3.47295 0
M  V30 23477 C 2248.85 -0.939488 -4.17562 0
M  V30 23478 C 2248.17 -0.16738 -5.34438 0
M  V30 23479 C 2249.47 -2.25916 -4.70913 0
M  V30 23480 H 2251.17 -1.54012 -2.5675 0
M  V30 23481 H 2248.71 -0.741971 -1.23413 0
M  V30 23482 H 2250.67 0.264009 -4.20572 0
M  V30 23483 H 2249.39 0.901609 -3.13909 0
M  V30 23484 H 2248.05 -1.20634 -3.46184 0
M  V30 23485 H 2247.7 0.755112 -4.973 0
M  V30 23486 H 2247.4 -0.781003 -5.82387 0
M  V30 23487 H 2248.92 0.108018 -6.10504 0
M  V30 23488 H 2250.34 -2.03733 -5.35879 0
M  V30 23489 H 2248.73 -2.82586 -5.29401 0
M  V30 23490 H 2249.8 -2.90477 -3.88267 0
M  V30 23491 N 2251.15 1.34492 -0.821557 0
M  V30 23492 C 2252.39 2.00146 -0.41482 0
M  V30 23493 C 2252.75 1.63721 1.00296 0
M  V30 23494 O 2253.95 2.22209 1.51251 0
M  V30 23495 C 2252.22 3.52165 -0.609465 0
M  V30 23496 S 2253.78 4.37805 -0.295374 0
M  V30 23497 H 2250.6 0.693494 -0.156802 0
M  V30 23498 H 2253.2 1.6381 -1.06707 0
M  V30 23499 H 2251.91 3.76163 -1.64103 0
M  V30 23500 H 2251.44 3.93358 0.0575723 0
M  V30 23501 H 2253.45 4.88127 0.891445 0
M  V30 23502 N 2252.62 0.576397 1.46681 0
M  V30 23503 C 2253.9 -0.00699999 1.95599 0
M  V30 23504 C 2254.28 -1.46587 1.51906 0
M  V30 23505 O 2253.63 -2.1525 0.766793 0
M  V30 23506 C 2253.84 0.158466 3.4864 0
M  V30 23507 C 2255.19 0.0230186 4.24594 0
M  V30 23508 O 2256.21 0.0869799 3.56094 0
M  V30 23509 O 2255.07 -0.117919 5.46373 0
M  V30 23510 H 2252.16 -0.0533695 0.825276 0
M  V30 23511 H 2254.71 0.644271 1.56994 0
M  V30 23512 H 2253.48 1.17289 3.73308 0
M  V30 23513 H 2253.11 -0.529531 3.94058 0
M  V30 23514 N 2254.1 -1.54444 0.313841 0
M  V30 23515 C 2255.35 -1.99993 -0.291064 0
M  V30 23516 C 2255.67 -1.20369 -1.53416 0
M  V30 23517 O 2254.94 -0.302961 -1.93543 0
M  V30 23518 H 2253.52 -0.738776 -0.110539 0
M  V30 23519 H 2256.18 -1.90139 0.428139 0
M  V30 23520 H 2255.28 -3.0714 -0.554214 0
M  V30 23521 N 2255.58 -0.0418125 -1.57545 0
M  V30 23522 C 2256.83 0.633458 -1.91495 0
M  V30 23523 C 2257.14 1.72554 -0.921114 0
M  V30 23524 O 2258.35 2.45833 -1.15232 0
M  V30 23525 C 2256.8 1.17803 -3.40074 0
M  V30 23526 C 2256.41 0.118554 -4.47843 0
M  V30 23527 C 2258.16 1.82908 -3.83073 0
M  V30 23528 C 2256.06 0.675475 -5.8753 0
M  V30 23529 H 2254.99 0.240377 -0.714657 0
M  V30 23530 H 2257.64 -0.10918 -1.83175 0
M  V30 23531 H 2256.03 1.97268 -3.43368 0
M  V30 23532 H 2257.2 -0.654575 -4.56127 0
M  V30 23533 H 2255.52 -0.434487 -4.14127 0
M  V30 23534 H 2258.11 2.25554 -4.84798 0
M  V30 23535 H 2258.46 2.67699 -3.18815 0
M  V30 23536 H 2258.99 1.10112 -3.82257 0
M  V30 23537 H 2255.73 -0.13459 -6.55362 0
M  V30 23538 H 2255.25 1.4168 -5.82827 0
M  V30 23539 H 2256.93 1.16129 -6.36493 0
M  V30 23540 N 2257.06 1.55891 0.231477 0
M  V30 23541 C 2257.99 1.86597 1.31365 0
M  V30 23542 C 2258.97 0.722423 1.4567 0
M  V30 23543 O 2260.15 0.969771 1.61641 0
M  V30 23544 C 2257.28 2.06426 2.68526 0
M  V30 23545 C 2256.33 3.29097 2.71289 0
M  V30 23546 S 2257.16 4.8531 2.2635 0
M  V30 23547 C 2258.32 5.08164 3.65405 0
M  V30 23548 H 2258.55 2.78094 1.05123 0
M  V30 23549 H 2256.08 1.48197 0.433232 0
M  V30 23550 H 2258.04 2.18534 3.47496 0
M  V30 23551 H 2256.7 1.15743 2.91997 0
M  V30 23552 H 2255.89 3.39985 3.72057 0
M  V30 23553 H 2255.5 3.15794 2.00375 0
M  V30 23554 H 2257.79 4.96453 4.61021 0
M  V30 23555 H 2258.73 6.10089 3.59439 0
M  V30 23556 H 2259.14 4.35939 3.58632 0
M  V30 23557 N 2258.54 -0.497781 1.49532 0
M  V30 23558 C 2259.5 -1.58125 1.65919 0
M  V30 23559 C 2260.5 -1.51785 0.530851 0
M  V30 23560 O 2261.69 -1.54879 0.79737 0
M  V30 23561 C 2258.82 -2.97777 1.65956 0
M  V30 23562 H 2260.01 -1.44924 2.62559 0
M  V30 23563 H 2257.57 -0.722251 1.38612 0
M  V30 23564 H 2258.3 -3.16452 0.70912 0
M  V30 23565 H 2258.09 -3.03788 2.47902 0
M  V30 23566 H 2259.58 -3.7649 1.80679 0
M  V30 23567 N 2260.01 -1.38661 -0.749062 0
M  V30 23568 C 2261.24 -1.3854 -1.54342 0
M  V30 23569 C 2261.66 0.0216325 -1.88088 0
M  V30 23570 O 2261.02 1.00491 -1.50901 0
M  V30 23571 C 2261.07 -2.25197 -2.81636 0
M  V30 23572 O 2260.17 -1.67218 -3.76977 0
M  V30 23573 H 2259.52 -0.472375 -0.466646 0
M  V30 23574 H 2262.05 -1.8248 -0.925323 0
M  V30 23575 H 2262.06 -2.39215 -3.30515 0
M  V30 23576 H 2260.73 -3.27459 -2.56405 0
M  V30 23577 H 2259.31 -1.62366 -3.35696 0
M  V30 23578 N 2261.49 0.977736 -1.23605 0
M  V30 23579 C 2262.74 1.71599 -1.06762 0
M  V30 23580 C 2263.06 1.90939 0.395895 0
M  V30 23581 O 2262.33 1.47994 1.28353 0
M  V30 23582 H 2260.91 0.635836 -0.392074 0
M  V30 23583 H 2263.57 1.17678 -1.55364 0
M  V30 23584 H 2262.67 2.70449 -1.55768 0
M  V30 23585 N 2262.97 1.04818 1.1769 0
M  V30 23586 C 2264.39 0.768819 1.39862 0
M  V30 23587 C 2264.59 -0.638418 1.91119 0
M  V30 23588 O 2263.64 -1.40143 2.10039 0
M  V30 23589 C 2264.96 1.82126 2.39271 0
M  V30 23590 C 2266.5 1.84304 2.52984 0
M  V30 23591 C 2266.98 2.88561 3.55664 0
M  V30 23592 N 2268.47 2.875 3.63178 0
M  V30 23593 C 2269.21 3.64819 4.42374 0
M  V30 23594 N 2268.7 4.51912 5.25117 0
M  V30 23595 N 2270.49 3.53275 4.37211 0
M  V30 23596 H 2262.65 1.95618 0.827485 0
M  V30 23597 H 2264.91 0.846839 0.426108 0
M  V30 23598 H 2264.61 2.83105 2.08673 0
M  V30 23599 H 2264.49 1.65972 3.38723 0
M  V30 23600 H 2266.88 0.839919 2.82895 0
M  V30 23601 H 2266.96 2.04535 1.5362 0
M  V30 23602 H 2266.6 3.89057 3.26492 0
M  V30 23603 H 2266.53 2.65583 4.54723 0
M  V30 23604 H 2269.02 2.24348 3.04099 0
M  V30 23605 H 2269.33 5.07601 5.82719 0
M  V30 23606 H 2267.68 4.55975 5.24511 0
M  V30 23607 H 2270.87 2.84632 3.71621 0
M  V30 23608 H 2271.04 4.1378 4.98688 0
M  V30 23609 N 2264.45 -1.34055 0.828678 0
M  V30 23610 C 2265.4 -2.29413 0.252607 0
M  V30 23611 C 2266.37 -1.53858 -0.625853 0
M  V30 23612 O 2267.55 -1.82203 -0.56628 0
M  V30 23613 C 2264.69 -3.4028 -0.574771 0
M  V30 23614 C 2263.8 -4.30764 0.326575 0
M  V30 23615 C 2262.94 -5.28737 -0.510923 0
M  V30 23616 C 2261.98 -6.1086 0.38945 0
M  V30 23617 N 2261.12 -7.00906 -0.409315 0
M  V30 23618 H 2265.96 -2.78084 1.07113 0
M  V30 23619 H 2263.49 -1.36842 0.539701 0
M  V30 23620 H 2265.45 -4.03249 -1.06985 0
M  V30 23621 H 2264.08 -2.92828 -1.35836 0
M  V30 23622 H 2263.13 -3.68605 0.939902 0
M  V30 23623 H 2264.44 -4.88288 1.01866 0
M  V30 23624 H 2263.6 -5.97186 -1.07024 0
M  V30 23625 H 2262.34 -4.71765 -1.23648 0
M  V30 23626 H 2261.34 -5.41339 0.960864 0
M  V30 23627 H 2262.57 -6.69914 1.11321 0
M  V30 23628 H 2260.51 -6.46395 -1.11845 0
M  V30 23629 H 2260.43 -7.55667 0.224259 0
M  V30 23630 H 2261.7 -7.73675 -0.9512 0
M  V30 23631 N 2265.93 -0.584167 -1.46374 0
M  V30 23632 C 2266.89 0.138068 -2.28784 0
M  V30 23633 C 2267.89 0.817438 -1.38472 0
M  V30 23634 O 2269.08 0.669171 -1.60835 0
M  V30 23635 C 2266.21 1.20497 -3.18894 0
M  V30 23636 H 2267.41 -0.586179 -2.94116 0
M  V30 23637 H 2264.96 -0.342198 -1.52508 0
M  V30 23638 H 2265.69 1.96075 -2.58312 0
M  V30 23639 H 2265.48 0.722316 -3.85389 0
M  V30 23640 H 2266.97 1.71148 -3.80917 0
M  V30 23641 N 2267.41 1.54275 -0.322027 0
M  V30 23642 C 2268.65 2.00838 0.281425 0
M  V30 23643 C 2268.98 1.20987 1.51907 0
M  V30 23644 O 2268.26 0.291767 1.92299 0
M  V30 23645 C 2268.54 3.54773 0.6171 0
M  V30 23646 C 2268.4 4.4535 -0.631143 0
M  V30 23647 C 2269.71 4.16036 1.43535 0
M  V30 23648 H 2266.83 0.730072 0.100813 0
M  V30 23649 H 2269.48 1.84875 -0.4383 0
M  V30 23650 H 2267.63 3.68506 1.23027 0
M  V30 23651 H 2269.3 4.4349 -1.26942 0
M  V30 23652 H 2267.54 4.15088 -1.26032 0
M  V30 23653 H 2268.21 5.50878 -0.351832 0
M  V30 23654 H 2270.69 4.05868 0.917063 0
M  V30 23655 H 2269.56 5.23859 1.63898 0
M  V30 23656 H 2269.82 3.69262 2.43101 0
M  V30 23657 N 2268.88 0.0501669 1.5752 0
M  V30 23658 C 2270.11 -0.633457 1.96964 0
M  V30 23659 C 2270.53 -1.64438 0.92766 0
M  V30 23660 O 2269.88 -1.82287 -0.0882344 0
M  V30 23661 C 2269.93 -1.32126 3.36489 0
M  V30 23662 O 2269.66 -0.350817 4.36693 0
M  V30 23663 C 2271.16 -2.09474 3.90686 0
M  V30 23664 H 2268.38 -0.173255 0.648247 0
M  V30 23665 H 2270.92 0.116169 2.0417 0
M  V30 23666 H 2269.08 -2.02212 3.30437 0
M  V30 23667 H 2269.49 -0.841644 5.17703 0
M  V30 23668 H 2270.96 -2.53021 4.90596 0
M  V30 23669 H 2271.44 -2.94249 3.26059 0
M  V30 23670 H 2272.05 -1.443 4.00072 0
M  V30 23671 N 2270.36 -1.56011 -0.223207 0
M  V30 23672 C 2271.31 -1.88676 -1.28005 0
M  V30 23673 C 2272.3 -0.749688 -1.42367 0
M  V30 23674 O 2273.49 -1.01207 -1.4521 0
M  V30 23675 C 2270.62 -2.20553 -2.63081 0
M  V30 23676 C 2269.7 -3.40648 -2.52626 0
M  V30 23677 N 2270.09 -4.5931 -2.11821 0
M  V30 23678 C 2268.39 -3.44229 -2.83588 0
M  V30 23679 C 2269.09 -5.41466 -2.12577 0
M  V30 23680 N 2268.07 -4.81136 -2.53001 0
M  V30 23681 H 2271.87 -2.77936 -0.955438 0
M  V30 23682 H 2269.38 -1.56555 -0.431773 0
M  V30 23683 H 2271.38 -2.42128 -3.39381 0
M  V30 23684 H 2270.04 -1.32604 -2.96389 0
M  V30 23685 H 2271.05 -4.84499 -1.82979 0
M  V30 23686 H 2267.73 -2.66619 -3.21279 0
M  V30 23687 H 2269.12 -6.46451 -1.83168 0
M  V30 23688 N 2271.84 0.489844 -1.49794 0
M  V30 23689 C 2272.8 1.57243 -1.66755 0
M  V30 23690 C 2273.8 1.51501 -0.538894 0
M  V30 23691 O 2274.99 1.54454 -0.805572 0
M  V30 23692 C 2272.12 2.96893 -1.67533 0
M  V30 23693 H 2273.32 1.4353 -2.63323 0
M  V30 23694 H 2270.87 0.71489 -1.38993 0
M  V30 23695 H 2271.61 3.16072 -0.725893 0
M  V30 23696 H 2271.39 3.02469 -2.49509 0
M  V30 23697 H 2272.88 3.75526 -1.82674 0
M  V30 23698 N 2273.32 1.39056 0.741698 0
M  V30 23699 C 2274.57 1.35228 1.49654 0
M  V30 23700 C 2274.88 -0.0512365 1.95533 0
M  V30 23701 O 2276.09 -0.21209 2.7067 0
M  V30 23702 C 2274.54 2.3753 2.70384 0
M  V30 23703 C 2274.15 3.83562 2.31482 0
M  V30 23704 C 2275.89 2.42765 3.48232 0
M  V30 23705 C 2273.8 4.77521 3.48895 0
M  V30 23706 H 2272.73 0.502709 0.561961 0
M  V30 23707 H 2275.38 1.6467 0.809698 0
M  V30 23708 H 2273.76 2.01148 3.41109 0
M  V30 23709 H 2274.94 4.28948 1.68347 0
M  V30 23710 H 2273.25 3.81557 1.66742 0
M  V30 23711 H 2275.85 3.10158 4.35553 0
M  V30 23712 H 2276.19 1.45015 3.90226 0
M  V30 23713 H 2276.73 2.78007 2.8453 0
M  V30 23714 H 2273.46 5.7651 3.11956 0
M  V30 23715 H 2272.98 4.3682 4.11033 0
M  V30 23716 H 2274.66 4.96104 4.15319 0
M  V30 23717 N 2274.8 -0.971167 1.24121 0
M  V30 23718 C 2276.21 -1.52829 1.07239 0
M  V30 23719 C 2276.56 -1.92919 -0.357318 0
M  V30 23720 O 2275.68 -1.76982 -1.24525 0
M  V30 23721 C 2276.28 -2.77724 1.94048 0
M  V30 23722 C 2274.84 -3.29805 1.81399 0
M  V30 23723 C 2273.98 -2.02735 1.89193 0
M  V30 23724 H 2276.93 -0.78984 1.37649 0
M  V30 23725 H 2276.96 -3.50927 1.47072 0
M  V30 23726 H 2276.47 -2.48515 2.98097 0
M  V30 23727 H 2274.57 -3.63873 0.801698 0
M  V30 23728 H 2274.68 -3.98939 2.65301 0
M  V30 23729 H 2273.05 -2.1729 1.32881 0
M  V30 23730 H 2273.83 -1.75895 2.94815 0
M  V30 23731 N 2276.27 -1.05441 -1.17133 0
M  V30 23732 C 2277.24 -0.661802 -2.19438 0
M  V30 23733 C 2278.24 0.288014 -1.582 0
M  V30 23734 O 2279.43 0.0715497 -1.74053 0
M  V30 23735 C 2276.56 0.027561 -3.40889 0
M  V30 23736 H 2277.75 -1.56732 -2.55685 0
M  V30 23737 H 2275.31 -0.84859 -1.31258 0
M  V30 23738 H 2276.04 0.946235 -3.10188 0
M  V30 23739 H 2275.83 -0.655306 -3.86585 0
M  V30 23740 H 2277.32 0.288269 -4.16604 0
M  V30 23741 N 2277.75 1.33613 -0.835776 0
M  V30 23742 C 2278.68 2.31794 -0.28178 0
M  V30 23743 C 2279.66 1.58832 0.608805 0
M  V30 23744 O 2280.85 1.86742 0.533002 0
M  V30 23745 C 2277.98 3.42972 0.546552 0
M  V30 23746 C 2276.93 4.27281 -0.247979 0
M  V30 23747 C 2276.26 5.30046 0.703907 0
M  V30 23748 C 2277.56 5.01382 -1.46333 0
M  V30 23749 H 2279.25 2.78377 -1.10211 0
M  V30 23750 H 2276.8 1.33836 -0.531412 0
M  V30 23751 H 2278.75 4.10681 0.944395 0
M  V30 23752 H 2277.48 2.95069 1.40006 0
M  V30 23753 H 2276.13 3.61192 -0.627345 0
M  V30 23754 H 2275.78 4.78402 1.55373 0
M  V30 23755 H 2275.48 5.87335 0.176421 0
M  V30 23756 H 2277.01 6.00622 1.09933 0
M  V30 23757 H 2278.42 5.61875 -1.13881 0
M  V30 23758 H 2276.82 5.68306 -1.92738 0
M  V30 23759 H 2277.89 4.30334 -2.23474 0
M  V30 23760 N 2279.23 0.591922 1.46062 0
M  V30 23761 C 2280.16 -0.173961 2.28539 0
M  V30 23762 C 2281.18 -0.846729 1.39048 0
M  V30 23763 O 2282.36 -0.714745 1.63565 0
M  V30 23764 C 2279.46 -1.2664 3.14349 0
M  V30 23765 C 2278.64 -0.68378 4.32022 0
M  V30 23766 C 2277.7 -1.6651 4.9916 0
M  V30 23767 O 2276.72 -1.19753 5.5646 0
M  V30 23768 N 2277.92 -2.99934 4.97011 0
M  V30 23769 H 2280.69 0.533685 2.9491 0
M  V30 23770 H 2278.25 0.430321 1.56076 0
M  V30 23771 H 2280.24 -1.92235 3.56129 0
M  V30 23772 H 2278.81 -1.87678 2.49992 0
M  V30 23773 H 2278.03 0.149869 3.93915 0
M  V30 23774 H 2279.32 -0.274477 5.08059 0
M  V30 23775 H 2278.72 -3.40537 4.5172 0
M  V30 23776 H 2277.28 -3.60995 5.42703 0
M  V30 23777 N 2280.71 -1.54102 0.330204 0
M  V30 23778 C 2282.12 -1.86043 -0.156487 0
M  V30 23779 C 2282.47 -1.25173 -1.51083 0
M  V30 23780 O 2281.6 -0.560254 -2.09022 0
M  V30 23781 C 2282.19 -3.3755 -0.290725 0
M  V30 23782 C 2280.75 -3.69418 -0.72164 0
M  V30 23783 C 2279.9 -2.76879 0.152671 0
M  V30 23784 H 2282.85 -1.48855 0.550263 0
M  V30 23785 H 2282.87 -3.63627 -1.12051 0
M  V30 23786 H 2282.38 -3.81824 0.695135 0
M  V30 23787 H 2280.48 -3.30681 -1.71701 0
M  V30 23788 H 2280.59 -4.76261 -0.520785 0
M  V30 23789 H 2278.96 -2.51956 -0.37285 0
M  V30 23790 H 2279.74 -3.2398 1.13542 0
M  V30 23791 N 2282.19 -0.0585199 -1.57491 0
M  V30 23792 C 2283.44 0.613112 -1.92156 0
M  V30 23793 C 2283.75 1.71567 -0.939364 0
M  V30 23794 O 2284.95 2.44597 -1.17833 0
M  V30 23795 C 2283.41 1.14189 -3.41305 0
M  V30 23796 C 2283.02 0.0710478 -4.47944 0
M  V30 23797 C 2284.76 1.78835 -3.84991 0
M  V30 23798 C 2282.67 0.613122 -5.88213 0
M  V30 23799 H 2281.6 0.232784 -0.717166 0
M  V30 23800 H 2284.25 -0.128602 -1.83049 0
M  V30 23801 H 2282.63 1.93615 -3.45441 0
M  V30 23802 H 2283.81 -0.702916 -4.55407 0
M  V30 23803 H 2282.12 -0.478386 -4.13643 0
M  V30 23804 H 2284.72 2.204 -4.87163 0
M  V30 23805 H 2285.06 2.64303 -3.21636 0
M  V30 23806 H 2285.59 1.06052 -3.83403 0
M  V30 23807 H 2282.33 -0.204093 -6.55182 0
M  V30 23808 H 2281.85 1.35491 -5.84296 0
M  V30 23809 H 2283.53 1.09371 -6.37689 0
M  V30 23810 N 2283.66 1.56128 0.21493 0
M  V30 23811 C 2284.91 1.79713 0.93973 0
M  V30 23812 C 2285.24 0.629279 1.83722 0
M  V30 23813 O 2284.52 -0.371163 1.90926 0
M  V30 23814 C 2284.8 3.13427 1.773 0
M  V30 23815 C 2284.65 4.40672 0.901562 0
M  V30 23816 C 2285.97 3.43643 2.7495 0
M  V30 23817 H 2283.09 0.653782 0.340203 0
M  V30 23818 H 2285.73 1.88856 0.208207 0
M  V30 23819 H 2283.88 3.05764 2.39667 0
M  V30 23820 H 2285.56 4.60361 0.294125 0
M  V30 23821 H 2283.8 4.33304 0.207291 0
M  V30 23822 H 2284.47 5.30685 1.51913 0
M  V30 23823 H 2286.95 3.51477 2.22717 0
M  V30 23824 H 2285.82 4.38361 3.3035 0
M  V30 23825 H 2286.08 2.66141 3.53018 0
M  V30 23826 N 2285.14 -0.481893 1.50052 0
M  V30 23827 C 2286.09 -1.57857 1.64515 0
M  V30 23828 C 2287.08 -1.52931 0.5001 0
M  V30 23829 O 2288.27 -1.60137 0.753992 0
M  V30 23830 C 2285.4 -2.96367 1.73268 0
M  V30 23831 C 2284.48 -3.06217 2.93414 0
M  V30 23832 N 2284.87 -2.85908 4.17241 0
M  V30 23833 C 2283.17 -3.37341 2.91748 0
M  V30 23834 C 2283.87 -3.00442 4.98106 0
M  V30 23835 N 2282.85 -3.30167 4.31846 0
M  V30 23836 H 2286.65 -1.40838 2.57957 0
M  V30 23837 H 2284.17 -0.688413 1.47087 0
M  V30 23838 H 2286.16 -3.75206 1.81731 0
M  V30 23839 H 2284.82 -3.14441 0.809767 0
M  V30 23840 H 2285.83 -2.61703 4.46914 0
M  V30 23841 H 2282.51 -3.61471 2.08913 0
M  V30 23842 H 2283.9 -2.89071 6.06537 0
M  V30 23843 N 2286.62 -1.39448 -0.734313 0
M  V30 23844 C 2287.9 -1.27217 -1.48577 0
M  V30 23845 C 2288.28 0.117931 -2.1077 0
M  V30 23846 O 2287.63 1.12921 -1.98648 0
M  V30 23847 C 2287.84 -2.397 -2.53663 0
M  V30 23848 C 2289.18 -2.7905 -3.20026 0
M  V30 23849 O 2290.21 -2.39155 -2.63976 0
M  V30 23850 O 2289.07 -3.47912 -4.21449 0
M  V30 23851 H 2286.16 -0.498582 -0.659807 0
M  V30 23852 H 2288.71 -1.51323 -0.76808 0
M  V30 23853 H 2287.48 -3.3263 -2.0609 0
M  V30 23854 H 2287.1 -2.17264 -3.3299 0
M  V30 23855 N 2288.1 0.964571 -1.24635 0
M  V30 23856 C 2289.03 2.07739 -1.06614 0
M  V30 23857 C 2290.01 1.70086 0.0218367 0
M  V30 23858 O 2291.19 1.93652 -0.145827 0
M  V30 23859 C 2288.32 3.40707 -0.673503 0
M  V30 23860 C 2287.28 3.92329 -1.71061 0
M  V30 23861 C 2286.6 5.21676 -1.17294 0
M  V30 23862 C 2287.9 4.19818 -3.10725 0
M  V30 23863 H 2289.6 2.23073 -1.99697 0
M  V30 23864 H 2287.14 1.07193 -0.961539 0
M  V30 23865 H 2289.1 4.17998 -0.534418 0
M  V30 23866 H 2287.82 3.25283 0.293016 0
M  V30 23867 H 2286.48 3.17198 -1.83796 0
M  V30 23868 H 2286.13 5.02614 -0.196935 0
M  V30 23869 H 2285.83 5.57183 -1.86602 0
M  V30 23870 H 2287.35 6.01573 -1.04604 0
M  V30 23871 H 2288.77 4.87802 -3.01201 0
M  V30 23872 H 2287.16 4.6656 -3.77414 0
M  V30 23873 H 2288.23 3.26473 -3.5853 0
M  V30 23874 N 2289.58 1.0606 1.16572 0
M  V30 23875 C 2290.82 0.775905 1.87045 0
M  V30 23876 C 2291.15 -0.697502 1.81563 0
M  V30 23877 O 2290.41 -1.5266 1.22447 0
M  V30 23878 C 2290.71 1.21281 3.36193 0
M  V30 23879 C 2290.37 2.68993 3.61875 0
M  V30 23880 C 2289.03 3.09341 3.68594 0
M  V30 23881 C 2291.39 3.64401 3.72641 0
M  V30 23882 C 2288.71 4.43944 3.83577 0
M  V30 23883 C 2291.07 4.98748 3.89145 0
M  V30 23884 C 2289.73 5.38737 3.94105 0
M  V30 23885 H 2289 0.283924 0.684447 0
M  V30 23886 H 2291.65 1.32927 1.3785 0
M  V30 23887 H 2289.95 0.578596 3.87504 0
M  V30 23888 H 2291.65 0.96961 3.89101 0
M  V30 23889 H 2288.24 2.36751 3.57277 0
M  V30 23890 H 2292.42 3.34363 3.66763 0
M  V30 23891 H 2287.68 4.74415 3.85668 0
M  V30 23892 H 2291.85 5.72561 3.96417 0
M  V30 23893 H 2289.48 6.4304 4.05467 0
M  V30 23894 N 2291.06 -1.33168 0.84285 0
M  V30 23895 C 2292.3 -1.97944 0.441134 0
M  V30 23896 C 2292.63 -1.66594 -0.997994 0
M  V30 23897 O 2291.91 -0.947927 -1.69837 0
M  V30 23898 C 2292.19 -3.53871 0.666903 0
M  V30 23899 C 2292.05 -3.94893 2.15359 0
M  V30 23900 C 2293.36 -4.39948 0.115622 0
M  V30 23901 H 2290.48 -0.719031 0.161752 0
M  V30 23902 H 2293.13 -1.57744 1.0591 0
M  V30 23903 H 2291.28 -3.88244 0.140896 0
M  V30 23904 H 2292.95 -3.70756 2.74477 0
M  V30 23905 H 2291.19 -3.4448 2.63659 0
M  V30 23906 H 2291.86 -5.03512 2.2623 0
M  V30 23907 H 2294.34 -4.12242 0.565286 0
M  V30 23908 H 2293.21 -5.48062 0.303249 0
M  V30 23909 H 2293.47 -4.31082 -0.980859 0
M  V30 23910 N 2292.53 -0.599659 -1.45746 0
M  V30 23911 C 2293.46 0.111265 -2.33235 0
M  V30 23912 C 2294.44 0.866755 -1.4636 0
M  V30 23913 O 2295.63 0.838873 -1.75147 0
M  V30 23914 C 2292.76 1.11445 -3.28934 0
M  V30 23915 C 2291.71 0.472697 -4.25382 0
M  V30 23916 C 2291.04 1.58356 -5.10713 0
M  V30 23917 C 2292.34 -0.60104 -5.1883 0
M  V30 23918 H 2294.03 -0.619241 -2.92926 0
M  V30 23919 H 2291.58 -0.29924 -1.40857 0
M  V30 23920 H 2293.53 1.62029 -3.89004 0
M  V30 23921 H 2292.26 1.87545 -2.67384 0
M  V30 23922 H 2290.92 -0.0122117 -3.66598 0
M  V30 23923 H 2290.56 2.33465 -4.45537 0
M  V30 23924 H 2290.26 1.15971 -5.76042 0
M  V30 23925 H 2291.79 2.09183 -5.7365 0
M  V30 23926 H 2293.2 -0.179592 -5.73019 0
M  V30 23927 H 2291.6 -0.94618 -5.92594 0
M  V30 23928 H 2292.67 -1.48076 -4.61738 0
M  V30 23929 N 2294.01 1.53925 -0.338371 0
M  V30 23930 C 2295.43 1.59594 0.0137455 0
M  V30 23931 C 2295.63 1.35449 1.49183 0
M  V30 23932 O 2294.68 1.1462 2.24985 0
M  V30 23933 C 2296 2.97784 -0.417782 0
M  V30 23934 C 2297.54 3.10809 -0.369688 0
M  V30 23935 C 2298.02 4.51368 -0.776604 0
M  V30 23936 N 2299.51 4.57402 -0.730587 0
M  V30 23937 C 2300.25 5.64301 -1.01746 0
M  V30 23938 N 2299.74 6.79074 -1.37222 0
M  V30 23939 N 2301.53 5.5415 -0.942039 0
M  V30 23940 H 2293.69 1.67874 -1.30123 0
M  V30 23941 H 2295.95 0.785941 -0.530096 0
M  V30 23942 H 2295.65 3.20501 -1.44817 0
M  V30 23943 H 2295.53 3.76617 0.209663 0
M  V30 23944 H 2297.92 2.87818 0.651517 0
M  V30 23945 H 2298 2.34047 -1.03227 0
M  V30 23946 H 2297.64 4.75093 -1.79579 0
M  V30 23947 H 2297.57 5.2652 -0.0915574 0
M  V30 23948 H 2300.06 3.7498 -0.468849 0
M  V30 23949 H 2300.37 7.56557 -1.5761 0
M  V30 23950 H 2298.72 6.80534 -1.41062 0
M  V30 23951 H 2301.91 4.63363 -0.664266 0
M  V30 23952 H 2302.08 6.37369 -1.16896 0
M  V30 23953 N 2295.49 0.0668712 1.57458 0
M  V30 23954 C 2296.74 -0.60218 1.9292 0
M  V30 23955 C 2297.06 -1.70447 0.947245 0
M  V30 23956 O 2296.33 -1.95899 -0.00540674 0
M  V30 23957 H 2294.91 -0.225428 0.712174 0
M  V30 23958 H 2297.57 0.123569 1.94508 0
M  V30 23959 H 2296.67 -1.03067 2.9459 0
M  V30 23960 N 2296.97 -1.56239 -0.206647 0
M  V30 23961 C 2298.2 -1.84042 -0.945313 0
M  V30 23962 C 2298.61 -0.647917 -1.77334 0
M  V30 23963 O 2297.97 0.38348 -1.78426 0
M  V30 23964 C 2298.02 -3.10525 -1.85084 0
M  V30 23965 O 2297.74 -4.25176 -1.05626 0
M  V30 23966 C 2299.24 -3.51423 -2.70216 0
M  V30 23967 H 2296.46 -0.611445 -0.276362 0
M  V30 23968 H 2299 -2.03341 -0.217381 0
M  V30 23969 H 2297.16 -2.93157 -2.53254 0
M  V30 23970 H 2297.57 -4.97126 -1.67229 0
M  V30 23971 H 2299.05 -4.42922 -3.2943 0
M  V30 23972 H 2299.52 -2.7387 -3.43354 0
M  V30 23973 H 2300.13 -3.71282 -2.07436 0
M  V30 23974 N 2298.45 0.473929 -1.50305 0
M  V30 23975 C 2299.39 1.59304 -1.69485 0
M  V30 23976 C 2300.39 1.59852 -0.560697 0
M  V30 23977 O 2301.59 1.64035 -0.741116 0
M  V30 23978 H 2297.97 0.528569 -0.534901 0
M  V30 23979 H 2299.94 1.40288 -2.63366 0
M  V30 23980 C 2298.69 2.97264 -1.80359 0
M  V30 23981 H 2298.01 2.9756 -2.67017 0
M  V30 23982 H 2299.45 3.75032 -1.97805 0
M  V30 23983 C 2297.91 3.32305 -0.554538 0
M  V30 23984 O 2298.44 4.00521 0.307591 0
M  V30 23985 N 2296.65 2.87702 -0.409404 0
M  V30 23986 H 2296.19 2.32362 -1.112 0
M  V30 23987 H 2296.15 3.11512 0.425168 0
M  V30 23988 N 2299.92 1.39835 0.726907 0
M  V30 23989 C 2300.87 1.392 1.84097 0
M  V30 23990 C 2301.84 0.250531 1.642 0
M  V30 23991 O 2303.03 0.446879 1.85493 0
M  V30 23992 C 2300.17 1.24925 3.21695 0
M  V30 23993 C 2299.28 2.48684 3.53242 0
M  V30 23994 C 2298.41 2.26936 4.80285 0
M  V30 23995 C 2297.45 3.46329 5.047 0
M  V30 23996 N 2296.59 3.23847 6.22951 0
M  V30 23997 H 2301.43 2.3443 1.83974 0
M  V30 23998 H 2298.97 1.16443 0.898856 0
M  V30 23999 H 2300.92 1.14658 4.01135 0
M  V30 24000 H 2299.55 0.33321 3.21076 0
M  V30 24001 H 2298.61 2.69524 2.68442 0
M  V30 24002 H 2299.92 3.37589 3.67199 0
M  V30 24003 H 2299.07 2.13957 5.67721 0
M  V30 24004 H 2297.81 1.35439 4.68516 0
M  V30 24005 H 2296.82 3.59798 4.15723 0
M  V30 24006 H 2298.04 4.38738 5.18349 0
M  V30 24007 H 2295.99 2.35022 6.12455 0
M  V30 24008 H 2295.9 4.06311 6.37532 0
M  V30 24009 H 2297.17 3.14578 7.13205 0
M  V30 24010 N 2301.4 -0.957948 1.25144 0
M  V30 24011 C 2302.36 -2.03567 1.05324 0
M  V30 24012 C 2303.36 -1.60798 0.00718027 0
M  V30 24013 O 2304.55 -1.7241 0.24906 0
M  V30 24014 C 2301.69 -3.35606 0.598453 0
M  V30 24015 H 2302.88 -2.22583 2.0099 0
M  V30 24016 H 2300.43 -1.13457 1.07504 0
M  V30 24017 H 2301.17 -3.22285 -0.360957 0
M  V30 24018 H 2300.95 -3.67995 1.35358 0
M  V30 24019 H 2302.44 -4.14819 0.481113 0
M  V30 24020 N 2302.88 -1.06677 -1.16008 0
M  V30 24021 C 2304.16 -0.699146 -1.82678 0
M  V30 24022 C 2304.54 0.819102 -1.94561 0
M  V30 24023 O 2303.88 1.73089 -1.49172 0
M  V30 24024 C 2304.09 -1.40561 -3.19443 0
M  V30 24025 C 2305.44 -1.5533 -3.95168 0
M  V30 24026 O 2306.47 -1.36582 -3.28974 0
M  V30 24027 O 2305.33 -1.86121 -5.1383 0
M  V30 24028 H 2302.42 -0.247965 -0.78895 0
M  V30 24029 H 2304.97 -1.16728 -1.23177 0
M  V30 24030 H 2303.74 -2.4407 -3.05852 0
M  V30 24031 H 2303.36 -0.927801 -3.86623 0
M  V30 24032 N 2304.36 1.32719 -0.8499 0
M  V30 24033 C 2305.32 2.27279 -0.296162 0
M  V30 24034 C 2306.32 1.51411 0.541432 0
M  V30 24035 O 2307.51 1.70573 0.353628 0
M  V30 24036 C 2304.64 3.35903 0.58152 0
M  V30 24037 H 2305.84 2.77769 -1.13069 0
M  V30 24038 H 2303.39 1.4331 -0.623855 0
M  V30 24039 H 2304.12 2.90673 1.43804 0
M  V30 24040 H 2303.91 3.92096 -0.0179503 0
M  V30 24041 H 2305.4 4.06371 0.961879 0
M  V30 24042 N 2305.84 0.60738 1.45426 0
M  V30 24043 C 2307.08 0.102288 2.01841 0
M  V30 24044 C 2307.41 -1.27162 1.47834 0
M  V30 24045 O 2306.68 -1.83994 0.672529 0
M  V30 24046 H 2305.26 0.0348232 0.746188 0
M  V30 24047 H 2307.92 0.788731 1.78228 0
M  V30 24048 H 2307.01 0.0519134 3.12057 0
M  V30 24049 N 2307.31 -1.53743 0.34653 0
M  V30 24050 C 2308.26 -2.2512 -0.508874 0
M  V30 24051 C 2309.23 -1.2506 -1.09313 0
M  V30 24052 O 2310.42 -1.53799 -1.12918 0
M  V30 24053 C 2307.56 -3.02968 -1.65241 0
M  V30 24054 C 2306.67 -4.17888 -1.09517 0
M  V30 24055 C 2305.8 -4.83216 -2.20625 0
M  V30 24056 C 2304.84 -5.90199 -1.62269 0
M  V30 24057 N 2303.98 -6.49296 -2.67131 0
M  V30 24058 H 2308.82 -2.9781 0.106336 0
M  V30 24059 H 2306.36 -1.4696 0.0642485 0
M  V30 24060 H 2308.32 -3.46364 -2.32568 0
M  V30 24061 H 2306.95 -2.32569 -2.23856 0
M  V30 24062 H 2306 -3.79112 -0.312751 0
M  V30 24063 H 2307.31 -4.94826 -0.628357 0
M  V30 24064 H 2306.46 -5.29699 -2.95811 0
M  V30 24065 H 2305.2 -4.05708 -2.70652 0
M  V30 24066 H 2304.21 -5.43097 -0.855893 0
M  V30 24067 H 2305.43 -6.69617 -1.1309 0
M  V30 24068 H 2303.38 -5.7465 -3.16407 0
M  V30 24069 H 2303.3 -7.21717 -2.25081 0
M  V30 24070 H 2304.56 -7.00431 -3.42077 0
M  V30 24071 N 2308.79 -0.0752207 -1.5742 0
M  V30 24072 C 2309.7 0.905473 -2.16422 0
M  V30 24073 C 2310.72 1.32459 -1.1283 0
M  V30 24074 O 2311.89 1.39659 -1.45112 0
M  V30 24075 C 2308.96 2.15365 -2.71696 0
M  V30 24076 C 2308.02 1.79061 -3.90174 0
M  V30 24077 C 2307.25 2.97928 -4.42803 0
M  V30 24078 O 2307.48 4.12051 -3.94423 0
M  V30 24079 O 2306.41 2.77546 -5.3409 0
M  V30 24080 H 2310.24 0.433573 -3.00589 0
M  V30 24081 H 2307.82 0.148041 -1.48665 0
M  V30 24082 H 2309.7 2.88551 -3.07109 0
M  V30 24083 H 2308.38 2.61646 -1.90587 0
M  V30 24084 H 2307.29 1.03116 -3.59608 0
M  V30 24085 H 2308.62 1.3756 -4.72587 0
M  V30 24086 N 2310.27 1.56347 0.198358 0
M  V30 24087 C 2311.2 1.97312 1.24861 0
M  V30 24088 C 2312.18 0.844602 1.4765 0
M  V30 24089 O 2313.37 1.10868 1.59442 0
M  V30 24090 C 2310.5 2.30982 2.59354 0
M  V30 24091 C 2309.45 3.46541 2.51183 0
M  V30 24092 C 2308.78 3.65878 3.8992 0
M  V30 24093 C 2310.08 4.80826 2.03969 0
M  V30 24094 H 2311.77 2.85293 0.908202 0
M  V30 24095 H 2309.32 1.37259 0.435438 0
M  V30 24096 H 2311.27 2.58234 3.33006 0
M  V30 24097 H 2309.99 1.3988 2.95129 0
M  V30 24098 H 2308.65 3.19374 1.79988 0
M  V30 24099 H 2308.3 2.72112 4.23041 0
M  V30 24100 H 2308 4.43617 3.85328 0
M  V30 24101 H 2309.52 3.95503 4.65198 0
M  V30 24102 H 2310.94 5.07132 2.67377 0
M  V30 24103 H 2309.34 5.62012 2.10387 0
M  V30 24104 H 2310.41 4.74628 0.992778 0
M  V30 24105 N 2311.75 -0.465951 1.50554 0
M  V30 24106 C 2312.66 -1.58904 1.72588 0
M  V30 24107 C 2313.67 -1.62989 0.609138 0
M  V30 24108 O 2314.85 -1.80763 0.888072 0
M  V30 24109 C 2311.92 -2.95088 1.82 0
M  V30 24110 C 2310.98 -3.0135 3.05756 0
M  V30 24111 C 2310.21 -4.31038 3.14709 0
M  V30 24112 O 2310.43 -5.21831 2.30322 0
M  V30 24113 O 2309.37 -4.42997 4.07476 0
M  V30 24114 H 2313.19 -1.43235 2.67801 0
M  V30 24115 H 2310.78 -0.645989 1.34712 0
M  V30 24116 H 2312.66 -3.75963 1.90341 0
M  V30 24117 H 2311.33 -3.10945 0.899714 0
M  V30 24118 H 2310.24 -2.19534 3.02912 0
M  V30 24119 H 2311.57 -2.9043 3.9738 0
M  V30 24120 N 2313.23 -1.40218 -0.719481 0
M  V30 24121 C 2314.45 -1.41592 -1.50862 0
M  V30 24122 C 2314.87 -0.0145607 -1.88794 0
M  V30 24123 O 2314.23 0.960566 -1.55175 0
M  V30 24124 C 2314.28 -2.30307 -2.78641 0
M  V30 24125 O 2314 -3.64987 -2.42314 0
M  V30 24126 C 2315.5 -2.4023 -3.72564 0
M  V30 24127 H 2312.72 -0.483078 -0.4657 0
M  V30 24128 H 2315.26 -1.84223 -0.887817 0
M  V30 24129 H 2313.42 -1.91048 -3.37015 0
M  V30 24130 H 2313.83 -4.12062 -3.24507 0
M  V30 24131 H 2315.31 -3.0652 -4.59074 0
M  V30 24132 H 2315.78 -1.42616 -4.154 0
M  V30 24133 H 2316.39 -2.80024 -3.20104 0
M  V30 24134 N 2314.7 0.951297 -1.25651 0
M  V30 24135 C 2315.64 2.05195 -1.02116 0
M  V30 24136 C 2316.65 1.62793 0.0150285 0
M  V30 24137 O 2317.84 1.7709 -0.223906 0
M  V30 24138 C 2314.94 3.34849 -0.522419 0
M  V30 24139 C 2314.11 4.06073 -1.62553 0
M  V30 24140 C 2313.17 5.13999 -1.12659 0
M  V30 24141 O 2312.2 5.39263 -1.82165 0
M  V30 24142 N 2313.4 5.80492 0.030368 0
M  V30 24143 H 2316.16 2.25954 -1.96888 0
M  V30 24144 H 2313.72 1.12008 -1.16901 0
M  V30 24145 H 2315.72 4.0433 -0.173032 0
M  V30 24146 H 2314.29 3.10838 0.331455 0
M  V30 24147 H 2313.51 3.30645 -2.14634 0
M  V30 24148 H 2314.79 4.50414 -2.36652 0
M  V30 24149 H 2314.19 5.6239 0.61107 0
M  V30 24150 H 2312.75 6.5101 0.320761 0
M  V30 24151 N 2316.18 1.07291 1.1544 0
M  V30 24152 C 2317.13 0.692691 2.2016 0
M  V30 24153 C 2318.1 -0.315611 1.63074 0
M  V30 24154 O 2319.28 -0.202202 1.89726 0
M  V30 24155 C 2316.42 0.0960115 3.44966 0
M  V30 24156 C 2315.54 1.15571 4.16254 0
M  V30 24157 C 2314.67 0.524104 5.28608 0
M  V30 24158 C 2313.71 1.56664 5.91712 0
M  V30 24159 N 2312.85 0.957653 6.95538 0
M  V30 24160 H 2317.69 1.59006 2.52034 0
M  V30 24161 H 2315.23 0.79482 1.23778 0
M  V30 24162 H 2317.18 -0.267555 4.16341 0
M  V30 24163 H 2315.81 -0.764717 3.13611 0
M  V30 24164 H 2314.87 1.63686 3.43382 0
M  V30 24165 H 2316.18 1.94621 4.59265 0
M  V30 24166 H 2315.33 0.108138 6.06604 0
M  V30 24167 H 2314.07 -0.298165 4.86788 0
M  V30 24168 H 2313.08 1.99239 5.12429 0
M  V30 24169 H 2314.3 2.39118 6.35609 0
M  V30 24170 H 2312.25 0.156277 6.55814 0
M  V30 24171 H 2312.16 1.68539 7.36974 0
M  V30 24172 H 2313.43 0.567169 7.77434 0
M  V30 24173 N 2317.66 -1.32267 0.856927 0
M  V30 24174 C 2318.57 -2.32594 0.306172 0
M  V30 24175 C 2319.59 -1.64148 -0.57718 0
M  V30 24176 O 2320.76 -1.9567 -0.477009 0
M  V30 24177 C 2317.83 -3.43155 -0.4945 0
M  V30 24178 C 2316.89 -4.27287 0.415261 0
M  V30 24179 C 2316.12 -5.32569 -0.347293 0
M  V30 24180 O 2316.34 -5.48167 -1.57698 0
M  V30 24181 O 2315.28 -6.0121 0.288087 0
M  V30 24182 H 2319.1 -2.81596 1.13742 0
M  V30 24183 H 2316.69 -1.35931 0.619926 0
M  V30 24184 H 2318.57 -4.10578 -0.948871 0
M  V30 24185 H 2317.25 -2.96338 -1.30251 0
M  V30 24186 H 2316.15 -3.62665 0.917856 0
M  V30 24187 H 2317.49 -4.77635 1.18852 0
M  V30 24188 N 2319.14 -0.615084 -1.45102 0
M  V30 24189 C 2320.38 -0.113382 -2.02483 0
M  V30 24190 C 2320.72 1.25561 -1.48149 0
M  V30 24191 O 2319.99 1.82991 -0.659136 0
M  V30 24192 C 2320.28 -0.0825911 -3.60005 0
M  V30 24193 C 2320.13 -1.48279 -4.24657 0
M  V30 24194 C 2321.45 0.601325 -4.35973 0
M  V30 24195 H 2318.57 -0.0426761 -0.735763 0
M  V30 24196 H 2321.21 -0.788491 -1.72866 0
M  V30 24197 H 2319.36 0.49231 -3.85368 0
M  V30 24198 H 2321.03 -2.10534 -4.10455 0
M  V30 24199 H 2319.27 -2.04134 -3.82769 0
M  V30 24200 H 2319.94 -1.41342 -5.33598 0
M  V30 24201 H 2322.42 0.112593 -4.15948 0
M  V30 24202 H 2321.3 0.592001 -5.45698 0
M  V30 24203 H 2321.56 1.66879 -4.09394 0
M  V30 24204 N 2320.62 1.53557 -0.354678 0
M  V30 24205 C 2321.86 2.0139 0.238761 0
M  V30 24206 C 2322.2 1.24182 1.49306 0
M  V30 24207 O 2321.47 0.332491 1.91637 0
M  V30 24208 C 2321.75 3.56002 0.541709 0
M  V30 24209 C 2321.61 4.43911 -0.725466 0
M  V30 24210 C 2322.93 4.18987 1.34678 0
M  V30 24211 H 2320.05 0.732047 0.0853048 0
M  V30 24212 H 2322.69 1.83904 -0.477416 0
M  V30 24213 H 2320.84 3.71033 1.15183 0
M  V30 24214 H 2322.51 4.40698 -1.36321 0
M  V30 24215 H 2320.75 4.12322 -1.34808 0
M  V30 24216 H 2321.42 5.50007 -0.468602 0
M  V30 24217 H 2323.9 4.07722 0.830765 0
M  V30 24218 H 2322.78 5.27218 1.5275 0
M  V30 24219 H 2323.04 3.74335 2.35214 0
M  V30 24220 N 2322.1 0.083568 1.57378 0
M  V30 24221 C 2323.34 -0.583699 1.94218 0
M  V30 24222 C 2323.67 -1.68545 0.964683 0
M  V30 24223 O 2322.95 -1.945 -0.00418839 0
M  V30 24224 C 2323.23 -1.14966 3.41255 0
M  V30 24225 C 2323.09 -0.0537487 4.49768 0
M  V30 24226 C 2324.4 -2.05159 3.89356 0
M  V30 24227 H 2321.52 -0.210711 0.706236 0
M  V30 24228 H 2324.17 0.151933 1.89392 0
M  V30 24229 H 2322.32 -1.77659 3.45499 0
M  V30 24230 H 2323.99 0.579931 4.5764 0
M  V30 24231 H 2322.23 0.614144 4.29431 0
M  V30 24232 H 2322.9 -0.490355 5.49818 0
M  V30 24233 H 2325.38 -1.52387 3.87192 0
M  V30 24234 H 2324.25 -2.41689 4.92826 0
M  V30 24235 H 2324.51 -2.9645 3.27978 0
M  V30 24236 N 2323.57 -1.5645 -0.190064 0
M  V30 24237 C 2324.8 -1.85389 -0.929831 0
M  V30 24238 C 2325.22 -0.667735 -1.75849 0
M  V30 24239 O 2324.58 0.383428 -1.77199 0
M  V30 24240 C 2324.63 -3.12596 -1.79767 0
M  V30 24241 O 2323.73 -2.93502 -2.89708 0
M  V30 24242 H 2323.07 -0.610312 -0.261563 0
M  V30 24243 H 2325.6 -2.0368 -0.193861 0
M  V30 24244 H 2325.61 -3.43519 -2.20133 0
M  V30 24245 H 2324.29 -3.98546 -1.18885 0
M  V30 24246 H 2322.87 -2.73888 -2.5306 0
M  V30 24247 N 2325.05 0.45796 -1.50799 0
M  V30 24248 C 2325.98 1.5735 -1.65276 0
M  V30 24249 C 2326.96 1.54702 -0.500606 0
M  V30 24250 O 2328.15 1.74133 -0.721811 0
M  V30 24251 C 2325.27 2.95935 -1.64742 0
M  V30 24252 C 2324.32 3.16688 -2.85676 0
M  V30 24253 S 2325.15 2.95183 -4.46796 0
M  V30 24254 C 2326.31 4.36087 -4.48975 0
M  V30 24255 H 2326.54 1.44833 -2.59636 0
M  V30 24256 H 2324.07 0.646226 -1.40226 0
M  V30 24257 H 2326.03 3.75827 -1.65118 0
M  V30 24258 H 2324.69 3.05832 -0.715953 0
M  V30 24259 H 2323.89 4.17962 -2.81644 0
M  V30 24260 H 2323.49 2.4459 -2.82935 0
M  V30 24261 H 2325.78 5.28946 -4.23346 0
M  V30 24262 H 2326.72 4.45159 -5.50672 0
M  V30 24263 H 2327.13 4.18779 -3.78529 0
M  V30 24264 N 2326.53 1.40598 0.712035 0
M  V30 24265 C 2327.46 1.43902 1.83887 0
M  V30 24266 C 2328.44 0.299533 1.67442 0
M  V30 24267 O 2329.63 0.508657 1.8742 0
M  V30 24268 C 2326.76 1.30437 3.21875 0
M  V30 24269 C 2325.71 2.42026 3.52998 0
M  V30 24270 C 2325.04 2.13634 4.90168 0
M  V30 24271 C 2326.34 3.84368 3.53636 0
M  V30 24272 H 2328.03 2.38206 1.81379 0
M  V30 24273 H 2325.58 1.14655 0.871217 0
M  V30 24274 H 2327.53 1.31364 4.00402 0
M  V30 24275 H 2326.25 0.326107 3.24968 0
M  V30 24276 H 2324.91 2.40354 2.76813 0
M  V30 24277 H 2324.56 1.14191 4.89867 0
M  V30 24278 H 2324.26 2.88398 5.11957 0
M  V30 24279 H 2325.78 2.1625 5.71024 0
M  V30 24280 H 2327.2 3.87844 4.22196 0
M  V30 24281 H 2325.59 4.5868 3.86953 0
M  V30 24282 H 2326.66 4.13698 2.52947 0
M  V30 24283 N 2328.01 -0.94462 1.26153 0
M  V30 24284 C 2328.94 -2.06017 1.09906 0
M  V30 24285 C 2329.92 -1.70099 0.00522528 0
M  V30 24286 O 2331.1 -1.93395 0.176617 0
M  V30 24287 C 2328.23 -3.39592 0.727622 0
M  V30 24288 C 2327.19 -3.89558 1.77281 0
M  V30 24289 C 2326.51 -5.19744 1.25578 0
M  V30 24290 C 2327.81 -4.14822 3.17365 0
M  V30 24291 H 2329.51 -2.19868 2.03221 0
M  V30 24292 H 2327.05 -1.0565 0.97847 0
M  V30 24293 H 2329.01 -4.17094 0.60085 0
M  V30 24294 H 2327.73 -3.25708 -0.241229 0
M  V30 24295 H 2326.39 -3.14234 1.88819 0
M  V30 24296 H 2326.04 -5.02237 0.276872 0
M  V30 24297 H 2325.74 -5.54144 1.95443 0
M  V30 24298 H 2327.26 -5.99833 1.14161 0
M  V30 24299 H 2328.68 -4.82949 3.08923 0
M  V30 24300 H 2327.07 -4.60497 3.84789 0
M  V30 24301 H 2328.14 -3.20728 3.63678 0
M  V30 24302 N 2329.49 -1.07901 -1.1487 0
M  V30 24303 C 2330.9 -0.80563 -1.37774 0
M  V30 24304 C 2331.1 0.587521 -1.92744 0
M  V30 24305 O 2330.16 1.34525 -2.1368 0
M  V30 24306 C 2331.47 -1.88406 -2.34358 0
M  V30 24307 C 2333.02 -1.90947 -2.48009 0
M  V30 24308 C 2333.49 -2.97889 -3.47888 0
M  V30 24309 N 2334.98 -2.97028 -3.55428 0
M  V30 24310 C 2335.72 -3.76419 -4.32546 0
M  V30 24311 N 2335.22 -4.65676 -5.1295 0
M  V30 24312 N 2337.01 -3.64743 -4.27691 0
M  V30 24313 H 2329.16 -1.97743 -0.77533 0
M  V30 24314 H 2331.42 -0.857839 -0.403506 0
M  V30 24315 H 2331.13 -2.88538 -2.01093 0
M  V30 24316 H 2331 -1.74895 -3.34203 0
M  V30 24317 H 2333.39 -0.914628 -2.80568 0
M  V30 24318 H 2333.47 -2.08536 -1.48143 0
M  V30 24319 H 2333.11 -3.97576 -3.16062 0
M  V30 24320 H 2333.04 -2.77546 -4.47522 0
M  V30 24321 H 2335.54 -2.32332 -2.98044 0
M  V30 24322 H 2335.85 -5.22872 -5.69056 0
M  V30 24323 H 2334.19 -4.69721 -5.12237 0
M  V30 24324 H 2337.38 -2.94385 -3.63944 0
M  V30 24325 H 2337.56 -4.26856 -4.87542 0
M  V30 24326 N 2330.96 1.31811 -0.863929 0
M  V30 24327 C 2331.89 2.31144 -0.330883 0
M  V30 24328 C 2332.87 1.60088 0.574977 0
M  V30 24329 O 2334.06 1.87831 0.493271 0
M  V30 24330 C 2331.19 3.44055 0.473679 0
M  V30 24331 C 2330.14 4.26659 -0.338556 0
M  V30 24332 C 2329.47 5.3142 0.591318 0
M  V30 24333 C 2330.77 4.98165 -1.56935 0
M  V30 24334 H 2332.46 2.75977 -1.16091 0
M  V30 24335 H 2330.01 1.32678 -0.559681 0
M  V30 24336 H 2331.96 4.12592 0.857071 0
M  V30 24337 H 2330.69 2.97973 1.33716 0
M  V30 24338 H 2329.35 3.5978 -0.703818 0
M  V30 24339 H 2328.99 4.8159 1.4519 0
M  V30 24340 H 2328.69 5.87577 0.0517989 0
M  V30 24341 H 2330.22 6.02819 0.971685 0
M  V30 24342 H 2331.63 5.59333 -1.25774 0
M  V30 24343 H 2330.03 5.6409 -2.04749 0
M  V30 24344 H 2331.1 4.25497 -2.32552 0
M  V30 24345 N 2332.44 0.62277 1.44773 0
M  V30 24346 C 2333.69 0.121432 2.01334 0
M  V30 24347 C 2334 -1.26123 1.49507 0
M  V30 24348 O 2335.21 -1.85612 1.98142 0
M  V30 24349 C 2333.67 0.166362 3.59515 0
M  V30 24350 C 2333.27 1.54981 4.20339 0
M  V30 24351 C 2335.02 -0.278946 4.23583 0
M  V30 24352 C 2332.92 1.55031 5.70718 0
M  V30 24353 H 2331.85 0.0416304 0.75285 0
M  V30 24354 H 2334.51 0.780338 1.66081 0
M  V30 24355 H 2332.89 -0.559488 3.92028 0
M  V30 24356 H 2334.06 2.29858 3.99377 0
M  V30 24357 H 2332.38 1.93849 3.68526 0
M  V30 24358 H 2334.97 -0.29799 5.33869 0
M  V30 24359 H 2335.32 -1.30464 3.95329 0
M  V30 24360 H 2335.85 0.394132 3.95843 0
M  V30 24361 H 2332.59 2.55409 6.03694 0
M  V30 24362 H 2332.11 0.844349 5.93827 0
M  V30 24363 H 2333.79 1.28058 6.342 0
M  V30 24364 N 2333.92 -1.53367 0.362817 0
M  V30 24365 C 2334.85 -2.23232 -0.519629 0
M  V30 24366 C 2335.86 -1.24547 -1.04842 0
M  V30 24367 O 2337.05 -1.50787 -0.955269 0
M  V30 24368 C 2334.15 -2.91424 -1.7299 0
M  V30 24369 C 2333.33 -4.1659 -1.33309 0
M  V30 24370 C 2332.39 -4.68017 -2.40512 0
M  V30 24371 O 2331.41 -5.31764 -2.03018 0
M  V30 24372 N 2332.61 -4.45594 -3.72057 0
M  V30 24373 H 2335.38 -2.99596 0.0788036 0
M  V30 24374 H 2332.94 -1.60806 0.187861 0
M  V30 24375 H 2334.93 -3.22737 -2.44178 0
M  V30 24376 H 2333.5 -2.18529 -2.23526 0
M  V30 24377 H 2332.72 -3.9161 -0.451168 0
M  V30 24378 H 2334.01 -4.97969 -1.04423 0
M  V30 24379 H 2333.41 -3.94653 -4.05297 0
M  V30 24380 H 2331.96 -4.81464 -4.39358 0
M  V30 24381 N 2335.4 -0.091913 -1.57332 0
M  V30 24382 C 2336.63 0.58017 -1.98287 0
M  V30 24383 C 2337.04 1.62458 -0.969741 0
M  V30 24384 O 2336.38 1.83634 0.0493178 0
M  V30 24385 C 2336.44 1.28876 -3.35606 0
M  V30 24386 C 2336.11 0.395479 -4.55286 0
M  V30 24387 C 2337.1 -0.355093 -5.18686 0
M  V30 24388 C 2334.79 0.314467 -5.01315 0
M  V30 24389 C 2336.78 -1.17469 -6.26482 0
M  V30 24390 C 2334.47 -0.508784 -6.08978 0
M  V30 24391 C 2335.47 -1.25201 -6.71427 0
M  V30 24392 O 2335.15 -2.06165 -7.77014 0
M  V30 24393 H 2334.89 0.160455 -0.656681 0
M  V30 24394 H 2337.44 -0.166916 -2.04721 0
M  V30 24395 H 2335.67 2.08235 -3.25845 0
M  V30 24396 H 2337.36 1.85506 -3.6103 0
M  V30 24397 H 2338.13 -0.302219 -4.84057 0
M  V30 24398 H 2334 0.882617 -4.52472 0
M  V30 24399 H 2337.55 -1.7553 -6.75156 0
M  V30 24400 H 2333.45 -0.56315 -6.43039 0
M  V30 24401 H 2334.21 -1.98813 -7.93987 0
M  V30 24402 N 2336.88 1.56548 0.181765 0
M  V30 24403 C 2337.83 1.92004 1.22957 0
M  V30 24404 C 2338.81 0.78717 1.4033 0
M  V30 24405 O 2340 1.05022 1.42476 0
M  V30 24406 C 2337.13 2.2745 2.5714 0
M  V30 24407 C 2336.22 3.47226 2.43506 0
M  V30 24408 N 2336.61 4.64764 1.99569 0
M  V30 24409 C 2334.91 3.51627 2.74362 0
M  V30 24410 C 2335.61 5.46912 1.98146 0
M  V30 24411 N 2334.58 4.87674 2.40156 0
M  V30 24412 H 2338.39 2.80372 0.881413 0
M  V30 24413 H 2335.9 1.57645 0.390114 0
M  V30 24414 H 2337.9 2.51041 3.32842 0
M  V30 24415 H 2336.56 1.40416 2.92769 0
M  V30 24416 H 2337.57 4.8918 1.70069 0
M  V30 24417 H 2334.24 2.75044 3.14097 0
M  V30 24418 H 2335.63 6.5108 1.65964 0
M  V30 24419 N 2338.35 -0.449957 1.5104 0
M  V30 24420 C 2339.29 -1.56321 1.6762 0
M  V30 24421 C 2340.3 -1.52971 0.55711 0
M  V30 24422 O 2341.49 -1.57976 0.831017 0
M  V30 24423 C 2338.59 -2.95232 1.66407 0
M  V30 24424 C 2337.76 -3.23224 2.94695 0
M  V30 24425 C 2336.82 -4.41794 2.8584 0
M  V30 24426 O 2335.85 -4.41065 3.59792 0
M  V30 24427 N 2337.05 -5.44654 2.0083 0
M  V30 24428 H 2339.81 -1.42508 2.63651 0
M  V30 24429 H 2337.37 -0.638711 1.48769 0
M  V30 24430 H 2339.37 -3.72554 1.58068 0
M  V30 24431 H 2337.94 -3.02706 0.780236 0
M  V30 24432 H 2337.16 -2.34317 3.17 0
M  V30 24433 H 2338.44 -3.38747 3.79642 0
M  V30 24434 H 2337.84 -5.48077 1.401 0
M  V30 24435 H 2336.4 -6.20877 1.98379 0
M  V30 24436 N 2339.83 -1.40974 -0.704569 0
M  V30 24437 C 2341.08 -1.40054 -1.46672 0
M  V30 24438 C 2341.41 -0.00644516 -1.94199 0
M  V30 24439 O 2340.69 0.964205 -1.68918 0
M  V30 24440 C 2340.97 -2.39957 -2.68501 0
M  V30 24441 C 2340.82 -3.88436 -2.26798 0
M  V30 24442 C 2342.14 -2.3724 -3.70682 0
M  V30 24443 H 2339.26 -0.510038 -0.532006 0
M  V30 24444 H 2341.9 -1.72187 -0.803225 0
M  V30 24445 H 2340.05 -2.12686 -3.25111 0
M  V30 24446 H 2341.72 -4.26577 -1.75585 0
M  V30 24447 H 2339.97 -4.03737 -1.58678 0
M  V30 24448 H 2340.64 -4.53871 -3.14173 0
M  V30 24449 H 2343.11 -2.6142 -3.23726 0
M  V30 24450 H 2341.99 -3.0917 -4.53547 0
M  V30 24451 H 2342.25 -1.38784 -4.19752 0
M  V30 24452 N 2341.31 0.937917 -1.26653 0
M  V30 24453 C 2342.24 2.05431 -1.10997 0
M  V30 24454 C 2343.22 1.70094 -0.014246 0
M  V30 24455 O 2344.41 1.93299 -0.186871 0
M  V30 24456 C 2341.54 3.39202 -0.745621 0
M  V30 24457 C 2340.49 3.88612 -1.79344 0
M  V30 24458 C 2339.82 5.19071 -1.28333 0
M  V30 24459 C 2341.12 4.13133 -3.1956 0
M  V30 24460 H 2342.81 2.18787 -2.04384 0
M  V30 24461 H 2340.36 1.0513 -0.98406 0
M  V30 24462 H 2342.31 4.1677 -0.622961 0
M  V30 24463 H 2341.03 3.25831 0.223953 0
M  V30 24464 H 2339.69 3.13228 -1.90483 0
M  V30 24465 H 2339.34 5.02084 -0.303503 0
M  V30 24466 H 2339.04 5.531 -1.98379 0
M  V30 24467 H 2340.56 5.99219 -1.1734 0
M  V30 24468 H 2341.98 4.81304 -3.1148 0
M  V30 24469 H 2340.38 4.5845 -3.87226 0
M  V30 24470 H 2341.45 3.18794 -3.65374 0
M  V30 24471 N 2342.79 1.08509 1.14296 0
M  V30 24472 C 2343.7 0.727792 2.23025 0
M  V30 24473 C 2344.71 -0.26616 1.71952 0
M  V30 24474 O 2345.89 -0.109846 2.011 0
M  V30 24475 C 2342.96 0.143602 3.46402 0
M  V30 24476 C 2342.02 1.1923 4.12411 0
M  V30 24477 C 2341.25 0.635892 5.29898 0
M  V30 24478 O 2341.47 -0.544293 5.67797 0
M  V30 24479 O 2340.41 1.38644 5.85714 0
M  V30 24480 H 2344.23 1.63485 2.55942 0
M  V30 24481 H 2341.82 0.858839 1.22247 0
M  V30 24482 H 2343.7 -0.17933 4.21018 0
M  V30 24483 H 2342.37 -0.736603 3.15208 0
M  V30 24484 H 2341.28 1.56778 3.39664 0
M  V30 24485 H 2342.61 2.04482 4.47714 0
M  V30 24486 N 2344.27 -1.31351 0.870907 0
M  V30 24487 C 2345.2 -2.26573 0.272023 0
M  V30 24488 C 2346.18 -1.5115 -0.599358 0
M  V30 24489 O 2347.36 -1.80219 -0.552574 0
M  V30 24490 C 2344.49 -3.33074 -0.614743 0
M  V30 24491 C 2343.53 -4.26097 0.185417 0
M  V30 24492 S 2344.37 -5.12135 1.56453 0
M  V30 24493 C 2345.52 -6.22152 0.683916 0
M  V30 24494 H 2345.76 -2.77021 1.07921 0
M  V30 24495 H 2343.29 -1.3913 0.669484 0
M  V30 24496 H 2345.25 -3.94907 -1.12067 0
M  V30 24497 H 2343.91 -2.81379 -1.39588 0
M  V30 24498 H 2343.1 -5.01606 -0.490683 0
M  V30 24499 H 2342.7 -3.68766 0.62348 0
M  V30 24500 H 2345 -6.77418 -0.105091 0
M  V30 24501 H 2345.94 -6.93916 1.41016 0
M  V30 24502 H 2346.35 -5.63941 0.251051 0
M  V30 24503 N 2345.74 -0.630439 -1.44441 0
M  V30 24504 C 2346.99 -0.134652 -2.02052 0
M  V30 24505 C 2347.32 1.24324 -1.49579 0
M  V30 24506 O 2346.57 1.83879 -0.669838 0
M  V30 24507 C 2346.87 -0.0698463 -3.57332 0
M  V30 24508 C 2346.54 -1.38643 -4.29056 0
M  V30 24509 C 2345.2 -1.74702 -4.48367 0
M  V30 24510 C 2347.55 -2.25551 -4.69868 0
M  V30 24511 C 2344.88 -2.97378 -5.0575 0
M  V30 24512 C 2347.23 -3.47497 -5.2861 0
M  V30 24513 C 2345.9 -3.8378 -5.4614 0
M  V30 24514 H 2345.17 -0.0492728 -0.73936 0
M  V30 24515 H 2347.81 -0.816617 -1.73216 0
M  V30 24516 H 2346.12 0.695485 -3.85578 0
M  V30 24517 H 2347.82 0.330273 -3.99638 0
M  V30 24518 H 2344.41 -1.09582 -4.14355 0
M  V30 24519 H 2348.59 -1.98987 -4.54662 0
M  V30 24520 H 2343.85 -3.25567 -5.1751 0
M  V30 24521 H 2348.02 -4.15073 -5.59184 0
M  V30 24522 H 2345.65 -4.78921 -5.90372 0
M  V30 24523 N 2347.22 1.53172 -0.370945 0
M  V30 24524 C 2348.47 2.00516 0.218214 0
M  V30 24525 C 2348.78 1.26218 1.49427 0
M  V30 24526 O 2349.99 1.64178 2.16236 0
M  V30 24527 C 2348.45 3.57207 0.439417 0
M  V30 24528 C 2348.05 4.40388 -0.822321 0
M  V30 24529 C 2349.8 4.12892 0.985939 0
M  V30 24530 C 2347.71 5.88643 -0.570407 0
M  V30 24531 H 2346.64 0.749157 0.0853201 0
M  V30 24532 H 2349.29 1.76823 -0.490514 0
M  V30 24533 H 2347.67 3.77076 1.20954 0
M  V30 24534 H 2348.84 4.32291 -1.59565 0
M  V30 24535 H 2347.16 3.95834 -1.29245 0
M  V30 24536 H 2349.75 5.21294 1.18982 0
M  V30 24537 H 2350.1 3.67823 1.94966 0
M  V30 24538 H 2350.63 3.96842 0.27585 0
M  V30 24539 H 2347.37 6.37998 -1.50461 0
M  V30 24540 H 2346.89 5.99575 0.164322 0
M  V30 24541 H 2348.57 6.46697 -0.197954 0
M  V30 24542 N 2348.7 0.100255 1.57281 0
M  V30 24543 C 2349.63 -0.853819 2.1733 0
M  V30 24544 C 2350.61 -1.29058 1.10806 0
M  V30 24545 O 2351.8 -1.35655 1.38966 0
M  V30 24546 C 2348.93 -2.11104 2.75776 0
M  V30 24547 C 2347.88 -1.81273 3.87717 0
M  V30 24548 C 2347.21 -3.13867 4.32888 0
M  V30 24549 C 2348.51 -1.09565 5.10679 0
M  V30 24550 H 2350.2 -0.353493 2.97306 0
M  V30 24551 H 2347.75 -0.168587 1.4301 0
M  V30 24552 H 2349.7 -2.7829 3.16437 0
M  V30 24553 H 2348.42 -2.63429 1.93061 0
M  V30 24554 H 2347.08 -1.16483 3.47602 0
M  V30 24555 H 2346.73 -3.64089 3.47057 0
M  V30 24556 H 2346.43 -2.94687 5.08363 0
M  V30 24557 H 2347.95 -3.82202 4.76187 0
M  V30 24558 H 2349.37 -1.66869 5.48477 0
M  V30 24559 H 2347.77 -1.00546 5.91617 0
M  V30 24560 H 2348.84 -0.0792447 4.84835 0
M  V30 24561 N 2350.18 -1.56643 -0.17346 0
M  V30 24562 C 2351.43 -1.82142 -0.891752 0
M  V30 24563 C 2351.76 -0.677768 -1.81989 0
M  V30 24564 O 2351.03 0.320412 -1.91843 0
M  V30 24565 C 2351.32 -3.18018 -1.68928 0
M  V30 24566 C 2351.17 -4.42908 -0.784409 0
M  V30 24567 C 2352.49 -3.50812 -2.65742 0
M  V30 24568 H 2349.61 -0.662572 -0.322749 0
M  V30 24569 H 2352.25 -1.89341 -0.158062 0
M  V30 24570 H 2350.4 -3.12011 -2.31476 0
M  V30 24571 H 2352.07 -4.60979 -0.171965 0
M  V30 24572 H 2350.31 -4.33702 -0.0923355 0
M  V30 24573 H 2350.99 -5.34526 -1.3779 0
M  V30 24574 H 2353.46 -3.57259 -2.1332 0
M  V30 24575 H 2352.34 -4.46965 -3.18612 0
M  V30 24576 H 2352.6 -2.75407 -3.45838 0
M  V30 24577 N 2351.66 0.44194 -1.51277 0
M  V30 24578 C 2352.59 1.54358 -1.75203 0
M  V30 24579 C 2353.57 1.59102 -0.60171 0
M  V30 24580 O 2354.75 1.74903 -0.843944 0
M  V30 24581 C 2351.88 2.92474 -1.87287 0
M  V30 24582 C 2350.84 3.02591 -3.02692 0
M  V30 24583 C 2350.16 4.42641 -2.99955 0
M  V30 24584 C 2351.46 2.77098 -4.42735 0
M  V30 24585 H 2353.16 1.34587 -2.67445 0
M  V30 24586 H 2350.7 0.646026 -1.28695 0
M  V30 24587 H 2352.66 3.69497 -2.02609 0
M  V30 24588 H 2351.38 3.13465 -0.916899 0
M  V30 24589 H 2350.04 2.28007 -2.87069 0
M  V30 24590 H 2349.69 4.60594 -2.02144 0
M  V30 24591 H 2349.39 4.50341 -3.77447 0
M  V30 24592 H 2350.91 5.21644 -3.17363 0
M  V30 24593 H 2352.33 3.43856 -4.58733 0
M  V30 24594 H 2350.72 2.96213 -5.21899 0
M  V30 24595 H 2351.79 1.72736 -4.5309 0
M  V30 24596 N 2353.14 1.41345 0.697083 0
M  V30 24597 C 2354.07 1.39005 1.82237 0
M  V30 24598 C 2355.08 0.292457 1.60152 0
M  V30 24599 O 2356.27 0.554078 1.69683 0
M  V30 24600 C 2353.37 1.14494 3.18974 0
M  V30 24601 C 2352.54 2.36264 3.68101 0
M  V30 24602 C 2351.6 2.07633 4.83503 0
M  V30 24603 O 2350.63 2.80659 4.95196 0
M  V30 24604 N 2351.83 1.06565 5.70635 0
M  V30 24605 H 2354.59 2.35992 1.84738 0
M  V30 24606 H 2352.16 1.35938 0.879346 0
M  V30 24607 H 2354.15 0.932954 3.938 0
M  V30 24608 H 2352.72 0.261098 3.11508 0
M  V30 24609 H 2351.94 2.73175 2.84199 0
M  V30 24610 H 2353.23 3.174 3.97661 0
M  V30 24611 H 2352.62 0.461224 5.63817 0
M  V30 24612 H 2351.18 0.913557 6.45366 0
M  V30 24613 N 2354.61 -0.931187 1.27148 0
M  V30 24614 C 2355.55 -2.03544 1.05368 0
M  V30 24615 C 2356.56 -1.62796 0.0108724 0
M  V30 24616 O 2357.75 -1.76711 0.252051 0
M  V30 24617 C 2354.85 -3.33976 0.575625 0
M  V30 24618 C 2354.02 -4.03436 1.68992 0
M  V30 24619 C 2353.08 -5.12141 1.20822 0
M  V30 24620 O 2352.11 -5.36297 1.90721 0
M  V30 24621 N 2353.31 -5.80467 0.0619871 0
M  V30 24622 H 2356.07 -2.22793 2.00458 0
M  V30 24623 H 2353.63 -1.10134 1.18668 0
M  V30 24624 H 2355.63 -4.04003 0.237335 0
M  V30 24625 H 2354.2 -3.11326 -0.281961 0
M  V30 24626 H 2353.42 -3.27188 2.19867 0
M  V30 24627 H 2354.7 -4.46592 2.43788 0
M  V30 24628 H 2354.1 -5.63291 -0.521522 0
M  V30 24629 H 2352.66 -6.51438 -0.21715 0
M  V30 24630 N 2356.09 -1.09114 -1.13719 0
M  V30 24631 C 2357.33 -0.834833 -1.86574 0
M  V30 24632 C 2357.7 0.62809 -1.81436 0
M  V30 24633 O 2358.9 1.00019 -2.49499 0
M  V30 24634 C 2357.17 -1.3513 -3.30869 0
M  V30 24635 S 2358.73 -1.22839 -4.21255 0
M  V30 24636 H 2355.54 -0.302029 -0.643661 0
M  V30 24637 H 2358.15 -1.39387 -1.37082 0
M  V30 24638 H 2356.85 -2.41033 -3.32161 0
M  V30 24639 H 2356.38 -0.788252 -3.85422 0
M  V30 24640 H 2358.4 -0.177278 -4.95883 0
M  V30 24641 N 2357.57 1.30887 -0.877861 0
M  V30 24642 C 2358.52 2.2587 -0.310912 0
M  V30 24643 C 2359.5 1.50967 0.55657 0
M  V30 24644 O 2360.7 1.72371 0.402157 0
M  V30 24645 C 2357.82 3.39931 0.479762 0
M  V30 24646 C 2356.91 4.22196 -0.401407 0
M  V30 24647 N 2357.3 4.83091 -1.49856 0
M  V30 24648 C 2355.6 4.45572 -0.195246 0
M  V30 24649 C 2356.3 5.44659 -2.0426 0
M  V30 24650 N 2355.28 5.26863 -1.33852 0
M  V30 24651 H 2359.08 2.70494 -1.14935 0
M  V30 24652 H 2356.59 1.45245 -0.726483 0
M  V30 24653 H 2358.59 4.07014 0.902511 0
M  V30 24654 H 2357.25 2.96848 1.31572 0
M  V30 24655 H 2358.26 4.82516 -1.88145 0
M  V30 24656 H 2354.94 4.13106 0.604119 0
M  V30 24657 H 2356.33 6.03012 -2.96355 0
M  V30 24658 N 2359.05 0.638091 1.44105 0
M  V30 24659 C 2359.99 -0.0626605 2.30715 0
M  V30 24660 C 2360.96 -0.829858 1.43884 0
M  V30 24661 O 2362.15 -0.809502 1.72776 0
M  V30 24662 C 2359.29 -1.03352 3.2926 0
M  V30 24663 C 2358.4 -0.264015 4.31192 0
M  V30 24664 C 2357.54 -1.22732 5.16827 0
M  V30 24665 C 2356.58 -0.447368 6.10463 0
M  V30 24666 N 2355.71 -1.36149 6.88773 0
M  V30 24667 H 2360.55 0.681832 2.90095 0
M  V30 24668 H 2358.09 0.348013 1.42924 0
M  V30 24669 H 2360.05 -1.60986 3.84889 0
M  V30 24670 H 2358.68 -1.74506 2.71565 0
M  V30 24671 H 2357.73 0.428361 3.7798 0
M  V30 24672 H 2359.04 0.34314 4.97618 0
M  V30 24673 H 2358.2 -1.87477 5.77007 0
M  V30 24674 H 2356.94 -1.86839 4.50491 0
M  V30 24675 H 2355.94 0.213529 5.49385 0
M  V30 24676 H 2357.17 0.189087 6.78837 0
M  V30 24677 H 2355.11 -1.98964 6.25099 0
M  V30 24678 H 2355.03 -0.808524 7.51664 0
M  V30 24679 H 2356.3 -1.99756 7.53471 0
M  V30 24680 N 2360.53 -1.52973 0.379063 0
M  V30 24681 C 2361.44 -2.29872 -0.468599 0
M  V30 24682 C 2362.45 -1.36375 -1.08065 0
M  V30 24683 O 2363.63 -1.6944 -1.08868 0
M  V30 24684 C 2360.69 -3.08303 -1.58589 0
M  V30 24685 C 2359.75 -4.17491 -0.999997 0
M  V30 24686 C 2358.99 -4.92172 -2.06404 0
M  V30 24687 O 2359.21 -4.66841 -3.27743 0
M  V30 24688 O 2358.14 -5.77773 -1.68707 0
M  V30 24689 H 2361.97 -3.03291 0.157561 0
M  V30 24690 H 2359.55 -1.48713 0.143061 0
M  V30 24691 H 2361.44 -3.57235 -2.23519 0
M  V30 24692 H 2360.11 -2.37707 -2.1972 0
M  V30 24693 H 2359.02 -3.72778 -0.314233 0
M  V30 24694 H 2360.35 -4.90291 -0.433049 0
M  V30 24695 N 2362 -0.108595 -1.57225 0
M  V30 24696 C 2362.95 0.862847 -2.16004 0
M  V30 24697 C 2363.95 1.28272 -1.10646 0
M  V30 24698 O 2365.15 1.25568 -1.28968 0
M  V30 24699 H 2361.53 0.29633 -0.691153 0
M  V30 24700 H 2363.5 0.342523 -2.96428 0
M  V30 24701 C 2362.25 2.10711 -2.76579 0
M  V30 24702 H 2361.57 1.79294 -3.57343 0
M  V30 24703 H 2363.01 2.76712 -3.21258 0
M  V30 24704 C 2361.47 2.89004 -1.73142 0
M  V30 24705 O 2362 3.84024 -1.17849 0
M  V30 24706 N 2360.2 2.52799 -1.43322 0
M  V30 24707 H 2359.75 1.75598 -1.88476 0
M  V30 24708 H 2359.71 3.05481 -0.743539 0
M  V30 24709 N 2363.48 1.56732 0.16515 0
M  V30 24710 C 2364.39 2.00127 1.22419 0
M  V30 24711 C 2365.41 0.913645 1.48083 0
M  V30 24712 O 2366.58 1.22175 1.6011 0
M  V30 24713 C 2363.65 2.35769 2.54193 0
M  V30 24714 C 2362.71 3.5839 2.36337 0
M  V30 24715 C 2361.94 3.92322 3.61827 0
M  V30 24716 O 2362.17 3.27143 4.67262 0
M  V30 24717 O 2361.1 4.85647 3.5557 0
M  V30 24718 H 2364.93 2.90494 0.885835 0
M  V30 24719 H 2362.51 1.44682 0.372492 0
M  V30 24720 H 2364.39 2.59635 3.31915 0
M  V30 24721 H 2363.07 1.48562 2.87595 0
M  V30 24722 H 2361.97 3.39734 1.56626 0
M  V30 24723 H 2363.31 4.46157 2.07857 0
M  V30 24724 N 2364.96 -0.433911 1.51509 0
M  V30 24725 C 2366.24 -1.1945 1.5489 0
M  V30 24726 C 2366.62 -2.08734 0.315191 0
M  V30 24727 O 2365.97 -2.17529 -0.69952 0
M  V30 24728 C 2366.18 -1.99337 2.86471 0
M  V30 24729 C 2367.52 -2.56261 3.38549 0
M  V30 24730 O 2368.55 -2.09544 2.88044 0
M  V30 24731 O 2367.41 -3.41475 4.26681 0
M  V30 24732 H 2364.5 -0.544021 0.622872 0
M  V30 24733 H 2367.05 -0.442703 1.63824 0
M  V30 24734 H 2365.82 -1.33782 3.6772 0
M  V30 24735 H 2365.44 -2.81575 2.80715 0
M  V30 24736 N 2366.44 -1.41713 -0.689577 0
M  V30 24737 C 2367.39 -1.44033 -1.80342 0
M  V30 24738 C 2368.36 -0.293977 -1.63478 0
M  V30 24739 O 2369.54 -0.495902 -1.84243 0
M  V30 24740 C 2366.68 -1.3341 -3.1827 0
M  V30 24741 C 2365.79 -2.57963 -3.46525 0
M  V30 24742 C 2364.93 -2.3959 -4.74099 0
M  V30 24743 C 2363.97 -3.59589 -4.95341 0
M  V30 24744 N 2363.1 -3.4025 -6.14145 0
M  V30 24745 H 2367.94 -2.39225 -1.77694 0
M  V30 24746 H 2365.48 -1.18785 -0.867667 0
M  V30 24747 H 2367.44 -1.25253 -3.97954 0
M  V30 24748 H 2366.07 -0.41822 -3.20079 0
M  V30 24749 H 2365.12 -2.76546 -2.61202 0
M  V30 24750 H 2366.43 -3.47206 -3.5812 0
M  V30 24751 H 2365.59 -2.28934 -5.61849 0
M  V30 24752 H 2364.33 -1.47813 -4.64761 0
M  V30 24753 H 2363.33 -3.70693 -4.06038 0
M  V30 24754 H 2364.56 -4.52327 -5.06534 0
M  V30 24755 H 2362.5 -2.51177 -6.06008 0
M  V30 24756 H 2362.42 -4.23072 -6.26535 0
M  V30 24757 H 2363.69 -3.33377 -7.04613 0
M  V30 24758 N 2367.92 0.924431 -1.2764 0
M  V30 24759 C 2369.16 1.6753 -1.15348 0
M  V30 24760 C 2369.52 1.90093 0.297062 0
M  V30 24761 O 2368.81 1.48255 1.21371 0
M  V30 24762 C 2369 3.04321 -1.87412 0
M  V30 24763 C 2368.83 2.95108 -3.39325 0
M  V30 24764 C 2367.6 2.97211 -4.08649 0
M  V30 24765 C 2369.8 2.73979 -4.35247 0
M  V30 24766 N 2367.78 2.78473 -5.47107 0
M  V30 24767 C 2369.15 2.63978 -5.60995 0
M  V30 24768 C 2371.21 2.58893 -4.25299 0
M  V30 24769 C 2369.91 2.4043 -6.77928 0
M  V30 24770 C 2371.94 2.36721 -5.41957 0
M  V30 24771 C 2371.3 2.27466 -6.66662 0
M  V30 24772 H 2367.4 0.619696 -0.476971 0
M  V30 24773 H 2369.98 1.09262 -1.61152 0
M  V30 24774 H 2368.15 3.60696 -1.44059 0
M  V30 24775 H 2369.89 3.68366 -1.67597 0
M  V30 24776 H 2366.64 3.07563 -3.60142 0
M  V30 24777 H 2367.07 2.72225 -6.19857 0
M  V30 24778 H 2371.71 2.64805 -3.29603 0
M  V30 24779 H 2369.43 2.33257 -7.73703 0
M  V30 24780 H 2373.01 2.25928 -5.36141 0
M  V30 24781 H 2371.89 2.10542 -7.55408 0
M  V30 24782 N 2369.39 1.09715 1.13139 0
M  V30 24783 C 2370.34 0.739235 2.18641 0
M  V30 24784 C 2371.31 -0.28095 1.63707 0
M  V30 24785 O 2372.5 -0.161912 1.90112 0
M  V30 24786 C 2369.64 0.169162 3.44685 0
M  V30 24787 C 2368.75 1.24375 4.13709 0
M  V30 24788 C 2367.88 0.636112 5.27378 0
M  V30 24789 C 2366.92 1.6918 5.88256 0
M  V30 24790 N 2366.06 1.10497 6.9335 0
M  V30 24791 H 2370.9 1.64316 2.48604 0
M  V30 24792 H 2368.44 0.820896 1.22064 0
M  V30 24793 H 2370.4 -0.179182 4.16815 0
M  V30 24794 H 2369.03 -0.698024 3.15163 0
M  V30 24795 H 2368.08 1.70933 3.39832 0
M  V30 24796 H 2369.39 2.04319 4.55033 0
M  V30 24797 H 2368.54 0.236784 6.06238 0
M  V30 24798 H 2367.28 -0.194843 4.87311 0
M  V30 24799 H 2366.29 2.10064 5.08088 0
M  V30 24800 H 2367.51 2.52547 6.30394 0
M  V30 24801 H 2365.46 0.29535 6.55335 0
M  V30 24802 H 2365.38 1.84134 7.33233 0
M  V30 24803 H 2366.64 0.731946 7.76056 0
M  V30 24804 N 2370.87 -1.30419 0.88479 0
M  V30 24805 C 2372.29 -1.48736 0.578766 0
M  V30 24806 C 2372.49 -1.81096 -0.883535 0
M  V30 24807 O 2371.54 -1.89847 -1.66477 0
M  V30 24808 C 2372.86 -2.61088 1.49175 0
M  V30 24809 C 2374.41 -2.74969 1.49536 0
M  V30 24810 C 2374.88 -3.90434 2.39428 0
M  V30 24811 N 2376.37 -3.97744 2.3739 0
M  V30 24812 C 2377.11 -4.86396 3.03656 0
M  V30 24813 N 2376.6 -5.79845 3.79146 0
M  V30 24814 N 2378.4 -4.79763 2.92889 0
M  V30 24815 H 2370.55 -1.07687 1.83077 0
M  V30 24816 H 2372.81 -0.533482 0.783646 0
M  V30 24817 H 2372.52 -2.43997 2.53295 0
M  V30 24818 H 2372.39 -3.57563 1.20119 0
M  V30 24819 H 2374.78 -2.91466 0.461681 0
M  V30 24820 H 2374.86 -1.79116 1.82623 0
M  V30 24821 H 2374.5 -3.74693 3.42881 0
M  V30 24822 H 2374.43 -4.85625 2.03658 0
M  V30 24823 H 2376.92 -3.30894 1.82531 0
M  V30 24824 H 2377.24 -6.44252 4.268 0
M  V30 24825 H 2375.58 -5.79777 3.83254 0
M  V30 24826 H 2378.77 -4.05738 2.3344 0
M  V30 24827 H 2378.94 -5.48644 3.44809 0
M  V30 24828 N 2372.35 -0.645724 -1.43764 0
M  V30 24829 C 2373.28 0.0370066 -2.33471 0
M  V30 24830 C 2374.26 0.819753 -1.49044 0
M  V30 24831 O 2375.45 0.782727 -1.77727 0
M  V30 24832 C 2372.58 1.00924 -3.32313 0
M  V30 24833 C 2371.53 0.337126 -4.2667 0
M  V30 24834 C 2370.86 1.42028 -5.15492 0
M  V30 24835 C 2372.16 -0.765797 -5.16655 0
M  V30 24836 H 2373.85 -0.71212 -2.90808 0
M  V30 24837 H 2371.4 -0.343901 -1.39833 0
M  V30 24838 H 2373.35 1.49571 -3.93962 0
M  V30 24839 H 2372.07 1.78943 -2.73216 0
M  V30 24840 H 2370.73 -0.128836 -3.66374 0
M  V30 24841 H 2370.38 2.19172 -4.52739 0
M  V30 24842 H 2370.08 0.975864 -5.7944 0
M  V30 24843 H 2371.6 1.90827 -5.80015 0
M  V30 24844 H 2373.02 -0.361802 -5.72157 0
M  V30 24845 H 2371.42 -1.13423 -5.89284 0
M  V30 24846 H 2372.49 -1.62691 -4.56793 0
M  V30 24847 N 2373.83 1.5277 -0.38717 0
M  V30 24848 C 2375.05 2.06449 0.198371 0
M  V30 24849 C 2375.48 1.25719 1.39916 0
M  V30 24850 O 2374.84 0.281688 1.79098 0
M  V30 24851 C 2374.88 3.56399 0.54883 0
M  V30 24852 O 2373.99 3.78255 1.64308 0
M  V30 24853 H 2373.33 0.663575 0.0237615 0
M  V30 24854 H 2375.86 1.96956 -0.554023 0
M  V30 24855 H 2375.87 3.99803 0.813742 0
M  V30 24856 H 2374.54 4.14596 -0.329078 0
M  V30 24857 H 2373.12 3.46741 1.37205 0
M  V30 24858 N 2375.31 0.116931 1.57166 0
M  V30 24859 C 2376.72 -0.239666 1.5779 0
M  V30 24860 C 2376.92 -1.66865 1.12952 0
M  V30 24861 O 2375.98 -2.38953 0.815962 0
M  V30 24862 C 2377.29 -0.00822916 3.00699 0
M  V30 24863 C 2378.84 -0.0742888 3.12912 0
M  V30 24864 C 2379.31 0.129429 4.57817 0
M  V30 24865 N 2380.81 0.0753284 4.63139 0
M  V30 24866 C 2381.54 0.207888 5.73023 0
M  V30 24867 N 2381.04 0.396504 6.91664 0
M  V30 24868 N 2382.83 0.147609 5.61906 0
M  V30 24869 H 2374.98 1.05033 1.84613 0
M  V30 24870 H 2377.24 0.413425 0.853102 0
M  V30 24871 H 2376.95 0.97959 3.37782 0
M  V30 24872 H 2376.82 -0.741012 3.6985 0
M  V30 24873 H 2379.21 -1.05263 2.75688 0
M  V30 24874 H 2379.29 0.690341 2.46309 0
M  V30 24875 H 2378.94 1.10474 4.9574 0
M  V30 24876 H 2378.87 -0.655161 5.22509 0
M  V30 24877 H 2381.36 -0.0670234 3.77841 0
M  V30 24878 H 2381.67 0.488573 7.71254 0
M  V30 24879 H 2380.01 0.432451 6.93653 0
M  V30 24880 H 2383.21 0.00123264 4.681 0
M  V30 24881 H 2383.38 0.254361 6.47501 0
M  V30 24882 N 2376.78 -1.56818 -0.156836 0
M  V30 24883 C 2377.72 -1.94108 -1.2188 0
M  V30 24884 C 2378.73 -0.835779 -1.39709 0
M  V30 24885 O 2379.92 -1.11421 -1.39455 0
M  V30 24886 C 2377.02 -2.19132 -2.58523 0
M  V30 24887 C 2376.19 -3.50397 -2.61802 0
M  V30 24888 C 2375.25 -3.64077 -3.79913 0
M  V30 24889 O 2374.28 -4.36563 -3.65241 0
M  V30 24890 N 2375.48 -3.00006 -4.96967 0
M  V30 24891 H 2378.24 -2.85807 -0.901923 0
M  V30 24892 H 2375.8 -1.58149 -0.346486 0
M  V30 24893 H 2377.8 -2.25534 -3.3603 0
M  V30 24894 H 2376.37 -1.33747 -2.82543 0
M  V30 24895 H 2375.59 -3.55523 -1.70284 0
M  V30 24896 H 2376.87 -4.36747 -2.61016 0
M  V30 24897 H 2376.27 -2.41013 -5.1179 0
M  V30 24898 H 2374.83 -3.11984 -5.72284 0
M  V30 24899 N 2378.26 0.425871 -1.51737 0
M  V30 24900 C 2379.51 1.17133 -1.64203 0
M  V30 24901 C 2379.82 1.92074 -0.369739 0
M  V30 24902 O 2381.03 2.68912 -0.373945 0
M  V30 24903 C 2379.49 2.13086 -2.90039 0
M  V30 24904 C 2379.09 1.4374 -4.24315 0
M  V30 24905 C 2380.84 2.87994 -3.11865 0
M  V30 24906 C 2378.75 2.38243 -5.41289 0
M  V30 24907 H 2377.68 0.440933 -0.611632 0
M  V30 24908 H 2380.33 0.437296 -1.78213 0
M  V30 24909 H 2378.71 2.89972 -2.69689 0
M  V30 24910 H 2379.88 0.723328 -4.55087 0
M  V30 24911 H 2378.2 0.809393 -4.08458 0
M  V30 24912 H 2380.79 3.5881 -3.96433 0
M  V30 24913 H 2381.14 3.49995 -2.2541 0
M  V30 24914 H 2381.67 2.18212 -3.32609 0
M  V30 24915 H 2378.41 1.80914 -6.3004 0
M  V30 24916 H 2377.93 3.07671 -5.14878 0
M  V30 24917 H 2379.61 2.99129 -5.73699 0
M  V30 24918 N 2379.74 1.42077 0.682052 0
M  V30 24919 C 2380.7 1.44694 1.77753 0
M  V30 24920 C 2381.7 0.335563 1.5726 0
M  V30 24921 O 2382.89 0.596066 1.63685 0
M  V30 24922 C 2380.03 1.27152 3.16299 0
M  V30 24923 H 2381.22 2.42227 1.76822 0
M  V30 24924 H 2378.77 1.28418 0.890989 0
M  V30 24925 H 2379.51 0.305131 3.22861 0
M  V30 24926 H 2379.29 2.07689 3.32577 0
M  V30 24927 H 2380.78 1.3185 3.96239 0
M  V30 24928 N 2381.22 -0.917649 1.28129 0
M  V30 24929 C 2382.5 -1.6454 1.05764 0
M  V30 24930 C 2382.88 -2.07192 -0.404308 0
M  V30 24931 O 2382.22 -1.8139 -1.3896 0
M  V30 24932 C 2382.43 -2.83986 2.02862 0
M  V30 24933 C 2383.78 -3.55096 2.32792 0
M  V30 24934 O 2384.81 -2.94128 2.00915 0
M  V30 24935 O 2383.67 -4.64964 2.87178 0
M  V30 24936 H 2380.76 -0.721645 0.403928 0
M  V30 24937 H 2383.31 -0.967298 1.39433 0
M  V30 24938 H 2382.08 -2.49533 3.01412 0
M  V30 24939 H 2381.7 -3.59511 1.69816 0
M  V30 24940 N 2382.7 -1.10314 -1.12555 0
M  V30 24941 C 2383.95 -0.839621 -1.83394 0
M  V30 24942 C 2384.26 0.636897 -1.8494 0
M  V30 24943 O 2385.47 1.01627 -2.51762 0
M  V30 24944 C 2383.92 -1.4522 -3.29301 0
M  V30 24945 C 2383.53 -2.96192 -3.36116 0
M  V30 24946 C 2385.27 -1.26803 -4.05119 0
M  V30 24947 C 2383.18 -3.50491 -4.7635 0
M  V30 24948 H 2382.11 -0.310437 -0.687128 0
M  V30 24949 H 2384.76 -1.32697 -1.26743 0
M  V30 24950 H 2383.14 -0.892537 -3.85811 0
M  V30 24951 H 2384.32 -3.58463 -2.89553 0
M  V30 24952 H 2382.63 -3.1375 -2.7377 0
M  V30 24953 H 2385.23 -1.64815 -5.08665 0
M  V30 24954 H 2385.57 -0.209482 -4.15773 0
M  V30 24955 H 2386.11 -1.7957 -3.54964 0
M  V30 24956 H 2382.84 -4.56007 -4.70891 0
M  V30 24957 H 2382.36 -2.92987 -5.23372 0
M  V30 24958 H 2384.04 -3.48238 -5.45288 0
M  V30 24959 N 2384.18 1.29948 -0.891694 0
M  V30 24960 C 2385.42 1.95157 -0.509555 0
M  V30 24961 C 2385.74 1.71127 0.947358 0
M  V30 24962 O 2386.94 2.30375 1.43665 0
M  V30 24963 C 2385.4 3.49465 -0.860377 0
M  V30 24964 C 2385.01 3.82306 -2.33552 0
M  V30 24965 C 2386.75 4.20951 -0.547761 0
M  V30 24966 C 2384.66 5.29821 -2.62762 0
M  V30 24967 H 2383.59 0.730486 -0.186833 0
M  V30 24968 H 2386.24 1.47796 -1.08759 0
M  V30 24969 H 2384.62 3.95436 -0.211354 0
M  V30 24970 H 2385.8 3.47222 -3.02942 0
M  V30 24971 H 2384.11 3.23939 -2.61634 0
M  V30 24972 H 2386.71 5.29513 -0.742947 0
M  V30 24973 H 2387.05 4.13124 0.513248 0
M  V30 24974 H 2387.58 3.80685 -1.15427 0
M  V30 24975 H 2384.32 5.42705 -3.67629 0
M  V30 24976 H 2383.84 5.66181 -1.97987 0
M  V30 24977 H 2385.52 5.97329 -2.48611 0
M  V30 24978 N 2385.65 0.653339 1.4342 0
M  V30 24979 C 2386.58 -0.0246246 2.33487 0
M  V30 24980 C 2387.56 -0.811837 1.49476 0
M  V30 24981 O 2388.75 -0.773291 1.7814 0
M  V30 24982 C 2385.88 -0.991601 3.32843 0
M  V30 24983 C 2384.83 -0.314493 4.26843 0
M  V30 24984 C 2384.16 -1.39292 5.16238 0
M  V30 24985 C 2385.46 0.793186 5.16242 0
M  V30 24986 H 2387.15 0.727532 2.90426 0
M  V30 24987 H 2384.7 0.351312 1.39649 0
M  V30 24988 H 2386.65 -1.4748 3.9475 0
M  V30 24989 H 2385.38 -1.77492 2.74161 0
M  V30 24990 H 2384.04 0.148264 3.663 0
M  V30 24991 H 2383.68 -2.16768 4.53895 0
M  V30 24992 H 2383.38 -0.945121 5.79949 0
M  V30 24993 H 2384.91 -1.87749 5.81019 0
M  V30 24994 H 2386.32 0.39214 5.71957 0
M  V30 24995 H 2384.72 1.16547 5.88674 0
M  V30 24996 H 2385.79 1.65111 4.55924 0
M  V30 24997 N 2387.13 -1.52563 0.395266 0
M  V30 24998 C 2388.54 -1.86539 -0.0774391 0
M  V30 24999 C 2388.89 -1.31468 -1.45638 0
M  V30 25000 O 2388.02 -0.648403 -2.06457 0
M  V30 25001 C 2388.61 -3.3848 -0.147297 0
M  V30 25002 C 2387.17 -3.72146 -0.564308 0
M  V30 25003 C 2386.32 -2.75983 0.269968 0
M  V30 25004 H 2389.27 -1.46387 0.612902 0
M  V30 25005 H 2389.29 -3.68052 -0.965278 0
M  V30 25006 H 2388.8 -3.78532 0.856454 0
M  V30 25007 H 2386.9 -3.37665 -1.57521 0
M  V30 25008 H 2387.02 -4.78041 -0.318318 0
M  V30 25009 H 2385.38 -2.53311 -0.265651 0
M  V30 25010 H 2386.16 -3.18873 1.27181 0
M  V30 25011 N 2388.61 -0.125265 -1.57101 0
M  V30 25012 C 2389.54 0.860057 -2.11372 0
M  V30 25013 C 2390.52 1.25677 -1.0317 0
M  V30 25014 O 2391.7 1.35672 -1.30864 0
M  V30 25015 C 2388.83 2.15186 -2.61558 0
M  V30 25016 C 2387.88 1.90273 -3.81705 0
M  V30 25017 S 2388.71 1.11334 -5.23799 0
M  V30 25018 C 2389.87 2.41679 -5.77358 0
M  V30 25019 H 2390.1 0.398468 -2.94618 0
M  V30 25020 H 2387.63 0.0886284 -1.54145 0
M  V30 25021 H 2389.59 2.89405 -2.91127 0
M  V30 25022 H 2388.25 2.58462 -1.78484 0
M  V30 25023 H 2387.44 2.86006 -4.1499 0
M  V30 25024 H 2387.05 1.24172 -3.52785 0
M  V30 25025 H 2389.34 3.37479 -5.87464 0
M  V30 25026 H 2390.28 2.1293 -6.75327 0
M  V30 25027 H 2390.69 2.51333 -5.05462 0
M  V30 25028 N 2390.09 1.56899 0.148518 0
M  V30 25029 C 2391.02 2.01184 1.18521 0
M  V30 25030 C 2392 0.891148 1.44888 0
M  V30 25031 O 2393.18 1.15885 1.55834 0
M  V30 25032 C 2390.31 2.39116 2.51874 0
M  V30 25033 C 2389.27 3.54357 2.40031 0
M  V30 25034 C 2388.59 3.78098 3.78082 0
M  V30 25035 C 2389.89 4.87072 1.88568 0
M  V30 25036 H 2391.59 2.88038 0.816979 0
M  V30 25037 H 2389.13 1.38574 0.39155 0
M  V30 25038 H 2391.09 2.68698 3.24622 0
M  V30 25039 H 2389.81 1.49198 2.9053 0
M  V30 25040 H 2388.47 3.24939 1.69736 0
M  V30 25041 H 2388.12 2.85433 4.1417 0
M  V30 25042 H 2387.82 4.55651 3.7102 0
M  V30 25043 H 2389.34 4.10103 4.5238 0
M  V30 25044 H 2390.76 5.15381 2.51108 0
M  V30 25045 H 2389.15 5.68421 1.924 0
M  V30 25046 H 2390.22 4.77546 0.841276 0
M  V30 25047 N 2391.57 -0.417818 1.51961 0
M  V30 25048 C 2392.53 -1.49108 1.74067 0
M  V30 25049 C 2393.53 -1.48757 0.610563 0
M  V30 25050 O 2394.72 -1.50435 0.878347 0
M  V30 25051 C 2391.85 -2.88562 1.81507 0
M  V30 25052 H 2393.04 -1.30803 2.69872 0
M  V30 25053 H 2390.6 -0.64776 1.42245 0
M  V30 25054 H 2391.33 -3.12248 0.875868 0
M  V30 25055 H 2391.12 -2.9022 2.63656 0
M  V30 25056 H 2392.61 -3.66383 2.00382 0
M  V30 25057 N 2393.04 -1.42436 -0.674508 0
M  V30 25058 C 2393.99 -1.45937 -1.78804 0
M  V30 25059 C 2394.96 -0.3113 -1.63157 0
M  V30 25060 O 2396.15 -0.515415 -1.83707 0
M  V30 25061 C 2393.29 -1.36779 -3.16837 0
M  V30 25062 C 2392.4 -2.61623 -3.43769 0
M  V30 25063 C 2391.53 -2.44605 -4.71531 0
M  V30 25064 C 2390.57 -3.64822 -4.91499 0
M  V30 25065 N 2389.71 -3.46744 -6.10502 0
M  V30 25066 H 2394.55 -2.41097 -1.75147 0
M  V30 25067 H 2392.09 -1.19699 -0.855019 0
M  V30 25068 H 2394.04 -1.29466 -3.96603 0
M  V30 25069 H 2392.67 -0.452145 -3.19618 0
M  V30 25070 H 2391.73 -2.79301 -2.58254 0
M  V30 25071 H 2393.04 -3.50984 -3.54417 0
M  V30 25072 H 2392.19 -2.3488 -5.59389 0
M  V30 25073 H 2390.93 -1.52734 -4.63167 0
M  V30 25074 H 2389.94 -3.74979 -4.02083 0
M  V30 25075 H 2391.16 -4.57674 -5.01708 0
M  V30 25076 H 2389.11 -2.57591 -6.0331 0
M  V30 25077 H 2389.02 -4.29693 -6.22013 0
M  V30 25078 H 2390.29 -3.40832 -7.01038 0
M  V30 25079 N 2394.52 0.910841 -1.28614 0
M  V30 25080 C 2395.45 2.01842 -1.08592 0
M  V30 25081 C 2396.47 1.62758 -0.0367705 0
M  V30 25082 O 2397.66 1.76288 -0.280132 0
M  V30 25083 C 2394.76 3.33018 -0.628685 0
M  V30 25084 C 2393.93 4.00696 -1.75389 0
M  V30 25085 C 2392.99 5.10154 -1.28954 0
M  V30 25086 O 2392.01 5.33195 -1.99229 0
M  V30 25087 N 2393.22 5.80295 -0.154326 0
M  V30 25088 H 2395.98 2.19575 -2.03977 0
M  V30 25089 H 2393.54 1.08232 -1.20405 0
M  V30 25090 H 2395.53 4.03575 -0.301579 0
M  V30 25091 H 2394.1 3.11735 0.232397 0
M  V30 25092 H 2393.32 3.23649 -2.25044 0
M  V30 25093 H 2394.61 4.42657 -2.50862 0
M  V30 25094 H 2394.01 5.64049 0.431841 0
M  V30 25095 H 2392.57 6.51701 0.113484 0
M  V30 25096 N 2396 1.10909 1.11969 0
M  V30 25097 C 2396.93 0.720213 2.1759 0
M  V30 25098 C 2397.95 -0.245467 1.60939 0
M  V30 25099 O 2399.13 -0.0291932 1.78476 0
M  V30 25100 C 2396.23 0.0428513 3.38873 0
M  V30 25101 C 2395.41 1.03395 4.25004 0
M  V30 25102 C 2394.47 0.387167 5.24774 0
M  V30 25103 O 2393.49 1.03944 5.59629 0
M  V30 25104 N 2394.69 -0.852306 5.74209 0
M  V30 25105 H 2397.46 1.62898 2.51564 0
M  V30 25106 H 2395.02 0.998566 1.27437 0
M  V30 25107 H 2397.01 -0.40143 4.02704 0
M  V30 25108 H 2395.58 -0.768403 3.03009 0
M  V30 25109 H 2394.8 1.65635 3.57713 0
M  V30 25110 H 2396.09 1.70467 4.79394 0
M  V30 25111 H 2395.49 -1.40151 5.48064 0
M  V30 25112 H 2394.05 -1.23966 6.39903 0
M  V30 25113 N 2397.48 -1.29474 0.898573 0
M  V30 25114 C 2398.41 -2.25945 0.320021 0
M  V30 25115 C 2399.39 -1.52388 -0.567162 0
M  V30 25116 O 2400.57 -1.8135 -0.514222 0
M  V30 25117 C 2397.7 -3.34303 -0.543954 0
M  V30 25118 C 2396.75 -4.25608 0.275757 0
M  V30 25119 S 2397.58 -5.08702 1.67281 0
M  V30 25120 C 2398.74 -6.20562 0.81573 0
M  V30 25121 H 2398.97 -2.74669 1.13772 0
M  V30 25122 H 2396.5 -1.37679 0.698845 0
M  V30 25123 H 2398.46 -3.97195 -1.03666 0
M  V30 25124 H 2397.12 -2.84276 -1.33588 0
M  V30 25125 H 2396.31 -5.02534 -0.384175 0
M  V30 25126 H 2395.92 -3.67361 0.70156 0
M  V30 25127 H 2398.21 -6.77489 0.0386233 0
M  V30 25128 H 2399.15 -6.90769 1.55704 0
M  V30 25129 H 2399.56 -5.63282 0.370615 0
M  V30 25130 N 2398.96 -0.660936 -1.43071 0
M  V30 25131 C 2399.91 0.0484299 -2.27949 0
M  V30 25132 C 2400.89 0.787222 -1.40327 0
M  V30 25133 O 2402.08 0.668417 -1.63894 0
M  V30 25134 C 2399.21 1.00876 -3.28145 0
M  V30 25135 C 2398.3 0.268034 -4.23252 0
M  V30 25136 N 2398.69 -0.719616 -5.00655 0
M  V30 25137 C 2396.99 0.508415 -4.43093 0
M  V30 25138 C 2397.69 -1.15998 -5.70017 0
M  V30 25139 N 2396.66 -0.492679 -5.41363 0
M  V30 25140 H 2400.47 -0.709329 -2.85212 0
M  V30 25141 H 2397.98 -0.488849 -1.54868 0
M  V30 25142 H 2399.98 1.53181 -3.87739 0
M  V30 25143 H 2398.64 1.76649 -2.72443 0
M  V30 25144 H 2399.65 -1.09864 -5.06113 0
M  V30 25145 H 2396.32 1.24672 -3.98451 0
M  V30 25146 H 2397.71 -1.97762 -6.42137 0
M  V30 25147 N 2400.43 1.52351 -0.403352 0
M  V30 25148 C 2401.68 2.00934 0.175632 0
M  V30 25149 C 2402 1.29359 1.46716 0
M  V30 25150 O 2403.2 1.68727 2.12705 0
M  V30 25151 C 2401.66 3.58059 0.363549 0
M  V30 25152 C 2401.27 4.38545 -0.915549 0
M  V30 25153 C 2403.01 4.1489 0.898137 0
M  V30 25154 C 2400.92 5.873 -0.695139 0
M  V30 25155 H 2399.85 0.750798 0.0694102 0
M  V30 25156 H 2402.5 1.75742 -0.52791 0
M  V30 25157 H 2400.88 3.79557 1.12928 0
M  V30 25158 H 2402.05 4.28809 -1.68698 0
M  V30 25159 H 2400.37 3.93004 -1.37612 0
M  V30 25160 H 2402.97 5.237 1.07898 0
M  V30 25161 H 2403.31 3.71876 1.8712 0
M  V30 25162 H 2403.84 3.97338 0.191612 0
M  V30 25163 H 2400.58 6.34663 -1.6396 0
M  V30 25164 H 2400.1 5.99789 0.0371062 0
M  V30 25165 H 2401.78 6.46132 -0.335084 0
M  V30 25166 N 2401.91 0.133594 1.57033 0
M  V30 25167 C 2403.19 -0.565187 1.87257 0
M  V30 25168 C 2403.57 -1.83857 1.03729 0
M  V30 25169 O 2402.92 -2.28183 0.120287 0
M  V30 25170 C 2403.13 -0.843576 3.38651 0
M  V30 25171 C 2404.48 -1.19025 4.07576 0
M  V30 25172 O 2405.5 -0.933368 3.43754 0
M  V30 25173 O 2404.36 -1.67303 5.20262 0
M  V30 25174 H 2401.45 -0.286783 0.775683 0
M  V30 25175 H 2404 0.169198 1.68854 0
M  V30 25176 H 2402.77 0.0581836 3.91257 0
M  V30 25177 H 2402.39 -1.63261 3.62535 0
M  V30 25178 N 2403.39 -1.56975 -0.140195 0
M  V30 25179 C 2404.62 -1.88253 -0.870381 0
M  V30 25180 C 2405.04 -0.723342 -1.73636 0
M  V30 25181 O 2404.4 0.326859 -1.78329 0
M  V30 25182 C 2404.45 -3.18157 -1.69731 0
M  V30 25183 O 2403.55 -3.0257 -2.80224 0
M  V30 25184 H 2402.89 -0.618324 -0.242014 0
M  V30 25185 H 2405.42 -2.04193 -0.128963 0
M  V30 25186 H 2405.43 -3.50349 -2.09093 0
M  V30 25187 H 2404.11 -4.02127 -1.06145 0
M  V30 25188 H 2402.68 -2.81801 -2.44219 0
M  V30 25189 N 2404.87 0.409753 -1.5218 0
M  V30 25190 C 2405.82 1.49828 -1.71859 0
M  V30 25191 C 2406.8 1.50371 -0.572496 0
M  V30 25192 O 2407.99 1.56358 -0.829537 0
M  V30 25193 C 2405.12 2.87762 -1.87211 0
M  V30 25194 C 2404.21 2.91869 -3.0769 0
M  V30 25195 N 2404.6 2.65675 -4.30407 0
M  V30 25196 C 2402.9 3.23037 -3.07511 0
M  V30 25197 C 2403.6 2.76335 -5.11873 0
M  V30 25198 N 2402.58 3.09187 -4.47107 0
M  V30 25199 H 2406.38 1.2837 -2.64383 0
M  V30 25200 H 2403.89 0.617452 -1.50204 0
M  V30 25201 H 2405.89 3.66108 -1.99426 0
M  V30 25202 H 2404.55 3.10219 -0.958868 0
M  V30 25203 H 2405.56 2.40082 -4.58891 0
M  V30 25204 H 2402.24 3.51092 -2.25921 0
M  V30 25205 H 2403.63 2.59803 -6.19639 0
M  V30 25206 N 2406.35 1.42792 0.666944 0
M  V30 25207 C 2407.26 1.49302 1.80959 0
M  V30 25208 C 2408.27 0.381138 1.69774 0
M  V30 25209 O 2409.45 0.633222 1.91186 0
M  V30 25210 C 2406.51 1.40051 3.17154 0
M  V30 25211 C 2405.57 2.61796 3.40237 0
M  V30 25212 C 2404.81 2.52977 4.69934 0
M  V30 25213 O 2405.03 1.56995 5.48369 0
M  V30 25214 O 2403.96 3.43246 4.94435 0
M  V30 25215 H 2407.79 2.45762 1.78423 0
M  V30 25216 H 2405.38 1.24642 0.823691 0
M  V30 25217 H 2407.26 1.37283 3.98411 0
M  V30 25218 H 2405.93 0.467194 3.20311 0
M  V30 25219 H 2404.84 2.70138 2.58798 0
M  V30 25220 H 2406.17 3.54053 3.41917 0
M  V30 25221 N 2407.82 -0.904008 1.29095 0
M  V30 25222 C 2408.79 -1.98917 1.13863 0
M  V30 25223 C 2409.79 -1.60623 0.0753739 0
M  V30 25224 O 2410.98 -1.71199 0.321961 0
M  V30 25225 C 2408.11 -3.32766 0.740257 0
M  V30 25226 H 2409.3 -2.13858 2.1025 0
M  V30 25227 H 2406.86 -1.08795 1.1222 0
M  V30 25228 H 2407.59 -3.23526 -0.223941 0
M  V30 25229 H 2407.38 -3.61923 1.50844 0
M  V30 25230 H 2408.87 -4.12405 0.656619 0
M  V30 25231 N 2409.3 -1.11501 -1.11379 0
M  V30 25232 C 2410.23 -0.796163 -2.19507 0
M  V30 25233 C 2411.21 0.235766 -1.68458 0
M  V30 25234 O 2412.4 0.0991003 -1.93947 0
M  V30 25235 C 2409.53 -0.239266 -3.46475 0
M  V30 25236 C 2408.48 -1.20314 -4.10741 0
M  V30 25237 C 2407.81 -0.506924 -5.32292 0
M  V30 25238 C 2409.11 -2.55407 -4.55593 0
M  V30 25239 H 2410.8 -1.70028 -2.46436 0
M  V30 25240 H 2408.35 -0.818956 -1.18445 0
M  V30 25241 H 2410.3 -0.00399414 -4.214 0
M  V30 25242 H 2409.03 0.70015 -3.19007 0
M  V30 25243 H 2407.68 -1.42405 -3.37811 0
M  V30 25244 H 2407.33 0.43732 -5.01095 0
M  V30 25245 H 2407.03 -1.1498 -5.76241 0
M  V30 25246 H 2408.56 -0.280459 -6.09956 0
M  V30 25247 H 2409.97 -2.374 -5.21837 0
M  V30 25248 H 2408.37 -3.15682 -5.10358 0
M  V30 25249 H 2409.44 -3.14581 -3.69007 0
M  V30 25250 N 2410.78 1.28995 -0.905426 0
M  V30 25251 C 2412.03 1.94939 -0.533227 0
M  V30 25252 C 2412.35 1.71687 0.924588 0
M  V30 25253 O 2411.62 1.05186 1.65266 0
M  V30 25254 H 2410.2 0.721313 -0.194207 0
M  V30 25255 H 2412.86 1.57139 -1.15297 0
M  V30 25256 H 2411.96 3.03666 -0.720644 0
M  V30 25257 N 2412.26 0.668514 1.42719 0
M  V30 25258 C 2413.51 0.188454 2.01922 0
M  V30 25259 C 2413.84 -1.19976 1.52707 0
M  V30 25260 O 2413.11 -1.80418 0.726597 0
M  V30 25261 C 2413.4 0.216148 3.59451 0
M  V30 25262 C 2413.25 1.63937 4.18861 0
M  V30 25263 C 2414.57 -0.439102 4.37904 0
M  V30 25264 H 2411.69 0.0699541 0.733673 0
M  V30 25265 H 2414.33 0.852106 1.69821 0
M  V30 25266 H 2412.48 -0.348944 3.8693 0
M  V30 25267 H 2414.15 2.25623 4.02358 0
M  V30 25268 H 2412.39 2.18199 3.74929 0
M  V30 25269 H 2413.07 1.61048 5.27984 0
M  V30 25270 H 2415.54 0.0418609 4.16079 0
M  V30 25271 H 2414.42 -0.389061 5.47519 0
M  V30 25272 H 2414.68 -1.5157 4.15306 0
M  V30 25273 N 2413.74 -1.52135 0.411426 0
M  V30 25274 C 2414.67 -2.29979 -0.403974 0
M  V30 25275 C 2415.65 -1.34286 -1.0441 0
M  V30 25276 O 2416.83 -1.63194 -1.05268 0
M  V30 25277 C 2413.96 -3.12288 -1.51965 0
M  V30 25278 C 2412.92 -4.16048 -1.0044 0
M  V30 25279 C 2412.24 -4.86716 -2.21385 0
M  V30 25280 C 2413.54 -5.22269 -0.0568418 0
M  V30 25281 H 2415.24 -2.98391 0.245581 0
M  V30 25282 H 2412.78 -1.43503 0.11955 0
M  V30 25283 H 2414.74 -3.65514 -2.09708 0
M  V30 25284 H 2413.46 -2.41649 -2.19711 0
M  V30 25285 H 2412.12 -3.63836 -0.449357 0
M  V30 25286 H 2411.77 -4.12605 -2.87692 0
M  V30 25287 H 2411.47 -5.56861 -1.87561 0
M  V30 25288 H 2412.99 -5.42755 -2.7973 0
M  V30 25289 H 2414.41 -5.70721 -0.54315 0
M  V30 25290 H 2412.8 -5.99791 0.1927 0
M  V30 25291 H 2413.87 -4.76704 0.887747 0
M  V30 25292 N 2415.22 -0.14192 -1.5696 0
M  V30 25293 C 2416.16 0.816836 -2.17786 0
M  V30 25294 C 2417.16 1.25897 -1.13342 0
M  V30 25295 O 2418.36 1.22804 -1.31602 0
M  V30 25296 H 2414.74 0.281603 -0.697283 0
M  V30 25297 H 2416.71 0.279569 -2.97087 0
M  V30 25298 C 2415.46 2.04797 -2.80987 0
M  V30 25299 H 2414.78 1.71674 -3.61065 0
M  V30 25300 H 2416.22 2.69835 -3.27055 0
M  V30 25301 C 2414.68 2.85267 -1.79233 0
M  V30 25302 O 2415.21 3.81438 -1.25968 0
M  V30 25303 N 2413.42 2.49702 -1.48652 0
M  V30 25304 H 2412.96 1.7156 -1.92158 0
M  V30 25305 H 2412.92 3.03835 -0.808168 0
M  V30 25306 N 2416.69 1.57047 0.131868 0
M  V30 25307 C 2417.92 1.88343 0.856428 0
M  V30 25308 C 2418.34 0.731787 1.74041 0
M  V30 25309 O 2417.69 -0.297914 1.80052 0
M  V30 25310 C 2417.74 3.19002 1.70058 0
M  V30 25311 O 2417.47 4.29731 0.852203 0
M  V30 25312 C 2418.97 3.63915 2.53141 0
M  V30 25313 H 2416.19 0.623934 0.246874 0
M  V30 25314 H 2418.73 2.04147 0.120117 0
M  V30 25315 H 2416.89 3.04906 2.38979 0
M  V30 25316 H 2417.3 5.04539 1.4332 0
M  V30 25317 H 2418.77 4.58135 3.07923 0
M  V30 25318 H 2419.25 2.8994 3.29896 0
M  V30 25319 H 2419.86 3.80756 1.89486 0
M  V30 25320 N 2418.17 -0.401677 1.52395 0
M  V30 25321 C 2419.1 -1.49658 1.79234 0
M  V30 25322 C 2420.08 -1.57451 0.643682 0
M  V30 25323 O 2421.27 -1.72604 0.89002 0
M  V30 25324 C 2418.4 -2.87405 1.94976 0
M  V30 25325 C 2417.35 -2.94459 3.10609 0
M  V30 25326 C 2416.68 -4.34533 3.11585 0
M  V30 25327 C 2417.98 -2.65262 4.49926 0
M  V30 25328 H 2419.67 -1.27449 2.70919 0
M  V30 25329 H 2417.22 -0.611677 1.30363 0
M  V30 25330 H 2419.17 -3.63995 2.12334 0
M  V30 25331 H 2417.89 -3.10924 0.999687 0
M  V30 25332 H 2416.55 -2.20316 2.93013 0
M  V30 25333 H 2416.2 -4.55072 2.14285 0
M  V30 25334 H 2415.9 -4.40176 3.89255 0
M  V30 25335 H 2417.43 -5.13047 3.31082 0
M  V30 25336 H 2418.84 -3.31573 4.67689 0
M  V30 25337 H 2417.24 -2.82271 5.29569 0
M  V30 25338 H 2418.31 -1.60663 4.5751 0
M  V30 25339 N 2419.65 -1.43144 -0.659362 0
M  V30 25340 C 2420.9 -1.44435 -1.41932 0
M  V30 25341 C 2421.22 -0.0663864 -1.94387 0
M  V30 25342 O 2420.48 0.927676 -1.72316 0
M  V30 25343 C 2420.78 -2.42868 -2.62202 0
M  V30 25344 C 2420.44 -3.8889 -2.28201 0
M  V30 25345 C 2419.11 -4.28661 -2.1864 0
M  V30 25346 C 2421.46 -4.80934 -2.00878 0
M  V30 25347 C 2418.79 -5.58437 -1.79904 0
M  V30 25348 C 2421.14 -6.11068 -1.63642 0
M  V30 25349 C 2419.8 -6.49822 -1.52603 0
M  V30 25350 H 2419.07 -0.528526 -0.519367 0
M  V30 25351 H 2421.72 -1.76184 -0.750422 0
M  V30 25352 H 2420.02 -2.04501 -3.34195 0
M  V30 25353 H 2421.72 -2.41125 -3.20406 0
M  V30 25354 H 2418.31 -3.5741 -2.3655 0
M  V30 25355 H 2422.5 -4.50983 -2.0719 0
M  V30 25356 H 2417.75 -5.87308 -1.69938 0
M  V30 25357 H 2421.93 -6.81867 -1.41531 0
M  V30 25358 H 2419.55 -7.50288 -1.22358 0
M  V30 25359 N 2421.13 0.897149 -1.29572 0
M  V30 25360 C 2422.04 2.03451 -1.16811 0
M  V30 25361 C 2423.05 1.73763 -0.0907777 0
M  V30 25362 O 2424.23 1.99102 -0.303347 0
M  V30 25363 C 2421.29 3.36161 -0.848323 0
M  V30 25364 C 2420.36 3.79351 -2.00976 0
M  V30 25365 C 2419.59 5.05728 -1.70514 0
M  V30 25366 O 2419.81 5.6694 -0.62728 0
M  V30 25367 O 2418.75 5.45032 -2.55389 0
M  V30 25368 H 2422.57 2.17141 -2.12329 0
M  V30 25369 H 2420.16 1.02121 -1.09049 0
M  V30 25370 H 2422.04 4.15801 -0.684654 0
M  V30 25371 H 2420.71 3.23608 0.0770503 0
M  V30 25372 H 2419.62 3.00467 -2.22869 0
M  V30 25373 H 2420.95 3.96491 -2.91643 0
M  V30 25374 N 2422.61 1.1209 1.10786 0
M  V30 25375 C 2423.85 0.868691 1.82035 0
M  V30 25376 C 2424.17 -0.607394 1.8593 0
M  V30 25377 O 2425.37 -0.976085 2.53347 0
M  V30 25378 C 2423.83 1.50441 3.26949 0
M  V30 25379 C 2423.44 3.01502 3.31362 0
M  V30 25380 C 2425.18 1.33232 4.0305 0
M  V30 25381 C 2423.09 3.58025 4.70714 0
M  V30 25382 H 2422.02 0.32133 0.682102 0
M  V30 25383 H 2424.67 1.34696 1.24616 0
M  V30 25384 H 2423.05 0.953803 3.84342 0
M  V30 25385 H 2424.23 3.63025 2.83813 0
M  V30 25386 H 2422.54 3.18065 2.68744 0
M  V30 25387 H 2425.14 1.72887 5.05978 0
M  V30 25388 H 2425.48 0.275602 4.15387 0
M  V30 25389 H 2426.01 1.85194 3.52062 0
M  V30 25390 H 2422.75 4.6344 4.63577 0
M  V30 25391 H 2422.27 3.01277 5.18645 0
M  V30 25392 H 2423.95 3.56869 5.39679 0
M  V30 25393 N 2424.08 -1.28513 0.912254 0
M  V30 25394 C 2425.01 -2.29756 0.416443 0
M  V30 25395 C 2425.99 -1.62111 -0.515166 0
M  V30 25396 O 2427.18 -1.89532 -0.423219 0
M  V30 25397 C 2424.31 -3.45576 -0.345659 0
M  V30 25398 C 2423.26 -4.25108 0.496674 0
M  V30 25399 C 2422.59 -5.33249 -0.393678 0
M  V30 25400 C 2423.89 -4.91998 1.75316 0
M  V30 25401 H 2425.58 -2.71478 1.26254 0
M  V30 25402 H 2423.13 -1.3051 0.608538 0
M  V30 25403 H 2425.08 -4.15489 -0.703349 0
M  V30 25404 H 2423.81 -3.0273 -1.22565 0
M  V30 25405 H 2422.47 -3.5692 0.836863 0
M  V30 25406 H 2422.11 -4.86647 -1.27217 0
M  V30 25407 H 2421.81 -5.87365 0.166312 0
M  V30 25408 H 2423.34 -6.0601 -0.747283 0
M  V30 25409 H 2424.75 -5.5428 1.46446 0
M  V30 25410 H 2423.15 -5.56102 2.25544 0
M  V30 25411 H 2424.22 -4.16573 2.48184 0
M  V30 25412 N 2425.56 -0.676073 -1.42362 0
M  V30 25413 C 2426.53 -0.00770969 -2.29199 0
M  V30 25414 C 2427.53 0.72772 -1.43391 0
M  V30 25415 O 2428.72 0.565531 -1.64765 0
M  V30 25416 C 2425.85 0.999727 -3.25911 0
M  V30 25417 H 2427.04 -0.772039 -2.89792 0
M  V30 25418 H 2424.59 -0.438495 -1.50023 0
M  V30 25419 H 2425.33 1.7925 -2.70259 0
M  V30 25420 H 2425.11 0.475761 -3.89203 0
M  V30 25421 H 2426.6 1.46577 -3.91031 0
M  V30 25422 N 2427.04 1.51915 -0.419488 0
M  V30 25423 C 2428.45 1.86639 0.0477525 0
M  V30 25424 C 2428.8 1.33769 1.43528 0
M  V30 25425 O 2427.93 0.681167 2.054 0
M  V30 25426 C 2428.52 3.38671 0.0934289 0
M  V30 25427 C 2427.08 3.72997 0.505031 0
M  V30 25428 C 2426.23 2.75518 -0.31384 0
M  V30 25429 H 2429.18 1.45394 -0.636113 0
M  V30 25430 H 2429.2 3.69542 0.906602 0
M  V30 25431 H 2428.71 3.77122 -0.916567 0
M  V30 25432 H 2426.81 3.40129 1.52129 0
M  V30 25433 H 2426.93 4.78487 0.242225 0
M  V30 25434 H 2425.29 2.53701 0.225318 0
M  V30 25435 H 2426.07 3.16809 -1.32238 0
M  V30 25436 N 2428.52 0.150242 1.56882 0
M  V30 25437 C 2429.74 -0.510148 2.01028 0
M  V30 25438 C 2430.17 -1.57414 1.02969 0
M  V30 25439 O 2429.53 -1.81299 0.00593344 0
M  V30 25440 C 2429.57 -1.08466 3.439 0
M  V30 25441 O 2428.68 -2.19942 3.48854 0
M  V30 25442 H 2428.02 -0.124439 0.652235 0
M  V30 25443 H 2430.55 0.24793 2.03092 0
M  V30 25444 H 2430.56 -1.41252 3.82769 0
M  V30 25445 H 2429.23 -0.305509 4.14776 0
M  V30 25446 H 2427.81 -1.8836 3.21831 0
M  V30 25447 N 2430 -1.57115 -0.123538 0
M  V30 25448 C 2431.22 -1.89165 -0.850365 0
M  V30 25449 C 2431.65 -0.741718 -1.72859 0
M  V30 25450 O 2431 0.307926 -1.78666 0
M  V30 25451 C 2431.05 -3.19939 -1.66347 0
M  V30 25452 O 2430.16 -3.05525 -2.76999 0
M  V30 25453 H 2429.5 -0.620856 -0.235443 0
M  V30 25454 H 2432.03 -2.04318 -0.107299 0
M  V30 25455 H 2432.04 -3.52547 -2.05365 0
M  V30 25456 H 2430.71 -4.0323 -1.01874 0
M  V30 25457 H 2429.29 -2.84375 -2.41216 0
M  V30 25458 N 2431.47 0.393589 -1.52606 0
M  V30 25459 C 2432.4 1.48705 -1.80025 0
M  V30 25460 C 2433.39 1.57107 -0.652023 0
M  V30 25461 O 2434.57 1.7213 -0.899161 0
M  V30 25462 C 2431.7 2.86367 -1.96497 0
M  V30 25463 C 2430.65 2.92808 -3.12166 0
M  V30 25464 C 2429.98 4.32874 -3.13885 0
M  V30 25465 C 2431.28 2.62872 -4.51326 0
M  V30 25466 H 2432.97 1.2601 -2.71591 0
M  V30 25467 H 2430.52 0.604755 -1.30686 0
M  V30 25468 H 2432.47 3.62864 -2.14261 0
M  V30 25469 H 2431.2 3.1039 -1.01616 0
M  V30 25470 H 2429.86 2.18759 -2.94177 0
M  V30 25471 H 2429.5 4.5393 -2.16695 0
M  V30 25472 H 2429.2 4.38105 -3.91583 0
M  V30 25473 H 2430.73 5.11284 -3.33798 0
M  V30 25474 H 2432.14 3.29088 -4.6944 0
M  V30 25475 H 2430.54 2.79459 -5.31058 0
M  V30 25476 H 2431.61 1.58234 -4.58356 0
M  V30 25477 N 2432.95 1.43492 0.651762 0
M  V30 25478 C 2434.37 1.26924 0.967598 0
M  V30 25479 C 2434.57 0.190017 2.00602 0
M  V30 25480 O 2433.62 -0.431063 2.48793 0
M  V30 25481 C 2434.94 2.63404 1.45048 0
M  V30 25482 C 2436.49 2.70948 1.56705 0
M  V30 25483 C 2436.96 4.07849 2.08383 0
M  V30 25484 N 2438.45 4.09921 2.15683 0
M  V30 25485 C 2439.19 5.12683 2.56795 0
M  V30 25486 N 2438.68 6.25819 2.97192 0
M  V30 25487 N 2440.48 5.00037 2.56747 0
M  V30 25488 H 2432.63 2.12371 -0.0353532 0
M  V30 25489 H 2434.89 0.946846 0.0467692 0
M  V30 25490 H 2434.6 3.43349 0.761865 0
M  V30 25491 H 2434.47 2.88898 2.42524 0
M  V30 25492 H 2436.86 1.91334 2.24667 0
M  V30 25493 H 2436.94 2.49217 0.576576 0
M  V30 25494 H 2436.58 4.87929 1.41022 0
M  V30 25495 H 2436.51 4.26944 3.08264 0
M  V30 25496 H 2439 3.28257 1.87231 0
M  V30 25497 H 2439.32 7.0006 3.27315 0
M  V30 25498 H 2437.66 6.29289 2.94993 0
M  V30 25499 H 2440.85 4.10717 2.24565 0
M  V30 25500 H 2441.02 5.80252 2.88465 0
M  V30 25501 N 2434.43 -0.890264 1.30046 0
M  V30 25502 C 2435.84 -1.457 1.16741 0
M  V30 25503 C 2436.19 -1.94801 -0.233905 0
M  V30 25504 O 2435.32 -1.84543 -1.13018 0
M  V30 25505 C 2435.91 -2.64821 2.11318 0
M  V30 25506 C 2434.47 -3.17601 2.02007 0
M  V30 25507 C 2433.62 -1.90293 2.01703 0
M  V30 25508 H 2436.57 -0.700701 1.42393 0
M  V30 25509 H 2436.59 -3.40864 1.69092 0
M  V30 25510 H 2436.1 -2.29054 3.13298 0
M  V30 25511 H 2434.2 -3.58038 1.03148 0
M  V30 25512 H 2434.32 -3.81259 2.90135 0
M  V30 25513 H 2432.68 -2.08399 1.4643 0
M  V30 25514 H 2433.46 -1.5679 3.05404 0
M  V30 25515 N 2435.91 -1.12676 -1.1019 0
M  V30 25516 C 2437.15 -0.884947 -1.82473 0
M  V30 25517 C 2437.49 0.587698 -1.85094 0
M  V30 25518 O 2436.76 1.43455 -1.31343 0
M  V30 25519 C 2437.05 -1.46359 -3.29015 0
M  V30 25520 C 2436.9 -3.00479 -3.34713 0
M  V30 25521 C 2438.22 -1.12526 -4.25471 0
M  V30 25522 H 2435.34 -0.322926 -0.662486 0
M  V30 25523 H 2437.98 -1.39378 -1.29127 0
M  V30 25524 H 2436.13 -1.03084 -3.74574 0
M  V30 25525 H 2437.8 -3.52452 -2.97616 0
M  V30 25526 H 2436.04 -3.35877 -2.74535 0
M  V30 25527 H 2436.71 -3.36061 -4.37912 0
M  V30 25528 H 2439.19 -1.49907 -3.88159 0
M  V30 25529 H 2438.07 -1.55672 -5.26362 0
M  V30 25530 H 2438.33 -0.0378184 -4.42084 0
M  V30 25531 N 2437.39 1.28028 -0.919057 0
M  V30 25532 C 2438.66 1.89777 -0.473701 0
M  V30 25533 C 2439.04 1.83261 1.0478 0
M  V30 25534 O 2438.39 1.27206 1.89818 0
M  V30 25535 C 2438.6 3.34065 -1.01004 0
M  V30 25536 C 2439.95 4.11018 -1.06532 0
M  V30 25537 O 2440.97 3.43046 -0.959056 0
M  V30 25538 O 2439.83 5.32528 -1.22786 0
M  V30 25539 H 2436.93 0.813099 -0.150994 0
M  V30 25540 H 2439.47 1.36357 -1.01019 0
M  V30 25541 H 2438.24 3.33058 -2.05398 0
M  V30 25542 H 2437.87 3.94991 -0.454695 0
M  V30 25543 N 2438.86 0.683613 1.42002 0
M  V30 25544 C 2439.8 -0.0395519 2.28166 0
M  V30 25545 C 2440.78 -0.799918 1.41563 0
M  V30 25546 O 2441.96 -0.793218 1.70998 0
M  V30 25547 C 2439.09 -1.06329 3.21577 0
M  V30 25548 C 2438.13 -0.397488 4.24644 0
M  V30 25549 S 2438.97 0.851389 5.28689 0
M  V30 25550 C 2440.12 -0.171056 6.25666 0
M  V30 25551 H 2440.35 0.691279 2.89152 0
M  V30 25552 H 2437.89 0.473461 1.46962 0
M  V30 25553 H 2439.85 -1.64883 3.75931 0
M  V30 25554 H 2438.51 -1.76662 2.5971 0
M  V30 25555 H 2437.7 -1.17026 4.90225 0
M  V30 25556 H 2437.3 0.114677 3.73824 0
M  V30 25557 H 2439.59 -1.02807 6.69654 0
M  V30 25558 H 2440.54 0.450522 7.06665 0
M  V30 25559 H 2440.94 -0.520479 5.62095 0
M  V30 25560 N 2440.34 -1.5169 0.427538 0
M  V30 25561 C 2441.27 -2.30394 -0.379559 0
M  V30 25562 C 2442.25 -1.35385 -1.0298 0
M  V30 25563 O 2443.44 -1.64302 -1.03531 0
M  V30 25564 C 2440.57 -3.13883 -1.48644 0
M  V30 25565 C 2439.52 -4.1709 -0.960221 0
M  V30 25566 C 2438.85 -4.89037 -2.1621 0
M  V30 25567 C 2440.15 -5.223 -0.00144499 0
M  V30 25568 H 2441.84 -2.98114 0.277216 0
M  V30 25569 H 2439.39 -1.43368 0.134764 0
M  V30 25570 H 2441.34 -3.67718 -2.0582 0
M  V30 25571 H 2440.07 -2.43966 -2.17136 0
M  V30 25572 H 2438.73 -3.64292 -0.410742 0
M  V30 25573 H 2438.37 -4.15633 -2.83299 0
M  V30 25574 H 2438.07 -5.58819 -1.81644 0
M  V30 25575 H 2439.6 -5.45692 -2.73958 0
M  V30 25576 H 2441.01 -5.71265 -0.482586 0
M  V30 25577 H 2439.41 -5.99552 0.256305 0
M  V30 25578 H 2440.48 -4.75736 0.938258 0
M  V30 25579 N 2441.82 -0.15856 -1.568 0
M  V30 25580 C 2442.75 0.77257 -2.20349 0
M  V30 25581 C 2443.73 1.24857 -1.1552 0
M  V30 25582 O 2444.92 1.30404 -1.43905 0
M  V30 25583 C 2442.05 2.00724 -2.83421 0
M  V30 25584 C 2441 1.66758 -3.94177 0
M  V30 25585 C 2440.33 2.97584 -4.44238 0
M  V30 25586 C 2441.63 0.905357 -5.14393 0
M  V30 25587 H 2443.32 0.242906 -2.98413 0
M  V30 25588 H 2440.87 0.115393 -1.43537 0
M  V30 25589 H 2442.82 2.66354 -3.26548 0
M  V30 25590 H 2441.54 2.56082 -2.02705 0
M  V30 25591 H 2440.2 1.03502 -3.51686 0
M  V30 25592 H 2439.85 3.50957 -3.60331 0
M  V30 25593 H 2439.55 2.75617 -5.1895 0
M  V30 25594 H 2441.08 3.64266 -4.90044 0
M  V30 25595 H 2442.49 1.46398 -5.54293 0
M  V30 25596 H 2440.89 0.785195 -5.94941 0
M  V30 25597 H 2441.96 -0.100753 -4.84795 0
M  V30 25598 N 2443.3 1.57178 0.115204 0
M  V30 25599 C 2444.72 1.52558 0.46885 0
M  V30 25600 C 2444.92 0.872157 1.81647 0
M  V30 25601 O 2443.97 0.456104 2.48346 0
M  V30 25602 C 2445.28 2.97316 0.449848 0
M  V30 25603 C 2446.83 3.08426 0.533131 0
M  V30 25604 C 2447.31 4.54752 0.54448 0
M  V30 25605 N 2448.8 4.59221 0.605811 0
M  V30 25606 C 2449.53 5.69861 0.636102 0
M  V30 25607 N 2449.03 6.89986 0.62381 0
M  V30 25608 N 2450.82 5.57979 0.679398 0
M  V30 25609 H 2442.97 1.98039 -0.767746 0
M  V30 25610 H 2445.24 0.904578 -0.283625 0
M  V30 25611 H 2444.94 3.48508 -0.472783 0
M  V30 25612 H 2444.82 3.54953 1.27626 0
M  V30 25613 H 2447.2 2.57235 1.44618 0
M  V30 25614 H 2447.28 2.53777 -0.32104 0
M  V30 25615 H 2446.93 5.0659 -0.364541 0
M  V30 25616 H 2446.86 5.07217 1.41559 0
M  V30 25617 H 2449.35 3.72757 0.621321 0
M  V30 25618 H 2449.66 7.70065 0.649652 0
M  V30 25619 H 2448.01 6.92481 0.591175 0
M  V30 25620 H 2451.2 4.6304 0.686391 0
M  V30 25621 H 2451.37 6.44213 0.699537 0
M  V30 25622 N 2444.78 -0.38549 1.52813 0
M  V30 25623 C 2446 -1.1558 1.72209 0
M  V30 25624 C 2446.43 -1.82856 0.441066 0
M  V30 25625 O 2445.79 -1.70963 -0.603435 0
M  V30 25626 C 2445.83 -2.17687 2.8748 0
M  V30 25627 O 2444.94 -3.24349 2.54699 0
M  V30 25628 H 2444.28 -0.336309 0.572532 0
M  V30 25629 H 2446.81 -0.448709 1.99619 0
M  V30 25630 H 2446.82 -2.61624 3.13076 0
M  V30 25631 H 2445.49 -1.68108 3.80411 0
M  V30 25632 H 2444.07 -2.85524 2.39855 0
M  V30 25633 N 2446.26 -1.43835 -0.644143 0
M  V30 25634 C 2447.19 -1.44154 -1.76903 0
M  V30 25635 C 2448.17 -0.301886 -1.59773 0
M  V30 25636 O 2449.35 -0.496873 -1.81834 0
M  V30 25637 C 2446.48 -1.26179 -3.14319 0
M  V30 25638 C 2445.52 -2.43539 -3.5013 0
M  V30 25639 S 2446.36 -4.06085 -3.49078 0
M  V30 25640 C 2447.51 -3.9051 -4.89135 0
M  V30 25641 H 2447.75 -2.39339 -1.76364 0
M  V30 25642 H 2445.28 -1.30976 -0.817601 0
M  V30 25643 H 2447.24 -1.16496 -3.93623 0
M  V30 25644 H 2445.9 -0.325279 -3.12411 0
M  V30 25645 H 2445.09 -2.26791 -4.50091 0
M  V30 25646 H 2444.69 -2.49895 -2.7826 0
M  V30 25647 H 2446.98 -3.53395 -5.78029 0
M  V30 25648 H 2447.93 -4.90255 -5.10936 0
M  V30 25649 H 2448.34 -3.22803 -4.63097 0
M  V30 25650 N 2447.73 0.883355 -1.30517 0
M  V30 25651 C 2448.98 1.6353 -1.19433 0
M  V30 25652 C 2449.31 1.92879 0.250593 0
M  V30 25653 O 2448.56 1.54937 1.19553 0
M  V30 25654 C 2448.86 2.98205 -1.96999 0
M  V30 25655 C 2448.53 2.88402 -3.46605 0
M  V30 25656 C 2447.19 2.85435 -3.87402 0
M  V30 25657 C 2449.54 2.7641 -4.41867 0
M  V30 25658 C 2446.87 2.68318 -5.21749 0
M  V30 25659 C 2449.22 2.60831 -5.76324 0
M  V30 25660 C 2447.89 2.5624 -6.16358 0
M  V30 25661 H 2447.16 0.598398 -0.437036 0
M  V30 25662 H 2449.8 1.02693 -1.61637 0
M  V30 25663 H 2448.11 3.63002 -1.47435 0
M  V30 25664 H 2449.81 3.55351 -1.85814 0
M  V30 25665 H 2446.4 2.91521 -3.14187 0
M  V30 25666 H 2450.58 2.77767 -4.11289 0
M  V30 25667 H 2445.84 2.63179 -5.51857 0
M  V30 25668 H 2450.01 2.50527 -6.49776 0
M  V30 25669 H 2447.64 2.42735 -7.20405 0
M  V30 25670 N 2449.21 1.13259 1.09591 0
M  V30 25671 C 2450.46 0.894612 1.82001 0
M  V30 25672 C 2450.79 -0.577874 1.85403 0
M  V30 25673 O 2450.07 -1.42756 1.32102 0
M  V30 25674 C 2450.35 1.48102 3.28234 0
M  V30 25675 C 2450.2 3.02249 3.33115 0
M  V30 25676 C 2451.52 1.14781 4.24869 0
M  V30 25677 H 2448.64 0.326435 0.660764 0
M  V30 25678 H 2451.28 1.4006 1.28386 0
M  V30 25679 H 2449.43 1.05069 3.74022 0
M  V30 25680 H 2451.1 3.54026 2.95742 0
M  V30 25681 H 2449.35 3.37328 2.7275 0
M  V30 25682 H 2450.02 3.38378 4.36124 0
M  V30 25683 H 2452.49 1.51964 3.87358 0
M  V30 25684 H 2451.37 1.58462 5.25529 0
M  V30 25685 H 2451.63 0.0612626 4.42058 0
M  V30 25686 N 2450.69 -1.27539 0.925834 0
M  V30 25687 C 2451.92 -1.98559 0.581544 0
M  V30 25688 C 2452.33 -1.69084 -0.840011 0
M  V30 25689 O 2451.69 -0.950339 -1.55804 0
M  V30 25690 C 2451.74 -3.52635 0.795651 0
M  V30 25691 O 2451.46 -3.81078 2.16128 0
M  V30 25692 C 2452.96 -4.40909 0.459822 0
M  V30 25693 H 2450.18 -0.633718 0.22055 0
M  V30 25694 H 2452.73 -1.62438 1.24234 0
M  V30 25695 H 2450.88 -3.86974 0.181678 0
M  V30 25696 H 2451.3 -4.75672 2.20989 0
M  V30 25697 H 2452.77 -5.48036 0.66034 0
M  V30 25698 H 2453.25 -4.35019 -0.604548 0
M  V30 25699 H 2453.85 -4.12088 1.05185 0
M  V30 25700 N 2452.17 -0.691135 -1.41637 0
M  V30 25701 C 2453.58 -0.295549 -1.84346 0
M  V30 25702 C 2453.93 1.16544 -1.57835 0
M  V30 25703 O 2453.05 1.89412 -1.04652 0
M  V30 25704 C 2453.65 -0.529634 -3.34635 0
M  V30 25705 C 2452.21 -0.18801 -3.7593 0
M  V30 25706 C 2451.36 -0.814099 -2.65081 0
M  V30 25707 H 2454.31 -0.892115 -1.31252 0
M  V30 25708 H 2454.33 0.213082 -3.79903 0
M  V30 25709 H 2453.84 -1.59304 -3.53898 0
M  V30 25710 H 2451.94 0.871304 -3.62269 0
M  V30 25711 H 2452.05 -0.639933 -4.74807 0
M  V30 25712 H 2450.42 -0.244061 -2.53528 0
M  V30 25713 H 2451.2 -1.88128 -2.87163 0
M  V30 25714 N 2453.65 1.51461 -0.435577 0
M  V30 25715 C 2454.59 2.29287 0.391164 0
M  V30 25716 C 2455.59 1.35064 1.02245 0
M  V30 25717 O 2456.79 1.52413 0.957619 0
M  V30 25718 H 2453.17 0.737897 0.144955 0
M  V30 25719 H 2455.14 2.97025 -0.286103 0
M  V30 25720 C 2453.89 3.14586 1.48091 0
M  V30 25721 H 2453.21 3.86975 1.0045 0
M  V30 25722 H 2454.65 3.721 2.03267 0
M  V30 25723 C 2453.11 2.29847 2.46317 0
M  V30 25724 O 2453.64 1.95688 3.50812 0
M  V30 25725 N 2451.85 1.93103 2.17162 0
M  V30 25726 H 2451.39 2.21082 1.32215 0
M  V30 25727 H 2451.35 1.36703 2.83125 0
M  V30 25728 N 2455.12 0.166873 1.56714 0
M  V30 25729 C 2456.35 -0.485609 2.0112 0
M  V30 25730 C 2456.77 -1.57104 1.04708 0
M  V30 25731 O 2456.12 -1.82439 0.0472244 0
M  V30 25732 C 2456.18 -1.06802 3.45363 0
M  V30 25733 O 2455.9 -0.0259225 4.38092 0
M  V30 25734 C 2457.4 -1.79917 4.05148 0
M  V30 25735 H 2454.62 -0.124692 0.659312 0
M  V30 25736 H 2457.16 0.267298 2.02746 0
M  V30 25737 H 2455.32 -1.77144 3.44527 0
M  V30 25738 H 2455.73 -0.455306 5.2252 0
M  V30 25739 H 2457.2 -2.15933 5.08013 0
M  V30 25740 H 2457.68 -2.69252 3.46987 0
M  V30 25741 H 2458.29 -1.14226 4.09674 0
M  V30 25742 N 2456.6 -1.57237 -0.106866 0
M  V30 25743 C 2457.54 -1.96446 -1.16122 0
M  V30 25744 C 2458.51 -0.835895 -1.39469 0
M  V30 25745 O 2459.7 -1.09515 -1.53423 0
M  V30 25746 C 2456.82 -2.27112 -2.51273 0
M  V30 25747 C 2455.87 -3.49614 -2.44279 0
M  V30 25748 S 2456.7 -5.01762 -1.87069 0
M  V30 25749 C 2457.86 -5.35593 -3.23868 0
M  V30 25750 H 2458.09 -2.85568 -0.82692 0
M  V30 25751 H 2455.63 -1.51171 -0.314097 0
M  V30 25752 H 2457.58 -2.45457 -3.29031 0
M  V30 25753 H 2456.24 -1.38581 -2.81876 0
M  V30 25754 H 2455.44 -3.68475 -3.43863 0
M  V30 25755 H 2455.04 -3.30718 -1.74647 0
M  V30 25756 H 2457.33 -5.31518 -4.20113 0
M  V30 25757 H 2458.27 -6.36723 -3.09822 0
M  V30 25758 H 2458.68 -4.63059 -3.22856 0
M  V30 25759 N 2458.08 0.377381 -1.53015 0
M  V30 25760 C 2459.04 1.44441 -1.77959 0
M  V30 25761 C 2460.04 1.47086 -0.649789 0
M  V30 25762 O 2461.23 1.48053 -0.917923 0
M  V30 25763 C 2458.37 2.83648 -1.89094 0
M  V30 25764 H 2459.56 1.23602 -2.73245 0
M  V30 25765 H 2457.11 0.609819 -1.43913 0
M  V30 25766 H 2457.85 3.09816 -0.958347 0
M  V30 25767 H 2457.63 2.83128 -2.71258 0
M  V30 25768 H 2459.12 3.60942 -2.10026 0
M  V30 25769 N 2459.56 1.44175 0.636506 0
M  V30 25770 C 2460.78 1.50367 1.42844 0
M  V30 25771 C 2461.21 0.1279 1.87665 0
M  V30 25772 O 2460.57 -0.881823 1.5841 0
M  V30 25773 C 2460.61 2.46865 2.6285 0
M  V30 25774 O 2459.72 1.96646 3.62497 0
M  V30 25775 H 2459.06 0.507963 0.427633 0
M  V30 25776 H 2461.59 1.89256 0.777389 0
M  V30 25777 H 2461.6 2.64723 3.1046 0
M  V30 25778 H 2460.27 3.46799 2.29572 0
M  V30 25779 H 2458.85 1.88529 3.21732 0
M  V30 25780 N 2461.04 -0.876421 1.30983 0
M  V30 25781 C 2462.28 -1.63136 1.20477 0
M  V30 25782 C 2462.62 -1.92735 -0.238063 0
M  V30 25783 O 2461.89 -1.55437 -1.16917 0
M  V30 25784 C 2462.17 -2.96571 2.04249 0
M  V30 25785 C 2462.03 -2.7389 3.56797 0
M  V30 25786 C 2463.35 -3.97597 1.88691 0
M  V30 25787 H 2460.46 -0.591978 0.439012 0
M  V30 25788 H 2463.11 -1.01358 1.60706 0
M  V30 25789 H 2461.26 -3.49297 1.70069 0
M  V30 25790 H 2462.93 -2.27885 4.01081 0
M  V30 25791 H 2461.17 -2.08238 3.80551 0
M  V30 25792 H 2461.84 -3.68807 4.10713 0
M  V30 25793 H 2464.32 -3.54059 2.1859 0
M  V30 25794 H 2463.19 -4.88858 2.49619 0
M  V30 25795 H 2463.46 -4.33883 0.848419 0
M  V30 25796 N 2462.51 -1.13839 -1.08989 0
M  V30 25797 C 2463.74 -0.926618 -1.85549 0
M  V30 25798 C 2464.16 0.519534 -1.80783 0
M  V30 25799 O 2463.52 1.36903 -1.18858 0
M  V30 25800 C 2463.57 -1.42468 -3.31263 0
M  V30 25801 O 2462.67 -0.612861 -4.07821 0
M  V30 25802 H 2462.02 -0.331748 -0.575186 0
M  V30 25803 H 2464.55 -1.51416 -1.37602 0
M  V30 25804 H 2464.56 -1.43025 -3.8211 0
M  V30 25805 H 2463.23 -2.4776 -3.34048 0
M  V30 25806 H 2461.81 -0.675528 -3.6673 0
M  V30 25807 N 2463.99 1.27046 -0.932584 0
M  V30 25808 C 2465.22 1.98248 -0.592066 0
M  V30 25809 C 2465.64 1.69527 0.831032 0
M  V30 25810 O 2464.99 0.958589 1.55298 0
M  V30 25811 C 2465.04 3.52208 -0.814341 0
M  V30 25812 O 2464.76 3.79926 -2.18146 0
M  V30 25813 C 2466.27 4.40659 -0.483198 0
M  V30 25814 H 2463.49 0.63254 -0.223907 0
M  V30 25815 H 2466.03 1.61777 -1.25094 0
M  V30 25816 H 2464.18 3.86872 -0.202198 0
M  V30 25817 H 2464.6 4.74494 -2.23508 0
M  V30 25818 H 2466.07 5.47678 -0.689394 0
M  V30 25819 H 2466.55 4.35334 0.58147 0
M  V30 25820 H 2467.16 4.11524 -1.07369 0
M  V30 25821 N 2465.47 0.698636 1.41269 0
M  V30 25822 C 2466.72 0.231243 2.01477 0
M  V30 25823 C 2467.05 -1.1671 1.55217 0
M  V30 25824 O 2466.32 -1.78837 0.764703 0
M  V30 25825 C 2466.61 0.292344 3.58911 0
M  V30 25826 C 2466.46 1.72785 4.15289 0
M  V30 25827 C 2467.78 -0.346117 4.38737 0
M  V30 25828 H 2464.9 0.0855006 0.732024 0
M  V30 25829 H 2467.54 0.887936 1.67975 0
M  V30 25830 H 2465.69 -0.266792 3.87583 0
M  V30 25831 H 2467.36 2.34107 3.97482 0
M  V30 25832 H 2465.61 2.26103 3.70216 0
M  V30 25833 H 2466.28 1.72211 5.24449 0
M  V30 25834 H 2468.75 0.130108 4.15897 0
M  V30 25835 H 2467.63 -0.272836 5.48222 0
M  V30 25836 H 2467.89 -1.42727 4.18427 0
M  V30 25837 N 2466.95 -1.51228 0.443603 0
M  V30 25838 C 2467.88 -2.25673 -0.400568 0
M  V30 25839 C 2468.89 -1.2993 -0.980922 0
M  V30 25840 O 2470.08 -1.55639 -0.873997 0
M  V30 25841 C 2467.18 -3.00184 -1.57299 0
M  V30 25842 C 2466.36 -4.23071 -1.11039 0
M  V30 25843 C 2465.41 -4.80108 -2.15366 0
M  V30 25844 O 2464.44 -5.41778 -1.74544 0
M  V30 25845 N 2465.64 -4.64689 -3.47914 0
M  V30 25846 H 2468.41 -2.98757 0.237502 0
M  V30 25847 H 2465.97 -1.59584 0.272837 0
M  V30 25848 H 2467.96 -3.35227 -2.26727 0
M  V30 25849 H 2466.53 -2.3007 -2.11628 0
M  V30 25850 H 2465.75 -3.93451 -0.24295 0
M  V30 25851 H 2467.04 -5.02804 -0.7788 0
M  V30 25852 H 2466.44 -4.15582 -3.83807 0
M  V30 25853 H 2464.99 -5.04077 -4.13219 0
M  V30 25854 N 2468.43 -0.175182 -1.56623 0
M  V30 25855 C 2469.36 0.749156 -2.21156 0
M  V30 25856 C 2470.34 1.23624 -1.16838 0
M  V30 25857 O 2471.52 1.2887 -1.4528 0
M  V30 25858 C 2468.65 1.97706 -2.85534 0
M  V30 25859 C 2467.61 1.62568 -3.95924 0
M  V30 25860 C 2466.93 2.92856 -4.4737 0
M  V30 25861 C 2468.23 0.850747 -5.15325 0
M  V30 25862 H 2469.93 0.211242 -2.98654 0
M  V30 25863 H 2467.47 0.100163 -1.43651 0
M  V30 25864 H 2469.43 2.62875 -3.29355 0
M  V30 25865 H 2468.15 2.53918 -2.0541 0
M  V30 25866 H 2466.81 0.997657 -3.52764 0
M  V30 25867 H 2466.46 3.47115 -3.64033 0
M  V30 25868 H 2466.16 2.70097 -5.21844 0
M  V30 25869 H 2467.68 3.59048 -4.9388 0
M  V30 25870 H 2469.09 1.40511 -5.55814 0
M  V30 25871 H 2467.49 0.72205 -5.9574 0
M  V30 25872 H 2468.56 -0.152167 -4.84661 0
M  V30 25873 N 2469.91 1.57292 0.0985263 0
M  V30 25874 C 2471.15 1.87061 0.798737 0
M  V30 25875 C 2471.51 0.765581 1.76512 0
M  V30 25876 O 2470.8 -0.232718 1.90181 0
M  V30 25877 C 2470.99 3.21108 1.56922 0
M  V30 25878 C 2470.82 4.44545 0.678948 0
M  V30 25879 C 2469.59 5.04247 0.325982 0
M  V30 25880 C 2471.79 5.14298 -0.0125619 0
M  V30 25881 N 2469.77 6.11222 -0.572809 0
M  V30 25882 C 2471.14 6.15206 -0.769554 0
M  V30 25883 C 2473.2 4.97824 -0.086842 0
M  V30 25884 C 2471.9 7.01418 -1.59388 0
M  V30 25885 C 2473.93 5.84542 -0.898057 0
M  V30 25886 C 2473.29 6.84966 -1.64318 0
M  V30 25887 H 2469.39 0.73444 0.268556 0
M  V30 25888 H 2471.97 1.94603 0.0614322 0
M  V30 25889 H 2470.14 3.14624 2.27742 0
M  V30 25890 H 2471.88 3.38615 2.21635 0
M  V30 25891 H 2468.63 4.68796 0.672868 0
M  V30 25892 H 2469.05 6.69353 -1.01466 0
M  V30 25893 H 2473.7 4.20125 0.474889 0
M  V30 25894 H 2471.41 7.78512 -2.16669 0
M  V30 25895 H 2475 5.73856 -0.95816 0
M  V30 25896 H 2473.88 7.50905 -2.26079 0
M  V30 25897 N 2471.38 -0.369261 1.53213 0
M  V30 25898 C 2472.63 -1.10958 1.68438 0
M  V30 25899 C 2472.95 -1.90569 0.440771 0
M  V30 25900 O 2474.15 -2.67339 0.473493 0
M  V30 25901 C 2472.61 -2.02174 2.97747 0
M  V30 25902 C 2472.22 -1.27892 4.29357 0
M  V30 25903 C 2473.96 -2.76221 3.22339 0
M  V30 25904 C 2471.87 -2.17989 5.49759 0
M  V30 25905 H 2470.8 -0.417929 0.627576 0
M  V30 25906 H 2473.45 -0.370853 1.79713 0
M  V30 25907 H 2471.83 -2.79763 2.80265 0
M  V30 25908 H 2473 -0.553926 4.57459 0
M  V30 25909 H 2471.32 -0.657239 4.1118 0
M  V30 25910 H 2473.92 -3.4385 4.09477 0
M  V30 25911 H 2474.26 -3.41387 2.38244 0
M  V30 25912 H 2474.79 -2.05717 3.40478 0
M  V30 25913 H 2471.53 -1.57406 6.3632 0
M  V30 25914 H 2471.05 -2.88349 5.25942 0
M  V30 25915 H 2472.73 -2.77631 5.84406 0
M  V30 25916 N 2472.86 -1.4451 -0.628851 0
M  V30 25917 C 2474.09 -1.51122 -1.42045 0
M  V30 25918 C 2474.51 -0.13785 -1.87594 0
M  V30 25919 O 2473.87 0.873409 -1.58875 0
M  V30 25920 C 2473.92 -2.48256 -2.61537 0
M  V30 25921 O 2473.02 -1.98566 -3.61449 0
M  V30 25922 H 2472.36 -0.510224 -0.424933 0
M  V30 25923 H 2474.89 -1.89666 -0.767341 0
M  V30 25924 H 2474.9 -2.66366 -3.09052 0
M  V30 25925 H 2473.58 -3.48011 -2.2773 0
M  V30 25926 H 2472.15 -1.90232 -3.20727 0
M  V30 25927 N 2474.34 0.869463 -1.31446 0
M  V30 25928 C 2475.59 1.61933 -1.20921 0
M  V30 25929 C 2475.91 1.93607 0.232649 0
M  V30 25930 O 2475.18 1.5834 1.15349 0
M  V30 25931 H 2473.76 0.60032 -0.44455 0
M  V30 25932 H 2476.42 1.04087 -1.64778 0
M  V30 25933 H 2475.52 2.56275 -1.78128 0
M  V30 25934 N 2475.82 1.14415 1.08383 0
M  V30 25935 C 2477.07 0.907107 1.80151 0
M  V30 25936 C 2477.38 -0.567818 1.87177 0
M  V30 25937 O 2478.59 -0.922127 2.55361 0
M  V30 25938 C 2477.04 1.57342 3.23684 0
M  V30 25939 C 2476.65 3.08463 3.24892 0
M  V30 25940 C 2478.39 1.41751 4.00134 0
M  V30 25941 C 2476.3 3.67929 4.63014 0
M  V30 25942 H 2475.23 0.335726 0.675133 0
M  V30 25943 H 2477.88 1.37309 1.21731 0
M  V30 25944 H 2476.26 1.03511 3.82232 0
M  V30 25945 H 2477.44 3.68963 2.76049 0
M  V30 25946 H 2475.75 3.23694 2.61937 0
M  V30 25947 H 2478.35 1.83581 5.02197 0
M  V30 25948 H 2478.69 0.363649 4.14709 0
M  V30 25949 H 2479.23 1.9262 3.48055 0
M  V30 25950 H 2475.96 4.73169 4.53642 0
M  V30 25951 H 2475.48 3.1221 5.12138 0
M  V30 25952 H 2477.16 3.68236 5.31988 0
M  V30 25953 N 2477.3 -1.26549 0.939309 0
M  V30 25954 C 2478.23 -2.28821 0.465084 0
M  V30 25955 C 2479.21 -1.63168 -0.480663 0
M  V30 25956 O 2480.39 -1.90387 -0.382921 0
M  V30 25957 C 2477.52 -3.46231 -0.27228 0
M  V30 25958 C 2476.48 -4.23959 0.586734 0
M  V30 25959 C 2475.8 -5.33964 -0.280479 0
M  V30 25960 C 2477.1 -4.88168 1.85713 0
M  V30 25961 H 2478.8 -2.68739 1.31984 0
M  V30 25962 H 2476.34 -1.2919 0.636084 0
M  V30 25963 H 2478.29 -4.16887 -0.61506 0
M  V30 25964 H 2477.02 -3.05262 -1.16116 0
M  V30 25965 H 2475.68 -3.55065 0.912383 0
M  V30 25966 H 2475.33 -4.89236 -1.16865 0
M  V30 25967 H 2475.03 -5.8688 0.290863 0
M  V30 25968 H 2476.55 -6.07459 -0.618571 0
M  V30 25969 H 2477.96 -5.51049 1.5817 0
M  V30 25970 H 2476.36 -5.51193 2.37289 0
M  V30 25971 H 2477.43 -4.11215 2.56964 0
M  V30 25972 N 2478.77 -0.706118 -1.40896 0
M  V30 25973 C 2479.74 -0.0563244 -2.29131 0
M  V30 25974 C 2480.74 0.697141 -1.44902 0
M  V30 25975 O 2481.93 0.530455 -1.65927 0
M  V30 25976 C 2479.06 0.930372 -3.27959 0
M  V30 25977 H 2480.25 -0.833334 -2.88089 0
M  V30 25978 H 2477.8 -0.470218 -1.49059 0
M  V30 25979 H 2478.54 1.73477 -2.74 0
M  V30 25980 H 2478.32 0.393098 -3.90125 0
M  V30 25981 H 2479.81 1.38249 -3.94052 0
M  V30 25982 N 2480.25 1.50991 -0.451617 0
M  V30 25983 C 2481.5 2.01391 0.111618 0
M  V30 25984 C 2481.81 1.33961 1.42526 0
M  V30 25985 O 2483.02 1.75409 2.07229 0
M  V30 25986 C 2481.48 3.59034 0.249451 0
M  V30 25987 C 2481.08 4.3541 -1.05461 0
M  V30 25988 C 2482.83 4.17537 0.765688 0
M  V30 25989 C 2480.73 5.84792 -0.881632 0
M  V30 25990 H 2479.66 0.752627 0.045489 0
M  V30 25991 H 2482.32 1.73974 -0.583554 0
M  V30 25992 H 2480.7 3.82957 1.00796 0
M  V30 25993 H 2481.87 4.23225 -1.82255 0
M  V30 25994 H 2480.19 3.88427 -1.50046 0
M  V30 25995 H 2482.78 5.26868 0.91182 0
M  V30 25996 H 2483.13 3.77641 1.75194 0
M  V30 25997 H 2483.66 3.97747 0.0651044 0
M  V30 25998 H 2480.4 6.29126 -1.84068 0
M  V30 25999 H 2479.92 5.99603 -0.153731 0
M  V30 26000 H 2481.6 6.44739 -0.540476 0
M  V30 26001 N 2481.73 0.183486 1.56528 0
M  V30 26002 C 2482.66 -0.737417 2.2155 0
M  V30 26003 C 2483.64 -1.23003 1.17492 0
M  V30 26004 O 2484.83 -1.28098 1.45961 0
M  V30 26005 C 2481.96 -1.96189 2.86578 0
M  V30 26006 C 2480.91 -1.60466 3.9678 0
M  V30 26007 C 2480.24 -2.90479 4.48917 0
M  V30 26008 C 2481.54 -0.823406 5.15769 0
M  V30 26009 H 2483.23 -0.195401 2.98762 0
M  V30 26010 H 2480.78 -0.0925433 1.43702 0
M  V30 26011 H 2482.73 -2.61125 3.30744 0
M  V30 26012 H 2481.45 -2.52825 2.06754 0
M  V30 26013 H 2480.11 -0.978935 3.53288 0
M  V30 26014 H 2479.76 -3.4518 3.65869 0
M  V30 26015 H 2479.46 -2.67326 5.23269 0
M  V30 26016 H 2480.98 -3.56423 4.95777 0
M  V30 26017 H 2482.4 -1.37561 5.56552 0
M  V30 26018 H 2480.79 -0.690446 5.96115 0
M  V30 26019 H 2481.86 0.177867 4.84574 0
M  V30 26020 N 2483.21 -1.57342 -0.0901833 0
M  V30 26021 C 2484.62 -1.53285 -0.44452 0
M  V30 26022 C 2484.82 -0.900945 -1.80237 0
M  V30 26023 O 2483.88 -0.495556 -2.47589 0
M  V30 26024 C 2485.19 -2.97994 -0.402491 0
M  V30 26025 C 2486.74 -3.09235 -0.483996 0
M  V30 26026 C 2487.22 -4.55561 -0.472064 0
M  V30 26027 N 2488.71 -4.60127 -0.532676 0
M  V30 26028 C 2489.44 -5.70801 -0.545362 0
M  V30 26029 N 2488.94 -6.90891 -0.51396 0
M  V30 26030 N 2490.73 -5.58989 -0.590542 0
M  V30 26031 H 2482.88 -1.96792 0.799156 0
M  V30 26032 H 2485.14 -0.899951 0.29798 0
M  V30 26033 H 2484.85 -3.47711 0.528167 0
M  V30 26034 H 2484.72 -3.56938 -1.21963 0
M  V30 26035 H 2487.11 -2.59503 -1.40507 0
M  V30 26036 H 2487.19 -2.53235 0.361373 0
M  V30 26037 H 2486.84 -5.05946 0.445089 0
M  V30 26038 H 2486.77 -5.09404 -1.33471 0
M  V30 26039 H 2489.26 -3.73699 -0.56194 0
M  V30 26040 H 2489.57 -7.71001 -0.527059 0
M  V30 26041 H 2487.92 -6.93334 -0.480932 0
M  V30 26042 H 2491.11 -4.64074 -0.612638 0
M  V30 26043 H 2491.28 -6.45244 -0.59696 0
M  V30 26044 N 2484.69 0.36113 -1.53407 0
M  V30 26045 C 2485.93 1.10493 -1.70056 0
M  V30 26046 C 2486.27 1.88835 -0.453311 0
M  V30 26047 O 2485.54 1.86577 0.549467 0
M  V30 26048 C 2485.82 2.06053 -2.95321 0
M  V30 26049 C 2485.68 1.3129 -4.30213 0
M  V30 26050 C 2487 3.06116 -3.16198 0
M  V30 26051 H 2484.11 0.40031 -0.618806 0
M  V30 26052 H 2486.76 0.385285 -1.86053 0
M  V30 26053 H 2484.91 2.6742 -2.81813 0
M  V30 26054 H 2486.58 0.726727 -4.5554 0
M  V30 26055 H 2484.82 0.614778 -4.29422 0
M  V30 26056 H 2485.49 2.01256 -5.14004 0
M  V30 26057 H 2487.97 2.54854 -3.2892 0
M  V30 26058 H 2486.84 3.70197 -4.05272 0
M  V30 26059 H 2487.11 3.76531 -2.31682 0
M  V30 26060 N 2486.16 1.44842 0.621179 0
M  V30 26061 C 2487.09 1.55306 1.74363 0
M  V30 26062 C 2488.08 0.405414 1.65198 0
M  V30 26063 O 2489.26 0.62682 1.83806 0
M  V30 26064 C 2486.39 1.50643 3.12928 0
M  V30 26065 C 2485.34 2.63985 3.36892 0
M  V30 26066 C 2484.67 2.44375 4.75589 0
M  V30 26067 C 2485.97 4.0608 3.28476 0
M  V30 26068 H 2487.66 2.49259 1.65863 0
M  V30 26069 H 2485.21 1.19964 0.796537 0
M  V30 26070 H 2487.16 1.56562 3.91237 0
M  V30 26071 H 2485.89 0.532114 3.22236 0
M  V30 26072 H 2484.55 2.57471 2.60967 0
M  V30 26073 H 2484.19 1.45113 4.81613 0
M  V30 26074 H 2483.89 3.20373 4.9258 0
M  V30 26075 H 2485.42 2.52127 5.56115 0
M  V30 26076 H 2486.83 4.13909 3.96676 0
M  V30 26077 H 2485.23 4.8236 3.57 0
M  V30 26078 H 2486.3 4.28947 2.26125 0
M  V30 26079 N 2487.64 -0.862479 1.31905 0
M  V30 26080 C 2488.89 -1.61092 1.21376 0
M  V30 26081 C 2489.2 -1.94302 -0.225006 0
M  V30 26082 O 2490.41 -2.6771 -0.452074 0
M  V30 26083 C 2488.87 -2.90446 2.1253 0
M  V30 26084 C 2488.47 -2.64691 3.61445 0
M  V30 26085 C 2490.22 -3.6845 2.10819 0
M  V30 26086 C 2488.13 -3.89998 4.44585 0
M  V30 26087 H 2487.06 -0.60446 0.450715 0
M  V30 26088 H 2489.71 -0.953 1.56813 0
M  V30 26089 H 2488.09 -3.57653 1.7 0
M  V30 26090 H 2489.26 -2.05844 4.12268 0
M  V30 26091 H 2487.58 -2.00029 3.65209 0
M  V30 26092 H 2490.17 -4.61421 2.70175 0
M  V30 26093 H 2490.52 -4.01581 1.0972 0
M  V30 26094 H 2491.05 -3.08137 2.51588 0
M  V30 26095 H 2487.79 -3.62013 5.46467 0
M  V30 26096 H 2487.31 -4.48269 3.98516 0
M  V30 26097 H 2488.99 -4.57812 4.57184 0
M  V30 26098 N 2489.12 -1.14988 -1.07775 0
M  V30 26099 C 2490.35 -0.946246 -1.84556 0
M  V30 26100 C 2490.77 0.50033 -1.81324 0
M  V30 26101 O 2490.13 1.35635 -1.20303 0
M  V30 26102 C 2490.18 -1.45973 -3.29733 0
M  V30 26103 O 2489.28 -0.656081 -4.07148 0
M  V30 26104 H 2488.62 -0.33783 -0.571635 0
M  V30 26105 H 2491.15 -1.52867 -1.35988 0
M  V30 26106 H 2491.16 -1.4707 -3.80571 0
M  V30 26107 H 2489.84 -2.51289 -3.31401 0
M  V30 26108 H 2488.41 -0.714386 -3.65993 0
M  V30 26109 N 2490.6 1.26049 -0.946007 0
M  V30 26110 C 2491.53 2.2538 -0.416702 0
M  V30 26111 C 2492.54 1.56087 0.462684 0
M  V30 26112 O 2493.73 1.7641 0.272352 0
M  V30 26113 C 2490.83 3.3629 0.419753 0
M  V30 26114 C 2490.01 4.35134 -0.444608 0
M  V30 26115 C 2489.06 5.2515 0.332212 0
M  V30 26116 O 2488.09 5.68576 -0.266423 0
M  V30 26117 N 2489.29 5.57218 1.62753 0
M  V30 26118 H 2492.06 2.71431 -1.27064 0
M  V30 26119 H 2489.62 1.39866 -0.815417 0
M  V30 26120 H 2491.61 3.93465 0.946944 0
M  V30 26121 H 2490.18 2.89696 1.17451 0
M  V30 26122 H 2489.4 3.76962 -1.15297 0
M  V30 26123 H 2490.69 4.98164 -1.03487 0
M  V30 26124 H 2490.09 5.23826 2.13594 0
M  V30 26125 H 2488.64 6.17015 2.10086 0
M  V30 26126 N 2492.08 0.71358 1.4052 0
M  V30 26127 C 2493.3 0.260386 2.05759 0
M  V30 26128 C 2493.73 -1.08851 1.53405 0
M  V30 26129 O 2493.08 -1.68523 0.668565 0
M  V30 26130 C 2493.13 0.248185 3.59745 0
M  V30 26131 O 2492.24 -0.771239 4.05124 0
M  V30 26132 H 2491.58 0.122715 0.652562 0
M  V30 26133 H 2494.11 0.973499 1.79956 0
M  V30 26134 H 2494.12 0.0851846 4.07911 0
M  V30 26135 H 2492.79 1.23256 3.97216 0
M  V30 26136 H 2491.37 -0.576125 3.68423 0
M  V30 26137 N 2493.55 -1.50749 0.459618 0
M  V30 26138 C 2494.78 -2.06671 -0.0973386 0
M  V30 26139 C 2495.2 -1.32475 -1.34521 0
M  V30 26140 O 2494.55 -0.390665 -1.7827 0
M  V30 26141 C 2494.61 -3.59313 -0.397077 0
M  V30 26142 O 2494.33 -4.3071 0.801289 0
M  V30 26143 C 2495.83 -4.31821 -1.00226 0
M  V30 26144 H 2493.05 -0.670997 0.00197033 0
M  V30 26145 H 2495.59 -1.94058 0.645106 0
M  V30 26146 H 2493.75 -3.71766 -1.08944 0
M  V30 26147 H 2494.16 -5.21724 0.538949 0
M  V30 26148 H 2495.63 -5.39634 -1.16184 0
M  V30 26149 H 2496.11 -3.91564 -1.98933 0
M  V30 26150 H 2496.72 -4.23869 -0.348625 0
M  V30 26151 N 2495.03 -0.191784 -1.56429 0
M  V30 26152 C 2495.94 0.742442 -2.22542 0
M  V30 26153 C 2496.96 1.23725 -1.22345 0
M  V30 26154 O 2498.13 1.2851 -1.55071 0
M  V30 26155 C 2495.2 1.94617 -2.86923 0
M  V30 26156 C 2494.26 1.49626 -4.02381 0
M  V30 26157 C 2493.49 2.64261 -4.63683 0
M  V30 26158 O 2493.72 3.81659 -4.23902 0
M  V30 26159 O 2492.65 2.37164 -5.53206 0
M  V30 26160 H 2496.48 0.209409 -3.02977 0
M  V30 26161 H 2494.06 0.037357 -1.49353 0
M  V30 26162 H 2495.94 2.64976 -3.27667 0
M  V30 26163 H 2494.62 2.46787 -2.0947 0
M  V30 26164 H 2493.53 0.761571 -3.66266 0
M  V30 26165 H 2494.86 1.02126 -4.81488 0
M  V30 26166 N 2496.51 1.57387 0.0818378 0
M  V30 26167 C 2497.79 1.77798 0.815312 0
M  V30 26168 C 2498.17 0.776825 1.96287 0
M  V30 26169 O 2497.52 -0.192066 2.27691 0
M  V30 26170 C 2497.73 3.23981 1.29759 0
M  V30 26171 C 2499.07 3.87533 1.73504 0
M  V30 26172 O 2500.1 3.27811 1.39351 0
M  V30 26173 O 2498.96 4.9258 2.367 0
M  V30 26174 H 2496.05 0.729319 0.389901 0
M  V30 26175 H 2498.6 1.69584 0.0626915 0
M  V30 26176 H 2497.37 3.88394 0.476012 0
M  V30 26177 H 2496.99 3.36879 2.11183 0
M  V30 26178 N 2497.99 -0.35299 1.53596 0
M  V30 26179 C 2499.24 -1.09165 1.69605 0
M  V30 26180 C 2499.55 -1.90091 0.460959 0
M  V30 26181 O 2500.76 -2.66822 0.501821 0
M  V30 26182 C 2499.21 -1.99005 2.99875 0
M  V30 26183 C 2498.82 -1.23331 4.30689 0
M  V30 26184 C 2500.56 -2.72786 3.25251 0
M  V30 26185 C 2498.47 -2.12146 5.5204 0
M  V30 26186 H 2497.4 -0.41125 0.631973 0
M  V30 26187 H 2500.05 -0.351771 1.80097 0
M  V30 26188 H 2498.43 -2.76775 2.83217 0
M  V30 26189 H 2499.61 -0.505376 4.5802 0
M  V30 26190 H 2497.92 -0.613591 4.11854 0
M  V30 26191 H 2500.52 -3.39487 4.13101 0
M  V30 26192 H 2500.86 -3.38841 2.41852 0
M  V30 26193 H 2501.4 -2.02094 3.42641 0
M  V30 26194 H 2498.14 -1.50648 6.37954 0
M  V30 26195 H 2497.66 -2.82755 5.28971 0
M  V30 26196 H 2499.33 -2.71417 5.87318 0
M  V30 26197 N 2499.47 -1.45169 -0.613489 0
M  V30 26198 C 2500.71 -1.49098 -1.37469 0
M  V30 26199 C 2501.05 -0.129935 -1.93765 0
M  V30 26200 O 2500.32 0.854827 -1.74708 0
M  V30 26201 C 2500.6 -2.56547 -2.52697 0
M  V30 26202 C 2500.46 -4.02074 -2.01636 0
M  V30 26203 C 2501.78 -2.60333 -3.54844 0
M  V30 26204 H 2498.9 -0.542839 -0.498493 0
M  V30 26205 H 2501.54 -1.76946 -0.692094 0
M  V30 26206 H 2499.69 -2.32931 -3.10927 0
M  V30 26207 H 2501.36 -4.3688 -1.481 0
M  V30 26208 H 2499.6 -4.13011 -1.32681 0
M  V30 26209 H 2500.27 -4.72933 -2.84673 0
M  V30 26210 H 2502.75 -2.81479 -3.06445 0
M  V30 26211 H 2501.63 -3.37388 -4.32967 0
M  V30 26212 H 2501.89 -1.65198 -4.10076 0
M  V30 26213 N 2500.95 0.855472 -1.32361 0
M  V30 26214 C 2501.88 1.97956 -1.23837 0
M  V30 26215 C 2502.86 1.69659 -0.122391 0
M  V30 26216 O 2504.04 1.91719 -0.309424 0
M  V30 26217 C 2501.17 3.33773 -0.959831 0
M  V30 26218 C 2500.13 3.7642 -2.03695 0
M  V30 26219 C 2499.45 5.09859 -1.61084 0
M  V30 26220 C 2500.75 3.91974 -3.45187 0
M  V30 26221 H 2502.45 2.05346 -2.17884 0
M  V30 26222 H 2499.99 0.986587 -1.04893 0
M  V30 26223 H 2501.94 4.11964 -0.88675 0
M  V30 26224 H 2500.67 3.26596 0.016283 0
M  V30 26225 H 2499.33 3.0048 -2.10018 0
M  V30 26226 H 2498.98 4.99137 -0.622195 0
M  V30 26227 H 2498.68 5.39364 -2.33152 0
M  V30 26228 H 2500.2 5.90544 -1.55211 0
M  V30 26229 H 2501.61 4.6052 -3.41458 0
M  V30 26230 H 2500.01 4.32896 -4.15598 0
M  V30 26231 H 2501.08 2.94913 -3.84908 0
M  V30 26232 N 2502.42 1.15558 1.07164 0
M  V30 26233 C 2503.65 0.95602 1.84052 0
M  V30 26234 C 2504.07 -0.490707 1.81587 0
M  V30 26235 O 2503.43 -1.34995 1.21021 0
M  V30 26236 C 2503.48 1.4772 3.28955 0
M  V30 26237 O 2502.58 0.677664 4.06794 0
M  V30 26238 H 2501.92 0.340857 0.569836 0
M  V30 26239 H 2504.45 1.53586 1.35175 0
M  V30 26240 H 2504.46 1.49086 3.79786 0
M  V30 26241 H 2503.14 2.53043 3.30064 0
M  V30 26242 H 2501.72 0.733786 3.65609 0
M  V30 26243 N 2503.9 -1.25546 0.952678 0
M  V30 26244 C 2505.32 -1.45459 0.656794 0
M  V30 26245 C 2505.52 -1.85525 -0.786298 0
M  V30 26246 O 2504.57 -1.98404 -1.56179 0
M  V30 26247 C 2505.89 -2.52814 1.62805 0
M  V30 26248 C 2507.43 -2.66656 1.63902 0
M  V30 26249 C 2507.91 -3.77193 2.59787 0
M  V30 26250 N 2509.4 -3.84601 2.5814 0
M  V30 26251 C 2510.14 -4.69616 3.29012 0
M  V30 26252 N 2509.63 -5.58932 4.09349 0
M  V30 26253 N 2511.42 -4.63563 3.17908 0
M  V30 26254 H 2503.58 -0.978311 1.88528 0
M  V30 26255 H 2505.84 -0.491192 0.810823 0
M  V30 26256 H 2505.54 -2.30227 2.65873 0
M  V30 26257 H 2505.42 -3.50693 1.38904 0
M  V30 26258 H 2507.81 -2.88609 0.615532 0
M  V30 26259 H 2507.89 -1.69183 1.91861 0
M  V30 26260 H 2507.53 -3.55991 3.62261 0
M  V30 26261 H 2507.46 -4.74146 2.29113 0
M  V30 26262 H 2509.95 -3.20753 1.99815 0
M  V30 26263 H 2510.26 -6.20723 4.60351 0
M  V30 26264 H 2508.61 -5.58647 4.13448 0
M  V30 26265 H 2511.8 -3.92794 2.54619 0
M  V30 26266 H 2511.97 -5.29595 3.73407 0
M  V30 26267 N 2505.38 -0.721022 -1.40139 0
M  V30 26268 C 2506.63 -0.259839 -2.00019 0
M  V30 26269 C 2506.94 1.15524 -1.57841 0
M  V30 26270 O 2508.15 1.71522 -2.10458 0
M  V30 26271 C 2506.6 -0.413629 -3.57515 0
M  V30 26272 C 2506.21 -1.83569 -4.08664 0
M  V30 26273 C 2507.96 -0.0135133 -4.24498 0
M  V30 26274 C 2505.86 -1.93978 -5.58683 0
M  V30 26275 H 2504.79 -0.0933938 -0.748194 0
M  V30 26276 H 2507.44 -0.892894 -1.60311 0
M  V30 26277 H 2505.83 0.288099 -3.94951 0
M  V30 26278 H 2507 -2.56824 -3.82594 0
M  V30 26279 H 2505.31 -2.18776 -3.54297 0
M  V30 26280 H 2507.91 -0.0704894 -5.34654 0
M  V30 26281 H 2508.25 1.0292 -4.03377 0
M  V30 26282 H 2508.79 -0.665884 -3.92187 0
M  V30 26283 H 2505.53 -2.9639 -5.84665 0
M  V30 26284 H 2505.05 -1.25142 -5.866 0
M  V30 26285 H 2506.73 -1.71442 -6.23872 0
M  V30 26286 N 2506.86 1.50503 -0.467606 0
M  V30 26287 C 2507.79 2.26281 0.364615 0
M  V30 26288 C 2508.8 1.31474 0.960128 0
M  V30 26289 O 2509.99 1.5701 0.849126 0
M  V30 26290 C 2507.09 3.02648 1.52503 0
M  V30 26291 C 2506.26 4.24784 1.04294 0
M  V30 26292 C 2505.32 4.83474 2.077 0
M  V30 26293 O 2504.35 5.44486 1.65903 0
M  V30 26294 N 2505.55 4.70165 3.40477 0
M  V30 26295 H 2508.32 2.98342 -0.285002 0
M  V30 26296 H 2505.88 1.5913 -0.298191 0
M  V30 26297 H 2507.87 3.38791 2.21365 0
M  V30 26298 H 2506.44 2.33408 2.07941 0
M  V30 26299 H 2505.66 3.93787 0.180324 0
M  V30 26300 H 2506.95 5.0398 0.69871 0
M  V30 26301 H 2506.35 4.21636 3.77147 0
M  V30 26302 H 2504.9 5.10587 4.05147 0
M  V30 26303 N 2508.34 0.200077 1.56325 0
M  V30 26304 C 2509.25 -0.730629 2.22933 0
M  V30 26305 C 2510.26 -1.23074 1.22999 0
M  V30 26306 O 2511.44 -1.27686 1.55751 0
M  V30 26307 C 2508.5 -1.93093 2.87951 0
M  V30 26308 C 2507.56 -1.4749 4.03169 0
M  V30 26309 C 2506.8 -2.61799 4.65078 0
M  V30 26310 O 2507.02 -3.79406 4.2592 0
M  V30 26311 O 2505.95 -2.34227 5.54456 0
M  V30 26312 H 2509.78 -0.193338 3.03084 0
M  V30 26313 H 2507.36 -0.0294359 1.49371 0
M  V30 26314 H 2509.25 -2.63234 3.29068 0
M  V30 26315 H 2507.92 -2.45673 2.10776 0
M  V30 26316 H 2506.83 -0.742137 3.66665 0
M  V30 26317 H 2508.16 -0.995711 4.82023 0
M  V30 26318 N 2509.81 -1.57429 -0.0734901 0
M  V30 26319 C 2510.74 -2.0661 -1.08787 0
M  V30 26320 C 2511.72 -0.959261 -1.40471 0
M  V30 26321 O 2512.91 -1.23188 -1.50128 0
M  V30 26322 C 2510.04 -2.50861 -2.40179 0
M  V30 26323 C 2508.99 -3.65406 -2.22851 0
M  V30 26324 C 2508.32 -3.95706 -3.59612 0
M  V30 26325 C 2509.62 -4.95514 -1.65115 0
M  V30 26326 H 2511.31 -2.91608 -0.678622 0
M  V30 26327 H 2508.86 -1.40285 -0.324989 0
M  V30 26328 H 2510.81 -2.8388 -3.11432 0
M  V30 26329 H 2509.54 -1.6289 -2.8308 0
M  V30 26330 H 2508.2 -3.32667 -1.54039 0
M  V30 26331 H 2507.84 -3.04869 -4.0008 0
M  V30 26332 H 2507.54 -4.72834 -3.48857 0
M  V30 26333 H 2509.07 -4.3122 -4.32299 0
M  V30 26334 H 2510.48 -5.26775 -2.26232 0
M  V30 26335 H 2508.88 -5.76953 -1.65061 0
M  V30 26336 H 2509.95 -4.81016 -0.612474 0
M  V30 26337 N 2511.29 0.344839 -1.53781 0
M  V30 26338 C 2512.52 1.10974 -1.75213 0
M  V30 26339 C 2512.94 1.81622 -0.489392 0
M  V30 26340 O 2512.3 1.72503 0.557895 0
M  V30 26341 C 2512.35 2.09988 -2.93151 0
M  V30 26342 O 2511.45 3.17482 -2.63209 0
M  V30 26343 H 2510.79 0.321011 -0.581247 0
M  V30 26344 H 2513.32 0.395626 -2.00739 0
M  V30 26345 H 2513.33 2.53232 -3.19903 0
M  V30 26346 H 2512.01 1.57963 -3.84734 0
M  V30 26347 H 2510.58 2.79065 -2.4734 0
M  V30 26348 N 2512.77 1.45492 0.605781 0
M  V30 26349 C 2514.02 1.49603 1.36474 0
M  V30 26350 C 2514.34 0.138486 1.94006 0
M  V30 26351 O 2513.6 -0.863083 1.7564 0
M  V30 26352 C 2513.9 2.52432 2.53007 0
M  V30 26353 C 2513.56 3.97091 2.1361 0
M  V30 26354 C 2512.23 4.3648 2.0258 0
M  V30 26355 C 2514.58 4.88058 1.82891 0
M  V30 26356 C 2511.91 5.64729 1.59054 0
M  V30 26357 C 2514.26 6.1672 1.4085 0
M  V30 26358 C 2512.92 6.55038 1.2838 0
M  V30 26359 H 2512.19 0.547437 0.499393 0
M  V30 26360 H 2514.84 1.78848 0.684515 0
M  V30 26361 H 2513.14 2.16764 3.26375 0
M  V30 26362 H 2514.84 2.5285 3.11236 0
M  V30 26363 H 2511.43 3.65943 2.23122 0
M  V30 26364 H 2515.62 4.58362 1.90309 0
M  V30 26365 H 2510.87 5.93211 1.48023 0
M  V30 26366 H 2515.05 6.8665 1.16126 0
M  V30 26367 H 2512.67 7.54313 0.94427 0
M  V30 26368 N 2514.25 -0.848441 1.32813 0
M  V30 26369 C 2515.47 -1.64058 1.26885 0
M  V30 26370 C 2515.9 -1.87426 -0.159097 0
M  V30 26371 O 2515.26 -1.4315 -1.11256 0
M  V30 26372 C 2515.3 -2.97347 2.04002 0
M  V30 26373 O 2514.41 -3.88195 1.39207 0
M  V30 26374 H 2513.75 -0.499935 0.436991 0
M  V30 26375 H 2516.28 -1.05627 1.75226 0
M  V30 26376 H 2516.29 -3.47121 2.14409 0
M  V30 26377 H 2514.96 -2.79661 3.07835 0
M  V30 26378 H 2513.54 -3.46669 1.37387 0
M  V30 26379 N 2515.73 -1.16125 -1.06549 0
M  V30 26380 C 2517.14 -0.94926 -1.60767 0
M  V30 26381 C 2517.49 0.507474 -1.89523 0
M  V30 26382 O 2516.61 1.38018 -1.66673 0
M  V30 26383 C 2517.21 -1.71676 -2.92083 0
M  V30 26384 C 2515.77 -1.54983 -3.43012 0
M  V30 26385 C 2514.91 -1.72715 -2.16944 0
M  V30 26386 H 2517.87 -1.31033 -0.895331 0
M  V30 26387 H 2517.89 -1.19105 -3.61378 0
M  V30 26388 H 2517.4 -2.77695 -2.71122 0
M  V30 26389 H 2515.5 -0.513938 -3.69039 0
M  V30 26390 H 2515.61 -2.33206 -4.18512 0
M  V30 26391 H 2513.98 -1.15435 -2.27039 0
M  V30 26392 H 2514.76 -2.80116 -1.98468 0
M  V30 26393 N 2517.2 1.25039 -0.959323 0
M  V30 26394 C 2518.43 1.96662 -0.633065 0
M  V30 26395 C 2518.84 1.71454 0.800001 0
M  V30 26396 O 2518.19 0.990108 1.54734 0
M  V30 26397 C 2518.25 3.5008 -0.817585 0
M  V30 26398 C 2517.91 3.98971 -2.2287 0
M  V30 26399 C 2518.91 4.09301 -3.20576 0
M  V30 26400 C 2516.59 4.32514 -2.55415 0
M  V30 26401 C 2518.59 4.52495 -4.48918 0
M  V30 26402 C 2516.27 4.75394 -3.83985 0
M  V30 26403 C 2517.27 4.85347 -4.80549 0
M  V30 26404 O 2516.96 5.27273 -6.06826 0
M  V30 26405 H 2516.69 0.633512 -0.235877 0
M  V30 26406 H 2519.25 1.60045 -1.28743 0
M  V30 26407 H 2517.48 3.86555 -0.10606 0
M  V30 26408 H 2519.17 4.02911 -0.491675 0
M  V30 26409 H 2519.93 3.83613 -2.9676 0
M  V30 26410 H 2515.81 4.23991 -1.80977 0
M  V30 26411 H 2519.35 4.60179 -5.24291 0
M  V30 26412 H 2515.25 5.00528 -4.07605 0
M  V30 26413 H 2516.02 5.45446 -6.10271 0
M  V30 26414 N 2518.68 0.728444 1.39755 0
M  V30 26415 C 2519.61 0.0991764 2.33289 0
M  V30 26416 C 2520.59 -0.731462 1.5357 0
M  V30 26417 O 2521.78 -0.677775 1.81989 0
M  V30 26418 C 2518.91 -0.813774 3.37631 0
M  V30 26419 C 2517.86 -0.0877911 4.2791 0
M  V30 26420 C 2517.19 -1.11732 5.22896 0
M  V30 26421 C 2518.49 1.06572 5.11312 0
M  V30 26422 H 2520.18 0.880458 2.86161 0
M  V30 26423 H 2517.73 0.424843 1.3759 0
M  V30 26424 H 2519.68 -1.26348 4.02013 0
M  V30 26425 H 2518.41 -1.6271 2.83184 0
M  V30 26426 H 2517.06 0.342223 3.64999 0
M  V30 26427 H 2516.71 -1.92403 4.64747 0
M  V30 26428 H 2516.41 -0.636374 5.84144 0
M  V30 26429 H 2517.94 -1.56686 5.90154 0
M  V30 26430 H 2519.35 0.694771 5.69075 0
M  V30 26431 H 2517.75 1.47587 5.81668 0
M  V30 26432 H 2518.82 1.89046 4.46531 0
M  V30 26433 N 2520.16 -1.50253 0.475581 0
M  V30 26434 C 2521.41 -2.01543 -0.0795642 0
M  V30 26435 C 2521.72 -1.36212 -1.40377 0
M  V30 26436 O 2522.93 -1.78684 -2.04412 0
M  V30 26437 C 2521.38 -3.59386 -0.1923 0
M  V30 26438 C 2520.99 -4.33677 1.12374 0
M  V30 26439 C 2522.74 -4.18703 -0.699165 0
M  V30 26440 C 2520.64 -5.83315 0.974556 0
M  V30 26441 H 2519.57 -0.753255 -0.0335096 0
M  V30 26442 H 2522.22 -1.73023 0.611158 0
M  V30 26443 H 2520.61 -3.84512 -0.946906 0
M  V30 26444 H 2521.78 -4.20272 1.88965 0
M  V30 26445 H 2520.1 -3.8599 1.56206 0
M  V30 26446 H 2522.69 -5.28252 -0.827885 0
M  V30 26447 H 2523.04 -3.8038 -1.69164 0
M  V30 26448 H 2523.57 -3.978 -0.00181815 0
M  V30 26449 H 2520.31 -6.26118 1.94053 0
M  V30 26450 H 2519.83 -5.99283 0.249103 0
M  V30 26451 H 2521.51 -6.43797 0.64298 0
M  V30 26452 N 2521.64 -0.208365 -1.56217 0
M  V30 26453 C 2522.86 0.435187 -2.02783 0
M  V30 26454 C 2523.29 1.53483 -1.0874 0
M  V30 26455 O 2522.65 1.81152 -0.0732173 0
M  V30 26456 C 2522.69 0.956274 -3.47689 0
M  V30 26457 O 2521.8 2.06843 -3.56777 0
M  V30 26458 H 2521.14 0.100146 -0.656404 0
M  V30 26459 H 2523.67 -0.323135 -2.02032 0
M  V30 26460 H 2523.68 1.26948 -3.87747 0
M  V30 26461 H 2522.35 0.151357 -4.15624 0
M  V30 26462 H 2520.93 1.76286 -3.286 0
M  V30 26463 N 2523.12 1.57465 0.0651402 0
M  V30 26464 C 2524.36 1.89411 0.768295 0
M  V30 26465 C 2524.72 0.802925 1.74405 0
M  V30 26466 O 2525.92 1.00565 2.49279 0
M  V30 26467 C 2524.19 3.26579 1.45193 0
M  V30 26468 S 2525.75 3.80287 2.18923 0
M  V30 26469 H 2522.57 0.663565 0.255347 0
M  V30 26470 H 2525.17 1.95485 0.0241327 0
M  V30 26471 H 2523.88 4.03891 0.728052 0
M  V30 26472 H 2523.41 3.23719 2.23539 0
M  V30 26473 H 2525.42 3.56108 3.45545 0
M  V30 26474 N 2524.59 -0.336679 1.53962 0
M  V30 26475 C 2525.82 -1.09602 1.75485 0
M  V30 26476 C 2526.24 -1.82135 0.497232 0
M  V30 26477 O 2525.59 -1.7459 -0.531459 0
M  V30 26478 C 2525.65 -2.10423 2.93946 0
M  V30 26479 O 2525.37 -1.40839 4.14845 0
M  V30 26480 C 2526.87 -2.98679 3.27576 0
M  V30 26481 H 2524.09 -0.326564 0.586171 0
M  V30 26482 H 2526.63 -0.386795 2.00809 0
M  V30 26483 H 2524.79 -2.769 2.70934 0
M  V30 26484 H 2525.2 -2.08247 4.81387 0
M  V30 26485 H 2526.67 -3.65343 4.13798 0
M  V30 26486 H 2527.15 -3.65069 2.44174 0
M  V30 26487 H 2527.76 -2.37781 3.52619 0
M  V30 26488 N 2526.07 -1.45812 -0.598057 0
M  V30 26489 C 2527.32 -1.50548 -1.35879 0
M  V30 26490 C 2527.65 -0.150479 -1.93616 0
M  V30 26491 O 2526.93 0.836249 -1.75605 0
M  V30 26492 C 2527.21 -2.59213 -2.49962 0
M  V30 26493 C 2527.06 -4.0419 -1.9736 0
M  V30 26494 C 2528.38 -2.64082 -3.52063 0
M  V30 26495 H 2525.5 -0.548095 -0.492707 0
M  V30 26496 H 2528.14 -1.77671 -0.673288 0
M  V30 26497 H 2526.29 -2.36216 -3.08439 0
M  V30 26498 H 2527.96 -4.38426 -1.43458 0
M  V30 26499 H 2526.21 -4.14395 -1.28293 0
M  V30 26500 H 2526.88 -4.75925 -2.79641 0
M  V30 26501 H 2529.35 -2.84713 -3.03443 0
M  V30 26502 H 2528.23 -3.41961 -4.29364 0
M  V30 26503 H 2528.49 -1.69538 -4.08301 0
M  V30 26504 N 2527.55 0.841385 -1.33261 0
M  V30 26505 C 2528.8 1.59141 -1.23924 0
M  V30 26506 C 2529.11 1.94635 0.194066 0
M  V30 26507 O 2530.32 2.68395 0.409426 0
M  V30 26508 C 2528.77 2.87028 -2.17124 0
M  V30 26509 C 2528.38 2.58907 -3.6561 0
M  V30 26510 C 2530.13 3.6505 -2.16654 0
M  V30 26511 C 2528.03 3.82876 -4.50733 0
M  V30 26512 H 2526.96 0.597213 -0.460275 0
M  V30 26513 H 2529.61 0.927931 -1.58309 0
M  V30 26514 H 2528 3.54903 -1.75669 0
M  V30 26515 H 2529.17 1.99259 -4.15491 0
M  V30 26516 H 2527.49 1.94194 -3.68345 0
M  V30 26517 H 2530.08 4.57064 -2.77482 0
M  V30 26518 H 2530.43 3.99784 -1.16095 0
M  V30 26519 H 2530.96 3.04095 -2.56459 0
M  V30 26520 H 2527.7 3.53274 -5.52158 0
M  V30 26521 H 2527.22 4.41872 -4.05597 0
M  V30 26522 H 2528.9 4.50481 -4.64409 0
M  V30 26523 N 2529.03 1.16688 1.05932 0
M  V30 26524 C 2529.98 0.872855 2.15601 0
M  V30 26525 C 2530.97 -0.159546 1.68647 0
M  V30 26526 O 2532.18 -0.0131809 1.79995 0
M  V30 26527 H 2528.55 0.264683 0.70388 0
M  V30 26528 H 2530.52 1.80511 2.3761 0
M  V30 26529 C 2529.27 0.394405 3.45456 0
M  V30 26530 H 2528.6 1.18026 3.81982 0
M  V30 26531 H 2530.04 0.227482 4.23389 0
M  V30 26532 C 2528.49 -0.886672 3.25023 0
M  V30 26533 O 2529.02 -1.95513 3.5091 0
M  V30 26534 N 2527.23 -0.831876 2.78439 0
M  V30 26535 H 2526.78 0.0378072 2.57572 0
M  V30 26536 H 2526.74 -1.68951 2.65147 0
M  V30 26537 N 2530.51 -1.24529 0.96594 0
M  V30 26538 C 2531.92 -1.44754 0.672185 0
M  V30 26539 C 2532.12 -1.86349 -0.766576 0
M  V30 26540 O 2531.18 -2.0005 -1.54066 0
M  V30 26541 C 2532.49 -2.51073 1.65478 0
M  V30 26542 C 2534.04 -2.64902 1.66721 0
M  V30 26543 C 2534.52 -3.74417 2.63773 0
M  V30 26544 N 2536.01 -3.81841 2.62205 0
M  V30 26545 C 2536.74 -4.661 3.33974 0
M  V30 26546 N 2536.24 -5.54559 4.15254 0
M  V30 26547 N 2538.03 -4.60165 3.22807 0
M  V30 26548 H 2530.18 -0.95826 1.89555 0
M  V30 26549 H 2532.44 -0.482565 0.815987 0
M  V30 26550 H 2532.15 -2.27394 2.683 0
M  V30 26551 H 2532.02 -3.492 1.42616 0
M  V30 26552 H 2534.41 -2.8794 0.646108 0
M  V30 26553 H 2534.49 -1.67139 1.93645 0
M  V30 26554 H 2534.14 -3.52129 3.66016 0
M  V30 26555 H 2534.07 -4.7169 2.34129 0
M  V30 26556 H 2536.56 -3.18616 2.03205 0
M  V30 26557 H 2536.87 -6.15805 4.66909 0
M  V30 26558 H 2535.22 -5.5423 4.1935 0
M  V30 26559 H 2538.41 -3.90071 2.58771 0
M  V30 26560 H 2538.58 -5.25605 3.79003 0
M  V30 26561 N 2531.99 -0.735845 -1.39367 0
M  V30 26562 C 2532.92 -0.111547 -2.33233 0
M  V30 26563 C 2533.9 0.723307 -1.53955 0
M  V30 26564 O 2535.08 0.668115 -1.82345 0
M  V30 26565 C 2532.21 0.795857 -3.38058 0
M  V30 26566 C 2531.17 0.0650968 -4.2795 0
M  V30 26567 C 2530.49 1.08957 -5.23481 0
M  V30 26568 C 2531.79 -1.09282 -5.10739 0
M  V30 26569 H 2533.49 -0.895621 -2.8569 0
M  V30 26570 H 2531.03 -0.432134 -1.37363 0
M  V30 26571 H 2532.98 1.24214 -4.02677 0
M  V30 26572 H 2531.71 1.61206 -2.84043 0
M  V30 26573 H 2530.37 -0.361575 -3.64813 0
M  V30 26574 H 2530.02 1.89936 -4.65761 0
M  V30 26575 H 2529.72 0.605386 -5.84473 0
M  V30 26576 H 2531.24 1.53554 -5.90977 0
M  V30 26577 H 2532.65 -0.72494 -5.68698 0
M  V30 26578 H 2531.05 -1.5067 -5.80877 0
M  V30 26579 H 2532.12 -1.91412 -4.45522 0
M  V30 26580 N 2533.46 1.49999 -0.483543 0
M  V30 26581 C 2534.88 1.58999 -0.138432 0
M  V30 26582 C 2535.08 1.49052 1.35594 0
M  V30 26583 O 2534.14 1.35543 2.13036 0
M  V30 26584 C 2535.45 2.92446 -0.699709 0
M  V30 26585 C 2537 3.0587 -0.664249 0
M  V30 26586 C 2537.47 4.41911 -1.20328 0
M  V30 26587 N 2538.96 4.48356 -1.16323 0
M  V30 26588 C 2539.7 5.52034 -1.55068 0
M  V30 26589 N 2539.19 6.62903 -2.01323 0
M  V30 26590 N 2540.99 5.42648 -1.46593 0
M  V30 26591 H 2533.14 1.54707 -1.45532 0
M  V30 26592 H 2535.4 0.731837 -0.602593 0
M  V30 26593 H 2535.11 3.05239 -1.74706 0
M  V30 26594 H 2534.98 3.76901 -0.15026 0
M  V30 26595 H 2537.37 2.92718 0.374221 0
M  V30 26596 H 2537.45 2.23142 -1.25065 0
M  V30 26597 H 2537.09 4.55814 -2.24045 0
M  V30 26598 H 2537.02 5.23251 -0.592988 0
M  V30 26599 H 2539.51 3.68804 -0.824123 0
M  V30 26600 H 2539.83 7.38091 -2.29003 0
M  V30 26601 H 2538.17 6.6399 -2.05284 0
M  V30 26602 H 2541.36 4.54922 -1.10289 0
M  V30 26603 H 2541.54 6.23326 -1.77114 0
M  V30 26604 N 2534.94 0.216646 1.56104 0
M  V30 26605 C 2536.22 -0.465131 1.89989 0
M  V30 26606 C 2536.6 -1.781 1.13329 0
M  V30 26607 O 2535.95 -2.27225 0.241072 0
M  V30 26608 C 2536.16 -0.662878 3.42647 0
M  V30 26609 C 2537.5 -0.972529 4.13312 0
M  V30 26610 O 2538.53 -0.74984 3.48218 0
M  V30 26611 O 2537.39 -1.39489 5.28398 0
M  V30 26612 H 2534.48 -0.245262 0.789795 0
M  V30 26613 H 2537.03 0.258466 1.6772 0
M  V30 26614 H 2535.8 0.265499 3.90398 0
M  V30 26615 H 2535.42 -1.43814 3.70679 0
M  V30 26616 N 2536.42 -1.57498 -0.0567885 0
M  V30 26617 C 2537.67 -1.87605 -0.751584 0
M  V30 26618 C 2537.99 -0.810691 -1.77349 0
M  V30 26619 O 2537.26 0.158984 -1.95254 0
M  V30 26620 H 2535.84 -0.692307 -0.280571 0
M  V30 26621 H 2538.5 -1.94878 -0.0293141 0
M  V30 26622 H 2537.6 -2.85603 -1.25847 0
M  V30 26623 N 2537.9 0.328509 -1.54138 0
M  V30 26624 C 2539.17 1.08496 -1.62751 0
M  V30 26625 C 2539.55 2.06067 -0.458234 0
M  V30 26626 O 2538.9 2.21831 0.548007 0
M  V30 26627 C 2539.11 1.79129 -2.99522 0
M  V30 26628 C 2540.46 2.3233 -3.55398 0
M  V30 26629 O 2541.48 1.89204 -3.01795 0
M  V30 26630 O 2540.34 3.11271 -4.49191 0
M  V30 26631 H 2537.44 0.499821 -0.658869 0
M  V30 26632 H 2539.98 0.328797 -1.66484 0
M  V30 26633 H 2538.76 1.08132 -3.76063 0
M  V30 26634 H 2538.38 2.61568 -2.99446 0
M  V30 26635 N 2539.38 1.46127 0.590316 0
M  V30 26636 C 2540.6 1.54835 1.37988 0
M  V30 26637 C 2541.03 0.187539 1.87163 0
M  V30 26638 O 2540.38 -0.830979 1.61135 0
M  V30 26639 C 2540.43 2.55102 2.54863 0
M  V30 26640 O 2539.54 2.08079 3.56057 0
M  V30 26641 H 2538.88 0.521311 0.411256 0
M  V30 26642 H 2541.41 1.91633 0.716785 0
M  V30 26643 H 2541.42 2.74466 3.01881 0
M  V30 26644 H 2540.09 3.53927 2.18423 0
M  V30 26645 H 2538.67 1.98669 3.15571 0
M  V30 26646 N 2540.85 -0.834306 1.33705 0
M  V30 26647 C 2542.08 -1.62182 1.2847 0
M  V30 26648 C 2542.5 -1.88254 -0.143493 0
M  V30 26649 O 2541.85 -1.46592 -1.08706 0
M  V30 26650 C 2541.9 -2.96938 2.06179 0
M  V30 26651 O 2541.63 -2.7201 3.43427 0
M  V30 26652 C 2543.13 -3.91362 2.08208 0
M  V30 26653 H 2540.35 -0.504495 0.442409 0
M  V30 26654 H 2542.89 -1.03888 1.76146 0
M  V30 26655 H 2541.05 -3.51822 1.62173 0
M  V30 26656 H 2541.46 -3.57854 3.83459 0
M  V30 26657 H 2542.93 -4.83117 2.67025 0
M  V30 26658 H 2543.41 -4.25879 1.0735 0
M  V30 26659 H 2544.02 -3.42416 2.52252 0
M  V30 26660 N 2542.33 -1.17248 -1.05312 0
M  V30 26661 C 2543.56 -0.98518 -1.82507 0
M  V30 26662 C 2543.98 0.461756 -1.82344 0
M  V30 26663 O 2543.34 1.33053 -1.23153 0
M  V30 26664 C 2543.39 -1.52935 -3.26563 0
M  V30 26665 O 2542.49 -0.742296 -4.05665 0
M  V30 26666 H 2541.83 -0.349879 -0.564341 0
M  V30 26667 H 2544.36 -1.55718 -1.32715 0
M  V30 26668 H 2544.37 -1.5511 -3.77366 0
M  V30 26669 H 2543.05 -2.58262 -3.25996 0
M  V30 26670 H 2541.62 -0.791858 -3.64395 0
M  V30 26671 N 2543.81 1.24015 -0.972531 0
M  V30 26672 C 2545.04 1.96264 -0.654837 0
M  V30 26673 C 2545.45 1.72085 0.776678 0
M  V30 26674 O 2544.81 1.00751 1.52169 0
M  V30 26675 C 2544.86 3.49439 -0.925981 0
M  V30 26676 O 2544.58 3.72794 -2.30122 0
M  V30 26677 C 2546.08 4.38898 -0.623146 0
M  V30 26678 H 2543.3 0.625096 -0.243918 0
M  V30 26679 H 2545.85 1.57715 -1.30178 0
M  V30 26680 H 2544 3.86033 -0.325176 0
M  V30 26681 H 2544.42 4.67143 -2.38491 0
M  V30 26682 H 2545.89 5.45208 -0.863285 0
M  V30 26683 H 2546.37 4.36963 0.442677 0
M  V30 26684 H 2546.97 4.079 -1.20407 0
M  V30 26685 N 2545.29 0.743226 1.38974 0
M  V30 26686 C 2546.22 0.123914 2.33171 0
M  V30 26687 C 2547.2 -0.715132 1.54337 0
M  V30 26688 O 2548.38 -0.658435 1.82697 0
M  V30 26689 C 2545.51 -0.777918 3.38476 0
M  V30 26690 C 2544.47 -0.0424006 4.27979 0
M  V30 26691 C 2543.79 -1.0618 5.24051 0
M  V30 26692 C 2545.09 1.11989 5.10153 0
M  V30 26693 H 2546.79 0.91076 2.85211 0
M  V30 26694 H 2544.33 0.439412 1.37132 0
M  V30 26695 H 2546.29 -1.22077 4.0333 0
M  V30 26696 H 2545.01 -1.59697 2.84894 0
M  V30 26697 H 2543.67 0.380917 3.64616 0
M  V30 26698 H 2543.32 -1.87463 4.66762 0
M  V30 26699 H 2543.02 -0.574382 5.84786 0
M  V30 26700 H 2544.54 -1.50418 5.91783 0
M  V30 26701 H 2545.96 0.75509 5.68306 0
M  V30 26702 H 2544.35 1.53748 5.8007 0
M  V30 26703 H 2545.42 1.93772 4.445 0
M  V30 26704 N 2546.77 -1.4974 0.491491 0
M  V30 26705 C 2547.68 -2.32715 -0.296794 0
M  V30 26706 C 2548.69 -1.44015 -0.97651 0
M  V30 26707 O 2549.87 -1.77048 -0.959992 0
M  V30 26708 C 2546.93 -3.19217 -1.35283 0
M  V30 26709 C 2545.99 -4.23758 -0.687557 0
M  V30 26710 C 2545.23 -5.06126 -1.69328 0
M  V30 26711 O 2545.45 -4.89866 -2.92211 0
M  V30 26712 O 2544.38 -5.88696 -1.25384 0
M  V30 26713 H 2548.21 -3.01287 0.382101 0
M  V30 26714 H 2545.8 -1.47243 0.252979 0
M  V30 26715 H 2547.68 -3.72831 -1.96404 0
M  V30 26716 H 2546.35 -2.53351 -2.01482 0
M  V30 26717 H 2545.26 -3.74082 -0.0368502 0
M  V30 26718 H 2546.59 -4.92153 -0.0681701 0
M  V30 26719 N 2548.24 -0.224922 -1.55987 0
M  V30 26720 C 2549.15 0.69507 -2.24067 0
M  V30 26721 C 2550.17 1.21102 -1.24941 0
M  V30 26722 O 2551.35 1.25192 -1.57762 0
M  V30 26723 C 2548.41 1.88488 -2.90987 0
M  V30 26724 C 2547.47 1.41057 -4.05464 0
M  V30 26725 C 2546.71 2.54367 -4.69184 0
M  V30 26726 O 2546.93 3.72581 -4.31902 0
M  V30 26727 O 2545.86 2.25376 -5.58112 0
M  V30 26728 H 2549.69 0.145096 -3.03353 0
M  V30 26729 H 2547.27 0.0056685 -1.49399 0
M  V30 26730 H 2549.16 2.57966 -3.33214 0
M  V30 26731 H 2547.83 2.42289 -2.14657 0
M  V30 26732 H 2546.74 0.68371 -3.67799 0
M  V30 26733 H 2548.07 0.9189 -4.83546 0
M  V30 26734 N 2549.72 1.57526 0.0484352 0
M  V30 26735 C 2550.67 2.01734 1.06243 0
M  V30 26736 C 2551.66 0.903268 1.33154 0
M  V30 26737 O 2552.85 1.16719 1.33063 0
M  V30 26738 C 2549.98 2.48425 2.36939 0
M  V30 26739 C 2549.06 3.66614 2.13202 0
M  V30 26740 N 2549.45 4.80006 1.59462 0
M  V30 26741 C 2547.75 3.73614 2.43574 0
M  V30 26742 C 2548.45 5.61738 1.51082 0
M  V30 26743 N 2547.43 5.06273 1.97961 0
M  V30 26744 H 2551.23 2.86833 0.640625 0
M  V30 26745 H 2548.75 1.60384 0.255105 0
M  V30 26746 H 2550.74 2.78347 3.10369 0
M  V30 26747 H 2549.4 1.64723 2.79815 0
M  V30 26748 H 2550.41 5.01833 1.27999 0
M  V30 26749 H 2547.09 3.00674 2.89657 0
M  V30 26750 H 2548.48 6.62803 1.10187 0
M  V30 26751 N 2551.2 -0.32033 1.5431 0
M  V30 26752 C 2552.43 -1.08172 1.76956 0
M  V30 26753 C 2552.85 -1.8082 0.518225 0
M  V30 26754 O 2552.21 -1.73369 -0.530381 0
M  V30 26755 C 2552.26 -2.05298 2.96454 0
M  V30 26756 O 2551.36 -3.13255 2.68226 0
M  V30 26757 H 2550.7 -0.311723 0.586281 0
M  V30 26758 H 2553.23 -0.36364 2.01343 0
M  V30 26759 H 2553.24 -2.4811 3.23891 0
M  V30 26760 H 2551.92 -1.51822 3.87199 0
M  V30 26761 H 2550.49 -2.75094 2.51749 0
M  V30 26762 N 2552.68 -1.46438 -0.582558 0
M  V30 26763 C 2553.59 -1.59598 -1.71946 0
M  V30 26764 C 2554.6 -0.479473 -1.67263 0
M  V30 26765 O 2555.78 -0.743612 -1.87169 0
M  V30 26766 C 2552.85 -1.58304 -3.08449 0
M  V30 26767 C 2551.91 -2.81188 -3.24395 0
M  V30 26768 C 2551.14 -2.79945 -4.54386 0
M  V30 26769 O 2551.36 -1.88699 -5.38283 0
M  V30 26770 O 2550.3 -3.71489 -4.73582 0
M  V30 26771 H 2554.12 -2.55747 -1.6379 0
M  V30 26772 H 2551.71 -1.29233 -0.74962 0
M  V30 26773 H 2553.59 -1.60278 -3.89729 0
M  V30 26774 H 2552.26 -0.65315 -3.17042 0
M  V30 26775 H 2551.17 -2.84767 -2.42608 0
M  V30 26776 H 2552.5 -3.73386 -3.20693 0
M  V30 26777 N 2554.16 0.827204 -1.34146 0
M  V30 26778 C 2555.4 1.58004 -1.26012 0
M  V30 26779 C 2555.73 1.94249 0.170937 0
M  V30 26780 O 2555 1.61929 1.10253 0
M  V30 26781 H 2553.58 0.585873 -0.463424 0
M  V30 26782 H 2556.24 0.987922 -1.68006 0
M  V30 26783 H 2555.33 2.50478 -1.86191 0
M  V30 26784 N 2555.63 1.17805 1.04688 0
M  V30 26785 C 2556.58 0.899381 2.12555 0
M  V30 26786 C 2557.55 -0.158742 1.6534 0
M  V30 26787 O 2558.74 -0.0204462 1.90789 0
M  V30 26788 C 2555.88 0.424375 3.42481 0
M  V30 26789 C 2554.99 1.5472 4.03343 0
M  V30 26790 C 2554.12 1.02556 5.21206 0
M  V30 26791 C 2553.16 2.12349 5.74086 0
M  V30 26792 N 2552.3 1.61624 6.83244 0
M  V30 26793 H 2557.14 1.82305 2.35731 0
M  V30 26794 H 2554.68 0.909179 1.15639 0
M  V30 26795 H 2556.64 0.130495 4.16996 0
M  V30 26796 H 2555.27 -0.462321 3.19472 0
M  V30 26797 H 2554.32 1.9567 3.26217 0
M  V30 26798 H 2555.63 2.37509 4.38624 0
M  V30 26799 H 2554.78 0.685824 6.02811 0
M  V30 26800 H 2553.52 0.167169 4.87413 0
M  V30 26801 H 2552.53 2.47174 4.91106 0
M  V30 26802 H 2553.75 2.98612 6.09924 0
M  V30 26803 H 2551.7 0.780647 6.51339 0
M  V30 26804 H 2551.62 2.38016 7.17554 0
M  V30 26805 H 2552.88 1.30559 7.68489 0
M  V30 26806 N 2557.11 -1.23497 0.979094 0
M  V30 26807 C 2558.04 -2.24196 0.476311 0
M  V30 26808 C 2559.06 -1.57259 -0.421138 0
M  V30 26809 O 2560.25 -1.7707 -0.225484 0
M  V30 26810 C 2557.35 -3.37285 -0.330444 0
M  V30 26811 C 2556.52 -4.33803 0.55982 0
M  V30 26812 C 2555.58 -5.25846 -0.192861 0
M  V30 26813 O 2554.6 -5.6767 0.417078 0
M  V30 26814 N 2555.81 -5.61337 -1.47922 0
M  V30 26815 H 2558.57 -2.67967 1.34216 0
M  V30 26816 H 2556.13 -1.37655 0.852213 0
M  V30 26817 H 2558.12 -3.95838 -0.842291 0
M  V30 26818 H 2556.69 -2.92709 -1.09729 0
M  V30 26819 H 2555.91 -3.73772 1.25251 0
M  V30 26820 H 2557.2 -4.95246 1.16659 0
M  V30 26821 H 2556.6 -5.29305 -1.99631 0
M  V30 26822 H 2555.16 -6.22368 -1.93653 0
M  V30 26823 N 2558.59 -0.750586 -1.38578 0
M  V30 26824 C 2559.84 -0.302207 -1.99423 0
M  V30 26825 C 2560.15 1.1215 -1.60255 0
M  V30 26826 O 2561.36 1.67019 -2.14049 0
M  V30 26827 C 2559.82 -0.48937 -3.56557 0
M  V30 26828 C 2559.42 -1.92196 -4.04678 0
M  V30 26829 C 2561.17 -0.103553 -4.24374 0
M  V30 26830 C 2559.07 -2.05785 -5.54443 0
M  V30 26831 H 2558 -0.109243 -0.746044 0
M  V30 26832 H 2560.66 -0.926698 -1.58381 0
M  V30 26833 H 2559.04 0.204259 -3.95473 0
M  V30 26834 H 2560.21 -2.64882 -3.7706 0
M  V30 26835 H 2558.53 -2.26242 -3.49576 0
M  V30 26836 H 2561.12 -0.183881 -5.34384 0
M  V30 26837 H 2561.47 0.943409 -4.05469 0
M  V30 26838 H 2562 -0.748923 -3.90687 0
M  V30 26839 H 2558.74 -3.08725 -5.78247 0
M  V30 26840 H 2558.26 -1.37556 -5.83814 0
M  V30 26841 H 2559.94 -1.84637 -6.20095 0
M  V30 26842 N 2560.07 1.49477 -0.499425 0
M  V30 26843 C 2561.02 2.29097 0.279841 0
M  V30 26844 C 2561.99 1.35422 0.961781 0
M  V30 26845 O 2563.17 1.64377 0.968748 0
M  V30 26846 C 2560.31 3.18053 1.33926 0
M  V30 26847 C 2559.42 4.26784 0.669258 0
M  V30 26848 C 2558.56 5.02958 1.70899 0
M  V30 26849 C 2557.6 6.03529 1.02077 0
M  V30 26850 N 2556.74 6.72874 2.00462 0
M  V30 26851 H 2561.58 2.9523 -0.405369 0
M  V30 26852 H 2559.11 1.45568 -0.211752 0
M  V30 26853 H 2561.07 3.68002 1.96547 0
M  V30 26854 H 2559.7 2.53908 1.99326 0
M  V30 26855 H 2558.75 3.80335 -0.0701903 0
M  V30 26856 H 2560.06 4.98637 0.127416 0
M  V30 26857 H 2559.22 5.56768 2.41028 0
M  V30 26858 H 2557.96 4.30875 2.28468 0
M  V30 26859 H 2556.96 5.48952 0.305242 0
M  V30 26860 H 2558.19 6.77597 0.451589 0
M  V30 26861 H 2556.13 6.03563 2.56997 0
M  V30 26862 H 2556.05 7.40697 1.5134 0
M  V30 26863 H 2557.32 7.31288 2.69885 0
M  V30 26864 N 2561.55 0.233191 1.55865 0
M  V30 26865 C 2562.5 -0.688471 2.22177 0
M  V30 26866 C 2563.49 -1.19074 1.20489 0
M  V30 26867 O 2564.7 -1.14922 1.38538 0
M  V30 26868 H 2561.07 -0.24047 0.712515 0
M  V30 26869 H 2563.04 -0.105883 2.98212 0
M  V30 26870 C 2561.79 -1.88066 2.92449 0
M  V30 26871 H 2561.11 -1.5033 3.7046 0
M  V30 26872 H 2562.55 -2.50308 3.42231 0
M  V30 26873 C 2561.01 -2.74332 1.9556 0
M  V30 26874 O 2561.54 -3.73445 1.47993 0
M  V30 26875 N 2559.75 -2.4061 1.62957 0
M  V30 26876 H 2559.3 -1.60065 2.01834 0
M  V30 26877 H 2559.25 -2.98607 0.983939 0
M  V30 26878 N 2563.03 -1.57549 -0.0400806 0
M  V30 26879 C 2563.96 -2.08871 -1.0438 0
M  V30 26880 C 2564.94 -0.988842 -1.38405 0
M  V30 26881 O 2566.12 -1.26345 -1.47481 0
M  V30 26882 C 2563.25 -2.55899 -2.34804 0
M  V30 26883 C 2562.21 -3.70051 -2.1505 0
M  V30 26884 C 2561.53 -4.03245 -3.51137 0
M  V30 26885 C 2562.83 -4.98905 -1.54567 0
M  V30 26886 H 2564.53 -2.92982 -0.616615 0
M  V30 26887 H 2562.07 -1.40943 -0.295159 0
M  V30 26888 H 2564.02 -2.90422 -3.05341 0
M  V30 26889 H 2562.75 -1.68858 -2.79562 0
M  V30 26890 H 2561.41 -3.3586 -1.46948 0
M  V30 26891 H 2561.06 -3.13286 -3.93523 0
M  V30 26892 H 2560.76 -4.80128 -3.38749 0
M  V30 26893 H 2562.28 -4.40292 -4.23054 0
M  V30 26894 H 2563.69 -5.31455 -2.15008 0
M  V30 26895 H 2562.09 -5.80324 -1.52786 0
M  V30 26896 H 2563.16 -4.82207 -0.510306 0
M  V30 26897 N 2564.5 0.312142 -1.54478 0
M  V30 26898 C 2565.91 0.885862 -1.64345 0
M  V30 26899 C 2566.27 1.88482 -0.544883 0
M  V30 26900 O 2565.39 2.14016 0.32035 0
M  V30 26901 C 2565.99 1.61351 -2.97911 0
M  V30 26902 C 2564.54 2.1358 -3.09937 0
M  V30 26903 C 2563.69 0.964852 -2.59973 0
M  V30 26904 H 2566.64 0.0894249 -1.58448 0
M  V30 26905 H 2566.66 2.47843 -2.88711 0
M  V30 26906 H 2566.18 0.88621 -3.77846 0
M  V30 26907 H 2564.28 2.89391 -2.34699 0
M  V30 26908 H 2564.39 2.37797 -4.1592 0
M  V30 26909 H 2562.75 1.34727 -2.1615 0
M  V30 26910 H 2563.54 0.251682 -3.42376 0
M  V30 26911 N 2565.98 1.46745 0.574784 0
M  V30 26912 C 2566.89 1.60508 1.71098 0
M  V30 26913 C 2567.91 0.488336 1.67007 0
M  V30 26914 O 2569.08 0.753528 1.86772 0
M  V30 26915 C 2566.15 1.59937 3.07605 0
M  V30 26916 C 2565.21 2.82904 3.22899 0
M  V30 26917 C 2564.44 2.82351 4.52895 0
M  V30 26918 O 2564.67 1.91551 5.37275 0
M  V30 26919 O 2563.6 3.73995 4.71605 0
M  V30 26920 H 2567.43 2.56612 1.62432 0
M  V30 26921 H 2565.01 1.29628 0.742756 0
M  V30 26922 H 2566.89 1.62343 3.88874 0
M  V30 26923 H 2565.57 0.669954 3.16691 0
M  V30 26924 H 2564.47 2.8605 2.41094 0
M  V30 26925 H 2565.81 3.75081 3.18708 0
M  V30 26926 N 2567.46 -0.820078 1.34583 0
M  V30 26927 C 2568.37 -1.96294 1.28474 0
M  V30 26928 C 2569.39 -1.72938 0.191932 0
M  V30 26929 O 2570.56 -1.96995 0.418914 0
M  V30 26930 C 2567.63 -3.30643 1.04287 0
M  V30 26931 C 2566.69 -3.66988 2.22752 0
M  V30 26932 C 2565.92 -4.94926 1.99709 0
M  V30 26933 O 2566.14 -5.62319 0.956755 0
M  V30 26934 O 2565.08 -5.29215 2.86732 0
M  V30 26935 H 2568.9 -2.04392 2.24628 0
M  V30 26936 H 2566.49 -0.955893 1.14817 0
M  V30 26937 H 2568.37 -4.11102 0.925914 0
M  V30 26938 H 2567.05 -3.23507 0.111754 0
M  V30 26939 H 2565.95 -2.86962 2.40008 0
M  V30 26940 H 2567.29 -3.78813 3.14263 0
M  V30 26941 N 2568.94 -1.18359 -1.04062 0
M  V30 26942 C 2570.17 -1.00387 -1.80915 0
M  V30 26943 C 2570.58 0.447706 -1.83415 0
M  V30 26944 O 2569.94 1.31097 -1.26964 0
M  V30 26945 C 2569.99 -1.55149 -3.26513 0
M  V30 26946 O 2569.71 -2.94624 -3.24235 0
M  V30 26947 C 2571.21 -1.41796 -4.2001 0
M  V30 26948 H 2568.43 -0.354484 -0.569721 0
M  V30 26949 H 2570.97 -1.56909 -1.31149 0
M  V30 26950 H 2569.13 -1.02804 -3.7351 0
M  V30 26951 H 2569.54 -3.20164 -4.15446 0
M  V30 26952 H 2571.02 -1.84911 -5.20108 0
M  V30 26953 H 2571.49 -0.366687 -4.37667 0
M  V30 26954 H 2572.1 -1.93214 -3.78878 0
M  V30 26955 N 2570.42 1.22976 -0.98563 0
M  V30 26956 C 2571.66 1.91531 -0.65742 0
M  V30 26957 C 2571.99 1.76846 0.809676 0
M  V30 26958 O 2571.25 1.12661 1.60019 0
M  V30 26959 C 2571.54 3.43119 -1.0002 0
M  V30 26960 C 2571.21 3.77988 -2.45837 0
M  V30 26961 C 2569.87 3.87217 -2.85686 0
M  V30 26962 C 2572.22 3.94699 -3.40385 0
M  V30 26963 C 2569.55 4.10588 -4.19088 0
M  V30 26964 C 2571.9 4.19572 -4.73437 0
M  V30 26965 C 2570.57 4.27023 -5.13038 0
M  V30 26966 H 2569.84 0.700863 -0.240567 0
M  V30 26967 H 2572.49 1.45893 -1.24046 0
M  V30 26968 H 2570.79 3.90364 -0.335141 0
M  V30 26969 H 2572.49 3.94403 -0.724391 0
M  V30 26970 H 2569.08 3.71383 -2.13945 0
M  V30 26971 H 2573.26 3.86955 -3.10773 0
M  V30 26972 H 2568.52 4.14581 -4.49369 0
M  V30 26973 H 2572.69 4.31446 -5.46651 0
M  V30 26974 H 2570.32 4.44885 -6.16426 0
M  V30 26975 N 2571.89 0.757924 1.38178 0
M  V30 26976 C 2573.12 0.325715 2.04826 0
M  V30 26977 C 2573.54 -1.03916 1.5679 0
M  V30 26978 O 2572.9 -1.6631 0.721841 0
M  V30 26979 C 2572.95 0.36251 3.58773 0
M  V30 26980 O 2572.05 -0.641961 4.07373 0
M  V30 26981 H 2571.39 0.143413 0.648328 0
M  V30 26982 H 2573.92 1.03026 1.76768 0
M  V30 26983 H 2573.93 0.214915 4.07434 0
M  V30 26984 H 2572.61 1.35831 3.93094 0
M  V30 26985 H 2571.19 -0.458623 3.70069 0
M  V30 26986 N 2573.37 -1.4921 0.507345 0
M  V30 26987 C 2574.79 -1.58758 0.16371 0
M  V30 26988 C 2574.99 -1.5119 -1.33206 0
M  V30 26989 O 2574.04 -1.38915 -2.10853 0
M  V30 26990 C 2575.36 -2.91296 0.746146 0
M  V30 26991 C 2576.91 -3.04775 0.712826 0
M  V30 26992 C 2577.38 -4.3994 1.27344 0
M  V30 26993 N 2578.87 -4.46449 1.23441 0
M  V30 26994 C 2579.61 -5.49497 1.63831 0
M  V30 26995 N 2579.1 -6.59617 2.11843 0
M  V30 26996 N 2580.9 -5.40247 1.55208 0
M  V30 26997 H 2573.05 -1.52372 1.47974 0
M  V30 26998 H 2575.31 -0.722158 0.61416 0
M  V30 26999 H 2575.02 -3.02421 1.7954 0
M  V30 27000 H 2574.89 -3.76614 0.210203 0
M  V30 27001 H 2577.28 -2.93276 -0.327604 0
M  V30 27002 H 2577.36 -2.21124 1.28599 0
M  V30 27003 H 2577 -4.52192 2.31268 0
M  V30 27004 H 2576.93 -5.22241 0.676157 0
M  V30 27005 H 2579.42 -3.67447 0.882692 0
M  V30 27006 H 2579.74 -7.34354 2.40716 0
M  V30 27007 H 2578.08 -6.60641 2.15822 0
M  V30 27008 H 2581.27 -4.5311 1.17513 0
M  V30 27009 H 2581.44 -6.20429 1.87008 0
M  V30 27010 N 2574.85 -0.241454 -1.55739 0
M  V30 27011 C 2576.1 0.384801 -1.9881 0
M  V30 27012 C 2576.43 1.58344 -1.12949 0
M  V30 27013 O 2575.68 1.94879 -0.179028 0
M  V30 27014 C 2575.98 0.843256 -3.4731 0
M  V30 27015 C 2575.65 -0.247025 -4.50223 0
M  V30 27016 C 2574.31 -0.546483 -4.78087 0
M  V30 27017 C 2576.66 -0.983372 -5.11839 0
M  V30 27018 C 2573.99 -1.58646 -5.64844 0
M  V30 27019 C 2576.34 -2.01283 -5.99723 0
M  V30 27020 C 2575 -2.31899 -6.25923 0
M  V30 27021 H 2574.27 0.140809 -0.727498 0
M  V30 27022 H 2576.92 -0.348139 -1.88309 0
M  V30 27023 H 2575.23 1.6553 -3.55115 0
M  V30 27024 H 2576.92 1.33799 -3.7802 0
M  V30 27025 H 2573.51 -0.00348172 -4.286 0
M  V30 27026 H 2577.7 -0.765268 -4.90364 0
M  V30 27027 H 2572.95 -1.82907 -5.834 0
M  V30 27028 H 2577.13 -2.58834 -6.46512 0
M  V30 27029 H 2574.75 -3.12624 -6.92943 0
M  V30 27030 N 2576.33 1.57568 0.0317248 0
M  V30 27031 C 2577.26 2.09422 1.03271 0
M  V30 27032 C 2578.24 0.996168 1.37879 0
M  V30 27033 O 2579.42 1.27125 1.46809 0
M  V30 27034 C 2576.55 2.57141 2.33443 0
M  V30 27035 C 2575.51 3.71186 2.13085 0
M  V30 27036 C 2574.83 4.05102 3.48994 0
M  V30 27037 C 2576.13 4.99718 1.51919 0
M  V30 27038 H 2577.83 2.93304 0.601069 0
M  V30 27039 H 2575.37 1.41097 0.28768 0
M  V30 27040 H 2577.33 2.92037 3.03796 0
M  V30 27041 H 2576.05 1.70338 2.78662 0
M  V30 27042 H 2574.71 3.36634 1.45165 0
M  V30 27043 H 2574.36 3.15369 3.91857 0
M  V30 27044 H 2574.06 4.81917 3.36198 0
M  V30 27045 H 2575.58 4.4253 4.20714 0
M  V30 27046 H 2577 5.32588 2.12186 0
M  V30 27047 H 2575.39 5.81127 1.49706 0
M  V30 27048 H 2576.46 4.82471 0.484726 0
M  V30 27049 N 2577.81 -0.303946 1.54641 0
M  V30 27050 C 2578.74 -1.37957 1.88389 0
M  V30 27051 C 2579.72 -1.53038 0.742512 0
M  V30 27052 O 2580.9 -1.66595 0.997988 0
M  V30 27053 C 2578.03 -2.74424 2.12859 0
M  V30 27054 C 2576.99 -2.7411 3.28706 0
M  V30 27055 C 2576.31 -4.13838 3.38589 0
M  V30 27056 C 2577.61 -2.36112 4.65885 0
M  V30 27057 H 2579.31 -1.09961 2.78476 0
M  V30 27058 H 2576.85 -0.527533 1.33989 0
M  V30 27059 H 2578.81 -3.49754 2.35053 0
M  V30 27060 H 2577.53 -3.03937 1.1954 0
M  V30 27061 H 2576.19 -2.01235 3.06431 0
M  V30 27062 H 2575.84 -4.40524 2.42792 0
M  V30 27063 H 2575.54 -4.1453 4.1646 0
M  V30 27064 H 2577.06 -4.90953 3.6304 0
M  V30 27065 H 2578.47 -3.01158 4.87829 0
M  V30 27066 H 2576.87 -2.48021 5.46448 0
M  V30 27067 H 2577.94 -1.31241 4.66802 0
M  V30 27068 N 2579.28 -1.47047 -0.566994 0
M  V30 27069 C 2580.22 -1.54847 -1.68982 0
M  V30 27070 C 2581.23 -0.435459 -1.56868 0
M  V30 27071 O 2582.42 -0.704599 -1.64005 0
M  V30 27072 C 2579.52 -1.42748 -3.0737 0
M  V30 27073 C 2578.69 -2.68446 -3.45334 0
M  V30 27074 C 2577.75 -2.50322 -4.62845 0
M  V30 27075 O 2576.78 -3.24103 -4.67916 0
M  V30 27076 N 2577.98 -1.57509 -5.58723 0
M  V30 27077 H 2580.74 -2.51666 -1.6274 0
M  V30 27078 H 2578.3 -1.43303 -0.753385 0
M  V30 27079 H 2580.3 -1.28372 -3.838 0
M  V30 27080 H 2578.87 -0.540499 -3.07892 0
M  V30 27081 H 2578.09 -2.97653 -2.5845 0
M  V30 27082 H 2579.37 -3.51914 -3.6747 0
M  V30 27083 H 2578.77 -0.966974 -5.57374 0
M  V30 27084 H 2577.33 -1.49089 -6.3452 0
M  V30 27085 N 2580.76 0.812929 -1.35016 0
M  V30 27086 C 2581.69 1.93916 -1.30072 0
M  V30 27087 C 2582.67 1.69184 -0.176304 0
M  V30 27088 O 2583.86 1.90638 -0.370261 0
M  V30 27089 C 2580.99 3.30551 -1.06553 0
M  V30 27090 C 2579.94 3.69749 -2.15568 0
M  V30 27091 C 2579.27 5.04476 -1.77223 0
M  V30 27092 C 2580.57 3.80793 -3.57483 0
M  V30 27093 H 2582.26 1.9831 -2.24307 0
M  V30 27094 H 2579.81 0.952717 -1.07978 0
M  V30 27095 H 2581.76 4.08935 -1.01736 0
M  V30 27096 H 2580.49 3.26482 -0.0876293 0
M  V30 27097 H 2579.14 2.93646 -2.19471 0
M  V30 27098 H 2578.79 4.96905 -0.780676 0
M  V30 27099 H 2578.49 5.31674 -2.50194 0
M  V30 27100 H 2580.02 5.85307 -1.7392 0
M  V30 27101 H 2581.43 4.49424 -3.55937 0
M  V30 27102 H 2579.83 4.19455 -4.2916 0
M  V30 27103 H 2580.9 2.82518 -3.94096 0
M  V30 27104 N 2582.24 1.18909 1.03433 0
M  V30 27105 C 2583.49 0.989829 1.77003 0
M  V30 27106 C 2583.82 -0.478783 1.88205 0
M  V30 27107 O 2583.09 -1.35553 1.39483 0
M  V30 27108 C 2583.38 1.65293 3.19922 0
M  V30 27109 C 2583.23 3.19482 3.16625 0
M  V30 27110 C 2584.55 1.37141 4.18187 0
M  V30 27111 H 2581.67 0.361002 0.642531 0
M  V30 27112 H 2584.31 1.46669 1.20782 0
M  V30 27113 H 2582.46 1.24747 3.67927 0
M  V30 27114 H 2584.13 3.69205 2.7656 0
M  V30 27115 H 2582.38 3.51311 2.54485 0
M  V30 27116 H 2583.05 3.61021 4.17574 0
M  V30 27117 H 2585.52 1.72283 3.78758 0
M  V30 27118 H 2584.4 1.86096 5.16391 0
M  V30 27119 H 2584.66 0.295502 4.41111 0
M  V30 27120 N 2583.72 -1.22452 0.992137 0
M  V30 27121 C 2584.97 -1.90802 0.666249 0
M  V30 27122 C 2585.29 -1.77648 -0.80412 0
M  V30 27123 O 2584.56 -1.16321 -1.57627 0
M  V30 27124 H 2583.14 -0.706221 0.243435 0
M  V30 27125 H 2585.8 -1.48823 1.25848 0
M  V30 27126 H 2584.9 -2.9798 0.928121 0
M  V30 27127 N 2585.2 -0.765242 -1.37774 0
M  V30 27128 C 2586.45 -0.323342 -1.99091 0
M  V30 27129 C 2586.76 1.10444 -1.61436 0
M  V30 27130 O 2587.96 1.64739 -2.15808 0
M  V30 27131 C 2586.42 -0.52716 -3.56018 0
M  V30 27132 C 2586.03 -1.96478 -4.02617 0
M  V30 27133 C 2587.77 -0.148557 -4.2424 0
M  V30 27134 C 2585.68 -2.11654 -5.52229 0
M  V30 27135 H 2584.61 -0.11715 -0.744844 0
M  V30 27136 H 2587.26 -0.943444 -1.57389 0
M  V30 27137 H 2585.64 0.162303 -3.95667 0
M  V30 27138 H 2586.82 -2.68866 -3.74229 0
M  V30 27139 H 2585.13 -2.29937 -3.47157 0
M  V30 27140 H 2587.73 -0.24055 -5.34159 0
M  V30 27141 H 2588.07 0.900351 -4.06447 0
M  V30 27142 H 2588.6 -0.790318 -3.8987 0
M  V30 27143 H 2585.34 -3.1484 -5.7494 0
M  V30 27144 H 2584.86 -1.43741 -5.82322 0
M  V30 27145 H 2586.54 -1.91203 -6.18102 0
M  V30 27146 N 2586.67 1.48939 -0.515251 0
M  V30 27147 C 2587.6 2.32215 0.244587 0
M  V30 27148 C 2588.59 1.41159 0.949111 0
M  V30 27149 O 2589.77 1.70058 0.937753 0
M  V30 27150 C 2586.9 3.22015 1.30091 0
M  V30 27151 C 2585.85 4.21978 0.715412 0
M  V30 27152 C 2585.18 5.00811 1.8733 0
M  V30 27153 C 2586.48 5.2142 -0.303073 0
M  V30 27154 H 2588.17 2.95991 -0.450553 0
M  V30 27155 H 2585.72 1.42338 -0.218123 0
M  V30 27156 H 2587.67 3.79092 1.84031 0
M  V30 27157 H 2586.4 2.56211 2.02543 0
M  V30 27158 H 2585.06 3.66067 0.197651 0
M  V30 27159 H 2584.7 4.31443 2.58585 0
M  V30 27160 H 2584.4 5.68459 1.48754 0
M  V30 27161 H 2585.93 5.60736 2.41677 0
M  V30 27162 H 2587.34 5.73107 0.148701 0
M  V30 27163 H 2585.74 5.97038 -0.605425 0
M  V30 27164 H 2586.81 4.69456 -1.21403 0
M  V30 27165 N 2588.15 0.249709 1.55609 0
M  V30 27166 C 2589.08 -0.642787 2.24478 0
M  V30 27167 C 2590.06 -1.17909 1.22603 0
M  V30 27168 O 2591.25 -1.21792 1.51263 0
M  V30 27169 C 2588.38 -1.83858 2.94641 0
M  V30 27170 C 2587.33 -1.43493 4.03229 0
M  V30 27171 C 2586.66 -2.71178 4.60833 0
M  V30 27172 C 2587.96 -0.60391 5.18797 0
M  V30 27173 H 2589.65 -0.0685099 2.99322 0
M  V30 27174 H 2587.2 -0.031511 1.43966 0
M  V30 27175 H 2589.15 -2.46862 3.41522 0
M  V30 27176 H 2587.88 -2.43828 2.17291 0
M  V30 27177 H 2586.54 -0.828212 3.57122 0
M  V30 27178 H 2586.18 -3.29352 3.8018 0
M  V30 27179 H 2585.88 -2.44892 5.34137 0
M  V30 27180 H 2587.41 -3.35075 5.10448 0
M  V30 27181 H 2588.82 -1.13832 5.61885 0
M  V30 27182 H 2587.22 -0.436992 5.98507 0
M  V30 27183 H 2588.29 0.383232 4.83383 0
M  V30 27184 N 2589.63 -1.57583 -0.0233682 0
M  V30 27185 C 2590.54 -2.10336 -1.03904 0
M  V30 27186 C 2591.56 -1.04326 -1.39256 0
M  V30 27187 O 2592.73 -1.36094 -1.4846 0
M  V30 27188 C 2589.8 -2.57697 -2.31933 0
M  V30 27189 C 2588.86 -3.78213 -2.0311 0
M  V30 27190 C 2588.09 -4.23306 -3.25036 0
M  V30 27191 O 2588.32 -3.67884 -4.3591 0
M  V30 27192 O 2587.25 -5.15688 -3.10402 0
M  V30 27193 H 2591.08 -2.9729 -0.620695 0
M  V30 27194 H 2588.66 -1.47448 -0.240717 0
M  V30 27195 H 2590.54 -2.88464 -3.07191 0
M  V30 27196 H 2589.22 -1.73852 -2.73052 0
M  V30 27197 H 2588.12 -3.52456 -1.25402 0
M  V30 27198 H 2589.46 -4.63059 -1.66844 0
M  V30 27199 N 2591.11 0.29574 -1.548 0
M  V30 27200 C 2592.39 1.0502 -1.65016 0
M  V30 27201 C 2592.77 2.05048 -0.501841 0
M  V30 27202 O 2592.11 2.22944 0.50083 0
M  V30 27203 C 2592.32 1.72736 -3.03255 0
M  V30 27204 C 2593.67 2.24739 -3.60246 0
M  V30 27205 O 2594.7 1.8276 -3.05741 0
M  V30 27206 O 2593.56 3.01673 -4.55693 0
M  V30 27207 H 2590.65 0.485732 -0.669323 0
M  V30 27208 H 2593.2 0.293409 -1.67144 0
M  V30 27209 H 2591.97 1.00131 -3.78272 0
M  V30 27210 H 2591.59 2.55158 -3.04927 0
M  V30 27211 N 2592.59 1.47346 0.559187 0
M  V30 27212 C 2593.84 1.5313 1.31278 0
M  V30 27213 C 2594.15 0.197378 1.94602 0
M  V30 27214 O 2595.36 0.133201 2.71173 0
M  V30 27215 C 2593.81 2.69929 2.38046 0
M  V30 27216 C 2593.42 4.09843 1.80922 0
M  V30 27217 C 2595.16 2.85004 3.14599 0
M  V30 27218 C 2593.07 5.17945 2.85459 0
M  V30 27219 H 2592 0.569975 0.493604 0
M  V30 27220 H 2594.65 1.73616 0.594125 0
M  V30 27221 H 2593.03 2.4282 3.12817 0
M  V30 27222 H 2594.21 4.46847 1.12537 0
M  V30 27223 H 2592.52 3.99636 1.1696 0
M  V30 27224 H 2595.12 3.62936 3.92659 0
M  V30 27225 H 2595.46 1.93375 3.68662 0
M  V30 27226 H 2596 3.11875 2.46939 0
M  V30 27227 H 2592.73 6.11445 2.36254 0
M  V30 27228 H 2592.25 4.85461 3.52261 0
M  V30 27229 H 2593.93 5.44809 3.48987 0
M  V30 27230 N 2594.07 -0.805758 1.35445 0
M  V30 27231 C 2595.31 -1.5652 1.28955 0
M  V30 27232 C 2595.64 -1.93726 -0.135563 0
M  V30 27233 O 2594.92 -1.61416 -1.08513 0
M  V30 27234 C 2595.2 -2.85327 2.19683 0
M  V30 27235 C 2595.06 -2.54592 3.70814 0
M  V30 27236 C 2596.37 -3.87036 2.09502 0
M  V30 27237 H 2593.49 -0.567874 0.469774 0
M  V30 27238 H 2596.14 -0.926971 1.65853 0
M  V30 27239 H 2594.29 -3.39791 1.88346 0
M  V30 27240 H 2595.96 -2.06304 4.12597 0
M  V30 27241 H 2594.2 -1.87773 3.91055 0
M  V30 27242 H 2594.87 -3.46518 4.29685 0
M  V30 27243 H 2597.35 -3.41974 2.37051 0
M  V30 27244 H 2596.22 -4.74939 2.75181 0
M  V30 27245 H 2596.48 -4.28775 1.07722 0
M  V30 27246 N 2595.54 -1.19456 -1.02801 0
M  V30 27247 C 2596.77 -1.023 -1.7984 0
M  V30 27248 C 2597.19 0.428227 -1.83879 0
M  V30 27249 O 2596.54 1.29743 -1.28347 0
M  V30 27250 C 2596.59 -1.58604 -3.24849 0
M  V30 27251 O 2596.32 -2.98046 -3.21092 0
M  V30 27252 C 2597.82 -1.46243 -4.18483 0
M  V30 27253 H 2595.04 -0.360506 -0.56593 0
M  V30 27254 H 2597.58 -1.58291 -1.29477 0
M  V30 27255 H 2595.74 -1.0676 -3.72399 0
M  V30 27256 H 2596.15 -3.24552 -4.12027 0
M  V30 27257 H 2597.62 -1.90417 -5.18117 0
M  V30 27258 H 2598.1 -0.413087 -4.37253 0
M  V30 27259 H 2598.71 -1.97222 -3.76807 0
M  V30 27260 N 2597.02 1.21924 -0.998617 0
M  V30 27261 C 2597.97 2.24061 -0.55366 0
M  V30 27262 C 2598.94 1.60781 0.41697 0
M  V30 27263 O 2600.12 1.8809 0.320449 0
M  V30 27264 C 2597.26 3.44892 0.119898 0
M  V30 27265 C 2596.38 4.22666 -0.893151 0
M  V30 27266 C 2595.51 5.30851 -0.192517 0
M  V30 27267 C 2594.55 6.00351 -1.19355 0
M  V30 27268 N 2593.69 7.00166 -0.52083 0
M  V30 27269 H 2598.53 2.61484 -1.42934 0
M  V30 27270 H 2596.06 1.28506 -0.715861 0
M  V30 27271 H 2598.02 4.13853 0.527387 0
M  V30 27272 H 2596.65 3.08215 0.959335 0
M  V30 27273 H 2595.7 3.52946 -1.41893 0
M  V30 27274 H 2597.02 4.70536 -1.6552 0
M  V30 27275 H 2596.17 6.06093 0.271408 0
M  V30 27276 H 2594.91 4.8397 0.60199 0
M  V30 27277 H 2593.91 5.23886 -1.66805 0
M  V30 27278 H 2595.14 6.49318 -1.98903 0
M  V30 27279 H 2593.09 6.55508 0.254137 0
M  V30 27280 H 2593 7.46071 -1.22123 0
M  V30 27281 H 2594.27 7.79459 -0.0798966 0
M  V30 27282 N 2598.5 0.772537 1.37367 0
M  V30 27283 C 2599.43 0.117542 2.28898 0
M  V30 27284 C 2600.44 -0.663379 1.48671 0
M  V30 27285 O 2601.63 -0.501341 1.71315 0
M  V30 27286 C 2598.73 -0.857135 3.27882 0
M  V30 27287 C 2597.91 -0.129861 4.37207 0
M  V30 27288 C 2596.97 -1.01802 5.16258 0
M  V30 27289 O 2595.99 -0.481501 5.6716 0
M  V30 27290 N 2597.19 -2.3442 5.31063 0
M  V30 27291 H 2599.96 0.903712 2.8575 0
M  V30 27292 H 2597.52 0.624956 1.49352 0
M  V30 27293 H 2599.51 -1.45475 3.77649 0
M  V30 27294 H 2598.08 -1.54427 2.71792 0
M  V30 27295 H 2597.3 0.648673 3.88826 0
M  V30 27296 H 2598.59 0.372648 5.07434 0
M  V30 27297 H 2597.99 -2.80444 4.91292 0
M  V30 27298 H 2596.54 -2.89187 5.84136 0
M  V30 27299 N 2599.98 -1.48664 0.523142 0
M  V30 27300 C 2600.91 -2.32342 -0.232269 0
M  V30 27301 C 2601.89 -1.4166 -0.941612 0
M  V30 27302 O 2603.07 -1.70553 -0.928721 0
M  V30 27303 C 2600.2 -3.227 -1.28381 0
M  V30 27304 C 2599.16 -4.22352 -0.693024 0
M  V30 27305 C 2598.48 -5.01797 -1.84672 0
M  V30 27306 C 2599.78 -5.21252 0.330721 0
M  V30 27307 H 2601.48 -2.95747 0.466244 0
M  V30 27308 H 2599.02 -1.42221 0.225668 0
M  V30 27309 H 2600.98 -3.80063 -1.82018 0
M  V30 27310 H 2599.7 -2.57281 -2.01181 0
M  V30 27311 H 2598.36 -3.66166 -0.178235 0
M  V30 27312 H 2598.01 -4.32808 -2.56293 0
M  V30 27313 H 2597.71 -5.6924 -1.45737 0
M  V30 27314 H 2599.23 -5.6201 -2.38699 0
M  V30 27315 H 2600.65 -5.73178 -0.118306 0
M  V30 27316 H 2599.04 -5.96709 0.637079 0
M  V30 27317 H 2600.11 -4.68806 1.23891 0
M  V30 27318 N 2601.46 -0.257958 -1.55475 0
M  V30 27319 C 2602.4 0.6369 -2.21838 0
M  V30 27320 C 2603.37 1.16292 -1.18598 0
M  V30 27321 O 2604.56 1.21537 -1.47083 0
M  V30 27322 C 2601.7 1.82312 -2.93013 0
M  V30 27323 C 2600.81 1.33258 -4.10934 0
M  V30 27324 C 2599.95 2.47923 -4.69795 0
M  V30 27325 C 2598.98 1.95786 -5.79943 0
M  V30 27326 N 2598.12 3.03859 -6.32941 0
M  V30 27327 H 2602.96 0.0643067 -2.97931 0
M  V30 27328 H 2600.5 0.0199772 -1.47086 0
M  V30 27329 H 2602.46 2.52012 -3.32484 0
M  V30 27330 H 2601.09 2.36801 -2.19374 0
M  V30 27331 H 2600.14 0.529244 -3.767 0
M  V30 27332 H 2601.45 0.910568 -4.90418 0
M  V30 27333 H 2600.6 3.25647 -5.11898 0
M  V30 27334 H 2599.34 2.93431 -3.89551 0
M  V30 27335 H 2598.35 1.16536 -5.37308 0
M  V30 27336 H 2599.57 1.51234 -6.62046 0
M  V30 27337 H 2597.52 3.48781 -5.55597 0
M  V30 27338 H 2597.44 2.66023 -7.07649 0
M  V30 27339 H 2598.7 3.81609 -6.79702 0
M  V30 27340 N 2602.93 1.57593 0.0150108 0
M  V30 27341 C 2604.18 1.90188 0.70401 0
M  V30 27342 C 2604.51 0.857396 1.74248 0
M  V30 27343 O 2603.79 -0.125809 1.94093 0
M  V30 27344 C 2604.07 3.33398 1.36081 0
M  V30 27345 C 2603.92 4.48551 0.334902 0
M  V30 27346 C 2605.24 3.75764 2.29105 0
M  V30 27347 H 2602.36 0.691677 0.254463 0
M  V30 27348 H 2605 1.89971 -0.0332012 0
M  V30 27349 H 2603.15 3.33713 1.98916 0
M  V30 27350 H 2604.83 4.60371 -0.292615 0
M  V30 27351 H 2603.07 4.32431 -0.344401 0
M  V30 27352 H 2603.74 5.45675 0.83322 0
M  V30 27353 H 2606.22 3.76905 1.76301 0
M  V30 27354 H 2605.09 4.76748 2.72035 0
M  V30 27355 H 2605.35 3.08798 3.1638 0
M  V30 27356 N 2604.41 -0.287527 1.54955 0
M  V30 27357 C 2605.32 -1.37733 1.89913 0
M  V30 27358 C 2606.34 -1.5479 0.794729 0
M  V30 27359 O 2607.51 -1.69196 1.09246 0
M  V30 27360 C 2604.58 -2.71896 2.15113 0
M  V30 27361 C 2603.64 -2.63709 3.38757 0
M  V30 27362 C 2602.87 -3.91473 3.62746 0
M  V30 27363 O 2603.1 -4.91473 2.89501 0
M  V30 27364 O 2602.03 -3.92553 4.56274 0
M  V30 27365 H 2605.86 -1.11087 2.82654 0
M  V30 27366 H 2603.44 -0.484782 1.41316 0
M  V30 27367 H 2605.32 -3.5125 2.32812 0
M  V30 27368 H 2604 -2.98358 1.25556 0
M  V30 27369 H 2602.91 -1.8278 3.26408 0
M  V30 27370 H 2604.24 -2.42198 4.28487 0
M  V30 27371 N 2605.89 -1.47641 -0.551365 0
M  V30 27372 C 2606.82 -1.55113 -1.67378 0
M  V30 27373 C 2607.8 -0.402884 -1.5753 0
M  V30 27374 O 2608.99 -0.611506 -1.78306 0
M  V30 27375 C 2606.11 -1.45914 -3.05658 0
M  V30 27376 C 2605.16 -2.65313 -3.33933 0
M  V30 27377 S 2605.99 -4.27463 -3.22546 0
M  V30 27378 C 2607.15 -4.20826 -4.6331 0
M  V30 27379 H 2607.38 -2.5007 -1.60786 0
M  V30 27380 H 2604.91 -1.3591 -0.73265 0
M  V30 27381 H 2606.87 -1.41293 -3.85417 0
M  V30 27382 H 2605.53 -0.523302 -3.0971 0
M  V30 27383 H 2604.73 -2.54956 -4.34757 0
M  V30 27384 H 2604.33 -2.67086 -2.61804 0
M  V30 27385 H 2606.62 -3.89441 -5.54385 0
M  V30 27386 H 2607.56 -5.21756 -4.78723 0
M  V30 27387 H 2607.97 -3.51601 -4.4163 0
M  V30 27388 N 2607.37 0.798563 -1.3587 0
M  V30 27389 C 2608.59 1.59236 -1.32886 0
M  V30 27390 C 2609.02 1.87887 0.0894257 0
M  V30 27391 O 2608.38 1.4718 1.05866 0
M  V30 27392 C 2608.42 2.89571 -2.14897 0
M  V30 27393 O 2607.53 3.82761 -1.53519 0
M  V30 27394 H 2606.87 0.483372 -0.455245 0
M  V30 27395 H 2609.4 0.990507 -1.79025 0
M  V30 27396 H 2609.41 3.38924 -2.27145 0
M  V30 27397 H 2608.08 2.68043 -3.18003 0
M  V30 27398 H 2606.66 3.41331 -1.50159 0
M  V30 27399 N 2608.85 1.19999 1.02166 0
M  V30 27400 C 2609.76 0.959811 2.14067 0
M  V30 27401 C 2610.77 -0.0826244 1.73804 0
M  V30 27402 O 2611.95 0.103669 2.01133 0
M  V30 27403 C 2609.01 0.509519 3.42936 0
M  V30 27404 C 2608.07 1.6222 3.97471 0
M  V30 27405 C 2607.31 1.1933 5.20188 0
M  V30 27406 O 2607.53 0.0598729 5.70369 0
M  V30 27407 O 2606.46 1.99873 5.67745 0
M  V30 27408 H 2610.29 1.89662 2.37196 0
M  V30 27409 H 2607.88 0.983431 1.12468 0
M  V30 27410 H 2609.76 0.267396 4.20551 0
M  V30 27411 H 2608.43 -0.398764 3.21234 0
M  V30 27412 H 2607.34 1.91856 3.21158 0
M  V30 27413 H 2608.67 2.50731 4.2355 0
M  V30 27414 N 2610.32 -1.21392 1.00507 0
M  V30 27415 C 2611.26 -2.23135 0.523759 0
M  V30 27416 C 2612.27 -1.58117 -0.387686 0
M  V30 27417 O 2613.46 -1.77509 -0.187874 0
M  V30 27418 C 2610.56 -3.3791 -0.258826 0
M  V30 27419 C 2609.73 -4.32518 0.65171 0
M  V30 27420 C 2608.79 -5.26137 -0.081278 0
M  V30 27421 O 2607.82 -5.66657 0.537395 0
M  V30 27422 N 2609.02 -5.64348 -1.35982 0
M  V30 27423 H 2611.78 -2.6506 1.39869 0
M  V30 27424 H 2609.34 -1.35817 0.88122 0
M  V30 27425 H 2611.34 -3.97535 -0.758138 0
M  V30 27426 H 2609.91 -2.9497 -1.03495 0
M  V30 27427 H 2609.13 -3.71031 1.33151 0
M  V30 27428 H 2610.41 -4.9266 1.27137 0
M  V30 27429 H 2609.81 -5.33421 -1.88359 0
M  V30 27430 H 2608.37 -6.26335 -1.80408 0
M  V30 27431 N 2611.8 -0.779811 -1.36955 0
M  V30 27432 C 2612.73 -0.12968 -2.28833 0
M  V30 27433 C 2613.75 0.655485 -1.49021 0
M  V30 27434 O 2614.94 0.492249 -1.71578 0
M  V30 27435 C 2612.04 0.839734 -3.28332 0
M  V30 27436 C 2611.21 0.106673 -4.3727 0
M  V30 27437 C 2610.27 0.990626 -5.16791 0
M  V30 27438 O 2609.29 0.451416 -5.67407 0
M  V30 27439 N 2610.5 2.31601 -5.32298 0
M  V30 27440 H 2613.26 -0.918853 -2.85267 0
M  V30 27441 H 2610.82 -0.632868 -1.49018 0
M  V30 27442 H 2612.81 1.4347 -3.78416 0
M  V30 27443 H 2611.38 1.52983 -2.72607 0
M  V30 27444 H 2610.6 -0.669285 -3.88477 0
M  V30 27445 H 2611.89 -0.399553 -5.07229 0
M  V30 27446 H 2611.29 2.77834 -4.92772 0
M  V30 27447 H 2609.85 2.86085 -5.85661 0
M  V30 27448 N 2613.28 1.48384 -0.531019 0
M  V30 27449 C 2614.23 2.26614 0.251052 0
M  V30 27450 C 2615.21 1.32766 0.908953 0
M  V30 27451 O 2616.41 1.57297 0.811588 0
M  V30 27452 C 2613.54 3.17868 1.29672 0
M  V30 27453 C 2612.62 4.19189 0.643553 0
M  V30 27454 N 2613.01 5.05072 -0.271311 0
M  V30 27455 C 2611.31 4.36812 0.900634 0
M  V30 27456 C 2612.01 5.78077 -0.648211 0
M  V30 27457 N 2610.99 5.43599 -0.00905542 0
M  V30 27458 H 2614.79 2.90392 -0.452753 0
M  V30 27459 H 2612.3 1.58603 -0.349119 0
M  V30 27460 H 2614.3 3.72572 1.87072 0
M  V30 27461 H 2612.96 2.55645 2.00189 0
M  V30 27462 H 2613.97 5.13881 -0.643973 0
M  V30 27463 H 2610.65 3.85778 1.5963 0
M  V30 27464 H 2612.04 6.57186 -1.39845 0
M  V30 27465 N 2614.76 0.2662 1.55336 0
M  V30 27466 C 2615.99 -0.35672 2.03802 0
M  V30 27467 C 2616.4 -1.50127 1.14487 0
M  V30 27468 O 2615.76 -1.81769 0.163153 0
M  V30 27469 C 2615.81 -0.846219 3.51456 0
M  V30 27470 O 2615.53 0.25274 4.3737 0
M  V30 27471 C 2617.03 -1.53787 4.1577 0
M  V30 27472 H 2614.25 -0.0825101 0.665908 0
M  V30 27473 H 2616.8 0.395695 2.00635 0
M  V30 27474 H 2614.95 -1.54875 3.55095 0
M  V30 27475 H 2615.36 -0.122081 5.24358 0
M  V30 27476 H 2616.84 -1.83188 5.20717 0
M  V30 27477 H 2617.32 -2.4664 3.63408 0
M  V30 27478 H 2617.92 -0.879415 4.16109 0
M  V30 27479 N 2616.24 -1.57599 -0.0066531 0
M  V30 27480 C 2617.48 -1.90277 -0.692887 0
M  V30 27481 C 2617.81 -0.866223 -1.74146 0
M  V30 27482 O 2617.07 0.129899 -1.95268 0
M  V30 27483 C 2617.37 -3.29711 -1.37933 0
M  V30 27484 C 2617.03 -4.485 -0.4646 0
M  V30 27485 C 2615.69 -4.8073 -0.212725 0
M  V30 27486 C 2618.05 -5.20937 0.165602 0
M  V30 27487 C 2615.37 -5.82772 0.677756 0
M  V30 27488 C 2617.73 -6.23927 1.04392 0
M  V30 27489 C 2616.39 -6.54618 1.30504 0
M  V30 27490 H 2615.66 -0.696273 -0.253545 0
M  V30 27491 H 2618.31 -1.91441 0.0474459 0
M  V30 27492 H 2616.61 -3.24639 -2.19355 0
M  V30 27493 H 2618.31 -3.52252 -1.91623 0
M  V30 27494 H 2614.9 -4.23314 -0.671079 0
M  V30 27495 H 2619.08 -4.96297 -0.0159884 0
M  V30 27496 H 2614.34 -6.04915 0.888136 0
M  V30 27497 H 2618.51 -6.7919 1.53863 0
M  V30 27498 H 2616.14 -7.33508 1.99675 0
M  V30 27499 N 2617.72 0.279305 -1.55105 0
M  V30 27500 C 2618.95 1.02864 -1.79172 0
M  V30 27501 C 2619.35 1.80658 -0.562072 0
M  V30 27502 O 2618.7 1.77366 0.478235 0
M  V30 27503 C 2618.76 2.03927 -2.96064 0
M  V30 27504 C 2618.42 1.45129 -4.33343 0
M  V30 27505 C 2619.42 0.870176 -5.12566 0
M  V30 27506 C 2617.1 1.48039 -4.79989 0
M  V30 27507 C 2619.1 0.325985 -6.36566 0
M  V30 27508 C 2616.79 0.932337 -6.03946 0
M  V30 27509 C 2617.78 0.356127 -6.82071 0
M  V30 27510 O 2617.47 -0.183553 -8.0369 0
M  V30 27511 H 2617.2 0.309861 -0.600801 0
M  V30 27512 H 2619.76 0.317432 -2.02932 0
M  V30 27513 H 2617.99 2.78789 -2.6798 0
M  V30 27514 H 2619.68 2.64938 -3.07511 0
M  V30 27515 H 2620.44 0.840437 -4.77663 0
M  V30 27516 H 2616.32 1.91828 -4.19193 0
M  V30 27517 H 2619.87 -0.124409 -6.97489 0
M  V30 27518 H 2615.76 0.959295 -6.38332 0
M  V30 27519 H 2616.53 -0.0723119 -8.18468 0
M  V30 27520 N 2619.19 1.47931 0.543528 0
M  V30 27521 C 2620.43 1.56845 1.31069 0
M  V30 27522 C 2620.8 0.231158 1.90603 0
M  V30 27523 O 2622 0.195212 2.6809 0
M  V30 27524 C 2620.27 2.66538 2.38102 0
M  V30 27525 S 2621.83 2.95127 3.24723 0
M  V30 27526 H 2618.65 0.553699 0.446026 0
M  V30 27527 H 2621.25 1.85383 0.620744 0
M  V30 27528 H 2619.95 3.62281 1.92822 0
M  V30 27529 H 2619.48 2.39858 3.1182 0
M  V30 27530 H 2621.5 2.33388 4.37887 0
M  V30 27531 N 2620.67 -0.791347 1.36292 0
M  V30 27532 C 2621.6 -1.91246 1.26324 0
M  V30 27533 C 2622.62 -1.61766 0.183158 0
M  V30 27534 O 2623.81 -1.7305 0.437713 0
M  V30 27535 C 2620.91 -3.26005 0.925959 0
M  V30 27536 C 2620.08 -3.83278 2.10753 0
M  V30 27537 C 2619.14 -4.96472 1.74361 0
M  V30 27538 O 2618.16 -5.13092 2.46425 0
M  V30 27539 N 2619.37 -5.76549 0.676159 0
M  V30 27540 H 2622.13 -2.00319 2.22918 0
M  V30 27541 H 2619.69 -0.969523 1.29661 0
M  V30 27542 H 2621.68 -3.99221 0.663706 0
M  V30 27543 H 2620.25 -3.12561 0.049213 0
M  V30 27544 H 2619.47 -3.02073 2.5327 0
M  V30 27545 H 2620.76 -4.18274 2.89697 0
M  V30 27546 H 2620.16 -5.65647 0.0777461 0
M  V30 27547 H 2618.72 -6.50076 0.473726 0
M  V30 27548 N 2622.15 -1.2054 -1.01528 0
M  V30 27549 C 2623.06 -0.97115 -2.13555 0
M  V30 27550 C 2624.08 0.073406 -1.73845 0
M  V30 27551 O 2625.25 -0.114334 -2.01075 0
M  V30 27552 C 2622.32 -0.527699 -3.42661 0
M  V30 27553 C 2621.38 -1.64326 -3.96605 0
M  V30 27554 C 2620.61 -1.22087 -5.19548 0
M  V30 27555 O 2620.83 -0.0901201 -5.70329 0
M  V30 27556 O 2619.77 -2.02881 -5.66677 0
M  V30 27557 H 2623.59 -1.90917 -2.36187 0
M  V30 27558 H 2621.18 -0.989382 -1.11945 0
M  V30 27559 H 2623.06 -0.289695 -4.20403 0
M  V30 27560 H 2621.74 0.381723 -3.21441 0
M  V30 27561 H 2620.64 -1.93556 -3.20136 0
M  V30 27562 H 2621.98 -2.52973 -4.22215 0
M  V30 27563 N 2623.63 1.20858 -1.01149 0
M  V30 27564 C 2624.56 2.25721 -0.597702 0
M  V30 27565 C 2625.54 1.65692 0.384714 0
M  V30 27566 O 2626.72 1.92296 0.271269 0
M  V30 27567 C 2623.85 3.4723 0.0699539 0
M  V30 27568 C 2622.81 4.19817 -0.832917 0
M  V30 27569 C 2622.13 5.34691 -0.0313142 0
M  V30 27570 C 2623.43 4.7651 -2.13858 0
M  V30 27571 H 2625.13 2.60587 -1.47428 0
M  V30 27572 H 2622.67 1.25261 -0.710323 0
M  V30 27573 H 2624.63 4.19764 0.370956 0
M  V30 27574 H 2623.35 3.11512 0.981205 0
M  V30 27575 H 2622.01 3.49142 -1.11784 0
M  V30 27576 H 2621.66 4.95217 0.881428 0
M  V30 27577 H 2621.36 5.84186 -0.632536 0
M  V30 27578 H 2622.88 6.10032 0.263353 0
M  V30 27579 H 2624.3 5.4089 -1.90029 0
M  V30 27580 H 2622.69 5.36421 -2.69022 0
M  V30 27581 H 2623.76 3.95533 -2.80502 0
M  V30 27582 N 2625.11 0.787064 1.3654 0
M  V30 27583 C 2626.35 0.357668 1.9891 0
M  V30 27584 C 2626.67 -1.07368 1.6278 0
M  V30 27585 O 2625.94 -1.73969 0.900642 0
M  V30 27586 H 2624.52 0.129259 0.735732 0
M  V30 27587 H 2627.19 1.00858 1.66774 0
M  V30 27588 H 2626.28 0.447603 3.08874 0
M  V30 27589 N 2626.58 -1.48101 0.53888 0
M  V30 27590 C 2627.81 -2.06896 0.01235 0
M  V30 27591 C 2628.23 -1.39419 -1.2731 0
M  V30 27592 O 2627.58 -0.484613 -1.75948 0
M  V30 27593 C 2627.63 -3.60912 -0.206055 0
M  V30 27594 O 2627.36 -4.25857 1.02847 0
M  V30 27595 C 2628.86 -4.36527 -0.771956 0
M  V30 27596 H 2626.08 -0.669949 0.0375357 0
M  V30 27597 H 2628.62 -1.90366 0.747065 0
M  V30 27598 H 2626.78 -3.77018 -0.890844 0
M  V30 27599 H 2627.19 -5.18133 0.814745 0
M  V30 27600 H 2628.66 -5.45034 -0.874155 0
M  V30 27601 H 2629.14 -4.01559 -1.77897 0
M  V30 27602 H 2629.75 -4.25121 -0.123451 0
M  V30 27603 N 2628.06 -0.274434 -1.55192 0
M  V30 27604 C 2628.99 0.606993 -2.25473 0
M  V30 27605 C 2629.97 1.15944 -1.24463 0
M  V30 27606 O 2631.16 1.1937 -1.53181 0
M  V30 27607 C 2628.29 1.79147 -2.97529 0
M  V30 27608 C 2627.24 1.37059 -4.05461 0
M  V30 27609 C 2626.57 2.63812 -4.65089 0
M  V30 27610 C 2627.87 0.521298 -5.19692 0
M  V30 27611 H 2629.56 0.0208817 -2.99393 0
M  V30 27612 H 2627.11 0.00860334 -1.43997 0
M  V30 27613 H 2629.06 2.41398 -3.45406 0
M  V30 27614 H 2627.78 2.4034 -2.21143 0
M  V30 27615 H 2626.44 0.771292 -3.58395 0
M  V30 27616 H 2626.09 3.23262 -3.85371 0
M  V30 27617 H 2625.79 2.36363 -5.37965 0
M  V30 27618 H 2627.32 3.26912 -5.15714 0
M  V30 27619 H 2628.73 1.04879 -5.63625 0
M  V30 27620 H 2627.13 0.34172 -5.99126 0
M  V30 27621 H 2628.2 -0.460085 -4.82712 0
M  V30 27622 N 2629.54 1.576 -0.00170483 0
M  V30 27623 C 2630.47 2.11565 0.988053 0
M  V30 27624 C 2631.45 1.02519 1.35735 0
M  V30 27625 O 2632.64 1.3021 1.44079 0
M  V30 27626 C 2629.77 2.62035 2.27937 0
M  V30 27627 C 2628.72 3.75622 2.05163 0
M  V30 27628 C 2628.05 4.12413 3.40323 0
M  V30 27629 C 2629.35 5.02828 1.41285 0
M  V30 27630 H 2631.04 2.94513 0.538719 0
M  V30 27631 H 2628.59 1.41676 0.257687 0
M  V30 27632 H 2630.54 2.98415 2.97533 0
M  V30 27633 H 2629.26 1.7621 2.74986 0
M  V30 27634 H 2627.92 3.39638 1.37992 0
M  V30 27635 H 2627.57 3.2361 3.85079 0
M  V30 27636 H 2627.27 4.8894 3.25901 0
M  V30 27637 H 2628.79 4.51354 4.11232 0
M  V30 27638 H 2630.21 5.36969 2.00841 0
M  V30 27639 H 2628.6 5.84171 1.37346 0
M  V30 27640 H 2629.67 4.83391 0.382278 0
M  V30 27641 N 2631.02 -0.271076 1.55251 0
M  V30 27642 C 2631.95 -1.36072 1.83193 0
M  V30 27643 C 2632.93 -1.47462 0.685117 0
M  V30 27644 O 2634.11 -1.64056 0.928321 0
M  V30 27645 C 2631.24 -2.73692 1.99525 0
M  V30 27646 C 2630.29 -2.79576 3.22086 0
M  V30 27647 S 2631.12 -2.38627 4.79393 0
M  V30 27648 C 2632.27 -3.78219 4.987 0
M  V30 27649 H 2632.51 -1.12167 2.75329 0
M  V30 27650 H 2630.04 -0.470808 1.47047 0
M  V30 27651 H 2632 -3.52945 2.0962 0
M  V30 27652 H 2630.66 -2.94848 1.08275 0
M  V30 27653 H 2629.85 -3.80589 3.30406 0
M  V30 27654 H 2629.45 -2.08347 3.10592 0
M  V30 27655 H 2631.75 -4.73506 4.84559 0
M  V30 27656 H 2632.69 -3.74849 6.00744 0
M  V30 27657 H 2633.1 -3.69611 4.26671 0
M  V30 27658 N 2632.5 -1.48217 -0.535675 0
M  V30 27659 C 2633.74 -1.57538 -1.30235 0
M  V30 27660 C 2634.1 -0.241263 -1.90478 0
M  V30 27661 O 2635.3 -0.209427 -2.67983 0
M  V30 27662 C 2633.57 -2.67797 -2.36685 0
M  V30 27663 S 2635.13 -2.96845 -3.23154 0
M  V30 27664 H 2631.95 -0.556056 -0.443083 0
M  V30 27665 H 2634.55 -1.8571 -0.610904 0
M  V30 27666 H 2633.26 -3.63299 -1.90898 0
M  V30 27667 H 2632.79 -2.41508 -3.10544 0
M  V30 27668 H 2634.8 -2.35707 -4.36643 0
M  V30 27669 N 2633.97 0.784108 -1.3671 0
M  V30 27670 C 2634.9 1.91114 -1.34156 0
M  V30 27671 C 2635.89 1.68772 -0.212151 0
M  V30 27672 O 2637.07 1.89809 -0.410615 0
M  V30 27673 C 2634.2 3.28216 -1.13541 0
M  V30 27674 C 2633.15 3.65094 -2.23362 0
M  V30 27675 C 2632.48 5.00603 -1.87884 0
M  V30 27676 C 2633.78 3.73125 -3.65479 0
M  V30 27677 H 2635.47 1.93508 -2.28463 0
M  V30 27678 H 2633.02 0.929599 -1.09975 0
M  V30 27679 H 2634.97 4.06685 -1.10388 0
M  V30 27680 H 2633.7 3.26223 -0.156861 0
M  V30 27681 H 2632.36 2.88925 -2.2565 0
M  V30 27682 H 2632 4.95137 -0.885902 0
M  V30 27683 H 2631.7 5.26247 -2.61415 0
M  V30 27684 H 2633.23 5.81486 -1.86296 0
M  V30 27685 H 2634.64 4.41773 -3.6539 0
M  V30 27686 H 2633.04 4.10257 -4.3796 0
M  V30 27687 H 2634.11 2.74095 -4 0
M  V30 27688 N 2635.45 1.21076 1.00888 0
M  V30 27689 C 2636.7 1.01984 1.74018 0
M  V30 27690 C 2637.01 -0.447631 1.90409 0
M  V30 27691 O 2638.22 -0.75786 2.60708 0
M  V30 27692 C 2636.68 1.77609 3.13023 0
M  V30 27693 C 2636.28 3.285 3.04617 0
M  V30 27694 C 2638.03 1.66911 3.90309 0
M  V30 27695 C 2635.94 3.96631 4.38678 0
M  V30 27696 H 2634.87 0.377982 0.652415 0
M  V30 27697 H 2637.52 1.44773 1.12752 0
M  V30 27698 H 2635.9 1.2761 3.74875 0
M  V30 27699 H 2637.07 3.85772 2.52025 0
M  V30 27700 H 2635.39 3.39697 2.40821 0
M  V30 27701 H 2637.98 2.15147 4.89506 0
M  V30 27702 H 2638.33 0.626652 4.11557 0
M  V30 27703 H 2638.86 2.14365 3.35101 0
M  V30 27704 H 2635.6 5.01061 4.22632 0
M  V30 27705 H 2635.12 3.44148 4.91245 0
M  V30 27706 H 2636.8 4.01323 5.07493 0
M  V30 27707 N 2636.93 -1.2032 1.01789 0
M  V30 27708 C 2637.88 -2.21015 0.560015 0
M  V30 27709 C 2638.86 -1.56218 -0.385339 0
M  V30 27710 O 2640.06 -1.75772 -0.208095 0
M  V30 27711 C 2637.19 -3.43157 -0.098995 0
M  V30 27712 C 2636.27 -4.15119 0.868143 0
M  V30 27713 N 2636.66 -4.63443 2.02618 0
M  V30 27714 C 2634.96 -4.40642 0.689239 0
M  V30 27715 C 2635.66 -5.18583 2.63527 0
M  V30 27716 N 2634.64 -5.08723 1.91578 0
M  V30 27717 H 2638.44 -2.56045 1.44285 0
M  V30 27718 H 2635.95 -1.36271 0.883405 0
M  V30 27719 H 2637.95 -4.14523 -0.44457 0
M  V30 27720 H 2636.61 -3.09632 -0.977654 0
M  V30 27721 H 2637.62 -4.58617 2.40606 0
M  V30 27722 H 2634.3 -4.17261 -0.141256 0
M  V30 27723 H 2635.69 -5.6634 3.61537 0
M  V30 27724 N 2638.41 -0.794293 -1.3612 0
M  V30 27725 C 2639.66 -0.365499 -1.98361 0
M  V30 27726 C 2639.97 1.06994 -1.63742 0
M  V30 27727 O 2641.18 1.60125 -2.19254 0
M  V30 27728 C 2639.63 -0.602558 -3.5482 0
M  V30 27729 C 2639.24 -2.04974 -3.98359 0
M  V30 27730 C 2640.98 -0.238511 -4.23829 0
M  V30 27731 C 2638.89 -2.2332 -5.47615 0
M  V30 27732 H 2637.82 -0.132923 -0.742191 0
M  V30 27733 H 2640.47 -0.976617 -1.55353 0
M  V30 27734 H 2638.85 0.0783394 -3.95923 0
M  V30 27735 H 2640.03 -2.76743 -3.68442 0
M  V30 27736 H 2638.34 -2.37249 -3.42202 0
M  V30 27737 H 2640.94 -0.353798 -5.33528 0
M  V30 27738 H 2641.28 0.813935 -4.08266 0
M  V30 27739 H 2641.82 -0.872838 -3.88106 0
M  V30 27740 H 2638.56 -3.26965 -5.68132 0
M  V30 27741 H 2638.08 -1.5606 -5.79142 0
M  V30 27742 H 2639.75 -2.04271 -6.13907 0
M  V30 27743 N 2639.89 1.47813 -0.546727 0
M  V30 27744 C 2641.13 2.02491 -0.0187763 0
M  V30 27745 C 2641.46 1.42217 1.32682 0
M  V30 27746 O 2640.72 0.563487 1.87412 0
M  V30 27747 C 2641.02 3.57146 0.134807 0
M  V30 27748 C 2640.68 4.36288 -1.13856 0
M  V30 27749 C 2639.34 4.57632 -1.48751 0
M  V30 27750 C 2641.7 4.82009 -1.98285 0
M  V30 27751 C 2639.02 5.21943 -2.67941 0
M  V30 27752 C 2641.38 5.47634 -3.16669 0
M  V30 27753 C 2640.04 5.67213 -3.51889 0
M  V30 27754 H 2639.31 0.740968 -0.00687072 0
M  V30 27755 H 2641.96 1.77606 -0.716128 0
M  V30 27756 H 2640.26 3.80965 0.915051 0
M  V30 27757 H 2641.96 3.97092 0.558486 0
M  V30 27758 H 2638.55 4.19948 -0.856841 0
M  V30 27759 H 2642.73 4.65307 -1.72636 0
M  V30 27760 H 2637.99 5.35297 -2.9541 0
M  V30 27761 H 2642.16 5.82027 -3.82385 0
M  V30 27762 H 2639.79 6.16818 -4.44342 0
M  V30 27763 N 2641.36 0.28266 1.55044 0
M  V30 27764 C 2642.31 -0.601526 2.22823 0
M  V30 27765 C 2643.28 -1.1439 1.20433 0
M  V30 27766 O 2644.47 -1.19181 1.48998 0
M  V30 27767 C 2641.61 -1.77627 2.95876 0
M  V30 27768 C 2640.72 -1.26703 4.13002 0
M  V30 27769 C 2639.85 -2.40418 4.7368 0
M  V30 27770 C 2638.89 -1.86535 5.82985 0
M  V30 27771 N 2638.03 -2.93751 6.37695 0
M  V30 27772 H 2642.87 -0.0169004 2.97995 0
M  V30 27773 H 2640.41 0.0034255 1.471 0
M  V30 27774 H 2642.37 -2.46691 3.36451 0
M  V30 27775 H 2641 -2.33281 2.23114 0
M  V30 27776 H 2640.05 -0.469247 3.77495 0
M  V30 27777 H 2641.36 -0.832431 4.91805 0
M  V30 27778 H 2640.51 -3.17461 5.17014 0
M  V30 27779 H 2639.25 -2.87196 3.94169 0
M  V30 27780 H 2638.26 -1.07973 5.39094 0
M  V30 27781 H 2639.48 -1.40683 6.64368 0
M  V30 27782 H 2637.43 -3.39898 5.61075 0
M  V30 27783 H 2637.35 -2.54731 7.11792 0
M  V30 27784 H 2638.61 -3.70748 6.85687 0
M  V30 27785 N 2642.84 -1.57597 0.0100627 0
M  V30 27786 C 2644.07 -1.95692 -0.686987 0
M  V30 27787 C 2644.49 -0.885548 -1.65951 0
M  V30 27788 O 2643.85 0.155398 -1.80633 0
M  V30 27789 C 2643.9 -3.32886 -1.38634 0
M  V30 27790 O 2643 -3.27901 -2.50109 0
M  V30 27791 H 2642.34 -0.638577 -0.181978 0
M  V30 27792 H 2644.87 -2.04493 0.0662482 0
M  V30 27793 H 2644.88 -3.68683 -1.74748 0
M  V30 27794 H 2643.56 -4.10413 -0.673339 0
M  V30 27795 H 2642.14 -3.03795 -2.16247 0
M  V30 27796 N 2644.32 0.262839 -1.55393 0
M  V30 27797 C 2645.57 0.991116 -1.76129 0
M  V30 27798 C 2645.89 1.86449 -0.571116 0
M  V30 27799 O 2645.16 1.91483 0.413664 0
M  V30 27800 H 2643.74 0.368936 -0.649534 0
M  V30 27801 H 2646.4 0.284621 -1.92811 0
M  V30 27802 H 2645.5 1.62214 -2.66633 0
M  V30 27803 N 2645.8 1.48499 0.527807 0
M  V30 27804 C 2646.73 1.57756 1.64889 0
M  V30 27805 C 2647.71 0.427895 1.56869 0
M  V30 27806 O 2648.89 0.639796 1.7731 0
M  V30 27807 C 2646.02 1.50758 3.03298 0
M  V30 27808 C 2645.07 2.70592 3.2967 0
M  V30 27809 S 2645.9 4.3254 3.15704 0
M  V30 27810 C 2647.06 4.28144 4.56556 0
M  V30 27811 H 2647.29 2.52597 1.56787 0
M  V30 27812 H 2644.82 1.37059 0.710935 0
M  V30 27813 H 2646.78 1.47407 3.83121 0
M  V30 27814 H 2645.44 0.572508 3.08838 0
M  V30 27815 H 2644.63 2.6184 4.30646 0
M  V30 27816 H 2644.24 2.71217 2.57522 0
M  V30 27817 H 2646.53 3.98211 5.48119 0
M  V30 27818 H 2647.47 5.29306 4.70362 0
M  V30 27819 H 2647.88 3.58582 4.35981 0
M  V30 27820 N 2647.28 -0.776847 1.37123 0
M  V30 27821 C 2648.52 -1.53522 1.3205 0
M  V30 27822 C 2648.85 -1.9426 -0.096529 0
M  V30 27823 O 2648.11 -1.63947 -1.06863 0
M  V30 27824 C 2648.41 -2.81607 2.20073 0
M  V30 27825 C 2648.07 -2.59947 3.68427 0
M  V30 27826 C 2646.73 -2.53747 4.08859 0
M  V30 27827 C 2649.09 -2.40423 4.62435 0
M  V30 27828 C 2646.41 -2.26008 5.41421 0
M  V30 27829 C 2648.77 -2.14209 5.95229 0
M  V30 27830 C 2647.43 -2.06451 6.34771 0
M  V30 27831 H 2646.7 -0.561777 0.483206 0
M  V30 27832 H 2649.35 -0.895238 1.69286 0
M  V30 27833 H 2647.65 -3.50138 1.75815 0
M  V30 27834 H 2649.35 -3.39461 2.13464 0
M  V30 27835 H 2645.94 -2.65632 3.36359 0
M  V30 27836 H 2650.12 -2.44206 4.32062 0
M  V30 27837 H 2645.38 -2.18494 5.71026 0
M  V30 27838 H 2649.55 -1.981 6.6763 0
M  V30 27839 H 2647.18 -1.8472 7.37416 0
M  V30 27840 N 2648.76 -1.2161 -1.00244 0
M  V30 27841 C 2650.17 -0.973998 -1.26434 0
M  V30 27842 C 2650.37 0.338109 -1.98643 0
M  V30 27843 O 2649.43 1.06313 -2.29028 0
M  V30 27844 C 2650.74 -2.1663 -2.08547 0
M  V30 27845 C 2652.29 -2.20883 -2.21765 0
M  V30 27846 C 2652.76 -3.39639 -3.07261 0
M  V30 27847 N 2654.25 -3.39741 -3.14849 0
M  V30 27848 C 2654.99 -4.2828 -3.81266 0
M  V30 27849 N 2654.49 -5.2702 -4.49691 0
M  V30 27850 N 2656.28 -4.16081 -3.77932 0
M  V30 27851 H 2648.43 -2.05985 -0.518053 0
M  V30 27852 H 2650.69 -0.902119 -0.291352 0
M  V30 27853 H 2650.4 -3.1173 -1.62841 0
M  V30 27854 H 2650.27 -2.15902 -3.09299 0
M  V30 27855 H 2652.66 -1.26337 -2.66689 0
M  V30 27856 H 2652.74 -2.25654 -1.20474 0
M  V30 27857 H 2652.38 -4.3448 -2.63039 0
M  V30 27858 H 2652.31 -3.32107 -4.08672 0
M  V30 27859 H 2654.81 -2.68285 -2.66142 0
M  V30 27860 H 2655.12 -5.90876 -4.98082 0
M  V30 27861 H 2653.46 -5.30943 -4.4847 0
M  V30 27862 H 2656.65 -3.38201 -3.23632 0
M  V30 27863 H 2656.83 -4.8529 -4.29416 0
M  V30 27864 N 2650.23 1.19778 -1.02425 0
M  V30 27865 C 2651.65 1.41382 -0.740484 0
M  V30 27866 C 2651.85 1.89794 0.676794 0
M  V30 27867 O 2650.91 2.07173 1.44346 0
M  V30 27868 C 2652.22 2.42892 -1.77268 0
M  V30 27869 C 2653.77 2.56646 -1.7917 0
M  V30 27870 C 2654.24 3.61405 -2.81337 0
M  V30 27871 N 2655.73 3.68897 -2.80124 0
M  V30 27872 C 2656.47 4.49634 -3.55832 0
M  V30 27873 N 2655.96 5.34115 -4.4124 0
M  V30 27874 N 2657.76 4.4424 -3.44394 0
M  V30 27875 H 2649.91 0.86673 -1.93911 0
M  V30 27876 H 2652.17 0.443083 -0.838082 0
M  V30 27877 H 2651.88 2.14334 -2.78844 0
M  V30 27878 H 2651.75 3.41998 -1.59114 0
M  V30 27879 H 2654.14 2.84529 -0.782752 0
M  V30 27880 H 2654.22 1.57709 -2.01398 0
M  V30 27881 H 2653.86 3.34265 -3.824 0
M  V30 27882 H 2653.79 4.59982 -2.56367 0
M  V30 27883 H 2656.28 3.08558 -2.18176 0
M  V30 27884 H 2656.6 5.92827 -4.95758 0
M  V30 27885 H 2654.94 5.33591 -4.45315 0
M  V30 27886 H 2658.13 3.7728 -2.77087 0
M  V30 27887 H 2658.31 5.06924 -4.03649 0
M  V30 27888 N 2651.71 0.801501 1.35697 0
M  V30 27889 C 2652.96 0.376014 1.98164 0
M  V30 27890 C 2653.27 -1.06125 1.64307 0
M  V30 27891 O 2654.48 -1.5896 2.201 0
M  V30 27892 C 2652.94 0.621367 3.54495 0
M  V30 27893 C 2652.54 2.07083 3.97266 0
M  V30 27894 C 2654.29 0.260985 4.23697 0
M  V30 27895 C 2652.19 2.26221 5.46423 0
M  V30 27896 H 2651.12 0.136857 0.741476 0
M  V30 27897 H 2653.78 0.984842 1.54833 0
M  V30 27898 H 2652.16 -0.0573416 3.95958 0
M  V30 27899 H 2653.33 2.78694 3.66969 0
M  V30 27900 H 2651.65 2.3906 3.40939 0
M  V30 27901 H 2654.24 0.382088 5.33333 0
M  V30 27902 H 2654.59 -0.792272 4.08691 0
M  V30 27903 H 2655.12 0.893408 3.87638 0
M  V30 27904 H 2651.86 3.29973 5.6639 0
M  V30 27905 H 2651.38 1.59129 5.78306 0
M  V30 27906 H 2653.06 2.07524 6.12815 0
M  V30 27907 N 2653.19 -1.47521 0.554558 0
M  V30 27908 C 2654.42 -2.06872 0.0342934 0
M  V30 27909 C 2654.83 -1.40761 -1.25824 0
M  V30 27910 O 2654.19 -0.503247 -1.75424 0
M  V30 27911 C 2654.24 -3.61111 -0.167764 0
M  V30 27912 O 2653.96 -4.24742 1.07358 0
M  V30 27913 C 2655.46 -4.37321 -0.725613 0
M  V30 27914 H 2652.68 -0.669514 0.0446393 0
M  V30 27915 H 2655.23 -1.89563 0.767214 0
M  V30 27916 H 2653.38 -3.77942 -0.850806 0
M  V30 27917 H 2653.8 -5.1724 0.869654 0
M  V30 27918 H 2655.27 -5.45931 -0.816298 0
M  V30 27919 H 2655.75 -4.03423 -1.73628 0
M  V30 27920 H 2656.35 -4.25228 -0.0783544 0
M  V30 27921 N 2654.67 -0.290879 -1.54892 0
M  V30 27922 C 2655.63 0.576745 -2.21825 0
M  V30 27923 C 2656.63 1.06917 -1.20106 0
M  V30 27924 O 2657.82 0.966817 -1.44908 0
M  V30 27925 C 2654.95 1.79742 -2.89665 0
M  V30 27926 H 2656.15 -0.00789323 -2.99899 0
M  V30 27927 H 2653.7 -0.0416208 -1.56245 0
M  V30 27928 H 2654.43 2.42215 -2.15644 0
M  V30 27929 H 2654.22 1.45208 -3.64221 0
M  V30 27930 H 2655.71 2.41404 -3.40755 0
M  V30 27931 N 2656.15 1.57589 -0.0184203 0
M  V30 27932 C 2657.11 2.08496 0.951949 0
M  V30 27933 C 2658.11 0.997896 1.2609 0
M  V30 27934 O 2659.3 1.25989 1.20302 0
M  V30 27935 C 2656.43 2.54186 2.27161 0
M  V30 27936 H 2657.62 2.9551 0.511255 0
M  V30 27937 H 2655.18 1.54607 0.229416 0
M  V30 27938 H 2655.91 1.7047 2.75881 0
M  V30 27939 H 2655.7 3.33594 2.06052 0
M  V30 27940 H 2657.19 2.93833 2.96735 0
M  V30 27941 N 2657.62 -0.254594 1.5553 0
M  V30 27942 C 2658.59 -1.29842 1.88875 0
M  V30 27943 C 2659.59 -1.41458 0.764616 0
M  V30 27944 O 2660.78 -1.40291 1.03267 0
M  V30 27945 C 2657.91 -2.67725 2.11036 0
M  V30 27946 H 2659.1 -1.01497 2.82203 0
M  V30 27947 H 2656.65 -0.49353 1.48304 0
M  V30 27948 H 2657.39 -3.01221 1.20151 0
M  V30 27949 H 2657.17 -2.60677 2.92899 0
M  V30 27950 H 2658.66 -3.4311 2.38044 0
M  V30 27951 N 2659.1 -1.48777 -0.519925 0
M  V30 27952 C 2660.33 -1.60984 -1.29968 0
M  V30 27953 C 2660.74 -0.273917 -1.86802 0
M  V30 27954 O 2660.1 0.738164 -1.66905 0
M  V30 27955 C 2660.15 -2.6642 -2.44342 0
M  V30 27956 O 2659.87 -3.94828 -1.89848 0
M  V30 27957 C 2661.37 -2.89159 -3.36009 0
M  V30 27958 H 2658.59 -0.542503 -0.394882 0
M  V30 27959 H 2661.14 -1.94677 -0.62618 0
M  V30 27960 H 2659.29 -2.35557 -3.07557 0
M  V30 27961 H 2659.71 -4.52755 -2.6479 0
M  V30 27962 H 2661.18 -3.6671 -4.12586 0
M  V30 27963 H 2661.66 -1.98358 -3.91855 0
M  V30 27964 H 2662.26 -3.21364 -2.78577 0
M  V30 27965 N 2660.58 0.769564 -1.37534 0
M  V30 27966 C 2662 1.07043 -1.18381 0
M  V30 27967 C 2662.2 2.01489 -0.0214666 0
M  V30 27968 O 2661.25 2.44313 0.637766 0
M  V30 27969 C 2662.56 1.66583 -2.50341 0
M  V30 27970 C 2664.11 1.78831 -2.56882 0
M  V30 27971 C 2664.59 2.41785 -3.88978 0
M  V30 27972 N 2666.08 2.49233 -3.90432 0
M  V30 27973 C 2666.81 2.988 -4.89393 0
M  V30 27974 N 2666.31 3.48524 -5.98751 0
M  V30 27975 N 2668.1 2.97695 -4.76796 0
M  V30 27976 H 2660.25 0.142504 -2.11921 0
M  V30 27977 H 2662.52 0.125847 -0.93961 0
M  V30 27978 H 2662.22 1.04654 -3.35768 0
M  V30 27979 H 2662.1 2.65851 -2.67588 0
M  V30 27980 H 2664.48 2.39892 -1.7186 0
M  V30 27981 H 2664.56 0.783123 -2.43518 0
M  V30 27982 H 2664.21 1.81362 -4.74416 0
M  V30 27983 H 2664.14 3.42913 -3.99647 0
M  V30 27984 H 2666.63 2.14046 -3.11436 0
M  V30 27985 H 2666.94 3.84755 -6.70211 0
M  V30 27986 H 2665.29 3.46623 -6.02393 0
M  V30 27987 H 2668.48 2.5815 -3.90482 0
M  V30 27988 H 2668.65 3.36014 -5.54075 0
M  V30 27989 N 2662.06 1.22139 0.995977 0
M  V30 27990 C 2662.99 1.01293 2.10385 0
M  V30 27991 C 2663.97 -0.0651155 1.69975 0
M  V30 27992 O 2665.15 0.0964969 1.9396 0
M  V30 27993 C 2662.28 0.586577 3.42311 0
M  V30 27994 C 2661.24 1.61021 3.96556 0
M  V30 27995 C 2660.56 1.03979 5.24493 0
M  V30 27996 C 2661.86 2.9994 4.2759 0
M  V30 27997 H 2663.56 1.93955 2.28083 0
M  V30 27998 H 2661.1 0.933947 1.09606 0
M  V30 27999 H 2663.06 0.427867 4.19222 0
M  V30 28000 H 2661.78 -0.375704 3.24432 0
M  V30 28001 H 2660.44 1.75664 3.21773 0
M  V30 28002 H 2660.09 0.0689587 5.02953 0
M  V30 28003 H 2659.79 1.72362 5.61752 0
M  V30 28004 H 2661.31 0.892601 6.04041 0
M  V30 28005 H 2662.73 2.88689 4.9531 0
M  V30 28006 H 2661.12 3.65418 4.76014 0
M  V30 28007 H 2662.19 3.50105 3.35491 0
M  V30 28008 N 2663.54 -1.19233 1.03059 0
M  V30 28009 C 2664.78 -1.88959 0.728052 0
M  V30 28010 C 2665.11 -1.79729 -0.743483 0
M  V30 28011 O 2664.37 -1.18523 -1.55727 0
M  V30 28012 C 2664.67 -3.3917 1.12686 0
M  V30 28013 C 2664.33 -3.68604 2.59696 0
M  V30 28014 C 2662.99 -3.76347 2.99861 0
M  V30 28015 C 2665.35 -3.81794 3.54799 0
M  V30 28016 C 2662.67 -3.9475 4.34038 0
M  V30 28017 C 2665.03 -4.01712 4.88683 0
M  V30 28018 C 2663.69 -4.07688 5.28533 0
M  V30 28019 H 2662.96 -0.691451 0.266413 0
M  V30 28020 H 2665.61 -1.41188 1.29376 0
M  V30 28021 H 2663.91 -3.88851 0.479791 0
M  V30 28022 H 2665.61 -3.91443 0.870272 0
M  V30 28023 H 2662.2 -3.63187 2.27582 0
M  V30 28024 H 2666.38 -3.75154 3.2492 0
M  V30 28025 H 2661.64 -3.97617 4.64447 0
M  V30 28026 H 2665.81 -4.1086 5.62287 0
M  V30 28027 H 2663.44 -4.217 6.32513 0
M  V30 28028 N 2665.01 -0.808686 -1.3527 0
M  V30 28029 C 2666.43 -0.49268 -1.51805 0
M  V30 28030 C 2666.63 0.985747 -1.75742 0
M  V30 28031 O 2665.69 1.77071 -1.80006 0
M  V30 28032 C 2667 -1.33986 -2.69199 0
M  V30 28033 C 2668.55 -1.33552 -2.83078 0
M  V30 28034 C 2669.02 -2.16686 -4.03498 0
M  V30 28035 N 2670.51 -2.14234 -4.1068 0
M  V30 28036 C 2671.25 -2.75316 -5.0298 0
M  V30 28037 N 2670.74 -3.45334 -6.00597 0
M  V30 28038 N 2672.54 -2.64947 -4.95742 0
M  V30 28039 H 2664.69 -1.76613 -1.1799 0
M  V30 28040 H 2666.95 -0.751825 -0.577463 0
M  V30 28041 H 2666.66 -2.38913 -2.58095 0
M  V30 28042 H 2666.53 -0.994555 -3.63852 0
M  V30 28043 H 2668.92 -0.294087 -2.93631 0
M  V30 28044 H 2669 -1.72071 -1.89275 0
M  V30 28045 H 2668.64 -3.20871 -3.93706 0
M  V30 28046 H 2668.57 -1.75526 -4.96486 0
M  V30 28047 H 2671.06 -1.63291 -3.408 0
M  V30 28048 H 2671.38 -3.89223 -6.67626 0
M  V30 28049 H 2669.72 -3.49439 -6.00764 0
M  V30 28050 H 2672.91 -2.09832 -4.18435 0
M  V30 28051 H 2673.09 -3.12839 -5.67482 0
M  V30 28052 N 2666.49 1.47225 -0.562374 0
M  V30 28053 C 2667.72 2.07355 -0.0432997 0
M  V30 28054 C 2668.14 1.41151 1.2433 0
M  V30 28055 O 2667.5 0.488257 1.74602 0
M  V30 28056 C 2667.55 3.60365 0.130224 0
M  V30 28057 O 2666.65 3.9481 1.1916 0
M  V30 28058 H 2665.99 0.661829 -0.0536451 0
M  V30 28059 H 2668.52 1.89168 -0.779528 0
M  V30 28060 H 2668.53 4.06557 0.342809 0
M  V30 28061 H 2667.21 4.07947 -0.809461 0
M  V30 28062 H 2665.79 3.60355 0.95909 0
M  V30 28063 N 2667.97 0.299089 1.54736 0
M  V30 28064 C 2669.25 -0.363768 1.92188 0
M  V30 28065 C 2669.63 -1.71843 1.2261 0
M  V30 28066 O 2668.98 -2.25627 0.36118 0
M  V30 28067 C 2669.19 -0.480317 3.45679 0
M  V30 28068 C 2670.53 -0.752074 4.17886 0
M  V30 28069 O 2671.56 -0.564202 3.51703 0
M  V30 28070 O 2670.42 -1.11284 5.3505 0
M  V30 28071 H 2667.51 -0.203052 0.801685 0
M  V30 28072 H 2670.06 0.347007 1.66114 0
M  V30 28073 H 2668.83 0.472067 3.88442 0
M  V30 28074 H 2668.45 -1.23963 3.77781 0
M  V30 28075 N 2669.45 -1.57577 0.0267774 0
M  V30 28076 C 2670.7 -1.91325 -0.651082 0
M  V30 28077 C 2671.02 -0.90356 -1.72803 0
M  V30 28078 O 2670.29 0.0552602 -1.95822 0
M  V30 28079 H 2668.87 -0.706206 -0.243479 0
M  V30 28080 H 2671.53 -1.94759 0.0740277 0
M  V30 28081 H 2670.63 -2.91872 -1.10531 0
M  V30 28082 N 2670.93 0.246342 -1.55663 0
M  V30 28083 C 2672.17 0.981653 -1.79284 0
M  V30 28084 C 2672.53 1.82503 -0.596389 0
M  V30 28085 O 2673.73 2.59216 -0.711388 0
M  V30 28086 C 2672 1.81895 -3.07651 0
M  V30 28087 S 2673.56 2.61328 -3.52496 0
M  V30 28088 H 2670.38 0.330185 -0.629681 0
M  V30 28089 H 2672.98 0.249464 -1.93902 0
M  V30 28090 H 2671.69 1.18908 -3.92796 0
M  V30 28091 H 2671.22 2.59388 -2.95773 0
M  V30 28092 H 2673.23 3.84316 -3.13872 0
M  V30 28093 N 2672.4 1.4905 0.512027 0
M  V30 28094 C 2673.65 1.57668 1.26433 0
M  V30 28095 C 2673.97 0.260326 1.93254 0
M  V30 28096 O 2673.24 -0.719532 1.82207 0
M  V30 28097 H 2671.82 0.580896 0.469648 0
M  V30 28098 H 2674.49 1.85616 0.594366 0
M  V30 28099 H 2673.58 2.36706 2.03413 0
M  V30 28100 N 2673.88 -0.762259 1.3794 0
M  V30 28101 C 2675.13 -1.51812 1.33407 0
M  V30 28102 C 2675.45 -1.94844 -0.0780633 0
M  V30 28103 O 2674.72 -1.67005 -1.02402 0
M  V30 28104 H 2673.3 -0.563095 0.490849 0
M  V30 28105 H 2675.96 -0.906638 1.72528 0
M  V30 28106 H 2675.06 -2.41309 1.9793 0
M  V30 28107 N 2675.36 -1.22666 -0.989486 0
M  V30 28108 C 2676.59 -1.08054 -1.77029 0
M  V30 28109 C 2677.01 0.364451 -1.84536 0
M  V30 28110 O 2676.37 1.26338 -1.30033 0
M  V30 28111 C 2676.42 -1.7003 -3.17997 0
M  V30 28112 O 2675.52 -0.956286 -4.01159 0
M  V30 28113 H 2674.86 -0.379302 -0.545001 0
M  V30 28114 H 2677.39 -1.62534 -1.24274 0
M  V30 28115 H 2677.4 -1.74895 -3.68613 0
M  V30 28116 H 2676.08 -2.75179 -3.11848 0
M  V30 28117 H 2674.65 -0.983903 -3.59686 0
M  V30 28118 N 2676.84 1.18685 -1.0369 0
M  V30 28119 C 2678.09 1.88571 -0.738063 0
M  V30 28120 C 2678.41 1.80121 0.733941 0
M  V30 28121 O 2677.67 1.19347 1.55096 0
M  V30 28122 C 2677.97 3.38568 -1.14483 0
M  V30 28123 C 2677.63 3.67221 -2.61647 0
M  V30 28124 C 2676.3 3.74751 -3.01852 0
M  V30 28125 C 2678.65 3.79907 -3.56819 0
M  V30 28126 C 2675.98 3.92443 -4.36125 0
M  V30 28127 C 2678.33 3.99114 -4.90806 0
M  V30 28128 C 2676.99 4.04879 -5.30688 0
M  V30 28129 H 2676.26 0.690029 -0.270076 0
M  V30 28130 H 2678.91 1.405 -1.30123 0
M  V30 28131 H 2677.21 3.88591 -0.500406 0
M  V30 28132 H 2678.91 3.90976 -0.891019 0
M  V30 28133 H 2675.5 3.61975 -2.29504 0
M  V30 28134 H 2679.69 3.73426 -3.26905 0
M  V30 28135 H 2674.94 3.95148 -4.66549 0
M  V30 28136 H 2679.12 4.07872 -5.64458 0
M  V30 28137 H 2676.74 4.1834 -6.34741 0
M  V30 28138 N 2678.32 0.815849 1.34839 0
M  V30 28139 C 2679.55 0.41273 2.02435 0
M  V30 28140 C 2679.96 -0.983878 1.61606 0
M  V30 28141 O 2679.3 -1.64693 0.813758 0
M  V30 28142 C 2679.36 0.427245 3.56952 0
M  V30 28143 C 2679.02 1.77596 4.2108 0
M  V30 28144 C 2680.02 2.73571 4.42103 0
M  V30 28145 C 2677.71 2.06251 4.58002 0
M  V30 28146 C 2679.7 3.96379 4.99162 0
M  V30 28147 C 2677.39 3.29319 5.14774 0
M  V30 28148 C 2678.39 4.24201 5.35297 0
M  V30 28149 O 2678.07 5.45096 5.90869 0
M  V30 28150 H 2677.81 0.164706 0.655628 0
M  V30 28151 H 2680.36 1.10343 1.73244 0
M  V30 28152 H 2678.59 -0.320108 3.85373 0
M  V30 28153 H 2680.28 0.0451588 4.05875 0
M  V30 28154 H 2681.04 2.52728 4.13949 0
M  V30 28155 H 2676.92 1.33204 4.41336 0
M  V30 28156 H 2680.47 4.70448 5.15096 0
M  V30 28157 H 2676.36 3.5003 5.42356 0
M  V30 28158 H 2677.13 5.46519 6.0931 0
M  V30 28159 N 2679.8 -1.46924 0.570174 0
M  V30 28160 C 2681.02 -2.06824 0.056233 0
M  V30 28161 C 2681.44 -1.42088 -1.24324 0
M  V30 28162 O 2680.8 -0.521825 -1.74881 0
M  V30 28163 C 2680.85 -3.61268 -0.129454 0
M  V30 28164 O 2680.57 -4.23579 1.11857 0
M  V30 28165 C 2682.07 -4.38066 -0.679189 0
M  V30 28166 H 2679.29 -0.669002 0.0517378 0
M  V30 28167 H 2681.83 -1.88738 0.787277 0
M  V30 28168 H 2679.99 -3.78823 -0.810672 0
M  V30 28169 H 2680.4 -5.16289 0.924466 0
M  V30 28170 H 2681.88 -5.46766 -0.758348 0
M  V30 28171 H 2682.35 -4.05242 -1.69339 0
M  V30 28172 H 2682.96 -4.25287 -0.0332489 0
M  V30 28173 N 2681.27 -0.307291 -1.54575 0
M  V30 28174 C 2682.2 0.55903 -2.26709 0
M  V30 28175 C 2683.18 1.13277 -1.26895 0
M  V30 28176 O 2684.37 1.16094 -1.55679 0
M  V30 28177 C 2681.5 1.72796 -3.01262 0
M  V30 28178 C 2680.45 1.28428 -4.08277 0
M  V30 28179 C 2679.78 2.53887 -4.7058 0
M  V30 28180 C 2681.08 0.410946 -5.20681 0
M  V30 28181 H 2682.77 -0.0426286 -2.9937 0
M  V30 28182 H 2680.32 -0.0219426 -1.43983 0
M  V30 28183 H 2682.27 2.34017 -3.50448 0
M  V30 28184 H 2681 2.35596 -2.26191 0
M  V30 28185 H 2679.66 0.695098 -3.5995 0
M  V30 28186 H 2679.3 3.15015 -3.92141 0
M  V30 28187 H 2679 2.24899 -5.42858 0
M  V30 28188 H 2680.53 3.15899 -5.22532 0
M  V30 28189 H 2681.94 0.928997 -5.65723 0
M  V30 28190 H 2680.34 0.214559 -5.99716 0
M  V30 28191 H 2681.41 -0.562372 -4.81628 0
M  V30 28192 N 2682.75 1.57561 -0.0351337 0
M  V30 28193 C 2684.03 1.83356 0.68118 0
M  V30 28194 C 2684.41 0.920286 1.89984 0
M  V30 28195 O 2683.76 -0.0226414 2.28489 0
M  V30 28196 C 2683.97 3.32713 1.0537 0
M  V30 28197 C 2685.31 3.99335 1.44279 0
M  V30 28198 O 2686.34 3.37244 1.14651 0
M  V30 28199 O 2685.2 5.08781 1.99509 0
M  V30 28200 H 2682.29 0.756232 0.334728 0
M  V30 28201 H 2684.84 1.69582 -0.0632746 0
M  V30 28202 H 2683.61 3.90855 0.1866 0
M  V30 28203 H 2683.23 3.51616 1.85612 0
M  V30 28204 N 2684.23 -0.238084 1.55791 0
M  V30 28205 C 2685.45 -0.9864 1.82442 0
M  V30 28206 C 2685.88 -1.77819 0.613345 0
M  V30 28207 O 2685.24 -1.75936 -0.437736 0
M  V30 28208 C 2685.29 -1.89295 3.0692 0
M  V30 28209 O 2684.39 -2.98596 2.84454 0
M  V30 28210 H 2683.73 -0.280207 0.60198 0
M  V30 28211 H 2686.26 -0.256402 2.02987 0
M  V30 28212 H 2686.27 -2.30593 3.36587 0
M  V30 28213 H 2684.95 -1.31084 3.94702 0
M  V30 28214 H 2683.52 -2.61363 2.65977 0
M  V30 28215 N 2685.71 -1.4932 -0.504115 0
M  V30 28216 C 2686.64 -1.6867 -1.6147 0
M  V30 28217 C 2687.62 -0.535407 -1.61454 0
M  V30 28218 O 2688.8 -0.770899 -1.78244 0
M  V30 28219 C 2685.93 -1.75033 -2.99968 0
M  V30 28220 C 2684.89 -2.89921 -3.14849 0
M  V30 28221 C 2684.21 -2.81395 -4.54666 0
M  V30 28222 C 2685.51 -4.30898 -2.95168 0
M  V30 28223 H 2687.21 -2.61651 -1.45531 0
M  V30 28224 H 2684.75 -1.25914 -0.698689 0
M  V30 28225 H 2686.71 -1.87157 -3.77558 0
M  V30 28226 H 2685.43 -0.786496 -3.16989 0
M  V30 28227 H 2684.09 -2.77395 -2.39682 0
M  V30 28228 H 2683.74 -1.82926 -4.68559 0
M  V30 28229 H 2683.44 -3.58503 -4.65564 0
M  V30 28230 H 2684.96 -2.95522 -5.34321 0
M  V30 28231 H 2686.38 -4.44122 -3.62531 0
M  V30 28232 H 2684.77 -5.09204 -3.1754 0
M  V30 28233 H 2685.84 -4.45559 -1.91324 0
M  V30 28234 N 2687.19 0.754933 -1.38342 0
M  V30 28235 C 2688.13 1.89002 -1.35576 0
M  V30 28236 C 2689.13 1.67665 -0.241853 0
M  V30 28237 O 2690.33 1.75249 -0.410815 0
M  V30 28238 H 2686.71 0.621813 -0.422909 0
M  V30 28239 H 2688.68 1.88451 -2.31363 0
M  V30 28240 C 2687.43 3.26469 -1.19637 0
M  V30 28241 H 2686.75 3.43474 -2.04611 0
M  V30 28242 H 2688.19 4.06142 -1.21756 0
M  V30 28243 C 2686.65 3.36761 0.0968113 0
M  V30 28244 O 2687.18 3.87067 1.07432 0
M  V30 28245 N 2685.39 2.90196 0.153191 0
M  V30 28246 H 2684.93 2.49447 -0.642952 0
M  V30 28247 H 2684.89 2.97462 1.01802 0
M  V30 28248 N 2688.66 1.23189 0.982967 0
M  V30 28249 C 2689.59 1.03519 2.09299 0
M  V30 28250 C 2690.57 -0.0470837 1.70035 0
M  V30 28251 O 2691.76 0.117064 1.93847 0
M  V30 28252 C 2688.89 0.622851 3.41669 0
M  V30 28253 C 2687.84 1.65218 3.94825 0
M  V30 28254 C 2687.17 1.09536 5.2336 0
M  V30 28255 C 2688.47 3.04459 4.24385 0
M  V30 28256 H 2690.16 1.96363 2.26013 0
M  V30 28257 H 2687.71 0.94552 1.08609 0
M  V30 28258 H 2689.66 0.472307 4.18745 0
M  V30 28259 H 2688.39 -0.341272 3.24812 0
M  V30 28260 H 2687.05 1.79067 3.19891 0
M  V30 28261 H 2686.69 0.1223 5.02851 0
M  V30 28262 H 2686.39 1.7831 5.59892 0
M  V30 28263 H 2687.92 0.956617 6.0306 0
M  V30 28264 H 2689.33 2.93926 4.9222 0
M  V30 28265 H 2687.73 3.70447 4.72112 0
M  V30 28266 H 2688.8 3.53644 3.31759 0
M  V30 28267 N 2690.14 -1.18133 1.04318 0
M  V30 28268 C 2691.56 -1.40187 0.762883 0
M  V30 28269 C 2691.76 -1.90847 -0.646514 0
M  V30 28270 O 2690.81 -2.09443 -1.41032 0
M  V30 28271 C 2692.13 -2.40041 1.8111 0
M  V30 28272 C 2693.67 -2.53763 1.8323 0
M  V30 28273 C 2694.15 -3.56884 2.87051 0
M  V30 28274 N 2695.64 -3.64393 2.85958 0
M  V30 28275 C 2696.38 -4.43917 3.6294 0
M  V30 28276 N 2695.87 -5.27028 4.49682 0
M  V30 28277 N 2697.66 -4.38704 3.51418 0
M  V30 28278 H 2689.82 -0.83577 1.95266 0
M  V30 28279 H 2692.08 -0.429694 0.845025 0
M  V30 28280 H 2691.78 -2.09871 2.82218 0
M  V30 28281 H 2691.66 -3.39423 1.64535 0
M  V30 28282 H 2694.05 -2.83248 0.827919 0
M  V30 28283 H 2694.13 -1.54485 2.03882 0
M  V30 28284 H 2693.77 -3.28139 3.87669 0
M  V30 28285 H 2693.7 -4.55845 2.63653 0
M  V30 28286 H 2696.19 -3.05048 2.23057 0
M  V30 28287 H 2696.5 -5.84865 5.05126 0
M  V30 28288 H 2694.85 -5.26439 4.53748 0
M  V30 28289 H 2698.04 -3.72824 2.83054 0
M  V30 28290 H 2698.21 -5.00438 4.11662 0
M  V30 28291 N 2691.62 -0.822988 -1.34405 0
M  V30 28292 C 2692.58 -0.250311 -2.27829 0
M  V30 28293 C 2693.58 0.571827 -1.50289 0
M  V30 28294 O 2694.77 0.387923 -1.69826 0
M  V30 28295 C 2691.91 0.649078 -3.34664 0
M  V30 28296 H 2693.1 -1.07449 -2.7999 0
M  V30 28297 H 2690.65 -0.594855 -1.44538 0
M  V30 28298 H 2691.39 1.49632 -2.87717 0
M  V30 28299 H 2691.17 0.061051 -3.92052 0
M  V30 28300 H 2692.66 1.04356 -4.04351 0
M  V30 28301 N 2693.1 1.4662 -0.577957 0
M  V30 28302 C 2694.51 1.57796 -0.239269 0
M  V30 28303 C 2694.71 1.57374 1.2584 0
M  V30 28304 O 2693.77 1.48817 2.03985 0
M  V30 28305 C 2695.08 2.87404 -0.884277 0
M  V30 28306 C 2696.63 3.01027 -0.857426 0
M  V30 28307 C 2697.11 4.33364 -1.48189 0
M  V30 28308 N 2698.6 4.40051 -1.44601 0
M  V30 28309 C 2699.33 5.41055 -1.89862 0
M  V30 28310 N 2698.83 6.48758 -2.43073 0
M  V30 28311 N 2700.62 5.32227 -1.80807 0
M  V30 28312 H 2692.77 1.45139 -1.55076 0
M  V30 28313 H 2695.04 0.692033 -0.647916 0
M  V30 28314 H 2694.74 2.9351 -1.93764 0
M  V30 28315 H 2694.62 3.75182 -0.389651 0
M  V30 28316 H 2697 2.94505 0.187305 0
M  V30 28317 H 2697.08 2.14737 -1.39002 0
M  V30 28318 H 2696.73 4.40643 -2.52579 0
M  V30 28319 H 2696.66 5.1842 -0.924555 0
M  V30 28320 H 2699.15 3.62817 -1.057 0
M  V30 28321 H 2699.46 7.22033 -2.75479 0
M  V30 28322 H 2697.81 6.49591 -2.47096 0
M  V30 28323 H 2701 4.46987 -1.38997 0
M  V30 28324 H 2701.17 6.108 -2.16396 0
M  V30 28325 N 2694.58 0.315484 1.5441 0
M  V30 28326 C 2695.8 -0.29446 2.05299 0
M  V30 28327 C 2696.23 -1.45628 1.19055 0
M  V30 28328 O 2695.58 -1.80217 0.197835 0
M  V30 28329 C 2695.63 -0.714487 3.53451 0
M  V30 28330 O 2694.74 -1.81774 3.70178 0
M  V30 28331 H 2694.08 -0.0546902 0.661744 0
M  V30 28332 H 2696.61 0.461543 1.99326 0
M  V30 28333 H 2696.62 -0.999357 3.95572 0
M  V30 28334 H 2695.29 0.135317 4.1568 0
M  V30 28335 H 2693.87 -1.5323 3.39963 0
M  V30 28336 N 2696.05 -1.5754 0.0434891 0
M  V30 28337 C 2696.99 -2.06619 -0.968693 0
M  V30 28338 C 2697.97 -0.965023 -1.30867 0
M  V30 28339 O 2699.15 -1.2364 -1.42286 0
M  V30 28340 C 2696.28 -2.50027 -2.28482 0
M  V30 28341 C 2695.32 -3.71305 -2.09844 0
M  V30 28342 S 2696.16 -5.17308 -1.38392 0
M  V30 28343 C 2697.31 -5.64024 -2.71344 0
M  V30 28344 H 2697.54 -2.9215 -0.550969 0
M  V30 28345 H 2695.08 -1.53477 -0.16858 0
M  V30 28346 H 2697.04 -2.757 -3.04137 0
M  V30 28347 H 2695.7 -1.64817 -2.67384 0
M  V30 28348 H 2694.89 -3.99573 -3.07177 0
M  V30 28349 H 2694.49 -3.45859 -1.42329 0
M  V30 28350 H 2696.78 -5.69141 -3.67539 0
M  V30 28351 H 2697.73 -6.63354 -2.47723 0
M  V30 28352 H 2698.13 -4.91724 -2.7725 0
M  V30 28353 N 2697.53 0.229818 -1.55915 0
M  V30 28354 C 2698.78 0.953424 -1.77743 0
M  V30 28355 C 2699.09 1.85827 -0.610557 0
M  V30 28356 O 2700.3 2.61991 -0.712265 0
M  V30 28357 C 2698.76 1.74546 -3.14741 0
M  V30 28358 C 2698.36 0.887165 -4.39128 0
M  V30 28359 C 2700.11 2.46078 -3.45899 0
M  V30 28360 C 2698.02 1.67607 -5.67152 0
M  V30 28361 H 2696.95 0.359729 -0.662654 0
M  V30 28362 H 2699.6 0.207544 -1.82323 0
M  V30 28363 H 2697.98 2.53394 -3.04315 0
M  V30 28364 H 2699.15 0.139811 -4.60588 0
M  V30 28365 H 2697.47 0.28437 -4.15428 0
M  V30 28366 H 2700.06 3.05587 -4.38772 0
M  V30 28367 H 2700.41 3.18551 -2.68013 0
M  V30 28368 H 2700.94 1.74227 -3.57617 0
M  V30 28369 H 2697.68 0.994767 -6.47908 0
M  V30 28370 H 2697.2 2.39826 -5.49767 0
M  V30 28371 H 2698.88 2.23887 -6.07029 0
M  V30 28372 N 2699.01 1.49585 0.49619 0
M  V30 28373 C 2700.24 1.63031 1.27391 0
M  V30 28374 C 2700.65 0.303601 1.86343 0
M  V30 28375 O 2700.01 -0.711517 1.68059 0
M  V30 28376 C 2700.06 2.70273 2.40072 0
M  V30 28377 O 2699.78 3.97799 1.83542 0
M  V30 28378 C 2701.28 2.94468 3.31366 0
M  V30 28379 H 2698.5 0.548716 0.386201 0
M  V30 28380 H 2701.05 1.95649 0.595129 0
M  V30 28381 H 2699.2 2.4042 3.03771 0
M  V30 28382 H 2699.62 4.5691 2.57553 0
M  V30 28383 H 2701.09 3.73228 4.067 0
M  V30 28384 H 2701.57 2.04567 3.8865 0
M  V30 28385 H 2702.17 3.25756 2.73429 0
M  V30 28386 N 2700.49 -0.747586 1.3874 0
M  V30 28387 C 2701.72 -1.53684 1.38524 0
M  V30 28388 C 2702.13 -1.88785 -0.0234797 0
M  V30 28389 O 2701.49 -1.53208 -0.991635 0
M  V30 28390 C 2701.54 -2.83225 2.24646 0
M  V30 28391 O 2701.26 -2.49619 3.60031 0
M  V30 28392 C 2702.76 -3.77329 2.32675 0
M  V30 28393 H 2699.98 -0.475338 0.473597 0
M  V30 28394 H 2702.53 -0.924754 1.82397 0
M  V30 28395 H 2700.68 -3.40796 1.84219 0
M  V30 28396 H 2701.09 -3.32743 4.05441 0
M  V30 28397 H 2702.57 -4.65157 2.97209 0
M  V30 28398 H 2703.05 -4.18189 1.34217 0
M  V30 28399 H 2703.65 -3.25681 2.73518 0
M  V30 28400 N 2701.97 -1.23709 -0.97642 0
M  V30 28401 C 2702.92 -0.988887 -2.05439 0
M  V30 28402 C 2703.9 0.0665619 -1.60762 0
M  V30 28403 O 2705.09 -0.146071 -1.76396 0
M  V30 28404 C 2702.22 -0.586283 -3.38257 0
M  V30 28405 C 2701.31 -1.67734 -3.8952 0
M  V30 28406 N 2701.7 -2.90841 -4.13817 0
M  V30 28407 C 2700 -1.55284 -4.18094 0
M  V30 28408 C 2700.7 -3.6151 -4.55725 0
M  V30 28409 N 2699.67 -2.89038 -4.60389 0
M  V30 28410 H 2703.48 -1.92379 -2.22188 0
M  V30 28411 H 2700.99 -1.13706 -1.15952 0
M  V30 28412 H 2702.99 -0.389731 -4.15074 0
M  V30 28413 H 2701.65 0.341537 -3.22899 0
M  V30 28414 H 2702.66 -3.27107 -4.01524 0
M  V30 28415 H 2699.33 -0.692423 -4.11718 0
M  V30 28416 H 2700.72 -4.67067 -4.83009 0
M  V30 28417 N 2703.44 1.17579 -1.04943 0
M  V30 28418 C 2704.86 1.69417 -0.784531 0
M  V30 28419 C 2705.21 1.83531 0.693593 0
M  V30 28420 O 2704.33 1.52108 1.53922 0
M  V30 28421 C 2704.93 3.0772 -1.41752 0
M  V30 28422 C 2703.49 3.56735 -1.20072 0
M  V30 28423 C 2702.63 2.33058 -1.50264 0
M  V30 28424 H 2705.58 1.02131 -1.2147 0
M  V30 28425 H 2705.6 3.71439 -0.825447 0
M  V30 28426 H 2705.12 2.97415 -2.4933 0
M  V30 28427 H 2703.22 3.72321 -0.144071 0
M  V30 28428 H 2703.33 4.39645 -1.90392 0
M  V30 28429 H 2701.69 2.37401 -0.92264 0
M  V30 28430 H 2702.48 2.25364 -2.58971 0
M  V30 28431 N 2704.92 0.830104 1.33967 0
M  V30 28432 C 2705.89 0.26239 2.27693 0
M  V30 28433 C 2706.89 -0.563849 1.5059 0
M  V30 28434 O 2708.08 -0.378911 1.70029 0
M  V30 28435 C 2705.21 -0.631321 3.35003 0
M  V30 28436 H 2706.4 1.08933 2.79417 0
M  V30 28437 H 2703.95 0.602512 1.4422 0
M  V30 28438 H 2704.69 -1.48104 2.88506 0
M  V30 28439 H 2704.47 -0.0402587 3.92079 0
M  V30 28440 H 2705.96 -1.0221 4.04899 0
M  V30 28441 N 2706.4 -1.46311 0.585725 0
M  V30 28442 C 2707.33 -2.33118 -0.133516 0
M  V30 28443 C 2708.31 -1.45527 -0.880682 0
M  V30 28444 O 2709.5 -1.74339 -0.855548 0
M  V30 28445 C 2706.63 -3.27855 -1.14579 0
M  V30 28446 C 2705.58 -4.24911 -0.513266 0
M  V30 28447 C 2704.91 -5.09178 -1.63222 0
M  V30 28448 C 2706.21 -5.1938 0.551504 0
M  V30 28449 H 2707.9 -2.93504 0.591261 0
M  V30 28450 H 2705.45 -1.41136 0.285786 0
M  V30 28451 H 2707.4 -3.87441 -1.65734 0
M  V30 28452 H 2706.12 -2.65583 -1.90088 0
M  V30 28453 H 2704.78 -3.66593 -0.0227705 0
M  V30 28454 H 2704.43 -4.43289 -2.37706 0
M  V30 28455 H 2704.13 -5.74909 -1.21463 0
M  V30 28456 H 2705.66 -5.71628 -2.14648 0
M  V30 28457 H 2707.07 -5.73164 0.124905 0
M  V30 28458 H 2705.47 -5.9347 0.88959 0
M  V30 28459 H 2706.54 -4.6313 1.43663 0
M  V30 28460 N 2707.88 -0.323668 -1.54241 0
M  V30 28461 C 2709.13 0.279288 -2.00868 0
M  V30 28462 C 2709.46 1.51778 -1.21149 0
M  V30 28463 O 2708.73 1.92268 -0.293813 0
M  V30 28464 C 2709.02 0.613324 -3.54838 0
M  V30 28465 C 2708.87 -0.635882 -4.45283 0
M  V30 28466 C 2710.19 1.43092 -4.16188 0
M  V30 28467 H 2707.31 0.100036 -0.730179 0
M  V30 28468 H 2709.95 -0.440267 -1.84829 0
M  V30 28469 H 2708.1 1.22635 -3.68637 0
M  V30 28470 H 2709.77 -1.27414 -4.43355 0
M  V30 28471 H 2708.01 -1.26474 -4.14954 0
M  V30 28472 H 2708.69 -0.357694 -5.5084 0
M  V30 28473 H 2711.16 0.912743 -4.05966 0
M  V30 28474 H 2710.04 1.63341 -5.24033 0
M  V30 28475 H 2710.3 2.42708 -3.6952 0
M  V30 28476 N 2709.36 1.57515 -0.0518432 0
M  V30 28477 C 2710.29 2.14601 0.920246 0
M  V30 28478 C 2711.27 1.06785 1.32404 0
M  V30 28479 O 2712.45 1.34728 1.39864 0
M  V30 28480 C 2709.58 2.69154 2.19485 0
M  V30 28481 C 2708.54 3.81959 1.93109 0
M  V30 28482 C 2707.86 4.23031 3.2703 0
M  V30 28483 C 2709.16 5.07068 1.25217 0
M  V30 28484 H 2710.86 2.96078 0.444749 0
M  V30 28485 H 2708.4 1.42424 0.212483 0
M  V30 28486 H 2710.36 3.0773 2.87889 0
M  V30 28487 H 2709.08 1.8487 2.69241 0
M  V30 28488 H 2707.74 3.43856 1.27117 0
M  V30 28489 H 2707.39 3.35697 3.74589 0
M  V30 28490 H 2707.09 4.99061 3.1018 0
M  V30 28491 H 2708.61 4.64209 3.96665 0
M  V30 28492 H 2710.03 5.43087 1.83656 0
M  V30 28493 H 2708.42 5.88245 1.18691 0
M  V30 28494 H 2709.49 4.84362 0.228297 0
M  V30 28495 N 2710.84 -0.221546 1.56035 0
M  V30 28496 C 2711.77 -1.27776 1.95436 0
M  V30 28497 C 2712.75 -1.48887 0.82259 0
M  V30 28498 O 2713.93 -1.61071 1.08489 0
M  V30 28499 C 2711.06 -2.62755 2.27106 0
M  V30 28500 C 2710.02 -2.563 3.42774 0
M  V30 28501 C 2709.34 -3.95308 3.60049 0
M  V30 28502 C 2710.64 -2.11084 4.77745 0
M  V30 28503 H 2712.34 -0.950454 2.83913 0
M  V30 28504 H 2709.88 -0.455767 1.36597 0
M  V30 28505 H 2711.83 -3.36803 2.53262 0
M  V30 28506 H 2710.56 -2.97173 1.35483 0
M  V30 28507 H 2709.22 -1.84709 3.16667 0
M  V30 28508 H 2708.87 -4.27034 2.65802 0
M  V30 28509 H 2708.57 -3.91871 4.37848 0
M  V30 28510 H 2710.09 -4.71018 3.88554 0
M  V30 28511 H 2711.5 -2.74876 5.03106 0
M  V30 28512 H 2709.9 -2.18707 5.58827 0
M  V30 28513 H 2710.97 -1.06313 4.73102 0
M  V30 28514 N 2712.31 -1.49846 -0.48825 0
M  V30 28515 C 2713.56 -1.61184 -1.24062 0
M  V30 28516 C 2713.91 -0.300468 -1.90039 0
M  V30 28517 O 2713.21 0.700333 -1.78342 0
M  V30 28518 C 2713.4 -2.71739 -2.32147 0
M  V30 28519 C 2713.23 -4.135 -1.76771 0
M  V30 28520 C 2712 -4.80126 -1.57504 0
M  V30 28521 C 2714.2 -4.98313 -1.27233 0
M  V30 28522 N 2712.18 -6.06158 -0.971908 0
M  V30 28523 C 2713.55 -6.14929 -0.791349 0
M  V30 28524 C 2715.61 -4.84217 -1.15926 0
M  V30 28525 C 2714.31 -7.18998 -0.208467 0
M  V30 28526 C 2716.34 -5.88446 -0.590332 0
M  V30 28527 C 2715.7 -7.04298 -0.119644 0
M  V30 28528 H 2711.8 -0.644091 -0.443476 0
M  V30 28529 H 2714.38 -1.86902 -0.545519 0
M  V30 28530 H 2712.55 -2.47773 -2.99104 0
M  V30 28531 H 2714.28 -2.72529 -2.99183 0
M  V30 28532 H 2711.04 -4.37134 -1.82239 0
M  V30 28533 H 2711.46 -6.73482 -0.689249 0
M  V30 28534 H 2716.1 -3.9495 -1.50913 0
M  V30 28535 H 2713.82 -8.07954 0.153643 0
M  V30 28536 H 2717.41 -5.796 -0.505447 0
M  V30 28537 H 2716.29 -7.83572 0.313706 0
M  V30 28538 N 2713.79 0.740218 -1.39135 0
M  V30 28539 C 2715.03 1.51237 -1.37502 0
M  V30 28540 C 2715.4 1.91975 0.0309747 0
M  V30 28541 O 2716.6 2.68247 0.172272 0
M  V30 28542 C 2714.87 2.72231 -2.31571 0
M  V30 28543 S 2716.43 3.61942 -2.48079 0
M  V30 28544 H 2713.24 0.517379 -0.487689 0
M  V30 28545 H 2715.85 0.867795 -1.75184 0
M  V30 28546 H 2714.55 2.40433 -3.32596 0
M  V30 28547 H 2714.08 3.41621 -1.95086 0
M  V30 28548 H 2716.1 4.65627 -1.71481 0
M  V30 28549 N 2715.27 1.24225 0.969846 0
M  V30 28550 C 2716.2 0.990586 2.06688 0
M  V30 28551 C 2717.21 -0.0391936 1.62753 0
M  V30 28552 O 2718.4 0.197592 1.77403 0
M  V30 28553 C 2715.5 0.472653 3.35588 0
M  V30 28554 C 2714.68 1.56507 4.08441 0
M  V30 28555 C 2713.74 1.05016 5.15614 0
M  V30 28556 O 2712.76 1.7414 5.41908 0
M  V30 28557 N 2713.96 -0.116539 5.80383 0
M  V30 28558 H 2716.73 1.93512 2.28852 0
M  V30 28559 H 2714.29 1.15225 1.13731 0
M  V30 28560 H 2716.28 0.11299 4.04542 0
M  V30 28561 H 2714.85 -0.377563 3.10311 0
M  V30 28562 H 2714.07 2.09702 3.33795 0
M  V30 28563 H 2715.36 2.2994 4.53878 0
M  V30 28564 H 2714.76 -0.69449 5.61421 0
M  V30 28565 H 2713.31 -0.417368 6.50462 0
M  V30 28566 N 2716.75 -1.1702 1.05565 0
M  V30 28567 C 2718 -1.86709 0.763069 0
M  V30 28568 C 2718.31 -1.82149 -0.712825 0
M  V30 28569 O 2719.52 -2.47345 -1.1195 0
M  V30 28570 C 2717.97 -3.35024 1.3148 0
M  V30 28571 C 2717.58 -3.48077 2.8204 0
M  V30 28572 C 2719.32 -4.10016 1.09942 0
M  V30 28573 C 2717.23 -4.90436 3.30495 0
M  V30 28574 H 2716.16 -0.699377 0.281759 0
M  V30 28575 H 2718.81 -1.32122 1.27342 0
M  V30 28576 H 2717.19 -3.89171 0.73224 0
M  V30 28577 H 2718.37 -3.04127 3.46184 0
M  V30 28578 H 2716.68 -2.8651 3.02161 0
M  V30 28579 H 2719.28 -5.15045 1.43641 0
M  V30 28580 H 2719.62 -4.16283 0.0373804 0
M  V30 28581 H 2720.16 -3.62086 1.64738 0
M  V30 28582 H 2716.89 -4.89344 4.36145 0
M  V30 28583 H 2716.41 -5.3504 2.71095 0
M  V30 28584 H 2718.09 -5.59222 3.25392 0
M  V30 28585 N 2718.23 -0.837197 -1.33524 0
M  V30 28586 C 2719.16 -0.284246 -2.31763 0
M  V30 28587 C 2720.14 0.607114 -1.58897 0
M  V30 28588 O 2721.32 0.531015 -1.86799 0
M  V30 28589 C 2718.45 0.542901 -3.4303 0
M  V30 28590 C 2717.41 -0.252526 -4.27254 0
M  V30 28591 C 2716.73 0.698266 -5.30121 0
M  V30 28592 C 2718.03 -1.46866 -5.01226 0
M  V30 28593 H 2719.73 -1.10507 -2.7826 0
M  V30 28594 H 2717.27 -0.532836 -1.33779 0
M  V30 28595 H 2719.22 0.940024 -4.10782 0
M  V30 28596 H 2717.95 1.39692 -2.95218 0
M  V30 28597 H 2716.61 -0.631188 -3.61125 0
M  V30 28598 H 2716.26 1.54864 -4.78567 0
M  V30 28599 H 2715.96 0.170171 -5.87354 0
M  V30 28600 H 2717.48 1.09294 -6.00739 0
M  V30 28601 H 2718.89 -1.14479 -5.61754 0
M  V30 28602 H 2717.29 -1.93343 -5.68101 0
M  V30 28603 H 2718.36 -2.23932 -4.30096 0
M  V30 28604 N 2719.7 1.45999 -0.593476 0
M  V30 28605 C 2720.63 2.33185 0.121151 0
M  V30 28606 C 2721.61 1.45992 0.872952 0
M  V30 28607 O 2722.8 1.7479 0.846291 0
M  V30 28608 C 2719.93 3.28458 1.12838 0
M  V30 28609 C 2718.88 4.25177 0.490725 0
M  V30 28610 C 2718.21 5.10037 1.6052 0
M  V30 28611 C 2719.51 5.1908 -0.579041 0
M  V30 28612 H 2721.2 2.93186 -0.606818 0
M  V30 28613 H 2718.75 1.40982 -0.293266 0
M  V30 28614 H 2720.7 3.88314 1.63677 0
M  V30 28615 H 2719.43 2.66587 1.88677 0
M  V30 28616 H 2718.09 3.666 0.00332884 0
M  V30 28617 H 2717.73 4.44543 2.35351 0
M  V30 28618 H 2717.43 5.75545 1.18412 0
M  V30 28619 H 2718.96 5.72758 2.11613 0
M  V30 28620 H 2720.37 5.7309 -0.155299 0
M  V30 28621 H 2718.77 5.9299 -0.921051 0
M  V30 28622 H 2719.84 4.62361 -1.46117 0
M  V30 28623 N 2721.18 0.331843 1.54067 0
M  V30 28624 C 2722.11 -0.522892 2.2757 0
M  V30 28625 C 2723.09 -1.11244 1.28681 0
M  V30 28626 O 2724.28 -1.13603 1.57506 0
M  V30 28627 C 2721.41 -1.67981 3.03973 0
M  V30 28628 C 2720.36 -1.21917 4.10269 0
M  V30 28629 C 2719.69 -2.46369 4.74559 0
M  V30 28630 C 2720.99 -0.328058 5.21269 0
M  V30 28631 H 2722.68 0.0902503 2.99264 0
M  V30 28632 H 2720.23 0.0448463 1.4393 0
M  V30 28633 H 2722.18 -2.28412 3.54127 0
M  V30 28634 H 2720.91 -2.31967 2.2991 0
M  V30 28635 H 2719.56 -0.637745 3.6101 0
M  V30 28636 H 2719.21 -3.08736 3.97103 0
M  V30 28637 H 2718.91 -2.16234 5.46367 0
M  V30 28638 H 2720.44 -3.07546 5.27492 0
M  V30 28639 H 2721.85 -0.838878 5.67129 0
M  V30 28640 H 2720.25 -0.119122 5.99982 0
M  V30 28641 H 2721.32 0.638924 4.80672 0
M  V30 28642 N 2722.66 -1.57485 0.0601958 0
M  V30 28643 C 2723.91 -1.93331 -0.612467 0
M  V30 28644 C 2724.24 -0.939556 -1.69959 0
M  V30 28645 O 2723.51 0.0330616 -1.94472 0
M  V30 28646 C 2723.8 -3.39511 -1.20019 0
M  V30 28647 C 2723.65 -4.49639 -0.120511 0
M  V30 28648 C 2724.97 -3.86267 -2.10916 0
M  V30 28649 H 2722.09 -0.70303 -0.221172 0
M  V30 28650 H 2724.73 -1.89596 0.123801 0
M  V30 28651 H 2722.88 -3.42824 -1.82768 0
M  V30 28652 H 2724.55 -4.58451 0.51193 0
M  V30 28653 H 2722.8 -4.30295 0.550327 0
M  V30 28654 H 2723.47 -5.49029 -0.571922 0
M  V30 28655 H 2725.94 -3.84887 -1.58118 0
M  V30 28656 H 2724.82 -4.89184 -2.48978 0
M  V30 28657 H 2725.08 -3.23541 -3.01286 0
M  V30 28658 N 2724.14 0.213268 -1.5615 0
M  V30 28659 C 2725.09 1.28391 -1.93955 0
M  V30 28660 C 2726.08 1.48086 -0.822618 0
M  V30 28661 O 2727.29 1.49162 -1.00751 0
M  V30 28662 H 2723.66 0.430635 -0.616488 0
M  V30 28663 H 2725.63 0.937927 -2.83276 0
M  V30 28664 C 2724.38 2.62533 -2.27973 0
M  V30 28665 H 2723.7 2.48188 -3.13437 0
M  V30 28666 H 2725.14 3.36238 -2.58303 0
M  V30 28667 C 2723.6 3.18165 -1.10781 0
M  V30 28668 O 2724.13 3.99962 -0.373272 0
M  V30 28669 N 2722.34 2.76654 -0.889426 0
M  V30 28670 H 2721.89 2.10244 -1.48847 0
M  V30 28671 H 2721.84 3.14218 -0.107055 0
M  V30 28672 N 2725.62 1.50103 0.480296 0
M  V30 28673 C 2726.57 1.64683 1.57682 0
M  V30 28674 C 2727.55 0.501727 1.52877 0
M  V30 28675 O 2728.74 0.755696 1.60057 0
M  V30 28676 C 2725.87 1.73583 2.96182 0
M  V30 28677 C 2724.96 2.9374 3.05905 0
M  V30 28678 N 2725.35 4.17545 2.85464 0
M  V30 28679 C 2723.65 2.92107 3.37031 0
M  V30 28680 C 2724.35 4.98425 2.99912 0
M  V30 28681 N 2723.32 4.32197 3.29707 0
M  V30 28682 H 2727.13 2.58107 1.40563 0
M  V30 28683 H 2724.64 1.4716 0.686848 0
M  V30 28684 H 2726.64 1.8213 3.75012 0
M  V30 28685 H 2725.3 0.813112 3.14354 0
M  V30 28686 H 2726.31 4.47192 2.61227 0
M  V30 28687 H 2722.98 2.09297 3.61249 0
M  V30 28688 H 2724.37 6.06845 2.88426 0
M  V30 28689 N 2727.09 -0.732829 1.39526 0
M  V30 28690 C 2728.32 -1.52206 1.40146 0
M  V30 28691 C 2728.74 -1.888 -0.00345517 0
M  V30 28692 O 2728.09 -1.54252 -0.97533 0
M  V30 28693 C 2728.15 -2.80826 2.27637 0
M  V30 28694 O 2727.87 -2.45786 3.62658 0
M  V30 28695 C 2729.37 -3.7484 2.36664 0
M  V30 28696 H 2726.59 -0.470289 0.478612 0
M  V30 28697 H 2729.13 -0.905356 1.83367 0
M  V30 28698 H 2727.29 -3.38823 1.87824 0
M  V30 28699 H 2727.7 -3.28424 4.08947 0
M  V30 28700 H 2729.17 -4.61978 3.02126 0
M  V30 28701 H 2729.65 -4.16742 1.38645 0
M  V30 28702 H 2730.26 -3.22761 2.76957 0
M  V30 28703 N 2728.57 -1.24737 -0.963244 0
M  V30 28704 C 2729.85 -0.99763 -1.68246 0
M  V30 28705 C 2730.23 0.47874 -2.056 0
M  V30 28706 O 2729.58 1.45409 -1.76263 0
M  V30 28707 C 2729.79 -1.92492 -2.91115 0
M  V30 28708 C 2731.14 -2.19839 -3.63257 0
M  V30 28709 O 2732.16 -1.90181 -3.0118 0
M  V30 28710 O 2731.02 -2.70228 -4.75015 0
M  V30 28711 H 2728.11 -0.37765 -0.735738 0
M  V30 28712 H 2730.66 -1.35855 -1.01694 0
M  V30 28713 H 2729.43 -2.9222 -2.60237 0
M  V30 28714 H 2729.05 -1.56745 -3.654 0
M  V30 28715 N 2730.05 1.16459 -1.06184 0
M  V30 28716 C 2731.28 1.90589 -0.797459 0
M  V30 28717 C 2731.69 1.77618 0.651814 0
M  V30 28718 O 2731.03 1.11768 1.45786 0
M  V30 28719 C 2731.09 3.41891 -1.11134 0
M  V30 28720 C 2730.76 3.78648 -2.55881 0
M  V30 28721 C 2731.75 3.80659 -3.54111 0
M  V30 28722 C 2729.44 4.09312 -2.91151 0
M  V30 28723 C 2731.43 4.12821 -4.85652 0
M  V30 28724 C 2729.12 4.4114 -4.22893 0
M  V30 28725 C 2730.12 4.42874 -5.19953 0
M  V30 28726 O 2729.81 4.73947 -6.4933 0
M  V30 28727 H 2729.54 0.611242 -0.288719 0
M  V30 28728 H 2732.09 1.48558 -1.41844 0
M  V30 28729 H 2730.32 3.84265 -0.433285 0
M  V30 28730 H 2732.01 3.97295 -0.831375 0
M  V30 28731 H 2732.78 3.57082 -3.28204 0
M  V30 28732 H 2728.66 4.07127 -2.1626 0
M  V30 28733 H 2732.2 4.14089 -5.61405 0
M  V30 28734 H 2728.1 4.64182 -4.48559 0
M  V30 28735 H 2728.87 4.91763 -6.54302 0
M  V30 28736 N 2731.53 0.844266 1.33079 0
M  V30 28737 C 2732.94 0.532755 1.50446 0
M  V30 28738 C 2733.14 -0.938806 1.78294 0
M  V30 28739 O 2732.2 -1.72236 1.84638 0
M  V30 28740 C 2733.51 1.41076 2.65552 0
M  V30 28741 C 2735.06 1.4101 2.79437 0
M  V30 28742 C 2735.54 2.27308 3.97612 0
M  V30 28743 N 2737.03 2.25047 4.04856 0
M  V30 28744 C 2737.76 2.88555 4.95503 0
M  V30 28745 N 2737.26 3.61136 5.9123 0
M  V30 28746 N 2739.05 2.77997 4.88543 0
M  V30 28747 H 2731.2 1.79679 1.13266 0
M  V30 28748 H 2733.47 0.766871 0.557327 0
M  V30 28749 H 2733.17 2.45672 2.5167 0
M  V30 28750 H 2733.05 1.09067 3.61087 0
M  V30 28751 H 2735.43 0.371835 2.92748 0
M  V30 28752 H 2735.51 1.77029 1.84647 0
M  V30 28753 H 2735.16 3.31197 3.8506 0
M  V30 28754 H 2735.09 1.88628 4.91657 0
M  V30 28755 H 2737.58 1.7227 3.3635 0
M  V30 28756 H 2737.89 4.06787 6.57072 0
M  V30 28757 H 2736.24 3.65244 5.91288 0
M  V30 28758 H 2739.43 2.20853 4.12725 0
M  V30 28759 H 2739.6 3.27775 5.58988 0
M  V30 28760 N 2733.01 -1.45682 0.60121 0
M  V30 28761 C 2734.25 -2.03142 0.102461 0
M  V30 28762 C 2734.61 -1.46209 -1.25063 0
M  V30 28763 O 2733.9 -0.624837 -1.81125 0
M  V30 28764 C 2734.09 -3.574 -0.00216142 0
M  V30 28765 C 2733.92 -4.29295 1.33924 0
M  V30 28766 C 2732.69 -4.67473 1.91827 0
M  V30 28767 C 2734.89 -4.6166 2.2666 0
M  V30 28768 N 2732.87 -5.24199 3.19513 0
M  V30 28769 C 2734.24 -5.19151 3.38942 0
M  V30 28770 C 2736.3 -4.43597 2.26111 0
M  V30 28771 C 2735 -5.60484 4.50832 0
M  V30 28772 C 2737.03 -4.85958 3.37044 0
M  V30 28773 C 2736.39 -5.43537 4.48048 0
M  V30 28774 H 2732.49 -0.777824 0.0807111 0
M  V30 28775 H 2735.07 -1.77588 0.798166 0
M  V30 28776 H 2733.24 -3.82629 -0.667073 0
M  V30 28777 H 2734.98 -4.01512 -0.506987 0
M  V30 28778 H 2731.73 -4.50823 1.45105 0
M  V30 28779 H 2732.16 -5.57067 3.84715 0
M  V30 28780 H 2736.8 -3.984 1.41554 0
M  V30 28781 H 2734.52 -6.04651 5.36119 0
M  V30 28782 H 2738.1 -4.73719 3.3776 0
M  V30 28783 H 2736.98 -5.75714 5.32469 0
M  V30 28784 N 2734.48 -0.340009 -1.53889 0
M  V30 28785 C 2735.73 0.250659 -2.0185 0
M  V30 28786 C 2736.09 1.4848 -1.22358 0
M  V30 28787 O 2735.38 1.89206 -0.301939 0
M  V30 28788 C 2735.57 0.620673 -3.51969 0
M  V30 28789 C 2735.4 -0.576059 -4.45995 0
M  V30 28790 C 2734.17 -1.08027 -4.93617 0
M  V30 28791 C 2736.37 -1.43341 -4.93921 0
M  V30 28792 N 2734.35 -2.2397 -5.71586 0
M  V30 28793 C 2735.72 -2.43979 -5.69977 0
M  V30 28794 C 2737.78 -1.45927 -4.76035 0
M  V30 28795 C 2736.48 -3.47028 -6.30051 0
M  V30 28796 C 2738.51 -2.47855 -5.36956 0
M  V30 28797 C 2737.87 -3.47218 -6.12877 0
M  V30 28798 H 2733.97 0.0551231 -0.780055 0
M  V30 28799 H 2736.55 -0.478774 -1.88722 0
M  V30 28800 H 2734.72 1.31921 -3.6531 0
M  V30 28801 H 2736.45 1.19422 -3.86679 0
M  V30 28802 H 2733.21 -0.648923 -4.69133 0
M  V30 28803 H 2733.63 -2.82499 -6.15242 0
M  V30 28804 H 2738.28 -0.704681 -4.16886 0
M  V30 28805 H 2735.99 -4.23383 -6.88311 0
M  V30 28806 H 2739.58 -2.50678 -5.25026 0
M  V30 28807 H 2738.46 -4.24797 -6.59179 0
M  V30 28808 N 2735.96 1.57451 -0.0685468 0
M  V30 28809 C 2736.93 2.11419 0.885136 0
M  V30 28810 C 2737.93 1.03751 1.22851 0
M  V30 28811 O 2739.12 1.29752 1.16233 0
M  V30 28812 C 2736.25 2.61285 2.18959 0
M  V30 28813 H 2737.44 2.96987 0.416981 0
M  V30 28814 H 2734.99 1.55259 0.180113 0
M  V30 28815 H 2735.73 1.79161 2.70318 0
M  V30 28816 H 2735.51 3.39981 1.95334 0
M  V30 28817 H 2737 3.03125 2.87237 0
M  V30 28818 N 2737.44 -0.204984 1.56261 0
M  V30 28819 C 2738.35 -1.27473 1.96946 0
M  V30 28820 C 2739.37 -1.5036 0.875662 0
M  V30 28821 O 2740.54 -1.63167 1.18061 0
M  V30 28822 C 2737.61 -2.60111 2.29223 0
M  V30 28823 C 2736.67 -2.45381 3.52259 0
M  V30 28824 C 2735.9 -3.71694 3.82987 0
M  V30 28825 O 2736.13 -4.75436 3.15146 0
M  V30 28826 O 2735.06 -3.67815 4.76441 0
M  V30 28827 H 2738.89 -0.959477 2.88145 0
M  V30 28828 H 2736.47 -0.409192 1.43687 0
M  V30 28829 H 2738.35 -3.38415 2.51104 0
M  V30 28830 H 2737.03 -2.91283 1.41195 0
M  V30 28831 H 2735.93 -1.65221 3.35638 0
M  V30 28832 H 2737.27 -2.19144 4.40723 0
M  V30 28833 N 2738.92 -1.50356 -0.472329 0
M  V30 28834 C 2740.17 -1.61522 -1.22632 0
M  V30 28835 C 2740.5 -0.314029 -1.91644 0
M  V30 28836 O 2739.77 0.684414 -1.8206 0
M  V30 28837 C 2740.06 -2.79464 -2.27094 0
M  V30 28838 C 2739.91 -4.19462 -1.62394 0
M  V30 28839 C 2741.23 -2.9297 -3.28415 0
M  V30 28840 H 2738.35 -0.587881 -0.444483 0
M  V30 28841 H 2740.99 -1.82738 -0.520289 0
M  V30 28842 H 2739.14 -2.61506 -2.87309 0
M  V30 28843 H 2740.81 -4.49007 -1.05786 0
M  V30 28844 H 2739.05 -4.23777 -0.927109 0
M  V30 28845 H 2739.73 -4.97913 -2.383 0
M  V30 28846 H 2742.2 -3.09406 -2.78221 0
M  V30 28847 H 2741.08 -3.7712 -3.98838 0
M  V30 28848 H 2741.34 -2.03532 -3.92463 0
M  V30 28849 N 2740.4 0.725419 -1.39912 0
M  V30 28850 C 2741.33 1.85001 -1.35305 0
M  V30 28851 C 2742.34 1.60708 -0.260131 0
M  V30 28852 O 2743.53 1.70765 -0.519779 0
M  V30 28853 C 2740.63 3.21216 -1.08045 0
M  V30 28854 C 2739.8 3.72786 -2.288 0
M  V30 28855 C 2738.86 4.87588 -1.9785 0
M  V30 28856 O 2737.89 5.0075 -2.70625 0
M  V30 28857 N 2739.09 5.72666 -0.950468 0
M  V30 28858 H 2741.86 1.89455 -2.32222 0
M  V30 28859 H 2739.42 0.906556 -1.34139 0
M  V30 28860 H 2741.41 3.95599 -0.853424 0
M  V30 28861 H 2739.98 3.11971 -0.198284 0
M  V30 28862 H 2739.2 2.89645 -2.67394 0
M  V30 28863 H 2740.49 4.03976 -3.09324 0
M  V30 28864 H 2739.89 5.64631 -0.347535 0
M  V30 28865 H 2738.44 6.47076 -0.783346 0
M  V30 28866 N 2741.88 1.25246 0.956615 0
M  V30 28867 C 2742.81 1.01245 2.05626 0
M  V30 28868 C 2743.82 -0.0219293 1.62785 0
M  V30 28869 O 2745.01 0.216397 1.77183 0
M  V30 28870 C 2742.11 0.50822 3.35068 0
M  V30 28871 C 2741.28 1.6083 4.06759 0
M  V30 28872 C 2740.34 1.10479 5.14471 0
M  V30 28873 O 2739.37 1.79877 5.4003 0
M  V30 28874 N 2740.57 -0.0549753 5.80474 0
M  V30 28875 H 2743.33 1.95929 2.26786 0
M  V30 28876 H 2740.9 1.16425 1.12503 0
M  V30 28877 H 2742.89 0.15589 4.044 0
M  V30 28878 H 2741.46 -0.344629 3.10694 0
M  V30 28879 H 2740.68 2.1323 3.31552 0
M  V30 28880 H 2741.97 2.34741 4.51414 0
M  V30 28881 H 2741.36 -0.634905 5.62126 0
M  V30 28882 H 2739.92 -0.348355 6.50868 0
M  V30 28883 N 2743.35 -1.15894 1.068 0
M  V30 28884 C 2744.58 -1.9044 0.808728 0
M  V30 28885 C 2745 -1.77712 -0.637474 0
M  V30 28886 O 2744.35 -1.12525 -1.43682 0
M  V30 28887 C 2744.4 -3.40976 1.20074 0
M  V30 28888 O 2744.13 -3.53328 2.59019 0
M  V30 28889 C 2745.63 -4.32559 0.969946 0
M  V30 28890 H 2742.85 -0.603736 0.29282 0
M  V30 28891 H 2745.39 -1.46872 1.42299 0
M  V30 28892 H 2743.55 -3.82228 0.630909 0
M  V30 28893 H 2743.96 -4.46714 2.74858 0
M  V30 28894 H 2745.43 -5.36623 1.2938 0
M  V30 28895 H 2745.91 -4.39099 -0.0940438 0
M  V30 28896 H 2746.52 -3.97042 1.5244 0
M  V30 28897 N 2744.83 -0.851312 -1.32629 0
M  V30 28898 C 2746.24 -0.508132 -1.79652 0
M  V30 28899 C 2746.59 0.973785 -1.70329 0
M  V30 28900 O 2745.72 1.75942 -1.25989 0
M  V30 28901 C 2746.31 -0.915573 -3.26194 0
M  V30 28902 C 2744.87 -0.624342 -3.71186 0
M  V30 28903 C 2744.02 -1.11714 -2.53802 0
M  V30 28904 H 2746.97 -1.03884 -1.19974 0
M  V30 28905 H 2746.99 -0.230602 -3.79801 0
M  V30 28906 H 2746.5 -1.99417 -3.32948 0
M  V30 28907 H 2744.6 0.443672 -3.69949 0
M  V30 28908 H 2744.72 -1.18829 -4.6413 0
M  V30 28909 H 2743.08 -0.537527 -2.48963 0
M  V30 28910 H 2743.86 -2.20277 -2.63311 0
M  V30 28911 N 2746.31 1.45361 -0.608928 0
M  V30 28912 C 2747.26 2.30542 0.109131 0
M  V30 28913 C 2748.23 1.42183 0.858679 0
M  V30 28914 O 2749.41 1.7111 0.844148 0
M  V30 28915 C 2746.55 3.27111 1.09965 0
M  V30 28916 C 2745.66 4.30573 0.350836 0
M  V30 28917 C 2744.8 5.1425 1.33119 0
M  V30 28918 C 2743.84 6.09438 0.57027 0
M  V30 28919 N 2742.98 6.8589 1.49998 0
M  V30 28920 H 2747.82 2.9141 -0.623246 0
M  V30 28921 H 2745.35 1.43596 -0.319147 0
M  V30 28922 H 2747.31 3.81567 1.68708 0
M  V30 28923 H 2745.94 2.67994 1.79942 0
M  V30 28924 H 2744.99 3.78767 -0.35212 0
M  V30 28925 H 2746.3 4.98209 -0.242812 0
M  V30 28926 H 2745.46 5.73113 1.99064 0
M  V30 28927 H 2744.2 4.46636 1.95877 0
M  V30 28928 H 2743.2 5.49704 -0.102798 0
M  V30 28929 H 2744.43 6.7908 -0.05228 0
M  V30 28930 H 2742.37 6.20964 2.11518 0
M  V30 28931 H 2742.29 7.49883 0.959802 0
M  V30 28932 H 2743.56 7.49293 2.14896 0
M  V30 28933 N 2747.79 0.348166 1.53706 0
M  V30 28934 C 2749.2 -0.00358329 1.596 0
M  V30 28935 C 2749.4 -1.48318 1.36397 0
M  V30 28936 O 2748.46 -2.24251 1.1605 0
M  V30 28937 C 2749.77 0.436735 2.97512 0
M  V30 28938 C 2751.32 0.389471 3.10567 0
M  V30 28939 C 2751.8 0.805328 4.50864 0
M  V30 28940 N 2753.29 0.759697 4.56928 0
M  V30 28941 C 2754.02 1.05337 5.63641 0
M  V30 28942 N 2753.52 1.41543 6.78187 0
M  V30 28943 N 2755.31 0.977305 5.53539 0
M  V30 28944 H 2747.46 1.31189 1.67042 0
M  V30 28945 H 2749.72 0.535089 0.782549 0
M  V30 28946 H 2749.43 1.46855 3.19572 0
M  V30 28947 H 2749.3 -0.185678 3.76743 0
M  V30 28948 H 2751.69 -0.633178 2.88227 0
M  V30 28949 H 2751.77 1.04715 2.33385 0
M  V30 28950 H 2751.42 1.82601 4.7394 0
M  V30 28951 H 2751.35 0.125081 5.26451 0
M  V30 28952 H 2753.84 0.492716 3.74674 0
M  V30 28953 H 2754.15 1.62424 7.55538 0
M  V30 28954 H 2752.5 1.45393 6.79622 0
M  V30 28955 H 2755.69 0.693756 4.6293 0
M  V30 28956 H 2755.86 1.20952 6.36612 0
M  V30 28957 N 2749.27 -1.57412 0.0768958 0
M  V30 28958 C 2750.22 -2.09538 -0.898758 0
M  V30 28959 C 2751.2 -1.00622 -1.25555 0
M  V30 28960 O 2752.39 -1.26924 -1.23367 0
M  V30 28961 C 2749.52 -2.66468 -2.16448 0
M  V30 28962 C 2748.61 -3.82397 -1.83395 0
M  V30 28963 N 2749 -4.91159 -1.20814 0
M  V30 28964 C 2747.3 -3.91788 -2.13115 0
M  V30 28965 C 2748 -5.71967 -1.05966 0
M  V30 28966 N 2746.97 -5.20403 -1.57104 0
M  V30 28967 H 2750.77 -2.91017 -0.410667 0
M  V30 28968 H 2748.29 -1.61904 -0.126849 0
M  V30 28969 H 2750.29 -3.0213 -2.87268 0
M  V30 28970 H 2748.95 -1.86438 -2.6584 0
M  V30 28971 H 2749.96 -5.10418 -0.877159 0
M  V30 28972 H 2746.63 -3.22741 -2.64848 0
M  V30 28973 H 2748.02 -6.69463 -0.571692 0
M  V30 28974 N 2750.74 0.196695 -1.56368 0
M  V30 28975 C 2751.97 0.937682 -1.84993 0
M  V30 28976 C 2752.39 1.76131 -0.660275 0
M  V30 28977 O 2751.75 1.77035 0.390936 0
M  V30 28978 C 2751.8 1.81091 -3.11831 0
M  V30 28979 O 2750.9 2.90949 -2.92271 0
M  V30 28980 H 2750.25 0.264148 -0.609198 0
M  V30 28981 H 2752.78 0.202493 -2.03595 0
M  V30 28982 H 2752.79 2.21587 -3.42583 0
M  V30 28983 H 2751.46 1.20573 -3.98039 0
M  V30 28984 H 2750.04 2.54219 -2.72813 0
M  V30 28985 N 2752.22 1.50604 0.464349 0
M  V30 28986 C 2753.15 1.72892 1.56941 0
M  V30 28987 C 2754.13 0.578025 1.59978 0
M  V30 28988 O 2755.32 0.817886 1.76137 0
M  V30 28989 C 2752.45 1.82925 2.95222 0
M  V30 28990 C 2751.4 2.98167 3.07051 0
M  V30 28991 C 2750.73 2.9335 4.47045 0
M  V30 28992 C 2752.03 4.38572 2.8364 0
M  V30 28993 H 2753.72 2.65417 1.38542 0
M  V30 28994 H 2751.27 1.27722 0.665059 0
M  V30 28995 H 2753.22 1.97101 3.72464 0
M  V30 28996 H 2751.95 0.870264 3.14792 0
M  V30 28997 H 2750.6 2.83652 2.32243 0
M  V30 28998 H 2750.25 1.95284 4.63544 0
M  V30 28999 H 2749.95 3.7072 4.55895 0
M  V30 29000 H 2751.48 3.09584 5.26298 0
M  V30 29001 H 2752.89 4.53578 3.50628 0
M  V30 29002 H 2751.29 5.17444 3.03928 0
M  V30 29003 H 2752.36 4.50475 1.79443 0
M  V30 29004 N 2753.7 -0.717989 1.40295 0
M  V30 29005 C 2754.93 -1.51217 1.41944 0
M  V30 29006 C 2755.35 -1.88089 0.0202701 0
M  V30 29007 O 2754.71 -1.53102 -0.971051 0
M  V30 29008 C 2754.76 -2.7655 2.31415 0
M  V30 29009 O 2753.86 -3.73159 1.75574 0
M  V30 29010 H 2753.2 -0.456007 0.482652 0
M  V30 29011 H 2755.73 -0.884445 1.84496 0
M  V30 29012 H 2755.74 -3.25104 2.46518 0
M  V30 29013 H 2754.42 -2.49047 3.33089 0
M  V30 29014 H 2752.99 -3.31996 1.69804 0
M  V30 29015 N 2755.18 -1.25752 -0.94996 0
M  V30 29016 C 2756.4 -1.13631 -1.73501 0
M  V30 29017 C 2756.83 0.305557 -1.85602 0
M  V30 29018 O 2756.19 1.22137 -1.33986 0
M  V30 29019 C 2756.23 -1.80061 -3.12427 0
M  V30 29020 O 2755.34 -1.08343 -3.97914 0
M  V30 29021 H 2754.68 -0.396449 -0.532658 0
M  V30 29022 H 2757.21 -1.66405 -1.1904 0
M  V30 29023 H 2757.22 -1.86533 -3.62863 0
M  V30 29024 H 2755.89 -2.84961 -3.02936 0
M  V30 29025 H 2754.47 -1.09784 -3.56373 0
M  V30 29026 N 2756.66 1.15326 -1.07413 0
M  V30 29027 C 2757.88 1.90008 -0.818816 0
M  V30 29028 C 2758.3 1.78048 0.628041 0
M  V30 29029 O 2757.66 1.13285 1.43083 0
M  V30 29030 C 2757.71 3.40334 -1.2188 0
M  V30 29031 O 2757.43 3.5195 -2.60889 0
M  V30 29032 C 2758.93 4.32038 -0.992872 0
M  V30 29033 H 2756.15 0.602175 -0.296017 0
M  V30 29034 H 2758.69 1.46115 -1.43076 0
M  V30 29035 H 2756.85 3.81888 -0.651171 0
M  V30 29036 H 2757.26 4.4525 -2.77223 0
M  V30 29037 H 2758.74 5.3593 -1.32225 0
M  V30 29038 H 2759.21 4.39143 0.0707559 0
M  V30 29039 H 2759.82 3.96228 -1.54544 0
M  V30 29040 N 2758.13 0.858334 1.32176 0
M  V30 29041 C 2759.08 0.303647 2.28794 0
M  V30 29042 C 2760.05 -0.591426 1.55214 0
M  V30 29043 O 2761.24 -0.525553 1.83419 0
M  V30 29044 C 2758.38 -0.49883 3.41476 0
M  V30 29045 C 2757.49 0.422448 4.2993 0
M  V30 29046 C 2756.62 -0.393018 5.29744 0
M  V30 29047 C 2755.66 0.525425 6.09841 0
M  V30 29048 N 2754.8 -0.253084 7.01644 0
M  V30 29049 H 2759.64 1.13281 2.75629 0
M  V30 29050 H 2757.18 0.570049 1.35605 0
M  V30 29051 H 2759.14 -0.979755 4.05533 0
M  V30 29052 H 2757.77 -1.29279 2.95782 0
M  V30 29053 H 2756.82 1.02178 3.6642 0
M  V30 29054 H 2758.13 1.12717 4.85897 0
M  V30 29055 H 2757.28 -0.936951 5.99421 0
M  V30 29056 H 2756.02 -1.13109 4.74402 0
M  V30 29057 H 2755.03 1.08121 5.39064 0
M  V30 29058 H 2756.25 1.26216 6.67268 0
M  V30 29059 H 2754.2 -0.974181 6.48726 0
M  V30 29060 H 2754.12 0.392531 7.5498 0
M  V30 29061 H 2755.38 -0.778625 7.75602 0
M  V30 29062 N 2759.61 -1.45036 0.616628 0
M  V30 29063 C 2760.54 -2.33349 -0.0840377 0
M  V30 29064 C 2761.52 -1.47362 -0.849615 0
M  V30 29065 O 2762.71 -1.76114 -0.818376 0
M  V30 29066 C 2759.84 -3.30212 -1.07599 0
M  V30 29067 C 2758.79 -4.25904 -0.423021 0
M  V30 29068 C 2758.12 -5.12526 -1.52385 0
M  V30 29069 C 2759.42 -5.18093 0.661549 0
M  V30 29070 H 2761.11 -2.92184 0.653385 0
M  V30 29071 H 2758.66 -1.40498 0.315658 0
M  V30 29072 H 2760.61 -3.90869 -1.57479 0
M  V30 29073 H 2759.34 -2.69555 -1.84412 0
M  V30 29074 H 2757.99 -3.66559 0.0549944 0
M  V30 29075 H 2757.64 -4.48231 -2.28249 0
M  V30 29076 H 2757.34 -5.77356 -1.09241 0
M  V30 29077 H 2758.87 -5.76052 -2.02474 0
M  V30 29078 H 2760.28 -5.7277 0.246453 0
M  V30 29079 H 2758.68 -5.91449 1.01527 0
M  V30 29080 H 2759.75 -4.59978 1.53454 0
M  V30 29081 N 2761.09 -0.356312 -1.53519 0
M  V30 29082 C 2762.02 0.486621 -2.28373 0
M  V30 29083 C 2763 1.09183 -1.30434 0
M  V30 29084 O 2764.19 1.11082 -1.59293 0
M  V30 29085 C 2761.32 1.63124 -3.06607 0
M  V30 29086 C 2760.27 1.15374 -4.12156 0
M  V30 29087 C 2759.6 2.38788 -4.78419 0
M  V30 29088 C 2760.9 0.245088 -5.21725 0
M  V30 29089 H 2762.59 -0.137849 -2.99082 0
M  V30 29090 H 2760.14 -0.0677387 -1.43841 0
M  V30 29091 H 2762.09 2.22749 -3.57716 0
M  V30 29092 H 2760.81 2.2828 -2.33572 0
M  V30 29093 H 2759.47 0.580231 -3.61979 0
M  V30 29094 H 2759.12 3.02379 -4.01965 0
M  V30 29095 H 2758.82 2.07514 -5.49738 0
M  V30 29096 H 2760.34 2.99115 -5.32318 0
M  V30 29097 H 2761.76 0.748547 -5.68392 0
M  V30 29098 H 2760.16 0.0236553 -6.00095 0
M  V30 29099 H 2761.23 -0.715314 -4.79595 0
M  V30 29100 N 2762.57 1.57369 -0.0852427 0
M  V30 29101 C 2763.79 1.98747 0.592838 0
M  V30 29102 C 2764.22 0.963717 1.61537 0
M  V30 29103 O 2763.58 -0.0690391 1.81169 0
M  V30 29104 C 2763.62 3.39121 1.22593 0
M  V30 29105 O 2762.73 3.39461 2.34179 0
M  V30 29106 H 2762.07 0.646532 0.151303 0
M  V30 29107 H 2764.6 2.03944 -0.163739 0
M  V30 29108 H 2764.61 3.76601 1.56959 0
M  V30 29109 H 2763.28 4.13158 0.476759 0
M  V30 29110 H 2761.86 3.13767 2.01507 0
M  V30 29111 N 2764.05 -0.188399 1.5647 0
M  V30 29112 C 2765.46 -0.752464 1.70865 0
M  V30 29113 C 2765.81 -1.83556 0.692938 0
M  V30 29114 O 2764.93 -2.15885 -0.149269 0
M  V30 29115 C 2765.53 -1.37168 3.09791 0
M  V30 29116 C 2764.09 -1.88275 3.25929 0
M  V30 29117 C 2763.23 -0.755212 2.66818 0
M  V30 29118 H 2766.19 0.0367687 1.58657 0
M  V30 29119 H 2766.21 -2.24117 3.07493 0
M  V30 29120 H 2765.72 -0.583151 3.83694 0
M  V30 29121 H 2763.82 -2.69826 2.56953 0
M  V30 29122 H 2763.93 -2.03994 4.33501 0
M  V30 29123 H 2762.3 -1.17124 2.26172 0
M  V30 29124 H 2763.08 0.0211841 3.43293 0
M  V30 29125 N 2765.53 -1.50848 -0.456355 0
M  V30 29126 C 2766.46 -1.66956 -1.5703 0
M  V30 29127 C 2767.47 -0.55062 -1.53206 0
M  V30 29128 O 2768.66 -0.824313 -1.58327 0
M  V30 29129 C 2765.76 -1.65154 -2.95935 0
M  V30 29130 C 2764.93 -2.93322 -3.2447 0
M  V30 29131 C 2763.99 -2.83965 -4.43002 0
M  V30 29132 O 2763.02 -3.57919 -4.42586 0
M  V30 29133 N 2764.22 -1.9852 -5.455 0
M  V30 29134 H 2766.98 -2.63044 -1.43624 0
M  V30 29135 H 2764.55 -1.48497 -0.645011 0
M  V30 29136 H 2766.54 -1.56487 -3.73221 0
M  V30 29137 H 2765.11 -0.767397 -3.03034 0
M  V30 29138 H 2764.33 -3.16004 -2.35659 0
M  V30 29139 H 2765.62 -3.78202 -3.40353 0
M  V30 29140 H 2765.01 -1.37776 -5.48666 0
M  V30 29141 H 2763.57 -1.95746 -6.21713 0
M  V30 29142 N 2767 0.710538 -1.40674 0
M  V30 29143 C 2767.94 1.83435 -1.35745 0
M  V30 29144 C 2768.91 1.61007 -0.227025 0
M  V30 29145 O 2770.1 1.83953 -0.41151 0
M  V30 29146 C 2767.23 3.19863 -1.1138 0
M  V30 29147 C 2766.27 3.61109 -2.26941 0
M  V30 29148 S 2767.1 3.67641 -3.89359 0
M  V30 29149 C 2768.26 5.06819 -3.67267 0
M  V30 29150 H 2768.49 1.87337 -2.30851 0
M  V30 29151 H 2766.03 0.877809 -1.27019 0
M  V30 29152 H 2767.98 3.98629 -0.980074 0
M  V30 29153 H 2766.65 3.13588 -0.17919 0
M  V30 29154 H 2765.84 4.6018 -2.05548 0
M  V30 29155 H 2765.44 2.89614 -2.36643 0
M  V30 29156 H 2767.73 5.93885 -3.26047 0
M  V30 29157 H 2768.68 5.33249 -4.65887 0
M  V30 29158 H 2769.08 4.77651 -3.00849 0
M  V30 29159 N 2768.48 1.26254 0.943277 0
M  V30 29160 C 2769.71 1.1455 1.72896 0
M  V30 29161 C 2770.13 -0.29571 1.85761 0
M  V30 29162 O 2769.49 -1.21425 1.34632 0
M  V30 29163 C 2769.54 1.81715 3.11467 0
M  V30 29164 O 2768.64 1.10452 3.97334 0
M  V30 29165 H 2767.98 0.399268 0.530548 0
M  V30 29166 H 2770.51 1.67034 1.18156 0
M  V30 29167 H 2770.52 1.88455 3.61868 0
M  V30 29168 H 2769.2 2.86563 3.0142 0
M  V30 29169 H 2767.77 1.11672 3.55786 0
M  V30 29170 N 2769.96 -1.14755 1.08024 0
M  V30 29171 C 2771.21 -1.85335 0.805946 0
M  V30 29172 C 2771.53 -1.83124 -0.67013 0
M  V30 29173 O 2770.8 -1.27693 -1.48565 0
M  V30 29174 H 2769.38 -0.686218 0.29515 0
M  V30 29175 H 2772.04 -1.39078 1.36541 0
M  V30 29176 H 2771.14 -2.90275 1.1466 0
M  V30 29177 N 2771.44 -0.865331 -1.31719 0
M  V30 29178 C 2772.35 -0.320976 -2.32394 0
M  V30 29179 C 2773.36 0.566717 -1.64512 0
M  V30 29180 O 2774.54 0.46454 -1.95969 0
M  V30 29181 C 2771.6 0.47264 -3.43463 0
M  V30 29182 C 2770.67 -0.44246 -4.27014 0
M  V30 29183 C 2769.9 0.313375 -5.32779 0
M  V30 29184 O 2770.12 1.54205 -5.4916 0
M  V30 29185 O 2769.06 -0.326363 -6.01015 0
M  V30 29186 H 2772.88 -1.15533 -2.80866 0
M  V30 29187 H 2770.47 -0.628569 -1.35534 0
M  V30 29188 H 2772.35 0.922709 -4.11174 0
M  V30 29189 H 2771.02 1.28362 -2.97161 0
M  V30 29190 H 2769.93 -0.94093 -3.62074 0
M  V30 29191 H 2771.26 -1.21891 -4.76868 0
M  V30 29192 N 2772.92 1.44707 -0.624311 0
M  V30 29193 C 2773.83 2.34442 0.0860671 0
M  V30 29194 C 2774.84 1.52222 0.842883 0
M  V30 29195 O 2776.02 1.84972 0.79669 0
M  V30 29196 C 2773.08 3.301 1.05993 0
M  V30 29197 C 2772.14 4.28228 0.303241 0
M  V30 29198 C 2771.38 5.19316 1.23072 0
M  V30 29199 O 2771.6 5.14186 2.4692 0
M  V30 29200 O 2770.53 5.97593 0.718725 0
M  V30 29201 H 2774.36 2.96623 -0.651808 0
M  V30 29202 H 2771.94 1.44367 -0.384519 0
M  V30 29203 H 2773.83 3.89 1.6204 0
M  V30 29204 H 2772.5 2.70462 1.77854 0
M  V30 29205 H 2771.41 3.72894 -0.300098 0
M  V30 29206 H 2772.74 4.90768 -0.375209 0
M  V30 29207 N 2774.39 0.364449 1.53328 0
M  V30 29208 C 2775.3 -0.490512 2.29415 0
M  V30 29209 C 2776.32 -1.09361 1.35337 0
M  V30 29210 O 2777.5 -1.1048 1.68393 0
M  V30 29211 C 2774.56 -1.61524 3.06775 0
M  V30 29212 C 2773.62 -1.03979 4.16518 0
M  V30 29213 C 2772.85 -2.11091 4.9018 0
M  V30 29214 O 2773.08 -3.32183 4.63693 0
M  V30 29215 O 2772.01 -1.74212 5.76137 0
M  V30 29216 H 2775.84 0.128613 3.03428 0
M  V30 29217 H 2773.42 0.128864 1.48843 0
M  V30 29218 H 2775.3 -2.26918 3.55086 0
M  V30 29219 H 2773.98 -2.21978 2.356 0
M  V30 29220 H 2772.89 -0.34979 3.72461 0
M  V30 29221 H 2774.22 -0.479814 4.89856 0
M  V30 29222 N 2775.87 -1.57322 0.0935872 0
M  V30 29223 C 2777.15 -1.85757 -0.612659 0
M  V30 29224 C 2777.53 -0.990163 -1.86438 0
M  V30 29225 O 2776.88 -0.0621764 -2.28415 0
M  V30 29226 C 2777.09 -3.36395 -0.929488 0
M  V30 29227 C 2778.43 -4.04415 -1.29359 0
M  V30 29228 O 2779.46 -3.41267 -1.02055 0
M  V30 29229 O 2778.32 -5.15835 -1.80489 0
M  V30 29230 H 2775.41 -0.768134 -0.30643 0
M  V30 29231 H 2777.96 -1.6923 0.12617 0
M  V30 29232 H 2776.73 -3.91278 -0.0414078 0
M  V30 29233 H 2776.35 -3.58263 -1.72435 0
M  V30 29234 N 2777.35 0.180099 -1.56568 0
M  V30 29235 C 2778.57 0.918008 -1.85977 0
M  V30 29236 C 2779 1.7542 -0.678919 0
M  V30 29237 O 2778.36 1.7744 0.372137 0
M  V30 29238 C 2778.41 1.77773 -3.13734 0
M  V30 29239 O 2777.51 2.87833 -2.9534 0
M  V30 29240 H 2776.85 0.257672 -0.611965 0
M  V30 29241 H 2779.38 0.180888 -2.03799 0
M  V30 29242 H 2779.39 2.17941 -3.44914 0
M  V30 29243 H 2778.07 1.16345 -3.99295 0
M  V30 29244 H 2776.64 2.51311 -2.75494 0
M  V30 29245 N 2778.83 1.51088 0.448349 0
M  V30 29246 C 2780.1 1.53743 1.20923 0
M  V30 29247 C 2780.48 0.295258 2.09025 0
M  V30 29248 O 2779.83 -0.720245 2.16852 0
M  V30 29249 C 2780.04 2.84556 2.02062 0
M  V30 29250 C 2781.39 3.36088 2.5948 0
M  V30 29251 O 2782.41 2.86032 2.12284 0
M  V30 29252 O 2781.27 4.23403 3.45531 0
M  V30 29253 H 2778.37 0.617653 0.54994 0
M  V30 29254 H 2780.91 1.63394 0.458315 0
M  V30 29255 H 2779.69 3.66427 1.37284 0
M  V30 29256 H 2779.31 2.78016 2.84241 0
M  V30 29257 N 2780.31 -0.703068 1.41049 0
M  V30 29258 C 2781.24 -1.82967 1.4507 0
M  V30 29259 C 2782.22 -1.67248 0.310189 0
M  V30 29260 O 2783.4 -1.87092 0.52058 0
M  V30 29261 C 2780.53 -3.21038 1.32484 0
M  V30 29262 C 2779.49 -3.5145 2.44268 0
M  V30 29263 C 2778.81 -4.88798 2.16751 0
M  V30 29264 C 2780.11 -3.51182 3.86612 0
M  V30 29265 H 2781.81 -1.79858 2.39356 0
M  V30 29266 H 2779.35 -0.863899 1.15208 0
M  V30 29267 H 2781.31 -3.99557 1.33911 0
M  V30 29268 H 2780.03 -3.24754 0.346792 0
M  V30 29269 H 2778.69 -2.75277 2.42111 0
M  V30 29270 H 2778.34 -4.8913 1.17307 0
M  V30 29271 H 2778.04 -5.10111 2.91652 0
M  V30 29272 H 2779.56 -5.69635 2.19882 0
M  V30 29273 H 2780.97 -4.19718 3.90525 0
M  V30 29274 H 2779.37 -3.84025 4.61134 0
M  V30 29275 H 2780.44 -2.50308 4.153 0
M  V30 29276 N 2781.78 -1.26752 -0.936569 0
M  V30 29277 C 2782.75 -1.08764 -2.0175 0
M  V30 29278 C 2783.75 -0.0344718 -1.60763 0
M  V30 29279 O 2784.94 -0.278288 -1.71963 0
M  V30 29280 C 2782.07 -0.65533 -3.34542 0
M  V30 29281 H 2783.26 -2.04739 -2.19139 0
M  V30 29282 H 2780.82 -1.09415 -1.11616 0
M  V30 29283 H 2781.55 0.306203 -3.22851 0
M  V30 29284 H 2781.34 -1.41584 -3.65645 0
M  V30 29285 H 2782.83 -0.551451 -4.13943 0
M  V30 29286 N 2783.26 1.1418 -1.08631 0
M  V30 29287 C 2784.23 2.17529 -0.722065 0
M  V30 29288 C 2785.23 1.58934 0.244278 0
M  V30 29289 O 2786.42 1.74184 0.0235239 0
M  V30 29290 C 2783.55 3.40835 -0.0664565 0
M  V30 29291 H 2784.74 2.51266 -1.63724 0
M  V30 29292 H 2782.29 1.28868 -0.884465 0
M  V30 29293 H 2783.03 3.1268 0.860334 0
M  V30 29294 H 2782.81 3.84631 -0.761665 0
M  V30 29295 H 2784.3 4.1724 0.173272 0
M  V30 29296 N 2784.74 0.872304 1.31258 0
M  V30 29297 C 2785.69 0.327897 2.28459 0
M  V30 29298 C 2786.66 -0.57493 1.55832 0
M  V30 29299 O 2787.84 -0.506069 1.83966 0
M  V30 29300 C 2784.98 -0.462584 3.41986 0
M  V30 29301 C 2784.1 0.468024 4.29457 0
M  V30 29302 C 2783.23 -0.33681 5.30131 0
M  V30 29303 C 2782.27 0.590077 6.09249 0
M  V30 29304 N 2781.41 -0.178651 7.01873 0
M  V30 29305 H 2786.25 1.16198 2.74412 0
M  V30 29306 H 2783.78 0.5844 1.34993 0
M  V30 29307 H 2785.74 -0.936688 4.06549 0
M  V30 29308 H 2784.37 -1.26135 2.97136 0
M  V30 29309 H 2783.42 1.06058 3.65316 0
M  V30 29310 H 2784.74 1.17864 4.84675 0
M  V30 29311 H 2783.89 -0.873322 6.00382 0
M  V30 29312 H 2782.63 -1.08071 4.75575 0
M  V30 29313 H 2781.63 1.13833 5.37887 0
M  V30 29314 H 2782.86 1.33287 6.65891 0
M  V30 29315 H 2780.8 -0.90532 6.49723 0
M  V30 29316 H 2780.72 0.472585 7.54521 0
M  V30 29317 H 2781.99 -0.696318 7.76384 0
M  V30 29318 N 2786.22 -1.44374 0.631976 0
M  V30 29319 C 2787.15 -2.33425 -0.0592832 0
M  V30 29320 C 2788.13 -1.48255 -0.833938 0
M  V30 29321 O 2789.31 -1.76972 -0.799651 0
M  V30 29322 C 2786.44 -3.31334 -1.0409 0
M  V30 29323 C 2785.4 -4.26329 -0.377824 0
M  V30 29324 C 2784.72 -5.14113 -1.46941 0
M  V30 29325 C 2786.02 -5.17363 0.716462 0
M  V30 29326 H 2787.72 -2.91474 0.684338 0
M  V30 29327 H 2785.26 -1.40155 0.330542 0
M  V30 29328 H 2787.22 -3.92517 -1.53324 0
M  V30 29329 H 2785.94 -2.71496 -1.81542 0
M  V30 29330 H 2784.6 -3.6648 0.0938698 0
M  V30 29331 H 2784.25 -4.50627 -2.23482 0
M  V30 29332 H 2783.95 -5.78482 -1.03111 0
M  V30 29333 H 2785.47 -5.78168 -1.96353 0
M  V30 29334 H 2786.89 -5.72476 0.307189 0
M  V30 29335 H 2785.28 -5.90339 1.07795 0
M  V30 29336 H 2786.35 -4.58325 1.58324 0
M  V30 29337 N 2787.7 -0.372575 -1.53133 0
M  V30 29338 C 2788.94 0.214499 -2.00958 0
M  V30 29339 C 2789.27 1.48709 -1.26138 0
M  V30 29340 O 2788.54 1.92245 -0.37663 0
M  V30 29341 H 2787.12 0.0822534 -0.742458 0
M  V30 29342 H 2789.78 -0.500418 -1.88366 0
M  V30 29343 H 2788.87 0.43655 -3.09032 0
M  V30 29344 N 2789.17 1.5727 -0.101929 0
M  V30 29345 C 2790.11 2.10072 0.89134 0
M  V30 29346 C 2791.09 1.01293 1.27195 0
M  V30 29347 O 2792.27 1.28836 1.37599 0
M  V30 29348 C 2789.4 2.58335 2.19045 0
M  V30 29349 C 2788.44 3.78838 1.95919 0
M  V30 29350 S 2789.28 5.22088 1.19097 0
M  V30 29351 C 2790.43 5.73706 2.50224 0
M  V30 29352 H 2790.66 2.93994 0.44216 0
M  V30 29353 H 2788.2 1.53997 0.111502 0
M  V30 29354 H 2790.16 2.86798 2.93695 0
M  V30 29355 H 2788.82 1.74627 2.61083 0
M  V30 29356 H 2788.01 4.10698 2.92135 0
M  V30 29357 H 2787.61 3.50903 1.29395 0
M  V30 29358 H 2789.9 5.8239 3.46162 0
M  V30 29359 H 2790.85 6.72091 2.22932 0
M  V30 29360 H 2791.25 5.01675 2.58809 0
M  V30 29361 N 2790.65 -0.171793 1.56661 0
M  V30 29362 C 2791.89 -0.894996 1.83764 0
M  V30 29363 C 2792.26 -1.79449 0.682784 0
M  V30 29364 O 2793.46 -2.55526 0.834253 0
M  V30 29365 C 2791.73 -1.67009 3.15979 0
M  V30 29366 S 2793.29 -2.44212 3.64562 0
M  V30 29367 H 2790.11 -0.299766 0.644718 0
M  V30 29368 H 2792.71 -0.156667 1.94871 0
M  V30 29369 H 2791.41 -1.00032 3.98022 0
M  V30 29370 H 2790.94 -2.44981 3.07812 0
M  V30 29371 H 2792.96 -3.68903 3.31851 0
M  V30 29372 N 2792.13 -1.51324 -0.44033 0
M  V30 29373 C 2793.08 -1.72991 -1.55489 0
M  V30 29374 C 2794.07 -0.596166 -1.58563 0
M  V30 29375 O 2795.28 -0.777471 -1.62343 0
M  V30 29376 H 2791.65 -0.546542 -0.516522 0
M  V30 29377 H 2793.62 -2.66426 -1.34387 0
M  V30 29378 C 2792.37 -1.86936 -2.93173 0
M  V30 29379 H 2791.7 -2.73579 -2.91538 0
M  V30 29380 H 2793.14 -2.0611 -3.70533 0
M  V30 29381 C 2791.6 -0.628423 -3.30987 0
M  V30 29382 O 2792.13 0.218297 -4.01106 0
M  V30 29383 N 2790.33 -0.47339 -2.86718 0
M  V30 29384 H 2789.88 -1.16349 -2.29828 0
M  V30 29385 H 2789.84 0.355672 -3.12382 0
M  V30 29386 N 2793.61 0.695578 -1.41419 0
M  V30 29387 C 2795.02 1.00617 -1.23889 0
M  V30 29388 C 2795.22 2.01092 -0.128241 0
M  V30 29389 O 2794.28 2.4735 0.507364 0
M  V30 29390 C 2795.59 1.53079 -2.58819 0
M  V30 29391 C 2797.14 1.64963 -2.66001 0
M  V30 29392 C 2797.62 2.20826 -4.01248 0
M  V30 29393 N 2799.11 2.28187 -4.03094 0
M  V30 29394 C 2799.84 2.72439 -5.04544 0
M  V30 29395 N 2799.34 3.16296 -6.16384 0
M  V30 29396 N 2801.13 2.72002 -4.91906 0
M  V30 29397 H 2793.28 0.0299688 -2.12379 0
M  V30 29398 H 2795.55 0.0758631 -0.94496 0
M  V30 29399 H 2795.25 0.867087 -3.40844 0
M  V30 29400 H 2795.13 2.51293 -2.81304 0
M  V30 29401 H 2797.51 2.30444 -1.84335 0
M  V30 29402 H 2797.59 0.652939 -2.47326 0
M  V30 29403 H 2797.24 1.5596 -4.83362 0
M  V30 29404 H 2797.17 3.21247 -4.17263 0
M  V30 29405 H 2799.66 1.97237 -3.22345 0
M  V30 29406 H 2799.97 3.48688 -6.89664 0
M  V30 29407 H 2798.32 3.14204 -6.1992 0
M  V30 29408 H 2801.51 2.37088 -4.03617 0
M  V30 29409 H 2801.68 3.06171 -5.71107 0
M  V30 29410 N 2795.09 1.27247 0.929833 0
M  V30 29411 C 2796 1.11596 2.06358 0
M  V30 29412 C 2797.01 0.0465266 1.73938 0
M  V30 29413 O 2798.19 0.252579 1.9981 0
M  V30 29414 C 2795.25 0.762497 3.38211 0
M  V30 29415 C 2794.32 1.91257 3.84343 0
M  V30 29416 C 2793.55 1.57588 5.09904 0
M  V30 29417 O 2793.77 0.482793 5.68353 0
M  V30 29418 O 2792.71 2.41436 5.51355 0
M  V30 29419 H 2796.53 2.06734 2.22474 0
M  V30 29420 H 2794.12 1.06415 1.04863 0
M  V30 29421 H 2796 0.578614 4.17409 0
M  V30 29422 H 2794.67 -0.159382 3.23307 0
M  V30 29423 H 2793.58 2.1515 3.06041 0
M  V30 29424 H 2794.91 2.81458 4.03785 0
M  V30 29425 N 2796.57 -1.13603 1.09235 0
M  V30 29426 C 2797.81 -1.84187 0.822082 0
M  V30 29427 C 2798.13 -1.84324 -0.654515 0
M  V30 29428 O 2799.33 -2.50781 -1.04024 0
M  V30 29429 C 2797.79 -3.30672 1.42072 0
M  V30 29430 C 2797.4 -3.38927 2.92971 0
M  V30 29431 C 2799.14 -4.0631 1.22931 0
M  V30 29432 C 2797.05 -4.79673 3.4593 0
M  V30 29433 H 2795.98 -0.690059 0.303866 0
M  V30 29434 H 2798.63 -1.28004 1.31481 0
M  V30 29435 H 2797.01 -3.86645 0.855681 0
M  V30 29436 H 2798.19 -2.9296 3.55684 0
M  V30 29437 H 2796.5 -2.76752 3.11123 0
M  V30 29438 H 2799.1 -5.10214 1.59954 0
M  V30 29439 H 2799.44 -4.15954 0.169799 0
M  V30 29440 H 2799.97 -3.56662 1.76174 0
M  V30 29441 H 2796.71 -4.75221 4.51492 0
M  V30 29442 H 2796.23 -5.26144 2.8798 0
M  V30 29443 H 2797.91 -5.48586 3.43019 0
M  V30 29444 N 2798.04 -0.879253 -1.30793 0
M  V30 29445 C 2799.29 -0.495553 -1.96652 0
M  V30 29446 C 2799.62 0.951673 -1.69283 0
M  V30 29447 O 2798.9 1.67158 -0.994403 0
M  V30 29448 C 2799.18 -0.764236 -3.51897 0
M  V30 29449 C 2799.03 -2.26167 -3.88804 0
M  V30 29450 C 2800.35 -0.236902 -4.39462 0
M  V30 29451 H 2797.47 -0.181519 -0.714297 0
M  V30 29452 H 2800.11 -1.1022 -1.54763 0
M  V30 29453 H 2798.26 -0.247909 -3.87708 0
M  V30 29454 H 2799.94 -2.84597 -3.63046 0
M  V30 29455 H 2798.18 -2.73059 -3.37078 0
M  V30 29456 H 2798.85 -2.40029 -4.97082 0
M  V30 29457 H 2801.33 -0.678755 -4.10527 0
M  V30 29458 H 2800.2 -0.454272 -5.47017 0
M  V30 29459 H 2800.46 0.861606 -4.33623 0
M  V30 29460 N 2799.52 1.44037 -0.639624 0
M  V30 29461 C 2800.94 1.56639 -0.305981 0
M  V30 29462 C 2801.14 1.62569 1.19052 0
M  V30 29463 O 2800.19 1.57334 1.9749 0
M  V30 29464 C 2801.51 2.83395 -1.00538 0
M  V30 29465 C 2803.05 2.97119 -0.984331 0
M  V30 29466 C 2803.53 4.26689 -1.66436 0
M  V30 29467 N 2805.02 4.33522 -1.63135 0
M  V30 29468 C 2805.76 5.32515 -2.12639 0
M  V30 29469 N 2805.25 6.37865 -2.70371 0
M  V30 29470 N 2807.04 5.24079 -2.03218 0
M  V30 29471 H 2799.2 1.38431 -1.61092 0
M  V30 29472 H 2801.46 0.66393 -0.676684 0
M  V30 29473 H 2801.16 2.85028 -2.06039 0
M  V30 29474 H 2801.04 3.73192 -0.548428 0
M  V30 29475 H 2803.43 2.95034 0.0622273 0
M  V30 29476 H 2803.51 2.08648 -1.47985 0
M  V30 29477 H 2803.15 4.29534 -2.71041 0
M  V30 29478 H 2803.08 5.14032 -1.1436 0
M  V30 29479 H 2805.57 3.58007 -1.20993 0
M  V30 29480 H 2805.88 7.09699 -3.05855 0
M  V30 29481 H 2804.23 6.38526 -2.74425 0
M  V30 29482 H 2807.42 4.40689 -1.5783 0
M  V30 29483 H 2807.59 6.01072 -2.42108 0
M  V30 29484 N 2801 0.380691 1.52933 0
M  V30 29485 C 2802.42 0.030271 1.59571 0
M  V30 29486 C 2802.62 -1.45391 1.39512 0
M  V30 29487 O 2801.67 -2.21739 1.20781 0
M  V30 29488 C 2802.98 0.499743 2.96518 0
M  V30 29489 C 2804.53 0.455259 3.09671 0
M  V30 29490 C 2805.01 0.900782 4.49054 0
M  V30 29491 N 2806.5 0.856447 4.55213 0
M  V30 29492 C 2807.23 1.17269 5.6128 0
M  V30 29493 N 2806.73 1.55897 6.75032 0
M  V30 29494 N 2808.52 1.0945 5.51341 0
M  V30 29495 H 2800.67 1.34703 1.64222 0
M  V30 29496 H 2802.94 0.551568 0.771023 0
M  V30 29497 H 2802.64 1.536 3.16386 0
M  V30 29498 H 2802.52 -0.105723 3.77052 0
M  V30 29499 H 2804.9 -0.571898 2.89505 0
M  V30 29500 H 2804.98 1.09642 2.31111 0
M  V30 29501 H 2804.63 1.92613 4.6996 0
M  V30 29502 H 2804.56 0.236721 5.26068 0
M  V30 29503 H 2807.05 0.572079 3.73545 0
M  V30 29504 H 2807.36 1.78413 7.51923 0
M  V30 29505 H 2805.71 1.59776 6.76385 0
M  V30 29506 H 2808.9 0.791794 4.61355 0
M  V30 29507 H 2809.07 1.34428 6.33903 0
M  V30 29508 N 2802.48 -1.57214 0.110268 0
M  V30 29509 C 2803.73 -1.94507 -0.548749 0
M  V30 29510 C 2804.05 -0.993889 -1.6777 0
M  V30 29511 O 2803.32 -0.0486185 -1.9584 0
M  V30 29512 H 2801.9 -0.718119 -0.205702 0
M  V30 29513 H 2804.56 -1.94093 0.177161 0
M  V30 29514 H 2803.65 -2.97321 -0.949043 0
M  V30 29515 N 2803.96 0.163482 -1.5675 0
M  V30 29516 C 2804.92 1.1861 -1.96123 0
M  V30 29517 C 2805.92 1.36759 -0.845789 0
M  V30 29518 O 2807.11 1.34031 -1.11271 0
M  V30 29519 C 2804.24 2.54965 -2.26287 0
M  V30 29520 H 2805.43 0.848714 -2.8764 0
M  V30 29521 H 2802.99 0.406225 -1.50929 0
M  V30 29522 H 2803.72 2.93704 -1.37509 0
M  V30 29523 H 2803.51 2.43156 -3.07599 0
M  V30 29524 H 2805 3.28648 -2.57643 0
M  V30 29525 N 2805.43 1.51555 0.432299 0
M  V30 29526 C 2806.36 1.76182 1.53239 0
M  V30 29527 C 2807.34 0.611829 1.58716 0
M  V30 29528 O 2808.53 0.855063 1.74363 0
M  V30 29529 C 2805.66 1.89146 2.91275 0
M  V30 29530 C 2804.61 3.04613 3.00657 0
M  V30 29531 C 2803.94 3.02767 4.40722 0
M  V30 29532 C 2805.24 4.4449 2.74273 0
M  V30 29533 H 2806.93 2.68296 1.32881 0
M  V30 29534 H 2804.48 1.29104 0.637818 0
M  V30 29535 H 2806.43 2.04957 3.68199 0
M  V30 29536 H 2805.16 0.93684 3.12875 0
M  V30 29537 H 2803.82 2.88515 2.26174 0
M  V30 29538 H 2803.46 2.05073 4.59297 0
M  V30 29539 H 2803.16 3.80307 4.47929 0
M  V30 29540 H 2804.69 3.20678 5.19613 0
M  V30 29541 H 2806.1 4.60913 3.40928 0
M  V30 29542 H 2804.5 5.23774 2.92883 0
M  V30 29543 H 2805.57 4.5418 1.69848 0
M  V30 29544 N 2806.91 -0.688069 1.41786 0
M  V30 29545 C 2808.16 -1.44382 1.40843 0
M  V30 29546 C 2808.47 -1.95586 0.023451 0
M  V30 29547 O 2809.68 -2.71283 -0.108599 0
M  V30 29548 C 2808.14 -2.61119 2.47679 0
M  V30 29549 C 2807.74 -2.1667 3.9212 0
M  V30 29550 C 2809.49 -3.38709 2.55883 0
M  V30 29551 C 2807.39 -3.3041 4.90493 0
M  V30 29552 H 2806.32 -0.542359 0.523797 0
M  V30 29553 H 2808.98 -0.746241 1.67641 0
M  V30 29554 H 2807.36 -3.33181 2.14024 0
M  V30 29555 H 2808.53 -1.51848 4.35062 0
M  V30 29556 H 2806.85 -1.52053 3.87645 0
M  V30 29557 H 2809.44 -4.23394 3.2656 0
M  V30 29558 H 2809.79 -3.84405 1.59807 0
M  V30 29559 H 2810.32 -2.73709 2.88667 0
M  V30 29560 H 2807.06 -2.89719 5.87999 0
M  V30 29561 H 2806.58 -3.94057 4.52194 0
M  V30 29562 H 2808.26 -3.96076 5.11598 0
M  V30 29563 N 2808.39 -1.27739 -0.923072 0
M  V30 29564 C 2809.32 -1.13387 -2.04122 0
M  V30 29565 C 2810.3 -0.0340957 -1.70066 0
M  V30 29566 O 2811.49 -0.209417 -1.93068 0
M  V30 29567 C 2808.62 -0.785156 -3.38308 0
M  V30 29568 C 2807.57 -1.83867 -3.86493 0
M  V30 29569 C 2806.9 -1.34382 -5.17538 0
M  V30 29570 C 2808.2 -3.2436 -4.09375 0
M  V30 29571 H 2809.89 -2.06923 -2.16387 0
M  V30 29572 H 2807.44 -0.996262 -1.03974 0
M  V30 29573 H 2809.39 -0.671558 -4.16014 0
M  V30 29574 H 2808.11 0.185912 -3.2607 0
M  V30 29575 H 2806.77 -1.94126 -3.10984 0
M  V30 29576 H 2806.42 -0.362077 -5.01695 0
M  V30 29577 H 2806.12 -2.0482 -5.50747 0
M  V30 29578 H 2807.64 -1.24326 -5.97809 0
M  V30 29579 H 2809.06 -3.17076 -4.77636 0
M  V30 29580 H 2807.45 -3.9255 -4.53899 0
M  V30 29581 H 2808.52 -3.6907 -3.14509 0
M  V30 29582 N 2809.87 1.13022 -1.09836 0
M  V30 29583 C 2811.12 1.84393 -0.836982 0
M  V30 29584 C 2811.44 1.83758 0.637431 0
M  V30 29585 O 2810.7 1.274 1.48552 0
M  V30 29586 C 2811 3.32024 -1.32269 0
M  V30 29587 C 2810.66 3.52836 -2.80745 0
M  V30 29588 C 2809.33 3.58224 -3.21293 0
M  V30 29589 C 2811.68 3.60459 -3.76456 0
M  V30 29590 C 2809.01 3.68773 -4.56315 0
M  V30 29591 C 2811.36 3.72537 -5.11272 0
M  V30 29592 C 2810.02 3.76179 -5.51403 0
M  V30 29593 H 2809.29 0.674743 -0.306274 0
M  V30 29594 H 2811.94 1.33405 -1.37387 0
M  V30 29595 H 2810.24 3.85392 -0.705686 0
M  V30 29596 H 2811.94 3.85703 -1.09701 0
M  V30 29597 H 2808.53 3.493 -2.48369 0
M  V30 29598 H 2812.71 3.55572 -3.4624 0
M  V30 29599 H 2807.97 3.69862 -4.86839 0
M  V30 29600 H 2812.14 3.77378 -5.85285 0
M  V30 29601 H 2809.77 3.84106 -6.56023 0
M  V30 29602 N 2811.35 0.886177 1.30325 0
M  V30 29603 C 2812.59 0.511946 1.97885 0
M  V30 29604 C 2812.95 -0.921915 1.68418 0
M  V30 29605 O 2814.15 -1.40233 2.29321 0
M  V30 29606 C 2812.42 0.780506 3.48773 0
M  V30 29607 S 2813.98 0.508558 4.35843 0
M  V30 29608 H 2810.8 0.19044 0.685021 0
M  V30 29609 H 2813.4 1.1457 1.58411 0
M  V30 29610 H 2812.11 1.82255 3.67711 0
M  V30 29611 H 2811.64 0.134353 3.93171 0
M  V30 29612 H 2813.65 -0.652304 4.91894 0
M  V30 29613 N 2812.82 -1.43695 0.647253 0
M  V30 29614 C 2814.1 -1.954 0.0884101 0
M  V30 29615 C 2814.48 -1.58875 -1.39003 0
M  V30 29616 O 2813.83 -0.870867 -2.11254 0
M  V30 29617 C 2814.04 -3.47452 0.328324 0
M  V30 29618 C 2815.39 -4.23976 0.230083 0
M  V30 29619 O 2816.41 -3.55246 0.260558 0
M  V30 29620 O 2815.27 -5.46298 0.148711 0
M  V30 29621 H 2812.36 -0.826897 -0.0130538 0
M  V30 29622 H 2814.91 -1.53665 0.720077 0
M  V30 29623 H 2813.68 -3.67143 1.35357 0
M  V30 29624 H 2813.31 -3.96172 -0.336702 0
M  V30 29625 N 2814.3 -0.388796 -1.52729 0
M  V30 29626 C 2815.53 0.19336 -2.05693 0
M  V30 29627 C 2815.94 1.41105 -1.2604 0
M  V30 29628 O 2815.28 1.81233 -0.300042 0
M  V30 29629 C 2815.35 0.628499 -3.53963 0
M  V30 29630 C 2815.01 -0.475656 -4.54518 0
M  V30 29631 C 2816.01 -1.3329 -5.02523 0
M  V30 29632 C 2813.69 -0.642541 -4.98173 0
M  V30 29633 C 2815.69 -2.34216 -5.92808 0
M  V30 29634 C 2813.37 -1.65514 -5.88259 0
M  V30 29635 C 2814.37 -2.50336 -6.35469 0
M  V30 29636 O 2814.06 -3.49865 -7.23775 0
M  V30 29637 H 2813.79 0.0329277 -0.675198 0
M  V30 29638 H 2816.34 -0.552361 -1.97834 0
M  V30 29639 H 2814.57 1.42619 -3.59439 0
M  V30 29640 H 2816.26 1.13627 -3.89671 0
M  V30 29641 H 2817.03 -1.21527 -4.69528 0
M  V30 29642 H 2812.91 0.0079699 -4.60999 0
M  V30 29643 H 2816.45 -3.00458 -6.2958 0
M  V30 29644 H 2812.35 -1.77315 -6.20669 0
M  V30 29645 H 2813.12 -3.45868 -7.41834 0
M  V30 29646 N 2815.78 1.57153 -0.118604 0
M  V30 29647 C 2817.03 1.9547 0.540291 0
M  V30 29648 C 2817.36 1.00199 1.66355 0
M  V30 29649 O 2816.63 0.0391382 1.94461 0
M  V30 29650 C 2816.92 3.43731 1.07336 0
M  V30 29651 C 2816.77 4.49776 -0.0464523 0
M  V30 29652 C 2818.09 3.93829 1.96435 0
M  V30 29653 H 2815.21 0.710755 0.194927 0
M  V30 29654 H 2817.85 1.89006 -0.194083 0
M  V30 29655 H 2816 3.49371 1.69918 0
M  V30 29656 H 2817.67 4.56235 -0.681729 0
M  V30 29657 H 2815.92 4.27956 -0.709649 0
M  V30 29658 H 2816.59 5.50774 0.36776 0
M  V30 29659 H 2819.06 3.9049 1.43724 0
M  V30 29660 H 2817.94 4.98088 2.30651 0
M  V30 29661 H 2818.2 3.345 2.89071 0
M  V30 29662 N 2817.26 -0.155167 1.56834 0
M  V30 29663 C 2818.5 -0.875455 1.84703 0
M  V30 29664 C 2818.86 -1.78715 0.701778 0
M  V30 29665 O 2820.06 -2.54627 0.861308 0
M  V30 29666 C 2818.33 -1.63649 3.17732 0
M  V30 29667 S 2819.89 -2.40332 3.67132 0
M  V30 29668 H 2816.71 -0.292911 0.647861 0
M  V30 29669 H 2819.31 -0.13599 1.95026 0
M  V30 29670 H 2818.02 -0.958047 3.99061 0
M  V30 29671 H 2817.55 -2.41702 3.10393 0
M  V30 29672 H 2819.56 -3.65362 3.35745 0
M  V30 29673 N 2818.74 -1.51782 -0.424256 0
M  V30 29674 C 2819.67 -1.70249 -1.53454 0
M  V30 29675 C 2820.68 -0.582993 -1.52003 0
M  V30 29676 O 2821.87 -0.857711 -1.56543 0
M  V30 29677 C 2818.97 -1.71394 -2.92365 0
M  V30 29678 C 2818.14 -3.00139 -3.18175 0
M  V30 29679 C 2817.2 -2.93298 -4.36879 0
M  V30 29680 O 2816.23 -3.67227 -4.34894 0
M  V30 29681 N 2817.43 -2.10046 -5.41166 0
M  V30 29682 H 2820.2 -2.66031 -1.38012 0
M  V30 29683 H 2817.76 -1.49831 -0.613368 0
M  V30 29684 H 2819.75 -1.64369 -3.69818 0
M  V30 29685 H 2818.32 -0.831502 -3.01338 0
M  V30 29686 H 2817.54 -3.20932 -2.28903 0
M  V30 29687 H 2818.83 -3.85337 -3.32254 0
M  V30 29688 H 2818.22 -1.49383 -5.4562 0
M  V30 29689 H 2816.78 -2.08889 -6.17421 0
M  V30 29690 N 2820.21 0.68054 -1.42149 0
M  V30 29691 C 2821.16 1.8155 -1.45404 0
M  V30 29692 C 2822.16 1.66147 -0.330389 0
M  V30 29693 O 2823.36 1.72825 -0.503134 0
M  V30 29694 H 2819.74 0.598522 -0.455275 0
M  V30 29695 H 2821.71 1.75922 -2.41027 0
M  V30 29696 C 2820.46 3.19669 -1.36774 0
M  V30 29697 H 2819.78 3.32145 -2.2253 0
M  V30 29698 H 2821.22 3.99117 -1.43113 0
M  V30 29699 C 2819.68 3.36801 -0.0818344 0
M  V30 29700 O 2820.21 3.92218 0.867638 0
M  V30 29701 N 2818.42 2.906 -0.000850892 0
M  V30 29702 H 2817.96 2.45688 -0.774275 0
M  V30 29703 H 2817.92 3.0244 0.858908 0
M  V30 29704 N 2821.69 1.28226 0.916285 0
M  V30 29705 C 2822.62 1.14468 2.03518 0
M  V30 29706 C 2823.6 0.0431143 1.70045 0
M  V30 29707 O 2824.79 0.219653 1.92954 0
M  V30 29708 C 2821.92 0.803087 3.37887 0
M  V30 29709 C 2820.87 1.85914 3.85512 0
M  V30 29710 C 2820.2 1.37125 5.16818 0
M  V30 29711 C 2821.5 3.26526 4.07649 0
M  V30 29712 H 2823.19 2.08068 2.15286 0
M  V30 29713 H 2820.74 1.00176 1.03444 0
M  V30 29714 H 2822.69 0.693611 4.15653 0
M  V30 29715 H 2821.42 -0.168617 3.26164 0
M  V30 29716 H 2820.07 1.95772 3.0995 0
M  V30 29717 H 2819.72 0.388678 5.01496 0
M  V30 29718 H 2819.42 2.07738 5.49653 0
M  V30 29719 H 2820.95 1.27494 5.97141 0
M  V30 29720 H 2822.36 3.19604 4.75948 0
M  V30 29721 H 2820.76 3.94951 4.51811 0
M  V30 29722 H 2821.83 3.70732 3.12547 0
M  V30 29723 N 2823.17 -1.12438 1.10433 0
M  V30 29724 C 2824.12 -2.16253 0.722416 0
M  V30 29725 C 2825.1 -1.58646 -0.268399 0
M  V30 29726 O 2826.3 -1.76832 -0.0771379 0
M  V30 29727 C 2823.43 -3.42946 0.155823 0
M  V30 29728 C 2822.51 -4.07536 1.17368 0
M  V30 29729 N 2822.9 -4.47137 2.36437 0
M  V30 29730 C 2821.2 -4.34316 1.0142 0
M  V30 29731 C 2821.9 -4.97607 3.01268 0
M  V30 29732 N 2820.88 -4.93111 2.28786 0
M  V30 29733 H 2824.68 -2.44637 1.6288 0
M  V30 29734 H 2822.19 -1.29342 0.982054 0
M  V30 29735 H 2824.19 -4.16679 -0.135863 0
M  V30 29736 H 2822.85 -3.16031 -0.745283 0
M  V30 29737 H 2823.86 -4.39506 2.73962 0
M  V30 29738 H 2820.54 -4.17159 0.168647 0
M  V30 29739 H 2821.93 -5.37961 4.02551 0
M  V30 29740 N 2824.65 -0.893076 -1.29853 0
M  V30 29741 C 2825.93 -0.43537 -1.90693 0
M  V30 29742 C 2826.31 1.0845 -1.81112 0
M  V30 29743 O 2825.65 1.92343 -1.23356 0
M  V30 29744 C 2825.86 -0.942531 -3.36032 0
M  V30 29745 C 2827.21 -0.982298 -4.13081 0
M  V30 29746 O 2828.24 -0.889747 -3.44909 0
M  V30 29747 O 2827.1 -1.12031 -5.34894 0
M  V30 29748 H 2824.19 -0.134582 -0.815976 0
M  V30 29749 H 2826.74 -0.982508 -1.38365 0
M  V30 29750 H 2825.51 -1.98646 -3.37128 0
M  V30 29751 H 2825.13 -0.375022 -3.95827 0
M  V30 29752 N 2826.13 1.4335 -0.654865 0
M  V30 29753 C 2827.35 2.0666 -0.175082 0
M  V30 29754 C 2827.78 1.48772 1.15102 0
M  V30 29755 O 2827.14 0.598309 1.71143 0
M  V30 29756 C 2827.18 3.60463 -0.0992178 0
M  V30 29757 O 2826.29 4.01589 0.938099 0
M  V30 29758 H 2825.63 0.657078 -0.0956263 0
M  V30 29759 H 2828.16 1.83828 -0.898254 0
M  V30 29760 H 2828.17 4.07914 0.0835603 0
M  V30 29761 H 2826.84 4.01973 -1.06726 0
M  V30 29762 H 2825.42 3.65725 0.727976 0
M  V30 29763 N 2827.61 0.39689 1.52521 0
M  V30 29764 C 2828.52 -0.44174 2.30404 0
M  V30 29765 C 2829.53 -1.06466 1.37626 0
M  V30 29766 O 2830.71 -1.06883 1.70699 0
M  V30 29767 C 2827.77 -1.5498 3.10132 0
M  V30 29768 C 2826.83 -0.951206 4.18629 0
M  V30 29769 C 2826.07 -2.00646 4.94547 0
M  V30 29770 O 2826.29 -3.22272 4.70634 0
M  V30 29771 O 2825.22 -1.61952 5.79703 0
M  V30 29772 H 2829.05 0.192946 3.03086 0
M  V30 29773 H 2826.63 0.160406 1.48536 0
M  V30 29774 H 2828.52 -2.19335 3.5982 0
M  V30 29775 H 2827.19 -2.16931 2.40255 0
M  V30 29776 H 2826.1 -0.270707 3.73119 0
M  V30 29777 H 2827.43 -0.375801 4.90763 0
M  V30 29778 N 2829.08 -1.57088 0.126936 0
M  V30 29779 C 2830.03 -2.12292 -0.83164 0
M  V30 29780 C 2831.02 -1.04566 -1.2229 0
M  V30 29781 O 2832.21 -1.30784 -1.19266 0
M  V30 29782 C 2829.34 -2.73219 -2.07861 0
M  V30 29783 C 2828.42 -3.88038 -1.71136 0
M  V30 29784 N 2828.82 -4.94754 -1.05127 0
M  V30 29785 C 2827.11 -3.9837 -2.00542 0
M  V30 29786 C 2827.81 -5.75049 -0.877156 0
M  V30 29787 N 2826.79 -5.25138 -1.40468 0
M  V30 29788 H 2830.59 -2.92176 -0.317874 0
M  V30 29789 H 2828.11 -1.62225 -0.0752767 0
M  V30 29790 H 2830.1 -3.11116 -2.77511 0
M  V30 29791 H 2828.76 -1.94801 -2.59774 0
M  V30 29792 H 2829.77 -5.1295 -0.71433 0
M  V30 29793 H 2826.45 -3.31004 -2.54446 0
M  V30 29794 H 2827.84 -6.70943 -0.358418 0
M  V30 29795 N 2830.56 0.146848 -1.56914 0
M  V30 29796 C 2831.49 1.18306 -2.0131 0
M  V30 29797 C 2832.47 1.44793 -0.89269 0
M  V30 29798 O 2833.66 1.55711 -1.16051 0
M  V30 29799 C 2830.79 2.5162 -2.39384 0
M  V30 29800 C 2829.74 2.39654 -3.54612 0
M  V30 29801 C 2829.07 3.77679 -3.785 0
M  V30 29802 C 2830.37 1.8805 -4.87273 0
M  V30 29803 H 2832.06 0.813913 -2.88125 0
M  V30 29804 H 2829.61 0.390075 -1.38616 0
M  V30 29805 H 2831.56 3.24336 -2.69043 0
M  V30 29806 H 2830.28 2.90371 -1.49507 0
M  V30 29807 H 2828.94 1.6939 -3.25119 0
M  V30 29808 H 2828.59 4.13866 -2.85874 0
M  V30 29809 H 2828.29 3.70535 -4.56046 0
M  V30 29810 H 2829.82 4.51944 -4.10584 0
M  V30 29811 H 2831.23 2.50559 -5.15648 0
M  V30 29812 H 2829.63 1.91795 -5.68625 0
M  V30 29813 H 2830.7 0.836193 -4.77636 0
M  V30 29814 N 2832.04 1.52005 0.4162 0
M  V30 29815 C 2833.27 1.69555 1.1857 0
M  V30 29816 C 2833.68 0.401951 1.84472 0
M  V30 29817 O 2833.04 -0.621432 1.71594 0
M  V30 29818 C 2833.09 2.82619 2.25408 0
M  V30 29819 O 2832.81 4.06969 1.62198 0
M  V30 29820 C 2834.31 3.11619 3.15291 0
M  V30 29821 H 2831.53 0.568417 0.356572 0
M  V30 29822 H 2834.08 1.98528 0.490583 0
M  V30 29823 H 2832.23 2.56184 2.906 0
M  V30 29824 H 2832.65 4.6992 2.32971 0
M  V30 29825 H 2834.12 3.94261 3.86344 0
M  V30 29826 H 2834.6 2.24881 3.7726 0
M  V30 29827 H 2835.2 3.39792 2.55777 0
M  V30 29828 N 2833.52 -0.672992 1.42508 0
M  V30 29829 C 2834.76 -1.43365 1.44285 0
M  V30 29830 C 2835.12 -1.9231 0.0588577 0
M  V30 29831 O 2834.41 -1.68108 -0.919258 0
M  V30 29832 C 2834.61 -2.64507 2.40355 0
M  V30 29833 C 2834.43 -2.27416 3.87959 0
M  V30 29834 C 2833.2 -2.16689 4.5648 0
M  V30 29835 C 2835.4 -1.88948 4.78334 0
M  V30 29836 N 2833.38 -1.72721 5.89102 0
M  V30 29837 C 2834.76 -1.55912 6.00076 0
M  V30 29838 C 2836.81 -1.75957 4.65772 0
M  V30 29839 C 2835.51 -1.11188 7.10654 0
M  V30 29840 C 2837.54 -1.32637 5.76334 0
M  V30 29841 C 2836.9 -1.00526 6.9719 0
M  V30 29842 H 2833 -0.521026 0.583143 0
M  V30 29843 H 2835.58 -0.77645 1.78548 0
M  V30 29844 H 2833.76 -3.27914 2.08151 0
M  V30 29845 H 2835.49 -3.31109 2.327 0
M  V30 29846 H 2832.24 -2.35816 4.10716 0
M  V30 29847 H 2832.67 -1.53154 6.59449 0
M  V30 29848 H 2837.31 -1.99428 3.72811 0
M  V30 29849 H 2835.03 -0.864627 8.03461 0
M  V30 29850 H 2838.61 -1.23102 5.68627 0
M  V30 29851 H 2837.49 -0.675146 7.81288 0
M  V30 29852 N 2835 -1.2871 -0.909472 0
M  V30 29853 C 2835.93 -1.15545 -2.02908 0
M  V30 29854 C 2836.91 -0.0521316 -1.7002 0
M  V30 29855 O 2838.09 -0.229883 -1.92835 0
M  V30 29856 C 2835.22 -0.820994 -3.37457 0
M  V30 29857 C 2834.18 -1.87956 -3.84521 0
M  V30 29858 C 2833.5 -1.39864 -5.16084 0
M  V30 29859 C 2834.8 -3.28683 -4.05912 0
M  V30 29860 H 2836.5 -2.09207 -2.1418 0
M  V30 29861 H 2834.04 -1.00723 -1.02912 0
M  V30 29862 H 2835.99 -0.715644 -4.15279 0
M  V30 29863 H 2834.72 0.151317 -3.26249 0
M  V30 29864 H 2833.38 -1.97413 -3.08907 0
M  V30 29865 H 2833.03 -0.415268 -5.01283 0
M  V30 29866 H 2832.73 -2.1065 -5.48544 0
M  V30 29867 H 2834.25 -1.30659 -5.96457 0
M  V30 29868 H 2835.66 -3.22124 -4.74246 0
M  V30 29869 H 2834.06 -3.97342 -4.4971 0
M  V30 29870 H 2835.13 -3.72385 -3.10576 0
M  V30 29871 N 2836.47 1.1185 -1.11028 0
M  V30 29872 C 2837.72 1.82855 -0.851281 0
M  V30 29873 C 2838.04 1.85342 0.625108 0
M  V30 29874 O 2839.24 2.52404 1.00022 0
M  V30 29875 C 2837.7 3.28369 -1.47314 0
M  V30 29876 C 2837.31 3.34224 -2.98326 0
M  V30 29877 C 2839.05 4.04303 -1.2938 0
M  V30 29878 C 2836.96 4.74109 -3.53517 0
M  V30 29879 H 2835.89 0.685137 -0.314806 0
M  V30 29880 H 2838.54 1.25896 -1.33501 0
M  V30 29881 H 2836.92 3.85234 -0.917085 0
M  V30 29882 H 2838.09 2.87264 -3.603 0
M  V30 29883 H 2836.41 2.71767 -3.15486 0
M  V30 29884 H 2839.01 5.07605 -1.68051 0
M  V30 29885 H 2839.35 4.15631 -0.235952 0
M  V30 29886 H 2839.88 3.53814 -1.81826 0
M  V30 29887 H 2836.62 4.67978 -4.58996 0
M  V30 29888 H 2836.14 5.21496 -2.96314 0
M  V30 29889 H 2837.82 5.4306 -3.51703 0
M  V30 29890 N 2837.95 0.89995 1.29378 0
M  V30 29891 C 2839.2 0.526776 1.95839 0
M  V30 29892 C 2839.53 -0.924621 1.70776 0
M  V30 29893 O 2838.81 -1.65555 1.02087 0
M  V30 29894 C 2839.09 0.820123 3.50637 0
M  V30 29895 C 2838.94 2.32324 3.85156 0
M  V30 29896 C 2840.26 0.306787 4.39029 0
M  V30 29897 H 2837.38 0.19286 0.711319 0
M  V30 29898 H 2840.02 1.12668 1.5299 0
M  V30 29899 H 2838.17 0.309559 3.87265 0
M  V30 29900 H 2839.84 2.90337 3.58472 0
M  V30 29901 H 2838.09 2.78387 3.32691 0
M  V30 29902 H 2838.76 2.47907 4.932 0
M  V30 29903 H 2841.23 0.74398 4.09395 0
M  V30 29904 H 2840.11 0.54124 5.46225 0
M  V30 29905 H 2840.37 -0.792512 4.34939 0
M  V30 29906 N 2839.43 -1.43001 0.662458 0
M  V30 29907 C 2840.38 -2.32573 -0.0353041 0
M  V30 29908 C 2841.37 -1.49133 -0.803479 0
M  V30 29909 O 2842.58 -1.65284 -0.712836 0
M  V30 29910 H 2838.95 -0.751393 -0.0302062 0
M  V30 29911 H 2840.92 -2.89137 0.737737 0
M  V30 29912 C 2839.67 -3.33559 -0.981517 0
M  V30 29913 H 2839 -3.97796 -0.399845 0
M  V30 29914 H 2840.44 -3.98847 -1.43866 0
M  V30 29915 C 2838.9 -2.64867 -2.082 0
M  V30 29916 O 2839.43 -2.47119 -3.16694 0
M  V30 29917 N 2837.63 -2.24091 -1.85018 0
M  V30 29918 H 2837.18 -2.38726 -0.967867 0
M  V30 29919 H 2837.14 -1.78461 -2.58842 0
M  V30 29920 N 2840.91 -0.404973 -1.52308 0
M  V30 29921 C 2841.86 0.439824 -2.23718 0
M  V30 29922 C 2842.84 1.01688 -1.24693 0
M  V30 29923 O 2844.03 0.940383 -1.49953 0
M  V30 29924 C 2841.16 1.55819 -3.05901 0
M  V30 29925 C 2840.25 0.992115 -4.12332 0
M  V30 29926 N 2840.64 0.152336 -5.05571 0
M  V30 29927 C 2838.94 1.26304 -4.27742 0
M  V30 29928 C 2839.64 -0.162144 -5.81474 0
M  V30 29929 N 2838.62 0.445915 -5.41768 0
M  V30 29930 H 2842.42 -0.208135 -2.93162 0
M  V30 29931 H 2839.93 -0.215159 -1.60968 0
M  V30 29932 H 2841.93 2.17596 -3.55609 0
M  V30 29933 H 2840.59 2.20882 -2.37995 0
M  V30 29934 H 2841.6 -0.211647 -5.17467 0
M  V30 29935 H 2838.28 1.91355 -3.71065 0
M  V30 29936 H 2839.67 -0.843541 -6.66584 0
M  V30 29937 N 2842.39 1.57018 -0.135265 0
M  V30 29938 C 2843.64 1.94917 0.51866 0
M  V30 29939 C 2843.95 1.02193 1.66781 0
M  V30 29940 O 2845.15 1.29623 2.38558 0
M  V30 29941 C 2843.61 3.46468 0.974062 0
M  V30 29942 C 2843.22 4.47757 -0.147518 0
M  V30 29943 C 2844.96 3.93256 1.59844 0
M  V30 29944 C 2842.87 5.90504 0.325496 0
M  V30 29945 H 2841.8 0.727667 0.197528 0
M  V30 29946 H 2844.45 1.82204 -0.21773 0
M  V30 29947 H 2842.83 3.54473 1.76536 0
M  V30 29948 H 2844.01 4.51437 -0.924201 0
M  V30 29949 H 2842.32 4.10817 -0.679568 0
M  V30 29950 H 2844.92 4.97333 1.96376 0
M  V30 29951 H 2845.26 3.34145 2.483 0
M  V30 29952 H 2845.79 3.88119 0.872255 0
M  V30 29953 H 2842.53 6.53407 -0.52341 0
M  V30 29954 H 2842.05 5.90209 1.06831 0
M  V30 29955 H 2843.73 6.42264 0.781385 0
M  V30 29956 N 2843.86 -0.138524 1.5699 0
M  V30 29957 C 2844.8 -1.19606 1.95517 0
M  V30 29958 C 2845.81 -1.38724 0.852026 0
M  V30 29959 O 2847 -1.38145 1.13041 0
M  V30 29960 C 2844.1 -2.55948 2.22134 0
M  V30 29961 C 2843.27 -2.57695 3.53429 0
M  V30 29962 C 2842.33 -3.75639 3.68486 0
M  V30 29963 O 2841.36 -3.60122 4.40796 0
M  V30 29964 N 2842.56 -4.93432 3.05785 0
M  V30 29965 H 2845.32 -0.868507 2.8684 0
M  V30 29966 H 2842.88 -0.328005 1.58543 0
M  V30 29967 H 2844.88 -3.33375 2.29441 0
M  V30 29968 H 2843.45 -2.80963 1.37035 0
M  V30 29969 H 2842.67 -1.66123 3.57487 0
M  V30 29970 H 2843.95 -2.55901 4.39763 0
M  V30 29971 H 2843.35 -5.08942 2.4697 0
M  V30 29972 H 2841.91 -5.68604 3.18641 0
M  V30 29973 N 2845.34 -1.52224 -0.408133 0
M  V30 29974 C 2846.62 -1.56895 -1.16804 0
M  V30 29975 C 2847 -0.350574 -2.08169 0
M  V30 29976 O 2846.35 0.662497 -2.18685 0
M  V30 29977 C 2846.56 -2.89813 -1.94446 0
M  V30 29978 C 2847.91 -3.4285 -2.50478 0
M  V30 29979 O 2848.93 -2.91559 -2.04625 0
M  V30 29980 O 2847.79 -4.32416 -3.34184 0
M  V30 29981 H 2844.88 -0.632016 -0.533371 0
M  V30 29982 H 2847.43 -1.64552 -0.414833 0
M  V30 29983 H 2846.2 -3.69938 -1.27521 0
M  V30 29984 H 2845.82 -2.85454 -2.7677 0
M  V30 29985 N 2846.82 0.665425 -1.42863 0
M  V30 29986 C 2847.75 1.79056 -1.4987 0
M  V30 29987 C 2848.73 1.66367 -0.354423 0
M  V30 29988 O 2849.92 1.85646 -0.570002 0
M  V30 29989 C 2847.05 3.17413 -1.40949 0
M  V30 29990 C 2846 3.4485 -2.53501 0
M  V30 29991 C 2845.33 4.82879 -2.29634 0
M  V30 29992 C 2846.63 3.40808 -3.95787 0
M  V30 29993 H 2848.32 1.73449 -2.44041 0
M  V30 29994 H 2845.87 0.83305 -1.17458 0
M  V30 29995 H 2847.82 3.95866 -1.44457 0
M  V30 29996 H 2846.54 3.2372 -0.432773 0
M  V30 29997 H 2845.2 2.68761 -2.49325 0
M  V30 29998 H 2844.85 4.85848 -1.30235 0
M  V30 29999 H 2844.55 5.02199 -3.05074 0
M  V30 30000 H 2846.07 5.63605 -2.34907 0
M  V30 30001 H 2847.49 4.09217 -4.01515 0
M  V30 30002 H 2845.89 3.71664 -4.71154 0
M  V30 30003 H 2846.96 2.39209 -4.21791 0
M  V30 30004 N 2848.3 1.29191 0.902633 0
M  V30 30005 C 2849.55 1.16365 1.64748 0
M  V30 30006 C 2849.86 -0.284648 1.93518 0
M  V30 30007 O 2851.07 -0.534182 2.66193 0
M  V30 30008 C 2849.52 2.03499 2.96844 0
M  V30 30009 C 2849.13 3.53135 2.75681 0
M  V30 30010 C 2850.87 1.99389 3.74759 0
M  V30 30011 C 2848.78 4.32382 4.03485 0
M  V30 30012 H 2847.71 0.431915 0.618034 0
M  V30 30013 H 2850.36 1.53808 1.00077 0
M  V30 30014 H 2848.74 1.58922 3.62712 0
M  V30 30015 H 2849.92 4.05743 2.18424 0
M  V30 30016 H 2848.23 3.58885 2.11165 0
M  V30 30017 H 2850.83 2.55859 4.69511 0
M  V30 30018 H 2851.17 0.973194 4.04765 0
M  V30 30019 H 2851.71 2.41994 3.15727 0
M  V30 30020 H 2848.45 5.35077 3.78646 0
M  V30 30021 H 2847.97 3.84543 4.60311 0
M  V30 30022 H 2849.64 4.42889 4.71654 0
M  V30 30023 N 2849.78 -1.1126 1.1162 0
M  V30 30024 C 2851 -1.87379 0.889046 0
M  V30 30025 C 2851.43 -1.79699 -0.555852 0
M  V30 30026 O 2850.78 -1.16075 -1.3927 0
M  V30 30027 C 2850.83 -3.34066 1.35765 0
M  V30 30028 O 2849.94 -4.08973 0.530571 0
M  V30 30029 H 2849.28 -0.581753 0.320092 0
M  V30 30030 H 2851.81 -1.40624 1.48613 0
M  V30 30031 H 2851.82 -3.84914 1.35298 0
M  V30 30032 H 2850.49 -3.38972 2.40979 0
M  V30 30033 H 2849.07 -3.68017 0.601503 0
M  V30 30034 N 2851.25 -0.906798 -1.28899 0
M  V30 30035 C 2852.18 -0.4067 -2.29931 0
M  V30 30036 C 2853.17 0.522033 -1.61891 0
M  V30 30037 O 2854.35 0.43125 -1.89351 0
M  V30 30038 C 2851.48 0.360305 -3.45426 0
M  V30 30039 C 2850.43 -0.478649 -4.25315 0
M  V30 30040 C 2849.76 0.416279 -5.33077 0
M  V30 30041 C 2851.06 -1.73229 -4.92736 0
M  V30 30042 H 2852.75 -1.25102 -2.72011 0
M  V30 30043 H 2850.3 -0.603 -1.30767 0
M  V30 30044 H 2852.25 0.720956 -4.15187 0
M  V30 30045 H 2850.98 1.23847 -3.02208 0
M  V30 30046 H 2849.64 -0.821725 -3.57272 0
M  V30 30047 H 2849.28 1.29278 -4.86103 0
M  V30 30048 H 2848.98 -0.141412 -5.8743 0
M  V30 30049 H 2850.51 0.772965 -6.05688 0
M  V30 30050 H 2851.92 -1.44095 -5.54896 0
M  V30 30051 H 2850.32 -2.23185 -5.57054 0
M  V30 30052 H 2851.39 -2.46416 -4.17621 0
M  V30 30053 N 2852.73 1.42648 -0.670032 0
M  V30 30054 C 2853.96 2.06462 -0.196991 0
M  V30 30055 C 2854.38 1.49985 1.13517 0
M  V30 30056 O 2853.74 0.616427 1.70499 0
M  V30 30057 C 2853.79 3.60338 -0.137444 0
M  V30 30058 O 2852.89 4.02561 0.895452 0
M  V30 30059 H 2852.23 0.656027 -0.10259 0
M  V30 30060 H 2854.76 1.82864 -0.917701 0
M  V30 30061 H 2854.77 4.0798 0.0402908 0
M  V30 30062 H 2853.45 4.00818 -1.10984 0
M  V30 30063 H 2852.03 3.66477 0.689145 0
M  V30 30064 N 2854.21 0.413044 1.52091 0
M  V30 30065 C 2855.16 -0.427954 2.23948 0
M  V30 30066 C 2856.15 -1.01025 1.25231 0
M  V30 30067 O 2857.34 -0.932417 1.50449 0
M  V30 30068 C 2854.47 -1.54195 3.06723 0
M  V30 30069 C 2853.55 -0.970234 4.12853 0
M  V30 30070 N 2853.94 -0.125522 5.05644 0
M  V30 30071 C 2852.24 -1.24034 4.28406 0
M  V30 30072 C 2852.94 0.192978 5.8138 0
M  V30 30073 N 2851.92 -0.417178 5.41997 0
M  V30 30074 H 2855.72 0.223679 2.93048 0
M  V30 30075 H 2853.23 0.223692 1.60852 0
M  V30 30076 H 2855.23 -2.15707 3.56758 0
M  V30 30077 H 2853.89 -2.19616 2.39163 0
M  V30 30078 H 2854.9 0.239086 5.17348 0
M  V30 30079 H 2851.58 -1.89385 3.72075 0
M  V30 30080 H 2852.97 0.878879 6.66127 0
M  V30 30081 N 2855.69 -1.56945 0.143591 0
M  V30 30082 C 2856.6 -2.20154 -0.810524 0
M  V30 30083 C 2857.62 -1.18482 -1.27428 0
M  V30 30084 O 2858.79 -1.51046 -1.33218 0
M  V30 30085 C 2855.86 -2.80803 -2.03349 0
M  V30 30086 C 2854.92 -3.9759 -1.61929 0
M  V30 30087 C 2854.15 -4.55337 -2.78395 0
M  V30 30088 O 2854.37 -4.11965 -3.94514 0
M  V30 30089 O 2853.31 -5.45651 -2.54063 0
M  V30 30090 H 2857.13 -3.0219 -0.302477 0
M  V30 30091 H 2854.72 -1.49168 -0.0832663 0
M  V30 30092 H 2856.6 -3.19364 -2.74926 0
M  V30 30093 H 2855.28 -2.01782 -2.53112 0
M  V30 30094 H 2854.18 -3.63751 -0.87384 0
M  V30 30095 H 2855.52 -4.7812 -1.16884 0
M  V30 30096 N 2857.17 0.130197 -1.57061 0
M  V30 30097 C 2858.58 0.68853 -1.7354 0
M  V30 30098 C 2858.93 1.80858 -0.760586 0
M  V30 30099 O 2858.05 2.1629 0.0690416 0
M  V30 30100 C 2858.65 1.25575 -3.14668 0
M  V30 30101 C 2857.21 1.76049 -3.32692 0
M  V30 30102 C 2856.36 0.655664 -2.69437 0
M  V30 30103 H 2859.31 -0.095628 -1.58412 0
M  V30 30104 H 2859.33 2.1255 -3.15599 0
M  V30 30105 H 2858.84 0.440344 -3.85594 0
M  V30 30106 H 2856.94 2.60103 -2.66791 0
M  V30 30107 H 2857.05 1.87764 -4.40774 0
M  V30 30108 H 2855.42 1.0865 -2.30364 0
M  V30 30109 H 2856.2 -0.148581 -3.42978 0
M  V30 30110 N 2858.65 1.52438 0.400055 0
M  V30 30111 C 2860.06 1.59005 0.978482 0
M  V30 30112 C 2860.41 0.436102 1.91292 0
M  V30 30113 O 2859.53 -0.442328 2.11831 0
M  V30 30114 C 2860.13 2.88187 1.7814 0
M  V30 30115 C 2858.69 2.97203 2.3097 0
M  V30 30116 C 2857.83 2.54024 1.11208 0
M  V30 30117 H 2860.78 1.57676 0.179975 0
M  V30 30118 H 2860.81 2.74051 2.63963 0
M  V30 30119 H 2860.32 3.72154 1.10104 0
M  V30 30120 H 2858.42 2.17749 3.02351 0
M  V30 30121 H 2858.53 4.01627 2.61214 0
M  V30 30122 H 2856.9 2.08084 1.46879 0
M  V30 30123 H 2857.68 3.40374 0.447247 0
M  V30 30124 N 2860.12 -0.657839 1.43214 0
M  V30 30125 C 2861.37 -1.41988 1.448 0
M  V30 30126 C 2861.7 -1.94073 0.0702901 0
M  V30 30127 O 2860.98 -1.71997 -0.908147 0
M  V30 30128 C 2861.26 -2.60466 2.48655 0
M  V30 30129 C 2861.11 -2.13904 3.95683 0
M  V30 30130 C 2862.43 -3.62682 2.49299 0
M  V30 30131 H 2859.55 -0.51495 0.527253 0
M  V30 30132 H 2862.19 -0.746179 1.74735 0
M  V30 30133 H 2860.34 -3.17942 2.2326 0
M  V30 30134 H 2862.02 -1.61465 4.32119 0
M  V30 30135 H 2860.26 -1.45318 4.08736 0
M  V30 30136 H 2860.93 -2.99081 4.63955 0
M  V30 30137 H 2863.41 -3.14956 2.71922 0
M  V30 30138 H 2862.28 -4.43137 3.23915 0
M  V30 30139 H 2862.54 -4.14962 1.52509 0
M  V30 30140 N 2861.6 -1.29668 -0.895769 0
M  V30 30141 C 2862.53 -1.10941 -2.00561 0
M  V30 30142 C 2863.55 -0.0557626 -1.62704 0
M  V30 30143 O 2864.74 -0.300687 -1.75949 0
M  V30 30144 C 2861.84 -0.667506 -3.32261 0
M  V30 30145 C 2861.01 -1.80054 -3.98622 0
M  V30 30146 C 2860.07 -1.34899 -5.08615 0
M  V30 30147 O 2859.09 -2.05438 -5.30833 0
M  V30 30148 N 2860.3 -0.222039 -5.80075 0
M  V30 30149 H 2863.06 -2.06526 -2.1718 0
M  V30 30150 H 2860.62 -1.2166 -1.0682 0
M  V30 30151 H 2862.61 -0.348657 -4.03195 0
M  V30 30152 H 2861.18 0.196 -3.11985 0
M  V30 30153 H 2860.4 -2.28806 -3.21001 0
M  V30 30154 H 2861.69 -2.56011 -4.397 0
M  V30 30155 H 2861.09 0.365984 -5.64515 0
M  V30 30156 H 2859.65 0.0374201 -6.51789 0
M  V30 30157 N 2863.08 1.10667 -1.12208 0
M  V30 30158 C 2864.36 1.79051 -0.787414 0
M  V30 30159 C 2864.74 1.98324 0.723232 0
M  V30 30160 O 2864.08 1.57437 1.65607 0
M  V30 30161 C 2864.29 3.12207 -1.55974 0
M  V30 30162 C 2865.64 3.87121 -1.74419 0
M  V30 30163 O 2866.67 3.2192 -1.52465 0
M  V30 30164 O 2865.53 5.04141 -2.10961 0
M  V30 30165 H 2862.62 0.775917 -0.28615 0
M  V30 30166 H 2865.17 1.17337 -1.22597 0
M  V30 30167 H 2863.94 2.93583 -2.58698 0
M  V30 30168 H 2863.56 3.81638 -1.11527 0
M  V30 30169 N 2864.56 0.913621 1.28416 0
M  V30 30170 C 2865.8 0.546708 1.9498 0
M  V30 30171 C 2866.13 -0.909576 1.71921 0
M  V30 30172 O 2865.39 -1.66205 1.03317 0
M  V30 30173 C 2865.69 0.80216 3.48282 0
M  V30 30174 C 2865.35 2.23797 3.9144 0
M  V30 30175 C 2864.01 2.63053 4.02935 0
M  V30 30176 C 2866.37 3.17234 4.13536 0
M  V30 30177 C 2863.69 3.94899 4.33903 0
M  V30 30178 C 2866.05 4.48644 4.45984 0
M  V30 30179 C 2864.71 4.87754 4.55689 0
M  V30 30180 H 2863.98 0.200055 0.713484 0
M  V30 30181 H 2866.63 1.15492 1.52754 0
M  V30 30182 H 2864.93 0.111145 3.91642 0
M  V30 30183 H 2866.63 0.497445 3.97903 0
M  V30 30184 H 2863.22 1.92336 3.8302 0
M  V30 30185 H 2867.4 2.88114 4.04109 0
M  V30 30186 H 2862.66 4.24902 4.39623 0
M  V30 30187 H 2866.83 5.21059 4.62029 0
M  V30 30188 H 2864.46 5.8995 4.7944 0
M  V30 30189 N 2866.04 -1.4229 0.677588 0
M  V30 30190 C 2867.28 -2.00724 0.198209 0
M  V30 30191 C 2867.6 -1.54214 -1.20323 0
M  V30 30192 O 2868.8 -2.05084 -1.77912 0
M  V30 30193 C 2867.26 -3.58618 0.303495 0
M  V30 30194 C 2866.87 -4.14116 1.70916 0
M  V30 30195 C 2868.61 -4.24339 -0.117029 0
M  V30 30196 C 2866.52 -5.64384 1.76706 0
M  V30 30197 H 2865.45 -0.750712 0.0703422 0
M  V30 30198 H 2868.1 -1.62981 0.843176 0
M  V30 30199 H 2866.48 -3.93878 -0.409413 0
M  V30 30200 H 2867.66 -3.9031 2.44938 0
M  V30 30201 H 2865.97 -3.60857 2.07778 0
M  V30 30202 H 2868.57 -5.34617 -0.0939531 0
M  V30 30203 H 2868.91 -4.00021 -1.15276 0
M  V30 30204 H 2869.44 -3.94049 0.544969 0
M  V30 30205 H 2866.18 -5.93503 2.78271 0
M  V30 30206 H 2865.7 -5.90171 1.07044 0
M  V30 30207 H 2867.38 -6.28849 1.52177 0
M  V30 30208 N 2867.51 -0.421104 -1.5187 0
M  V30 30209 C 2868.74 0.152334 -2.0684 0
M  V30 30210 C 2869.16 1.37081 -1.28804 0
M  V30 30211 O 2868.52 1.78426 -0.321513 0
M  V30 30212 C 2868.57 0.469305 -3.57533 0
M  V30 30213 O 2867.67 1.55842 -3.81821 0
M  V30 30214 H 2867.01 0.00897419 -0.663939 0
M  V30 30215 H 2869.54 -0.597759 -1.95673 0
M  V30 30216 H 2869.55 0.724482 -4.01516 0
M  V30 30217 H 2868.23 -0.421349 -4.1376 0
M  V30 30218 H 2866.81 1.29447 -3.49711 0
M  V30 30219 N 2868.99 1.56866 -0.151912 0
M  V30 30220 C 2869.96 2.15814 0.771823 0
M  V30 30221 C 2870.96 1.10117 1.17179 0
M  V30 30222 O 2872.15 1.35731 1.09191 0
M  V30 30223 C 2869.28 2.72524 2.04801 0
M  V30 30224 H 2870.47 2.9878 0.258969 0
M  V30 30225 H 2868.02 1.55995 0.0975606 0
M  V30 30226 H 2868.76 1.93238 2.60441 0
M  V30 30227 H 2868.54 3.49857 1.77038 0
M  V30 30228 H 2870.03 3.17925 2.70765 0
M  V30 30229 N 2870.47 -0.121866 1.57128 0
M  V30 30230 C 2871.72 -0.831386 1.84975 0
M  V30 30231 C 2872.05 -1.79662 0.737236 0
M  V30 30232 O 2871.32 -1.92792 -0.257165 0
M  V30 30233 C 2871.61 -1.58381 3.234 0
M  V30 30234 C 2871.46 -0.638367 4.45247 0
M  V30 30235 C 2872.78 -2.54064 3.5936 0
M  V30 30236 H 2869.9 -0.300791 0.672825 0
M  V30 30237 H 2872.54 -0.0957254 1.89759 0
M  V30 30238 H 2870.69 -2.21093 3.19453 0
M  V30 30239 H 2872.36 -0.0203115 4.61296 0
M  V30 30240 H 2870.61 0.0503062 4.33771 0
M  V30 30241 H 2871.28 -1.20141 5.38767 0
M  V30 30242 H 2873.75 -2.01459 3.64079 0
M  V30 30243 H 2872.63 -3.03744 4.57199 0
M  V30 30244 H 2872.89 -3.36596 2.86628 0
M  V30 30245 N 2871.95 -1.52648 -0.391965 0
M  V30 30246 C 2872.9 -1.73596 -1.47812 0
M  V30 30247 C 2873.88 -0.590006 -1.49692 0
M  V30 30248 O 2875.07 -0.847728 -1.55379 0
M  V30 30249 C 2872.2 -1.90556 -2.85558 0
M  V30 30250 C 2871.29 -3.11075 -2.88259 0
M  V30 30251 N 2871.68 -4.33478 -2.60634 0
M  V30 30252 C 2869.98 -3.1126 -3.19427 0
M  V30 30253 C 2870.68 -5.15063 -2.70342 0
M  V30 30254 N 2869.66 -4.50685 -3.03948 0
M  V30 30255 H 2873.46 -2.65863 -1.25276 0
M  V30 30256 H 2870.97 -1.50915 -0.599881 0
M  V30 30257 H 2872.97 -2.03685 -3.63756 0
M  V30 30258 H 2871.63 -0.995007 -3.09079 0
M  V30 30259 H 2872.64 -4.61662 -2.3471 0
M  V30 30260 H 2869.32 -2.30003 -3.48432 0
M  V30 30261 H 2870.71 -6.22628 -2.52554 0
M  V30 30262 N 2873.43 0.650235 -1.43561 0
M  V30 30263 C 2874.84 0.966246 -1.27027 0
M  V30 30264 C 2875.04 2.00582 -0.192152 0
M  V30 30265 O 2874.1 2.48839 0.428415 0
M  V30 30266 C 2875.41 1.44767 -2.63558 0
M  V30 30267 C 2876.96 1.56416 -2.71114 0
M  V30 30268 C 2877.43 2.07949 -4.0807 0
M  V30 30269 N 2878.93 2.15247 -4.1015 0
M  V30 30270 C 2879.66 2.56249 -5.12956 0
M  V30 30271 N 2879.16 2.96526 -6.26134 0
M  V30 30272 N 2880.95 2.56215 -5.0031 0
M  V30 30273 H 2873.1 -0.0376131 -2.12367 0
M  V30 30274 H 2875.36 0.0457616 -0.946895 0
M  V30 30275 H 2875.07 0.758211 -3.4343 0
M  V30 30276 H 2874.94 2.42216 -2.89156 0
M  V30 30277 H 2877.33 2.24463 -1.91573 0
M  V30 30278 H 2877.41 0.573923 -2.49278 0
M  V30 30279 H 2877.06 1.40503 -4.88079 0
M  V30 30280 H 2876.99 3.07809 -4.27272 0
M  V30 30281 H 2879.48 1.86882 -3.28456 0
M  V30 30282 H 2879.79 3.2657 -7.00408 0
M  V30 30283 H 2878.13 2.94323 -6.29602 0
M  V30 30284 H 2881.33 2.24128 -4.10956 0
M  V30 30285 H 2881.5 2.87847 -5.80558 0
M  V30 30286 N 2874.9 1.30141 0.88888 0
M  V30 30287 C 2875.85 1.16091 2.01558 0
M  V30 30288 C 2876.85 0.073771 1.69239 0
M  V30 30289 O 2878.05 0.234345 1.78468 0
M  V30 30290 H 2874.43 0.358918 0.660819 0
M  V30 30291 H 2876.4 2.11457 2.10544 0
M  V30 30292 C 2875.15 0.865485 3.36756 0
M  V30 30293 H 2874.47 1.69408 3.62134 0
M  V30 30294 H 2875.91 0.807265 4.16244 0
M  V30 30295 C 2874.37 -0.431518 3.34125 0
M  V30 30296 O 2874.9 -1.45425 3.74452 0
M  V30 30297 N 2873.11 -0.441271 2.8723 0
M  V30 30298 H 2872.65 0.391477 2.54608 0
M  V30 30299 H 2872.61 -1.30903 2.85852 0
M  V30 30300 N 2876.38 -1.1007 1.12794 0
M  V30 30301 C 2877.61 -1.86425 0.90887 0
M  V30 30302 C 2878.03 -1.80279 -0.536761 0
M  V30 30303 O 2877.39 -1.17546 -1.38031 0
M  V30 30304 C 2877.44 -3.32608 1.393 0
M  V30 30305 O 2876.54 -4.08387 0.573918 0
M  V30 30306 H 2875.88 -0.578326 0.326245 0
M  V30 30307 H 2878.41 -1.3904 1.50097 0
M  V30 30308 H 2878.42 -3.83457 1.39373 0
M  V30 30309 H 2877.1 -3.36397 2.44561 0
M  V30 30310 H 2875.68 -3.67358 0.640503 0
M  V30 30311 N 2877.86 -0.920419 -1.2793 0
M  V30 30312 C 2878.82 -0.41862 -2.25345 0
M  V30 30313 C 2879.82 0.458771 -1.54117 0
M  V30 30314 O 2881.01 0.260881 -1.72235 0
M  V30 30315 C 2878.15 0.399044 -3.38556 0
M  V30 30316 H 2879.34 -1.27922 -2.71249 0
M  V30 30317 H 2876.89 -0.700431 -1.39727 0
M  V30 30318 H 2877.63 1.27877 -2.98023 0
M  V30 30319 H 2877.41 -0.229932 -3.91425 0
M  V30 30320 H 2878.9 0.740745 -4.10978 0
M  V30 30321 N 2879.34 1.41929 -0.685124 0
M  V30 30322 C 2880.3 2.29189 -0.0223035 0
M  V30 30323 C 2881.3 1.43851 0.718575 0
M  V30 30324 O 2882.49 1.65121 0.555029 0
M  V30 30325 C 2879.62 3.26541 0.978955 0
M  V30 30326 H 2880.82 2.89295 -0.790475 0
M  V30 30327 H 2878.37 1.49741 -0.448038 0
M  V30 30328 H 2879.1 2.71395 1.77526 0
M  V30 30329 H 2878.89 3.89498 0.450969 0
M  V30 30330 H 2880.38 3.91956 1.44084 0
M  V30 30331 N 2880.82 0.429152 1.51644 0
M  V30 30332 C 2882.04 -0.141363 2.06918 0
M  V30 30333 C 2882.47 -1.36396 1.29529 0
M  V30 30334 O 2881.82 -1.78253 0.330971 0
M  V30 30335 C 2881.87 -0.450337 3.57777 0
M  V30 30336 O 2880.98 -1.53815 3.82642 0
M  V30 30337 H 2880.32 -0.00545303 0.663978 0
M  V30 30338 H 2882.85 0.608127 1.95353 0
M  V30 30339 H 2882.86 -0.703178 4.01895 0
M  V30 30340 H 2881.53 0.443286 4.13531 0
M  V30 30341 H 2880.11 -1.27591 3.50393 0
M  V30 30342 N 2882.29 -1.56783 0.160229 0
M  V30 30343 C 2883.54 -1.96155 -0.48659 0
M  V30 30344 C 2883.86 -1.04676 -1.64523 0
M  V30 30345 O 2883.13 -0.110899 -1.95586 0
M  V30 30346 H 2881.71 -0.7243 -0.182752 0
M  V30 30347 H 2884.38 -1.93431 0.238821 0
M  V30 30348 H 2883.47 -3.00189 -0.853973 0
M  V30 30349 N 2883.77 0.113531 -1.57191 0
M  V30 30350 C 2884.7 1.1401 -2.03774 0
M  V30 30351 C 2885.68 1.42867 -0.923201 0
M  V30 30352 O 2886.87 1.53214 -1.19327 0
M  V30 30353 C 2884 2.46486 -2.44667 0
M  V30 30354 C 2882.95 2.32078 -3.59616 0
M  V30 30355 C 2882.28 3.69566 -3.86426 0
M  V30 30356 C 2883.58 1.77672 -4.91152 0
M  V30 30357 H 2885.27 0.752615 -2.89786 0
M  V30 30358 H 2882.82 0.360585 -1.39412 0
M  V30 30359 H 2884.77 3.18556 -2.75862 0
M  V30 30360 H 2883.5 2.87134 -1.55633 0
M  V30 30361 H 2882.16 1.62456 -3.28639 0
M  V30 30362 H 2881.8 4.07709 -2.94588 0
M  V30 30363 H 2881.5 3.60778 -4.63803 0
M  V30 30364 H 2883.03 4.43133 -4.20078 0
M  V30 30365 H 2884.44 2.39565 -5.20847 0
M  V30 30366 H 2882.84 1.79691 -5.72566 0
M  V30 30367 H 2883.91 0.734692 -4.79302 0
M  V30 30368 N 2885.25 1.52854 0.383864 0
M  V30 30369 C 2886.5 1.68148 1.12839 0
M  V30 30370 C 2886.83 0.423987 1.89823 0
M  V30 30371 O 2886.08 -0.593732 1.86476 0
M  V30 30372 C 2886.38 2.87086 2.12876 0
M  V30 30373 C 2886.05 4.24324 1.52511 0
M  V30 30374 C 2884.71 4.61648 1.35775 0
M  V30 30375 C 2887.06 5.09745 1.08671 0
M  V30 30376 C 2884.39 5.82046 0.737541 0
M  V30 30377 C 2886.74 6.30772 0.480588 0
M  V30 30378 C 2885.4 6.66823 0.300564 0
M  V30 30379 H 2884.67 0.615297 0.412906 0
M  V30 30380 H 2887.32 1.87007 0.412383 0
M  V30 30381 H 2885.63 2.62664 2.90714 0
M  V30 30382 H 2887.32 2.96114 2.70402 0
M  V30 30383 H 2883.91 3.94926 1.66527 0
M  V30 30384 H 2888.1 4.81474 1.20402 0
M  V30 30385 H 2883.35 6.08582 0.586308 0
M  V30 30386 H 2887.53 6.96274 0.132611 0
M  V30 30387 H 2885.15 7.59982 -0.1821 0
M  V30 30388 N 2886.73 -0.642612 1.43904 0
M  V30 30389 C 2887.98 -1.39828 1.45365 0
M  V30 30390 C 2888.29 -1.95412 0.0856633 0
M  V30 30391 O 2889.5 -2.71491 -0.0222379 0
M  V30 30392 C 2887.95 -2.53107 2.55861 0
M  V30 30393 C 2887.56 -2.04085 3.98815 0
M  V30 30394 C 2889.31 -3.30397 2.66529 0
M  V30 30395 C 2887.21 -3.14638 5.00756 0
M  V30 30396 H 2886.14 -0.52542 0.540786 0
M  V30 30397 H 2888.79 -0.692529 1.6993 0
M  V30 30398 H 2887.18 -3.26203 2.24516 0
M  V30 30399 H 2888.35 -1.3793 4.39673 0
M  V30 30400 H 2886.66 -1.39644 3.92286 0
M  V30 30401 H 2889.26 -4.1279 3.39865 0
M  V30 30402 H 2889.6 -3.79126 1.71956 0
M  V30 30403 H 2890.14 -2.64386 2.97228 0
M  V30 30404 H 2886.88 -2.70866 5.96919 0
M  V30 30405 H 2886.4 -3.79471 4.64501 0
M  V30 30406 H 2888.08 -3.796 5.2394 0
M  V30 30407 N 2888.21 -1.30611 -0.881966 0
M  V30 30408 C 2889.14 -1.13062 -1.99373 0
M  V30 30409 C 2890.15 -0.0730165 -1.62636 0
M  V30 30410 O 2891.34 -0.319332 -1.7562 0
M  V30 30411 C 2888.44 -0.70271 -3.31535 0
M  V30 30412 C 2887.61 -1.84272 -3.9669 0
M  V30 30413 C 2886.67 -1.40286 -5.07155 0
M  V30 30414 O 2885.7 -2.11057 -5.28624 0
M  V30 30415 N 2886.9 -0.283551 -5.79807 0
M  V30 30416 H 2889.67 -2.08818 -2.14977 0
M  V30 30417 H 2887.23 -1.22786 -1.05523 0
M  V30 30418 H 2889.22 -0.391402 -4.02803 0
M  V30 30419 H 2887.79 0.162899 -3.12175 0
M  V30 30420 H 2887.01 -2.32198 -3.18556 0
M  V30 30421 H 2888.3 -2.6066 -4.3696 0
M  V30 30422 H 2887.7 0.306089 -5.64871 0
M  V30 30423 H 2886.25 -0.031713 -6.51792 0
M  V30 30424 N 2889.69 1.0947 -1.13376 0
M  V30 30425 C 2890.65 2.14271 -0.813677 0
M  V30 30426 C 2891.65 1.59827 0.176648 0
M  V30 30427 O 2892.84 1.74127 -0.0503747 0
M  V30 30428 C 2889.97 3.40247 -0.210957 0
M  V30 30429 H 2891.16 2.44096 -1.74233 0
M  V30 30430 H 2888.72 1.25001 -0.938326 0
M  V30 30431 H 2889.45 3.16048 0.726942 0
M  V30 30432 H 2889.24 3.81054 -0.924115 0
M  V30 30433 H 2890.73 4.176 -0.00384943 0
M  V30 30434 N 2891.16 0.92719 1.2744 0
M  V30 30435 C 2892.41 0.56318 1.93678 0
M  V30 30436 C 2892.73 -0.899806 1.73675 0
M  V30 30437 O 2893.93 -1.37257 2.34249 0
M  V30 30438 C 2892.39 0.956421 3.46959 0
M  V30 30439 C 2892 2.44006 3.7572 0
M  V30 30440 C 2893.74 0.663639 4.1928 0
M  V30 30441 C 2891.65 2.77273 5.22373 0
M  V30 30442 H 2890.58 0.206907 0.725056 0
M  V30 30443 H 2893.23 1.12793 1.44741 0
M  V30 30444 H 2891.61 0.320323 3.94702 0
M  V30 30445 H 2892.78 3.12402 3.38735 0
M  V30 30446 H 2891.1 2.70468 3.16601 0
M  V30 30447 H 2893.7 0.888689 5.27263 0
M  V30 30448 H 2894.04 -0.399125 4.14382 0
M  V30 30449 H 2894.57 1.25881 3.77358 0
M  V30 30450 H 2891.31 3.82456 5.32361 0
M  V30 30451 H 2890.83 2.13526 5.60506 0
M  V30 30452 H 2892.51 2.64989 5.90246 0
M  V30 30453 N 2892.64 -1.41564 0.692641 0
M  V30 30454 C 2893.57 -2.29196 -0.013673 0
M  V30 30455 C 2894.59 -1.4463 -0.747391 0
M  V30 30456 O 2895.78 -1.68164 -0.598581 0
M  V30 30457 C 2892.88 -3.22438 -1.04341 0
M  V30 30458 C 2892.05 -4.35747 -0.379908 0
M  V30 30459 C 2891.11 -5.09585 -1.31186 0
M  V30 30460 O 2890.13 -5.63474 -0.805356 0
M  V30 30461 N 2891.34 -5.16773 -2.64434 0
M  V30 30462 H 2894.1 -2.90455 0.738666 0
M  V30 30463 H 2891.66 -1.52684 0.538442 0
M  V30 30464 H 2893.65 -3.68703 -1.66854 0
M  V30 30465 H 2892.22 -2.62507 -1.69731 0
M  V30 30466 H 2891.44 -3.91902 0.425044 0
M  V30 30467 H 2892.73 -5.08735 0.0815798 0
M  V30 30468 H 2892.13 -4.74434 -3.08106 0
M  V30 30469 H 2890.69 -5.66625 -3.22149 0
M  V30 30470 N 2894.12 -0.437188 -1.51415 0
M  V30 30471 C 2895.34 0.130388 -2.0699 0
M  V30 30472 C 2895.77 1.35707 -1.30251 0
M  V30 30473 O 2895.13 1.78075 -0.34042 0
M  V30 30474 C 2895.18 0.431357 -3.58011 0
M  V30 30475 O 2894.28 1.51783 -3.83452 0
M  V30 30476 H 2893.62 0.00193172 -0.663997 0
M  V30 30477 H 2896.15 -0.618479 -1.95028 0
M  V30 30478 H 2896.16 0.681855 -4.02262 0
M  V30 30479 H 2894.84 -0.46521 -4.1329 0
M  V30 30480 H 2893.41 1.25731 -3.51064 0
M  V30 30481 N 2895.6 1.56696 -0.168541 0
M  V30 30482 C 2897.01 1.58493 0.187658 0
M  V30 30483 C 2897.21 1.18378 1.63061 0
M  V30 30484 O 2896.27 0.894083 2.36141 0
M  V30 30485 C 2897.58 3.00563 -0.0906386 0
M  V30 30486 C 2899.13 3.12987 -0.02863 0
M  V30 30487 C 2899.61 4.57144 -0.279879 0
M  V30 30488 N 2901.1 4.62641 -0.227558 0
M  V30 30489 C 2901.83 5.7203 -0.396174 0
M  V30 30490 N 2901.33 6.89987 -0.623694 0
M  V30 30491 N 2903.12 5.61117 -0.332272 0
M  V30 30492 H 2895.27 1.8106 -1.11045 0
M  V30 30493 H 2897.53 0.839048 -0.44125 0
M  V30 30494 H 2897.24 3.34379 -1.09012 0
M  V30 30495 H 2897.11 3.72086 0.619012 0
M  V30 30496 H 2899.5 2.78999 0.961422 0
M  V30 30497 H 2899.58 2.43906 -0.770948 0
M  V30 30498 H 2899.23 4.9184 -1.26713 0
M  V30 30499 H 2899.16 5.2438 0.483017 0
M  V30 30500 H 2901.65 3.77857 -0.0572387 0
M  V30 30501 H 2901.96 7.69231 -0.741881 0
M  V30 30502 H 2900.31 6.91856 -0.660275 0
M  V30 30503 H 2903.5 4.67843 -0.155133 0
M  V30 30504 H 2903.67 6.46314 -0.467108 0
M  V30 30505 N 2897.08 -0.105193 1.57249 0
M  V30 30506 C 2898.32 -0.81625 1.87395 0
M  V30 30507 C 2898.68 -1.76392 0.75828 0
M  V30 30508 O 2899.88 -2.51758 0.941879 0
M  V30 30509 C 2898.15 -1.53457 3.22778 0
M  V30 30510 S 2899.71 -2.2853 3.74592 0
M  V30 30511 H 2896.53 -0.272152 0.656852 0
M  V30 30512 H 2899.13 -0.0738747 1.9536 0
M  V30 30513 H 2897.83 -0.830604 4.01907 0
M  V30 30514 H 2897.37 -2.31705 3.17925 0
M  V30 30515 H 2899.38 -3.54496 3.47199 0
M  V30 30516 N 2898.55 -1.53055 -0.375752 0
M  V30 30517 C 2899.46 -1.81717 -1.48378 0
M  V30 30518 C 2900.48 -0.704823 -1.59086 0
M  V30 30519 O 2901.66 -0.993816 -1.75172 0
M  V30 30520 C 2898.72 -1.99197 -2.83763 0
M  V30 30521 C 2897.78 -3.23107 -2.82667 0
M  V30 30522 C 2897.02 -3.39743 -4.11595 0
M  V30 30523 O 2897.24 -2.60894 -5.07238 0
M  V30 30524 O 2896.17 -4.33056 -4.18026 0
M  V30 30525 H 2900 -2.75832 -1.27084 0
M  V30 30526 H 2897.58 -1.38309 -0.564877 0
M  V30 30527 H 2899.47 -2.12325 -3.64 0
M  V30 30528 H 2898.14 -1.08272 -3.05056 0
M  V30 30529 H 2897.05 -3.15411 -2.01164 0
M  V30 30530 H 2898.38 -4.13921 -2.66328 0
M  V30 30531 N 2900.03 0.634971 -1.44242 0
M  V30 30532 C 2900.98 1.76832 -1.51107 0
M  V30 30533 C 2901.97 1.65012 -0.38308 0
M  V30 30534 O 2903.18 1.71137 -0.557862 0
M  V30 30535 H 2899.56 0.583735 -0.474086 0
M  V30 30536 H 2901.53 1.68165 -2.46502 0
M  V30 30537 C 2900.28 3.15156 -1.46875 0
M  V30 30538 H 2899.6 3.24897 -2.32985 0
M  V30 30539 H 2901.04 3.94362 -1.55738 0
M  V30 30540 C 2899.5 3.3637 -0.188944 0
M  V30 30541 O 2900.03 3.9478 0.742418 0
M  V30 30542 N 2898.23 2.9045 -0.0933026 0
M  V30 30543 H 2897.78 2.43101 -0.852047 0
M  V30 30544 H 2897.74 3.0502 0.762254 0
M  V30 30545 N 2901.51 1.31076 0.875027 0
M  V30 30546 C 2902.44 1.20885 1.99773 0
M  V30 30547 C 2903.42 0.0971911 1.69822 0
M  V30 30548 O 2904.61 0.280929 1.92157 0
M  V30 30549 C 2901.74 0.910176 3.35161 0
M  V30 30550 C 2900.69 1.98085 3.79403 0
M  V30 30551 C 2900.02 1.53497 5.12194 0
M  V30 30552 C 2901.32 3.3933 3.97055 0
M  V30 30553 H 2903.01 2.14812 2.08558 0
M  V30 30554 H 2900.56 1.03416 1.00205 0
M  V30 30555 H 2902.51 0.825496 4.13235 0
M  V30 30556 H 2901.23 -0.0647647 3.26536 0
M  V30 30557 H 2899.89 2.05534 3.03565 0
M  V30 30558 H 2899.54 0.548029 5.00006 0
M  V30 30559 H 2899.24 2.2512 5.42766 0
M  V30 30560 H 2900.76 1.46427 5.92783 0
M  V30 30561 H 2902.18 3.34584 4.65539 0
M  V30 30562 H 2900.58 4.09126 4.39017 0
M  V30 30563 H 2901.65 3.80488 3.00594 0
M  V30 30564 N 2902.99 -1.08867 1.13955 0
M  V30 30565 C 2904.21 -1.85451 0.928592 0
M  V30 30566 C 2904.64 -1.80838 -0.51761 0
M  V30 30567 O 2904 -1.19003 -1.36777 0
M  V30 30568 C 2904.04 -3.31111 1.4282 0
M  V30 30569 O 2903.15 -4.07755 0.617201 0
M  V30 30570 H 2902.49 -0.574833 0.33236 0
M  V30 30571 H 2905.02 -1.3744 1.51563 0
M  V30 30572 H 2905.03 -3.81957 1.43432 0
M  V30 30573 H 2903.7 -3.33784 2.48115 0
M  V30 30574 H 2902.28 -3.66658 0.67943 0
M  V30 30575 N 2904.47 -0.933936 -1.26946 0
M  V30 30576 C 2905.69 -0.594175 -1.98185 0
M  V30 30577 C 2906.11 0.829228 -1.69615 0
M  V30 30578 O 2905.47 1.55195 -0.960241 0
M  V30 30579 C 2905.52 -0.818088 -3.52122 0
M  V30 30580 O 2905.24 -2.1855 -3.79694 0
M  V30 30581 C 2906.74 -0.487887 -4.40607 0
M  V30 30582 H 2903.96 -0.22458 -0.632301 0
M  V30 30583 H 2906.5 -1.25266 -1.61643 0
M  V30 30584 H 2904.66 -0.206314 -3.8685 0
M  V30 30585 H 2905.07 -2.24013 -4.74256 0
M  V30 30586 H 2906.55 -0.695222 -5.47604 0
M  V30 30587 H 2907.02 0.576837 -4.35395 0
M  V30 30588 H 2907.63 -1.07807 -4.11409 0
M  V30 30589 N 2905.94 1.41194 -0.700139 0
M  V30 30590 C 2907.36 1.84154 -0.307281 0
M  V30 30591 C 2907.71 1.58574 1.15537 0
M  V30 30592 O 2906.83 1.05856 1.88742 0
M  V30 30593 C 2907.43 3.34291 -0.550931 0
M  V30 30594 C 2905.99 3.75803 -0.211943 0
M  V30 30595 C 2905.13 2.64557 -0.830961 0
M  V30 30596 H 2908.08 1.30681 -0.900454 0
M  V30 30597 H 2908.1 3.80031 0.188887 0
M  V30 30598 H 2907.62 3.52877 -1.61554 0
M  V30 30599 H 2905.72 3.62817 0.848219 0
M  V30 30600 H 2905.83 4.7439 -0.670153 0
M  V30 30601 H 2904.19 2.53367 -0.260199 0
M  V30 30602 H 2904.98 2.8596 -1.89953 0
M  V30 30603 N 2907.42 0.445212 1.51181 0
M  V30 30604 C 2908.65 -0.117055 2.06569 0
M  V30 30605 C 2909.07 -1.35779 1.31185 0
M  V30 30606 O 2908.42 -1.78634 0.373637 0
M  V30 30607 C 2908.47 -0.431345 3.58917 0
M  V30 30608 O 2908.19 0.760153 4.31455 0
M  V30 30609 C 2909.7 -1.04342 4.30845 0
M  V30 30610 H 2906.92 -0.00443256 0.670985 0
M  V30 30611 H 2909.46 0.626559 1.94665 0
M  V30 30612 H 2907.61 -1.12487 3.7071 0
M  V30 30613 H 2908.03 0.48914 5.22214 0
M  V30 30614 H 2909.5 -1.21328 5.38501 0
M  V30 30615 H 2909.98 -2.0266 3.89648 0
M  V30 30616 H 2910.59 -0.389055 4.23517 0
M  V30 30617 N 2908.9 -1.56605 0.176849 0
M  V30 30618 C 2909.83 -2.14086 -0.790097 0
M  V30 30619 C 2910.81 -1.07246 -1.22217 0
M  V30 30620 O 2912 -1.35254 -1.31296 0
M  V30 30621 C 2909.12 -2.68492 -2.0647 0
M  V30 30622 C 2908.17 -3.87754 -1.77621 0
M  V30 30623 S 2909 -5.27176 -0.940519 0
M  V30 30624 C 2910.16 -5.84991 -2.22566 0
M  V30 30625 H 2910.39 -2.95768 -0.301388 0
M  V30 30626 H 2907.92 -1.54353 -0.0379008 0
M  V30 30627 H 2909.88 -3.00484 -2.79677 0
M  V30 30628 H 2908.54 -1.86885 -2.52454 0
M  V30 30629 H 2907.74 -4.24169 -2.72208 0
M  V30 30630 H 2907.34 -3.56677 -1.12506 0
M  V30 30631 H 2909.63 -5.98242 -3.17982 0
M  V30 30632 H 2910.57 -6.81962 -1.90612 0
M  V30 30633 H 2910.98 -5.13452 -2.34579 0
M  V30 30634 N 2910.38 0.0968524 -1.57302 0
M  V30 30635 C 2911.31 1.11842 -2.04972 0
M  V30 30636 C 2912.29 1.4188 -0.938303 0
M  V30 30637 O 2913.47 1.5194 -1.20946 0
M  V30 30638 C 2910.6 2.43877 -2.47268 0
M  V30 30639 C 2909.56 2.28251 -3.62057 0
M  V30 30640 C 2908.88 3.65447 -3.90324 0
M  V30 30641 C 2910.18 1.72453 -4.93009 0
M  V30 30642 H 2911.88 0.721836 -2.90568 0
M  V30 30643 H 2909.42 0.345778 -1.39787 0
M  V30 30644 H 2911.38 3.15612 -2.79225 0
M  V30 30645 H 2910.1 2.85467 -1.58669 0
M  V30 30646 H 2908.76 1.58961 -3.30344 0
M  V30 30647 H 2908.41 4.04562 -2.98896 0
M  V30 30648 H 2908.11 3.55838 -4.67603 0
M  V30 30649 H 2909.63 4.38652 -4.24755 0
M  V30 30650 H 2911.05 2.34027 -5.23359 0
M  V30 30651 H 2909.44 1.73608 -5.74439 0
M  V30 30652 H 2910.51 0.683814 -4.80054 0
M  V30 30653 N 2911.86 1.53252 0.36763 0
M  V30 30654 C 2912.8 1.79545 1.45024 0
M  V30 30655 C 2913.77 0.639717 1.53287 0
M  V30 30656 O 2914.96 0.881683 1.69207 0
M  V30 30657 C 2912.1 1.98928 2.81996 0
M  V30 30658 C 2911.21 3.26643 2.82717 0
M  V30 30659 C 2910.35 3.36224 4.11251 0
M  V30 30660 C 2909.39 4.57979 4.06105 0
M  V30 30661 N 2908.52 4.64725 5.26285 0
M  V30 30662 H 2913.36 2.71926 1.21903 0
M  V30 30663 H 2910.9 1.34706 0.590988 0
M  V30 30664 H 2912.86 2.08152 3.61564 0
M  V30 30665 H 2911.49 1.09886 3.03521 0
M  V30 30666 H 2910.54 3.26382 1.95394 0
M  V30 30667 H 2911.85 4.16286 2.74787 0
M  V30 30668 H 2911.01 3.44748 4.99233 0
M  V30 30669 H 2909.74 2.44593 4.21931 0
M  V30 30670 H 2908.75 4.49557 3.1651 0
M  V30 30671 H 2909.97 5.50949 3.97029 0
M  V30 30672 H 2907.92 3.75994 5.37554 0
M  V30 30673 H 2907.84 5.48269 5.20516 0
M  V30 30674 H 2909.11 4.7753 6.16105 0
M  V30 30675 N 2913.34 -0.627313 1.44577 0
M  V30 30676 C 2914.28 -1.73909 1.51737 0
M  V30 30677 C 2915.25 -1.62045 0.364774 0
M  V30 30678 O 2916.44 -1.81913 0.575535 0
M  V30 30679 C 2913.58 -3.12169 1.47121 0
M  V30 30680 C 2912.69 -3.34982 2.72784 0
M  V30 30681 C 2911.83 -4.63234 2.59976 0
M  V30 30682 C 2910.86 -4.79239 3.80784 0
M  V30 30683 N 2910 -5.98772 3.66629 0
M  V30 30684 H 2914.84 -1.67126 2.46725 0
M  V30 30685 H 2912.38 -0.815203 1.22445 0
M  V30 30686 H 2914.34 -3.92132 1.42436 0
M  V30 30687 H 2912.97 -3.17958 0.556984 0
M  V30 30688 H 2912.02 -2.48931 2.87641 0
M  V30 30689 H 2913.33 -3.42686 3.62447 0
M  V30 30690 H 2912.48 -5.51364 2.53145 0
M  V30 30691 H 2911.22 -4.57895 1.6788 0
M  V30 30692 H 2910.23 -3.89537 3.87996 0
M  V30 30693 H 2911.45 -4.8639 4.73922 0
M  V30 30694 H 2909.4 -5.94515 2.77287 0
M  V30 30695 H 2909.32 -6.07549 4.49911 0
M  V30 30696 H 2910.58 -6.89453 3.63696 0
M  V30 30697 N 2914.81 -1.31539 -0.868063 0
M  V30 30698 C 2916.04 -1.24301 -1.65399 0
M  V30 30699 C 2916.46 0.191356 -1.87828 0
M  V30 30700 O 2915.81 1.12402 -1.43778 0
M  V30 30701 C 2915.86 -1.98556 -3.02089 0
M  V30 30702 O 2915.59 -3.36393 -2.80662 0
M  V30 30703 C 2917.09 -1.9818 -3.96534 0
M  V30 30704 H 2914.31 -0.429426 -0.515591 0
M  V30 30705 H 2916.85 -1.73445 -1.08337 0
M  V30 30706 H 2915.01 -1.53167 -3.55835 0
M  V30 30707 H 2915.42 -3.74227 -3.67497 0
M  V30 30708 H 2916.89 -2.54644 -4.89756 0
M  V30 30709 H 2917.37 -0.964773 -4.28473 0
M  V30 30710 H 2917.98 -2.43456 -3.48725 0
M  V30 30711 N 2916.29 1.08262 -1.1453 0
M  V30 30712 C 2917.22 2.17228 -0.856394 0
M  V30 30713 C 2918.2 1.69044 0.189221 0
M  V30 30714 O 2919.39 1.94147 0.0455778 0
M  V30 30715 C 2916.52 3.45683 -0.334723 0
M  V30 30716 C 2915.47 4.07267 -1.31595 0
M  V30 30717 C 2914.8 5.30691 -0.653521 0
M  V30 30718 C 2916.1 4.48376 -2.67874 0
M  V30 30719 H 2917.79 2.41654 -1.76759 0
M  V30 30720 H 2915.34 1.16141 -0.851308 0
M  V30 30721 H 2917.29 4.21229 -0.120202 0
M  V30 30722 H 2916.01 3.20816 0.611911 0
M  V30 30723 H 2914.67 3.33755 -1.51667 0
M  V30 30724 H 2914.32 5.02111 0.298966 0
M  V30 30725 H 2914.02 5.72851 -1.30827 0
M  V30 30726 H 2915.55 6.0895 -0.44856 0
M  V30 30727 H 2916.96 5.15092 -2.51701 0
M  V30 30728 H 2915.36 5.01458 -3.29636 0
M  V30 30729 H 2916.43 3.60192 -3.24638 0
M  V30 30730 N 2917.77 0.940655 1.26449 0
M  V30 30731 C 2918.7 0.407144 2.25555 0
M  V30 30732 C 2919.71 -0.469297 1.55889 0
M  V30 30733 O 2920.9 -0.279827 1.76293 0
M  V30 30734 C 2918 -0.434004 3.3611 0
M  V30 30735 C 2917.18 0.426158 4.35319 0
M  V30 30736 C 2916.24 -0.354471 5.25005 0
M  V30 30737 O 2915.26 0.242319 5.68684 0
M  V30 30738 N 2916.46 -1.65114 5.56523 0
M  V30 30739 H 2919.23 1.25912 2.71967 0
M  V30 30740 H 2916.79 0.80948 1.40211 0
M  V30 30741 H 2918.78 -0.963615 3.9306 0
M  V30 30742 H 2917.35 -1.18678 2.89196 0
M  V30 30743 H 2916.57 1.13698 3.77447 0
M  V30 30744 H 2917.86 1.01374 4.98599 0
M  V30 30745 H 2917.26 -2.15813 5.22916 0
M  V30 30746 H 2915.81 -2.127 6.16118 0
M  V30 30747 N 2919.25 -1.40821 0.707617 0
M  V30 30748 C 2920.49 -2.0289 0.248021 0
M  V30 30749 C 2920.85 -1.54874 -1.13481 0
M  V30 30750 O 2922.05 -2.08951 -1.69095 0
M  V30 30751 C 2920.32 -3.55997 0.316388 0
M  V30 30752 S 2921.88 -4.38748 -0.0673927 0
M  V30 30753 H 2918.7 -0.704079 0.0989624 0
M  V30 30754 H 2921.3 -1.72067 0.928069 0
M  V30 30755 H 2920.01 -3.88436 1.32459 0
M  V30 30756 H 2919.54 -3.91537 -0.382406 0
M  V30 30757 H 2921.55 -4.79092 -1.29173 0
M  V30 30758 N 2920.73 -0.453223 -1.50943 0
M  V30 30759 C 2921.66 0.340399 -2.31005 0
M  V30 30760 C 2922.64 1.00667 -1.37114 0
M  V30 30761 O 2923.82 1.00727 -1.66035 0
M  V30 30762 C 2920.95 1.43295 -3.1636 0
M  V30 30763 C 2919.91 0.889289 -4.18659 0
M  V30 30764 C 2919.23 2.07879 -4.92636 0
M  V30 30765 C 2920.53 -0.087206 -5.22227 0
M  V30 30766 H 2922.23 -0.327775 -2.976 0
M  V30 30767 H 2919.77 -0.159079 -1.43119 0
M  V30 30768 H 2921.72 1.99549 -3.71158 0
M  V30 30769 H 2920.45 2.12964 -2.47617 0
M  V30 30770 H 2919.11 0.348851 -3.64936 0
M  V30 30771 H 2918.76 2.76204 -4.20381 0
M  V30 30772 H 2918.46 1.72133 -5.61822 0
M  V30 30773 H 2919.98 2.64656 -5.50263 0
M  V30 30774 H 2921.39 0.385555 -5.72002 0
M  V30 30775 H 2919.79 -0.358031 -5.99031 0
M  V30 30776 H 2920.86 -1.01887 -4.74075 0
M  V30 30777 N 2922.2 1.56509 -0.185151 0
M  V30 30778 C 2923.11 2.22225 0.751869 0
M  V30 30779 C 2924.13 1.21819 1.24242 0
M  V30 30780 O 2925.31 1.54525 1.29166 0
M  V30 30781 C 2922.37 2.86096 1.95832 0
M  V30 30782 C 2921.43 4.01743 1.5133 0
M  V30 30783 C 2920.66 4.62558 2.66225 0
M  V30 30784 O 2920.89 4.2228 3.83452 0
M  V30 30785 O 2919.82 5.52196 2.39507 0
M  V30 30786 H 2923.65 3.02886 0.22225 0
M  V30 30787 H 2921.23 1.49336 0.0436878 0
M  V30 30788 H 2923.11 3.26541 2.66362 0
M  V30 30789 H 2921.79 2.08422 2.47673 0
M  V30 30790 H 2920.7 3.6594 0.777091 0
M  V30 30791 H 2922.03 4.81051 1.04166 0
M  V30 30792 N 2923.68 -0.0885089 1.57351 0
M  V30 30793 C 2924.93 -0.789229 1.86053 0
M  V30 30794 C 2925.25 -1.78947 0.774795 0
M  V30 30795 O 2924.52 -1.94894 -0.19829 0
M  V30 30796 H 2923.1 -0.294462 0.686514 0
M  V30 30797 H 2925.76 -0.0685712 1.94779 0
M  V30 30798 H 2924.86 -1.31576 2.83009 0
M  V30 30799 N 2925.16 -1.53445 -0.359498 0
M  V30 30800 C 2926.41 -1.69141 -1.09883 0
M  V30 30801 C 2926.72 -0.452896 -1.90285 0
M  V30 30802 O 2927.93 -0.490506 -2.67032 0
M  V30 30803 C 2926.38 -2.99029 -2.00274 0
M  V30 30804 C 2925.99 -4.30163 -1.25156 0
M  V30 30805 C 2927.74 -3.24091 -2.74163 0
M  V30 30806 C 2925.64 -5.51136 -2.14484 0
M  V30 30807 H 2924.57 -0.630224 -0.413925 0
M  V30 30808 H 2927.22 -1.79946 -0.359402 0
M  V30 30809 H 2925.61 -2.82041 -2.77973 0
M  V30 30810 H 2926.78 -4.57802 -0.524787 0
M  V30 30811 H 2925.09 -4.11591 -0.631044 0
M  V30 30812 H 2927.69 -4.11658 -3.41236 0
M  V30 30813 H 2928.03 -2.40413 -3.39864 0
M  V30 30814 H 2928.57 -3.41781 -2.03544 0
M  V30 30815 H 2925.31 -6.3731 -1.53351 0
M  V30 30816 H 2924.83 -5.27767 -2.84995 0
M  V30 30817 H 2926.51 -5.86162 -2.73904 0
M  V30 30818 N 2926.64 0.619637 -1.44908 0
M  V30 30819 C 2927.59 1.72502 -1.49088 0
M  V30 30820 C 2928.57 1.56926 -0.3554 0
M  V30 30821 O 2929.76 1.66467 -0.60147 0
M  V30 30822 C 2926.89 3.11224 -1.44894 0
M  V30 30823 C 2925.98 3.32229 -2.63599 0
M  V30 30824 N 2926.37 3.23548 -3.8878 0
M  V30 30825 C 2924.67 3.63063 -2.5904 0
M  V30 30826 C 2925.37 3.45556 -4.67938 0
M  V30 30827 N 2924.34 3.68976 -3.99196 0
M  V30 30828 H 2928.15 1.64265 -2.43709 0
M  V30 30829 H 2925.66 0.822495 -1.40031 0
M  V30 30830 H 2927.66 3.90509 -1.45973 0
M  V30 30831 H 2926.32 3.20619 -0.513199 0
M  V30 30832 H 2927.33 3.02214 -4.2058 0
M  V30 30833 H 2924.01 3.79368 -1.74316 0
M  V30 30834 H 2925.4 3.44339 -5.76958 0
M  V30 30835 N 2928.12 1.31997 0.861075 0
M  V30 30836 C 2929.05 1.22997 1.98479 0
M  V30 30837 C 2930.03 0.115198 1.69709 0
M  V30 30838 O 2931.21 0.301294 1.91849 0
M  V30 30839 C 2928.34 0.945674 3.34177 0
M  V30 30840 C 2927.3 2.02098 3.7728 0
M  V30 30841 C 2926.62 1.58921 5.10537 0
M  V30 30842 C 2927.92 3.43522 3.93433 0
M  V30 30843 H 2929.62 2.17012 2.06268 0
M  V30 30844 H 2927.16 1.04473 0.991025 0
M  V30 30845 H 2929.12 0.869279 4.12337 0
M  V30 30846 H 2927.84 -0.0301275 3.26586 0
M  V30 30847 H 2926.5 2.08742 3.01368 0
M  V30 30848 H 2926.15 0.60103 4.99396 0
M  V30 30849 H 2925.85 2.30864 5.40348 0
M  V30 30850 H 2927.37 1.52706 5.91196 0
M  V30 30851 H 2928.78 3.39503 4.61964 0
M  V30 30852 H 2927.18 4.13759 4.34653 0
M  V30 30853 H 2928.25 3.83655 2.96542 0
M  V30 30854 N 2929.59 -1.07653 1.15103 0
M  V30 30855 C 2930.82 -1.84455 0.948209 0
M  V30 30856 C 2931.24 -1.81377 -0.498401 0
M  V30 30857 O 2930.6 -1.20447 -1.35507 0
M  V30 30858 C 2930.65 -3.29578 1.46324 0
M  V30 30859 O 2929.75 -4.07078 0.660414 0
M  V30 30860 H 2929.1 -0.571275 0.338438 0
M  V30 30861 H 2931.63 -1.35825 1.53012 0
M  V30 30862 H 2931.64 -3.80414 1.47475 0
M  V30 30863 H 2930.31 -3.31134 2.51641 0
M  V30 30864 H 2928.89 -3.65917 0.718281 0
M  V30 30865 N 2931.07 -0.947348 -1.25949 0
M  V30 30866 C 2932 -0.4191 -2.25336 0
M  V30 30867 C 2933.02 0.461023 -1.56136 0
M  V30 30868 O 2934.21 0.270474 -1.76439 0
M  V30 30869 C 2931.31 0.416174 -3.36335 0
M  V30 30870 C 2930.48 -0.449238 -4.35087 0
M  V30 30871 C 2929.54 0.326624 -5.25185 0
M  V30 30872 O 2928.56 -0.272474 -5.68547 0
M  V30 30873 N 2929.77 1.6216 -5.57391 0
M  V30 30874 H 2932.53 -1.27352 -2.71296 0
M  V30 30875 H 2930.09 -0.816905 -1.39779 0
M  V30 30876 H 2932.08 0.942757 -3.93566 0
M  V30 30877 H 2930.65 1.17142 -2.89821 0
M  V30 30878 H 2929.87 -1.15698 -3.76839 0
M  V30 30879 H 2931.16 -1.04017 -4.98054 0
M  V30 30880 H 2930.56 2.13037 -5.24053 0
M  V30 30881 H 2929.12 2.0943 -6.17238 0
M  V30 30882 N 2932.55 1.40444 -0.715075 0
M  V30 30883 C 2933.78 2.05731 -0.262576 0
M  V30 30884 C 2934.2 1.5352 1.08688 0
M  V30 30885 O 2933.56 0.670358 1.68451 0
M  V30 30886 C 2933.61 3.59718 -0.252013 0
M  V30 30887 O 2932.71 4.05206 0.766927 0
M  V30 30888 H 2932.05 0.652431 -0.123409 0
M  V30 30889 H 2934.58 1.79852 -0.975413 0
M  V30 30890 H 2934.59 4.07902 -0.0895254 0
M  V30 30891 H 2933.27 3.97085 -1.23679 0
M  V30 30892 H 2931.84 3.68484 0.572204 0
M  V30 30893 N 2934.03 0.461222 1.507 0
M  V30 30894 C 2935.28 -0.0969696 2.01867 0
M  V30 30895 C 2935.6 -1.41101 1.34593 0
M  V30 30896 O 2934.87 -1.89723 0.488074 0
M  V30 30897 H 2933.45 -0.0388261 0.74599 0
M  V30 30898 H 2936.11 0.60939 1.85128 0
M  V30 30899 H 2935.21 -0.255633 3.11051 0
M  V30 30900 N 2935.51 -1.56408 0.193449 0
M  V30 30901 C 2936.47 -2.17784 -0.714332 0
M  V30 30902 C 2937.47 -1.13185 -1.14218 0
M  V30 30903 O 2938.66 -1.38578 -1.05554 0
M  V30 30904 C 2935.79 -2.77858 -1.97504 0
M  V30 30905 H 2936.98 -2.99361 -0.179662 0
M  V30 30906 H 2934.54 -1.56199 -0.056167 0
M  V30 30907 H 2935.27 -2.00075 -2.55226 0
M  V30 30908 H 2935.06 -3.54428 -1.677 0
M  V30 30909 H 2936.55 -3.24992 -2.62241 0
M  V30 30910 N 2936.98 0.0801629 -1.57396 0
M  V30 30911 C 2938.23 0.782051 -1.87114 0
M  V30 30912 C 2938.56 1.77644 -0.784611 0
M  V30 30913 O 2937.84 1.93406 0.205959 0
M  V30 30914 C 2938.12 1.49751 -3.27485 0
M  V30 30915 C 2937.97 0.520093 -4.46783 0
M  V30 30916 C 2939.29 2.44447 -3.65969 0
M  V30 30917 H 2936.41 0.282846 -0.680564 0
M  V30 30918 H 2939.05 0.0453805 -1.89946 0
M  V30 30919 H 2937.2 2.12545 -3.25203 0
M  V30 30920 H 2938.88 -0.102 -4.61187 0
M  V30 30921 H 2937.12 -0.165295 -4.33485 0
M  V30 30922 H 2937.79 1.05814 -5.41763 0
M  V30 30923 H 2940.27 1.91735 -3.69292 0
M  V30 30924 H 2939.14 2.91515 -4.65091 0
M  V30 30925 H 2939.4 3.28878 -2.95452 0
M  V30 30926 N 2938.46 1.53634 0.351355 0
M  V30 30927 C 2939.39 1.84057 1.43684 0
M  V30 30928 C 2940.37 0.6951 1.55249 0
M  V30 30929 O 2941.56 0.946287 1.69585 0
M  V30 30930 C 2938.69 2.0432 2.80839 0
M  V30 30931 C 2937.64 3.20122 2.84088 0
M  V30 30932 C 2936.97 3.25703 4.24054 0
M  V30 30933 C 2938.27 4.58404 2.50326 0
M  V30 30934 H 2939.96 2.74963 1.18473 0
M  V30 30935 H 2937.51 1.32304 0.568486 0
M  V30 30936 H 2939.46 2.24187 3.56817 0
M  V30 30937 H 2938.19 1.10137 3.07469 0
M  V30 30938 H 2936.84 3.00098 2.10563 0
M  V30 30939 H 2936.49 2.29131 4.47781 0
M  V30 30940 H 2936.19 4.03516 4.2714 0
M  V30 30941 H 2937.72 3.47771 5.01884 0
M  V30 30942 H 2939.13 4.78337 3.16017 0
M  V30 30943 H 2937.53 5.38563 2.64708 0
M  V30 30944 H 2938.6 4.62545 1.45534 0
M  V30 30945 N 2939.94 -0.611943 1.45234 0
M  V30 30946 C 2941.17 -1.39781 1.52541 0
M  V30 30947 C 2941.58 -1.8815 0.156566 0
M  V30 30948 O 2940.94 -1.61963 -0.841092 0
M  V30 30949 C 2940.99 -2.60524 2.50619 0
M  V30 30950 O 2940.71 -2.14166 3.82184 0
M  V30 30951 C 2942.21 -3.53434 2.67581 0
M  V30 30952 H 2939.43 -0.428034 0.516748 0
M  V30 30953 H 2941.98 -0.746694 1.9038 0
M  V30 30954 H 2940.13 -3.21686 2.15863 0
M  V30 30955 H 2940.55 -2.92584 4.3531 0
M  V30 30956 H 2942.02 -4.34711 3.40192 0
M  V30 30957 H 2942.5 -4.03493 1.73466 0
M  V30 30958 H 2943.1 -2.98128 3.03315 0
M  V30 30959 N 2941.42 -1.32452 -0.854063 0
M  V30 30960 C 2942.35 -1.24048 -1.97824 0
M  V30 30961 C 2943.33 -0.124196 -1.69646 0
M  V30 30962 O 2944.51 -0.311464 -1.91686 0
M  V30 30963 C 2941.64 -0.963383 -3.33671 0
M  V30 30964 C 2940.6 -2.04096 -3.76203 0
M  V30 30965 C 2939.92 -1.61627 -5.09687 0
M  V30 30966 C 2941.22 -3.45604 -3.91606 0
M  V30 30967 H 2942.92 -2.18102 -2.05114 0
M  V30 30968 H 2940.46 -1.04998 -0.98547 0
M  V30 30969 H 2942.42 -0.891134 -4.1187 0
M  V30 30970 H 2941.14 0.0128074 -3.26597 0
M  V30 30971 H 2939.8 -2.10337 -3.00256 0
M  V30 30972 H 2939.45 -0.627506 -4.9907 0
M  V30 30973 H 2939.15 -2.33726 -5.39116 0
M  V30 30974 H 2940.67 -1.55839 -5.90378 0
M  V30 30975 H 2942.09 -3.41948 -4.60157 0
M  V30 30976 H 2940.48 -4.16058 -4.32453 0
M  V30 30977 H 2941.55 -3.85222 -2.94503 0
M  V30 30978 N 2942.9 1.07041 -1.15672 0
M  V30 30979 C 2944.13 1.83145 -0.956115 0
M  V30 30980 C 2944.54 1.82503 0.498937 0
M  V30 30981 O 2943.88 1.23722 1.35789 0
M  V30 30982 C 2943.94 3.31242 -1.39709 0
M  V30 30983 C 2943.6 3.55599 -2.87051 0
M  V30 30984 C 2944.6 3.49279 -3.85098 0
M  V30 30985 C 2942.29 3.83164 -3.24793 0
M  V30 30986 C 2944.28 3.70176 -5.18891 0
M  V30 30987 C 2941.97 4.03713 -4.58758 0
M  V30 30988 C 2942.97 3.97215 -5.55616 0
M  V30 30989 O 2942.65 4.17211 -6.87161 0
M  V30 30990 H 2942.39 0.584574 -0.339484 0
M  V30 30991 H 2944.94 1.36002 -1.53924 0
M  V30 30992 H 2943.17 3.7921 -0.757393 0
M  V30 30993 H 2944.86 3.88819 -1.16509 0
M  V30 30994 H 2945.62 3.27982 -3.57286 0
M  V30 30995 H 2941.5 3.87335 -2.49986 0
M  V30 30996 H 2945.05 3.6502 -5.9448 0
M  V30 30997 H 2940.94 4.24497 -4.86285 0
M  V30 30998 H 2941.71 4.34541 -6.93625 0
M  V30 30999 N 2944.38 0.954014 1.25445 0
M  V30 31000 C 2945.62 0.609364 1.93429 0
M  V30 31001 C 2945.95 -0.851357 1.74544 0
M  V30 31002 O 2945.23 -1.61076 1.09017 0
M  V30 31003 C 2945.51 0.968102 3.46843 0
M  V30 31004 C 2945.37 2.48451 3.74956 0
M  V30 31005 C 2946.68 0.492718 4.37333 0
M  V30 31006 H 2943.8 0.222856 0.702499 0
M  V30 31007 H 2946.45 1.19055 1.48074 0
M  V30 31008 H 2944.6 0.473532 3.85603 0
M  V30 31009 H 2946.27 3.05279 3.45836 0
M  V30 31010 H 2944.51 2.92247 3.20584 0
M  V30 31011 H 2945.18 2.68602 4.82242 0
M  V30 31012 H 2947.66 0.916949 4.05871 0
M  V30 31013 H 2946.53 0.772426 5.43438 0
M  V30 31014 H 2946.79 -0.607326 4.37909 0
M  V30 31015 N 2945.85 -1.40063 0.722513 0
M  V30 31016 C 2947.13 -1.94657 0.191863 0
M  V30 31017 C 2947.51 -1.6602 -1.30386 0
M  V30 31018 O 2946.86 -0.981624 -2.0634 0
M  V30 31019 C 2947.07 -3.45223 0.512039 0
M  V30 31020 C 2948.42 -4.2216 0.454501 0
M  V30 31021 O 2949.44 -3.53365 0.4485 0
M  V30 31022 O 2948.3 -5.44741 0.438082 0
M  V30 31023 H 2945.39 -0.826426 0.0307966 0
M  V30 31024 H 2947.94 -1.49632 0.800519 0
M  V30 31025 H 2946.71 -3.59452 1.54628 0
M  V30 31026 H 2946.33 -3.974 -0.126227 0
M  V30 31027 N 2947.33 -0.469207 -1.50453 0
M  V30 31028 C 2948.75 -0.123254 -1.59123 0
M  V30 31029 C 2948.95 1.3701 -1.47751 0
M  V30 31030 O 2948 2.1432 -1.33504 0
M  V30 31031 C 2949.32 -0.671771 -2.931 0
M  V30 31032 C 2950.86 -0.635032 -3.0649 0
M  V30 31033 C 2951.34 -1.16106 -4.43039 0
M  V30 31034 N 2952.83 -1.12039 -4.49446 0
M  V30 31035 C 2953.57 -1.49794 -5.53488 0
M  V30 31036 N 2953.06 -1.94988 -6.64794 0
M  V30 31037 N 2954.85 -1.41408 -5.44022 0
M  V30 31038 H 2947.01 -1.44049 -1.56089 0
M  V30 31039 H 2949.27 -0.595582 -0.737554 0
M  V30 31040 H 2948.97 -1.71785 -3.06892 0
M  V30 31041 H 2948.85 -0.114289 -3.77027 0
M  V30 31042 H 2951.24 0.402135 -2.92347 0
M  V30 31043 H 2951.32 -1.2293 -2.24326 0
M  V30 31044 H 2950.96 -2.19685 -4.57931 0
M  V30 31045 H 2950.89 -0.543031 -5.23793 0
M  V30 31046 H 2953.38 -0.788893 -3.69574 0
M  V30 31047 H 2953.69 -2.21949 -7.40242 0
M  V30 31048 H 2952.04 -1.98939 -6.65919 0
M  V30 31049 H 2955.23 -1.05943 -4.55954 0
M  V30 31050 H 2955.4 -1.71158 -6.24987 0
M  V30 31051 N 2948.81 1.56303 -0.201741 0
M  V30 31052 C 2949.74 2.22396 0.711511 0
M  V30 31053 C 2950.72 1.18919 1.21623 0
M  V30 31054 O 2951.91 1.47446 1.26386 0
M  V30 31055 C 2949.04 2.88848 1.92831 0
M  V30 31056 C 2947.99 3.98626 1.55824 0
M  V30 31057 C 2947.32 4.52276 2.8522 0
M  V30 31058 C 2948.62 5.16694 0.763158 0
M  V30 31059 H 2950.31 2.98969 0.160521 0
M  V30 31060 H 2947.86 1.43801 0.0757663 0
M  V30 31061 H 2949.81 3.33769 2.57247 0
M  V30 31062 H 2948.53 2.0969 2.50395 0
M  V30 31063 H 2947.19 3.54406 0.937638 0
M  V30 31064 H 2946.84 3.69872 3.40887 0
M  V30 31065 H 2946.54 5.26353 2.61201 0
M  V30 31066 H 2948.06 4.99903 3.50613 0
M  V30 31067 H 2949.48 5.58119 1.31057 0
M  V30 31068 H 2947.87 5.9688 0.62083 0
M  V30 31069 H 2948.94 4.84333 -0.234407 0
M  V30 31070 N 2950.29 -0.0718147 1.57436 0
M  V30 31071 C 2951.22 -1.08567 2.06726 0
M  V30 31072 C 2952.2 -1.40369 0.960756 0
M  V30 31073 O 2953.38 -1.49997 1.23348 0
M  V30 31074 C 2950.51 -2.39912 2.51117 0
M  V30 31075 C 2949.47 -2.22462 3.65643 0
M  V30 31076 C 2948.79 -3.59191 3.96089 0
M  V30 31077 C 2950.09 -1.64587 4.9569 0
M  V30 31078 H 2951.79 -0.675518 2.9168 0
M  V30 31079 H 2949.33 -0.323496 1.40319 0
M  V30 31080 H 2951.29 -3.1113 2.84211 0
M  V30 31081 H 2950.01 -2.82907 1.63191 0
M  V30 31082 H 2948.67 -1.53685 3.32831 0
M  V30 31083 H 2948.32 -3.99756 3.05294 0
M  V30 31084 H 2948.02 -3.48354 4.73205 0
M  V30 31085 H 2949.54 -4.31839 4.31679 0
M  V30 31086 H 2950.96 -2.25671 5.27015 0
M  V30 31087 H 2949.35 -1.64447 5.77128 0
M  V30 31088 H 2950.42 -0.607355 4.81081 0
M  V30 31089 N 2951.77 -1.53818 -0.343203 0
M  V30 31090 C 2953.01 -1.72795 -1.09185 0
M  V30 31091 C 2953.37 -0.481095 -1.85875 0
M  V30 31092 O 2954.57 -0.547897 -2.63157 0
M  V30 31093 C 2952.84 -2.95674 -2.00778 0
M  V30 31094 S 2954.4 -3.35464 -2.8286 0
M  V30 31095 H 2951.22 -0.607801 -0.368916 0
M  V30 31096 H 2953.82 -1.91962 -0.370231 0
M  V30 31097 H 2952.52 -3.84592 -1.43239 0
M  V30 31098 H 2952.06 -2.78973 -2.77376 0
M  V30 31099 H 2954.07 -2.89225 -4.03191 0
M  V30 31100 N 2953.24 0.604233 -1.45557 0
M  V30 31101 C 2954.47 1.3897 -1.53281 0
M  V30 31102 C 2954.89 1.88064 -0.166542 0
M  V30 31103 O 2954.24 1.62406 0.832491 0
M  V30 31104 C 2954.29 2.59191 -2.51997 0
M  V30 31105 O 2954.02 2.12137 -3.83314 0
M  V30 31106 C 2955.52 3.5201 -2.69451 0
M  V30 31107 H 2952.74 0.425287 -0.51901 0
M  V30 31108 H 2955.28 0.736587 -1.90774 0
M  V30 31109 H 2953.44 3.20537 -2.17566 0
M  V30 31110 H 2953.85 2.90271 -4.36856 0
M  V30 31111 H 2955.32 4.32901 -3.42492 0
M  V30 31112 H 2955.8 4.02567 -1.75603 0
M  V30 31113 H 2956.41 2.96515 -3.04892 0
M  V30 31114 N 2954.72 1.32903 0.847027 0
M  V30 31115 C 2956.13 1.21468 1.41783 0
M  V30 31116 C 2956.48 -0.169732 1.95464 0
M  V30 31117 O 2955.61 -1.06889 1.88159 0
M  V30 31118 C 2956.2 2.1991 2.5773 0
M  V30 31119 C 2954.76 2.12339 3.10788 0
M  V30 31120 C 2953.91 2.0785 1.83558 0
M  V30 31121 H 2956.86 1.4462 0.653506 0
M  V30 31122 H 2956.88 1.80207 3.3512 0
M  V30 31123 H 2956.39 3.2066 2.1863 0
M  V30 31124 H 2954.49 1.14864 3.54453 0
M  V30 31125 H 2954.61 3.02513 3.71514 0
M  V30 31126 H 2952.97 1.53203 2.03472 0
M  V30 31127 H 2953.75 3.10394 1.46664 0
M  V30 31128 N 2956.2 -1.06426 1.16238 0
M  V30 31129 C 2957.45 -1.792 0.943065 0
M  V30 31130 C 2957.77 -1.87162 -0.52921 0
M  V30 31131 O 2957.03 -1.35845 -1.40871 0
M  V30 31132 C 2957.33 -3.23747 1.51402 0
M  V30 31133 C 2956.99 -3.35867 3.00839 0
M  V30 31134 C 2955.66 -3.38882 3.41632 0
M  V30 31135 C 2958.01 -3.37897 3.96831 0
M  V30 31136 C 2955.34 -3.41542 4.77039 0
M  V30 31137 C 2957.69 -3.42094 5.32122 0
M  V30 31138 C 2956.35 -3.43391 5.72398 0
M  V30 31139 H 2955.62 -0.655738 0.345092 0
M  V30 31140 H 2958.27 -1.25168 1.44932 0
M  V30 31141 H 2956.57 -3.80622 0.92918 0
M  V30 31142 H 2958.27 -3.78651 1.32002 0
M  V30 31143 H 2954.86 -3.34225 2.68312 0
M  V30 31144 H 2959.05 -3.3478 3.66382 0
M  V30 31145 H 2954.3 -3.40849 5.07575 0
M  V30 31146 H 2958.48 -3.42612 6.06292 0
M  V30 31147 H 2956.1 -3.45204 6.77302 0
M  V30 31148 N 2957.68 -0.960653 -1.24937 0
M  V30 31149 C 2959.09 -0.666043 -1.45038 0
M  V30 31150 C 2959.29 0.774469 -1.86022 0
M  V30 31151 O 2958.35 1.54913 -1.99395 0
M  V30 31152 C 2959.66 -1.64412 -2.51772 0
M  V30 31153 C 2961.21 -1.65596 -2.65607 0
M  V30 31154 C 2961.69 -2.62183 -3.75531 0
M  V30 31155 N 2963.18 -2.60584 -3.8295 0
M  V30 31156 C 2963.91 -3.31995 -4.67511 0
M  V30 31157 N 2963.41 -4.129 -5.56314 0
M  V30 31158 N 2965.2 -3.20853 -4.6153 0
M  V30 31159 H 2957.35 -1.89147 -0.966287 0
M  V30 31160 H 2959.62 -0.813934 -0.486019 0
M  V30 31161 H 2959.32 -2.67333 -2.28529 0
M  V30 31162 H 2959.2 -1.41134 -3.49801 0
M  V30 31163 H 2961.58 -0.633896 -2.88211 0
M  V30 31164 H 2961.66 -1.92934 -1.67958 0
M  V30 31165 H 2961.31 -3.6452 -3.53677 0
M  V30 31166 H 2961.24 -2.32128 -4.72678 0
M  V30 31167 H 2963.73 -2.01853 -3.19474 0
M  V30 31168 H 2964.04 -4.64294 -6.17779 0
M  V30 31169 H 2962.39 -4.16996 -5.56003 0
M  V30 31170 H 2965.58 -2.57115 -3.91164 0
M  V30 31171 H 2965.75 -3.76772 -5.27207 0
M  V30 31172 N 2959.16 1.39677 -0.729931 0
M  V30 31173 C 2960.4 2.00912 -0.276065 0
M  V30 31174 C 2960.74 1.57778 1.13224 0
M  V30 31175 O 2960.01 0.80435 1.77089 0
M  V30 31176 C 2960.29 3.58171 -0.37222 0
M  V30 31177 C 2960.15 4.11338 -1.81993 0
M  V30 31178 C 2961.47 4.39399 0.248301 0
M  V30 31179 H 2958.58 0.729937 -0.101786 0
M  V30 31180 H 2961.23 1.65956 -0.925133 0
M  V30 31181 H 2959.38 3.88081 0.18039 0
M  V30 31182 H 2961.05 3.92168 -2.42903 0
M  V30 31183 H 2959.29 3.65088 -2.34294 0
M  V30 31184 H 2959.96 5.20483 -1.83851 0
M  V30 31185 H 2962.44 4.15504 -0.222718 0
M  V30 31186 H 2961.31 5.48693 0.15065 0
M  V30 31187 H 2961.58 4.21503 1.33371 0
M  V30 31188 N 2960.63 0.47718 1.50202 0
M  V30 31189 C 2961.56 -0.303605 2.31518 0
M  V30 31190 C 2962.55 -0.984728 1.38698 0
M  V30 31191 O 2963.73 -0.980728 1.67617 0
M  V30 31192 C 2960.86 -1.38244 3.186 0
M  V30 31193 C 2959.81 -0.822572 4.20021 0
M  V30 31194 C 2959.14 -2.00015 4.95881 0
M  V30 31195 C 2960.44 0.170277 5.22022 0
M  V30 31196 H 2962.13 0.37508 2.97041 0
M  V30 31197 H 2959.68 0.181828 1.42847 0
M  V30 31198 H 2961.63 -1.93619 3.74286 0
M  V30 31199 H 2960.36 -2.08998 2.50973 0
M  V30 31200 H 2959.02 -0.290749 3.65445 0
M  V30 31201 H 2958.66 -2.69481 4.24722 0
M  V30 31202 H 2958.36 -1.63173 5.64489 0
M  V30 31203 H 2959.89 -2.55869 5.54404 0
M  V30 31204 H 2961.3 -0.294506 5.72543 0
M  V30 31205 H 2959.7 0.453286 5.98386 0
M  V30 31206 H 2960.77 1.09416 4.72394 0
M  V30 31207 N 2962.11 -1.56194 0.210027 0
M  V30 31208 C 2963.08 -2.1853 -0.691193 0
M  V30 31209 C 2964.08 -1.1439 -1.13011 0
M  V30 31210 O 2965.27 -1.3969 -1.04078 0
M  V30 31211 C 2962.4 -2.79937 -1.94546 0
M  V30 31212 H 2963.59 -2.99535 -0.1479 0
M  V30 31213 H 2961.14 -1.5625 -0.0395968 0
M  V30 31214 H 2961.88 -2.02771 -2.5309 0
M  V30 31215 H 2961.66 -3.56187 -1.63931 0
M  V30 31216 H 2963.15 -3.27755 -2.58779 0
M  V30 31217 N 2963.59 0.0634645 -1.57472 0
M  V30 31218 C 2965.01 0.418439 -1.54017 0
M  V30 31219 C 2965.21 1.78681 -0.931407 0
M  V30 31220 O 2964.26 2.46713 -0.537508 0
M  V30 31221 C 2965.58 0.351854 -2.98634 0
M  V30 31222 C 2967.12 0.431439 -3.10012 0
M  V30 31223 C 2967.6 0.394673 -4.56296 0
M  V30 31224 N 2969.09 0.454502 -4.60965 0
M  V30 31225 C 2969.82 0.448401 -5.71644 0
M  V30 31226 N 2969.32 0.39662 -6.91664 0
M  V30 31227 N 2971.11 0.495579 -5.59911 0
M  V30 31228 H 2963.26 -0.832442 -1.95408 0
M  V30 31229 H 2965.53 -0.313212 -0.894764 0
M  V30 31230 H 2965.23 -0.587109 -3.46765 0
M  V30 31231 H 2965.11 1.15887 -3.58957 0
M  V30 31232 H 2967.49 1.36083 -2.6185 0
M  V30 31233 H 2967.58 -0.404303 -2.52585 0
M  V30 31234 H 2967.22 -0.5309 -5.05118 0
M  V30 31235 H 2967.15 1.24806 -5.11597 0
M  V30 31236 H 2969.64 0.49843 -3.74599 0
M  V30 31237 H 2969.95 0.39612 -7.71784 0
M  V30 31238 H 2968.3 0.363182 -6.9405 0
M  V30 31239 H 2971.49 0.533782 -4.65047 0
M  V30 31240 H 2971.66 0.487355 -6.46165 0
M  V30 31241 N 2965.07 1.53998 0.33504 0
M  V30 31242 C 2966 1.7741 1.4353 0
M  V30 31243 C 2966.98 0.623555 1.50168 0
M  V30 31244 O 2968.16 0.859689 1.67755 0
M  V30 31245 C 2965.29 1.88038 2.81708 0
M  V30 31246 C 2964.34 3.1025 2.92656 0
M  V30 31247 S 2965.17 4.69115 2.58246 0
M  V30 31248 C 2966.33 4.82634 3.98517 0
M  V30 31249 H 2966.56 2.70455 1.23456 0
M  V30 31250 H 2964.09 1.44974 0.531209 0
M  V30 31251 H 2966.05 1.94846 3.6131 0
M  V30 31252 H 2964.71 0.959901 2.99073 0
M  V30 31253 H 2963.9 3.14386 3.93926 0
M  V30 31254 H 2963.51 3.01712 2.21012 0
M  V30 31255 H 2965.8 4.64565 4.93138 0
M  V30 31256 H 2966.74 5.8473 3.9937 0
M  V30 31257 H 2967.15 4.11023 3.86937 0
M  V30 31258 N 2966.55 -0.596505 1.45875 0
M  V30 31259 C 2967.79 -1.35719 1.50692 0
M  V30 31260 C 2968.13 -1.936 0.15254 0
M  V30 31261 O 2967.4 -1.75694 -0.83438 0
M  V30 31262 C 2967.68 -2.49686 2.59478 0
M  V30 31263 C 2967.54 -1.96929 4.04399 0
M  V30 31264 C 2968.86 -3.51782 2.64457 0
M  V30 31265 H 2965.97 -0.492124 0.548619 0
M  V30 31266 H 2968.62 -0.671397 1.77742 0
M  V30 31267 H 2966.77 -3.08187 2.36544 0
M  V30 31268 H 2968.44 -1.42992 4.38578 0
M  V30 31269 H 2966.68 -1.27852 4.14532 0
M  V30 31270 H 2967.35 -2.79134 4.76223 0
M  V30 31271 H 2969.83 -3.0314 2.85036 0
M  V30 31272 H 2968.7 -4.29 3.42418 0
M  V30 31273 H 2968.97 -4.0812 1.69972 0
M  V30 31274 N 2968.02 -1.3335 -0.839967 0
M  V30 31275 C 2969.3 -1.15345 -1.57971 0
M  V30 31276 C 2969.68 0.280595 -2.09227 0
M  V30 31277 O 2969.03 1.27947 -1.8932 0
M  V30 31278 C 2969.24 -2.19363 -2.71442 0
M  V30 31279 C 2970.59 -2.53462 -3.4065 0
M  V30 31280 O 2971.61 -2.18022 -2.81682 0
M  V30 31281 O 2970.47 -3.14274 -4.47095 0
M  V30 31282 H 2967.56 -0.446056 -0.696393 0
M  V30 31283 H 2970.11 -1.44929 -0.882817 0
M  V30 31284 H 2968.88 -3.15694 -2.31199 0
M  V30 31285 H 2968.51 -1.90859 -3.48796 0
M  V30 31286 N 2969.5 1.05808 -1.16801 0
M  V30 31287 C 2970.75 1.78086 -0.947012 0
M  V30 31288 C 2971.06 1.88395 0.525983 0
M  V30 31289 O 2972.27 2.57351 0.865016 0
M  V30 31290 C 2970.73 3.20099 -1.64513 0
M  V30 31291 C 2970.33 3.1794 -3.15623 0
M  V30 31292 C 2972.08 3.96877 -1.50629 0
M  V30 31293 C 2969.99 4.54703 -3.78152 0
M  V30 31294 H 2968.92 0.667487 -0.350681 0
M  V30 31295 H 2971.57 1.18642 -1.39987 0
M  V30 31296 H 2969.95 3.79832 -1.12 0
M  V30 31297 H 2971.12 2.67762 -3.7502 0
M  V30 31298 H 2969.44 2.54662 -3.29449 0
M  V30 31299 H 2972.03 4.97983 -1.94722 0
M  V30 31300 H 2972.38 4.13796 -0.455937 0
M  V30 31301 H 2972.91 3.43678 -2.00325 0
M  V30 31302 H 2969.65 4.4299 -4.83157 0
M  V30 31303 H 2969.17 5.05056 -3.23541 0
M  V30 31304 H 2970.85 5.23653 -3.79995 0
M  V30 31305 N 2970.98 0.967265 1.24426 0
M  V30 31306 C 2971.91 0.515939 2.27729 0
M  V30 31307 C 2972.89 -0.444198 1.64198 0
M  V30 31308 O 2974.08 -0.340417 1.91193 0
M  V30 31309 C 2971.21 -0.195088 3.46752 0
M  V30 31310 C 2970.16 0.681027 4.22547 0
M  V30 31311 C 2969.49 -0.161467 5.34456 0
M  V30 31312 C 2970.79 1.96541 4.8391 0
M  V30 31313 H 2972.48 1.37937 2.65732 0
M  V30 31314 H 2970.03 0.664704 1.27741 0
M  V30 31315 H 2971.98 -0.522044 4.18154 0
M  V30 31316 H 2970.7 -1.09287 3.07773 0
M  V30 31317 H 2969.36 0.991248 3.52945 0
M  V30 31318 H 2969.01 -1.05938 4.91717 0
M  V30 31319 H 2968.71 0.421521 5.86086 0
M  V30 31320 H 2970.23 -0.483104 6.08686 0
M  V30 31321 H 2971.65 1.70406 5.47389 0
M  V30 31322 H 2970.05 2.49508 5.45771 0
M  V30 31323 H 2971.12 2.6606 4.05389 0
M  V30 31324 N 2972.46 -1.39288 0.737328 0
M  V30 31325 C 2973.42 -2.28948 0.10735 0
M  V30 31326 C 2974.42 -1.46419 -0.66469 0
M  V30 31327 O 2975.61 -1.67068 -0.493363 0
M  V30 31328 C 2972.74 -3.2995 -0.857087 0
M  V30 31329 H 2973.94 -2.86162 0.897301 0
M  V30 31330 H 2971.49 -1.47975 0.503305 0
M  V30 31331 H 2972.23 -2.77796 -1.67331 0
M  V30 31332 H 2972.01 -3.90903 -0.306098 0
M  V30 31333 H 2973.5 -3.97034 -1.29437 0
M  V30 31334 N 2973.94 -0.485139 -1.49947 0
M  V30 31335 C 2975.18 0.0635369 -2.04301 0
M  V30 31336 C 2975.54 1.35723 -1.35806 0
M  V30 31337 O 2976.74 1.98915 -1.80793 0
M  V30 31338 C 2975.01 0.2289 -3.56666 0
M  V30 31339 S 2976.57 0.734109 -4.32616 0
M  V30 31340 H 2973.39 0.00930645 -0.710939 0
M  V30 31341 H 2975.99 -0.655487 -1.84184 0
M  V30 31342 H 2974.7 -0.718219 -4.04067 0
M  V30 31343 H 2974.23 0.973629 -3.81161 0
M  V30 31344 H 2976.24 2.00557 -4.53862 0
M  V30 31345 N 2975.42 1.56081 -0.218307 0
M  V30 31346 C 2976.83 1.5901 0.13714 0
M  V30 31347 C 2977.03 1.23505 1.59213 0
M  V30 31348 O 2976.09 0.968757 2.33177 0
M  V30 31349 C 2977.4 3.00123 -0.186215 0
M  V30 31350 C 2978.95 3.12737 -0.12819 0
M  V30 31351 C 2979.42 4.56022 -0.425174 0
M  V30 31352 N 2980.91 4.61683 -0.374628 0
M  V30 31353 C 2981.65 5.7048 -0.57796 0
M  V30 31354 N 2981.15 6.87653 -0.842892 0
M  V30 31355 N 2982.94 5.59776 -0.510619 0
M  V30 31356 H 2975.09 1.77435 -1.16749 0
M  V30 31357 H 2977.35 0.824586 -0.46772 0
M  V30 31358 H 2977.06 3.30742 -1.19594 0
M  V30 31359 H 2976.93 3.73867 0.500323 0
M  V30 31360 H 2979.32 2.81917 0.872174 0
M  V30 31361 H 2979.4 2.4133 -0.848155 0
M  V30 31362 H 2979.04 4.87559 -1.42296 0
M  V30 31363 H 2978.97 5.25651 0.315945 0
M  V30 31364 H 2981.47 3.77483 -0.177422 0
M  V30 31365 H 2981.78 7.66481 -0.98623 0
M  V30 31366 H 2980.12 6.89406 -0.88005 0
M  V30 31367 H 2983.31 4.67112 -0.303895 0
M  V30 31368 H 2983.49 6.44501 -0.672491 0
M  V30 31369 N 2976.89 -0.0551124 1.57504 0
M  V30 31370 C 2978.31 -0.410265 1.54237 0
M  V30 31371 C 2978.51 -1.78185 0.94087 0
M  V30 31372 O 2977.57 -2.46424 0.550585 0
M  V30 31373 C 2978.88 -0.336011 2.98817 0
M  V30 31374 C 2980.43 -0.414992 3.10237 0
M  V30 31375 C 2980.9 -0.370469 4.56499 0
M  V30 31376 N 2982.39 -0.430049 4.61199 0
M  V30 31377 C 2983.13 -0.418079 5.71874 0
M  V30 31378 N 2982.62 -0.359934 6.91864 0
M  V30 31379 N 2984.42 -0.465878 5.60166 0
M  V30 31380 H 2976.57 0.842794 1.94963 0
M  V30 31381 H 2978.83 0.317953 0.89309 0
M  V30 31382 H 2978.54 0.60549 3.46449 0
M  V30 31383 H 2978.41 -1.13982 3.59566 0
M  V30 31384 H 2980.8 -1.34692 2.62568 0
M  V30 31385 H 2980.88 0.417692 2.52367 0
M  V30 31386 H 2980.52 0.55768 5.04829 0
M  V30 31387 H 2980.45 -1.22091 5.12251 0
M  V30 31388 H 2982.94 -0.478558 3.74858 0
M  V30 31389 H 2983.26 -0.355185 7.71983 0
M  V30 31390 H 2981.6 -0.32637 6.94233 0
M  V30 31391 H 2984.79 -0.509112 4.65323 0
M  V30 31392 H 2984.97 -0.453081 6.46414 0
M  V30 31393 N 2978.37 -1.54173 -0.326869 0
M  V30 31394 C 2979.62 -1.72475 -1.06678 0
M  V30 31395 C 2979.95 -0.495263 -1.87779 0
M  V30 31396 O 2979.23 0.50777 -1.87755 0
M  V30 31397 C 2979.51 -2.99837 -1.99423 0
M  V30 31398 C 2979.36 -4.3303 -1.21674 0
M  V30 31399 C 2980.68 -3.22939 -2.98996 0
M  V30 31400 H 2977.8 -0.62757 -0.386427 0
M  V30 31401 H 2980.44 -1.86865 -0.343746 0
M  V30 31402 H 2978.59 -2.877 -2.61076 0
M  V30 31403 H 2980.26 -4.57045 -0.625073 0
M  V30 31404 H 2978.51 -4.30685 -0.51897 0
M  V30 31405 H 2979.18 -5.18359 -1.89757 0
M  V30 31406 H 2981.65 -3.34516 -2.47464 0
M  V30 31407 H 2980.53 -4.13418 -3.61077 0
M  V30 31408 H 2980.79 -2.40012 -3.71277 0
M  V30 31409 N 2979.85 0.58876 -1.4619 0
M  V30 31410 C 2980.76 1.72621 -1.58868 0
M  V30 31411 C 2981.78 1.67465 -0.472378 0
M  V30 31412 O 2982.95 1.87483 -0.735671 0
M  V30 31413 C 2980.02 3.09117 -1.56995 0
M  V30 31414 C 2979.08 3.25584 -2.7981 0
M  V30 31415 C 2978.31 4.55568 -2.78017 0
M  V30 31416 O 2978.53 5.39078 -1.86416 0
M  V30 31417 O 2977.47 4.75152 -3.69478 0
M  V30 31418 H 2981.29 1.64873 -2.5505 0
M  V30 31419 H 2978.88 0.755092 -1.28914 0
M  V30 31420 H 2980.76 3.90405 -1.58625 0
M  V30 31421 H 2979.44 3.17316 -0.639704 0
M  V30 31422 H 2978.34 2.43813 -2.83736 0
M  V30 31423 H 2979.68 3.22273 -3.72023 0
M  V30 31424 N 2981.33 1.33794 0.832883 0
M  V30 31425 C 2982.26 1.18886 1.94786 0
M  V30 31426 C 2983.24 0.0828711 1.62389 0
M  V30 31427 O 2984.42 0.246208 1.86885 0
M  V30 31428 C 2981.55 0.824785 3.28504 0
M  V30 31429 C 2980.6 1.93912 3.79869 0
M  V30 31430 S 2981.43 3.55104 4.00826 0
M  V30 31431 C 2982.58 3.20717 5.37486 0
M  V30 31432 H 2982.82 2.13268 2.07133 0
M  V30 31433 H 2980.35 1.18705 0.987341 0
M  V30 31434 H 2982.31 0.621513 4.05768 0
M  V30 31435 H 2980.97 -0.100531 3.13939 0
M  V30 31436 H 2980.16 1.63789 4.76644 0
M  V30 31437 H 2979.76 2.09936 3.0952 0
M  V30 31438 H 2982.06 2.71913 6.2054 0
M  V30 31439 H 2983 4.16594 5.72586 0
M  V30 31440 H 2983.41 2.57157 5.02524 0
M  V30 31441 N 2982.81 -1.05187 1.1736 0
M  V30 31442 C 2983.74 -2.14881 0.913687 0
M  V30 31443 C 2984.72 -1.69487 -0.144335 0
M  V30 31444 O 2985.9 -1.94199 0.00591275 0
M  V30 31445 C 2983.03 -3.44674 0.426257 0
M  V30 31446 C 2981.99 -4.03635 1.42347 0
M  V30 31447 C 2981.31 -5.28772 0.793995 0
M  V30 31448 C 2982.61 -4.41116 2.79667 0
M  V30 31449 H 2984.31 -2.36882 1.83104 0
M  V30 31450 H 2981.85 -1.13843 0.881801 0
M  V30 31451 H 2983.8 -4.20762 0.231841 0
M  V30 31452 H 2982.53 -3.22326 -0.526637 0
M  V30 31453 H 2981.19 -3.29617 1.60463 0
M  V30 31454 H 2980.84 -5.02727 -0.165735 0
M  V30 31455 H 2980.54 -5.69181 1.45969 0
M  V30 31456 H 2982.06 -6.07547 0.609854 0
M  V30 31457 H 2983.47 -5.08237 2.65269 0
M  V30 31458 H 2981.87 -4.92542 3.42815 0
M  V30 31459 H 2982.94 -3.51458 3.34074 0
M  V30 31460 N 2984.28 -0.97385 -1.23911 0
M  V30 31461 C 2985.21 -0.528009 -2.27452 0
M  V30 31462 C 2986.19 0.435484 -1.64431 0
M  V30 31463 O 2987.38 0.330273 -1.91371 0
M  V30 31464 C 2984.51 0.176696 -3.4685 0
M  V30 31465 C 2983.46 -0.703426 -4.2218 0
M  V30 31466 C 2982.79 0.133121 -5.34534 0
M  V30 31467 C 2984.09 -1.99104 -4.82861 0
M  V30 31468 H 2985.78 -1.39345 -2.64997 0
M  V30 31469 H 2983.33 -0.671469 -1.27386 0
M  V30 31470 H 2985.28 0.499861 -4.18425 0
M  V30 31471 H 2984.01 1.07653 -3.08348 0
M  V30 31472 H 2982.67 -1.00995 -3.52414 0
M  V30 31473 H 2982.31 1.03329 -4.92272 0
M  V30 31474 H 2982.01 -0.452597 -5.85854 0
M  V30 31475 H 2983.54 0.450817 -6.08933 0
M  V30 31476 H 2984.95 -1.73307 -5.46478 0
M  V30 31477 H 2983.35 -2.52399 -5.4444 0
M  V30 31478 H 2984.42 -2.68206 -4.03972 0
M  V30 31479 N 2985.76 1.38895 -0.744705 0
M  V30 31480 C 2986.72 2.28888 -0.11949 0
M  V30 31481 C 2987.72 1.46769 0.656916 0
M  V30 31482 O 2988.91 1.67327 0.484496 0
M  V30 31483 C 2986.05 3.304 0.839577 0
M  V30 31484 H 2987.24 2.85682 -0.912464 0
M  V30 31485 H 2984.79 1.47706 -0.511145 0
M  V30 31486 H 2985.53 2.7868 1.65855 0
M  V30 31487 H 2985.31 3.9106 0.285364 0
M  V30 31488 H 2986.8 3.97715 1.2733 0
M  V30 31489 N 2987.24 0.493084 1.49688 0
M  V30 31490 C 2988.2 -0.278445 2.27502 0
M  V30 31491 C 2989.2 -0.901014 1.33186 0
M  V30 31492 O 2990.39 -0.766774 1.56417 0
M  V30 31493 C 2987.53 -1.39872 3.10883 0
M  V30 31494 H 2988.72 0.404271 2.97163 0
M  V30 31495 H 2986.27 0.247801 1.54323 0
M  V30 31496 H 2987.01 -2.11583 2.4577 0
M  V30 31497 H 2986.79 -0.957857 3.8022 0
M  V30 31498 H 2988.28 -1.9424 3.69676 0
M  V30 31499 N 2988.72 -1.55963 0.226582 0
M  V30 31500 C 2989.67 -2.21884 -0.697883 0
M  V30 31501 C 2990.66 -1.19984 -1.19584 0
M  V30 31502 O 2991.87 -1.3805 -1.15508 0
M  V30 31503 H 2988.24 -0.71149 -0.243488 0
M  V30 31504 H 2990.21 -2.98165 -0.118523 0
M  V30 31505 C 2988.96 -2.91649 -1.89304 0
M  V30 31506 H 2988.28 -3.6982 -1.51899 0
M  V30 31507 H 2989.72 -3.41167 -2.51756 0
M  V30 31508 C 2988.18 -1.94396 -2.75158 0
M  V30 31509 O 2988.71 -1.46409 -3.74069 0
M  V30 31510 N 2986.92 -1.61936 -2.41299 0
M  V30 31511 H 2986.47 -2.01154 -1.60919 0
M  V30 31512 H 2986.42 -0.971271 -2.99021 0
M  V30 31513 N 2990.2 0.0467589 -1.57531 0
M  V30 31514 C 2991.13 1.05264 -2.08427 0
M  V30 31515 C 2992.11 1.38823 -0.982966 0
M  V30 31516 O 2993.29 1.48015 -1.25718 0
M  V30 31517 C 2990.42 2.35887 -2.54902 0
M  V30 31518 C 2989.38 2.16617 -3.69136 0
M  V30 31519 C 2988.7 3.52844 -4.01753 0
M  V30 31520 C 2990 1.56681 -4.98245 0
M  V30 31521 H 2991.7 0.629029 -2.92718 0
M  V30 31522 H 2989.24 0.301131 -1.40816 0
M  V30 31523 H 2991.2 3.06569 -2.89125 0
M  V30 31524 H 2989.92 2.80275 -1.67671 0
M  V30 31525 H 2988.58 1.48371 -3.35234 0
M  V30 31526 H 2988.23 3.94848 -3.11615 0
M  V30 31527 H 2987.93 3.40782 -4.78687 0
M  V30 31528 H 2989.45 4.24917 -4.38495 0
M  V30 31529 H 2990.86 2.17259 -5.30539 0
M  V30 31530 H 2989.26 1.55244 -5.79672 0
M  V30 31531 H 2990.33 0.530742 -4.81987 0
M  V30 31532 N 2991.67 1.54344 0.318688 0
M  V30 31533 C 2992.61 1.80415 1.41361 0
M  V30 31534 C 2993.62 0.68632 1.47626 0
M  V30 31535 O 2994.81 0.963512 1.50262 0
M  V30 31536 C 2991.91 1.91128 2.79863 0
M  V30 31537 C 2991.08 3.21344 2.96743 0
M  V30 31538 C 2990.14 3.22696 4.15636 0
M  V30 31539 O 2989.17 3.96313 4.08564 0
M  V30 31540 N 2990.37 2.46827 5.25411 0
M  V30 31541 H 2993.13 2.74907 1.19358 0
M  V30 31542 H 2990.69 1.53701 0.508695 0
M  V30 31543 H 2992.69 1.89454 3.57616 0
M  V30 31544 H 2991.26 1.03711 2.94894 0
M  V30 31545 H 2990.48 3.35938 2.06251 0
M  V30 31546 H 2991.76 4.0731 3.0492 0
M  V30 31547 H 2991.16 1.86614 5.34033 0
M  V30 31548 H 2989.72 2.50926 6.01564 0
M  V30 31549 N 2993.15 -0.580999 1.465 0
M  V30 31550 C 2994.38 -1.37 1.55711 0
M  V30 31551 C 2994.8 -1.8704 0.199453 0
M  V30 31552 O 2994.16 -1.61661 -0.820702 0
M  V30 31553 C 2994.21 -2.53233 2.5672 0
M  V30 31554 O 2993.31 -3.54725 2.10342 0
M  V30 31555 H 2992.65 -0.407928 0.523919 0
M  V30 31556 H 2995.18 -0.704568 1.92086 0
M  V30 31557 H 2995.19 -3.00127 2.76383 0
M  V30 31558 H 2993.87 -2.16165 3.5531 0
M  V30 31559 H 2992.45 -3.14299 2.00674 0
M  V30 31560 N 2994.63 -1.34234 -0.825776 0
M  V30 31561 C 2995.86 -1.29651 -1.61881 0
M  V30 31562 C 2996.28 0.127262 -1.87669 0
M  V30 31563 O 2995.64 1.0881 -1.45017 0
M  V30 31564 C 2995.69 -2.0902 -2.93842 0
M  V30 31565 O 2994.79 -1.45776 -3.85776 0
M  V30 31566 H 2994.13 -0.445413 -0.492446 0
M  V30 31567 H 2996.66 -1.76993 -1.02638 0
M  V30 31568 H 2996.67 -2.2027 -3.43431 0
M  V30 31569 H 2995.35 -3.12538 -2.74396 0
M  V30 31570 H 2993.92 -1.43251 -3.44287 0
M  V30 31571 N 2996.11 1.04563 -1.17917 0
M  V30 31572 C 2997.04 2.11976 -0.845058 0
M  V30 31573 C 2998.02 1.61476 0.190861 0
M  V30 31574 O 2999.2 1.88366 0.0709574 0
M  V30 31575 C 2996.33 3.37687 -0.261716 0
M  V30 31576 C 2995.38 4.07027 -1.27403 0
M  V30 31577 S 2996.21 4.54741 -2.82791 0
M  V30 31578 C 2997.37 5.83691 -2.25955 0
M  V30 31579 H 2997.6 2.3999 -1.75476 0
M  V30 31580 H 2995.13 1.17257 -1.0045 0
M  V30 31581 H 2997.09 4.10443 0.0683535 0
M  V30 31582 H 2995.75 3.07798 0.626028 0
M  V30 31583 H 2994.94 4.97373 -0.814644 0
M  V30 31584 H 2994.55 3.40365 -1.55008 0
M  V30 31585 H 2996.84 6.57375 -1.63903 0
M  V30 31586 H 2997.78 6.34385 -3.1458 0
M  V30 31587 H 2998.19 5.38557 -1.69164 0
M  V30 31588 N 2997.59 0.980408 1.23393 0
M  V30 31589 C 2998.55 0.525658 2.23091 0
M  V30 31590 C 2999.55 -0.384718 1.5613 0
M  V30 31591 O 3000.74 -0.178408 1.73284 0
M  V30 31592 C 2997.87 -0.23706 3.40075 0
M  V30 31593 H 2999.06 1.40718 2.64837 0
M  V30 31594 H 2996.62 0.766298 1.36226 0
M  V30 31595 H 2997.35 -1.13512 3.03785 0
M  V30 31596 H 2997.14 0.416424 3.89882 0
M  V30 31597 H 2998.63 -0.543819 4.14044 0
M  V30 31598 N 2999.06 -1.38498 0.75206 0
M  V30 31599 C 3000 -2.29048 0.0835492 0
M  V30 31600 C 3001.01 -1.4767 -0.685376 0
M  V30 31601 O 3002.2 -1.70552 -0.526718 0
M  V30 31602 C 2999.3 -3.26573 -0.905715 0
M  V30 31603 C 2998.47 -4.36966 -0.194751 0
M  V30 31604 C 2997.53 -5.1469 -1.09455 0
M  V30 31605 O 2996.56 -5.66382 -0.565643 0
M  V30 31606 N 2997.76 -5.27524 -2.42278 0
M  V30 31607 H 3000.52 -2.8706 0.861193 0
M  V30 31608 H 2998.08 -1.50263 0.602716 0
M  V30 31609 H 3000.08 -3.75448 -1.51065 0
M  V30 31610 H 2998.65 -2.6947 -1.58445 0
M  V30 31611 H 2997.87 -3.89746 0.59088 0
M  V30 31612 H 2999.15 -5.07931 0.297278 0
M  V30 31613 H 2998.55 -4.87075 -2.87706 0
M  V30 31614 H 2997.11 -5.79778 -2.97826 0
M  V30 31615 N 3000.54 -0.501015 -1.49424 0
M  V30 31616 C 3001.47 0.266734 -2.31972 0
M  V30 31617 C 3002.45 0.962538 -1.40247 0
M  V30 31618 O 3003.64 0.953938 -1.69156 0
M  V30 31619 C 3000.77 1.33157 -3.20759 0
M  V30 31620 C 2999.72 0.755646 -4.21277 0
M  V30 31621 C 2999.05 1.921 -4.99001 0
M  V30 31622 C 3000.35 -0.253304 -5.21685 0
M  V30 31623 H 3002.04 -0.422289 -2.96407 0
M  V30 31624 H 2999.59 -0.20453 -1.4254 0
M  V30 31625 H 3001.54 1.8764 -3.77319 0
M  V30 31626 H 3000.27 2.04978 -2.54266 0
M  V30 31627 H 2998.92 0.232573 -3.65862 0
M  V30 31628 H 2998.57 2.6269 -4.28956 0
M  V30 31629 H 2998.27 1.54172 -5.67014 0
M  V30 31630 H 2999.8 2.47016 -5.58404 0
M  V30 31631 H 3001.21 0.203382 -5.72939 0
M  V30 31632 H 2999.61 -0.548427 -5.97589 0
M  V30 31633 H 3000.68 -1.16918 -4.70594 0
M  V30 31634 N 3002.02 1.5584 -0.234849 0
M  V30 31635 C 3003.43 1.84729 0.270556 0
M  V30 31636 C 3003.78 1.15649 1.58492 0
M  V30 31637 O 3002.91 0.430704 2.12071 0
M  V30 31638 C 3003.5 3.35125 0.497674 0
M  V30 31639 C 3002.06 3.64283 0.947364 0
M  V30 31640 C 3001.21 2.77294 0.0178213 0
M  V30 31641 H 3004.16 1.51956 -0.457718 0
M  V30 31642 H 3004.18 3.56052 1.34192 0
M  V30 31643 H 3003.69 3.85375 -0.459105 0
M  V30 31644 H 3001.79 3.195 1.91703 0
M  V30 31645 H 3001.91 4.72159 0.812568 0
M  V30 31646 H 3000.27 2.49188 0.527028 0
M  V30 31647 H 3001.05 3.30347 -0.934114 0
M  V30 31648 N 3003.5 -0.038404 1.57553 0
M  V30 31649 C 3004.43 -1.07471 2.01309 0
M  V30 31650 C 3005.41 -1.35703 0.895741 0
M  V30 31651 O 3006.59 -1.48517 1.16082 0
M  V30 31652 C 3003.72 -2.41161 2.37821 0
M  V30 31653 C 3002.77 -2.28848 3.59904 0
M  V30 31654 S 3003.6 -1.65077 5.09421 0
M  V30 31655 C 3004.76 -3.00276 5.49168 0
M  V30 31656 H 3004.99 -0.701983 2.88894 0
M  V30 31657 H 3002.52 -0.248076 1.52394 0
M  V30 31658 H 3004.48 -3.18048 2.5953 0
M  V30 31659 H 3003.14 -2.75585 1.50705 0
M  V30 31660 H 3002.33 -3.27518 3.83077 0
M  V30 31661 H 3001.94 -1.60103 3.37999 0
M  V30 31662 H 3004.23 -3.96607 5.49281 0
M  V30 31663 H 3005.17 -2.81846 6.49591 0
M  V30 31664 H 3005.58 -3.02419 4.76658 0
M  V30 31665 N 3004.98 -1.54511 -0.310498 0
M  V30 31666 C 3005.89 -1.87847 -1.40537 0
M  V30 31667 C 3006.9 -0.771662 -1.55953 0
M  V30 31668 O 3008.08 -1.06722 -1.70799 0
M  V30 31669 C 3005.14 -2.11053 -2.75059 0
M  V30 31670 C 3004.21 -3.34805 -2.68709 0
M  V30 31671 C 3003.44 -3.56894 -3.96815 0
M  V30 31672 O 3003.66 -2.82173 -4.95716 0
M  V30 31673 O 3002.6 -4.50396 -3.99283 0
M  V30 31674 H 3006.42 -2.80974 -1.15271 0
M  V30 31675 H 3004.01 -1.40581 -0.505707 0
M  V30 31676 H 3005.89 -2.27572 -3.54667 0
M  V30 31677 H 3004.56 -1.21113 -3.00189 0
M  V30 31678 H 3003.47 -3.23659 -1.87605 0
M  V30 31679 H 3004.8 -4.24844 -2.48532 0
M  V30 31680 N 3006.46 0.573222 -1.46806 0
M  V30 31681 C 3007.37 1.70927 -1.6069 0
M  V30 31682 C 3008.38 1.66955 -0.490113 0
M  V30 31683 O 3009.56 1.86692 -0.755515 0
M  V30 31684 C 3006.62 3.07435 -1.60264 0
M  V30 31685 C 3005.68 3.22598 -2.83248 0
M  V30 31686 C 3004.92 4.52594 -2.82833 0
M  V30 31687 O 3005.14 5.37071 -1.92123 0
M  V30 31688 O 3004.07 4.71207 -3.74497 0
M  V30 31689 H 3007.9 1.62159 -2.56784 0
M  V30 31690 H 3005.48 0.741376 -1.29707 0
M  V30 31691 H 3007.37 3.88701 -1.62756 0
M  V30 31692 H 3006.04 3.1662 -0.673324 0
M  V30 31693 H 3004.95 2.40789 -2.86306 0
M  V30 31694 H 3006.28 3.18309 -3.7542 0
M  V30 31695 N 3007.93 1.3467 0.818645 0
M  V30 31696 C 3008.86 1.29249 1.94466 0
M  V30 31697 C 3009.84 0.169131 1.69257 0
M  V30 31698 O 3011.03 0.362176 1.90793 0
M  V30 31699 C 3008.16 1.05151 3.30999 0
M  V30 31700 C 3007.11 2.13999 3.7066 0
M  V30 31701 C 3006.44 1.75083 5.05223 0
M  V30 31702 C 3007.74 3.55865 3.82305 0
M  V30 31703 H 3009.43 2.23464 1.99259 0
M  V30 31704 H 3006.98 1.07573 0.957286 0
M  V30 31705 H 3008.93 1.00002 4.09362 0
M  V30 31706 H 3007.66 0.0737886 3.26517 0
M  V30 31707 H 3006.32 2.18224 2.94574 0
M  V30 31708 H 3005.96 0.759605 4.97231 0
M  V30 31709 H 3005.66 2.47938 5.32729 0
M  V30 31710 H 3007.19 1.71437 5.86039 0
M  V30 31711 H 3008.6 3.54028 4.50929 0
M  V30 31712 H 3007 4.27378 4.2127 0
M  V30 31713 H 3008.07 3.92895 2.84186 0
M  V30 31714 N 3009.41 -1.03936 1.1847 0
M  V30 31715 C 3010.36 -2.14089 0.909323 0
M  V30 31716 C 3011.35 -1.68894 -0.130898 0
M  V30 31717 O 3012.56 -1.79992 0.0173719 0
M  V30 31718 H 3008.93 -0.699286 0.276592 0
M  V30 31719 H 3010.91 -2.34512 1.84518 0
M  V30 31720 C 3009.65 -3.44737 0.452983 0
M  V30 31721 H 3008.98 -3.79923 1.24492 0
M  V30 31722 H 3010.42 -4.22942 0.299312 0
M  V30 31723 C 3008.88 -3.26481 -0.831378 0
M  V30 31724 O 3009.41 -3.54178 -1.89528 0
M  V30 31725 N 3007.61 -2.79811 -0.784496 0
M  V30 31726 H 3007.16 -2.57471 0.0815199 0
M  V30 31727 H 3007.12 -2.67976 -1.64426 0
M  V30 31728 N 3010.89 -0.986938 -1.22871 0
M  V30 31729 C 3012.31 -0.696658 -1.43593 0
M  V30 31730 C 3012.51 0.734836 -1.87623 0
M  V30 31731 O 3011.56 1.50649 -2.02636 0
M  V30 31732 C 3012.87 -1.69715 -2.48228 0
M  V30 31733 C 3014.42 -1.71193 -2.62034 0
M  V30 31734 C 3014.9 -2.7009 -3.69886 0
M  V30 31735 N 3016.39 -2.68648 -3.77336 0
M  V30 31736 C 3017.12 -3.41837 -4.60364 0
M  V30 31737 N 3016.62 -4.24607 -5.47431 0
M  V30 31738 N 3018.41 -3.30571 -4.5462 0
M  V30 31739 H 3010.56 -1.91154 -0.925949 0
M  V30 31740 H 3012.83 -0.82406 -0.468645 0
M  V30 31741 H 3012.53 -2.72121 -2.22808 0
M  V30 31742 H 3012.41 -1.48522 -3.46729 0
M  V30 31743 H 3014.79 -0.694887 -2.86802 0
M  V30 31744 H 3014.87 -1.96454 -1.63828 0
M  V30 31745 H 3014.52 -3.7194 -3.45866 0
M  V30 31746 H 3014.45 -2.42101 -4.67648 0
M  V30 31747 H 3016.94 -2.08584 -3.15121 0
M  V30 31748 H 3017.25 -4.77293 -6.07792 0
M  V30 31749 H 3015.6 -4.28696 -5.47033 0
M  V30 31750 H 3018.79 -2.65354 -3.85623 0
M  V30 31751 H 3018.96 -3.8787 -5.19097 0
M  V30 31752 N 3012.37 1.38098 -0.759394 0
M  V30 31753 C 3013.62 1.99227 -0.314899 0
M  V30 31754 C 3013.93 1.60966 1.11127 0
M  V30 31755 O 3015.14 2.15108 1.65653 0
M  V30 31756 C 3013.59 3.56239 -0.512064 0
M  V30 31757 C 3013.2 4.03446 -1.94769 0
M  V30 31758 C 3014.94 4.24299 -0.130572 0
M  V30 31759 C 3012.85 5.53121 -2.09311 0
M  V30 31760 H 3011.78 0.745333 -0.113991 0
M  V30 31761 H 3014.43 1.57788 -0.936764 0
M  V30 31762 H 3012.81 3.95595 0.179074 0
M  V30 31763 H 3013.99 3.75366 -2.67277 0
M  V30 31764 H 3012.3 3.48129 -2.28463 0
M  V30 31765 H 3014.9 5.34256 -0.217904 0
M  V30 31766 H 3015.24 4.06062 0.917572 0
M  V30 31767 H 3015.78 3.90202 -0.773784 0
M  V30 31768 H 3012.51 5.76269 -3.124 0
M  V30 31769 H 3012.03 5.82926 -1.41271 0
M  V30 31770 H 3013.71 6.18907 -1.88581 0
M  V30 31771 N 3013.85 0.508932 1.49156 0
M  V30 31772 C 3014.78 -0.302075 2.27201 0
M  V30 31773 C 3015.79 -0.923506 1.34072 0
M  V30 31774 O 3016.98 -0.805504 1.59292 0
M  V30 31775 C 3014.08 -1.44099 3.06739 0
M  V30 31776 C 3013.25 -0.925402 4.27499 0
M  V30 31777 C 3012.31 -1.94289 4.89018 0
M  V30 31778 O 3011.34 -1.50825 5.48854 0
M  V30 31779 N 3012.54 -3.27382 4.79376 0
M  V30 31780 H 3015.3 0.367167 2.97442 0
M  V30 31781 H 3012.87 0.341961 1.58247 0
M  V30 31782 H 3014.86 -2.11938 3.44767 0
M  V30 31783 H 3013.43 -2.01425 2.39053 0
M  V30 31784 H 3012.65 -0.0716609 3.94135 0
M  V30 31785 H 3013.94 -0.559461 5.05715 0
M  V30 31786 H 3013.33 -3.65376 4.31876 0
M  V30 31787 H 3011.89 -3.90912 5.21566 0
M  V30 31788 N 3015.32 -1.55714 0.243111 0
M  V30 31789 C 3016.23 -2.24863 -0.668873 0
M  V30 31790 C 3017.25 -1.26346 -1.19635 0
M  V30 31791 O 3018.43 -1.59213 -1.23342 0
M  V30 31792 C 3015.49 -2.93167 -1.85079 0
M  V30 31793 C 3014.55 -4.07083 -1.36316 0
M  V30 31794 C 3013.78 -4.7212 -2.48874 0
M  V30 31795 O 3014.01 -4.36221 -3.67516 0
M  V30 31796 O 3012.94 -5.60704 -2.18847 0
M  V30 31797 H 3016.77 -3.03502 -0.109683 0
M  V30 31798 H 3014.35 -1.49395 0.0117674 0
M  V30 31799 H 3016.23 -3.36202 -2.5406 0
M  V30 31800 H 3014.91 -2.1747 -2.39767 0
M  V30 31801 H 3013.82 -3.68572 -0.640739 0
M  V30 31802 H 3015.15 -4.84586 -0.862405 0
M  V30 31803 N 3016.8 0.030048 -1.57571 0
M  V30 31804 C 3018.03 0.731794 -1.93205 0
M  V30 31805 C 3018.44 1.69472 -0.841186 0
M  V30 31806 O 3017.78 1.82702 0.191199 0
M  V30 31807 C 3017.85 1.54447 -3.24633 0
M  V30 31808 C 3017.51 0.746428 -4.50863 0
M  V30 31809 C 3018.51 0.0471395 -5.19879 0
M  V30 31810 C 3016.19 0.701259 -4.97381 0
M  V30 31811 C 3018.19 -0.686629 -6.33691 0
M  V30 31812 C 3015.87 -0.0362554 -6.11089 0
M  V30 31813 C 3016.87 -0.72896 -6.79099 0
M  V30 31814 O 3016.56 -1.4545 -7.90632 0
M  V30 31815 H 3016.29 0.210764 -0.642304 0
M  V30 31816 H 3018.84 -0.00807804 -2.05398 0
M  V30 31817 H 3017.07 2.32813 -3.08764 0
M  V30 31818 H 3018.76 2.12874 -3.456 0
M  V30 31819 H 3019.53 0.0730729 -4.84945 0
M  V30 31820 H 3015.41 1.22993 -4.4429 0
M  V30 31821 H 3018.95 -1.22785 -6.86709 0
M  V30 31822 H 3014.85 -0.0641155 -6.45468 0
M  V30 31823 H 3015.62 -1.36808 -8.06986 0
M  V30 31824 N 3018.28 1.54674 0.3023 0
M  V30 31825 C 3019.21 1.88535 1.37756 0
M  V30 31826 C 3020.19 0.74414 1.52959 0
M  V30 31827 O 3021.38 0.99976 1.66489 0
M  V30 31828 C 3018.51 2.13151 2.74197 0
M  V30 31829 C 3017.46 3.28998 2.7376 0
M  V30 31830 C 3016.79 3.39029 4.13477 0
M  V30 31831 C 3018.09 4.66136 2.35616 0
M  V30 31832 H 3019.78 2.78593 1.09665 0
M  V30 31833 H 3017.33 1.34045 0.526107 0
M  V30 31834 H 3019.28 2.35425 3.49504 0
M  V30 31835 H 3018 1.19863 3.0381 0
M  V30 31836 H 3016.66 3.06645 2.00909 0
M  V30 31837 H 3016.31 2.43261 4.40265 0
M  V30 31838 H 3016.01 4.16901 4.14086 0
M  V30 31839 H 3017.53 3.63562 4.90566 0
M  V30 31840 H 3018.95 4.88149 3.00639 0
M  V30 31841 H 3017.35 5.46712 2.4744 0
M  V30 31842 H 3018.42 4.66941 1.30745 0
M  V30 31843 N 3019.76 -0.565428 1.47108 0
M  V30 31844 C 3020.69 -1.68817 1.55027 0
M  V30 31845 C 3021.7 -1.56822 0.437128 0
M  V30 31846 O 3022.89 -1.6393 0.706344 0
M  V30 31847 C 3019.99 -3.07218 1.43075 0
M  V30 31848 C 3019.17 -3.45048 2.68813 0
M  V30 31849 C 3018.22 -4.62578 2.50814 0
M  V30 31850 O 3017.25 -4.67571 3.24601 0
M  V30 31851 N 3018.45 -5.58555 1.58103 0
M  V30 31852 H 3021.22 -1.62472 2.51839 0
M  V30 31853 H 3018.78 -0.75186 1.43383 0
M  V30 31854 H 3020.77 -3.83664 1.2878 0
M  V30 31855 H 3019.34 -3.07834 0.543775 0
M  V30 31856 H 3018.56 -2.58133 2.97928 0
M  V30 31857 H 3019.85 -3.67095 3.52305 0
M  V30 31858 H 3019.25 -5.57271 0.972905 0
M  V30 31859 H 3017.8 -6.34361 1.49764 0
M  V30 31860 N 3021.24 -1.35102 -0.811492 0
M  V30 31861 C 3022.46 -1.31361 -1.60497 0
M  V30 31862 C 3022.89 0.10735 -1.87793 0
M  V30 31863 O 3022.24 1.07266 -1.46163 0
M  V30 31864 C 3022.29 -2.12124 -2.91609 0
M  V30 31865 O 3021.4 -1.4986 -3.84208 0
M  V30 31866 H 3020.74 -0.450611 -0.487694 0
M  V30 31867 H 3023.27 -1.78072 -1.00754 0
M  V30 31868 H 3023.28 -2.239 -3.41076 0
M  V30 31869 H 3021.95 -3.1543 -2.71066 0
M  V30 31870 H 3020.53 -1.46895 -3.42748 0
M  V30 31871 N 3022.71 1.03306 -1.19019 0
M  V30 31872 C 3023.94 1.80809 -1.01602 0
M  V30 31873 C 3024.36 1.83102 0.43074 0
M  V30 31874 O 3023.72 1.25393 1.30943 0
M  V30 31875 C 3023.77 3.2392 -1.58455 0
M  V30 31876 O 3022.87 4.04346 -0.811043 0
M  V30 31877 H 3022.22 0.558321 -0.359408 0
M  V30 31878 H 3024.75 1.30053 -1.57948 0
M  V30 31879 H 3024.76 3.74679 -1.61492 0
M  V30 31880 H 3023.43 3.21566 -2.63758 0
M  V30 31881 H 3022.01 3.62999 -0.853593 0
M  V30 31882 N 3024.19 0.99344 1.22346 0
M  V30 31883 C 3025.44 0.668279 1.90731 0
M  V30 31884 C 3025.76 -0.802229 1.77734 0
M  V30 31885 O 3025.03 -1.57503 1.16488 0
M  V30 31886 H 3023.61 0.244187 0.705962 0
M  V30 31887 H 3026.27 1.26006 1.48689 0
M  V30 31888 H 3025.37 0.931291 2.97881 0
M  V30 31889 N 3025.67 -1.37693 0.766707 0
M  V30 31890 C 3026.6 -2.32927 0.163473 0
M  V30 31891 C 3027.58 -1.55528 -0.688834 0
M  V30 31892 O 3028.77 -1.83788 -0.627331 0
M  V30 31893 C 3025.9 -3.39747 -0.720356 0
M  V30 31894 C 3024.85 -4.27989 0.0302471 0
M  V30 31895 C 3024.18 -5.25778 -0.972696 0
M  V30 31896 C 3025.48 -5.08178 1.20632 0
M  V30 31897 H 3027.17 -2.83624 0.959038 0
M  V30 31898 H 3024.72 -1.36366 0.462625 0
M  V30 31899 H 3026.67 -4.05344 -1.15214 0
M  V30 31900 H 3025.39 -2.87563 -1.54839 0
M  V30 31901 H 3024.05 -3.63917 0.442749 0
M  V30 31902 H 3023.7 -4.69876 -1.79514 0
M  V30 31903 H 3023.4 -5.85677 -0.475043 0
M  V30 31904 H 3024.92 -5.94251 -1.40352 0
M  V30 31905 H 3026.34 -5.66942 0.85144 0
M  V30 31906 H 3024.74 -5.77377 1.63572 0
M  V30 31907 H 3025.81 -4.41147 2.01288 0
M  V30 31908 N 3027.15 -0.516835 -1.48884 0
M  V30 31909 C 3028.11 0.242216 -2.27917 0
M  V30 31910 C 3029.11 0.879711 -1.34602 0
M  V30 31911 O 3030.3 0.741792 -1.57617 0
M  V30 31912 C 3027.43 1.34909 -3.13069 0
M  V30 31913 H 3028.63 -0.451496 -2.96482 0
M  V30 31914 H 3026.18 -0.272321 -1.53909 0
M  V30 31915 H 3026.91 2.07646 -2.49105 0
M  V30 31916 H 3026.7 0.897246 -3.81696 0
M  V30 31917 H 3028.19 1.88334 -3.7272 0
M  V30 31918 N 3028.63 1.55583 -0.251365 0
M  V30 31919 C 3029.56 2.18907 0.679128 0
M  V30 31920 C 3030.57 1.16669 1.13543 0
M  V30 31921 O 3031.76 1.43512 1.06144 0
M  V30 31922 C 3028.86 2.78201 1.93539 0
M  V30 31923 C 3028.03 4.05902 1.6298 0
M  V30 31924 C 3027.09 4.49471 2.7361 0
M  V30 31925 O 3026.12 5.15753 2.40806 0
M  V30 31926 N 3027.32 4.17627 4.03197 0
M  V30 31927 H 3030.09 2.99385 0.137275 0
M  V30 31928 H 3027.65 1.61742 -0.0715038 0
M  V30 31929 H 3029.64 3.04304 2.66798 0
M  V30 31930 H 3028.21 2.01855 2.38691 0
M  V30 31931 H 3027.43 3.87341 0.732169 0
M  V30 31932 H 3028.72 4.89151 1.40033 0
M  V30 31933 H 3028.11 3.64424 4.3268 0
M  V30 31934 H 3026.67 4.48555 4.72908 0
M  V30 31935 N 3030.1 -0.0216912 1.57585 0
M  V30 31936 C 3031.52 -0.377457 1.55072 0
M  V30 31937 C 3031.72 -1.76149 0.978454 0
M  V30 31938 O 3030.78 -2.45201 0.602731 0
M  V30 31939 C 3032.09 -0.272552 2.99462 0
M  V30 31940 C 3033.64 -0.349093 3.11047 0
M  V30 31941 C 3034.11 -0.273556 4.57182 0
M  V30 31942 N 3035.6 -0.332125 4.62008 0
M  V30 31943 C 3036.34 -0.296682 5.72632 0
M  V30 31944 N 3035.83 -0.213099 6.92472 0
M  V30 31945 N 3037.63 -0.346954 5.61028 0
M  V30 31946 H 3029.78 0.883959 1.93132 0
M  V30 31947 H 3032.04 0.336825 0.886145 0
M  V30 31948 H 3031.75 0.678841 3.45086 0
M  V30 31949 H 3031.62 -1.06329 3.61903 0
M  V30 31950 H 3034.01 -1.29092 2.65366 0
M  V30 31951 H 3034.09 0.471129 2.51424 0
M  V30 31952 H 3033.73 0.664637 5.03533 0
M  V30 31953 H 3033.66 -1.11198 5.14726 0
M  V30 31954 H 3036.15 -0.398937 3.75788 0
M  V30 31955 H 3036.47 -0.191356 7.72563 0
M  V30 31956 H 3034.81 -0.179039 6.94769 0
M  V30 31957 H 3038 -0.410296 4.66298 0
M  V30 31958 H 3038.18 -0.315865 6.4723 0
M  V30 31959 N 3031.58 -1.54832 -0.294093 0
M  V30 31960 C 3032.53 -1.82645 -1.36473 0
M  V30 31961 C 3033.52 -0.68401 -1.45637 0
M  V30 31962 O 3034.71 -0.944827 -1.49673 0
M  V30 31963 C 3031.84 -2.08331 -2.72861 0
M  V30 31964 C 3030.92 -3.28778 -2.67892 0
M  V30 31965 N 3031.32 -4.49176 -2.32539 0
M  V30 31966 C 3029.61 -3.30944 -2.98985 0
M  V30 31967 C 3030.31 -5.31213 -2.37039 0
M  V30 31968 N 3029.29 -4.69102 -2.74671 0
M  V30 31969 H 3033.09 -2.73292 -1.08114 0
M  V30 31970 H 3030.61 -1.54424 -0.50269 0
M  V30 31971 H 3032.6 -2.26406 -3.50066 0
M  V30 31972 H 3031.26 -1.18956 -3.02125 0
M  V30 31973 H 3032.27 -4.75654 -2.04875 0
M  V30 31974 H 3028.95 -2.51697 -3.33099 0
M  V30 31975 H 3030.34 -6.37429 -2.12446 0
M  V30 31976 N 3033.06 0.557619 -1.47405 0
M  V30 31977 C 3033.99 1.67993 -1.5592 0
M  V30 31978 C 3035.01 1.56588 -0.445438 0
M  V30 31979 O 3036.2 1.63553 -0.715028 0
M  V30 31980 C 3033.3 3.06455 -1.44702 0
M  V30 31981 C 3032.47 3.43618 -2.70639 0
M  V30 31982 C 3031.53 4.61242 -2.53264 0
M  V30 31983 O 3030.55 4.65843 -3.27076 0
M  V30 31984 N 3031.76 5.57709 -1.61063 0
M  V30 31985 H 3034.52 1.61135 -2.52697 0
M  V30 31986 H 3032.08 0.744245 -1.4378 0
M  V30 31987 H 3034.07 3.82975 -1.30813 0
M  V30 31988 H 3032.64 3.07541 -0.560093 0
M  V30 31989 H 3031.86 2.56549 -2.99293 0
M  V30 31990 H 3033.15 3.65222 -3.54247 0
M  V30 31991 H 3032.55 5.56747 -1.00244 0
M  V30 31992 H 3031.11 6.33558 -1.53126 0
M  V30 31993 N 3034.54 1.35531 0.804316 0
M  V30 31994 C 3035.96 1.15618 1.10021 0
M  V30 31995 C 3036.16 -0.0298181 2.01478 0
M  V30 31996 O 3035.21 -0.699736 2.42611 0
M  V30 31997 C 3036.52 2.4602 1.729 0
M  V30 31998 C 3038.07 2.52248 1.8531 0
M  V30 31999 C 3038.55 3.82699 2.51606 0
M  V30 32000 N 3040.04 3.83963 2.59088 0
M  V30 32001 C 3040.77 4.81631 3.11158 0
M  V30 32002 N 3040.27 5.89687 3.63649 0
M  V30 32003 N 3042.06 4.69065 3.09732 0
M  V30 32004 H 3034.21 2.1149 0.196391 0
M  V30 32005 H 3036.48 0.936103 0.149718 0
M  V30 32006 H 3036.18 3.32996 1.13165 0
M  V30 32007 H 3036.06 2.60735 2.72575 0
M  V30 32008 H 3038.44 1.657 2.44188 0
M  V30 32009 H 3038.52 2.41446 0.844843 0
M  V30 32010 H 3038.17 4.69646 1.93377 0
M  V30 32011 H 3038.1 3.90791 3.52973 0
M  V30 32012 H 3040.59 3.05888 2.21903 0
M  V30 32013 H 3040.9 6.60203 4.01687 0
M  V30 32014 H 3039.25 5.93377 3.61842 0
M  V30 32015 H 3042.44 3.83786 2.68004 0
M  V30 32016 H 3042.61 5.45344 3.50006 0
M  V30 32017 N 3036.02 -1.02674 1.19565 0
M  V30 32018 C 3036.95 -2.12895 0.959061 0
M  V30 32019 C 3037.93 -1.69755 -0.108352 0
M  V30 32020 O 3039.11 -1.94143 0.0471039 0
M  V30 32021 C 3036.24 -3.43693 0.499271 0
M  V30 32022 C 3035.2 -4.00525 1.50877 0
M  V30 32023 C 3034.52 -5.26969 0.905976 0
M  V30 32024 C 3035.82 -4.35085 2.88961 0
M  V30 32025 H 3037.52 -2.32945 1.88088 0
M  V30 32026 H 3035.06 -1.11947 0.905751 0
M  V30 32027 H 3037.02 -4.20175 0.321039 0
M  V30 32028 H 3035.74 -3.23371 -0.458148 0
M  V30 32029 H 3034.4 -3.26139 1.67418 0
M  V30 32030 H 3034.05 -5.02965 -0.0590622 0
M  V30 32031 H 3033.75 -5.65956 1.5801 0
M  V30 32032 H 3035.27 -6.06117 0.738587 0
M  V30 32033 H 3036.69 -5.02496 2.7599 0
M  V30 32034 H 3035.08 -4.8516 3.53186 0
M  V30 32035 H 3036.15 -3.44293 3.41453 0
M  V30 32036 N 3037.5 -0.999914 -1.21817 0
M  V30 32037 C 3038.73 -0.697381 -1.94474 0
M  V30 32038 C 3039.13 0.743198 -1.73992 0
M  V30 32039 O 3038.48 1.51395 -1.04045 0
M  V30 32040 C 3038.54 -0.932242 -3.47202 0
M  V30 32041 C 3038.2 -2.35867 -3.91428 0
M  V30 32042 C 3039.2 -3.3386 -3.9854 0
M  V30 32043 C 3036.88 -2.69497 -4.23883 0
M  V30 32044 C 3038.88 -4.63552 -4.37491 0
M  V30 32045 C 3036.57 -3.99407 -4.62512 0
M  V30 32046 C 3037.56 -4.96246 -4.69285 0
M  V30 32047 O 3037.25 -6.23834 -5.07037 0
M  V30 32048 H 3036.98 -0.256578 -0.625415 0
M  V30 32049 H 3039.54 -1.33936 -1.55725 0
M  V30 32050 H 3037.77 -0.233093 -3.85997 0
M  V30 32051 H 3039.46 -0.623878 -4.01077 0
M  V30 32052 H 3040.22 -3.09212 -3.73648 0
M  V30 32053 H 3036.1 -1.94819 -4.17811 0
M  V30 32054 H 3039.65 -5.39138 -4.42692 0
M  V30 32055 H 3035.54 -4.23841 -4.86856 0
M  V30 32056 H 3036.31 -6.27874 -5.25087 0
M  V30 32057 N 3038.97 1.37284 -0.773999 0
M  V30 32058 C 3040.2 2.04432 -0.349597 0
M  V30 32059 C 3040.62 1.57992 1.02079 0
M  V30 32060 O 3039.98 0.741201 1.65457 0
M  V30 32061 C 3040.03 3.58326 -0.404355 0
M  V30 32062 O 3039.13 4.08094 0.594375 0
M  V30 32063 H 3038.47 0.64661 -0.15097 0
M  V30 32064 H 3041 1.75553 -1.05082 0
M  V30 32065 H 3041.01 4.07155 -0.26245 0
M  V30 32066 H 3039.69 3.91482 -1.4041 0
M  V30 32067 H 3038.27 3.70579 0.415403 0
M  V30 32068 N 3040.45 0.524724 1.48608 0
M  V30 32069 C 3041.38 -0.229796 2.32366 0
M  V30 32070 C 3042.36 -0.940104 1.41761 0
M  V30 32071 O 3043.55 -0.926906 1.70652 0
M  V30 32072 C 3040.68 -1.28038 3.22837 0
M  V30 32073 C 3039.63 -0.688529 4.22425 0
M  V30 32074 C 3038.96 -1.84137 5.01994 0
M  V30 32075 C 3040.26 0.336268 5.21216 0
M  V30 32076 H 3041.95 0.469391 2.95698 0
M  V30 32077 H 3039.5 0.227181 1.42197 0
M  V30 32078 H 3041.45 -1.81613 3.80256 0
M  V30 32079 H 3040.17 -2.00907 2.57495 0
M  V30 32080 H 3038.83 -0.174338 3.66185 0
M  V30 32081 H 3038.48 -2.55832 4.33081 0
M  V30 32082 H 3038.18 -1.45132 5.69395 0
M  V30 32083 H 3039.71 -2.38101 5.62263 0
M  V30 32084 H 3041.12 -0.112206 5.7319 0
M  V30 32085 H 3039.52 0.643429 5.96641 0
M  V30 32086 H 3040.59 1.2439 4.68674 0
M  V30 32087 N 3041.93 -1.55447 0.259613 0
M  V30 32088 C 3042.86 -2.24883 -0.62848 0
M  V30 32089 C 3043.84 -1.23351 -1.17126 0
M  V30 32090 O 3045.03 -1.52035 -1.20826 0
M  V30 32091 C 3042.16 -2.95806 -1.81978 0
M  V30 32092 C 3041.11 -4.04135 -1.40922 0
M  V30 32093 C 3040.44 -4.6255 -2.68238 0
M  V30 32094 C 3041.74 -5.19171 -0.570864 0
M  V30 32095 H 3043.43 -2.99359 -0.0494495 0
M  V30 32096 H 3040.98 -1.43983 -0.0223435 0
M  V30 32097 H 3042.93 -3.43087 -2.44683 0
M  V30 32098 H 3041.65 -2.18839 -2.4244 0
M  V30 32099 H 3040.31 -3.57642 -0.805456 0
M  V30 32100 H 3039.96 -3.82269 -3.26924 0
M  V30 32101 H 3039.66 -5.35685 -2.41486 0
M  V30 32102 H 3041.18 -5.12571 -3.31818 0
M  V30 32103 H 3042.6 -5.62599 -1.10252 0
M  V30 32104 H 3040.99 -5.98773 -0.398874 0
M  V30 32105 H 3042.06 -4.83129 0.414003 0
M  V30 32106 N 3043.41 0.0133338 -1.57594 0
M  V30 32107 C 3044.68 0.737241 -1.81174 0
M  V30 32108 C 3045.06 1.92724 -0.861429 0
M  V30 32109 O 3044.41 2.28311 0.0928923 0
M  V30 32110 C 3044.62 1.15551 -3.29316 0
M  V30 32111 C 3045.97 1.56491 -3.9471 0
M  V30 32112 O 3046.99 1.24967 -3.33559 0
M  V30 32113 O 3045.85 2.1506 -5.02406 0
M  V30 32114 H 3042.95 0.357824 -0.745581 0
M  V30 32115 H 3045.49 -0.0110972 -1.69696 0
M  V30 32116 H 3044.27 0.306702 -3.90096 0
M  V30 32117 H 3043.89 1.96337 -3.45742 0
M  V30 32118 N 3044.89 1.54985 0.285878 0
M  V30 32119 C 3046.3 1.46537 0.632379 0
M  V30 32120 C 3046.5 0.668921 1.90073 0
M  V30 32121 O 3045.56 0.18263 2.51839 0
M  V30 32122 C 3046.87 2.90639 0.77131 0
M  V30 32123 C 3048.42 3.00775 0.866209 0
M  V30 32124 C 3048.89 4.46105 1.03702 0
M  V30 32125 N 3050.38 4.49879 1.10286 0
M  V30 32126 C 3051.12 5.59529 1.25359 0
M  V30 32127 N 3050.62 6.79072 1.37234 0
M  V30 32128 N 3052.41 5.47246 1.28367 0
M  V30 32129 H 3044.56 2.05229 -0.547262 0
M  V30 32130 H 3046.82 0.930107 -0.183315 0
M  V30 32131 H 3046.53 3.51585 -0.0900103 0
M  V30 32132 H 3046.4 3.38923 1.65563 0
M  V30 32133 H 3048.79 2.39935 1.71801 0
M  V30 32134 H 3048.87 2.55765 -0.0424499 0
M  V30 32135 H 3048.51 5.07545 0.189932 0
M  V30 32136 H 3048.44 4.8876 1.96013 0
M  V30 32137 H 3050.94 3.63762 1.02401 0
M  V30 32138 H 3051.25 7.58392 1.48533 0
M  V30 32139 H 3049.59 6.81908 1.34262 0
M  V30 32140 H 3052.78 4.52797 1.18712 0
M  V30 32141 H 3052.96 6.32746 1.39771 0
M  V30 32142 N 3046.36 -0.549794 1.47699 0
M  V30 32143 C 3047.61 -1.30663 1.54705 0
M  V30 32144 C 3047.94 -1.93336 0.212452 0
M  V30 32145 O 3047.19 -1.78807 -0.795398 0
M  V30 32146 C 3047.49 -2.43185 2.61908 0
M  V30 32147 C 3047.16 -1.98294 4.04957 0
M  V30 32148 C 3045.82 -1.85768 4.43896 0
M  V30 32149 C 3048.17 -1.64124 4.94684 0
M  V30 32150 C 3045.5 -1.37378 5.7039 0
M  V30 32151 C 3047.85 -1.17203 6.21648 0
M  V30 32152 C 3046.52 -1.03278 6.59462 0
M  V30 32153 H 3045.79 -0.478129 0.566104 0
M  V30 32154 H 3048.43 -0.615736 1.81331 0
M  V30 32155 H 3046.74 -3.17862 2.29066 0
M  V30 32156 H 3048.44 -3.01356 2.64548 0
M  V30 32157 H 3045.03 -2.08989 3.74195 0
M  V30 32158 H 3049.21 -1.72671 4.65294 0
M  V30 32159 H 3044.47 -1.25268 5.9843 0
M  V30 32160 H 3048.64 -0.89827 6.90582 0
M  V30 32161 H 3046.27 -0.655602 7.57368 0
M  V30 32162 N 3047.84 -1.35955 -0.797117 0
M  V30 32163 C 3049.26 -1.162 -1.09406 0
M  V30 32164 C 3049.46 0.0191328 -2.01491 0
M  V30 32165 O 3048.51 0.68686 -2.42978 0
M  V30 32166 C 3049.83 -2.46934 -1.71593 0
M  V30 32167 C 3051.38 -2.53227 -1.8397 0
M  V30 32168 C 3051.85 -3.84028 -2.49573 0
M  V30 32169 N 3053.34 -3.85331 -2.57049 0
M  V30 32170 C 3054.08 -4.83274 -3.086 0
M  V30 32171 N 3053.57 -5.91608 -3.60517 0
M  V30 32172 N 3055.37 -4.70701 -3.07241 0
M  V30 32173 H 3047.52 -2.11591 -0.185172 0
M  V30 32174 H 3049.78 -0.936884 -0.144752 0
M  V30 32175 H 3049.49 -3.33592 -1.11398 0
M  V30 32176 H 3049.36 -2.62177 -2.71188 0
M  V30 32177 H 3051.75 -1.66992 -2.43306 0
M  V30 32178 H 3051.83 -2.4189 -0.832027 0
M  V30 32179 H 3051.47 -4.70665 -1.90884 0
M  V30 32180 H 3051.4 -3.92657 -3.50895 0
M  V30 32181 H 3053.89 -3.07061 -2.20277 0
M  V30 32182 H 3054.21 -6.62324 -3.9818 0
M  V30 32183 H 3052.55 -5.95287 -3.5869 0
M  V30 32184 H 3055.74 -3.85202 -2.65965 0
M  V30 32185 H 3055.91 -5.47192 -3.47109 0
M  V30 32186 N 3049.32 1.02038 -1.20108 0
M  V30 32187 C 3050.25 2.12383 -0.970338 0
M  V30 32188 C 3051.23 1.6981 0.0993481 0
M  V30 32189 O 3052.42 1.94115 -0.0573991 0
M  V30 32190 C 3049.55 3.43423 -0.517491 0
M  V30 32191 C 3048.5 3.99719 -1.52999 0
M  V30 32192 C 3047.83 5.26481 -0.93391 0
M  V30 32193 C 3049.13 4.33546 -2.91264 0
M  V30 32194 H 3050.82 2.31944 -1.8932 0
M  V30 32195 H 3048.37 1.11465 -0.911675 0
M  V30 32196 H 3050.32 4.19999 -0.343317 0
M  V30 32197 H 3049.04 3.23609 0.440993 0
M  V30 32198 H 3047.7 3.25247 -1.69145 0
M  V30 32199 H 3047.35 5.0299 0.0323879 0
M  V30 32200 H 3047.05 5.65111 -1.61009 0
M  V30 32201 H 3048.57 6.05716 -0.77072 0
M  V30 32202 H 3049.99 5.01026 -2.78651 0
M  V30 32203 H 3048.39 4.8328 -3.55754 0
M  V30 32204 H 3049.46 3.42477 -3.43275 0
M  V30 32205 N 3050.8 1.00636 1.21285 0
M  V30 32206 C 3052.02 0.708476 1.94924 0
M  V30 32207 C 3052.45 -0.722752 1.7366 0
M  V30 32208 O 3051.81 -1.49591 1.02432 0
M  V30 32209 C 3051.85 1.03673 3.45376 0
M  V30 32210 O 3050.96 0.142733 4.12153 0
M  V30 32211 H 3050.3 0.263834 0.609334 0
M  V30 32212 H 3052.83 1.34697 1.54006 0
M  V30 32213 H 3052.84 0.984156 3.95952 0
M  V30 32214 H 3051.51 2.07957 3.60176 0
M  V30 32215 H 3050.09 0.251953 3.72048 0
M  V30 32216 N 3052.28 -1.36872 0.781268 0
M  V30 32217 C 3053.5 -2.03716 0.361602 0
M  V30 32218 C 3053.92 -1.58918 -1.01934 0
M  V30 32219 O 3053.28 -0.774812 -1.65236 0
M  V30 32220 C 3053.33 -3.59208 0.406454 0
M  V30 32221 O 3053.05 -4.02369 1.73293 0
M  V30 32222 C 3054.55 -4.43294 -0.0236115 0
M  V30 32223 H 3051.77 -0.653986 0.150145 0
M  V30 32224 H 3054.31 -1.75014 1.05784 0
M  V30 32225 H 3052.47 -3.86648 -0.241296 0
M  V30 32226 H 3052.88 -4.9693 1.67812 0
M  V30 32227 H 3054.36 -5.51969 0.0589175 0
M  V30 32228 H 3054.83 -4.25835 -1.07522 0
M  V30 32229 H 3055.44 -4.21099 0.596314 0
M  V30 32230 N 3053.75 -0.532597 -1.48328 0
M  V30 32231 C 3054.69 0.27606 -2.26524 0
M  V30 32232 C 3055.67 0.942472 -1.325 0
M  V30 32233 O 3056.85 0.966348 -1.61846 0
M  V30 32234 C 3053.98 1.39119 -3.0881 0
M  V30 32235 C 3053.02 0.83591 -4.18228 0
M  V30 32236 S 3053.86 -0.29828 -5.34669 0
M  V30 32237 C 3055.01 0.819261 -6.20515 0
M  V30 32238 H 3055.24 -0.387554 -2.94763 0
M  V30 32239 H 3052.78 -0.318433 -1.51081 0
M  V30 32240 H 3054.74 2.02996 -3.56795 0
M  V30 32241 H 3053.4 2.02654 -2.3998 0
M  V30 32242 H 3052.59 1.67255 -4.75438 0
M  V30 32243 H 3052.19 0.273785 -3.72997 0
M  V30 32244 H 3054.48 1.71729 -6.55374 0
M  V30 32245 H 3055.43 0.285075 -7.07526 0
M  V30 32246 H 3055.83 1.10084 -5.53662 0
M  V30 32247 N 3055.23 1.55307 -0.267853 0
M  V30 32248 C 3056.16 2.19615 0.655872 0
M  V30 32249 C 3057.18 1.17867 1.123 0
M  V30 32250 O 3058.37 1.4463 1.04615 0
M  V30 32251 C 3055.47 2.80238 1.90577 0
M  V30 32252 C 3054.64 4.07608 1.58665 0
M  V30 32253 C 3053.7 4.52347 2.68828 0
M  V30 32254 O 3052.72 5.18278 2.35322 0
M  V30 32255 N 3053.93 4.2188 3.98745 0
M  V30 32256 H 3056.69 2.99514 0.105514 0
M  V30 32257 H 3054.25 1.61657 -0.0886547 0
M  V30 32258 H 3056.24 3.07116 2.63556 0
M  V30 32259 H 3054.81 2.04375 2.36537 0
M  V30 32260 H 3054.03 3.88096 0.691045 0
M  V30 32261 H 3055.32 4.90608 1.34837 0
M  V30 32262 H 3054.72 3.68992 4.2879 0
M  V30 32263 H 3053.28 4.53546 4.68124 0
M  V30 32264 N 3056.71 -0.00497598 1.57599 0
M  V30 32265 C 3057.99 -0.727622 1.81563 0
M  V30 32266 C 3058.37 -1.92265 0.871638 0
M  V30 32267 O 3057.72 -2.28357 -0.0807831 0
M  V30 32268 C 3057.93 -1.13803 3.29924 0
M  V30 32269 C 3059.27 -1.54396 3.95534 0
M  V30 32270 O 3060.3 -1.23196 3.34217 0
M  V30 32271 O 3059.16 -2.12393 5.03539 0
M  V30 32272 H 3056.25 -0.353865 0.747468 0
M  V30 32273 H 3058.8 0.0200965 1.69688 0
M  V30 32274 H 3057.57 -0.286009 3.90253 0
M  V30 32275 H 3057.19 -1.94501 3.46778 0
M  V30 32276 N 3058.19 -1.55135 -0.277654 0
M  V30 32277 C 3059.41 -1.79872 -1.03251 0
M  V30 32278 C 3059.84 -0.567892 -1.79323 0
M  V30 32279 O 3059.2 0.482369 -1.74765 0
M  V30 32280 C 3059.24 -3.02003 -1.97044 0
M  V30 32281 O 3058.35 -2.76763 -3.05739 0
M  V30 32282 H 3057.69 -0.594654 -0.295436 0
M  V30 32283 H 3060.22 -2.02269 -0.307978 0
M  V30 32284 H 3060.23 -3.3061 -2.39084 0
M  V30 32285 H 3058.9 -3.91238 -1.41087 0
M  V30 32286 H 3057.48 -2.59239 -2.68047 0
M  V30 32287 N 3059.67 0.541953 -1.47989 0
M  V30 32288 C 3060.6 1.6571 -1.64506 0
M  V30 32289 C 3061.58 1.62764 -0.494144 0
M  V30 32290 O 3062.76 1.80148 -0.725287 0
M  V30 32291 C 3059.89 3.04325 -1.67343 0
M  V30 32292 C 3058.85 3.22125 -2.81815 0
M  V30 32293 C 3058.17 4.6168 -2.69733 0
M  V30 32294 C 3059.47 3.06039 -4.23247 0
M  V30 32295 H 3061.17 1.52142 -2.57862 0
M  V30 32296 H 3058.71 0.730507 -1.24095 0
M  V30 32297 H 3060.67 3.82199 -1.77487 0
M  V30 32298 H 3059.39 3.18888 -0.70557 0
M  V30 32299 H 3058.05 2.46664 -2.71205 0
M  V30 32300 H 3057.7 4.73062 -1.70942 0
M  V30 32301 H 3057.4 4.74537 -3.46538 0
M  V30 32302 H 3058.92 5.41669 -2.81828 0
M  V30 32303 H 3060.33 3.73716 -4.34752 0
M  V30 32304 H 3058.73 3.30396 -5.00958 0
M  V30 32305 H 3059.8 2.02601 -4.40546 0
M  V30 32306 N 3061.15 1.36376 0.789896 0
M  V30 32307 C 3062.37 1.33897 1.58386 0
M  V30 32308 C 3062.8 -0.0774603 1.8794 0
M  V30 32309 O 3062.15 -1.04927 1.47851 0
M  V30 32310 C 3062.2 2.16737 2.88197 0
M  V30 32311 O 3061.31 1.55953 3.81775 0
M  V30 32312 H 3060.65 0.458313 0.480463 0
M  V30 32313 H 3063.18 1.79653 0.979088 0
M  V30 32314 H 3063.19 2.29298 3.37471 0
M  V30 32315 H 3061.86 3.19703 2.66013 0
M  V30 32316 H 3060.44 1.52329 3.40368 0
M  V30 32317 N 3062.62 -1.014 1.20647 0
M  V30 32318 C 3064.03 -1.56488 1.01826 0
M  V30 32319 C 3064.39 -1.91551 -0.424596 0
M  V30 32320 O 3063.51 -1.72516 -1.30641 0
M  V30 32321 C 3064.11 -2.84343 1.84213 0
M  V30 32322 C 3062.66 -3.3595 1.69749 0
M  V30 32323 C 3061.81 -2.0923 1.81984 0
M  V30 32324 H 3064.76 -0.837516 1.34801 0
M  V30 32325 H 3064.78 -3.55858 1.34704 0
M  V30 32326 H 3064.3 -2.58792 2.8922 0
M  V30 32327 H 3062.4 -3.66455 0.673897 0
M  V30 32328 H 3062.51 -4.07977 2.5118 0
M  V30 32329 H 3060.87 -2.21806 1.25197 0
M  V30 32330 H 3061.66 -1.86102 2.8848 0
M  V30 32331 N 3064.1 -1.01278 -1.2075 0
M  V30 32332 C 3065.33 -0.718803 -1.94546 0
M  V30 32333 C 3065.75 0.713532 -1.74041 0
M  V30 32334 O 3065.11 1.49046 -1.03223 0
M  V30 32335 C 3065.16 -1.05503 -3.44821 0
M  V30 32336 O 3064.26 -0.164589 -4.12071 0
M  V30 32337 H 3063.6 -0.267062 -0.607926 0
M  V30 32338 H 3066.13 -1.35512 -1.53289 0
M  V30 32339 H 3066.14 -1.00514 -3.95425 0
M  V30 32340 H 3064.82 -2.09864 -3.59068 0
M  V30 32341 H 3063.39 -0.27168 -3.71909 0
M  V30 32342 N 3065.58 1.36456 -0.788516 0
M  V30 32343 C 3066.99 1.81827 -0.423774 0
M  V30 32344 C 3067.34 1.65601 1.05218 0
M  V30 32345 O 3066.47 1.17645 1.81628 0
M  V30 32346 C 3067.06 3.3011 -0.762412 0
M  V30 32347 C 3065.62 3.73694 -0.450511 0
M  V30 32348 C 3064.77 2.58737 -0.997527 0
M  V30 32349 H 3067.72 1.2469 -0.98174 0
M  V30 32350 H 3067.74 3.80463 -0.0531805 0
M  V30 32351 H 3067.25 3.41888 -1.83668 0
M  V30 32352 H 3065.35 3.67477 0.615764 0
M  V30 32353 H 3065.47 4.69168 -0.970491 0
M  V30 32354 H 3063.83 2.512 -0.420805 0
M  V30 32355 H 3064.61 2.733 -2.07754 0
M  V30 32356 N 3067.06 0.540456 1.48043 0
M  V30 32357 C 3068.47 0.102695 1.86417 0
M  V30 32358 C 3068.82 -1.3229 1.44892 0
M  V30 32359 O 3067.94 -1.99248 0.844355 0
M  V30 32360 C 3068.54 0.179592 3.38324 0
M  V30 32361 C 3067.1 -0.203032 3.75852 0
M  V30 32362 C 3066.25 0.534684 2.72096 0
M  V30 32363 H 3069.2 0.751127 1.39799 0
M  V30 32364 H 3069.22 -0.606081 3.75642 0
M  V30 32365 H 3068.73 1.21727 3.68516 0
M  V30 32366 H 3066.83 -1.24246 3.51275 0
M  V30 32367 H 3066.94 0.143868 4.78884 0
M  V30 32368 H 3065.31 -0.0202911 2.54692 0
M  V30 32369 H 3066.09 1.5732 3.05132 0
M  V30 32370 N 3068.54 -1.55163 0.276085 0
M  V30 32371 C 3069.78 -1.99914 -0.340924 0
M  V30 32372 C 3070.11 -1.16424 -1.55432 0
M  V30 32373 O 3069.39 -0.234551 -1.93081 0
M  V30 32374 C 3069.67 -3.52785 -0.722149 0
M  V30 32375 C 3069.53 -4.47027 0.498654 0
M  V30 32376 C 3070.84 -4.11591 -1.55822 0
M  V30 32377 H 3067.96 -0.726758 -0.122443 0
M  V30 32378 H 3070.61 -1.86095 0.383223 0
M  V30 32379 H 3068.76 -3.64691 -1.33913 0
M  V30 32380 H 3070.43 -4.47063 1.1372 0
M  V30 32381 H 3068.67 -4.18647 1.13654 0
M  V30 32382 H 3069.34 -5.51679 0.188138 0
M  V30 32383 H 3071.82 -4.02967 -1.03715 0
M  V30 32384 H 3070.69 -5.18763 -1.79378 0
M  V30 32385 H 3070.95 -3.61882 -2.53957 0
M  V30 32386 N 3070.01 -0.00338196 -1.576 0
M  V30 32387 C 3071.24 0.695276 -1.95399 0
M  V30 32388 C 3071.66 1.66325 -0.878505 0
M  V30 32389 O 3071.02 1.80565 0.163054 0
M  V30 32390 C 3071.07 1.40044 -3.32295 0
M  V30 32391 O 3070.17 2.51497 -3.26838 0
M  V30 32392 H 3069.51 0.184683 -0.637799 0
M  V30 32393 H 3072.04 -0.0575789 -2.04519 0
M  V30 32394 H 3072.05 1.76309 -3.67939 0
M  V30 32395 H 3070.73 0.690731 -4.10124 0
M  V30 32396 H 3069.31 2.17533 -3.02876 0
M  V30 32397 N 3071.49 1.5528 0.269423 0
M  V30 32398 C 3072.72 1.80417 1.02296 0
M  V30 32399 C 3073.14 0.577394 1.79019 0
M  V30 32400 O 3072.5 -0.473094 1.75019 0
M  V30 32401 C 3072.55 3.03044 1.9544 0
M  V30 32402 O 3071.65 2.7838 3.04267 0
M  V30 32403 H 3070.99 0.596212 0.292279 0
M  V30 32404 H 3073.52 2.02429 0.297247 0
M  V30 32405 H 3073.53 3.31873 2.37327 0
M  V30 32406 H 3072.21 3.91981 1.3901 0
M  V30 32407 H 3070.78 2.60657 2.66669 0
M  V30 32408 N 3072.97 -0.534097 1.48274 0
M  V30 32409 C 3073.92 -1.63516 1.58891 0
M  V30 32410 C 3074.9 -1.54587 0.446287 0
M  V30 32411 O 3076.1 -1.62677 0.697503 0
M  V30 32412 C 3073.22 -3.02247 1.62793 0
M  V30 32413 C 3072.31 -3.16296 2.82521 0
M  V30 32414 N 3072.7 -3.00331 4.06983 0
M  V30 32415 C 3071 -3.47342 2.79767 0
M  V30 32416 C 3071.7 -3.17686 4.87289 0
M  V30 32417 N 3070.68 -3.45074 4.2003 0
M  V30 32418 H 3074.48 -1.49777 2.52872 0
M  V30 32419 H 3071.99 -0.739454 1.44589 0
M  V30 32420 H 3073.99 -3.81334 1.68492 0
M  V30 32421 H 3072.65 -3.17081 0.699256 0
M  V30 32422 H 3073.66 -2.77179 4.37484 0
M  V30 32423 H 3070.34 -3.6856 1.96138 0
M  V30 32424 H 3071.73 -3.10115 5.96052 0
M  V30 32425 N 3074.45 -1.36793 -0.782652 0
M  V30 32426 C 3075.86 -1.28094 -1.35826 0
M  V30 32427 C 3076.21 0.0762806 -1.96052 0
M  V30 32428 O 3075.33 0.977901 -1.93044 0
M  V30 32429 C 3075.93 -2.31956 -2.46945 0
M  V30 32430 C 3074.49 -2.26926 -3.00303 0
M  V30 32431 C 3073.64 -2.16371 -1.73432 0
M  V30 32432 H 3076.59 -1.47573 -0.583762 0
M  V30 32433 H 3076.61 -1.95991 -3.26141 0
M  V30 32434 H 3076.12 -3.30726 -2.03082 0
M  V30 32435 H 3074.22 -1.31645 -3.48569 0
M  V30 32436 H 3074.33 -3.19894 -3.56658 0
M  V30 32437 H 3072.7 -1.62736 -1.95931 0
M  V30 32438 H 3073.48 -3.17038 -1.31688 0
M  V30 32439 N 3075.93 1.00759 -1.21184 0
M  V30 32440 C 3076.86 2.11342 -0.99281 0
M  V30 32441 C 3077.84 1.69905 0.081332 0
M  V30 32442 O 3079.02 1.94043 -0.0779844 0
M  V30 32443 C 3076.15 3.42855 -0.553887 0
M  V30 32444 C 3075.11 3.98074 -1.5723 0
M  V30 32445 C 3074.43 5.25461 -0.989698 0
M  V30 32446 C 3075.73 4.30433 -2.95846 0
M  V30 32447 H 3077.43 2.29923 -1.9177 0
M  V30 32448 H 3074.97 1.10492 -0.923446 0
M  V30 32449 H 3076.93 4.19611 -0.387844 0
M  V30 32450 H 3075.65 3.24059 0.406645 0
M  V30 32451 H 3074.31 3.23434 -1.72586 0
M  V30 32452 H 3073.96 5.02996 -0.0209627 0
M  V30 32453 H 3073.66 5.63371 -1.66993 0
M  V30 32454 H 3075.18 6.04865 -0.834921 0
M  V30 32455 H 3076.59 4.98042 -2.83949 0
M  V30 32456 H 3074.99 4.79479 -3.6086 0
M  V30 32457 H 3076.06 3.38817 -3.46888 0
M  V30 32458 N 3077.4 1.01917 1.20211 0
M  V30 32459 C 3078.68 0.624983 1.85346 0
M  V30 32460 C 3079.06 -0.89682 1.91103 0
M  V30 32461 O 3078.41 -1.78958 1.42078 0
M  V30 32462 C 3078.62 1.27577 3.24846 0
M  V30 32463 C 3079.97 1.39284 4.01105 0
M  V30 32464 O 3080.99 1.23218 3.34209 0
M  V30 32465 O 3079.85 1.65269 5.20911 0
M  V30 32466 H 3076.94 0.215979 0.798299 0
M  V30 32467 H 3079.49 1.11671 1.2778 0
M  V30 32468 H 3078.26 2.3155 3.15436 0
M  V30 32469 H 3077.89 0.771289 3.90047 0
M  V30 32470 N 3078.88 -1.36036 0.795742 0
M  V30 32471 C 3080.13 -1.98678 0.370326 0
M  V30 32472 C 3080.45 -1.6346 -1.06329 0
M  V30 32473 O 3079.72 -0.911701 -1.73392 0
M  V30 32474 H 3078.3 -0.734894 0.133941 0
M  V30 32475 H 3080.96 -1.66128 1.01918 0
M  V30 32476 H 3080.06 -3.08582 0.467261 0
M  V30 32477 N 3080.36 -0.5483 -1.47755 0
M  V30 32478 C 3081.64 0.044326 -1.9555 0
M  V30 32479 C 3082.02 1.49459 -1.49081 0
M  V30 32480 O 3081.37 2.16674 -0.725576 0
M  V30 32481 C 3081.58 -0.0919039 -3.48879 0
M  V30 32482 C 3082.92 0.0580133 -4.2456 0
M  V30 32483 O 3083.95 -0.0190086 -3.56195 0
M  V30 32484 O 3082.81 0.222165 -5.46048 0
M  V30 32485 H 3079.9 0.069109 -0.824107 0
M  V30 32486 H 3082.45 -0.614194 -1.58195 0
M  V30 32487 H 3081.22 -1.10143 -3.75479 0
M  V30 32488 H 3080.84 0.604635 -3.92976 0
M  V30 32489 N 3081.84 1.55014 -0.28431 0
M  V30 32490 C 3083.09 1.99401 0.329177 0
M  V30 32491 C 3083.41 1.17419 1.55685 0
M  V30 32492 O 3082.68 0.265971 1.94086 0
M  V30 32493 H 3081.26 0.736532 0.124617 0
M  V30 32494 H 3083.92 1.90922 -0.391776 0
M  V30 32495 H 3083.02 3.06026 0.612726 0
M  V30 32496 N 3083.32 0.0117398 1.57596 0
M  V30 32497 C 3084.27 -0.984634 2.05643 0
M  V30 32498 C 3085.25 -1.29608 0.953445 0
M  V30 32499 O 3086.44 -1.2851 1.21714 0
M  V30 32500 C 3083.57 -2.27282 2.57289 0
M  V30 32501 C 3082.66 -1.9905 3.74486 0
M  V30 32502 N 3083.05 -1.4102 4.85744 0
M  V30 32503 C 3081.35 -2.29133 3.82641 0
M  V30 32504 C 3082.05 -1.29526 5.67096 0
M  V30 32505 N 3081.02 -1.78488 5.13462 0
M  V30 32506 H 3084.83 -0.530651 2.8907 0
M  V30 32507 H 3082.34 -0.193688 1.61241 0
M  V30 32508 H 3084.34 -2.99516 2.89993 0
M  V30 32509 H 3083 -2.73322 1.75286 0
M  V30 32510 H 3084.01 -1.08747 5.06354 0
M  V30 32511 H 3080.68 -2.77967 3.11513 0
M  V30 32512 H 3082.07 -0.848027 6.66527 0
M  V30 32513 N 3084.79 -1.55421 -0.261185 0
M  V30 32514 C 3086.04 -1.76844 -0.992667 0
M  V30 32515 C 3086.37 -0.57446 -1.85509 0
M  V30 32516 O 3085.65 0.427679 -1.8974 0
M  V30 32517 C 3085.93 -3.08026 -1.86527 0
M  V30 32518 C 3085.78 -4.37801 -1.03199 0
M  V30 32519 C 3087.1 -3.35329 -2.8503 0
M  V30 32520 H 3084.22 -0.643394 -0.359461 0
M  V30 32521 H 3086.86 -1.88154 -0.264181 0
M  V30 32522 H 3085.01 -2.98515 -2.48639 0
M  V30 32523 H 3086.69 -4.59285 -0.430662 0
M  V30 32524 H 3084.93 -4.32498 -0.335835 0
M  V30 32525 H 3085.6 -5.25941 -1.67601 0
M  V30 32526 H 3088.08 -3.4471 -2.33053 0
M  V30 32527 H 3086.95 -4.2836 -3.43218 0
M  V30 32528 H 3087.21 -2.55543 -3.60763 0
M  V30 32529 N 3086.27 0.526227 -1.48555 0
M  V30 32530 C 3087.5 1.31126 -1.60688 0
M  V30 32531 C 3087.92 1.8617 -0.268734 0
M  V30 32532 O 3087.28 1.64595 0.760138 0
M  V30 32533 C 3087.33 2.43531 -2.65942 0
M  V30 32534 O 3086.43 3.46674 -2.23362 0
M  V30 32535 H 3085.77 0.388202 -0.538698 0
M  V30 32536 H 3088.3 0.632791 -1.94569 0
M  V30 32537 H 3088.31 2.89663 -2.87332 0
M  V30 32538 H 3086.99 2.02829 -3.63088 0
M  V30 32539 H 3085.57 3.06635 -2.12201 0
M  V30 32540 N 3087.75 1.37206 0.775387 0
M  V30 32541 C 3088.68 1.3537 1.90255 0
M  V30 32542 C 3089.66 0.222893 1.68633 0
M  V30 32543 O 3090.85 0.422692 1.89544 0
M  V30 32544 C 3087.98 1.15628 3.27486 0
M  V30 32545 C 3086.93 2.25682 3.63664 0
M  V30 32546 C 3086.26 1.91068 4.99397 0
M  V30 32547 C 3087.56 3.67848 3.7079 0
M  V30 32548 H 3089.25 2.2969 1.92049 0
M  V30 32549 H 3086.8 1.10565 0.922577 0
M  V30 32550 H 3088.75 1.12975 4.05974 0
M  V30 32551 H 3087.47 0.17763 3.26117 0
M  V30 32552 H 3086.13 2.27485 2.87482 0
M  V30 32553 H 3085.78 0.917411 4.94563 0
M  V30 32554 H 3085.48 2.64761 5.24572 0
M  V30 32555 H 3087 1.89995 5.80288 0
M  V30 32556 H 3088.42 3.68195 4.39437 0
M  V30 32557 H 3086.82 4.40564 4.0746 0
M  V30 32558 H 3087.89 4.01737 2.71542 0
M  V30 32559 N 3089.23 -1.00115 1.21716 0
M  V30 32560 C 3090.14 -2.12407 0.996007 0
M  V30 32561 C 3091.15 -1.73919 -0.0531125 0
M  V30 32562 O 3092.33 -2.00928 0.137793 0
M  V30 32563 C 3089.4 -3.42021 0.567653 0
M  V30 32564 C 3088.46 -3.9466 1.68943 0
M  V30 32565 C 3087.69 -5.18088 1.28142 0
M  V30 32566 O 3087.91 -5.70185 0.156674 0
M  V30 32567 O 3086.85 -5.64271 2.0948 0
M  V30 32568 H 3090.67 -2.33943 1.93661 0
M  V30 32569 H 3088.26 -1.10782 1.00238 0
M  V30 32570 H 3090.14 -4.20036 0.338738 0
M  V30 32571 H 3088.81 -3.21865 -0.344183 0
M  V30 32572 H 3087.72 -3.17855 1.97279 0
M  V30 32573 H 3089.05 -4.19234 2.57884 0
M  V30 32574 N 3090.71 -1.02553 -1.19669 0
M  V30 32575 C 3091.94 -0.739547 -1.93231 0
M  V30 32576 C 3092.35 0.701127 -1.75299 0
M  V30 32577 O 3091.71 1.47645 -1.07272 0
M  V30 32578 C 3091.76 -1.07703 -3.45083 0
M  V30 32579 O 3091.48 -2.46113 -3.62436 0
M  V30 32580 C 3092.98 -0.813374 -4.35774 0
M  V30 32581 H 3090.2 -0.270864 -0.6139 0
M  V30 32582 H 3092.74 -1.36911 -1.51906 0
M  V30 32583 H 3090.9 -0.492702 -3.84254 0
M  V30 32584 H 3091.31 -2.58575 -4.56332 0
M  V30 32585 H 3092.79 -1.09951 -5.40939 0
M  V30 32586 H 3093.26 0.252282 -4.38475 0
M  V30 32587 H 3093.87 -1.38028 -4.02279 0
M  V30 32588 N 3092.19 1.35612 -0.802945 0
M  V30 32589 C 3093.43 1.99166 -0.382176 0
M  V30 32590 C 3093.76 1.63558 1.04701 0
M  V30 32591 O 3093.04 0.89709 1.72576 0
M  V30 32592 C 3093.32 3.55694 -0.561556 0
M  V30 32593 C 3093.18 4.01112 -2.03541 0
M  V30 32594 C 3094.49 4.40097 0.0150361 0
M  V30 32595 H 3091.61 0.723516 -0.140335 0
M  V30 32596 H 3094.26 1.60818 -1.0118 0
M  V30 32597 H 3092.41 3.88492 -0.0255766 0
M  V30 32598 H 3094.08 3.78741 -2.63349 0
M  V30 32599 H 3092.32 3.52155 -2.53317 0
M  V30 32600 H 3092.99 5.10006 -2.11182 0
M  V30 32601 H 3095.47 4.13739 -0.442655 0
M  V30 32602 H 3094.34 5.4872 -0.140412 0
M  V30 32603 H 3094.6 4.2798 1.1084 0
M  V30 32604 N 3093.66 0.556128 1.47462 0
M  V30 32605 C 3094.89 0.0345093 2.07371 0
M  V30 32606 C 3095.31 -1.24927 1.40623 0
M  V30 32607 O 3094.67 -1.74807 0.480851 0
M  V30 32608 C 3094.72 -0.145499 3.60306 0
M  V30 32609 O 3093.82 -1.20832 3.94301 0
M  V30 32610 H 3093.16 0.050839 0.662051 0
M  V30 32611 H 3095.69 0.771502 1.89497 0
M  V30 32612 H 3095.7 -0.360041 4.06408 0
M  V30 32613 H 3094.38 0.79216 4.08286 0
M  V30 32614 H 3092.96 -0.974357 3.59945 0
M  V30 32615 N 3095.14 -1.54861 0.292527 0
M  V30 32616 C 3096.55 -1.85606 -0.201808 0
M  V30 32617 C 3096.9 -1.21451 -1.54091 0
M  V30 32618 O 3096.03 -0.509116 -2.10326 0
M  V30 32619 C 3096.62 -3.36741 -0.372952 0
M  V30 32620 C 3095.18 -3.67548 -0.81151 0
M  V30 32621 C 3094.33 -2.77169 0.085107 0
M  V30 32622 H 3097.28 -1.50153 0.5138 0
M  V30 32623 H 3097.3 -3.60787 -1.20885 0
M  V30 32624 H 3096.81 -3.83405 0.601818 0
M  V30 32625 H 3094.91 -3.26395 -1.79713 0
M  V30 32626 H 3095.03 -4.7485 -0.636769 0
M  V30 32627 H 3093.39 -2.50972 -0.43418 0
M  V30 32628 H 3094.17 -3.26653 1.05608 0
M  V30 32629 N 3096.62 -0.0200973 -1.57587 0
M  V30 32630 C 3097.9 0.698645 -1.82697 0
M  V30 32631 C 3098.28 1.90854 -0.902115 0
M  V30 32632 O 3097.62 2.28457 0.0444432 0
M  V30 32633 C 3097.83 1.0854 -3.31693 0
M  V30 32634 C 3099.18 1.48083 -3.9794 0
M  V30 32635 O 3100.21 1.17863 -3.36135 0
M  V30 32636 O 3099.07 2.04355 -5.06854 0
M  V30 32637 H 3096.16 0.341929 -0.753003 0
M  V30 32638 H 3098.71 -0.0470899 -1.69635 0
M  V30 32639 H 3097.48 0.223887 -3.90659 0
M  V30 32640 H 3097.1 1.88959 -3.49829 0
M  V30 32641 N 3098.1 1.55557 0.252939 0
M  V30 32642 C 3099.04 1.89808 1.31307 0
M  V30 32643 C 3100.01 0.751659 1.48119 0
M  V30 32644 O 3101.2 1.00477 1.62201 0
M  V30 32645 C 3098.34 2.19298 2.66463 0
M  V30 32646 C 3097.45 3.46714 2.57708 0
M  V30 32647 C 3096.59 3.65803 3.85177 0
M  V30 32648 C 3095.63 4.86841 3.71015 0
M  V30 32649 N 3094.76 5.02483 4.90363 0
M  V30 32650 H 3099.6 2.80219 1.01397 0
M  V30 32651 H 3097.14 1.38719 0.489438 0
M  V30 32652 H 3099.1 2.34399 3.45128 0
M  V30 32653 H 3097.73 1.32098 2.94533 0
M  V30 32654 H 3096.78 3.39977 1.70645 0
M  V30 32655 H 3098.09 4.35522 2.43151 0
M  V30 32656 H 3097.25 3.8083 4.72285 0
M  V30 32657 H 3095.99 2.75217 4.02625 0
M  V30 32658 H 3094.99 4.71797 2.8229 0
M  V30 32659 H 3096.22 5.78882 3.55068 0
M  V30 32660 H 3094.16 4.14833 5.08183 0
M  V30 32661 H 3094.08 5.85369 4.78413 0
M  V30 32662 H 3095.35 5.21916 5.78986 0
M  V30 32663 N 3099.58 -0.518341 1.48832 0
M  V30 32664 C 3100.85 -1.27963 1.47935 0
M  V30 32665 C 3101.23 -2.10175 0.19743 0
M  V30 32666 O 3100.58 -2.13256 -0.820619 0
M  V30 32667 C 3100.79 -2.15116 2.7482 0
M  V30 32668 C 3102.14 -2.74875 3.23618 0
M  V30 32669 O 3103.16 -2.25395 2.75818 0
M  V30 32670 O 3102.02 -3.64906 4.06824 0
M  V30 32671 H 3099.12 -0.578154 0.591327 0
M  V30 32672 H 3101.66 -0.534037 1.61078 0
M  V30 32673 H 3100.43 -1.54228 3.59624 0
M  V30 32674 H 3100.06 -2.96901 2.64454 0
M  V30 32675 N 3101.05 -1.37615 -0.7681 0
M  V30 32676 C 3102.3 -1.34229 -1.52821 0
M  V30 32677 C 3102.65 0.0717144 -1.92266 0
M  V30 32678 O 3101.95 1.03116 -1.61486 0
M  V30 32679 C 3102.14 -2.21861 -2.802 0
M  V30 32680 C 3101.97 -3.71641 -2.53206 0
M  V30 32681 C 3100.74 -4.40731 -2.47151 0
M  V30 32682 C 3102.94 -4.64416 -2.20957 0
M  V30 32683 N 3100.92 -5.7603 -2.12279 0
M  V30 32684 C 3102.29 -5.88119 -1.96254 0
M  V30 32685 C 3104.35 -4.52765 -2.07143 0
M  V30 32686 C 3103.05 -7.01476 -1.59133 0
M  V30 32687 C 3105.08 -5.66011 -1.71422 0
M  V30 32688 C 3104.44 -6.88766 -1.47582 0
M  V30 32689 H 3100.54 -0.546461 -0.559378 0
M  V30 32690 H 3103.12 -1.7287 -0.895764 0
M  V30 32691 H 3101.29 -1.8543 -3.41277 0
M  V30 32692 H 3103.02 -2.09706 -3.46129 0
M  V30 32693 H 3099.78 -3.93776 -2.6313 0
M  V30 32694 H 3100.2 -6.47542 -1.97529 0
M  V30 32695 H 3104.84 -3.58426 -2.24255 0
M  V30 32696 H 3102.56 -7.95746 -1.40759 0
M  V30 32697 H 3106.15 -5.58968 -1.61387 0
M  V30 32698 H 3105.03 -7.7491 -1.20351 0
M  V30 32699 N 3102.53 0.994677 -1.22245 0
M  V30 32700 C 3103.76 1.76693 -1.07065 0
M  V30 32701 C 3104.17 1.85306 0.381862 0
M  V30 32702 O 3103.51 1.32107 1.27646 0
M  V30 32703 C 3103.57 3.21687 -1.60492 0
M  V30 32704 C 3103.24 3.36624 -3.09085 0
M  V30 32705 C 3104.24 3.24081 -4.06531 0
M  V30 32706 C 3101.92 3.61733 -3.48504 0
M  V30 32707 C 3103.91 3.36427 -5.41383 0
M  V30 32708 C 3101.6 3.7372 -4.83504 0
M  V30 32709 C 3102.6 3.61075 -5.79753 0
M  V30 32710 O 3102.29 3.72665 -7.12303 0
M  V30 32711 H 3102.02 0.561801 -0.375973 0
M  V30 32712 H 3104.57 1.25938 -1.62262 0
M  V30 32713 H 3102.8 3.73626 -0.997023 0
M  V30 32714 H 3104.49 3.80623 -1.41001 0
M  V30 32715 H 3105.26 3.04596 -3.77421 0
M  V30 32716 H 3101.14 3.70652 -2.74113 0
M  V30 32717 H 3104.68 3.26474 -6.1649 0
M  V30 32718 H 3100.58 3.92712 -5.12297 0
M  V30 32719 H 3101.35 3.89549 -7.19857 0
M  V30 32720 N 3104.01 1.03186 1.19123 0
M  V30 32721 C 3105.26 0.731144 1.89162 0
M  V30 32722 C 3105.59 -0.738631 1.79605 0
M  V30 32723 O 3104.86 -1.53817 1.1904 0
M  V30 32724 C 3105.15 1.18672 3.39984 0
M  V30 32725 C 3105 2.71794 3.58397 0
M  V30 32726 C 3106.32 0.769848 4.33314 0
M  V30 32727 H 3103.44 0.267081 0.686904 0
M  V30 32728 H 3106.08 1.28231 1.40203 0
M  V30 32729 H 3104.23 0.717803 3.81811 0
M  V30 32730 H 3105.9 3.26655 3.25721 0
M  V30 32731 H 3104.14 3.12043 3.01349 0
M  V30 32732 H 3104.82 2.98727 4.64183 0
M  V30 32733 H 3107.29 1.17321 3.99218 0
M  V30 32734 H 3106.17 1.11647 5.37426 0
M  V30 32735 H 3106.43 -0.327603 4.40885 0
M  V30 32736 N 3105.49 -1.35184 0.810125 0
M  V30 32737 C 3106.44 -2.2716 0.195581 0
M  V30 32738 C 3107.42 -1.4794 -0.632665 0
M  V30 32739 O 3108.61 -1.70101 -0.489342 0
M  V30 32740 C 3105.74 -3.3705 -0.652105 0
M  V30 32741 C 3104.83 -4.23692 0.186064 0
M  V30 32742 N 3105.22 -4.9009 1.25081 0
M  V30 32743 C 3103.52 -4.45989 -0.0317249 0
M  V30 32744 C 3104.22 -5.54346 1.76282 0
M  V30 32745 N 3103.2 -5.32991 1.06871 0
M  V30 32746 H 3107 -2.75992 1.01022 0
M  V30 32747 H 3104.51 -1.48753 0.651638 0
M  V30 32748 H 3106.51 -4.01895 -1.10844 0
M  V30 32749 H 3105.17 -2.89769 -1.46506 0
M  V30 32750 H 3106.18 -4.91464 1.6335 0
M  V30 32751 H 3102.86 -4.09497 -0.813535 0
M  V30 32752 H 3104.25 -6.1731 2.65289 0
M  V30 32753 N 3106.97 -0.56394 -1.47165 0
M  V30 32754 C 3107.9 0.168107 -2.32894 0
M  V30 32755 C 3108.88 0.902188 -1.44203 0
M  V30 32756 O 3110.06 0.881335 -1.7305 0
M  V30 32757 C 3107.19 1.19433 -3.26118 0
M  V30 32758 C 3106.15 0.576288 -4.24102 0
M  V30 32759 C 3105.47 1.70763 -5.06699 0
M  V30 32760 C 3106.77 -0.474341 -5.20142 0
M  V30 32761 H 3108.47 -0.547625 -2.94349 0
M  V30 32762 H 3106.01 -0.264802 -1.41544 0
M  V30 32763 H 3107.97 1.71467 -3.84938 0
M  V30 32764 H 3106.69 1.9401 -2.62732 0
M  V30 32765 H 3105.35 0.077189 -3.66519 0
M  V30 32766 H 3105 2.4426 -4.39711 0
M  V30 32767 H 3104.7 1.29984 -5.73043 0
M  V30 32768 H 3106.22 2.2311 -5.68379 0
M  V30 32769 H 3107.63 -0.0398043 -5.73286 0
M  V30 32770 H 3106.03 -0.801391 -5.94725 0
M  V30 32771 H 3107.1 -1.36772 -4.65211 0
M  V30 32772 N 3108.44 1.54704 -0.300735 0
M  V30 32773 C 3109.69 2.00431 0.309076 0
M  V30 32774 C 3110.02 1.18882 1.5356 0
M  V30 32775 O 3109.3 0.265239 1.92683 0
M  V30 32776 C 3109.58 3.53889 0.665933 0
M  V30 32777 C 3109.43 4.46177 -0.569709 0
M  V30 32778 C 3110.75 4.14018 1.49255 0
M  V30 32779 H 3107.87 0.728614 0.110865 0
M  V30 32780 H 3110.51 1.85462 -0.412781 0
M  V30 32781 H 3108.66 3.66775 1.28094 0
M  V30 32782 H 3110.34 4.45197 -1.20818 0
M  V30 32783 H 3108.58 4.16786 -1.203 0
M  V30 32784 H 3109.25 5.5131 -0.275882 0
M  V30 32785 H 3111.73 4.04566 0.972908 0
M  V30 32786 H 3110.6 5.21551 1.71102 0
M  V30 32787 H 3110.86 3.65876 2.48167 0
M  V30 32788 N 3109.92 0.0284543 1.57574 0
M  V30 32789 C 3110.87 -0.953621 2.10178 0
M  V30 32790 C 3111.84 -1.32345 1.0037 0
M  V30 32791 O 3113.02 -1.41688 1.27785 0
M  V30 32792 C 3110.16 -2.23096 2.63291 0
M  V30 32793 C 3109.28 -1.91764 3.87105 0
M  V30 32794 C 3108.41 -3.13788 4.28615 0
M  V30 32795 C 3107.45 -2.78272 5.45189 0
M  V30 32796 N 3106.59 -3.92919 5.81858 0
M  V30 32797 H 3111.43 -0.498125 2.93807 0
M  V30 32798 H 3108.97 -0.234276 1.45222 0
M  V30 32799 H 3110.92 -2.97808 2.92175 0
M  V30 32800 H 3109.55 -2.66263 1.82494 0
M  V30 32801 H 3108.61 -1.07297 3.64954 0
M  V30 32802 H 3109.92 -1.61606 4.71895 0
M  V30 32803 H 3109.07 -3.9682 4.58932 0
M  V30 32804 H 3107.81 -3.47106 3.42591 0
M  V30 32805 H 3106.82 -1.93652 5.14567 0
M  V30 32806 H 3108.04 -2.46171 6.32911 0
M  V30 32807 H 3105.99 -4.26081 4.9879 0
M  V30 32808 H 3105.9 -3.66383 6.61286 0
M  V30 32809 H 3107.17 -4.76658 6.1678 0
M  V30 32810 N 3111.4 -1.55689 -0.244686 0
M  V30 32811 C 3112.63 -1.82022 -0.994125 0
M  V30 32812 C 3113.05 -0.605802 -1.78078 0
M  V30 32813 O 3112.41 0.44519 -1.75749 0
M  V30 32814 C 3112.46 -3.06115 -1.90594 0
M  V30 32815 O 3111.56 -2.83186 -2.99799 0
M  V30 32816 H 3110.9 -0.600787 -0.282756 0
M  V30 32817 H 3113.43 -2.02877 -0.265004 0
M  V30 32818 H 3113.44 -3.35607 -2.32017 0
M  V30 32819 H 3112.12 -3.94143 -1.32756 0
M  V30 32820 H 3110.69 -2.64867 -2.62488 0
M  V30 32821 N 3112.88 0.510441 -1.49105 0
M  V30 32822 C 3113.81 1.62947 -1.61186 0
M  V30 32823 C 3114.82 1.55091 -0.49503 0
M  V30 32824 O 3116.01 1.61195 -0.766699 0
M  V30 32825 C 3113.11 3.01696 -1.54378 0
M  V30 32826 C 3112.29 3.34834 -2.81434 0
M  V30 32827 C 3111.34 4.52951 -2.6781 0
M  V30 32828 O 3110.37 4.55202 -3.41731 0
M  V30 32829 N 3111.57 5.52302 -1.78725 0
M  V30 32830 H 3114.34 1.53014 -2.57695 0
M  V30 32831 H 3111.9 0.698126 -1.46075 0
M  V30 32832 H 3113.89 3.7862 -1.42931 0
M  V30 32833 H 3112.46 3.05604 -0.657651 0
M  V30 32834 H 3111.68 2.46898 -3.07303 0
M  V30 32835 H 3112.97 3.53767 -3.65687 0
M  V30 32836 H 3112.37 5.53276 -1.17906 0
M  V30 32837 H 3110.92 6.28366 -1.73205 0
M  V30 32838 N 3114.36 1.38021 0.760791 0
M  V30 32839 C 3115.6 1.35242 1.53261 0
M  V30 32840 C 3115.96 -0.0594701 1.91908 0
M  V30 32841 O 3117.16 -0.212075 2.67962 0
M  V30 32842 C 3115.43 2.27504 2.75639 0
M  V30 32843 S 3116.99 2.42678 3.65585 0
M  V30 32844 H 3113.81 0.479955 0.524561 0
M  V30 32845 H 3116.41 1.73877 0.893706 0
M  V30 32846 H 3115.12 3.2899 2.45344 0
M  V30 32847 H 3114.65 1.89993 3.4448 0
M  V30 32848 H 3116.66 1.6455 4.68121 0
M  V30 32849 N 3115.83 -0.98818 1.22771 0
M  V30 32850 C 3117.08 -1.73182 1.06675 0
M  V30 32851 C 3117.44 -1.88335 -0.393401 0
M  V30 32852 O 3116.73 -1.41887 -1.28758 0
M  V30 32853 C 3116.92 -3.13463 1.71684 0
M  V30 32854 C 3116.75 -3.11991 3.2387 0
M  V30 32855 C 3115.52 -3.17619 3.92997 0
M  V30 32856 C 3117.72 -2.95771 4.20742 0
M  V30 32857 N 3115.7 -3.0595 5.32229 0
M  V30 32858 C 3117.07 -2.92181 5.46836 0
M  V30 32859 C 3119.13 -2.80197 4.11575 0
M  V30 32860 C 3117.83 -2.74613 6.64816 0
M  V30 32861 C 3119.86 -2.63991 5.2921 0
M  V30 32862 C 3119.22 -2.61093 6.54225 0
M  V30 32863 H 3115.32 -0.643162 0.444822 0
M  V30 32864 H 3117.9 -1.17321 1.55383 0
M  V30 32865 H 3116.07 -3.67559 1.25519 0
M  V30 32866 H 3117.8 -3.76417 1.48636 0
M  V30 32867 H 3114.56 -3.25489 3.44026 0
M  V30 32868 H 3114.98 -3.03412 6.05202 0
M  V30 32869 H 3119.63 -2.81233 3.15702 0
M  V30 32870 H 3117.34 -2.72322 7.60833 0
M  V30 32871 H 3120.93 -2.52916 5.23951 0
M  V30 32872 H 3119.81 -2.48706 7.43717 0
M  V30 32873 N 3117.31 -1.03816 -1.18575 0
M  V30 32874 C 3118.54 -0.76 -1.92436 0
M  V30 32875 C 3118.96 0.682495 -1.76033 0
M  V30 32876 O 3118.31 1.46499 -1.08831 0
M  V30 32877 C 3118.36 -1.11357 -3.43921 0
M  V30 32878 O 3118.08 -2.49943 -3.59806 0
M  V30 32879 C 3119.59 -0.859548 -4.34887 0
M  V30 32880 H 3116.81 -0.27736 -0.610993 0
M  V30 32881 H 3119.35 -1.38515 -1.50446 0
M  V30 32882 H 3117.5 -0.53343 -3.8371 0
M  V30 32883 H 3117.92 -2.63401 -4.53564 0
M  V30 32884 H 3119.39 -1.15682 -5.39742 0
M  V30 32885 H 3119.87 0.205762 -4.38718 0
M  V30 32886 H 3120.48 -1.42287 -4.00793 0
M  V30 32887 N 3118.79 1.34753 -0.817283 0
M  V30 32888 C 3120.21 1.51488 -0.502336 0
M  V30 32889 C 3120.41 1.76366 0.974537 0
M  V30 32890 O 3119.46 1.8113 1.75921 0
M  V30 32891 C 3120.78 2.68341 -1.35697 0
M  V30 32892 C 3122.32 2.82221 -1.35352 0
M  V30 32893 C 3122.8 4.02111 -2.19251 0
M  V30 32894 N 3124.29 4.09308 -2.16845 0
M  V30 32895 C 3125.02 5.01216 -2.78514 0
M  V30 32896 N 3124.52 5.98386 -3.49151 0
M  V30 32897 N 3126.31 4.94044 -2.68098 0
M  V30 32898 H 3118.46 1.16863 -1.77361 0
M  V30 32899 H 3120.73 0.572664 -0.755486 0
M  V30 32900 H 3120.43 2.56569 -2.40552 0
M  V30 32901 H 3120.31 3.63212 -1.0177 0
M  V30 32902 H 3122.69 2.93438 -0.312778 0
M  V30 32903 H 3122.78 1.88176 -1.73273 0
M  V30 32904 H 3122.42 3.91654 -3.23372 0
M  V30 32905 H 3122.35 4.95358 -1.78684 0
M  V30 32906 H 3124.84 3.39753 -1.65458 0
M  V30 32907 H 3125.15 6.65135 -3.93467 0
M  V30 32908 H 3123.5 5.98527 -3.53257 0
M  V30 32909 H 3126.69 4.17091 -2.12493 0
M  V30 32910 H 3126.86 5.65478 -3.16446 0
M  V30 32911 N 3120.27 0.571737 1.46864 0
M  V30 32912 C 3121.49 0.0565019 2.07323 0
M  V30 32913 C 3121.92 -1.23429 1.4194 0
M  V30 32914 O 3121.28 -1.74287 0.499364 0
M  V30 32915 C 3121.33 -0.107276 3.6044 0
M  V30 32916 O 3120.43 -1.16643 3.95561 0
M  V30 32917 H 3119.77 0.0578581 0.661474 0
M  V30 32918 H 3122.3 0.791558 1.88668 0
M  V30 32919 H 3122.31 -0.316915 4.06767 0
M  V30 32920 H 3120.99 0.83542 4.07423 0
M  V30 32921 H 3119.56 -0.936125 3.60959 0
M  V30 32922 N 3121.75 -1.54542 0.308935 0
M  V30 32923 C 3123.02 -1.92415 -0.351524 0
M  V30 32924 C 3123.4 -1.23702 -1.71058 0
M  V30 32925 O 3122.75 -0.37554 -2.25393 0
M  V30 32926 C 3122.96 -3.45978 -0.458296 0
M  V30 32927 C 3124.31 -4.18357 -0.72545 0
M  V30 32928 O 3125.33 -3.52055 -0.541797 0
M  V30 32929 O 3124.19 -5.35747 -1.07875 0
M  V30 32930 H 3121.29 -0.802962 -0.197943 0
M  V30 32931 H 3123.83 -1.6589 0.357577 0
M  V30 32932 H 3122.61 -3.88134 0.496791 0
M  V30 32933 H 3122.23 -3.78563 -1.21555 0
M  V30 32934 N 3123.23 -0.0368104 -1.57557 0
M  V30 32935 C 3124.45 0.653673 -1.9683 0
M  V30 32936 C 3124.88 1.64424 -0.913588 0
M  V30 32937 O 3124.23 1.80871 0.124717 0
M  V30 32938 C 3124.28 1.32964 -3.35191 0
M  V30 32939 O 3123.39 2.44507 -3.32099 0
M  V30 32940 H 3122.73 0.171113 -0.641573 0
M  V30 32941 H 3125.26 -0.100947 -2.04351 0
M  V30 32942 H 3125.27 1.68465 -3.71596 0
M  V30 32943 H 3123.94 0.603582 -4.11497 0
M  V30 32944 H 3122.52 2.1106 -3.07422 0
M  V30 32945 N 3124.7 1.55817 0.236426 0
M  V30 32946 C 3125.67 1.90377 1.27629 0
M  V30 32947 C 3126.67 0.781073 1.40556 0
M  V30 32948 O 3127.86 1.04897 1.39076 0
M  V30 32949 C 3124.99 2.14147 2.65243 0
M  V30 32950 H 3126.18 2.83368 0.981969 0
M  V30 32951 H 3123.73 1.4887 0.476188 0
M  V30 32952 H 3124.47 1.23658 2.99798 0
M  V30 32953 H 3124.25 2.95922 2.57241 0
M  V30 32954 H 3125.74 2.42032 3.40309 0
M  V30 32955 N 3126.18 -0.502526 1.49373 0
M  V30 32956 C 3127.11 -1.61291 1.68842 0
M  V30 32957 C 3128.09 -1.61397 0.537125 0
M  V30 32958 O 3129.28 -1.78161 0.772795 0
M  V30 32959 C 3126.41 -2.99781 1.75352 0
M  V30 32960 C 3125.36 -3.1454 2.90256 0
M  V30 32961 C 3124.69 -4.54366 2.81878 0
M  V30 32962 C 3125.99 -2.94709 4.31212 0
M  V30 32963 H 3127.68 -1.45252 2.61806 0
M  V30 32964 H 3125.23 -0.697348 1.25988 0
M  V30 32965 H 3127.18 -3.77359 1.87558 0
M  V30 32966 H 3125.9 -3.16905 0.789869 0
M  V30 32967 H 3124.56 -2.39387 2.7765 0
M  V30 32968 H 3124.21 -4.68364 1.83424 0
M  V30 32969 H 3123.91 -4.65182 3.58998 0
M  V30 32970 H 3125.44 -5.34007 2.9609 0
M  V30 32971 H 3126.85 -3.62058 4.44508 0
M  V30 32972 H 3125.25 -3.16998 5.09541 0
M  V30 32973 H 3126.32 -1.90849 4.45763 0
M  V30 32974 N 3127.66 -1.38422 -0.75346 0
M  V30 32975 C 3128.59 -1.3838 -1.88078 0
M  V30 32976 C 3129.57 -0.249693 -1.68257 0
M  V30 32977 O 3130.76 -0.452794 -1.88848 0
M  V30 32978 C 3127.89 -1.20824 -3.25605 0
M  V30 32979 C 3126.84 -2.3144 -3.60027 0
M  V30 32980 C 3126.17 -1.98989 -4.96294 0
M  V30 32981 C 3127.47 -3.737 -3.64891 0
M  V30 32982 H 3129.16 -2.32716 -1.88371 0
M  V30 32983 H 3126.71 -1.12018 -0.904871 0
M  V30 32984 H 3128.66 -1.19419 -4.04125 0
M  V30 32985 H 3127.38 -0.22949 -3.25793 0
M  V30 32986 H 3126.04 -2.3203 -2.83827 0
M  V30 32987 H 3125.69 -0.995975 -4.93041 0
M  V30 32988 H 3125.39 -2.73073 -5.20293 0
M  V30 32989 H 3126.91 -1.99203 -5.77192 0
M  V30 32990 H 3128.33 -3.7514 -4.33524 0
M  V30 32991 H 3126.72 -4.4699 -4.004 0
M  V30 32992 H 3127.79 -4.06006 -2.65117 0
M  V30 32993 N 3129.14 0.981655 -1.23294 0
M  V30 32994 C 3130.05 2.10796 -1.02967 0
M  V30 32995 C 3131.06 1.73981 0.0254368 0
M  V30 32996 O 3132.24 2.00683 -0.169741 0
M  V30 32997 C 3129.3 3.41075 -0.621994 0
M  V30 32998 C 3128.37 3.91922 -1.75201 0
M  V30 32999 C 3127.6 5.15984 -1.36368 0
M  V30 33000 O 3127.82 5.69863 -0.247365 0
M  V30 33001 O 3126.76 5.60867 -2.18431 0
M  V30 33002 H 3130.58 2.30832 -1.97358 0
M  V30 33003 H 3128.17 1.09174 -1.01988 0
M  V30 33004 H 3130.05 4.19444 -0.405519 0
M  V30 33005 H 3128.72 3.22372 0.292934 0
M  V30 33006 H 3127.63 3.14676 -2.02311 0
M  V30 33007 H 3128.96 4.15078 -2.64521 0
M  V30 33008 N 3130.62 1.04444 1.18022 0
M  V30 33009 C 3131.86 0.748573 1.87725 0
M  V30 33010 C 3132.18 -0.726125 1.80976 0
M  V30 33011 O 3131.45 -1.52421 1.23064 0
M  V30 33012 H 3130.03 0.273909 0.69497 0
M  V30 33013 H 3132.7 1.32199 1.43211 0
M  V30 33014 H 3131.79 1.0568 2.93664 0
M  V30 33015 N 3132.09 -1.34317 0.824418 0
M  V30 33016 C 3133.06 -2.27802 0.252736 0
M  V30 33017 C 3134.06 -1.5035 -0.570228 0
M  V30 33018 O 3135.25 -1.69867 -0.386115 0
M  V30 33019 C 3132.38 -3.34733 -0.645516 0
M  V30 33020 H 3133.57 -2.79876 1.07747 0
M  V30 33021 H 3131.12 -1.44474 0.596393 0
M  V30 33022 H 3131.86 -2.87876 -1.49325 0
M  V30 33023 H 3131.64 -3.92059 -0.0568789 0
M  V30 33024 H 3133.13 -4.04462 -1.03925 0
M  V30 33025 N 3133.57 -0.579517 -1.46558 0
M  V30 33026 C 3134.48 0.158119 -2.34067 0
M  V30 33027 C 3135.5 0.889294 -1.49558 0
M  V30 33028 O 3136.67 0.853193 -1.82435 0
M  V30 33029 C 3133.74 1.16094 -3.26685 0
M  V30 33030 C 3132.8 0.43478 -4.27093 0
M  V30 33031 C 3132.03 1.38983 -5.15286 0
M  V30 33032 O 3132.26 2.62615 -5.06349 0
M  V30 33033 O 3131.19 0.902149 -5.95101 0
M  V30 33034 H 3135.02 -0.560286 -2.98487 0
M  V30 33035 H 3132.6 -0.339943 -1.45481 0
M  V30 33036 H 3134.48 1.73925 -3.83833 0
M  V30 33037 H 3133.16 1.86087 -2.64865 0
M  V30 33038 H 3132.06 -0.185289 -3.73641 0
M  V30 33039 H 3133.4 -0.224118 -4.91689 0
M  V30 33040 N 3135.05 1.54376 -0.317127 0
M  V30 33041 C 3135.98 2.27061 0.544583 0
M  V30 33042 C 3136.96 1.27613 1.12467 0
M  V30 33043 O 3138.15 1.56415 1.151 0
M  V30 33044 C 3135.28 3.02356 1.70874 0
M  V30 33045 C 3134.23 4.09087 1.25826 0
M  V30 33046 C 3133.56 4.72187 2.50886 0
M  V30 33047 C 3134.86 5.20932 0.377784 0
M  V30 33048 H 3136.55 2.99336 -0.0616898 0
M  V30 33049 H 3134.1 1.43966 -0.0311101 0
M  V30 33050 H 3136.05 3.51931 2.3178 0
M  V30 33051 H 3134.77 2.27686 2.34151 0
M  V30 33052 H 3133.43 3.60385 0.672164 0
M  V30 33053 H 3133.08 3.94139 3.12511 0
M  V30 33054 H 3132.78 5.44279 2.21438 0
M  V30 33055 H 3134.3 5.24533 3.12566 0
M  V30 33056 H 3135.72 5.66303 0.892957 0
M  V30 33057 H 3134.12 5.99841 0.176368 0
M  V30 33058 H 3135.19 4.8126 -0.593028 0
M  V30 33059 N 3136.53 0.0451655 1.57535 0
M  V30 33060 C 3137.77 -0.630887 1.92737 0
M  V30 33061 C 3138.11 -1.70848 0.923295 0
M  V30 33062 O 3137.38 -1.94431 -0.051617 0
M  V30 33063 C 3137.67 -1.23253 3.3835 0
M  V30 33064 C 3137.52 -0.163411 4.49503 0
M  V30 33065 C 3138.84 -2.14592 3.84237 0
M  V30 33066 H 3135.96 -0.227871 0.700888 0
M  V30 33067 H 3138.6 0.105704 1.89706 0
M  V30 33068 H 3136.75 -1.86031 3.41064 0
M  V30 33069 H 3138.42 0.468161 4.58918 0
M  V30 33070 H 3136.66 0.509242 4.30801 0
M  V30 33071 H 3137.33 -0.624286 5.48458 0
M  V30 33072 H 3139.81 -1.61783 3.83361 0
M  V30 33073 H 3138.69 -2.53635 4.86786 0
M  V30 33074 H 3138.95 -3.0436 3.20652 0
M  V30 33075 N 3138.01 -1.5594 -0.228159 0
M  V30 33076 C 3138.95 -1.92721 -1.30236 0
M  V30 33077 C 3139.95 -0.80845 -1.48864 0
M  V30 33078 O 3141.15 -0.993231 -1.50116 0
M  V30 33079 H 3137.53 -0.61235 -0.436499 0
M  V30 33080 H 3139.5 -2.82368 -0.964916 0
M  V30 33081 C 3138.25 -2.25458 -2.64696 0
M  V30 33082 H 3137.57 -3.11054 -2.51168 0
M  V30 33083 H 3139.01 -2.55083 -3.38687 0
M  V30 33084 C 3137.47 -1.0774 -3.19208 0
M  V30 33085 O 3138 -0.33509 -4.003 0
M  V30 33086 N 3136.21 -0.862986 -2.7749 0
M  V30 33087 H 3135.75 -1.46834 -2.11654 0
M  V30 33088 H 3135.71 -0.0770672 -3.14306 0
M  V30 33089 N 3139.48 0.494597 -1.49638 0
M  V30 33090 C 3140.9 0.826337 -1.36542 0
M  V30 33091 C 3141.1 1.9742 -0.403421 0
M  V30 33092 O 3140.16 2.51976 0.16257 0
M  V30 33093 C 3141.47 1.16052 -2.77403 0
M  V30 33094 C 3143.02 1.26835 -2.8615 0
M  V30 33095 C 3143.49 1.63579 -4.27792 0
M  V30 33096 N 3144.98 1.70616 -4.30633 0
M  V30 33097 C 3145.72 2.00504 -5.37202 0
M  V30 33098 N 3145.21 2.28573 -6.54008 0
M  V30 33099 N 3147.01 2.01809 -5.24623 0
M  V30 33100 H 3139.16 -0.262227 -2.10775 0
M  V30 33101 H 3141.42 -0.0547401 -0.946418 0
M  V30 33102 H 3141.13 0.390373 -3.49527 0
M  V30 33103 H 3141 2.10243 -3.13173 0
M  V30 33104 H 3143.39 2.02921 -2.1426 0
M  V30 33105 H 3143.47 0.306795 -2.53954 0
M  V30 33106 H 3143.11 0.880419 -5.00211 0
M  V30 33107 H 3143.04 2.60846 -4.57457 0
M  V30 33108 H 3145.53 1.51059 -3.46395 0
M  V30 33109 H 3145.85 2.50585 -7.31045 0
M  V30 33110 H 3144.19 2.26015 -6.57223 0
M  V30 33111 H 3147.38 1.79362 -4.32374 0
M  V30 33112 H 3147.56 2.24768 -6.07769 0
M  V30 33113 N 3140.96 1.3882 0.746109 0
M  V30 33114 C 3142.21 1.34752 1.50083 0
M  V30 33115 C 3142.52 -0.0574442 1.95516 0
M  V30 33116 O 3143.73 -0.220682 2.70602 0
M  V30 33117 C 3142.19 2.3667 2.71137 0
M  V30 33118 C 3141.79 3.82825 2.32699 0
M  V30 33119 C 3143.54 2.41659 3.49001 0
M  V30 33120 C 3141.45 4.76411 3.50409 0
M  V30 33121 H 3140.38 0.500922 0.563554 0
M  V30 33122 H 3143.03 1.64412 0.814922 0
M  V30 33123 H 3141.41 2.00064 3.41746 0
M  V30 33124 H 3142.58 4.28411 1.69708 0
M  V30 33125 H 3140.9 3.81026 1.67953 0
M  V30 33126 H 3143.49 3.08774 4.36535 0
M  V30 33127 H 3143.84 1.43775 3.90684 0
M  V30 33128 H 3144.37 2.77102 2.85411 0
M  V30 33129 H 3141.11 5.75516 3.13785 0
M  V30 33130 H 3140.63 4.35513 4.12418 0
M  V30 33131 H 3142.31 4.94783 4.16892 0
M  V30 33132 N 3142.44 -0.975103 1.23812 0
M  V30 33133 C 3143.85 -1.53169 1.06753 0
M  V30 33134 C 3144.2 -1.92804 -0.363441 0
M  V30 33135 O 3143.33 -1.76585 -1.25086 0
M  V30 33136 C 3143.92 -2.78339 1.93166 0
M  V30 33137 C 3142.48 -3.30379 1.80351 0
M  V30 33138 C 3141.63 -2.03335 1.88548 0
M  V30 33139 H 3144.58 -0.794206 1.37397 0
M  V30 33140 H 3144.6 -3.51393 1.45957 0
M  V30 33141 H 3144.11 -2.4946 2.97307 0
M  V30 33142 H 3142.21 -3.64126 0.790141 0
M  V30 33143 H 3142.33 -3.99779 2.64033 0
M  V30 33144 H 3140.69 -2.17711 1.3219 0
M  V30 33145 H 3141.47 -1.7683 2.94255 0
M  V30 33146 N 3143.92 -1.05068 -1.17467 0
M  V30 33147 C 3144.88 -0.654832 -2.19647 0
M  V30 33148 C 3145.88 0.293035 -1.58107 0
M  V30 33149 O 3147.07 0.0770754 -1.74029 0
M  V30 33150 C 3144.2 0.0383838 -3.40878 0
M  V30 33151 H 3145.4 -1.5592 -2.56182 0
M  V30 33152 H 3142.95 -0.844419 -1.31527 0
M  V30 33153 H 3143.68 0.956078 -3.09886 0
M  V30 33154 H 3143.47 -0.643029 -3.86791 0
M  V30 33155 H 3144.96 0.301494 -4.1651 0
M  V30 33156 N 3145.4 1.33878 -0.831529 0
M  V30 33157 C 3146.31 2.33135 -0.261729 0
M  V30 33158 C 3147.32 1.63017 0.608401 0
M  V30 33159 O 3148.5 1.94724 0.514263 0
M  V30 33160 C 3145.56 3.42149 0.559897 0
M  V30 33161 C 3144.62 4.28002 -0.333644 0
M  V30 33162 C 3143.86 5.31809 0.448863 0
M  V30 33163 O 3144.08 5.45058 1.68131 0
M  V30 33164 O 3143.01 6.0165 -0.173302 0
M  V30 33165 H 3146.84 2.83715 -1.08348 0
M  V30 33166 H 3144.43 1.37089 -0.593873 0
M  V30 33167 H 3146.31 4.08693 1.02705 0
M  V30 33168 H 3144.98 2.93798 1.35883 0
M  V30 33169 H 3143.89 3.64351 -0.84848 0
M  V30 33170 H 3145.22 4.79816 -1.09715 0
M  V30 33171 N 3146.87 0.587281 1.46249 0
M  V30 33172 C 3148.15 0.00753619 1.95599 0
M  V30 33173 C 3148.53 -1.45454 1.52991 0
M  V30 33174 O 3147.88 -2.14674 0.782768 0
M  V30 33175 C 3148.09 0.184371 3.48513 0
M  V30 33176 C 3149.44 0.0545718 4.24565 0
M  V30 33177 O 3150.46 0.113441 3.56019 0
M  V30 33178 O 3149.32 -0.0773115 5.46445 0
M  V30 33179 H 3146.41 -0.047235 0.82565 0
M  V30 33180 H 3148.96 0.655921 1.56511 0
M  V30 33181 H 3147.73 1.2006 3.72426 0
M  V30 33182 H 3147.36 -0.500232 3.94441 0
M  V30 33183 N 3148.35 -1.54206 0.325309 0
M  V30 33184 C 3149.29 -2.20642 -0.582446 0
M  V30 33185 C 3150.26 -1.18407 -1.11439 0
M  V30 33186 O 3151.45 -1.47153 -1.17807 0
M  V30 33187 C 3148.57 -2.86949 -1.79939 0
M  V30 33188 C 3147.62 -4.02918 -1.39854 0
M  V30 33189 S 3148.45 -5.3374 -0.433766 0
M  V30 33190 C 3149.61 -6.03542 -1.65795 0
M  V30 33191 H 3149.84 -2.97294 -0.0181078 0
M  V30 33192 H 3147.38 -1.54012 0.109392 0
M  V30 33193 H 3149.33 -3.25773 -2.49764 0
M  V30 33194 H 3147.99 -2.10096 -2.33492 0
M  V30 33195 H 3147.19 -4.48183 -2.30539 0
M  V30 33196 H 3146.79 -3.65776 -0.779972 0
M  V30 33197 H 3149.08 -6.25827 -2.59513 0
M  V30 33198 H 3150.02 -6.97026 -1.24744 0
M  V30 33199 H 3150.43 -5.33473 -1.84572 0
M  V30 33200 N 3149.83 -0.0535194 -1.57509 0
M  V30 33201 C 3150.78 0.937893 -2.12853 0
M  V30 33202 C 3151.77 1.32065 -1.0609 0
M  V30 33203 O 3152.98 1.30003 -1.24496 0
M  V30 33204 H 3149.35 0.32033 -0.680362 0
M  V30 33205 H 3151.33 0.446025 -2.95048 0
M  V30 33206 C 3150.07 2.20259 -2.69038 0
M  V30 33207 H 3149.4 1.91686 -3.50851 0
M  V30 33208 H 3150.84 2.87782 -3.1138 0
M  V30 33209 C 3149.3 2.94885 -1.62925 0
M  V30 33210 O 3149.83 3.87912 -1.04341 0
M  V30 33211 N 3148.03 2.57658 -1.34389 0
M  V30 33212 H 3147.58 1.82084 -1.82217 0
M  V30 33213 H 3147.54 3.07896 -0.636203 0
M  V30 33214 N 3151.31 1.56059 0.219886 0
M  V30 33215 C 3152.27 1.9172 1.25603 0
M  V30 33216 C 3153.27 0.795937 1.39719 0
M  V30 33217 O 3154.46 1.06367 1.37956 0
M  V30 33218 C 3151.59 2.16948 2.62957 0
M  V30 33219 H 3152.79 2.84393 0.951859 0
M  V30 33220 H 3150.34 1.49366 0.460372 0
M  V30 33221 H 3151.08 1.26831 2.9847 0
M  V30 33222 H 3150.86 2.98633 2.54088 0
M  V30 33223 H 3152.35 2.45628 3.37723 0
M  V30 33224 N 3152.79 -0.486655 1.49898 0
M  V30 33225 C 3154.03 -1.23984 1.60107 0
M  V30 33226 C 3154.36 -1.92261 0.294262 0
M  V30 33227 O 3153.62 -1.8202 -0.718844 0
M  V30 33228 C 3153.92 -2.31858 2.71986 0
M  V30 33229 C 3153.58 -1.8094 4.13003 0
M  V30 33230 C 3152.24 -1.66774 4.51376 0
M  V30 33231 C 3154.6 -1.42995 5.012 0
M  V30 33232 C 3151.92 -1.13062 5.75703 0
M  V30 33233 C 3154.28 -0.90731 6.2606 0
M  V30 33234 C 3152.94 -0.752152 6.63249 0
M  V30 33235 H 3152.21 -0.453688 0.585874 0
M  V30 33236 H 3154.86 -0.538273 1.83779 0
M  V30 33237 H 3153.16 -3.0786 2.42341 0
M  V30 33238 H 3154.86 -2.89864 2.77092 0
M  V30 33239 H 3151.45 -1.9293 3.82722 0
M  V30 33240 H 3155.63 -1.52781 4.72199 0
M  V30 33241 H 3150.89 -0.997736 6.03204 0
M  V30 33242 H 3155.06 -0.604562 6.93771 0
M  V30 33243 H 3152.69 -0.333786 7.59467 0
M  V30 33244 N 3154.27 -1.39214 -0.738737 0
M  V30 33245 C 3155.2 -1.32022 -1.86133 0
M  V30 33246 C 3156.18 -0.19454 -1.61432 0
M  V30 33247 O 3157.36 -0.374364 -1.84745 0
M  V30 33248 C 3154.49 -1.04913 -3.22042 0
M  V30 33249 C 3153.53 -2.19619 -3.65608 0
M  V30 33250 S 3154.37 -3.81873 -3.75411 0
M  V30 33251 C 3155.52 -3.56982 -5.14116 0
M  V30 33252 H 3155.76 -2.2703 -1.9195 0
M  V30 33253 H 3153.29 -1.25225 -0.903222 0
M  V30 33254 H 3155.25 -0.899561 -4.00522 0
M  V30 33255 H 3153.91 -0.115973 -3.13886 0
M  V30 33256 H 3153.1 -1.96235 -4.64228 0
M  V30 33257 H 3152.7 -2.3076 -2.94323 0
M  V30 33258 H 3154.99 -3.14015 -6.00334 0
M  V30 33259 H 3155.94 -4.55049 -5.42527 0
M  V30 33260 H 3156.35 -2.91164 -4.83615 0
M  V30 33261 N 3155.74 0.968523 -1.24328 0
M  V30 33262 C 3156.68 2.06173 -0.978157 0
M  V30 33263 C 3157.65 1.62363 0.0877822 0
M  V30 33264 O 3158.84 1.88436 -0.0489803 0
M  V30 33265 C 3155.97 3.35339 -0.475943 0
M  V30 33266 C 3155.01 3.981 -1.5303 0
M  V30 33267 S 3155.84 4.35836 -3.11139 0
M  V30 33268 C 3157 5.6814 -2.62618 0
M  V30 33269 H 3157.23 2.28345 -1.90384 0
M  V30 33270 H 3154.77 1.10632 -1.07703 0
M  V30 33271 H 3156.72 4.10047 -0.192811 0
M  V30 33272 H 3155.39 3.11156 0.429012 0
M  V30 33273 H 3154.58 4.91185 -1.12931 0
M  V30 33274 H 3154.18 3.29819 -1.7634 0
M  V30 33275 H 3156.47 6.45621 -2.05378 0
M  V30 33276 H 3157.42 6.13095 -3.54288 0
M  V30 33277 H 3157.82 5.26709 -2.03072 0
M  V30 33278 N 3157.22 1.0569 1.16908 0
M  V30 33279 C 3158.17 0.656301 2.23149 0
M  V30 33280 C 3159.16 -0.324844 1.66256 0
M  V30 33281 O 3160.37 -0.190365 1.78991 0
M  V30 33282 H 3156.74 0.194083 0.726523 0
M  V30 33283 H 3158.72 1.56235 2.5423 0
M  V30 33284 C 3157.46 0.0523042 3.47661 0
M  V30 33285 H 3156.79 0.798368 3.91748 0
M  V30 33286 H 3158.23 -0.190551 4.23572 0
M  V30 33287 C 3156.69 -1.20243 3.14712 0
M  V30 33288 O 3157.22 -2.29118 3.29951 0
M  V30 33289 N 3155.42 -1.10202 2.68894 0
M  V30 33290 H 3154.97 -0.216018 2.56693 0
M  V30 33291 H 3154.93 -1.9424 2.47221 0
M  V30 33292 N 3158.7 -1.33435 0.838617 0
M  V30 33293 C 3159.92 -2.02532 0.446736 0
M  V30 33294 C 3160.35 -1.62682 -0.944246 0
M  V30 33295 O 3159.71 -0.819298 -1.61732 0
M  V30 33296 C 3159.76 -3.55988 0.574857 0
M  V30 33297 O 3158.86 -4.10465 -0.398991 0
M  V30 33298 H 3158.2 -0.63867 0.181649 0
M  V30 33299 H 3160.73 -1.7034 1.13338 0
M  V30 33300 H 3160.74 -4.05439 0.45641 0
M  V30 33301 H 3159.42 -3.84337 1.58928 0
M  V30 33302 H 3157.99 -3.72139 -0.238122 0
M  V30 33303 N 3160.18 -0.595029 -1.45935 0
M  V30 33304 C 3161.09 0.133284 -2.34221 0
M  V30 33305 C 3162.1 0.873381 -1.50493 0
M  V30 33306 O 3163.28 0.833796 -1.8333 0
M  V30 33307 C 3160.34 1.12622 -3.27898 0
M  V30 33308 C 3159.41 0.389457 -4.2753 0
M  V30 33309 C 3158.64 1.3351 -5.16731 0
M  V30 33310 O 3158.86 2.57229 -5.09106 0
M  V30 33311 O 3157.8 0.838979 -5.96024 0
M  V30 33312 H 3161.62 -0.591913 -2.97876 0
M  V30 33313 H 3159.21 -0.355354 -1.45112 0
M  V30 33314 H 3161.09 1.69844 -3.85657 0
M  V30 33315 H 3159.76 1.83267 -2.66824 0
M  V30 33316 H 3158.67 -0.224908 -3.73423 0
M  V30 33317 H 3160 -0.276255 -4.91424 0
M  V30 33318 N 3161.66 1.54031 -0.333483 0
M  V30 33319 C 3162.9 2.00744 0.266098 0
M  V30 33320 C 3163.23 1.2215 1.51359 0
M  V30 33321 O 3162.49 0.294402 1.93473 0
M  V30 33322 C 3162.78 3.51703 0.635588 0
M  V30 33323 C 3162.45 4.47962 -0.513865 0
M  V30 33324 C 3161.11 4.73999 -0.829337 0
M  V30 33325 C 3163.46 5.05099 -1.28549 0
M  V30 33326 C 3160.79 5.54429 -1.91898 0
M  V30 33327 C 3163.14 5.86716 -2.3653 0
M  V30 33328 C 3161.81 6.11052 -2.68648 0
M  V30 33329 H 3161.08 0.734574 0.0973721 0
M  V30 33330 H 3163.73 1.8591 -0.459315 0
M  V30 33331 H 3162.03 3.64316 1.44157 0
M  V30 33332 H 3163.73 3.85296 1.11122 0
M  V30 33333 H 3160.32 4.27823 -0.257915 0
M  V30 33334 H 3164.5 4.84957 -1.05502 0
M  V30 33335 H 3159.76 5.71512 -2.17218 0
M  V30 33336 H 3163.93 6.30006 -2.96758 0
M  V30 33337 H 3161.56 6.73162 -3.53209 0
M  V30 33338 N 3163.13 0.0618717 1.57479 0
M  V30 33339 C 3164.08 -0.926592 2.13347 0
M  V30 33340 C 3165.08 -1.31501 1.06789 0
M  V30 33341 O 3166.28 -1.29341 1.25183 0
M  V30 33342 H 3162.66 -0.316717 0.682051 0
M  V30 33343 H 3164.63 -0.430372 2.9528 0
M  V30 33344 C 3163.38 -2.18829 2.70202 0
M  V30 33345 H 3162.7 -1.89823 3.51863 0
M  V30 33346 H 3164.14 -2.86127 3.12902 0
M  V30 33347 C 3162.6 -2.94017 1.64486 0
M  V30 33348 O 3163.13 -3.87353 1.06397 0
M  V30 33349 N 3161.33 -2.56942 1.35754 0
M  V30 33350 H 3160.88 -1.81116 1.8318 0
M  V30 33351 H 3160.84 -3.07554 0.652523 0
M  V30 33352 N 3164.61 -1.56173 -0.211607 0
M  V30 33353 C 3165.54 -1.96246 -1.26529 0
M  V30 33354 C 3166.52 -0.832054 -1.48361 0
M  V30 33355 O 3167.71 -1.09513 -1.60376 0
M  V30 33356 C 3164.84 -2.28775 -2.61303 0
M  V30 33357 C 3163.79 -3.44399 -2.54112 0
M  V30 33358 C 3163.12 -3.62559 -3.93007 0
M  V30 33359 C 3164.42 -4.7908 -2.08038 0
M  V30 33360 H 3166.11 -2.84513 -0.932357 0
M  V30 33361 H 3163.66 -1.36885 -0.44706 0
M  V30 33362 H 3165.61 -2.55402 -3.35184 0
M  V30 33363 H 3164.34 -1.37372 -2.96305 0
M  V30 33364 H 3162.99 -3.17837 -1.82689 0
M  V30 33365 H 3162.64 -2.68516 -4.25333 0
M  V30 33366 H 3162.34 -4.40334 -3.89075 0
M  V30 33367 H 3163.87 -3.91545 -4.68535 0
M  V30 33368 H 3165.28 -5.04846 -2.71667 0
M  V30 33369 H 3163.68 -5.60208 -2.15144 0
M  V30 33370 H 3164.75 -4.73769 -1.03298 0
M  V30 33371 N 3166.09 0.478699 -1.50154 0
M  V30 33372 C 3167.32 1.25948 -1.64779 0
M  V30 33373 C 3167.74 1.85221 -0.327827 0
M  V30 33374 O 3167.1 1.6693 0.707388 0
M  V30 33375 C 3167.15 2.34947 -2.73555 0
M  V30 33376 O 3166.25 3.39393 -2.34279 0
M  V30 33377 H 3165.59 0.370867 -0.550775 0
M  V30 33378 H 3168.12 0.570571 -1.96483 0
M  V30 33379 H 3168.13 2.80375 -2.96402 0
M  V30 33380 H 3166.81 1.91175 -3.69358 0
M  V30 33381 H 3165.38 2.99729 -2.21849 0
M  V30 33382 N 3167.57 1.39603 0.731343 0
M  V30 33383 C 3168.5 1.41355 1.85852 0
M  V30 33384 C 3169.48 0.27643 1.67839 0
M  V30 33385 O 3170.66 0.48278 1.88103 0
M  V30 33386 C 3167.79 1.25989 3.23642 0
M  V30 33387 C 3166.75 2.37138 3.563 0
M  V30 33388 C 3166.07 2.06859 4.93065 0
M  V30 33389 C 3167.37 3.79458 3.589 0
M  V30 33390 H 3169.07 2.35684 1.84644 0
M  V30 33391 H 3166.61 1.13444 0.886935 0
M  V30 33392 H 3168.57 1.25834 4.02174 0
M  V30 33393 H 3167.29 0.281292 3.25386 0
M  V30 33394 H 3165.95 2.36516 2.80099 0
M  V30 33395 H 3165.6 1.07429 4.91394 0
M  V30 33396 H 3165.3 2.81315 5.15883 0
M  V30 33397 H 3166.82 2.0836 5.7395 0
M  V30 33398 H 3168.24 3.81989 4.27501 0
M  V30 33399 H 3166.63 4.53304 3.93238 0
M  V30 33400 H 3167.7 4.10173 2.58624 0
M  V30 33401 N 3169.05 -0.961916 1.2484 0
M  V30 33402 C 3169.98 -2.07512 1.07056 0
M  V30 33403 C 3170.96 -1.7009 -0.0182166 0
M  V30 33404 O 3172.14 -1.9362 0.149949 0
M  V30 33405 C 3169.27 -3.40563 0.680753 0
M  V30 33406 C 3168.23 -3.91964 1.71895 0
M  V30 33407 C 3167.55 -5.21426 1.18404 0
M  V30 33408 C 3168.85 -4.19156 3.11618 0
M  V30 33409 H 3170.55 -2.22647 2.00171 0
M  V30 33410 H 3168.09 -1.06989 0.963818 0
M  V30 33411 H 3170.05 -4.17883 0.543313 0
M  V30 33412 H 3168.77 -3.25345 -0.286092 0
M  V30 33413 H 3167.43 -3.16806 1.84471 0
M  V30 33414 H 3167.08 -5.02571 0.207632 0
M  V30 33415 H 3166.78 -5.56785 1.87788 0
M  V30 33416 H 3168.3 -6.01349 1.05884 0
M  V30 33417 H 3169.71 -4.8716 3.02238 0
M  V30 33418 H 3168.11 -4.65756 3.78406 0
M  V30 33419 H 3169.18 -3.25709 3.59224 0
M  V30 33420 N 3170.52 -1.06308 -1.16346 0
M  V30 33421 C 3171.49 -0.678092 -2.1894 0
M  V30 33422 C 3172.49 0.276249 -1.58409 0
M  V30 33423 O 3173.68 0.0586129 -1.74101 0
M  V30 33424 C 3170.81 0.00222692 -3.409 0
M  V30 33425 H 3172 -1.58628 -2.54514 0
M  V30 33426 H 3169.56 -0.858321 -1.30624 0
M  V30 33427 H 3170.29 0.923157 -3.10883 0
M  V30 33428 H 3170.08 -0.684017 -3.86088 0
M  V30 33429 H 3171.57 0.257301 -4.16807 0
M  V30 33430 N 3172 1.32989 -0.845682 0
M  V30 33431 C 3173.41 1.79866 -0.500512 0
M  V30 33432 C 3173.76 1.69914 0.980997 0
M  V30 33433 O 3172.89 1.25242 1.76475 0
M  V30 33434 C 3173.48 3.26579 -0.901737 0
M  V30 33435 C 3172.04 3.71447 -0.608602 0
M  V30 33436 C 3171.19 2.54273 -1.10637 0
M  V30 33437 H 3174.14 1.20414 -1.03374 0
M  V30 33438 H 3174.16 3.79895 -0.2145 0
M  V30 33439 H 3173.67 3.3379 -1.98004 0
M  V30 33440 H 3171.78 3.69758 0.459351 0
M  V30 33441 H 3171.89 4.64629 -1.16861 0
M  V30 33442 H 3170.25 2.49189 -0.526969 0
M  V30 33443 H 3171.04 2.64243 -2.19159 0
M  V30 33444 N 3173.48 0.60276 1.45618 0
M  V30 33445 C 3174.72 0.0990123 2.0416 0
M  V30 33446 C 3175.08 -1.24502 1.46162 0
M  V30 33447 O 3176.29 -1.8392 1.96028 0
M  V30 33448 C 3174.56 0.0552497 3.57357 0
M  V30 33449 S 3176.12 -0.388009 4.37081 0
M  V30 33450 H 3172.93 0.0472179 0.70943 0
M  V30 33451 H 3175.54 0.799776 1.78392 0
M  V30 33452 H 3174.24 1.03704 3.97081 0
M  V30 33453 H 3173.77 -0.667659 3.87693 0
M  V30 33454 H 3175.79 -1.63857 4.68365 0
M  V30 33455 N 3174.96 -1.53852 0.341647 0
M  V30 33456 C 3175.89 -2.27898 -0.508391 0
M  V30 33457 C 3176.87 -1.29386 -1.10423 0
M  V30 33458 O 3178.05 -1.58226 -1.12597 0
M  V30 33459 C 3175.18 -3.05036 -1.66042 0
M  V30 33460 C 3174.14 -4.11037 -1.19302 0
M  V30 33461 C 3173.46 -4.76119 -2.43342 0
M  V30 33462 C 3174.76 -5.21467 -0.29486 0
M  V30 33463 H 3176.46 -2.992 0.109304 0
M  V30 33464 H 3174 -1.43899 0.05401 0
M  V30 33465 H 3175.96 -3.55574 -2.26152 0
M  V30 33466 H 3174.68 -2.31383 -2.30499 0
M  V30 33467 H 3173.34 -3.61409 -0.614745 0
M  V30 33468 H 3172.99 -3.99061 -3.06201 0
M  V30 33469 H 3172.69 -5.47733 -2.12751 0
M  V30 33470 H 3174.21 -5.29439 -3.04181 0
M  V30 33471 H 3175.63 -5.67652 -0.80275 0
M  V30 33472 H 3174.02 -6.00045 -0.0809166 0
M  V30 33473 H 3175.09 -4.80256 0.669517 0
M  V30 33474 N 3176.44 -0.0702223 -1.57443 0
M  V30 33475 C 3177.66 0.611775 -1.98172 0
M  V30 33476 C 3178.09 1.62449 -0.948259 0
M  V30 33477 O 3177.44 1.81094 0.0863235 0
M  V30 33478 C 3177.49 1.25824 -3.37936 0
M  V30 33479 O 3176.6 2.37408 -3.37211 0
M  V30 33480 H 3175.94 0.157466 -0.645059 0
M  V30 33481 H 3178.47 -0.144271 -2.04091 0
M  V30 33482 H 3178.48 1.60545 -3.75086 0
M  V30 33483 H 3177.15 0.516162 -4.12685 0
M  V30 33484 H 3175.73 2.04492 -3.11829 0
M  V30 33485 N 3177.91 1.56283 0.203321 0
M  V30 33486 C 3178.84 1.96914 1.25487 0
M  V30 33487 C 3179.83 0.83991 1.47917 0
M  V30 33488 O 3181.01 1.10362 1.59793 0
M  V30 33489 C 3178.14 2.30157 2.60086 0
M  V30 33490 C 3177.09 3.45742 2.52282 0
M  V30 33491 C 3176.42 3.64638 3.91079 0
M  V30 33492 C 3177.72 4.80176 2.05494 0
M  V30 33493 H 3179.41 2.85003 0.917256 0
M  V30 33494 H 3176.96 1.3712 0.439794 0
M  V30 33495 H 3178.91 2.57176 3.33824 0
M  V30 33496 H 3177.64 1.38942 2.95572 0
M  V30 33497 H 3176.3 3.18801 1.81001 0
M  V30 33498 H 3175.94 2.70767 4.23903 0
M  V30 33499 H 3175.64 4.42391 3.86735 0
M  V30 33500 H 3177.17 3.94024 4.66452 0
M  V30 33501 H 3178.58 5.0628 2.68986 0
M  V30 33502 H 3176.98 5.61341 2.1217 0
M  V30 33503 H 3178.05 4.74311 1.00784 0
M  V30 33504 N 3179.39 -0.470729 1.50406 0
M  V30 33505 C 3180.64 -1.22037 1.61094 0
M  V30 33506 C 3180.96 -1.92463 0.313521 0
M  V30 33507 O 3180.23 -1.84122 -0.669011 0
M  V30 33508 H 3178.81 -0.45345 0.593626 0
M  V30 33509 H 3181.47 -0.542952 1.87184 0
M  V30 33510 H 3180.57 -1.96808 2.42225 0
M  V30 33511 N 3180.87 -1.39989 -0.72393 0
M  V30 33512 C 3181.8 -1.33988 -1.84722 0
M  V30 33513 C 3182.78 -0.211651 -1.61217 0
M  V30 33514 O 3183.97 -0.393938 -1.84338 0
M  V30 33515 C 3181.09 -1.08322 -3.20911 0
M  V30 33516 C 3180.14 -2.23485 -3.63259 0
M  V30 33517 S 3180.97 -3.85833 -3.7134 0
M  V30 33518 C 3182.13 -3.62414 -5.10301 0
M  V30 33519 H 3182.36 -2.29053 -1.89531 0
M  V30 33520 H 3179.89 -1.26176 -0.889889 0
M  V30 33521 H 3181.85 -0.941991 -3.99546 0
M  V30 33522 H 3180.51 -0.149259 -3.13745 0
M  V30 33523 H 3179.71 -2.01147 -4.62121 0
M  V30 33524 H 3179.31 -2.33868 -2.91859 0
M  V30 33525 H 3181.6 -3.20365 -5.9697 0
M  V30 33526 H 3182.54 -4.60778 -5.37671 0
M  V30 33527 H 3182.95 -2.96277 -4.805 0
M  V30 33528 N 3182.35 0.955282 -1.25348 0
M  V30 33529 C 3183.57 1.73981 -1.12895 0
M  V30 33530 C 3184 1.8547 0.313423 0
M  V30 33531 O 3183.36 1.33467 1.22704 0
M  V30 33532 C 3183.41 3.13187 -1.78735 0
M  V30 33533 O 3182.51 3.9837 -1.06655 0
M  V30 33534 H 3181.85 0.534334 -0.394187 0
M  V30 33535 H 3184.38 1.19745 -1.65899 0
M  V30 33536 H 3184.39 3.6365 -1.84994 0
M  V30 33537 H 3183.07 3.04141 -2.83674 0
M  V30 33538 H 3181.64 3.56836 -1.08272 0
M  V30 33539 N 3183.83 1.06924 1.1578 0
M  V30 33540 C 3184.74 0.696988 2.24007 0
M  V30 33541 C 3185.75 -0.289832 1.71569 0
M  V30 33542 O 3186.93 -0.13755 2.0093 0
M  V30 33543 C 3183.99 0.0958504 3.46567 0
M  V30 33544 C 3183.06 1.13535 4.14015 0
M  V30 33545 C 3182.29 0.562806 5.30724 0
M  V30 33546 O 3182.51 -0.62249 5.66993 0
M  V30 33547 O 3181.45 1.30559 5.87569 0
M  V30 33548 H 3185.27 1.59942 2.58171 0
M  V30 33549 H 3182.86 0.84191 1.23419 0
M  V30 33550 H 3184.74 -0.237333 4.20731 0
M  V30 33551 H 3183.41 -0.779972 3.14163 0
M  V30 33552 H 3182.32 1.52082 3.41792 0
M  V30 33553 H 3183.65 1.98292 4.5049 0
M  V30 33554 N 3185.31 -1.32538 0.852723 0
M  V30 33555 C 3186.55 -1.96584 0.451394 0
M  V30 33556 C 3186.87 -1.68239 -0.997743 0
M  V30 33557 O 3188.07 -2.26008 -1.50441 0
M  V30 33558 C 3186.53 -3.51865 0.756252 0
M  V30 33559 C 3186.14 -3.89071 2.22099 0
M  V30 33560 C 3187.88 -4.22392 0.422553 0
M  V30 33561 C 3185.79 -5.37388 2.46917 0
M  V30 33562 H 3184.72 -0.73571 0.165065 0
M  V30 33563 H 3187.37 -1.5096 1.04324 0
M  V30 33564 H 3185.75 -3.95889 0.0938683 0
M  V30 33565 H 3186.93 -3.56062 2.925 0
M  V30 33566 H 3185.24 -3.31563 2.51902 0
M  V30 33567 H 3187.84 -5.31486 0.585424 0
M  V30 33568 H 3188.18 -4.11418 -0.635665 0
M  V30 33569 H 3188.71 -3.83944 1.04075 0
M  V30 33570 H 3185.45 -5.5338 3.51356 0
M  V30 33571 H 3184.97 -5.71809 1.81092 0
M  V30 33572 H 3186.65 -6.04446 2.30769 0
M  V30 33573 N 3186.78 -0.610474 -1.45296 0
M  V30 33574 C 3188.01 -0.11145 -2.071 0
M  V30 33575 C 3188.43 1.19622 -1.45163 0
M  V30 33576 O 3187.79 1.72902 -0.545398 0
M  V30 33577 C 3187.84 0.0116738 -3.60598 0
M  V30 33578 O 3186.94 1.06115 -3.98514 0
M  V30 33579 H 3186.28 -0.0753756 -0.659708 0
M  V30 33580 H 3188.81 -0.841301 -1.86503 0
M  V30 33581 H 3188.82 0.208957 -4.07465 0
M  V30 33582 H 3187.5 -0.943147 -4.05065 0
M  V30 33583 H 3186.08 0.840094 -3.63314 0
M  V30 33584 N 3188.26 1.53669 -0.349801 0
M  V30 33585 C 3189.51 2.00618 0.244308 0
M  V30 33586 C 3189.83 1.23916 1.50565 0
M  V30 33587 O 3189.1 0.34805 1.92783 0
M  V30 33588 H 3187.68 0.741155 0.0932662 0
M  V30 33589 H 3190.34 1.89088 -0.4724 0
M  V30 33590 H 3189.44 3.0835 0.482378 0
M  V30 33591 N 3189.74 0.0785709 1.57404 0
M  V30 33592 C 3190.99 -0.587826 1.93362 0
M  V30 33593 C 3191.31 -1.69739 0.959886 0
M  V30 33594 O 3190.58 -1.95898 0.00915174 0
M  V30 33595 H 3189.16 -0.220129 0.713829 0
M  V30 33596 H 3191.82 0.13802 1.94411 0
M  V30 33597 H 3190.92 -1.00875 2.95348 0
M  V30 33598 N 3191.22 -1.56389 -0.19503 0
M  V30 33599 C 3192.15 -1.91078 -1.26577 0
M  V30 33600 C 3193.16 -0.801461 -1.41705 0
M  V30 33601 O 3194.35 -1.07987 -1.4213 0
M  V30 33602 C 3191.45 -2.12763 -2.6379 0
M  V30 33603 C 3190.62 -3.43909 -2.70269 0
M  V30 33604 C 3189.68 -3.54705 -3.88679 0
M  V30 33605 O 3188.71 -4.27527 -3.75779 0
M  V30 33606 N 3189.91 -2.87798 -5.04136 0
M  V30 33607 H 3192.68 -2.83522 -0.971351 0
M  V30 33608 H 3190.24 -1.57257 -0.384948 0
M  V30 33609 H 3192.23 -2.17273 -3.4143 0
M  V30 33610 H 3190.8 -1.26817 -2.8572 0
M  V30 33611 H 3190.02 -3.51265 -1.78903 0
M  V30 33612 H 3191.31 -4.30252 -2.71589 0
M  V30 33613 H 3190.71 -2.28461 -5.17515 0
M  V30 33614 H 3189.26 -2.97936 -5.79722 0
M  V30 33615 N 3192.7 0.462746 -1.50653 0
M  V30 33616 C 3193.64 1.55968 -1.70125 0
M  V30 33617 C 3194.61 1.56987 -0.542609 0
M  V30 33618 O 3195.8 1.74389 -0.774145 0
M  V30 33619 C 3192.94 2.93884 -1.80904 0
M  V30 33620 C 3192.05 3.0259 -3.08324 0
M  V30 33621 C 3191.19 4.31471 -3.09848 0
M  V30 33622 C 3190.22 4.3395 -4.31687 0
M  V30 33623 N 3189.36 5.54316 -4.30904 0
M  V30 33624 H 3194.2 1.3867 -2.6377 0
M  V30 33625 H 3191.74 0.674068 -1.30747 0
M  V30 33626 H 3193.7 3.73873 -1.85135 0
M  V30 33627 H 3192.33 3.09798 -0.906908 0
M  V30 33628 H 3191.38 2.15421 -3.13525 0
M  V30 33629 H 3192.69 3.00281 -3.98287 0
M  V30 33630 H 3191.84 5.19814 -3.12854 0
M  V30 33631 H 3190.58 4.364 -2.17729 0
M  V30 33632 H 3189.59 3.44003 -4.28885 0
M  V30 33633 H 3190.81 4.30706 -5.25042 0
M  V30 33634 H 3188.76 5.60014 -3.41643 0
M  V30 33635 H 3188.68 5.53783 -5.14646 0
M  V30 33636 H 3189.94 6.44761 -4.38068 0
M  V30 33637 N 3194.17 1.40371 0.716495 0
M  V30 33638 C 3195.4 1.42105 1.51066 0
M  V30 33639 C 3195.82 0.0222717 1.88087 0
M  V30 33640 O 3195.18 -0.969421 1.53205 0
M  V30 33641 C 3195.23 2.31709 2.76303 0
M  V30 33642 O 3194.33 1.75971 3.72972 0
M  V30 33643 H 3193.68 0.483137 0.455494 0
M  V30 33644 H 3196.21 1.8459 0.882481 0
M  V30 33645 H 3196.22 2.46864 3.24842 0
M  V30 33646 H 3194.89 3.33354 2.48692 0
M  V30 33647 H 3193.47 1.70157 3.31815 0
M  V30 33648 N 3195.65 -0.948621 1.25853 0
M  V30 33649 C 3196.62 -2.02779 1.06834 0
M  V30 33650 C 3197.62 -1.60789 0.0191299 0
M  V30 33651 O 3198.81 -1.72221 0.261866 0
M  V30 33652 C 3195.94 -3.35152 0.623377 0
M  V30 33653 H 3197.13 -2.21083 2.02639 0
M  V30 33654 H 3194.68 -1.12655 1.08345 0
M  V30 33655 H 3195.42 -3.22544 -0.336997 0
M  V30 33656 H 3195.2 -3.66979 1.38089 0
M  V30 33657 H 3196.69 -4.1445 0.511927 0
M  V30 33658 N 3197.13 -1.07536 -1.15212 0
M  V30 33659 C 3198.06 -0.718876 -2.22159 0
M  V30 33660 C 3199.04 0.294561 -1.6753 0
M  V30 33661 O 3200.23 0.166897 -1.93482 0
M  V30 33662 C 3197.36 -0.117897 -3.471 0
M  V30 33663 C 3196.31 -1.0587 -4.14699 0
M  V30 33664 C 3195.64 -0.320378 -5.33739 0
M  V30 33665 C 3196.94 -2.39311 -4.6425 0
M  V30 33666 H 3198.63 -1.61302 -2.52234 0
M  V30 33667 H 3196.18 -0.777014 -1.21237 0
M  V30 33668 H 3198.13 0.143445 -4.21156 0
M  V30 33669 H 3196.85 0.811333 -3.16362 0
M  V30 33670 H 3195.51 -1.30499 -3.42587 0
M  V30 33671 H 3195.16 0.612372 -4.99258 0
M  V30 33672 H 3194.86 -0.947483 -5.79911 0
M  V30 33673 H 3196.38 -0.0668794 -6.10563 0
M  V30 33674 H 3197.8 -2.18997 -5.29824 0
M  V30 33675 H 3196.2 -2.97633 -5.2109 0
M  V30 33676 H 3197.27 -3.01478 -3.79788 0
M  V30 33677 N 3198.61 1.32084 -0.85974 0
M  V30 33678 C 3199.86 1.97074 -0.465616 0
M  V30 33679 C 3200.18 1.68013 0.979888 0
M  V30 33680 O 3199.44 0.96356 1.70335 0
M  V30 33681 C 3199.74 3.51301 -0.657459 0
M  V30 33682 C 3199.4 4.0036 -2.0742 0
M  V30 33683 C 3198.07 4.13467 -2.46167 0
M  V30 33684 C 3200.42 4.263 -2.99863 0
M  V30 33685 C 3197.75 4.49861 -3.76619 0
M  V30 33686 C 3200.1 4.64154 -4.29819 0
M  V30 33687 C 3198.76 4.75468 -4.68494 0
M  V30 33688 H 3198.03 0.721146 -0.170381 0
M  V30 33689 H 3200.68 1.57399 -1.09077 0
M  V30 33690 H 3198.98 3.91767 0.0508949 0
M  V30 33691 H 3200.68 3.99619 -0.332486 0
M  V30 33692 H 3197.27 3.90646 -1.76334 0
M  V30 33693 H 3201.45 4.15677 -2.71157 0
M  V30 33694 H 3196.71 4.56817 -4.0636 0
M  V30 33695 H 3200.88 4.8318 -5.01508 0
M  V30 33696 H 3198.51 5.03425 -5.6962 0
M  V30 33697 N 3200.09 0.618171 1.4497 0
M  V30 33698 C 3201 -0.0960045 2.34403 0
M  V30 33699 C 3202.01 -0.849328 1.51863 0
M  V30 33700 O 3203.19 -0.804524 1.84633 0
M  V30 33701 C 3200.25 -1.07392 3.29648 0
M  V30 33702 C 3199.31 -0.321391 4.28095 0
M  V30 33703 C 3198.55 -1.25272 5.1879 0
M  V30 33704 O 3198.77 -2.49097 5.13134 0
M  V30 33705 O 3197.7 -0.744051 5.97283 0
M  V30 33706 H 3201.53 0.639228 2.96897 0
M  V30 33707 H 3199.12 0.378395 1.44529 0
M  V30 33708 H 3201 -1.63687 3.8831 0
M  V30 33709 H 3199.67 -1.78999 2.69706 0
M  V30 33710 H 3198.58 0.284288 3.73018 0
M  V30 33711 H 3199.91 0.354402 4.90922 0
M  V30 33712 N 3201.56 -1.53481 0.357946 0
M  V30 33713 C 3202.53 -2.24123 -0.479757 0
M  V30 33714 C 3203.53 -1.24641 -1.01594 0
M  V30 33715 O 3204.72 -1.48974 -0.902902 0
M  V30 33716 C 3201.85 -2.97206 -1.66978 0
M  V30 33717 H 3203.04 -2.99581 0.138272 0
M  V30 33718 H 3200.6 -1.55916 0.109511 0
M  V30 33719 H 3201.33 -2.2597 -2.32611 0
M  V30 33720 H 3201.12 -3.7019 -1.29235 0
M  V30 33721 H 3202.61 -3.50928 -2.26361 0
M  V30 33722 N 3203.04 -0.0869173 -1.5736 0
M  V30 33723 C 3204.01 0.860402 -2.12438 0
M  V30 33724 C 3205.01 1.21632 -1.05177 0
M  V30 33725 O 3206.2 1.1471 -1.311 0
M  V30 33726 C 3203.33 2.15895 -2.63822 0
M  V30 33727 H 3204.52 0.382293 -2.97453 0
M  V30 33728 H 3202.07 0.161981 -1.55458 0
M  V30 33729 H 3202.81 2.68209 -1.82303 0
M  V30 33730 H 3202.59 1.91353 -3.42237 0
M  V30 33731 H 3204.08 2.8368 -3.06457 0
M  V30 33732 N 3204.52 1.5649 0.186734 0
M  V30 33733 C 3205.94 1.50262 0.537907 0
M  V30 33734 C 3206.14 0.788446 1.85434 0
M  V30 33735 O 3205.19 0.342421 2.50167 0
M  V30 33736 C 3206.51 2.94956 0.584913 0
M  V30 33737 C 3208.05 3.05675 0.673174 0
M  V30 33738 C 3208.53 4.51797 0.751214 0
M  V30 33739 N 3210.02 4.55982 0.814519 0
M  V30 33740 C 3210.75 5.66369 0.895214 0
M  V30 33741 N 3210.25 6.86425 0.937694 0
M  V30 33742 N 3212.04 5.54302 0.933048 0
M  V30 33743 H 3204.19 2.01333 -0.676672 0
M  V30 33744 H 3206.46 0.916566 -0.242095 0
M  V30 33745 H 3206.16 3.50301 -0.313423 0
M  V30 33746 H 3206.04 3.48766 1.43674 0
M  V30 33747 H 3208.42 2.50375 1.56194 0
M  V30 33748 H 3208.51 2.54977 -0.205021 0
M  V30 33749 H 3208.15 5.07725 -0.133232 0
M  V30 33750 H 3208.08 5.00236 1.64533 0
M  V30 33751 H 3210.57 3.69538 0.790597 0
M  V30 33752 H 3210.88 7.66303 1.00001 0
M  V30 33753 H 3209.23 6.89066 0.906229 0
M  V30 33754 H 3212.42 4.5943 0.896755 0
M  V30 33755 H 3212.59 6.40355 0.992476 0
M  V30 33756 N 3206 -0.45475 1.50897 0
M  V30 33757 C 3206.91 -1.57617 1.73764 0
M  V30 33758 C 3207.92 -1.62532 0.621234 0
M  V30 33759 O 3209.1 -1.80098 0.901481 0
M  V30 33760 C 3206.17 -2.93727 1.84188 0
M  V30 33761 C 3205.23 -2.99069 3.07987 0
M  V30 33762 C 3204.46 -4.28687 3.17904 0
M  V30 33763 O 3204.68 -5.20105 2.34194 0
M  V30 33764 O 3203.62 -4.39957 4.10757 0
M  V30 33765 H 3207.44 -1.4124 2.68858 0
M  V30 33766 H 3205.03 -0.63596 1.35188 0
M  V30 33767 H 3206.91 -3.74538 1.9313 0
M  V30 33768 H 3205.58 -3.10268 0.922797 0
M  V30 33769 H 3204.49 -2.17277 3.04535 0
M  V30 33770 H 3205.82 -2.87469 3.99528 0
M  V30 33771 N 3207.48 -1.40749 -0.709041 0
M  V30 33772 C 3208.72 -1.39587 -1.47116 0
M  V30 33773 C 3209.06 -0.000279458 -1.942 0
M  V30 33774 O 3208.33 0.969563 -1.68611 0
M  V30 33775 C 3208.61 -2.39103 -2.69261 0
M  V30 33776 C 3208.47 -3.87714 -2.2803 0
M  V30 33777 C 3209.79 -2.36062 -3.71434 0
M  V30 33778 H 3206.9 -0.508346 -0.533623 0
M  V30 33779 H 3209.55 -1.71931 -0.808687 0
M  V30 33780 H 3207.7 -2.11653 -3.25784 0
M  V30 33781 H 3209.37 -4.26017 -1.76938 0
M  V30 33782 H 3207.61 -4.03231 -1.59959 0
M  V30 33783 H 3208.28 -4.52871 -3.15613 0
M  V30 33784 H 3210.76 -2.60391 -3.24555 0
M  V30 33785 H 3209.63 -3.07729 -4.54526 0
M  V30 33786 H 3209.9 -1.37451 -4.2019 0
M  V30 33787 N 3208.96 0.941933 -1.26354 0
M  V30 33788 C 3210.18 1.72243 -1.14629 0
M  V30 33789 C 3210.6 1.86424 0.298555 0
M  V30 33790 O 3209.96 1.37108 1.20447 0
M  V30 33791 C 3210.01 3.12959 -1.80938 0
M  V30 33792 O 3209.73 2.99457 -3.19777 0
M  V30 33793 C 3211.23 4.07228 -1.75157 0
M  V30 33794 H 3208.45 0.539326 -0.39921 0
M  V30 33795 H 3210.99 1.18088 -1.6696 0
M  V30 33796 H 3209.15 3.64019 -1.32548 0
M  V30 33797 H 3209.56 3.88315 -3.52578 0
M  V30 33798 H 3211.04 5.03529 -2.26192 0
M  V30 33799 H 3211.51 4.33292 -0.717931 0
M  V30 33800 H 3212.12 3.62089 -2.23096 0
M  V30 33801 N 3210.43 1.08146 1.1464 0
M  V30 33802 C 3211.36 0.730648 2.21774 0
M  V30 33803 C 3212.34 -0.285672 1.67684 0
M  V30 33804 O 3213.53 -0.156633 1.93567 0
M  V30 33805 C 3210.66 0.136303 3.47032 0
M  V30 33806 C 3209.61 1.08067 4.14132 0
M  V30 33807 C 3208.94 0.348679 5.33562 0
M  V30 33808 C 3210.24 2.41769 4.62974 0
M  V30 33809 H 3211.93 1.62637 2.51375 0
M  V30 33810 H 3209.48 0.783432 1.20824 0
M  V30 33811 H 3211.43 -0.121108 4.21226 0
M  V30 33812 H 3210.16 -0.794544 3.16788 0
M  V30 33813 H 3208.82 1.32314 3.4189 0
M  V30 33814 H 3208.46 -0.585887 4.99576 0
M  V30 33815 H 3208.16 0.978224 5.794 0
M  V30 33816 H 3209.69 0.0992582 6.10519 0
M  V30 33817 H 3211.1 2.21804 5.28655 0
M  V30 33818 H 3209.5 3.00392 5.19504 0
M  V30 33819 H 3210.57 3.03488 3.78184 0
M  V30 33820 N 3211.91 -1.31626 0.866732 0
M  V30 33821 C 3212.87 -2.26883 0.325081 0
M  V30 33822 C 3213.87 -1.52088 -0.522106 0
M  V30 33823 O 3215.06 -1.71009 -0.331878 0
M  V30 33824 C 3212.2 -3.36617 -0.538697 0
M  V30 33825 H 3213.39 -2.76306 1.16597 0
M  V30 33826 H 3210.94 -1.42504 0.642054 0
M  V30 33827 H 3211.68 -2.92481 -1.40091 0
M  V30 33828 H 3211.46 -3.92041 0.0678804 0
M  V30 33829 H 3212.95 -4.07563 -0.910052 0
M  V30 33830 N 3213.39 -0.62585 -1.4464 0
M  V30 33831 C 3214.81 -0.29102 -1.56924 0
M  V30 33832 C 3215.01 1.20598 -1.61426 0
M  V30 33833 O 3214.06 1.98982 -1.55443 0
M  V30 33834 C 3215.37 -0.978292 -2.84341 0
M  V30 33835 C 3216.92 -0.955934 -2.98045 0
M  V30 33836 C 3217.4 -1.62357 -4.28257 0
M  V30 33837 N 3218.89 -1.58991 -4.35059 0
M  V30 33838 C 3219.62 -2.07548 -5.3452 0
M  V30 33839 N 3219.12 -2.64272 -6.40416 0
M  V30 33840 N 3220.91 -1.98208 -5.25994 0
M  V30 33841 H 3213.06 -1.59764 -1.39962 0
M  V30 33842 H 3215.33 -0.670318 -0.670357 0
M  V30 33843 H 3215.03 -2.03309 -2.86981 0
M  V30 33844 H 3214.91 -0.512792 -3.73698 0
M  V30 33845 H 3217.29 0.0903773 -2.94962 0
M  V30 33846 H 3217.37 -1.45987 -2.10051 0
M  V30 33847 H 3217.02 -2.6693 -4.321 0
M  V30 33848 H 3216.95 -1.0945 -5.151 0
M  V30 33849 H 3219.44 -1.17571 -3.59145 0
M  V30 33850 H 3219.75 -2.99069 -7.12585 0
M  V30 33851 H 3218.1 -2.6832 -6.41116 0
M  V30 33852 H 3221.29 -1.53618 -4.42175 0
M  V30 33853 H 3221.46 -2.36361 -6.03355 0
M  V30 33854 N 3214.87 1.53289 -0.36608 0
M  V30 33855 C 3216.11 2.01561 0.223788 0
M  V30 33856 C 3216.45 1.25288 1.48379 0
M  V30 33857 O 3215.72 0.346723 1.91385 0
M  V30 33858 C 3216 3.56395 0.515237 0
M  V30 33859 C 3215.86 4.4336 -0.758435 0
M  V30 33860 C 3217.18 4.19976 1.3156 0
M  V30 33861 H 3214.3 0.73266 0.0798623 0
M  V30 33862 H 3216.94 1.83544 -0.49107 0
M  V30 33863 H 3215.09 3.71878 1.12422 0
M  V30 33864 H 3216.76 4.39672 -1.39592 0
M  V30 33865 H 3215 4.11308 -1.37869 0
M  V30 33866 H 3215.67 5.49644 -0.509463 0
M  V30 33867 H 3218.15 4.08328 0.800442 0
M  V30 33868 H 3217.03 5.28339 1.48827 0
M  V30 33869 H 3217.29 3.76073 2.32426 0
M  V30 33870 N 3216.35 0.0952613 1.57312 0
M  V30 33871 C 3217.57 -0.580171 1.9912 0
M  V30 33872 C 3218 -1.6092 0.973983 0
M  V30 33873 O 3217.35 -1.81209 -0.057502 0
M  V30 33874 C 3217.4 -1.20432 3.39895 0
M  V30 33875 O 3216.51 -2.32013 3.40945 0
M  V30 33876 H 3215.85 -0.147183 0.647482 0
M  V30 33877 H 3218.38 0.176721 2.03835 0
M  V30 33878 H 3218.39 -1.54558 3.77592 0
M  V30 33879 H 3217.06 -0.450442 4.13454 0
M  V30 33880 H 3215.64 -1.99505 3.15043 0
M  V30 33881 N 3217.82 -1.56587 -0.178432 0
M  V30 33882 C 3219.07 -1.8123 -0.894433 0
M  V30 33883 C 3219.39 -0.671095 -1.83088 0
M  V30 33884 O 3218.66 0.309523 -1.93439 0
M  V30 33885 H 3217.24 -0.668533 -0.333276 0
M  V30 33886 H 3219.9 -1.94067 -0.179951 0
M  V30 33887 H 3219 -2.75014 -1.4756 0
M  V30 33888 N 3219.3 0.446741 -1.51136 0
M  V30 33889 C 3220.53 1.21962 -1.67131 0
M  V30 33890 C 3220.94 1.85244 -0.364703 0
M  V30 33891 O 3220.3 1.70307 0.655878 0
M  V30 33892 C 3220.35 2.31056 -2.7802 0
M  V30 33893 O 3220.07 1.70364 -4.03618 0
M  V30 33894 C 3221.57 3.21506 -3.05203 0
M  V30 33895 H 3218.79 0.367952 -0.561117 0
M  V30 33896 H 3221.34 0.530482 -1.975 0
M  V30 33897 H 3219.49 2.95702 -2.50278 0
M  V30 33898 H 3219.91 2.42392 -4.65131 0
M  V30 33899 H 3221.38 3.94209 -3.86397 0
M  V30 33900 H 3221.86 3.81714 -2.17235 0
M  V30 33901 H 3222.46 2.62571 -3.34569 0
M  V30 33902 N 3220.78 1.41123 0.701567 0
M  V30 33903 C 3222.03 1.40366 1.46374 0
M  V30 33904 C 3222.36 0.0105784 1.94197 0
M  V30 33905 O 3221.63 -0.960608 1.69123 0
M  V30 33906 C 3221.92 2.40528 2.67989 0
M  V30 33907 C 3221.77 3.88918 2.25971 0
M  V30 33908 C 3223.09 2.38028 3.70177 0
M  V30 33909 H 3220.21 0.511169 0.53092 0
M  V30 33910 H 3222.85 1.72357 0.799558 0
M  V30 33911 H 3221 2.13377 3.24657 0
M  V30 33912 H 3222.67 4.26949 1.74676 0
M  V30 33913 H 3220.91 4.04074 1.57818 0
M  V30 33914 H 3221.59 4.54539 3.13207 0
M  V30 33915 H 3224.06 2.62109 3.23169 0
M  V30 33916 H 3222.94 3.10135 4.52888 0
M  V30 33917 H 3223.2 1.39677 4.19455 0
M  V30 33918 N 3222.26 -0.935219 1.26852 0
M  V30 33919 C 3223.19 -2.03878 1.04721 0
M  V30 33920 C 3224.2 -1.62799 0.00570368 0
M  V30 33921 O 3225.39 -1.76791 0.246439 0
M  V30 33922 C 3222.49 -3.34157 0.565019 0
M  V30 33923 C 3221.66 -4.0397 1.67711 0
M  V30 33924 C 3220.72 -5.12522 1.19195 0
M  V30 33925 O 3219.75 -5.36899 1.89018 0
M  V30 33926 N 3220.95 -5.80484 0.0435574 0
M  V30 33927 H 3223.72 -2.23428 1.9975 0
M  V30 33928 H 3221.28 -1.1051 1.18318 0
M  V30 33929 H 3223.27 -4.04077 0.224507 0
M  V30 33930 H 3221.84 -3.11235 -0.291844 0
M  V30 33931 H 3221.06 -3.27885 2.18827 0
M  V30 33932 H 3222.35 -4.47364 2.42369 0
M  V30 33933 H 3221.75 -5.63122 -0.539403 0
M  V30 33934 H 3220.3 -6.51366 -0.237831 0
M  V30 33935 N 3223.74 -1.08752 -1.14065 0
M  V30 33936 C 3224.67 -0.678558 -2.18925 0
M  V30 33937 C 3225.68 0.276135 -1.60441 0
M  V30 33938 O 3226.87 0.0632475 -1.78388 0
M  V30 33939 C 3223.97 0.0218256 -3.38893 0
M  V30 33940 C 3223.14 -0.952657 -4.269 0
M  V30 33941 C 3222.2 -0.286951 -5.25417 0
M  V30 33942 O 3221.23 -0.932453 -5.6151 0
M  V30 33943 N 3222.43 0.96173 -5.72478 0
M  V30 33944 H 3225.2 -1.58067 -2.54627 0
M  V30 33945 H 3222.76 -0.974064 -1.2932 0
M  V30 33946 H 3224.75 0.478208 -4.01865 0
M  V30 33947 H 3223.32 0.826088 -3.01487 0
M  V30 33948 H 3222.54 -1.58779 -3.60809 0
M  V30 33949 H 3223.83 -1.61287 -4.8256 0
M  V30 33950 H 3223.22 1.50585 -5.4529 0
M  V30 33951 H 3221.78 1.36155 -6.37421 0
M  V30 33952 N 3225.21 1.31165 -0.873701 0
M  V30 33953 C 3226.14 2.30891 -0.348052 0
M  V30 33954 C 3227.13 1.6051 0.563064 0
M  V30 33955 O 3228.31 1.88192 0.479299 0
M  V30 33956 C 3225.44 3.44397 0.448097 0
M  V30 33957 C 3224.39 4.26395 -0.370254 0
M  V30 33958 C 3223.72 5.31845 0.551809 0
M  V30 33959 C 3225.02 4.96985 -1.60633 0
M  V30 33960 H 3226.71 2.75107 -1.18139 0
M  V30 33961 H 3224.26 1.32259 -0.569525 0
M  V30 33962 H 3226.21 4.13218 0.826385 0
M  V30 33963 H 3224.94 2.98958 1.31498 0
M  V30 33964 H 3223.6 3.59247 -0.730535 0
M  V30 33965 H 3223.24 4.82655 1.41607 0
M  V30 33966 H 3222.94 5.87599 0.0081315 0
M  V30 33967 H 3224.47 6.03524 0.926859 0
M  V30 33968 H 3225.88 5.58383 -1.29927 0
M  V30 33969 H 3224.28 5.62553 -2.08936 0
M  V30 33970 H 3225.35 4.23757 -2.35708 0
M  V30 33971 N 3226.69 0.633512 1.44307 0
M  V30 33972 C 3228.1 0.221042 1.85387 0
M  V30 33973 C 3228.45 -1.22808 1.53012 0
M  V30 33974 O 3227.58 -1.93475 0.969359 0
M  V30 33975 C 3228.17 0.39439 3.36497 0
M  V30 33976 C 3226.73 0.0364066 3.76382 0
M  V30 33977 C 3225.88 0.706645 2.68145 0
M  V30 33978 H 3228.83 0.838514 1.34739 0
M  V30 33979 H 3228.85 -0.36596 3.78736 0
M  V30 33980 H 3228.36 1.44917 3.60029 0
M  V30 33981 H 3226.47 -1.01654 3.58465 0
M  V30 33982 H 3226.58 0.448129 4.77 0
M  V30 33983 H 3224.94 0.141725 2.54305 0
M  V30 33984 H 3225.73 1.76406 2.94509 0
M  V30 33985 N 3228.17 -1.53093 0.374204 0
M  V30 33986 C 3229.13 -2.24619 -0.455959 0
M  V30 33987 C 3230.13 -1.25711 -1.00266 0
M  V30 33988 O 3231.32 -1.49923 -0.887051 0
M  V30 33989 C 3228.46 -2.9896 -1.63816 0
M  V30 33990 H 3229.65 -2.99418 0.170038 0
M  V30 33991 H 3227.2 -1.55791 0.126042 0
M  V30 33992 H 3227.94 -2.28425 -2.30201 0
M  V30 33993 H 3227.72 -3.7154 -1.25302 0
M  V30 33994 H 3229.21 -3.53309 -2.22626 0
M  V30 33995 N 3229.65 -0.103603 -1.57259 0
M  V30 33996 C 3230.89 0.558919 -1.94946 0
M  V30 33997 C 3231.23 1.67303 -0.986068 0
M  V30 33998 O 3230.5 1.94489 -0.0205806 0
M  V30 33999 C 3230.79 1.10611 -3.42691 0
M  V30 34000 C 3230.64 -0.00353152 -4.498 0
M  V30 34001 C 3231.96 2.00184 -3.91937 0
M  V30 34002 H 3229.08 0.201701 -0.708862 0
M  V30 34003 H 3231.72 -0.176039 -1.89183 0
M  V30 34004 H 3229.87 1.73244 -3.47734 0
M  V30 34005 H 3231.54 -0.638163 -4.56865 0
M  V30 34006 H 3229.78 -0.66878 -4.28614 0
M  V30 34007 H 3230.45 0.420299 -5.50398 0
M  V30 34008 H 3232.93 1.47443 -3.89101 0
M  V30 34009 H 3231.81 2.35394 -4.95864 0
M  V30 34010 H 3232.07 2.92249 -3.31727 0
M  V30 34011 N 3231.13 1.56679 0.170126 0
M  V30 34012 C 3232.08 1.92912 1.21527 0
M  V30 34013 C 3233.06 0.797577 1.39741 0
M  V30 34014 O 3234.25 1.06078 1.41692 0
M  V30 34015 C 3231.38 2.29355 2.55443 0
M  V30 34016 C 3230.47 3.49026 2.40918 0
M  V30 34017 N 3230.86 4.66235 1.9611 0
M  V30 34018 C 3229.16 3.53656 2.71741 0
M  V30 34019 C 3229.86 5.4837 1.94076 0
M  V30 34020 N 3228.83 4.89446 2.36525 0
M  V30 34021 H 3232.64 2.81019 0.860552 0
M  V30 34022 H 3230.15 1.5793 0.378387 0
M  V30 34023 H 3232.15 2.53508 3.30967 0
M  V30 34024 H 3230.81 1.42588 2.91717 0
M  V30 34025 H 3231.82 4.9043 1.66429 0
M  V30 34026 H 3228.49 2.7737 3.12045 0
M  V30 34027 H 3229.88 6.52296 1.61121 0
M  V30 34028 N 3232.6 -0.43872 1.5137 0
M  V30 34029 C 3233.55 -1.5308 1.68969 0
M  V30 34030 C 3234.54 -1.51436 0.543695 0
M  V30 34031 O 3235.73 -1.57912 0.799547 0
M  V30 34032 C 3232.86 -2.91282 1.81685 0
M  V30 34033 C 3231.95 -2.97688 3.02064 0
M  V30 34034 N 3232.34 -2.7384 4.25259 0
M  V30 34035 C 3230.63 -3.28847 3.0129 0
M  V30 34036 C 3231.34 -2.86053 5.06506 0
M  V30 34037 N 3230.31 -3.17663 4.41125 0
M  V30 34038 H 3234.11 -1.33392 2.61885 0
M  V30 34039 H 3231.63 -0.646004 1.48998 0
M  V30 34040 H 3233.62 -3.69847 1.92403 0
M  V30 34041 H 3232.28 -3.11992 0.899493 0
M  V30 34042 H 3233.3 -2.48795 4.54226 0
M  V30 34043 H 3229.97 -3.5534 2.1918 0
M  V30 34044 H 3231.36 -2.71581 6.14568 0
M  V30 34045 N 3234.08 -1.41493 -0.694073 0
M  V30 34046 C 3235.33 -1.4114 -1.45628 0
M  V30 34047 C 3235.66 -0.0208769 -1.94189 0
M  V30 34048 O 3234.94 0.951625 -1.6963 0
M  V30 34049 C 3235.22 -2.41946 -2.6671 0
M  V30 34050 C 3235.07 -3.90111 -2.23905 0
M  V30 34051 C 3236.39 -2.39988 -3.68909 0
M  V30 34052 H 3233.51 -0.513977 -0.528201 0
M  V30 34053 H 3236.15 -1.72779 -0.790406 0
M  V30 34054 H 3234.3 -2.15096 -3.23521 0
M  V30 34055 H 3235.97 -4.2787 -1.7241 0
M  V30 34056 H 3234.22 -4.04905 -1.55673 0
M  V30 34057 H 3234.89 -4.56193 -3.10792 0
M  V30 34058 H 3237.36 -2.63819 -3.21774 0
M  V30 34059 H 3236.24 -3.12532 -4.51237 0
M  V30 34060 H 3236.5 -1.419 -4.18709 0
M  V30 34061 N 3235.56 0.928479 -1.27346 0
M  V30 34062 C 3236.81 1.67608 -1.13638 0
M  V30 34063 C 3237.14 1.91884 0.317923 0
M  V30 34064 O 3236.39 1.50659 1.24901 0
M  V30 34065 C 3236.69 3.04915 -1.86445 0
M  V30 34066 C 3236.36 3.00352 -3.36303 0
M  V30 34067 C 3235.02 2.98815 -3.77178 0
M  V30 34068 C 3237.37 2.91701 -4.31926 0
M  V30 34069 C 3234.7 2.86408 -5.12042 0
M  V30 34070 C 3237.05 2.80836 -5.66846 0
M  V30 34071 C 3235.71 2.77648 -6.07015 0
M  V30 34072 H 3234.98 0.613323 -0.415832 0
M  V30 34073 H 3237.63 1.08285 -1.57945 0
M  V30 34074 H 3235.94 3.67938 -1.34644 0
M  V30 34075 H 3237.63 3.61634 -1.73267 0
M  V30 34076 H 3234.22 3.02335 -3.03795 0
M  V30 34077 H 3238.41 2.91987 -4.01319 0
M  V30 34078 H 3233.66 2.82326 -5.42312 0
M  V30 34079 H 3237.84 2.73107 -6.40613 0
M  V30 34080 H 3235.46 2.67791 -7.11472 0
M  V30 34081 N 3237.04 1.09355 1.13486 0
M  V30 34082 C 3237.97 0.690159 2.18562 0
M  V30 34083 C 3238.98 -0.267623 1.60585 0
M  V30 34084 O 3240.17 -0.0537862 1.78419 0
M  V30 34085 C 3237.27 -0.00385298 3.389 0
M  V30 34086 C 3236.45 0.975283 4.26388 0
M  V30 34087 C 3235.5 0.314811 5.25257 0
M  V30 34088 O 3234.53 0.962218 5.61008 0
M  V30 34089 N 3235.73 -0.931357 5.7298 0
M  V30 34090 H 3238.5 1.59416 2.53785 0
M  V30 34091 H 3236.06 0.980909 1.28801 0
M  V30 34092 H 3238.05 -0.456889 4.02113 0
M  V30 34093 H 3236.62 -0.810087 3.01921 0
M  V30 34094 H 3235.84 1.6069 3.59962 0
M  V30 34095 H 3237.13 1.63844 4.81698 0
M  V30 34096 H 3236.53 -1.47691 5.46081 0
M  V30 34097 H 3235.08 -1.32772 6.38134 0
M  V30 34098 N 3238.52 -1.307 0.880644 0
M  V30 34099 C 3239.93 -1.78476 0.548024 0
M  V30 34100 C 3240.28 -1.72456 -0.935602 0
M  V30 34101 O 3239.4 -1.29877 -1.73092 0
M  V30 34102 C 3240 -3.24074 0.988007 0
M  V30 34103 C 3238.56 -3.69703 0.70687 0
M  V30 34104 C 3237.71 -2.5125 1.1734 0
M  V30 34105 H 3240.66 -1.17631 1.0653 0
M  V30 34106 H 3240.68 -3.79193 0.315147 0
M  V30 34107 H 3240.19 -3.28423 2.06784 0
M  V30 34108 H 3238.29 -3.70846 -0.361154 0
M  V30 34109 H 3238.4 -4.61368 1.29139 0
M  V30 34110 H 3236.77 -2.47704 0.592851 0
M  V30 34111 H 3237.55 -2.58339 2.26088 0
M  V30 34112 N 3240 -0.641156 -1.43969 0
M  V30 34113 C 3240.91 0.0587008 -2.34527 0
M  V30 34114 C 3241.92 0.825061 -1.53195 0
M  V30 34115 O 3243.1 0.775049 -1.8589 0
M  V30 34116 C 3240.16 1.02134 -3.31315 0
M  V30 34117 C 3239.22 0.253244 -4.28552 0
M  V30 34118 C 3238.46 1.17003 -5.20717 0
M  V30 34119 O 3238.68 2.40902 -5.17032 0
M  V30 34120 O 3237.61 0.648934 -5.98392 0
M  V30 34121 H 3241.44 -0.686381 -2.95842 0
M  V30 34122 H 3239.02 -0.401341 -1.43908 0
M  V30 34123 H 3240.91 1.57489 -3.90865 0
M  V30 34124 H 3239.58 1.74686 -2.72519 0
M  V30 34125 H 3238.49 -0.343596 -3.72519 0
M  V30 34126 H 3239.82 -0.432458 -4.90296 0
M  V30 34127 N 3241.47 1.52892 -0.382318 0
M  V30 34128 C 3242.4 2.29166 0.447789 0
M  V30 34129 C 3243.38 1.32269 1.06953 0
M  V30 34130 O 3244.57 1.61156 1.08363 0
M  V30 34131 C 3241.7 3.09332 1.57896 0
M  V30 34132 C 3240.65 4.14055 1.08362 0
M  V30 34133 C 3239.98 4.82403 2.30633 0
M  V30 34134 C 3241.28 5.22065 0.156499 0
M  V30 34135 H 3242.97 2.98805 -0.188593 0
M  V30 34136 H 3240.52 1.43705 -0.0921432 0
M  V30 34137 H 3242.47 3.61445 2.16645 0
M  V30 34138 H 3241.2 2.37413 2.24283 0
M  V30 34139 H 3239.86 3.62912 0.518708 0
M  V30 34140 H 3239.5 4.07039 2.95513 0
M  V30 34141 H 3239.2 5.53181 1.98154 0
M  V30 34142 H 3240.73 5.37318 2.90037 0
M  V30 34143 H 3242.14 5.69581 0.651965 0
M  V30 34144 H 3240.54 6.00049 -0.0782033 0
M  V30 34145 H 3241.61 4.78312 -0.796613 0
M  V30 34146 N 3242.95 0.111941 1.57202 0
M  V30 34147 C 3244.36 -0.414559 1.82039 0
M  V30 34148 C 3244.71 -1.67072 1.02866 0
M  V30 34149 O 3243.84 -2.14795 0.263106 0
M  V30 34150 C 3244.43 -0.758895 3.30191 0
M  V30 34151 C 3242.99 -1.23006 3.55734 0
M  V30 34152 C 3242.14 -0.235177 2.76301 0
M  V30 34153 H 3245.09 0.337169 1.55077 0
M  V30 34154 H 3245.11 -1.61695 3.44434 0
M  V30 34155 H 3244.62 0.155541 3.87788 0
M  V30 34156 H 3242.72 -2.16164 3.03487 0
M  V30 34157 H 3242.84 -1.18026 4.64335 0
M  V30 34158 H 3241.2 -0.720779 2.44288 0
M  V30 34159 H 3241.98 0.672233 3.36654 0
M  V30 34160 N 3244.43 -1.56767 -0.161814 0
M  V30 34161 C 3245.39 -1.9625 -1.18401 0
M  V30 34162 C 3246.39 -0.847244 -1.36669 0
M  V30 34163 O 3247.58 -1.11413 -1.33913 0
M  V30 34164 C 3244.71 -2.26558 -2.54724 0
M  V30 34165 H 3245.91 -2.8773 -0.845652 0
M  V30 34166 H 3243.46 -1.50972 -0.404619 0
M  V30 34167 H 3244.2 -1.37821 -2.93557 0
M  V30 34168 H 3243.98 -3.07858 -2.42829 0
M  V30 34169 H 3245.47 -2.57993 -3.28374 0
M  V30 34170 N 3245.91 0.430686 -1.51601 0
M  V30 34171 C 3246.82 1.54833 -1.7625 0
M  V30 34172 C 3247.83 1.61523 -0.647013 0
M  V30 34173 O 3249.01 1.78641 -0.930019 0
M  V30 34174 C 3246.07 2.9076 -1.88838 0
M  V30 34175 C 3245.14 2.94132 -3.12706 0
M  V30 34176 C 3244.37 4.23575 -3.24684 0
M  V30 34177 O 3244.59 5.16314 -2.42438 0
M  V30 34178 O 3243.53 4.33367 -4.17704 0
M  V30 34179 H 3247.35 1.36945 -2.71071 0
M  V30 34180 H 3244.94 0.614372 -1.36183 0
M  V30 34181 H 3246.82 3.71418 -1.99064 0
M  V30 34182 H 3245.49 3.08761 -0.972041 0
M  V30 34183 H 3244.4 2.12404 -3.07953 0
M  V30 34184 H 3245.73 2.81077 -4.0405 0
M  V30 34185 N 3247.39 1.4186 0.686559 0
M  V30 34186 C 3248.8 1.37147 1.26679 0
M  V30 34187 C 3249.15 0.0589565 1.96111 0
M  V30 34188 O 3248.27 -0.842594 1.99322 0
M  V30 34189 C 3248.87 2.48417 2.30379 0
M  V30 34190 C 3247.43 2.47074 2.83957 0
M  V30 34191 C 3246.57 2.27805 1.58115 0
M  V30 34192 H 3249.52 1.51244 0.480715 0
M  V30 34193 H 3249.55 2.17993 3.11864 0
M  V30 34194 H 3249.06 3.4393 1.79816 0
M  V30 34195 H 3247.16 1.55344 3.38672 0
M  V30 34196 H 3247.27 3.43703 3.33774 0
M  V30 34197 H 3245.64 1.75847 1.84255 0
M  V30 34198 H 3246.42 3.25357 1.09535 0
M  V30 34199 N 3248.86 -0.921712 1.27837 0
M  V30 34200 C 3249.83 -2.00467 1.11111 0
M  V30 34201 C 3250.83 -1.60712 0.0532312 0
M  V30 34202 O 3252.02 -1.71626 0.298338 0
M  V30 34203 C 3249.15 -3.33754 0.694328 0
M  V30 34204 H 3250.34 -2.16735 2.07283 0
M  V30 34205 H 3247.89 -1.10331 1.1071 0
M  V30 34206 H 3248.63 -3.23187 -0.268504 0
M  V30 34207 H 3248.41 -3.63968 1.45842 0
M  V30 34208 H 3249.9 -4.13271 0.599723 0
M  V30 34209 N 3250.34 -1.09956 -1.12905 0
M  V30 34210 C 3251.3 -0.747402 -2.16671 0
M  V30 34211 C 3252.3 0.225713 -1.59208 0
M  V30 34212 O 3253.49 0.0031942 -1.742 0
M  V30 34213 C 3250.63 -0.106229 -3.40734 0
M  V30 34214 H 3251.82 -1.66645 -2.49338 0
M  V30 34215 H 3249.37 -0.899444 -1.27827 0
M  V30 34216 H 3250.11 0.823785 -3.13663 0
M  V30 34217 H 3249.89 -0.806501 -3.83716 0
M  V30 34218 H 3251.38 0.124567 -4.17414 0
M  V30 34219 N 3251.82 1.30231 -0.887563 0
M  V30 34220 C 3253.05 1.99908 -0.521584 0
M  V30 34221 C 3253.46 1.66689 0.895057 0
M  V30 34222 O 3252.8 0.901618 1.60052 0
M  V30 34223 C 3252.86 3.5412 -0.619626 0
M  V30 34224 C 3252.53 4.10862 -2.00104 0
M  V30 34225 C 3253.52 4.26664 -2.97076 0
M  V30 34226 C 3251.21 4.4618 -2.30713 0
M  V30 34227 C 3253.2 4.76999 -4.22789 0
M  V30 34228 C 3250.89 4.96214 -3.56672 0
M  V30 34229 C 3251.89 5.11577 -4.52524 0
M  V30 34230 O 3251.58 5.60531 -5.76247 0
M  V30 34231 H 3251.31 0.645763 -0.199915 0
M  V30 34232 H 3253.86 1.67025 -1.19549 0
M  V30 34233 H 3252.09 3.8654 0.111267 0
M  V30 34234 H 3253.78 4.05037 -0.264551 0
M  V30 34235 H 3254.55 3.99678 -2.74741 0
M  V30 34236 H 3250.43 4.33488 -1.56873 0
M  V30 34237 H 3253.97 4.88906 -4.97611 0
M  V30 34238 H 3249.87 5.22636 -3.78843 0
M  V30 34239 H 3250.63 5.78868 -5.78665 0
M  V30 34240 N 3253.3 0.648782 1.43627 0
M  V30 34241 C 3254.54 0.169194 2.02695 0
M  V30 34242 C 3254.9 -1.20188 1.50242 0
M  V30 34243 O 3254.19 -1.78973 0.68405 0
M  V30 34244 C 3254.39 0.115345 3.57214 0
M  V30 34245 C 3254.22 1.47966 4.2466 0
M  V30 34246 C 3252.99 2.07092 4.60913 0
M  V30 34247 C 3255.18 2.41716 4.53958 0
M  V30 34248 N 3253.17 3.36575 5.13411 0
M  V30 34249 C 3254.54 3.55828 5.07727 0
M  V30 34250 C 3256.59 2.40573 4.35923 0
M  V30 34251 C 3255.29 4.69016 5.45359 0
M  V30 34252 C 3257.32 3.52839 4.74614 0
M  V30 34253 C 3256.68 4.65676 5.28512 0
M  V30 34254 H 3252.78 0.106241 0.77475 0
M  V30 34255 H 3255.37 0.856121 1.74868 0
M  V30 34256 H 3253.54 -0.540912 3.84615 0
M  V30 34257 H 3255.27 -0.374704 4.02962 0
M  V30 34258 H 3252.02 1.59849 4.45809 0
M  V30 34259 H 3252.45 4.02822 5.44117 0
M  V30 34260 H 3257.09 1.54576 3.9353 0
M  V30 34261 H 3254.81 5.55709 5.86697 0
M  V30 34262 H 3258.39 3.53152 4.62358 0
M  V30 34263 H 3257.27 5.5111 5.57896 0
M  V30 34264 N 3254.78 -1.52688 0.390421 0
M  V30 34265 C 3256 -2.06491 -0.193977 0
M  V30 34266 C 3256.43 -1.26016 -1.39648 0
M  V30 34267 O 3255.78 -0.285499 -1.79038 0
M  V30 34268 C 3255.83 -3.56515 -0.541244 0
M  V30 34269 O 3254.94 -3.78603 -1.63503 0
M  V30 34270 H 3254.28 -0.663624 -0.0223491 0
M  V30 34271 H 3256.81 -1.96838 0.558214 0
M  V30 34272 H 3256.82 -3.99975 -0.805231 0
M  V30 34273 H 3255.49 -4.14525 0.337901 0
M  V30 34274 H 3254.07 -3.47032 -1.36467 0
M  V30 34275 N 3256.25 -0.120276 -1.5714 0
M  V30 34276 C 3257.2 0.82946 -2.1538 0
M  V30 34277 C 3258.17 1.26268 -1.07915 0
M  V30 34278 O 3259.36 1.33997 -1.35829 0
M  V30 34279 C 3256.5 2.07366 -2.75851 0
M  V30 34280 C 3255.61 1.68868 -3.97627 0
M  V30 34281 C 3254.74 2.88264 -4.46181 0
M  V30 34282 C 3253.78 2.46013 -5.60486 0
M  V30 34283 N 3252.92 3.58327 -6.03777 0
M  V30 34284 H 3257.76 0.325979 -2.96212 0
M  V30 34285 H 3255.3 0.149209 -1.46341 0
M  V30 34286 H 3257.26 2.80266 -3.09041 0
M  V30 34287 H 3255.89 2.5517 -1.97707 0
M  V30 34288 H 3254.94 0.858366 -3.70589 0
M  V30 34289 H 3256.25 1.33819 -4.80514 0
M  V30 34290 H 3255.4 3.69388 -4.81287 0
M  V30 34291 H 3254.14 3.26542 -3.62246 0
M  V30 34292 H 3253.15 1.63322 -5.24982 0
M  V30 34293 H 3254.37 2.08851 -6.46187 0
M  V30 34294 H 3252.32 3.96275 -5.22783 0
M  V30 34295 H 3252.24 3.27205 -6.81523 0
M  V30 34296 H 3253.5 4.39887 -6.43521 0
M  V30 34297 N 3257.73 1.56851 0.153498 0
M  V30 34298 C 3258.66 2.00807 1.19159 0
M  V30 34299 C 3259.64 0.886544 1.4517 0
M  V30 34300 O 3260.83 1.1539 1.56201 0
M  V30 34301 C 3257.96 2.38315 2.52632 0
M  V30 34302 C 3256.91 3.53593 2.41155 0
M  V30 34303 C 3256.24 3.76896 3.79281 0
M  V30 34304 C 3257.54 4.86471 1.90114 0
M  V30 34305 H 3259.23 2.87777 0.82612 0
M  V30 34306 H 3256.78 1.38449 0.395948 0
M  V30 34307 H 3258.73 2.67666 3.25474 0
M  V30 34308 H 3257.46 1.48275 2.91002 0
M  V30 34309 H 3256.11 3.24398 1.70767 0
M  V30 34310 H 3255.76 2.84117 4.15074 0
M  V30 34311 H 3255.46 4.54471 3.72464 0
M  V30 34312 H 3256.99 4.08665 4.5368 0
M  V30 34313 H 3258.4 5.14581 2.52743 0
M  V30 34314 H 3256.8 5.67807 1.94204 0
M  V30 34315 H 3257.87 4.77277 0.856433 0
M  V30 34316 N 3259.21 -0.42264 1.51827 0
M  V30 34317 C 3260.16 -1.5346 1.74794 0
M  V30 34318 C 3261.15 -1.57856 0.61463 0
M  V30 34319 O 3262.36 -1.61425 0.796365 0
M  V30 34320 H 3258.73 -0.510109 0.552533 0
M  V30 34321 H 3260.7 -1.31268 2.67976 0
M  V30 34322 C 3259.45 -2.90971 1.90344 0
M  V30 34323 H 3258.78 -2.88325 2.76963 0
M  V30 34324 H 3260.22 -3.68103 2.1042 0
M  V30 34325 C 3258.68 -3.30231 0.667008 0
M  V30 34326 O 3259.21 -4.01334 -0.171471 0
M  V30 34327 N 3257.41 -2.86146 0.506819 0
M  V30 34328 H 3256.96 -2.28454 1.19023 0
M  V30 34329 H 3256.92 -3.12776 -0.319192 0
M  V30 34330 N 3260.69 -1.42222 -0.679027 0
M  V30 34331 C 3261.97 -1.3295 -1.4347 0
M  V30 34332 C 3262.35 0.0351318 -2.11071 0
M  V30 34333 O 3261.69 1.05039 -2.02926 0
M  V30 34334 C 3261.9 -2.4947 -2.44061 0
M  V30 34335 C 3263.25 -2.91393 -3.08829 0
M  V30 34336 O 3264.28 -2.4933 -2.54388 0
M  V30 34337 O 3263.13 -3.64182 -4.07472 0
M  V30 34338 H 3260.23 -0.524089 -0.639734 0
M  V30 34339 H 3262.77 -1.5422 -0.708107 0
M  V30 34340 H 3261.55 -3.40461 -1.92878 0
M  V30 34341 H 3261.17 -2.30163 -3.24208 0
M  V30 34342 N 3262.17 0.91492 -1.28324 0
M  V30 34343 C 3263.1 2.03396 -1.14684 0
M  V30 34344 C 3264.08 1.70041 -0.0449238 0
M  V30 34345 O 3265.26 1.9293 -0.221706 0
M  V30 34346 C 3262.39 3.37802 -0.806682 0
M  V30 34347 C 3261.35 3.85314 -1.86325 0
M  V30 34348 C 3260.67 5.16672 -1.37675 0
M  V30 34349 C 3261.97 4.07302 -3.2696 0
M  V30 34350 H 3263.67 2.15065 -2.08297 0
M  V30 34351 H 3261.21 1.03338 -1.00286 0
M  V30 34352 H 3263.17 4.15578 -0.698033 0
M  V30 34353 H 3261.89 3.26182 0.165146 0
M  V30 34354 H 3260.55 3.09741 -1.96102 0
M  V30 34355 H 3260.2 5.01454 -0.394015 0
M  V30 34356 H 3259.9 5.49432 -2.08323 0
M  V30 34357 H 3261.42 5.97005 -1.28129 0
M  V30 34358 H 3262.83 4.75607 -3.2011 0
M  V30 34359 H 3261.23 4.51391 -3.95432 0
M  V30 34360 H 3262.3 3.12152 -3.71065 0
M  V30 34361 N 3263.64 1.10553 1.1232 0
M  V30 34362 C 3264.89 0.848707 1.83857 0
M  V30 34363 C 3265.22 -0.625718 1.8416 0
M  V30 34364 O 3264.47 -1.47738 1.28344 0
M  V30 34365 C 3264.77 1.3438 3.31175 0
M  V30 34366 C 3264.44 2.82986 3.51041 0
M  V30 34367 C 3263.1 3.23567 3.56171 0
M  V30 34368 C 3265.45 3.78743 3.58055 0
M  V30 34369 C 3262.78 4.58654 3.6586 0
M  V30 34370 C 3265.13 5.13634 3.69274 0
M  V30 34371 C 3263.8 5.53787 3.7266 0
M  V30 34372 H 3263.07 0.310564 0.672779 0
M  V30 34373 H 3265.71 1.38234 1.32528 0
M  V30 34374 H 3264.02 0.730211 3.84935 0
M  V30 34375 H 3265.72 1.12155 3.84996 0
M  V30 34376 H 3262.31 2.50588 3.47712 0
M  V30 34377 H 3266.49 3.48497 3.5336 0
M  V30 34378 H 3261.75 4.89184 3.66755 0
M  V30 34379 H 3265.92 5.87676 3.73644 0
M  V30 34380 H 3263.55 6.58456 3.79921 0
M  V30 34381 N 3265.12 -1.29758 0.894457 0
M  V30 34382 C 3266.37 -1.95384 0.51668 0
M  V30 34383 C 3266.69 -1.70897 -0.939111 0
M  V30 34384 O 3265.96 -1.03781 -1.66152 0
M  V30 34385 H 3264.54 -0.722934 0.188085 0
M  V30 34386 H 3267.2 -1.58111 1.13961 0
M  V30 34387 H 3266.3 -3.04266 0.694873 0
M  V30 34388 N 3266.6 -0.65639 -1.4328 0
M  V30 34389 C 3267.88 -0.10085 -1.9534 0
M  V30 34390 C 3268.26 1.37989 -1.59757 0
M  V30 34391 O 3267.61 2.10695 -0.884301 0
M  V30 34392 C 3267.82 -0.350441 -3.47236 0
M  V30 34393 C 3269.16 -0.257075 -4.23821 0
M  V30 34394 O 3270.19 -0.283173 -3.55073 0
M  V30 34395 O 3269.05 -0.183493 -5.46192 0
M  V30 34396 H 3266.14 0.00778834 -0.826963 0
M  V30 34397 H 3268.69 -0.729847 -1.53204 0
M  V30 34398 H 3267.46 -1.37692 -3.66274 0
M  V30 34399 H 3267.08 0.311469 -3.96378 0
M  V30 34400 N 3268.08 1.52478 -0.398513 0
M  V30 34401 C 3269.04 2.25316 0.420167 0
M  V30 34402 C 3270.04 1.2729 0.982537 0
M  V30 34403 O 3271.23 1.51316 0.863087 0
M  V30 34404 C 3268.36 3.01528 1.59039 0
M  V30 34405 H 3269.56 2.99109 -0.217652 0
M  V30 34406 H 3267.11 1.55571 -0.150811 0
M  V30 34407 H 3267.85 2.32058 2.26538 0
M  V30 34408 H 3267.63 3.73486 1.19375 0
M  V30 34409 H 3269.12 3.56806 2.16977 0
M  V30 34410 N 3269.56 0.128608 1.57074 0
M  V30 34411 C 3270.52 -0.803776 2.14644 0
M  V30 34412 C 3271.52 -1.18801 1.08365 0
M  V30 34413 O 3272.71 -1.11194 1.34095 0
M  V30 34414 C 3269.84 -2.08824 2.69454 0
M  V30 34415 H 3271.04 -0.303294 2.98362 0
M  V30 34416 H 3268.59 -0.120708 1.55833 0
M  V30 34417 H 3269.32 -2.63281 1.8935 0
M  V30 34418 H 3269.11 -1.82212 3.4719 0
M  V30 34419 H 3270.6 -2.75455 3.1387 0
M  V30 34420 N 3271.04 -1.5693 -0.145178 0
M  V30 34421 C 3271.97 -2.01436 -1.18092 0
M  V30 34422 C 3272.95 -0.89423 -1.44698 0
M  V30 34423 O 3274.13 -1.16216 -1.55587 0
M  V30 34424 C 3271.26 -2.39652 -2.51365 0
M  V30 34425 C 3270.22 -3.54867 -2.39277 0
M  V30 34426 C 3269.54 -3.78902 -3.77276 0
M  V30 34427 C 3270.84 -4.87472 -1.87531 0
M  V30 34428 H 3272.54 -2.88211 -0.810847 0
M  V30 34429 H 3270.08 -1.38657 -0.3886 0
M  V30 34430 H 3272.03 -2.69388 -3.24049 0
M  V30 34431 H 3270.76 -1.49816 -2.90211 0
M  V30 34432 H 3269.42 -3.25299 -1.69044 0
M  V30 34433 H 3269.07 -2.86314 -4.13562 0
M  V30 34434 H 3268.77 -4.5644 -3.70049 0
M  V30 34435 H 3270.29 -4.11065 -4.51506 0
M  V30 34436 H 3271.7 -5.15915 -2.5001 0
M  V30 34437 H 3270.1 -5.68829 -1.9119 0
M  V30 34438 H 3271.17 -4.77724 -0.83111 0
M  V30 34439 N 3272.51 0.414582 -1.52049 0
M  V30 34440 C 3273.74 1.18218 -1.69435 0
M  V30 34441 C 3274.15 1.849 -0.401072 0
M  V30 34442 O 3273.49 1.72475 0.632312 0
M  V30 34443 C 3273.56 2.29166 -2.7699 0
M  V30 34444 C 3273.22 1.82664 -4.18907 0
M  V30 34445 C 3274.22 1.31742 -5.02931 0
M  V30 34446 C 3271.9 1.89664 -4.65116 0
M  V30 34447 C 3273.9 0.88435 -6.31235 0
M  V30 34448 C 3271.58 1.45968 -5.93411 0
M  V30 34449 C 3272.58 0.954381 -6.76299 0
M  V30 34450 O 3272.27 0.523711 -8.02192 0
M  V30 34451 H 3272 0.36148 -0.571234 0
M  V30 34452 H 3274.56 0.494608 -1.99356 0
M  V30 34453 H 3272.79 3.01269 -2.42433 0
M  V30 34454 H 3274.47 2.90946 -2.83028 0
M  V30 34455 H 3275.24 1.25711 -4.68425 0
M  V30 34456 H 3271.12 2.27938 -4.00706 0
M  V30 34457 H 3274.66 0.48926 -6.95882 0
M  V30 34458 H 3270.56 1.51676 -6.27427 0
M  V30 34459 H 3271.33 0.647513 -8.15935 0
M  V30 34460 N 3273.99 1.4258 0.671475 0
M  V30 34461 C 3274.92 1.42269 1.797 0
M  V30 34462 C 3275.94 0.321296 1.59598 0
M  V30 34463 O 3277.13 0.584594 1.68656 0
M  V30 34464 C 3274.23 1.20229 3.16857 0
M  V30 34465 C 3273.4 2.42865 3.63779 0
M  V30 34466 C 3272.46 2.16321 4.79679 0
M  V30 34467 O 3271.48 2.89545 4.90053 0
M  V30 34468 N 3272.69 1.16841 5.6862 0
M  V30 34469 H 3275.45 2.39285 1.80451 0
M  V30 34470 H 3273.01 1.37502 0.854684 0
M  V30 34471 H 3275 1.00383 3.92053 0
M  V30 34472 H 3273.57 0.317243 3.10986 0
M  V30 34473 H 3272.79 2.78257 2.79226 0
M  V30 34474 H 3274.08 3.24521 3.91872 0
M  V30 34475 H 3273.48 0.562845 5.62893 0
M  V30 34476 H 3272.04 1.02981 6.43613 0
M  V30 34477 N 3275.47 -0.908102 1.28807 0
M  V30 34478 C 3276.69 -1.69672 1.19274 0
M  V30 34479 C 3277.12 -1.86506 -0.24437 0
M  V30 34480 O 3276.48 -1.37929 -1.17666 0
M  V30 34481 C 3276.53 -3.06338 1.90235 0
M  V30 34482 O 3275.63 -3.94137 1.21367 0
M  V30 34483 H 3274.97 -0.519336 0.413747 0
M  V30 34484 H 3277.5 -1.13505 1.70229 0
M  V30 34485 H 3277.51 -3.56534 1.98363 0
M  V30 34486 H 3276.19 -2.93403 2.94767 0
M  V30 34487 H 3274.76 -3.52571 1.21441 0
M  V30 34488 N 3276.95 -1.11147 -1.11732 0
M  V30 34489 C 3277.88 -0.78919 -2.19759 0
M  V30 34490 C 3278.86 0.241113 -1.68382 0
M  V30 34491 O 3280.04 0.105257 -1.93915 0
M  V30 34492 C 3277.17 -0.228265 -3.46549 0
M  V30 34493 C 3276.13 -1.19009 -4.11121 0
M  V30 34494 C 3275.45 -0.490021 -5.3245 0
M  V30 34495 C 3276.75 -2.53959 -4.56401 0
M  V30 34496 H 3278.45 -1.69245 -2.46975 0
M  V30 34497 H 3275.99 -0.815191 -1.18704 0
M  V30 34498 H 3277.95 0.00938501 -4.21399 0
M  V30 34499 H 3276.67 0.710274 -3.18783 0
M  V30 34500 H 3275.33 -1.41332 -3.38261 0
M  V30 34501 H 3274.98 0.453227 -5.00954 0
M  V30 34502 H 3274.68 -1.1315 -5.76603 0
M  V30 34503 H 3276.2 -0.261092 -6.10042 0
M  V30 34504 H 3277.62 -2.35742 -5.22588 0
M  V30 34505 H 3276.01 -3.1406 -5.11357 0
M  V30 34506 H 3277.08 -3.13408 -3.70004 0
M  V30 34507 N 3278.43 1.29282 -0.901326 0
M  V30 34508 C 3279.84 1.77581 -0.576349 0
M  V30 34509 C 3280.19 1.73922 0.908048 0
M  V30 34510 O 3279.31 1.32614 1.71004 0
M  V30 34511 C 3279.91 3.22461 -1.03944 0
M  V30 34512 C 3278.47 3.68532 -0.765597 0
M  V30 34513 C 3277.61 2.49352 -1.21322 0
M  V30 34514 H 3280.56 1.15921 -1.08388 0
M  V30 34515 H 3280.59 3.78643 -0.375433 0
M  V30 34516 H 3280.1 3.25092 -2.11983 0
M  V30 34517 H 3278.2 3.71373 0.30211 0
M  V30 34518 H 3278.31 4.59255 -1.36462 0
M  V30 34519 H 3276.68 2.4673 -0.632184 0
M  V30 34520 H 3277.46 2.5471 -2.30169 0
M  V30 34521 N 3279.9 0.663979 1.4293 0
M  V30 34522 C 3281.13 0.189844 2.06027 0
M  V30 34523 C 3281.55 -1.14877 1.49829 0
M  V30 34524 O 3280.9 -1.71141 0.633808 0
M  V30 34525 C 3280.95 0.104407 3.61349 0
M  V30 34526 O 3280.68 1.39011 4.15461 0
M  V30 34527 C 3282.18 -0.394522 4.41541 0
M  V30 34528 H 3279.4 0.0948861 0.664257 0
M  V30 34529 H 3281.94 0.907664 1.83253 0
M  V30 34530 H 3280.1 -0.564035 3.83272 0
M  V30 34531 H 3280.51 1.25635 5.09231 0
M  V30 34532 H 3281.98 -0.403232 5.50525 0
M  V30 34533 H 3282.46 -1.42783 4.15343 0
M  V30 34534 H 3283.07 0.241804 4.24612 0
M  V30 34535 N 3281.38 -1.52265 0.406593 0
M  V30 34536 C 3282.31 -2.29849 -0.411274 0
M  V30 34537 C 3283.29 -1.33953 -1.04836 0
M  V30 34538 O 3284.48 -1.62859 -1.05785 0
M  V30 34539 C 3281.61 -3.11804 -1.52955 0
M  V30 34540 C 3280.56 -4.15727 -1.01761 0
M  V30 34541 C 3279.89 -4.86011 -2.22929 0
M  V30 34542 C 3281.19 -5.22248 -0.0734232 0
M  V30 34543 H 3282.88 -2.98468 0.236107 0
M  V30 34544 H 3280.43 -1.4354 0.114994 0
M  V30 34545 H 3282.38 -3.64846 -2.10868 0
M  V30 34546 H 3281.1 -2.40951 -2.20478 0
M  V30 34547 H 3279.76 -3.63691 -0.460906 0
M  V30 34548 H 3279.41 -4.11689 -2.89 0
M  V30 34549 H 3279.11 -5.56263 -1.89328 0
M  V30 34550 H 3280.64 -5.41864 -2.81452 0
M  V30 34551 H 3282.05 -5.70546 -0.561267 0
M  V30 34552 H 3280.45 -5.99849 0.173656 0
M  V30 34553 H 3281.52 -4.76984 0.872607 0
M  V30 34554 N 3282.86 -0.136936 -1.57004 0
M  V30 34555 C 3283.82 0.792381 -2.15067 0
M  V30 34556 C 3284.82 1.18225 -1.08994 0
M  V30 34557 O 3286.01 1.10481 -1.34683 0
M  V30 34558 C 3283.15 2.07392 -2.70557 0
M  V30 34559 H 3284.34 0.287467 -2.98519 0
M  V30 34560 H 3281.89 0.112442 -1.55895 0
M  V30 34561 H 3282.63 2.62273 -1.90744 0
M  V30 34562 H 3282.41 1.80368 -3.48152 0
M  V30 34563 H 3283.9 2.73786 -3.15326 0
M  V30 34564 N 3284.34 1.57005 0.136853 0
M  V30 34565 C 3285.75 1.51897 0.48983 0
M  V30 34566 C 3285.95 0.847042 1.82832 0
M  V30 34567 O 3285.01 0.421836 2.48951 0
M  V30 34568 C 3286.32 2.96668 0.490779 0
M  V30 34569 C 3287.87 3.07662 0.575585 0
M  V30 34570 C 3288.35 4.53958 0.607098 0
M  V30 34571 N 3289.84 4.58343 0.669039 0
M  V30 34572 C 3290.57 5.6893 0.714575 0
M  V30 34573 N 3290.07 6.89061 0.718838 0
M  V30 34574 N 3291.86 5.5699 0.756228 0
M  V30 34575 H 3284.01 1.99078 -0.740382 0
M  V30 34576 H 3286.28 0.9084 -0.271132 0
M  V30 34577 H 3285.98 3.49126 -0.42471 0
M  V30 34578 H 3285.86 3.5316 1.32505 0
M  V30 34579 H 3288.24 2.55217 1.48149 0
M  V30 34580 H 3288.32 2.54196 -0.286036 0
M  V30 34581 H 3287.97 5.07044 -0.294693 0
M  V30 34582 H 3287.9 5.05218 1.48535 0
M  V30 34583 H 3290.39 3.71866 0.672632 0
M  V30 34584 H 3290.7 7.69096 0.755713 0
M  V30 34585 H 3289.05 6.91601 0.686549 0
M  V30 34586 H 3292.24 4.6205 0.750137 0
M  V30 34587 H 3292.41 6.43188 0.78825 0
M  V30 34588 N 3285.82 -0.406513 1.52267 0
M  V30 34589 C 3286.78 -1.47811 1.7517 0
M  V30 34590 C 3287.78 -1.483 0.621601 0
M  V30 34591 O 3288.97 -1.49778 0.889502 0
M  V30 34592 C 3286.1 -2.87205 1.83647 0
M  V30 34593 H 3287.29 -1.28794 2.70836 0
M  V30 34594 H 3284.85 -0.637171 1.42723 0
M  V30 34595 H 3285.58 -3.11589 0.899048 0
M  V30 34596 H 3285.37 -2.88253 2.65806 0
M  V30 34597 H 3286.86 -3.64884 2.031 0
M  V30 34598 N 3287.29 -1.42934 -0.663904 0
M  V30 34599 C 3288.22 -1.50061 -1.78897 0
M  V30 34600 C 3289.21 -0.356193 -1.66329 0
M  V30 34601 O 3290.39 -0.571977 -1.85586 0
M  V30 34602 C 3287.52 -1.41286 -3.17262 0
M  V30 34603 C 3286.47 -2.53867 -3.4458 0
M  V30 34604 C 3285.8 -2.30148 -4.82634 0
M  V30 34605 C 3287.1 -3.96149 -3.40387 0
M  V30 34606 H 3288.79 -2.44225 -1.73189 0
M  V30 34607 H 3286.34 -1.17546 -0.8318 0
M  V30 34608 H 3288.29 -1.44878 -3.95712 0
M  V30 34609 H 3287.02 -0.436217 -3.23674 0
M  V30 34610 H 3285.68 -2.49611 -2.68496 0
M  V30 34611 H 3285.32 -1.30751 -4.85709 0
M  V30 34612 H 3285.02 -3.05608 -5.01874 0
M  V30 34613 H 3286.55 -2.35507 -5.63355 0
M  V30 34614 H 3287.96 -4.01951 -4.08789 0
M  V30 34615 H 3286.36 -4.71549 -3.71162 0
M  V30 34616 H 3287.43 -4.22045 -2.3876 0
M  V30 34617 N 3288.77 0.901258 -1.29287 0
M  V30 34618 C 3289.74 1.98674 -1.14286 0
M  V30 34619 C 3290.74 1.60607 -0.0787923 0
M  V30 34620 O 3291.93 1.7113 -0.325604 0
M  V30 34621 C 3289.06 3.32607 -0.747337 0
M  V30 34622 H 3290.25 2.1341 -2.10704 0
M  V30 34623 H 3287.8 1.08556 -1.12451 0
M  V30 34624 H 3288.54 3.23573 0.217054 0
M  V30 34625 H 3288.32 3.61601 -1.51614 0
M  V30 34626 H 3289.81 4.12265 -0.665395 0
M  V30 34627 N 3290.25 1.11738 1.11141 0
M  V30 34628 C 3291.18 0.736364 2.17049 0
M  V30 34629 C 3292.2 -0.2335 1.61117 0
M  V30 34630 O 3293.38 -0.0159288 1.78493 0
M  V30 34631 C 3290.48 0.0680335 3.38832 0
M  V30 34632 C 3289.66 1.06551 4.24224 0
M  V30 34633 C 3288.72 0.426156 5.24472 0
M  V30 34634 O 3287.74 1.081 5.58841 0
M  V30 34635 N 3288.94 -0.80961 5.74827 0
M  V30 34636 H 3291.71 1.64763 2.50346 0
M  V30 34637 H 3289.27 1.00801 1.26692 0
M  V30 34638 H 3291.26 -0.371492 4.02991 0
M  V30 34639 H 3289.83 -0.745863 3.03571 0
M  V30 34640 H 3289.05 1.68289 3.56472 0
M  V30 34641 H 3290.34 1.74025 4.78114 0
M  V30 34642 H 3289.74 -1.36074 5.4909 0
M  V30 34643 H 3288.3 -1.19207 6.40807 0
M  V30 34644 N 3291.73 -1.28802 0.90817 0
M  V30 34645 C 3292.96 -1.99053 0.553322 0
M  V30 34646 C 3293.37 -1.68092 -0.868425 0
M  V30 34647 O 3292.71 -0.926966 -1.58597 0
M  V30 34648 C 3292.77 -3.53089 0.675885 0
M  V30 34649 C 3292.44 -4.07626 2.06615 0
M  V30 34650 C 3293.43 -4.21883 3.03826 0
M  V30 34651 C 3291.12 -4.42453 2.37783 0
M  V30 34652 C 3293.11 -4.70213 4.30324 0
M  V30 34653 C 3290.8 -4.90477 3.64521 0
M  V30 34654 C 3291.8 -5.04313 4.60605 0
M  V30 34655 O 3291.48 -5.51292 5.85092 0
M  V30 34656 H 3291.22 -0.642501 0.210164 0
M  V30 34657 H 3293.77 -1.65102 1.22191 0
M  V30 34658 H 3292 -3.86668 -0.0497573 0
M  V30 34659 H 3293.69 -4.04565 0.328956 0
M  V30 34660 H 3294.46 -3.95257 2.81064 0
M  V30 34661 H 3290.33 -4.30938 1.63749 0
M  V30 34662 H 3293.88 -4.80927 5.05326 0
M  V30 34663 H 3289.78 -5.16543 3.8711 0
M  V30 34664 H 3290.54 -5.69589 5.87801 0
M  V30 34665 N 3293.21 -0.67155 -1.42576 0
M  V30 34666 C 3294.14 -0.00511088 -2.33499 0
M  V30 34667 C 3295.12 0.792736 -1.50498 0
M  V30 34668 O 3296.3 0.750543 -1.7911 0
M  V30 34669 C 3293.43 0.949135 -3.34079 0
M  V30 34670 C 3292.39 0.260111 -4.27209 0
M  V30 34671 C 3291.71 1.32707 -5.1797 0
M  V30 34672 C 3293.01 -0.858863 -5.1519 0
M  V30 34673 H 3294.71 -0.764457 -2.89476 0
M  V30 34674 H 3292.25 -0.369067 -1.3919 0
M  V30 34675 H 3294.21 1.42441 -3.96596 0
M  V30 34676 H 3292.93 1.73986 -2.76399 0
M  V30 34677 H 3291.59 -0.194898 -3.66082 0
M  V30 34678 H 3291.24 2.1097 -4.56619 0
M  V30 34679 H 3290.94 0.871191 -5.81106 0
M  V30 34680 H 3292.46 1.80334 -5.83363 0
M  V30 34681 H 3293.87 -0.464944 -5.71412 0
M  V30 34682 H 3292.27 -1.24034 -5.87142 0
M  V30 34683 H 3293.34 -1.70903 -4.53784 0
M  V30 34684 N 3294.68 1.52047 -0.414663 0
M  V30 34685 C 3295.93 2.02171 0.15955 0
M  V30 34686 C 3296.26 1.29946 1.44318 0
M  V30 34687 O 3295.54 0.407435 1.90185 0
M  V30 34688 C 3295.82 3.57854 0.401592 0
M  V30 34689 C 3295.67 4.40722 -0.899103 0
M  V30 34690 C 3296.99 4.23949 1.18133 0
M  V30 34691 H 3294.11 0.73483 0.0565128 0
M  V30 34692 H 3296.75 1.81889 -0.549215 0
M  V30 34693 H 3294.9 3.75267 1.00534 0
M  V30 34694 H 3296.58 4.35009 -1.53509 0
M  V30 34695 H 3294.82 4.06714 -1.50884 0
M  V30 34696 H 3295.49 5.47745 -0.68407 0
M  V30 34697 H 3297.97 4.10668 0.670131 0
M  V30 34698 H 3296.84 5.32806 1.31943 0
M  V30 34699 H 3297.1 3.83277 2.20344 0
M  V30 34700 N 3296.16 0.145261 1.56929 0
M  V30 34701 C 3297.41 -0.507036 1.96359 0
M  V30 34702 C 3297.74 -1.6463 1.03008 0
M  V30 34703 O 3297.02 -1.94366 0.0721387 0
M  V30 34704 C 3297.3 -1.01486 3.45503 0
M  V30 34705 C 3297.15 0.122787 4.49632 0
M  V30 34706 C 3298.47 -1.89722 3.97107 0
M  V30 34707 H 3295.59 -0.182835 0.713961 0
M  V30 34708 H 3298.23 0.226135 1.88649 0
M  V30 34709 H 3296.38 -1.63964 3.52205 0
M  V30 34710 H 3298.05 0.759068 4.55012 0
M  V30 34711 H 3296.3 0.782184 4.2669 0
M  V30 34712 H 3296.97 -0.274223 5.51318 0
M  V30 34713 H 3299.44 -1.37075 3.92873 0
M  V30 34714 H 3298.32 -2.22164 5.01931 0
M  V30 34715 H 3298.58 -2.83352 3.39359 0
M  V30 34716 N 3297.64 -1.57075 -0.128525 0
M  V30 34717 C 3298.89 -1.84621 -0.83922 0
M  V30 34718 C 3299.22 -0.729613 -1.79973 0
M  V30 34719 O 3298.5 0.265335 -1.92682 0
M  V30 34720 C 3298.78 -3.22726 -1.5975 0
M  V30 34721 C 3298.63 -4.44972 -0.657235 0
M  V30 34722 C 3299.95 -3.58279 -2.55585 0
M  V30 34723 H 3297.07 -0.671544 -0.30364 0
M  V30 34724 H 3299.71 -1.89716 -0.103769 0
M  V30 34725 H 3297.86 -3.18513 -2.22445 0
M  V30 34726 H 3299.53 -4.61283 -0.039866 0
M  V30 34727 H 3297.78 -4.33788 0.0319178 0
M  V30 34728 H 3298.45 -5.38253 -1.22424 0
M  V30 34729 H 3300.92 -3.63222 -2.03001 0
M  V30 34730 H 3299.8 -4.55907 -3.05679 0
M  V30 34731 H 3300.06 -2.85199 -3.37808 0
M  V30 34732 N 3299.12 0.398432 -1.5248 0
M  V30 34733 C 3300.34 1.17036 -1.71223 0
M  V30 34734 C 3300.77 1.83223 -0.425548 0
M  V30 34735 O 3300.13 1.70445 0.617908 0
M  V30 34736 C 3300.18 2.20116 -2.85624 0
M  V30 34737 O 3299.28 3.26497 -2.5194 0
M  V30 34738 H 3298.62 0.34115 -0.56966 0
M  V30 34739 H 3301.15 0.465617 -1.99231 0
M  V30 34740 H 3301.16 2.64269 -3.10847 0
M  V30 34741 H 3299.84 1.71327 -3.78972 0
M  V30 34742 H 3298.41 2.87548 -2.37425 0
M  V30 34743 N 3300.6 1.43284 0.656314 0
M  V30 34744 C 3301.54 1.48202 1.76931 0
M  V30 34745 C 3302.51 0.332052 1.62747 0
M  V30 34746 O 3303.7 0.538768 1.83035 0
M  V30 34747 C 3300.84 1.40802 3.15069 0
M  V30 34748 C 3299.95 2.6598 3.4041 0
M  V30 34749 C 3299.09 2.5059 4.68378 0
M  V30 34750 C 3298.13 3.71052 4.86813 0
M  V30 34751 N 3297.26 3.54491 6.06037 0
M  V30 34752 H 3302.1 2.43307 1.72063 0
M  V30 34753 H 3299.64 1.20778 0.839707 0
M  V30 34754 H 3301.6 1.34506 3.94923 0
M  V30 34755 H 3300.23 0.49281 3.19016 0
M  V30 34756 H 3299.28 2.82567 2.54676 0
M  V30 34757 H 3300.59 3.55469 3.49919 0
M  V30 34758 H 3299.75 2.41985 5.56353 0
M  V30 34759 H 3298.49 1.5862 4.61184 0
M  V30 34760 H 3297.49 3.80069 3.97275 0
M  V30 34761 H 3298.72 4.64026 4.95839 0
M  V30 34762 H 3296.66 2.65253 5.99981 0
M  V30 34763 H 3296.58 4.37579 6.1649 0
M  V30 34764 H 3297.85 3.49731 6.96641 0
M  V30 34765 N 3302.08 -0.894389 1.29763 0
M  V30 34766 C 3303.01 -2.01545 1.17906 0
M  V30 34767 C 3303.99 -1.69948 0.0719701 0
M  V30 34768 O 3305.17 -1.92553 0.252372 0
M  V30 34769 C 3302.3 -3.36476 0.860321 0
M  V30 34770 C 3301.26 -3.82301 1.92431 0
M  V30 34771 C 3300.58 -5.14416 1.45877 0
M  V30 34772 C 3301.88 -4.02048 3.33398 0
M  V30 34773 H 3303.58 -2.11724 2.11692 0
M  V30 34774 H 3301.12 -1.01729 1.01918 0
M  V30 34775 H 3303.07 -4.14415 0.76406 0
M  V30 34776 H 3301.8 -3.26404 -0.113232 0
M  V30 34777 H 3300.46 -3.06582 2.01005 0
M  V30 34778 H 3300.11 -5.00764 0.473742 0
M  V30 34779 H 3299.81 -5.46048 2.17038 0
M  V30 34780 H 3301.33 -5.94891 1.37611 0
M  V30 34781 H 3302.74 -4.70454 3.27636 0
M  V30 34782 H 3301.14 -4.45043 4.02563 0
M  V30 34783 H 3302.21 -3.06209 3.75984 0
M  V30 34784 N 3303.55 -1.12326 -1.10547 0
M  V30 34785 C 3304.96 -0.892431 -1.6399 0
M  V30 34786 C 3305.32 0.573473 -1.87632 0
M  V30 34787 O 3304.44 1.43765 -1.61743 0
M  V30 34788 C 3305.04 -1.61352 -2.97911 0
M  V30 34789 C 3303.59 -1.42887 -3.48225 0
M  V30 34790 C 3302.74 -1.65019 -2.22854 0
M  V30 34791 H 3305.69 -1.2782 -0.940628 0
M  V30 34792 H 3305.71 -1.06389 -3.65324 0
M  V30 34793 H 3305.23 -2.68039 -2.80672 0
M  V30 34794 H 3303.33 -0.384506 -3.70611 0
M  V30 34795 H 3303.44 -2.1842 -4.26415 0
M  V30 34796 H 3301.8 -1.07421 -2.30939 0
M  V30 34797 H 3302.59 -2.73001 -2.08148 0
M  V30 34798 N 3305.03 1.28319 -0.914988 0
M  V30 34799 C 3306.26 1.99582 -0.564058 0
M  V30 34800 C 3306.68 1.67911 0.847792 0
M  V30 34801 O 3306.04 0.912199 1.5668 0
M  V30 34802 C 3306.09 3.52031 -0.78143 0
M  V30 34803 O 3305.19 4.12093 0.159 0
M  V30 34804 H 3304.53 0.626993 -0.218576 0
M  V30 34805 H 3307.06 1.63442 -1.23076 0
M  V30 34806 H 3307.07 4.02088 -0.692016 0
M  V30 34807 H 3305.75 3.74417 -1.81065 0
M  V30 34808 H 3304.32 3.72894 0.0207489 0
M  V30 34809 N 3306.51 0.679102 1.42218 0
M  V30 34810 C 3307.46 -0.0193978 2.27992 0
M  V30 34811 C 3308.44 -0.769288 1.41318 0
M  V30 34812 O 3309.64 -0.647492 1.64732 0
M  V30 34813 C 3306.76 -0.966887 3.29403 0
M  V30 34814 C 3305.85 -0.214113 4.23559 0
M  V30 34815 N 3306.24 0.783314 4.99698 0
M  V30 34816 C 3304.54 -0.451948 4.43704 0
M  V30 34817 C 3305.24 1.23247 5.68494 0
M  V30 34818 N 3304.22 0.561579 5.40691 0
M  V30 34819 H 3308.02 0.745592 2.84285 0
M  V30 34820 H 3305.53 0.508531 1.54233 0
M  V30 34821 H 3307.53 -1.48231 3.89658 0
M  V30 34822 H 3306.19 -1.73166 2.7467 0
M  V30 34823 H 3307.2 1.163 5.04673 0
M  V30 34824 H 3303.88 -1.19588 4.00006 0
M  V30 34825 H 3305.27 2.05923 6.39566 0
M  V30 34826 N 3307.99 -1.51825 0.42272 0
M  V30 34827 C 3308.92 -2.30273 -0.386872 0
M  V30 34828 C 3309.9 -1.35058 -1.03409 0
M  V30 34829 O 3311.08 -1.63972 -1.04052 0
M  V30 34830 C 3308.21 -3.13409 -1.4964 0
M  V30 34831 C 3307.17 -4.16783 -0.973458 0
M  V30 34832 C 3306.49 -4.88348 -2.17762 0
M  V30 34833 C 3307.79 -5.22297 -0.0180276 0
M  V30 34834 H 3309.49 -2.982 0.26775 0
M  V30 34835 H 3307.03 -1.4341 0.130212 0
M  V30 34836 H 3308.99 -3.67062 -2.06986 0
M  V30 34837 H 3307.71 -2.43276 -2.1791 0
M  V30 34838 H 3306.37 -3.64159 -0.422306 0
M  V30 34839 H 3306.02 -4.14731 -2.84617 0
M  V30 34840 H 3305.72 -5.5824 -1.83417 0
M  V30 34841 H 3307.24 -5.44819 -2.75689 0
M  V30 34842 H 3308.66 -5.71109 -0.500721 0
M  V30 34843 H 3307.05 -5.99631 0.237268 0
M  V30 34844 H 3308.12 -4.76031 0.923149 0
M  V30 34845 N 3309.47 -0.153581 -1.5685 0
M  V30 34846 C 3310.42 0.795488 -2.13673 0
M  V30 34847 C 3311.4 1.20497 -1.06626 0
M  V30 34848 O 3312.59 1.17029 -1.3279 0
M  V30 34849 C 3309.72 2.03194 -2.76708 0
M  V30 34850 C 3308.81 1.64525 -3.90886 0
M  V30 34851 N 3309.2 0.967143 -4.96468 0
M  V30 34852 C 3307.5 1.93752 -4.01717 0
M  V30 34853 C 3308.2 0.779426 -5.76455 0
M  V30 34854 N 3307.17 1.31535 -5.27446 0
M  V30 34855 H 3310.97 0.268237 -2.92673 0
M  V30 34856 H 3308.49 0.047731 -1.6233 0
M  V30 34857 H 3310.49 2.7219 -3.15782 0
M  V30 34858 H 3309.15 2.56431 -1.99182 0
M  V30 34859 H 3310.16 0.627163 -5.14089 0
M  V30 34860 H 3306.83 2.48791 -3.35275 0
M  V30 34861 H 3308.22 0.244486 -6.71455 0
M  V30 34862 N 3310.94 1.57141 0.120193 0
M  V30 34863 C 3311.87 2.03289 1.14873 0
M  V30 34864 C 3312.85 0.917137 1.43257 0
M  V30 34865 O 3314.04 1.18677 1.53719 0
M  V30 34866 C 3311.17 2.4362 2.47521 0
M  V30 34867 C 3310.12 3.58629 2.33601 0
M  V30 34868 C 3309.45 3.84856 3.71201 0
M  V30 34869 C 3310.75 4.90394 1.79752 0
M  V30 34870 H 3312.44 2.89465 0.764892 0
M  V30 34871 H 3309.99 1.39258 0.366492 0
M  V30 34872 H 3311.94 2.74509 3.19723 0
M  V30 34873 H 3310.67 1.54414 2.87791 0
M  V30 34874 H 3309.33 3.27948 1.63847 0
M  V30 34875 H 3308.97 2.92857 4.08954 0
M  V30 34876 H 3308.67 4.62269 3.62741 0
M  V30 34877 H 3310.2 4.18196 4.4491 0
M  V30 34878 H 3311.61 5.19827 2.41771 0
M  V30 34879 H 3310.01 5.71799 1.82116 0
M  V30 34880 H 3311.08 4.78986 0.755003 0
M  V30 34881 N 3312.42 -0.39034 1.5269 0
M  V30 34882 C 3313.83 -0.968338 1.59625 0
M  V30 34883 C 3314.18 -1.9101 0.448273 0
M  V30 34884 O 3313.31 -2.12108 -0.428831 0
M  V30 34885 C 3313.9 -1.76301 2.89315 0
M  V30 34886 C 3312.46 -2.29073 2.98668 0
M  V30 34887 C 3311.61 -1.09588 2.54727 0
M  V30 34888 H 3314.56 -0.169931 1.57788 0
M  V30 34889 H 3314.58 -2.62213 2.75726 0
M  V30 34890 H 3314.09 -1.07732 3.72848 0
M  V30 34891 H 3312.2 -3.00958 2.1967 0
M  V30 34892 H 3312.31 -2.58652 4.03282 0
M  V30 34893 H 3310.67 -1.45551 2.09015 0
M  V30 34894 H 3311.46 -0.425565 3.40652 0
M  V30 34895 N 3313.9 -1.4363 -0.648706 0
M  V30 34896 C 3315.31 -1.40457 -1.22998 0
M  V30 34897 C 3315.66 -0.110931 -1.95886 0
M  V30 34898 O 3314.79 0.789451 -2.01486 0
M  V30 34899 C 3315.38 -2.54438 -2.23712 0
M  V30 34900 C 3313.94 -2.54515 -2.77306 0
M  V30 34901 C 3313.09 -2.31917 -1.5202 0
M  V30 34902 H 3316.04 -1.52466 -0.440446 0
M  V30 34903 H 3316.06 -2.26185 -3.05975 0
M  V30 34904 H 3315.57 -3.48577 -1.70634 0
M  V30 34905 H 3313.67 -1.64269 -3.34435 0
M  V30 34906 H 3313.79 -3.52432 -3.24544 0
M  V30 34907 H 3312.15 -1.8067 -1.79528 0
M  V30 34908 H 3312.93 -3.28146 -1.0087 0
M  V30 34909 N 3315.38 0.887495 -1.30236 0
M  V30 34910 C 3316.29 2.02577 -1.1832 0
M  V30 34911 C 3317.3 1.73691 -0.103688 0
M  V30 34912 O 3318.48 1.98871 -0.318135 0
M  V30 34913 C 3315.55 3.35522 -0.873281 0
M  V30 34914 C 3314.61 3.77847 -2.0379 0
M  V30 34915 C 3313.84 5.04447 -1.74267 0
M  V30 34916 O 3314.06 5.66459 -0.669395 0
M  V30 34917 O 3313 5.43119 -2.59433 0
M  V30 34918 H 3316.82 2.15557 -2.13937 0
M  V30 34919 H 3314.41 1.01308 -1.09805 0
M  V30 34920 H 3316.29 4.15281 -0.715536 0
M  V30 34921 H 3314.96 3.23657 0.0529991 0
M  V30 34922 H 3313.87 2.98802 -2.25096 0
M  V30 34923 H 3315.2 3.94313 -2.94581 0
M  V30 34924 N 3316.86 1.12911 1.0995 0
M  V30 34925 C 3317.8 0.801552 2.16434 0
M  V30 34926 C 3318.77 -0.233948 1.64444 0
M  V30 34927 O 3319.96 -0.107397 1.90498 0
M  V30 34928 C 3317.1 0.267813 3.44059 0
M  V30 34929 C 3316.21 1.36173 4.09977 0
M  V30 34930 C 3315.35 0.786896 5.25339 0
M  V30 34931 C 3314.39 1.85958 5.83169 0
M  V30 34932 N 3313.52 1.3031 6.89901 0
M  V30 34933 H 3318.36 1.71369 2.43796 0
M  V30 34934 H 3315.9 0.85552 1.19663 0
M  V30 34935 H 3317.86 -0.0597297 4.17157 0
M  V30 34936 H 3316.49 -0.607472 3.17033 0
M  V30 34937 H 3315.54 1.80596 3.34797 0
M  V30 34938 H 3316.85 2.17267 4.48995 0
M  V30 34939 H 3316.01 0.410317 6.05311 0
M  V30 34940 H 3314.74 -0.0551933 4.87669 0
M  V30 34941 H 3313.75 2.24529 5.01863 0
M  V30 34942 H 3314.97 2.70498 6.22903 0
M  V30 34943 H 3312.92 0.482921 6.5422 0
M  V30 34944 H 3312.84 2.05059 7.27659 0
M  V30 34945 H 3314.11 0.953915 7.73641 0
M  V30 34946 N 3318.33 -1.27832 0.92178 0
M  V30 34947 C 3319.24 -2.30779 0.421709 0
M  V30 34948 C 3320.26 -1.66821 -0.494657 0
M  V30 34949 O 3321.44 -1.97804 -0.3789 0
M  V30 34950 C 3318.5 -3.45193 -0.322867 0
M  V30 34951 C 3317.56 -4.24686 0.627692 0
M  V30 34952 C 3316.8 -5.33638 -0.0814447 0
M  V30 34953 O 3317.02 -5.55345 -1.30183 0
M  V30 34954 O 3315.95 -5.99027 0.587355 0
M  V30 34955 H 3319.78 -2.75578 1.27635 0
M  V30 34956 H 3317.36 -1.32673 0.6869 0
M  V30 34957 H 3319.25 -4.14797 -0.743072 0
M  V30 34958 H 3317.92 -3.02461 -1.15321 0
M  V30 34959 H 3316.83 -3.5764 1.09746 0
M  V30 34960 H 3318.16 -4.71118 1.42508 0
M  V30 34961 N 3319.81 -0.686634 -1.41856 0
M  V30 34962 C 3320.76 -0.0156836 -2.30795 0
M  V30 34963 C 3321.73 0.780544 -1.46618 0
M  V30 34964 O 3322.91 0.750393 -1.75424 0
M  V30 34965 C 3320.05 0.921171 -3.32578 0
M  V30 34966 C 3319.17 0.11751 -4.3184 0
M  V30 34967 C 3318.3 1.05119 -5.20695 0
M  V30 34968 C 3317.34 0.23991 -6.1163 0
M  V30 34969 N 3316.48 1.12692 -6.92997 0
M  V30 34970 H 3321.32 -0.779901 -2.87614 0
M  V30 34971 H 3318.86 -0.396323 -1.4166 0
M  V30 34972 H 3320.81 1.47829 -3.90131 0
M  V30 34973 H 3319.44 1.65189 -2.77331 0
M  V30 34974 H 3318.5 -0.556406 -3.76309 0
M  V30 34975 H 3319.81 -0.511841 -4.96167 0
M  V30 34976 H 3318.96 1.67784 -5.83038 0
M  V30 34977 H 3317.7 1.71441 -4.56573 0
M  V30 34978 H 3316.71 -0.399875 -5.48344 0
M  V30 34979 H 3317.93 -0.419385 -6.77804 0
M  V30 34980 H 3315.88 1.77633 -6.31492 0
M  V30 34981 H 3315.79 0.552933 -7.53975 0
M  V30 34982 H 3317.06 1.74067 -7.59816 0
M  V30 34983 N 3321.29 1.51599 -0.430766 0
M  V30 34984 C 3322.57 1.946 0.197509 0
M  V30 34985 C 3322.95 1.36904 1.60688 0
M  V30 34986 O 3322.3 0.553461 2.21696 0
M  V30 34987 C 3322.51 3.48526 0.181915 0
M  V30 34988 C 3323.85 4.22799 0.390708 0
M  V30 34989 O 3324.88 3.55247 0.260322 0
M  V30 34990 O 3323.74 5.42625 0.649606 0
M  V30 34991 H 3320.83 0.816152 0.13351 0
M  V30 34992 H 3323.38 1.62524 -0.488271 0
M  V30 34993 H 3322.15 3.82958 -0.803651 0
M  V30 34994 H 3321.77 3.87025 0.910884 0
M  V30 34995 N 3322.77 0.161897 1.56766 0
M  V30 34996 C 3324.02 -0.485502 1.9577 0
M  V30 34997 C 3324.33 -1.65023 1.05009 0
M  V30 34998 O 3325.54 -2.36324 1.33653 0
M  V30 34999 C 3323.99 -0.915115 3.48071 0
M  V30 35000 C 3323.6 0.223495 4.47442 0
M  V30 35001 C 3325.34 -1.53146 3.95912 0
M  V30 35002 C 3323.25 -0.225222 5.90971 0
M  V30 35003 H 3322.18 -0.185148 0.730915 0
M  V30 35004 H 3324.83 0.248624 1.81808 0
M  V30 35005 H 3323.21 -1.70494 3.57418 0
M  V30 35006 H 3324.39 1.00069 4.49803 0
M  V30 35007 H 3322.7 0.749199 4.09605 0
M  V30 35008 H 3325.3 -1.87907 5.00595 0
M  V30 35009 H 3325.64 -2.42593 3.38311 0
M  V30 35010 H 3326.18 -0.806253 3.89544 0
M  V30 35011 H 3322.92 0.634238 6.52424 0
M  V30 35012 H 3322.44 -0.967976 5.91938 0
M  V30 35013 H 3324.11 -0.67226 6.43498 0
M  V30 35014 N 3324.25 -1.57203 -0.111858 0
M  V30 35015 C 3325.49 -1.85501 -0.819591 0
M  V30 35016 C 3325.83 -0.748661 -1.79189 0
M  V30 35017 O 3325.1 0.244884 -1.92952 0
M  V30 35018 C 3325.38 -3.24402 -1.56318 0
M  V30 35019 C 3325.24 -4.45644 -0.610003 0
M  V30 35020 C 3326.56 -3.6097 -2.51771 0
M  V30 35021 H 3323.67 -0.674727 -0.2965 0
M  V30 35022 H 3326.32 -1.89816 -0.0836407 0
M  V30 35023 H 3324.47 -3.20854 -2.19054 0
M  V30 35024 H 3326.14 -4.61299 0.00906146 0
M  V30 35025 H 3324.38 -4.3373 0.0779251 0
M  V30 35026 H 3325.05 -5.39521 -1.16708 0
M  V30 35027 H 3327.53 -3.65354 -1.99137 0
M  V30 35028 H 3326.4 -4.59124 -3.00827 0
M  V30 35029 H 3326.67 -2.88766 -3.34764 0
M  V30 35030 N 3325.72 0.382237 -1.52894 0
M  V30 35031 C 3326.67 1.46731 -1.78153 0
M  V30 35032 C 3327.64 1.5389 -0.625061 0
M  V30 35033 O 3328.83 1.70041 -0.865497 0
M  V30 35034 C 3325.97 2.83881 -1.96228 0
M  V30 35035 C 3325.08 2.85821 -3.2393 0
M  V30 35036 C 3324.21 4.1444 -3.32284 0
M  V30 35037 C 3323.25 4.10457 -4.54083 0
M  V30 35038 N 3322.39 5.30695 -4.59681 0
M  V30 35039 H 3327.23 1.24493 -2.7075 0
M  V30 35040 H 3324.77 0.603815 -1.34136 0
M  V30 35041 H 3326.73 3.63534 -2.04692 0
M  V30 35042 H 3325.36 3.04555 -1.06985 0
M  V30 35043 H 3324.41 1.98499 -3.24503 0
M  V30 35044 H 3325.72 2.78747 -4.13645 0
M  V30 35045 H 3324.87 5.025 -3.39969 0
M  V30 35046 H 3323.61 4.24245 -2.40556 0
M  V30 35047 H 3322.62 3.20785 -4.46517 0
M  V30 35048 H 3323.84 4.02269 -5.47135 0
M  V30 35049 H 3321.79 5.41117 -3.70848 0
M  V30 35050 H 3321.71 5.25724 -5.43277 0
M  V30 35051 H 3322.97 6.20634 -4.71629 0
M  V30 35052 N 3327.2 1.43972 0.64108 0
M  V30 35053 C 3328.45 1.46231 1.40081 0
M  V30 35054 C 3328.78 0.0911352 1.94286 0
M  V30 35055 O 3328.03 -0.905657 1.73483 0
M  V30 35056 C 3328.33 2.46188 2.59088 0
M  V30 35057 C 3328 3.91764 2.2323 0
M  V30 35058 C 3326.66 4.3141 2.13163 0
M  V30 35059 C 3329.01 4.83453 1.94738 0
M  V30 35060 C 3326.34 5.60682 1.72778 0
M  V30 35061 C 3328.69 6.13102 1.55848 0
M  V30 35062 C 3327.36 6.51713 1.44315 0
M  V30 35063 H 3326.63 0.535097 0.512594 0
M  V30 35064 H 3329.27 1.77126 0.727924 0
M  V30 35065 H 3327.58 2.0874 3.31564 0
M  V30 35066 H 3329.28 2.45186 3.17309 0
M  V30 35067 H 3325.87 3.60393 2.3198 0
M  V30 35068 H 3330.05 4.53585 2.0143 0
M  V30 35069 H 3325.31 5.89425 1.62445 0
M  V30 35070 H 3329.48 6.83614 1.32836 0
M  V30 35071 H 3327.11 7.51786 1.12793 0
M  V30 35072 N 3328.68 -0.880575 1.30704 0
M  V30 35073 C 3329.93 -1.63517 1.19958 0
M  V30 35074 C 3330.26 -1.92659 -0.244181 0
M  V30 35075 O 3329.54 -1.55065 -1.1741 0
M  V30 35076 C 3329.82 -2.97218 2.03307 0
M  V30 35077 C 3329.67 -2.75021 3.55926 0
M  V30 35078 C 3330.99 -3.98194 1.87428 0
M  V30 35079 H 3328.11 -0.593369 0.43713 0
M  V30 35080 H 3330.75 -1.01868 1.60384 0
M  V30 35081 H 3328.9 -3.49836 1.68959 0
M  V30 35082 H 3330.57 -2.29157 4.00356 0
M  V30 35083 H 3328.82 -2.09445 3.79888 0
M  V30 35084 H 3329.49 -3.7011 4.0954 0
M  V30 35085 H 3331.96 -3.54751 2.17465 0
M  V30 35086 H 3330.84 -4.89648 2.48065 0
M  V30 35087 H 3331.1 -4.3415 0.83464 0
M  V30 35088 N 3330.16 -1.13492 -1.09349 0
M  V30 35089 C 3331.41 -0.898484 -1.81811 0
M  V30 35090 C 3331.74 0.573926 -1.85526 0
M  V30 35091 O 3331.01 1.42475 -1.32405 0
M  V30 35092 C 3331.3 -1.488 -3.27918 0
M  V30 35093 C 3331.15 -3.02958 -3.32471 0
M  V30 35094 C 3332.47 -1.15685 -4.24623 0
M  V30 35095 H 3329.59 -0.327841 -0.660068 0
M  V30 35096 H 3332.23 -1.40333 -1.28088 0
M  V30 35097 H 3330.38 -1.05865 -3.73798 0
M  V30 35098 H 3332.05 -3.54654 -2.94988 0
M  V30 35099 H 3330.29 -3.37908 -2.72031 0
M  V30 35100 H 3330.97 -3.39306 -4.35403 0
M  V30 35101 H 3333.44 -1.52788 -3.87034 0
M  V30 35102 H 3332.32 -1.5958 -5.25191 0
M  V30 35103 H 3332.58 -0.070671 -4.42044 0
M  V30 35104 N 3331.64 1.27341 -0.928546 0
M  V30 35105 C 3332.6 2.25074 -0.43296 0
M  V30 35106 C 3333.6 1.54406 0.448949 0
M  V30 35107 O 3334.79 1.72398 0.249909 0
M  V30 35108 C 3331.92 3.38804 0.377479 0
M  V30 35109 H 3333.12 2.70429 -1.29647 0
M  V30 35110 H 3330.67 1.39278 -0.709313 0
M  V30 35111 H 3331.4 2.98832 1.25977 0
M  V30 35112 H 3331.19 3.91271 -0.254851 0
M  V30 35113 H 3332.68 4.11441 0.714562 0
M  V30 35114 N 3333.12 0.694147 1.4149 0
M  V30 35115 C 3334.34 0.233503 2.05578 0
M  V30 35116 C 3334.76 -1.11673 1.52232 0
M  V30 35117 O 3334.12 -1.69758 0.669967 0
M  V30 35118 C 3334.17 0.181031 3.61046 0
M  V30 35119 O 3333.89 1.47792 4.12419 0
M  V30 35120 C 3335.39 -0.300776 4.42278 0
M  V30 35121 H 3332.61 0.108955 0.662095 0
M  V30 35122 H 3335.15 0.946331 1.81287 0
M  V30 35123 H 3333.31 -0.482611 3.84382 0
M  V30 35124 H 3333.72 1.36409 5.06451 0
M  V30 35125 H 3335.2 -0.286367 5.51257 0
M  V30 35126 H 3335.67 -1.33941 4.18278 0
M  V30 35127 H 3336.28 0.331816 4.24004 0
M  V30 35128 N 3334.59 -1.51368 0.438799 0
M  V30 35129 C 3335.52 -2.3067 -0.362427 0
M  V30 35130 C 3336.5 -1.36147 -1.01971 0
M  V30 35131 O 3337.69 -1.65067 -1.02307 0
M  V30 35132 C 3334.82 -3.14979 -1.46307 0
M  V30 35133 C 3333.77 -4.17792 -0.929198 0
M  V30 35134 C 3333.1 -4.9063 -2.1257 0
M  V30 35135 C 3334.4 -5.22287 0.03737 0
M  V30 35136 H 3336.09 -2.979 0.299363 0
M  V30 35137 H 3333.64 -1.43264 0.145415 0
M  V30 35138 H 3335.59 -3.69237 -2.03081 0
M  V30 35139 H 3334.32 -2.45573 -2.15317 0
M  V30 35140 H 3332.98 -3.64587 -0.383658 0
M  V30 35141 H 3332.62 -4.17727 -2.80203 0
M  V30 35142 H 3332.32 -5.60154 -1.77486 0
M  V30 35143 H 3333.85 -5.47713 -2.69895 0
M  V30 35144 H 3335.26 -5.71608 -0.440119 0
M  V30 35145 H 3333.66 -5.99345 0.300854 0
M  V30 35146 H 3334.73 -4.75026 0.973586 0
M  V30 35147 N 3336.07 -0.170208 -1.56678 0
M  V30 35148 C 3336.98 0.77304 -2.21498 0
M  V30 35149 C 3338 1.25399 -1.20628 0
M  V30 35150 O 3339.17 1.30635 -1.53286 0
M  V30 35151 C 3336.24 1.98553 -2.84214 0
M  V30 35152 C 3335.3 1.55157 -4.00281 0
M  V30 35153 C 3334.53 2.70626 -4.59997 0
M  V30 35154 O 3334.76 3.87465 -4.18602 0
M  V30 35155 O 3333.69 2.44765 -5.49885 0
M  V30 35156 H 3337.52 0.251142 -3.0266 0
M  V30 35157 H 3335.1 0.0579358 -1.49288 0
M  V30 35158 H 3336.98 2.69466 -3.23984 0
M  V30 35159 H 3335.66 2.49651 -2.06049 0
M  V30 35160 H 3334.56 0.811974 -3.65182 0
M  V30 35161 H 3335.9 1.08752 -4.80035 0
M  V30 35162 N 3337.55 1.5726 0.10352 0
M  V30 35163 C 3338.51 2.00509 1.11036 0
M  V30 35164 C 3339.51 0.897384 1.3343 0
M  V30 35165 O 3340.7 1.16307 1.29686 0
M  V30 35166 C 3337.83 2.35856 2.4614 0
M  V30 35167 H 3339.03 2.90671 0.738281 0
M  V30 35168 H 3336.58 1.5237 0.348308 0
M  V30 35169 H 3337.32 1.48622 2.8824 0
M  V30 35170 H 3337.1 3.16658 2.31236 0
M  V30 35171 H 3338.59 2.70003 3.18572 0
M  V30 35172 N 3339.03 -0.374123 1.53095 0
M  V30 35173 C 3339.96 -1.46401 1.81904 0
M  V30 35174 C 3340.94 -1.56264 0.671977 0
M  V30 35175 O 3342.12 -1.70971 0.921008 0
M  V30 35176 C 3339.25 -2.83842 2.00128 0
M  V30 35177 C 3338.21 -2.88809 3.15869 0
M  V30 35178 C 3337.53 -4.28842 3.19372 0
M  V30 35179 C 3338.83 -2.57104 4.54637 0
M  V30 35180 H 3340.53 -1.22542 2.73174 0
M  V30 35181 H 3338.07 -0.588064 1.31445 0
M  V30 35182 H 3340.03 -3.60106 2.18865 0
M  V30 35183 H 3338.75 -3.0907 1.05561 0
M  V30 35184 H 3337.41 -2.14995 2.96939 0
M  V30 35185 H 3337.06 -4.51133 2.22458 0
M  V30 35186 H 3336.76 -4.33083 3.97131 0
M  V30 35187 H 3338.28 -5.06991 3.40282 0
M  V30 35188 H 3339.7 -3.23083 4.73593 0
M  V30 35189 H 3338.09 -2.72673 5.34574 0
M  V30 35190 H 3339.16 -1.52384 4.60334 0
M  V30 35191 N 3340.51 -1.4431 -0.633436 0
M  V30 35192 C 3341.73 -1.50671 -1.42524 0
M  V30 35193 C 3342.16 -0.131894 -1.87637 0
M  V30 35194 O 3341.51 0.878449 -1.58597 0
M  V30 35195 C 3341.56 -2.47424 -2.62324 0
M  V30 35196 O 3340.67 -1.97417 -3.62078 0
M  V30 35197 H 3340.01 -0.508872 -0.426551 0
M  V30 35198 H 3342.54 -1.89421 -0.773359 0
M  V30 35199 H 3342.55 -2.65384 -3.09896 0
M  V30 35200 H 3341.22 -3.47287 -2.28834 0
M  V30 35201 H 3339.8 -1.89213 -3.2133 0
M  V30 35202 N 3341.98 0.873632 -1.3117 0
M  V30 35203 C 3343.23 1.62875 -1.21834 0
M  V30 35204 C 3343.59 1.91112 0.222239 0
M  V30 35205 O 3342.88 1.52904 1.1546 0
M  V30 35206 C 3343.07 2.96733 -1.99209 0
M  V30 35207 C 3342.9 2.81565 -3.50644 0
M  V30 35208 C 3341.67 2.80946 -4.19997 0
M  V30 35209 C 3343.87 2.56689 -4.45663 0
M  V30 35210 N 3341.85 2.56789 -5.57613 0
M  V30 35211 C 3343.22 2.41761 -5.70922 0
M  V30 35212 C 3345.28 2.42004 -4.3513 0
M  V30 35213 C 3343.98 2.13642 -6.8684 0
M  V30 35214 C 3346.01 2.15272 -5.50828 0
M  V30 35215 C 3345.37 2.0113 -6.75075 0
M  V30 35216 H 3341.47 0.600501 -0.500921 0
M  V30 35217 H 3344.05 1.02854 -1.65315 0
M  V30 35218 H 3342.22 3.54765 -1.58102 0
M  V30 35219 H 3343.95 3.61506 -1.81923 0
M  V30 35220 H 3340.71 2.93194 -3.71933 0
M  V30 35221 H 3341.13 2.47691 -6.30062 0
M  V30 35222 H 3345.78 2.51667 -3.3974 0
M  V30 35223 H 3343.49 2.02716 -7.82261 0
M  V30 35224 H 3347.08 2.04715 -5.44594 0
M  V30 35225 H 3345.96 1.80737 -7.63088 0
M  V30 35226 N 3343.46 1.1407 1.08746 0
M  V30 35227 C 3344.41 0.793124 2.1376 0
M  V30 35228 C 3345.4 -0.216095 1.59442 0
M  V30 35229 O 3346.59 -0.0189577 1.7699 0
M  V30 35230 C 3343.72 0.268492 3.42248 0
M  V30 35231 C 3342.8 1.30703 4.03457 0
M  V30 35232 N 3343.19 2.5101 4.39121 0
M  V30 35233 C 3341.49 1.15644 4.30746 0
M  V30 35234 C 3342.19 3.17465 4.87433 0
M  V30 35235 N 3341.17 2.44874 4.85322 0
M  V30 35236 H 3344.97 1.70835 2.39149 0
M  V30 35237 H 3342.49 1.02405 1.26044 0
M  V30 35238 H 3344.48 0.00120582 4.169 0
M  V30 35239 H 3343.14 -0.640976 3.18311 0
M  V30 35240 H 3344.15 2.88264 4.30261 0
M  V30 35241 H 3340.83 0.305709 4.16379 0
M  V30 35242 H 3342.22 4.2002 5.24436 0
M  V30 35243 N 3344.94 -1.26847 0.935286 0
M  V30 35244 C 3345.87 -2.28968 0.457817 0
M  V30 35245 C 3346.85 -1.63014 -0.485841 0
M  V30 35246 O 3348.04 -1.90265 -0.388964 0
M  V30 35247 C 3345.17 -3.46143 -0.283271 0
M  V30 35248 C 3344.12 -4.24143 0.573271 0
M  V30 35249 C 3343.45 -5.33872 -0.297431 0
M  V30 35250 C 3344.75 -4.88755 1.84162 0
M  V30 35251 H 3346.44 -2.69157 1.3113 0
M  V30 35252 H 3343.99 -1.29391 0.631979 0
M  V30 35253 H 3345.94 -4.1669 -0.628292 0
M  V30 35254 H 3344.66 -3.04892 -1.17084 0
M  V30 35255 H 3343.32 -3.55353 0.901105 0
M  V30 35256 H 3342.97 -4.88862 -1.18418 0
M  V30 35257 H 3342.67 -5.86969 0.272229 0
M  V30 35258 H 3344.19 -6.07259 -0.637854 0
M  V30 35259 H 3345.61 -5.51548 1.5642 0
M  V30 35260 H 3344.01 -5.51944 2.35538 0
M  V30 35261 H 3345.08 -4.12028 2.55657 0
M  V30 35262 N 3346.42 -0.701641 -1.4112 0
M  V30 35263 C 3347.67 -0.232249 -2.00358 0
M  V30 35264 C 3347.98 1.17688 -1.56234 0
M  V30 35265 O 3349.19 1.74406 -2.08074 0
M  V30 35266 C 3347.64 -0.36432 -3.58051 0
M  V30 35267 C 3347.25 -1.7792 -4.11155 0
M  V30 35268 C 3348.99 0.0449881 -4.24476 0
M  V30 35269 C 3346.9 -1.8626 -5.61303 0
M  V30 35270 H 3345.83 -0.083074 -0.74941 0
M  V30 35271 H 3348.48 -0.870717 -1.61526 0
M  V30 35272 H 3346.86 0.3425 -3.94516 0
M  V30 35273 H 3348.04 -2.51527 -3.86097 0
M  V30 35274 H 3346.35 -2.13873 -3.57278 0
M  V30 35275 H 3348.95 0.0031981 -5.347 0
M  V30 35276 H 3349.29 1.08469 -4.0192 0
M  V30 35277 H 3349.83 -0.611773 -3.93068 0
M  V30 35278 H 3346.57 -2.88304 -5.88694 0
M  V30 35279 H 3346.09 -1.17046 -5.88269 0
M  V30 35280 H 3347.76 -1.62828 -6.26176 0
M  V30 35281 N 3347.9 1.51133 -0.446821 0
M  V30 35282 C 3348.85 2.24845 0.377962 0
M  V30 35283 C 3349.83 1.2745 0.982103 0
M  V30 35284 O 3351.02 1.52489 0.898673 0
M  V30 35285 C 3348.15 3.10081 1.47324 0
M  V30 35286 C 3347.24 4.14911 0.878029 0
M  V30 35287 N 3347.63 5.05798 0.0128563 0
M  V30 35288 C 3345.93 4.31062 1.1446 0
M  V30 35289 C 3346.63 5.80806 -0.322435 0
M  V30 35290 N 3345.6 5.42792 0.296342 0
M  V30 35291 H 3349.41 2.92477 -0.288901 0
M  V30 35292 H 3346.92 1.60314 -0.259467 0
M  V30 35293 H 3348.92 3.61474 2.07707 0
M  V30 35294 H 3347.58 2.43995 2.14234 0
M  V30 35295 H 3348.59 5.16687 -0.354268 0
M  V30 35296 H 3345.26 3.76201 1.8105 0
M  V30 35297 H 3346.65 6.64004 -1.02704 0
M  V30 35298 N 3349.37 0.178515 1.56586 0
M  V30 35299 C 3350.28 -0.761282 2.21905 0
M  V30 35300 C 3351.3 -1.24758 1.21291 0
M  V30 35301 O 3352.48 -1.2982 1.53976 0
M  V30 35302 C 3349.54 -1.97043 2.85263 0
M  V30 35303 C 3348.6 -1.53032 4.01098 0
M  V30 35304 C 3347.84 -2.68183 4.61426 0
M  V30 35305 O 3348.06 -3.85239 4.20651 0
M  V30 35306 O 3346.99 -2.41846 5.51175 0
M  V30 35307 H 3350.82 -0.235088 3.02789 0
M  V30 35308 H 3348.4 -0.0500179 1.49316 0
M  V30 35309 H 3350.29 -2.67744 3.25409 0
M  V30 35310 H 3348.96 -2.48555 2.0737 0
M  V30 35311 H 3347.87 -0.792596 3.65607 0
M  V30 35312 H 3349.2 -1.06204 4.80605 0
M  V30 35313 N 3350.85 -1.57312 -0.0951784 0
M  V30 35314 C 3351.78 -1.98741 -1.14169 0
M  V30 35315 C 3352.8 -0.889958 -1.36322 0
M  V30 35316 O 3353.99 -1.16807 -1.34975 0
M  V30 35317 C 3351.09 -2.29108 -2.49725 0
M  V30 35318 C 3350.26 -3.60401 -2.47851 0
M  V30 35319 C 3349.32 -3.78705 -3.65334 0
M  V30 35320 O 3348.34 -4.50559 -3.47829 0
M  V30 35321 N 3349.55 -3.19276 -4.84812 0
M  V30 35322 H 3352.31 -2.89126 -0.789075 0
M  V30 35323 H 3349.87 -1.59387 -0.284159 0
M  V30 35324 H 3351.86 -2.38547 -3.26921 0
M  V30 35325 H 3350.43 -1.44731 -2.77077 0
M  V30 35326 H 3349.65 -3.61932 -1.56202 0
M  V30 35327 H 3350.94 -4.46653 -2.43677 0
M  V30 35328 H 3350.34 -2.60911 -5.01938 0
M  V30 35329 H 3348.9 -3.34201 -5.59601 0
M  V30 35330 N 3352.33 0.365999 -1.53291 0
M  V30 35331 C 3353.58 1.10599 -1.68673 0
M  V30 35332 C 3353.89 1.90475 -0.444826 0
M  V30 35333 O 3355.1 2.67238 -0.479182 0
M  V30 35334 C 3353.55 2.0154 -2.98177 0
M  V30 35335 C 3353.16 1.26978 -4.29628 0
M  V30 35336 C 3354.91 2.75534 -3.22926 0
M  V30 35337 C 3352.81 2.16819 -5.50221 0
M  V30 35338 H 3351.74 0.416593 -0.628464 0
M  V30 35339 H 3354.39 0.367027 -1.79792 0
M  V30 35340 H 3352.78 2.79166 -2.8086 0
M  V30 35341 H 3353.95 0.544189 -4.57575 0
M  V30 35342 H 3352.27 0.648486 -4.11319 0
M  V30 35343 H 3354.86 3.42978 -4.10208 0
M  V30 35344 H 3355.21 3.4088 -2.3897 0
M  V30 35345 H 3355.74 2.04992 -3.40915 0
M  V30 35346 H 3352.48 1.56051 -6.36654 0
M  V30 35347 H 3352 2.87229 -5.26554 0
M  V30 35348 H 3353.68 2.76386 -5.84995 0
M  V30 35349 N 3353.81 1.44644 0.625774 0
M  V30 35350 C 3355.22 1.42396 1.20748 0
M  V30 35351 C 3355.57 0.142081 1.95685 0
M  V30 35352 O 3354.7 -0.757297 2.02716 0
M  V30 35353 C 3355.29 2.57964 2.19636 0
M  V30 35354 C 3353.85 2.58895 2.73222 0
M  V30 35355 C 3353 2.34306 1.48311 0
M  V30 35356 H 3355.95 1.53147 0.416135 0
M  V30 35357 H 3355.97 2.31024 3.02338 0
M  V30 35358 H 3355.48 3.51247 1.65067 0
M  V30 35359 H 3353.58 1.69569 3.31779 0
M  V30 35360 H 3353.69 3.5755 3.18896 0
M  V30 35361 H 3352.06 1.83504 1.76631 0
M  V30 35362 H 3352.84 3.2971 0.956369 0
M  V30 35363 N 3355.29 -0.866663 1.31631 0
M  V30 35364 C 3356.22 -1.98999 1.22154 0
M  V30 35365 C 3357.2 -1.69757 0.108002 0
M  V30 35366 O 3358.38 -1.91975 0.293158 0
M  V30 35367 C 3355.51 -3.34575 0.931499 0
M  V30 35368 C 3354.47 -3.78134 2.00497 0
M  V30 35369 C 3353.79 -5.11206 1.56756 0
M  V30 35370 C 3355.09 -3.94886 3.41851 0
M  V30 35371 H 3356.79 -2.07186 2.16135 0
M  V30 35372 H 3354.33 -0.995444 1.04052 0
M  V30 35373 H 3356.29 -4.12701 0.851792 0
M  V30 35374 H 3355.01 -3.2657 -0.0439715 0
M  V30 35375 H 3353.67 -3.0225 2.07462 0
M  V30 35376 H 3353.32 -4.99647 0.579855 0
M  V30 35377 H 3353.02 -5.41322 2.28571 0
M  V30 35378 H 3354.54 -5.91838 1.50199 0
M  V30 35379 H 3355.95 -4.63399 3.37542 0
M  V30 35380 H 3354.35 -4.36403 4.11913 0
M  V30 35381 H 3355.42 -2.98165 3.82394 0
M  V30 35382 N 3356.77 -1.14645 -1.0814 0
M  V30 35383 C 3357.99 -0.940382 -1.84856 0
M  V30 35384 C 3358.42 0.506085 -1.81164 0
M  V30 35385 O 3357.77 1.36016 -1.19872 0
M  V30 35386 C 3357.82 -1.44926 -3.30195 0
M  V30 35387 O 3356.93 -0.643151 -4.07354 0
M  V30 35388 H 3356.27 -0.336014 -0.572705 0
M  V30 35389 H 3358.8 -1.52435 -1.36473 0
M  V30 35390 H 3358.81 -1.45861 -3.81036 0
M  V30 35391 H 3357.48 -2.50235 -3.32197 0
M  V30 35392 H 3356.06 -0.702763 -3.66218 0
M  V30 35393 N 3358.24 1.26349 -0.942 0
M  V30 35394 C 3359.17 2.28722 -0.469953 0
M  V30 35395 C 3360.15 1.63269 0.47719 0
M  V30 35396 O 3361.34 1.90468 0.378869 0
M  V30 35397 C 3358.47 3.46288 0.26491 0
M  V30 35398 C 3357.42 4.23833 -0.595756 0
M  V30 35399 C 3356.75 5.34022 0.269114 0
M  V30 35400 C 3358.05 4.87772 -1.86751 0
M  V30 35401 H 3359.74 2.68457 -1.32555 0
M  V30 35402 H 3357.29 1.29054 -0.638832 0
M  V30 35403 H 3359.24 4.17017 0.606185 0
M  V30 35404 H 3357.97 3.05508 1.15466 0
M  V30 35405 H 3356.63 3.5487 -0.919938 0
M  V30 35406 H 3356.27 4.89483 1.15824 0
M  V30 35407 H 3355.97 5.86816 -0.303354 0
M  V30 35408 H 3357.5 6.07589 0.605641 0
M  V30 35409 H 3358.91 5.50711 -1.59343 0
M  V30 35410 H 3357.31 5.50687 -2.38462 0
M  V30 35411 H 3358.38 4.10667 -2.57839 0
M  V30 35412 N 3359.72 0.709115 1.40746 0
M  V30 35413 C 3361 0.17328 1.94831 0
M  V30 35414 C 3361.38 -1.31964 1.64768 0
M  V30 35415 O 3360.73 -2.07268 0.96189 0
M  V30 35416 C 3360.94 0.479074 3.45696 0
M  V30 35417 C 3362.28 0.414196 4.22575 0
M  V30 35418 O 3363.31 0.414761 3.53777 0
M  V30 35419 O 3362.17 0.386082 5.45135 0
M  V30 35420 H 3359.26 0.0229092 0.826683 0
M  V30 35421 H 3361.81 0.786205 1.50389 0
M  V30 35422 H 3360.58 1.51191 3.60911 0
M  V30 35423 H 3360.2 -0.164142 3.97261 0
M  V30 35424 N 3361.2 -1.50894 0.454829 0
M  V30 35425 C 3362.13 -2.31042 -0.337941 0
M  V30 35426 C 3363.11 -1.37221 -1.00521 0
M  V30 35427 O 3364.3 -1.66142 -1.0055 0
M  V30 35428 C 3361.43 -3.16513 -1.42958 0
M  V30 35429 C 3360.38 -4.18754 -0.884833 0
M  V30 35430 C 3359.71 -4.92857 -2.07354 0
M  V30 35431 C 3361.01 -5.22218 0.0927634 0
M  V30 35432 H 3362.7 -2.97565 0.330942 0
M  V30 35433 H 3360.25 -1.43102 0.160602 0
M  V30 35434 H 3362.2 -3.7137 -1.99154 0
M  V30 35435 H 3360.92 -2.47843 -2.127 0
M  V30 35436 H 3359.58 -3.64973 -0.344967 0
M  V30 35437 H 3359.23 -4.20675 -2.75756 0
M  V30 35438 H 3358.93 -5.62005 -1.71535 0
M  V30 35439 H 3360.45 -5.50544 -2.64071 0
M  V30 35440 H 3361.87 -5.72043 -0.379468 0
M  V30 35441 H 3360.26 -5.98993 0.364405 0
M  V30 35442 H 3361.33 -4.73966 1.02391 0
M  V30 35443 N 3362.68 -0.186817 -1.56489 0
M  V30 35444 C 3363.61 0.769066 -2.15912 0
M  V30 35445 C 3364.62 1.18271 -1.11875 0
M  V30 35446 O 3365.81 1.11987 -1.39001 0
M  V30 35447 C 3362.91 2.04877 -2.6996 0
M  V30 35448 C 3362.08 1.79624 -3.98816 0
M  V30 35449 C 3361.14 2.91962 -4.37772 0
M  V30 35450 O 3360.17 2.61927 -5.05354 0
M  V30 35451 N 3361.37 4.20121 -4.00598 0
M  V30 35452 H 3364.14 0.260954 -2.98562 0
M  V30 35453 H 3361.7 -0.00456203 -1.61899 0
M  V30 35454 H 3363.69 2.79153 -2.93011 0
M  V30 35455 H 3362.26 2.46834 -1.91812 0
M  V30 35456 H 3361.48 0.891709 -3.83982 0
M  V30 35457 H 3362.77 1.60139 -4.82942 0
M  V30 35458 H 3362.17 4.47379 -3.46221 0
M  V30 35459 H 3360.72 4.91051 -4.28617 0
M  V30 35460 N 3364.16 1.57361 0.0868344 0
M  V30 35461 C 3365.12 2.01675 1.08903 0
M  V30 35462 C 3366.12 0.911486 1.32471 0
M  V30 35463 O 3367.31 1.17676 1.28445 0
M  V30 35464 C 3364.44 2.38453 2.43625 0
M  V30 35465 H 3365.63 2.91437 0.707409 0
M  V30 35466 H 3363.19 1.52731 0.332127 0
M  V30 35467 H 3363.92 1.5167 2.86647 0
M  V30 35468 H 3363.71 3.19093 2.27864 0
M  V30 35469 H 3365.2 2.73366 3.15691 0
M  V30 35470 N 3365.63 -0.357865 1.53483 0
M  V30 35471 C 3366.88 -1.09751 1.69703 0
M  V30 35472 C 3367.2 -1.89607 0.455422 0
M  V30 35473 O 3366.47 -1.88578 -0.53059 0
M  V30 35474 H 3365.05 -0.408167 0.625627 0
M  V30 35475 H 3367.71 -0.402608 1.90696 0
M  V30 35476 H 3366.81 -1.78298 2.56157 0
M  V30 35477 N 3367.11 -1.44974 -0.618094 0
M  V30 35478 C 3368.04 -1.55676 -1.74032 0
M  V30 35479 C 3369.02 -0.408929 -1.65111 0
M  V30 35480 O 3370.21 -0.63073 -1.83672 0
M  V30 35481 C 3367.34 -1.51308 -3.12607 0
M  V30 35482 C 3366.29 -2.64701 -3.36329 0
M  V30 35483 C 3365.62 -2.45386 -4.75068 0
M  V30 35484 C 3366.92 -4.06778 -3.27611 0
M  V30 35485 H 3368.61 -2.49611 -1.65332 0
M  V30 35486 H 3366.16 -1.20133 -0.793982 0
M  V30 35487 H 3368.11 -1.57394 -3.90903 0
M  V30 35488 H 3366.83 -0.538971 -3.22122 0
M  V30 35489 H 3365.49 -2.58026 -2.60419 0
M  V30 35490 H 3365.14 -1.46138 -4.81303 0
M  V30 35491 H 3364.84 -3.21421 -4.91897 0
M  V30 35492 H 3366.37 -2.5331 -5.55577 0
M  V30 35493 H 3367.78 -4.14753 -3.95794 0
M  V30 35494 H 3366.18 -4.83119 -3.55972 0
M  V30 35495 H 3367.25 -4.29427 -2.25212 0
M  V30 35496 N 3368.59 0.85967 -1.32089 0
M  V30 35497 C 3369.87 1.59666 -1.12987 0
M  V30 35498 C 3370.25 2.08787 0.311624 0
M  V30 35499 O 3369.59 1.87399 1.30743 0
M  V30 35500 C 3369.8 2.74669 -2.1531 0
M  V30 35501 C 3371.15 3.44375 -2.48377 0
M  V30 35502 O 3372.18 2.84888 -2.13816 0
M  V30 35503 O 3371.04 4.51712 -3.07602 0
M  V30 35504 H 3368.13 0.702938 -0.435669 0
M  V30 35505 H 3370.68 0.904235 -1.43603 0
M  V30 35506 H 3369.45 2.3586 -3.12227 0
M  V30 35507 H 3369.07 3.51591 -1.8566 0
M  V30 35508 N 3370.07 1.15217 1.0753 0
M  V30 35509 C 3371.31 0.936428 1.81688 0
M  V30 35510 C 3371.67 -0.527104 1.84623 0
M  V30 35511 O 3372.87 -0.861114 2.54634 0
M  V30 35512 C 3371.14 1.53166 3.22916 0
M  V30 35513 S 3372.7 1.45877 4.13842 0
M  V30 35514 H 3369.52 0.337056 0.62603 0
M  V30 35515 H 3372.12 1.46733 1.29189 0
M  V30 35516 H 3370.83 2.5898 3.18367 0
M  V30 35517 H 3370.36 0.999548 3.8049 0
M  V30 35518 H 3372.37 0.450404 4.94152 0
M  V30 35519 N 3371.55 -1.25848 0.948687 0
M  V30 35520 C 3372.79 -1.95152 0.607854 0
M  V30 35521 C 3373.15 -1.72714 -0.838673 0
M  V30 35522 O 3374.35 -2.35888 -1.28881 0
M  V30 35523 C 3372.62 -3.44551 0.949688 0
M  V30 35524 S 3374.18 -4.32844 0.720532 0
M  V30 35525 H 3371 -0.674917 0.223624 0
M  V30 35526 H 3373.6 -1.52634 1.2216 0
M  V30 35527 H 3372.31 -3.58384 1.99973 0
M  V30 35528 H 3371.84 -3.92047 0.325959 0
M  V30 35529 H 3373.85 -4.9449 -0.41161 0
M  V30 35530 N 3373.02 -0.716569 -1.40368 0
M  V30 35531 C 3374.26 -0.260935 -2.02728 0
M  V30 35532 C 3374.63 1.12493 -1.55593 0
M  V30 35533 O 3375.83 1.67761 -2.10023 0
M  V30 35534 C 3374.1 -0.339049 -3.55788 0
M  V30 35535 S 3375.66 0.0394545 -4.38782 0
M  V30 35536 H 3372.48 -0.103444 -0.703435 0
M  V30 35537 H 3375.08 -0.939007 -1.71473 0
M  V30 35538 H 3373.78 -1.3493 -3.87585 0
M  V30 35539 H 3373.31 0.357467 -3.91773 0
M  V30 35540 H 3375.33 1.2612 -4.79904 0
M  V30 35541 N 3374.5 1.50651 -0.462825 0
M  V30 35542 C 3375.43 2.31218 0.325683 0
M  V30 35543 C 3376.41 1.37752 0.997918 0
M  V30 35544 O 3377.6 1.66673 0.996678 0
M  V30 35545 C 3374.73 3.17266 1.41277 0
M  V30 35546 C 3373.68 4.19217 0.862613 0
M  V30 35547 C 3373.01 4.9395 2.04737 0
M  V30 35548 C 3374.31 5.22161 -0.120457 0
M  V30 35549 H 3376 2.97386 -0.346718 0
M  V30 35550 H 3373.55 1.43014 -0.168188 0
M  V30 35551 H 3375.5 3.72421 1.97181 0
M  V30 35552 H 3374.23 2.48968 2.11383 0
M  V30 35553 H 3372.88 3.65151 0.325607 0
M  V30 35554 H 3372.53 4.22131 2.73522 0
M  V30 35555 H 3372.23 5.62907 1.68552 0
M  V30 35556 H 3373.76 5.51937 2.61147 0
M  V30 35557 H 3375.17 5.72236 0.349126 0
M  V30 35558 H 3373.57 5.98791 -0.396166 0
M  V30 35559 H 3374.64 4.73417 -1.04904 0
M  V30 35560 N 3375.98 0.195113 1.56388 0
M  V30 35561 C 3376.94 -0.712014 2.1786 0
M  V30 35562 C 3377.94 -1.14098 1.13306 0
M  V30 35563 O 3379.13 -1.05407 1.38691 0
M  V30 35564 C 3376.27 -1.97208 2.78068 0
M  V30 35565 H 3377.46 -0.176476 2.9938 0
M  V30 35566 H 3375.01 -0.0545047 1.56205 0
M  V30 35567 H 3375.75 -2.55013 2.00346 0
M  V30 35568 H 3375.53 -1.67323 3.54606 0
M  V30 35569 H 3377.02 -2.61895 3.25271 0
M  V30 35570 N 3377.46 -1.57404 -0.0784879 0
M  V30 35571 C 3378.39 -2.06264 -1.09442 0
M  V30 35572 C 3379.37 -0.954797 -1.40775 0
M  V30 35573 O 3380.55 -1.22711 -1.50518 0
M  V30 35574 C 3377.68 -2.50097 -2.40974 0
M  V30 35575 C 3376.64 -3.64696 -2.2401 0
M  V30 35576 C 3375.96 -3.94562 -3.60866 0
M  V30 35577 C 3377.26 -4.94988 -1.66687 0
M  V30 35578 H 3378.96 -2.91391 -0.687877 0
M  V30 35579 H 3376.5 -1.40181 -0.329441 0
M  V30 35580 H 3378.46 -2.8289 -3.12332 0
M  V30 35581 H 3377.18 -1.6199 -2.83596 0
M  V30 35582 H 3375.84 -3.32176 -1.55095 0
M  V30 35583 H 3375.49 -3.03597 -4.01046 0
M  V30 35584 H 3375.19 -4.71724 -3.50357 0
M  V30 35585 H 3376.71 -4.29845 -4.33665 0
M  V30 35586 H 3378.13 -5.26054 -2.27904 0
M  V30 35587 H 3376.52 -5.76426 -1.66892 0
M  V30 35588 H 3377.59 -4.8082 -0.627743 0
M  V30 35589 N 3378.94 0.34972 -1.53671 0
M  V30 35590 C 3379.87 1.44967 -1.77531 0
M  V30 35591 C 3380.88 1.48979 -0.656438 0
M  V30 35592 O 3382.07 1.52173 -0.933042 0
M  V30 35593 C 3379.17 2.83657 -1.8545 0
M  V30 35594 C 3378.34 3.03157 -3.153 0
M  V30 35595 C 3377.4 4.22053 -3.14257 0
M  V30 35596 O 3376.43 4.16466 -3.88001 0
M  V30 35597 N 3377.63 5.30277 -2.36191 0
M  V30 35598 H 3380.4 1.24873 -2.72446 0
M  V30 35599 H 3377.96 0.539559 -1.52645 0
M  V30 35600 H 3379.95 3.6136 -1.82211 0
M  V30 35601 H 3378.52 2.96924 -0.977488 0
M  V30 35602 H 3377.74 2.12977 -3.31714 0
M  V30 35603 H 3379.03 3.13065 -4.01084 0
M  V30 35604 H 3378.42 5.37685 -1.75817 0
M  V30 35605 H 3376.98 6.06498 -2.38755 0
M  V30 35606 N 3380.41 1.45299 0.610397 0
M  V30 35607 C 3381.34 1.56597 1.73204 0
M  V30 35608 C 3382.33 0.41768 1.64892 0
M  V30 35609 O 3383.51 0.640462 1.83335 0
M  V30 35610 C 3380.64 1.52964 3.118 0
M  V30 35611 C 3379.59 2.66481 3.3492 0
M  V30 35612 C 3378.92 2.47902 4.7376 0
M  V30 35613 C 3380.22 4.0851 3.25449 0
M  V30 35614 H 3381.91 2.50484 1.64006 0
M  V30 35615 H 3379.46 1.20552 0.7876 0
M  V30 35616 H 3381.41 1.59465 3.90063 0
M  V30 35617 H 3380.14 0.556046 3.21832 0
M  V30 35618 H 3378.8 2.59404 2.59047 0
M  V30 35619 H 3378.44 1.48688 4.80521 0
M  V30 35620 H 3378.14 3.24025 4.90185 0
M  V30 35621 H 3379.67 2.56253 5.54226 0
M  V30 35622 H 3381.08 4.16846 3.93589 0
M  V30 35623 H 3379.48 4.85 3.53405 0
M  V30 35624 H 3380.55 4.30615 2.22931 0
M  V30 35625 N 3381.89 -0.852653 1.32543 0
M  V30 35626 C 3383.3 -1.42297 1.20866 0
M  V30 35627 C 3383.65 -1.95391 -0.178017 0
M  V30 35628 O 3382.78 -1.87704 -1.07686 0
M  V30 35629 C 3383.37 -2.5866 2.18816 0
M  V30 35630 C 3381.93 -3.11685 2.1102 0
M  V30 35631 C 3381.08 -1.84438 2.0707 0
M  V30 35632 H 3384.03 -0.659631 1.44342 0
M  V30 35633 H 3384.05 -3.35881 1.78785 0
M  V30 35634 H 3383.56 -2.19987 3.1973 0
M  V30 35635 H 3381.67 -3.54937 1.13361 0
M  V30 35636 H 3381.78 -3.72793 3.00935 0
M  V30 35637 H 3380.14 -2.0412 1.52339 0
M  V30 35638 H 3380.93 -1.47979 3.0977 0
M  V30 35639 N 3383.37 -1.15786 -1.06918 0
M  V30 35640 C 3384.62 -0.933612 -1.79243 0
M  V30 35641 C 3384.94 0.540394 -1.87363 0
M  V30 35642 O 3384.21 1.39269 -1.37772 0
M  V30 35643 H 3382.79 -0.342428 -0.663892 0
M  V30 35644 H 3385.45 -1.45935 -1.29186 0
M  V30 35645 H 3384.55 -1.34684 -2.81544 0
M  V30 35646 N 3384.85 1.25343 -0.955348 0
M  V30 35647 C 3385.78 2.28211 -0.494186 0
M  V30 35648 C 3386.76 1.63766 0.459846 0
M  V30 35649 O 3387.94 1.9086 0.358645 0
M  V30 35650 C 3385.07 3.4655 0.228167 0
M  V30 35651 C 3384.03 4.23178 -0.640676 0
M  V30 35652 C 3383.35 5.34278 0.212459 0
M  V30 35653 C 3384.65 4.85764 -1.91914 0
M  V30 35654 H 3386.35 2.67036 -1.35395 0
M  V30 35655 H 3383.89 1.28369 -0.652484 0
M  V30 35656 H 3385.85 4.17637 0.561921 0
M  V30 35657 H 3384.57 3.06716 1.12219 0
M  V30 35658 H 3383.23 3.53874 -0.957525 0
M  V30 35659 H 3382.88 4.90684 1.10626 0
M  V30 35660 H 3382.58 5.86462 -0.365576 0
M  V30 35661 H 3384.1 6.08197 0.541164 0
M  V30 35662 H 3385.52 5.4899 -1.65175 0
M  V30 35663 H 3383.91 5.48127 -2.44289 0
M  V30 35664 H 3384.98 4.07909 -2.6218 0
M  V30 35665 N 3386.33 0.724003 1.39986 0
M  V30 35666 C 3387.57 0.2764 2.01513 0
M  V30 35667 C 3387.93 -1.12055 1.56401 0
M  V30 35668 O 3387.22 -1.75095 0.777958 0
M  V30 35669 C 3387.42 0.304534 3.561 0
M  V30 35670 C 3387.24 1.70268 4.1622 0
M  V30 35671 C 3386.01 2.31233 4.49288 0
M  V30 35672 C 3388.21 2.65439 4.40507 0
M  V30 35673 N 3386.19 3.63317 4.94848 0
M  V30 35674 C 3387.57 3.82241 4.88152 0
M  V30 35675 C 3389.62 2.63343 4.22558 0
M  V30 35676 C 3388.32 4.97265 5.19731 0
M  V30 35677 C 3390.35 3.77501 4.55243 0
M  V30 35678 C 3389.71 4.93037 5.03085 0
M  V30 35679 H 3385.81 0.147159 0.768029 0
M  V30 35680 H 3388.39 0.947611 1.70084 0
M  V30 35681 H 3386.57 -0.336276 3.86942 0
M  V30 35682 H 3388.3 -0.160576 4.04381 0
M  V30 35683 H 3385.05 1.83255 4.36709 0
M  V30 35684 H 3385.48 4.31098 5.21999 0
M  V30 35685 H 3390.12 1.75219 3.84783 0
M  V30 35686 H 3387.84 5.86027 5.56415 0
M  V30 35687 H 3391.42 3.77164 4.42988 0
M  V30 35688 H 3390.3 5.79908 5.27898 0
M  V30 35689 N 3387.81 -1.50403 0.470808 0
M  V30 35690 C 3389.03 -2.07229 -0.0842475 0
M  V30 35691 C 3389.46 -1.33241 -1.32772 0
M  V30 35692 O 3388.81 -0.380002 -1.77273 0
M  V30 35693 C 3388.86 -3.58883 -0.351502 0
M  V30 35694 O 3387.97 -3.86738 -1.43204 0
M  V30 35695 H 3387.31 -0.663875 0.0128596 0
M  V30 35696 H 3389.84 -1.93602 0.661769 0
M  V30 35697 H 3389.85 -4.03681 -0.59208 0
M  V30 35698 H 3388.52 -4.12151 0.557157 0
M  V30 35699 H 3387.1 -3.53778 -1.17879 0
M  V30 35700 N 3389.28 -0.203404 -1.56282 0
M  V30 35701 C 3390.53 0.433809 -1.98106 0
M  V30 35702 C 3390.86 1.60693 -1.09047 0
M  V30 35703 O 3390.14 1.93965 -0.144227 0
M  V30 35704 C 3390.42 0.885931 -3.49032 0
M  V30 35705 C 3390.27 -0.28958 -4.48867 0
M  V30 35706 C 3391.59 1.74853 -4.03874 0
M  V30 35707 H 3388.71 0.156211 -0.720255 0
M  V30 35708 H 3391.35 -0.295996 -1.8768 0
M  V30 35709 H 3389.5 1.50779 -3.58047 0
M  V30 35710 H 3391.18 -0.92742 -4.51881 0
M  V30 35711 H 3389.42 -0.940008 -4.23493 0
M  V30 35712 H 3390.09 0.0694158 -5.51956 0
M  V30 35713 H 3392.57 1.224 -3.9769 0
M  V30 35714 H 3391.44 2.03382 -5.0983 0
M  V30 35715 H 3391.7 2.70561 -3.49641 0
M  V30 35716 N 3390.76 1.57444 0.0701393 0
M  V30 35717 C 3392.01 1.87609 0.77012 0
M  V30 35718 C 3392.34 0.795906 1.77141 0
M  V30 35719 O 3391.62 -0.19364 1.93534 0
M  V30 35720 C 3391.9 3.28432 1.47662 0
M  V30 35721 C 3391.75 4.47105 0.491634 0
M  V30 35722 C 3393.07 3.67518 2.42112 0
M  V30 35723 H 3390.19 0.682351 0.278507 0
M  V30 35724 H 3392.83 1.89971 0.033285 0
M  V30 35725 H 3390.98 3.26549 2.1047 0
M  V30 35726 H 3392.65 4.61113 -0.131364 0
M  V30 35727 H 3390.9 4.33371 -0.192894 0
M  V30 35728 H 3391.57 5.42426 1.02363 0
M  V30 35729 H 3394.04 3.70506 1.8938 0
M  V30 35730 H 3392.92 4.66938 2.88548 0
M  V30 35731 H 3393.18 2.9754 3.2699 0
M  V30 35732 N 3392.24 -0.341566 1.53854 0
M  V30 35733 C 3393.46 -1.106 1.75449 0
M  V30 35734 C 3393.89 -1.81517 0.493256 0
M  V30 35735 O 3393.25 -1.72621 -0.554222 0
M  V30 35736 C 3393.3 -2.09364 2.93597 0
M  V30 35737 O 3392.4 -3.16921 2.63884 0
M  V30 35738 H 3391.74 -0.319773 0.581929 0
M  V30 35739 H 3394.27 -0.391353 2.00822 0
M  V30 35740 H 3394.28 -2.5255 3.20441 0
M  V30 35741 H 3392.96 -1.57144 3.8507 0
M  V30 35742 H 3391.53 -2.78538 2.47934 0
M  V30 35743 N 3393.72 -1.45621 -0.602683 0
M  V30 35744 C 3394.94 -1.5366 -1.39296 0
M  V30 35745 C 3395.37 -0.171665 -1.87315 0
M  V30 35746 O 3394.73 0.844611 -1.60424 0
M  V30 35747 C 3394.77 -2.52933 -2.57017 0
M  V30 35748 O 3393.88 -2.05053 -3.57809 0
M  V30 35749 H 3393.22 -0.517805 -0.415661 0
M  V30 35750 H 3395.75 -1.91019 -0.733006 0
M  V30 35751 H 3395.76 -2.71897 -3.04197 0
M  V30 35752 H 3394.43 -3.52062 -2.21416 0
M  V30 35753 H 3393.01 -1.95987 -3.17244 0
M  V30 35754 N 3395.2 0.845612 -1.32993 0
M  V30 35755 C 3396.42 1.63266 -1.2709 0
M  V30 35756 C 3396.84 1.88126 0.159448 0
M  V30 35757 O 3396.2 1.45665 1.09945 0
M  V30 35758 C 3396.25 2.98676 -2.03654 0
M  V30 35759 O 3395.97 2.74912 -3.41109 0
M  V30 35760 C 3397.47 3.93114 -2.04882 0
M  V30 35761 H 3394.69 0.508228 -0.438116 0
M  V30 35762 H 3397.23 1.05378 -1.75259 0
M  V30 35763 H 3395.39 3.53184 -1.59184 0
M  V30 35764 H 3395.8 3.61092 -3.80411 0
M  V30 35765 H 3397.28 4.85363 -2.6292 0
M  V30 35766 H 3397.75 4.26773 -1.03736 0
M  V30 35767 H 3398.36 3.44542 -2.4934 0
M  V30 35768 N 3396.67 1.16351 1.06302 0
M  V30 35769 C 3397.58 0.884327 2.17294 0
M  V30 35770 C 3398.6 -0.143383 1.73408 0
M  V30 35771 O 3399.78 0.0332341 2.01373 0
M  V30 35772 C 3396.84 0.389223 3.44508 0
M  V30 35773 C 3395.9 1.48215 4.02903 0
M  V30 35774 C 3395.13 1.01057 5.24045 0
M  V30 35775 O 3395.36 -0.139721 5.70229 0
M  V30 35776 O 3394.29 1.79886 5.74391 0
M  V30 35777 H 3398.12 1.81247 2.43687 0
M  V30 35778 H 3395.7 0.94348 1.1584 0
M  V30 35779 H 3397.58 0.120092 4.21229 0
M  V30 35780 H 3396.26 -0.510912 3.19643 0
M  V30 35781 H 3395.17 1.80502 3.27673 0
M  V30 35782 H 3396.5 2.35758 4.32064 0
M  V30 35783 N 3398.15 -1.24835 0.961982 0
M  V30 35784 C 3399.4 -1.92751 0.620749 0
M  V30 35785 C 3399.73 -1.75269 -0.843277 0
M  V30 35786 O 3398.98 -1.09587 -1.62139 0
M  V30 35787 C 3399.28 -3.44965 0.934541 0
M  V30 35788 C 3398.95 -3.82611 2.38578 0
M  V30 35789 C 3397.61 -3.92598 2.78245 0
M  V30 35790 C 3399.96 -4.01123 3.32791 0
M  V30 35791 C 3397.29 -4.1851 4.11176 0
M  V30 35792 C 3399.64 -4.2853 4.65343 0
M  V30 35793 C 3398.3 -4.36736 5.04795 0
M  V30 35794 H 3397.57 -0.705326 0.227148 0
M  V30 35795 H 3400.22 -1.48234 1.2124 0
M  V30 35796 H 3398.53 -3.90932 0.260584 0
M  V30 35797 H 3400.22 -3.95713 0.648993 0
M  V30 35798 H 3396.81 -3.75398 2.06819 0
M  V30 35799 H 3401 -3.92815 3.03332 0
M  V30 35800 H 3396.25 -4.23081 4.41376 0
M  V30 35801 H 3400.43 -4.41799 5.38318 0
M  V30 35802 H 3398.05 -4.56568 6.07824 0
M  V30 35803 N 3399.63 -0.731417 -1.396 0
M  V30 35804 C 3400.88 -0.278203 -2.00883 0
M  V30 35805 C 3401.21 1.13056 -1.57899 0
M  V30 35806 O 3400.48 1.77003 -0.806234 0
M  V30 35807 C 3400.77 -0.376032 -3.58131 0
M  V30 35808 C 3400.62 -1.82431 -4.11144 0
M  V30 35809 C 3401.94 0.243625 -4.39425 0
M  V30 35810 H 3399.06 -0.102562 -0.729829 0
M  V30 35811 H 3401.7 -0.926898 -1.65857 0
M  V30 35812 H 3399.85 0.17626 -3.881 0
M  V30 35813 H 3401.52 -2.4332 -3.9191 0
M  V30 35814 H 3399.76 -2.34682 -3.64838 0
M  V30 35815 H 3400.44 -1.84405 -5.20287 0
M  V30 35816 H 3402.91 -0.22714 -4.1548 0
M  V30 35817 H 3401.79 0.144811 -5.48709 0
M  V30 35818 H 3402.05 1.32922 -4.21645 0
M  V30 35819 N 3401.11 1.50152 -0.478778 0
M  V30 35820 C 3402.34 2.06778 0.0710122 0
M  V30 35821 C 3402.75 1.34177 1.32823 0
M  V30 35822 O 3402.11 0.413336 1.77758 0
M  V30 35823 C 3402.16 3.59789 0.351288 0
M  V30 35824 O 3401.88 4.29655 -0.856073 0
M  V30 35825 C 3403.38 4.33063 0.947193 0
M  V30 35826 H 3400.6 0.670918 -0.010515 0
M  V30 35827 H 3403.15 1.93221 -0.669766 0
M  V30 35828 H 3401.3 3.73123 1.04201 0
M  V30 35829 H 3401.71 5.20995 -0.605344 0
M  V30 35830 H 3403.19 5.4107 1.09302 0
M  V30 35831 H 3403.67 3.94066 1.9393 0
M  V30 35832 H 3404.27 4.24278 0.294619 0
M  V30 35833 N 3402.59 0.211689 1.56172 0
M  V30 35834 C 3403.54 -0.715637 2.16478 0
M  V30 35835 C 3404.52 -1.16457 1.11025 0
M  V30 35836 O 3405.71 -1.1202 1.37042 0
M  V30 35837 C 3402.84 -1.92784 2.84058 0
M  V30 35838 C 3401.93 -1.49904 3.96723 0
M  V30 35839 N 3402.32 -0.782216 4.99715 0
M  V30 35840 C 3400.62 -1.78709 4.08631 0
M  V30 35841 C 3401.32 -0.564942 5.7895 0
M  V30 35842 N 3400.29 -1.11868 5.31965 0
M  V30 35843 H 3404.1 -0.159428 2.93467 0
M  V30 35844 H 3401.61 0.0125495 1.62395 0
M  V30 35845 H 3403.61 -2.60283 3.25666 0
M  V30 35846 H 3402.27 -2.48861 2.08562 0
M  V30 35847 H 3403.28 -0.43593 5.16062 0
M  V30 35848 H 3399.95 -2.36176 3.44277 0
M  V30 35849 H 3401.34 0.00488884 6.719 0
M  V30 35850 N 3404.06 -1.57479 -0.0617887 0
M  V30 35851 C 3405.03 -2.03382 -1.0568 0
M  V30 35852 C 3406.03 -0.932446 -1.31004 0
M  V30 35853 O 3407.22 -1.19704 -1.26556 0
M  V30 35854 C 3404.35 -2.42299 -2.398 0
M  V30 35855 H 3405.54 -2.92526 -0.660955 0
M  V30 35856 H 3403.1 -1.5324 -0.307787 0
M  V30 35857 H 3403.83 -1.56212 -2.84198 0
M  V30 35858 H 3403.62 -3.22678 -2.22759 0
M  V30 35859 H 3405.11 -2.78354 -3.11302 0
M  V30 35860 N 3405.54 0.333401 -1.54033 0
M  V30 35861 C 3406.78 1.08082 -1.73487 0
M  V30 35862 C 3407.15 1.85565 -0.49292 0
M  V30 35863 O 3408.35 2.62803 -0.564642 0
M  V30 35864 C 3406.62 1.98891 -2.96946 0
M  V30 35865 S 3408.18 2.80718 -3.37258 0
M  V30 35866 H 3405 0.365038 -0.610138 0
M  V30 35867 H 3407.6 0.358001 -1.92194 0
M  V30 35868 H 3406.3 1.40787 -3.85496 0
M  V30 35869 H 3405.83 2.75594 -2.80734 0
M  V30 35870 H 3407.85 4.01341 -2.91787 0
M  V30 35871 N 3407.02 1.45939 0.594952 0
M  V30 35872 C 3408.25 1.54396 1.38479 0
M  V30 35873 C 3408.67 0.181596 1.87221 0
M  V30 35874 O 3408.03 -0.836091 1.6087 0
M  V30 35875 C 3408.08 2.54292 2.55672 0
M  V30 35876 O 3407.18 2.06947 3.56716 0
M  V30 35877 H 3406.52 0.520002 0.412909 0
M  V30 35878 H 3409.05 1.91405 0.722865 0
M  V30 35879 H 3409.06 2.73507 3.02751 0
M  V30 35880 H 3407.74 3.53232 2.19546 0
M  V30 35881 H 3406.31 1.97666 3.162 0
M  V30 35882 N 3408.5 -0.838547 1.3344 0
M  V30 35883 C 3409.43 -1.96363 1.26348 0
M  V30 35884 C 3410.41 -1.69489 0.143986 0
M  V30 35885 O 3411.59 -1.9131 0.333813 0
M  V30 35886 C 3408.72 -3.32524 1.00226 0
M  V30 35887 C 3407.68 -3.73796 2.08472 0
M  V30 35888 C 3407 -5.07766 1.67564 0
M  V30 35889 C 3408.3 -3.87546 3.50151 0
M  V30 35890 H 3410 -2.02555 2.20481 0
M  V30 35891 H 3407.54 -0.973149 1.0614 0
M  V30 35892 H 3409.5 -4.10802 0.93914 0
M  V30 35893 H 3408.22 -3.2659 0.0253088 0
M  V30 35894 H 3406.88 -2.97781 2.13827 0
M  V30 35895 H 3406.53 -4.98304 0.685707 0
M  V30 35896 H 3406.23 -5.36351 2.40002 0
M  V30 35897 H 3407.75 -5.88519 1.62719 0
M  V30 35898 H 3409.17 -4.56135 3.47295 0
M  V30 35899 H 3407.56 -4.27568 4.21077 0
M  V30 35900 H 3408.63 -2.89987 3.88633 0
M  V30 35901 N 3409.98 -1.16914 -1.05683 0
M  V30 35902 C 3411.23 -0.948906 -1.77985 0
M  V30 35903 C 3411.54 0.523978 -1.88451 0
M  V30 35904 O 3412.74 0.862276 -2.57443 0
M  V30 35905 C 3411.2 -1.64854 -3.19924 0
M  V30 35906 C 3410.81 -3.15961 -3.17604 0
M  V30 35907 C 3412.55 -1.51051 -3.96716 0
M  V30 35908 C 3410.46 -3.78636 -4.54301 0
M  V30 35909 H 3409.39 -0.351391 -0.667113 0
M  V30 35910 H 3412.04 -1.40113 -1.18493 0
M  V30 35911 H 3410.42 -1.12404 -3.79712 0
M  V30 35912 H 3411.6 -3.75305 -2.67362 0
M  V30 35913 H 3409.91 -3.2972 -2.54311 0
M  V30 35914 H 3412.51 -1.95252 -4.97776 0
M  V30 35915 H 3412.85 -0.46034 -4.13747 0
M  V30 35916 H 3413.38 -2.00691 -3.43465 0
M  V30 35917 H 3410.12 -4.83628 -4.42475 0
M  V30 35918 H 3409.64 -3.24078 -5.04711 0
M  V30 35919 H 3411.32 -3.80552 -5.23249 0
M  V30 35920 N 3411.45 1.24323 -0.968589 0
M  V30 35921 C 3412.68 1.96186 -0.647662 0
M  V30 35922 C 3413.09 1.72044 0.787237 0
M  V30 35923 O 3412.44 1.00158 1.53994 0
M  V30 35924 C 3412.5 3.49462 -0.843579 0
M  V30 35925 C 3412.16 3.97304 -2.25829 0
M  V30 35926 C 3413.16 4.06907 -3.23609 0
M  V30 35927 C 3410.84 4.30604 -2.58622 0
M  V30 35928 C 3412.84 4.49146 -4.52268 0
M  V30 35929 C 3410.52 4.72527 -3.87507 0
M  V30 35930 C 3411.52 4.81763 -4.84142 0
M  V30 35931 O 3411.21 5.22749 -6.10728 0
M  V30 35932 H 3410.94 0.631742 -0.240579 0
M  V30 35933 H 3413.5 1.59084 -1.29929 0
M  V30 35934 H 3411.73 3.86465 -0.134784 0
M  V30 35935 H 3413.42 4.02535 -0.521604 0
M  V30 35936 H 3414.18 3.81397 -2.99603 0
M  V30 35937 H 3410.06 4.22634 -1.84123 0
M  V30 35938 H 3413.6 4.5627 -5.27697 0
M  V30 35939 H 3409.5 4.97485 -4.11314 0
M  V30 35940 H 3410.27 5.40896 -6.14308 0
M  V30 35941 N 3412.93 0.73881 1.3921 0
M  V30 35942 C 3414.17 0.293154 2.02287 0
M  V30 35943 C 3414.54 -1.10003 1.57363 0
M  V30 35944 O 3415.74 -1.64398 2.12666 0
M  V30 35945 C 3414.01 0.395609 3.55204 0
M  V30 35946 S 3415.57 0.0303569 4.38789 0
M  V30 35947 H 3412.39 0.114621 0.7017 0
M  V30 35948 H 3414.99 0.966168 1.69957 0
M  V30 35949 H 3413.69 1.41079 3.85389 0
M  V30 35950 H 3413.22 -0.295094 3.92292 0
M  V30 35951 H 3415.24 -1.18469 4.8185 0
M  V30 35952 N 3414.41 -1.49895 0.486734 0
M  V30 35953 C 3415.66 -2.02702 -0.0629095 0
M  V30 35954 C 3415.99 -1.36683 -1.37954 0
M  V30 35955 O 3415.26 -0.497711 -1.88024 0
M  V30 35956 C 3415.55 -3.59362 -0.230398 0
M  V30 35957 C 3415.4 -4.35931 1.10835 0
M  V30 35958 C 3416.72 -4.29102 -0.97771 0
M  V30 35959 H 3413.84 -0.73669 -0.0213887 0
M  V30 35960 H 3416.48 -1.79062 0.635371 0
M  V30 35961 H 3414.63 -3.79636 -0.825155 0
M  V30 35962 H 3416.3 -4.27189 1.74089 0
M  V30 35963 H 3414.55 -3.99052 1.70117 0
M  V30 35964 H 3415.22 -5.43857 0.944627 0
M  V30 35965 H 3417.69 -4.13398 -0.473432 0
M  V30 35966 H 3416.57 -5.38494 -1.06372 0
M  V30 35967 H 3416.83 -3.93353 -2.01806 0
M  V30 35968 N 3415.89 -0.219968 -1.56057 0
M  V30 35969 C 3416.84 0.704146 -2.16854 0
M  V30 35970 C 3417.82 1.15867 -1.11641 0
M  V30 35971 O 3419.02 1.11292 -1.37634 0
M  V30 35972 C 3416.14 1.91275 -2.85077 0
M  V30 35973 C 3415.23 1.47798 -3.97513 0
M  V30 35974 N 3415.62 0.755704 -5.00123 0
M  V30 35975 C 3413.92 1.76539 -4.09573 0
M  V30 35976 C 3414.62 0.53423 -5.79242 0
M  V30 35977 N 3413.6 1.09046 -5.32551 0
M  V30 35978 H 3417.4 0.143863 -2.93548 0
M  V30 35979 H 3414.91 -0.0211616 -1.62386 0
M  V30 35980 H 3416.91 2.58552 -3.27042 0
M  V30 35981 H 3415.57 2.47752 -2.09879 0
M  V30 35982 H 3416.58 0.408556 -5.16286 0
M  V30 35983 H 3413.26 2.34347 -3.45525 0
M  V30 35984 H 3414.65 -0.0405213 -6.71888 0
M  V30 35985 N 3417.37 1.57509 0.0534363 0
M  V30 35986 C 3418.61 1.88136 0.749069 0
M  V30 35987 C 3418.94 0.814142 1.76641 0
M  V30 35988 O 3418.2 -0.18781 1.94797 0
M  V30 35989 C 3418.5 3.25471 1.47661 0
M  V30 35990 C 3418.16 4.46923 0.597541 0
M  V30 35991 C 3416.82 4.79886 0.355345 0
M  V30 35992 C 3419.18 5.21199 -0.0108785 0
M  V30 35993 C 3416.5 5.84527 -0.50445 0
M  V30 35994 C 3418.86 6.26751 -0.858233 0
M  V30 35995 C 3417.52 6.58204 -1.11012 0
M  V30 35996 H 3416.79 0.688439 0.274104 0
M  V30 35997 H 3419.44 1.91498 0.00940796 0
M  V30 35998 H 3417.74 3.17984 2.28896 0
M  V30 35999 H 3419.44 3.46408 2.01996 0
M  V30 36000 H 3416.03 4.21135 0.796452 0
M  V30 36001 H 3420.21 4.96031 0.163317 0
M  V30 36002 H 3415.47 6.07285 -0.708164 0
M  V30 36003 H 3419.64 6.83458 -1.33632 0
M  V30 36004 H 3417.27 7.39113 -1.77811 0
M  V30 36005 N 3418.85 -0.325228 1.54208 0
M  V30 36006 C 3420.09 -1.06088 1.71546 0
M  V30 36007 C 3420.41 -1.89228 0.495171 0
M  V30 36008 O 3421.61 -2.65874 0.549867 0
M  V30 36009 C 3420.07 -1.93564 3.03416 0
M  V30 36010 C 3419.68 -1.15543 4.32844 0
M  V30 36011 C 3421.42 -2.66875 3.30118 0
M  V30 36012 C 3419.33 -2.02154 5.55777 0
M  V30 36013 H 3418.26 -0.399784 0.639288 0
M  V30 36014 H 3420.91 -0.319229 1.80702 0
M  V30 36015 H 3419.29 -2.71621 2.88163 0
M  V30 36016 H 3420.47 -0.42268 4.58857 0
M  V30 36017 H 3418.78 -0.539204 4.12894 0
M  V30 36018 H 3421.38 -3.31981 4.19157 0
M  V30 36019 H 3421.72 -3.34424 2.47924 0
M  V30 36020 H 3422.25 -1.95881 3.46231 0
M  V30 36021 H 3418.99 -1.39117 6.40568 0
M  V30 36022 H 3418.51 -2.73168 5.33985 0
M  V30 36023 H 3420.19 -2.60779 5.92118 0
M  V30 36024 N 3420.32 -1.46252 -0.587204 0
M  V30 36025 C 3421.25 -1.59333 -1.70691 0
M  V30 36026 C 3422.23 -0.44386 -1.64207 0
M  V30 36027 O 3423.42 -0.669548 -1.82293 0
M  V30 36028 C 3420.55 -1.57905 -3.09327 0
M  V30 36029 C 3419.5 -2.71776 -3.30639 0
M  V30 36030 C 3418.83 -2.55408 -4.69756 0
M  V30 36031 C 3420.13 -4.13636 -3.18909 0
M  V30 36032 H 3421.82 -2.53062 -1.6 0
M  V30 36033 H 3419.37 -1.2179 -0.768321 0
M  V30 36034 H 3421.32 -1.65651 -3.87476 0
M  V30 36035 H 3420.05 -0.607176 -3.20906 0
M  V30 36036 H 3418.71 -2.63492 -2.54887 0
M  V30 36037 H 3418.35 -1.56314 -4.78095 0
M  V30 36038 H 3418.05 -3.31782 -4.84968 0
M  V30 36039 H 3419.58 -2.65038 -5.50079 0
M  V30 36040 H 3420.99 -4.23055 -3.86908 0
M  V30 36041 H 3419.39 -4.90561 -3.45644 0
M  V30 36042 H 3420.46 -4.34108 -2.16052 0
M  V30 36043 N 3421.8 0.831459 -1.33883 0
M  V30 36044 C 3422.71 1.97377 -1.26805 0
M  V30 36045 C 3423.73 1.73095 -0.177263 0
M  V30 36046 O 3424.9 1.97343 -0.402197 0
M  V30 36047 C 3421.97 3.31516 -1.0148 0
M  V30 36048 C 3421.03 3.68863 -2.19632 0
M  V30 36049 C 3420.26 4.96602 -1.95506 0
M  V30 36050 O 3420.49 5.6311 -0.909047 0
M  V30 36051 O 3419.42 5.31627 -2.82235 0
M  V30 36052 H 3423.25 2.06289 -2.22887 0
M  V30 36053 H 3420.83 0.965593 -1.14003 0
M  V30 36054 H 3422.71 4.11872 -0.891027 0
M  V30 36055 H 3421.39 3.2359 -0.0843225 0
M  V30 36056 H 3420.29 2.88986 -2.37566 0
M  V30 36057 H 3421.63 3.81464 -3.1104 0
M  V30 36058 N 3423.28 1.17472 1.05062 0
M  V30 36059 C 3424.24 0.894887 2.11008 0
M  V30 36060 C 3425.24 -0.115501 1.60385 0
M  V30 36061 O 3426.43 0.116816 1.73808 0
M  V30 36062 C 3423.56 0.340701 3.39193 0
M  V30 36063 H 3424.76 1.83425 2.37266 0
M  V30 36064 H 3422.31 0.985364 1.21327 0
M  V30 36065 H 3423.05 -0.605752 3.18592 0
M  V30 36066 H 3422.83 1.06892 3.77249 0
M  V30 36067 H 3424.32 0.163277 4.17281 0
M  V30 36068 N 3424.76 -1.23807 0.975168 0
M  V30 36069 C 3426 -1.92366 0.642108 0
M  V30 36070 C 3426.34 -1.75964 -0.821609 0
M  V30 36071 O 3425.61 -1.11735 -1.59203 0
M  V30 36072 C 3425.89 -3.45149 1.02683 0
M  V30 36073 C 3425.75 -3.70685 2.54779 0
M  V30 36074 C 3427.07 -4.36434 0.566877 0
M  V30 36075 H 3424.19 -0.698615 0.234747 0
M  V30 36076 H 3426.83 -1.46032 1.21551 0
M  V30 36077 H 3424.98 -3.84744 0.538913 0
M  V30 36078 H 3426.65 -3.40604 3.11105 0
M  V30 36079 H 3424.89 -3.15578 2.97646 0
M  V30 36080 H 3425.56 -4.77613 2.76748 0
M  V30 36081 H 3428.04 -4.04256 0.985706 0
M  V30 36082 H 3426.92 -5.42049 0.864553 0
M  V30 36083 H 3427.18 -4.38876 -0.532912 0
M  V30 36084 N 3426.24 -0.746182 -1.38816 0
M  V30 36085 C 3427.2 -0.121926 -2.28875 0
M  V30 36086 C 3428.2 0.655354 -1.46839 0
M  V30 36087 O 3429.39 0.482715 -1.67378 0
M  V30 36088 C 3426.52 0.83606 -3.30489 0
M  V30 36089 H 3427.71 -0.915503 -2.85585 0
M  V30 36090 H 3425.27 -0.512717 -1.47651 0
M  V30 36091 H 3426 1.65559 -2.78856 0
M  V30 36092 H 3425.79 0.281202 -3.9109 0
M  V30 36093 H 3427.28 1.26907 -3.9785 0
M  V30 36094 N 3427.71 1.49635 -0.494676 0
M  V30 36095 C 3428.96 2.02733 0.0521588 0
M  V30 36096 C 3429.29 1.37413 1.37227 0
M  V30 36097 O 3428.57 0.507675 1.87758 0
M  V30 36098 C 3428.85 3.59479 0.211337 0
M  V30 36099 C 3428.7 4.35337 -1.13146 0
M  V30 36100 C 3430.02 4.29615 0.95494 0
M  V30 36101 H 3427.14 0.736793 0.0174816 0
M  V30 36102 H 3429.78 1.78722 -0.644858 0
M  V30 36103 H 3427.93 3.80068 0.805011 0
M  V30 36104 H 3429.61 4.2626 -1.76352 0
M  V30 36105 H 3427.85 3.98144 -1.72231 0
M  V30 36106 H 3428.52 5.43349 -0.973456 0
M  V30 36107 H 3431 4.13643 0.451502 0
M  V30 36108 H 3429.87 5.39051 1.03515 0
M  V30 36109 H 3430.13 3.94418 1.99717 0
M  V30 36110 N 3429.19 0.228241 1.55939 0
M  V30 36111 C 3430.12 -0.71155 2.17875 0
M  V30 36112 C 3431.14 -1.15263 1.14971 0
M  V30 36113 O 3432.33 -1.08262 1.41921 0
M  V30 36114 C 3429.43 -1.97647 2.75297 0
M  V30 36115 C 3428.6 -1.68987 4.03438 0
M  V30 36116 C 3427.66 -2.80252 4.45359 0
M  V30 36117 O 3426.68 -2.48436 5.12121 0
M  V30 36118 N 3427.89 -4.09352 4.11596 0
M  V30 36119 H 3430.65 -0.181704 2.99149 0
M  V30 36120 H 3428.21 0.0474852 1.6183 0
M  V30 36121 H 3430.2 -2.71286 3.0031 0
M  V30 36122 H 3428.77 -2.41661 1.98289 0
M  V30 36123 H 3427.99 -0.789589 3.86211 0
M  V30 36124 H 3429.28 -1.47279 4.87018 0
M  V30 36125 H 3428.68 -4.38042 3.5796 0
M  V30 36126 H 3427.24 -4.79514 4.41485 0
M  V30 36127 N 3430.67 -1.57536 -0.0450825 0
M  V30 36128 C 3432.08 -1.77009 -0.593689 0
M  V30 36129 C 3432.43 -0.857264 -1.76481 0
M  V30 36130 O 3431.56 -0.0480083 -2.16347 0
M  V30 36131 C 3432.15 -3.20998 -1.08377 0
M  V30 36132 C 3430.71 -3.41724 -1.57802 0
M  V30 36133 C 3429.86 -2.72588 -0.509019 0
M  V30 36134 H 3432.81 -1.57663 0.181142 0
M  V30 36135 H 3432.83 -3.2663 -1.95175 0
M  V30 36136 H 3432.34 -3.87411 -0.231208 0
M  V30 36137 H 3430.44 -2.80464 -2.45297 0
M  V30 36138 H 3430.56 -4.50281 -1.63656 0
M  V30 36139 H 3428.92 -2.35901 -0.960347 0
M  V30 36140 H 3429.7 -3.41673 0.333813 0
M  V30 36141 N 3432.15 0.317045 -1.54378 0
M  V30 36142 C 3433.4 1.05213 -1.72553 0
M  V30 36143 C 3433.72 1.88333 -0.505533 0
M  V30 36144 O 3432.99 1.89918 0.480405 0
M  V30 36145 H 3431.57 0.391436 -0.636229 0
M  V30 36146 H 3434.23 0.351906 -1.91697 0
M  V30 36147 H 3433.33 1.71444 -2.60794 0
M  V30 36148 N 3433.63 1.46561 0.57944 0
M  V30 36149 C 3434.54 1.59964 1.71606 0
M  V30 36150 C 3435.55 0.483031 1.67161 0
M  V30 36151 O 3436.73 0.747594 1.87011 0
M  V30 36152 C 3433.79 1.5896 3.08111 0
M  V30 36153 C 3432.85 2.81878 3.23796 0
M  V30 36154 C 3432.09 2.80912 4.53789 0
M  V30 36155 O 3432.31 1.89844 5.3788 0
M  V30 36156 O 3431.24 3.72496 4.7279 0
M  V30 36157 H 3435.07 2.56095 1.63246 0
M  V30 36158 H 3432.66 1.29392 0.746868 0
M  V30 36159 H 3434.54 1.61107 3.89387 0
M  V30 36160 H 3433.21 0.659896 3.16902 0
M  V30 36161 H 3432.12 2.85283 2.42001 0
M  V30 36162 H 3433.45 3.74068 3.19897 0
M  V30 36163 N 3435.1 -0.824347 1.34322 0
M  V30 36164 C 3436.04 -1.94269 1.21623 0
M  V30 36165 C 3437.05 -1.62165 0.143656 0
M  V30 36166 O 3438.24 -1.74066 0.395383 0
M  V30 36167 C 3435.34 -3.28166 0.846185 0
M  V30 36168 C 3434.51 -3.88303 2.01344 0
M  V30 36169 C 3433.57 -5.00576 1.62203 0
M  V30 36170 O 3432.6 -5.18948 2.3384 0
M  V30 36171 N 3433.8 -5.78026 0.535363 0
M  V30 36172 H 3436.56 -2.05695 2.17967 0
M  V30 36173 H 3434.12 -1.00085 1.27258 0
M  V30 36174 H 3436.12 -4.0072 0.566157 0
M  V30 36175 H 3434.69 -3.12588 -0.0270215 0
M  V30 36176 H 3433.91 -3.08159 2.45828 0
M  V30 36177 H 3435.19 -4.25214 2.79411 0
M  V30 36178 H 3434.59 -5.65668 -0.0602132 0
M  V30 36179 H 3433.15 -6.51038 0.31506 0
M  V30 36180 N 3436.58 -1.18028 -1.04437 0
M  V30 36181 C 3437.51 -0.927351 -2.14295 0
M  V30 36182 C 3438.49 0.13354 -1.69575 0
M  V30 36183 O 3439.68 -0.018278 -1.94191 0
M  V30 36184 C 3436.81 -0.448195 -3.44396 0
M  V30 36185 C 3435.76 -1.44914 -4.02721 0
M  V30 36186 C 3435.09 -0.827647 -5.28256 0
M  V30 36187 C 3436.39 -2.8247 -4.39326 0
M  V30 36188 H 3438.08 -1.84609 -2.35711 0
M  V30 36189 H 3435.63 -0.889032 -1.13279 0
M  V30 36190 H 3437.58 -0.258628 -4.20606 0
M  V30 36191 H 3436.31 0.506102 -3.22655 0
M  V30 36192 H 3434.96 -1.62558 -3.28588 0
M  V30 36193 H 3434.61 0.133721 -5.02822 0
M  V30 36194 H 3434.31 -1.4959 -5.6824 0
M  V30 36195 H 3435.84 -0.648527 -6.07146 0
M  V30 36196 H 3437.25 -2.685 -5.06538 0
M  V30 36197 H 3435.65 -3.45945 -4.90349 0
M  V30 36198 H 3436.72 -3.36305 -3.49324 0
M  V30 36199 N 3438.06 1.23288 -0.98172 0
M  V30 36200 C 3438.99 2.27111 -0.542481 0
M  V30 36201 C 3439.97 1.64705 0.425005 0
M  V30 36202 O 3441.16 1.91577 0.318081 0
M  V30 36203 C 3438.29 3.46956 0.154607 0
M  V30 36204 C 3437.24 4.21723 -0.730294 0
M  V30 36205 C 3436.57 5.34608 0.0990826 0
M  V30 36206 C 3437.87 4.81584 -2.02175 0
M  V30 36207 H 3439.56 2.64104 -1.41029 0
M  V30 36208 H 3437.11 1.26956 -0.679566 0
M  V30 36209 H 3439.06 4.18735 0.473208 0
M  V30 36210 H 3437.78 3.09027 1.05688 0
M  V30 36211 H 3436.44 3.51764 -1.03237 0
M  V30 36212 H 3436.09 4.9292 1.00193 0
M  V30 36213 H 3435.79 5.85554 -0.489891 0
M  V30 36214 H 3437.31 6.09208 0.412034 0
M  V30 36215 H 3438.73 5.45363 -1.76783 0
M  V30 36216 H 3437.13 5.42822 -2.55861 0
M  V30 36217 H 3438.2 4.02256 -2.70773 0
M  V30 36218 N 3439.54 0.753533 1.38418 0
M  V30 36219 C 3440.76 0.31921 2.04929 0
M  V30 36220 C 3441.19 -1.04413 1.56459 0
M  V30 36221 O 3440.55 -1.66539 0.716557 0
M  V30 36222 C 3440.59 0.351117 3.58887 0
M  V30 36223 O 3439.7 -0.654892 4.07167 0
M  V30 36224 H 3439.04 0.141354 0.64878 0
M  V30 36225 H 3441.57 1.02464 1.77094 0
M  V30 36226 H 3441.58 0.201978 4.075 0
M  V30 36227 H 3440.25 1.34582 3.93523 0
M  V30 36228 H 3438.83 -0.47037 3.69922 0
M  V30 36229 N 3441.02 -1.49371 0.502605 0
M  V30 36230 C 3442.43 -1.86618 0.0552198 0
M  V30 36231 C 3442.78 -1.41478 -1.35935 0
M  V30 36232 O 3441.9 -0.793374 -2.01332 0
M  V30 36233 C 3442.5 -3.38671 0.0934329 0
M  V30 36234 C 3441.06 -3.75214 -0.298619 0
M  V30 36235 C 3440.2 -2.73369 0.465264 0
M  V30 36236 H 3443.16 -1.41665 0.715306 0
M  V30 36237 H 3443.18 -3.73978 -0.701483 0
M  V30 36238 H 3442.69 -3.71495 1.12309 0
M  V30 36239 H 3440.79 -3.47999 -1.33145 0
M  V30 36240 H 3440.9 -4.79095 0.0219479 0
M  V30 36241 H 3439.27 -2.54558 -0.0851021 0
M  V30 36242 H 3440.05 -3.09037 1.49503 0
M  V30 36243 N 3442.49 -0.236508 -1.55815 0
M  V30 36244 C 3443.4 0.678399 -2.24577 0
M  V30 36245 C 3444.42 1.2017 -1.25838 0
M  V30 36246 O 3445.6 1.24016 -1.58688 0
M  V30 36247 C 3442.66 1.8632 -2.92379 0
M  V30 36248 C 3441.72 1.3804 -4.06501 0
M  V30 36249 C 3440.96 2.50873 -4.71061 0
M  V30 36250 O 3441.18 3.69362 -4.34659 0
M  V30 36251 O 3440.11 2.21222 -5.59772 0
M  V30 36252 H 3443.94 0.122548 -3.03453 0
M  V30 36253 H 3441.52 -0.00543429 -1.49399 0
M  V30 36254 H 3443.41 2.55482 -3.35122 0
M  V30 36255 H 3442.08 2.40687 -2.16452 0
M  V30 36256 H 3440.99 0.656357 -3.68297 0
M  V30 36257 H 3442.32 0.882939 -4.84216 0
M  V30 36258 N 3443.97 1.57557 0.0367273 0
M  V30 36259 C 3445.39 1.54705 0.392237 0
M  V30 36260 C 3445.59 0.961601 1.77075 0
M  V30 36261 O 3444.64 0.579306 2.45765 0
M  V30 36262 C 3445.96 2.99189 0.301115 0
M  V30 36263 C 3447.51 3.107 0.378758 0
M  V30 36264 C 3447.98 4.569 0.317169 0
M  V30 36265 N 3449.47 4.6167 0.376196 0
M  V30 36266 C 3450.21 5.72323 0.35131 0
M  V30 36267 N 3449.7 6.92237 0.279166 0
M  V30 36268 N 3451.5 5.60672 0.400473 0
M  V30 36269 H 3443.65 1.93967 -0.865489 0
M  V30 36270 H 3445.91 0.889319 -0.328354 0
M  V30 36271 H 3445.62 3.45718 -0.645881 0
M  V30 36272 H 3445.49 3.60872 1.09778 0
M  V30 36273 H 3447.88 2.64122 1.31619 0
M  V30 36274 H 3447.96 2.51862 -0.447116 0
M  V30 36275 H 3447.6 5.04144 -0.616558 0
M  V30 36276 H 3447.53 5.13641 1.16105 0
M  V30 36277 H 3450.02 3.75391 0.434777 0
M  V30 36278 H 3450.34 7.72345 0.265067 0
M  V30 36279 H 3448.68 6.94567 0.245327 0
M  V30 36280 H 3451.87 4.65886 0.454772 0
M  V30 36281 H 3452.04 6.46899 0.37761 0
M  V30 36282 N 3445.45 -0.308854 1.54544 0
M  V30 36283 C 3446.87 -0.654063 1.45582 0
M  V30 36284 C 3447.07 -1.91045 0.640631 0
M  V30 36285 O 3446.12 -2.52082 0.145224 0
M  V30 36286 C 3447.44 -0.814371 2.89462 0
M  V30 36287 C 3448.98 -0.910764 2.99456 0
M  V30 36288 C 3449.46 -1.10313 4.44517 0
M  V30 36289 N 3450.95 -1.16952 4.48192 0
M  V30 36290 C 3451.69 -1.33652 5.57606 0
M  V30 36291 N 3451.18 -1.47299 6.7696 0
M  V30 36292 N 3452.97 -1.36477 5.4528 0
M  V30 36293 H 3445.13 0.516735 2.06018 0
M  V30 36294 H 3447.39 0.169487 0.932726 0
M  V30 36295 H 3447.09 0.0378073 3.5168 0
M  V30 36296 H 3446.97 -1.70576 3.36428 0
M  V30 36297 H 3449.36 -1.75344 2.37358 0
M  V30 36298 H 3449.44 0.00447668 2.558 0
M  V30 36299 H 3449.08 -0.265257 5.07207 0
M  V30 36300 H 3449.01 -2.03247 4.85796 0
M  V30 36301 H 3451.5 -1.0779 3.62201 0
M  V30 36302 H 3451.81 -1.59775 7.56103 0
M  V30 36303 H 3450.16 -1.4437 6.7984 0
M  V30 36304 H 3453.35 -1.25421 4.50985 0
M  V30 36305 H 3453.52 -1.49149 6.30602 0
M  V30 36306 N 3446.93 -1.46867 -0.571659 0
M  V30 36307 C 3448.16 -1.56338 -1.35521 0
M  V30 36308 C 3448.57 -0.208392 -1.87646 0
M  V30 36309 O 3447.93 0.796107 -1.64221 0
M  V30 36310 C 3447.98 -2.57708 -2.53513 0
M  V30 36311 O 3447.7 -3.87944 -2.03545 0
M  V30 36312 C 3449.2 -2.77226 -3.4592 0
M  V30 36313 H 3446.42 -0.528355 -0.413621 0
M  V30 36314 H 3448.97 -1.92367 -0.693909 0
M  V30 36315 H 3447.12 -2.24652 -3.15611 0
M  V30 36316 H 3447.54 -4.43213 -2.80468 0
M  V30 36317 H 3449.01 -3.5205 -4.25164 0
M  V30 36318 H 3449.49 -1.84527 -3.98556 0
M  V30 36319 H 3450.09 -3.11421 -2.8965 0
M  V30 36320 N 3448.41 0.817212 -1.34757 0
M  V30 36321 C 3449.36 1.94986 -1.2682 0
M  V30 36322 C 3450.35 1.68593 -0.165172 0
M  V30 36323 O 3451.56 1.7694 -0.330501 0
M  V30 36324 H 3447.93 0.640445 -0.394124 0
M  V30 36325 H 3449.9 1.98802 -2.22532 0
M  V30 36326 C 3448.65 3.31584 -1.0463 0
M  V30 36327 H 3447.97 3.52444 -1.88741 0
M  V30 36328 H 3449.41 4.1127 -1.03115 0
M  V30 36329 C 3447.87 3.35969 0.250224 0
M  V30 36330 O 3448.4 3.81768 1.24965 0
M  V30 36331 N 3446.61 2.89196 0.285318 0
M  V30 36332 H 3446.16 2.52119 -0.528573 0
M  V30 36333 H 3446.11 2.92512 1.15256 0
M  V30 36334 N 3449.89 1.1858 1.0381 0
M  V30 36335 C 3451.11 1.00772 1.807 0
M  V30 36336 C 3451.53 -0.443801 1.8351 0
M  V30 36337 O 3450.89 -1.30826 1.27243 0
M  V30 36338 C 3450.94 1.55844 3.26182 0
M  V30 36339 O 3450.66 2.95313 3.23607 0
M  V30 36340 C 3452.16 1.4269 4.19708 0
M  V30 36341 H 3449.38 0.355695 0.568966 0
M  V30 36342 H 3451.92 1.57187 1.30814 0
M  V30 36343 H 3450.08 1.03599 3.73291 0
M  V30 36344 H 3450.49 3.21047 4.14764 0
M  V30 36345 H 3451.97 1.86017 5.19713 0
M  V30 36346 H 3452.44 0.376001 4.37588 0
M  V30 36347 H 3453.05 1.9402 3.78466 0
M  V30 36348 N 3451.36 -1.22766 0.988245 0
M  V30 36349 C 3452.77 -1.73189 0.697311 0
M  V30 36350 C 3453.13 -1.79764 -0.786079 0
M  V30 36351 O 3452.25 -1.4408 -1.61462 0
M  V30 36352 C 3452.85 -3.14535 1.25911 0
M  V30 36353 C 3451.4 -3.62382 1.01765 0
M  V30 36354 C 3450.55 -2.40402 1.38211 0
M  V30 36355 H 3453.5 -1.08179 1.16116 0
M  V30 36356 H 3453.52 -3.75158 0.635381 0
M  V30 36357 H 3453.04 -3.09717 2.33874 0
M  V30 36358 H 3451.14 -3.72572 -0.0455615 0
M  V30 36359 H 3451.25 -4.48763 1.67775 0
M  V30 36360 H 3449.61 -2.41789 0.800649 0
M  V30 36361 H 3450.4 -2.38249 2.47169 0
M  V30 36362 N 3452.84 -0.760864 -1.38017 0
M  V30 36363 C 3453.79 -0.138001 -2.30387 0
M  V30 36364 C 3454.76 0.701728 -1.50549 0
M  V30 36365 O 3455.94 0.656349 -1.79156 0
M  V30 36366 C 3453.08 0.743583 -3.36994 0
M  V30 36367 C 3452.2 -0.111565 -4.31856 0
M  V30 36368 C 3451.33 0.773703 -5.25535 0
M  V30 36369 C 3450.37 -0.0846387 -6.12041 0
M  V30 36370 N 3449.51 0.757995 -6.97996 0
M  V30 36371 H 3454.35 -0.931262 -2.83075 0
M  V30 36372 H 3451.88 -0.470857 -1.3936 0
M  V30 36373 H 3453.84 1.26941 -3.97419 0
M  V30 36374 H 3452.47 1.50256 -2.85698 0
M  V30 36375 H 3451.52 -0.755097 -3.7283 0
M  V30 36376 H 3452.84 -0.774128 -4.92756 0
M  V30 36377 H 3451.99 1.36643 -5.91112 0
M  V30 36378 H 3450.73 1.46998 -4.65019 0
M  V30 36379 H 3449.73 -0.689978 -5.45453 0
M  V30 36380 H 3450.96 -0.778085 -6.74628 0
M  V30 36381 H 3448.91 1.43909 -6.40021 0
M  V30 36382 H 3448.82 0.15249 -7.55846 0
M  V30 36383 H 3450.09 1.33546 -7.67975 0
M  V30 36384 N 3454.32 1.49102 -0.510519 0
M  V30 36385 C 3455.28 2.27812 0.251875 0
M  V30 36386 C 3456.28 1.34228 0.885409 0
M  V30 36387 O 3457.47 1.57301 0.748467 0
M  V30 36388 C 3454.6 3.12495 1.36235 0
M  V30 36389 H 3455.8 2.96671 -0.438924 0
M  V30 36390 H 3453.35 1.54023 -0.265794 0
M  V30 36391 H 3454.09 2.48223 2.087 0
M  V30 36392 H 3453.87 3.81312 0.913418 0
M  V30 36393 H 3455.36 3.71918 1.89913 0
M  V30 36394 N 3455.8 0.244768 1.55688 0
M  V30 36395 C 3457.05 -0.381046 1.98068 0
M  V30 36396 C 3457.36 -1.59225 1.13609 0
M  V30 36397 O 3458.57 -2.28907 1.45992 0
M  V30 36398 C 3457.02 -0.729323 3.52433 0
M  V30 36399 C 3456.63 0.46036 4.45628 0
M  V30 36400 C 3458.37 -1.31945 4.03474 0
M  V30 36401 C 3456.28 0.0883559 5.91334 0
M  V30 36402 H 3455.21 -0.146144 0.739701 0
M  V30 36403 H 3457.86 0.344647 1.80234 0
M  V30 36404 H 3456.24 -1.51309 3.65953 0
M  V30 36405 H 3457.42 1.23771 4.43866 0
M  V30 36406 H 3455.73 0.965268 4.05057 0
M  V30 36407 H 3458.33 -1.61107 5.09852 0
M  V30 36408 H 3458.67 -2.24319 3.50695 0
M  V30 36409 H 3459.21 -0.598631 3.9327 0
M  V30 36410 H 3455.94 0.979183 6.48145 0
M  V30 36411 H 3455.46 -0.652842 5.96237 0
M  V30 36412 H 3457.14 -0.33021 6.46157 0
M  V30 36413 N 3457.28 -1.57574 -0.0283712 0
M  V30 36414 C 3458.5 -1.93958 -0.734503 0
M  V30 36415 C 3458.93 -0.844817 -1.68061 0
M  V30 36416 O 3458.28 0.1994 -1.802 0
M  V30 36417 C 3458.33 -3.29406 -1.4671 0
M  V30 36418 O 3457.44 -3.21705 -2.5803 0
M  V30 36419 H 3456.78 -0.633949 -0.197496 0
M  V30 36420 H 3459.31 -2.04593 0.0163617 0
M  V30 36421 H 3459.32 -3.64312 -1.83687 0
M  V30 36422 H 3457.99 -4.08649 -0.77322 0
M  V30 36423 H 3456.57 -2.98431 -2.23591 0
M  V30 36424 N 3458.75 0.300654 -1.54706 0
M  V30 36425 C 3459.66 1.39338 -1.88738 0
M  V30 36426 C 3460.68 1.55459 -0.781577 0
M  V30 36427 O 3461.86 1.70116 -1.07807 0
M  V30 36428 C 3458.92 2.7371 -2.128 0
M  V30 36429 C 3457.98 2.66571 -3.36509 0
M  V30 36430 C 3457.21 3.94534 -3.59414 0
M  V30 36431 O 3457.44 4.93909 -2.85324 0
M  V30 36432 O 3456.37 3.96407 -4.5293 0
M  V30 36433 H 3460.2 1.13479 -2.81702 0
M  V30 36434 H 3457.78 0.496746 -1.409 0
M  V30 36435 H 3459.66 3.53211 -2.29826 0
M  V30 36436 H 3458.34 2.99412 -1.23022 0
M  V30 36437 H 3457.25 1.85541 -3.24847 0
M  V30 36438 H 3458.58 2.45822 -4.26418 0
M  V30 36439 N 3460.23 1.47168 0.563863 0
M  V30 36440 C 3461.14 1.61775 1.699 0
M  V30 36441 C 3462.16 0.500734 1.66639 0
M  V30 36442 O 3463.33 0.767387 1.86207 0
M  V30 36443 C 3460.4 1.62219 3.06408 0
M  V30 36444 C 3459.46 2.85296 3.20788 0
M  V30 36445 C 3458.69 2.85709 4.50784 0
M  V30 36446 O 3458.92 1.95539 5.35837 0
M  V30 36447 O 3457.85 3.7749 4.68813 0
M  V30 36448 H 3461.68 2.57812 1.6052 0
M  V30 36449 H 3459.26 1.30177 0.733102 0
M  V30 36450 H 3461.14 1.65228 3.87657 0
M  V30 36451 H 3459.82 0.693471 3.16185 0
M  V30 36452 H 3458.73 2.87834 2.38961 0
M  V30 36453 H 3460.06 3.7744 3.15912 0
M  V30 36454 N 3461.71 -0.810054 1.35188 0
M  V30 36455 C 3462.62 -1.95334 1.2993 0
M  V30 36456 C 3463.64 -1.72791 0.204779 0
M  V30 36457 O 3464.81 -1.96678 0.433542 0
M  V30 36458 C 3461.88 -3.29859 1.06741 0
M  V30 36459 C 3460.94 -3.65322 2.25473 0
M  V30 36460 C 3460.17 -4.93428 2.03381 0
M  V30 36461 O 3460.39 -5.61592 0.998518 0
M  V30 36462 O 3459.33 -5.27069 2.90657 0
M  V30 36463 H 3463.15 -2.02717 2.2614 0
M  V30 36464 H 3460.74 -0.947334 1.15525 0
M  V30 36465 H 3462.62 -4.10402 0.956439 0
M  V30 36466 H 3461.3 -3.23415 0.135792 0
M  V30 36467 H 3460.2 -2.8517 2.42134 0
M  V30 36468 H 3461.54 -3.76467 3.1707 0
M  V30 36469 N 3463.19 -1.19129 -1.0318 0
M  V30 36470 C 3464.1 -0.941628 -2.14873 0
M  V30 36471 C 3465.11 0.0973567 -1.73727 0
M  V30 36472 O 3466.29 -0.0866128 -2.01214 0
M  V30 36473 C 3463.36 -0.480427 -3.43355 0
M  V30 36474 C 3462.42 -1.58845 -3.98832 0
M  V30 36475 C 3461.65 -1.14916 -5.21181 0
M  V30 36476 O 3461.87 -0.0115144 -5.70399 0
M  V30 36477 O 3460.81 -1.95052 -5.69419 0
M  V30 36478 H 3464.63 -1.87644 -2.38796 0
M  V30 36479 H 3462.22 -0.973861 -1.13297 0
M  V30 36480 H 3464.1 -0.231732 -4.20762 0
M  V30 36481 H 3462.77 0.425984 -3.20885 0
M  V30 36482 H 3461.68 -1.89126 -3.22773 0
M  V30 36483 H 3463.01 -2.47131 -4.25661 0
M  V30 36484 N 3464.67 1.2224 -0.994741 0
M  V30 36485 C 3465.58 2.27927 -0.555542 0
M  V30 36486 C 3466.59 1.69421 0.396554 0
M  V30 36487 O 3467.77 1.99676 0.26293 0
M  V30 36488 C 3464.83 3.46489 0.12106 0
M  V30 36489 C 3463.89 4.20304 -0.874229 0
M  V30 36490 C 3463.13 5.33205 -0.22982 0
M  V30 36491 O 3463.35 5.61991 0.975836 0
M  V30 36492 O 3462.28 5.94584 -0.935606 0
M  V30 36493 H 3466.11 2.67667 -1.43485 0
M  V30 36494 H 3463.7 1.28442 -0.763084 0
M  V30 36495 H 3465.58 4.18424 0.49997 0
M  V30 36496 H 3464.25 3.0867 0.974905 0
M  V30 36497 H 3463.16 3.50634 -1.30411 0
M  V30 36498 H 3464.49 4.62008 -1.69733 0
M  V30 36499 N 3466.14 0.768172 1.37611 0
M  V30 36500 C 3467.39 0.331366 2.00075 0
M  V30 36501 C 3467.72 -1.0883 1.60841 0
M  V30 36502 O 3467 -1.74803 0.85288 0
M  V30 36503 C 3467.28 0.470852 3.57008 0
M  V30 36504 C 3467.13 1.93267 4.06162 0
M  V30 36505 C 3468.45 -0.127033 4.39917 0
M  V30 36506 H 3465.57 0.121876 0.726853 0
M  V30 36507 H 3468.21 0.970546 1.63341 0
M  V30 36508 H 3466.36 -0.0733005 3.88431 0
M  V30 36509 H 3468.04 2.53625 3.85321 0
M  V30 36510 H 3466.28 2.44272 3.58488 0
M  V30 36511 H 3466.95 1.98135 5.15215 0
M  V30 36512 H 3469.43 0.337217 4.14731 0
M  V30 36513 H 3468.3 0.000720709 5.489 0
M  V30 36514 H 3468.56 -1.21696 4.25021 0
M  V30 36515 N 3467.62 -1.48829 0.518419 0
M  V30 36516 C 3468.9 -1.95421 -0.0837154 0
M  V30 36517 C 3469.28 -1.4604 -1.52432 0
M  V30 36518 O 3468.63 -0.681774 -2.18092 0
M  V30 36519 C 3468.84 -3.48993 0.0215947 0
M  V30 36520 C 3470.19 -4.24357 -0.14354 0
M  V30 36521 O 3471.21 -3.56161 -0.0527597 0
M  V30 36522 O 3470.07 -5.4549 -0.332135 0
M  V30 36523 H 3467.16 -0.822548 -0.0856987 0
M  V30 36524 H 3469.71 -1.59401 0.582197 0
M  V30 36525 H 3468.48 -3.77621 1.02556 0
M  V30 36526 H 3468.1 -3.91678 -0.683687 0
M  V30 36527 N 3469.1 -0.253021 -1.55556 0
M  V30 36528 C 3470.51 0.248979 -1.85032 0
M  V30 36529 C 3470.86 1.57132 -1.17491 0
M  V30 36530 O 3469.99 2.11553 -0.455424 0
M  V30 36531 C 3470.58 0.45853 -3.35683 0
M  V30 36532 C 3469.14 0.904786 -3.65364 0
M  V30 36533 C 3468.29 -0.0145414 -2.77296 0
M  V30 36534 H 3471.24 -0.475421 -1.51411 0
M  V30 36535 H 3471.26 1.30028 -3.57593 0
M  V30 36536 H 3470.77 -0.504049 -3.84813 0
M  V30 36537 H 3468.87 1.87962 -3.21716 0
M  V30 36538 H 3468.99 0.757409 -4.73075 0
M  V30 36539 H 3467.35 0.49791 -2.49786 0
M  V30 36540 H 3468.13 -0.972604 -3.29234 0
M  V30 36541 N 3470.58 1.57587 0.0200142 0
M  V30 36542 C 3471.53 2.08246 1.03616 0
M  V30 36543 C 3472.52 0.998143 1.3687 0
M  V30 36544 O 3473.73 1.18296 1.35669 0
M  V30 36545 H 3470.1 0.664679 0.351719 0
M  V30 36546 H 3472.07 2.92646 0.583174 0
M  V30 36547 C 3470.82 2.5847 2.32569 0
M  V30 36548 H 3470.14 3.41527 2.07844 0
M  V30 36549 H 3471.58 2.97616 3.01994 0
M  V30 36550 C 3470.04 1.48991 3.02164 0
M  V30 36551 O 3470.57 0.86132 3.92357 0
M  V30 36552 N 3468.78 1.22224 2.63647 0
M  V30 36553 H 3468.33 1.73525 1.90386 0
M  V30 36554 H 3468.28 0.491883 3.10528 0
M  V30 36555 N 3472.06 -0.292445 1.54863 0
M  V30 36556 C 3473.28 -1.04531 1.78552 0
M  V30 36557 C 3473.7 -1.80636 0.549193 0
M  V30 36558 O 3473.06 -1.76041 -0.481237 0
M  V30 36559 C 3473.11 -2.01918 2.99852 0
M  V30 36560 O 3472.83 -1.28899 4.18708 0
M  V30 36561 C 3474.33 -2.89174 3.35996 0
M  V30 36562 H 3471.55 -0.309642 0.595284 0
M  V30 36563 H 3474.09 -0.329123 2.01834 0
M  V30 36564 H 3472.25 -2.69027 2.78753 0
M  V30 36565 H 3472.66 -1.94374 4.87154 0
M  V30 36566 H 3474.14 -3.53342 4.24092 0
M  V30 36567 H 3474.61 -3.57926 2.5453 0
M  V30 36568 H 3475.22 -2.27584 3.59285 0
M  V30 36569 N 3473.53 -1.47465 -0.55605 0
M  V30 36570 C 3474.47 -1.56099 -1.67827 0
M  V30 36571 C 3475.48 -0.447104 -1.5654 0
M  V30 36572 O 3476.67 -0.716768 -1.63477 0
M  V30 36573 C 3473.77 -1.45028 -3.06301 0
M  V30 36574 C 3472.94 -2.71005 -3.43329 0
M  V30 36575 C 3472 -2.53754 -4.60972 0
M  V30 36576 O 3471.03 -3.27572 -4.65495 0
M  V30 36577 N 3472.23 -1.61657 -5.57537 0
M  V30 36578 H 3474.99 -2.52868 -1.60866 0
M  V30 36579 H 3472.55 -1.43859 -0.742715 0
M  V30 36580 H 3474.55 -1.3122 -3.82836 0
M  V30 36581 H 3473.12 -0.563365 -3.07482 0
M  V30 36582 H 3472.34 -2.99565 -2.56231 0
M  V30 36583 H 3473.62 -3.54635 -3.64844 0
M  V30 36584 H 3473.02 -1.00837 -5.5664 0
M  V30 36585 H 3471.58 -1.53801 -6.33395 0
M  V30 36586 N 3475.01 0.802873 -1.35616 0
M  V30 36587 C 3475.96 1.9363 -1.28881 0
M  V30 36588 C 3476.96 1.68408 -0.183044 0
M  V30 36589 O 3478.16 1.76579 -0.349249 0
M  V30 36590 H 3474.54 0.636229 -0.400894 0
M  V30 36591 H 3476.51 1.96431 -2.24628 0
M  V30 36592 C 3475.26 3.30455 -1.08141 0
M  V30 36593 H 3474.58 3.50422 -1.92469 0
M  V30 36594 H 3476.02 4.10154 -1.07471 0
M  V30 36595 C 3474.48 3.36216 0.214576 0
M  V30 36596 O 3475.01 3.83072 1.20909 0
M  V30 36597 N 3473.21 2.89482 0.254629 0
M  V30 36598 H 3472.76 2.51544 -0.555283 0
M  V30 36599 H 3472.72 2.93718 1.12147 0
M  V30 36600 N 3476.49 1.19674 1.02547 0
M  V30 36601 C 3477.9 1.00328 1.57452 0
M  V30 36602 C 3478.25 -0.442855 1.91137 0
M  V30 36603 O 3477.38 -1.32281 1.71262 0
M  V30 36604 C 3477.97 1.81491 2.86088 0
M  V30 36605 C 3476.53 1.66536 3.37554 0
M  V30 36606 C 3475.68 1.79979 2.10957 0
M  V30 36607 H 3478.63 1.33996 0.850341 0
M  V30 36608 H 3478.65 1.31302 3.57127 0
M  V30 36609 H 3478.16 2.86737 2.6154 0
M  V30 36610 H 3476.26 0.638898 3.67082 0
M  V30 36611 H 3476.38 2.47276 4.10355 0
M  V30 36612 H 3474.74 1.23075 2.2299 0
M  V30 36613 H 3475.52 2.86691 1.88847 0
M  V30 36614 N 3477.97 -1.21711 1.00121 0
M  V30 36615 C 3478.92 -2.23942 0.558428 0
M  V30 36616 C 3479.89 -1.60869 -0.413547 0
M  V30 36617 O 3481.07 -1.88158 -0.316445 0
M  V30 36618 C 3478.21 -3.44916 -0.112558 0
M  V30 36619 C 3477.32 -4.22475 0.902145 0
M  V30 36620 C 3476.46 -5.30809 0.203815 0
M  V30 36621 C 3475.5 -6.00095 1.20632 0
M  V30 36622 N 3474.64 -7.00053 0.53573 0
M  V30 36623 H 3479.48 -2.61179 1.4349 0
M  V30 36624 H 3477.01 -1.28354 0.718594 0
M  V30 36625 H 3478.97 -4.13965 -0.518577 0
M  V30 36626 H 3477.6 -3.08419 -0.952773 0
M  V30 36627 H 3476.65 -3.52643 1.42643 0
M  V30 36628 H 3477.96 -4.70183 1.66521 0
M  V30 36629 H 3477.12 -6.06149 -0.258508 0
M  V30 36630 H 3475.86 -4.84097 -0.591688 0
M  V30 36631 H 3474.86 -5.2353 1.67919 0
M  V30 36632 H 3476.09 -6.48894 2.00284 0
M  V30 36633 H 3474.03 -6.5556 -0.240185 0
M  V30 36634 H 3473.95 -7.45809 1.23711 0
M  V30 36635 H 3475.22 -7.7944 0.0964859 0
M  V30 36636 N 3479.45 -0.775459 -1.37202 0
M  V30 36637 C 3480.68 -0.352451 -2.03571 0
M  V30 36638 C 3481.09 1.03142 -1.58614 0
M  V30 36639 O 3480.43 1.67036 -0.764507 0
M  V30 36640 C 3480.49 -0.321089 -3.58063 0
M  V30 36641 C 3480.15 -1.65017 -4.26167 0
M  V30 36642 C 3481.15 -2.60326 -4.50029 0
M  V30 36643 C 3478.84 -1.92563 -4.63923 0
M  V30 36644 C 3480.83 -3.81385 -5.10709 0
M  V30 36645 C 3478.52 -3.13892 -5.24323 0
M  V30 36646 C 3479.52 -4.08123 -5.47654 0
M  V30 36647 O 3479.2 -5.27315 -6.0679 0
M  V30 36648 H 3478.94 -0.14517 -0.660228 0
M  V30 36649 H 3481.49 -1.05151 -1.76444 0
M  V30 36650 H 3479.72 0.434372 -3.84253 0
M  V30 36651 H 3481.41 0.0753528 -4.0583 0
M  V30 36652 H 3482.17 -2.40328 -4.21269 0
M  V30 36653 H 3478.05 -1.20044 -4.45096 0
M  V30 36654 H 3481.6 -4.54949 -5.28836 0
M  V30 36655 H 3477.49 -3.33774 -5.52508 0
M  V30 36656 H 3478.26 -5.2819 -6.25266 0
M  V30 36657 N 3480.93 1.48552 -0.526305 0
M  V30 36658 C 3482.17 2.01697 0.0111118 0
M  V30 36659 C 3482.49 1.40898 1.35673 0
M  V30 36660 O 3483.69 1.85519 1.9823 0
M  V30 36661 C 3482.15 3.59832 0.0702088 0
M  V30 36662 C 3481.76 4.29613 -1.27029 0
M  V30 36663 C 3483.5 4.20834 0.556648 0
M  V30 36664 C 3481.41 5.79671 -1.17198 0
M  V30 36665 H 3480.34 0.753958 0.00792372 0
M  V30 36666 H 3482.99 1.70849 -0.669533 0
M  V30 36667 H 3481.37 3.87505 0.815851 0
M  V30 36668 H 3482.55 4.13616 -2.03121 0
M  V30 36669 H 3480.86 3.80466 -1.69217 0
M  V30 36670 H 3483.46 5.30758 0.648112 0
M  V30 36671 H 3483.8 3.85903 1.56156 0
M  V30 36672 H 3484.33 3.97577 -0.133202 0
M  V30 36673 H 3481.07 6.19171 -2.15193 0
M  V30 36674 H 3480.59 5.98092 -0.452364 0
M  V30 36675 H 3482.27 6.41244 -0.861123 0
M  V30 36676 N 3482.4 0.261267 1.55419 0
M  V30 36677 C 3483.63 -0.363189 2.03687 0
M  V30 36678 C 3484.05 -1.5049 1.1401 0
M  V30 36679 O 3483.4 -1.8182 0.157381 0
M  V30 36680 C 3483.45 -0.857373 3.51186 0
M  V30 36681 O 3483.18 0.238853 4.37448 0
M  V30 36682 C 3484.68 -1.55106 4.15279 0
M  V30 36683 H 3481.9 -0.0846239 0.665642 0
M  V30 36684 H 3484.44 0.389323 2.0076 0
M  V30 36685 H 3482.6 -1.56002 3.54601 0
M  V30 36686 H 3483.01 -0.138729 5.24317 0
M  V30 36687 H 3484.48 -1.84841 5.20133 0
M  V30 36688 H 3484.96 -2.47793 3.62623 0
M  V30 36689 H 3485.57 -0.892622 4.15827 0
M  V30 36690 N 3483.88 -1.57596 -0.0116567 0
M  V30 36691 C 3484.84 -2.06641 -0.991564 0
M  V30 36692 C 3485.84 -0.973652 -1.27971 0
M  V30 36693 O 3487.03 -1.2367 -1.22684 0
M  V30 36694 C 3484.17 -2.49805 -2.3197 0
M  V30 36695 H 3485.36 -2.94481 -0.567555 0
M  V30 36696 H 3482.91 -1.54141 -0.258879 0
M  V30 36697 H 3483.65 -1.65174 -2.79084 0
M  V30 36698 H 3483.43 -3.29601 -2.1238 0
M  V30 36699 H 3484.92 -2.88117 -3.02288 0
M  V30 36700 N 3485.36 0.284228 -1.55016 0
M  V30 36701 C 3486.32 1.33423 -1.86362 0
M  V30 36702 C 3487.32 1.42891 -0.737482 0
M  V30 36703 O 3488.51 1.42236 -1.00571 0
M  V30 36704 C 3485.64 2.71703 -2.05889 0
M  V30 36705 H 3486.84 1.06864 -2.80214 0
M  V30 36706 H 3484.39 0.521741 -1.47335 0
M  V30 36707 H 3485.13 3.03459 -1.14381 0
M  V30 36708 H 3484.91 2.66219 -2.87871 0
M  V30 36709 H 3486.4 3.47591 -2.31453 0
M  V30 36710 N 3486.84 1.47758 0.548222 0
M  V30 36711 C 3488.08 1.56428 1.31566 0
M  V30 36712 C 3488.44 0.225105 1.90676 0
M  V30 36713 O 3489.64 0.186699 2.68151 0
M  V30 36714 C 3487.91 2.6578 2.38947 0
M  V30 36715 S 3489.47 2.94095 3.25659 0
M  V30 36716 H 3486.29 0.55228 0.447781 0
M  V30 36717 H 3488.89 1.85185 0.626627 0
M  V30 36718 H 3487.6 3.61667 1.93971 0
M  V30 36719 H 3487.13 2.38866 3.1258 0
M  V30 36720 H 3489.14 2.31996 4.38625 0
M  V30 36721 N 3488.32 -0.79567 1.3604 0
M  V30 36722 C 3489.23 -1.93945 1.31994 0
M  V30 36723 C 3490.24 -1.72564 0.223094 0
M  V30 36724 O 3491.42 -1.96207 0.454378 0
M  V30 36725 C 3488.48 -3.28709 1.10234 0
M  V30 36726 C 3487.54 -3.6291 2.29335 0
M  V30 36727 C 3486.78 -4.91244 2.08604 0
M  V30 36728 O 3487 -5.60502 1.05803 0
M  V30 36729 O 3485.93 -5.23957 2.96231 0
M  V30 36730 H 3489.76 -2.00307 2.28278 0
M  V30 36731 H 3487.34 -0.935028 1.16523 0
M  V30 36732 H 3489.23 -4.09365 0.999914 0
M  V30 36733 H 3487.9 -3.23253 0.170087 0
M  V30 36734 H 3486.81 -2.82586 2.45145 0
M  V30 36735 H 3488.14 -3.73083 3.21045 0
M  V30 36736 N 3489.79 -1.20217 -1.0191 0
M  V30 36737 C 3490.73 -0.892067 -2.10041 0
M  V30 36738 C 3491.71 0.154844 -1.61861 0
M  V30 36739 O 3492.89 0.0289804 -1.88478 0
M  V30 36740 C 3490.02 -0.336873 -3.37021 0
M  V30 36741 C 3489.06 -1.36438 -4.04088 0
M  V30 36742 S 3489.9 -2.92851 -4.48329 0
M  V30 36743 C 3491.05 -2.389 -5.78513 0
M  V30 36744 H 3491.28 -1.80779 -2.36022 0
M  V30 36745 H 3488.82 -1.03037 -1.14991 0
M  V30 36746 H 3490.78 -0.0230913 -4.10494 0
M  V30 36747 H 3489.44 0.557309 -3.09116 0
M  V30 36748 H 3488.63 -0.925234 -4.95435 0
M  V30 36749 H 3488.23 -1.62551 -3.36828 0
M  V30 36750 H 3490.52 -1.78506 -6.53561 0
M  V30 36751 H 3491.47 -3.28634 -6.27221 0
M  V30 36752 H 3491.87 -1.81119 -5.34655 0
M  V30 36753 N 3491.27 1.21178 -1.00765 0
M  V30 36754 C 3492.52 1.90596 -0.692884 0
M  V30 36755 C 3492.85 1.7808 0.774667 0
M  V30 36756 O 3492.13 1.15917 1.56184 0
M  V30 36757 C 3492.41 3.42306 -1.11798 0
M  V30 36758 C 3492.26 3.638 -2.64518 0
M  V30 36759 C 3493.58 4.34777 -0.68239 0
M  V30 36760 H 3490.7 0.692145 -0.253187 0
M  V30 36761 H 3493.34 1.42758 -1.2538 0
M  V30 36762 H 3491.49 3.8318 -0.640732 0
M  V30 36763 H 3493.16 3.32236 -3.20026 0
M  V30 36764 H 3491.41 3.07575 -3.05908 0
M  V30 36765 H 3492.08 4.70108 -2.89314 0
M  V30 36766 H 3494.55 4.01501 -1.09254 0
M  V30 36767 H 3493.43 5.39566 -1.00796 0
M  V30 36768 H 3493.69 4.40135 0.416364 0
M  V30 36769 N 3492.75 0.782725 1.36789 0
M  V30 36770 C 3493.71 0.182566 2.28472 0
M  V30 36771 C 3494.71 -0.616191 1.48525 0
M  V30 36772 O 3495.9 -0.438168 1.68599 0
M  V30 36773 C 3493.04 -0.748143 3.32589 0
M  V30 36774 H 3494.23 0.990899 2.83057 0
M  V30 36775 H 3491.78 0.551684 1.4624 0
M  V30 36776 H 3492.52 -1.58107 2.83148 0
M  V30 36777 H 3492.3 -0.177412 3.91698 0
M  V30 36778 H 3493.79 -1.16314 4.01075 0
M  V30 36779 N 3494.23 -1.48271 0.534176 0
M  V30 36780 C 3495.14 -2.3347 -0.230021 0
M  V30 36781 C 3496.15 -1.46753 -0.934863 0
M  V30 36782 O 3497.33 -1.79725 -0.90889 0
M  V30 36783 C 3494.4 -3.22961 -1.26085 0
M  V30 36784 C 3493.46 -4.25554 -0.565908 0
M  V30 36785 C 3492.69 -5.10768 -1.54762 0
M  V30 36786 O 3492.91 -4.98034 -2.78061 0
M  V30 36787 O 3491.85 -5.92045 -1.08472 0
M  V30 36788 H 3495.67 -3.00069 0.468235 0
M  V30 36789 H 3493.26 -1.46458 0.295046 0
M  V30 36790 H 3495.14 -3.78304 -1.85646 0
M  V30 36791 H 3493.81 -2.59017 -1.94144 0
M  V30 36792 H 3492.72 -3.74034 0.0703048 0
M  V30 36793 H 3494.05 -4.92146 0.0728142 0
M  V30 36794 N 3495.71 -0.269505 -1.55279 0
M  V30 36795 C 3496.64 0.661611 -2.18399 0
M  V30 36796 C 3497.62 1.15635 -1.14312 0
M  V30 36797 O 3498.8 1.23035 -1.4281 0
M  V30 36798 C 3495.93 1.90167 -2.80275 0
M  V30 36799 C 3494.97 1.54288 -3.97615 0
M  V30 36800 S 3495.81 0.625902 -5.3183 0
M  V30 36801 C 3496.96 1.87446 -5.97172 0
M  V30 36802 H 3497.2 0.125273 -2.97036 0
M  V30 36803 H 3494.73 -0.0537983 -1.54306 0
M  V30 36804 H 3496.69 2.61346 -3.16557 0
M  V30 36805 H 3495.35 2.40914 -2.01542 0
M  V30 36806 H 3494.54 2.46547 -4.3958 0
M  V30 36807 H 3494.14 0.911331 -3.62727 0
M  V30 36808 H 3496.44 2.81906 -6.16064 0
M  V30 36809 H 3497.38 1.49791 -6.92075 0
M  V30 36810 H 3497.79 2.03684 -5.26472 0
M  V30 36811 N 3497.18 1.576 0.00329885 0
M  V30 36812 C 3498.43 1.90706 0.689856 0
M  V30 36813 C 3498.76 0.870322 1.73606 0
M  V30 36814 O 3498.04 -0.111381 1.94181 0
M  V30 36815 C 3498.32 3.344 1.336 0
M  V30 36816 C 3498.17 4.48788 0.301559 0
M  V30 36817 C 3499.49 3.77457 2.26306 0
M  V30 36818 H 3496.61 0.693549 0.249316 0
M  V30 36819 H 3499.25 1.89941 -0.0473181 0
M  V30 36820 H 3497.4 3.35182 1.96431 0
M  V30 36821 H 3499.08 4.60141 -0.326819 0
M  V30 36822 H 3497.32 4.32163 -0.376527 0
M  V30 36823 H 3497.99 5.46279 0.792645 0
M  V30 36824 H 3500.47 3.78204 1.73495 0
M  V30 36825 H 3499.34 4.78756 2.68484 0
M  V30 36826 H 3499.6 3.11141 3.14076 0
M  V30 36827 N 3498.66 -0.276003 1.55164 0
M  V30 36828 C 3499.57 -1.36318 1.90931 0
M  V30 36829 C 3500.59 -1.54196 0.80621 0
M  V30 36830 O 3501.76 -1.6838 1.105 0
M  V30 36831 C 3498.83 -2.70289 2.17128 0
M  V30 36832 C 3497.89 -2.61184 3.40707 0
M  V30 36833 C 3497.12 -3.88766 3.65645 0
M  V30 36834 O 3497.35 -4.89308 2.93145 0
M  V30 36835 O 3496.28 -3.89151 4.59179 0
M  V30 36836 H 3500.11 -1.08983 2.83472 0
M  V30 36837 H 3497.69 -0.474267 1.41672 0
M  V30 36838 H 3499.57 -3.4951 2.35416 0
M  V30 36839 H 3498.25 -2.97416 1.2777 0
M  V30 36840 H 3497.16 -1.80349 3.27757 0
M  V30 36841 H 3498.49 -2.39007 4.30275 0
M  V30 36842 N 3500.14 -1.48046 -0.540378 0
M  V30 36843 C 3501.37 -1.5943 -1.32653 0
M  V30 36844 C 3501.79 -0.250957 -1.86418 0
M  V30 36845 O 3501.15 0.775809 -1.63862 0
M  V30 36846 C 3501.2 -2.63606 -2.46058 0
M  V30 36847 O 3500.3 -2.20044 -3.4879 0
M  V30 36848 H 3499.64 -0.534969 -0.393325 0
M  V30 36849 H 3502.17 -1.93956 -0.651329 0
M  V30 36850 H 3502.18 -2.84555 -2.92391 0
M  V30 36851 H 3500.86 -3.61136 -2.06284 0
M  V30 36852 H 3499.43 -2.09266 -3.08646 0
M  V30 36853 N 3501.62 0.788444 -1.3646 0
M  V30 36854 C 3502.55 1.91539 -1.33549 0
M  V30 36855 C 3503.53 1.68838 -0.206792 0
M  V30 36856 O 3504.71 1.89939 -0.404586 0
M  V30 36857 C 3501.84 3.28575 -1.12498 0
M  V30 36858 C 3500.8 3.65801 -2.22202 0
M  V30 36859 C 3500.12 5.01197 -1.86294 0
M  V30 36860 C 3501.42 3.74283 -3.64293 0
M  V30 36861 H 3503.12 1.94232 -2.27847 0
M  V30 36862 H 3500.66 0.933086 -1.09679 0
M  V30 36863 H 3502.62 4.07033 -1.09096 0
M  V30 36864 H 3501.34 3.26271 -0.146503 0
M  V30 36865 H 3500 2.8964 -2.24732 0
M  V30 36866 H 3499.65 4.95416 -0.870177 0
M  V30 36867 H 3499.35 5.27074 -2.59743 0
M  V30 36868 H 3500.87 5.82075 -1.84449 0
M  V30 36869 H 3502.29 4.42931 -3.63985 0
M  V30 36870 H 3500.68 4.11645 -4.36655 0
M  V30 36871 H 3501.75 2.75364 -3.99128 0
M  V30 36872 N 3503.1 1.20755 1.01271 0
M  V30 36873 C 3504.03 0.917665 2.10028 0
M  V30 36874 C 3505.04 -0.0961126 1.62516 0
M  V30 36875 O 3506.23 0.135402 1.77986 0
M  V30 36876 C 3503.33 0.35495 3.37036 0
M  V30 36877 C 3502.5 1.42121 4.13667 0
M  V30 36878 C 3501.56 0.869115 5.18973 0
M  V30 36879 O 3500.59 1.55073 5.47669 0
M  V30 36880 N 3501.79 -0.319529 5.7962 0
M  V30 36881 H 3504.56 1.85387 2.35482 0
M  V30 36882 H 3502.12 1.11175 1.17693 0
M  V30 36883 H 3504.11 -0.0286183 4.0469 0
M  V30 36884 H 3502.68 -0.485901 3.08801 0
M  V30 36885 H 3501.9 1.97895 3.40927 0
M  V30 36886 H 3503.19 2.13919 4.61645 0
M  V30 36887 H 3502.58 -0.890492 5.58647 0
M  V30 36888 H 3501.14 -0.644693 6.48604 0
M  V30 36889 N 3504.58 -1.20642 1.01406 0
M  V30 36890 C 3505.8 -1.94469 0.720873 0
M  V30 36891 C 3506.23 -1.74117 -0.71168 0
M  V30 36892 O 3505.58 -1.03382 -1.48936 0
M  V30 36893 C 3505.63 -3.44708 1.0587 0
M  V30 36894 O 3504.74 -4.12054 0.168974 0
M  V30 36895 H 3504.08 -0.607641 0.267709 0
M  V30 36896 H 3506.61 -1.53145 1.35675 0
M  V30 36897 H 3506.62 -3.95318 1.00935 0
M  V30 36898 H 3505.29 -3.58845 2.10246 0
M  V30 36899 H 3503.87 -3.7188 0.275638 0
M  V30 36900 N 3506.05 -0.789968 -1.36372 0
M  V30 36901 C 3507.3 -0.363154 -1.99522 0
M  V30 36902 C 3507.63 1.06257 -1.62552 0
M  V30 36903 O 3506.91 1.73424 -0.880582 0
M  V30 36904 C 3507.19 -0.527589 -3.56214 0
M  V30 36905 C 3507.04 -1.99704 -4.03036 0
M  V30 36906 C 3508.36 0.0570305 -4.40063 0
M  V30 36907 H 3505.48 -0.133425 -0.724822 0
M  V30 36908 H 3508.12 -0.99641 -1.61777 0
M  V30 36909 H 3506.27 0.0114953 -3.88498 0
M  V30 36910 H 3507.95 -2.59723 -3.81237 0
M  V30 36911 H 3506.19 -2.49945 -3.54556 0
M  V30 36912 H 3506.86 -2.06306 -5.11998 0
M  V30 36913 H 3509.34 -0.403155 -4.14142 0
M  V30 36914 H 3508.21 -0.0880458 -5.48829 0
M  V30 36915 H 3508.47 1.14919 -4.26903 0
M  V30 36916 N 3507.53 1.47986 -0.542031 0
M  V30 36917 C 3508.46 2.32619 0.202662 0
M  V30 36918 C 3509.44 1.42848 0.923496 0
M  V30 36919 O 3510.63 1.71722 0.906927 0
M  V30 36920 C 3507.76 3.24309 1.24261 0
M  V30 36921 C 3506.71 4.232 0.639183 0
M  V30 36922 C 3506.04 5.04108 1.78266 0
M  V30 36923 C 3507.34 5.20788 -0.397073 0
M  V30 36924 H 3509.03 2.9513 -0.503868 0
M  V30 36925 H 3506.58 1.41922 -0.243761 0
M  V30 36926 H 3508.53 3.8235 1.77163 0
M  V30 36927 H 3507.25 2.59822 1.97888 0
M  V30 36928 H 3505.91 3.66364 0.131591 0
M  V30 36929 H 3505.56 4.36037 2.50761 0
M  V30 36930 H 3505.26 5.7105 1.38477 0
M  V30 36931 H 3506.79 5.65004 2.31523 0
M  V30 36932 H 3508.2 5.73282 0.045305 0
M  V30 36933 H 3506.6 5.95849 -0.713015 0
M  V30 36934 H 3507.67 4.6719 -1.29851 0
M  V30 36935 N 3509.01 0.277736 1.55133 0
M  V30 36936 C 3509.97 -0.595531 2.21328 0
M  V30 36937 C 3510.97 -1.07931 1.19195 0
M  V30 36938 O 3512.16 -0.979068 1.44083 0
M  V30 36939 C 3509.29 -1.82191 2.88131 0
M  V30 36940 H 3510.49 -0.0175328 2.99895 0
M  V30 36941 H 3508.04 0.0283728 1.56274 0
M  V30 36942 H 3508.78 -2.44035 2.13582 0
M  V30 36943 H 3508.56 -1.4829 3.62977 0
M  V30 36944 H 3510.05 -2.44285 3.38696 0
M  V30 36945 N 3510.49 -1.57599 0.00505908 0
M  V30 36946 C 3511.42 -2.11775 -0.983548 0
M  V30 36947 C 3512.4 -1.02808 -1.35516 0
M  V30 36948 O 3513.58 -1.30517 -1.43802 0
M  V30 36949 C 3510.71 -2.62519 -2.27378 0
M  V30 36950 C 3509.67 -3.76058 -2.04364 0
M  V30 36951 C 3508.99 -4.13136 -3.39444 0
M  V30 36952 C 3510.29 -5.03127 -1.40215 0
M  V30 36953 H 3511.99 -2.94627 -0.53245 0
M  V30 36954 H 3509.53 -1.4173 -0.254671 0
M  V30 36955 H 3511.49 -2.99048 -2.96898 0
M  V30 36956 H 3510.21 -1.76795 -2.74611 0
M  V30 36957 H 3508.87 -3.39931 -1.37269 0
M  V30 36958 H 3508.52 -3.24429 -3.84389 0
M  V30 36959 H 3508.22 -4.89633 -3.24859 0
M  V30 36960 H 3509.74 -4.52228 -4.10271 0
M  V30 36961 H 3511.16 -5.37395 -1.99698 0
M  V30 36962 H 3509.55 -5.84462 -1.36102 0
M  V30 36963 H 3510.62 -4.83471 -0.371988 0
M  V30 36964 N 3511.97 0.267771 -1.55309 0
M  V30 36965 C 3513.21 0.996703 -1.75813 0
M  V30 36966 C 3513.53 1.86629 -0.565194 0
M  V30 36967 O 3512.8 1.9135 0.419741 0
M  V30 36968 H 3511.38 0.370997 -0.64836 0
M  V30 36969 H 3514.05 0.290742 -1.92719 0
M  V30 36970 H 3513.14 1.6306 -2.66116 0
M  V30 36971 N 3513.44 1.48331 0.532519 0
M  V30 36972 C 3514.39 1.59065 1.63347 0
M  V30 36973 C 3515.38 0.447932 1.54539 0
M  V30 36974 O 3516.57 0.699233 1.62603 0
M  V30 36975 C 3513.7 1.63114 3.02074 0
M  V30 36976 C 3512.78 2.82857 3.15995 0
M  V30 36977 N 3513.18 4.07302 2.99898 0
M  V30 36978 C 3511.47 2.80136 3.47044 0
M  V30 36979 C 3512.17 4.87627 3.17167 0
M  V30 36980 N 3511.15 4.20397 3.44627 0
M  V30 36981 H 3514.95 2.53031 1.49508 0
M  V30 36982 H 3512.47 1.44667 0.737915 0
M  V30 36983 H 3514.46 1.68898 3.81155 0
M  V30 36984 H 3513.12 0.70263 3.17007 0
M  V30 36985 H 3514.13 4.37779 2.76713 0
M  V30 36986 H 3510.81 1.9653 3.68351 0
M  V30 36987 H 3512.2 5.96382 3.09481 0
M  V30 36988 N 3514.92 -0.781196 1.36876 0
M  V30 36989 C 3515.87 -1.89416 1.31872 0
M  V30 36990 C 3516.84 -1.65056 0.185933 0
M  V30 36991 O 3518.02 -1.87103 0.373778 0
M  V30 36992 C 3515.16 -3.26348 1.12211 0
M  V30 36993 C 3514.28 -3.62725 2.34638 0
M  V30 36994 C 3513.41 -4.88816 2.07923 0
M  V30 36995 C 3512.45 -5.17896 3.26266 0
M  V30 36996 N 3511.59 -6.35174 2.99164 0
M  V30 36997 H 3516.43 -1.93028 2.27033 0
M  V30 36998 H 3513.96 -0.943837 1.12828 0
M  V30 36999 H 3515.92 -4.05324 0.988353 0
M  V30 37000 H 3514.55 -3.22136 0.207016 0
M  V30 37001 H 3513.6 -2.78807 2.58787 0
M  V30 37002 H 3514.92 -3.80158 3.22926 0
M  V30 37003 H 3514.07 -5.75676 1.91524 0
M  V30 37004 H 3512.81 -4.73468 1.16958 0
M  V30 37005 H 3511.81 -4.29516 3.43214 0
M  V30 37006 H 3513.04 -5.35159 4.18069 0
M  V30 37007 H 3510.99 -6.21202 2.10818 0
M  V30 37008 H 3510.9 -6.52978 3.80992 0
M  V30 37009 H 3512.17 -7.24995 2.86362 0
M  V30 37010 N 3516.4 -1.21291 -1.0063 0
M  V30 37011 C 3517.82 -0.969979 -1.26742 0
M  V30 37012 C 3518.02 0.344414 -1.98535 0
M  V30 37013 O 3517.07 1.0704 -2.28689 0
M  V30 37014 C 3518.38 -2.15967 -2.09234 0
M  V30 37015 C 3519.93 -2.20178 -2.22465 0
M  V30 37016 C 3520.41 -3.38662 -3.08338 0
M  V30 37017 N 3521.9 -3.3874 -3.15926 0
M  V30 37018 C 3522.63 -4.27067 -3.82624 0
M  V30 37019 N 3522.13 -5.2559 -4.51362 0
M  V30 37020 N 3523.92 -4.14879 -3.79252 0
M  V30 37021 H 3516.07 -2.0582 -0.52459 0
M  V30 37022 H 3518.34 -0.901189 -0.294215 0
M  V30 37023 H 3518.04 -3.11212 -1.6383 0
M  V30 37024 H 3517.92 -2.14919 -3.09983 0
M  V30 37025 H 3520.3 -1.2549 -2.67089 0
M  V30 37026 H 3520.38 -2.2527 -1.2119 0
M  V30 37027 H 3520.03 -4.33642 -2.64418 0
M  V30 37028 H 3519.96 -3.30808 -4.09724 0
M  V30 37029 H 3522.45 -2.67438 -2.66993 0
M  V30 37030 H 3522.76 -5.89292 -4.99955 0
M  V30 37031 H 3521.11 -5.29516 -4.50153 0
M  V30 37032 H 3524.3 -3.37171 -3.24705 0
M  V30 37033 H 3524.47 -4.83924 -4.30954 0
M  V30 37034 N 3517.88 1.20103 -1.02045 0
M  V30 37035 C 3518.83 2.25062 -0.587371 0
M  V30 37036 C 3519.82 1.65179 0.375815 0
M  V30 37037 O 3521.03 1.78321 0.245316 0
M  V30 37038 H 3517.4 0.732148 -0.17165 0
M  V30 37039 H 3519.37 2.58915 -1.48344 0
M  V30 37040 C 3518.12 3.47657 0.0546282 0
M  V30 37041 H 3517.44 3.94017 -0.677526 0
M  V30 37042 H 3518.88 4.22785 0.320712 0
M  V30 37043 C 3517.34 3.10865 1.29863 0
M  V30 37044 O 3517.87 3.2275 2.39156 0
M  V30 37045 N 3516.08 2.65378 1.18419 0
M  V30 37046 H 3515.63 2.55907 0.29485 0
M  V30 37047 H 3515.58 2.41131 2.0175 0
M  V30 37048 N 3519.36 0.797189 1.35951 0
M  V30 37049 C 3520.58 0.384245 2.0381 0
M  V30 37050 C 3521.01 -0.993826 1.59702 0
M  V30 37051 O 3520.36 -1.64175 0.769177 0
M  V30 37052 C 3520.41 0.465116 3.57588 0
M  V30 37053 O 3519.52 -0.525023 4.09044 0
M  V30 37054 H 3518.86 0.161923 0.643954 0
M  V30 37055 H 3521.39 1.08046 1.73745 0
M  V30 37056 H 3521.4 0.331519 4.06651 0
M  V30 37057 H 3520.07 1.47034 3.89042 0
M  V30 37058 H 3518.65 -0.352444 3.71231 0
M  V30 37059 N 3520.83 -1.47696 0.549872 0
M  V30 37060 C 3522.08 -2.02087 0.0230403 0
M  V30 37061 C 3522.4 -1.42733 -1.32862 0
M  V30 37062 O 3521.67 -0.599843 -1.8649 0
M  V30 37063 H 3520.25 -0.74698 0.00552827 0
M  V30 37064 H 3522.92 -1.81184 0.718217 0
M  V30 37065 H 3522.01 -3.1202 -0.0705264 0
M  V30 37066 N 3522.31 -0.285959 -1.54984 0
M  V30 37067 C 3523.56 0.328188 -2.00127 0
M  V30 37068 C 3523.89 1.54687 -1.17412 0
M  V30 37069 O 3523.17 1.92927 -0.24684 0
M  V30 37070 C 3523.45 0.699671 -3.53237 0
M  V30 37071 C 3523.3 -0.527108 -4.46701 0
M  V30 37072 C 3524.62 1.53199 -4.12575 0
M  V30 37073 H 3521.74 0.117813 -0.727523 0
M  V30 37074 H 3524.38 -0.395065 -1.85847 0
M  V30 37075 H 3522.53 1.31588 -3.65536 0
M  V30 37076 H 3524.2 -1.16565 -4.4633 0
M  V30 37077 H 3522.45 -1.16317 -4.17915 0
M  V30 37078 H 3523.12 -0.223262 -5.51548 0
M  V30 37079 H 3525.59 1.01147 -4.03619 0
M  V30 37080 H 3524.47 1.76071 -5.19894 0
M  V30 37081 H 3524.73 2.51647 -3.63492 0
M  V30 37082 N 3523.79 1.57594 -0.0134169 0
M  V30 37083 C 3525.2 1.79091 0.527584 0
M  V30 37084 C 3525.55 0.922173 1.73177 0
M  V30 37085 O 3524.68 0.128271 2.1602 0
M  V30 37086 C 3525.27 3.24799 0.963892 0
M  V30 37087 C 3523.83 3.47345 1.45011 0
M  V30 37088 C 3522.98 2.7429 0.407499 0
M  V30 37089 H 3525.93 1.56882 -0.239533 0
M  V30 37090 H 3525.95 3.33649 1.82918 0
M  V30 37091 H 3525.46 3.88002 0.0872633 0
M  V30 37092 H 3523.56 2.89375 2.34719 0
M  V30 37093 H 3523.68 4.56045 1.46832 0
M  V30 37094 H 3522.04 2.39303 0.872132 0
M  V30 37095 H 3522.82 3.40199 -0.460393 0
M  V30 37096 N 3525.27 -0.259531 1.55448 0
M  V30 37097 C 3526.23 -1.30441 1.88461 0
M  V30 37098 C 3527.23 -1.417 0.760121 0
M  V30 37099 O 3528.42 -1.40618 1.02821 0
M  V30 37100 C 3525.55 -2.68393 2.10185 0
M  V30 37101 H 3526.75 -1.02393 2.81879 0
M  V30 37102 H 3524.3 -0.498236 1.48146 0
M  V30 37103 H 3525.03 -3.01601 1.19194 0
M  V30 37104 H 3524.82 -2.61605 2.9207 0
M  V30 37105 H 3526.31 -3.43865 2.36953 0
M  V30 37106 N 3526.75 -1.48611 -0.524645 0
M  V30 37107 C 3527.99 -1.569 -1.28018 0
M  V30 37108 C 3528.32 -0.245237 -1.92948 0
M  V30 37109 O 3527.58 0.764935 -1.80131 0
M  V30 37110 C 3527.88 -2.65998 -2.38705 0
M  V30 37111 C 3527.54 -4.08264 -1.91393 0
M  V30 37112 C 3526.2 -4.46985 -1.78207 0
M  V30 37113 C 3528.56 -4.97399 -1.55704 0
M  V30 37114 C 3525.88 -5.72639 -1.27677 0
M  V30 37115 C 3528.24 -6.23548 -1.06634 0
M  V30 37116 C 3526.9 -6.6112 -0.920702 0
M  V30 37117 H 3526.17 -0.574138 -0.468451 0
M  V30 37118 H 3528.82 -1.8235 -0.584869 0
M  V30 37119 H 3527.12 -2.34428 -3.13928 0
M  V30 37120 H 3528.82 -2.69625 -2.96822 0
M  V30 37121 H 3525.41 -3.77688 -2.02607 0
M  V30 37122 H 3529.59 -4.68158 -1.64749 0
M  V30 37123 H 3524.85 -6.0047 -1.15092 0
M  V30 37124 H 3529.02 -6.92008 -0.780926 0
M  V30 37125 H 3526.65 -7.58371 -0.526958 0
M  V30 37126 N 3528.22 0.773926 -1.37289 0
M  V30 37127 C 3529.15 1.90111 -1.35573 0
M  V30 37128 C 3530.14 1.6861 -0.224688 0
M  V30 37129 O 3531.32 1.89499 -0.424709 0
M  V30 37130 C 3528.45 3.27363 -1.15977 0
M  V30 37131 C 3527.4 3.63424 -2.26069 0
M  V30 37132 C 3526.73 4.99193 -1.91599 0
M  V30 37133 C 3528.03 3.70399 -3.68242 0
M  V30 37134 H 3529.72 1.91804 -2.29894 0
M  V30 37135 H 3527.27 0.9214 -1.10663 0
M  V30 37136 H 3529.22 4.05853 -1.13407 0
M  V30 37137 H 3527.95 3.26098 -0.1811 0
M  V30 37138 H 3526.61 2.8724 -2.27791 0
M  V30 37139 H 3526.25 4.94465 -0.922673 0
M  V30 37140 H 3525.95 5.2429 -2.65319 0
M  V30 37141 H 3527.48 5.80086 -1.90612 0
M  V30 37142 H 3528.89 4.39045 -3.68662 0
M  V30 37143 H 3527.29 4.06991 -4.40997 0
M  V30 37144 H 3528.36 2.71115 -4.02026 0
M  V30 37145 N 3529.7 1.21823 0.99985 0
M  V30 37146 C 3530.93 1.0647 1.77403 0
M  V30 37147 C 3531.35 -0.385194 1.84829 0
M  V30 37148 O 3530.7 -1.26712 1.3134 0
M  V30 37149 C 3530.75 1.66142 3.21059 0
M  V30 37150 O 3530.47 3.05459 3.14048 0
M  V30 37151 C 3531.98 1.5597 4.14956 0
M  V30 37152 H 3529.2 0.373616 0.557361 0
M  V30 37153 H 3531.74 1.61269 1.25747 0
M  V30 37154 H 3529.89 1.15422 3.69806 0
M  V30 37155 H 3530.31 3.3408 4.0434 0
M  V30 37156 H 3531.78 2.02457 5.13532 0
M  V30 37157 H 3532.26 0.515026 4.3617 0
M  V30 37158 H 3532.87 2.05962 3.72102 0
M  V30 37159 N 3531.18 -1.1956 1.0268 0
M  V30 37160 C 3532.59 -1.70883 0.752057 0
M  V30 37161 C 3532.94 -1.82174 -0.728491 0
M  V30 37162 O 3532.07 -1.49143 -1.56797 0
M  V30 37163 C 3532.66 -3.1037 1.35854 0
M  V30 37164 C 3531.22 -3.58961 1.13243 0
M  V30 37165 C 3530.37 -2.35883 1.45789 0
M  V30 37166 H 3533.32 -1.0443 1.19499 0
M  V30 37167 H 3533.34 -3.72946 0.754413 0
M  V30 37168 H 3532.85 -3.02119 2.43609 0
M  V30 37169 H 3530.95 -3.72528 0.0729926 0
M  V30 37170 H 3531.07 -4.43198 1.81967 0
M  V30 37171 H 3529.43 -2.39119 0.877167 0
M  V30 37172 H 3530.21 -2.30265 2.54623 0
M  V30 37173 N 3532.66 -0.804387 -1.35526 0
M  V30 37174 C 3533.59 -0.227645 -2.32388 0
M  V30 37175 C 3534.57 0.645681 -1.57369 0
M  V30 37176 O 3535.75 0.576409 -1.85449 0
M  V30 37177 C 3532.88 0.62639 -3.41605 0
M  V30 37178 C 3531.84 -0.148262 -4.27743 0
M  V30 37179 C 3531.16 0.827332 -5.28261 0
M  V30 37180 C 3532.46 -1.346 -5.04658 0
M  V30 37181 H 3534.16 -1.03689 -2.80872 0
M  V30 37182 H 3531.7 -0.500054 -1.35039 0
M  V30 37183 H 3533.66 1.03992 -4.08367 0
M  V30 37184 H 3532.38 1.4685 -2.91724 0
M  V30 37185 H 3531.04 -0.542938 -3.62557 0
M  V30 37186 H 3530.69 1.66488 -4.74648 0
M  V30 37187 H 3530.39 0.31335 -5.86764 0
M  V30 37188 H 3531.91 1.23911 -5.97895 0
M  V30 37189 H 3533.33 -1.00746 -5.64378 0
M  V30 37190 H 3531.72 -1.79432 -5.72647 0
M  V30 37191 H 3532.79 -2.13377 -4.35429 0
M  V30 37192 N 3534.14 1.47403 -0.557697 0
M  V30 37193 C 3535.07 2.32821 0.177978 0
M  V30 37194 C 3536.05 1.43819 0.908293 0
M  V30 37195 O 3537.23 1.72674 0.888662 0
M  V30 37196 C 3534.36 3.25609 1.20815 0
M  V30 37197 C 3533.32 4.23854 0.594261 0
M  V30 37198 C 3532.64 5.05971 1.7291 0
M  V30 37199 C 3533.94 5.20338 -0.452288 0
M  V30 37200 H 3535.64 2.94579 -0.535143 0
M  V30 37201 H 3533.18 1.41655 -0.2588 0
M  V30 37202 H 3535.14 3.84207 1.73098 0
M  V30 37203 H 3533.86 2.61907 1.95122 0
M  V30 37204 H 3532.52 3.66483 0.0927254 0
M  V30 37205 H 3532.17 4.38672 2.46122 0
M  V30 37206 H 3531.87 5.72487 1.32412 0
M  V30 37207 H 3533.39 5.67428 2.25517 0
M  V30 37208 H 3534.81 5.73298 -0.0155018 0
M  V30 37209 H 3533.2 5.95059 -0.776173 0
M  V30 37210 H 3534.27 4.65787 -1.34799 0
M  V30 37211 N 3535.62 0.294175 1.5483 0
M  V30 37212 C 3537.03 -0.0594208 1.59489 0
M  V30 37213 C 3537.23 -1.52999 1.31124 0
M  V30 37214 O 3536.29 -2.28174 1.08133 0
M  V30 37215 C 3537.6 0.332376 2.98857 0
M  V30 37216 C 3539.15 0.280573 3.1174 0
M  V30 37217 C 3539.62 0.64709 4.53406 0
M  V30 37218 N 3541.11 0.599364 4.59306 0
M  V30 37219 C 3541.85 0.855519 5.66982 0
M  V30 37220 N 3541.35 1.17729 6.82724 0
M  V30 37221 N 3543.14 0.783038 5.56619 0
M  V30 37222 H 3535.29 1.25265 1.7153 0
M  V30 37223 H 3537.55 0.507382 0.800792 0
M  V30 37224 H 3537.26 1.35584 3.24515 0
M  V30 37225 H 3537.13 -0.317376 3.75862 0
M  V30 37226 H 3539.52 -0.733633 2.85835 0
M  V30 37227 H 3539.6 0.964852 2.36906 0
M  V30 37228 H 3539.24 1.65907 4.80039 0
M  V30 37229 H 3539.17 -0.059187 5.26567 0
M  V30 37230 H 3541.67 0.361325 3.76169 0
M  V30 37231 H 3541.98 1.3589 7.60759 0
M  V30 37232 H 3540.32 1.21525 6.84293 0
M  V30 37233 H 3543.51 0.531364 4.65074 0
M  V30 37234 H 3543.69 0.986041 6.40454 0
M  V30 37235 N 3537.09 -1.57585 0.0217743 0
M  V30 37236 C 3538.04 -2.1092 -0.980587 0
M  V30 37237 C 3539.04 -1.03408 -1.34176 0
M  V30 37238 O 3540.24 -1.21851 -1.32485 0
M  V30 37239 H 3536.62 -0.67377 -0.333973 0
M  V30 37240 H 3538.59 -2.94089 -0.505379 0
M  V30 37241 C 3537.34 -2.64546 -2.25635 0
M  V30 37242 H 3536.66 -3.46918 -1.98716 0
M  V30 37243 H 3538.1 -3.05518 -2.93997 0
M  V30 37244 C 3536.56 -1.5695 -2.98108 0
M  V30 37245 O 3537.09 -0.965044 -3.89936 0
M  V30 37246 N 3535.29 -1.29171 -2.60314 0
M  V30 37247 H 3534.84 -1.78511 -1.85719 0
M  V30 37248 H 3534.8 -0.574041 -3.09115 0
M  V30 37249 N 3538.57 0.251283 -1.55584 0
M  V30 37250 C 3539.82 0.977828 -1.76413 0
M  V30 37251 C 3540.13 1.8665 -0.58489 0
M  V30 37252 O 3541.34 2.62947 -0.676092 0
M  V30 37253 C 3539.8 1.78867 -3.12305 0
M  V30 37254 C 3539.4 0.947597 -4.37864 0
M  V30 37255 C 3541.15 2.50821 -3.42475 0
M  V30 37256 C 3539.05 1.75407 -5.64789 0
M  V30 37257 H 3537.98 0.368827 -0.657634 0
M  V30 37258 H 3540.64 0.23265 -1.82019 0
M  V30 37259 H 3539.02 2.57563 -3.00794 0
M  V30 37260 H 3540.19 0.203271 -4.60351 0
M  V30 37261 H 3538.51 0.341593 -4.14997 0
M  V30 37262 H 3541.1 3.11604 -4.34519 0
M  V30 37263 H 3541.45 3.22214 -2.63597 0
M  V30 37264 H 3541.98 1.79138 -3.55182 0
M  V30 37265 H 3538.72 1.08396 -6.46475 0
M  V30 37266 H 3538.24 2.47379 -5.4641 0
M  V30 37267 H 3539.92 2.32231 -6.03885 0
M  V30 37268 N 3540.05 1.48887 0.516757 0
M  V30 37269 C 3541.3 1.56827 1.26839 0
M  V30 37270 C 3541.61 0.253032 1.93956 0
M  V30 37271 O 3542.82 0.210813 2.7068 0
M  V30 37272 C 3541.27 2.76637 2.30218 0
M  V30 37273 C 3540.88 4.14856 1.6911 0
M  V30 37274 C 3542.63 2.93898 3.06307 0
M  V30 37275 C 3540.53 5.25909 2.70507 0
M  V30 37276 H 3539.46 0.583878 0.477077 0
M  V30 37277 H 3542.11 1.75246 0.544156 0
M  V30 37278 H 3540.5 2.51679 3.05734 0
M  V30 37279 H 3541.67 4.49887 0.996924 0
M  V30 37280 H 3539.98 4.02822 1.05466 0
M  V30 37281 H 3542.58 3.74033 3.82104 0
M  V30 37282 H 3542.92 2.03855 3.62972 0
M  V30 37283 H 3543.46 3.18819 2.37906 0
M  V30 37284 H 3540.2 6.1796 2.18644 0
M  V30 37285 H 3539.72 4.95351 3.38212 0
M  V30 37286 H 3541.4 5.54581 3.3324 0
M  V30 37287 N 3541.53 -0.766635 1.37697 0
M  V30 37288 C 3542.78 -1.52066 1.32509 0
M  V30 37289 C 3543.09 -1.95409 -0.0864624 0
M  V30 37290 O 3544.3 -2.70244 -0.260829 0
M  V30 37291 C 3542.75 -2.74621 2.32619 0
M  V30 37292 C 3542.36 -2.38356 3.79329 0
M  V30 37293 C 3544.1 -3.5255 2.36451 0
M  V30 37294 C 3542.01 -3.57443 4.71156 0
M  V30 37295 H 3540.94 -0.570928 0.492501 0
M  V30 37296 H 3543.59 -0.83924 1.63184 0
M  V30 37297 H 3541.97 -3.44678 1.94969 0
M  V30 37298 H 3543.15 -1.76049 4.25844 0
M  V30 37299 H 3541.46 -1.7359 3.78491 0
M  V30 37300 H 3544.06 -4.41071 3.02259 0
M  V30 37301 H 3544.4 -3.92776 1.3796 0
M  V30 37302 H 3544.94 -2.89493 2.72834 0
M  V30 37303 H 3541.67 -3.22294 5.70795 0
M  V30 37304 H 3541.19 -4.18838 4.29342 0
M  V30 37305 H 3542.87 -4.24192 4.88539 0
M  V30 37306 N 3543.01 -1.22351 -0.993375 0
M  V30 37307 C 3544.23 -1.07491 -1.77371 0
M  V30 37308 C 3544.66 0.370308 -1.84419 0
M  V30 37309 O 3544.01 1.2675 -1.29631 0
M  V30 37310 C 3544.06 -1.69019 -3.18535 0
M  V30 37311 O 3543.17 -0.943545 -4.01461 0
M  V30 37312 H 3542.51 -0.37757 -0.546202 0
M  V30 37313 H 3545.04 -1.62138 -1.24789 0
M  V30 37314 H 3545.05 -1.73724 -3.69167 0
M  V30 37315 H 3543.72 -2.74188 -3.1272 0
M  V30 37316 H 3542.3 -0.972478 -3.59996 0
M  V30 37317 N 3544.48 1.19014 -1.03313 0
M  V30 37318 C 3545.41 2.24606 -0.638319 0
M  V30 37319 C 3546.39 1.66359 0.354766 0
M  V30 37320 O 3547.58 1.92754 0.23654 0
M  V30 37321 C 3544.71 3.47299 0.00731211 0
M  V30 37322 C 3543.66 4.18247 -0.908504 0
M  V30 37323 C 3542.99 5.34547 -0.127752 0
M  V30 37324 C 3544.29 4.72575 -2.22418 0
M  V30 37325 H 3545.98 2.57885 -1.52104 0
M  V30 37326 H 3543.53 1.2396 -0.732801 0
M  V30 37327 H 3545.48 4.20365 0.295182 0
M  V30 37328 H 3544.21 3.13231 0.924857 0
M  V30 37329 H 3542.87 3.47068 -1.18064 0
M  V30 37330 H 3542.51 4.96726 0.791961 0
M  V30 37331 H 3542.21 5.8295 -0.737804 0
M  V30 37332 H 3543.74 6.10408 0.153278 0
M  V30 37333 H 3545.15 5.37374 -1.99754 0
M  V30 37334 H 3543.55 5.31481 -2.78653 0
M  V30 37335 H 3544.62 3.9041 -2.87591 0
M  V30 37336 N 3545.96 0.811563 1.35098 0
M  V30 37337 C 3546.92 0.230987 2.28033 0
M  V30 37338 C 3547.92 -0.584548 1.49799 0
M  V30 37339 O 3549.11 -0.402307 1.69491 0
M  V30 37340 C 3546.25 -0.677428 3.34101 0
M  V30 37341 H 3547.44 1.05072 2.80891 0
M  V30 37342 H 3544.99 0.582579 1.45037 0
M  V30 37343 H 3545.73 -1.52065 2.86438 0
M  V30 37344 H 3545.51 -0.0942874 3.91987 0
M  V30 37345 H 3547 -1.0778 4.03452 0
M  V30 37346 N 3547.44 -1.47105 0.565506 0
M  V30 37347 C 3548.86 -1.57993 0.225883 0
M  V30 37348 C 3549.06 -1.56301 -1.2717 0
M  V30 37349 O 3548.11 -1.47082 -2.05239 0
M  V30 37350 C 3549.42 -2.88143 0.859879 0
M  V30 37351 C 3550.97 -3.01743 0.831874 0
M  V30 37352 C 3551.45 -4.34604 1.44509 0
M  V30 37353 N 3552.94 -4.41261 1.40865 0
M  V30 37354 C 3553.67 -5.42645 1.85268 0
M  V30 37355 N 3553.17 -6.50796 2.37564 0
M  V30 37356 N 3554.96 -5.33741 1.76288 0
M  V30 37357 H 3547.11 -1.46448 1.5384 0
M  V30 37358 H 3549.38 -0.697501 0.642025 0
M  V30 37359 H 3549.08 -2.95143 1.91269 0
M  V30 37360 H 3548.96 -3.75499 0.357828 0
M  V30 37361 H 3551.34 -2.94336 -0.212267 0
M  V30 37362 H 3551.42 -2.15908 1.37177 0
M  V30 37363 H 3551.07 -4.42768 2.48834 0
M  V30 37364 H 3551 -5.19185 0.88057 0
M  V30 37365 H 3553.49 -3.637 1.0262 0
M  V30 37366 H 3553.8 -7.24342 2.69348 0
M  V30 37367 H 3552.15 -6.51663 2.4158 0
M  V30 37368 H 3555.34 -4.48149 1.35203 0
M  V30 37369 H 3555.51 -6.12613 2.1121 0
M  V30 37370 N 3548.92 -0.302382 -1.54672 0
M  V30 37371 C 3549.85 0.566225 -2.26531 0
M  V30 37372 C 3550.83 1.1368 -1.26534 0
M  V30 37373 O 3552.01 1.16588 -1.55309 0
M  V30 37374 C 3549.14 1.73752 -3.00712 0
M  V30 37375 C 3548.1 1.29724 -4.07867 0
M  V30 37376 C 3547.42 2.5538 -4.69771 0
M  V30 37377 C 3548.72 0.427475 -5.20548 0
M  V30 37378 H 3550.42 -0.0331236 -2.99382 0
M  V30 37379 H 3547.96 -0.0173711 -1.4399 0
M  V30 37380 H 3549.92 2.35128 -3.49704 0
M  V30 37381 H 3548.64 2.36313 -2.25442 0
M  V30 37382 H 3547.3 0.706523 -3.59727 0
M  V30 37383 H 3546.95 3.16258 -3.91139 0
M  V30 37384 H 3546.65 2.26621 -5.42141 0
M  V30 37385 H 3548.17 3.17557 -5.21527 0
M  V30 37386 H 3549.59 0.946954 -5.65425 0
M  V30 37387 H 3547.98 0.233599 -5.99645 0
M  V30 37388 H 3549.05 -0.547078 -4.81804 0
M  V30 37389 N 3550.4 1.57571 -0.0301311 0
M  V30 37390 C 3551.81 1.7964 0.508559 0
M  V30 37391 C 3552.16 0.940489 1.7219 0
M  V30 37392 O 3551.28 0.151175 2.15871 0
M  V30 37393 C 3551.88 3.25803 0.929388 0
M  V30 37394 C 3550.44 3.48864 1.41319 0
M  V30 37395 C 3549.58 2.74706 0.378384 0
M  V30 37396 H 3552.54 1.56619 -0.256159 0
M  V30 37397 H 3552.56 3.3557 1.79369 0
M  V30 37398 H 3552.07 3.88073 0.0461056 0
M  V30 37399 H 3550.17 2.91848 2.31636 0
M  V30 37400 H 3550.28 4.57577 1.41987 0
M  V30 37401 H 3548.65 2.40215 0.846702 0
M  V30 37402 H 3549.43 3.39691 -0.49645 0
M  V30 37403 N 3551.87 -0.243029 1.55715 0
M  V30 37404 C 3552.8 -1.30458 1.93657 0
M  V30 37405 C 3553.79 -1.50007 0.801994 0
M  V30 37406 O 3554.97 -1.6255 1.06259 0
M  V30 37407 C 3552.1 -2.65859 2.23464 0
M  V30 37408 C 3551.05 -2.61 3.3921 0
M  V30 37409 C 3550.38 -4.00232 3.54568 0
M  V30 37410 C 3551.68 -2.17648 4.74791 0
M  V30 37411 H 3553.37 -0.98949 2.82576 0
M  V30 37412 H 3550.92 -0.474548 1.35956 0
M  V30 37413 H 3552.87 -3.40261 2.48597 0
M  V30 37414 H 3551.6 -2.99012 1.31375 0
M  V30 37415 H 3550.26 -1.89055 3.14092 0
M  V30 37416 H 3549.9 -4.30657 2.59892 0
M  V30 37417 H 3549.6 -3.97868 4.32406 0
M  V30 37418 H 3551.13 -4.76328 3.82026 0
M  V30 37419 H 3552.54 -2.81783 4.99271 0
M  V30 37420 H 3550.94 -2.26387 5.5576 0
M  V30 37421 H 3552.01 -1.12822 4.71592 0
M  V30 37422 N 3553.35 -1.49159 -0.508854 0
M  V30 37423 C 3554.6 -1.58483 -1.26534 0
M  V30 37424 C 3554.93 -0.267202 -1.92353 0
M  V30 37425 O 3554.21 0.728607 -1.80337 0
M  V30 37426 C 3554.49 -2.73843 -2.33841 0
M  V30 37427 C 3554.34 -4.15377 -1.72575 0
M  V30 37428 C 3555.66 -2.84874 -3.35462 0
M  V30 37429 H 3552.78 -0.576867 -0.458687 0
M  V30 37430 H 3555.42 -1.81414 -0.564696 0
M  V30 37431 H 3553.57 -2.54422 -2.93601 0
M  V30 37432 H 3555.24 -4.46294 -1.16703 0
M  V30 37433 H 3553.49 -4.2139 -1.03017 0
M  V30 37434 H 3554.16 -4.91954 -2.50371 0
M  V30 37435 H 3556.63 -3.02529 -2.85684 0
M  V30 37436 H 3555.51 -3.67282 -4.07916 0
M  V30 37437 H 3555.77 -1.93901 -3.9731 0
M  V30 37438 N 3554.83 0.759322 -1.38102 0
M  V30 37439 C 3555.78 1.89432 -1.34976 0
M  V30 37440 C 3556.77 1.67741 -0.236529 0
M  V30 37441 O 3557.98 1.75379 -0.405249 0
M  V30 37442 H 3554.35 0.623153 -0.420933 0
M  V30 37443 H 3556.32 1.89185 -2.30763 0
M  V30 37444 C 3555.07 3.26848 -1.186 0
M  V30 37445 H 3554.4 3.44122 -2.0352 0
M  V30 37446 H 3555.84 4.06527 -1.20466 0
M  V30 37447 C 3554.3 3.36728 0.107503 0
M  V30 37448 O 3554.83 3.86724 1.08661 0
M  V30 37449 N 3553.03 2.90146 0.162404 0
M  V30 37450 H 3552.58 2.4965 -0.635029 0
M  V30 37451 H 3552.54 2.97137 1.02746 0
M  V30 37452 N 3556.31 1.22876 0.986873 0
M  V30 37453 C 3557.53 1.0843 1.76798 0
M  V30 37454 C 3557.96 -0.360522 1.84613 0
M  V30 37455 O 3557.32 -1.26061 1.30301 0
M  V30 37456 C 3557.36 1.70706 3.17635 0
M  V30 37457 O 3556.47 0.964822 4.00955 0
M  V30 37458 H 3555.81 0.380461 0.544192 0
M  V30 37459 H 3558.34 1.62798 1.23928 0
M  V30 37460 H 3558.35 1.75679 3.6824 0
M  V30 37461 H 3557.02 2.75842 3.11262 0
M  V30 37462 H 3555.6 0.991556 3.59475 0
M  V30 37463 N 3557.79 -1.18464 1.03942 0
M  V30 37464 C 3559.02 -1.92076 0.760942 0
M  V30 37465 C 3559.42 -1.76341 -0.685591 0
M  V30 37466 O 3558.77 -1.08966 -1.47892 0
M  V30 37467 C 3558.83 -3.4395 1.04589 0
M  V30 37468 C 3558.49 -3.83462 2.48608 0
M  V30 37469 C 3559.49 -3.87348 3.46782 0
M  V30 37470 C 3557.18 -4.14793 2.83287 0
M  V30 37471 C 3559.17 -4.22013 4.77685 0
M  V30 37472 C 3556.86 -4.4913 4.14397 0
M  V30 37473 C 3557.85 -4.52716 5.11407 0
M  V30 37474 O 3557.54 -4.86252 6.40167 0
M  V30 37475 H 3557.27 -0.616641 0.277002 0
M  V30 37476 H 3559.83 -1.51238 1.38983 0
M  V30 37477 H 3558.06 -3.85022 0.359875 0
M  V30 37478 H 3559.75 -3.98809 0.755406 0
M  V30 37479 H 3560.51 -3.6328 3.21329 0
M  V30 37480 H 3556.39 -4.1118 2.08451 0
M  V30 37481 H 3559.94 -4.24727 5.53401 0
M  V30 37482 H 3555.83 -4.72658 4.39619 0
M  V30 37483 H 3556.6 -5.0416 6.44799 0
M  V30 37484 N 3559.26 -0.818716 -1.34665 0
M  V30 37485 C 3560.49 -0.417643 -2.02641 0
M  V30 37486 C 3560.91 0.975132 -1.61668 0
M  V30 37487 O 3560.26 1.63036 -0.820085 0
M  V30 37488 C 3560.32 -0.505358 -3.5795 0
M  V30 37489 O 3560.04 -1.84324 -3.97437 0
M  V30 37490 C 3561.54 -0.0986446 -4.4319 0
M  V30 37491 H 3558.76 -0.168123 -0.649597 0
M  V30 37492 H 3561.3 -1.10571 -1.7203 0
M  V30 37493 H 3559.46 0.134578 -3.87166 0
M  V30 37494 H 3559.87 -1.81452 -4.92113 0
M  V30 37495 H 3561.34 -0.211112 -5.51596 0
M  V30 37496 H 3561.82 0.957375 -4.28639 0
M  V30 37497 H 3562.43 -0.712213 -4.19294 0
M  V30 37498 N 3560.74 1.46803 -0.573299 0
M  V30 37499 C 3562.16 1.57871 -0.234258 0
M  V30 37500 C 3562.36 1.56973 1.26339 0
M  V30 37501 O 3561.41 1.48168 2.04456 0
M  V30 37502 C 3562.73 2.87683 -0.875148 0
M  V30 37503 C 3564.28 3.01298 -0.847865 0
M  V30 37504 C 3564.75 4.33832 -1.46812 0
M  V30 37505 N 3566.24 4.40508 -1.43203 0
M  V30 37506 C 3566.98 5.41655 -1.88143 0
M  V30 37507 N 3566.47 6.49527 -2.41012 0
M  V30 37508 N 3568.27 5.32798 -1.79116 0
M  V30 37509 H 3560.42 1.4563 -1.54614 0
M  V30 37510 H 3562.68 0.694086 -0.645715 0
M  V30 37511 H 3562.39 2.94124 -1.92831 0
M  V30 37512 H 3562.26 3.75304 -0.377737 0
M  V30 37513 H 3564.65 2.94444 0.196655 0
M  V30 37514 H 3564.73 2.15177 -1.3832 0
M  V30 37515 H 3564.37 4.41443 -2.51179 0
M  V30 37516 H 3564.3 5.18711 -0.908091 0
M  V30 37517 H 3566.79 3.6315 -1.04548 0
M  V30 37518 H 3567.11 7.22904 -2.73185 0
M  V30 37519 H 3565.45 6.50372 -2.45033 0
M  V30 37520 H 3568.64 4.47426 -1.37577 0
M  V30 37521 H 3568.81 6.11484 -2.14456 0
M  V30 37522 N 3562.22 0.31058 1.54509 0
M  V30 37523 C 3563.47 -0.296308 2.00624 0
M  V30 37524 C 3563.8 -1.528 1.19858 0
M  V30 37525 O 3563.07 -1.9251 0.277502 0
M  V30 37526 C 3563.36 -0.643386 3.54306 0
M  V30 37527 C 3563.21 0.598107 4.45806 0
M  V30 37528 C 3564.53 -1.46615 4.1496 0
M  V30 37529 H 3561.65 -0.106223 0.729305 0
M  V30 37530 H 3564.29 0.424581 1.85195 0
M  V30 37531 H 3562.44 -1.25756 3.67584 0
M  V30 37532 H 3564.11 1.23651 4.44419 0
M  V30 37533 H 3562.36 1.22951 4.16011 0
M  V30 37534 H 3563.03 0.31098 5.51123 0
M  V30 37535 H 3565.5 -0.947128 4.05177 0
M  V30 37536 H 3564.38 -1.67778 5.2263 0
M  V30 37537 H 3564.64 -2.45832 3.67449 0
M  V30 37538 N 3563.7 -1.57553 0.0384871 0
M  V30 37539 C 3565.11 -1.79907 -0.499025 0
M  V30 37540 C 3565.46 -0.949607 -1.71688 0
M  V30 37541 O 3564.59 -0.162622 -2.15788 0
M  V30 37542 C 3565.18 -3.26292 -0.912097 0
M  V30 37543 C 3563.74 -3.49608 -1.39467 0
M  V30 37544 C 3562.89 -2.74903 -0.363811 0
M  V30 37545 H 3565.84 -1.56481 0.264461 0
M  V30 37546 H 3565.86 -3.36516 -1.77586 0
M  V30 37547 H 3565.37 -3.88092 -0.0255245 0
M  V30 37548 H 3563.47 -2.93073 -2.30085 0
M  V30 37549 H 3563.59 -4.58323 -1.39558 0
M  V30 37550 H 3561.95 -2.4066 -0.833951 0
M  V30 37551 H 3562.73 -3.39423 0.514457 0
M  V30 37552 N 3565.18 0.234767 -1.55842 0
M  V30 37553 C 3566.59 0.802857 -1.68556 0
M  V30 37554 C 3566.94 1.85532 -0.63814 0
M  V30 37555 O 3566.06 2.15346 0.213292 0
M  V30 37556 C 3566.66 1.46304 -3.05582 0
M  V30 37557 C 3565.22 1.97868 -3.20196 0
M  V30 37558 C 3564.37 0.83409 -2.64458 0
M  V30 37559 H 3567.32 0.010348 -1.58697 0
M  V30 37560 H 3567.34 2.33147 -3.00704 0
M  V30 37561 H 3566.85 0.696801 -3.81794 0
M  V30 37562 H 3564.95 2.77335 -2.4883 0
M  V30 37563 H 3565.06 2.16773 -4.27254 0
M  V30 37564 H 3563.43 1.23787 -2.22596 0
M  V30 37565 H 3564.21 0.0807385 -3.43205 0
M  V30 37566 N 3566.66 1.49427 0.500936 0
M  V30 37567 C 3567.59 1.69013 1.61111 0
M  V30 37568 C 3568.57 0.538842 1.6134 0
M  V30 37569 O 3569.75 0.774691 1.78079 0
M  V30 37570 C 3566.88 1.75671 2.99595 0
M  V30 37571 C 3565.84 2.90591 3.14231 0
M  V30 37572 C 3565.16 2.82362 4.54066 0
M  V30 37573 C 3566.46 4.31525 2.9425 0
M  V30 37574 H 3568.16 2.6196 1.44974 0
M  V30 37575 H 3565.7 1.26062 0.696007 0
M  V30 37576 H 3567.65 1.8796 3.77159 0
M  V30 37577 H 3566.38 0.793241 3.16821 0
M  V30 37578 H 3565.04 2.77905 2.39091 0
M  V30 37579 H 3564.69 1.83922 4.68168 0
M  V30 37580 H 3564.39 3.59493 4.648 0
M  V30 37581 H 3565.91 2.96658 5.33691 0
M  V30 37582 H 3567.32 4.44893 3.61584 0
M  V30 37583 H 3565.72 5.09878 3.16455 0
M  V30 37584 H 3566.79 4.45966 1.90375 0
M  V30 37585 N 3568.13 -0.751987 1.38502 0
M  V30 37586 C 3569.38 -1.51339 1.34997 0
M  V30 37587 C 3569.71 -1.94109 -0.0594383 0
M  V30 37588 O 3568.99 -1.6555 -1.02095 0
M  V30 37589 C 3569.27 -2.76487 2.3071 0
M  V30 37590 C 3569.12 -2.39844 3.80519 0
M  V30 37591 C 3570.44 -3.78517 2.24528 0
M  V30 37592 H 3567.56 -0.549003 0.491696 0
M  V30 37593 H 3570.2 -0.861175 1.69363 0
M  V30 37594 H 3568.35 -3.32139 2.01534 0
M  V30 37595 H 3570.03 -1.89955 4.20375 0
M  V30 37596 H 3568.27 -1.72283 3.98122 0
M  V30 37597 H 3568.94 -3.2939 4.42952 0
M  V30 37598 H 3571.42 -3.32408 2.50288 0
M  V30 37599 H 3570.29 -4.63774 2.93606 0
M  V30 37600 H 3570.55 -4.24218 1.24465 0
M  V30 37601 N 3569.61 -1.23398 -0.980343 0
M  V30 37602 C 3570.86 -1.07775 -1.725 0
M  V30 37603 C 3571.21 0.381401 -1.88582 0
M  V30 37604 O 3570.51 1.27851 -1.42704 0
M  V30 37605 C 3570.7 -1.73677 -3.12364 0
M  V30 37606 C 3570.53 -3.2585 -3.09923 0
M  V30 37607 C 3569.3 -3.95011 -3.1511 0
M  V30 37608 C 3571.5 -4.22617 -2.93086 0
M  V30 37609 N 3569.48 -5.34166 -3.02555 0
M  V30 37610 C 3570.85 -5.48686 -2.88693 0
M  V30 37611 C 3572.9 -4.13351 -2.77571 0
M  V30 37612 C 3571.61 -6.66551 -2.70374 0
M  V30 37613 C 3573.63 -5.3088 -2.60616 0
M  V30 37614 C 3573 -6.55874 -2.56922 0
M  V30 37615 H 3569.09 -0.448908 -0.640317 0
M  V30 37616 H 3571.68 -1.56127 -1.16329 0
M  V30 37617 H 3569.85 -1.27857 -3.66752 0
M  V30 37618 H 3571.58 -1.5103 -3.75462 0
M  V30 37619 H 3568.34 -3.46091 -3.23292 0
M  V30 37620 H 3568.76 -6.07122 -2.99552 0
M  V30 37621 H 3573.4 -3.17486 -2.79217 0
M  V30 37622 H 3571.12 -7.62551 -2.67472 0
M  V30 37623 H 3574.71 -5.25551 -2.49574 0
M  V30 37624 H 3573.59 -7.45285 -2.43966 0
M  V30 37625 N 3571.09 1.17911 -1.04569 0
M  V30 37626 C 3572.04 2.21716 -0.641158 0
M  V30 37627 C 3573.01 1.62294 0.353557 0
M  V30 37628 O 3574.19 1.89202 0.246394 0
M  V30 37629 C 3571.33 3.45097 -0.0155333 0
M  V30 37630 C 3570.44 4.18836 -1.05832 0
M  V30 37631 C 3569.58 5.29687 -0.400681 0
M  V30 37632 C 3568.62 5.95205 -1.42821 0
M  V30 37633 N 3567.76 6.97582 -0.795181 0
M  V30 37634 H 3572.6 2.55674 -1.53085 0
M  V30 37635 H 3570.13 1.25598 -0.765737 0
M  V30 37636 H 3572.09 4.15604 0.36458 0
M  V30 37637 H 3570.72 3.11742 0.837649 0
M  V30 37638 H 3569.77 3.47106 -1.55633 0
M  V30 37639 H 3571.08 4.63679 -1.83857 0
M  V30 37640 H 3570.24 6.06691 0.0333616 0
M  V30 37641 H 3568.98 4.8596 0.411611 0
M  V30 37642 H 3567.98 5.16937 -1.87234 0
M  V30 37643 H 3569.21 6.41013 -2.2423 0
M  V30 37644 H 3567.15 6.56 -0.00328733 0
M  V30 37645 H 3567.07 7.40704 -1.51306 0
M  V30 37646 H 3568.34 7.78545 -0.385704 0
M  V30 37647 N 3572.57 0.825847 1.34229 0
M  V30 37648 C 3573.5 0.264587 2.31996 0
M  V30 37649 C 3574.48 -0.620564 1.58376 0
M  V30 37650 O 3575.66 -0.546832 1.86342 0
M  V30 37651 C 3572.79 -0.571964 3.42558 0
M  V30 37652 C 3571.75 0.216294 4.27453 0
M  V30 37653 C 3571.07 -0.743185 5.2951 0
M  V30 37654 C 3572.37 1.42612 5.02453 0
M  V30 37655 H 3574.07 1.08144 2.79187 0
M  V30 37656 H 3571.61 0.521475 1.34226 0
M  V30 37657 H 3573.57 -0.974816 4.0997 0
M  V30 37658 H 3572.29 -1.4219 2.94023 0
M  V30 37659 H 3570.95 0.600549 3.61648 0
M  V30 37660 H 3570.6 -1.58916 4.77237 0
M  V30 37661 H 3570.3 -0.219961 5.87188 0
M  V30 37662 H 3571.82 -1.14383 5.99791 0
M  V30 37663 H 3573.24 1.09712 5.62704 0
M  V30 37664 H 3571.63 1.88519 5.6972 0
M  V30 37665 H 3572.7 2.20278 4.31979 0
M  V30 37666 N 3574.05 -1.46497 0.581077 0
M  V30 37667 C 3575.29 -2.01993 0.0659007 0
M  V30 37668 C 3575.61 -1.45519 -1.29805 0
M  V30 37669 O 3574.88 -0.639265 -1.85176 0
M  V30 37670 H 3573.46 -0.746694 0.0213716 0
M  V30 37671 H 3576.13 -1.7962 0.756487 0
M  V30 37672 H 3575.22 -3.121 -0.00432642 0
M  V30 37673 N 3575.52 -0.31877 -1.54343 0
M  V30 37674 C 3576.77 0.278452 -2.01485 0
M  V30 37675 C 3577.12 1.50152 -1.203 0
M  V30 37676 O 3576.42 1.89604 -0.275836 0
M  V30 37677 C 3576.61 0.669119 -3.51081 0
M  V30 37678 C 3576.44 -0.514542 -4.46747 0
M  V30 37679 C 3575.21 -1.01215 -4.95059 0
M  V30 37680 C 3577.41 -1.36521 -4.95849 0
M  V30 37681 N 3575.39 -2.16072 -5.74618 0
M  V30 37682 C 3576.76 -2.36101 -5.73286 0
M  V30 37683 C 3578.82 -1.39353 -4.78001 0
M  V30 37684 C 3577.52 -3.38312 -6.34774 0
M  V30 37685 C 3579.55 -2.40431 -5.40321 0
M  V30 37686 C 3578.91 -3.38739 -6.17604 0
M  V30 37687 H 3575.01 0.0658678 -0.779221 0
M  V30 37688 H 3577.59 -0.452721 -1.89363 0
M  V30 37689 H 3575.76 1.36943 -3.63457 0
M  V30 37690 H 3577.49 1.2474 -3.84996 0
M  V30 37691 H 3574.25 -0.58421 -4.69983 0
M  V30 37692 H 3574.67 -2.73994 -6.19077 0
M  V30 37693 H 3579.31 -0.647163 -4.17818 0
M  V30 37694 H 3577.03 -4.13857 -6.94081 0
M  V30 37695 H 3580.62 -2.43418 -5.2843 0
M  V30 37696 H 3579.5 -4.15672 -6.64971 0
M  V30 37697 N 3577 1.5753 -0.0468419 0
M  V30 37698 C 3578.23 1.97242 0.641127 0
M  V30 37699 C 3578.65 0.924039 1.63839 0
M  V30 37700 O 3578.01 -0.113198 1.80946 0
M  V30 37701 C 3578.06 3.36031 1.30827 0
M  V30 37702 O 3577.16 3.3365 2.42388 0
M  V30 37703 H 3576.5 0.64265 0.167024 0
M  V30 37704 H 3579.03 2.04282 -0.113957 0
M  V30 37705 H 3579.04 3.72661 1.66096 0
M  V30 37706 H 3577.72 4.11873 0.577368 0
M  V30 37707 H 3576.29 3.08759 2.09098 0
M  V30 37708 N 3578.48 -0.226499 1.55964 0
M  V30 37709 C 3579.89 -0.793907 1.68979 0
M  V30 37710 C 3580.24 -1.85191 0.64797 0
M  V30 37711 O 3579.37 -2.15456 -0.201869 0
M  V30 37712 C 3579.96 -1.44681 3.06354 0
M  V30 37713 C 3578.52 -1.96167 3.2124 0
M  V30 37714 C 3577.67 -0.820053 2.64897 0
M  V30 37715 H 3580.62 -0.00193177 1.587 0
M  V30 37716 H 3580.64 -2.31549 3.01936 0
M  V30 37717 H 3580.15 -0.676544 3.82158 0
M  V30 37718 H 3578.25 -2.76011 2.50297 0
M  V30 37719 H 3578.37 -2.14504 4.28398 0
M  V30 37720 H 3576.73 -1.22605 2.23249 0
M  V30 37721 H 3577.51 -0.0625364 3.43243 0
M  V30 37722 N 3579.96 -1.4969 -0.493005 0
M  V30 37723 C 3580.91 -1.66948 -1.59364 0
M  V30 37724 C 3581.88 -0.510869 -1.58049 0
M  V30 37725 O 3583.06 -0.738853 -1.75914 0
M  V30 37726 C 3580.2 -1.74946 -2.97469 0
M  V30 37727 C 3579.31 -3.02165 -3.0874 0
M  V30 37728 C 3578.45 -3.01092 -4.37626 0
M  V30 37729 C 3577.49 -4.22857 -4.42559 0
M  V30 37730 N 3576.62 -4.19649 -5.62885 0
M  V30 37731 H 3581.46 -2.60923 -1.43956 0
M  V30 37732 H 3579 -1.29362 -0.700274 0
M  V30 37733 H 3580.96 -1.77564 -3.77527 0
M  V30 37734 H 3579.59 -0.844307 -3.11563 0
M  V30 37735 H 3578.64 -3.09121 -2.21694 0
M  V30 37736 H 3579.95 -3.92157 -3.08245 0
M  V30 37737 H 3579.11 -3.02318 -5.26012 0
M  V30 37738 H 3577.85 -2.08893 -4.40698 0
M  V30 37739 H 3576.85 -4.21867 -3.52574 0
M  V30 37740 H 3578.08 -5.16258 -4.41196 0
M  V30 37741 H 3576.02 -3.30291 -5.66784 0
M  V30 37742 H 3575.94 -5.03384 -5.64039 0
M  V30 37743 H 3577.21 -4.24988 -6.53456 0
M  V30 37744 N 3581.44 0.744631 -1.38899 0
M  V30 37745 C 3582.85 1.32242 -1.31791 0
M  V30 37746 C 3583.2 1.96187 0.0221863 0
M  V30 37747 O 3582.32 1.95668 0.924294 0
M  V30 37748 C 3582.92 2.40454 -2.38678 0
M  V30 37749 C 3581.48 2.93931 -2.35121 0
M  V30 37750 C 3580.62 1.67399 -2.21072 0
M  V30 37751 H 3583.58 0.542844 -1.49127 0
M  V30 37752 H 3583.6 3.20612 -2.04911 0
M  V30 37753 H 3583.11 1.93884 -3.362 0
M  V30 37754 H 3581.21 3.44806 -1.41207 0
M  V30 37755 H 3581.32 3.477 -3.29608 0
M  V30 37756 H 3579.69 1.91369 -1.68078 0
M  V30 37757 H 3580.47 1.22895 -3.20549 0
M  V30 37758 N 3582.91 1.23916 0.973785 0
M  V30 37759 C 3584.16 1.0731 1.71257 0
M  V30 37760 C 3584.48 -0.389798 1.91064 0
M  V30 37761 O 3583.75 -1.2788 1.48403 0
M  V30 37762 H 3582.33 0.394101 0.634581 0
M  V30 37763 H 3585 1.55739 1.17181 0
M  V30 37764 H 3584.09 1.56631 2.69951 0
M  V30 37765 N 3584.39 -1.17355 1.05193 0
M  V30 37766 C 3585.64 -1.87245 0.760511 0
M  V30 37767 C 3585.96 -1.81435 -0.714586 0
M  V30 37768 O 3585.23 -1.24032 -1.51634 0
M  V30 37769 H 3583.81 -0.693211 0.278329 0
M  V30 37770 H 3586.47 -1.42366 1.33108 0
M  V30 37771 H 3585.57 -2.92985 1.07547 0
M  V30 37772 N 3585.87 -0.832954 -1.3379 0
M  V30 37773 C 3587.15 -0.347989 -1.9248 0
M  V30 37774 C 3587.53 1.16594 -1.7598 0
M  V30 37775 O 3586.88 1.97766 -1.14459 0
M  V30 37776 C 3587.09 -0.78837 -3.39979 0
M  V30 37777 C 3588.43 -0.792973 -4.1713 0
M  V30 37778 O 3589.46 -0.731594 -3.48606 0
M  V30 37779 O 3588.32 -0.875317 -5.39445 0
M  V30 37780 H 3585.41 -0.0972453 -0.821263 0
M  V30 37781 H 3587.96 -0.918412 -1.427 0
M  V30 37782 H 3586.73 -1.83071 -3.45833 0
M  V30 37783 H 3586.35 -0.194193 -3.97125 0
M  V30 37784 N 3587.35 1.46186 -0.588837 0
M  V30 37785 C 3588.6 2.02354 -0.0767636 0
M  V30 37786 C 3588.92 1.45959 1.28555 0
M  V30 37787 O 3588.18 0.616932 1.85721 0
M  V30 37788 C 3588.48 3.57385 0.0324621 0
M  V30 37789 C 3588.14 4.32848 -1.26305 0
M  V30 37790 C 3586.81 4.53184 -1.61797 0
M  V30 37791 C 3589.16 4.76132 -2.12009 0
M  V30 37792 C 3586.49 5.14055 -2.8278 0
M  V30 37793 C 3588.84 5.3834 -3.32224 0
M  V30 37794 C 3587.5 5.56902 -3.6799 0
M  V30 37795 H 3586.77 0.740467 -0.0280898 0
M  V30 37796 H 3589.42 1.75482 -0.766702 0
M  V30 37797 H 3587.72 3.83429 0.805565 0
M  V30 37798 H 3589.42 3.98528 0.444527 0
M  V30 37799 H 3586.01 4.17322 -0.976765 0
M  V30 37800 H 3590.19 4.60172 -1.85892 0
M  V30 37801 H 3585.45 5.26616 -3.10621 0
M  V30 37802 H 3589.62 5.70836 -3.98898 0
M  V30 37803 H 3587.25 6.03838 -4.61826 0
M  V30 37804 N 3588.83 0.32695 1.54171 0
M  V30 37805 C 3590.07 -0.274063 2.00233 0
M  V30 37806 C 3590.4 -1.52388 1.21668 0
M  V30 37807 O 3589.67 -1.93279 0.319393 0
M  V30 37808 H 3588.25 -0.104258 0.739689 0
M  V30 37809 H 3590.91 0.444278 1.89769 0
M  V30 37810 H 3590 -0.5281 3.076 0
M  V30 37811 N 3590.3 -1.57503 0.0551955 0
M  V30 37812 C 3591.53 -1.97166 -0.627166 0
M  V30 37813 C 3591.95 -0.932905 -1.64141 0
M  V30 37814 O 3591.3 0.0824145 -1.82314 0
M  V30 37815 C 3591.36 -3.36909 -1.31051 0
M  V30 37816 O 3591.08 -4.36803 -0.336874 0
M  V30 37817 C 3592.58 -3.91353 -2.08226 0
M  V30 37818 H 3589.8 -0.648796 -0.171185 0
M  V30 37819 H 3592.34 -2.04132 0.122687 0
M  V30 37820 H 3590.5 -3.31081 -2.01157 0
M  V30 37821 H 3590.91 -5.17969 -0.825113 0
M  V30 37822 H 3592.38 -4.91401 -2.51454 0
M  V30 37823 H 3592.86 -3.26996 -2.93207 0
M  V30 37824 H 3593.47 -4.00531 -1.43022 0
M  V30 37825 N 3591.78 0.218225 -1.56082 0
M  V30 37826 C 3592.75 1.25399 -1.91854 0
M  V30 37827 C 3593.75 1.39635 -0.797423 0
M  V30 37828 O 3594.94 1.37843 -1.06513 0
M  V30 37829 C 3592.07 2.62726 -2.17227 0
M  V30 37830 H 3593.26 0.948832 -2.84495 0
M  V30 37831 H 3590.81 0.458782 -1.49415 0
M  V30 37832 H 3591.55 2.98335 -1.27149 0
M  V30 37833 H 3591.33 2.5377 -2.98904 0
M  V30 37834 H 3592.82 3.37461 -2.45987 0
M  V30 37835 N 3593.26 1.4995 0.485059 0
M  V30 37836 C 3594.51 1.60239 1.23813 0
M  V30 37837 C 3594.84 0.296307 1.9223 0
M  V30 37838 O 3594.09 -0.716907 1.82096 0
M  V30 37839 C 3594.39 2.72233 2.31569 0
M  V30 37840 C 3594.06 4.13195 1.80501 0
M  V30 37841 C 3592.72 4.51553 1.66293 0
M  V30 37842 C 3595.07 5.01352 1.42462 0
M  V30 37843 C 3592.4 5.75823 1.12449 0
M  V30 37844 C 3594.75 6.26156 0.900647 0
M  V30 37845 C 3593.41 6.63328 0.745094 0
M  V30 37846 H 3592.68 0.586356 0.453064 0
M  V30 37847 H 3595.33 1.83837 0.536317 0
M  V30 37848 H 3593.64 2.42669 3.07602 0
M  V30 37849 H 3595.33 2.774 2.89569 0
M  V30 37850 H 3591.92 3.82927 1.92523 0
M  V30 37851 H 3596.11 4.72361 1.52278 0
M  V30 37852 H 3591.36 6.0331 0.991316 0
M  V30 37853 H 3595.54 6.93835 0.597178 0
M  V30 37854 H 3593.16 7.59502 0.325704 0
M  V30 37855 N 3594.74 -0.737255 1.39292 0
M  V30 37856 C 3596.15 -1.31541 1.32491 0
M  V30 37857 C 3596.5 -1.96196 -0.0117817 0
M  V30 37858 O 3595.63 -1.96155 -0.913904 0
M  V30 37859 C 3596.22 -2.39185 2.3995 0
M  V30 37860 C 3594.78 -2.9268 2.36676 0
M  V30 37861 C 3593.93 -1.66225 2.21956 0
M  V30 37862 H 3596.88 -0.534928 1.49413 0
M  V30 37863 H 3596.9 -3.1952 2.06608 0
M  V30 37864 H 3596.41 -1.92098 3.37224 0
M  V30 37865 H 3594.51 -3.44052 1.43034 0
M  V30 37866 H 3594.63 -3.45948 3.31447 0
M  V30 37867 H 3592.99 -1.90475 1.6909 0
M  V30 37868 H 3593.77 -1.21193 3.21196 0
M  V30 37869 N 3596.22 -1.24431 -0.967199 0
M  V30 37870 C 3597.13 -1.0542 -2.0958 0
M  V30 37871 C 3598.14 0.00513068 -1.73999 0
M  V30 37872 O 3599.32 -0.19315 -2.00472 0
M  V30 37873 C 3596.38 -0.661756 -3.40326 0
M  V30 37874 C 3595.45 -1.79763 -3.89851 0
M  V30 37875 C 3594.68 -1.42381 -5.14357 0
M  V30 37876 O 3594.9 -0.313854 -5.69536 0
M  V30 37877 O 3593.84 -2.24962 -5.58279 0
M  V30 37878 H 3597.66 -2.00038 -2.28513 0
M  V30 37879 H 3595.25 -1.03255 -1.07976 0
M  V30 37880 H 3597.13 -0.454443 -4.18942 0
M  V30 37881 H 3595.8 0.255291 -3.22692 0
M  V30 37882 H 3594.71 -2.0597 -3.12294 0
M  V30 37883 H 3596.04 -2.69347 -4.11963 0
M  V30 37884 N 3597.7 1.16795 -1.05814 0
M  V30 37885 C 3598.94 1.86546 -0.767041 0
M  V30 37886 C 3599.26 1.823 0.708947 0
M  V30 37887 O 3600.46 2.47582 1.11424 0
M  V30 37888 C 3598.92 3.34743 -1.32192 0
M  V30 37889 C 3598.53 3.47475 -2.8278 0
M  V30 37890 C 3600.27 4.09781 -1.10815 0
M  V30 37891 C 3598.18 4.89731 -3.31538 0
M  V30 37892 H 3597.11 0.698776 -0.283247 0
M  V30 37893 H 3599.76 1.31851 -1.27623 0
M  V30 37894 H 3598.14 3.89015 -0.740521 0
M  V30 37895 H 3599.32 3.0339 -3.4683 0
M  V30 37896 H 3597.63 2.85866 -3.0277 0
M  V30 37897 H 3600.23 5.14738 -1.44737 0
M  V30 37898 H 3600.57 4.16274 -0.0462402 0
M  V30 37899 H 3601.1 3.61734 -1.65508 0
M  V30 37900 H 3597.84 4.88415 -4.37186 0
M  V30 37901 H 3597.36 5.34461 -2.72233 0
M  V30 37902 H 3599.04 5.58528 -3.26582 0
M  V30 37903 N 3599.17 0.840037 1.33346 0
M  V30 37904 C 3600.58 0.492883 1.80077 0
M  V30 37905 C 3600.94 -0.988191 1.69497 0
M  V30 37906 O 3600.06 -1.77004 1.24493 0
M  V30 37907 C 3600.66 0.887885 3.26959 0
M  V30 37908 C 3599.21 0.59285 3.71702 0
M  V30 37909 C 3598.36 1.09558 2.5474 0
M  V30 37910 H 3601.31 1.02863 1.20851 0
M  V30 37911 H 3601.33 0.198394 3.79982 0
M  V30 37912 H 3600.85 1.96587 3.34627 0
M  V30 37913 H 3598.95 -0.475021 3.6956 0
M  V30 37914 H 3599.06 1.1489 4.6512 0
M  V30 37915 H 3597.42 0.516401 2.4941 0
M  V30 37916 H 3598.21 2.18037 2.6517 0
M  V30 37917 N 3600.65 -1.45872 0.596582 0
M  V30 37918 C 3601.9 -2.02611 0.0876235 0
M  V30 37919 C 3602.23 -1.4654 -1.27435 0
M  V30 37920 O 3601.51 -0.635812 -1.83814 0
M  V30 37921 C 3601.79 -3.60081 0.0368027 0
M  V30 37922 C 3601.64 -4.26508 1.42866 0
M  V30 37923 C 3602.96 -4.35173 -0.656719 0
M  V30 37924 H 3600.08 -0.736247 0.033316 0
M  V30 37925 H 3602.72 -1.73855 0.766444 0
M  V30 37926 H 3600.87 -3.84711 -0.541277 0
M  V30 37927 H 3602.54 -4.13099 2.05298 0
M  V30 37928 H 3600.79 -3.85334 1.99249 0
M  V30 37929 H 3601.46 -5.35352 1.34544 0
M  V30 37930 H 3603.93 -4.15771 -0.16548 0
M  V30 37931 H 3602.81 -5.44901 -0.661349 0
M  V30 37932 H 3603.07 -4.07239 -1.72072 0
M  V30 37933 N 3602.13 -0.335122 -1.53996 0
M  V30 37934 C 3603.04 0.534203 -2.28437 0
M  V30 37935 C 3604.06 1.11924 -1.33226 0
M  V30 37936 O 3605.23 1.13673 -1.66254 0
M  V30 37937 C 3602.3 1.67349 -3.03637 0
M  V30 37938 C 3601.36 1.11909 -4.14457 0
M  V30 37939 C 3600.59 2.20407 -4.86062 0
M  V30 37940 O 3600.81 3.40971 -4.57269 0
M  V30 37941 O 3599.75 1.85175 -5.72707 0
M  V30 37942 H 3603.57 -0.0706848 -3.03618 0
M  V30 37943 H 3601.16 -0.100435 -1.49062 0
M  V30 37944 H 3603.04 2.33653 -3.50691 0
M  V30 37945 H 3601.72 2.26434 -2.31321 0
M  V30 37946 H 3600.62 0.420806 -3.71726 0
M  V30 37947 H 3601.96 0.573209 -4.88851 0
M  V30 37948 N 3603.61 1.57472 -0.0635475 0
M  V30 37949 C 3604.85 1.93174 0.607451 0
M  V30 37950 C 3605.18 0.942927 1.70115 0
M  V30 37951 O 3604.44 -0.0427976 1.95653 0
M  V30 37952 C 3604.74 3.35527 1.23111 0
M  V30 37953 C 3604.4 4.50124 0.264378 0
M  V30 37954 C 3603.06 4.812 -0.00160221 0
M  V30 37955 C 3605.42 5.19682 -0.397461 0
M  V30 37956 C 3602.74 5.79175 -0.936648 0
M  V30 37957 C 3605.1 6.18658 -1.32078 0
M  V30 37958 C 3603.76 6.48156 -1.59531 0
M  V30 37959 H 3603.03 0.706875 0.222282 0
M  V30 37960 H 3605.68 1.9104 -0.132666 0
M  V30 37961 H 3603.98 3.34087 2.04678 0
M  V30 37962 H 3605.68 3.60437 1.75744 0
M  V30 37963 H 3602.27 4.25883 0.48187 0
M  V30 37964 H 3606.45 4.95876 -0.205077 0
M  V30 37965 H 3601.71 6.00359 -1.15668 0
M  V30 37966 H 3605.88 6.71663 -1.83961 0
M  V30 37967 H 3603.51 7.23887 -2.32147 0
M  V30 37968 N 3605.09 -0.209945 1.56195 0
M  V30 37969 C 3606.02 -1.26321 1.96381 0
M  V30 37970 C 3607 -1.48272 0.833632 0
M  V30 37971 O 3608.18 -1.6026 1.09683 0
M  V30 37972 C 3605.31 -2.6106 2.29053 0
M  V30 37973 C 3604.27 -2.53746 3.44669 0
M  V30 37974 C 3603.59 -3.92621 3.62977 0
M  V30 37975 C 3604.89 -2.07528 4.79301 0
M  V30 37976 H 3606.59 -0.929329 2.84612 0
M  V30 37977 H 3604.13 -0.445603 1.36932 0
M  V30 37978 H 3606.08 -3.34912 2.55758 0
M  V30 37979 H 3604.81 -2.96158 1.37688 0
M  V30 37980 H 3603.47 -1.82351 3.18031 0
M  V30 37981 H 3603.12 -4.25047 2.68968 0
M  V30 37982 H 3602.82 -3.88606 4.40748 0
M  V30 37983 H 3604.34 -4.68118 3.92043 0
M  V30 37984 H 3605.75 -2.7113 5.05135 0
M  V30 37985 H 3604.15 -2.14548 5.60437 0
M  V30 37986 H 3605.22 -1.02794 4.73879 0
M  V30 37987 N 3606.56 -1.50205 -0.4771 0
M  V30 37988 C 3607.5 -1.64776 -1.59316 0
M  V30 37989 C 3608.51 -0.529454 -1.5395 0
M  V30 37990 O 3609.7 -0.802416 -1.59448 0
M  V30 37991 C 3606.8 -1.6106 -2.98182 0
M  V30 37992 C 3605.97 -2.88823 -3.28481 0
M  V30 37993 C 3605.03 -2.77833 -4.46873 0
M  V30 37994 O 3604.06 -3.51786 -4.47476 0
M  V30 37995 N 3605.26 -1.90983 -5.48184 0
M  V30 37996 H 3608.02 -2.6104 -1.47235 0
M  V30 37997 H 3605.58 -1.47594 -0.665414 0
M  V30 37998 H 3607.58 -1.51329 -3.75342 0
M  V30 37999 H 3606.15 -0.725562 -3.04063 0
M  V30 38000 H 3605.37 -3.12726 -2.39991 0
M  V30 38001 H 3606.65 -3.73476 -3.45533 0
M  V30 38002 H 3606.05 -1.30201 -5.50513 0
M  V30 38003 H 3604.61 -1.87159 -6.24351 0
M  V30 38004 N 3608.04 0.729857 -1.39681 0
M  V30 38005 C 3608.95 1.87427 -1.41097 0
M  V30 38006 C 3609.97 1.71303 -0.305172 0
M  V30 38007 O 3611.14 1.93816 -0.547474 0
M  V30 38008 C 3608.21 3.23075 -1.25792 0
M  V30 38009 C 3607.27 3.51555 -2.46389 0
M  V30 38010 C 3606.5 4.80731 -2.31804 0
M  V30 38011 O 3606.73 5.54815 -1.32424 0
M  V30 38012 O 3605.66 5.09227 -3.20892 0
M  V30 38013 H 3609.49 1.89188 -2.37575 0
M  V30 38014 H 3607.07 0.878368 -1.20851 0
M  V30 38015 H 3608.95 4.04128 -1.19409 0
M  V30 38016 H 3607.63 3.22073 -0.324121 0
M  V30 38017 H 3606.54 2.70568 -2.58348 0
M  V30 38018 H 3607.87 3.57341 -3.3848 0
M  V30 38019 N 3609.52 1.24942 0.960587 0
M  V30 38020 C 3610.47 1.04805 2.05632 0
M  V30 38021 C 3611.44 -0.0409319 1.6605 0
M  V30 38022 O 3612.62 0.115087 1.90453 0
M  V30 38023 C 3609.76 0.666503 3.38603 0
M  V30 38024 C 3608.88 1.82971 3.91338 0
M  V30 38025 C 3608.01 1.39308 5.12608 0
M  V30 38026 C 3607.05 2.52579 5.57557 0
M  V30 38027 N 3606.19 2.09734 6.70042 0
M  V30 38028 H 3611.03 1.98584 2.2219 0
M  V30 38029 H 3608.56 0.989 1.08891 0
M  V30 38030 H 3610.52 0.426278 4.15017 0
M  V30 38031 H 3609.15 -0.234293 3.21949 0
M  V30 38032 H 3608.2 2.18341 3.11499 0
M  V30 38033 H 3609.52 2.68057 4.20651 0
M  V30 38034 H 3608.67 1.11215 5.96419 0
M  V30 38035 H 3607.41 0.512864 4.84996 0
M  V30 38036 H 3606.41 2.81423 4.72314 0
M  V30 38037 H 3607.64 3.41169 5.8718 0
M  V30 38038 H 3605.58 1.2412 6.44151 0
M  V30 38039 H 3605.5 2.88369 6.98841 0
M  V30 38040 H 3606.77 1.848 7.57277 0
M  V30 38041 N 3611 -1.16233 1.06432 0
M  V30 38042 C 3611.91 -2.24301 0.687485 0
M  V30 38043 C 3612.92 -1.71445 -0.297102 0
M  V30 38044 O 3614.1 -2.0087 -0.146066 0
M  V30 38045 C 3611.17 -3.46605 0.0811582 0
M  V30 38046 C 3610.23 -4.14492 1.11779 0
M  V30 38047 C 3609.46 -5.30958 0.540303 0
M  V30 38048 O 3609.68 -5.66724 -0.64652 0
M  V30 38049 O 3608.62 -5.88118 1.28067 0
M  V30 38050 H 3612.44 -2.58846 1.58846 0
M  V30 38051 H 3610.03 -1.23775 0.836671 0
M  V30 38052 H 3611.91 -4.20627 -0.255166 0
M  V30 38053 H 3610.58 -3.13829 -0.793283 0
M  V30 38054 H 3609.49 -3.42434 1.50632 0
M  V30 38055 H 3610.82 -4.51326 1.96381 0
M  V30 38056 N 3612.48 -0.847097 -1.32899 0
M  V30 38057 C 3613.72 -0.447451 -1.97802 0
M  V30 38058 C 3614.06 0.992671 -1.66912 0
M  V30 38059 O 3613.33 1.69533 -0.953345 0
M  V30 38060 C 3613.61 -0.678197 -3.53656 0
M  V30 38061 C 3613.47 -2.16619 -3.94203 0
M  V30 38062 C 3614.79 -0.129667 -4.39909 0
M  V30 38063 H 3611.9 -0.164047 -0.718511 0
M  V30 38064 H 3614.55 -1.06413 -1.57405 0
M  V30 38065 H 3612.7 -0.15329 -3.88197 0
M  V30 38066 H 3614.37 -2.75659 -3.69878 0
M  V30 38067 H 3612.61 -2.64758 -3.43636 0
M  V30 38068 H 3613.28 -2.27836 -5.02787 0
M  V30 38069 H 3615.76 -0.578444 -4.1206 0
M  V30 38070 H 3614.63 -0.320744 -5.47962 0
M  V30 38071 H 3614.9 0.967092 -4.31393 0
M  V30 38072 N 3613.95 1.45554 -0.604309 0
M  V30 38073 C 3615.2 2.02262 -0.0982217 0
M  V30 38074 C 3615.53 1.47314 1.26999 0
M  V30 38075 O 3614.78 0.636595 1.85057 0
M  V30 38076 C 3615.08 3.574 -0.00544525 0
M  V30 38077 C 3614.75 4.31484 -1.30889 0
M  V30 38078 C 3613.41 4.51442 -1.66594 0
M  V30 38079 C 3615.76 4.73856 -2.17047 0
M  V30 38080 C 3613.09 5.11027 -2.88216 0
M  V30 38081 C 3615.44 5.34786 -3.37915 0
M  V30 38082 C 3614.11 5.52967 -3.73876 0
M  V30 38083 H 3613.38 0.740128 -0.0359419 0
M  V30 38084 H 3616.02 1.74659 -0.785271 0
M  V30 38085 H 3614.33 3.84262 0.764851 0
M  V30 38086 H 3616.03 3.98978 0.402233 0
M  V30 38087 H 3612.62 4.16262 -1.02097 0
M  V30 38088 H 3616.8 4.58174 -1.90762 0
M  V30 38089 H 3612.06 5.23292 -3.16189 0
M  V30 38090 H 3616.23 5.66573 -4.0493 0
M  V30 38091 H 3613.86 5.98906 -4.68205 0
M  V30 38092 N 3615.43 0.343284 1.53816 0
M  V30 38093 C 3616.38 -0.513625 2.25012 0
M  V30 38094 C 3617.35 -1.09576 1.24829 0
M  V30 38095 O 3618.53 -1.13243 1.5356 0
M  V30 38096 C 3615.67 -1.6588 3.02618 0
M  V30 38097 C 3614.79 -1.10399 4.17655 0
M  V30 38098 C 3613.92 -2.21645 4.8275 0
M  V30 38099 C 3612.96 -1.63514 5.89856 0
M  V30 38100 N 3612.1 -2.68501 6.48731 0
M  V30 38101 H 3616.94 0.100049 2.97832 0
M  V30 38102 H 3614.48 0.0611464 1.46973 0
M  V30 38103 H 3616.43 -2.33298 3.45873 0
M  V30 38104 H 3615.06 -2.24346 2.32096 0
M  V30 38105 H 3614.12 -0.320753 3.79045 0
M  V30 38106 H 3615.43 -0.6388 4.94693 0
M  V30 38107 H 3614.58 -2.96929 5.29073 0
M  V30 38108 H 3613.32 -2.71507 4.05136 0
M  V30 38109 H 3612.33 -0.867355 5.42915 0
M  V30 38110 H 3613.55 -1.14504 6.69377 0
M  V30 38111 H 3611.5 -3.17619 5.73981 0
M  V30 38112 H 3611.41 -2.26603 7.2124 0
M  V30 38113 H 3612.68 -3.43555 6.99707 0
M  V30 38114 N 3616.91 -1.57436 0.0718977 0
M  V30 38115 C 3617.82 -2.1623 -0.910039 0
M  V30 38116 C 3618.84 -1.1255 -1.32697 0
M  V30 38117 O 3620.01 -1.44816 -1.39965 0
M  V30 38118 C 3617.08 -2.71241 -2.15938 0
M  V30 38119 C 3616.14 -3.89795 -1.79885 0
M  V30 38120 C 3615.37 -4.42173 -2.98862 0
M  V30 38121 O 3615.59 -3.93553 -4.12883 0
M  V30 38122 O 3614.53 -5.33503 -2.78673 0
M  V30 38123 H 3618.35 -3.00497 -0.439917 0
M  V30 38124 H 3615.94 -1.48633 -0.151178 0
M  V30 38125 H 3617.82 -3.065 -2.89199 0
M  V30 38126 H 3616.5 -1.90034 -2.62047 0
M  V30 38127 H 3615.4 -3.5939 -1.03875 0
M  V30 38128 H 3616.74 -4.72295 -1.38558 0
M  V30 38129 N 3618.39 0.201658 -1.56305 0
M  V30 38130 C 3619.64 0.923061 -1.80238 0
M  V30 38131 C 3619.96 1.83528 -0.644026 0
M  V30 38132 O 3619.22 1.92159 0.370579 0
M  V30 38133 C 3619.52 1.7768 -3.10104 0
M  V30 38134 C 3619.18 1.01613 -4.39301 0
M  V30 38135 C 3617.85 0.806077 -4.74401 0
M  V30 38136 C 3620.2 0.480423 -5.18981 0
M  V30 38137 C 3617.53 0.0487392 -5.8668 0
M  V30 38138 C 3619.88 -0.263671 -6.3205 0
M  V30 38139 C 3618.54 -0.484796 -6.65737 0
M  V30 38140 H 3617.81 0.337772 -0.659539 0
M  V30 38141 H 3620.46 0.189861 -1.90556 0
M  V30 38142 H 3618.76 2.57848 -2.94994 0
M  V30 38143 H 3620.46 2.33748 -3.25827 0
M  V30 38144 H 3617.05 1.18984 -4.11753 0
M  V30 38145 H 3621.23 0.630122 -4.92284 0
M  V30 38146 H 3616.49 -0.132618 -6.11256 0
M  V30 38147 H 3620.66 -0.68618 -6.93011 0
M  V30 38148 H 3618.29 -1.07355 -7.52582 0
M  V30 38149 N 3619.87 1.50456 0.469128 0
M  V30 38150 C 3621.12 1.60783 1.21785 0
M  V30 38151 C 3621.43 0.31461 1.93053 0
M  V30 38152 O 3622.63 0.296821 2.69873 0
M  V30 38153 C 3621.09 2.83821 2.213 0
M  V30 38154 C 3620.7 4.20027 1.55826 0
M  V30 38155 C 3622.44 3.03494 2.96802 0
M  V30 38156 C 3620.35 5.34248 2.53639 0
M  V30 38157 H 3619.28 0.59876 0.45826 0
M  V30 38158 H 3621.93 1.76889 0.488128 0
M  V30 38159 H 3620.31 2.61279 2.97573 0
M  V30 38160 H 3621.49 4.52831 0.853292 0
M  V30 38161 H 3619.8 4.05974 0.925975 0
M  V30 38162 H 3622.4 3.86 3.70011 0
M  V30 38163 H 3622.74 2.15299 3.56303 0
M  V30 38164 H 3623.27 3.26227 2.27642 0
M  V30 38165 H 3620.01 6.24603 1.98874 0
M  V30 38166 H 3619.53 5.0586 3.22282 0
M  V30 38167 H 3621.21 5.64902 3.15428 0
M  V30 38168 N 3621.34 -0.722439 1.40066 0
M  V30 38169 C 3622.57 -1.50941 1.41068 0
M  V30 38170 C 3622.98 -1.89199 0.00681409 0
M  V30 38171 O 3622.33 -1.55504 -0.977965 0
M  V30 38172 C 3622.39 -2.81873 2.23132 0
M  V30 38173 C 3622.05 -2.65977 3.71625 0
M  V30 38174 C 3623.05 -2.3369 4.64419 0
M  V30 38175 C 3620.73 -2.82456 4.1536 0
M  V30 38176 C 3622.73 -2.18081 5.98932 0
M  V30 38177 C 3620.41 -2.66465 5.49945 0
M  V30 38178 C 3621.41 -2.34324 6.41546 0
M  V30 38179 O 3621.1 -2.18447 7.73651 0
M  V30 38180 H 3620.83 -0.472619 0.483329 0
M  V30 38181 H 3623.39 -0.899323 1.84665 0
M  V30 38182 H 3621.62 -3.45189 1.74304 0
M  V30 38183 H 3623.31 -3.43555 2.16159 0
M  V30 38184 H 3624.07 -2.20598 4.31927 0
M  V30 38185 H 3619.95 -3.06462 3.44386 0
M  V30 38186 H 3623.49 -1.92916 6.70395 0
M  V30 38187 H 3619.39 -2.79139 5.82024 0
M  V30 38188 H 3620.16 -2.3342 7.84511 0
M  V30 38189 N 3622.82 -1.2545 -0.953947 0
M  V30 38190 C 3624.24 -1.02286 -1.22514 0
M  V30 38191 C 3624.44 0.259898 -1.99817 0
M  V30 38192 O 3623.5 0.972438 -2.33023 0
M  V30 38193 C 3624.81 -2.24647 -1.99886 0
M  V30 38194 C 3626.36 -2.29415 -2.12926 0
M  V30 38195 C 3626.83 -3.51434 -2.93697 0
M  V30 38196 N 3628.32 -3.51835 -3.01275 0
M  V30 38197 C 3629.06 -4.42911 -3.64167 0
M  V30 38198 N 3628.55 -5.44261 -4.28663 0
M  V30 38199 N 3630.35 -4.30591 -3.61314 0
M  V30 38200 H 3622.5 -2.0786 -0.436823 0
M  V30 38201 H 3624.76 -0.912857 -0.255728 0
M  V30 38202 H 3624.47 -3.1788 -1.50483 0
M  V30 38203 H 3624.34 -2.27873 -3.00589 0
M  V30 38204 H 3626.73 -1.36705 -2.61526 0
M  V30 38205 H 3626.81 -2.30208 -1.11526 0
M  V30 38206 H 3626.45 -4.44467 -2.45787 0
M  V30 38207 H 3626.38 -3.47888 -3.95325 0
M  V30 38208 H 3628.87 -2.78522 -2.5541 0
M  V30 38209 H 3629.19 -6.09966 -4.74511 0
M  V30 38210 H 3627.53 -5.48132 -4.27289 0
M  V30 38211 H 3630.72 -3.5064 -3.10112 0
M  V30 38212 H 3630.9 -5.01767 -4.10042 0
M  V30 38213 N 3624.3 1.15667 -1.07047 0
M  V30 38214 C 3625.55 1.85722 -0.786783 0
M  V30 38215 C 3625.86 1.83042 0.689572 0
M  V30 38216 O 3627.07 2.4875 1.08791 0
M  V30 38217 C 3625.53 3.33323 -1.35735 0
M  V30 38218 C 3625.13 3.44457 -2.8645 0
M  V30 38219 C 3626.88 4.08582 -1.15155 0
M  V30 38220 C 3624.78 4.86187 -3.36713 0
M  V30 38221 H 3623.71 0.695732 -0.290642 0
M  V30 38222 H 3626.37 1.3049 -1.29014 0
M  V30 38223 H 3624.75 3.88207 -0.78174 0
M  V30 38224 H 3625.92 2.99694 -3.50029 0
M  V30 38225 H 3624.24 2.82639 -3.05785 0
M  V30 38226 H 3626.83 5.13174 -1.50188 0
M  V30 38227 H 3627.18 4.16202 -0.0903891 0
M  V30 38228 H 3627.71 3.59959 -1.69336 0
M  V30 38229 H 3624.45 4.8375 -4.42341 0
M  V30 38230 H 3623.97 5.31544 -2.77887 0
M  V30 38231 H 3625.65 5.55033 -3.32487 0
M  V30 38232 N 3625.78 0.854133 1.32447 0
M  V30 38233 C 3626.73 0.287156 2.30821 0
M  V30 38234 C 3627.72 -0.589183 1.58824 0
M  V30 38235 O 3628.93 -0.477044 1.73563 0
M  V30 38236 H 3625.3 0.0741547 0.748335 0
M  V30 38237 H 3627.27 1.13109 2.76132 0
M  V30 38238 C 3626.02 -0.510069 3.43938 0
M  V30 38239 H 3625.35 0.154966 3.995 0
M  V30 38240 H 3626.79 -0.872378 4.14928 0
M  V30 38241 C 3625.24 -1.69508 2.9115 0
M  V30 38242 O 3625.77 -2.79415 2.886 0
M  V30 38243 N 3623.98 -1.52197 2.47557 0
M  V30 38244 H 3623.53 -0.627897 2.4983 0
M  V30 38245 H 3623.49 -2.3163 2.12591 0
M  V30 38246 N 3627.26 -1.45231 0.61202 0
M  V30 38247 C 3628.49 -2.06578 0.115446 0
M  V30 38248 C 3628.9 -1.4559 -1.20203 0
M  V30 38249 O 3628.26 -0.571698 -1.73314 0
M  V30 38250 C 3628.31 -3.61491 -0.0259307 0
M  V30 38251 O 3628.03 -4.20202 1.23943 0
M  V30 38252 C 3629.53 -4.39832 -0.553445 0
M  V30 38253 H 3626.75 -0.667246 0.0708773 0
M  V30 38254 H 3629.29 -1.86406 0.84101 0
M  V30 38255 H 3627.45 -3.80989 -0.701842 0
M  V30 38256 H 3627.86 -5.13429 1.07196 0
M  V30 38257 H 3629.34 -5.48714 -0.601439 0
M  V30 38258 H 3629.81 -4.09925 -1.57663 0
M  V30 38259 H 3630.42 -4.25208 0.0885702 0
M  V30 38260 N 3628.74 -0.351436 -1.53632 0
M  V30 38261 C 3629.67 0.493869 -2.28217 0
M  V30 38262 C 3630.65 1.09597 -1.30087 0
M  V30 38263 O 3631.83 1.11588 -1.5894 0
M  V30 38264 C 3628.96 1.64097 -3.06088 0
M  V30 38265 C 3627.92 1.16682 -4.11788 0
M  V30 38266 C 3627.24 2.40305 -4.77658 0
M  V30 38267 C 3628.54 0.261651 -5.21644 0
M  V30 38268 H 3630.24 -0.128353 -2.99125 0
M  V30 38269 H 3627.78 -0.0631715 -1.43861 0
M  V30 38270 H 3629.73 2.23884 -3.57007 0
M  V30 38271 H 3628.46 2.29021 -2.32846 0
M  V30 38272 H 3627.12 0.59172 -3.61793 0
M  V30 38273 H 3626.77 3.03654 -4.01003 0
M  V30 38274 H 3626.47 2.09259 -5.49076 0
M  V30 38275 H 3627.99 3.00804 -5.31366 0
M  V30 38276 H 3629.4 0.766589 -5.68152 0
M  V30 38277 H 3627.8 0.0427077 -6.00085 0
M  V30 38278 H 3628.87 -0.700083 -4.7982 0
M  V30 38279 N 3630.21 1.57396 -0.0802459 0
M  V30 38280 C 3631.46 1.93425 0.585768 0
M  V30 38281 C 3631.78 0.961691 1.69636 0
M  V30 38282 O 3631.05 0.0112364 1.95897 0
M  V30 38283 H 3629.63 0.714063 0.219369 0
M  V30 38284 H 3632.29 1.94396 -0.140089 0
M  V30 38285 H 3631.39 2.95455 1.00561 0
M  V30 38286 N 3631.69 -0.193366 1.56409 0
M  V30 38287 C 3632.94 -0.910281 1.81894 0
M  V30 38288 C 3633.29 -1.80815 0.657552 0
M  V30 38289 O 3632.59 -1.88428 -0.347182 0
M  V30 38290 C 3632.78 -1.76033 3.11042 0
M  V30 38291 C 3632.61 -0.946257 4.39632 0
M  V30 38292 C 3631.38 -0.630002 5.01357 0
M  V30 38293 C 3633.58 -0.298148 5.13435 0
M  V30 38294 N 3631.56 0.202525 6.13566 0
M  V30 38295 C 3632.93 0.396503 6.18731 0
M  V30 38296 C 3634.98 -0.214052 4.9744 0
M  V30 38297 C 3633.69 1.16724 7.09766 0
M  V30 38298 C 3635.71 0.543296 5.88899 0
M  V30 38299 C 3635.08 1.22639 6.93642 0
M  V30 38300 H 3631.17 -0.312433 0.716875 0
M  V30 38301 H 3633.76 -0.17888 1.93877 0
M  V30 38302 H 3631.93 -2.46333 3.00291 0
M  V30 38303 H 3633.66 -2.41686 3.24607 0
M  V30 38304 H 3630.42 -0.954838 4.63875 0
M  V30 38305 H 3630.84 0.60845 6.7426 0
M  V30 38306 H 3635.48 -0.727818 4.16488 0
M  V30 38307 H 3633.2 1.69243 7.90179 0
M  V30 38308 H 3636.79 0.609744 5.78596 0
M  V30 38309 H 3635.67 1.80304 7.63191 0
M  V30 38310 N 3633.17 -1.50702 -0.461142 0
M  V30 38311 C 3634.4 -1.6596 -1.23551 0
M  V30 38312 C 3634.81 -0.34701 -1.85584 0
M  V30 38313 O 3634.17 0.672099 -1.69673 0
M  V30 38314 C 3634.22 -2.75803 -2.33699 0
M  V30 38315 O 3633.94 -4.01974 -1.74208 0
M  V30 38316 C 3635.44 -3.02121 -3.24403 0
M  V30 38317 H 3632.66 -0.557581 -0.373289 0
M  V30 38318 H 3635.21 -1.96985 -0.549304 0
M  V30 38319 H 3633.36 -2.47445 -2.98077 0
M  V30 38320 H 3633.78 -4.62796 -2.46819 0
M  V30 38321 H 3635.25 -3.82618 -3.97879 0
M  V30 38322 H 3635.73 -2.13582 -3.8377 0
M  V30 38323 H 3636.33 -3.32049 -2.65752 0
M  V30 38324 N 3634.65 0.715001 -1.40447 0
M  V30 38325 C 3635.87 1.50915 -1.42265 0
M  V30 38326 C 3636.3 1.88084 -0.0242733 0
M  V30 38327 O 3635.66 1.53309 0.96779 0
M  V30 38328 C 3635.7 2.76056 -2.32003 0
M  V30 38329 O 3634.81 3.72784 -1.76368 0
M  V30 38330 H 3634.15 0.454979 -0.483622 0
M  V30 38331 H 3636.68 0.880516 -1.84684 0
M  V30 38332 H 3636.69 3.24579 -2.4721 0
M  V30 38333 H 3635.36 2.48337 -3.33619 0
M  V30 38334 H 3633.94 3.31633 -1.7051 0
M  V30 38335 N 3636.13 1.25954 0.947281 0
M  V30 38336 C 3637.54 1.02934 1.2197 0
M  V30 38337 C 3637.74 -0.249298 1.99952 0
M  V30 38338 O 3636.8 -0.960067 2.33536 0
M  V30 38339 C 3638.11 2.25704 1.98692 0
M  V30 38340 C 3639.66 2.30541 2.11707 0
M  V30 38341 C 3640.13 3.52987 2.91829 0
M  V30 38342 N 3641.62 3.53427 2.99405 0
M  V30 38343 C 3642.36 4.44836 3.61813 0
M  V30 38344 N 3641.86 5.46526 4.25771 0
M  V30 38345 N 3643.65 4.32501 3.59025 0
M  V30 38346 H 3635.8 2.08088 0.425793 0
M  V30 38347 H 3638.06 0.9142 0.250883 0
M  V30 38348 H 3637.77 3.18674 1.48795 0
M  V30 38349 H 3637.64 2.29464 2.99376 0
M  V30 38350 H 3640.03 1.3809 2.60797 0
M  V30 38351 H 3640.11 2.30796 1.10304 0
M  V30 38352 H 3639.75 4.45764 2.43427 0
M  V30 38353 H 3639.68 3.49979 3.93474 0
M  V30 38354 H 3642.18 2.79872 2.53929 0
M  V30 38355 H 3642.49 6.12474 4.7127 0
M  V30 38356 H 3640.83 5.5039 4.24376 0
M  V30 38357 H 3644.02 3.5228 3.08248 0
M  V30 38358 H 3644.2 5.03934 4.07375 0
M  V30 38359 N 3637.6 -1.15097 1.07659 0
M  V30 38360 C 3638.83 -1.89833 0.822858 0
M  V30 38361 C 3639.25 -1.78181 -0.62425 0
M  V30 38362 O 3638.6 -1.13589 -1.42842 0
M  V30 38363 C 3638.66 -3.40074 1.22604 0
M  V30 38364 O 3638.38 -3.51394 2.61637 0
M  V30 38365 C 3639.88 -4.31826 1.00207 0
M  V30 38366 H 3637.1 -0.601544 0.297298 0
M  V30 38367 H 3639.64 -1.4581 1.43386 0
M  V30 38368 H 3637.8 -3.81749 0.659297 0
M  V30 38369 H 3638.21 -4.44659 2.7817 0
M  V30 38370 H 3639.68 -5.35647 1.33365 0
M  V30 38371 H 3640.16 -4.39157 -0.0614093 0
M  V30 38372 H 3640.77 -3.95898 1.55387 0
M  V30 38373 N 3639.08 -0.861145 -1.31993 0
M  V30 38374 C 3640.01 -0.267721 -2.27631 0
M  V30 38375 C 3641.03 0.564238 -1.5271 0
M  V30 38376 O 3642.22 0.387669 -1.74239 0
M  V30 38377 C 3639.32 0.639797 -3.32806 0
M  V30 38378 C 3638.49 -0.157753 -4.37115 0
M  V30 38379 C 3637.55 0.676532 -5.21833 0
M  V30 38380 O 3636.57 0.107722 -5.69098 0
M  V30 38381 N 3637.78 1.99012 -5.45321 0
M  V30 38382 H 3640.54 -1.08955 -2.79193 0
M  V30 38383 H 3638.1 -0.721759 -1.44922 0
M  V30 38384 H 3640.09 1.20342 -3.86394 0
M  V30 38385 H 3638.66 1.36231 -2.81354 0
M  V30 38386 H 3637.88 -0.902808 -3.83723 0
M  V30 38387 H 3639.17 -0.705329 -5.03887 0
M  V30 38388 H 3638.57 2.4755 -5.08661 0
M  V30 38389 H 3637.13 2.50172 -6.01878 0
M  V30 38390 N 3640.56 1.44905 -0.619713 0
M  V30 38391 C 3641.81 2.02146 -0.119669 0
M  V30 38392 C 3642.14 1.48653 1.2543 0
M  V30 38393 O 3641.39 0.656187 1.84371 0
M  V30 38394 C 3641.69 3.57374 -0.043352 0
M  V30 38395 C 3641.36 4.30072 -1.35458 0
M  V30 38396 C 3640.02 4.4965 -1.71373 0
M  V30 38397 C 3642.37 4.71528 -2.22061 0
M  V30 38398 C 3639.7 5.07941 -2.9362 0
M  V30 38399 C 3642.05 5.31172 -3.43568 0
M  V30 38400 C 3640.71 5.48971 -3.7972 0
M  V30 38401 H 3639.98 0.739705 -0.0437899 0
M  V30 38402 H 3642.63 1.73816 -0.803752 0
M  V30 38403 H 3640.94 3.85052 0.724052 0
M  V30 38404 H 3642.63 3.99382 0.359893 0
M  V30 38405 H 3639.22 4.15156 -1.06507 0
M  V30 38406 H 3643.41 4.56125 -1.95611 0
M  V30 38407 H 3638.66 5.19909 -3.21721 0
M  V30 38408 H 3642.84 5.62246 -4.10916 0
M  V30 38409 H 3640.46 5.93906 -4.7453 0
M  V30 38410 N 3642.04 0.359579 1.53443 0
M  V30 38411 C 3642.95 -0.497793 2.29258 0
M  V30 38412 C 3643.96 -1.0979 1.34989 0
M  V30 38413 O 3645.14 -1.11014 1.68041 0
M  V30 38414 C 3642.21 -1.62497 3.06261 0
M  V30 38415 C 3641.27 -1.05301 4.16185 0
M  V30 38416 C 3640.5 -2.12647 4.89507 0
M  V30 38417 O 3640.72 -3.33653 4.62636 0
M  V30 38418 O 3639.66 -1.7604 5.75581 0
M  V30 38419 H 3643.48 0.118979 3.03467 0
M  V30 38420 H 3641.07 0.124137 1.48883 0
M  V30 38421 H 3642.95 -2.28044 3.54364 0
M  V30 38422 H 3641.62 -2.22725 2.34894 0
M  V30 38423 H 3640.53 -0.361614 3.72348 0
M  V30 38424 H 3641.86 -0.495364 4.89701 0
M  V30 38425 N 3643.52 -1.57351 0.0885919 0
M  V30 38426 C 3644.43 -2.17183 -0.887053 0
M  V30 38427 C 3645.44 -1.13951 -1.31496 0
M  V30 38428 O 3646.62 -1.46293 -1.38421 0
M  V30 38429 C 3643.68 -2.73516 -2.13049 0
M  V30 38430 C 3642.74 -3.91681 -1.7574 0
M  V30 38431 C 3641.98 -4.45318 -2.94156 0
M  V30 38432 O 3642.2 -3.9791 -4.08686 0
M  V30 38433 O 3641.13 -5.36428 -2.72999 0
M  V30 38434 H 3644.96 -3.00947 -0.40802 0
M  V30 38435 H 3642.55 -1.48785 -0.135405 0
M  V30 38436 H 3644.43 -3.0955 -2.85932 0
M  V30 38437 H 3643.1 -1.92803 -2.60017 0
M  V30 38438 H 3642.01 -3.60471 -1.00057 0
M  V30 38439 H 3643.34 -4.73738 -1.3354 0
M  V30 38440 N 3644.99 0.185069 -1.5651 0
M  V30 38441 C 3646.22 0.919828 -1.85329 0
M  V30 38442 C 3646.64 1.76423 -0.672325 0
M  V30 38443 O 3645.99 1.78938 0.358823 0
M  V30 38444 C 3646.05 1.80782 -3.1305 0
M  V30 38445 O 3645.77 0.997494 -4.26593 0
M  V30 38446 C 3647.27 2.65341 -3.55118 0
M  V30 38447 H 3644.49 0.267898 -0.6152 0
M  V30 38448 H 3647.03 0.189302 -2.03622 0
M  V30 38449 H 3645.19 2.49185 -2.96624 0
M  V30 38450 H 3645.6 1.60353 -4.99387 0
M  V30 38451 H 3647.07 3.23287 -4.47425 0
M  V30 38452 H 3647.55 3.39542 -2.78582 0
M  V30 38453 H 3648.16 2.02293 -3.74109 0
M  V30 38454 N 3646.47 1.50945 0.453144 0
M  V30 38455 C 3647.72 1.64035 1.20266 0
M  V30 38456 C 3648.07 0.34474 1.89286 0
M  V30 38457 O 3647.37 -0.658519 1.79928 0
M  V30 38458 C 3647.56 2.77084 2.25742 0
M  V30 38459 C 3647.39 4.17513 1.67072 0
M  V30 38460 C 3646.16 4.83671 1.46255 0
M  V30 38461 C 3648.36 5.01147 1.15568 0
M  V30 38462 N 3646.34 6.08261 0.830171 0
M  V30 38463 C 3647.71 6.16608 0.647613 0
M  V30 38464 C 3649.77 4.8679 1.04593 0
M  V30 38465 C 3648.47 7.19289 0.0406013 0
M  V30 38466 C 3650.49 5.89664 0.452832 0
M  V30 38467 C 3649.86 7.04386 -0.0447673 0
M  V30 38468 H 3645.96 0.654266 0.428322 0
M  V30 38469 H 3648.54 1.88124 0.501749 0
M  V30 38470 H 3646.71 2.54686 2.9324 0
M  V30 38471 H 3648.44 2.79437 2.92741 0
M  V30 38472 H 3645.2 4.41268 1.71987 0
M  V30 38473 H 3645.62 6.74907 0.531875 0
M  V30 38474 H 3650.26 3.98364 1.41654 0
M  V30 38475 H 3647.98 8.07375 -0.342172 0
M  V30 38476 H 3651.57 5.80622 0.370034 0
M  V30 38477 H 3650.45 7.82627 -0.496501 0
M  V30 38478 N 3647.95 -0.707543 1.40825 0
M  V30 38479 C 3648.91 -1.80332 1.41467 0
M  V30 38480 C 3649.91 -1.57839 0.307171 0
M  V30 38481 O 3651.1 -1.64732 0.566473 0
M  V30 38482 C 3648.24 -3.18539 1.21432 0
M  V30 38483 H 3649.43 -1.81158 2.39002 0
M  V30 38484 H 3646.98 -0.913985 1.26791 0
M  V30 38485 H 3647.72 -3.23359 0.246904 0
M  V30 38486 H 3647.5 -3.36266 2.01663 0
M  V30 38487 H 3648.99 -3.98551 1.24688 0
M  V30 38488 N 3649.43 -1.26454 -0.940588 0
M  V30 38489 C 3650.66 -1.14813 -1.72121 0
M  V30 38490 C 3651.07 0.296571 -1.86456 0
M  V30 38491 O 3650.43 1.20301 -1.37236 0
M  V30 38492 C 3650.48 -1.81271 -3.12767 0
M  V30 38493 O 3650.2 -3.20095 -2.99117 0
M  V30 38494 C 3651.7 -1.75591 -4.07042 0
M  V30 38495 H 3648.92 -0.399783 -0.538901 0
M  V30 38496 H 3651.47 -1.67085 -1.1791 0
M  V30 38497 H 3649.62 -1.32935 -3.63878 0
M  V30 38498 H 3650.03 -3.52991 -3.8794 0
M  V30 38499 H 3651.51 -2.26728 -5.03288 0
M  V30 38500 H 3651.99 -0.722542 -4.33216 0
M  V30 38501 H 3652.59 -2.23481 -3.61851 0
M  V30 38502 N 3650.91 1.14525 -1.08268 0
M  V30 38503 C 3651.84 2.21696 -0.733007 0
M  V30 38504 C 3652.82 1.67714 0.283888 0
M  V30 38505 O 3654 1.93584 0.154573 0
M  V30 38506 C 3651.13 3.47018 -0.139996 0
M  V30 38507 C 3650.09 4.14017 -1.08508 0
M  V30 38508 C 3649.41 5.33525 -0.354357 0
M  V30 38509 C 3650.71 4.62716 -2.42262 0
M  V30 38510 H 3652.41 2.51202 -1.62905 0
M  V30 38511 H 3649.95 1.2074 -0.784717 0
M  V30 38512 H 3651.91 4.21239 0.116626 0
M  V30 38513 H 3650.63 3.16872 0.791173 0
M  V30 38514 H 3649.29 3.41749 -1.32678 0
M  V30 38515 H 3648.94 4.99638 0.58057 0
M  V30 38516 H 3648.64 5.79296 -0.984389 0
M  V30 38517 H 3650.16 6.10508 -0.105755 0
M  V30 38518 H 3651.57 5.28418 -2.22366 0
M  V30 38519 H 3649.97 5.19184 -3.00944 0
M  V30 38520 H 3651.04 3.77861 -3.0389 0
M  V30 38521 N 3652.39 0.868133 1.31534 0
M  V30 38522 C 3653.32 0.338261 2.31037 0
M  V30 38523 C 3654.3 -0.569863 1.6027 0
M  V30 38524 O 3655.48 -0.487272 1.87987 0
M  V30 38525 C 3652.61 -0.462693 3.44204 0
M  V30 38526 C 3651.57 0.352175 4.26549 0
M  V30 38527 C 3650.89 -0.57435 5.31606 0
M  V30 38528 C 3652.19 1.58525 4.97662 0
M  V30 38529 H 3653.89 1.16971 2.75605 0
M  V30 38530 H 3651.43 0.563914 1.32499 0
M  V30 38531 H 3653.38 -0.843894 4.12864 0
M  V30 38532 H 3652.11 -1.32764 2.98398 0
M  V30 38533 H 3650.77 0.7153 3.59554 0
M  V30 38534 H 3650.42 -1.43652 4.82051 0
M  V30 38535 H 3650.12 -0.0330403 5.87591 0
M  V30 38536 H 3651.64 -0.952435 6.03126 0
M  V30 38537 H 3653.05 1.27559 5.58929 0
M  V30 38538 H 3651.45 2.06549 5.63434 0
M  V30 38539 H 3652.52 2.33909 4.24752 0
M  V30 38540 N 3653.86 -1.44574 0.627389 0
M  V30 38541 C 3655.11 -2.01681 0.13013 0
M  V30 38542 C 3655.43 -1.49575 -1.2511 0
M  V30 38543 O 3654.7 -0.697854 -1.83049 0
M  V30 38544 H 3653.28 -0.745636 0.0451163 0
M  V30 38545 H 3655.94 -1.77122 0.813249 0
M  V30 38546 H 3655.04 -3.11955 0.0949679 0
M  V30 38547 N 3655.34 -0.367711 -1.5325 0
M  V30 38548 C 3656.59 0.221643 -2.01585 0
M  V30 38549 C 3656.92 1.48246 -1.25446 0
M  V30 38550 O 3656.2 1.91348 -0.34876 0
M  V30 38551 C 3656.48 0.511444 -3.5645 0
M  V30 38552 C 3656.33 -0.763153 -4.43279 0
M  V30 38553 C 3657.65 1.31113 -4.20116 0
M  V30 38554 H 3654.77 0.0790825 -0.732745 0
M  V30 38555 H 3657.41 -0.493023 -1.83492 0
M  V30 38556 H 3655.56 1.12027 -3.71998 0
M  V30 38557 H 3657.23 -1.4006 -4.39524 0
M  V30 38558 H 3655.48 -1.38306 -4.11162 0
M  V30 38559 H 3656.15 -0.515312 -5.49589 0
M  V30 38560 H 3658.62 0.796097 -4.08413 0
M  V30 38561 H 3657.5 1.48265 -5.28497 0
M  V30 38562 H 3657.76 2.32025 -3.7632 0
M  V30 38563 N 3656.82 1.57302 -0.0969353 0
M  V30 38564 C 3657.75 2.17149 0.858405 0
M  V30 38565 C 3658.73 1.10534 1.29292 0
M  V30 38566 O 3659.92 1.38679 1.35948 0
M  V30 38567 C 3657.05 2.75329 2.11686 0
M  V30 38568 C 3656 3.87333 1.82091 0
M  V30 38569 C 3655.33 4.32224 3.1478 0
M  V30 38570 C 3656.63 5.10446 1.10642 0
M  V30 38571 H 3658.32 2.97231 0.359768 0
M  V30 38572 H 3655.87 1.42974 0.171605 0
M  V30 38573 H 3657.82 3.15849 2.78957 0
M  V30 38574 H 3656.54 1.92505 2.63836 0
M  V30 38575 H 3655.2 3.47356 1.17216 0
M  V30 38576 H 3654.85 3.46288 3.6482 0
M  V30 38577 H 3654.55 5.0774 2.9576 0
M  V30 38578 H 3656.07 4.75379 3.83207 0
M  V30 38579 H 3657.49 5.48124 1.68027 0
M  V30 38580 H 3655.88 5.91403 1.01795 0
M  V30 38581 H 3656.95 4.84817 0.0894782 0
M  V30 38582 N 3658.3 -0.176766 1.56606 0
M  V30 38583 C 3659.54 -0.895595 1.81953 0
M  V30 38584 C 3659.88 -1.82132 0.673925 0
M  V30 38585 O 3659.15 -1.91775 -0.324461 0
M  V30 38586 C 3659.43 -1.69599 3.17661 0
M  V30 38587 C 3659.29 -0.793756 4.42741 0
M  V30 38588 C 3660.61 -2.66482 3.50251 0
M  V30 38589 H 3657.73 -0.324147 0.66189 0
M  V30 38590 H 3660.37 -0.162058 1.89308 0
M  V30 38591 H 3658.52 -2.32134 3.11522 0
M  V30 38592 H 3660.19 -0.181694 4.60942 0
M  V30 38593 H 3658.43 -0.10149 4.33681 0
M  V30 38594 H 3659.1 -1.38918 5.34234 0
M  V30 38595 H 3661.58 -2.14074 3.56807 0
M  V30 38596 H 3660.46 -3.19554 4.46292 0
M  V30 38597 H 3660.72 -3.46418 2.74676 0
M  V30 38598 N 3659.78 -1.51183 -0.445132 0
M  V30 38599 C 3661 -1.67261 -1.21784 0
M  V30 38600 C 3661.42 -0.366674 -1.85205 0
M  V30 38601 O 3660.78 0.654066 -1.70377 0
M  V30 38602 C 3660.83 -2.78266 -2.3076 0
M  V30 38603 O 3660.55 -4.03799 -1.69935 0
M  V30 38604 C 3662.05 -3.05545 -3.21181 0
M  V30 38605 H 3659.27 -0.561509 -0.367354 0
M  V30 38606 H 3661.81 -1.97556 -0.52838 0
M  V30 38607 H 3659.97 -2.50592 -2.95436 0
M  V30 38608 H 3660.38 -4.65388 -2.41897 0
M  V30 38609 H 3661.86 -3.86817 -3.93798 0
M  V30 38610 H 3662.33 -2.17641 -3.81483 0
M  V30 38611 H 3662.94 -3.34848 -2.62215 0
M  V30 38612 N 3661.25 0.700065 -1.41198 0
M  V30 38613 C 3662.19 1.8253 -1.3862 0
M  V30 38614 C 3663.2 1.60213 -0.289075 0
M  V30 38615 O 3664.39 1.69799 -0.550495 0
M  V30 38616 C 3661.49 3.19215 -1.13821 0
M  V30 38617 C 3660.66 3.68598 -2.35487 0
M  V30 38618 C 3659.72 4.8394 -2.06612 0
M  V30 38619 O 3658.75 4.95787 -2.79613 0
M  V30 38620 N 3659.95 5.70858 -1.05361 0
M  V30 38621 H 3662.71 1.85236 -2.35601 0
M  V30 38622 H 3660.27 0.882214 -1.35752 0
M  V30 38623 H 3662.27 3.93996 -0.92464 0
M  V30 38624 H 3660.84 3.11562 -0.254522 0
M  V30 38625 H 3660.06 2.84775 -2.72574 0
M  V30 38626 H 3661.34 3.9833 -3.1656 0
M  V30 38627 H 3660.74 5.63913 -0.449322 0
M  V30 38628 H 3659.3 6.45557 -0.899933 0
M  V30 38629 N 3662.73 1.26951 0.933869 0
M  V30 38630 C 3664.14 1.11731 1.49576 0
M  V30 38631 C 3664.49 -0.299854 1.93895 0
M  V30 38632 O 3663.62 -1.19213 1.80602 0
M  V30 38633 C 3664.21 2.02212 2.71837 0
M  V30 38634 C 3662.77 1.91116 3.24271 0
M  V30 38635 C 3661.92 1.95131 1.97026 0
M  V30 38636 H 3664.87 1.39934 0.748603 0
M  V30 38637 H 3664.89 1.57431 3.46404 0
M  V30 38638 H 3664.4 3.05348 2.3955 0
M  V30 38639 H 3662.5 0.90943 3.61331 0
M  V30 38640 H 3662.62 2.77034 3.90882 0
M  V30 38641 H 3660.98 1.39276 2.13247 0
M  V30 38642 H 3661.76 2.9991 1.6706 0
M  V30 38643 N 3664.21 -1.13949 1.08873 0
M  V30 38644 C 3665.14 -2.21304 0.744754 0
M  V30 38645 C 3666.12 -1.67862 -0.274989 0
M  V30 38646 O 3667.31 -1.93663 -0.144305 0
M  V30 38647 C 3664.44 -3.46939 0.158397 0
M  V30 38648 C 3663.39 -4.13436 1.10702 0
M  V30 38649 C 3662.72 -5.33329 0.382646 0
M  V30 38650 C 3664.02 -4.61425 2.44712 0
M  V30 38651 H 3665.71 -2.50334 1.64235 0
M  V30 38652 H 3663.26 -1.20322 0.79111 0
M  V30 38653 H 3665.21 -4.21295 -0.0942846 0
M  V30 38654 H 3663.93 -3.17287 -0.774357 0
M  V30 38655 H 3662.59 -3.4104 1.34488 0
M  V30 38656 H 3662.24 -4.99939 -0.554065 0
M  V30 38657 H 3661.94 -5.78766 1.0151 0
M  V30 38658 H 3663.46 -6.10444 0.13813 0
M  V30 38659 H 3664.88 -5.27232 2.25166 0
M  V30 38660 H 3663.27 -5.17581 3.03694 0
M  V30 38661 H 3664.34 -3.76244 3.0589 0
M  V30 38662 N 3665.69 -0.875096 -1.31072 0
M  V30 38663 C 3666.93 -0.489307 -1.96809 0
M  V30 38664 C 3667.27 0.957043 -1.6898 0
M  V30 38665 O 3666.54 1.67473 -0.989091 0
M  V30 38666 C 3666.82 -0.75306 -3.52138 0
M  V30 38667 C 3666.68 -2.24932 -3.8952 0
M  V30 38668 C 3668 -0.222949 -4.39535 0
M  V30 38669 H 3665.12 -0.17925 -0.714869 0
M  V30 38670 H 3667.76 -1.09728 -1.55112 0
M  V30 38671 H 3665.91 -0.235598 -3.87785 0
M  V30 38672 H 3667.58 -2.83443 -3.63948 0
M  V30 38673 H 3665.82 -2.71987 -3.37943 0
M  V30 38674 H 3666.49 -2.3845 -4.97841 0
M  V30 38675 H 3668.97 -0.665718 -4.1074 0
M  V30 38676 H 3667.85 -0.436903 -5.47158 0
M  V30 38677 H 3668.11 0.875369 -4.33347 0
M  V30 38678 N 3667.17 1.44239 -0.635047 0
M  V30 38679 C 3668.1 2.279 0.116932 0
M  V30 38680 C 3669.08 1.38768 0.847481 0
M  V30 38681 O 3670.26 1.68209 0.850771 0
M  V30 38682 C 3667.39 3.17785 1.17177 0
M  V30 38683 C 3666.43 4.23051 0.541314 0
M  V30 38684 S 3667.27 5.31273 -0.671547 0
M  V30 38685 C 3668.42 6.24726 0.383208 0
M  V30 38686 H 3668.66 2.9133 -0.59279 0
M  V30 38687 H 3666.19 1.48483 -0.423334 0
M  V30 38688 H 3668.15 3.70121 1.77541 0
M  V30 38689 H 3666.81 2.53567 1.85371 0
M  V30 38690 H 3666 4.85973 1.33589 0
M  V30 38691 H 3665.6 3.73998 0.0122049 0
M  V30 38692 H 3667.9 6.65781 1.25465 0
M  V30 38693 H 3668.84 7.07787 -0.210534 0
M  V30 38694 H 3669.25 5.60006 0.710864 0
M  V30 38695 N 3668.64 0.375833 1.53053 0
M  V30 38696 C 3669.55 -0.47345 2.29773 0
M  V30 38697 C 3670.57 -1.08352 1.36146 0
M  V30 38698 O 3671.75 -1.09225 1.69209 0
M  V30 38699 C 3668.81 -1.59239 3.07967 0
M  V30 38700 C 3667.87 -1.00881 4.17279 0
M  V30 38701 C 3667.11 -2.07443 4.91735 0
M  V30 38702 O 3667.33 -3.28728 4.66148 0
M  V30 38703 O 3666.26 -1.69926 5.77416 0
M  V30 38704 H 3670.09 0.151159 3.03324 0
M  V30 38705 H 3667.67 0.139921 1.48743 0
M  V30 38706 H 3669.56 -2.24273 3.56763 0
M  V30 38707 H 3668.23 -2.20221 2.37243 0
M  V30 38708 H 3667.14 -0.322101 3.72711 0
M  V30 38709 H 3668.47 -0.443397 4.90199 0
M  V30 38710 N 3670.12 -1.57248 0.105276 0
M  V30 38711 C 3671.05 -2.11626 -0.880183 0
M  V30 38712 C 3672.07 -1.0558 -1.23922 0
M  V30 38713 O 3673.26 -1.32996 -1.19056 0
M  V30 38714 C 3670.36 -2.58954 -2.18623 0
M  V30 38715 C 3669.53 -3.88946 -2.00098 0
M  V30 38716 C 3668.59 -4.22015 -3.14308 0
M  V30 38717 O 3667.61 -4.91066 -2.87824 0
M  V30 38718 N 3668.82 -3.78233 -4.40363 0
M  V30 38719 H 3671.58 -2.96803 -0.41569 0
M  V30 38720 H 3669.14 -1.61704 -0.0795429 0
M  V30 38721 H 3671.13 -2.78115 -2.93997 0
M  V30 38722 H 3669.7 -1.78731 -2.56464 0
M  V30 38723 H 3668.92 -3.78832 -1.08996 0
M  V30 38724 H 3670.21 -4.73971 -1.8501 0
M  V30 38725 H 3669.61 -3.22514 -4.64759 0
M  V30 38726 H 3668.17 -4.0253 -5.12653 0
M  V30 38727 N 3671.6 0.168458 -1.56697 0
M  V30 38728 C 3672.51 1.22841 -1.99868 0
M  V30 38729 C 3673.53 1.48275 -0.910517 0
M  V30 38730 O 3674.7 1.60368 -1.21837 0
M  V30 38731 C 3671.77 2.5469 -2.35232 0
M  V30 38732 C 3670.83 2.37093 -3.5789 0
M  V30 38733 C 3670.06 3.62654 -3.91558 0
M  V30 38734 O 3670.28 4.67951 -3.26156 0
M  V30 38735 O 3669.22 3.56595 -4.84896 0
M  V30 38736 H 3673.04 0.891964 -2.90306 0
M  V30 38737 H 3670.63 0.375545 -1.44603 0
M  V30 38738 H 3672.51 3.32463 -2.58934 0
M  V30 38739 H 3671.19 2.87908 -1.47955 0
M  V30 38740 H 3670.09 1.57342 -3.39403 0
M  V30 38741 H 3671.43 2.08798 -4.45717 0
M  V30 38742 N 3673.08 1.51417 0.437109 0
M  V30 38743 C 3673.99 1.75592 1.55578 0
M  V30 38744 C 3675 0.64016 1.61796 0
M  V30 38745 O 3676.18 0.922437 1.79034 0
M  V30 38746 C 3673.25 1.87603 2.91558 0
M  V30 38747 C 3672.31 3.11456 2.95455 0
M  V30 38748 C 3671.54 3.22885 4.24948 0
M  V30 38749 O 3671.76 2.40247 5.17337 0
M  V30 38750 O 3670.7 4.15864 4.35133 0
M  V30 38751 H 3674.52 2.70488 1.38093 0
M  V30 38752 H 3672.11 1.35921 0.620139 0
M  V30 38753 H 3673.99 1.97488 3.72259 0
M  V30 38754 H 3672.66 0.958944 3.0917 0
M  V30 38755 H 3671.57 3.0705 2.13708 0
M  V30 38756 H 3672.9 4.02855 2.82787 0
M  V30 38757 N 3674.56 -0.692567 1.41567 0
M  V30 38758 C 3675.78 -1.48632 1.44648 0
M  V30 38759 C 3676.21 -1.88022 0.0541928 0
M  V30 38760 O 3675.56 -1.54829 -0.943278 0
M  V30 38761 C 3675.61 -2.7233 2.36365 0
M  V30 38762 O 3674.72 -3.69931 1.82276 0
M  V30 38763 H 3674.06 -0.447228 0.490799 0
M  V30 38764 H 3676.59 -0.851023 1.86061 0
M  V30 38765 H 3676.6 -3.20605 2.52342 0
M  V30 38766 H 3675.27 -2.42998 3.37527 0
M  V30 38767 H 3673.85 -3.28879 1.75764 0
M  V30 38768 N 3676.03 -1.27445 -0.927123 0
M  V30 38769 C 3677.45 -1.12523 -1.48982 0
M  V30 38770 C 3677.8 0.289568 -1.94051 0
M  V30 38771 O 3676.92 1.18254 -1.81232 0
M  V30 38772 C 3677.52 -2.03651 -2.70761 0
M  V30 38773 C 3676.08 -1.92833 -3.23253 0
M  V30 38774 C 3675.22 -1.96173 -1.95988 0
M  V30 38775 H 3678.17 -1.40329 -0.741172 0
M  V30 38776 H 3678.19 -1.59266 -3.45564 0
M  V30 38777 H 3677.71 -3.06614 -2.37928 0
M  V30 38778 H 3675.81 -0.92858 -3.60844 0
M  V30 38779 H 3675.92 -2.79103 -3.89408 0
M  V30 38780 H 3674.28 -1.40405 -2.12505 0
M  V30 38781 H 3675.07 -3.00791 -1.65467 0
M  V30 38782 N 3677.51 1.1337 -1.09476 0
M  V30 38783 C 3678.92 1.66208 -0.850408 0
M  V30 38784 C 3679.27 1.86112 0.621039 0
M  V30 38785 O 3678.4 1.58031 1.47835 0
M  V30 38786 C 3678.99 3.01921 -1.53718 0
M  V30 38787 C 3677.55 3.51748 -1.33978 0
M  V30 38788 C 3676.7 2.26982 -1.59294 0
M  V30 38789 H 3679.65 0.972852 -1.25385 0
M  V30 38790 H 3679.67 3.67913 -0.970568 0
M  V30 38791 H 3679.18 2.87402 -2.60809 0
M  V30 38792 H 3677.29 3.71469 -0.290063 0
M  V30 38793 H 3677.4 4.31835 -2.07497 0
M  V30 38794 H 3675.76 2.33598 -1.01509 0
M  V30 38795 H 3676.55 2.15028 -2.67615 0
M  V30 38796 N 3678.99 0.882035 1.30606 0
M  V30 38797 C 3679.9 0.350544 2.31966 0
M  V30 38798 C 3680.92 -0.545721 1.65221 0
M  V30 38799 O 3682.09 -0.439547 1.96545 0
M  V30 38800 C 3679.16 -0.428864 3.44037 0
M  V30 38801 C 3678.22 0.496802 4.26416 0
M  V30 38802 C 3677.45 -0.245503 5.33135 0
M  V30 38803 O 3677.67 -1.47199 5.5108 0
M  V30 38804 O 3676.61 0.402873 6.0055 0
M  V30 38805 H 3680.43 1.191 2.79372 0
M  V30 38806 H 3678.02 0.645778 1.34722 0
M  V30 38807 H 3679.9 -0.870273 4.12316 0
M  V30 38808 H 3678.58 -1.24567 2.98772 0
M  V30 38809 H 3677.48 0.986962 3.60846 0
M  V30 38810 H 3678.82 1.27954 4.75278 0
M  V30 38811 N 3680.47 -1.439 0.642688 0
M  V30 38812 C 3681.38 -2.34533 -0.056205 0
M  V30 38813 C 3682.39 -1.53283 -0.82343 0
M  V30 38814 O 3683.57 -1.85972 -0.77307 0
M  V30 38815 C 3680.64 -3.31423 -1.01781 0
M  V30 38816 C 3679.7 -4.28579 -0.248683 0
M  V30 38817 C 3678.93 -5.20841 -1.16448 0
M  V30 38818 O 3679.15 -5.17288 -2.40352 0
M  V30 38819 O 3678.09 -5.9846 -0.642566 0
M  V30 38820 H 3681.91 -2.95769 0.689528 0
M  V30 38821 H 3679.5 -1.43866 0.402872 0
M  V30 38822 H 3681.38 -3.91032 -1.57073 0
M  V30 38823 H 3680.05 -2.72705 -1.74395 0
M  V30 38824 H 3678.96 -3.72482 0.34756 0
M  V30 38825 H 3680.29 -4.9025 0.437676 0
M  V30 38826 N 3681.95 -0.383945 -1.52852 0
M  V30 38827 C 3683.22 0.257256 -1.93901 0
M  V30 38828 C 3683.6 1.64821 -1.31898 0
M  V30 38829 O 3682.95 2.23293 -0.485026 0
M  V30 38830 C 3683.16 0.289003 -3.47801 0
M  V30 38831 C 3684.51 0.520537 -4.21397 0
M  V30 38832 O 3685.53 0.36944 -3.54279 0
M  V30 38833 O 3684.39 0.816159 -5.40371 0
M  V30 38834 H 3681.49 0.158544 -0.811661 0
M  V30 38835 H 3684.03 -0.438063 -1.63948 0
M  V30 38836 H 3682.81 -0.685509 -3.85249 0
M  V30 38837 H 3682.43 1.02947 -3.84041 0
M  V30 38838 N 3683.43 1.5719 -0.113614 0
M  V30 38839 C 3684.65 1.99357 0.553557 0
M  V30 38840 C 3685.07 0.993182 1.60566 0
M  V30 38841 O 3684.43 -0.0146931 1.82494 0
M  V30 38842 C 3684.48 3.41541 1.18456 0
M  V30 38843 O 3684.2 4.37752 0.174525 0
M  V30 38844 C 3685.7 3.98811 1.93557 0
M  V30 38845 H 3682.92 0.654703 0.146987 0
M  V30 38846 H 3685.46 2.03536 -0.198365 0
M  V30 38847 H 3683.62 3.38319 1.8873 0
M  V30 38848 H 3684.03 5.20675 0.632303 0
M  V30 38849 H 3685.51 5.00395 2.33043 0
M  V30 38850 H 3685.98 3.37653 2.80868 0
M  V30 38851 H 3686.59 4.05563 1.28058 0
M  V30 38852 N 3684.9 -0.160146 1.56784 0
M  V30 38853 C 3685.81 -1.2178 2.00517 0
M  V30 38854 C 3686.83 -1.4779 0.918367 0
M  V30 38855 O 3688.01 -1.59719 1.22686 0
M  V30 38856 C 3685.07 -2.53439 2.36579 0
M  V30 38857 C 3684.13 -2.35192 3.59143 0
M  V30 38858 C 3683.36 -3.60573 3.93475 0
M  V30 38859 O 3683.59 -4.66215 3.28634 0
M  V30 38860 O 3682.52 -3.54018 4.8678 0
M  V30 38861 H 3686.35 -0.876556 2.90775 0
M  V30 38862 H 3683.93 -0.367871 1.448 0
M  V30 38863 H 3685.81 -3.31085 2.60693 0
M  V30 38864 H 3684.49 -2.87119 1.49479 0
M  V30 38865 H 3683.4 -1.5554 3.40232 0
M  V30 38866 H 3684.73 -2.06432 4.46819 0
M  V30 38867 N 3686.38 -1.51647 -0.429072 0
M  V30 38868 C 3687.8 -1.40006 -0.766192 0
M  V30 38869 C 3688 -0.488871 -1.9548 0
M  V30 38870 O 3687.05 0.0528657 -2.52445 0
M  V30 38871 C 3688.37 -2.82186 -1.03881 0
M  V30 38872 C 3689.91 -2.91394 -1.14275 0
M  V30 38873 C 3690.39 -4.34499 -1.44825 0
M  V30 38874 N 3691.88 -4.37643 -1.51732 0
M  V30 38875 C 3692.62 -5.45411 -1.76959 0
M  V30 38876 N 3692.11 -6.63327 -1.99922 0
M  V30 38877 N 3693.9 -5.32901 -1.78809 0
M  V30 38878 H 3686.06 -2.09436 0.353617 0
M  V30 38879 H 3688.32 -0.943143 0.0958354 0
M  V30 38880 H 3688.02 -3.50894 -0.238041 0
M  V30 38881 H 3687.9 -3.22018 -1.96429 0
M  V30 38882 H 3690.29 -2.22879 -1.93414 0
M  V30 38883 H 3690.37 -2.55047 -0.196095 0
M  V30 38884 H 3690.01 -5.03566 -0.662112 0
M  V30 38885 H 3689.94 -4.68365 -2.4071 0
M  V30 38886 H 3692.43 -3.52635 -1.35856 0
M  V30 38887 H 3692.74 -7.41248 -2.18565 0
M  V30 38888 H 3691.09 -6.66428 -1.97228 0
M  V30 38889 H 3694.28 -4.39763 -1.60394 0
M  V30 38890 H 3694.45 -6.16967 -1.98131 0
M  V30 38891 N 3687.86 0.685049 -1.41932 0
M  V30 38892 C 3689.09 1.47362 -1.45231 0
M  V30 38893 C 3689.5 1.88703 -0.0606281 0
M  V30 38894 O 3688.86 1.57473 0.922413 0
M  V30 38895 C 3688.91 2.72938 -2.37038 0
M  V30 38896 O 3688.63 2.33335 -3.70791 0
M  V30 38897 C 3690.13 3.66591 -2.4925 0
M  V30 38898 H 3687.35 0.453773 -0.494299 0
M  V30 38899 H 3689.9 0.842597 -1.86335 0
M  V30 38900 H 3688.05 3.32253 -1.99215 0
M  V30 38901 H 3688.47 3.14355 -4.19859 0
M  V30 38902 H 3689.94 4.51458 -3.17632 0
M  V30 38903 H 3690.42 4.11796 -1.5271 0
M  V30 38904 H 3691.02 3.13175 -2.87752 0
M  V30 38905 N 3689.34 1.27935 0.920351 0
M  V30 38906 C 3690.27 1.07093 2.02642 0
M  V30 38907 C 3691.28 0.0247027 1.62781 0
M  V30 38908 O 3692.47 0.267055 1.76491 0
M  V30 38909 C 3689.57 0.603978 3.33475 0
M  V30 38910 C 3688.74 1.72414 4.01985 0
M  V30 38911 C 3687.8 1.25168 5.11096 0
M  V30 38912 O 3686.83 1.95271 5.34657 0
M  V30 38913 N 3688.03 0.111299 5.80393 0
M  V30 38914 H 3690.8 2.02344 2.21082 0
M  V30 38915 H 3688.36 1.19599 1.09122 0
M  V30 38916 H 3690.35 0.27165 4.03787 0
M  V30 38917 H 3688.92 -0.255502 3.11554 0
M  V30 38918 H 3688.14 2.22639 3.25309 0
M  V30 38919 H 3689.43 2.47573 4.44505 0
M  V30 38920 H 3688.83 -0.473647 5.63714 0
M  V30 38921 H 3687.38 -0.161798 6.51599 0
M  V30 38922 N 3690.82 -1.12788 1.10076 0
M  V30 38923 C 3692.06 -1.83571 0.835748 0
M  V30 38924 C 3692.38 -1.84806 -0.640799 0
M  V30 38925 O 3693.58 -2.51547 -1.02158 0
M  V30 38926 C 3692.04 -3.29607 1.44525 0
M  V30 38927 C 3691.65 -3.36741 2.95482 0
M  V30 38928 C 3693.39 -4.05386 1.25947 0
M  V30 38929 C 3691.3 -4.77089 3.49485 0
M  V30 38930 H 3690.23 -0.687782 0.308986 0
M  V30 38931 H 3692.88 -1.27023 1.32429 0
M  V30 38932 H 3691.26 -3.85998 0.884391 0
M  V30 38933 H 3692.44 -2.90309 3.57851 0
M  V30 38934 H 3690.75 -2.74432 3.13171 0
M  V30 38935 H 3693.35 -5.09012 1.63741 0
M  V30 38936 H 3693.69 -4.15816 0.200706 0
M  V30 38937 H 3694.22 -3.55342 1.7882 0
M  V30 38938 H 3690.96 -4.71852 4.55012 0
M  V30 38939 H 3690.48 -5.23989 2.91882 0
M  V30 38940 H 3692.16 -5.46022 3.47086 0
M  V30 38941 N 3692.29 -0.888949 -1.30136 0
M  V30 38942 C 3693.24 -0.348253 -2.29978 0
M  V30 38943 C 3694.24 0.546866 -1.6033 0
M  V30 38944 O 3695.44 0.430859 -1.74767 0
M  V30 38945 H 3691.82 -0.0939694 -0.746106 0
M  V30 38946 H 3693.79 -1.2039 -2.73036 0
M  V30 38947 C 3692.54 0.418701 -3.4517 0
M  V30 38948 H 3691.86 -0.260831 -3.98948 0
M  V30 38949 H 3693.3 0.76206 -4.17095 0
M  V30 38950 C 3691.76 1.61729 -2.95542 0
M  V30 38951 O 3692.29 2.71665 -2.95907 0
M  V30 38952 N 3690.49 1.4558 -2.51505 0
M  V30 38953 H 3690.04 0.561438 -2.51407 0
M  V30 38954 H 3690 2.25912 -2.18658 0
M  V30 38955 N 3693.77 1.43557 -0.65031 0
M  V30 38956 C 3695.02 2.02146 -0.162761 0
M  V30 38957 C 3695.35 1.51169 1.21909 0
M  V30 38958 O 3694.63 0.703595 1.81328 0
M  V30 38959 C 3694.91 3.59697 -0.170419 0
M  V30 38960 C 3694.76 4.20912 -1.58597 0
M  V30 38961 C 3696.08 4.3731 0.494755 0
M  V30 38962 H 3693.2 0.734503 -0.0606184 0
M  V30 38963 H 3695.84 1.70891 -0.830441 0
M  V30 38964 H 3693.99 3.86455 0.398122 0
M  V30 38965 H 3695.66 4.05195 -2.20488 0
M  V30 38966 H 3693.91 3.77673 -2.13414 0
M  V30 38967 H 3694.58 5.2999 -1.54321 0
M  V30 38968 H 3697.05 4.16099 0.011055 0
M  V30 38969 H 3695.93 5.4698 0.458657 0
M  V30 38970 H 3696.19 4.13345 1.56839 0
M  V30 38971 N 3695.25 0.392045 1.52646 0
M  V30 38972 C 3696.18 -0.433188 2.29447 0
M  V30 38973 C 3697.16 -1.06109 1.32947 0
M  V30 38974 O 3698.35 -1.07334 1.61842 0
M  V30 38975 C 3695.48 -1.55924 3.10331 0
M  V30 38976 C 3694.43 -1.05723 4.14737 0
M  V30 38977 C 3693.76 -2.27557 4.83862 0
M  V30 38978 C 3695.06 -0.123254 5.22155 0
M  V30 38979 H 3696.75 0.207615 2.98679 0
M  V30 38980 H 3694.3 0.101292 1.43643 0
M  V30 38981 H 3696.25 -2.14339 3.62818 0
M  V30 38982 H 3694.97 -2.22767 2.38836 0
M  V30 38983 H 3693.63 -0.495589 3.63235 0
M  V30 38984 H 3693.28 -2.92916 4.08913 0
M  V30 38985 H 3692.98 -1.94627 5.54431 0
M  V30 38986 H 3694.5 -2.8661 5.39154 0
M  V30 38987 H 3695.92 -0.615684 5.69984 0
M  V30 38988 H 3694.31 0.116409 5.99987 0
M  V30 38989 H 3695.38 0.827053 4.77795 0
M  V30 38990 N 3696.73 -1.57127 0.121948 0
M  V30 38991 C 3697.69 -2.14301 -0.812867 0
M  V30 38992 C 3698.69 -1.0786 -1.19259 0
M  V30 38993 O 3699.88 -1.33623 -1.11762 0
M  V30 38994 C 3697.01 -2.68566 -2.09965 0
M  V30 38995 H 3698.21 -2.98231 -0.31594 0
M  V30 38996 H 3695.76 -1.55781 -0.127312 0
M  V30 38997 H 3696.49 -1.88232 -2.64082 0
M  V30 38998 H 3696.28 -3.46415 -1.83682 0
M  V30 38999 H 3697.77 -3.127 -2.76783 0
M  V30 39000 N 3698.21 0.151829 -1.56867 0
M  V30 39001 C 3699.45 0.866534 -1.83355 0
M  V30 39002 C 3699.79 1.81036 -0.702816 0
M  V30 39003 O 3699.06 1.92267 0.29391 0
M  V30 39004 C 3699.34 1.64524 -3.20319 0
M  V30 39005 C 3699.2 0.723219 -4.43948 0
M  V30 39006 C 3700.52 2.60876 -3.54446 0
M  V30 39007 H 3697.63 0.313576 -0.666963 0
M  V30 39008 H 3700.28 0.131921 -1.89541 0
M  V30 39009 H 3698.43 2.27149 -3.15176 0
M  V30 39010 H 3700.1 0.108339 -4.61173 0
M  V30 39011 H 3698.34 0.0324819 -4.33788 0
M  V30 39012 H 3699.01 1.30401 -5.36376 0
M  V30 39013 H 3701.49 2.0837 -3.60168 0
M  V30 39014 H 3700.36 3.12414 -4.51319 0
M  V30 39015 H 3700.63 3.42004 -2.80152 0
M  V30 39016 N 3699.68 1.51872 0.421024 0
M  V30 39017 C 3700.62 1.70575 1.53091 0
M  V30 39018 C 3701.63 0.586227 1.51879 0
M  V30 39019 O 3702.82 0.861041 1.5636 0
M  V30 39020 C 3699.92 1.72016 2.91999 0
M  V30 39021 C 3699.09 3.00815 3.17536 0
M  V30 39022 C 3698.15 2.94227 4.36253 0
M  V30 39023 O 3697.18 3.68151 4.34112 0
M  V30 39024 N 3698.38 2.11197 5.40718 0
M  V30 39025 H 3701.14 2.66325 1.37446 0
M  V30 39026 H 3698.7 1.49961 0.610178 0
M  V30 39027 H 3700.7 1.65155 3.69467 0
M  V30 39028 H 3699.27 0.837914 3.01161 0
M  V30 39029 H 3698.49 3.21418 2.28219 0
M  V30 39030 H 3699.77 3.86043 3.31434 0
M  V30 39031 H 3699.17 1.50544 5.45301 0
M  V30 39032 H 3697.73 2.10203 6.16975 0
M  V30 39033 N 3701.16 -0.677513 1.42294 0
M  V30 39034 C 3702.13 -1.77291 1.45261 0
M  V30 39035 C 3703.13 -1.57152 0.340582 0
M  V30 39036 O 3704.32 -1.63494 0.601288 0
M  V30 39037 C 3701.45 -3.15892 1.28161 0
M  V30 39038 H 3702.64 -1.76048 2.4279 0
M  V30 39039 H 3700.19 -0.886885 1.28701 0
M  V30 39040 H 3700.93 -3.22762 0.315437 0
M  V30 39041 H 3700.71 -3.31912 2.0875 0
M  V30 39042 H 3702.2 -3.95816 1.33114 0
M  V30 39043 N 3702.64 -1.28421 -0.913554 0
M  V30 39044 C 3703.89 -1.14964 -1.65729 0
M  V30 39045 C 3704.2 0.301045 -1.93269 0
M  V30 39046 O 3705.41 0.556731 -2.65731 0
M  V30 39047 C 3703.86 -2.00975 -2.98559 0
M  V30 39048 C 3703.47 -3.50785 -2.78665 0
M  V30 39049 C 3705.22 -1.96205 -3.76436 0
M  V30 39050 C 3703.12 -4.28945 -4.07136 0
M  V30 39051 H 3702.05 -0.426659 -0.621673 0
M  V30 39052 H 3704.7 -1.52954 -1.01377 0
M  V30 39053 H 3703.09 -1.55841 -3.64046 0
M  V30 39054 H 3704.26 -4.03877 -2.21856 0
M  V30 39055 H 3702.58 -3.57082 -2.142 0
M  V30 39056 H 3705.17 -2.51869 -4.71663 0
M  V30 39057 H 3705.52 -0.938843 -4.05575 0
M  V30 39058 H 3706.05 -2.39308 -3.17768 0
M  V30 39059 H 3702.79 -5.31847 -3.83169 0
M  V30 39060 H 3702.31 -3.80627 -4.63555 0
M  V30 39061 H 3703.99 -4.38875 -4.75392 0
M  V30 39062 N 3704.12 1.12202 -1.10672 0
M  V30 39063 C 3705.35 1.87585 -0.8729 0
M  V30 39064 C 3705.76 1.79774 0.576789 0
M  V30 39065 O 3705.12 1.17336 1.3978 0
M  V30 39066 C 3705.17 3.36704 -1.31578 0
M  V30 39067 O 3704.89 3.44333 -2.70862 0
M  V30 39068 C 3706.39 4.29017 -1.1162 0
M  V30 39069 H 3703.61 0.59345 -0.313143 0
M  V30 39070 H 3706.16 1.41957 -1.47202 0
M  V30 39071 H 3704.31 3.79866 -0.760279 0
M  V30 39072 H 3704.72 4.37127 -2.89862 0
M  V30 39073 H 3706.2 5.31923 -1.4752 0
M  V30 39074 H 3706.68 4.39166 -0.055047 0
M  V30 39075 H 3707.28 3.91639 -1.65829 0
M  V30 39076 N 3705.6 0.895838 1.29663 0
M  V30 39077 C 3706.82 0.534368 2.00398 0
M  V30 39078 C 3707.25 -0.872625 1.66634 0
M  V30 39079 O 3706.6 -1.58017 0.888839 0
M  V30 39080 C 3706.65 0.729085 3.53153 0
M  V30 39081 O 3705.76 -0.220158 4.11812 0
M  V30 39082 H 3705.1 0.209244 0.630169 0
M  V30 39083 H 3707.63 1.20637 1.65251 0
M  V30 39084 H 3707.64 0.63225 4.03071 0
M  V30 39085 H 3706.31 1.75487 3.77064 0
M  V30 39086 H 3704.89 -0.0761031 3.72822 0
M  V30 39087 N 3707.07 -1.43211 0.657914 0
M  V30 39088 C 3708 -2.33494 -0.0171704 0
M  V30 39089 C 3708.99 -1.49735 -0.807061 0
M  V30 39090 O 3710.17 -1.78386 -0.7676 0
M  V30 39091 C 3707.3 -3.33158 -0.98097 0
M  V30 39092 C 3706.25 -4.26941 -0.300865 0
M  V30 39093 C 3705.58 -5.1668 -1.37644 0
M  V30 39094 C 3706.88 -5.15986 0.809663 0
M  V30 39095 H 3708.57 -2.90192 0.7368 0
M  V30 39096 H 3706.12 -1.39536 0.355768 0
M  V30 39097 H 3708.07 -3.95219 -1.46219 0
M  V30 39098 H 3706.8 -2.74726 -1.76616 0
M  V30 39099 H 3705.46 -3.66251 0.159957 0
M  V30 39100 H 3705.1 -4.54585 -2.15318 0
M  V30 39101 H 3704.8 -5.80248 -0.926602 0
M  V30 39102 H 3706.33 -5.81615 -1.85893 0
M  V30 39103 H 3707.74 -5.71829 0.410398 0
M  V30 39104 H 3706.14 -5.88299 1.18425 0
M  V30 39105 H 3707.21 -4.55394 1.66566 0
M  V30 39106 N 3708.55 -0.400135 -1.52436 0
M  V30 39107 C 3709.8 0.178834 -2.0201 0
M  V30 39108 C 3710.13 1.45552 -1.28563 0
M  V30 39109 O 3709.41 1.90565 -0.389269 0
M  V30 39110 C 3709.69 0.435721 -3.57454 0
M  V30 39111 C 3709.54 -0.857007 -4.4156 0
M  V30 39112 C 3710.86 1.22173 -4.22802 0
M  V30 39113 H 3707.98 0.0635221 -0.734257 0
M  V30 39114 H 3710.62 -0.531833 -1.82405 0
M  V30 39115 H 3708.77 1.04111 -3.7429 0
M  V30 39116 H 3710.44 -1.49351 -4.36454 0
M  V30 39117 H 3708.69 -1.46997 -4.08135 0
M  V30 39118 H 3709.36 -0.631772 -5.48373 0
M  V30 39119 H 3711.83 0.709287 -4.1001 0
M  V30 39120 H 3710.71 1.37021 -5.31523 0
M  V30 39121 H 3710.97 2.23991 -3.81157 0
M  V30 39122 N 3710.03 1.57061 -0.13028 0
M  V30 39123 C 3710.96 2.18921 0.812151 0
M  V30 39124 C 3711.94 1.13251 1.26918 0
M  V30 39125 O 3713.13 1.41531 1.32976 0
M  V30 39126 C 3710.26 2.79758 2.05798 0
M  V30 39127 C 3709.21 3.91108 1.73834 0
M  V30 39128 C 3708.54 4.38804 3.05541 0
M  V30 39129 C 3709.84 5.12678 0.997901 0
M  V30 39130 H 3711.53 2.97927 0.29664 0
M  V30 39131 H 3709.08 1.43306 0.141239 0
M  V30 39132 H 3711.03 3.21695 2.72195 0
M  V30 39133 H 3709.75 1.98058 2.59693 0
M  V30 39134 H 3708.41 3.49764 1.09822 0
M  V30 39135 H 3708.06 3.53948 3.57393 0
M  V30 39136 H 3707.76 5.13899 2.84923 0
M  V30 39137 H 3709.28 4.834 3.73037 0
M  V30 39138 H 3710.7 5.51565 1.56362 0
M  V30 39139 H 3709.1 5.93429 0.892274 0
M  V30 39140 H 3710.17 4.84898 -0.0133789 0
M  V30 39141 N 3711.51 -0.143508 1.56945 0
M  V30 39142 C 3712.73 -0.874352 1.88069 0
M  V30 39143 C 3713.16 -1.73788 0.719676 0
M  V30 39144 O 3712.52 -1.7826 -0.330622 0
M  V30 39145 C 3712.57 -1.70402 3.17798 0
M  V30 39146 O 3711.67 -2.80862 3.01978 0
M  V30 39147 H 3711.01 -0.243319 0.617812 0
M  V30 39148 H 3713.54 -0.133273 2.04165 0
M  V30 39149 H 3713.55 -2.09832 3.49906 0
M  V30 39150 H 3712.23 -1.06994 4.01902 0
M  V30 39151 H 3710.8 -2.44813 2.81284 0
M  V30 39152 N 3712.99 -1.52093 -0.412964 0
M  V30 39153 C 3713.95 -1.74542 -1.48552 0
M  V30 39154 C 3714.95 -0.615309 -1.48562 0
M  V30 39155 O 3716.14 -0.883145 -1.50154 0
M  V30 39156 C 3713.27 -1.82428 -2.87981 0
M  V30 39157 H 3714.47 -2.70288 -1.2994 0
M  V30 39158 H 3712.02 -1.42451 -0.643216 0
M  V30 39159 H 3712.75 -0.885832 -3.11967 0
M  V30 39160 H 3712.54 -2.64582 -2.89377 0
M  V30 39161 H 3714.03 -2.01551 -3.65742 0
M  V30 39162 N 3714.47 0.669957 -1.42651 0
M  V30 39163 C 3715.4 1.79472 -1.40943 0
M  V30 39164 C 3716.38 1.60291 -0.273046 0
M  V30 39165 O 3717.56 1.82699 -0.464026 0
M  V30 39166 C 3714.69 3.16542 -1.20495 0
M  V30 39167 C 3713.73 3.54462 -2.3719 0
M  V30 39168 S 3714.57 3.56339 -3.99729 0
M  V30 39169 C 3715.72 4.96092 -3.81632 0
M  V30 39170 H 3715.96 1.80648 -2.36122 0
M  V30 39171 H 3713.49 0.841069 -1.29481 0
M  V30 39172 H 3715.45 3.95658 -1.09384 0
M  V30 39173 H 3714.11 3.12947 -0.268931 0
M  V30 39174 H 3713.3 4.54105 -2.18644 0
M  V30 39175 H 3712.9 2.82717 -2.4484 0
M  V30 39176 H 3715.19 5.84304 -3.42922 0
M  V30 39177 H 3716.14 5.19687 -4.80969 0
M  V30 39178 H 3716.55 4.68838 -3.14406 0
M  V30 39179 N 3715.94 1.28904 0.90673 0
M  V30 39180 C 3717.17 1.19336 1.69017 0
M  V30 39181 C 3717.59 -0.247032 1.87177 0
M  V30 39182 O 3716.94 -1.16621 1.40378 0
M  V30 39183 C 3716.99 1.895 3.07851 0
M  V30 39184 O 3716.72 3.27913 2.90525 0
M  V30 39185 C 3718.22 1.86321 4.02243 0
M  V30 39186 H 3715.44 0.413931 0.528112 0
M  V30 39187 H 3717.98 1.70153 1.13438 0
M  V30 39188 H 3716.14 1.42536 3.60225 0
M  V30 39189 H 3716.55 3.63153 3.78445 0
M  V30 39190 H 3718.02 2.39992 4.97099 0
M  V30 39191 H 3718.5 0.837147 4.31148 0
M  V30 39192 H 3719.11 2.32997 3.55799 0
M  V30 39193 N 3717.42 -1.11614 1.11266 0
M  V30 39194 C 3718.67 -1.83584 0.861671 0
M  V30 39195 C 3719 -1.84332 -0.611189 0
M  V30 39196 O 3718.28 -1.29508 -1.45114 0
M  V30 39197 C 3718.56 -3.3085 1.42163 0
M  V30 39198 C 3718.41 -3.38507 2.96198 0
M  V30 39199 C 3719.73 -4.26868 1.07106 0
M  V30 39200 H 3716.85 -0.666539 0.314475 0
M  V30 39201 H 3719.49 -1.30889 1.37724 0
M  V30 39202 H 3717.64 -3.75855 0.98312 0
M  V30 39203 H 3719.31 -3.02074 3.48639 0
M  V30 39204 H 3717.56 -2.78784 3.32358 0
M  V30 39205 H 3718.23 -4.42151 3.30465 0
M  V30 39206 H 3720.7 -3.90034 1.44959 0
M  V30 39207 H 3719.58 -5.28299 1.48966 0
M  V30 39208 H 3719.84 -4.42096 -0.0184043 0
M  V30 39209 N 3718.9 -0.902701 -1.29186 0
M  V30 39210 C 3720.31 -0.578238 -1.7752 0
M  V30 39211 C 3720.66 0.906196 -1.74019 0
M  V30 39212 O 3719.79 1.70863 -1.32796 0
M  V30 39213 C 3720.38 -1.04287 -3.2235 0
M  V30 39214 C 3718.94 -0.769519 -3.6845 0
M  V30 39215 C 3718.09 -1.21587 -2.49222 0
M  V30 39216 H 3721.04 -1.08512 -1.15806 0
M  V30 39217 H 3721.06 -0.379463 -3.78603 0
M  V30 39218 H 3720.57 -2.12329 -3.24866 0
M  V30 39219 H 3718.67 0.298158 -3.71405 0
M  V30 39220 H 3718.79 -1.36951 -4.59109 0
M  V30 39221 H 3717.15 -0.634809 -2.46662 0
M  V30 39222 H 3717.93 -2.3044 -2.54465 0
M  V30 39223 N 3720.38 1.4286 -0.6655 0
M  V30 39224 C 3721.62 2.01962 -0.184192 0
M  V30 39225 C 3721.96 1.52453 1.20298 0
M  V30 39226 O 3721.23 0.722788 1.80571 0
M  V30 39227 C 3721.51 3.59496 -0.20856 0
M  V30 39228 C 3721.37 4.19206 -1.63053 0
M  V30 39229 C 3722.69 4.3781 0.448344 0
M  V30 39230 H 3719.81 0.733819 -0.0684053 0
M  V30 39231 H 3722.45 1.7 -0.84852 0
M  V30 39232 H 3720.6 3.86855 0.357111 0
M  V30 39233 H 3722.27 4.02833 -2.24773 0
M  V30 39234 H 3720.51 3.75388 -2.17407 0
M  V30 39235 H 3721.18 5.28323 -1.59934 0
M  V30 39236 H 3723.66 4.16087 -0.0330784 0
M  V30 39237 H 3722.54 5.47436 0.400616 0
M  V30 39238 H 3722.8 4.14985 1.52446 0
M  V30 39239 N 3721.86 0.408213 1.52221 0
M  V30 39240 C 3722.82 -0.405811 2.25579 0
M  V30 39241 C 3723.82 -0.974412 1.27913 0
M  V30 39242 O 3725.01 -0.853435 1.51862 0
M  V30 39243 C 3722.14 -1.57116 3.02535 0
M  V30 39244 H 3723.33 0.236693 2.98965 0
M  V30 39245 H 3720.89 0.160714 1.55472 0
M  V30 39246 H 3721.62 -2.25056 2.33496 0
M  V30 39247 H 3721.41 -1.16994 3.74239 0
M  V30 39248 H 3722.9 -2.14701 3.5818 0
M  V30 39249 N 3723.33 -1.56989 0.138607 0
M  V30 39250 C 3724.58 -1.95466 -0.513576 0
M  V30 39251 C 3724.9 -1.02399 -1.6595 0
M  V30 39252 O 3724.17 -0.0839345 -1.9572 0
M  V30 39253 H 3722.75 -0.721713 -0.192716 0
M  V30 39254 H 3725.41 -1.93742 0.212141 0
M  V30 39255 H 3724.51 -2.98984 -0.895261 0
M  V30 39256 N 3724.81 0.135183 -1.57019 0
M  V30 39257 C 3725.76 1.18565 -2.00113 0
M  V30 39258 C 3726.75 1.43802 -0.895397 0
M  V30 39259 O 3727.96 1.43955 -1.0806 0
M  V30 39260 H 3724.33 0.399376 -0.637183 0
M  V30 39261 H 3726.31 0.795585 -2.87599 0
M  V30 39262 C 3725.05 2.50845 -2.40774 0
M  V30 39263 H 3724.38 2.32259 -3.25416 0
M  V30 39264 H 3725.82 3.22947 -2.74739 0
M  V30 39265 C 3724.28 3.12249 -1.26499 0
M  V30 39266 O 3724.81 3.97605 -0.572137 0
M  V30 39267 N 3723.01 2.71878 -1.0262 0
M  V30 39268 H 3722.56 2.02564 -1.5914 0
M  V30 39269 H 3722.52 3.13294 -0.263519 0
M  V30 39270 N 3726.29 1.5231 0.404892 0
M  V30 39271 C 3727.7 1.58694 0.983525 0
M  V30 39272 C 3728.05 0.430026 1.91429 0
M  V30 39273 O 3727.18 -0.449051 2.1169 0
M  V30 39274 C 3727.77 2.8762 1.79054 0
M  V30 39275 C 3726.33 2.96468 2.31913 0
M  V30 39276 C 3725.48 2.53669 1.12014 0
M  V30 39277 H 3728.43 1.57618 0.18498 0
M  V30 39278 H 3728.45 2.73211 2.64832 0
M  V30 39279 H 3727.96 3.71803 1.11285 0
M  V30 39280 H 3726.06 2.16788 3.03041 0
M  V30 39281 H 3726.18 4.00795 2.62488 0
M  V30 39282 H 3724.54 2.07616 1.47538 0
M  V30 39283 H 3725.32 3.4023 0.458051 0
M  V30 39284 N 3727.77 -0.662382 1.43004 0
M  V30 39285 C 3728.73 -1.7574 1.47133 0
M  V30 39286 C 3729.73 -1.56782 0.357231 0
M  V30 39287 O 3730.92 -1.62847 0.618595 0
M  V30 39288 C 3728.05 -3.14515 1.31504 0
M  V30 39289 H 3729.25 -1.73463 2.44644 0
M  V30 39290 H 3726.8 -0.873185 1.29635 0
M  V30 39291 H 3727.53 -3.2241 0.349653 0
M  V30 39292 H 3727.32 -3.2968 2.12259 0
M  V30 39293 H 3728.81 -3.94382 1.37305 0
M  V30 39294 N 3729.25 -1.29383 -0.899882 0
M  V30 39295 C 3730.49 -1.17517 -1.6528 0
M  V30 39296 C 3730.83 0.272754 -1.92275 0
M  V30 39297 O 3730.1 1.19699 -1.53305 0
M  V30 39298 C 3730.38 -1.98872 -3.00203 0
M  V30 39299 C 3730.24 -3.51804 -2.80275 0
M  V30 39300 C 3731.56 -1.81496 -4.00933 0
M  V30 39301 H 3728.67 -0.428273 -0.599792 0
M  V30 39302 H 3731.32 -1.58854 -1.04238 0
M  V30 39303 H 3729.47 -1.63748 -3.52305 0
M  V30 39304 H 3731.14 -3.9691 -2.35075 0
M  V30 39305 H 3729.38 -3.76737 -2.15062 0
M  V30 39306 H 3730.05 -4.04 -3.76148 0
M  V30 39307 H 3732.53 -2.12175 -3.5794 0
M  V30 39308 H 3731.4 -2.40769 -4.93276 0
M  V30 39309 H 3731.67 -0.770098 -4.35341 0
M  V30 39310 N 3730.72 1.11022 -1.11856 0
M  V30 39311 C 3731.95 1.87189 -0.893032 0
M  V30 39312 C 3732.37 1.79817 0.552026 0
M  V30 39313 O 3731.73 1.16371 1.39023 0
M  V30 39314 C 3731.78 3.33777 -1.36475 0
M  V30 39315 O 3730.88 4.08859 -0.539274 0
M  V30 39316 H 3730.23 0.581071 -0.32133 0
M  V30 39317 H 3732.76 1.40308 -1.48912 0
M  V30 39318 H 3732.77 3.84625 -1.36117 0
M  V30 39319 H 3731.44 3.38458 -2.417 0
M  V30 39320 H 3730.02 3.67888 -0.609335 0
M  V30 39321 N 3732.2 0.90954 1.28706 0
M  V30 39322 C 3733.44 0.547556 1.96929 0
M  V30 39323 C 3733.81 -0.891387 1.70054 0
M  V30 39324 O 3735.01 -1.36074 2.31813 0
M  V30 39325 C 3733.28 0.843287 3.47309 0
M  V30 39326 S 3734.84 0.587089 4.34855 0
M  V30 39327 H 3731.66 0.202765 0.681475 0
M  V30 39328 H 3734.26 1.17409 1.56318 0
M  V30 39329 H 3732.96 1.88857 3.64364 0
M  V30 39330 H 3732.49 0.205248 3.92864 0
M  V30 39331 H 3734.51 -0.563474 4.9299 0
M  V30 39332 N 3733.68 -1.42505 0.673067 0
M  V30 39333 C 3734.61 -2.33499 0.00759571 0
M  V30 39334 C 3735.59 -1.50582 -0.791134 0
M  V30 39335 O 3736.78 -1.7919 -0.748636 0
M  V30 39336 C 3733.91 -3.3418 -0.945579 0
M  V30 39337 C 3732.86 -4.27236 -0.255565 0
M  V30 39338 C 3732.19 -5.18111 -1.32156 0
M  V30 39339 C 3733.49 -5.15098 0.864345 0
M  V30 39340 H 3735.18 -2.89395 0.767538 0
M  V30 39341 H 3732.73 -1.39151 0.370548 0
M  V30 39342 H 3734.68 -3.96747 -1.42019 0
M  V30 39343 H 3733.4 -2.76584 -1.73692 0
M  V30 39344 H 3732.06 -3.66061 0.198794 0
M  V30 39345 H 3731.71 -4.56843 -2.10484 0
M  V30 39346 H 3731.41 -5.81198 -0.865006 0
M  V30 39347 H 3732.93 -5.83554 -1.79714 0
M  V30 39348 H 3734.35 -5.71362 0.471025 0
M  V30 39349 H 3732.75 -5.8701 1.24658 0
M  V30 39350 H 3733.82 -4.53602 1.71386 0
M  V30 39351 N 3735.16 -0.41628 -1.52003 0
M  V30 39352 C 3736.07 0.412363 -2.30947 0
M  V30 39353 C 3737.08 1.04705 -1.38971 0
M  V30 39354 O 3738.26 1.047 -1.72046 0
M  V30 39355 C 3735.33 1.51018 -3.12081 0
M  V30 39356 C 3734.39 0.897818 -4.19807 0
M  V30 39357 C 3733.62 1.94332 -4.97062 0
M  V30 39358 O 3733.84 3.16253 -4.747 0
M  V30 39359 O 3732.78 1.54557 -5.81718 0
M  V30 39360 H 3736.6 -0.231527 -3.02816 0
M  V30 39361 H 3734.19 -0.179309 -1.4832 0
M  V30 39362 H 3736.07 2.14735 -3.62584 0
M  V30 39363 H 3734.74 2.13854 -2.42998 0
M  V30 39364 H 3733.65 0.22317 -3.73434 0
M  V30 39365 H 3734.98 0.313274 -4.91202 0
M  V30 39366 N 3736.64 1.56914 -0.146931 0
M  V30 39367 C 3737.57 2.13885 0.823765 0
M  V30 39368 C 3738.58 1.08828 1.21079 0
M  V30 39369 O 3739.77 1.36106 1.15488 0
M  V30 39370 C 3736.87 2.64659 2.11681 0
M  V30 39371 C 3736.04 3.94115 1.89716 0
M  V30 39372 C 3735.1 4.302 3.03008 0
M  V30 39373 O 3734.13 4.98525 2.74703 0
M  V30 39374 N 3735.33 3.89776 4.3018 0
M  V30 39375 H 3738.1 2.97801 0.336852 0
M  V30 39376 H 3735.66 1.61859 0.0366419 0
M  V30 39377 H 3737.65 2.85812 2.8652 0
M  V30 39378 H 3736.22 1.85468 2.51635 0
M  V30 39379 H 3735.44 3.81588 0.989141 0
M  V30 39380 H 3736.73 4.7871 1.72378 0
M  V30 39381 H 3736.12 3.34723 4.56045 0
M  V30 39382 H 3734.68 4.15981 5.018 0
M  V30 39383 N 3738.11 -0.126854 1.57089 0
M  V30 39384 C 3739.05 -1.1815 1.96401 0
M  V30 39385 C 3740.06 -1.38087 0.862312 0
M  V30 39386 O 3741.25 -1.37301 1.14064 0
M  V30 39387 C 3738.35 -2.54291 2.2403 0
M  V30 39388 C 3737.52 -2.55062 3.55334 0
M  V30 39389 C 3736.58 -3.7289 3.71268 0
M  V30 39390 O 3735.61 -3.56836 4.4346 0
M  V30 39391 N 3736.81 -4.91146 3.09444 0
M  V30 39392 H 3739.57 -0.847166 2.87477 0
M  V30 39393 H 3737.13 -0.316214 1.58782 0
M  V30 39394 H 3739.13 -3.31661 2.31912 0
M  V30 39395 H 3737.7 -2.79937 1.39119 0
M  V30 39396 H 3736.92 -1.63462 3.58711 0
M  V30 39397 H 3738.2 -2.52626 4.41653 0
M  V30 39398 H 3737.6 -5.07093 2.50745 0
M  V30 39399 H 3736.16 -5.66221 3.22858 0
M  V30 39400 N 3739.59 -1.52523 -0.396809 0
M  V30 39401 C 3741 -1.59213 -0.975096 0
M  V30 39402 C 3741.35 -0.440172 -1.91199 0
M  V30 39403 O 3740.48 0.437818 -2.11925 0
M  V30 39404 C 3741.07 -2.88566 -1.77526 0
M  V30 39405 C 3739.63 -2.97694 -2.30337 0
M  V30 39406 C 3738.78 -2.5426 -1.10667 0
M  V30 39407 H 3741.73 -1.57714 -0.176618 0
M  V30 39408 H 3741.75 -2.74612 -2.63379 0
M  V30 39409 H 3741.26 -3.72388 -1.09311 0
M  V30 39410 H 3739.37 -2.18392 -3.01887 0
M  V30 39411 H 3739.48 -4.02182 -2.60359 0
M  V30 39412 H 3737.84 -2.08396 -1.46435 0
M  V30 39413 H 3738.63 -3.40469 -0.440001 0
M  V30 39414 N 3741.07 0.654789 -1.43354 0
M  V30 39415 C 3742.49 0.970275 -1.26719 0
M  V30 39416 C 3742.69 2.00642 -0.185783 0
M  V30 39417 O 3741.74 2.48702 0.436313 0
M  V30 39418 C 3743.06 1.45603 -2.63097 0
M  V30 39419 C 3744.6 1.57276 -2.70616 0
M  V30 39420 C 3745.08 2.09243 -4.07408 0
M  V30 39421 N 3746.57 2.16548 -4.09465 0
M  V30 39422 C 3747.31 2.57876 -5.1214 0
M  V30 39423 N 3746.8 2.98512 -6.2519 0
M  V30 39424 N 3748.59 2.57802 -4.99494 0
M  V30 39425 H 3740.75 -0.0308704 -2.12378 0
M  V30 39426 H 3743.01 0.0487676 -0.946745 0
M  V30 39427 H 3742.71 0.769111 -3.43187 0
M  V30 39428 H 3742.59 2.43133 -2.88385 0
M  V30 39429 H 3744.98 2.2507 -1.90859 0
M  V30 39430 H 3745.06 0.581835 -2.49095 0
M  V30 39431 H 3744.7 1.42052 -4.87631 0
M  V30 39432 H 3744.63 3.09164 -4.26292 0
M  V30 39433 H 3747.12 1.87924 -3.27861 0
M  V30 39434 H 3747.43 3.28792 -6.99368 0
M  V30 39435 H 3745.78 2.96321 -6.28665 0
M  V30 39436 H 3748.97 2.25431 -4.10242 0
M  V30 39437 H 3749.14 2.89689 -5.79642 0
M  V30 39438 N 3742.55 1.29858 0.893007 0
M  V30 39439 C 3743.5 1.15451 2.01926 0
M  V30 39440 C 3744.49 0.0683974 1.69262 0
M  V30 39441 O 3745.7 0.228677 1.78541 0
M  V30 39442 H 3742.07 0.356818 0.661955 0
M  V30 39443 H 3744.04 2.10787 2.11214 0
M  V30 39444 C 3742.79 0.854789 3.37029 0
M  V30 39445 H 3742.12 1.68258 3.6267 0
M  V30 39446 H 3743.56 0.794046 4.16498 0
M  V30 39447 C 3742.01 -0.442124 3.33986 0
M  V30 39448 O 3742.54 -1.46613 3.73989 0
M  V30 39449 N 3740.75 -0.450388 2.87089 0
M  V30 39450 H 3740.3 0.383392 2.54731 0
M  V30 39451 H 3740.26 -1.3181 2.85435 0
M  V30 39452 N 3744.03 -1.10427 1.12443 0
M  V30 39453 C 3744.97 -2.16772 0.79237 0
M  V30 39454 C 3745.94 -1.64344 -0.240916 0
M  V30 39455 O 3747.13 -1.9045 -0.115471 0
M  V30 39456 C 3744.27 -3.4417 0.253226 0
M  V30 39457 C 3743.38 -4.1055 1.34434 0
M  V30 39458 C 3742.52 -5.25668 0.764619 0
M  V30 39459 C 3741.56 -5.83952 1.83485 0
M  V30 39460 N 3740.69 -6.90447 1.27384 0
M  V30 39461 H 3745.53 -2.44521 1.70334 0
M  V30 39462 H 3743.07 -1.20025 0.85044 0
M  V30 39463 H 3745.03 -4.17128 -0.0774129 0
M  V30 39464 H 3743.66 -3.16772 -0.620906 0
M  V30 39465 H 3742.71 -3.3556 1.79175 0
M  V30 39466 H 3744.02 -4.49912 2.15362 0
M  V30 39467 H 3743.18 -6.05479 0.384654 0
M  V30 39468 H 3741.92 -4.87641 -0.0758655 0
M  V30 39469 H 3740.92 -5.0281 2.224 0
M  V30 39470 H 3742.15 -6.24044 2.67855 0
M  V30 39471 H 3740.09 -6.54419 0.455184 0
M  V30 39472 H 3740.01 -7.28521 2.01972 0
M  V30 39473 H 3741.28 -7.74039 0.921111 0
M  V30 39474 N 3745.51 -0.916353 -1.28221 0
M  V30 39475 C 3746.92 -0.597034 -1.76897 0
M  V30 39476 C 3747.27 0.887688 -1.7497 0
M  V30 39477 O 3746.39 1.69445 -1.34601 0
M  V30 39478 C 3746.99 -1.077 -3.21226 0
M  V30 39479 C 3745.55 -0.808555 -3.67613 0
M  V30 39480 C 3744.69 -1.24224 -2.47919 0
M  V30 39481 H 3747.64 -1.09734 -1.14648 0
M  V30 39482 H 3747.67 -0.419597 -3.78179 0
M  V30 39483 H 3747.18 -2.15762 -3.22596 0
M  V30 39484 H 3745.28 0.258749 -3.717 0
M  V30 39485 H 3745.39 -1.41813 -4.57631 0
M  V30 39486 H 3743.76 -0.660935 -2.45975 0
M  V30 39487 H 3744.54 -2.33126 -2.52006 0
M  V30 39488 N 3746.98 1.42146 -0.680615 0
M  V30 39489 C 3747.91 2.33491 -0.0199786 0
M  V30 39490 C 3748.89 1.51 0.783137 0
M  V30 39491 O 3750.08 1.79585 0.739123 0
M  V30 39492 C 3747.21 3.34676 0.927843 0
M  V30 39493 C 3746.16 4.27366 0.232904 0
M  V30 39494 C 3745.49 5.18804 1.29406 0
M  V30 39495 C 3746.79 5.14633 -0.891649 0
M  V30 39496 H 3748.48 2.88983 -0.782874 0
M  V30 39497 H 3746.03 1.38952 -0.377922 0
M  V30 39498 H 3747.98 3.97495 1.39913 0
M  V30 39499 H 3746.71 2.77501 1.72223 0
M  V30 39500 H 3745.37 3.6595 -0.218204 0
M  V30 39501 H 3745.01 4.57953 2.08059 0
M  V30 39502 H 3744.71 5.81649 0.834172 0
M  V30 39503 H 3746.24 5.84499 1.76616 0
M  V30 39504 H 3747.65 5.71104 -0.501319 0
M  V30 39505 H 3746.05 5.8634 -1.2777 0
M  V30 39506 H 3747.12 4.52687 -1.73789 0
M  V30 39507 N 3748.46 0.424336 1.5178 0
M  V30 39508 C 3749.41 -0.393628 2.27419 0
M  V30 39509 C 3750.38 -1.02805 1.30462 0
M  V30 39510 O 3751.56 -1.04944 1.59347 0
M  V30 39511 C 3748.7 -1.49605 3.10986 0
M  V30 39512 C 3747.82 -0.881049 4.2292 0
M  V30 39513 C 3746.95 -1.95743 4.9382 0
M  V30 39514 C 3745.99 -1.32017 5.97694 0
M  V30 39515 N 3745.13 -2.33736 6.62051 0
M  V30 39516 H 3749.97 0.257783 2.96883 0
M  V30 39517 H 3747.5 0.138968 1.46442 0
M  V30 39518 H 3749.46 -2.14636 3.57753 0
M  V30 39519 H 3748.09 -2.11728 2.43662 0
M  V30 39520 H 3747.14 -0.119378 3.80213 0
M  V30 39521 H 3748.46 -0.375676 4.97383 0
M  V30 39522 H 3747.61 -2.68466 5.44069 0
M  V30 39523 H 3746.35 -2.4965 4.18958 0
M  V30 39524 H 3745.35 -0.578348 5.4675 0
M  V30 39525 H 3746.58 -0.788604 6.74506 0
M  V30 39526 H 3744.53 -2.86747 5.9001 0
M  V30 39527 H 3744.44 -1.88053 7.32238 0
M  V30 39528 H 3745.71 -3.05982 7.16935 0
M  V30 39529 N 3749.94 -1.56833 0.15525 0
M  V30 39530 C 3750.9 -2.15977 -0.767228 0
M  V30 39531 C 3751.9 -1.10366 -1.16944 0
M  V30 39532 O 3753.09 -1.35963 -1.08902 0
M  V30 39533 C 3750.22 -2.72959 -2.04221 0
M  V30 39534 H 3751.42 -2.98834 -0.252609 0
M  V30 39535 H 3748.97 -1.56016 -0.0942403 0
M  V30 39536 H 3749.71 -1.93791 -2.6003 0
M  V30 39537 H 3749.49 -3.50233 -1.76293 0
M  V30 39538 H 3750.98 -3.185 -2.70088 0
M  V30 39539 N 3751.42 0.118521 -1.57154 0
M  V30 39540 C 3752.35 1.14656 -2.03411 0
M  V30 39541 C 3753.33 1.43159 -0.918661 0
M  V30 39542 O 3754.51 1.53592 -1.1884 0
M  V30 39543 C 3751.64 2.47261 -2.43884 0
M  V30 39544 C 3750.6 2.33219 -3.58877 0
M  V30 39545 C 3749.92 3.70791 -3.85251 0
M  V30 39546 C 3751.22 1.7923 -4.90585 0
M  V30 39547 H 3752.92 0.761811 -2.89546 0
M  V30 39548 H 3750.46 0.365009 -1.39297 0
M  V30 39549 H 3752.42 3.1943 -2.74849 0
M  V30 39550 H 3751.14 2.87627 -1.5472 0
M  V30 39551 H 3749.8 1.63498 -3.28122 0
M  V30 39552 H 3749.45 4.08643 -2.93292 0
M  V30 39553 H 3749.15 3.62249 -4.62655 0
M  V30 39554 H 3750.67 4.44464 -4.18669 0
M  V30 39555 H 3752.09 2.41217 -5.20084 0
M  V30 39556 H 3750.48 1.81508 -5.71992 0
M  V30 39557 H 3751.55 0.749905 -4.79066 0
M  V30 39558 N 3752.9 1.52731 0.388715 0
M  V30 39559 C 3754.17 1.5837 1.14797 0
M  V30 39560 C 3754.55 0.377055 2.07705 0
M  V30 39561 O 3753.9 -0.634595 2.19511 0
M  V30 39562 C 3754.11 2.92266 1.9074 0
M  V30 39563 C 3755.46 3.46012 2.46091 0
M  V30 39564 O 3756.48 2.94142 2.00896 0
M  V30 39565 O 3755.34 4.36636 3.2865 0
M  V30 39566 H 3752.44 0.638757 0.525279 0
M  V30 39567 H 3754.98 1.65067 0.393845 0
M  V30 39568 H 3753.75 3.71532 1.228 0
M  V30 39569 H 3753.38 2.88956 2.73112 0
M  V30 39570 N 3754.37 -0.647178 1.43699 0
M  V30 39571 C 3755.6 -1.43459 1.49087 0
M  V30 39572 C 3756.02 -1.88476 0.110638 0
M  V30 39573 O 3755.37 -1.59863 -0.880337 0
M  V30 39574 C 3755.42 -2.66558 2.44191 0
M  V30 39575 O 3755.15 -2.23422 3.76847 0
M  V30 39576 C 3756.65 -3.59854 2.58882 0
M  V30 39577 H 3753.87 -0.440508 0.506156 0
M  V30 39578 H 3756.41 -0.792897 1.88503 0
M  V30 39579 H 3754.57 -3.26854 2.07955 0
M  V30 39580 H 3754.98 -3.03112 4.28046 0
M  V30 39581 H 3756.45 -4.42877 3.2949 0
M  V30 39582 H 3756.93 -4.07603 1.63575 0
M  V30 39583 H 3757.54 -3.05436 2.95955 0
M  V30 39584 N 3755.85 -1.3033 -0.886108 0
M  V30 39585 C 3757.27 -1.08637 -1.1692 0
M  V30 39586 C 3757.47 0.153614 -2.00914 0
M  V30 39587 O 3756.52 0.84755 -2.3785 0
M  V30 39588 C 3757.84 -2.34927 -1.87697 0
M  V30 39589 C 3759.39 -2.4038 -2.00466 0
M  V30 39590 C 3759.86 -3.66509 -2.74655 0
M  V30 39591 N 3761.35 -3.6731 -2.82201 0
M  V30 39592 C 3762.09 -4.61592 -3.40177 0
M  V30 39593 N 3761.58 -5.66218 -3.99211 0
M  V30 39594 N 3763.38 -4.49138 -3.37981 0
M  V30 39595 H 3755.53 -2.09883 -0.326027 0
M  V30 39596 H 3757.79 -0.925129 -0.20698 0
M  V30 39597 H 3757.5 -3.2541 -1.33421 0
M  V30 39598 H 3757.37 -2.43486 -2.88087 0
M  V30 39599 H 3759.76 -1.50376 -2.53912 0
M  V30 39600 H 3759.84 -2.35796 -0.991667 0
M  V30 39601 H 3759.48 -4.56871 -2.21882 0
M  V30 39602 H 3759.41 -3.68354 -3.76328 0
M  V30 39603 H 3761.9 -2.91669 -2.40287 0
M  V30 39604 H 3762.22 -6.34261 -4.41511 0
M  V30 39605 H 3760.56 -5.70011 -3.97633 0
M  V30 39606 H 3763.75 -3.66585 -2.91089 0
M  V30 39607 H 3763.92 -5.22797 -3.82868 0
M  V30 39608 N 3757.33 1.0983 -1.13028 0
M  V30 39609 C 3758.58 1.8192 -0.889451 0
M  V30 39610 C 3758.91 1.85508 0.58454 0
M  V30 39611 O 3758.16 1.31603 1.44842 0
M  V30 39612 C 3758.46 3.28099 -1.41724 0
M  V30 39613 C 3758.13 3.4465 -2.90735 0
M  V30 39614 C 3756.79 3.48875 -3.31421 0
M  V30 39615 C 3759.14 3.49529 -3.86625 0
M  V30 39616 C 3756.47 3.55553 -4.66689 0
M  V30 39617 C 3758.82 3.57741 -5.21732 0
M  V30 39618 C 3757.48 3.60232 -5.61951 0
M  V30 39619 H 3756.75 0.665694 -0.325473 0
M  V30 39620 H 3759.4 1.29416 -1.41152 0
M  V30 39621 H 3757.71 3.83213 -0.815776 0
M  V30 39622 H 3759.4 3.82403 -1.20703 0
M  V30 39623 H 3755.99 3.42044 -2.58272 0
M  V30 39624 H 3760.18 3.4551 -3.56282 0
M  V30 39625 H 3755.43 3.55767 -4.97232 0
M  V30 39626 H 3759.61 3.6046 -5.95854 0
M  V30 39627 H 3757.23 3.65159 -6.66755 0
M  V30 39628 N 3758.81 0.92314 1.27734 0
M  V30 39629 C 3760.06 0.560075 1.94184 0
M  V30 39630 C 3760.38 -0.90081 1.72946 0
M  V30 39631 O 3759.65 -1.63799 1.07456 0
M  V30 39632 H 3758.23 0.204142 0.718565 0
M  V30 39633 H 3760.89 1.17454 1.55533 0
M  V30 39634 H 3759.99 0.762477 3.02643 0
M  V30 39635 N 3760.29 -1.41783 0.688143 0
M  V30 39636 C 3761.7 -1.55511 0.35897 0
M  V30 39637 C 3761.9 -1.66516 -1.13466 0
M  V30 39638 O 3760.96 -1.63947 -1.92036 0
M  V30 39639 C 3762.27 -2.79819 1.10099 0
M  V30 39640 C 3763.82 -2.93607 1.08461 0
M  V30 39641 C 3764.29 -4.20794 1.80822 0
M  V30 39642 N 3765.79 -4.27735 1.77755 0
M  V30 39643 C 3766.52 -5.24991 2.30591 0
M  V30 39644 N 3766.02 -6.28321 2.91865 0
M  V30 39645 N 3767.81 -5.1688 2.20889 0
M  V30 39646 H 3759.96 -1.32883 1.65698 0
M  V30 39647 H 3762.22 -0.64058 0.698829 0
M  V30 39648 H 3761.93 -2.77871 2.15594 0
M  V30 39649 H 3761.8 -3.71115 0.674778 0
M  V30 39650 H 3764.19 -2.95076 0.0379474 0
M  V30 39651 H 3764.27 -2.03505 1.54982 0
M  V30 39652 H 3763.92 -4.20087 2.85464 0
M  V30 39653 H 3763.85 -5.09855 1.31741 0
M  V30 39654 H 3766.34 -3.53694 1.33075 0
M  V30 39655 H 3766.65 -6.98909 3.29767 0
M  V30 39656 H 3764.99 -6.28844 2.9594 0
M  V30 39657 H 3768.19 -4.35079 1.72697 0
M  V30 39658 H 3768.36 -5.92509 2.62369 0
M  V30 39659 N 3761.76 -0.432379 -1.51553 0
M  V30 39660 C 3762.71 0.381562 -2.27624 0
M  V30 39661 C 3763.68 1.02112 -1.31005 0
M  V30 39662 O 3764.87 1.04097 -1.59901 0
M  V30 39663 C 3762.01 1.47954 -3.11775 0
M  V30 39664 C 3761.12 0.858608 -4.23382 0
M  V30 39665 C 3760.25 1.93122 -4.94851 0
M  V30 39666 C 3759.29 1.28846 -5.98385 0
M  V30 39667 N 3758.43 2.30221 -6.63282 0
M  V30 39668 H 3763.27 -0.273524 -2.96742 0
M  V30 39669 H 3760.81 -0.146732 -1.46366 0
M  V30 39670 H 3762.77 2.12736 -3.58886 0
M  V30 39671 H 3761.4 2.10433 -2.44782 0
M  V30 39672 H 3760.45 0.0992129 -3.80271 0
M  V30 39673 H 3761.76 0.349294 -4.97576 0
M  V30 39674 H 3760.91 2.65577 -5.45485 0
M  V30 39675 H 3759.65 2.47425 -4.20276 0
M  V30 39676 H 3758.66 0.549344 -5.47049 0
M  V30 39677 H 3759.88 0.752822 -6.74914 0
M  V30 39678 H 3757.83 2.83614 -5.91523 0
M  V30 39679 H 3757.75 1.84168 -7.33225 0
M  V30 39680 H 3759.01 3.02176 -7.18547 0
M  V30 39681 N 3763.24 1.56749 -0.163565 0
M  V30 39682 C 3764.17 2.20594 0.765532 0
M  V30 39683 C 3765.15 1.15918 1.24487 0
M  V30 39684 O 3766.34 1.4432 1.29944 0
M  V30 39685 C 3763.47 2.8406 1.99818 0
M  V30 39686 C 3762.42 3.94708 1.65499 0
M  V30 39687 C 3761.75 4.45186 2.96164 0
M  V30 39688 C 3763.05 5.1468 0.88893 0
M  V30 39689 H 3764.74 2.98489 0.233378 0
M  V30 39690 H 3762.29 1.43573 0.11081 0
M  V30 39691 H 3764.24 3.27397 2.6531 0
M  V30 39692 H 3762.97 2.03522 2.55434 0
M  V30 39693 H 3761.62 3.52015 1.02378 0
M  V30 39694 H 3761.27 3.61449 3.49805 0
M  V30 39695 H 3760.97 5.19827 2.73958 0
M  V30 39696 H 3762.5 4.91204 3.62699 0
M  V30 39697 H 3763.91 5.54757 1.44628 0
M  V30 39698 H 3762.31 5.95189 0.766198 0
M  V30 39699 H 3763.38 4.84761 -0.11623 0
M  V30 39700 N 3764.72 -0.110185 1.57214 0
M  V30 39701 C 3765.95 -0.834263 1.89881 0
M  V30 39702 C 3766.37 -1.72222 0.756377 0
M  V30 39703 O 3765.73 -1.78921 -0.292736 0
M  V30 39704 C 3765.78 -1.63623 3.21341 0
M  V30 39705 O 3764.88 -2.74393 3.07867 0
M  V30 39706 H 3764.22 -0.23016 0.622834 0
M  V30 39707 H 3766.75 -0.0899367 2.04402 0
M  V30 39708 H 3766.76 -2.02363 3.54279 0
M  V30 39709 H 3765.44 -0.98445 4.04081 0
M  V30 39710 H 3764.01 -2.38792 2.86414 0
M  V30 39711 N 3766.2 -1.52935 -0.38061 0
M  V30 39712 C 3767.45 -1.6761 -1.12204 0
M  V30 39713 C 3767.76 -0.42663 -1.90891 0
M  V30 39714 O 3768.97 -0.453659 -2.67683 0
M  V30 39715 C 3767.42 -2.9624 -2.04376 0
M  V30 39716 C 3767.03 -4.28397 -1.31072 0
M  V30 39717 C 3768.77 -3.20282 -2.78603 0
M  V30 39718 C 3766.68 -5.48127 -2.22059 0
M  V30 39719 H 3765.61 -0.62446 -0.422571 0
M  V30 39720 H 3768.26 -1.79434 -0.384166 0
M  V30 39721 H 3766.64 -2.78183 -2.81833 0
M  V30 39722 H 3767.82 -4.57035 -0.587827 0
M  V30 39723 H 3766.13 -4.10682 -0.687705 0
M  V30 39724 H 3768.73 -4.06916 -3.46876 0
M  V30 39725 H 3769.07 -2.35707 -3.43144 0
M  V30 39726 H 3769.61 -3.38944 -2.08235 0
M  V30 39727 H 3766.35 -6.35136 -1.62119 0
M  V30 39728 H 3765.87 -5.23789 -2.92241 0
M  V30 39729 H 3767.54 -5.82331 -2.81956 0
M  V30 39730 N 3767.68 0.639548 -1.4404 0
M  V30 39731 C 3768.93 1.39519 -1.45662 0
M  V30 39732 C 3769.24 1.95394 -0.0898221 0
M  V30 39733 O 3770.44 2.71495 0.0164596 0
M  V30 39734 C 3768.9 2.52562 -2.56399 0
M  V30 39735 C 3768.51 2.03236 -3.99248 0
M  V30 39736 C 3770.25 3.29829 -2.67232 0
M  V30 39737 C 3768.16 3.13572 -5.01425 0
M  V30 39738 H 3767.09 0.524268 -0.541903 0
M  V30 39739 H 3769.74 0.688911 -1.70077 0
M  V30 39740 H 3768.12 3.25725 -2.25209 0
M  V30 39741 H 3769.3 1.36994 -4.39965 0
M  V30 39742 H 3767.61 1.38809 -3.92583 0
M  V30 39743 H 3770.21 4.12066 -3.40743 0
M  V30 39744 H 3770.55 3.7876 -1.72762 0
M  V30 39745 H 3771.08 2.63753 -2.9779 0
M  V30 39746 H 3767.82 2.69595 -5.97494 0
M  V30 39747 H 3767.34 3.78482 -4.65308 0
M  V30 39748 H 3769.02 3.78484 -5.24747 0
M  V30 39749 N 3769.15 1.30798 0.879184 0
M  V30 39750 C 3770.57 1.09255 1.16342 0
M  V30 39751 C 3770.77 -0.142957 2.00992 0
M  V30 39752 O 3769.83 -0.834925 2.38297 0
M  V30 39753 C 3771.14 2.35919 1.86448 0
M  V30 39754 C 3772.69 2.41439 1.99188 0
M  V30 39755 C 3773.16 3.6796 2.72708 0
M  V30 39756 N 3774.65 3.68801 2.8025 0
M  V30 39757 C 3775.39 4.6339 3.37724 0
M  V30 39758 N 3774.88 5.68327 3.96202 0
M  V30 39759 N 3776.68 4.50924 3.35595 0
M  V30 39760 H 3768.83 2.10053 0.314891 0
M  V30 39761 H 3771.09 0.926214 0.20207 0
M  V30 39762 H 3770.8 3.26113 1.31694 0
M  V30 39763 H 3770.67 2.45011 2.86792 0
M  V30 39764 H 3773.06 1.5172 2.53111 0
M  V30 39765 H 3773.14 2.36318 0.979149 0
M  V30 39766 H 3772.78 4.58041 2.19456 0
M  V30 39767 H 3772.71 3.70345 3.74369 0
M  V30 39768 H 3775.2 2.92939 2.38737 0
M  V30 39769 H 3775.52 6.36594 4.38141 0
M  V30 39770 H 3773.86 5.72112 3.94605 0
M  V30 39771 H 3777.05 3.68124 2.89141 0
M  V30 39772 H 3777.23 5.2482 3.8009 0
M  V30 39773 N 3770.63 -1.09229 1.13608 0
M  V30 39774 C 3771.88 -1.81088 0.89731 0
M  V30 39775 C 3772.2 -1.86236 -0.578034 0
M  V30 39776 O 3771.47 -1.34938 -1.42016 0
M  V30 39777 H 3770.05 -0.670656 0.328983 0
M  V30 39778 H 3772.71 -1.321 1.43302 0
M  V30 39779 H 3771.81 -2.842 1.28984 0
M  V30 39780 N 3772.11 -0.929901 -1.27242 0
M  V30 39781 C 3773.36 -0.567301 -1.93558 0
M  V30 39782 C 3773.67 0.896108 -1.73866 0
M  V30 39783 O 3774.88 1.36759 -2.34541 0
M  V30 39784 C 3773.34 -0.963804 -3.46755 0
M  V30 39785 C 3772.94 -2.44805 -3.75199 0
M  V30 39786 C 3774.69 -0.672561 -4.19138 0
M  V30 39787 C 3772.59 -2.78384 -5.21782 0
M  V30 39788 H 3771.52 -0.208449 -0.724614 0
M  V30 39789 H 3774.18 -1.13101 -1.445 0
M  V30 39790 H 3772.56 -0.328723 -3.94633 0
M  V30 39791 H 3773.73 -3.13122 -3.3807 0
M  V30 39792 H 3772.05 -2.71141 -3.16024 0
M  V30 39793 H 3774.64 -0.899909 -5.27073 0
M  V30 39794 H 3774.99 0.390305 -4.14466 0
M  V30 39795 H 3775.52 -1.26684 -3.77089 0
M  V30 39796 H 3772.26 -3.83588 -5.31545 0
M  V30 39797 H 3771.78 -2.14718 -5.6005 0
M  V30 39798 H 3773.46 -2.66245 -5.8968 0
M  V30 39799 N 3773.59 1.41416 -0.695653 0
M  V30 39800 C 3774.84 2.01526 -0.226989 0
M  V30 39801 C 3775.17 1.5497 1.17038 0
M  V30 39802 O 3774.44 0.760927 1.78998 0
M  V30 39803 C 3774.73 3.58972 -0.284768 0
M  V30 39804 C 3774.58 4.15653 -1.71908 0
M  V30 39805 C 3775.9 4.38663 0.355377 0
M  V30 39806 H 3773.02 0.732203 -0.0839553 0
M  V30 39807 H 3775.66 1.68162 -0.884388 0
M  V30 39808 H 3773.81 3.87526 0.274972 0
M  V30 39809 H 3775.48 3.97975 -2.33267 0
M  V30 39810 H 3773.72 3.70692 -2.25321 0
M  V30 39811 H 3774.4 5.24812 -1.71104 0
M  V30 39812 H 3776.87 4.15923 -0.121329 0
M  V30 39813 H 3775.75 5.48163 0.284407 0
M  V30 39814 H 3776.01 4.18125 1.4361 0
M  V30 39815 N 3775.07 0.44041 1.51321 0
M  V30 39816 C 3775.98 -0.375569 2.31574 0
M  V30 39817 C 3776.99 -1.0248 1.40619 0
M  V30 39818 O 3778.17 -1.0195 1.7369 0
M  V30 39819 C 3775.23 -1.46034 3.14444 0
M  V30 39820 C 3774.3 -0.830917 4.21182 0
M  V30 39821 C 3773.53 -1.864 5.00091 0
M  V30 39822 O 3773.75 -3.08661 4.79671 0
M  V30 39823 O 3772.69 -1.45283 5.84103 0
M  V30 39824 H 3776.51 0.279673 3.0241 0
M  V30 39825 H 3774.1 0.202883 1.48016 0
M  V30 39826 H 3775.98 -2.08939 3.65954 0
M  V30 39827 H 3774.65 -2.09961 2.4637 0
M  V30 39828 H 3773.56 -0.163732 3.73742 0
M  V30 39829 H 3774.89 -0.235088 4.91638 0
M  V30 39830 N 3776.55 -1.5666 0.171876 0
M  V30 39831 C 3777.48 -2.15168 -0.789634 0
M  V30 39832 C 3778.49 -1.10741 -1.19333 0
M  V30 39833 O 3779.68 -1.37926 -1.13308 0
M  V30 39834 C 3776.78 -2.67993 -2.07444 0
M  V30 39835 C 3775.95 -3.97083 -1.83422 0
M  V30 39836 C 3775.01 -4.34967 -2.96126 0
M  V30 39837 O 3774.04 -5.02832 -2.66737 0
M  V30 39838 N 3775.24 -3.9657 -4.23925 0
M  V30 39839 H 3778 -2.98299 -0.289432 0
M  V30 39840 H 3775.57 -1.61896 -0.010887 0
M  V30 39841 H 3777.56 -2.90334 -2.81936 0
M  V30 39842 H 3776.13 -1.89448 -2.48653 0
M  V30 39843 H 3775.35 -3.83114 -0.928309 0
M  V30 39844 H 3776.64 -4.81392 -1.64741 0
M  V30 39845 H 3776.03 -3.41936 -4.50662 0
M  V30 39846 H 3774.59 -4.23911 -4.95119 0
M  V30 39847 N 3778.02 0.101846 -1.57271 0
M  V30 39848 C 3778.93 1.14254 -2.04898 0
M  V30 39849 C 3779.95 1.4428 -0.972586 0
M  V30 39850 O 3781.13 1.55056 -1.28529 0
M  V30 39851 C 3778.19 2.44484 -2.45822 0
M  V30 39852 C 3777.25 2.217 -3.67624 0
M  V30 39853 C 3776.48 3.45721 -4.06587 0
M  V30 39854 O 3776.71 4.53696 -3.4571 0
M  V30 39855 O 3775.64 3.35708 -4.99584 0
M  V30 39856 H 3779.47 0.768033 -2.93828 0
M  V30 39857 H 3777.05 0.313876 -1.46066 0
M  V30 39858 H 3778.93 3.21181 -2.72802 0
M  V30 39859 H 3777.61 2.81374 -1.60033 0
M  V30 39860 H 3776.52 1.42806 -3.45771 0
M  V30 39861 H 3777.85 1.89706 -4.54172 0
M  V30 39862 N 3779.5 1.53135 0.372494 0
M  V30 39863 C 3780.75 1.68203 1.11313 0
M  V30 39864 C 3781.06 0.436748 1.90662 0
M  V30 39865 O 3782.27 0.467849 2.67439 0
M  V30 39866 C 3780.73 2.9732 2.02802 0
M  V30 39867 C 3780.33 4.29086 1.28798 0
M  V30 39868 C 3782.08 3.21755 2.769 0
M  V30 39869 C 3779.98 5.49297 2.19149 0
M  V30 39870 H 3778.91 0.626692 0.419253 0
M  V30 39871 H 3781.57 1.79635 0.374645 0
M  V30 39872 H 3779.95 2.79674 2.80354 0
M  V30 39873 H 3781.12 4.57341 0.563581 0
M  V30 39874 H 3779.44 4.11041 0.665916 0
M  V30 39875 H 3782.03 4.0875 3.44713 0
M  V30 39876 H 3782.38 2.37523 3.4189 0
M  V30 39877 H 3782.91 3.40043 2.06435 0
M  V30 39878 H 3779.65 6.35987 1.58749 0
M  V30 39879 H 3779.17 5.25332 2.89459 0
M  V30 39880 H 3780.85 5.83819 2.78864 0
M  V30 39881 N 3780.98 -0.6319 1.44377 0
M  V30 39882 C 3781.91 -1.75709 1.4717 0
M  V30 39883 C 3782.92 -1.58651 0.365186 0
M  V30 39884 O 3784.11 -1.66979 0.630882 0
M  V30 39885 C 3781.21 -3.13421 1.28921 0
M  V30 39886 C 3780.39 -3.56943 2.52805 0
M  V30 39887 C 3779.45 -4.73531 2.29467 0
M  V30 39888 O 3778.47 -4.81882 3.02949 0
M  V30 39889 N 3779.67 -5.65181 1.32477 0
M  V30 39890 H 3782.44 -1.73784 2.44171 0
M  V30 39891 H 3780 -0.81644 1.39807 0
M  V30 39892 H 3781.99 -3.89135 1.11157 0
M  V30 39893 H 3780.56 -3.09993 0.402883 0
M  V30 39894 H 3779.78 -2.71446 2.85851 0
M  V30 39895 H 3781.07 -3.82773 3.35204 0
M  V30 39896 H 3780.47 -5.61127 0.71786 0
M  V30 39897 H 3779.02 -6.40529 1.20691 0
M  V30 39898 N 3782.46 -1.31262 -0.872235 0
M  V30 39899 C 3783.42 -1.18684 -1.96079 0
M  V30 39900 C 3784.42 -0.114549 -1.60391 0
M  V30 39901 O 3785.61 -0.363643 -1.70362 0
M  V30 39902 C 3782.74 -0.821241 -3.3086 0
M  V30 39903 H 3783.94 -2.15406 -2.08663 0
M  V30 39904 H 3781.49 -1.14841 -1.06024 0
M  V30 39905 H 3782.22 0.144923 -3.23976 0
M  V30 39906 H 3782.01 -1.59631 -3.58134 0
M  V30 39907 H 3783.5 -0.757063 -4.1068 0
M  V30 39908 N 3783.94 1.08625 -1.14186 0
M  V30 39909 C 3784.87 2.14803 -0.770376 0
M  V30 39910 C 3785.85 1.60709 0.247241 0
M  V30 39911 O 3787.03 1.88003 0.136818 0
M  V30 39912 C 3784.16 3.38396 -0.143408 0
M  V30 39913 C 3783.2 4.11235 -1.13084 0
M  V30 39914 S 3784.04 4.64357 -2.66708 0
M  V30 39915 C 3785.19 5.91239 -2.05394 0
M  V30 39916 H 3785.43 2.45983 -1.66972 0
M  V30 39917 H 3782.96 1.207 -0.962855 0
M  V30 39918 H 3784.92 4.09953 0.211915 0
M  V30 39919 H 3783.58 3.05419 0.733335 0
M  V30 39920 H 3782.77 4.99918 -0.640128 0
M  V30 39921 H 3782.37 3.4558 -1.43004 0
M  V30 39922 H 3784.66 6.62707 -1.40803 0
M  V30 39923 H 3785.61 6.45003 -2.92192 0
M  V30 39924 H 3786.02 5.44146 -1.50218 0
M  V30 39925 N 3785.41 0.936635 1.26747 0
M  V30 39926 C 3786.66 0.58265 1.9425 0
M  V30 39927 C 3786.99 -0.87533 1.73354 0
M  V30 39928 O 3786.27 -1.62563 1.06787 0
M  V30 39929 C 3786.55 0.920212 3.48144 0
M  V30 39930 C 3786.4 2.4326 3.78345 0
M  V30 39931 C 3787.72 0.432403 4.37971 0
M  V30 39932 H 3784.84 0.213154 0.705503 0
M  V30 39933 H 3787.48 1.17003 1.497 0
M  V30 39934 H 3785.63 0.420347 3.86219 0
M  V30 39935 H 3787.31 3.00484 3.5001 0
M  V30 39936 H 3785.55 2.87801 3.24581 0
M  V30 39937 H 3786.22 2.61931 4.85897 0
M  V30 39938 H 3788.7 0.860929 4.07096 0
M  V30 39939 H 3787.57 0.697461 5.44451 0
M  V30 39940 H 3787.83 -0.667617 4.3703 0
M  V30 39941 N 3786.89 -1.41045 0.703143 0
M  V30 39942 C 3788.12 -2.05946 0.245124 0
M  V30 39943 C 3788.54 -1.52593 -1.09986 0
M  V30 39944 O 3787.9 -0.656052 -1.69014 0
M  V30 39945 C 3787.95 -3.59919 0.221507 0
M  V30 39946 O 3787.05 -4.04541 -0.801253 0
M  V30 39947 H 3786.39 -0.653454 0.117873 0
M  V30 39948 H 3788.92 -1.80673 0.96013 0
M  V30 39949 H 3788.93 -4.07963 0.0549399 0
M  V30 39950 H 3787.61 -3.98119 1.20308 0
M  V30 39951 H 3786.19 -3.67985 -0.603424 0
M  V30 39952 N 3788.37 -0.448429 -1.51086 0
M  V30 39953 C 3789.32 0.357398 -2.28016 0
M  V30 39954 C 3790.29 1.00717 -1.32081 0
M  V30 39955 O 3791.47 1.02395 -1.60996 0
M  V30 39956 C 3788.61 1.44639 -3.13327 0
M  V30 39957 C 3787.73 0.813654 -4.24268 0
M  V30 39958 C 3786.86 1.87862 -4.96871 0
M  V30 39959 C 3785.9 1.22492 -5.99718 0
M  V30 39960 N 3785.04 2.23174 -6.65686 0
M  V30 39961 H 3789.88 -0.304982 -2.96435 0
M  V30 39962 H 3787.41 -0.162248 -1.46202 0
M  V30 39963 H 3789.37 2.08917 -3.61122 0
M  V30 39964 H 3788 2.07824 -2.47 0
M  V30 39965 H 3787.05 0.0588745 -3.80354 0
M  V30 39966 H 3788.37 0.296499 -4.97918 0
M  V30 39967 H 3787.52 2.59777 -5.48271 0
M  V30 39968 H 3786.26 2.42954 -4.22877 0
M  V30 39969 H 3785.26 0.491292 -5.47601 0
M  V30 39970 H 3786.49 0.681196 -6.75675 0
M  V30 39971 H 3784.43 2.77324 -5.94498 0
M  V30 39972 H 3784.35 1.7638 -7.35137 0
M  V30 39973 H 3785.62 2.94537 -7.21712 0
M  V30 39974 N 3789.85 1.56567 -0.180181 0
M  V30 39975 C 3791.26 1.58628 0.175874 0
M  V30 39976 C 3791.46 1.19586 1.62177 0
M  V30 39977 O 3790.52 0.911608 2.3547 0
M  V30 39978 C 3791.83 3.00488 -0.112973 0
M  V30 39979 C 3793.38 3.12957 -0.051889 0
M  V30 39980 C 3793.86 4.56923 -0.313844 0
M  V30 39981 N 3795.35 4.62459 -0.261933 0
M  V30 39982 C 3796.08 5.7172 -0.438673 0
M  V30 39983 N 3795.58 6.89504 -0.674953 0
M  V30 39984 N 3797.37 5.60855 -0.373963 0
M  V30 39985 H 3789.52 1.8023 -1.12388 0
M  V30 39986 H 3791.79 0.835746 -0.447473 0
M  V30 39987 H 3791.49 3.3356 -1.11494 0
M  V30 39988 H 3791.37 3.72536 0.591344 0
M  V30 39989 H 3793.75 2.79706 0.940662 0
M  V30 39990 H 3793.83 2.43326 -0.789053 0
M  V30 39991 H 3793.48 4.90884 -1.30364 0
M  V30 39992 H 3793.41 5.24725 0.444035 0
M  V30 39993 H 3795.9 3.77804 -0.0853177 0
M  V30 39994 H 3796.21 7.68658 -0.799026 0
M  V30 39995 H 3794.56 6.91347 -0.711672 0
M  V30 39996 H 3797.75 4.67715 -0.189897 0
M  V30 39997 H 3797.92 6.45949 -0.515126 0
M  V30 39998 N 3791.33 -0.0935042 1.57322 0
M  V30 39999 C 3792.24 -1.13165 2.05501 0
M  V30 40000 C 3793.25 -1.43762 0.980224 0
M  V30 40001 O 3794.43 -1.54372 1.29349 0
M  V30 40002 C 3791.49 -2.43177 2.47115 0
M  V30 40003 C 3790.55 -2.19748 3.68795 0
M  V30 40004 C 3789.79 -3.4356 4.08415 0
M  V30 40005 O 3790.01 -4.51857 3.48112 0
M  V30 40006 O 3788.94 -3.33053 5.01357 0
M  V30 40007 H 3792.77 -0.75244 2.94231 0
M  V30 40008 H 3790.36 -0.306126 1.4623 0
M  V30 40009 H 3792.24 -3.1973 2.74501 0
M  V30 40010 H 3790.91 -2.80521 1.61523 0
M  V30 40011 H 3789.82 -1.4097 3.46523 0
M  V30 40012 H 3791.15 -1.87295 4.55172 0
M  V30 40013 N 3792.8 -1.5333 -0.364368 0
M  V30 40014 C 3793.75 -1.80525 -1.46674 0
M  V30 40015 C 3794.75 -0.674448 -1.55395 0
M  V30 40016 O 3795.95 -0.857412 -1.58267 0
M  V30 40017 H 3792.33 -0.571605 -0.488642 0
M  V30 40018 H 3794.3 -2.72792 -1.20942 0
M  V30 40019 C 3793.05 -2.01314 -2.83492 0
M  V30 40020 H 3792.37 -2.87769 -2.77541 0
M  V30 40021 H 3793.81 -2.2432 -3.59801 0
M  V30 40022 C 3792.27 -0.792596 -3.27444 0
M  V30 40023 O 3792.8 0.0181259 -4.01696 0
M  V30 40024 N 3791.01 -0.615693 -2.84003 0
M  V30 40025 H 3790.55 -1.27658 -2.23744 0
M  V30 40026 H 3790.51 0.199548 -3.13766 0
M  V30 40027 N 3794.28 0.624234 -1.4471 0
M  V30 40028 C 3795.53 1.37966 -1.47134 0
M  V30 40029 C 3795.84 1.95287 -0.110541 0
M  V30 40030 O 3797.05 2.71497 -0.012337 0
M  V30 40031 C 3795.51 2.49828 -2.59063 0
M  V30 40032 C 3795.11 1.9899 -4.01381 0
M  V30 40033 C 3796.86 3.26976 -2.70715 0
M  V30 40034 C 3794.77 3.08236 -5.04722 0
M  V30 40035 H 3793.7 0.518491 -0.547433 0
M  V30 40036 H 3796.35 0.670833 -1.70798 0
M  V30 40037 H 3794.73 3.23318 -2.28651 0
M  V30 40038 H 3795.9 1.3232 -4.41393 0
M  V30 40039 H 3794.22 1.34637 -3.94033 0
M  V30 40040 H 3796.81 4.08429 -3.45094 0
M  V30 40041 H 3797.16 3.76906 -1.7677 0
M  V30 40042 H 3797.69 2.6058 -3.00571 0
M  V30 40043 H 3794.43 2.63242 -6.0032 0
M  V30 40044 H 3793.95 3.73525 -4.69296 0
M  V30 40045 H 3795.63 3.72897 -5.28731 0
M  V30 40046 N 3795.76 1.31723 0.865262 0
M  V30 40047 C 3796.72 1.19722 1.95446 0
M  V30 40048 C 3797.72 0.123053 1.60328 0
M  V30 40049 O 3798.91 0.372673 1.70167 0
M  V30 40050 C 3796.05 0.838776 3.3042 0
M  V30 40051 H 3797.24 2.16509 2.07518 0
M  V30 40052 H 3794.79 1.15402 1.05414 0
M  V30 40053 H 3795.53 -0.12774 3.24048 0
M  V30 40054 H 3795.31 1.61528 3.57283 0
M  V30 40055 H 3796.8 0.778832 4.10273 0
M  V30 40056 N 3797.24 -1.08018 1.14761 0
M  V30 40057 C 3798.47 -1.84216 0.941919 0
M  V30 40058 C 3798.88 -1.81791 -0.50967 0
M  V30 40059 O 3798.24 -1.22443 -1.35329 0
M  V30 40060 C 3798.29 -3.31589 1.43983 0
M  V30 40061 O 3798.01 -3.34043 2.83455 0
M  V30 40062 C 3799.51 -4.24579 1.27466 0
M  V30 40063 H 3796.73 -0.581419 0.334952 0
M  V30 40064 H 3799.28 -1.36396 1.52369 0
M  V30 40065 H 3797.43 -3.76783 0.90074 0
M  V30 40066 H 3797.84 -4.26068 3.05886 0
M  V30 40067 H 3799.32 -5.26081 1.6716 0
M  V30 40068 H 3799.8 -4.38659 0.218002 0
M  V30 40069 H 3800.4 -3.85214 1.8025 0
M  V30 40070 N 3798.72 -0.943344 -1.26249 0
M  V30 40071 C 3799.67 -0.425477 -2.23995 0
M  V30 40072 C 3800.65 0.479006 -1.53604 0
M  V30 40073 O 3801.84 0.313899 -1.74194 0
M  V30 40074 C 3798.97 0.306115 -3.41932 0
M  V30 40075 C 3798.06 -0.615784 -4.19606 0
M  V30 40076 N 3798.45 -1.74251 -4.74837 0
M  V30 40077 C 3796.75 -0.421789 -4.44001 0
M  V30 40078 C 3797.45 -2.31718 -5.33556 0
M  V30 40079 N 3796.42 -1.60496 -5.19367 0
M  V30 40080 H 3800.23 -1.28554 -2.64294 0
M  V30 40081 H 3797.74 -0.799471 -1.41358 0
M  V30 40082 H 3799.74 0.694171 -4.1108 0
M  V30 40083 H 3798.4 1.16292 -3.03161 0
M  V30 40084 H 3799.41 -2.12461 -4.72314 0
M  V30 40085 H 3796.08 0.393065 -4.15646 0
M  V30 40086 H 3797.47 -3.26664 -5.87146 0
M  V30 40087 N 3800.2 1.4067 -0.710613 0
M  V30 40088 C 3801.15 2.27978 -0.0313931 0
M  V30 40089 C 3802.13 1.42997 0.737618 0
M  V30 40090 O 3803.32 1.66133 0.610637 0
M  V30 40091 C 3800.45 3.31475 0.893271 0
M  V30 40092 C 3799.54 4.23931 0.11971 0
M  V30 40093 N 3799.93 4.97829 -0.894429 0
M  V30 40094 C 3798.23 4.44601 0.352999 0
M  V30 40095 C 3798.93 5.65607 -1.3588 0
M  V30 40096 N 3797.9 5.39306 -0.681881 0
M  V30 40097 H 3801.7 2.82554 -0.808733 0
M  V30 40098 H 3799.22 1.53062 -0.542761 0
M  V30 40099 H 3801.22 3.92863 1.39514 0
M  V30 40100 H 3799.88 2.78459 1.67004 0
M  V30 40101 H 3800.89 5.01957 -1.27513 0
M  V30 40102 H 3797.56 4.02571 1.10648 0
M  V30 40103 H 3798.95 6.34821 -2.20119 0
M  V30 40104 N 3801.67 0.456435 1.50846 0
M  V30 40105 C 3802.6 -0.335482 2.31077 0
M  V30 40106 C 3803.58 -1.00375 1.37328 0
M  V30 40107 O 3804.77 -1.00373 1.66249 0
M  V30 40108 C 3801.9 -1.42621 3.16665 0
M  V30 40109 C 3800.85 -0.880377 4.18848 0
M  V30 40110 C 3800.18 -2.0683 4.93078 0
M  V30 40111 C 3801.48 0.0983206 5.22207 0
M  V30 40112 H 3803.17 0.334109 2.9753 0
M  V30 40113 H 3800.72 0.162124 1.43084 0
M  V30 40114 H 3802.67 -1.98758 3.71582 0
M  V30 40115 H 3801.4 -2.12436 2.48069 0
M  V30 40116 H 3800.06 -0.341083 3.6501 0
M  V30 40117 H 3799.7 -2.75309 4.20968 0
M  V30 40118 H 3799.4 -1.70937 5.62187 0
M  V30 40119 H 3800.93 -2.63485 5.50825 0
M  V30 40120 H 3802.34 -0.37338 5.72083 0
M  V30 40121 H 3800.74 0.370779 5.98953 0
M  V30 40122 H 3801.81 1.02896 4.73857 0
M  V30 40123 N 3803.15 -1.56469 0.188482 0
M  V30 40124 C 3804.38 -2.01479 -0.457147 0
M  V30 40125 C 3804.79 -1.0678 -1.56188 0
M  V30 40126 O 3804.13 -0.0636913 -1.8359 0
M  V30 40127 C 3804.19 -3.42895 -1.07996 0
M  V30 40128 C 3803.86 -4.56856 -0.114777 0
M  V30 40129 C 3804.86 -5.15521 0.673359 0
M  V30 40130 C 3802.54 -5.023 -0.00561582 0
M  V30 40131 C 3804.53 -6.18073 1.55769 0
M  V30 40132 C 3802.22 -6.04697 0.88228 0
M  V30 40133 C 3803.22 -6.62457 1.6625 0
M  V30 40134 O 3802.91 -7.62867 2.53553 0
M  V30 40135 H 3802.64 -0.665305 -0.119772 0
M  V30 40136 H 3805.19 -2.03307 0.292482 0
M  V30 40137 H 3803.42 -3.38033 -1.87805 0
M  V30 40138 H 3805.11 -3.71753 -1.62955 0
M  V30 40139 H 3805.88 -4.81283 0.599292 0
M  V30 40140 H 3801.76 -4.57043 -0.602724 0
M  V30 40141 H 3805.3 -6.63085 2.16713 0
M  V30 40142 H 3801.2 -6.38359 0.957487 0
M  V30 40143 H 3801.97 -7.8026 2.47259 0
M  V30 40144 N 3804.63 0.0851597 -1.5737 0
M  V30 40145 C 3805.56 1.12901 -1.99464 0
M  V30 40146 C 3806.57 1.35752 -0.89862 0
M  V30 40147 O 3807.76 1.34229 -1.17665 0
M  V30 40148 C 3804.86 2.48261 -2.30693 0
M  V30 40149 C 3804.04 2.45551 -3.61972 0
M  V30 40150 C 3803.1 3.62915 -3.81024 0
M  V30 40151 O 3802.12 3.44953 -4.52765 0
M  V30 40152 N 3803.32 4.82769 -3.22357 0
M  V30 40153 H 3806.09 0.770649 -2.89622 0
M  V30 40154 H 3803.65 0.274005 -1.59564 0
M  V30 40155 H 3805.64 3.25396 -2.40624 0
M  V30 40156 H 3804.21 2.7615 -1.46492 0
M  V30 40157 H 3803.43 1.53894 -3.62919 0
M  V30 40158 H 3804.72 2.40828 -4.48196 0
M  V30 40159 H 3804.12 5.00267 -2.64102 0
M  V30 40160 H 3802.67 5.57462 -3.37757 0
M  V30 40161 N 3806.11 1.53521 0.356231 0
M  V30 40162 C 3807.07 1.79935 1.41971 0
M  V30 40163 C 3808.07 0.670023 1.46176 0
M  V30 40164 O 3809.26 0.938265 1.46773 0
M  V30 40165 C 3806.39 1.9299 2.81012 0
M  V30 40166 H 3807.59 2.74924 1.19819 0
M  V30 40167 H 3805.14 1.44741 0.589903 0
M  V30 40168 H 3805.87 1.00101 3.08465 0
M  V30 40169 H 3805.66 2.75139 2.79358 0
M  V30 40170 H 3807.15 2.14986 3.58009 0
M  V30 40171 N 3807.59 -0.616551 1.45039 0
M  V30 40172 C 3808.83 -1.37593 1.49799 0
M  V30 40173 C 3809.19 -1.91931 0.134277 0
M  V30 40174 O 3808.48 -1.71585 -0.852583 0
M  V30 40175 C 3808.67 -2.54872 2.5055 0
M  V30 40176 C 3808.5 -2.12017 3.96584 0
M  V30 40177 C 3807.27 -1.98609 4.64631 0
M  V30 40178 C 3809.47 -1.70032 4.8538 0
M  V30 40179 N 3807.45 -1.4947 5.95426 0
M  V30 40180 C 3808.82 -1.32245 6.05732 0
M  V30 40181 C 3810.88 -1.57544 4.72318 0
M  V30 40182 C 3809.58 -0.832154 7.1447 0
M  V30 40183 C 3811.61 -1.09919 5.81095 0
M  V30 40184 C 3810.97 -0.730899 7.00598 0
M  V30 40185 H 3807.07 -0.497741 0.60314 0
M  V30 40186 H 3809.65 -0.705788 1.81457 0
M  V30 40187 H 3807.82 -3.19494 2.20858 0
M  V30 40188 H 3809.56 -3.21722 2.45514 0
M  V30 40189 H 3806.31 -2.19517 4.19654 0
M  V30 40190 H 3806.73 -1.27159 6.64951 0
M  V30 40191 H 3811.38 -1.84645 3.8035 0
M  V30 40192 H 3809.09 -0.548674 8.06235 0
M  V30 40193 H 3812.68 -1.00694 5.7302 0
M  V30 40194 H 3811.56 -0.368039 7.83336 0
M  V30 40195 N 3809.06 -1.3218 -0.858264 0
M  V30 40196 C 3810.34 -1.13157 -1.59546 0
M  V30 40197 C 3810.72 0.309402 -2.0882 0
M  V30 40198 O 3810.07 1.30543 -1.87538 0
M  V30 40199 C 3810.28 -2.15602 -2.74439 0
M  V30 40200 C 3811.63 -2.48743 -3.4411 0
M  V30 40201 O 3812.65 -2.14119 -2.8466 0
M  V30 40202 O 3811.51 -3.08082 -4.51384 0
M  V30 40203 H 3808.6 -0.436417 -0.702474 0
M  V30 40204 H 3811.15 -1.43699 -0.902706 0
M  V30 40205 H 3809.92 -3.12478 -2.35528 0
M  V30 40206 H 3809.54 -1.86034 -3.51393 0
M  V30 40207 N 3810.54 1.07407 -1.15332 0
M  V30 40208 C 3811.95 1.61466 -0.937315 0
M  V30 40209 C 3812.3 1.89142 0.521512 0
M  V30 40210 O 3811.43 1.65646 1.3925 0
M  V30 40211 C 3812.02 2.93348 -1.69506 0
M  V30 40212 C 3810.58 3.44152 -1.52435 0
M  V30 40213 C 3809.73 2.18219 -1.71102 0
M  V30 40214 H 3812.68 0.905021 -1.30365 0
M  V30 40215 H 3812.7 3.62251 -1.16423 0
M  V30 40216 H 3812.21 2.73173 -2.75677 0
M  V30 40217 H 3810.31 3.69409 -0.486563 0
M  V30 40218 H 3810.43 4.20229 -2.30096 0
M  V30 40219 H 3808.79 2.27889 -1.13749 0
M  V30 40220 H 3809.57 2.0054 -2.78637 0
M  V30 40221 N 3812.02 0.950026 1.25747 0
M  V30 40222 C 3813.27 0.60322 1.93621 0
M  V30 40223 C 3813.6 -0.856895 1.74273 0
M  V30 40224 O 3812.87 -1.61422 1.08505 0
M  V30 40225 C 3813.16 0.957085 3.47148 0
M  V30 40226 C 3813.01 2.47259 3.75743 0
M  V30 40227 C 3814.33 0.478831 4.37487 0
M  V30 40228 H 3811.45 0.220624 0.703203 0
M  V30 40229 H 3814.09 1.18585 1.48451 0
M  V30 40230 H 3812.24 0.461287 3.85752 0
M  V30 40231 H 3813.91 3.0418 3.46803 0
M  V30 40232 H 3812.15 2.91228 3.2151 0
M  V30 40233 H 3812.83 2.6707 4.83092 0
M  V30 40234 H 3815.3 0.904058 4.0616 0
M  V30 40235 H 3814.18 0.755168 5.4368 0
M  V30 40236 H 3814.44 -0.621226 4.37714 0
M  V30 40237 N 3813.5 -1.40291 0.718063 0
M  V30 40238 C 3814.91 -1.83748 0.330707 0
M  V30 40239 C 3815.26 -1.60032 -1.13508 0
M  V30 40240 O 3814.38 -1.08251 -1.87379 0
M  V30 40241 C 3814.98 -3.33562 0.593456 0
M  V30 40242 C 3813.54 -3.75502 0.259783 0
M  V30 40243 C 3812.69 -2.63477 0.864584 0
M  V30 40244 H 3815.64 -1.29524 0.917023 0
M  V30 40245 H 3815.66 -3.80241 -0.140477 0
M  V30 40246 H 3815.17 -3.50791 1.66035 0
M  V30 40247 H 3813.27 -3.63868 -0.801947 0
M  V30 40248 H 3813.38 -4.73498 0.73051 0
M  V30 40249 H 3811.75 -2.53016 0.292443 0
M  V30 40250 H 3812.53 -2.83517 1.93579 0
M  V30 40251 N 3814.98 -0.464428 -1.50602 0
M  V30 40252 C 3816.2 0.0930314 -2.07191 0
M  V30 40253 C 3816.63 1.33335 -1.32677 0
M  V30 40254 O 3815.98 1.77432 -0.372484 0
M  V30 40255 C 3816.03 0.366712 -3.58731 0
M  V30 40256 O 3815.14 1.44842 -3.86128 0
M  V30 40257 H 3814.48 -0.0100452 -0.663924 0
M  V30 40258 H 3817.01 -0.653556 -1.93881 0
M  V30 40259 H 3817.02 0.609187 -4.03426 0
M  V30 40260 H 3815.69 -0.53968 -4.12384 0
M  V30 40261 H 3814.27 1.19378 -3.53275 0
M  V30 40262 N 3816.45 1.56367 -0.196777 0
M  V30 40263 C 3817.38 2.22169 0.718568 0
M  V30 40264 C 3818.37 1.18532 1.22 0
M  V30 40265 O 3819.55 1.47044 1.26853 0
M  V30 40266 C 3816.68 2.88235 1.93748 0
M  V30 40267 C 3815.63 3.98129 1.57089 0
M  V30 40268 C 3814.96 4.51368 2.86655 0
M  V30 40269 C 3816.26 5.1645 0.779559 0
M  V30 40270 H 3817.95 2.98917 0.170012 0
M  V30 40271 H 3815.5 1.43776 0.0803315 0
M  V30 40272 H 3817.45 3.32951 2.58306 0
M  V30 40273 H 3816.18 2.08894 2.51059 0
M  V30 40274 H 3814.84 3.54107 0.948885 0
M  V30 40275 H 3814.48 3.68788 3.42059 0
M  V30 40276 H 3814.18 5.25521 2.62871 0
M  V30 40277 H 3815.71 4.98787 3.52198 0
M  V30 40278 H 3817.12 5.577 1.32828 0
M  V30 40279 H 3815.52 5.9668 0.639777 0
M  V30 40280 H 3816.59 4.84405 -0.219029 0
M  V30 40281 N 3817.93 -0.0768128 1.57413 0
M  V30 40282 C 3819.16 -0.793799 1.91608 0
M  V30 40283 C 3819.58 -1.70579 0.792738 0
M  V30 40284 O 3818.94 -1.79502 -0.254719 0
M  V30 40285 C 3818.99 -1.5677 3.24739 0
M  V30 40286 O 3818.09 -2.67801 3.13618 0
M  V30 40287 H 3817.43 -0.216897 0.627576 0
M  V30 40288 H 3819.96 -0.0465597 2.04547 0
M  V30 40289 H 3819.97 -1.94803 3.58491 0
M  V30 40290 H 3818.65 -0.898517 4.06078 0
M  V30 40291 H 3817.23 -2.32663 2.91415 0
M  V30 40292 N 3819.41 -1.53708 -0.348084 0
M  V30 40293 C 3820.82 -1.62235 -0.92395 0
M  V30 40294 C 3821.17 -0.500778 -1.89701 0
M  V30 40295 O 3820.3 0.370175 -2.1321 0
M  V30 40296 C 3820.89 -2.94067 -1.68255 0
M  V30 40297 C 3819.45 -3.04871 -2.2075 0
M  V30 40298 C 3818.6 -2.57652 -1.02522 0
M  V30 40299 H 3821.55 -1.58196 -0.126353 0
M  V30 40300 H 3821.57 -2.82852 -2.54509 0
M  V30 40301 H 3821.08 -3.75677 -0.974089 0
M  V30 40302 H 3819.18 -2.27886 -2.94786 0
M  V30 40303 H 3819.3 -4.10261 -2.47432 0
M  V30 40304 H 3817.66 -2.12949 -1.39731 0
M  V30 40305 H 3818.44 -3.41696 -0.331461 0
M  V30 40306 N 3820.89 0.608851 -1.45364 0
M  V30 40307 C 3821.85 1.70158 -1.53554 0
M  V30 40308 C 3822.85 1.55348 -0.415173 0
M  V30 40309 O 3824.04 1.60439 -0.678608 0
M  V30 40310 C 3821.17 3.09417 -1.43087 0
M  V30 40311 H 3822.37 1.64264 -2.50913 0
M  V30 40312 H 3819.92 0.82447 -1.32786 0
M  V30 40313 H 3820.65 3.2089 -0.469072 0
M  V30 40314 H 3820.44 3.21575 -2.24348 0
M  V30 40315 H 3821.93 3.89014 -1.51848 0
M  V30 40316 N 3822.37 1.32633 0.851242 0
M  V30 40317 C 3823.59 1.26397 1.63803 0
M  V30 40318 C 3824.01 -0.167421 1.88056 0
M  V30 40319 O 3823.37 -1.10562 1.45198 0
M  V30 40320 C 3823.42 2.02386 2.99536 0
M  V30 40321 O 3823.14 3.3994 2.76355 0
M  V30 40322 C 3824.64 2.03214 3.93978 0
M  V30 40323 H 3821.86 0.435957 0.51008 0
M  V30 40324 H 3824.4 1.74811 1.0612 0
M  V30 40325 H 3822.56 1.57686 3.53856 0
M  V30 40326 H 3822.97 3.78877 3.62702 0
M  V30 40327 H 3824.45 2.6086 4.86473 0
M  V30 40328 H 3824.92 1.01926 4.27209 0
M  V30 40329 H 3825.53 2.47878 3.45596 0
M  V30 40330 N 3823.84 -1.06794 1.159 0
M  V30 40331 C 3825.07 -1.83206 0.961405 0
M  V30 40332 C 3825.49 -1.82321 -0.49036 0
M  V30 40333 O 3824.84 -1.23872 -1.34022 0
M  V30 40334 C 3824.9 -3.30043 1.47492 0
M  V30 40335 O 3824.62 -3.31018 2.86982 0
M  V30 40336 C 3826.12 -4.23203 1.31962 0
M  V30 40337 H 3823.34 -0.577834 0.3411 0
M  V30 40338 H 3825.88 -1.34772 1.53807 0
M  V30 40339 H 3824.04 -3.75806 0.940652 0
M  V30 40340 H 3824.45 -4.228 3.10388 0
M  V30 40341 H 3825.92 -5.24279 1.7273 0
M  V30 40342 H 3826.4 -4.38403 0.264516 0
M  V30 40343 H 3827.01 -3.83281 1.84325 0
M  V30 40344 N 3825.32 -0.956681 -1.25241 0
M  V30 40345 C 3826.57 -0.611362 -1.92631 0
M  V30 40346 C 3826.89 0.854639 -1.75274 0
M  V30 40347 O 3826.16 1.60892 -1.11761 0
M  V30 40348 H 3824.74 -0.223121 -0.7129 0
M  V30 40349 H 3827.4 -1.21537 -1.52364 0
M  V30 40350 H 3826.5 -0.842449 -3.00515 0
M  V30 40351 N 3826.8 1.39908 -0.725493 0
M  V30 40352 C 3827.76 2.29031 -0.0879359 0
M  V30 40353 C 3828.76 1.4585 0.67708 0
M  V30 40354 O 3829.95 1.66643 0.507509 0
M  V30 40355 C 3827.09 3.29211 0.88503 0
M  V30 40356 H 3828.28 2.86912 -0.873007 0
M  V30 40357 H 3825.83 1.48396 -0.490741 0
M  V30 40358 H 3826.57 2.76368 1.6968 0
M  V30 40359 H 3826.35 3.9063 0.339229 0
M  V30 40360 H 3827.84 3.95922 1.32799 0
M  V30 40361 N 3828.28 0.472408 1.50353 0
M  V30 40362 C 3829.21 -0.310954 2.3142 0
M  V30 40363 C 3830.19 -0.989127 1.38385 0
M  V30 40364 O 3831.37 -0.986045 1.67304 0
M  V30 40365 C 3828.5 -1.39254 3.1816 0
M  V30 40366 C 3827.46 -0.835903 4.19758 0
M  V30 40367 C 3826.78 -2.01588 4.95244 0
M  V30 40368 C 3828.08 0.153702 5.22074 0
M  V30 40369 H 3829.78 0.365647 2.97159 0
M  V30 40370 H 3827.32 0.177291 1.42904 0
M  V30 40371 H 3829.28 -1.94806 3.73669 0
M  V30 40372 H 3828 -2.09793 2.50308 0
M  V30 40373 H 3826.66 -0.30235 3.65351 0
M  V30 40374 H 3826.31 -2.70828 4.23865 0
M  V30 40375 H 3826.01 -1.64964 5.63969 0
M  V30 40376 H 3827.53 -2.57628 5.53589 0
M  V30 40377 H 3828.95 -0.312682 5.72447 0
M  V30 40378 H 3827.34 0.434286 5.98526 0
M  V30 40379 H 3828.41 1.07916 4.72739 0
M  V30 40380 N 3829.76 -1.5626 0.205067 0
M  V30 40381 C 3831.01 -1.97034 -0.43133 0
M  V30 40382 C 3831.32 -1.0952 -1.62064 0
M  V30 40383 O 3832.53 -1.4012 -2.32548 0
M  V30 40384 C 3830.98 -3.50463 -0.818779 0
M  V30 40385 C 3830.59 -4.46656 0.346801 0
M  V30 40386 C 3832.33 -3.99985 -1.4217 0
M  V30 40387 C 3830.24 -5.91367 -0.0621638 0
M  V30 40388 H 3829.17 -0.735742 -0.164921 0
M  V30 40389 H 3831.82 -1.81053 0.298667 0
M  V30 40390 H 3830.2 -3.61984 -1.60573 0
M  V30 40391 H 3831.38 -4.46872 1.12435 0
M  V30 40392 H 3829.69 -4.07383 0.86187 0
M  V30 40393 H 3832.29 -5.05586 -1.7403 0
M  V30 40394 H 3832.63 -3.44872 -2.33171 0
M  V30 40395 H 3833.17 -3.91619 -0.698522 0
M  V30 40396 H 3829.9 -6.50427 0.813916 0
M  V30 40397 H 3829.42 -5.94382 -0.804369 0
M  V30 40398 H 3831.1 -6.45107 -0.494546 0
M  V30 40399 N 3831.24 0.0684638 -1.57451 0
M  V30 40400 C 3832.46 0.783627 -1.92026 0
M  V30 40401 C 3832.89 1.70156 -0.801773 0
M  V30 40402 O 3832.24 1.79634 0.245196 0
M  V30 40403 C 3832.29 1.55046 -3.25566 0
M  V30 40404 O 3831.4 2.66134 -3.15034 0
M  V30 40405 H 3830.74 0.213565 -0.628718 0
M  V30 40406 H 3833.27 0.0357114 -2.04569 0
M  V30 40407 H 3833.28 1.92899 -3.59519 0
M  V30 40408 H 3831.95 0.876969 -4.06549 0
M  V30 40409 H 3830.53 2.31114 -2.92644 0
M  V30 40410 N 3832.71 1.5389 0.339928 0
M  V30 40411 C 3833.66 1.78513 1.41835 0
M  V30 40412 C 3834.65 0.640473 1.47603 0
M  V30 40413 O 3835.84 0.899977 1.52412 0
M  V30 40414 C 3832.97 2.00139 2.78925 0
M  V30 40415 C 3832.05 3.2068 2.77534 0
M  V30 40416 N 3832.45 4.42075 2.45771 0
M  V30 40417 C 3830.74 3.21922 3.08678 0
M  V30 40418 C 3831.44 5.23942 2.52705 0
M  V30 40419 N 3830.42 4.60741 2.88476 0
M  V30 40420 H 3834.22 2.69962 1.1618 0
M  V30 40421 H 3831.74 1.52864 0.548313 0
M  V30 40422 H 3833.73 2.15914 3.56633 0
M  V30 40423 H 3832.39 1.09934 3.05524 0
M  V30 40424 H 3833.4 4.69362 2.18905 0
M  V30 40425 H 3830.08 2.41697 3.40424 0
M  V30 40426 H 3831.47 6.30842 2.31276 0
M  V30 40427 N 3834.19 -0.601133 1.45685 0
M  V30 40428 C 3835.1 -1.73962 1.57399 0
M  V30 40429 C 3836.12 -1.6786 0.458163 0
M  V30 40430 O 3837.29 -1.881 0.71975 0
M  V30 40431 C 3834.36 -3.10437 1.54368 0
M  V30 40432 C 3833.42 -3.27944 2.7704 0
M  V30 40433 C 3832.65 -4.57909 2.74144 0
M  V30 40434 O 3832.88 -5.40639 1.81838 0
M  V30 40435 O 3831.81 -4.78268 3.65436 0
M  V30 40436 H 3835.64 -1.67029 2.53643 0
M  V30 40437 H 3833.22 -0.765994 1.28269 0
M  V30 40438 H 3835.1 -3.91736 1.55309 0
M  V30 40439 H 3833.78 -3.17847 0.612779 0
M  V30 40440 H 3832.68 -2.46209 2.81659 0
M  V30 40441 H 3834.02 -3.25415 3.69278 0
M  V30 40442 N 3835.67 -1.33083 -0.844196 0
M  V30 40443 C 3836.62 -1.22893 -1.95361 0
M  V30 40444 C 3837.59 -0.108735 -1.65744 0
M  V30 40445 O 3838.77 -0.28609 -1.88643 0
M  V30 40446 C 3835.91 -0.968652 -3.31227 0
M  V30 40447 C 3835.02 -2.17462 -3.73275 0
M  V30 40448 C 3834.16 -1.84894 -4.97984 0
M  V30 40449 C 3833.2 -3.01752 -5.32552 0
M  V30 40450 N 3832.34 -2.69208 -6.48438 0
M  V30 40451 H 3837.18 -2.17782 -2.03409 0
M  V30 40452 H 3834.71 -1.08302 -0.995442 0
M  V30 40453 H 3836.67 -0.798201 -4.09493 0
M  V30 40454 H 3835.3 -0.0565199 -3.22751 0
M  V30 40455 H 3834.35 -2.455 -2.90576 0
M  V30 40456 H 3835.66 -3.04841 -3.94808 0
M  V30 40457 H 3834.82 -1.64461 -5.83984 0
M  V30 40458 H 3833.56 -0.94744 -4.78409 0
M  V30 40459 H 3832.56 -3.22805 -4.45059 0
M  V30 40460 H 3833.79 -3.9265 -5.54079 0
M  V30 40461 H 3831.73 -1.81611 -6.3036 0
M  V30 40462 H 3831.65 -3.50117 -6.7004 0
M  V30 40463 H 3832.92 -2.5223 -7.37564 0
M  V30 40464 N 3837.15 1.06178 -1.16464 0
M  V30 40465 C 3838.08 2.15648 -0.895437 0
M  V30 40466 C 3839.06 1.69358 0.158699 0
M  V30 40467 O 3840.24 1.94197 0.0105519 0
M  V30 40468 C 3837.37 3.45023 -0.39702 0
M  V30 40469 C 3836.33 4.04827 -1.3892 0
M  V30 40470 C 3835.65 5.29426 -0.749136 0
M  V30 40471 C 3836.95 4.43471 -2.75918 0
M  V30 40472 H 3838.65 2.38426 -1.81089 0
M  V30 40473 H 3836.19 1.14587 -0.872118 0
M  V30 40474 H 3838.15 4.20943 -0.19616 0
M  V30 40475 H 3836.87 3.21868 0.553945 0
M  V30 40476 H 3835.53 3.30965 -1.57662 0
M  V30 40477 H 3835.18 5.02568 0.208351 0
M  V30 40478 H 3834.88 5.70398 -1.41138 0
M  V30 40479 H 3836.4 6.08042 -0.558324 0
M  V30 40480 H 3837.82 5.10468 -2.60951 0
M  V30 40481 H 3836.21 4.95431 -3.38627 0
M  V30 40482 H 3837.28 3.54278 -3.31082 0
M  V30 40483 N 3838.63 0.96331 1.24732 0
M  V30 40484 C 3839.56 0.508707 2.27891 0
M  V30 40485 C 3840.54 -0.449409 1.64056 0
M  V30 40486 O 3841.72 -0.346485 1.91084 0
M  V30 40487 C 3838.85 -0.206096 3.46688 0
M  V30 40488 C 3837.81 0.667608 4.22761 0
M  V30 40489 C 3837.13 -0.178435 5.34402 0
M  V30 40490 C 3838.43 1.95003 4.84532 0
M  V30 40491 H 3840.13 1.37093 2.66169 0
M  V30 40492 H 3837.67 0.660645 1.27951 0
M  V30 40493 H 3839.62 -0.535317 4.17986 0
M  V30 40494 H 3838.35 -1.10264 3.07424 0
M  V30 40495 H 3837.01 0.980038 3.53257 0
M  V30 40496 H 3836.66 -1.07499 4.91379 0
M  V30 40497 H 3836.36 0.402911 5.86217 0
M  V30 40498 H 3837.88 -0.502426 6.08529 0
M  V30 40499 H 3839.29 1.68667 5.47927 0
M  V30 40500 H 3837.69 2.47774 5.4656 0
M  V30 40501 H 3838.76 2.64772 4.06231 0
M  V30 40502 N 3840.1 -1.39522 0.732902 0
M  V30 40503 C 3841.03 -2.33256 0.106624 0
M  V30 40504 C 3842.01 -1.53802 -0.726555 0
M  V30 40505 O 3843.2 -1.82204 -0.671962 0
M  V30 40506 C 3840.33 -3.3789 -0.802991 0
M  V30 40507 C 3839.28 -4.27936 -0.0741296 0
M  V30 40508 C 3838.61 -5.2325 -1.10062 0
M  V30 40509 C 3839.91 -5.10969 1.08204 0
M  V30 40510 H 3841.6 -2.85879 0.889589 0
M  V30 40511 H 3839.15 -1.37454 0.429233 0
M  V30 40512 H 3841.1 -4.02414 -1.25064 0
M  V30 40513 H 3839.83 -2.83702 -1.61805 0
M  V30 40514 H 3838.49 -3.64888 0.353874 0
M  V30 40515 H 3838.13 -4.65359 -1.90919 0
M  V30 40516 H 3837.83 -5.84344 -0.617722 0
M  V30 40517 H 3839.36 -5.90651 -1.54801 0
M  V30 40518 H 3840.77 -5.6885 0.712935 0
M  V30 40519 H 3839.17 -5.81194 1.49443 0
M  V30 40520 H 3840.24 -4.45925 1.90471 0
M  V30 40521 N 3841.58 -0.480375 -1.501 0
M  V30 40522 C 3842.51 0.345378 -2.26583 0
M  V30 40523 C 3843.53 0.948923 -1.32285 0
M  V30 40524 O 3844.72 0.835756 -1.57726 0
M  V30 40525 C 3841.82 1.49927 -3.03933 0
M  V30 40526 C 3840.99 1.00682 -4.25655 0
M  V30 40527 C 3840.05 2.03585 -4.85221 0
M  V30 40528 O 3839.07 1.61271 -5.45876 0
M  V30 40529 N 3840.28 3.3647 -4.73041 0
M  V30 40530 H 3843.04 -0.310338 -2.98089 0
M  V30 40531 H 3840.6 -0.311699 -1.58871 0
M  V30 40532 H 3842.59 2.18479 -3.4066 0
M  V30 40533 H 3841.16 2.05951 -2.35166 0
M  V30 40534 H 3840.38 0.146863 -3.93926 0
M  V30 40535 H 3841.67 0.655868 -5.04555 0
M  V30 40536 H 3841.07 3.73551 -4.24824 0
M  V30 40537 H 3839.63 4.00795 -5.14011 0
M  V30 40538 N 3843.06 1.56149 -0.213351 0
M  V30 40539 C 3844.31 1.9726 0.420874 0
M  V30 40540 C 3844.62 1.10378 1.61481 0
M  V30 40541 O 3845.83 1.41351 2.31802 0
M  V30 40542 C 3844.28 3.50892 0.800182 0
M  V30 40543 C 3843.89 4.46465 -0.370484 0
M  V30 40544 C 3845.64 4.00733 1.40047 0
M  V30 40545 C 3843.54 5.91392 0.0308013 0
M  V30 40546 H 3842.47 0.736607 0.161017 0
M  V30 40547 H 3845.12 1.80892 -0.308264 0
M  V30 40548 H 3843.51 3.6283 1.58651 0
M  V30 40549 H 3844.68 4.4627 -1.14804 0
M  V30 40550 H 3842.99 4.0692 -0.883463 0
M  V30 40551 H 3845.59 5.06502 1.71346 0
M  V30 40552 H 3845.93 3.46104 2.31339 0
M  V30 40553 H 3846.47 3.91984 0.677744 0
M  V30 40554 H 3843.21 6.49987 -0.848398 0
M  V30 40555 H 3842.73 5.948 0.772836 0
M  V30 40556 H 3844.41 6.4536 0.460328 0
M  V30 40557 N 3844.54 -0.0601128 1.57485 0
M  V30 40558 C 3845.49 -1.08883 2.05542 0
M  V30 40559 C 3846.48 -1.39366 0.962987 0
M  V30 40560 O 3847.69 -1.38636 1.14805 0
M  V30 40561 H 3844.06 -0.368521 0.655512 0
M  V30 40562 H 3846.03 -0.657462 2.91067 0
M  V30 40563 C 3844.78 -2.39072 2.52468 0
M  V30 40564 H 3844.1 -2.16469 3.36127 0
M  V30 40565 H 3845.54 -3.09471 2.89834 0
M  V30 40566 C 3844 -3.05858 1.41253 0
M  V30 40567 O 3844.53 -3.94422 0.761188 0
M  V30 40568 N 3842.74 -2.66672 1.15474 0
M  V30 40569 H 3842.29 -1.94741 1.68623 0
M  V30 40570 H 3842.24 -3.1168 0.412696 0
M  V30 40571 N 3846.02 -1.54068 -0.331762 0
M  V30 40572 C 3847.43 -1.63205 -0.906691 0
M  V30 40573 C 3847.78 -0.52087 -1.8916 0
M  V30 40574 O 3846.9 0.34754 -2.13591 0
M  V30 40575 C 3847.5 -2.95835 -1.65127 0
M  V30 40576 C 3846.06 -3.07195 -2.17504 0
M  V30 40577 C 3845.2 -2.58725 -0.997834 0
M  V30 40578 H 3848.16 -1.58321 -0.109567 0
M  V30 40579 H 3848.18 -2.85536 -2.51495 0
M  V30 40580 H 3847.69 -3.76689 -0.934189 0
M  V30 40581 H 3845.79 -2.31 -2.92352 0
M  V30 40582 H 3845.9 -4.12862 -2.43067 0
M  V30 40583 H 3844.27 -2.14419 -1.37465 0
M  V30 40584 H 3845.05 -3.42028 -0.295201 0
M  V30 40585 N 3847.49 0.593399 -1.46002 0
M  V30 40586 C 3848.4 1.73125 -1.58319 0
M  V30 40587 C 3849.42 1.67614 -0.467059 0
M  V30 40588 O 3850.6 1.87716 -0.729715 0
M  V30 40589 C 3847.66 3.09614 -1.56012 0
M  V30 40590 C 3846.72 3.26471 -2.78775 0
M  V30 40591 C 3845.96 4.56449 -2.76569 0
M  V30 40592 O 3846.18 5.39667 -1.84703 0
M  V30 40593 O 3845.11 4.76323 -3.67968 0
M  V30 40594 H 3848.94 1.65682 -2.54525 0
M  V30 40595 H 3846.52 0.759181 -1.28673 0
M  V30 40596 H 3848.41 3.90907 -1.57384 0
M  V30 40597 H 3847.08 3.17518 -0.629626 0
M  V30 40598 H 3845.99 2.44712 -2.82961 0
M  V30 40599 H 3847.32 3.23452 -3.70998 0
M  V30 40600 N 3848.97 1.33529 0.837127 0
M  V30 40601 C 3850.39 1.12901 1.12807 0
M  V30 40602 C 3850.59 -0.0789408 2.01345 0
M  V30 40603 O 3849.64 -0.75869 2.40832 0
M  V30 40604 C 3850.96 2.41731 1.78848 0
M  V30 40605 C 3852.51 2.47654 1.91406 0
M  V30 40606 C 3852.98 3.7645 2.60863 0
M  V30 40607 N 3854.47 3.77531 2.68375 0
M  V30 40608 C 3855.21 4.739 3.22811 0
M  V30 40609 N 3854.7 5.80644 3.77921 0
M  V30 40610 N 3856.5 4.61373 3.21079 0
M  V30 40611 H 3848.65 2.10948 0.247905 0
M  V30 40612 H 3850.91 0.932173 0.172501 0
M  V30 40613 H 3850.62 3.30138 1.21252 0
M  V30 40614 H 3850.49 2.54011 2.78852 0
M  V30 40615 H 3852.88 1.59696 2.48156 0
M  V30 40616 H 3852.96 2.39314 0.90347 0
M  V30 40617 H 3852.6 4.64791 2.04772 0
M  V30 40618 H 3852.53 3.82067 3.62398 0
M  V30 40619 H 3855.02 3.00386 2.29296 0
M  V30 40620 H 3855.34 6.50211 4.17667 0
M  V30 40621 H 3853.68 5.84376 3.76204 0
M  V30 40622 H 3856.87 3.77136 2.77283 0
M  V30 40623 H 3857.04 5.36646 3.63201 0
M  V30 40624 N 3850.45 -1.05559 1.17026 0
M  V30 40625 C 3851.36 -2.16727 0.898145 0
M  V30 40626 C 3852.38 -1.73496 -0.132339 0
M  V30 40627 O 3853.55 -2.01347 0.0460556 0
M  V30 40628 C 3850.62 -3.44253 0.411152 0
M  V30 40629 C 3849.68 -4.01951 1.50777 0
M  V30 40630 C 3848.91 -5.23391 1.04392 0
M  V30 40631 O 3849.13 -5.70306 -0.103409 0
M  V30 40632 O 3848.07 -5.73233 1.8354 0
M  V30 40633 H 3851.89 -2.42528 1.82795 0
M  V30 40634 H 3849.48 -1.15237 0.950836 0
M  V30 40635 H 3851.36 -4.21144 0.146911 0
M  V30 40636 H 3850.04 -3.19961 -0.490548 0
M  V30 40637 H 3848.94 -3.26518 1.82585 0
M  V30 40638 H 3850.28 -4.30554 2.38505 0
M  V30 40639 N 3851.93 -0.969911 -1.2422 0
M  V30 40640 C 3852.86 -0.520785 -2.27618 0
M  V30 40641 C 3853.84 0.440702 -1.64292 0
M  V30 40642 O 3855.02 0.336347 -1.91265 0
M  V30 40643 C 3852.15 0.187707 -3.46792 0
M  V30 40644 C 3851.11 -0.690019 -4.22401 0
M  V30 40645 C 3850.43 0.150092 -5.34489 0
M  V30 40646 C 3851.73 -1.9757 -4.83491 0
M  V30 40647 H 3853.43 -1.38503 -2.65438 0
M  V30 40648 H 3850.97 -0.667421 -1.27599 0
M  V30 40649 H 3852.93 0.513143 -4.18264 0
M  V30 40650 H 3851.65 1.08632 -3.08004 0
M  V30 40651 H 3850.31 -0.998758 -3.52733 0
M  V30 40652 H 3849.96 1.04892 -4.91942 0
M  V30 40653 H 3849.66 -0.433994 -5.85995 0
M  V30 40654 H 3851.18 0.470148 -6.08787 0
M  V30 40655 H 3852.6 -1.71571 -5.47025 0
M  V30 40656 H 3850.99 -2.50669 -5.45238 0
M  V30 40657 H 3852.06 -2.66922 -4.04821 0
M  V30 40658 N 3853.41 1.39131 -0.740291 0
M  V30 40659 C 3854.65 2.00009 -0.289984 0
M  V30 40660 C 3854.98 1.59044 1.12828 0
M  V30 40661 O 3854.25 0.841107 1.76924 0
M  V30 40662 H 3852.83 0.739693 -0.104226 0
M  V30 40663 H 3855.49 1.701 -0.951428 0
M  V30 40664 H 3854.58 3.10214 -0.342563 0
M  V30 40665 N 3854.88 0.488329 1.49844 0
M  V30 40666 C 3856.11 -0.0600573 2.07313 0
M  V30 40667 C 3856.53 -1.31208 1.34782 0
M  V30 40668 O 3855.89 -1.76817 0.400665 0
M  V30 40669 C 3855.94 -0.309595 3.59269 0
M  V30 40670 O 3855.04 -1.38681 3.88383 0
M  V30 40671 H 3854.39 0.0206064 0.66368 0
M  V30 40672 H 3856.92 0.684318 1.92817 0
M  V30 40673 H 3856.93 -0.544929 4.04345 0
M  V30 40674 H 3855.6 0.605218 4.11473 0
M  V30 40675 H 3854.18 -1.13743 3.5513 0
M  V30 40676 N 3856.36 -1.56034 0.221629 0
M  V30 40677 C 3857.3 -2.16261 -0.728457 0
M  V30 40678 C 3858.27 -1.10702 -1.19095 0
M  V30 40679 O 3859.46 -1.38959 -1.27368 0
M  V30 40680 C 3856.58 -2.74295 -1.98695 0
M  V30 40681 C 3855.63 -3.92682 -1.66442 0
M  V30 40682 S 3856.46 -5.29653 -0.789146 0
M  V30 40683 C 3857.62 -5.91126 -2.0572 0
M  V30 40684 H 3857.85 -2.9651 -0.216554 0
M  V30 40685 H 3855.39 -1.54399 0.00632274 0
M  V30 40686 H 3857.34 -3.08371 -2.70957 0
M  V30 40687 H 3856 -1.94039 -2.46998 0
M  V30 40688 H 3855.2 -4.31791 -2.59948 0
M  V30 40689 H 3854.8 -3.59753 -1.02244 0
M  V30 40690 H 3857.09 -6.07104 -3.00717 0
M  V30 40691 H 3858.03 -6.87142 -1.71002 0
M  V30 40692 H 3858.44 -5.1996 -2.19777 0
M  V30 40693 N 3857.84 0.0517601 -1.57515 0
M  V30 40694 C 3859.07 0.763216 -1.92847 0
M  V30 40695 C 3859.49 1.69296 -0.819775 0
M  V30 40696 O 3858.85 1.79884 0.226129 0
M  V30 40697 C 3858.9 1.51584 -3.27192 0
M  V30 40698 O 3858 2.62778 -3.17839 0
M  V30 40699 H 3857.34 0.206885 -0.630947 0
M  V30 40700 H 3859.87 0.0140122 -2.04595 0
M  V30 40701 H 3859.88 1.89075 -3.61545 0
M  V30 40702 H 3858.56 0.833799 -4.07456 0
M  V30 40703 H 3857.13 2.27997 -2.95079 0
M  V30 40704 N 3859.32 1.54242 0.323587 0
M  V30 40705 C 3860.55 1.76154 1.07951 0
M  V30 40706 C 3860.96 0.510131 1.82193 0
M  V30 40707 O 3860.3 -0.528807 1.75924 0
M  V30 40708 C 3860.36 2.90106 2.12318 0
M  V30 40709 C 3860.03 4.29012 1.57473 0
M  V30 40710 C 3861.02 5.09865 1.01653 0
M  V30 40711 C 3858.71 4.75555 1.61717 0
M  V30 40712 C 3860.7 6.35372 0.508057 0
M  V30 40713 C 3858.39 6.0103 1.10482 0
M  V30 40714 C 3859.39 6.80772 0.551211 0
M  V30 40715 O 3859.08 8.03887 0.046564 0
M  V30 40716 H 3858.81 0.591686 0.326931 0
M  V30 40717 H 3861.36 2.01941 0.375388 0
M  V30 40718 H 3859.59 2.5989 2.86346 0
M  V30 40719 H 3861.28 2.99801 2.73631 0
M  V30 40720 H 3862.05 4.75061 0.976815 0
M  V30 40721 H 3857.93 4.13531 2.03748 0
M  V30 40722 H 3861.47 6.97559 0.0752856 0
M  V30 40723 H 3857.37 6.35325 1.14161 0
M  V30 40724 H 3858.13 8.1834 0.161989 0
M  V30 40725 N 3860.8 -0.585648 1.46314 0
M  V30 40726 C 3861.74 -1.69492 1.56656 0
M  V30 40727 C 3862.71 -1.60934 0.411035 0
M  V30 40728 O 3863.9 -1.8019 0.6274 0
M  V30 40729 C 3861.04 -3.07827 1.56002 0
M  V30 40730 C 3860.15 -3.27031 2.82267 0
M  V30 40731 C 3859.29 -4.55598 2.73137 0
M  V30 40732 C 3858.33 -4.68136 3.94354 0
M  V30 40733 N 3857.46 -5.88026 3.83628 0
M  V30 40734 H 3862.3 -1.59991 2.5141 0
M  V30 40735 H 3859.84 -0.779799 1.2473 0
M  V30 40736 H 3861.8 -3.87892 1.53608 0
M  V30 40737 H 3860.43 -3.16233 0.647821 0
M  V30 40738 H 3859.48 -2.40591 2.94653 0
M  V30 40739 H 3860.79 -3.32164 3.72113 0
M  V30 40740 H 3859.95 -5.43888 2.68832 0
M  V30 40741 H 3858.69 -4.52899 1.80925 0
M  V30 40742 H 3857.69 -3.78265 3.98993 0
M  V30 40743 H 3858.92 -4.72617 4.87658 0
M  V30 40744 H 3856.86 -5.86329 2.94201 0
M  V30 40745 H 3856.78 -5.94414 4.67127 0
M  V30 40746 H 3858.05 -6.78754 3.83293 0
M  V30 40747 N 3862.28 -1.33971 -0.830033 0
M  V30 40748 C 3863.21 -1.27596 -1.95555 0
M  V30 40749 C 3864.19 -0.154775 -1.69394 0
M  V30 40750 O 3865.37 -0.345988 -1.91093 0
M  V30 40751 C 3862.5 -1.02341 -3.31879 0
M  V30 40752 C 3861.46 -2.10848 -3.72461 0
M  V30 40753 C 3860.78 -1.70794 -5.06689 0
M  V30 40754 C 3862.08 -3.52611 -3.85309 0
M  V30 40755 H 3863.78 -2.21767 -2.01147 0
M  V30 40756 H 3861.32 -1.06758 -0.966371 0
M  V30 40757 H 3863.27 -0.965278 -4.10195 0
M  V30 40758 H 3862 -0.0461036 -3.26567 0
M  V30 40759 H 3860.66 -2.15719 -2.96414 0
M  V30 40760 H 3860.31 -0.717422 -4.97857 0
M  V30 40761 H 3860.01 -2.43412 -5.34812 0
M  V30 40762 H 3861.53 -1.66463 -5.87471 0
M  V30 40763 H 3862.94 -3.50193 -4.53914 0
M  V30 40764 H 3861.34 -4.23791 -4.24878 0
M  V30 40765 H 3862.41 -3.90471 -2.87507 0
M  V30 40766 N 3863.75 1.04937 -1.17584 0
M  V30 40767 C 3865 1.77633 -0.963901 0
M  V30 40768 C 3865.32 1.88253 0.508515 0
M  V30 40769 O 3864.59 1.40116 1.3691 0
M  V30 40770 H 3863.17 0.657984 -0.353647 0
M  V30 40771 H 3865.83 1.26691 -1.48106 0
M  V30 40772 H 3864.93 2.79217 -1.39443 0
M  V30 40773 N 3865.23 0.976485 1.23703 0
M  V30 40774 C 3866.16 0.471577 2.24296 0
M  V30 40775 C 3867.18 -0.424456 1.57169 0
M  V30 40776 O 3868.37 -0.229221 1.77022 0
M  V30 40777 C 3865.47 -0.337562 3.37215 0
M  V30 40778 C 3864.64 0.550662 4.3392 0
M  V30 40779 C 3863.7 -0.20396 5.25805 0
M  V30 40780 O 3862.72 0.405095 5.67757 0
M  V30 40781 N 3863.93 -1.49107 5.61024 0
M  V30 40782 H 3866.69 1.3365 2.6825 0
M  V30 40783 H 3864.25 0.849306 1.37835 0
M  V30 40784 H 3866.24 -0.850644 3.95659 0
M  V30 40785 H 3864.81 -1.10346 2.92476 0
M  V30 40786 H 3864.03 1.24462 3.74036 0
M  V30 40787 H 3865.32 1.15613 4.95491 0
M  V30 40788 H 3864.72 -2.00748 5.28883 0
M  V30 40789 H 3863.28 -1.94967 6.21958 0
M  V30 40790 N 3866.71 -1.38737 0.747659 0
M  V30 40791 C 3867.96 -2.00544 0.301628 0
M  V30 40792 C 3868.29 -1.59207 -1.11205 0
M  V30 40793 O 3867.56 -0.826836 -1.7605 0
M  V30 40794 C 3867.85 -3.57668 0.417802 0
M  V30 40795 C 3867.7 -4.08987 1.87216 0
M  V30 40796 C 3869.02 -4.3968 -0.192326 0
M  V30 40797 H 3866.14 -0.728582 0.111073 0
M  V30 40798 H 3868.78 -1.64764 0.946191 0
M  V30 40799 H 3866.93 -3.88279 -0.130955 0
M  V30 40800 H 3868.6 -3.89043 2.47877 0
M  V30 40801 H 3866.84 -3.62074 2.38924 0
M  V30 40802 H 3867.52 -5.181 1.90464 0
M  V30 40803 H 3869.99 -4.15186 0.275613 0
M  V30 40804 H 3868.87 -5.48841 -0.0807641 0
M  V30 40805 H 3869.13 -4.23167 -1.27992 0
M  V30 40806 N 3868.19 -0.496268 -1.49583 0
M  V30 40807 C 3869.41 0.0490621 -2.07342 0
M  V30 40808 C 3869.84 1.30491 -1.35476 0
M  V30 40809 O 3869.2 1.76602 -0.410036 0
M  V30 40810 C 3869.24 0.290538 -3.59428 0
M  V30 40811 O 3868.35 1.36619 -3.89113 0
M  V30 40812 H 3867.69 -0.0241258 -0.663562 0
M  V30 40813 H 3870.22 -0.694534 -1.92451 0
M  V30 40814 H 3870.23 0.523478 -4.04628 0
M  V30 40815 H 3868.9 -0.627031 -4.11146 0
M  V30 40816 H 3867.48 1.11858 -3.55728 0
M  V30 40817 N 3869.67 1.55914 -0.2299 0
M  V30 40818 C 3870.91 1.97695 0.399929 0
M  V30 40819 C 3871.23 1.12084 1.60301 0
M  V30 40820 O 3872.43 1.43802 2.3029 0
M  V30 40821 C 3870.89 3.51721 0.76292 0
M  V30 40822 C 3870.5 4.46047 -0.417816 0
M  V30 40823 C 3872.24 4.02196 1.35789 0
M  V30 40824 C 3870.15 5.91391 -0.0319255 0
M  V30 40825 H 3869.08 0.738273 0.153196 0
M  V30 40826 H 3871.73 1.80555 -0.327433 0
M  V30 40827 H 3870.11 3.64493 1.54794 0
M  V30 40828 H 3871.29 4.45027 -1.1953 0
M  V30 40829 H 3869.6 4.0596 -0.926572 0
M  V30 40830 H 3872.2 5.08291 1.65965 0
M  V30 40831 H 3872.54 3.48538 2.27655 0
M  V30 40832 H 3873.07 3.92681 0.636131 0
M  V30 40833 H 3869.81 6.4905 -0.91729 0
M  V30 40834 H 3869.33 5.95586 0.709706 0
M  V30 40835 H 3871.01 6.45812 0.391853 0
M  V30 40836 N 3871.14 -0.043406 1.5754 0
M  V30 40837 C 3872.09 -1.05598 2.02072 0
M  V30 40838 C 3873.08 -1.32865 0.907515 0
M  V30 40839 O 3874.27 -1.32689 1.17143 0
M  V30 40840 C 3871.4 -2.36145 2.4918 0
M  V30 40841 C 3870.48 -2.1203 3.67293 0
M  V30 40842 N 3870.88 -1.57929 4.80512 0
M  V30 40843 C 3869.17 -2.4238 3.7439 0
M  V30 40844 C 3869.87 -1.49288 5.62217 0
M  V30 40845 N 3868.85 -1.96344 5.06902 0
M  V30 40846 H 3872.65 -0.631465 2.87036 0
M  V30 40847 H 3870.17 -0.249984 1.60464 0
M  V30 40848 H 3872.16 -3.09479 2.79336 0
M  V30 40849 H 3870.82 -2.79288 1.65615 0
M  V30 40850 H 3871.83 -1.26396 5.02239 0
M  V30 40851 H 3868.51 -2.88696 3.01597 0
M  V30 40852 H 3869.9 -1.08071 6.63152 0
M  V30 40853 N 3872.62 -1.54412 -0.315402 0
M  V30 40854 C 3873.85 -1.77301 -1.07607 0
M  V30 40855 C 3874.27 -0.523995 -1.80654 0
M  V30 40856 O 3873.63 0.524843 -1.73537 0
M  V30 40857 C 3873.68 -2.97108 -2.0435 0
M  V30 40858 O 3872.78 -2.69225 -3.12397 0
M  V30 40859 H 3872.12 -0.587273 -0.30985 0
M  V30 40860 H 3874.65 -2.01458 -0.35721 0
M  V30 40861 H 3874.66 -3.24681 -2.47075 0
M  V30 40862 H 3873.34 -3.87681 -1.50585 0
M  V30 40863 H 3871.91 -2.52626 -2.74289 0
M  V30 40864 N 3874.1 0.57788 -1.46623 0
M  V30 40865 C 3875.35 1.33789 -1.52408 0
M  V30 40866 C 3875.68 1.9339 -0.177181 0
M  V30 40867 O 3874.95 1.76742 0.811939 0
M  V30 40868 C 3875.24 2.46361 -2.62637 0
M  V30 40869 C 3875.09 1.91764 -4.06874 0
M  V30 40870 C 3876.41 3.48386 -2.68915 0
M  V30 40871 H 3873.53 0.485097 -0.554842 0
M  V30 40872 H 3876.17 0.648708 -1.78583 0
M  V30 40873 H 3874.32 3.0515 -2.40449 0
M  V30 40874 H 3875.99 1.37395 -4.40364 0
M  V30 40875 H 3874.24 1.22562 -4.16126 0
M  V30 40876 H 3874.91 2.73047 -4.79739 0
M  V30 40877 H 3877.38 2.99485 -2.88873 0
M  V30 40878 H 3876.26 4.24605 -3.47854 0
M  V30 40879 H 3876.52 4.05922 -1.75156 0
M  V30 40880 N 3875.58 1.34409 0.822917 0
M  V30 40881 C 3876.82 1.27963 1.58105 0
M  V30 40882 C 3877.18 -0.149114 1.91821 0
M  V30 40883 O 3876.47 -1.09538 1.572 0
M  V30 40884 C 3876.67 2.10393 2.88911 0
M  V30 40885 C 3876.5 3.61138 2.67973 0
M  V30 40886 C 3875.27 4.30417 2.64707 0
M  V30 40887 C 3877.46 4.55138 2.39487 0
M  V30 40888 N 3875.45 5.6701 2.35313 0
M  V30 40889 C 3876.82 5.79735 2.19788 0
M  V30 40890 C 3878.87 4.44052 2.25215 0
M  V30 40891 C 3877.57 6.94496 1.87264 0
M  V30 40892 C 3879.6 5.58645 1.94086 0
M  V30 40893 C 3878.96 6.82261 1.75211 0
M  V30 40894 H 3875.06 0.523482 0.580939 0
M  V30 40895 H 3877.65 1.69121 0.964681 0
M  V30 40896 H 3875.82 1.71531 3.48471 0
M  V30 40897 H 3877.55 1.95591 3.54297 0
M  V30 40898 H 3874.3 3.82856 2.7878 0
M  V30 40899 H 3874.73 6.39059 2.23457 0
M  V30 40900 H 3879.37 3.49101 2.38513 0
M  V30 40901 H 3877.09 7.8943 1.72703 0
M  V30 40902 H 3880.67 5.52013 1.83775 0
M  V30 40903 H 3879.55 7.69432 1.51472 0
M  V30 40904 N 3877.06 -1.04312 1.18139 0
M  V30 40905 C 3877.99 -2.14196 0.929631 0
M  V30 40906 C 3878.97 -1.69589 -0.131736 0
M  V30 40907 O 3880.15 -1.94189 0.0203446 0
M  V30 40908 C 3877.28 -3.44348 0.451859 0
M  V30 40909 C 3876.24 -4.02566 1.45343 0
M  V30 40910 C 3875.56 -5.28167 0.833269 0
M  V30 40911 C 3876.86 -4.39026 2.82938 0
M  V30 40912 H 3878.56 -2.35515 1.8486 0
M  V30 40913 H 3876.1 -1.13185 0.890237 0
M  V30 40914 H 3878.06 -4.20578 0.263104 0
M  V30 40915 H 3876.78 -3.22709 -0.502668 0
M  V30 40916 H 3875.44 -3.28415 1.62908 0
M  V30 40917 H 3875.09 -5.02836 -0.12837 0
M  V30 40918 H 3874.79 -5.6808 1.50195 0
M  V30 40919 H 3876.31 -6.07077 0.654987 0
M  V30 40920 H 3877.72 -5.06252 2.69039 0
M  V30 40921 H 3876.12 -4.89981 3.46466 0
M  V30 40922 H 3877.19 -3.48966 3.36676 0
M  V30 40923 N 3878.53 -0.983032 -1.23184 0
M  V30 40924 C 3879.78 -0.652085 -1.91291 0
M  V30 40925 C 3880.1 0.817269 -1.77047 0
M  V30 40926 O 3879.37 1.58485 -1.15149 0
M  V30 40927 H 3877.95 -0.238193 -0.708006 0
M  V30 40928 H 3880.62 -1.24741 -1.49752 0
M  V30 40929 H 3879.71 -0.906003 -2.9866 0
M  V30 40930 N 3880.01 1.38338 -0.755006 0
M  V30 40931 C 3880.96 2.32302 -0.11762 0
M  V30 40932 C 3881.95 1.54091 0.703732 0
M  V30 40933 O 3883.16 1.69611 0.602671 0
M  V30 40934 H 3879.54 0.751754 -0.0192408 0
M  V30 40935 H 3881.51 2.83663 -0.926163 0
M  V30 40936 C 3880.26 3.39288 0.760179 0
M  V30 40937 H 3879.58 3.99563 0.137548 0
M  V30 40938 H 3881.02 4.07439 1.17342 0
M  V30 40939 C 3879.48 2.77977 1.90342 0
M  V30 40940 O 3880.01 2.67398 2.99769 0
M  V30 40941 N 3878.21 2.35766 1.6989 0
M  V30 40942 H 3877.76 2.44571 0.808883 0
M  V30 40943 H 3877.72 1.95086 2.46554 0
M  V30 40944 N 3881.49 0.504194 1.49317 0
M  V30 40945 C 3882.72 -0.0380656 2.07365 0
M  V30 40946 C 3883.14 -1.29771 1.36166 0
M  V30 40947 O 3882.5 -1.76382 0.419396 0
M  V30 40948 C 3882.55 -0.271472 3.59577 0
M  V30 40949 O 3881.65 -1.34554 3.89832 0
M  V30 40950 H 3880.99 0.0276445 0.663424 0
M  V30 40951 H 3883.52 0.70473 1.9208 0
M  V30 40952 H 3883.53 -0.502012 4.049 0
M  V30 40953 H 3882.21 0.648827 4.10808 0
M  V30 40954 H 3880.78 -1.0997 3.56316 0
M  V30 40955 N 3882.97 -1.5579 0.238166 0
M  V30 40956 C 3884.22 -1.97905 -0.389439 0
M  V30 40957 C 3884.53 -1.12933 -1.59705 0
M  V30 40958 O 3885.74 -1.45021 -2.29524 0
M  V30 40959 C 3884.19 -3.5212 -0.744257 0
M  V30 40960 C 3883.8 -4.4582 0.441466 0
M  V30 40961 C 3885.54 -4.02911 -1.33654 0
M  V30 40962 C 3883.45 -5.91366 0.063288 0
M  V30 40963 H 3882.38 -0.739075 -0.149278 0
M  V30 40964 H 3885.03 -1.80379 0.337004 0
M  V30 40965 H 3883.41 -3.65308 -1.52858 0
M  V30 40966 H 3884.59 -4.44387 1.21889 0
M  V30 40967 H 3882.9 -4.05463 0.948088 0
M  V30 40968 H 3885.5 -5.09164 -1.63267 0
M  V30 40969 H 3885.84 -3.4974 -2.25804 0
M  V30 40970 H 3886.38 -3.93013 -0.615297 0
M  V30 40971 H 3883.12 -6.48555 0.951698 0
M  V30 40972 H 3882.64 -5.95954 -0.678111 0
M  V30 40973 H 3884.31 -6.46011 -0.357598 0
M  V30 40974 N 3884.45 0.0350506 -1.57561 0
M  V30 40975 C 3885.67 0.738996 -1.93252 0
M  V30 40976 C 3886.09 1.69212 -0.83742 0
M  V30 40977 O 3885.45 1.81543 0.186637 0
M  V30 40978 C 3885.5 1.50121 -3.28856 0
M  V30 40979 O 3885.22 0.58635 -4.34158 0
M  V30 40980 C 3886.72 2.30285 -3.78792 0
M  V30 40981 H 3883.94 0.208041 -0.637934 0
M  V30 40982 H 3886.48 -0.00563993 -2.04499 0
M  V30 40983 H 3884.64 2.19778 -3.19024 0
M  V30 40984 H 3885.05 1.12025 -5.12397 0
M  V30 40985 H 3886.53 2.7917 -4.76202 0
M  V30 40986 H 3887 3.11443 -3.09677 0
M  V30 40987 H 3887.61 1.65714 -3.91687 0
M  V30 40988 N 3885.92 1.54577 0.307209 0
M  V30 40989 C 3887.34 1.64627 0.880611 0
M  V30 40990 C 3887.69 0.550898 1.88307 0
M  V30 40991 O 3886.81 -0.313515 2.14117 0
M  V30 40992 C 3887.41 2.98425 1.604 0
M  V30 40993 C 3885.97 3.10617 2.12589 0
M  V30 40994 C 3885.11 2.6028 0.956547 0
M  V30 40995 H 3888.06 1.58476 0.084366 0
M  V30 40996 H 3888.08 2.89501 2.4692 0
M  V30 40997 H 3887.6 3.78127 0.874143 0
M  V30 40998 H 3885.7 2.35622 2.8864 0
M  V30 40999 H 3885.81 4.16677 2.36468 0
M  V30 41000 H 3884.17 2.16579 1.34036 0
M  V30 41001 H 3884.96 3.42455 0.24075 0
M  V30 41002 N 3887.4 -0.570096 1.46927 0
M  V30 41003 C 3888.33 -1.6882 1.61314 0
M  V30 41004 C 3889.31 -1.63678 0.462993 0
M  V30 41005 O 3890.5 -1.81499 0.690777 0
M  V30 41006 C 3887.63 -3.07463 1.61504 0
M  V30 41007 C 3886.58 -3.27444 2.75616 0
M  V30 41008 C 3885.91 -4.66743 2.60873 0
M  V30 41009 C 3887.21 -3.1406 4.17329 0
M  V30 41010 H 3888.9 -1.57036 2.54912 0
M  V30 41011 H 3886.45 -0.754056 1.22678 0
M  V30 41012 H 3888.4 -3.85517 1.70161 0
M  V30 41013 H 3887.13 -3.20176 0.644586 0
M  V30 41014 H 3885.78 -2.51795 2.66449 0
M  V30 41015 H 3885.43 -4.76238 1.61883 0
M  V30 41016 H 3885.13 -4.81063 3.37419 0
M  V30 41017 H 3886.66 -5.46949 2.7144 0
M  V30 41018 H 3888.07 -3.81944 4.27541 0
M  V30 41019 H 3886.47 -3.39896 4.94561 0
M  V30 41020 H 3887.54 -2.10971 4.36599 0
M  V30 41021 N 3888.88 -1.34844 -0.815777 0
M  V30 41022 C 3890.3 -1.14681 -1.10997 0
M  V30 41023 C 3890.5 0.0468985 -2.01445 0
M  V30 41024 O 3889.55 0.720279 -2.42009 0
M  V30 41025 C 3890.87 -2.44546 -1.7498 0
M  V30 41026 C 3892.41 -2.50668 -1.87442 0
M  V30 41027 C 3892.89 -3.80552 -2.54841 0
M  V30 41028 N 3894.38 -3.81752 -2.62334 0
M  V30 41029 C 3895.12 -4.78975 -3.15231 0
M  V30 41030 N 3894.61 -5.86583 -3.68635 0
M  V30 41031 N 3896.4 -4.66422 -3.13698 0
M  V30 41032 H 3888.56 -2.11316 -0.214314 0
M  V30 41033 H 3890.82 -0.9348 -0.157649 0
M  V30 41034 H 3890.52 -3.32025 -1.15984 0
M  V30 41035 H 3890.4 -2.58415 -2.74776 0
M  V30 41036 H 3892.79 -1.63623 -2.45584 0
M  V30 41037 H 3892.87 -2.40721 -0.865283 0
M  V30 41038 H 3892.51 -4.6799 -1.97352 0
M  V30 41039 H 3892.44 -3.87785 -3.56273 0
M  V30 41040 H 3894.93 -3.03996 -2.24488 0
M  V30 41041 H 3895.24 -6.56773 -4.0727 0
M  V30 41042 H 3893.59 -5.90287 -3.66859 0
M  V30 41043 H 3896.78 -3.815 -2.71248 0
M  V30 41044 H 3896.95 -5.42357 -3.54617 0
M  V30 41045 N 3890.36 1.03684 -1.1869 0
M  V30 41046 C 3891.27 2.15271 -0.932511 0
M  V30 41047 C 3892.29 1.73685 0.10472 0
M  V30 41048 O 3893.46 2.01249 -0.0780824 0
M  V30 41049 C 3890.53 3.43556 -0.465867 0
M  V30 41050 C 3889.59 3.99502 -1.57153 0
M  V30 41051 C 3888.82 5.21664 -1.12705 0
M  V30 41052 O 3889.04 5.70399 0.0126654 0
M  V30 41053 O 3887.98 5.70241 -1.92637 0
M  V30 41054 H 3891.8 2.39589 -1.8663 0
M  V30 41055 H 3889.39 1.13709 -0.969049 0
M  V30 41056 H 3891.27 4.20857 -0.213893 0
M  V30 41057 H 3889.95 3.20701 0.439583 0
M  V30 41058 H 3888.85 3.23571 -1.87756 0
M  V30 41059 H 3890.19 4.26705 -2.45324 0
M  V30 41060 N 3891.84 0.989551 1.22661 0
M  V30 41061 C 3892.75 0.545875 2.28161 0
M  V30 41062 C 3893.76 -0.403732 1.69251 0
M  V30 41063 O 3894.94 -0.271392 1.99563 0
M  V30 41064 C 3892 -0.135747 3.46434 0
M  V30 41065 C 3891.07 0.856404 4.20671 0
M  V30 41066 C 3890.3 0.207215 5.33298 0
M  V30 41067 O 3890.52 -0.999651 5.61572 0
M  V30 41068 O 3889.46 0.910393 5.94975 0
M  V30 41069 H 3893.28 1.42349 2.68273 0
M  V30 41070 H 3890.87 0.757632 1.28765 0
M  V30 41071 H 3892.75 -0.517702 4.18208 0
M  V30 41072 H 3891.42 -0.987981 3.08254 0
M  V30 41073 H 3890.33 1.28923 3.51183 0
M  V30 41074 H 3891.66 1.67773 4.62723 0
M  V30 41075 N 3893.32 -1.37936 0.762332 0
M  V30 41076 C 3894.23 -2.34165 0.142765 0
M  V30 41077 C 3895.24 -1.5971 -0.690559 0
M  V30 41078 O 3896.42 -1.91855 -0.612677 0
M  V30 41079 C 3893.48 -3.38857 -0.733265 0
M  V30 41080 C 3892.54 -4.29145 0.115434 0
M  V30 41081 C 3891.78 -5.28836 -0.718879 0
M  V30 41082 O 3892 -5.35797 -1.95647 0
M  V30 41083 O 3890.93 -6.01753 -0.133056 0
M  V30 41084 H 3894.76 -2.88861 0.937713 0
M  V30 41085 H 3892.34 -1.39934 0.523349 0
M  V30 41086 H 3894.23 -4.02937 -1.23367 0
M  V30 41087 H 3892.9 -2.86504 -1.50656 0
M  V30 41088 H 3891.81 -3.68196 0.66199 0
M  V30 41089 H 3893.14 -4.84777 0.85159 0
M  V30 41090 N 3894.79 -0.512106 -1.49048 0
M  V30 41091 C 3896.04 0.0204443 -2.0339 0
M  V30 41092 C 3896.39 1.33667 -1.38387 0
M  V30 41093 O 3895.69 1.84569 -0.514279 0
M  V30 41094 C 3895.88 0.218062 -3.56734 0
M  V30 41095 C 3895.71 -1.07746 -4.36602 0
M  V30 41096 C 3894.48 -1.63236 -4.78207 0
M  V30 41097 C 3896.68 -1.98357 -4.74509 0
M  V30 41098 N 3894.66 -2.87263 -5.42543 0
M  V30 41099 C 3896.03 -3.06961 -5.38679 0
M  V30 41100 C 3898.09 -1.98901 -4.56446 0
M  V30 41101 C 3896.79 -4.1615 -5.86695 0
M  V30 41102 C 3898.82 -3.07072 -5.05431 0
M  V30 41103 C 3898.18 -4.14395 -5.69611 0
M  V30 41104 H 3894.28 -0.0335754 -0.781279 0
M  V30 41105 H 3896.86 -0.689427 -1.82085 0
M  V30 41106 H 3895.03 0.897 -3.779 0
M  V30 41107 H 3896.76 0.748614 -3.97716 0
M  V30 41108 H 3893.52 -1.17606 -4.58766 0
M  V30 41109 H 3893.94 -3.5036 -5.7929 0
M  V30 41110 H 3898.58 -1.17229 -4.06223 0
M  V30 41111 H 3896.3 -4.98613 -6.35933 0
M  V30 41112 H 3899.89 -3.08526 -4.93258 0
M  V30 41113 H 3898.77 -4.96718 -6.06829 0
M  V30 41114 N 3896.27 1.55662 -0.246424 0
M  V30 41115 C 3897.55 1.90843 0.428757 0
M  V30 41116 C 3897.93 1.1671 1.75903 0
M  V30 41117 O 3897.28 0.284431 2.26723 0
M  V30 41118 C 3897.49 3.43851 0.597308 0
M  V30 41119 C 3898.83 4.15095 0.893404 0
M  V30 41120 O 3899.86 3.49587 0.683189 0
M  V30 41121 O 3898.72 5.30966 1.29371 0
M  V30 41122 H 3895.81 0.794335 0.230131 0
M  V30 41123 H 3898.36 1.67196 -0.290455 0
M  V30 41124 H 3897.13 3.8982 -0.340021 0
M  V30 41125 H 3896.75 3.73359 1.36708 0
M  V30 41126 N 3897.75 -0.0266943 1.57577 0
M  V30 41127 C 3898.66 -1.04348 2.10116 0
M  V30 41128 C 3899.68 -1.39476 1.04032 0
M  V30 41129 O 3900.85 -1.48747 1.3578 0
M  V30 41130 C 3897.92 -2.32477 2.57207 0
M  V30 41131 C 3896.98 -2.03908 3.77783 0
M  V30 41132 C 3896.21 -3.25928 4.22619 0
M  V30 41133 O 3896.43 -4.36686 3.66963 0
M  V30 41134 O 3895.37 -3.11489 5.15032 0
M  V30 41135 H 3899.19 -0.626969 2.97158 0
M  V30 41136 H 3896.78 -0.243829 1.47397 0
M  V30 41137 H 3898.66 -3.078 2.87815 0
M  V30 41138 H 3897.34 -2.73418 1.73275 0
M  V30 41139 H 3896.24 -1.26146 3.5219 0
M  V30 41140 H 3897.58 -1.67821 4.62706 0
M  V30 41141 N 3899.23 -1.54738 -0.299007 0
M  V30 41142 C 3900.14 -1.88886 -1.39137 0
M  V30 41143 C 3901.15 -0.783231 -1.55375 0
M  V30 41144 O 3902.33 -1.07988 -1.70002 0
M  V30 41145 C 3899.39 -2.13091 -2.73483 0
M  V30 41146 C 3898.46 -3.36792 -2.66213 0
M  V30 41147 C 3897.69 -3.59833 -3.94152 0
M  V30 41148 O 3897.91 -2.85849 -4.93605 0
M  V30 41149 O 3896.85 -4.53351 -3.95925 0
M  V30 41150 H 3900.67 -2.81823 -1.13179 0
M  V30 41151 H 3898.26 -1.40953 -0.495246 0
M  V30 41152 H 3900.14 -2.30201 -3.52966 0
M  V30 41153 H 3898.81 -1.23341 -2.9928 0
M  V30 41154 H 3897.72 -3.25044 -1.85195 0
M  V30 41155 H 3899.05 -4.26679 -2.45368 0
M  V30 41156 N 3900.71 0.562296 -1.47228 0
M  V30 41157 C 3901.62 1.69728 -1.61956 0
M  V30 41158 C 3902.63 1.66586 -0.502507 0
M  V30 41159 O 3903.81 1.86125 -0.769368 0
M  V30 41160 C 3900.87 3.06235 -1.62545 0
M  V30 41161 C 3899.93 3.20484 -2.85637 0
M  V30 41162 C 3899.17 4.50479 -2.86189 0
M  V30 41163 O 3899.39 5.35628 -1.96109 0
M  V30 41164 O 3898.32 4.68411 -3.77988 0
M  V30 41165 H 3902.15 1.60246 -2.57982 0
M  V30 41166 H 3899.73 0.731717 -1.30255 0
M  V30 41167 H 3901.62 3.87481 -1.65641 0
M  V30 41168 H 3900.29 3.16111 -0.696835 0
M  V30 41169 H 3899.2 2.38655 -2.88088 0
M  V30 41170 H 3900.53 3.1551 -3.77775 0
M  V30 41171 N 3902.18 1.35274 0.808615 0
M  V30 41172 C 3903.09 1.30137 1.95196 0
M  V30 41173 C 3904.11 0.206617 1.72769 0
M  V30 41174 O 3905.29 0.435635 1.96632 0
M  V30 41175 C 3902.35 1.07092 3.29746 0
M  V30 41176 C 3901.41 2.25861 3.65082 0
M  V30 41177 C 3900.64 2.03906 4.93212 0
M  V30 41178 O 3900.87 1.00449 5.61486 0
M  V30 41179 O 3899.8 2.91218 5.2676 0
M  V30 41180 H 3903.63 2.26356 2.02476 0
M  V30 41181 H 3901.21 1.15625 0.946104 0
M  V30 41182 H 3903.09 0.960806 4.103 0
M  V30 41183 H 3901.77 0.139234 3.234 0
M  V30 41184 H 3900.68 2.42437 2.84912 0
M  V30 41185 H 3902.01 3.1747 3.7613 0
M  V30 41186 N 3903.66 -1.03053 1.19239 0
M  V30 41187 C 3904.57 -2.14773 0.943914 0
M  V30 41188 C 3905.59 -1.73738 -0.0955079 0
M  V30 41189 O 3906.76 -2.01204 0.088754 0
M  V30 41190 C 3903.83 -3.43304 0.48408 0
M  V30 41191 C 3902.89 -3.98663 1.59269 0
M  V30 41192 C 3902.12 -5.21059 1.1547 0
M  V30 41193 O 3902.35 -5.70397 0.0175844 0
M  V30 41194 O 3901.28 -5.69211 1.95658 0
M  V30 41195 H 3905.11 -2.38596 1.87898 0
M  V30 41196 H 3902.69 -1.13194 0.975066 0
M  V30 41197 H 3904.57 -4.20737 0.236209 0
M  V30 41198 H 3903.25 -3.2093 -0.422569 0
M  V30 41199 H 3902.16 -3.22571 1.89469 0
M  V30 41200 H 3903.49 -4.25398 2.47584 0
M  V30 41201 N 3905.14 -0.996042 -1.22134 0
M  V30 41202 C 3906.05 -0.557967 -2.27868 0
M  V30 41203 C 3907.07 0.394751 -1.69463 0
M  V30 41204 O 3908.24 0.260805 -1.99704 0
M  V30 41205 C 3905.31 0.117373 -3.46501 0
M  V30 41206 C 3904.37 -0.878701 -4.20211 0
M  V30 41207 C 3903.6 -0.235494 -5.3318 0
M  V30 41208 O 3903.82 0.969855 -5.62094 0
M  V30 41209 O 3902.76 -0.941933 -5.94484 0
M  V30 41210 H 3906.58 -1.4377 -2.67514 0
M  V30 41211 H 3904.17 -0.76445 -1.28361 0
M  V30 41212 H 3906.05 0.495517 -4.18477 0
M  V30 41213 H 3904.73 0.971619 -3.08774 0
M  V30 41214 H 3903.63 -1.30784 -3.50495 0
M  V30 41215 H 3904.97 -1.70225 -4.61827 0
M  V30 41216 N 3906.62 1.37529 -0.769636 0
M  V30 41217 C 3907.58 2.28636 -0.160756 0
M  V30 41218 C 3908.58 1.4793 0.630336 0
M  V30 41219 O 3909.77 1.68174 0.454236 0
M  V30 41220 C 3906.9 3.3186 0.779846 0
M  V30 41221 H 3908.1 2.8399 -0.963844 0
M  V30 41222 H 3905.65 1.4676 -0.537704 0
M  V30 41223 H 3906.38 2.81626 1.60802 0
M  V30 41224 H 3906.17 3.91511 0.214781 0
M  V30 41225 H 3907.66 3.99947 1.20136 0
M  V30 41226 N 3908.1 0.520003 1.48774 0
M  V30 41227 C 3909.37 -0.0816358 1.9543 0
M  V30 41228 C 3909.75 -1.52277 1.46202 0
M  V30 41229 O 3909.1 -2.18019 0.684095 0
M  V30 41230 C 3909.31 0.0253085 3.48991 0
M  V30 41231 C 3910.66 -0.139024 4.24372 0
M  V30 41232 O 3911.68 -0.0489696 3.56166 0
M  V30 41233 O 3910.54 -0.32633 5.45525 0
M  V30 41234 H 3907.64 -0.0848233 0.822638 0
M  V30 41235 H 3910.18 0.583893 1.59339 0
M  V30 41236 H 3908.95 1.02958 3.77512 0
M  V30 41237 H 3908.58 -0.679519 3.9175 0
M  V30 41238 N 3909.57 -1.55529 0.254676 0
M  V30 41239 C 3910.54 -2.2042 -0.628321 0
M  V30 41240 C 3911.54 -1.1758 -1.09689 0
M  V30 41241 O 3912.73 -1.42614 -1.00035 0
M  V30 41242 C 3909.86 -2.85394 -1.86448 0
M  V30 41243 H 3911.05 -2.99836 -0.0620505 0
M  V30 41244 H 3908.61 -1.56299 0.00517059 0
M  V30 41245 H 3909.34 -2.09936 -2.47179 0
M  V30 41246 H 3909.13 -3.60736 -1.53663 0
M  V30 41247 H 3910.62 -3.35032 -2.49286 0
M  V30 41248 N 3911.05 0.0183372 -1.57589 0
M  V30 41249 C 3912.46 0.563559 -1.77991 0
M  V30 41250 C 3912.81 1.75 -0.887095 0
M  V30 41251 O 3911.94 2.16234 -0.0847223 0
M  V30 41252 C 3912.53 1.02914 -3.22791 0
M  V30 41253 C 3911.09 1.5198 -3.44353 0
M  V30 41254 C 3910.24 0.462679 -2.73413 0
M  V30 41255 H 3913.19 -0.207876 -1.57333 0
M  V30 41256 H 3913.21 1.89603 -3.29896 0
M  V30 41257 H 3912.72 0.165418 -3.87747 0
M  V30 41258 H 3910.83 2.40501 -2.84587 0
M  V30 41259 H 3910.94 1.5599 -4.52994 0
M  V30 41260 H 3909.3 0.920169 -2.37497 0
M  V30 41261 H 3910.09 -0.391758 -3.41057 0
M  V30 41262 N 3912.53 1.54894 0.290797 0
M  V30 41263 C 3913.49 1.85795 1.34212 0
M  V30 41264 C 3914.49 0.731418 1.43202 0
M  V30 41265 O 3915.68 0.999672 1.42661 0
M  V30 41266 C 3912.82 2.04735 2.72573 0
M  V30 41267 H 3914.01 2.79759 1.08051 0
M  V30 41268 H 3911.56 1.47112 0.527982 0
M  V30 41269 H 3912.3 1.13094 3.03941 0
M  V30 41270 H 3912.08 2.8674 2.67437 0
M  V30 41271 H 3913.57 2.29977 3.48569 0
M  V30 41272 N 3914.01 -0.55448 1.47524 0
M  V30 41273 C 3915.42 -1.13659 1.48116 0
M  V30 41274 C 3915.77 -1.94759 0.237356 0
M  V30 41275 O 3914.9 -2.06169 -0.657522 0
M  V30 41276 C 3915.49 -2.06792 2.6837 0
M  V30 41277 C 3914.05 -2.6027 2.71913 0
M  V30 41278 C 3913.2 -1.36706 2.41261 0
M  V30 41279 H 3916.15 -0.340943 1.54994 0
M  V30 41280 H 3916.17 -2.9071 2.45495 0
M  V30 41281 H 3915.68 -1.47739 3.5888 0
M  V30 41282 H 3913.78 -3.23113 1.85549 0
M  V30 41283 H 3913.89 -3.01077 3.72679 0
M  V30 41284 H 3912.26 -1.6747 1.919 0
M  V30 41285 H 3913.04 -0.794418 3.33982 0
M  V30 41286 N 3915.49 -1.35701 -0.80143 0
M  V30 41287 C 3916.71 -1.3255 -1.59516 0
M  V30 41288 C 3917.14 0.0933913 -1.87868 0
M  V30 41289 O 3916.49 1.06177 -1.46956 0
M  V30 41290 C 3916.54 -2.14286 -2.90024 0
M  V30 41291 O 3915.65 -1.52711 -3.83084 0
M  V30 41292 H 3914.99 -0.454223 -0.484332 0
M  V30 41293 H 3917.52 -1.78816 -0.994284 0
M  V30 41294 H 3917.53 -2.26429 -3.39402 0
M  V30 41295 H 3916.2 -3.17436 -2.68714 0
M  V30 41296 H 3914.78 -1.49438 -3.41647 0
M  V30 41297 N 3916.96 1.02419 -1.19783 0
M  V30 41298 C 3918.19 1.80049 -1.02942 0
M  V30 41299 C 3918.61 1.83417 0.417121 0
M  V30 41300 O 3917.97 1.26363 1.30008 0
M  V30 41301 C 3918.02 3.22734 -1.60858 0
M  V30 41302 O 3917.12 4.03732 -0.84107 0
M  V30 41303 H 3916.47 0.555634 -0.363547 0
M  V30 41304 H 3919 1.28875 -1.5891 0
M  V30 41305 H 3919.01 3.73468 -1.64272 0
M  V30 41306 H 3917.68 3.19597 -2.6614 0
M  V30 41307 H 3916.26 3.62355 -0.880546 0
M  V30 41308 N 3918.44 1.0025 1.21604 0
M  V30 41309 C 3919.85 0.717476 1.72363 0
M  V30 41310 C 3920.21 -0.765046 1.8067 0
M  V30 41311 O 3919.33 -1.5977 1.45954 0
M  V30 41312 C 3919.93 1.29573 3.13044 0
M  V30 41313 C 3918.48 1.05987 3.6117 0
M  V30 41314 C 3917.63 1.41007 2.38772 0
M  V30 41315 H 3920.58 1.17371 1.06816 0
M  V30 41316 H 3920.6 0.67912 3.7439 0
M  V30 41317 H 3920.12 2.37473 3.06966 0
M  V30 41318 H 3918.22 -0.00207758 3.726 0
M  V30 41319 H 3918.33 1.73001 4.46775 0
M  V30 41320 H 3916.69 0.828812 2.40838 0
M  V30 41321 H 3917.48 2.49932 2.35348 0
M  V30 41322 N 3919.92 -1.37119 0.776919 0
M  V30 41323 C 3921.33 -1.8218 0.408343 0
M  V30 41324 C 3921.68 -1.64703 -1.06618 0
M  V30 41325 O 3920.81 -1.16101 -1.82619 0
M  V30 41326 C 3921.4 -3.30745 0.734397 0
M  V30 41327 C 3919.96 -3.74063 0.418812 0
M  V30 41328 C 3919.11 -2.59573 0.975555 0
M  V30 41329 H 3922.06 -1.25518 0.971133 0
M  V30 41330 H 3922.08 -3.80494 0.0209226 0
M  V30 41331 H 3921.59 -3.43433 1.80763 0
M  V30 41332 H 3919.69 -3.66941 -0.646897 0
M  V30 41333 H 3919.81 -4.69974 0.93068 0
M  V30 41334 H 3918.17 -2.51547 0.399493 0
M  V30 41335 H 3918.95 -2.75052 2.0543 0
M  V30 41336 N 3921.4 -0.527886 -1.48496 0
M  V30 41337 C 3922.63 0.00298957 -2.069 0
M  V30 41338 C 3923.04 1.2834 -1.38471 0
M  V30 41339 O 3922.4 1.76303 -0.471555 0
M  V30 41340 C 3922.45 0.232807 -3.6075 0
M  V30 41341 O 3922.17 -0.996871 -4.26608 0
M  V30 41342 C 3923.67 0.804299 -4.35943 0
M  V30 41343 H 3920.89 -0.0325676 -0.670209 0
M  V30 41344 H 3923.44 -0.732931 -1.90915 0
M  V30 41345 H 3921.59 0.918771 -3.76347 0
M  V30 41346 H 3922.01 -0.776309 -5.18723 0
M  V30 41347 H 3923.48 0.91454 -5.44371 0
M  V30 41348 H 3923.96 1.80869 -4.00229 0
M  V30 41349 H 3924.56 0.154966 -4.25018 0
M  V30 41350 N 3922.88 1.55391 -0.26292 0
M  V30 41351 C 3924.1 2.04182 0.363936 0
M  V30 41352 C 3924.53 1.14046 1.49583 0
M  V30 41353 O 3923.89 0.136585 1.80785 0
M  V30 41354 C 3923.93 3.50824 0.83398 0
M  V30 41355 O 3923.04 3.63799 1.94228 0
M  V30 41356 H 3922.38 0.659508 0.0771077 0
M  V30 41357 H 3924.91 2.00777 -0.393659 0
M  V30 41358 H 3924.92 3.91954 1.13297 0
M  V30 41359 H 3923.59 4.159 0.00577522 0
M  V30 41360 H 3922.17 3.34569 1.64675 0
M  V30 41361 N 3924.36 -0.00997961 1.57597 0
M  V30 41362 C 3925.77 -0.554112 1.78288 0
M  V30 41363 C 3926.12 -1.74527 0.896363 0
M  V30 41364 O 3925.24 -2.16186 0.0961885 0
M  V30 41365 C 3925.84 -1.012 3.23333 0
M  V30 41366 C 3924.4 -1.50151 3.45154 0
M  V30 41367 C 3923.54 -0.448173 2.73654 0
M  V30 41368 H 3926.49 0.216217 1.5722 0
M  V30 41369 H 3926.52 -1.87851 3.30896 0
M  V30 41370 H 3926.03 -0.144853 3.8783 0
M  V30 41371 H 3924.13 -2.38989 2.85859 0
M  V30 41372 H 3924.24 -1.53586 4.53815 0
M  V30 41373 H 3922.61 -0.907561 2.37982 0
M  V30 41374 H 3923.39 0.409839 3.40845 0
M  V30 41375 N 3925.83 -1.55046 -0.282578 0
M  V30 41376 C 3927.08 -1.7546 -1.01694 0
M  V30 41377 C 3927.41 -0.548841 -1.86283 0
M  V30 41378 O 3926.69 0.453787 -1.89132 0
M  V30 41379 C 3926.97 -3.05426 -1.90754 0
M  V30 41380 C 3926.82 -4.36338 -1.09222 0
M  V30 41381 C 3928.14 -3.3137 -2.89624 0
M  V30 41382 H 3925.26 -0.63838 -0.368294 0
M  V30 41383 H 3927.9 -1.87772 -0.290085 0
M  V30 41384 H 3926.05 -2.9506 -2.52729 0
M  V30 41385 H 3927.73 -4.58648 -0.493915 0
M  V30 41386 H 3925.97 -4.31994 -0.395406 0
M  V30 41387 H 3926.64 -5.23581 -1.74833 0
M  V30 41388 H 3929.12 -3.41466 -2.37782 0
M  V30 41389 H 3927.99 -4.2359 -3.49089 0
M  V30 41390 H 3928.25 -2.50547 -3.64251 0
M  V30 41391 N 3927.31 0.546649 -1.47816 0
M  V30 41392 C 3928.26 1.67378 -1.61516 0
M  V30 41393 C 3929.25 1.62395 -0.482092 0
M  V30 41394 O 3930.46 1.67453 -0.660256 0
M  V30 41395 H 3926.83 0.55402 -0.508494 0
M  V30 41396 H 3928.81 1.52962 -2.56213 0
M  V30 41397 C 3927.55 3.05704 -1.65651 0
M  V30 41398 H 3926.88 3.10225 -2.52192 0
M  V30 41399 H 3928.32 3.84231 -1.79284 0
M  V30 41400 C 3926.78 3.34613 -0.391858 0
M  V30 41401 O 3927.31 3.98545 0.502505 0
M  V30 41402 N 3925.51 2.89356 -0.268644 0
M  V30 41403 H 3925.06 2.37508 -0.997389 0
M  V30 41404 H 3925.02 3.09068 0.576546 0
M  V30 41405 N 3928.79 1.36124 0.794222 0
M  V30 41406 C 3930.01 1.33394 1.58811 0
M  V30 41407 C 3930.44 -0.0834269 1.87915 0
M  V30 41408 O 3929.8 -1.05396 1.47517 0
M  V30 41409 C 3929.85 2.15821 2.88884 0
M  V30 41410 O 3928.95 1.5474 3.82268 0
M  V30 41411 H 3928.29 0.456785 0.481916 0
M  V30 41412 H 3930.82 1.79341 0.984787 0
M  V30 41413 H 3930.83 2.28225 3.38197 0
M  V30 41414 H 3929.51 3.18857 2.67027 0
M  V30 41415 H 3928.08 1.51248 3.4085 0
M  V30 41416 N 3930.27 -1.01782 1.20325 0
M  V30 41417 C 3931.68 -1.27662 0.95784 0
M  V30 41418 C 3931.88 -1.98197 -0.363343 0
M  V30 41419 O 3930.94 -2.27657 -1.09217 0
M  V30 41420 C 3932.25 -2.11285 2.1396 0
M  V30 41421 C 3933.8 -2.24556 2.18045 0
M  V30 41422 C 3934.28 -3.11556 3.35704 0
M  V30 41423 N 3935.77 -3.19144 3.3571 0
M  V30 41424 C 3936.5 -3.86682 4.23397 0
M  V30 41425 N 3936 -4.56356 5.21259 0
M  V30 41426 N 3937.79 -3.83193 4.11241 0
M  V30 41427 H 3929.94 -0.544206 2.0531 0
M  V30 41428 H 3932.2 -0.302801 0.898341 0
M  V30 41429 H 3931.91 -1.66792 3.09634 0
M  V30 41430 H 3931.78 -3.1202 2.11951 0
M  V30 41431 H 3934.17 -2.68274 1.22935 0
M  V30 41432 H 3934.25 -1.23334 2.24104 0
M  V30 41433 H 3933.9 -2.68543 4.311 0
M  V30 41434 H 3933.83 -4.12862 3.26883 0
M  V30 41435 H 3936.32 -2.69533 2.64878 0
M  V30 41436 H 3936.63 -5.05556 5.84494 0
M  V30 41437 H 3934.98 -4.55185 5.25197 0
M  V30 41438 H 3938.17 -3.27907 3.34058 0
M  V30 41439 H 3938.34 -4.35552 4.7979 0
M  V30 41440 N 3931.75 -1.00894 -1.21071 0
M  V30 41441 C 3932.69 -0.572676 -2.23582 0
M  V30 41442 C 3933.66 0.403296 -1.6113 0
M  V30 41443 O 3934.85 0.304458 -1.88355 0
M  V30 41444 C 3931.99 0.0905933 -3.44981 0
M  V30 41445 C 3931.1 -0.929027 -4.21892 0
M  V30 41446 C 3930.24 -0.23761 -5.30668 0
M  V30 41447 C 3929.27 -1.24451 -5.99315 0
M  V30 41448 N 3928.41 -0.580295 -6.99698 0
M  V30 41449 H 3933.25 -1.4515 -2.6026 0
M  V30 41450 H 3930.79 -0.726752 -1.27893 0
M  V30 41451 H 3932.75 0.492208 -4.14286 0
M  V30 41452 H 3931.38 0.933115 -3.09019 0
M  V30 41453 H 3930.43 -1.44886 -3.51727 0
M  V30 41454 H 3931.74 -1.69512 -4.69113 0
M  V30 41455 H 3930.89 0.219907 -6.06301 0
M  V30 41456 H 3929.63 0.560852 -4.84464 0
M  V30 41457 H 3928.64 -1.71249 -5.2245 0
M  V30 41458 H 3929.86 -2.04412 -6.47605 0
M  V30 41459 H 3927.81 0.198438 -6.557 0
M  V30 41460 H 3927.73 -1.28457 -7.45007 0
M  V30 41461 H 3928.99 -0.146114 -7.79363 0
M  V30 41462 N 3933.22 1.36705 -0.78418 0
M  V30 41463 C 3934.17 2.27491 -0.152195 0
M  V30 41464 C 3935.16 1.46705 0.660782 0
M  V30 41465 O 3936.35 1.69136 0.521714 0
M  V30 41466 C 3933.48 3.35744 0.716308 0
M  V30 41467 C 3932.57 4.2397 -0.105175 0
M  V30 41468 N 3932.96 4.92388 -1.15706 0
M  V30 41469 C 3931.25 4.45847 0.11683 0
M  V30 41470 C 3931.96 5.57609 -1.65671 0
M  V30 41471 N 3930.93 5.34934 -0.966797 0
M  V30 41472 H 3934.73 2.7787 -0.957371 0
M  V30 41473 H 3932.25 1.49969 -0.623132 0
M  V30 41474 H 3934.24 3.99706 1.18493 0
M  V30 41475 H 3932.9 2.86921 1.52009 0
M  V30 41476 H 3933.92 4.94492 -1.53941 0
M  V30 41477 H 3930.59 4.0787 0.891533 0
M  V30 41478 H 3931.98 6.2226 -2.5346 0
M  V30 41479 N 3934.7 0.535753 1.48214 0
M  V30 41480 C 3936.12 0.194005 1.58416 0
M  V30 41481 C 3936.32 -1.30293 1.53707 0
M  V30 41482 O 3935.37 -2.08161 1.42917 0
M  V30 41483 C 3936.69 0.801651 2.89817 0
M  V30 41484 C 3938.24 0.770912 3.03358 0
M  V30 41485 C 3938.71 1.35724 4.37428 0
M  V30 41486 N 3940.2 1.31946 4.44009 0
M  V30 41487 C 3940.94 1.74297 5.46267 0
M  V30 41488 N 3940.43 2.24404 6.5545 0
M  V30 41489 N 3942.23 1.65499 5.37184 0
M  V30 41490 H 3934.38 1.50858 1.49518 0
M  V30 41491 H 3936.64 0.627842 0.710295 0
M  V30 41492 H 3936.35 1.85284 2.98936 0
M  V30 41493 H 3936.22 0.282102 3.76144 0
M  V30 41494 H 3938.61 -0.271525 2.93848 0
M  V30 41495 H 3938.69 1.32799 2.18628 0
M  V30 41496 H 3938.33 2.39863 4.47692 0
M  V30 41497 H 3938.26 0.775788 5.20854 0
M  V30 41498 H 3940.75 0.952717 3.65693 0
M  V30 41499 H 3941.07 2.54699 7.29622 0
M  V30 41500 H 3939.41 2.28402 6.56398 0
M  V30 41501 H 3942.6 1.26146 4.50782 0
M  V30 41502 H 3942.77 1.98824 6.16744 0
M  V30 41503 N 3936.18 -1.5525 0.271158 0
M  V30 41504 C 3937.14 -2.21074 -0.604907 0
M  V30 41505 C 3938.14 -1.18736 -1.08436 0
M  V30 41506 O 3939.33 -1.43667 -0.985167 0
M  V30 41507 C 3936.47 -2.87356 -1.83411 0
M  V30 41508 H 3937.66 -2.99885 -0.0302454 0
M  V30 41509 H 3935.21 -1.56285 0.0217479 0
M  V30 41510 H 3935.95 -2.12546 -2.44938 0
M  V30 41511 H 3935.73 -3.62345 -1.49828 0
M  V30 41512 H 3937.22 -3.37657 -2.45718 0
M  V30 41513 N 3937.66 0.00162173 -1.576 0
M  V30 41514 C 3938.91 0.685452 -1.90121 0
M  V30 41515 C 3939.23 1.74403 -0.872275 0
M  V30 41516 O 3938.5 1.95691 0.0905376 0
M  V30 41517 H 3937.08 0.256165 -0.701704 0
M  V30 41518 H 3939.74 -0.0389209 -1.94861 0
M  V30 41519 H 3938.84 1.15773 -2.89833 0
M  V30 41520 N 3939.14 1.55194 0.274352 0
M  V30 41521 C 3940.38 1.75996 1.00762 0
M  V30 41522 C 3940.72 0.558712 1.85989 0
M  V30 41523 O 3939.99 -0.44375 1.8937 0
M  V30 41524 C 3940.27 3.06433 1.89131 0
M  V30 41525 C 3940.13 4.36911 1.06907 0
M  V30 41526 C 3941.45 3.32901 2.87863 0
M  V30 41527 H 3938.56 0.640324 0.364903 0
M  V30 41528 H 3941.21 1.87924 0.280123 0
M  V30 41529 H 3939.36 2.96396 2.51161 0
M  V30 41530 H 3941.03 4.58904 0.469585 0
M  V30 41531 H 3939.27 4.32198 0.37249 0
M  V30 41532 H 3939.94 5.24501 1.72054 0
M  V30 41533 H 3942.42 3.42722 2.35968 0
M  V30 41534 H 3941.29 4.25435 3.46837 0
M  V30 41535 H 3941.56 2.52475 3.62917 0
M  V30 41536 N 3940.61 -0.538802 1.48104 0
M  V30 41537 C 3941.89 -1.2999 1.46158 0
M  V30 41538 C 3942.27 -2.10427 0.168447 0
M  V30 41539 O 3941.62 -2.12105 -0.849929 0
M  V30 41540 C 3941.83 -2.18883 2.7183 0
M  V30 41541 C 3943.18 -2.79309 3.19799 0
M  V30 41542 O 3944.2 -2.29175 2.72685 0
M  V30 41543 O 3943.06 -3.70478 4.01757 0
M  V30 41544 H 3940.15 -0.586248 0.583303 0
M  V30 41545 H 3942.7 -0.556184 1.60327 0
M  V30 41546 H 3941.47 -1.59169 3.57464 0
M  V30 41547 H 3941.1 -3.00517 2.60337 0
M  V30 41548 N 3942.09 -1.36544 -0.786992 0
M  V30 41549 C 3943.34 -1.30237 -1.54017 0
M  V30 41550 C 3943.65 0.115461 -1.95259 0
M  V30 41551 O 3944.86 0.300918 -2.69827 0
M  V30 41552 C 3943.32 -2.28516 -2.78044 0
M  V30 41553 C 3942.92 -3.75748 -2.43961 0
M  V30 41554 C 3944.67 -2.31191 -3.56021 0
M  V30 41555 C 3942.58 -4.65798 -3.64398 0
M  V30 41556 H 3941.51 -0.483971 -0.578176 0
M  V30 41557 H 3944.16 -1.6192 -0.863372 0
M  V30 41558 H 3942.54 -1.8983 -3.47535 0
M  V30 41559 H 3943.71 -4.23184 -1.82351 0
M  V30 41560 H 3942.03 -3.75872 -1.7919 0
M  V30 41561 H 3944.62 -2.95678 -4.45509 0
M  V30 41562 H 3944.97 -1.32114 -3.9478 0
M  V30 41563 H 3945.5 -2.68507 -2.93512 0
M  V30 41564 H 3942.24 -5.65947 -3.30732 0
M  V30 41565 H 3941.76 -4.23077 -4.25165 0
M  V30 41566 H 3943.44 -4.82188 -4.31397 0
M  V30 41567 N 3943.57 1.01143 -1.20863 0
M  V30 41568 C 3944.52 2.08185 -0.929678 0
M  V30 41569 C 3945.5 1.60506 0.11255 0
M  V30 41570 O 3946.7 1.76742 -0.0955205 0
M  V30 41571 C 3943.83 3.39796 -0.489222 0
M  V30 41572 C 3942.91 3.94162 -1.56516 0
M  V30 41573 N 3943.3 4.21973 -2.78878 0
M  V30 41574 C 3941.6 4.22368 -1.43254 0
M  V30 41575 C 3942.3 4.65886 -3.48318 0
M  V30 41576 N 3941.28 4.68473 -2.75742 0
M  V30 41577 H 3945.08 2.27603 -1.85941 0
M  V30 41578 H 3942.59 1.19159 -1.1034 0
M  V30 41579 H 3944.59 4.1602 -0.270764 0
M  V30 41580 H 3943.25 3.21789 0.433821 0
M  V30 41581 H 3944.26 4.10722 -3.15481 0
M  V30 41582 H 3940.94 4.13531 -0.574293 0
M  V30 41583 H 3942.33 4.9618 -4.5305 0
M  V30 41584 N 3945.05 1.01535 1.20534 0
M  V30 41585 C 3946.27 0.722942 1.94392 0
M  V30 41586 C 3946.7 -0.709827 1.74193 0
M  V30 41587 O 3946.06 -1.48826 1.0354 0
M  V30 41588 C 3946.1 1.06237 3.44596 0
M  V30 41589 O 3945.21 0.173359 4.12035 0
M  V30 41590 H 3944.55 0.268355 0.607356 0
M  V30 41591 H 3947.08 1.35838 1.53001 0
M  V30 41592 H 3947.09 1.01355 3.9521 0
M  V30 41593 H 3945.76 2.10628 3.58621 0
M  V30 41594 H 3944.34 0.279595 3.7185 0
M  V30 41595 N 3946.53 -1.36288 0.791419 0
M  V30 41596 C 3947.77 -2.0102 0.370169 0
M  V30 41597 C 3948.13 -1.61448 -1.03915 0
M  V30 41598 O 3949.33 -2.18787 -1.56159 0
M  V30 41599 C 3947.6 -3.53434 0.53093 0
M  V30 41600 S 3949.16 -4.38354 0.197855 0
M  V30 41601 H 3945.98 -0.696812 0.141327 0
M  V30 41602 H 3948.58 -1.66145 1.03035 0
M  V30 41603 H 3947.29 -3.79722 1.5569 0
M  V30 41604 H 3946.82 -3.93132 -0.145111 0
M  V30 41605 H 3948.83 -4.86022 -0.99987 0
M  V30 41606 N 3948.01 -0.543606 -1.47928 0
M  V30 41607 C 3949.23 -0.016927 -2.07393 0
M  V30 41608 C 3949.66 1.26115 -1.39559 0
M  V30 41609 O 3949.01 1.75208 -0.466013 0
M  V30 41610 C 3949.06 0.176041 -3.6017 0
M  V30 41611 O 3948.17 1.24171 -3.93263 0
M  V30 41612 H 3947.51 -0.0452243 -0.662458 0
M  V30 41613 H 3950.04 -0.755409 -1.90144 0
M  V30 41614 H 3950.05 0.394483 -4.06088 0
M  V30 41615 H 3948.72 -0.757517 -4.08943 0
M  V30 41616 H 3947.3 1.00484 -3.59106 0
M  V30 41617 N 3949.48 1.55104 -0.279387 0
M  V30 41618 C 3950.42 2.20097 0.639533 0
M  V30 41619 C 3951.43 1.18698 1.11421 0
M  V30 41620 O 3952.62 1.45404 1.03538 0
M  V30 41621 C 3949.72 2.81647 1.88489 0
M  V30 41622 C 3948.89 4.08776 1.55632 0
M  V30 41623 C 3947.95 4.54333 2.65458 0
M  V30 41624 O 3946.98 5.20013 2.31464 0
M  V30 41625 N 3948.18 4.24832 3.95599 0
M  V30 41626 H 3950.94 2.99584 0.0832522 0
M  V30 41627 H 3948.5 1.61587 -0.100666 0
M  V30 41628 H 3950.5 3.09067 2.61266 0
M  V30 41629 H 3949.07 2.06127 2.35012 0
M  V30 41630 H 3948.29 3.88598 0.662184 0
M  V30 41631 H 3949.57 4.91597 1.31187 0
M  V30 41632 H 3948.97 3.72169 4.26036 0
M  V30 41633 H 3947.53 4.57012 4.6474 0
M  V30 41634 N 3950.96 0.0067362 1.57599 0
M  V30 41635 C 3952.21 -0.676697 1.90859 0
M  V30 41636 C 3952.54 -1.73404 0.880986 0
M  V30 41637 O 3951.79 -1.95372 -0.113304 0
M  V30 41638 C 3952.09 -1.35127 3.30871 0
M  V30 41639 C 3951.76 -0.42648 4.48879 0
M  V30 41640 C 3950.42 -0.171876 4.80893 0
M  V30 41641 C 3952.77 0.209853 5.20777 0
M  V30 41642 C 3950.1 0.727242 5.82175 0
M  V30 41643 C 3952.45 1.09689 6.23018 0
M  V30 41644 C 3951.11 1.3606 6.53486 0
M  V30 41645 H 3950.38 -0.247621 0.698402 0
M  V30 41646 H 3953.03 0.0637084 1.91394 0
M  V30 41647 H 3951.34 -2.16589 3.26491 0
M  V30 41648 H 3953.03 -1.88624 3.53867 0
M  V30 41649 H 3949.62 -0.635091 4.23869 0
M  V30 41650 H 3953.81 0.026176 4.96293 0
M  V30 41651 H 3949.06 0.939496 6.04139 0
M  V30 41652 H 3953.24 1.59627 6.77858 0
M  V30 41653 H 3950.86 2.05899 7.31785 0
M  V30 41654 N 3952.44 -1.55337 -0.266118 0
M  V30 41655 C 3953.37 -1.91699 -1.33318 0
M  V30 41656 C 3954.35 -0.779637 -1.51181 0
M  V30 41657 O 3955.54 -1.03835 -1.6411 0
M  V30 41658 C 3952.67 -2.19492 -2.69147 0
M  V30 41659 C 3951.62 -3.35298 -2.66007 0
M  V30 41660 C 3950.95 -3.48587 -4.05452 0
M  V30 41661 C 3952.25 -4.71508 -2.24672 0
M  V30 41662 H 3953.94 -2.81076 -1.03133 0
M  V30 41663 H 3951.49 -1.35237 -0.494678 0
M  V30 41664 H 3953.44 -2.43518 -3.43914 0
M  V30 41665 H 3952.16 -1.26921 -3.00929 0
M  V30 41666 H 3950.82 -3.11251 -1.93697 0
M  V30 41667 H 3950.47 -2.5347 -4.34467 0
M  V30 41668 H 3950.17 -4.26452 -4.04243 0
M  V30 41669 H 3951.69 -3.74912 -4.81947 0
M  V30 41670 H 3953.11 -4.95032 -2.89164 0
M  V30 41671 H 3951.5 -5.52338 -2.34612 0
M  V30 41672 H 3952.57 -4.69865 -1.19811 0
M  V30 41673 N 3953.92 0.53094 -1.48387 0
M  V30 41674 C 3954.85 1.64483 -1.65733 0
M  V30 41675 C 3955.83 1.62393 -0.506226 0
M  V30 41676 O 3957.01 1.79604 -0.738655 0
M  V30 41677 C 3954.14 3.03073 -1.69599 0
M  V30 41678 C 3953.1 3.20022 -2.84201 0
M  V30 41679 C 3952.42 4.59663 -2.73156 0
M  V30 41680 C 3953.72 3.02885 -4.25509 0
M  V30 41681 H 3955.42 1.50222 -2.58986 0
M  V30 41682 H 3952.96 0.721265 -1.24635 0
M  V30 41683 H 3954.92 3.8087 -1.80323 0
M  V30 41684 H 3953.64 3.18354 -0.729249 0
M  V30 41685 H 3952.3 2.44642 -2.73031 0
M  V30 41686 H 3951.95 4.71779 -1.74453 0
M  V30 41687 H 3951.65 4.71948 -3.50055 0
M  V30 41688 H 3953.17 5.3956 -2.85845 0
M  V30 41689 H 3954.59 3.70475 -4.37517 0
M  V30 41690 H 3952.98 3.26664 -5.03399 0
M  V30 41691 H 3954.05 1.99321 -4.4204 0
M  V30 41692 N 3955.4 1.36959 0.779739 0
M  V30 41693 C 3956.31 1.34248 1.92392 0
M  V30 41694 C 3957.32 0.243218 1.72292 0
M  V30 41695 O 3958.5 0.477245 1.95664 0
M  V30 41696 C 3955.56 1.14063 3.274 0
M  V30 41697 C 3954.62 2.33555 3.60209 0
M  V30 41698 C 3953.86 2.14322 4.88776 0
M  V30 41699 O 3954.08 1.12337 5.59229 0
M  V30 41700 O 3953.01 3.02325 5.20464 0
M  V30 41701 H 3956.84 2.306 1.97629 0
M  V30 41702 H 3954.42 1.17606 0.921365 0
M  V30 41703 H 3956.31 1.04762 4.0817 0
M  V30 41704 H 3954.98 0.2078 3.23032 0
M  V30 41705 H 3953.89 2.48426 2.79706 0
M  V30 41706 H 3955.22 3.25377 3.69311 0
M  V30 41707 N 3956.87 -1.00501 1.21398 0
M  V30 41708 C 3957.8 -2.1113 0.997306 0
M  V30 41709 C 3958.78 -1.69922 -0.0777156 0
M  V30 41710 O 3959.97 -1.94026 0.0821141 0
M  V30 41711 C 3957.1 -3.42736 0.561182 0
M  V30 41712 C 3956.05 -3.97738 1.58076 0
M  V30 41713 C 3955.38 -5.25249 1.00088 0
M  V30 41714 C 3956.68 -4.29802 2.96762 0
M  V30 41715 H 3958.37 -2.29514 1.92259 0
M  V30 41716 H 3955.92 -1.10295 0.925795 0
M  V30 41717 H 3957.87 -4.19528 0.396774 0
M  V30 41718 H 3956.6 -3.24144 -0.399747 0
M  V30 41719 H 3955.26 -3.23066 1.73274 0
M  V30 41720 H 3954.9 -5.0299 0.0316681 0
M  V30 41721 H 3954.6 -5.63014 1.68192 0
M  V30 41722 H 3956.13 -6.04686 0.847793 0
M  V30 41723 H 3957.54 -4.97436 2.85009 0
M  V30 41724 H 3955.94 -4.7871 3.61879 0
M  V30 41725 H 3957.01 -3.38078 3.47608 0
M  V30 41726 N 3958.35 -1.02172 -1.19994 0
M  V30 41727 C 3959.58 -0.732345 -1.93185 0
M  V30 41728 C 3959.99 0.711694 -1.75304 0
M  V30 41729 O 3959.33 1.49494 -1.06758 0
M  V30 41730 C 3959.39 -0.994715 -3.45464 0
M  V30 41731 C 3959.06 -2.42888 -3.8711 0
M  V30 41732 C 3960.06 -3.40994 -3.92453 0
M  V30 41733 C 3957.74 -2.77098 -4.18953 0
M  V30 41734 C 3959.73 -4.71368 -4.29058 0
M  V30 41735 C 3957.42 -4.07684 -4.55233 0
M  V30 41736 C 3958.42 -5.0463 -4.60258 0
M  V30 41737 O 3958.11 -6.32878 -4.95702 0
M  V30 41738 H 3957.84 -0.267817 -0.620685 0
M  V30 41739 H 3960.39 -1.36723 -1.53284 0
M  V30 41740 H 3958.62 -0.302678 -3.85514 0
M  V30 41741 H 3960.31 -0.696119 -3.99886 0
M  V30 41742 H 3961.08 -3.15901 -3.6801 0
M  V30 41743 H 3956.96 -2.02324 -4.14229 0
M  V30 41744 H 3960.5 -5.47035 -4.32896 0
M  V30 41745 H 3956.4 -4.32554 -4.79132 0
M  V30 41746 H 3957.17 -6.37243 -5.13676 0
M  V30 41747 N 3959.83 1.35866 -0.798635 0
M  V30 41748 C 3961.05 2.03769 -0.386414 0
M  V30 41749 C 3961.48 1.59808 0.992126 0
M  V30 41750 O 3960.84 0.770924 1.64093 0
M  V30 41751 C 3960.89 3.57538 -0.468921 0
M  V30 41752 O 3959.99 4.091 0.52067 0
M  V30 41753 H 3959.33 0.643781 -0.162608 0
M  V30 41754 H 3961.86 1.73629 -1.08231 0
M  V30 41755 H 3961.87 4.06615 -0.335846 0
M  V30 41756 H 3960.55 3.88885 -1.47448 0
M  V30 41757 H 3959.12 3.71268 0.348493 0
M  V30 41758 N 3961.31 0.551443 1.47638 0
M  V30 41759 C 3962.72 0.210796 1.58202 0
M  V30 41760 C 3962.92 -1.28656 1.5508 0
M  V30 41761 O 3961.98 -2.06634 1.45117 0
M  V30 41762 C 3963.29 0.832345 2.88951 0
M  V30 41763 C 3964.84 0.803043 3.02523 0
M  V30 41764 C 3965.32 1.40356 4.35964 0
M  V30 41765 N 3966.81 1.36648 4.42585 0
M  V30 41766 C 3967.54 1.80081 5.44388 0
M  V30 41767 N 3967.04 2.31343 6.53033 0
M  V30 41768 N 3968.83 1.71187 5.35398 0
M  V30 41769 H 3960.98 1.52435 1.4791 0
M  V30 41770 H 3963.24 0.63534 0.703596 0
M  V30 41771 H 3962.95 1.88444 2.96954 0
M  V30 41772 H 3962.82 0.321981 3.75823 0
M  V30 41773 H 3965.21 -0.240344 2.9412 0
M  V30 41774 H 3965.29 1.3511 2.17207 0
M  V30 41775 H 3964.94 2.44598 4.45123 0
M  V30 41776 H 3964.87 0.830988 5.20002 0
M  V30 41777 H 3967.36 0.99145 3.64662 0
M  V30 41778 H 3967.67 2.62423 7.26879 0
M  V30 41779 H 3966.02 2.35351 6.53938 0
M  V30 41780 H 3969.21 1.3092 4.49419 0
M  V30 41781 H 3969.38 2.05355 6.146 0
M  V30 41782 N 3962.79 -1.54953 0.287609 0
M  V30 41783 C 3964.03 -2.00883 -0.31899 0
M  V30 41784 C 3964.39 -1.17251 -1.52545 0
M  V30 41785 O 3963.68 -0.237579 -1.90121 0
M  V30 41786 C 3963.87 -3.49661 -0.739718 0
M  V30 41787 C 3963.7 -4.47693 0.424429 0
M  V30 41788 C 3962.47 -4.96998 0.912198 0
M  V30 41789 C 3964.67 -4.98499 1.26503 0
M  V30 41790 N 3962.65 -5.78855 2.04451 0
M  V30 41791 C 3964.02 -5.77926 2.24503 0
M  V30 41792 C 3966.08 -4.80712 1.29694 0
M  V30 41793 C 3964.78 -6.41461 3.25454 0
M  V30 41794 C 3966.81 -5.45055 2.29496 0
M  V30 41795 C 3966.17 -6.24304 3.26227 0
M  V30 41796 H 3962.27 -0.777736 -0.0815539 0
M  V30 41797 H 3964.85 -1.90237 0.414477 0
M  V30 41798 H 3963.02 -3.60624 -1.44238 0
M  V30 41799 H 3964.76 -3.82405 -1.32471 0
M  V30 41800 H 3961.51 -4.71065 0.489401 0
M  V30 41801 H 3961.94 -6.24472 2.61465 0
M  V30 41802 H 3966.58 -4.19037 0.562852 0
M  V30 41803 H 3964.3 -7.02278 3.99789 0
M  V30 41804 H 3967.88 -5.33227 2.32722 0
M  V30 41805 H 3966.76 -6.73211 4.0219 0
M  V30 41806 N 3964.26 -0.0150939 -1.57593 0
M  V30 41807 C 3965.51 0.665836 -1.90393 0
M  V30 41808 C 3965.83 1.74091 -0.891724 0
M  V30 41809 O 3967.03 2.47751 -1.11047 0
M  V30 41810 C 3965.49 1.23552 -3.38028 0
M  V30 41811 C 3965.1 0.194472 -4.47578 0
M  V30 41812 C 3966.84 1.89377 -3.79917 0
M  V30 41813 C 3964.75 0.774997 -5.863 0
M  V30 41814 H 3963.68 0.25246 -0.710479 0
M  V30 41815 H 3966.33 -0.0781061 -1.83334 0
M  V30 41816 H 3964.71 2.03062 -3.39973 0
M  V30 41817 H 3965.88 -0.577142 -4.57171 0
M  V30 41818 H 3964.2 -0.364207 -4.14804 0
M  V30 41819 H 3966.8 2.33742 -4.80904 0
M  V30 41820 H 3967.14 2.73066 -3.1423 0
M  V30 41821 H 3967.67 1.16578 -3.80335 0
M  V30 41822 H 3964.41 -0.0234506 -6.55496 0
M  V30 41823 H 3963.93 1.51542 -5.8034 0
M  V30 41824 H 3965.61 1.26904 -6.34432 0
M  V30 41825 N 3965.74 1.55476 0.257876 0
M  V30 41826 C 3966.67 1.92403 1.323 0
M  V30 41827 C 3967.65 0.787643 1.50765 0
M  V30 41828 O 3968.84 1.04703 1.63557 0
M  V30 41829 C 3965.97 2.20917 2.6798 0
M  V30 41830 C 3964.92 3.36704 2.64225 0
M  V30 41831 C 3964.25 3.50732 4.03598 0
M  V30 41832 C 3965.55 4.72693 2.22169 0
M  V30 41833 H 3967.24 2.81619 1.01641 0
M  V30 41834 H 3964.79 1.35497 0.487499 0
M  V30 41835 H 3966.74 2.45338 3.42618 0
M  V30 41836 H 3965.47 1.28515 3.00252 0
M  V30 41837 H 3964.12 3.12273 1.92044 0
M  V30 41838 H 3963.77 2.5577 4.33117 0
M  V30 41839 H 3963.47 4.2859 4.01976 0
M  V30 41840 H 3965 3.77463 4.79952 0
M  V30 41841 H 3966.41 4.96559 2.86534 0
M  V30 41842 H 3964.81 5.53574 2.3168 0
M  V30 41843 H 3965.88 4.70494 1.17317 0
M  V30 41844 N 3967.22 -0.523064 1.48667 0
M  V30 41845 C 3968.63 -1.10492 1.50494 0
M  V30 41846 C 3968.98 -1.94212 0.278614 0
M  V30 41847 O 3968.11 -2.07517 -0.613643 0
M  V30 41848 C 3968.7 -2.01053 2.72696 0
M  V30 41849 C 3967.26 -2.54443 2.77373 0
M  V30 41850 C 3966.41 -1.31558 2.44106 0
M  V30 41851 H 3969.36 -0.30799 1.55683 0
M  V30 41852 H 3969.38 -2.85437 2.51606 0
M  V30 41853 H 3968.89 -1.40093 3.61933 0
M  V30 41854 H 3966.99 -3.19105 1.92361 0
M  V30 41855 H 3967.11 -2.93104 3.78981 0
M  V30 41856 H 3965.47 -1.63362 1.95409 0
M  V30 41857 H 3966.25 -0.723396 3.35592 0
M  V30 41858 N 3968.7 -1.37371 -0.772465 0
M  V30 41859 C 3969.92 -1.35903 -1.56668 0
M  V30 41860 C 3970.35 0.0535207 -1.88024 0
M  V30 41861 O 3969.71 1.03036 -1.49176 0
M  V30 41862 C 3969.75 -2.20389 -2.85414 0
M  V30 41863 O 3968.86 -1.60802 -3.79758 0
M  V30 41864 H 3968.2 -0.464395 -0.474588 0
M  V30 41865 H 3970.73 -1.80885 -0.95613 0
M  V30 41866 H 3970.74 -2.33577 -3.34523 0
M  V30 41867 H 3969.41 -3.23064 -2.6192 0
M  V30 41868 H 3967.99 -1.56651 -3.384 0
M  V30 41869 N 3970.18 0.998553 -1.21929 0
M  V30 41870 C 3971.4 1.77825 -1.06738 0
M  V30 41871 C 3971.83 1.8426 0.378122 0
M  V30 41872 O 3971.18 1.29092 1.27298 0
M  V30 41873 C 3971.23 3.19249 -1.67668 0
M  V30 41874 O 3970.34 4.01857 -0.926518 0
M  V30 41875 H 3969.68 0.547798 -0.375251 0
M  V30 41876 H 3972.21 1.25476 -1.61608 0
M  V30 41877 H 3972.22 3.699 -1.72157 0
M  V30 41878 H 3970.89 3.1388 -2.72859 0
M  V30 41879 H 3969.47 3.60405 -0.957209 0
M  V30 41880 N 3971.65 1.02807 1.1945 0
M  V30 41881 C 3972.88 0.743519 1.93614 0
M  V30 41882 C 3973.3 -0.691311 1.74936 0
M  V30 41883 O 3972.66 -1.47719 1.05113 0
M  V30 41884 C 3972.71 1.09886 3.43449 0
M  V30 41885 O 3971.81 0.217051 4.11828 0
M  V30 41886 H 3971.16 0.274782 0.604476 0
M  V30 41887 H 3973.69 1.37453 1.51551 0
M  V30 41888 H 3973.7 1.05541 3.94113 0
M  V30 41889 H 3972.37 2.14419 3.56367 0
M  V30 41890 H 3970.95 0.319019 3.71533 0
M  V30 41891 N 3973.13 -1.35441 0.805829 0
M  V30 41892 C 3974.1 -2.28129 0.221318 0
M  V30 41893 C 3975.1 -1.4955 -0.590893 0
M  V30 41894 O 3976.29 -1.69319 -0.409488 0
M  V30 41895 C 3973.42 -3.33811 -0.691585 0
M  V30 41896 H 3974.61 -2.81334 1.0388 0
M  V30 41897 H 3972.16 -1.45283 0.576426 0
M  V30 41898 H 3972.9 -2.85791 -1.53278 0
M  V30 41899 H 3972.68 -3.91943 -0.110903 0
M  V30 41900 H 3974.17 -4.02991 -1.09489 0
M  V30 41901 N 3974.61 -0.559265 -1.47343 0
M  V30 41902 C 3976.03 -0.219183 -1.58088 0
M  V30 41903 C 3976.23 1.27832 -1.55761 0
M  V30 41904 O 3975.28 2.05861 -1.4621 0
M  V30 41905 C 3976.6 -0.847657 -2.88505 0
M  V30 41906 C 3978.14 -0.819076 -3.02093 0
M  V30 41907 C 3978.62 -1.42666 -4.35213 0
M  V30 41908 N 3980.11 -1.38993 -4.41854 0
M  V30 41909 C 3980.84 -1.82966 -5.43425 0
M  V30 41910 N 3980.34 -2.34803 -6.51797 0
M  V30 41911 N 3982.13 -1.74024 -5.34483 0
M  V30 41912 H 3974.28 -1.53217 -1.47099 0
M  V30 41913 H 3976.55 -0.639063 -0.700216 0
M  V30 41914 H 3976.25 -1.90016 -2.95951 0
M  V30 41915 H 3976.13 -0.341907 -3.75647 0
M  V30 41916 H 3978.51 0.224742 -2.94243 0
M  V30 41917 H 3978.6 -1.3626 -2.16487 0
M  V30 41918 H 3978.24 -2.46955 -4.43819 0
M  V30 41919 H 3978.17 -0.858553 -5.19554 0
M  V30 41920 H 3980.66 -1.01078 -3.64131 0
M  V30 41921 H 3980.97 -2.66275 -7.25478 0
M  V30 41922 H 3979.32 -2.38815 -6.52681 0
M  V30 41923 H 3982.51 -1.33302 -4.48719 0
M  V30 41924 H 3982.68 -2.08611 -6.13503 0
M  V30 41925 N 3976.09 1.54799 -0.295822 0
M  V30 41926 C 3977.5 1.59496 0.0577236 0
M  V30 41927 C 3977.7 1.31287 1.5286 0
M  V30 41928 O 3976.76 1.08376 2.28059 0
M  V30 41929 C 3978.07 2.98822 -0.335556 0
M  V30 41930 C 3979.62 3.1171 -0.28389 0
M  V30 41931 C 3980.1 4.53337 -0.651914 0
M  V30 41932 N 3981.59 4.59242 -0.604252 0
M  V30 41933 C 3982.32 5.6689 -0.861552 0
M  V30 41934 N 3981.82 6.82598 -1.18455 0
M  V30 41935 N 3983.61 5.56536 -0.788961 0
M  V30 41936 H 3975.76 1.71396 -1.25447 0
M  V30 41937 H 3978.03 0.800251 -0.508234 0
M  V30 41938 H 3977.73 3.2437 -1.35929 0
M  V30 41939 H 3977.61 3.75896 0.313377 0
M  V30 41940 H 3979.99 2.85913 0.730591 0
M  V30 41941 H 3980.07 2.36803 -0.967373 0
M  V30 41942 H 3979.72 4.79862 -1.66418 0
M  V30 41943 H 3979.65 5.26573 0.0535835 0
M  V30 41944 H 3982.14 3.7613 -0.365328 0
M  V30 41945 H 3982.45 7.60614 -1.367 0
M  V30 41946 H 3980.8 6.84163 -1.22254 0
M  V30 41947 H 3983.99 4.65018 -0.536313 0
M  V30 41948 H 3984.16 6.40349 -0.992856 0
M  V30 41949 N 3977.57 0.0234513 1.57583 0
M  V30 41950 C 3978.8 -0.666762 1.95862 0
M  V30 41951 C 3979.21 -1.65987 0.899645 0
M  V30 41952 O 3978.57 -1.82111 -0.119129 0
M  V30 41953 C 3978.62 -1.37812 3.34201 0
M  V30 41954 O 3978.34 -0.424811 4.36036 0
M  V30 41955 C 3979.84 -2.16068 3.87078 0
M  V30 41956 H 3977.06 -0.184221 0.645216 0
M  V30 41957 H 3979.6 0.0815346 2.04337 0
M  V30 41958 H 3977.76 -2.07786 3.26961 0
M  V30 41959 H 3978.17 -0.929303 5.16202 0
M  V30 41960 H 3979.65 -2.61303 4.86235 0
M  V30 41961 H 3980.12 -2.99735 3.21022 0
M  V30 41962 H 3980.73 -1.51063 3.97568 0
M  V30 41963 N 3979.05 -1.5561 -0.249627 0
M  V30 41964 C 3980.46 -1.67782 -0.818904 0
M  V30 41965 C 3980.81 -0.620407 -1.86133 0
M  V30 41966 O 3979.93 0.233831 -2.15133 0
M  V30 41967 C 3980.53 -3.04172 -1.49213 0
M  V30 41968 C 3979.09 -3.18293 -2.00914 0
M  V30 41969 C 3978.23 -2.6365 -0.859287 0
M  V30 41970 H 3981.18 -1.5868 -0.0254907 0
M  V30 41971 H 3981.21 -2.98465 -2.36006 0
M  V30 41972 H 3980.72 -3.81111 -0.733201 0
M  V30 41973 H 3978.82 -2.46172 -2.79697 0
M  V30 41974 H 3978.93 -4.25166 -2.2084 0
M  V30 41975 H 3977.3 -2.21404 -1.25906 0
M  V30 41976 H 3978.08 -3.43112 -0.113484 0
M  V30 41977 N 3980.52 0.515172 -1.48942 0
M  V30 41978 C 3981.49 1.60048 -1.64065 0
M  V30 41979 C 3982.49 1.52393 -0.513128 0
M  V30 41980 O 3983.68 1.55798 -0.779268 0
M  V30 41981 C 3980.81 2.99691 -1.62475 0
M  V30 41982 H 3982 1.47974 -2.60852 0
M  V30 41983 H 3979.55 0.738354 -1.37761 0
M  V30 41984 H 3980.29 3.17257 -0.672196 0
M  V30 41985 H 3980.07 3.06656 -2.44345 0
M  V30 41986 H 3981.56 3.7857 -1.7628 0
M  V30 41987 N 3982 1.37779 0.765169 0
M  V30 41988 C 3983.25 1.32671 1.51925 0
M  V30 41989 C 3983.56 -0.0843828 1.95418 0
M  V30 41990 O 3984.77 -0.257953 2.70272 0
M  V30 41991 C 3983.23 2.32911 2.74373 0
M  V30 41992 C 3982.83 3.79582 2.37953 0
M  V30 41993 C 3984.58 2.36826 3.52298 0
M  V30 41994 C 3982.48 4.71537 3.56941 0
M  V30 41995 H 3981.41 0.493108 0.570404 0
M  V30 41996 H 3984.07 1.63273 0.837503 0
M  V30 41997 H 3982.45 1.95335 3.44471 0
M  V30 41998 H 3983.62 4.26031 1.75596 0
M  V30 41999 H 3981.94 3.78675 1.73188 0
M  V30 42000 H 3984.53 3.02729 4.40749 0
M  V30 42001 H 3984.88 1.38378 3.92629 0
M  V30 42002 H 3985.41 2.73142 2.89203 0
M  V30 42003 H 3982.15 5.71137 3.21687 0
M  V30 42004 H 3981.67 4.29788 4.18381 0
M  V30 42005 H 3983.35 4.8899 4.23671 0
M  V30 42006 N 3983.48 -0.992073 1.22457 0
M  V30 42007 C 3984.41 -2.10061 1.01964 0
M  V30 42008 C 3985.39 -1.69995 -0.0596887 0
M  V30 42009 O 3986.58 -1.93928 0.102689 0
M  V30 42010 C 3983.71 -3.42122 0.597503 0
M  V30 42011 C 3982.66 -3.96039 1.62286 0
M  V30 42012 C 3981.99 -5.24158 1.05653 0
M  V30 42013 C 3983.29 -4.2663 3.01304 0
M  V30 42014 H 3984.98 -2.27462 1.94682 0
M  V30 42015 H 3982.53 -1.09307 0.937441 0
M  V30 42016 H 3984.48 -4.19083 0.441248 0
M  V30 42017 H 3983.2 -3.2455 -0.365344 0
M  V30 42018 H 3981.86 -3.2121 1.7669 0
M  V30 42019 H 3981.51 -5.02928 0.0850151 0
M  V30 42020 H 3981.21 -5.61199 1.74154 0
M  V30 42021 H 3982.73 -6.03753 0.91188 0
M  V30 42022 H 3984.15 -4.94386 2.90269 0
M  V30 42023 H 3982.54 -4.74845 3.66936 0
M  V30 42024 H 3983.61 -3.34372 3.51174 0
M  V30 42025 N 3984.96 -1.03439 -1.18904 0
M  V30 42026 C 3986.21 -0.729301 -1.88053 0
M  V30 42027 C 3986.52 0.745532 -1.80835 0
M  V30 42028 O 3987.73 1.16389 -2.45287 0
M  V30 42029 C 3986.18 -1.25421 -3.37339 0
M  V30 42030 C 3985.79 -2.75722 -3.53102 0
M  V30 42031 C 3987.53 -1.02536 -4.1193 0
M  V30 42032 C 3985.44 -3.21603 -4.96312 0
M  V30 42033 H 3984.37 -0.269111 -0.70434 0
M  V30 42034 H 3987.02 -1.24941 -1.34395 0
M  V30 42035 H 3985.4 -0.661994 -3.90428 0
M  V30 42036 H 3986.58 -3.40647 -3.10316 0
M  V30 42037 H 3984.89 -2.96949 -2.91908 0
M  V30 42038 H 3987.49 -1.34337 -5.1755 0
M  V30 42039 H 3987.83 0.0376382 -4.16283 0
M  V30 42040 H 3988.37 -1.58187 -3.64996 0
M  V30 42041 H 3985.1 -4.27257 -4.97124 0
M  V30 42042 H 3984.62 -2.6141 -5.39838 0
M  V30 42043 H 3986.3 -3.15263 -5.64994 0
M  V30 42044 N 3986.44 1.35011 -0.813001 0
M  V30 42045 C 3987.66 2.03347 -0.408005 0
M  V30 42046 C 3988.09 1.60851 0.97512 0
M  V30 42047 O 3987.44 0.788285 1.63266 0
M  V30 42048 C 3987.49 3.57021 -0.506817 0
M  V30 42049 O 3986.6 4.09629 0.47725 0
M  V30 42050 H 3985.94 0.642021 -0.169427 0
M  V30 42051 H 3988.47 1.72472 -1.10067 0
M  V30 42052 H 3988.48 4.06236 -0.378955 0
M  V30 42053 H 3987.15 3.873 -1.51564 0
M  V30 42054 H 3985.73 3.71617 0.309096 0
M  V30 42055 N 3987.91 0.567071 1.47044 0
M  V30 42056 C 3988.82 -0.177957 2.33924 0
M  V30 42057 C 3989.84 -0.901941 1.48799 0
M  V30 42058 O 3991.02 -0.86863 1.81705 0
M  V30 42059 C 3988.08 -1.18859 3.25689 0
M  V30 42060 C 3987.14 -0.470974 4.26709 0
M  V30 42061 C 3986.37 -1.43346 5.14089 0
M  V30 42062 O 3986.6 -2.66898 5.04105 0
M  V30 42063 O 3985.53 -0.952569 5.94315 0
M  V30 42064 H 3989.36 0.53496 2.98951 0
M  V30 42065 H 3986.94 0.327597 1.45764 0
M  V30 42066 H 3988.82 -1.77173 3.82345 0
M  V30 42067 H 3987.5 -1.88326 2.63278 0
M  V30 42068 H 3986.41 0.153605 3.73785 0
M  V30 42069 H 3987.74 0.182424 4.91862 0
M  V30 42070 N 3989.39 -1.5464 0.304027 0
M  V30 42071 C 3990.64 -2.00496 -0.30481 0
M  V30 42072 C 3990.97 -1.19209 -1.53306 0
M  V30 42073 O 3990.25 -0.269339 -1.92626 0
M  V30 42074 C 3990.53 -3.5403 -0.658399 0
M  V30 42075 C 3990.38 -4.46055 0.579204 0
M  V30 42076 C 3991.7 -4.14335 -1.48373 0
M  V30 42077 H 3988.82 -0.728848 -0.109314 0
M  V30 42078 H 3991.46 -1.85374 0.416727 0
M  V30 42079 H 3989.61 -3.67047 -1.27313 0
M  V30 42080 H 3991.28 -4.44939 1.21766 0
M  V30 42081 H 3989.53 -4.16529 1.21186 0
M  V30 42082 H 3990.2 -5.5125 0.287615 0
M  V30 42083 H 3992.67 -4.04772 -0.964296 0
M  V30 42084 H 3991.55 -5.21914 -1.69992 0
M  V30 42085 H 3991.81 -3.66404 -2.47388 0
M  V30 42086 N 3990.87 -0.0318079 -1.57568 0
M  V30 42087 C 3992.12 0.647204 -1.92195 0
M  V30 42088 C 3992.45 1.71624 -0.908777 0
M  V30 42089 O 3991.72 1.94381 0.0680992 0
M  V30 42090 C 3992.01 1.26118 -3.37293 0
M  V30 42091 C 3991.86 0.201515 -4.49348 0
M  V30 42092 C 3993.18 2.17842 -3.82404 0
M  V30 42093 H 3990.3 0.233805 -0.698931 0
M  V30 42094 H 3992.94 -0.0896164 -1.89789 0
M  V30 42095 H 3991.09 1.88916 -3.39475 0
M  V30 42096 H 3992.76 -0.429236 -4.59299 0
M  V30 42097 H 3991 -0.4727 -4.31217 0
M  V30 42098 H 3991.68 0.670762 -5.47909 0
M  V30 42099 H 3994.15 1.65027 -3.81975 0
M  V30 42100 H 3993.03 2.57753 -4.84618 0
M  V30 42101 H 3993.29 3.07067 -3.1806 0
M  V30 42102 N 3992.35 1.55741 0.241371 0
M  V30 42103 C 3993.76 1.48288 0.59015 0
M  V30 42104 C 3993.96 0.723085 1.88079 0
M  V30 42105 O 3993.02 0.254684 2.51212 0
M  V30 42106 C 3994.33 2.92729 0.687752 0
M  V30 42107 C 3995.88 3.03133 0.77971 0
M  V30 42108 C 3996.36 4.48892 0.908826 0
M  V30 42109 N 3997.85 4.52853 0.973556 0
M  V30 42110 C 3998.58 5.6289 1.09282 0
M  V30 42111 N 3998.08 6.82724 1.17728 0
M  V30 42112 N 3999.87 5.50698 1.12641 0
M  V30 42113 H 3992.02 2.03577 -0.605816 0
M  V30 42114 H 3994.29 0.924476 -0.209878 0
M  V30 42115 H 3993.99 3.51183 -0.19067 0
M  V30 42116 H 3993.87 3.43526 1.55788 0
M  V30 42117 H 3996.25 2.44757 1.64858 0
M  V30 42118 H 3996.33 2.55538 -0.115685 0
M  V30 42119 H 3995.98 5.07881 0.0444895 0
M  V30 42120 H 3995.91 4.94173 1.81934 0
M  V30 42121 H 3998.4 3.66545 0.919405 0
M  V30 42122 H 3998.71 7.62335 1.26751 0
M  V30 42123 H 3997.06 6.85474 1.14676 0
M  V30 42124 H 4000.25 4.56011 1.05695 0
M  V30 42125 H 4000.42 6.3649 1.21591 0
M  V30 42126 N 3993.83 -0.507266 1.49213 0
M  V30 42127 C 3995.05 -1.29069 1.62345 0
M  V30 42128 C 3995.48 -1.85813 0.29242 0
M  V30 42129 O 3994.83 -1.6555 -0.739116 0
M  V30 42130 C 3994.88 -2.40125 2.69021 0
M  V30 42131 O 3993.99 -3.43802 2.27759 0
M  V30 42132 H 3993.33 -0.38131 0.543598 0
M  V30 42133 H 3995.86 -0.607963 1.95359 0
M  V30 42134 H 3995.87 -2.8598 2.90997 0
M  V30 42135 H 3994.54 -1.98189 3.65642 0
M  V30 42136 H 3993.12 -3.03908 2.16089 0
M  V30 42137 N 3995.3 -1.38182 -0.757851 0
M  V30 42138 C 3996.23 -1.37782 -1.88516 0
M  V30 42139 C 3997.22 -0.24435 -1.68336 0
M  V30 42140 O 3998.4 -0.446795 -1.8899 0
M  V30 42141 C 3995.53 -1.19789 -3.25987 0
M  V30 42142 C 3994.48 -2.30295 -3.6076 0
M  V30 42143 C 3993.81 -1.97412 -4.96923 0
M  V30 42144 C 3995.11 -3.7254 -3.66076 0
M  V30 42145 H 3996.8 -2.32117 -1.89108 0
M  V30 42146 H 3994.35 -1.1173 -0.908423 0
M  V30 42147 H 3996.3 -1.18136 -4.04502 0
M  V30 42148 H 3995.03 -0.219145 -3.25864 0
M  V30 42149 H 3993.69 -2.31128 -2.84562 0
M  V30 42150 H 3993.33 -0.980317 -4.93355 0
M  V30 42151 H 3993.03 -2.71419 -5.21158 0
M  V30 42152 H 3994.56 -1.97369 -5.77822 0
M  V30 42153 H 3995.97 -3.73761 -4.34713 0
M  V30 42154 H 3994.37 -4.45717 -4.01817 0
M  V30 42155 H 3995.44 -4.05163 -2.66404 0
M  V30 42156 N 3996.78 0.985565 -1.22981 0
M  V30 42157 C 3997.71 2.09517 -1.03077 0
M  V30 42158 C 3998.69 1.70025 0.0506726 0
M  V30 42159 O 3999.88 1.93871 -0.112972 0
M  V30 42160 C 3997.01 3.418 -0.615638 0
M  V30 42161 C 3995.96 3.95173 -1.64384 0
M  V30 42162 C 3995.29 5.2359 -1.08432 0
M  V30 42163 C 3996.59 4.25026 -3.03562 0
M  V30 42164 H 3998.28 2.26427 -1.95886 0
M  V30 42165 H 3995.83 1.08808 -0.943225 0
M  V30 42166 H 3997.78 4.18844 -0.463467 0
M  V30 42167 H 3996.51 3.24739 0.348128 0
M  V30 42168 H 3995.16 3.20269 -1.78391 0
M  V30 42169 H 3994.81 5.02876 -0.111685 0
M  V30 42170 H 3994.51 5.60267 -1.77128 0
M  V30 42171 H 3996.04 6.0326 -0.943886 0
M  V30 42172 H 3997.45 4.92839 -2.92886 0
M  V30 42173 H 3995.85 4.72892 -3.69449 0
M  V30 42174 H 3996.92 3.32505 -3.52943 0
M  V30 42175 N 3998.26 1.04068 1.18353 0
M  V30 42176 C 3999.51 0.745182 1.88613 0
M  V30 42177 C 3999.84 -0.725263 1.80149 0
M  V30 42178 O 3999.11 -1.52928 1.2018 0
M  V30 42179 C 3999.4 1.21195 3.39092 0
M  V30 42180 C 3999.25 2.7445 3.56367 0
M  V30 42181 C 4000.57 0.802029 4.3273 0
M  V30 42182 H 3997.69 0.272178 0.6849 0
M  V30 42183 H 4000.33 1.2927 1.39246 0
M  V30 42184 H 3998.48 0.746158 3.81267 0
M  V30 42185 H 4000.15 3.29067 3.23284 0
M  V30 42186 H 3998.4 3.14274 2.99022 0
M  V30 42187 H 3999.07 3.02168 4.61951 0
M  V30 42188 H 4001.54 1.20285 3.98335 0
M  V30 42189 H 4000.42 1.15638 5.36581 0
M  V30 42190 H 4000.68 -0.29483 4.41116 0
M  V30 42191 N 3999.74 -1.34578 0.820149 0
M  V30 42192 C 4000.98 -1.98664 0.407508 0
M  V30 42193 C 4001.32 -1.64878 -1.0261 0
M  V30 42194 O 4000.59 -0.918994 -1.7142 0
M  V30 42195 C 4000.88 -3.54951 0.606806 0
M  V30 42196 C 4000.73 -3.98488 2.08633 0
M  V30 42197 C 4002.05 -4.40081 0.0410094 0
M  V30 42198 H 3999.17 -0.72167 0.149537 0
M  V30 42199 H 4001.81 -1.59517 1.0322 0
M  V30 42200 H 3999.96 -3.88428 0.0750471 0
M  V30 42201 H 4001.63 -3.75357 2.68151 0
M  V30 42202 H 3999.87 -3.48901 2.57781 0
M  V30 42203 H 4000.54 -5.07275 2.1766 0
M  V30 42204 H 4003.02 -4.13142 0.495306 0
M  V30 42205 H 4001.9 -5.48497 0.210278 0
M  V30 42206 H 4002.16 -4.29357 -1.05381 0
M  V30 42207 N 4001.22 -0.574861 -1.46742 0
M  V30 42208 C 4002.44 -0.0609143 -2.07311 0
M  V30 42209 C 4002.87 1.23126 -1.42202 0
M  V30 42210 O 4002.22 1.74181 -0.503073 0
M  V30 42211 C 4002.27 0.0996043 -3.60462 0
M  V30 42212 O 4001.38 1.15801 -3.95808 0
M  V30 42213 H 4000.72 -0.0592658 -0.66135 0
M  V30 42214 H 4003.25 -0.795571 -1.88499 0
M  V30 42215 H 4003.26 0.308257 -4.06834 0
M  V30 42216 H 4001.93 -0.844089 -4.07244 0
M  V30 42217 H 4000.51 0.928441 -3.61157 0
M  V30 42218 N 4002.69 1.54476 -0.312224 0
M  V30 42219 C 4003.97 1.9249 0.347428 0
M  V30 42220 C 4004.35 1.24066 1.70795 0
M  V30 42221 O 4003.7 0.380336 2.25312 0
M  V30 42222 C 4003.91 3.46075 0.450932 0
M  V30 42223 C 4005.26 4.1851 0.716545 0
M  V30 42224 O 4006.28 3.5217 0.534303 0
M  V30 42225 O 4005.14 5.35976 1.06734 0
M  V30 42226 H 4002.23 0.803381 0.196234 0
M  V30 42227 H 4004.78 1.65813 -0.361107 0
M  V30 42228 H 4003.55 3.88027 -0.505051 0
M  V30 42229 H 4003.18 3.78821 1.20749 0
M  V30 42230 N 4004.17 0.0401637 1.57549 0
M  V30 42231 C 4005.1 -0.936131 2.13913 0
M  V30 42232 C 4006.08 -1.33192 1.05801 0
M  V30 42233 O 4007.27 -1.40859 1.33688 0
M  V30 42234 C 4004.4 -2.21474 2.67519 0
M  V30 42235 C 4003.35 -1.95936 3.80517 0
M  V30 42236 C 4002.68 -3.30157 4.20595 0
M  V30 42237 C 4003.98 -1.28972 5.06126 0
M  V30 42238 H 4005.67 -0.466688 2.9574 0
M  V30 42239 H 4003.22 -0.223037 1.42262 0
M  V30 42240 H 4005.17 -2.90163 3.05587 0
M  V30 42241 H 4003.9 -2.70604 1.82868 0
M  V30 42242 H 4002.55 -1.29663 3.42904 0
M  V30 42243 H 4002.2 -3.77067 3.3291 0
M  V30 42244 H 4001.9 -3.13872 4.96748 0
M  V30 42245 H 4003.43 -4.00095 4.61255 0
M  V30 42246 H 4004.84 -1.87678 5.4171 0
M  V30 42247 H 4003.24 -1.23049 5.87349 0
M  V30 42248 H 4004.31 -0.264201 4.8418 0
M  V30 42249 N 4005.65 -1.55866 -0.233109 0
M  V30 42250 C 4006.9 -1.78342 -0.959187 0
M  V30 42251 C 4007.23 -0.606919 -1.84788 0
M  V30 42252 O 4006.48 0.409219 -1.91374 0
M  V30 42253 C 4006.78 -3.06461 -1.83892 0
M  V30 42254 C 4006.45 -4.37165 -1.10443 0
M  V30 42255 C 4005.11 -4.7268 -0.901494 0
M  V30 42256 C 4007.46 -5.17908 -0.584888 0
M  V30 42257 C 4004.79 -5.86462 -0.166931 0
M  V30 42258 C 4007.14 -6.32453 0.136275 0
M  V30 42259 C 4005.8 -6.66579 0.350568 0
M  V30 42260 H 4005.07 -0.652599 -0.350991 0
M  V30 42261 H 4007.72 -1.90135 -0.228215 0
M  V30 42262 H 4006.03 -2.89739 -2.63739 0
M  V30 42263 H 4007.72 -3.21051 -2.40265 0
M  V30 42264 H 4004.31 -4.09272 -1.27256 0
M  V30 42265 H 4008.5 -4.90914 -0.729177 0
M  V30 42266 H 4003.75 -6.11399 0.00943789 0
M  V30 42267 H 4007.93 -6.94253 0.546416 0
M  V30 42268 H 4005.55 -7.54592 0.921702 0
M  V30 42269 N 4007.13 0.499346 -1.4948 0
M  V30 42270 C 4008.36 1.27735 -1.62762 0
M  V30 42271 C 4008.77 1.86407 -0.299668 0
M  V30 42272 O 4008.13 1.67908 0.715063 0
M  V30 42273 C 4008.18 2.40642 -2.69766 0
M  V30 42274 O 4007.9 1.84381 -3.9741 0
M  V30 42275 C 4009.4 3.31987 -2.93768 0
M  V30 42276 H 4006.62 0.387358 -0.5479 0
M  V30 42277 H 4009.17 0.599257 -1.95523 0
M  V30 42278 H 4007.32 3.04278 -2.39779 0
M  V30 42279 H 4007.74 2.58517 -4.56365 0
M  V30 42280 H 4009.21 4.07487 -3.72368 0
M  V30 42281 H 4009.69 3.89081 -2.03746 0
M  V30 42282 H 4010.29 2.74116 -3.25178 0
M  V30 42283 N 4008.61 1.38582 0.750513 0
M  V30 42284 C 4009.52 1.38299 1.89501 0
M  V30 42285 C 4010.53 0.279709 1.71737 0
M  V30 42286 O 4011.71 0.518641 1.94607 0
M  V30 42287 C 4008.77 1.20982 3.24907 0
M  V30 42288 C 4007.84 2.41143 3.55174 0
M  V30 42289 C 4007.07 2.24642 4.8412 0
M  V30 42290 O 4007.29 1.24173 5.5672 0
M  V30 42291 O 4006.23 3.13297 5.13934 0
M  V30 42292 H 4010.05 2.3474 1.92693 0
M  V30 42293 H 4007.64 1.19534 0.896212 0
M  V30 42294 H 4009.52 1.13396 4.05856 0
M  V30 42295 H 4008.19 0.276274 3.22519 0
M  V30 42296 H 4007.1 2.54303 2.74373 0
M  V30 42297 H 4008.43 3.33137 3.62326 0
M  V30 42298 N 4010.09 -0.979029 1.23502 0
M  V30 42299 C 4011.5 -1.2455 0.99797 0
M  V30 42300 C 4011.7 -1.99253 -0.300104 0
M  V30 42301 O 4010.76 -2.31017 -1.01919 0
M  V30 42302 C 4012.07 -2.04371 2.20574 0
M  V30 42303 C 4013.62 -2.17505 2.25079 0
M  V30 42304 C 4014.09 -3.00718 3.45446 0
M  V30 42305 N 4015.58 -3.08302 3.45693 0
M  V30 42306 C 4016.32 -3.73016 4.35484 0
M  V30 42307 N 4015.82 -4.39542 5.35514 0
M  V30 42308 N 4017.61 -3.69916 4.23224 0
M  V30 42309 H 4009.76 -0.478613 2.06937 0
M  V30 42310 H 4012.02 -0.274068 0.907519 0
M  V30 42311 H 4011.73 -1.56857 3.14784 0
M  V30 42312 H 4011.6 -3.05119 2.21771 0
M  V30 42313 H 4013.99 -2.64227 1.31408 0
M  V30 42314 H 4014.07 -1.16142 2.27914 0
M  V30 42315 H 4013.71 -2.54692 4.39425 0
M  V30 42316 H 4013.64 -4.02254 3.39852 0
M  V30 42317 H 4016.14 -2.60969 2.73319 0
M  V30 42318 H 4016.45 -4.86704 6.00282 0
M  V30 42319 H 4014.79 -4.38246 5.39412 0
M  V30 42320 H 4017.98 -3.17113 3.44321 0
M  V30 42321 H 4018.16 -4.20068 4.93404 0
M  V30 42322 N 4011.56 -1.04695 -1.178 0
M  V30 42323 C 4012.51 -0.637359 -2.23697 0
M  V30 42324 C 4013.51 0.338927 -1.65975 0
M  V30 42325 O 4014.71 0.205533 -1.78823 0
M  V30 42326 H 4011.09 -0.187916 -0.728142 0
M  V30 42327 H 4013.06 -1.54074 -2.55546 0
M  V30 42328 C 4011.81 -0.0228273 -3.47693 0
M  V30 42329 H 4011.13 -0.765127 -3.9241 0
M  V30 42330 H 4012.57 0.226455 -4.23395 0
M  V30 42331 C 4011.03 1.22906 -3.13681 0
M  V30 42332 O 4011.56 2.31907 -3.27997 0
M  V30 42333 N 4009.76 1.12478 -2.6795 0
M  V30 42334 H 4009.31 0.237773 -2.565 0
M  V30 42335 H 4009.27 1.96329 -2.45565 0
M  V30 42336 N 4013.04 1.34141 -0.827275 0
M  V30 42337 C 4013.97 2.28239 -0.209703 0
M  V30 42338 C 4014.99 1.51224 0.602919 0
M  V30 42339 O 4016.18 1.73196 0.431887 0
M  V30 42340 C 4013.28 3.3107 0.724287 0
M  V30 42341 C 4012.45 4.37375 -0.0464581 0
M  V30 42342 C 4011.51 5.19942 0.809116 0
M  V30 42343 O 4010.53 5.6864 0.252519 0
M  V30 42344 N 4011.74 5.40079 2.12826 0
M  V30 42345 H 4014.5 2.81876 -1.01815 0
M  V30 42346 H 4012.06 1.46711 -0.684643 0
M  V30 42347 H 4014.05 3.83206 1.30136 0
M  V30 42348 H 4012.62 2.77796 1.43347 0
M  V30 42349 H 4011.84 3.85896 -0.804861 0
M  V30 42350 H 4013.13 5.05519 -0.576864 0
M  V30 42351 H 4012.53 5.02196 2.60414 0
M  V30 42352 H 4011.09 5.95316 2.65408 0
M  V30 42353 N 4014.52 0.582635 1.46435 0
M  V30 42354 C 4015.77 0.0681849 2.02385 0
M  V30 42355 C 4016.09 -1.29172 1.45412 0
M  V30 42356 O 4015.35 -1.85981 0.609053 0
M  V30 42357 C 4015.65 -0.0476116 3.57368 0
M  V30 42358 C 4015.31 1.24469 4.3338 0
M  V30 42359 C 4013.98 1.59874 4.53865 0
M  V30 42360 C 4016.33 2.09989 4.77026 0
M  V30 42361 C 4013.66 2.80598 5.15249 0
M  V30 42362 C 4016.01 3.29939 5.39744 0
M  V30 42363 C 4014.67 3.65626 5.58457 0
M  V30 42364 H 4013.94 0.0249506 0.74058 0
M  V30 42365 H 4016.59 0.759257 1.75805 0
M  V30 42366 H 4014.89 -0.821811 3.83084 0
M  V30 42367 H 4016.59 -0.461417 3.98336 0
M  V30 42368 H 4013.18 0.959066 4.17732 0
M  V30 42369 H 4017.37 1.83939 4.60956 0
M  V30 42370 H 4012.62 3.08385 5.27928 0
M  V30 42371 H 4016.8 3.96474 5.72522 0
M  V30 42372 H 4014.42 4.59262 6.05791 0
M  V30 42373 N 4016 -1.54309 0.320412 0
M  V30 42374 C 4016.91 -2.27917 -0.555977 0
M  V30 42375 C 4017.92 -1.32151 -1.1319 0
M  V30 42376 O 4019.1 -1.65162 -1.15254 0
M  V30 42377 C 4016.16 -3.02026 -1.70238 0
M  V30 42378 C 4015.23 -4.13371 -1.15858 0
M  V30 42379 C 4014.46 -4.83937 -2.25035 0
M  V30 42380 O 4014.68 -4.53994 -3.45319 0
M  V30 42381 O 4013.62 -5.70914 -1.90632 0
M  V30 42382 H 4017.44 -3.03671 0.0417097 0
M  V30 42383 H 4015.03 -1.49151 0.0862071 0
M  V30 42384 H 4016.91 -3.48446 -2.36988 0
M  V30 42385 H 4015.58 -2.2915 -2.28631 0
M  V30 42386 H 4014.49 -3.71307 -0.456257 0
M  V30 42387 H 4015.82 -4.88282 -0.61983 0
M  V30 42388 N 4017.48 -0.0485183 -1.57525 0
M  V30 42389 C 4018.41 0.924773 -2.14407 0
M  V30 42390 C 4019.39 1.32629 -1.06506 0
M  V30 42391 O 4020.57 1.40148 -1.34433 0
M  V30 42392 C 4017.7 2.20052 -2.6869 0
M  V30 42393 C 4016.66 1.93915 -3.81551 0
M  V30 42394 C 4015.98 3.27922 -4.2234 0
M  V30 42395 C 4017.28 1.26287 -5.06803 0
M  V30 42396 H 4018.98 0.450998 -2.95984 0
M  V30 42397 H 4016.52 0.215489 -1.42379 0
M  V30 42398 H 4018.47 2.88538 -3.07122 0
M  V30 42399 H 4017.2 2.69631 -1.84301 0
M  V30 42400 H 4015.86 1.27842 -3.43587 0
M  V30 42401 H 4015.51 3.75296 -3.34905 0
M  V30 42402 H 4015.21 3.11233 -4.98405 0
M  V30 42403 H 4016.73 3.97643 -4.6337 0
M  V30 42404 H 4018.14 1.84802 -5.42698 0
M  V30 42405 H 4016.54 1.19933 -5.87993 0
M  V30 42406 H 4017.61 0.23852 -4.84313 0
M  V30 42407 N 4018.95 1.55988 0.224839 0
M  V30 42408 C 4019.89 1.87154 1.3057 0
M  V30 42409 C 4020.86 0.728617 1.45361 0
M  V30 42410 O 4022.05 0.976643 1.61226 0
M  V30 42411 C 4019.18 2.07567 2.67644 0
M  V30 42412 C 4018.22 3.30248 2.69886 0
M  V30 42413 S 4019.05 4.86269 2.24282 0
M  V30 42414 C 4020.21 5.09714 3.63238 0
M  V30 42415 H 4020.44 2.78539 1.03939 0
M  V30 42416 H 4017.98 1.4838 0.42692 0
M  V30 42417 H 4019.93 2.20011 3.46562 0
M  V30 42418 H 4018.6 1.16985 2.91502 0
M  V30 42419 H 4017.79 3.41566 3.70606 0
M  V30 42420 H 4017.39 3.16644 1.99029 0
M  V30 42421 H 4019.68 4.98411 4.58904 0
M  V30 42422 H 4020.63 6.11614 3.56839 0
M  V30 42423 H 4021.03 4.37462 3.56774 0
M  V30 42424 N 4020.43 -0.491412 1.49743 0
M  V30 42425 C 4021.66 -1.26686 1.632 0
M  V30 42426 C 4022.07 -1.86701 0.306471 0
M  V30 42427 O 4021.41 -1.69034 -0.719252 0
M  V30 42428 C 4021.47 -2.42963 2.64971 0
M  V30 42429 C 4021.14 -2.03742 4.0907 0
M  V30 42430 C 4022.14 -1.57162 4.95577 0
M  V30 42431 C 4019.82 -2.13084 4.54863 0
M  V30 42432 C 4021.81 -1.20439 6.25918 0
M  V30 42433 C 4019.5 -1.75973 5.85215 0
M  V30 42434 C 4020.5 -1.29726 6.70567 0
M  V30 42435 O 4020.19 -0.931207 7.98488 0
M  V30 42436 H 4019.92 -0.390077 0.552101 0
M  V30 42437 H 4022.47 -0.595404 1.96581 0
M  V30 42438 H 4020.7 -3.13214 2.2679 0
M  V30 42439 H 4022.39 -3.04971 2.67858 0
M  V30 42440 H 4023.16 -1.49383 4.61421 0
M  V30 42441 H 4019.04 -2.48031 3.88589 0
M  V30 42442 H 4022.58 -0.842708 6.92491 0
M  V30 42443 H 4018.48 -1.83405 6.18897 0
M  V30 42444 H 4019.25 -1.06184 8.11583 0
M  V30 42445 N 4021.91 -1.38978 -0.743153 0
M  V30 42446 C 4023.16 -1.35958 -1.50476 0
M  V30 42447 C 4023.49 0.0470774 -1.94143 0
M  V30 42448 O 4022.76 1.01039 -1.66197 0
M  V30 42449 C 4023.05 -2.32466 -2.75012 0
M  V30 42450 C 4022.9 -3.82038 -2.37417 0
M  V30 42451 C 4024.22 -2.26934 -3.7708 0
M  V30 42452 H 4021.34 -0.495182 -0.545861 0
M  V30 42453 H 4023.98 -1.69908 -0.850373 0
M  V30 42454 H 4022.13 -2.03645 -3.30849 0
M  V30 42455 H 4023.8 -4.21576 -1.87274 0
M  V30 42456 H 4022.05 -3.99211 -1.69745 0
M  V30 42457 H 4022.72 -4.4504 -3.26563 0
M  V30 42458 H 4025.19 -2.52399 -3.30808 0
M  V30 42459 H 4024.07 -2.96553 -4.61895 0
M  V30 42460 H 4024.33 -1.27163 -4.23417 0
M  V30 42461 N 4023.39 0.972465 -1.2402 0
M  V30 42462 C 4024.62 1.74987 -1.10395 0
M  V30 42463 C 4025.03 1.85641 0.343927 0
M  V30 42464 O 4024.39 1.3413 1.23755 0
M  V30 42465 C 4024.44 3.17279 -1.73253 0
M  V30 42466 O 4024.16 3.07166 -3.12379 0
M  V30 42467 C 4025.66 4.11378 -1.65175 0
M  V30 42468 H 4022.88 0.548901 -0.385939 0
M  V30 42469 H 4025.43 1.22124 -1.64031 0
M  V30 42470 H 4023.58 3.67143 -1.23631 0
M  V30 42471 H 4023.99 3.96798 -3.43004 0
M  V30 42472 H 4025.47 5.08895 -2.13846 0
M  V30 42473 H 4025.95 4.34914 -0.612057 0
M  V30 42474 H 4026.55 3.67421 -2.142 0
M  V30 42475 N 4024.87 1.05318 1.17243 0
M  V30 42476 C 4025.8 0.676349 2.2349 0
M  V30 42477 C 4026.78 -0.326478 1.66938 0
M  V30 42478 O 4027.96 -0.203789 1.93128 0
M  V30 42479 C 4025.09 0.0516366 3.47262 0
M  V30 42480 C 4024.05 0.979363 4.16644 0
M  V30 42481 C 4023.37 0.218463 5.34254 0
M  V30 42482 C 4024.67 2.30407 4.68732 0
M  V30 42483 H 4026.37 1.56459 2.55266 0
M  V30 42484 H 4023.91 0.753736 1.22698 0
M  V30 42485 H 4025.87 -0.223791 4.20805 0
M  V30 42486 H 4024.59 -0.871559 3.14756 0
M  V30 42487 H 4023.25 1.23938 3.45015 0
M  V30 42488 H 4022.9 -0.707537 4.97999 0
M  V30 42489 H 4022.6 0.836643 5.81613 0
M  V30 42490 H 4024.12 -0.0496501 6.1058 0
M  V30 42491 H 4025.53 2.08847 5.33906 0
M  V30 42492 H 4023.93 2.87634 5.26675 0
M  V30 42493 H 4025 2.94176 3.85472 0
M  V30 42494 N 4026.34 -1.33701 0.834377 0
M  V30 42495 C 4027.57 -2.0214 0.441264 0
M  V30 42496 C 4027.99 -1.62795 -0.956198 0
M  V30 42497 O 4027.34 -0.839056 -1.62068 0
M  V30 42498 C 4027.4 -3.57336 0.547098 0
M  V30 42499 O 4027.12 -3.95259 1.88949 0
M  V30 42500 C 4028.62 -4.43045 0.15036 0
M  V30 42501 H 4025.84 -0.64759 0.175692 0
M  V30 42502 H 4028.38 -1.70728 1.12571 0
M  V30 42503 H 4026.54 -3.87297 -0.0893851 0
M  V30 42504 H 4026.95 -4.89962 1.87183 0
M  V30 42505 H 4028.42 -5.51312 0.275471 0
M  V30 42506 H 4028.9 -4.29727 -0.907286 0
M  V30 42507 H 4029.51 -4.18434 0.761098 0
M  V30 42508 N 4027.82 -0.590393 -1.46124 0
M  V30 42509 C 4028.73 0.14072 -2.34178 0
M  V30 42510 C 4029.75 0.878155 -1.50215 0
M  V30 42511 O 4030.92 0.839612 -1.83064 0
M  V30 42512 C 4027.99 1.13663 -3.27539 0
M  V30 42513 C 4027.05 0.403028 -4.27404 0
M  V30 42514 C 4026.28 1.35149 -5.16304 0
M  V30 42515 O 4026.51 2.58844 -5.08287 0
M  V30 42516 O 4025.44 0.857898 -5.95755 0
M  V30 42517 H 4029.27 -0.582453 -2.98062 0
M  V30 42518 H 4026.85 -0.350745 -1.45224 0
M  V30 42519 H 4028.73 1.71068 -3.85115 0
M  V30 42520 H 4027.41 1.84113 -2.6624 0
M  V30 42521 H 4026.32 -0.213051 -3.73493 0
M  V30 42522 H 4027.65 -0.260652 -4.91509 0
M  V30 42523 N 4029.3 1.54136 -0.328591 0
M  V30 42524 C 4030.23 2.27459 0.527694 0
M  V30 42525 C 4031.21 1.28446 1.11516 0
M  V30 42526 O 4032.4 1.57266 1.13935 0
M  V30 42527 C 4029.53 3.03618 1.68622 0
M  V30 42528 C 4028.48 4.1001 1.22782 0
M  V30 42529 C 4027.81 4.74038 2.4737 0
M  V30 42530 C 4029.11 5.21198 0.33906 0
M  V30 42531 H 4030.8 2.99282 -0.0839334 0
M  V30 42532 H 4028.35 1.43939 -0.0418082 0
M  V30 42533 H 4030.3 3.53644 2.29159 0
M  V30 42534 H 4029.02 2.2942 2.32452 0
M  V30 42535 H 4027.68 3.60875 0.645364 0
M  V30 42536 H 4027.33 3.96451 3.09574 0
M  V30 42537 H 4027.03 5.45909 2.17387 0
M  V30 42538 H 4028.55 5.26842 3.08659 0
M  V30 42539 H 4029.97 5.66951 0.850847 0
M  V30 42540 H 4028.37 5.99955 0.131786 0
M  V30 42541 H 4029.44 4.80806 -0.628776 0
M  V30 42542 N 4030.78 0.0568716 1.57497 0
M  V30 42543 C 4032.19 -0.299704 1.56761 0
M  V30 42544 C 4032.39 -1.71054 1.06503 0
M  V30 42545 O 4031.45 -2.41892 0.724183 0
M  V30 42546 C 4032.76 -0.12297 3.00448 0
M  V30 42547 C 4034.31 -0.193642 3.124 0
M  V30 42548 C 4034.79 -0.0453694 4.57978 0
M  V30 42549 N 4036.28 -0.101461 4.63089 0
M  V30 42550 C 4037.01 -0.0109298 5.73399 0
M  V30 42551 N 4036.51 0.132274 6.92674 0
M  V30 42552 N 4038.3 -0.0669228 5.6206 0
M  V30 42553 H 4030.45 0.979111 1.88487 0
M  V30 42554 H 4032.72 0.38057 0.868257 0
M  V30 42555 H 4032.42 0.849979 3.41274 0
M  V30 42556 H 4032.3 -0.881607 3.66753 0
M  V30 42557 H 4034.68 -1.15707 2.7147 0
M  V30 42558 H 4034.76 0.595846 2.48764 0
M  V30 42559 H 4034.41 0.914757 4.99594 0
M  V30 42560 H 4034.34 -0.854074 5.19628 0
M  V30 42561 H 4036.83 -0.211159 3.7731 0
M  V30 42562 H 4037.14 0.193905 7.72557 0
M  V30 42563 H 4035.49 0.167436 6.94798 0
M  V30 42564 H 4038.68 -0.177396 4.67764 0
M  V30 42565 H 4038.85 0.00708822 6.48 0
M  V30 42566 N 4032.26 -1.56105 -0.216564 0
M  V30 42567 C 4033.67 -1.49208 -0.566484 0
M  V30 42568 C 4033.87 -0.752915 -1.86905 0
M  V30 42569 O 4032.93 -0.294617 -2.50775 0
M  V30 42570 C 4034.24 -2.93786 -0.641094 0
M  V30 42571 C 4035.79 -3.04335 -0.731385 0
M  V30 42572 C 4036.26 -4.50281 -0.837297 0
M  V30 42573 N 4037.76 -4.54345 -0.901388 0
M  V30 42574 C 4038.49 -5.64557 -1.00313 0
M  V30 42575 N 4037.99 -6.8451 -1.06852 0
M  V30 42576 N 4039.78 -5.5242 -1.03866 0
M  V30 42577 H 4031.93 -2.02588 0.638127 0
M  V30 42578 H 4034.19 -0.92102 0.224559 0
M  V30 42579 H 4033.9 -3.50835 0.246516 0
M  V30 42580 H 4033.77 -3.45961 -1.50303 0
M  V30 42581 H 4036.16 -2.47348 -1.60943 0
M  V30 42582 H 4036.24 -2.55322 0.156325 0
M  V30 42583 H 4035.89 -5.07887 0.0363155 0
M  V30 42584 H 4035.82 -4.97005 -1.7405 0
M  V30 42585 H 4038.31 -3.67961 -0.860974 0
M  V30 42586 H 4038.62 -7.64255 -1.14607 0
M  V30 42587 H 4036.96 -6.87211 -1.03756 0
M  V30 42588 H 4040.16 -4.57635 -0.984268 0
M  V30 42589 H 4040.33 -6.38344 -1.1145 0
M  V30 42590 N 4033.73 0.483463 -1.50001 0
M  V30 42591 C 4034.98 1.23826 -1.60608 0
M  V30 42592 C 4035.31 1.91872 -0.299812 0
M  V30 42593 O 4034.59 1.81548 0.697894 0
M  V30 42594 C 4034.87 2.2916 -2.77773 0
M  V30 42595 C 4034.72 1.655 -4.18246 0
M  V30 42596 C 4036.04 3.30579 -2.90527 0
M  V30 42597 H 4033.16 0.44883 -0.584569 0
M  V30 42598 H 4035.8 0.533823 -1.82347 0
M  V30 42599 H 4033.95 2.8924 -2.59369 0
M  V30 42600 H 4035.63 1.09112 -4.4821 0
M  V30 42601 H 4033.87 0.958502 -4.23078 0
M  V30 42602 H 4034.54 2.41985 -4.96132 0
M  V30 42603 H 4037.02 2.80508 -3.07335 0
M  V30 42604 H 4035.89 4.01623 -3.74153 0
M  V30 42605 H 4036.15 3.93961 -2.00616 0
M  V30 42606 N 4035.21 1.39371 0.735772 0
M  V30 42607 C 4036.16 1.3452 1.84088 0
M  V30 42608 C 4037.15 0.226212 1.59302 0
M  V30 42609 O 4038.34 0.46368 1.70819 0
M  V30 42610 C 4035.47 1.19025 3.22006 0
M  V30 42611 C 4034.55 2.35621 3.52624 0
M  V30 42612 N 4034.94 3.61093 3.54183 0
M  V30 42613 C 4033.24 2.28562 3.82982 0
M  V30 42614 C 4033.94 4.38192 3.82573 0
M  V30 42615 N 4032.92 3.67769 4.00308 0
M  V30 42616 H 4036.72 2.29498 1.83597 0
M  V30 42617 H 4034.24 1.32856 0.933977 0
M  V30 42618 H 4036.23 1.13633 4.01115 0
M  V30 42619 H 4034.89 0.249964 3.23736 0
M  V30 42620 H 4035.9 3.94527 3.35513 0
M  V30 42621 H 4032.58 1.42791 3.92323 0
M  V30 42622 H 4033.97 5.46948 3.90254 0
M  V30 42623 N 4036.69 -0.965875 1.24534 0
M  V30 42624 C 4038.1 -1.52371 1.07888 0
M  V30 42625 C 4038.45 -1.93069 -0.349103 0
M  V30 42626 O 4037.58 -1.7751 -1.23771 0
M  V30 42627 C 4038.17 -2.76896 1.95229 0
M  V30 42628 C 4036.73 -3.2903 1.82802 0
M  V30 42629 C 4035.88 -2.01928 1.90054 0
M  V30 42630 H 4038.83 -0.783973 1.37984 0
M  V30 42631 H 4038.85 -3.50298 1.48565 0
M  V30 42632 H 4038.36 -2.47244 2.99152 0
M  V30 42633 H 4036.46 -3.63528 0.817179 0
M  V30 42634 H 4036.58 -3.97806 2.66996 0
M  V30 42635 H 4034.94 -2.16722 1.33804 0
M  V30 42636 H 4035.72 -1.74639 2.95561 0
M  V30 42637 N 4038.17 -1.05938 -1.16683 0
M  V30 42638 C 4039.39 -0.794591 -1.91575 0
M  V30 42639 C 4039.82 0.644687 -1.76707 0
M  V30 42640 O 4039.18 1.4488 -1.08993 0
M  V30 42641 C 4039.23 -1.18953 -3.40415 0
M  V30 42642 O 4038.33 -0.326164 -4.11108 0
M  V30 42643 H 4037.67 -0.290712 -0.596978 0
M  V30 42644 H 4040.2 -1.41423 -1.47854 0
M  V30 42645 H 4040.21 -1.15954 -3.91176 0
M  V30 42646 H 4038.89 -2.23792 -3.50556 0
M  V30 42647 H 4037.46 -0.417412 -3.70556 0
M  V30 42648 N 4039.65 1.33256 -0.841456 0
M  V30 42649 C 4040.56 2.32935 -0.279047 0
M  V30 42650 C 4041.57 1.63464 0.596269 0
M  V30 42651 O 4042.75 1.951 0.499778 0
M  V30 42652 C 4039.81 3.42556 0.534454 0
M  V30 42653 C 4038.88 4.27742 -0.365442 0
M  V30 42654 C 4038.11 5.32128 0.409329 0
M  V30 42655 O 4038.33 5.46292 1.64075 0
M  V30 42656 O 4037.27 6.01505 -0.21801 0
M  V30 42657 H 4041.09 2.82902 -1.10453 0
M  V30 42658 H 4038.68 1.36644 -0.604044 0
M  V30 42659 H 4040.56 4.09445 0.996651 0
M  V30 42660 H 4039.23 2.948 1.33696 0
M  V30 42661 H 4038.14 3.6371 -0.875533 0
M  V30 42662 H 4039.47 4.78987 -1.13278 0
M  V30 42663 N 4041.13 0.598134 1.45809 0
M  V30 42664 C 4042.4 0.022072 1.95588 0
M  V30 42665 C 4042.78 -1.44313 1.54068 0
M  V30 42666 O 4042.13 -2.14086 0.7987 0
M  V30 42667 C 4042.34 0.210265 3.48366 0
M  V30 42668 C 4043.69 0.086122 4.24513 0
M  V30 42669 O 4044.71 0.139895 3.55925 0
M  V30 42670 O 4043.57 -0.0367001 5.46488 0
M  V30 42671 H 4040.67 -0.0410978 0.825978 0
M  V30 42672 H 4043.21 0.667534 1.56019 0
M  V30 42673 H 4041.98 1.22824 3.71524 0
M  V30 42674 H 4041.61 -0.470905 3.94802 0
M  V30 42675 N 4042.6 -1.5396 0.33676 0
M  V30 42676 C 4043.51 -2.28494 -0.531772 0
M  V30 42677 C 4044.53 -1.33345 -1.11782 0
M  V30 42678 O 4045.71 -1.66375 -1.13496 0
M  V30 42679 C 4042.77 -3.03815 -1.67025 0
M  V30 42680 C 4041.83 -4.14576 -1.11468 0
M  V30 42681 C 4041.06 -4.86296 -2.1989 0
M  V30 42682 O 4041.29 -4.57631 -3.40484 0
M  V30 42683 O 4040.22 -5.72904 -1.84566 0
M  V30 42684 H 4044.05 -3.0361 0.0739157 0
M  V30 42685 H 4041.63 -1.49051 0.102022 0
M  V30 42686 H 4043.51 -3.5094 -2.33279 0
M  V30 42687 H 4042.19 -2.31562 -2.26188 0
M  V30 42688 H 4041.1 -3.7177 -0.41685 0
M  V30 42689 H 4042.43 -4.88912 -0.568006 0
M  V30 42690 N 4044.08 -0.0652232 -1.57465 0
M  V30 42691 C 4045.33 0.604927 -1.92415 0
M  V30 42692 C 4045.64 1.71166 -0.946659 0
M  V30 42693 O 4046.85 2.44093 -1.18873 0
M  V30 42694 C 4045.31 1.12735 -3.41788 0
M  V30 42695 C 4044.91 0.0519797 -4.4797 0
M  V30 42696 C 4046.66 1.77194 -3.85749 0
M  V30 42697 C 4044.56 0.588078 -5.88469 0
M  V30 42698 H 4043.49 0.229729 -0.718151 0
M  V30 42699 H 4046.15 -0.136393 -1.82992 0
M  V30 42700 H 4044.53 1.92143 -3.46262 0
M  V30 42701 H 4045.7 -0.722295 -4.55104 0
M  V30 42702 H 4044.02 -0.495989 -4.13435 0
M  V30 42703 H 4046.61 2.18324 -4.88097 0
M  V30 42704 H 4046.96 2.62931 -3.22758 0
M  V30 42705 H 4047.49 1.04419 -3.83851 0
M  V30 42706 H 4044.23 -0.23198 -6.55089 0
M  V30 42707 H 4043.75 1.33002 -5.84868 0
M  V30 42708 H 4045.43 1.06656 -6.38148 0
M  V30 42709 N 4045.56 1.56218 0.208282 0
M  V30 42710 C 4046.49 1.96515 1.26112 0
M  V30 42711 C 4047.47 0.83521 1.48183 0
M  V30 42712 O 4048.66 1.09854 1.60143 0
M  V30 42713 C 4045.79 2.2933 2.60816 0
M  V30 42714 C 4044.74 3.44939 2.53379 0
M  V30 42715 C 4044.07 3.63395 3.92235 0
M  V30 42716 C 4045.37 4.79522 2.07018 0
M  V30 42717 H 4047.06 2.8471 0.9263 0
M  V30 42718 H 4044.61 1.36979 0.444145 0
M  V30 42719 H 4046.56 2.56114 3.34639 0
M  V30 42720 H 4045.28 1.38003 2.96012 0
M  V30 42721 H 4043.94 3.18225 1.82012 0
M  V30 42722 H 4043.59 2.6942 4.24761 0
M  V30 42723 H 4043.29 4.41161 3.88137 0
M  V30 42724 H 4044.81 3.92541 4.677 0
M  V30 42725 H 4046.23 5.05424 2.70592 0
M  V30 42726 H 4044.62 5.60665 2.13951 0
M  V30 42727 H 4045.69 4.73988 1.0229 0
M  V30 42728 N 4047.04 -0.475502 1.50256 0
M  V30 42729 C 4048 -1.55642 1.6825 0
M  V30 42730 C 4049 -1.50979 0.553352 0
M  V30 42731 O 4050.19 -1.53677 0.820301 0
M  V30 42732 C 4047.32 -2.95278 1.70364 0
M  V30 42733 H 4048.52 -1.41006 2.64684 0
M  V30 42734 H 4046.07 -0.70157 1.3967 0
M  V30 42735 H 4046.8 -3.15363 0.756075 0
M  V30 42736 H 4046.59 -3.0007 2.5239 0
M  V30 42737 H 4048.08 -3.73763 1.86255 0
M  V30 42738 N 4048.52 -1.39759 -0.72837 0
M  V30 42739 C 4049.45 -1.34914 -1.85286 0
M  V30 42740 C 4050.46 -0.256738 -1.60763 0
M  V30 42741 O 4051.65 -0.516173 -1.70874 0
M  V30 42742 C 4048.75 -1.07366 -3.21443 0
M  V30 42743 C 4047.92 -2.28012 -3.73268 0
M  V30 42744 C 4046.98 -1.9682 -4.88004 0
M  V30 42745 O 4046.01 -2.69567 -5.0132 0
M  V30 42746 N 4047.21 -0.938378 -5.72865 0
M  V30 42747 H 4049.97 -2.31821 -1.89945 0
M  V30 42748 H 4047.54 -1.33947 -0.909385 0
M  V30 42749 H 4049.53 -0.845072 -3.95779 0
M  V30 42750 H 4048.1 -0.191699 -3.12012 0
M  V30 42751 H 4047.32 -2.66782 -2.90209 0
M  V30 42752 H 4048.61 -3.0847 -4.04628 0
M  V30 42753 H 4048 -0.335616 -5.64704 0
M  V30 42754 H 4046.56 -0.769686 -6.4724 0
M  V30 42755 N 4049.99 0.959257 -1.25044 0
M  V30 42756 C 4051.22 1.73555 -1.12082 0
M  V30 42757 C 4051.63 1.86324 0.328632 0
M  V30 42758 O 4050.97 1.35709 1.2381 0
M  V30 42759 C 4051.04 3.16958 -1.6964 0
M  V30 42760 C 4050.7 3.27633 -3.18599 0
M  V30 42761 C 4051.7 3.12304 -4.15646 0
M  V30 42762 C 4049.38 3.51603 -3.58721 0
M  V30 42763 C 4051.38 3.20784 -5.50796 0
M  V30 42764 C 4049.06 3.59719 -4.9401 0
M  V30 42765 C 4050.06 3.44323 -5.89857 0
M  V30 42766 O 4049.75 3.52112 -7.22684 0
M  V30 42767 H 4049.48 0.550802 -0.391909 0
M  V30 42768 H 4052.04 1.21239 -1.65802 0
M  V30 42769 H 4050.27 3.70617 -1.10362 0
M  V30 42770 H 4051.95 3.76428 -1.51844 0
M  V30 42771 H 4052.72 2.93661 -3.8599 0
M  V30 42772 H 4048.6 3.62649 -2.84616 0
M  V30 42773 H 4052.14 3.08684 -6.25588 0
M  V30 42774 H 4048.04 3.77878 -5.23334 0
M  V30 42775 H 4048.81 3.68772 -7.30718 0
M  V30 42776 N 4051.47 1.06556 1.16119 0
M  V30 42777 C 4052.4 0.700015 2.2276 0
M  V30 42778 C 4053.38 -0.308754 1.67274 0
M  V30 42779 O 4054.57 -0.183294 1.93333 0
M  V30 42780 C 4051.7 0.0884654 3.47187 0
M  V30 42781 C 4050.65 1.0235 4.15582 0
M  V30 42782 C 4049.98 0.275116 5.33992 0
M  V30 42783 C 4051.28 2.35366 4.66262 0
M  V30 42784 H 4052.97 1.59158 2.53593 0
M  V30 42785 H 4050.52 0.766707 1.21892 0
M  V30 42786 H 4052.47 -0.179146 4.21019 0
M  V30 42787 H 4051.2 -0.838125 3.15663 0
M  V30 42788 H 4049.85 1.2759 3.43681 0
M  V30 42789 H 4049.5 -0.654678 4.98721 0
M  V30 42790 H 4049.2 0.898283 5.80693 0
M  V30 42791 H 4050.73 0.0151129 6.10598 0
M  V30 42792 H 4052.14 2.14498 5.31661 0
M  V30 42793 H 4050.54 2.93204 5.23595 0
M  V30 42794 H 4051.61 2.98248 3.8233 0
M  V30 42795 N 4052.95 -1.32808 0.848511 0
M  V30 42796 C 4054.2 -1.97754 0.449556 0
M  V30 42797 C 4054.53 -1.67018 -0.990894 0
M  V30 42798 O 4053.8 -0.955148 -1.69432 0
M  V30 42799 C 4054.09 -3.53584 0.68196 0
M  V30 42800 C 4053.94 -3.93973 2.17038 0
M  V30 42801 C 4055.26 -4.39895 0.134348 0
M  V30 42802 H 4052.38 -0.718336 0.164811 0
M  V30 42803 H 4055.02 -1.57292 1.0658 0
M  V30 42804 H 4053.17 -3.88181 0.157421 0
M  V30 42805 H 4054.84 -3.69584 2.76053 0
M  V30 42806 H 4053.09 -3.43354 2.65123 0
M  V30 42807 H 4053.76 -5.02544 2.28371 0
M  V30 42808 H 4056.23 -4.11998 0.582828 0
M  V30 42809 H 4055.11 -5.47928 0.326575 0
M  V30 42810 H 4055.37 -4.31495 -0.9625 0
M  V30 42811 N 4054.43 -0.605858 -1.45489 0
M  V30 42812 C 4055.84 -0.185623 -1.85775 0
M  V30 42813 C 4056.19 1.25706 -1.5064 0
M  V30 42814 O 4055.32 1.95289 -0.932261 0
M  V30 42815 C 4055.91 -0.330103 -3.37188 0
M  V30 42816 C 4054.47 0.0354272 -3.76383 0
M  V30 42817 C 4053.62 -0.655345 -2.69445 0
M  V30 42818 H 4056.57 -0.812648 -1.36315 0
M  V30 42819 H 4056.59 0.438169 -3.77969 0
M  V30 42820 H 4056.1 -1.3802 -3.62729 0
M  V30 42821 H 4054.2 1.08477 -3.5646 0
M  V30 42822 H 4054.31 -0.357019 -4.77768 0
M  V30 42823 H 4052.68 -0.0931682 -2.5453 0
M  V30 42824 H 4053.46 -1.70754 -2.97822 0
M  V30 42825 N 4055.91 1.53779 -0.34492 0
M  V30 42826 C 4056.87 2.23708 0.498742 0
M  V30 42827 C 4057.87 1.23775 1.02647 0
M  V30 42828 O 4059.06 1.48203 0.9155 0
M  V30 42829 C 4056.19 2.95779 1.69492 0
M  V30 42830 H 4057.38 2.99688 -0.112868 0
M  V30 42831 H 4054.94 1.56003 -0.0962887 0
M  V30 42832 H 4055.67 2.2399 2.34518 0
M  V30 42833 H 4055.46 3.69081 1.32369 0
M  V30 42834 H 4056.95 3.48996 2.29328 0
M  V30 42835 N 4057.38 0.0735731 1.57428 0
M  V30 42836 C 4058.61 -0.604113 1.97884 0
M  V30 42837 C 4059.03 -1.63041 0.951997 0
M  V30 42838 O 4058.38 -1.82398 -0.061132 0
M  V30 42839 C 4058.44 -1.2711 3.38416 0
M  V30 42840 O 4058.16 -0.285874 4.37166 0
M  V30 42841 C 4059.66 -2.03644 3.93756 0
M  V30 42842 H 4056.88 -0.163601 0.65075 0
M  V30 42843 H 4059.42 0.146502 2.03975 0
M  V30 42844 H 4057.58 -1.97279 3.33406 0
M  V30 42845 H 4057.99 -0.764607 5.18897 0
M  V30 42846 H 4059.46 -2.45702 4.94302 0
M  V30 42847 H 4059.94 -2.8937 3.30396 0
M  V30 42848 H 4060.55 -1.38338 4.02172 0
M  V30 42849 N 4058.86 -1.56326 -0.199995 0
M  V30 42850 C 4060.1 -1.82121 -0.927965 0
M  V30 42851 C 4060.47 -0.650337 -1.80651 0
M  V30 42852 O 4061.67 -0.788072 -2.56988 0
M  V30 42853 C 4059.94 -3.12918 -1.72676 0
M  V30 42854 S 4061.5 -3.60103 -2.50742 0
M  V30 42855 H 4058.32 -0.639212 -0.311335 0
M  V30 42856 H 4060.92 -1.94557 -0.191757 0
M  V30 42857 H 4059.62 -3.96155 -1.07188 0
M  V30 42858 H 4059.15 -3.03347 -2.50488 0
M  V30 42859 H 4061.17 -3.2515 -3.74823 0
M  V30 42860 N 4060.34 0.467527 -1.50506 0
M  V30 42861 C 4061.29 1.56508 -1.69629 0
M  V30 42862 C 4062.26 1.57159 -0.537622 0
M  V30 42863 O 4063.44 1.74634 -0.768604 0
M  V30 42864 C 4060.58 2.94457 -1.7997 0
M  V30 42865 C 4059.7 3.03567 -3.07362 0
M  V30 42866 C 4058.83 4.32453 -3.08477 0
M  V30 42867 C 4057.87 4.35318 -4.30307 0
M  V30 42868 N 4057.01 5.55681 -4.29142 0
M  V30 42869 H 4061.85 1.39506 -2.63329 0
M  V30 42870 H 4059.38 0.678216 -1.30532 0
M  V30 42871 H 4061.34 3.74459 -1.83947 0
M  V30 42872 H 4059.97 3.10085 -0.897068 0
M  V30 42873 H 4059.02 2.16416 -3.12839 0
M  V30 42874 H 4060.34 3.01544 -3.97332 0
M  V30 42875 H 4059.49 5.20805 -3.11202 0
M  V30 42876 H 4058.23 4.37089 -2.16343 0
M  V30 42877 H 4057.23 3.45363 -4.2779 0
M  V30 42878 H 4058.46 4.3237 -5.23672 0
M  V30 42879 H 4056.4 5.61096 -3.39863 0
M  V30 42880 H 4056.32 5.55414 -5.12885 0
M  V30 42881 H 4057.59 6.46149 -4.36018 0
M  V30 42882 N 4061.82 1.40143 0.720948 0
M  V30 42883 C 4062.78 1.3974 1.81674 0
M  V30 42884 C 4063.78 0.292096 1.58125 0
M  V30 42885 O 4064.97 0.550729 1.65265 0
M  V30 42886 C 4062.1 1.18387 3.19683 0
M  V30 42887 H 4063.3 2.37262 1.83431 0
M  V30 42888 H 4060.85 1.25913 0.926042 0
M  V30 42889 H 4061.58 0.216037 3.2358 0
M  V30 42890 H 4061.37 1.98445 3.38175 0
M  V30 42891 H 4062.86 1.2088 3.99722 0
M  V30 42892 N 4063.3 -0.952612 1.25551 0
M  V30 42893 C 4064.26 -2.03117 1.0619 0
M  V30 42894 C 4065.26 -1.60794 0.0140248 0
M  V30 42895 O 4066.45 -1.72303 0.256397 0
M  V30 42896 C 4063.58 -3.35348 0.612733 0
M  V30 42897 H 4064.77 -2.21725 2.01936 0
M  V30 42898 H 4062.33 -1.12998 1.07986 0
M  V30 42899 H 4063.06 -3.22436 -0.347236 0
M  V30 42900 H 4062.85 -3.67416 1.36923 0
M  V30 42901 H 4064.34 -4.14611 0.498766 0
M  V30 42902 N 4064.77 -1.0717 -1.15553 0
M  V30 42903 C 4065.74 -0.694343 -2.1843 0
M  V30 42904 C 4066.74 0.264469 -1.5861 0
M  V30 42905 O 4067.93 0.0456729 -1.7414 0
M  V30 42906 C 4065.06 -0.0231072 -3.40892 0
M  V30 42907 H 4066.25 -1.60515 -2.53328 0
M  V30 42908 H 4063.81 -0.868005 -1.29982 0
M  V30 42909 H 4064.54 0.900028 -3.11561 0
M  V30 42910 H 4064.33 -0.71269 -3.85569 0
M  V30 42911 H 4065.82 0.226319 -4.16986 0
M  V30 42912 N 4066.25 1.32356 -0.855542 0
M  V30 42913 C 4067.5 1.97513 -0.460037 0
M  V30 42914 C 4067.83 1.67541 0.982023 0
M  V30 42915 O 4067.11 0.96412 1.68923 0
M  V30 42916 C 4067.39 3.53217 -0.700702 0
M  V30 42917 C 4067.24 3.92816 -2.19125 0
M  V30 42918 C 4068.56 4.39817 -0.157675 0
M  V30 42919 H 4065.68 0.717452 -0.168618 0
M  V30 42920 H 4068.32 1.56724 -1.07413 0
M  V30 42921 H 4066.47 3.88092 -0.178005 0
M  V30 42922 H 4068.15 3.68115 -2.78009 0
M  V30 42923 H 4066.39 3.41943 -2.6694 0
M  V30 42924 H 4067.06 5.01326 -2.31033 0
M  V30 42925 H 4069.54 4.11683 -0.604669 0
M  V30 42926 H 4068.41 5.47747 -0.355628 0
M  V30 42927 H 4068.67 4.32 0.939603 0
M  V30 42928 N 4067.73 0.613565 1.45166 0
M  V30 42929 C 4068.66 -0.088963 2.3333 0
M  V30 42930 C 4069.64 -0.852724 1.47182 0
M  V30 42931 O 4070.83 -0.822091 1.75941 0
M  V30 42932 C 4067.96 -1.08295 3.29984 0
M  V30 42933 C 4066.91 -0.43201 4.25814 0
M  V30 42934 C 4066.24 -1.53467 5.12203 0
M  V30 42935 C 4067.54 0.650611 5.18232 0
M  V30 42936 H 4069.23 0.647216 2.92321 0
M  V30 42937 H 4066.78 0.312692 1.40564 0
M  V30 42938 H 4068.73 -1.58303 3.90536 0
M  V30 42939 H 4067.45 -1.8498 2.69165 0
M  V30 42940 H 4066.11 0.0472571 3.6657 0
M  V30 42941 H 4065.76 -2.29195 4.47748 0
M  V30 42942 H 4065.46 -1.10459 5.77124 0
M  V30 42943 H 4066.99 -2.0369 5.75624 0
M  V30 42944 H 4068.4 0.234363 5.72821 0
M  V30 42945 H 4066.8 1.00279 5.91662 0
M  V30 42946 H 4067.87 1.52483 4.60301 0
M  V30 42947 N 4069.21 -1.53594 0.353071 0
M  V30 42948 C 4070.46 -2.00669 -0.240037 0
M  V30 42949 C 4070.78 -1.24237 -1.50301 0
M  V30 42950 O 4070.05 -0.352152 -1.92709 0
M  V30 42951 H 4068.63 -0.741352 -0.0916885 0
M  V30 42952 H 4071.29 -1.88987 0.476423 0
M  V30 42953 H 4070.39 -3.08452 -0.475815 0
M  V30 42954 N 4070.69 -0.0819208 -1.57387 0
M  V30 42955 C 4071.62 0.917983 -2.08922 0
M  V30 42956 C 4072.6 1.28473 -0.996671 0
M  V30 42957 O 4073.78 1.39227 -1.27075 0
M  V30 42958 C 4070.91 2.22312 -2.55529 0
M  V30 42959 C 4069.96 2.00721 -3.76316 0
M  V30 42960 S 4070.79 1.25727 -5.20531 0
M  V30 42961 C 4071.94 2.57499 -5.70478 0
M  V30 42962 H 4072.18 0.479511 -2.93408 0
M  V30 42963 H 4069.71 0.131076 -1.53843 0
M  V30 42964 H 4071.67 2.97319 -2.8304 0
M  V30 42965 H 4070.33 2.63282 -1.71293 0
M  V30 42966 H 4069.52 2.97335 -4.0695 0
M  V30 42967 H 4069.12 1.33847 -3.49229 0
M  V30 42968 H 4071.42 3.53541 -5.7794 0
M  V30 42969 H 4072.36 2.31461 -6.69202 0
M  V30 42970 H 4072.77 2.65168 -4.98343 0
M  V30 42971 N 4072.17 1.5643 0.191702 0
M  V30 42972 C 4073.44 1.71661 0.937653 0
M  V30 42973 C 4073.82 0.637656 2.01239 0
M  V30 42974 O 4073.17 -0.350825 2.25791 0
M  V30 42975 C 4073.38 3.14113 1.52098 0
M  V30 42976 C 4074.73 3.74451 2.0018 0
M  V30 42977 O 4075.75 3.17263 1.61934 0
M  V30 42978 O 4074.61 4.74822 2.70567 0
M  V30 42979 H 4071.71 0.700267 0.439949 0
M  V30 42980 H 4074.25 1.68731 0.181131 0
M  V30 42981 H 4073.02 3.84114 0.746458 0
M  V30 42982 H 4072.65 3.21286 2.34225 0
M  V30 42983 N 4073.64 -0.459538 1.50751 0
M  V30 42984 C 4074.59 -1.55606 1.70457 0
M  V30 42985 C 4075.56 -1.56871 0.545949 0
M  V30 42986 O 4076.75 -1.74224 0.777855 0
M  V30 42987 C 4073.89 -2.93498 1.81529 0
M  V30 42988 C 4073 -3.01933 3.08967 0
M  V30 42989 C 4072.13 -4.30811 3.10766 0
M  V30 42990 C 4071.17 -4.3303 4.3261 0
M  V30 42991 N 4070.31 -5.53397 4.32083 0
M  V30 42992 H 4075.15 -1.38108 2.64065 0
M  V30 42993 H 4072.69 -0.671284 1.3089 0
M  V30 42994 H 4074.64 -3.73478 1.8593 0
M  V30 42995 H 4073.27 -3.09605 0.9135 0
M  V30 42996 H 4072.33 -2.14753 3.13983 0
M  V30 42997 H 4073.64 -2.99433 3.98925 0
M  V30 42998 H 4072.79 -5.19147 3.1396 0
M  V30 42999 H 4071.53 -4.35936 2.18658 0
M  V30 43000 H 4070.54 -3.43089 4.29616 0
M  V30 43001 H 4071.76 -4.29587 5.25958 0
M  V30 43002 H 4069.71 -5.59286 3.42834 0
M  V30 43003 H 4069.62 -5.52686 5.15824 0
M  V30 43004 H 4070.89 -6.43827 4.39439 0
M  V30 43005 N 4075.12 -1.40523 -0.713506 0
M  V30 43006 C 4076.08 -1.40702 -1.8093 0
M  V30 43007 C 4077.08 -0.300477 -1.57968 0
M  V30 43008 O 4078.27 -0.559485 -1.64971 0
M  V30 43009 C 4075.41 -1.2008 -3.19051 0
M  V30 43010 H 4076.6 -2.38231 -1.8217 0
M  V30 43011 H 4074.15 -1.26403 -0.919352 0
M  V30 43012 H 4074.89 -0.233194 -3.23461 0
M  V30 43013 H 4074.67 -2.00235 -3.37117 0
M  V30 43014 H 4076.16 -1.22998 -3.99076 0
M  V30 43015 N 4076.6 0.94594 -1.26054 0
M  V30 43016 C 4077.85 1.69409 -1.11483 0
M  V30 43017 C 4078.18 1.91167 0.341894 0
M  V30 43018 O 4077.45 1.4889 1.25148 0
M  V30 43019 C 4077.74 3.07177 -1.8792 0
M  V30 43020 C 4077.59 2.92775 -3.41471 0
M  V30 43021 C 4078.91 4.07215 -1.66924 0
M  V30 43022 H 4076.03 0.614842 -0.406372 0
M  V30 43023 H 4078.67 1.09897 -1.54993 0
M  V30 43024 H 4076.82 3.57979 -1.5094 0
M  V30 43025 H 4078.49 2.49232 -3.88177 0
M  V30 43026 H 4076.73 2.28504 -3.68739 0
M  V30 43027 H 4077.41 3.90468 -3.90177 0
M  V30 43028 H 4079.88 3.65356 -1.99133 0
M  V30 43029 H 4078.76 5.01636 -2.2283 0
M  V30 43030 H 4079.02 4.37834 -0.612653 0
M  V30 43031 N 4078.08 1.07781 1.14983 0
M  V30 43032 C 4079.04 0.705917 2.18058 0
M  V30 43033 C 4080.04 -0.256054 1.58748 0
M  V30 43034 O 4081.23 -0.0364371 1.74162 0
M  V30 43035 C 4078.36 0.0411853 3.40875 0
M  V30 43036 H 4079.56 1.61856 2.52473 0
M  V30 43037 H 4077.11 0.874886 1.2952 0
M  V30 43038 H 4077.84 -0.883493 3.12033 0
M  V30 43039 H 4077.63 0.733128 3.85185 0
M  V30 43040 H 4079.12 -0.204202 4.171 0
M  V30 43041 N 4079.56 -1.31901 0.862549 0
M  V30 43042 C 4080.47 -2.32461 0.31607 0
M  V30 43043 C 4081.48 -1.64392 -0.570188 0
M  V30 43044 O 4082.66 -1.95871 -0.468676 0
M  V30 43045 C 4079.72 -3.43363 -0.479889 0
M  V30 43046 C 4078.78 -4.27106 0.433445 0
M  V30 43047 C 4078.02 -5.32712 -0.32462 0
M  V30 43048 O 4078.24 -5.48834 -1.55364 0
M  V30 43049 O 4077.17 -6.01082 0.313676 0
M  V30 43050 H 4081 -2.81109 1.1494 0
M  V30 43051 H 4078.58 -1.35666 0.625707 0
M  V30 43052 H 4080.47 -4.10978 -0.931386 0
M  V30 43053 H 4079.14 -2.9689 -1.28989 0
M  V30 43054 H 4078.05 -3.62271 0.933286 0
M  V30 43055 H 4079.38 -4.77125 1.20884 0
M  V30 43056 N 4081.03 -0.621255 -1.44838 0
M  V30 43057 C 4082.45 -0.205317 -1.85568 0
M  V30 43058 C 4082.8 1.24101 -1.51965 0
M  V30 43059 O 4081.92 1.94289 -0.952922 0
M  V30 43060 C 4082.52 -0.365847 -3.36819 0
M  V30 43061 C 4081.08 -0.00449527 -3.764 0
M  V30 43062 C 4080.22 -0.683886 -2.68735 0
M  V30 43063 H 4083.17 -0.82706 -1.35445 0
M  V30 43064 H 4083.19 0.398056 -3.78412 0
M  V30 43065 H 4082.71 -1.41859 -3.61244 0
M  V30 43066 H 4080.81 1.0469 -3.5759 0
M  V30 43067 H 4080.92 -0.407672 -4.77362 0
M  V30 43068 H 4079.28 -0.120159 -2.54416 0
M  V30 43069 H 4080.07 -1.73903 -2.95994 0
M  V30 43070 N 4082.51 1.53405 -0.361211 0
M  V30 43071 C 4083.76 2.01489 0.230187 0
M  V30 43072 C 4084.09 1.24817 1.48776 0
M  V30 43073 O 4083.37 0.340645 1.91494 0
M  V30 43074 C 4083.65 3.5623 0.52655 0
M  V30 43075 C 4083.5 4.43598 -0.744355 0
M  V30 43076 C 4084.82 4.19556 1.32893 0
M  V30 43077 H 4081.94 0.732403 0.082188 0
M  V30 43078 H 4084.58 1.83699 -0.48524 0
M  V30 43079 H 4082.73 3.71519 1.13603 0
M  V30 43080 H 4084.4 4.40113 -1.38195 0
M  V30 43081 H 4082.65 4.11744 -1.36562 0
M  V30 43082 H 4083.32 5.49803 -0.49201 0
M  V30 43083 H 4085.79 4.08072 0.813403 0
M  V30 43084 H 4084.67 5.27863 1.50504 0
M  V30 43085 H 4084.93 3.75333 2.33619 0
M  V30 43086 N 4083.99 0.0902663 1.57341 0
M  V30 43087 C 4085.22 -0.586489 1.98935 0
M  V30 43088 C 4085.64 -1.61228 0.968869 0
M  V30 43089 O 4085 -1.8119 -0.0632549 0
M  V30 43090 C 4085.05 -1.2151 3.39511 0
M  V30 43091 O 4084.15 -2.33094 3.40207 0
M  V30 43092 H 4083.49 -0.149238 0.647012 0
M  V30 43093 H 4086.02 0.170249 2.0389 0
M  V30 43094 H 4086.03 -1.55756 3.771 0
M  V30 43095 H 4084.71 -0.463566 4.13308 0
M  V30 43096 H 4083.28 -2.00504 3.14408 0
M  V30 43097 N 4085.47 -1.56529 -0.183403 0
M  V30 43098 C 4086.88 -1.50376 -0.534707 0
M  V30 43099 C 4087.08 -0.792391 -1.85266 0
M  V30 43100 O 4086.14 -0.347744 -2.50094 0
M  V30 43101 C 4087.45 -2.9508 -0.578634 0
M  V30 43102 C 4089 -3.05818 -0.666667 0
M  V30 43103 C 4089.48 -4.51956 -0.741597 0
M  V30 43104 N 4090.97 -4.56155 -0.804812 0
M  V30 43105 C 4091.7 -5.66558 -0.883157 0
M  V30 43106 N 4091.2 -6.86623 -0.923082 0
M  V30 43107 N 4092.99 -5.54499 -0.921248 0
M  V30 43108 H 4085.14 -2.01188 0.680955 0
M  V30 43109 H 4087.41 -0.916049 0.244045 0
M  V30 43110 H 4087.11 -3.50233 0.320878 0
M  V30 43111 H 4086.99 -3.49071 -1.42931 0
M  V30 43112 H 4089.37 -2.50707 -1.55661 0
M  V30 43113 H 4089.45 -2.54933 0.210447 0
M  V30 43114 H 4089.1 -5.07696 0.144038 0
M  V30 43115 H 4089.03 -5.00585 -1.63468 0
M  V30 43116 H 4091.52 -3.69705 -0.782731 0
M  V30 43117 H 4091.83 -7.66514 -0.983701 0
M  V30 43118 H 4090.18 -6.89258 -0.891562 0
M  V30 43119 H 4093.37 -4.5962 -0.886975 0
M  V30 43120 H 4093.54 -6.40564 -0.978845 0
M  V30 43121 N 4086.95 0.451537 -1.50993 0
M  V30 43122 C 4087.88 1.55467 -1.74219 0
M  V30 43123 C 4088.86 1.59481 -0.591596 0
M  V30 43124 O 4090.04 1.75436 -0.832821 0
M  V30 43125 C 4087.17 2.93657 -1.85426 0
M  V30 43126 C 4086.13 3.04507 -3.00765 0
M  V30 43127 C 4085.45 4.44537 -2.97138 0
M  V30 43128 C 4086.75 2.79904 -4.40966 0
M  V30 43129 H 4088.45 1.36283 -2.66585 0
M  V30 43130 H 4085.99 0.654184 -1.28283 0
M  V30 43131 H 4087.95 3.70776 -2.00258 0
M  V30 43132 H 4086.67 3.14041 -0.896976 0
M  V30 43133 H 4085.33 2.29825 -2.85615 0
M  V30 43134 H 4084.98 4.61868 -1.99215 0
M  V30 43135 H 4084.68 4.52729 -3.7458 0
M  V30 43136 H 4086.2 5.23649 -3.14045 0
M  V30 43137 H 4087.61 3.46762 -4.5654 0
M  V30 43138 H 4086.01 2.99521 -5.20007 0
M  V30 43139 H 4087.08 1.7561 -4.51984 0
M  V30 43140 N 4088.42 1.409 0.706044 0
M  V30 43141 C 4089.35 1.44684 1.83273 0
M  V30 43142 C 4090.34 0.306658 1.67313 0
M  V30 43143 O 4091.52 0.51663 1.87202 0
M  V30 43144 C 4088.65 1.31806 3.21317 0
M  V30 43145 C 4087.6 2.43526 3.51965 0
M  V30 43146 C 4086.93 2.15719 4.89254 0
M  V30 43147 C 4088.23 3.8587 3.51997 0
M  V30 43148 H 4089.92 2.38976 1.80363 0
M  V30 43149 H 4087.47 1.15025 0.866329 0
M  V30 43150 H 4089.42 1.33067 3.99839 0
M  V30 43151 H 4088.15 0.339936 3.24826 0
M  V30 43152 H 4086.81 2.4153 2.75788 0
M  V30 43153 H 4086.45 1.16275 4.89376 0
M  V30 43154 H 4086.15 2.90575 5.10725 0
M  V30 43155 H 4087.68 2.18679 5.70098 0
M  V30 43156 H 4089.09 3.89638 4.20542 0
M  V30 43157 H 4087.49 4.60323 3.84997 0
M  V30 43158 H 4088.56 4.14771 2.51184 0
M  V30 43159 N 4089.9 -0.939242 1.26554 0
M  V30 43160 C 4090.81 -2.0718 1.10063 0
M  V30 43161 C 4091.83 -1.73967 0.0336296 0
M  V30 43162 O 4093 -1.99992 0.237758 0
M  V30 43163 C 4090.07 -3.38767 0.737401 0
M  V30 43164 C 4089.13 -3.8575 1.88402 0
M  V30 43165 C 4088.36 -5.11058 1.53803 0
M  V30 43166 O 4088.59 -5.68695 0.440643 0
M  V30 43167 O 4087.52 -5.5313 2.37342 0
M  V30 43168 H 4091.35 -2.24001 2.05079 0
M  V30 43169 H 4088.93 -1.05649 1.05634 0
M  V30 43170 H 4090.81 -4.17826 0.547651 0
M  V30 43171 H 4089.49 -3.2318 -0.183347 0
M  V30 43172 H 4088.4 -3.07628 2.12875 0
M  V30 43173 H 4089.73 -4.05861 2.78456 0
M  V30 43174 N 4091.38 -1.08389 -1.14409 0
M  V30 43175 C 4092.61 -0.835048 -1.89847 0
M  V30 43176 C 4093.03 0.60706 -1.78035 0
M  V30 43177 O 4092.39 1.42536 -1.12041 0
M  V30 43178 C 4092.44 -1.26147 -3.37815 0
M  V30 43179 O 4091.54 -0.413292 -4.10324 0
M  V30 43180 H 4090.88 -0.303309 -0.590677 0
M  V30 43181 H 4093.41 -1.44527 -1.44821 0
M  V30 43182 H 4093.42 -1.24225 -3.88629 0
M  V30 43183 H 4092.1 -2.31178 -3.4573 0
M  V30 43184 H 4090.67 -0.495919 -3.69588 0
M  V30 43185 N 4092.86 1.31442 -0.869532 0
M  V30 43186 C 4094.09 2.00899 -0.494703 0
M  V30 43187 C 4094.5 1.65273 0.912699 0
M  V30 43188 O 4093.86 0.881731 1.59787 0
M  V30 43189 C 4093.91 3.5576 -0.641647 0
M  V30 43190 O 4093.63 3.90111 -1.99362 0
M  V30 43191 C 4095.13 4.42491 -0.267773 0
M  V30 43192 H 4092.35 0.642704 -0.1928 0
M  V30 43193 H 4094.9 1.67683 -1.17058 0
M  V30 43194 H 4093.05 3.87398 -0.0133313 0
M  V30 43195 H 4093.46 4.84827 -2.00108 0
M  V30 43196 H 4094.94 5.50388 -0.421545 0
M  V30 43197 H 4095.42 4.31981 0.793032 0
M  V30 43198 H 4096.02 4.16269 -0.871771 0
M  V30 43199 N 4094.34 0.628927 1.44507 0
M  V30 43200 C 4095.27 -0.0642101 2.33412 0
M  V30 43201 C 4096.25 -0.837065 1.48078 0
M  V30 43202 O 4097.43 -0.803384 1.76803 0
M  V30 43203 C 4094.56 -1.04789 3.31114 0
M  V30 43204 C 4093.52 -0.386822 4.26248 0
M  V30 43205 C 4092.84 -1.48026 5.13802 0
M  V30 43206 C 4094.14 0.70554 5.17513 0
M  V30 43207 H 4095.84 0.678184 2.91618 0
M  V30 43208 H 4093.38 0.327583 1.40224 0
M  V30 43209 H 4095.34 -1.54152 3.92193 0
M  V30 43210 H 4094.06 -1.82115 2.71112 0
M  V30 43211 H 4092.72 0.0861341 3.66499 0
M  V30 43212 H 4092.37 -2.24433 4.50154 0
M  V30 43213 H 4092.07 -1.04332 5.78263 0
M  V30 43214 H 4093.59 -1.97573 5.77752 0
M  V30 43215 H 4095 0.295105 5.7254 0
M  V30 43216 H 4093.4 1.06548 5.90565 0
M  V30 43217 H 4094.47 1.57357 4.58658 0
M  V30 43218 N 4095.82 -1.53211 0.369342 0
M  V30 43219 C 4097.23 -1.59589 0.0184396 0
M  V30 43220 C 4097.43 -1.3843 -1.46422 0
M  V30 43221 O 4096.49 -1.19134 -2.22628 0
M  V30 43222 C 4097.8 -2.96881 0.477745 0
M  V30 43223 C 4099.35 -3.1 0.432287 0
M  V30 43224 C 4099.82 -4.4971 0.867465 0
M  V30 43225 N 4101.31 -4.55836 0.822674 0
M  V30 43226 C 4102.05 -5.62134 1.13104 0
M  V30 43227 N 4101.55 -6.76169 1.50888 0
M  V30 43228 N 4103.34 -5.52138 1.05359 0
M  V30 43229 H 4095.49 -1.65216 1.33482 0
M  V30 43230 H 4097.75 -0.775091 0.545836 0
M  V30 43231 H 4097.46 -3.17516 1.5125 0
M  V30 43232 H 4097.33 -3.76963 -0.133675 0
M  V30 43233 H 4099.72 -2.89073 -0.593346 0
M  V30 43234 H 4099.8 -2.31918 1.07925 0
M  V30 43235 H 4099.44 -4.71375 1.89123 0
M  V30 43236 H 4099.37 -5.26229 0.197712 0
M  V30 43237 H 4101.87 -3.73959 0.544369 0
M  V30 43238 H 4102.18 -7.53225 1.72834 0
M  V30 43239 H 4100.52 -6.77551 1.54757 0
M  V30 43240 H 4103.71 -4.61929 0.757568 0
M  V30 43241 H 4103.89 -6.34882 1.29724 0
M  V30 43242 N 4097.29 -0.0986092 -1.57291 0
M  V30 43243 C 4098.52 0.575931 -1.99243 0
M  V30 43244 C 4098.94 1.60712 -0.977406 0
M  V30 43245 O 4098.3 1.81221 0.0536451 0
M  V30 43246 C 4098.35 1.19708 -3.40151 0
M  V30 43247 O 4097.45 2.31287 -3.41438 0
M  V30 43248 H 4096.79 0.145805 -0.647794 0
M  V30 43249 H 4099.32 -0.181059 -2.03797 0
M  V30 43250 H 4099.33 1.53754 -3.7792 0
M  V30 43251 H 4098.01 0.441641 -4.13548 0
M  V30 43252 H 4096.59 1.98834 -3.15467 0
M  V30 43253 N 4098.77 1.56624 0.175099 0
M  V30 43254 C 4100 1.86269 0.912066 0
M  V30 43255 C 4100.42 0.684516 1.75203 0
M  V30 43256 O 4099.78 -0.36647 1.77558 0
M  V30 43257 C 4099.83 3.143 1.76771 0
M  V30 43258 O 4098.93 2.96258 2.86889 0
M  V30 43259 H 4098.27 0.612784 0.255717 0
M  V30 43260 H 4100.8 2.03856 0.17438 0
M  V30 43261 H 4100.81 3.45608 2.16839 0
M  V30 43262 H 4099.49 3.99665 1.1507 0
M  V30 43263 H 4098.06 2.76295 2.50431 0
M  V30 43264 N 4100.25 -0.443523 1.5123 0
M  V30 43265 C 4101.2 -1.53616 1.68482 0
M  V30 43266 C 4102.18 -1.51608 0.538885 0
M  V30 43267 O 4103.38 -1.58165 0.79453 0
M  V30 43268 C 4100.5 -2.91858 1.80759 0
M  V30 43269 C 4099.59 -2.98646 3.01117 0
M  V30 43270 N 4099.98 -2.75189 4.24387 0
M  V30 43271 C 4098.28 -3.29802 3.00244 0
M  V30 43272 C 4098.98 -2.8766 5.05596 0
M  V30 43273 N 4097.96 -3.19062 4.40114 0
M  V30 43274 H 4101.76 -1.34223 2.6146 0
M  V30 43275 H 4099.27 -0.650731 1.48793 0
M  V30 43276 H 4101.27 -3.70456 1.91227 0
M  V30 43277 H 4099.93 -3.12276 0.889583 0
M  V30 43278 H 4100.94 -2.50236 4.53434 0
M  V30 43279 H 4097.62 -3.56034 2.18051 0
M  V30 43280 H 4099.01 -2.73531 6.13702 0
M  V30 43281 N 4101.73 -1.41272 -0.698562 0
M  V30 43282 C 4102.66 -1.45654 -1.82503 0
M  V30 43283 C 4103.64 -0.315527 -1.67148 0
M  V30 43284 O 4104.82 -0.526551 -1.86925 0
M  V30 43285 C 4101.95 -1.33508 -3.20613 0
M  V30 43286 C 4100.91 -2.45389 -3.50668 0
M  V30 43287 C 4100.23 -2.1831 -4.88103 0
M  V30 43288 C 4101.53 -3.87731 -3.49946 0
M  V30 43289 H 4103.23 -2.39929 -1.79093 0
M  V30 43290 H 4100.77 -1.15483 -0.860216 0
M  V30 43291 H 4102.73 -1.35186 -3.99128 0
M  V30 43292 H 4101.45 -0.357158 -3.24641 0
M  V30 43293 H 4100.11 -2.42989 -2.74503 0
M  V30 43294 H 4099.76 -1.18868 -4.88753 0
M  V30 43295 H 4099.46 -2.93279 -5.09177 0
M  V30 43296 H 4100.98 -2.21699 -5.6893 0
M  V30 43297 H 4102.4 -3.91863 -4.18469 0
M  V30 43298 H 4100.79 -4.62358 -3.82551 0
M  V30 43299 H 4101.86 -4.16097 -2.4898 0
M  V30 43300 N 4103.21 0.932517 -1.27051 0
M  V30 43301 C 4104.62 1.49457 -1.1189 0
M  V30 43302 C 4104.97 1.93927 0.297791 0
M  V30 43303 O 4104.09 1.80729 1.19021 0
M  V30 43304 C 4104.69 2.71622 -2.02501 0
M  V30 43305 C 4103.25 3.24067 -1.91461 0
M  V30 43306 C 4102.39 1.96818 -1.95341 0
M  V30 43307 H 4105.34 0.747114 -1.40014 0
M  V30 43308 H 4105.37 3.46236 -1.578 0
M  V30 43309 H 4104.88 2.39225 -3.05602 0
M  V30 43310 H 4102.98 3.61234 -0.913275 0
M  V30 43311 H 4103.09 3.90587 -2.7745 0
M  V30 43312 H 4101.46 2.13098 -1.39503 0
M  V30 43313 H 4102.24 1.66741 -3.00087 0
M  V30 43314 N 4104.68 1.08995 1.13833 0
M  V30 43315 C 4105.91 0.845105 1.89401 0
M  V30 43316 C 4106.33 -0.59761 1.78354 0
M  V30 43317 O 4105.69 -1.4194 1.12796 0
M  V30 43318 C 4105.74 1.27937 3.37142 0
M  V30 43319 O 4104.84 0.435047 4.10099 0
M  V30 43320 H 4104.18 0.306438 0.58906 0
M  V30 43321 H 4106.71 1.45293 1.44052 0
M  V30 43322 H 4106.72 1.26284 3.87964 0
M  V30 43323 H 4105.4 2.33008 3.445 0
M  V30 43324 H 4103.98 0.515512 3.69319 0
M  V30 43325 N 4106.16 -1.30979 0.87649 0
M  V30 43326 C 4107.58 -1.49101 0.56931 0
M  V30 43327 C 4107.78 -1.80532 -0.895017 0
M  V30 43328 O 4106.83 -1.88786 -1.67679 0
M  V30 43329 C 4108.15 -2.6203 1.47515 0
M  V30 43330 C 4109.69 -2.75913 1.47787 0
M  V30 43331 C 4110.17 -3.91946 2.36944 0
M  V30 43332 N 4111.66 -3.99243 2.3486 0
M  V30 43333 C 4112.4 -4.88314 3.00561 0
M  V30 43334 N 4111.89 -5.82241 3.75456 0
M  V30 43335 N 4113.68 -4.81613 2.89836 0
M  V30 43336 H 4105.84 -1.08847 1.8239 0
M  V30 43337 H 4108.1 -0.538447 0.780243 0
M  V30 43338 H 4107.8 -2.456 2.51741 0
M  V30 43339 H 4107.68 -3.58318 1.17847 0
M  V30 43340 H 4110.07 -2.91753 0.443164 0
M  V30 43341 H 4110.15 -1.80272 1.81482 0
M  V30 43342 H 4109.79 -3.76863 3.40495 0
M  V30 43343 H 4109.72 -4.86908 2.0057 0
M  V30 43344 H 4112.21 -3.32046 1.80426 0
M  V30 43345 H 4112.52 -6.4695 4.22701 0
M  V30 43346 H 4110.87 -5.82199 3.79564 0
M  V30 43347 H 4114.06 -4.07212 2.30859 0
M  V30 43348 H 4114.23 -5.50823 3.41319 0
M  V30 43349 N 4107.64 -0.636582 -1.44171 0
M  V30 43350 C 4108.89 -0.143464 -2.02292 0
M  V30 43351 C 4109.22 1.23346 -1.49998 0
M  V30 43352 O 4108.49 1.81991 -0.68626 0
M  V30 43353 C 4108.78 -0.136088 -3.59843 0
M  V30 43354 C 4108.63 -1.54574 -4.22406 0
M  V30 43355 C 4109.95 0.536461 -4.36818 0
M  V30 43356 H 4107.07 -0.0536068 -0.735048 0
M  V30 43357 H 4109.71 -0.814096 -1.71675 0
M  V30 43358 H 4107.86 0.43498 -3.86057 0
M  V30 43359 H 4109.53 -2.16611 -4.0728 0
M  V30 43360 H 4107.77 -2.098 -3.79692 0
M  V30 43361 H 4108.45 -1.49257 -5.31438 0
M  V30 43362 H 4110.92 0.0507595 -4.16069 0
M  V30 43363 H 4109.8 0.51083 -5.46518 0
M  V30 43364 H 4110.06 1.60776 -4.11829 0
M  V30 43365 N 4109.12 1.53013 -0.377462 0
M  V30 43366 C 4110.37 2.01026 0.208082 0
M  V30 43367 C 4110.69 1.26612 1.48305 0
M  V30 43368 O 4109.96 0.382766 1.92124 0
M  V30 43369 H 4108.54 0.742716 0.0798827 0
M  V30 43370 H 4111.2 1.88205 -0.506429 0
M  V30 43371 H 4110.29 3.0917 0.426682 0
M  V30 43372 N 4110.6 0.106949 1.57237 0
M  V30 43373 C 4111.56 -0.833279 2.13516 0
M  V30 43374 C 4112.56 -1.20283 1.06718 0
M  V30 43375 O 4113.75 -1.13032 1.3255 0
M  V30 43376 C 4110.88 -2.12518 2.6655 0
M  V30 43377 H 4112.07 -0.344383 2.97916 0
M  V30 43378 H 4109.63 -0.142171 1.55652 0
M  V30 43379 H 4110.36 -2.65866 1.85704 0
M  V30 43380 H 4110.15 -1.86979 3.44646 0
M  V30 43381 H 4111.64 -2.79754 3.10044 0
M  V30 43382 N 4112.07 -1.56715 -0.166791 0
M  V30 43383 C 4113 -1.9979 -1.20857 0
M  V30 43384 C 4113.99 -0.874204 -1.45917 0
M  V30 43385 O 4115.17 -1.14061 -1.57174 0
M  V30 43386 C 4112.3 -2.36165 -2.54644 0
M  V30 43387 C 4111.25 -3.51536 -2.44144 0
M  V30 43388 C 4110.58 -3.73667 -3.82462 0
M  V30 43389 C 4111.88 -4.84842 -1.94231 0
M  V30 43390 H 4113.57 -2.87066 -0.850488 0
M  V30 43391 H 4111.12 -1.38109 -0.407671 0
M  V30 43392 H 4113.07 -2.64897 -3.27731 0
M  V30 43393 H 4111.8 -1.45802 -2.92249 0
M  V30 43394 H 4110.46 -3.22939 -1.73511 0
M  V30 43395 H 4110.1 -2.80587 -4.17468 0
M  V30 43396 H 4109.8 -4.51297 -3.76304 0
M  V30 43397 H 4111.33 -4.04804 -4.57128 0
M  V30 43398 H 4112.74 -5.1242 -2.57096 0
M  V30 43399 H 4111.14 -5.6614 -1.99011 0
M  V30 43400 H 4112.21 -4.76534 -0.896866 0
M  V30 43401 N 4113.55 0.435497 -1.51463 0
M  V30 43402 C 4114.5 1.5272 -1.69294 0
M  V30 43403 C 4115.49 1.5132 -0.546917 0
M  V30 43404 O 4116.68 1.57742 -0.802906 0
M  V30 43405 C 4113.81 2.90895 -1.82305 0
M  V30 43406 C 4112.89 2.97045 -3.02697 0
M  V30 43407 N 4113.28 2.72935 -4.25841 0
M  V30 43408 C 4111.58 3.28205 -3.01989 0
M  V30 43409 C 4112.28 2.84974 -5.07114 0
M  V30 43410 N 4111.26 3.16723 -4.418 0
M  V30 43411 H 4115.06 1.32834 -2.62168 0
M  V30 43412 H 4112.58 0.642831 -1.49136 0
M  V30 43413 H 4114.57 3.69437 -1.93189 0
M  V30 43414 H 4113.23 3.118 -0.906131 0
M  V30 43415 H 4114.24 2.47828 -4.54755 0
M  V30 43416 H 4110.92 3.54872 -2.19936 0
M  V30 43417 H 4112.31 2.70272 -6.15144 0
M  V30 43418 N 4115.03 1.41641 0.69106 0
M  V30 43419 C 4116.28 1.40961 1.44825 0
M  V30 43420 C 4116.6 0.0212132 1.94988 0
M  V30 43421 O 4115.87 -0.937683 1.72001 0
M  V30 43422 H 4114.45 0.518874 0.537381 0
M  V30 43423 H 4117.11 1.7692 0.817646 0
M  V30 43424 H 4116.21 2.09956 2.30922 0
M  V30 43425 N 4116.51 -0.925766 1.27543 0
M  V30 43426 C 4117.75 -1.67614 1.14164 0
M  V30 43427 C 4118.09 -1.91686 -0.311437 0
M  V30 43428 O 4117.36 -1.50862 -1.22763 0
M  V30 43429 C 4117.65 -3.04149 1.92783 0
M  V30 43430 C 4117.5 -2.87306 3.46086 0
M  V30 43431 C 4118.82 -4.04508 1.73381 0
M  V30 43432 H 4115.94 -0.608299 0.416102 0
M  V30 43433 H 4118.58 -1.07417 1.56721 0
M  V30 43434 H 4116.73 -3.55533 1.56616 0
M  V30 43435 H 4118.4 -2.43025 3.92093 0
M  V30 43436 H 4116.64 -2.22608 3.72328 0
M  V30 43437 H 4117.31 -3.84212 3.9634 0
M  V30 43438 H 4119.79 -3.62142 2.0492 0
M  V30 43439 H 4118.67 -4.98027 2.30782 0
M  V30 43440 H 4118.93 -4.36804 0.682231 0
M  V30 43441 N 4117.99 -1.09597 -1.13253 0
M  V30 43442 C 4118.92 -0.75883 -2.20826 0
M  V30 43443 C 4119.9 0.264295 -1.68034 0
M  V30 43444 O 4121.08 0.131971 -1.93751 0
M  V30 43445 C 4118.21 -0.180485 -3.46831 0
M  V30 43446 C 4117.17 -1.13332 -4.12722 0
M  V30 43447 C 4116.49 -0.416598 -5.33075 0
M  V30 43448 C 4117.79 -2.47645 -4.59858 0
M  V30 43449 H 4119.49 -1.65825 -2.49284 0
M  V30 43450 H 4117.03 -0.798755 -1.19816 0
M  V30 43451 H 4118.99 0.0674572 -4.21346 0
M  V30 43452 H 4117.71 0.754138 -3.17774 0
M  V30 43453 H 4116.37 -1.36657 -3.40177 0
M  V30 43454 H 4116.02 0.52222 -5.00282 0
M  V30 43455 H 4115.72 -1.05193 -5.78107 0
M  V30 43456 H 4117.24 -0.176997 -6.10343 0
M  V30 43457 H 4118.65 -2.28518 -5.25787 0
M  V30 43458 H 4117.05 -3.06983 -5.15637 0
M  V30 43459 H 4118.12 -3.0828 -3.74288 0
M  V30 43460 N 4119.46 1.30512 -0.883424 0
M  V30 43461 C 4120.69 2.00072 -0.515235 0
M  V30 43462 C 4121.1 1.66404 0.900345 0
M  V30 43463 O 4120.45 0.896532 1.60337 0
M  V30 43464 C 4120.51 3.54315 -0.60838 0
M  V30 43465 C 4120.17 4.11495 -1.98799 0
M  V30 43466 C 4121.17 4.27605 -2.9572 0
M  V30 43467 C 4118.85 4.4691 -2.29296 0
M  V30 43468 C 4120.85 4.78339 -4.21272 0
M  V30 43469 C 4118.53 4.97344 -3.55094 0
M  V30 43470 C 4119.53 5.13011 -4.50897 0
M  V30 43471 O 4119.22 5.62357 -5.74464 0
M  V30 43472 H 4118.95 0.646394 -0.197864 0
M  V30 43473 H 4121.51 1.67403 -1.19018 0
M  V30 43474 H 4119.74 3.86503 0.123538 0
M  V30 43475 H 4121.43 4.05119 -0.25169 0
M  V30 43476 H 4122.19 4.00548 -2.7347 0
M  V30 43477 H 4118.07 4.33984 -1.55495 0
M  V30 43478 H 4121.61 4.90483 -4.96057 0
M  V30 43479 H 4117.51 5.23836 -3.77182 0
M  V30 43480 H 4118.28 5.80703 -5.76825 0
M  V30 43481 N 4120.94 0.644219 1.43832 0
M  V30 43482 C 4122.19 0.15419 2.02213 0
M  V30 43483 C 4122.52 -1.22548 1.5065 0
M  V30 43484 O 4121.8 -1.81624 0.695902 0
M  V30 43485 C 4122.08 0.15517 3.59766 0
M  V30 43486 C 4121.93 1.56812 4.21581 0
M  V30 43487 C 4123.25 -0.513288 4.37097 0
M  V30 43488 H 4120.37 0.0575042 0.734753 0
M  V30 43489 H 4123.01 0.823189 1.71241 0
M  V30 43490 H 4121.16 -0.4145 3.86282 0
M  V30 43491 H 4122.83 2.18768 4.06126 0
M  V30 43492 H 4121.08 2.11811 3.78575 0
M  V30 43493 H 4121.75 1.52073 5.30639 0
M  V30 43494 H 4124.22 -0.0286937 4.1609 0
M  V30 43495 H 4123.1 -0.48184 5.46781 0
M  V30 43496 H 4123.36 -1.5859 4.12676 0
M  V30 43497 N 4122.42 -1.52811 0.385571 0
M  V30 43498 C 4123.35 -2.29261 -0.442911 0
M  V30 43499 C 4124.33 -1.32496 -1.06672 0
M  V30 43500 O 4125.52 -1.61386 -1.08019 0
M  V30 43501 C 4122.65 -3.09667 -1.57238 0
M  V30 43502 C 4121.6 -4.14285 -1.0748 0
M  V30 43503 C 4120.93 -4.82893 -2.29606 0
M  V30 43504 C 4122.23 -5.22098 -0.145387 0
M  V30 43505 H 4123.92 -2.98765 0.194952 0
M  V30 43506 H 4121.47 -1.43685 0.0952015 0
M  V30 43507 H 4123.42 -3.61906 -2.15876 0
M  V30 43508 H 4122.14 -2.37889 -2.23777 0
M  V30 43509 H 4120.8 -3.63021 -0.510983 0
M  V30 43510 H 4120.45 -4.07667 -2.94646 0
M  V30 43511 H 4120.15 -5.53601 -1.96976 0
M  V30 43512 H 4121.67 -5.37934 -2.88893 0
M  V30 43513 H 4123.09 -5.69718 -0.639841 0
M  V30 43514 H 4121.49 -6.00031 0.0909741 0
M  V30 43515 H 4122.56 -4.78141 0.806791 0
M  V30 43516 N 4123.9 -0.115287 -1.57178 0
M  V30 43517 C 4124.81 0.850063 -2.18657 0
M  V30 43518 C 4125.82 1.29543 -1.16167 0
M  V30 43519 O 4127 1.35918 -1.48621 0
M  V30 43520 C 4124.07 2.08375 -2.77093 0
M  V30 43521 C 4123.13 1.69067 -3.94607 0
M  V30 43522 C 4122.36 2.86555 -4.50247 0
M  V30 43523 O 4122.58 4.01873 -4.04789 0
M  V30 43524 O 4121.52 2.63854 -5.40985 0
M  V30 43525 H 4125.34 0.356881 -3.01596 0
M  V30 43526 H 4122.93 0.110132 -1.48994 0
M  V30 43527 H 4124.81 2.80637 -3.14358 0
M  V30 43528 H 4123.48 2.56707 -1.97188 0
M  V30 43529 H 4122.39 0.939245 -3.62117 0
M  V30 43530 H 4123.72 1.2548 -4.75936 0
M  V30 43531 N 4125.38 1.56801 0.158477 0
M  V30 43532 C 4126.62 1.84518 0.879352 0
M  V30 43533 C 4126.98 0.698004 1.78863 0
M  V30 43534 O 4128.18 0.855931 2.54808 0
M  V30 43535 C 4126.45 3.17386 1.64319 0
M  V30 43536 S 4128.01 3.66624 2.41106 0
M  V30 43537 H 4124.83 0.647241 0.294278 0
M  V30 43538 H 4127.43 1.94997 0.140106 0
M  V30 43539 H 4126.14 3.98858 0.966468 0
M  V30 43540 H 4125.67 3.09882 2.42357 0
M  V30 43541 H 4127.68 3.34973 3.6607 0
M  V30 43542 N 4126.86 -0.427458 1.51692 0
M  V30 43543 C 4128.13 -1.1879 1.55397 0
M  V30 43544 C 4128.51 -2.08598 0.324073 0
M  V30 43545 O 4127.86 -2.17825 -0.690254 0
M  V30 43546 C 4128.07 -1.98116 2.87317 0
M  V30 43547 C 4129.42 -2.54818 3.39637 0
M  V30 43548 O 4130.44 -2.08316 2.88934 0
M  V30 43549 O 4129.3 -3.39656 4.28131 0
M  V30 43550 H 4126.4 -0.541365 0.625182 0
M  V30 43551 H 4128.94 -0.435725 1.64011 0
M  V30 43552 H 4127.71 -1.32215 3.68286 0
M  V30 43553 H 4127.34 -2.80378 2.81911 0
M  V30 43554 N 4128.33 -1.42005 -0.683539 0
M  V30 43555 C 4129.26 -1.47581 -1.80948 0
M  V30 43556 C 4130.24 -0.333237 -1.66804 0
M  V30 43557 O 4131.43 -0.546347 -1.86356 0
M  V30 43558 C 4128.56 -1.36901 -3.19179 0
M  V30 43559 C 4127.51 -2.49095 -3.48046 0
M  V30 43560 C 4126.84 -2.23475 -4.8576 0
M  V30 43561 C 4128.14 -3.91421 -3.45814 0
M  V30 43562 H 4129.83 -2.41815 -1.76539 0
M  V30 43563 H 4127.38 -1.16389 -0.84792 0
M  V30 43564 H 4129.33 -1.39411 -3.97671 0
M  V30 43565 H 4128.06 -0.39157 -3.24244 0
M  V30 43566 H 4126.72 -2.45887 -2.7191 0
M  V30 43567 H 4126.36 -1.24046 -4.87465 0
M  V30 43568 H 4126.06 -2.98663 -5.06038 0
M  V30 43569 H 4127.59 -2.27721 -5.66547 0
M  V30 43570 H 4129 -3.96279 -4.1429 0
M  V30 43571 H 4127.4 -4.6639 -3.77625 0
M  V30 43572 H 4128.47 -4.18714 -2.44553 0
M  V30 43573 N 4129.81 0.918989 -1.28033 0
M  V30 43574 C 4130.74 2.03759 -1.14038 0
M  V30 43575 C 4131.72 1.70054 -0.0395249 0
M  V30 43576 O 4132.91 1.93 -0.21558 0
M  V30 43577 C 4130.04 3.38056 -0.795953 0
M  V30 43578 C 4128.99 3.85904 -1.851 0
M  V30 43579 C 4128.32 5.17106 -1.36033 0
M  V30 43580 C 4129.62 4.08338 -3.25665 0
M  V30 43581 H 4131.31 2.15725 -2.07613 0
M  V30 43582 H 4128.86 1.03656 -0.999576 0
M  V30 43583 H 4130.81 4.15798 -0.684836 0
M  V30 43584 H 4129.53 3.26128 0.175501 0
M  V30 43585 H 4128.19 3.10362 -1.95117 0
M  V30 43586 H 4127.84 5.01577 -0.378092 0
M  V30 43587 H 4127.54 5.5009 -2.06577 0
M  V30 43588 H 4129.07 5.97409 -1.26233 0
M  V30 43589 H 4130.48 4.76621 -3.18599 0
M  V30 43590 H 4128.88 4.52644 -3.93997 0
M  V30 43591 H 4129.95 3.13329 -3.70072 0
M  V30 43592 N 4131.29 1.10196 1.12671 0
M  V30 43593 C 4132.57 0.755022 1.80441 0
M  V30 43594 C 4132.95 -0.758852 1.96989 0
M  V30 43595 O 4132.29 -1.68418 1.54427 0
M  V30 43596 C 4132.5 1.50323 3.14967 0
M  V30 43597 C 4133.85 1.67415 3.90202 0
M  V30 43598 O 4134.88 1.4664 3.24616 0
M  V30 43599 O 4133.74 2.01842 5.0786 0
M  V30 43600 H 4130.83 0.272122 0.780947 0
M  V30 43601 H 4133.38 1.20463 1.19528 0
M  V30 43602 H 4132.15 2.53365 2.98197 0
M  V30 43603 H 4131.77 1.04632 3.83586 0
M  V30 43604 N 4132.77 -1.30042 0.890333 0
M  V30 43605 C 4134.04 -1.90785 0.431344 0
M  V30 43606 C 4134.42 -1.80883 -1.08833 0
M  V30 43607 O 4133.77 -1.22949 -1.92602 0
M  V30 43608 C 4133.98 -3.3623 0.935436 0
M  V30 43609 C 4135.33 -4.13288 0.973577 0
M  V30 43610 O 4136.35 -3.45096 0.882464 0
M  V30 43611 O 4135.21 -5.35129 1.10902 0
M  V30 43612 H 4132.31 -0.816258 0.132859 0
M  V30 43613 H 4134.85 -1.38572 0.979585 0
M  V30 43614 H 4133.63 -3.37547 1.97934 0
M  V30 43615 H 4133.25 -3.95906 0.366666 0
M  V30 43616 N 4134.25 -0.651838 -1.43488 0
M  V30 43617 C 4135.47 -0.17237 -2.06181 0
M  V30 43618 C 4135.89 1.16143 -1.4885 0
M  V30 43619 O 4135.25 1.71672 -0.619276 0
M  V30 43620 C 4135.3 -0.0737675 -3.61425 0
M  V30 43621 O 4135.02 -1.35484 -4.16624 0
M  V30 43622 C 4136.52 0.431942 -4.41191 0
M  V30 43623 H 4133.74 -0.089251 -0.665038 0
M  V30 43624 H 4136.28 -0.892095 -1.84016 0
M  V30 43625 H 4134.44 0.596509 -3.8278 0
M  V30 43626 H 4134.85 -1.21314 -5.10278 0
M  V30 43627 H 4136.33 0.449892 -5.50164 0
M  V30 43628 H 4136.8 1.46299 -4.14117 0
M  V30 43629 H 4137.41 -0.205796 -4.24802 0
M  V30 43630 N 4135.72 1.52604 -0.39367 0
M  V30 43631 C 4136.69 2.25181 0.427318 0
M  V30 43632 C 4137.69 1.26978 0.986573 0
M  V30 43633 O 4138.88 1.51041 0.867887 0
M  V30 43634 C 4136.01 3.01022 1.59996 0
M  V30 43635 H 4137.2 2.99177 -0.208154 0
M  V30 43636 H 4134.75 1.55618 -0.145871 0
M  V30 43637 H 4135.49 2.31338 2.27274 0
M  V30 43638 H 4135.27 3.73105 1.2056 0
M  V30 43639 H 4136.76 3.56115 2.18109 0
M  V30 43640 N 4137.2 0.12362 1.57114 0
M  V30 43641 C 4138.15 -0.824874 2.15556 0
M  V30 43642 C 4139.12 -1.26038 1.08183 0
M  V30 43643 O 4140.3 -1.33707 1.36114 0
M  V30 43644 C 4137.44 -2.06778 2.76291 0
M  V30 43645 C 4136.56 -1.68022 3.97986 0
M  V30 43646 C 4135.69 -2.87314 4.46793 0
M  V30 43647 C 4134.73 -2.44819 5.61008 0
M  V30 43648 N 4133.87 -3.57041 6.04538 0
M  V30 43649 H 4138.71 -0.319674 2.9628 0
M  V30 43650 H 4136.24 -0.146094 1.46373 0
M  V30 43651 H 4138.2 -2.79608 3.09637 0
M  V30 43652 H 4136.83 -2.54749 1.9825 0
M  V30 43653 H 4135.88 -0.850476 3.70771 0
M  V30 43654 H 4137.2 -1.32796 4.80798 0
M  V30 43655 H 4136.35 -3.68363 4.82072 0
M  V30 43656 H 4135.09 -3.2577 3.6294 0
M  V30 43657 H 4134.09 -1.62204 5.25328 0
M  V30 43658 H 4135.32 -2.07476 6.4663 0
M  V30 43659 H 4133.27 -3.95162 5.23625 0
M  V30 43660 H 4133.18 -3.25754 6.82217 0
M  V30 43661 H 4134.45 -4.38516 6.44456 0
M  V30 43662 N 4138.68 -1.56883 -0.15016 0
M  V30 43663 C 4139.61 -1.94625 -1.21053 0
M  V30 43664 C 4140.62 -0.841718 -1.39352 0
M  V30 43665 O 4141.81 -1.12014 -1.38979 0
M  V30 43666 C 4138.91 -2.2023 -2.57588 0
M  V30 43667 C 4138.09 -3.51508 -2.60309 0
M  V30 43668 C 4137.15 -3.65691 -3.7836 0
M  V30 43669 O 4136.17 -4.38114 -3.6338 0
M  V30 43670 N 4137.37 -3.02119 -4.95686 0
M  V30 43671 H 4140.14 -2.86188 -0.889749 0
M  V30 43672 H 4137.7 -1.58295 -0.339751 0
M  V30 43673 H 4139.69 -2.26963 -3.35067 0
M  V30 43674 H 4138.26 -1.34948 -2.81971 0
M  V30 43675 H 4137.48 -3.56245 -1.68769 0
M  V30 43676 H 4138.77 -4.37854 -2.59155 0
M  V30 43677 H 4138.17 -2.4319 -5.1076 0
M  V30 43678 H 4136.72 -3.14417 -5.70951 0
M  V30 43679 N 4140.16 0.419408 -1.51917 0
M  V30 43680 C 4141.09 1.51736 -1.77478 0
M  V30 43681 C 4142.07 1.5819 -0.625291 0
M  V30 43682 O 4143.25 1.7363 -0.869846 0
M  V30 43683 C 4140.38 2.89658 -1.91613 0
M  V30 43684 C 4139.34 2.98059 -3.07156 0
M  V30 43685 C 4138.66 4.38134 -3.065 0
M  V30 43686 C 4139.96 2.70487 -4.46804 0
M  V30 43687 H 4141.66 1.30597 -2.69416 0
M  V30 43688 H 4139.2 0.626827 -1.29641 0
M  V30 43689 H 4141.16 3.66444 -2.08078 0
M  V30 43690 H 4139.88 3.12068 -0.963387 0
M  V30 43691 H 4138.54 2.23715 -2.90426 0
M  V30 43692 H 4138.19 4.57539 -2.08967 0
M  V30 43693 H 4137.89 4.44682 -3.84099 0
M  V30 43694 H 4139.41 5.1687 -3.25081 0
M  V30 43695 H 4140.83 3.37 -4.63793 0
M  V30 43696 H 4139.22 2.88423 -5.26243 0
M  V30 43697 H 4140.29 1.65983 -4.55607 0
M  V30 43698 N 4141.64 1.42366 0.675998 0
M  V30 43699 C 4142.89 1.42064 1.4318 0
M  V30 43700 C 4143.2 0.0400665 1.95559 0
M  V30 43701 O 4144.4 -0.0855482 2.71365 0
M  V30 43702 C 4142.86 2.49889 2.59005 0
M  V30 43703 C 4142.47 3.93947 2.13331 0
M  V30 43704 C 4144.21 2.58751 3.36523 0
M  V30 43705 C 4142.12 4.93282 3.26231 0
M  V30 43706 H 4141.05 0.528385 0.537889 0
M  V30 43707 H 4143.7 1.68269 0.731971 0
M  V30 43708 H 4142.08 2.16847 3.31351 0
M  V30 43709 H 4143.26 4.36336 1.48146 0
M  V30 43710 H 4141.57 3.88923 1.48755 0
M  V30 43711 H 4144.17 3.30146 4.20604 0
M  V30 43712 H 4144.51 1.63067 3.83034 0
M  V30 43713 H 4145.04 2.90981 2.71246 0
M  V30 43714 H 4141.78 5.90439 2.84713 0
M  V30 43715 H 4141.3 4.55525 3.90201 0
M  V30 43716 H 4142.98 5.14944 3.91716 0
M  V30 43717 N 4143.11 -0.912187 1.28518 0
M  V30 43718 C 4144.53 -1.47658 1.14254 0
M  V30 43719 C 4144.88 -1.94376 -0.266901 0
M  V30 43720 O 4144 -1.826 -1.1613 0
M  V30 43721 C 4144.6 -2.68366 2.06797 0
M  V30 43722 C 4143.16 -3.2098 1.96592 0
M  V30 43723 C 4142.3 -1.93685 1.98447 0
M  V30 43724 H 4145.25 -0.724744 1.41185 0
M  V30 43725 H 4145.27 -3.43682 1.63288 0
M  V30 43726 H 4144.79 -2.34333 3.0937 0
M  V30 43727 H 4142.89 -3.59735 0.970629 0
M  V30 43728 H 4143 -3.86124 2.83629 0
M  V30 43729 H 4141.36 -2.10852 1.42876 0
M  V30 43730 H 4142.15 -1.61946 3.02702 0
M  V30 43731 N 4144.59 -1.10792 -1.12085 0
M  V30 43732 C 4145.84 -0.853881 -1.83948 0
M  V30 43733 C 4146.17 0.618997 -1.84071 0
M  V30 43734 O 4145.45 1.45661 -1.28892 0
M  V30 43735 C 4145.73 -1.40759 -3.3145 0
M  V30 43736 C 4145.58 -2.9476 -3.39759 0
M  V30 43737 C 4146.9 -1.05296 -4.27318 0
M  V30 43738 H 4144.02 -0.311647 -0.667866 0
M  V30 43739 H 4146.66 -1.37168 -1.31472 0
M  V30 43740 H 4144.81 -0.967178 -3.76268 0
M  V30 43741 H 4146.48 -3.47355 -3.03549 0
M  V30 43742 H 4144.73 -3.31173 -2.8019 0
M  V30 43743 H 4145.4 -3.28587 -4.43547 0
M  V30 43744 H 4147.87 -1.43304 -3.90644 0
M  V30 43745 H 4146.75 -1.46725 -5.28926 0
M  V30 43746 H 4147.01 0.037145 -4.42084 0
M  V30 43747 N 4146.07 1.29568 -0.897217 0
M  V30 43748 C 4147.32 1.94939 -0.517858 0
M  V30 43749 C 4147.63 1.71529 0.940065 0
M  V30 43750 O 4148.84 2.30984 1.42683 0
M  V30 43751 C 4147.29 3.49095 -0.875245 0
M  V30 43752 C 4146.9 3.81308 -2.35177 0
M  V30 43753 C 4148.65 4.20714 -0.565675 0
M  V30 43754 C 4146.55 5.28698 -2.65014 0
M  V30 43755 H 4145.48 0.729684 -0.189941 0
M  V30 43756 H 4148.13 1.47332 -1.09387 0
M  V30 43757 H 4146.52 3.95342 -0.228185 0
M  V30 43758 H 4147.69 3.45929 -3.04417 0
M  V30 43759 H 4146.01 3.22822 -2.63011 0
M  V30 43760 H 4148.6 5.29192 -0.76548 0
M  V30 43761 H 4148.95 4.13339 0.495658 0
M  V30 43762 H 4149.48 3.80191 -1.17046 0
M  V30 43763 H 4146.22 5.41135 -3.69936 0
M  V30 43764 H 4145.74 5.65333 -2.00395 0
M  V30 43765 H 4147.42 5.96265 -2.51151 0
M  V30 43766 N 4147.55 0.659438 1.4314 0
M  V30 43767 C 4148.77 0.181679 2.06603 0
M  V30 43768 C 4149.2 -1.14626 1.49139 0
M  V30 43769 O 4148.56 -1.70951 0.603769 0
M  V30 43770 C 4148.6 0.110725 3.6043 0
M  V30 43771 O 4147.71 -0.925273 4.01886 0
M  V30 43772 H 4147.05 0.0977236 0.656769 0
M  V30 43773 H 4149.58 0.904118 1.8354 0
M  V30 43774 H 4149.59 -0.0705372 4.07939 0
M  V30 43775 H 4148.26 1.08009 4.0163 0
M  V30 43776 H 4146.84 -0.716296 3.65956 0
M  V30 43777 N 4149.03 -1.52393 0.401757 0
M  V30 43778 C 4150.3 -1.94188 -0.23461 0
M  V30 43779 C 4150.68 -1.33813 -1.63271 0
M  V30 43780 O 4150.03 -0.511053 -2.22712 0
M  V30 43781 C 4150.24 -3.48115 -0.248393 0
M  V30 43782 C 4151.59 -4.21976 -0.471322 0
M  V30 43783 O 4152.61 -3.54686 -0.328069 0
M  V30 43784 O 4151.47 -5.41287 -0.75304 0
M  V30 43785 H 4148.57 -0.813456 -0.149061 0
M  V30 43786 H 4151.11 -1.63426 0.457167 0
M  V30 43787 H 4149.88 -3.84422 0.730422 0
M  V30 43788 H 4149.51 -3.85217 -0.984576 0
M  V30 43789 N 4150.5 -0.131951 -1.57047 0
M  V30 43790 C 4151.73 0.529485 -1.997 0
M  V30 43791 C 4152.14 1.59936 -1.0108 0
M  V30 43792 O 4151.49 1.837 0.00253579 0
M  V30 43793 C 4151.55 1.20287 -3.38779 0
M  V30 43794 C 4151.21 0.279403 -4.56145 0
M  V30 43795 C 4152.21 -0.487072 -5.17613 0
M  V30 43796 C 4149.89 0.186696 -5.01953 0
M  V30 43797 C 4151.89 -1.33386 -6.23287 0
M  V30 43798 C 4149.57 -0.663707 -6.07485 0
M  V30 43799 C 4150.57 -1.4226 -6.6802 0
M  V30 43800 O 4150.26 -2.25886 -7.71512 0
M  V30 43801 H 4149.99 0.143679 -0.660555 0
M  V30 43802 H 4152.55 -0.218998 -2.04229 0
M  V30 43803 H 4150.78 1.99869 -3.31043 0
M  V30 43804 H 4152.47 1.76252 -3.65637 0
M  V30 43805 H 4153.23 -0.425396 -4.83131 0
M  V30 43806 H 4149.11 0.7671 -4.54573 0
M  V30 43807 H 4152.65 -1.92667 -6.70466 0
M  V30 43808 H 4148.55 -0.72673 -6.41396 0
M  V30 43809 H 4149.32 -2.18969 -7.88666 0
M  V30 43810 N 4151.98 1.5696 0.141838 0
M  V30 43811 C 4152.91 2.01687 1.17663 0
M  V30 43812 C 4153.89 0.897308 1.44507 0
M  V30 43813 O 4155.08 1.16547 1.5534 0
M  V30 43814 C 4152.21 2.40186 2.50854 0
M  V30 43815 C 4151.16 3.55376 2.38521 0
M  V30 43816 C 4150.49 3.79704 3.76469 0
M  V30 43817 C 4151.79 4.8787 1.86493 0
M  V30 43818 H 4153.48 2.88383 0.804711 0
M  V30 43819 H 4151.03 1.3874 0.385648 0
M  V30 43820 H 4152.98 2.70077 3.23475 0
M  V30 43821 H 4151.71 1.50433 2.89892 0
M  V30 43822 H 4150.36 3.25658 1.68351 0
M  V30 43823 H 4150.01 2.87193 4.12952 0
M  V30 43824 H 4149.71 4.57227 3.69077 0
M  V30 43825 H 4151.24 4.12025 4.50631 0
M  V30 43826 H 4152.65 5.16445 2.48912 0
M  V30 43827 H 4151.05 5.69235 1.89979 0
M  V30 43828 H 4152.12 4.779 0.820941 0
M  V30 43829 N 4153.46 -0.411345 1.52137 0
M  V30 43830 C 4154.39 -1.50793 1.7828 0
M  V30 43831 C 4155.37 -1.57856 0.633671 0
M  V30 43832 O 4156.56 -1.73166 0.879042 0
M  V30 43833 C 4153.69 -2.88637 1.93147 0
M  V30 43834 C 4152.64 -2.96426 3.08733 0
M  V30 43835 C 4151.97 -4.36503 3.08819 0
M  V30 43836 C 4153.27 -2.68114 4.48232 0
M  V30 43837 H 4154.96 -1.29167 2.70104 0
M  V30 43838 H 4152.51 -0.619943 1.29972 0
M  V30 43839 H 4154.46 -3.65336 2.10018 0
M  V30 43840 H 4153.18 -3.11553 0.979923 0
M  V30 43841 H 4151.84 -2.22172 2.91608 0
M  V30 43842 H 4151.49 -4.56424 2.11391 0
M  V30 43843 H 4151.19 -4.42639 3.86452 0
M  V30 43844 H 4152.71 -5.15139 3.27818 0
M  V30 43845 H 4154.13 -3.34536 4.65574 0
M  V30 43846 H 4152.53 -2.85628 5.27766 0
M  V30 43847 H 4153.6 -1.63564 4.56481 0
M  V30 43848 N 4154.94 -1.42722 -0.668439 0
M  V30 43849 C 4156.16 -1.4715 -1.46156 0
M  V30 43850 C 4156.59 -0.0860982 -1.87903 0
M  V30 43851 O 4155.95 0.916863 -1.56408 0
M  V30 43852 C 4156 -2.40953 -2.68279 0
M  V30 43853 O 4155.1 -1.88529 -3.66784 0
M  V30 43854 H 4154.44 -0.498319 -0.438833 0
M  V30 43855 H 4156.97 -1.87479 -0.81932 0
M  V30 43856 H 4156.98 -2.57748 -3.16275 0
M  V30 43857 H 4155.66 -3.41603 -2.37234 0
M  V30 43858 H 4154.23 -1.81321 -3.25848 0
M  V30 43859 N 4156.42 0.905358 -1.29 0
M  V30 43860 C 4157.37 2.03018 -1.13519 0
M  V30 43861 C 4158.36 1.69319 -0.052243 0
M  V30 43862 O 4159.57 1.78752 -0.21163 0
M  V30 43863 H 4155.94 0.66533 -0.350486 0
M  V30 43864 H 4157.91 2.13216 -2.08762 0
M  V30 43865 C 4156.66 3.37829 -0.82259 0
M  V30 43866 H 4155.98 3.64259 -1.64789 0
M  V30 43867 H 4157.42 4.17237 -0.754266 0
M  V30 43868 C 4155.88 3.33549 0.473974 0
M  V30 43869 O 4156.41 3.72573 1.50175 0
M  V30 43870 N 4154.62 2.86646 0.477762 0
M  V30 43871 H 4154.17 2.55085 -0.359067 0
M  V30 43872 H 4154.12 2.84165 1.34528 0
M  V30 43873 N 4157.9 1.11385 1.11495 0
M  V30 43874 C 4158.83 0.793866 2.19591 0
M  V30 43875 C 4159.81 -0.237529 1.68433 0
M  V30 43876 O 4160.99 -0.10113 1.93937 0
M  V30 43877 C 4158.12 0.23564 3.465 0
M  V30 43878 C 4157.08 1.19884 4.10867 0
M  V30 43879 C 4156.4 0.501352 5.32344 0
M  V30 43880 C 4157.7 2.5493 4.5586 0
M  V30 43881 H 4159.4 1.6977 2.46614 0
M  V30 43882 H 4156.94 0.817716 1.1853 0
M  V30 43883 H 4158.89 -0.000416201 4.214 0
M  V30 43884 H 4157.62 -0.703488 3.18934 0
M  V30 43885 H 4156.28 1.42052 3.3796 0
M  V30 43886 H 4155.93 -0.442564 5.01049 0
M  V30 43887 H 4155.63 1.14377 5.76361 0
M  V30 43888 H 4157.15 0.274075 6.09985 0
M  V30 43889 H 4158.56 2.36854 5.22085 0
M  V30 43890 H 4156.96 3.15148 5.10688 0
M  V30 43891 H 4158.03 3.14195 3.69336 0
M  V30 43892 N 4159.37 -1.2909 0.904076 0
M  V30 43893 C 4160.32 -2.27591 0.38355 0
M  V30 43894 C 4161.29 -1.57189 -0.536731 0
M  V30 43895 O 4162.48 -1.85146 -0.461025 0
M  V30 43896 C 4159.62 -3.43013 -0.37899 0
M  V30 43897 C 4158.73 -4.28187 0.572686 0
M  V30 43898 C 4157.86 -5.30795 -0.207341 0
M  V30 43899 C 4156.9 -6.07628 0.738577 0
M  V30 43900 N 4156.04 -7.021 -0.00731897 0
M  V30 43901 H 4160.88 -2.71495 1.2286 0
M  V30 43902 H 4158.42 -1.33527 0.617169 0
M  V30 43903 H 4160.37 -4.08714 -0.837198 0
M  V30 43904 H 4159 -3.00126 -1.18846 0
M  V30 43905 H 4158.06 -3.62619 1.14942 0
M  V30 43906 H 4159.37 -4.81654 1.29657 0
M  V30 43907 H 4158.52 -6.02334 -0.72655 0
M  V30 43908 H 4157.26 -4.78071 -0.964333 0
M  V30 43909 H 4156.27 -5.34949 1.26925 0
M  V30 43910 H 4157.49 -6.62441 1.49497 0
M  V30 43911 H 4155.44 -6.51739 -0.746498 0
M  V30 43912 H 4155.35 -7.53144 0.656571 0
M  V30 43913 H 4156.62 -7.77852 -0.506648 0
M  V30 43914 N 4160.85 -0.66702 -1.42789 0
M  V30 43915 C 4162.1 -0.185698 -2.01245 0
M  V30 43916 C 4162.42 1.20937 -1.52968 0
M  V30 43917 O 4161.69 1.81055 -0.748068 0
M  V30 43918 H 4160.27 -0.0656615 -0.744109 0
M  V30 43919 H 4162.93 -0.861785 -1.74812 0
M  V30 43920 H 4162.03 -0.18096 -3.11575 0
M  V30 43921 N 4162.33 1.52178 -0.409833 0
M  V30 43922 C 4163.58 2.01007 0.167078 0
M  V30 43923 C 4163.89 1.29982 1.46164 0
M  V30 43924 O 4165.1 1.69631 2.11985 0
M  V30 43925 C 4163.55 3.58211 0.348304 0
M  V30 43926 C 4163.16 4.38151 -0.934208 0
M  V30 43927 C 4164.91 4.15269 0.880469 0
M  V30 43928 C 4162.81 5.86999 -0.720132 0
M  V30 43929 H 4161.74 0.751087 0.0662137 0
M  V30 43930 H 4164.39 1.75516 -0.535386 0
M  V30 43931 H 4162.78 3.80034 1.11312 0
M  V30 43932 H 4163.95 4.28087 -1.70522 0
M  V30 43933 H 4162.26 3.92414 -1.39284 0
M  V30 43934 H 4164.86 5.24155 1.05668 0
M  V30 43935 H 4165.2 3.72669 1.85535 0
M  V30 43936 H 4165.74 3.97416 0.174696 0
M  V30 43937 H 4162.48 6.3396 -1.6666 0
M  V30 43938 H 4162 5.99799 0.0115748 0
M  V30 43939 H 4163.68 6.45983 -0.362584 0
M  V30 43940 N 4163.81 0.140278 1.56974 0
M  V30 43941 C 4164.77 -0.787802 2.15235 0
M  V30 43942 C 4165.77 -1.17992 1.09245 0
M  V30 43943 O 4166.96 -1.10195 1.34918 0
M  V30 43944 C 4164.09 -2.06816 2.70998 0
M  V30 43945 H 4165.29 -0.281113 2.9858 0
M  V30 43946 H 4162.84 -0.109123 1.55919 0
M  V30 43947 H 4163.57 -2.61867 1.91301 0
M  V30 43948 H 4163.36 -1.79627 3.48535 0
M  V30 43949 H 4164.85 -2.73115 3.15908 0
M  V30 43950 N 4165.29 -1.57033 -0.133512 0
M  V30 43951 C 4166.24 -1.95696 -1.16992 0
M  V30 43952 C 4167.22 -0.829975 -1.37841 0
M  V30 43953 O 4168.41 -1.09356 -1.39177 0
M  V30 43954 C 4165.54 -2.35254 -2.50021 0
M  V30 43955 C 4164.63 -3.54554 -2.32707 0
M  V30 43956 N 4165.02 -4.70685 -1.85175 0
M  V30 43957 C 4163.32 -3.59902 -2.63413 0
M  V30 43958 C 4164.02 -5.5275 -1.81225 0
M  V30 43959 N 4162.99 -4.94833 -2.25037 0
M  V30 43960 H 4166.79 -2.82951 -0.79473 0
M  V30 43961 H 4164.31 -1.5877 -0.341425 0
M  V30 43962 H 4166.31 -2.61163 -3.2496 0
M  V30 43963 H 4164.97 -1.49357 -2.8831 0
M  V30 43964 H 4165.98 -4.94181 -1.54937 0
M  V30 43965 H 4162.65 -2.84578 -3.05486 0
M  V30 43966 H 4164.04 -6.55878 -1.45853 0
M  V30 43967 N 4166.76 0.403271 -1.52353 0
M  V30 43968 C 4168 1.15878 -1.68379 0
M  V30 43969 C 4168.37 1.87619 -0.407818 0
M  V30 43970 O 4169.57 2.65103 -0.444256 0
M  V30 43971 C 4167.84 2.1222 -2.87571 0
M  V30 43972 S 4169.4 2.958 -3.24111 0
M  V30 43973 H 4166.22 0.392472 -0.592863 0
M  V30 43974 H 4168.82 0.445241 -1.90362 0
M  V30 43975 H 4167.52 1.58213 -3.78678 0
M  V30 43976 H 4167.05 2.88105 -2.67879 0
M  V30 43977 H 4169.07 4.14225 -2.73188 0
M  V30 43978 N 4168.24 1.43075 0.66086 0
M  V30 43979 C 4169.49 1.445 1.42294 0
M  V30 43980 C 4169.82 0.0661935 1.94087 0
M  V30 43981 O 4169.1 -0.911775 1.71805 0
M  V30 43982 C 4169.38 2.48105 2.60991 0
M  V30 43983 C 4169.23 3.95231 2.14739 0
M  V30 43984 C 4170.55 2.48533 3.63207 0
M  V30 43985 H 4167.67 0.526165 0.516062 0
M  V30 43986 H 4170.31 1.74577 0.749866 0
M  V30 43987 H 4168.46 2.22588 3.18413 0
M  V30 43988 H 4170.13 4.31777 1.62377 0
M  V30 43989 H 4168.38 4.08428 1.46181 0
M  V30 43990 H 4169.05 4.63323 3.0006 0
M  V30 43991 H 4171.52 2.71257 3.15529 0
M  V30 43992 H 4170.4 3.22979 4.4382 0
M  V30 43993 H 4170.66 1.51633 4.15283 0
M  V30 43994 N 4169.72 -0.898504 1.29478 0
M  V30 43995 C 4170.67 -2.02413 1.14594 0
M  V30 43996 C 4171.66 -1.69289 0.0612217 0
M  V30 43997 O 4172.87 -1.78637 0.221107 0
M  V30 43998 H 4169.24 -0.663462 0.354009 0
M  V30 43999 H 4171.21 -2.12106 2.0989 0
M  V30 44000 C 4169.96 -3.37388 0.840495 0
M  V30 44001 H 4169.29 -3.6338 1.66719 0
M  V30 44002 H 4170.73 -4.16831 0.776383 0
M  V30 44003 C 4169.19 -3.33796 -0.456278 0
M  V30 44004 O 4169.72 -3.73364 -1.48197 0
M  V30 44005 N 4167.92 -2.86895 -0.462554 0
M  V30 44006 H 4167.47 -2.54891 0.37259 0
M  V30 44007 H 4167.43 -2.84874 -1.33019 0
M  V30 44008 N 4171.2 -1.11974 -1.10903 0
M  V30 44009 C 4172.45 -0.866785 -1.82126 0
M  V30 44010 C 4172.76 0.609339 -1.85867 0
M  V30 44011 O 4173.97 0.978736 -2.53245 0
M  V30 44012 C 4172.42 -1.50099 -3.27106 0
M  V30 44013 C 4172.03 -3.01155 -3.31677 0
M  V30 44014 C 4173.77 -1.3281 -4.0319 0
M  V30 44015 C 4171.68 -3.57533 -4.71089 0
M  V30 44016 H 4170.61 -0.320616 -0.682438 0
M  V30 44017 H 4173.26 -1.34566 -1.24757 0
M  V30 44018 H 4171.64 -0.94978 -3.84441 0
M  V30 44019 H 4172.82 -3.62727 -2.84193 0
M  V30 44020 H 4171.13 -3.17784 -2.69077 0
M  V30 44021 H 4173.73 -1.72357 -5.06159 0
M  V30 44022 H 4174.07 -0.271254 -4.15415 0
M  V30 44023 H 4174.61 -1.84826 -3.52256 0
M  V30 44024 H 4171.35 -4.62955 -4.64061 0
M  V30 44025 H 4170.87 -3.00734 -5.1896 0
M  V30 44026 H 4172.54 -3.56304 -5.40052 0
M  V30 44027 N 4172.68 1.28609 -0.910909 0
M  V30 44028 C 4173.63 2.25005 -0.368333 0
M  V30 44029 C 4174.61 1.52336 0.517943 0
M  V30 44030 O 4175.8 1.73339 0.358129 0
M  V30 44031 C 4172.93 3.41043 0.393036 0
M  V30 44032 C 4172.02 4.21037 -0.508798 0
M  V30 44033 N 4172.41 4.79118 -1.62111 0
M  V30 44034 C 4170.71 4.44931 -0.308656 0
M  V30 44035 C 4171.41 5.3928 -2.18064 0
M  V30 44036 N 4170.38 5.23283 -1.47226 0
M  V30 44037 H 4174.19 2.6748 -1.21786 0
M  V30 44038 H 4171.7 1.43347 -0.763237 0
M  V30 44039 H 4173.7 4.0918 0.798564 0
M  V30 44040 H 4172.36 3.00103 1.23969 0
M  V30 44041 H 4173.37 4.77568 -2.00372 0
M  V30 44042 H 4170.04 4.14511 0.498717 0
M  V30 44043 H 4171.43 5.95269 -3.11616 0
M  V30 44044 N 4174.15 0.674583 1.42433 0
M  V30 44045 C 4175.38 0.203581 2.06398 0
M  V30 44046 C 4175.8 -1.13038 1.50347 0
M  V30 44047 O 4175.16 -1.70301 0.621867 0
M  V30 44048 C 4175.21 0.148947 3.60292 0
M  V30 44049 O 4174.31 -0.882596 4.02845 0
M  V30 44050 H 4173.66 0.104684 0.655696 0
M  V30 44051 H 4176.19 0.923534 1.82571 0
M  V30 44052 H 4176.2 -0.0272658 4.07991 0
M  V30 44053 H 4174.87 1.12263 4.00462 0
M  V30 44054 H 4173.45 -0.677442 3.66695 0
M  V30 44055 N 4175.63 -1.51958 0.417898 0
M  V30 44056 C 4176.56 -2.24961 -0.438775 0
M  V30 44057 C 4177.58 -1.28248 -1.00281 0
M  V30 44058 O 4178.77 -1.54135 -0.900261 0
M  V30 44059 C 4175.87 -2.97473 -1.62366 0
M  V30 44060 C 4175.04 -4.21128 -1.18196 0
M  V30 44061 C 4174.1 -4.76388 -2.23475 0
M  V30 44062 O 4173.12 -5.3874 -1.83706 0
M  V30 44063 N 4174.33 -4.58723 -3.55743 0
M  V30 44064 H 4177.09 -2.99117 0.186812 0
M  V30 44065 H 4174.65 -1.60024 0.245739 0
M  V30 44066 H 4176.64 -3.31334 -2.32379 0
M  V30 44067 H 4175.21 -2.26449 -2.15499 0
M  V30 44068 H 4174.43 -3.92982 -0.309626 0
M  V30 44069 H 4175.72 -5.01412 -0.863941 0
M  V30 44070 H 4175.12 -4.09015 -3.90798 0
M  V30 44071 H 4173.68 -4.96998 -4.21706 0
M  V30 44072 N 4177.11 -0.1486 -1.56898 0
M  V30 44073 C 4178.04 0.821489 -2.13972 0
M  V30 44074 C 4179.06 1.20964 -1.08957 0
M  V30 44075 O 4180.24 1.15343 -1.36228 0
M  V30 44076 C 4177.34 2.11399 -2.64884 0
M  V30 44077 C 4176.52 1.89296 -3.94317 0
M  V30 44078 C 4175.58 3.0255 -4.30523 0
M  V30 44079 O 4174.6 2.74172 -4.98817 0
M  V30 44080 N 4175.8 4.29765 -3.90234 0
M  V30 44081 H 4178.57 0.333683 -2.97837 0
M  V30 44082 H 4176.13 0.0349194 -1.61862 0
M  V30 44083 H 4178.12 2.86215 -2.86117 0
M  V30 44084 H 4176.69 2.51438 -1.85736 0
M  V30 44085 H 4175.91 0.98508 -3.81693 0
M  V30 44086 H 4177.2 1.71869 -4.78893 0
M  V30 44087 H 4176.6 4.55689 -3.35208 0
M  V30 44088 H 4175.16 5.01357 -4.16515 0
M  V30 44089 N 4178.59 1.57102 0.125182 0
M  V30 44090 C 4179.54 1.96314 1.15952 0
M  V30 44091 C 4180.52 0.837273 1.37399 0
M  V30 44092 O 4181.71 1.10092 1.38595 0
M  V30 44093 C 4178.84 2.36577 2.48769 0
M  V30 44094 C 4177.93 3.55783 2.30823 0
M  V30 44095 N 4178.32 4.7166 1.82676 0
M  V30 44096 C 4176.62 3.61294 2.61501 0
M  V30 44097 C 4177.32 5.53703 1.78291 0
M  V30 44098 N 4176.3 4.96019 2.2241 0
M  V30 44099 H 4180.1 2.83368 0.779713 0
M  V30 44100 H 4177.61 1.58949 0.333 0
M  V30 44101 H 4179.61 2.62883 3.23571 0
M  V30 44102 H 4178.27 1.50884 2.87514 0
M  V30 44103 H 4179.28 4.94996 1.52314 0
M  V30 44104 H 4175.96 2.86194 3.03973 0
M  V30 44105 H 4177.35 6.56643 1.42372 0
M  V30 44106 N 4180.07 -0.395186 1.52565 0
M  V30 44107 C 4181.31 -1.14251 1.67554 0
M  V30 44108 C 4181.65 -1.89797 0.411168 0
M  V30 44109 O 4180.92 -1.85308 -0.590859 0
M  V30 44110 C 4181.2 -2.12575 2.90661 0
M  V30 44111 C 4181.06 -1.40833 4.27184 0
M  V30 44112 C 4182.38 -3.13078 3.09306 0
M  V30 44113 H 4179.49 -0.413984 0.609743 0
M  V30 44114 H 4182.14 -0.426601 1.85149 0
M  V30 44115 H 4180.29 -2.73626 2.75791 0
M  V30 44116 H 4181.96 -0.82794 4.53809 0
M  V30 44117 H 4180.2 -0.710205 4.27947 0
M  V30 44118 H 4180.87 -2.12647 5.09397 0
M  V30 44119 H 4183.35 -2.62112 3.23166 0
M  V30 44120 H 4182.22 -3.79126 3.96932 0
M  V30 44121 H 4182.49 -3.81595 2.23244 0
M  V30 44122 N 4181.54 -1.43423 -0.653263 0
M  V30 44123 C 4182.47 -1.51386 -1.77776 0
M  V30 44124 C 4183.46 -0.368544 -1.6606 0
M  V30 44125 O 4184.64 -0.585753 -1.85156 0
M  V30 44126 C 4181.77 -1.4364 -3.16204 0
M  V30 44127 C 4180.72 -2.56421 -3.42684 0
M  V30 44128 C 4180.05 -2.33729 -4.80911 0
M  V30 44129 C 4181.35 -3.98668 -3.37433 0
M  V30 44130 H 4183.04 -2.45505 -1.7137 0
M  V30 44131 H 4180.59 -1.18161 -0.823041 0
M  V30 44132 H 4182.54 -1.47815 -3.94625 0
M  V30 44133 H 4181.27 -0.460259 -3.23341 0
M  V30 44134 H 4179.93 -2.51599 -2.66634 0
M  V30 44135 H 4179.57 -1.34357 -4.84724 0
M  V30 44136 H 4179.27 -3.0933 -4.99589 0
M  V30 44137 H 4180.8 -2.39687 -5.61589 0
M  V30 44138 H 4182.21 -4.04977 -4.05791 0
M  V30 44139 H 4180.61 -4.74295 -3.67647 0
M  V30 44140 H 4181.68 -4.23808 -2.35617 0
M  V30 44141 N 4183.02 0.891625 -1.29953 0
M  V30 44142 C 4184.27 1.64528 -1.18567 0
M  V30 44143 C 4184.6 1.92445 0.260506 0
M  V30 44144 O 4183.88 1.54064 1.1872 0
M  V30 44145 C 4184.16 2.98931 -2.0078 0
M  V30 44146 C 4184.01 2.78029 -3.53582 0
M  V30 44147 C 4185.33 3.99769 -1.84045 0
M  V30 44148 H 4182.45 0.597053 -0.432084 0
M  V30 44149 H 4185.09 1.03224 -1.59514 0
M  V30 44150 H 4183.24 3.51255 -1.65987 0
M  V30 44151 H 4184.91 2.32543 -3.98398 0
M  V30 44152 H 4183.16 2.12658 -3.78099 0
M  V30 44153 H 4183.83 3.73568 -4.06387 0
M  V30 44154 H 4186.3 3.56582 -2.1445 0
M  V30 44155 H 4185.18 4.91733 -2.43905 0
M  V30 44156 H 4185.44 4.34842 -0.797802 0
M  V30 44157 N 4184.5 1.12561 1.10308 0
M  V30 44158 C 4185.43 0.738403 2.15923 0
M  V30 44159 C 4186.41 -0.271071 1.60325 0
M  V30 44160 O 4187.6 -0.164713 1.87779 0
M  V30 44161 C 4184.72 0.0931571 3.38572 0
M  V30 44162 C 4183.77 1.06967 4.12868 0
M  V30 44163 S 4184.6 2.59785 4.68265 0
M  V30 44164 C 4185.76 1.96595 5.94223 0
M  V30 44165 H 4185.99 1.63302 2.48434 0
M  V30 44166 H 4183.52 0.944831 1.22116 0
M  V30 44167 H 4185.48 -0.27275 4.09593 0
M  V30 44168 H 4184.14 -0.778594 3.04297 0
M  V30 44169 H 4183.34 0.565844 5.00814 0
M  V30 44170 H 4182.94 1.37858 3.47665 0
M  V30 44171 H 4185.23 1.3095 6.64724 0
M  V30 44172 H 4186.17 2.82585 6.4927 0
M  V30 44173 H 4186.58 1.42124 5.46316 0
M  V30 44174 N 4185.98 -1.28124 0.917717 0
M  V30 44175 C 4187.22 -1.96577 0.560084 0
M  V30 44176 C 4187.58 -1.70618 -0.880541 0
M  V30 44177 O 4188.78 -2.32675 -1.34595 0
M  V30 44178 C 4187.06 -3.46765 0.865385 0
M  V30 44179 S 4188.61 -4.34472 0.614766 0
M  V30 44180 H 4185.43 -0.68017 0.2071 0
M  V30 44181 H 4188.03 -1.55568 1.18402 0
M  V30 44182 H 4186.74 -3.63154 1.91174 0
M  V30 44183 H 4186.27 -3.92726 0.230259 0
M  V30 44184 H 4188.28 -4.93339 -0.532072 0
M  V30 44185 N 4187.46 -0.682127 -1.42073 0
M  V30 44186 C 4188.42 -0.0174658 -2.29193 0
M  V30 44187 C 4189.42 0.721609 -1.43699 0
M  V30 44188 O 4190.61 0.558513 -1.65004 0
M  V30 44189 C 4187.74 0.985845 -3.26334 0
M  V30 44190 H 4188.94 -0.784367 -2.89461 0
M  V30 44191 H 4186.49 -0.444877 -1.49835 0
M  V30 44192 H 4187.22 1.78098 -2.71019 0
M  V30 44193 H 4187.01 0.459189 -3.89402 0
M  V30 44194 H 4188.5 1.44911 -3.91651 0
M  V30 44195 N 4188.94 1.51735 -0.425951 0
M  V30 44196 C 4190.16 2.06403 0.143315 0
M  V30 44197 C 4190.58 1.29448 1.37436 0
M  V30 44198 O 4189.94 0.35089 1.79095 0
M  V30 44199 C 4189.99 3.5834 0.476954 0
M  V30 44200 O 4189.71 4.32387 -0.705224 0
M  V30 44201 C 4191.21 4.29483 1.09813 0
M  V30 44202 H 4188.43 0.670875 0.0129651 0
M  V30 44203 H 4190.97 1.95446 -0.601753 0
M  V30 44204 H 4189.13 3.69249 1.17192 0
M  V30 44205 H 4189.54 5.22794 -0.422691 0
M  V30 44206 H 4191.02 5.36915 1.28166 0
M  V30 44207 H 4191.49 3.87039 2.07599 0
M  V30 44208 H 4192.1 4.22988 0.442882 0
M  V30 44209 N 4190.41 0.156919 1.56817 0
M  V30 44210 C 4191.38 -0.764929 2.16059 0
M  V30 44211 C 4192.38 -1.16827 1.1049 0
M  V30 44212 O 4193.57 -1.08757 1.36079 0
M  V30 44213 C 4190.7 -2.0393 2.73176 0
M  V30 44214 H 4191.89 -0.249429 2.98861 0
M  V30 44215 H 4189.44 -0.09258 1.56026 0
M  V30 44216 H 4190.18 -2.59823 1.94068 0
M  V30 44217 H 4189.96 -1.7592 3.5042 0
M  V30 44218 H 4191.45 -2.69749 3.18787 0
M  V30 44219 N 4191.89 -1.57166 -0.116849 0
M  V30 44220 C 4193.14 -1.84966 -0.824255 0
M  V30 44221 C 4193.47 -0.742318 -1.79777 0
M  V30 44222 O 4192.72 0.266136 -1.93882 0
M  V30 44223 C 4193.02 -3.19258 -1.60653 0
M  V30 44224 C 4192.69 -4.44153 -0.777107 0
M  V30 44225 C 4191.35 -4.78065 -0.548387 0
M  V30 44226 C 4193.7 -5.2082 -0.199105 0
M  V30 44227 C 4191.03 -5.86085 0.268553 0
M  V30 44228 C 4193.38 -6.297 0.605038 0
M  V30 44229 C 4192.04 -6.62142 0.844054 0
M  V30 44230 H 4191.31 -0.676837 -0.301616 0
M  V30 44231 H 4193.96 -1.91304 -0.0865488 0
M  V30 44232 H 4192.27 -3.08505 -2.4152 0
M  V30 44233 H 4193.96 -3.37989 -2.15788 0
M  V30 44234 H 4190.55 -4.17584 -0.965467 0
M  V30 44235 H 4194.74 -4.94971 -0.36302 0
M  V30 44236 H 4189.99 -6.09645 0.462933 0
M  V30 44237 H 4194.17 -6.88287 1.05989 0
M  V30 44238 H 4191.79 -7.45676 1.4789 0
M  V30 44239 N 4193.37 0.38709 -1.52772 0
M  V30 44240 C 4194.6 1.15142 -1.7154 0
M  V30 44241 C 4195.01 1.84147 -0.434358 0
M  V30 44242 O 4194.35 1.73587 0.601099 0
M  V30 44243 C 4194.41 2.24132 -2.81078 0
M  V30 44244 C 4194.08 1.75078 -4.22133 0
M  V30 44245 C 4195.07 1.22649 -5.05226 0
M  V30 44246 C 4192.76 1.81243 -4.68461 0
M  V30 44247 C 4194.75 0.77035 -6.32728 0
M  V30 44248 C 4192.44 1.35241 -5.95947 0
M  V30 44249 C 4193.44 0.83224 -6.77911 0
M  V30 44250 O 4193.13 0.378933 -8.03006 0
M  V30 44251 H 4192.86 0.351118 -0.577661 0
M  V30 44252 H 4195.41 0.458569 -2.00216 0
M  V30 44253 H 4193.64 2.96847 -2.47828 0
M  V30 44254 H 4195.33 2.85794 -2.8823 0
M  V30 44255 H 4196.1 1.17242 -4.70616 0
M  V30 44256 H 4191.98 2.20673 -4.04752 0
M  V30 44257 H 4195.52 0.363663 -6.96651 0
M  V30 44258 H 4191.42 1.40334 -6.30061 0
M  V30 44259 H 4192.18 0.500236 -8.1697 0
M  V30 44260 N 4194.85 1.43768 0.645648 0
M  V30 44261 C 4195.78 1.52327 1.76971 0
M  V30 44262 C 4196.76 0.377345 1.65862 0
M  V30 44263 O 4197.94 0.595564 1.84842 0
M  V30 44264 C 4195.07 1.45315 3.15437 0
M  V30 44265 C 4194.03 2.58235 3.41319 0
M  V30 44266 C 4193.35 2.36276 4.79664 0
M  V30 44267 C 4194.65 4.00452 3.35314 0
M  V30 44268 H 4196.35 2.46411 1.70065 0
M  V30 44269 H 4193.89 1.18596 0.816763 0
M  V30 44270 H 4195.85 1.49906 3.93835 0
M  V30 44271 H 4194.57 0.4774 3.23092 0
M  V30 44272 H 4193.23 2.5301 2.65296 0
M  V30 44273 H 4192.88 1.36926 4.84004 0
M  V30 44274 H 4192.58 3.11975 4.97941 0
M  V30 44275 H 4194.1 2.42662 5.6031 0
M  V30 44276 H 4195.52 4.07124 4.03637 0
M  V30 44277 H 4193.91 4.76238 3.65127 0
M  V30 44278 H 4194.98 4.25051 2.33366 0
M  V30 44279 N 4196.33 -0.884721 1.30424 0
M  V30 44280 C 4197.57 -1.63127 1.18627 0
M  V30 44281 C 4197.89 -1.93892 -0.257918 0
M  V30 44282 O 4199.09 -2.66905 -0.497401 0
M  V30 44283 C 4197.55 -2.94008 2.07575 0
M  V30 44284 C 4197.16 -2.70782 3.56905 0
M  V30 44285 C 4198.9 -3.71972 2.04542 0
M  V30 44286 C 4196.81 -3.9748 4.37908 0
M  V30 44287 H 4195.74 -0.612015 0.440402 0
M  V30 44288 H 4198.39 -0.979451 1.55174 0
M  V30 44289 H 4196.77 -3.60484 1.63912 0
M  V30 44290 H 4197.95 -2.12805 4.08718 0
M  V30 44291 H 4196.26 -2.06193 3.61764 0
M  V30 44292 H 4198.86 -4.65936 2.62313 0
M  V30 44293 H 4199.2 -4.03383 1.02895 0
M  V30 44294 H 4199.73 -3.12358 2.46328 0
M  V30 44295 H 4196.47 -3.71227 5.40251 0
M  V30 44296 H 4195.99 -4.54961 3.90858 0
M  V30 44297 H 4197.67 -4.65498 4.49355 0
M  V30 44298 N 4197.8 -1.13144 -1.09709 0
M  V30 44299 C 4198.71 -0.819429 -2.19824 0
M  V30 44300 C 4199.73 0.1948 -1.72906 0
M  V30 44301 O 4200.91 0.0265618 -2.01382 0
M  V30 44302 C 4197.97 -0.286778 -3.45512 0
M  V30 44303 C 4197.03 -1.36188 -4.07126 0
M  V30 44304 C 4196.26 -0.854554 -5.26814 0
M  V30 44305 O 4196.49 0.308943 -5.69563 0
M  V30 44306 O 4195.42 -1.62755 -5.79478 0
M  V30 44307 H 4199.25 -1.73933 -2.4896 0
M  V30 44308 H 4196.83 -0.908675 -1.18589 0
M  V30 44309 H 4198.71 0.00501029 -4.214 0
M  V30 44310 H 4197.39 0.605578 -3.17985 0
M  V30 44311 H 4196.3 -1.70695 -3.32888 0
M  V30 44312 H 4197.63 -2.22828 -4.38872 0
M  V30 44313 N 4199.28 1.27635 -0.924498 0
M  V30 44314 C 4200.23 2.2893 -0.411541 0
M  V30 44315 C 4201.22 1.61777 0.502444 0
M  V30 44316 O 4202.43 1.75889 0.3825 0
M  V30 44317 H 4198.81 0.743231 -0.114509 0
M  V30 44318 H 4200.78 2.69612 -1.27874 0
M  V30 44319 C 4199.53 3.46193 0.323354 0
M  V30 44320 H 4198.85 3.98077 -0.37075 0
M  V30 44321 H 4200.29 4.19038 0.646748 0
M  V30 44322 C 4198.75 2.9989 1.53518 0
M  V30 44323 O 4199.28 3.03286 2.63402 0
M  V30 44324 N 4197.48 2.55424 1.38589 0
M  V30 44325 H 4197.03 2.5286 0.491894 0
M  V30 44326 H 4196.99 2.24805 2.19796 0
M  V30 44327 N 4200.76 0.689652 1.41709 0
M  V30 44328 C 4201.99 0.226645 2.05353 0
M  V30 44329 C 4202.4 -1.12697 1.51974 0
M  V30 44330 O 4201.74 -1.7142 0.660381 0
M  V30 44331 C 4201.8 0.100373 3.5936 0
M  V30 44332 C 4201.47 1.38508 4.35505 0
M  V30 44333 C 4202.46 2.3217 4.65181 0
M  V30 44334 C 4200.15 1.63681 4.74883 0
M  V30 44335 C 4202.14 3.4927 5.33188 0
M  V30 44336 C 4199.83 2.81067 5.42627 0
M  V30 44337 C 4200.83 3.73685 5.71707 0
M  V30 44338 O 4200.52 4.89017 6.38058 0
M  V30 44339 H 4200.25 0.10431 0.667904 0
M  V30 44340 H 4202.8 0.94106 1.82574 0
M  V30 44341 H 4201.03 -0.669759 3.80856 0
M  V30 44342 H 4202.72 -0.324682 4.04599 0
M  V30 44343 H 4203.49 2.13977 4.35246 0
M  V30 44344 H 4199.37 0.924555 4.51634 0
M  V30 44345 H 4202.91 4.2158 5.55802 0
M  V30 44346 H 4198.81 2.99179 5.71981 0
M  V30 44347 H 4199.58 4.88754 6.56553 0
M  V30 44348 N 4202.24 -1.51507 0.433991 0
M  V30 44349 C 4203.65 -1.86676 -0.029908 0
M  V30 44350 C 4204 -1.35135 -1.42243 0
M  V30 44351 O 4203.13 -0.700771 -2.04739 0
M  V30 44352 C 4203.72 -3.38745 -0.0610484 0
M  V30 44353 C 4202.28 -3.73462 -0.46935 0
M  V30 44354 C 4201.43 -2.75206 0.340165 0
M  V30 44355 H 4204.38 -1.44779 0.649984 0
M  V30 44356 H 4204.4 -3.70391 -0.871233 0
M  V30 44357 H 4203.91 -3.76228 0.952577 0
M  V30 44358 H 4202.01 -3.41568 -1.4887 0
M  V30 44359 H 4202.12 -4.78697 -0.196472 0
M  V30 44360 H 4200.49 -2.53905 -0.201055 0
M  V30 44361 H 4201.27 -3.15531 1.3526 0
M  V30 44362 N 4203.72 -0.165233 -1.56731 0
M  V30 44363 C 4204.65 0.763184 -2.20676 0
M  V30 44364 C 4205.63 1.24364 -1.1605 0
M  V30 44365 O 4206.81 1.2979 -1.44458 0
M  V30 44366 C 4203.94 1.99515 -2.84273 0
M  V30 44367 C 4202.9 1.65079 -3.94884 0
M  V30 44368 C 4202.22 2.9569 -4.45501 0
M  V30 44369 C 4203.52 0.883452 -5.14774 0
M  V30 44370 H 4205.22 0.230202 -2.98514 0
M  V30 44371 H 4202.76 0.109282 -1.43585 0
M  V30 44372 H 4204.72 2.64961 -3.27679 0
M  V30 44373 H 4203.44 2.55217 -2.03794 0
M  V30 44374 H 4202.1 1.02004 -3.52123 0
M  V30 44375 H 4201.75 3.4942 -3.61821 0
M  V30 44376 H 4201.45 2.73405 -5.20119 0
M  V30 44377 H 4202.97 3.62176 -4.9159 0
M  V30 44378 H 4204.38 1.44037 -5.54911 0
M  V30 44379 H 4202.78 0.759864 -5.9527 0
M  V30 44380 H 4203.85 -0.121389 -4.84748 0
M  V30 44381 N 4205.19 1.57226 0.108512 0
M  V30 44382 C 4206.47 1.7639 0.845341 0
M  V30 44383 C 4206.85 0.743432 1.97576 0
M  V30 44384 O 4206.2 -0.230645 2.27333 0
M  V30 44385 C 4206.41 3.21734 1.35234 0
M  V30 44386 C 4207.76 3.84535 1.8005 0
M  V30 44387 O 4208.78 3.25401 1.44889 0
M  V30 44388 O 4207.64 4.88496 2.45018 0
M  V30 44389 H 4204.73 0.722603 0.402211 0
M  V30 44390 H 4207.28 1.69453 0.0914364 0
M  V30 44391 H 4206.05 3.87531 0.541798 0
M  V30 44392 H 4205.68 3.3325 2.16865 0
M  V30 44393 N 4206.67 -0.378982 1.52975 0
M  V30 44394 C 4207.92 -1.12468 1.68757 0
M  V30 44395 C 4208.25 -1.89351 0.431276 0
M  V30 44396 O 4207.53 -1.85924 -0.571171 0
M  V30 44397 C 4207.81 -2.0948 2.92899 0
M  V30 44398 C 4207.66 -1.36295 4.28654 0
M  V30 44399 C 4208.98 -3.09779 3.1261 0
M  V30 44400 H 4206.1 -0.407494 0.614099 0
M  V30 44401 H 4208.74 -0.40694 1.85591 0
M  V30 44402 H 4206.89 -2.70686 2.78678 0
M  V30 44403 H 4208.56 -0.779761 4.54662 0
M  V30 44404 H 4206.81 -0.664776 4.28676 0
M  V30 44405 H 4207.48 -2.07232 5.11624 0
M  V30 44406 H 4209.95 -2.5867 3.25928 0
M  V30 44407 H 4208.83 -3.74894 4.00931 0
M  V30 44408 H 4209.09 -3.79205 2.27279 0
M  V30 44409 N 4208.15 -1.44108 -0.638015 0
M  V30 44410 C 4209.4 -1.46239 -1.39494 0
M  V30 44411 C 4209.72 -0.0935673 -1.94775 0
M  V30 44412 O 4208.99 0.8732 -1.75363 0
M  V30 44413 H 4207.57 -0.538461 -0.517753 0
M  V30 44414 H 4210.23 -1.79832 -0.75142 0
M  V30 44415 H 4209.33 -2.18382 -2.2297 0
M  V30 44416 N 4209.63 0.877792 -1.30891 0
M  V30 44417 C 4211.04 1.44577 -1.18128 0
M  V30 44418 C 4211.39 1.95015 0.215272 0
M  V30 44419 O 4210.52 1.85615 1.11248 0
M  V30 44420 C 4211.11 2.62789 -2.1384 0
M  V30 44421 C 4209.67 3.15655 -2.05033 0
M  V30 44422 C 4208.82 1.88356 -2.03513 0
M  V30 44423 H 4211.77 0.687057 -1.43057 0
M  V30 44424 H 4211.79 3.39232 -1.72343 0
M  V30 44425 H 4211.3 2.26048 -3.15474 0
M  V30 44426 H 4209.4 3.57035 -1.06566 0
M  V30 44427 H 4209.51 3.78468 -2.93766 0
M  V30 44428 H 4207.88 2.0699 -1.48416 0
M  V30 44429 H 4208.66 1.53863 -3.06889 0
M  V30 44430 N 4211.11 1.13725 1.09108 0
M  V30 44431 C 4212.02 0.831076 2.19386 0
M  V30 44432 C 4213.03 -0.185627 1.73007 0
M  V30 44433 O 4214.21 -0.0158816 2.01394 0
M  V30 44434 C 4211.27 0.305097 3.45355 0
M  V30 44435 C 4210.33 1.38346 4.06398 0
M  V30 44436 C 4209.57 0.88248 5.26353 0
M  V30 44437 O 4209.79 -0.278733 5.69719 0
M  V30 44438 O 4208.72 1.65826 5.78606 0
M  V30 44439 H 4212.55 1.75251 2.48034 0
M  V30 44440 H 4210.14 0.914951 1.18106 0
M  V30 44441 H 4212.02 0.0173376 4.21396 0
M  V30 44442 H 4210.69 -0.588706 3.18302 0
M  V30 44443 H 4209.6 1.72458 3.31978 0
M  V30 44444 H 4210.93 2.25152 4.37684 0
M  V30 44445 N 4212.58 -1.27143 0.931254 0
M  V30 44446 C 4213.83 -1.94207 0.573561 0
M  V30 44447 C 4214.16 -1.7316 -0.885767 0
M  V30 44448 O 4213.41 -1.05601 -1.64764 0
M  V30 44449 C 4213.71 -3.47142 0.850142 0
M  V30 44450 C 4213.38 -3.88315 2.29177 0
M  V30 44451 C 4212.04 -3.99267 2.68588 0
M  V30 44452 C 4214.39 -4.09119 3.2291 0
M  V30 44453 C 4211.72 -4.28413 4.00848 0
M  V30 44454 C 4214.07 -4.39751 4.54755 0
M  V30 44455 C 4212.74 -4.48916 4.93995 0
M  V30 44456 H 4212.01 -0.710655 0.209881 0
M  V30 44457 H 4214.65 -1.51146 1.17589 0
M  V30 44458 H 4212.96 -3.91452 0.165176 0
M  V30 44459 H 4214.66 -3.97178 0.552303 0
M  V30 44460 H 4211.25 -3.8033 1.97603 0
M  V30 44461 H 4215.43 -4.00095 2.93663 0
M  V30 44462 H 4210.69 -4.33718 4.30927 0
M  V30 44463 H 4214.86 -4.54795 5.27385 0
M  V30 44464 H 4212.49 -4.71254 5.96509 0
M  V30 44465 N 4214.06 -0.697157 -1.41342 0
M  V30 44466 C 4215.29 -0.236392 -2.06048 0
M  V30 44467 C 4215.71 1.10632 -1.52126 0
M  V30 44468 O 4215.07 1.6929 -0.648882 0
M  V30 44469 C 4215.12 -0.206248 -3.6001 0
M  V30 44470 O 4214.22 0.818395 -4.04198 0
M  V30 44471 H 4213.56 -0.115102 -0.653948 0
M  V30 44472 H 4216.09 -0.952463 -1.81078 0
M  V30 44473 H 4216.1 -0.0376455 -4.07983 0
M  V30 44474 H 4214.78 -1.18619 -3.98625 0
M  V30 44475 H 4213.36 0.619018 -3.67726 0
M  V30 44476 N 4215.54 1.51274 -0.44202 0
M  V30 44477 C 4216.5 2.26427 0.355462 0
M  V30 44478 C 4217.5 1.30052 0.945677 0
M  V30 44479 O 4218.69 1.53726 0.819395 0
M  V30 44480 C 4215.83 3.0596 1.50338 0
M  V30 44481 H 4217.02 2.98363 -0.30323 0
M  V30 44482 H 4214.57 1.55075 -0.195306 0
M  V30 44483 H 4215.31 2.38451 2.19799 0
M  V30 44484 H 4215.09 3.76752 1.08629 0
M  V30 44485 H 4216.58 3.62874 2.06669 0
M  V30 44486 N 4217.02 0.173543 1.56642 0
M  V30 44487 C 4218.24 -0.480214 2.01764 0
M  V30 44488 C 4218.67 -1.55866 1.05297 0
M  V30 44489 O 4218.03 -1.8127 0.0328787 0
M  V30 44490 C 4218.08 -1.03343 3.45475 0
M  V30 44491 O 4217.18 -2.14733 3.52084 0
M  V30 44492 H 4216.52 -0.114732 0.654013 0
M  V30 44493 H 4219.05 0.278087 2.02701 0
M  V30 44494 H 4219.06 -1.35547 3.84826 0
M  V30 44495 H 4217.74 -0.243829 4.15185 0
M  V30 44496 H 4216.31 -1.83556 3.24595 0
M  V30 44497 N 4218.5 -1.57281 -0.100172 0
M  V30 44498 C 4219.75 -1.85015 -0.803263 0
M  V30 44499 C 4220.06 -0.762049 -1.80145 0
M  V30 44500 O 4221.27 -0.926356 -2.55208 0
M  V30 44501 C 4219.72 -3.2809 -1.47936 0
M  V30 44502 C 4219.33 -4.44958 -0.521203 0
M  V30 44503 C 4221.07 -3.65053 -2.16648 0
M  V30 44504 C 4218.98 -5.79064 -1.2016 0
M  V30 44505 H 4217.91 -0.690118 -0.303732 0
M  V30 44506 H 4220.56 -1.83414 -0.0561497 0
M  V30 44507 H 4218.94 -3.24216 -2.27376 0
M  V30 44508 H 4220.12 -4.60168 0.24133 0
M  V30 44509 H 4218.43 -4.16357 0.0599426 0
M  V30 44510 H 4221.03 -4.62527 -2.68278 0
M  V30 44511 H 4221.37 -2.93423 -2.95311 0
M  V30 44512 H 4221.91 -3.70793 -1.44075 0
M  V30 44513 H 4218.64 -6.53913 -0.455886 0
M  V30 44514 H 4218.16 -5.67707 -1.93569 0
M  V30 44515 H 4219.84 -6.23455 -1.72952 0
M  V30 44516 N 4219.98 0.370864 -1.53174 0
M  V30 44517 C 4221.22 1.11134 -1.68321 0
M  V30 44518 C 4221.54 1.90615 -0.438776 0
M  V30 44519 O 4222.74 2.67389 -0.470695 0
M  V30 44520 C 4221.2 2.02486 -2.97536 0
M  V30 44521 C 4220.81 1.28342 -4.29223 0
M  V30 44522 C 4222.55 2.76558 -3.2205 0
M  V30 44523 C 4220.46 2.18565 -5.4953 0
M  V30 44524 H 4219.39 0.418586 -0.627138 0
M  V30 44525 H 4222.04 0.372733 -1.79675 0
M  V30 44526 H 4220.42 2.80056 -2.79972 0
M  V30 44527 H 4221.6 0.558714 -4.574 0
M  V30 44528 H 4219.91 0.661542 -4.11111 0
M  V30 44529 H 4222.51 3.44278 -4.09117 0
M  V30 44530 H 4222.85 3.41637 -2.37887 0
M  V30 44531 H 4223.38 2.06073 -3.40263 0
M  V30 44532 H 4220.12 1.58072 -6.36155 0
M  V30 44533 H 4219.64 2.889 -5.2564 0
M  V30 44534 H 4221.32 2.78242 -5.84115 0
M  V30 44535 N 4221.45 1.44444 0.630363 0
M  V30 44536 C 4222.39 1.47357 1.75552 0
M  V30 44537 C 4223.4 0.366874 1.58612 0
M  V30 44538 O 4224.59 0.632658 1.66912 0
M  V30 44539 C 4221.69 1.29255 3.13283 0
M  V30 44540 C 4220.86 2.53184 3.56674 0
M  V30 44541 C 4219.92 2.2997 4.73286 0
M  V30 44542 O 4218.95 3.03462 4.81559 0
M  V30 44543 N 4220.15 1.33078 5.6504 0
M  V30 44544 H 4222.91 2.44355 1.73524 0
M  V30 44545 H 4220.47 1.39893 0.814952 0
M  V30 44546 H 4222.47 1.11571 3.89017 0
M  V30 44547 H 4221.04 0.406181 3.0995 0
M  V30 44548 H 4220.26 2.8614 2.71141 0
M  V30 44549 H 4221.54 3.35612 3.82416 0
M  V30 44550 H 4220.94 0.723831 5.6105 0
M  V30 44551 H 4219.5 1.21373 6.404 0
M  V30 44552 N 4222.93 -0.870838 1.31355 0
M  V30 44553 C 4223.86 -1.98109 1.13262 0
M  V30 44554 C 4224.84 -1.62559 0.0363564 0
M  V30 44555 O 4226.03 -1.87513 0.192614 0
M  V30 44556 C 4223.15 -3.3073 0.730419 0
M  V30 44557 C 4222.2 -3.85264 1.82959 0
M  V30 44558 S 4223.03 -4.10826 3.43486 0
M  V30 44559 C 4224.19 -5.46446 3.05201 0
M  V30 44560 H 4224.42 -2.13153 2.07251 0
M  V30 44561 H 4221.95 -1.02091 1.15831 0
M  V30 44562 H 4223.91 -4.0738 0.505115 0
M  V30 44563 H 4222.57 -3.13523 -0.19035 0
M  V30 44564 H 4221.77 -4.81137 1.50079 0
M  V30 44565 H 4221.37 -3.15402 2.00991 0
M  V30 44566 H 4223.66 -6.28068 2.5404 0
M  V30 44567 H 4224.6 -5.84276 4.00034 0
M  V30 44568 H 4225.01 -5.09679 2.42668 0
M  V30 44569 N 4224.41 -1.14302 -1.08503 0
M  V30 44570 C 4225.65 -0.92099 -1.82475 0
M  V30 44571 C 4226.01 0.542737 -1.84169 0
M  V30 44572 O 4227.21 0.882671 -2.53894 0
M  V30 44573 C 4225.49 -1.50423 -3.24203 0
M  V30 44574 S 4227.04 -1.42363 -4.15064 0
M  V30 44575 H 4223.86 -0.331737 -0.628865 0
M  V30 44576 H 4226.46 -1.45632 -1.30428 0
M  V30 44577 H 4225.17 -2.56271 -3.20551 0
M  V30 44578 H 4224.7 -0.967254 -3.81324 0
M  V30 44579 H 4226.71 -0.408493 -4.94516 0
M  V30 44580 N 4225.89 1.26648 -0.937984 0
M  V30 44581 C 4227.14 1.93518 -0.582699 0
M  V30 44582 C 4227.46 1.73986 0.880565 0
M  V30 44583 O 4226.73 1.0936 1.62533 0
M  V30 44584 H 4225.31 0.716133 -0.212514 0
M  V30 44585 H 4227.97 1.54152 -1.19261 0
M  V30 44586 H 4227.06 3.01732 -0.797745 0
M  V30 44587 N 4227.37 0.704643 1.4097 0
M  V30 44588 C 4228.61 0.239817 2.01377 0
M  V30 44589 C 4228.94 -1.16049 1.55712 0
M  V30 44590 O 4228.22 -1.78509 0.772309 0
M  V30 44591 C 4228.5 0.307619 3.58784 0
M  V30 44592 C 4228.36 1.74551 4.1455 0
M  V30 44593 C 4229.67 -0.327439 4.3888 0
M  V30 44594 H 4226.79 0.0886159 0.731653 0
M  V30 44595 H 4229.44 0.895078 1.67596 0
M  V30 44596 H 4227.59 -0.250292 3.87693 0
M  V30 44597 H 4229.26 2.35797 3.96482 0
M  V30 44598 H 4227.5 2.27677 3.6925 0
M  V30 44599 H 4228.17 1.74442 5.23712 0
M  V30 44600 H 4230.65 0.14781 4.15837 0
M  V30 44601 H 4229.52 -0.249498 5.48333 0
M  V30 44602 H 4229.78 -1.40944 4.19031 0
M  V30 44603 N 4228.84 -1.51038 0.450036 0
M  V30 44604 C 4229.78 -2.24658 -0.400491 0
M  V30 44605 C 4230.76 -1.27104 -1.01407 0
M  V30 44606 O 4231.94 -1.56273 -1.05408 0
M  V30 44607 C 4229.07 -3.00673 -1.55928 0
M  V30 44608 C 4228.11 -4.12985 -1.06515 0
M  V30 44609 S 4228.95 -5.355 0.003141 0
M  V30 44610 C 4230.1 -6.15056 -1.16002 0
M  V30 44611 H 4230.33 -2.96451 0.224505 0
M  V30 44612 H 4227.87 -1.52606 0.23468 0
M  V30 44613 H 4229.83 -3.45065 -2.22352 0
M  V30 44614 H 4228.49 -2.28446 -2.15572 0
M  V30 44615 H 4227.68 -4.65497 -1.93205 0
M  V30 44616 H 4227.28 -3.70921 -0.478947 0
M  V30 44617 H 4229.57 -6.44913 -2.07589 0
M  V30 44618 H 4230.52 -7.04879 -0.674598 0
M  V30 44619 H 4230.92 -5.46753 -1.40432 0
M  V30 44620 N 4230.32 -0.181847 -1.56547 0
M  V30 44621 C 4231.25 0.739735 -2.21473 0
M  V30 44622 C 4232.23 1.23126 -1.17363 0
M  V30 44623 O 4233.42 1.28251 -1.45827 0
M  V30 44624 C 4230.55 1.96489 -2.86373 0
M  V30 44625 C 4229.5 1.60881 -3.96612 0
M  V30 44626 C 4228.83 2.90949 -4.48612 0
M  V30 44627 C 4230.13 0.828804 -5.15682 0
M  V30 44628 H 4231.82 0.198527 -2.98741 0
M  V30 44629 H 4229.37 0.0940473 -1.43693 0
M  V30 44630 H 4231.32 2.61471 -3.30471 0
M  V30 44631 H 4230.05 2.53041 -2.06489 0
M  V30 44632 H 4228.7 0.982631 -3.53185 0
M  V30 44633 H 4228.35 3.45563 -3.65507 0
M  V30 44634 H 4228.05 2.67873 -5.22989 0
M  V30 44635 H 4229.58 3.56942 -4.95404 0
M  V30 44636 H 4230.99 1.38144 -5.56407 0
M  V30 44637 H 4229.39 0.696685 -5.96042 0
M  V30 44638 H 4230.46 -0.172796 -4.84592 0
M  V30 44639 N 4231.8 1.57332 0.09183 0
M  V30 44640 C 4233.03 1.90842 0.812047 0
M  V30 44641 C 4233.45 0.776424 1.71328 0
M  V30 44642 O 4232.81 -0.271836 1.79251 0
M  V30 44643 C 4232.86 3.23228 1.59862 0
M  V30 44644 O 4231.96 3.11048 2.70781 0
M  V30 44645 H 4231.3 0.625478 0.222875 0
M  V30 44646 H 4233.83 2.04493 0.0660759 0
M  V30 44647 H 4233.84 3.56616 1.98214 0
M  V30 44648 H 4232.52 4.05202 0.937225 0
M  V30 44649 H 4231.09 2.89181 2.35433 0
M  V30 44650 N 4233.28 -0.362736 1.53369 0
M  V30 44651 C 4234.53 -1.10289 1.69354 0
M  V30 44652 C 4234.85 -1.89751 0.4494 0
M  V30 44653 O 4234.12 -1.88408 -0.536575 0
M  V30 44654 H 4232.7 -0.410151 0.624328 0
M  V30 44655 H 4235.36 -0.40866 1.90568 0
M  V30 44656 H 4234.46 -1.7911 2.55589 0
M  V30 44657 N 4234.76 -1.44777 -0.622694 0
M  V30 44658 C 4235.98 -1.51726 -1.414 0
M  V30 44659 C 4236.41 -0.145835 -1.87534 0
M  V30 44660 O 4235.76 0.866639 -1.59245 0
M  V30 44661 C 4235.81 -2.49367 -2.60478 0
M  V30 44662 O 4234.92 -2.00102 -3.60601 0
M  V30 44663 H 4234.26 -0.512028 -0.422757 0
M  V30 44664 H 4236.79 -1.89991 -0.759261 0
M  V30 44665 H 4236.8 -2.67679 -3.07915 0
M  V30 44666 H 4235.47 -3.48978 -2.26247 0
M  V30 44667 H 4234.05 -1.91596 -3.19915 0
M  V30 44668 N 4236.23 0.863859 -1.31815 0
M  V30 44669 C 4237.14 2.0041 -1.21955 0
M  V30 44670 C 4238.16 1.73475 -0.135 0
M  V30 44671 O 4239.34 1.98265 -0.353954 0
M  V30 44672 C 4236.4 3.33892 -0.933658 0
M  V30 44673 C 4235.46 3.74109 -2.10572 0
M  V30 44674 C 4234.7 5.01221 -1.83338 0
M  V30 44675 O 4234.92 5.65159 -0.771459 0
M  V30 44676 O 4233.85 5.38351 -2.69187 0
M  V30 44677 H 4237.68 2.11663 -2.1779 0
M  V30 44678 H 4235.26 0.993106 -1.11614 0
M  V30 44679 H 4237.15 4.13923 -0.790324 0
M  V30 44680 H 4235.82 3.237 -0.00538803 0
M  V30 44681 H 4234.73 2.94694 -2.30448 0
M  V30 44682 H 4236.06 3.88935 -3.01646 0
M  V30 44683 N 4237.71 1.14875 1.07895 0
M  V30 44684 C 4238.62 0.854298 2.18492 0
M  V30 44685 C 4239.64 -0.167267 1.73194 0
M  V30 44686 O 4240.81 0.00547977 2.01399 0
M  V30 44687 C 4237.88 0.341709 3.45012 0
M  V30 44688 C 4236.94 1.42648 4.04907 0
M  V30 44689 C 4236.17 0.938258 5.25388 0
M  V30 44690 O 4236.4 -0.218291 5.69982 0
M  V30 44691 O 4235.33 1.71954 5.76815 0
M  V30 44692 H 4239.16 1.77872 2.46161 0
M  V30 44693 H 4236.74 0.927426 1.17129 0
M  V30 44694 H 4238.62 0.0620314 4.21354 0
M  V30 44695 H 4237.3 -0.554913 3.18908 0
M  V30 44696 H 4236.21 1.75969 3.3013 0
M  V30 44697 H 4237.54 2.29782 4.35271 0
M  V30 44698 N 4239.19 -1.26148 0.944687 0
M  V30 44699 C 4240.42 -1.98212 0.610486 0
M  V30 44700 C 4240.84 -1.69844 -0.808372 0
M  V30 44701 O 4240.2 -0.948518 -1.54508 0
M  V30 44702 C 4240.25 -3.50112 0.863379 0
M  V30 44703 O 4239.35 -4.12352 -0.0627765 0
M  V30 44704 H 4238.69 -0.621721 0.23315 0
M  V30 44705 H 4241.22 -1.60525 1.26858 0
M  V30 44706 H 4241.23 -4.00364 0.785672 0
M  V30 44707 H 4239.91 -3.70089 1.89755 0
M  V30 44708 H 4238.48 -3.72841 0.0662876 0
M  V30 44709 N 4240.67 -0.712109 -1.40594 0
M  V30 44710 C 4241.9 -0.259663 -2.05264 0
M  V30 44711 C 4242.31 1.09725 -1.53642 0
M  V30 44712 O 4241.67 1.68891 -0.69153 0
M  V30 44713 C 4241.72 -0.226994 -3.60787 0
M  V30 44714 O 4241.44 -1.53032 -4.10503 0
M  V30 44715 C 4242.94 0.244429 -4.42626 0
M  V30 44716 H 4240.16 -0.117377 -0.660654 0
M  V30 44717 H 4242.71 -0.96934 -1.80067 0
M  V30 44718 H 4240.86 0.433622 -3.84966 0
M  V30 44719 H 4241.27 -1.42847 -5.04673 0
M  V30 44720 H 4242.75 0.216144 -5.51577 0
M  V30 44721 H 4243.23 1.28603 -4.1995 0
M  V30 44722 H 4243.83 -0.385784 -4.23547 0
M  V30 44723 N 4242.15 1.50797 -0.45804 0
M  V30 44724 C 4243.56 1.867 0.000205702 0
M  V30 44725 C 4243.91 1.3738 1.40075 0
M  V30 44726 O 4243.03 0.733255 2.03598 0
M  V30 44727 C 4243.63 3.38799 0.00714928 0
M  V30 44728 C 4242.19 3.74162 0.409876 0
M  V30 44729 C 4241.33 2.7463 -0.383904 0
M  V30 44730 H 4244.29 1.43726 -0.672935 0
M  V30 44731 H 4244.31 3.71731 0.812197 0
M  V30 44732 H 4243.82 3.74665 -1.01231 0
M  V30 44733 H 4241.92 3.43893 1.43417 0
M  V30 44734 H 4242.03 4.78949 0.12029 0
M  V30 44735 H 4240.4 2.54193 0.160635 0
M  V30 44736 H 4241.18 3.13339 -1.40263 0
M  V30 44737 N 4243.63 0.190147 1.56449 0
M  V30 44738 C 4244.85 -0.458787 2.02262 0
M  V30 44739 C 4245.28 -1.5474 1.06944 0
M  V30 44740 O 4244.63 -1.81225 0.0521029 0
M  V30 44741 C 4244.68 -0.996725 3.46551 0
M  V30 44742 O 4243.79 -2.10987 3.54342 0
M  V30 44743 H 4243.13 -0.107789 0.655193 0
M  V30 44744 H 4245.66 0.299571 2.02395 0
M  V30 44745 H 4245.67 -1.31458 3.86242 0
M  V30 44746 H 4244.34 -0.199779 4.1542 0
M  V30 44747 H 4242.92 -1.80103 3.26523 0
M  V30 44748 N 4245.1 -1.57379 -0.083485 0
M  V30 44749 C 4246.35 -1.85857 -0.783594 0
M  V30 44750 C 4246.67 -0.781113 -1.79326 0
M  V30 44751 O 4247.87 -0.953372 -2.54211 0
M  V30 44752 C 4246.33 -3.2964 -1.44448 0
M  V30 44753 C 4245.94 -4.45486 -0.47398 0
M  V30 44754 C 4247.68 -3.67331 -2.12764 0
M  V30 44755 C 4245.59 -5.80306 -1.14012 0
M  V30 44756 H 4244.52 -0.693301 -0.296395 0
M  V30 44757 H 4247.17 -1.83463 -0.036693 0
M  V30 44758 H 4245.55 -3.2661 -2.23924 0
M  V30 44759 H 4246.72 -4.59886 0.290123 0
M  V30 44760 H 4245.04 -4.1627 0.104099 0
M  V30 44761 H 4247.64 -4.65346 -2.63357 0
M  V30 44762 H 4247.98 -2.96539 -2.92182 0
M  V30 44763 H 4248.51 -3.723 -1.40134 0
M  V30 44764 H 4245.25 -6.5436 -0.386504 0
M  V30 44765 H 4244.77 -5.69728 -1.87537 0
M  V30 44766 H 4246.45 -6.25255 -1.6633 0
M  V30 44767 N 4246.58 0.354597 -1.53559 0
M  V30 44768 C 4247.83 1.09343 -1.69491 0
M  V30 44769 C 4248.14 1.90139 -0.458969 0
M  V30 44770 O 4249.35 2.66874 -0.499028 0
M  V30 44771 C 4247.81 1.99319 -2.99667 0
M  V30 44772 C 4247.41 1.23782 -4.3056 0
M  V30 44773 C 4249.16 2.73126 -3.24965 0
M  V30 44774 C 4247.06 2.12724 -5.51818 0
M  V30 44775 H 4245.99 0.411911 -0.631542 0
M  V30 44776 H 4248.65 0.353655 -1.8006 0
M  V30 44777 H 4247.03 2.77071 -2.82927 0
M  V30 44778 H 4248.2 0.510169 -4.57967 0
M  V30 44779 H 4246.52 0.617901 -4.1179 0
M  V30 44780 H 4249.11 3.3992 -4.12745 0
M  V30 44781 H 4249.46 3.39094 -2.41497 0
M  V30 44782 H 4249.99 2.02452 -3.42429 0
M  V30 44783 H 4246.73 1.51316 -6.37796 0
M  V30 44784 H 4246.25 2.83308 -5.28674 0
M  V30 44785 H 4247.93 2.72031 -5.87033 0
M  V30 44786 N 4248.06 1.45105 0.615008 0
M  V30 44787 C 4249.29 1.52025 1.399 0
M  V30 44788 C 4249.7 0.149146 1.88611 0
M  V30 44789 O 4249.04 -0.858193 1.62421 0
M  V30 44790 C 4249.1 2.43707 2.64286 0
M  V30 44791 C 4248.77 3.90583 2.37263 0
M  V30 44792 C 4249.76 4.80685 1.98085 0
M  V30 44793 C 4247.45 4.35434 2.50404 0
M  V30 44794 C 4249.44 6.13642 1.724 0
M  V30 44795 C 4247.13 5.68435 2.24332 0
M  V30 44796 C 4248.13 6.57358 1.85391 0
M  V30 44797 O 4247.82 7.87894 1.5962 0
M  V30 44798 H 4247.55 0.517519 0.434914 0
M  V30 44799 H 4250.1 1.90908 0.757834 0
M  V30 44800 H 4248.33 1.99781 3.31096 0
M  V30 44801 H 4250.02 2.41395 3.26318 0
M  V30 44802 H 4250.79 4.47301 1.87475 0
M  V30 44803 H 4246.67 3.66468 2.79682 0
M  V30 44804 H 4250.21 6.83009 1.4193 0
M  V30 44805 H 4246.11 6.01376 2.34557 0
M  V30 44806 H 4246.87 7.99849 1.73733 0
M  V30 44807 N 4249.54 -0.856857 1.32271 0
M  V30 44808 C 4250.49 -1.95327 1.17608 0
M  V30 44809 C 4251.47 -1.60683 0.0835785 0
M  V30 44810 O 4252.66 -1.74267 0.309858 0
M  V30 44811 C 4249.79 -3.31319 0.899028 0
M  V30 44812 C 4248.88 -3.72189 2.03312 0
M  V30 44813 N 4249.27 -3.84906 3.28148 0
M  V30 44814 C 4247.57 -4.01799 1.9358 0
M  V30 44815 C 4248.27 -4.20044 4.02415 0
M  V30 44816 N 4247.24 -4.31442 3.30694 0
M  V30 44817 H 4251.05 -2.03288 2.12253 0
M  V30 44818 H 4248.56 -1.04848 1.24019 0
M  V30 44819 H 4250.56 -4.09634 0.774935 0
M  V30 44820 H 4249.22 -3.24676 -0.0390677 0
M  V30 44821 H 4250.23 -3.69285 3.6311 0
M  V30 44822 H 4246.91 -4.03471 1.07318 0
M  V30 44823 H 4248.3 -4.3737 5.10056 0
M  V30 44824 N 4251.02 -1.15446 -1.07285 0
M  V30 44825 C 4252.26 -0.940292 -1.81488 0
M  V30 44826 C 4252.62 0.523173 -1.84735 0
M  V30 44827 O 4253.82 0.855693 -2.54816 0
M  V30 44828 C 4252.09 -1.53853 -3.22589 0
M  V30 44829 S 4253.65 -1.46758 -4.13531 0
M  V30 44830 H 4250.47 -0.338388 -0.625312 0
M  V30 44831 H 4253.07 -1.47007 -1.28876 0
M  V30 44832 H 4251.77 -2.59657 -3.17815 0
M  V30 44833 H 4251.31 -1.00764 -3.80276 0
M  V30 44834 H 4253.32 -0.46092 -4.94055 0
M  V30 44835 N 4252.49 1.25646 -0.951364 0
M  V30 44836 C 4253.46 2.24256 -0.473486 0
M  V30 44837 C 4254.46 1.5519 0.421025 0
M  V30 44838 O 4255.65 1.72821 0.218773 0
M  V30 44839 C 4252.78 3.39429 0.316307 0
M  V30 44840 H 4253.97 2.68046 -1.34504 0
M  V30 44841 H 4251.52 1.37976 -0.73432 0
M  V30 44842 H 4252.26 3.01055 1.20566 0
M  V30 44843 H 4252.04 3.90748 -0.325384 0
M  V30 44844 H 4253.53 4.12663 0.640233 0
M  V30 44845 N 4253.97 0.719555 1.40215 0
M  V30 44846 C 4254.9 0.084361 2.33348 0
M  V30 44847 C 4255.88 -0.741198 1.53102 0
M  V30 44848 O 4257.07 -0.689318 1.81555 0
M  V30 44849 C 4254.2 -0.835197 3.37108 0
M  V30 44850 C 4253.15 -0.114961 4.27846 0
M  V30 44851 C 4252.48 -1.1505 5.22176 0
M  V30 44852 C 4253.78 1.03323 5.11978 0
M  V30 44853 H 4255.47 0.862269 2.86715 0
M  V30 44854 H 4253.02 0.416098 1.37857 0
M  V30 44855 H 4254.97 -1.28898 4.01202 0
M  V30 44856 H 4253.69 -1.64505 2.82145 0
M  V30 44857 H 4252.35 0.319039 3.65209 0
M  V30 44858 H 4252 -1.95351 4.63516 0
M  V30 44859 H 4251.7 -0.673453 5.83728 0
M  V30 44860 H 4253.23 -1.6043 5.89147 0
M  V30 44861 H 4254.64 0.658622 5.69504 0
M  V30 44862 H 4253.04 1.43891 5.82594 0
M  V30 44863 H 4254.11 1.86207 4.47722 0
M  V30 44864 N 4255.45 -1.50552 0.466031 0
M  V30 44865 C 4256.87 -1.59149 0.119895 0
M  V30 44866 C 4257.07 -1.47462 -1.37322 0
M  V30 44867 O 4256.12 -1.33051 -2.14601 0
M  V30 44868 C 4257.43 -2.93241 0.665583 0
M  V30 44869 C 4258.98 -3.06624 0.628561 0
M  V30 44870 C 4259.46 -4.43283 1.15171 0
M  V30 44871 N 4260.95 -4.49681 1.1109 0
M  V30 44872 C 4261.68 -5.53803 1.48625 0
M  V30 44873 N 4261.18 -6.65204 1.93584 0
M  V30 44874 N 4262.97 -5.44319 1.4026 0
M  V30 44875 H 4255.12 -1.56393 1.43719 0
M  V30 44876 H 4257.39 -0.738809 0.594024 0
M  V30 44877 H 4257.09 -3.07254 1.71137 0
M  V30 44878 H 4256.97 -3.7705 0.10633 0
M  V30 44879 H 4259.35 -2.92262 -0.408305 0
M  V30 44880 H 4259.43 -2.24585 1.22456 0
M  V30 44881 H 4259.08 -4.58394 2.18718 0
M  V30 44882 H 4259.01 -5.23906 0.531974 0
M  V30 44883 H 4261.5 -3.6974 0.78109 0
M  V30 44884 H 4261.81 -7.40709 2.20386 0
M  V30 44885 H 4260.16 -6.66338 1.97533 0
M  V30 44886 H 4263.35 -4.56176 1.0498 0
M  V30 44887 H 4263.52 -6.25347 1.69838 0
M  V30 44888 N 4256.93 -0.198441 -1.56346 0
M  V30 44889 C 4258.18 0.438578 -1.97284 0
M  V30 44890 C 4258.5 1.6192 -1.0866 0
M  V30 44891 O 4257.77 1.95257 -0.158595 0
M  V30 44892 H 4256.35 0.165022 -0.728544 0
M  V30 44893 H 4259.01 -0.285953 -1.92791 0
M  V30 44894 H 4258.1 0.780463 -3.02184 0
M  V30 44895 N 4258.41 1.57421 0.0751377 0
M  V30 44896 C 4259.34 2.06496 1.09003 0
M  V30 44897 C 4260.32 0.957791 1.40572 0
M  V30 44898 O 4261.5 1.23031 1.50257 0
M  V30 44899 C 4258.63 2.5061 2.40441 0
M  V30 44900 C 4257.59 3.65172 2.23234 0
M  V30 44901 C 4256.91 3.9533 3.60026 0
M  V30 44902 C 4258.21 4.95341 1.65633 0
M  V30 44903 H 4259.91 2.91537 0.681673 0
M  V30 44904 H 4257.45 1.40251 0.326457 0
M  V30 44905 H 4259.41 2.83554 3.11729 0
M  V30 44906 H 4258.13 1.62593 2.83251 0
M  V30 44907 H 4256.79 3.32506 1.54387 0
M  V30 44908 H 4256.44 3.0445 4.00399 0
M  V30 44909 H 4256.14 4.72469 3.49352 0
M  V30 44910 H 4257.66 4.30767 4.3275 0
M  V30 44911 H 4259.07 5.26538 2.26783 0
M  V30 44912 H 4257.47 5.7678 1.65665 0
M  V30 44913 H 4258.54 4.80952 0.617508 0
M  V30 44914 N 4259.88 -0.346449 1.53745 0
M  V30 44915 C 4260.79 -1.4488 1.84518 0
M  V30 44916 C 4261.81 -1.5771 0.735082 0
M  V30 44917 O 4262.99 -1.73242 1.02709 0
M  V30 44918 C 4260.05 -2.79906 2.04581 0
M  V30 44919 C 4259.11 -2.76444 3.28447 0
M  V30 44920 C 4258.35 -4.0503 3.47543 0
M  V30 44921 O 4258.57 -5.02162 2.70536 0
M  V30 44922 O 4257.5 -4.09678 4.40962 0
M  V30 44923 H 4261.33 -1.21792 2.78209 0
M  V30 44924 H 4258.91 -0.538356 1.39363 0
M  V30 44925 H 4260.8 -3.59878 2.19239 0
M  V30 44926 H 4259.47 -3.02932 1.14079 0
M  V30 44927 H 4258.38 -1.95103 3.19195 0
M  V30 44928 H 4259.71 -2.58373 4.18932 0
M  V30 44929 N 4261.36 -1.45429 -0.607304 0
M  V30 44930 C 4262.78 -1.29841 -0.928087 0
M  V30 44931 C 4262.98 -0.251649 -1.99922 0
M  V30 44932 O 4262.03 0.35431 -2.50002 0
M  V30 44933 C 4263.35 -2.67742 -1.36875 0
M  V30 44934 C 4264.9 -2.75641 -1.48294 0
M  V30 44935 C 4265.37 -4.14067 -1.95735 0
M  V30 44936 N 4266.86 -4.16363 -2.02969 0
M  V30 44937 C 4267.6 -5.20341 -2.40899 0
M  V30 44938 N 4267.09 -6.34666 -2.77796 0
M  V30 44939 N 4268.89 -5.077 -2.4124 0
M  V30 44940 H 4261.04 -2.12161 0.100679 0
M  V30 44941 H 4263.3 -0.947836 -0.0176143 0
M  V30 44942 H 4263.01 -3.45531 -0.655862 0
M  V30 44943 H 4262.88 -2.96223 -2.3352 0
M  V30 44944 H 4265.27 -1.98156 -2.18674 0
M  V30 44945 H 4265.35 -2.50873 -0.499623 0
M  V30 44946 H 4264.99 -4.92037 -1.25943 0
M  V30 44947 H 4264.92 -4.36226 -2.94981 0
M  V30 44948 H 4267.41 -3.33863 -1.77043 0
M  V30 44949 H 4267.73 -7.098 -3.05621 0
M  V30 44950 H 4266.07 -6.38067 -2.75491 0
M  V30 44951 H 4269.26 -4.17432 -2.11821 0
M  V30 44952 H 4269.43 -5.88853 -2.70475 0
M  V30 44953 N 4262.84 0.84983 -1.32724 0
M  V30 44954 C 4263.77 1.97427 -1.24678 0
M  V30 44955 C 4264.75 1.69605 -0.129611 0
M  V30 44956 O 4265.94 1.91586 -0.317582 0
M  V30 44957 C 4263.07 3.33362 -0.97403 0
M  V30 44958 C 4262.02 3.7555 -2.05296 0
M  V30 44959 C 4261.35 5.09169 -1.63253 0
M  V30 44960 C 4262.65 3.90501 -3.46852 0
M  V30 44961 H 4264.34 2.04417 -2.18756 0
M  V30 44962 H 4261.89 0.982113 -1.05312 0
M  V30 44963 H 4263.84 4.11583 -0.904278 0
M  V30 44964 H 4262.56 3.266 0.00238075 0
M  V30 44965 H 4261.22 2.99583 -2.11295 0
M  V30 44966 H 4260.87 4.98868 -0.643436 0
M  V30 44967 H 4260.57 5.38367 -2.35446 0
M  V30 44968 H 4262.09 5.89878 -1.57723 0
M  V30 44969 H 4263.51 4.59063 -3.43416 0
M  V30 44970 H 4261.91 4.31123 -4.17437 0
M  V30 44971 H 4262.98 2.93272 -3.8616 0
M  V30 44972 N 4264.32 1.16013 1.06671 0
M  V30 44973 C 4265.25 0.886287 2.16026 0
M  V30 44974 C 4266.23 -0.165877 1.69289 0
M  V30 44975 O 4267.41 -0.0187839 1.94191 0
M  V30 44976 C 4264.54 0.38239 3.45188 0
M  V30 44977 C 4263.5 1.37202 4.05413 0
M  V30 44978 C 4262.82 0.726687 5.29739 0
M  V30 44979 C 4264.12 2.74035 4.44637 0
M  V30 44980 H 4265.82 1.80077 2.39192 0
M  V30 44981 H 4263.36 0.867252 1.14955 0
M  V30 44982 H 4265.32 0.178314 4.21023 0
M  V30 44983 H 4264.04 -0.567584 3.2163 0
M  V30 44984 H 4262.7 1.56258 3.31631 0
M  V30 44985 H 4262.35 -0.229653 5.02475 0
M  V30 44986 H 4262.05 1.38719 5.70991 0
M  V30 44987 H 4263.57 0.532543 6.08273 0
M  V30 44988 H 4264.99 2.58784 5.1157 0
M  V30 44989 H 4263.38 3.36524 4.96862 0
M  V30 44990 H 4264.45 3.29577 3.55678 0
M  V30 44991 N 4265.8 -1.25139 0.958014 0
M  V30 44992 C 4266.73 -2.28105 0.499042 0
M  V30 44993 C 4267.71 -1.63864 -0.456359 0
M  V30 44994 O 4268.89 -1.90935 -0.354583 0
M  V30 44995 C 4266.02 -3.46597 -0.22079 0
M  V30 44996 C 4264.98 -4.2304 0.649681 0
M  V30 44997 C 4264.3 -5.34322 -0.201087 0
M  V30 44998 C 4265.6 -4.85354 1.92948 0
M  V30 44999 H 4267.3 -2.66748 1.35963 0
M  V30 45000 H 4264.84 -1.2823 0.655215 0
M  V30 45001 H 4266.8 -4.17755 -0.553031 0
M  V30 45002 H 4265.52 -3.06954 -1.11566 0
M  V30 45003 H 4264.18 -3.5367 0.965054 0
M  V30 45004 H 4263.83 -4.90918 -1.09581 0
M  V30 45005 H 4263.53 -5.86383 0.378057 0
M  V30 45006 H 4265.05 -6.08311 -0.528218 0
M  V30 45007 H 4266.46 -5.48637 1.66343 0
M  V30 45008 H 4264.86 -5.47606 2.45455 0
M  V30 45009 H 4265.93 -4.0735 2.63047 0
M  V30 45010 N 4267.27 -0.726981 -1.39831 0
M  V30 45011 C 4268.5 -0.280045 -2.05501 0
M  V30 45012 C 4268.92 1.0738 -1.54438 0
M  V30 45013 O 4268.28 1.67876 -0.684645 0
M  V30 45014 C 4268.33 -0.282565 -3.59491 0
M  V30 45015 O 4267.43 0.732474 -4.05843 0
M  V30 45016 H 4266.78 -0.128948 -0.651359 0
M  V30 45017 H 4269.31 -0.990658 -1.79017 0
M  V30 45018 H 4269.32 -0.124176 -4.07811 0
M  V30 45019 H 4267.99 -1.27048 -3.9602 0
M  V30 45020 H 4266.57 0.540878 -3.68957 0
M  V30 45021 N 4268.75 1.50303 -0.474008 0
M  V30 45022 C 4269.66 2.32353 0.323892 0
M  V30 45023 C 4270.68 1.42867 0.993226 0
M  V30 45024 O 4271.85 1.75918 0.980558 0
M  V30 45025 C 4268.92 3.17619 1.38993 0
M  V30 45026 C 4267.98 4.22928 0.736891 0
M  V30 45027 C 4267.21 5.04119 1.75214 0
M  V30 45028 O 4267.44 4.86428 2.97899 0
M  V30 45029 O 4266.37 5.87195 1.32235 0
M  V30 45030 H 4270.2 3.01712 -0.346966 0
M  V30 45031 H 4267.78 1.47527 -0.235803 0
M  V30 45032 H 4269.66 3.70517 2.00736 0
M  V30 45033 H 4268.34 2.50986 2.04421 0
M  V30 45034 H 4267.25 3.74014 0.0804389 0
M  V30 45035 H 4268.58 4.9204 0.125515 0
M  V30 45036 N 4270.23 0.20673 1.56238 0
M  V30 45037 C 4271.16 -0.741508 2.16874 0
M  V30 45038 C 4272.18 -1.16836 1.13372 0
M  V30 45039 O 4273.36 -1.10208 1.40415 0
M  V30 45040 C 4270.46 -2.01423 2.72548 0
M  V30 45041 C 4269.64 -1.74531 4.01071 0
M  V30 45042 C 4268.7 -2.86363 4.41455 0
M  V30 45043 O 4267.72 -2.5547 5.08649 0
M  V30 45044 N 4268.92 -4.14986 4.05915 0
M  V30 45045 H 4271.69 -0.222913 2.9887 0
M  V30 45046 H 4269.25 0.0251788 1.6188 0
M  V30 45047 H 4271.24 -2.75399 2.96542 0
M  V30 45048 H 4269.81 -2.44371 1.9494 0
M  V30 45049 H 4269.03 -0.842738 3.85086 0
M  V30 45050 H 4270.32 -1.53976 4.84942 0
M  V30 45051 H 4269.72 -4.42934 3.5189 0
M  V30 45052 H 4268.28 -4.85553 4.34835 0
M  V30 45053 N 4271.71 -1.57458 -0.0667882 0
M  V30 45054 C 4272.64 -2.07071 -1.07906 0
M  V30 45055 C 4273.62 -0.965232 -1.40062 0
M  V30 45056 O 4274.8 -1.23826 -1.49602 0
M  V30 45057 C 4271.93 -2.51881 -2.39109 0
M  V30 45058 C 4270.89 -3.66351 -2.21294 0
M  V30 45059 C 4270.21 -3.97233 -3.57924 0
M  V30 45060 C 4271.51 -4.96213 -1.63004 0
M  V30 45061 H 4273.21 -2.91894 -0.666203 0
M  V30 45062 H 4270.75 -1.40422 -0.319014 0
M  V30 45063 H 4272.71 -2.85203 -3.10221 0
M  V30 45064 H 4271.43 -1.64093 -2.82384 0
M  V30 45065 H 4270.09 -3.3332 -1.52622 0
M  V30 45066 H 4269.74 -3.06569 -3.98779 0
M  V30 45067 H 4269.44 -4.74315 -3.46842 0
M  V30 45068 H 4270.96 -4.33056 -4.30459 0
M  V30 45069 H 4272.38 -5.27733 -2.23988 0
M  V30 45070 H 4270.77 -5.7765 -1.62604 0
M  V30 45071 H 4271.84 -4.81273 -0.591993 0
M  V30 45072 N 4273.19 0.33829 -1.53926 0
M  V30 45073 C 4274.41 1.10227 -1.75684 0
M  V30 45074 C 4274.84 1.81412 -0.497119 0
M  V30 45075 O 4274.2 1.72739 0.550547 0
M  V30 45076 C 4274.24 2.08738 -2.94042 0
M  V30 45077 O 4273.35 3.16359 -2.64558 0
M  V30 45078 H 4272.69 0.318534 -0.582608 0
M  V30 45079 H 4275.22 0.387078 -2.00905 0
M  V30 45080 H 4275.23 2.51868 -3.20978 0
M  V30 45081 H 4273.9 1.56324 -3.85403 0
M  V30 45082 H 4272.48 2.78009 -2.48526 0
M  V30 45083 N 4274.67 1.45749 0.599583 0
M  V30 45084 C 4276.08 1.30331 0.921189 0
M  V30 45085 C 4276.28 0.262248 1.99786 0
M  V30 45086 O 4275.34 -0.341046 2.50186 0
M  V30 45087 C 4276.65 2.68464 1.35453 0
M  V30 45088 C 4278.2 2.76423 1.4683 0
M  V30 45089 C 4278.67 4.15099 1.93537 0
M  V30 45090 N 4280.16 4.17433 2.00758 0
M  V30 45091 C 4280.9 5.21612 2.38136 0
M  V30 45092 N 4280.4 6.36131 2.74426 0
M  V30 45093 N 4282.19 5.08972 2.38545 0
M  V30 45094 H 4274.34 2.12105 -0.111929 0
M  V30 45095 H 4276.6 0.947916 0.0125875 0
M  V30 45096 H 4276.31 3.45873 0.637529 0
M  V30 45097 H 4276.18 2.97457 2.31946 0
M  V30 45098 H 4278.57 1.99313 2.1762 0
M  V30 45099 H 4278.65 2.51135 0.486312 0
M  V30 45100 H 4278.29 4.92698 1.23331 0
M  V30 45101 H 4278.22 4.37785 2.92664 0
M  V30 45102 H 4280.72 3.34797 1.7527 0
M  V30 45103 H 4281.03 7.11411 3.01852 0
M  V30 45104 H 4279.37 6.39519 2.72103 0
M  V30 45105 H 4282.56 4.18549 2.09605 0
M  V30 45106 H 4282.74 5.90279 2.67348 0
M  V30 45107 N 4276.14 -0.84278 1.33173 0
M  V30 45108 C 4277.07 -1.96763 1.25724 0
M  V30 45109 C 4278.05 -1.69534 0.138604 0
M  V30 45110 O 4279.24 -1.91415 0.327737 0
M  V30 45111 C 4276.37 -3.3284 0.991695 0
M  V30 45112 C 4275.32 -3.74456 2.07285 0
M  V30 45113 C 4274.65 -5.08296 1.65951 0
M  V30 45114 C 4275.95 -3.88656 3.48918 0
M  V30 45115 H 4277.64 -2.03254 2.19837 0
M  V30 45116 H 4275.19 -0.976514 1.05831 0
M  V30 45117 H 4277.14 -4.11098 0.926093 0
M  V30 45118 H 4275.87 -3.26597 0.0149397 0
M  V30 45119 H 4274.53 -2.98458 2.1288 0
M  V30 45120 H 4274.17 -4.98519 0.669883 0
M  V30 45121 H 4273.87 -5.37111 2.38298 0
M  V30 45122 H 4275.4 -5.89033 1.60849 0
M  V30 45123 H 4276.81 -4.57235 3.45845 0
M  V30 45124 H 4275.21 -4.28903 4.19717 0
M  V30 45125 H 4276.28 -2.9122 3.8771 0
M  V30 45126 N 4277.62 -1.16577 -1.06054 0
M  V30 45127 C 4278.9 -0.858939 -1.75732 0
M  V30 45128 C 4279.28 0.642711 -2.01078 0
M  V30 45129 O 4278.63 1.59127 -1.63984 0
M  V30 45130 C 4278.84 -1.6843 -3.05667 0
M  V30 45131 C 4280.18 -1.8988 -3.79777 0
M  V30 45132 O 4281.21 -1.65316 -3.15514 0
M  V30 45133 O 4280.07 -2.31109 -4.95228 0
M  V30 45134 H 4277.16 -0.317191 -0.763753 0
M  V30 45135 H 4279.71 -1.27227 -1.12301 0
M  V30 45136 H 4278.48 -2.7032 -2.82918 0
M  V30 45137 H 4278.1 -1.26818 -3.76833 0
M  V30 45138 N 4279.1 1.2463 -0.964637 0
M  V30 45139 C 4280.06 2.23741 -0.497245 0
M  V30 45140 C 4281.06 1.55628 0.404542 0
M  V30 45141 O 4282.25 1.73043 0.20043 0
M  V30 45142 C 4279.38 3.39746 0.280288 0
M  V30 45143 H 4280.58 2.66605 -1.37339 0
M  V30 45144 H 4278.13 1.3719 -0.748913 0
M  V30 45145 H 4278.87 3.02317 1.17367 0
M  V30 45146 H 4278.65 3.9038 -0.366809 0
M  V30 45147 H 4280.14 4.13319 0.596429 0
M  V30 45148 N 4280.58 0.734386 1.39444 0
M  V30 45149 C 4281.49 0.0955573 2.34405 0
M  V30 45150 C 4282.5 -0.722597 1.58286 0
M  V30 45151 O 4283.68 -0.651206 1.90581 0
M  V30 45152 C 4280.74 -0.801388 3.37311 0
M  V30 45153 C 4279.81 0.0289488 4.2929 0
M  V30 45154 C 4279.04 -0.82528 5.27281 0
M  V30 45155 O 4279.26 -2.06402 5.31747 0
M  V30 45156 O 4278.2 -0.254267 6.01363 0
M  V30 45157 H 4282.02 0.879324 2.90692 0
M  V30 45158 H 4279.61 0.49505 1.4096 0
M  V30 45159 H 4281.49 -1.31461 4.0037 0
M  V30 45160 H 4280.16 -1.56398 2.8341 0
M  V30 45161 H 4279.07 0.587673 3.69455 0
M  V30 45162 H 4280.4 0.753747 4.86394 0
M  V30 45163 N 4282.06 -1.50049 0.481972 0
M  V30 45164 C 4283.28 -2.07286 -0.0688449 0
M  V30 45165 C 4283.71 -1.34225 -1.31778 0
M  V30 45166 O 4283.06 -0.393166 -1.76986 0
M  V30 45167 C 4283.11 -3.59134 -0.324822 0
M  V30 45168 O 4282.22 -3.87792 -1.40326 0
M  V30 45169 H 4281.56 -0.663762 0.0177928 0
M  V30 45170 H 4284.09 -1.93105 0.676138 0
M  V30 45171 H 4284.1 -4.0411 -0.562064 0
M  V30 45172 H 4282.77 -4.11726 0.58777 0
M  V30 45173 H 4281.35 -3.54644 -1.15247 0
M  V30 45174 N 4283.53 -0.215012 -1.56126 0
M  V30 45175 C 4284.46 0.692591 -2.22992 0
M  V30 45176 C 4285.44 1.20609 -1.19948 0
M  V30 45177 O 4286.63 1.25128 -1.48514 0
M  V30 45178 C 4283.76 1.90371 -2.90476 0
M  V30 45179 C 4282.71 1.52432 -3.99936 0
M  V30 45180 C 4282.04 2.81367 -4.54683 0
M  V30 45181 C 4283.34 0.719234 -5.17324 0
M  V30 45182 H 4285.03 0.135115 -2.99095 0
M  V30 45183 H 4282.58 0.0635468 -1.4386 0
M  V30 45184 H 4284.53 2.54402 -3.35942 0
M  V30 45185 H 4283.26 2.48604 -2.1181 0
M  V30 45186 H 4281.92 0.907495 -3.5519 0
M  V30 45187 H 4281.56 3.37732 -3.72755 0
M  V30 45188 H 4281.26 2.5672 -5.28554 0
M  V30 45189 H 4282.79 3.46353 -5.02863 0
M  V30 45190 H 4284.2 1.2631 -5.59212 0
M  V30 45191 H 4282.6 0.570098 -5.97386 0
M  V30 45192 H 4283.67 -0.275546 -4.84116 0
M  V30 45193 N 4285.01 1.57492 0.0584368 0
M  V30 45194 C 4286.26 1.88176 0.756157 0
M  V30 45195 C 4286.59 0.809049 1.76545 0
M  V30 45196 O 4285.87 -0.179252 1.93672 0
M  V30 45197 C 4286.15 3.29521 1.45218 0
M  V30 45198 C 4286 4.47458 0.458393 0
M  V30 45199 C 4287.32 3.69308 2.39374 0
M  V30 45200 H 4284.44 0.684402 0.273428 0
M  V30 45201 H 4287.08 1.8999 0.0191663 0
M  V30 45202 H 4285.23 3.28104 2.08038 0
M  V30 45203 H 4286.9 4.61003 -0.165628 0
M  V30 45204 H 4285.15 4.33216 -0.225094 0
M  V30 45205 H 4285.82 5.43172 0.983288 0
M  V30 45206 H 4288.29 3.71903 1.86621 0
M  V30 45207 H 4287.17 4.6907 2.8507 0
M  V30 45208 H 4287.43 2.99962 3.2477 0
M  V30 45209 N 4286.49 -0.330122 1.54104 0
M  V30 45210 C 4287.44 -1.406 1.83031 0
M  V30 45211 C 4288.41 -1.5168 0.676934 0
M  V30 45212 O 4289.59 -1.67005 0.922712 0
M  V30 45213 C 4286.73 -2.77058 2.0575 0
M  V30 45214 C 4285.84 -2.74661 3.33444 0
M  V30 45215 C 4284.98 -4.02923 3.46159 0
M  V30 45216 C 4284.02 -3.94808 4.67753 0
M  V30 45217 N 4283.16 -5.14787 4.77429 0
M  V30 45218 H 4288 -1.15231 2.74819 0
M  V30 45219 H 4285.53 -0.557939 1.36108 0
M  V30 45220 H 4287.49 -3.56377 2.16913 0
M  V30 45221 H 4286.12 -3.00749 1.1726 0
M  V30 45222 H 4285.17 -1.87371 3.31053 0
M  V30 45223 H 4286.48 -2.64546 4.22867 0
M  V30 45224 H 4285.64 -4.90671 3.56828 0
M  V30 45225 H 4284.38 -4.15836 2.54817 0
M  V30 45226 H 4283.38 -3.05445 4.57147 0
M  V30 45227 H 4284.61 -3.83466 5.60473 0
M  V30 45228 H 4282.55 -5.28218 3.89 0
M  V30 45229 H 4282.47 -5.06981 5.60808 0
M  V30 45230 H 4283.74 -6.04268 4.92423 0
M  V30 45231 N 4287.97 -1.46065 -0.591845 0
M  V30 45232 C 4288.9 -1.5879 -1.71196 0
M  V30 45233 C 4289.88 -0.438644 -1.64347 0
M  V30 45234 O 4291.06 -0.663757 -1.82505 0
M  V30 45235 C 4288.19 -1.56922 -3.09827 0
M  V30 45236 C 4287.15 -2.70725 -3.315 0
M  V30 45237 C 4286.47 -2.53915 -4.70565 0
M  V30 45238 C 4287.77 -4.12621 -3.20221 0
M  V30 45239 H 4289.47 -2.52553 -1.60803 0
M  V30 45240 H 4287.01 -1.21546 -0.772184 0
M  V30 45241 H 4288.97 -1.6442 -3.88 0
M  V30 45242 H 4287.69 -0.596985 -3.21098 0
M  V30 45243 H 4286.35 -2.62681 -2.55722 0
M  V30 45244 H 4286 -1.54795 -4.78589 0
M  V30 45245 H 4285.7 -3.30241 -4.86019 0
M  V30 45246 H 4287.22 -2.6329 -5.50918 0
M  V30 45247 H 4288.64 -4.21824 -3.88249 0
M  V30 45248 H 4287.03 -4.89461 -3.472 0
M  V30 45249 H 4288.1 -4.33419 -2.17429 0
M  V30 45250 N 4289.45 0.835705 -1.33618 0
M  V30 45251 C 4290.67 1.62838 -1.28447 0
M  V30 45252 C 4291.1 1.87569 0.141172 0
M  V30 45253 O 4290.45 1.44207 1.09882 0
M  V30 45254 C 4290.5 2.95384 -2.06835 0
M  V30 45255 O 4289.61 3.86846 -1.42912 0
M  V30 45256 H 4288.95 0.495734 -0.44175 0
M  V30 45257 H 4291.48 1.03947 -1.76228 0
M  V30 45258 H 4291.49 3.45055 -2.17718 0
M  V30 45259 H 4290.16 2.76705 -3.10495 0
M  V30 45260 H 4288.74 3.4534 -1.40695 0
M  V30 45261 N 4290.92 1.17138 1.05434 0
M  V30 45262 C 4292.17 0.959675 1.78656 0
M  V30 45263 C 4292.5 -0.510626 1.87367 0
M  V30 45264 O 4291.78 -1.37899 1.37165 0
M  V30 45265 C 4292.06 1.59844 3.22679 0
M  V30 45266 C 4291.91 3.14068 3.21996 0
M  V30 45267 C 4293.23 1.30031 4.20452 0
M  V30 45268 H 4290.35 0.350055 0.64856 0
M  V30 45269 H 4292.99 1.446 1.23251 0
M  V30 45270 H 4291.14 1.18491 3.69989 0
M  V30 45271 H 4292.82 3.64462 2.82781 0
M  V30 45272 H 4291.06 3.46946 2.60405 0
M  V30 45273 H 4291.73 3.53889 4.23635 0
M  V30 45274 H 4294.21 1.65836 3.81625 0
M  V30 45275 H 4293.08 1.77314 5.19472 0
M  V30 45276 H 4293.34 0.220666 4.41549 0
M  V30 45277 N 4292.4 -1.24116 0.971232 0
M  V30 45278 C 4293.68 -1.87655 0.551802 0
M  V30 45279 C 4294.06 -1.87438 -0.971087 0
M  V30 45280 O 4293.41 -1.34949 -1.84393 0
M  V30 45281 C 4293.62 -3.296 1.14737 0
M  V30 45282 C 4294.97 -4.06259 1.23444 0
M  V30 45283 O 4295.99 -3.38785 1.10015 0
M  V30 45284 O 4294.85 -5.26993 1.4471 0
M  V30 45285 H 4291.94 -0.806157 0.184501 0
M  V30 45286 H 4294.49 -1.32062 1.06573 0
M  V30 45287 H 4293.26 -3.24276 2.19 0
M  V30 45288 H 4292.88 -3.92772 0.617705 0
M  V30 45289 N 4293.88 -0.741771 -1.39052 0
M  V30 45290 C 4295.3 -0.418079 -1.54027 0
M  V30 45291 C 4295.5 1.07026 -1.70727 0
M  V30 45292 O 4294.55 1.85637 -1.71159 0
M  V30 45293 C 4295.87 -1.20701 -2.75412 0
M  V30 45294 C 4297.41 -1.19591 -2.89252 0
M  V30 45295 C 4297.89 -1.96755 -4.13583 0
M  V30 45296 N 4299.38 -1.93956 -4.20637 0
M  V30 45297 C 4300.11 -2.50465 -5.15805 0
M  V30 45298 N 4299.61 -3.1564 -6.1672 0
M  V30 45299 N 4301.4 -2.40461 -5.0807 0
M  V30 45300 H 4293.55 -1.7065 -1.26461 0
M  V30 45301 H 4295.82 -0.722775 -0.613433 0
M  V30 45302 H 4295.52 -2.26045 -2.69437 0
M  V30 45303 H 4295.4 -0.81597 -3.68269 0
M  V30 45304 H 4297.78 -0.150573 -2.94716 0
M  V30 45305 H 4297.87 -1.62638 -1.9744 0
M  V30 45306 H 4297.51 -3.01294 -4.08882 0
M  V30 45307 H 4297.44 -1.5111 -5.04453 0
M  V30 45308 H 4299.93 -1.46481 -3.48356 0
M  V30 45309 H 4300.24 -3.56209 -6.8581 0
M  V30 45310 H 4298.59 -3.19732 -6.17087 0
M  V30 45311 H 4301.78 -1.89181 -4.28168 0
M  V30 45312 H 4301.95 -2.84799 -5.8206 0
M  V30 45313 N 4295.36 1.49792 -0.489923 0
M  V30 45314 C 4296.6 2.02715 0.0585952 0
M  V30 45315 C 4296.94 1.36977 1.37663 0
M  V30 45316 O 4296.21 0.501712 1.87918 0
M  V30 45317 C 4296.5 3.5941 0.222749 0
M  V30 45318 C 4296.35 4.35694 -1.11763 0
M  V30 45319 C 4297.67 4.29309 0.968575 0
M  V30 45320 H 4294.79 0.736733 0.0198208 0
M  V30 45321 H 4297.43 1.78926 -0.63918 0
M  V30 45322 H 4295.58 3.79811 0.817074 0
M  V30 45323 H 4297.25 4.26818 -1.74998 0
M  V30 45324 H 4295.49 3.98689 -1.70966 0
M  V30 45325 H 4296.16 5.43655 -0.9562 0
M  V30 45326 H 4298.64 4.13498 0.464633 0
M  V30 45327 H 4297.52 5.3872 1.05226 0
M  V30 45328 H 4297.78 3.93782 2.00968 0
M  V30 45329 N 4296.84 0.223289 1.5601 0
M  V30 45330 C 4297.78 -0.702565 2.21736 0
M  V30 45331 C 4298.78 -1.19837 1.19731 0
M  V30 45332 O 4299.98 -1.158 1.37806 0
M  V30 45333 H 4296.36 -0.24499 0.710974 0
M  V30 45334 H 4298.33 -0.124816 2.98139 0
M  V30 45335 C 4297.08 -1.89919 2.91249 0
M  V30 45336 H 4296.4 -1.5268 3.69498 0
M  V30 45337 H 4297.84 -2.52476 3.40635 0
M  V30 45338 C 4296.3 -2.75568 1.93814 0
M  V30 45339 O 4296.83 -3.74377 1.45619 0
M  V30 45340 N 4295.04 -2.4164 1.61426 0
M  V30 45341 H 4294.58 -1.61343 2.00813 0
M  V30 45342 H 4294.54 -2.99226 0.964958 0
M  V30 45343 N 4298.31 -1.5752 -0.0500839 0
M  V30 45344 C 4299.56 -1.88574 -0.746167 0
M  V30 45345 C 4299.89 -0.8184 -1.76113 0
M  V30 45346 O 4299.17 0.168979 -1.93765 0
M  V30 45347 C 4299.45 -3.30286 -1.43468 0
M  V30 45348 C 4299.3 -4.47695 -0.434657 0
M  V30 45349 C 4300.62 -3.70572 -2.37412 0
M  V30 45350 H 4297.74 -0.685842 -0.269795 0
M  V30 45351 H 4300.38 -1.89998 -0.00909043 0
M  V30 45352 H 4298.53 -3.29203 -2.06295 0
M  V30 45353 H 4300.21 -4.60908 0.190073 0
M  V30 45354 H 4298.45 -4.3309 0.248066 0
M  V30 45355 H 4299.12 -5.43685 -0.954469 0
M  V30 45356 H 4301.6 -3.72887 -1.84646 0
M  V30 45357 H 4300.47 -4.70575 -2.82578 0
M  V30 45358 H 4300.73 -3.0168 -3.23175 0
M  V30 45359 N 4299.79 0.321945 -1.54277 0
M  V30 45360 C 4300.74 1.39742 -1.80156 0
M  V30 45361 C 4301.73 1.46846 -0.657656 0
M  V30 45362 O 4302.92 1.51351 -0.917703 0
M  V30 45363 C 4300.05 2.76571 -2.0338 0
M  V30 45364 C 4299.13 2.73773 -3.23897 0
M  V30 45365 N 4299.52 2.40595 -4.44913 0
M  V30 45366 C 4297.82 3.049 -3.25503 0
M  V30 45367 C 4298.52 2.46573 -5.26856 0
M  V30 45368 N 4297.5 2.83079 -4.64077 0
M  V30 45369 H 4301.3 1.13021 -2.71299 0
M  V30 45370 H 4298.82 0.530435 -1.53493 0
M  V30 45371 H 4300.81 3.54089 -2.20061 0
M  V30 45372 H 4299.47 3.0422 -1.13492 0
M  V30 45373 H 4300.48 2.13413 -4.71885 0
M  V30 45374 H 4297.16 3.37581 -2.45653 0
M  V30 45375 H 4298.55 2.23898 -6.33498 0
M  V30 45376 N 4301.27 1.46377 0.58409 0
M  V30 45377 C 4302.5 1.55421 1.37328 0
M  V30 45378 C 4302.92 0.195505 1.87081 0
M  V30 45379 O 4302.28 -0.824113 1.61487 0
M  V30 45380 C 4302.33 2.56185 2.53775 0
M  V30 45381 O 4301.43 2.09593 3.55168 0
M  V30 45382 H 4300.77 0.523056 0.409033 0
M  V30 45383 H 4303.3 1.91937 0.708621 0
M  V30 45384 H 4303.31 2.75749 3.0071 0
M  V30 45385 H 4301.99 3.54853 2.16914 0
M  V30 45386 H 4300.56 2.00011 3.14722 0
M  V30 45387 N 4302.75 -0.828607 1.34059 0
M  V30 45388 C 4304.16 -1.40093 1.23413 0
M  V30 45389 C 4304.51 -1.9568 -0.142745 0
M  V30 45390 O 4303.64 -1.89616 -1.04283 0
M  V30 45391 C 4304.23 -2.54671 2.23446 0
M  V30 45392 C 4302.79 -3.07828 2.16608 0
M  V30 45393 C 4301.94 -1.80673 2.10363 0
M  V30 45394 H 4304.89 -0.633489 1.45508 0
M  V30 45395 H 4304.91 -3.32602 1.84815 0
M  V30 45396 H 4304.42 -2.14184 3.23646 0
M  V30 45397 H 4302.52 -3.52834 1.19744 0
M  V30 45398 H 4302.64 -3.67305 3.0761 0
M  V30 45399 H 4301 -2.01339 1.55996 0
M  V30 45400 H 4301.78 -1.42367 3.12388 0
M  V30 45401 N 4304.23 -1.17696 -1.04812 0
M  V30 45402 C 4305.18 -0.865221 -2.10945 0
M  V30 45403 C 4306.16 0.161853 -1.60084 0
M  V30 45404 O 4307.35 -0.0411261 -1.76952 0
M  V30 45405 C 4304.48 -0.384502 -3.4114 0
M  V30 45406 C 4303.57 -1.44322 -3.98788 0
M  V30 45407 N 4303.96 -2.6577 -4.30349 0
M  V30 45408 C 4302.26 -1.30198 -4.26573 0
M  V30 45409 C 4302.96 -3.33827 -4.76377 0
M  V30 45410 N 4301.93 -2.61206 -4.76731 0
M  V30 45411 H 4305.74 -1.78854 -2.33213 0
M  V30 45412 H 4303.25 -1.06624 -1.22495 0
M  V30 45413 H 4305.25 -0.142707 -4.16656 0
M  V30 45414 H 4303.91 0.532568 -3.20303 0
M  V30 45415 H 4304.92 -3.02701 -4.20229 0
M  V30 45416 H 4301.6 -0.446858 -4.15102 0
M  V30 45417 H 4302.99 -4.37578 -5.09877 0
M  V30 45418 N 4305.71 1.23599 -0.977801 0
M  V30 45419 C 4307.12 1.44105 -0.685993 0
M  V30 45420 C 4307.32 1.87073 0.748727 0
M  V30 45421 O 4306.38 2.01513 1.52147 0
M  V30 45422 C 4307.69 2.4948 -1.6787 0
M  V30 45423 C 4309.24 2.63296 -1.69246 0
M  V30 45424 C 4309.71 3.71878 -2.6734 0
M  V30 45425 N 4311.2 3.79317 -2.65843 0
M  V30 45426 C 4311.94 4.62886 -3.38415 0
M  V30 45427 N 4311.44 5.50564 -4.20537 0
M  V30 45428 N 4313.23 4.57058 -3.27191 0
M  V30 45429 H 4305.38 0.940095 -1.90463 0
M  V30 45430 H 4307.64 0.474742 -0.820563 0
M  V30 45431 H 4307.35 2.24819 -2.70461 0
M  V30 45432 H 4307.22 3.4782 -1.45948 0
M  V30 45433 H 4309.61 2.87309 -0.673605 0
M  V30 45434 H 4309.69 1.6528 -1.95234 0
M  V30 45435 H 4309.33 3.48614 -3.69366 0
M  V30 45436 H 4309.26 4.6943 -2.38628 0
M  V30 45437 H 4311.76 3.16659 -2.06242 0
M  V30 45438 H 4312.07 6.11314 -4.72774 0
M  V30 45439 H 4310.41 5.50196 -4.24629 0
M  V30 45440 H 4313.6 3.87579 -2.62488 0
M  V30 45441 H 4313.78 5.21958 -3.8401 0
M  V30 45442 N 4307.18 0.749135 1.38657 0
M  V30 45443 C 4308.15 0.126797 2.28849 0
M  V30 45444 C 4309.15 -0.652227 1.46978 0
M  V30 45445 O 4310.34 -0.479151 1.67481 0
M  V30 45446 C 4307.47 -0.829025 3.30666 0
M  V30 45447 H 4308.66 0.92158 2.85389 0
M  V30 45448 H 4306.21 0.515858 1.47542 0
M  V30 45449 H 4306.95 -1.64965 2.79208 0
M  V30 45450 H 4306.73 -0.272878 3.91149 0
M  V30 45451 H 4308.22 -1.2606 3.98119 0
M  V30 45452 N 4308.66 -1.4953 0.49786 0
M  V30 45453 C 4309.59 -2.25819 -0.328815 0
M  V30 45454 C 4310.57 -1.30266 -0.973117 0
M  V30 45455 O 4311.76 -1.59548 -1.00383 0
M  V30 45456 C 4308.88 -3.05481 -1.46283 0
M  V30 45457 C 4307.93 -4.16165 -0.933221 0
M  V30 45458 S 4308.76 -5.35219 0.173505 0
M  V30 45459 C 4309.92 -6.18436 -0.963753 0
M  V30 45460 H 4310.15 -2.95587 0.318705 0
M  V30 45461 H 4307.68 -1.51782 0.283112 0
M  V30 45462 H 4309.64 -3.51964 -2.11262 0
M  V30 45463 H 4308.3 -2.35188 -2.08195 0
M  V30 45464 H 4307.5 -4.71408 -1.78298 0
M  V30 45465 H 4307.1 -3.72257 -0.360699 0
M  V30 45466 H 4309.39 -6.51191 -1.86966 0
M  V30 45467 H 4310.33 -7.06669 -0.450005 0
M  V30 45468 H 4310.74 -5.50944 -1.22967 0
M  V30 45469 N 4310.14 -0.23156 -1.5589 0
M  V30 45470 C 4311.1 0.660974 -2.19462 0
M  V30 45471 C 4312.1 1.11422 -1.15938 0
M  V30 45472 O 4313.29 1.02141 -1.41113 0
M  V30 45473 C 4310.42 1.90664 -2.82595 0
M  V30 45474 H 4311.62 0.106555 -2.99711 0
M  V30 45475 H 4309.17 0.0180327 -1.5629 0
M  V30 45476 H 4309.91 2.50268 -2.06244 0
M  V30 45477 H 4309.69 1.59001 -3.58415 0
M  V30 45478 H 4311.18 2.54232 -3.31294 0
M  V30 45479 N 4311.62 1.57545 0.0417295 0
M  V30 45480 C 4312.58 2.04711 1.03082 0
M  V30 45481 C 4313.58 0.949053 1.29806 0
M  V30 45482 O 4314.77 1.21306 1.25022 0
M  V30 45483 C 4311.9 2.45333 2.36695 0
M  V30 45484 H 4313.1 2.93344 0.623649 0
M  V30 45485 H 4310.65 1.53619 0.288248 0
M  V30 45486 H 4311.38 1.59818 2.82186 0
M  V30 45487 H 4311.17 3.25488 2.18632 0
M  V30 45488 H 4312.66 2.82296 3.07732 0
M  V30 45489 N 4313.1 -0.313759 1.54445 0
M  V30 45490 C 4314.03 -1.3915 1.87509 0
M  V30 45491 C 4315.01 -1.53507 0.732779 0
M  V30 45492 O 4316.19 -1.67225 0.987389 0
M  V30 45493 C 4313.32 -2.7577 2.11112 0
M  V30 45494 C 4312.28 -2.76191 3.26959 0
M  V30 45495 C 4311.6 -4.15979 3.35954 0
M  V30 45496 C 4312.9 -2.39065 4.64376 0
M  V30 45497 H 4314.6 -1.11727 2.77772 0
M  V30 45498 H 4312.14 -0.53603 1.33651 0
M  V30 45499 H 4314.09 -3.5124 2.32827 0
M  V30 45500 H 4312.82 -3.0469 1.17608 0
M  V30 45501 H 4311.48 -2.03177 3.05147 0
M  V30 45502 H 4311.13 -4.42056 2.3999 0
M  V30 45503 H 4310.83 -4.17166 4.1382 0
M  V30 45504 H 4312.35 -4.93248 3.59915 0
M  V30 45505 H 4313.76 -3.0425 4.85906 0
M  V30 45506 H 4312.16 -2.51486 5.44862 0
M  V30 45507 H 4313.23 -1.34203 4.65959 0
M  V30 45508 N 4314.57 -1.46684 -0.576319 0
M  V30 45509 C 4315.82 -1.52024 -1.33166 0
M  V30 45510 C 4316.14 -0.176094 -1.94203 0
M  V30 45511 O 4315.41 0.798037 -1.78908 0
M  V30 45512 H 4313.99 -0.559936 -0.494449 0
M  V30 45513 H 4316.65 -1.82858 -0.674471 0
M  V30 45514 H 4315.75 -2.27642 -2.13507 0
M  V30 45515 N 4316.05 0.821486 -1.34497 0
M  V30 45516 C 4316.98 1.94738 -1.28838 0
M  V30 45517 C 4317.96 1.69292 -0.165558 0
M  V30 45518 O 4319.15 1.90869 -0.358148 0
M  V30 45519 C 4316.28 3.31221 -1.04452 0
M  V30 45520 C 4315.23 3.71111 -2.13216 0
M  V30 45521 C 4314.56 5.05591 -1.74016 0
M  V30 45522 C 4315.86 3.83056 -3.55057 0
M  V30 45523 H 4317.55 1.9973 -2.23043 0
M  V30 45524 H 4315.1 0.959554 -1.07371 0
M  V30 45525 H 4317.05 4.09573 -0.991378 0
M  V30 45526 H 4315.77 3.26531 -0.0668965 0
M  V30 45527 H 4314.43 2.95034 -2.17602 0
M  V30 45528 H 4314.08 4.97391 -0.749108 0
M  V30 45529 H 4313.78 5.33252 -2.46813 0
M  V30 45530 H 4315.31 5.86399 -1.702 0
M  V30 45531 H 4316.72 4.51675 -3.53076 0
M  V30 45532 H 4315.12 4.22171 -4.26487 0
M  V30 45533 H 4316.19 2.85015 -3.92294 0
M  V30 45534 N 4317.53 1.1825 1.04186 0
M  V30 45535 C 4318.46 0.851822 2.11706 0
M  V30 45536 C 4319.44 -0.185705 1.61536 0
M  V30 45537 O 4320.63 -0.0649434 1.88388 0
M  V30 45538 C 4317.75 0.272496 3.37602 0
M  V30 45539 C 4316.8 1.28702 4.06618 0
M  V30 45540 S 4317.63 2.84242 4.53836 0
M  V30 45541 C 4318.79 2.27817 5.82967 0
M  V30 45542 H 4319.02 1.76242 2.39429 0
M  V30 45543 H 4316.55 1.00823 1.16936 0
M  V30 45544 H 4318.51 -0.0552498 4.10463 0
M  V30 45545 H 4317.17 -0.616198 3.07996 0
M  V30 45546 H 4316.37 0.830518 4.9711 0
M  V30 45547 H 4315.97 1.56093 3.39869 0
M  V30 45548 H 4318.26 1.66001 6.56848 0
M  V30 45549 H 4319.2 3.16604 6.33378 0
M  V30 45550 H 4319.61 1.70883 5.38014 0
M  V30 45551 N 4319.01 -1.23079 0.984342 0
M  V30 45552 C 4319.94 -2.26995 0.547314 0
M  V30 45553 C 4320.92 -1.64795 -0.421499 0
M  V30 45554 O 4322.1 -1.91645 -0.314003 0
M  V30 45555 C 4319.23 -3.46988 -0.147222 0
M  V30 45556 C 4318.19 -4.21567 0.739268 0
M  V30 45557 C 4317.51 -5.34628 -0.0877041 0
M  V30 45558 C 4318.81 -4.81152 2.03199 0
M  V30 45559 H 4320.51 -2.63804 1.41591 0
M  V30 45560 H 4318.05 -1.26811 0.682267 0
M  V30 45561 H 4320.01 -4.18834 -0.464295 0
M  V30 45562 H 4318.73 -3.09251 -1.0503 0
M  V30 45563 H 4317.39 -3.51543 1.03986 0
M  V30 45564 H 4317.04 -4.93132 -0.991434 0
M  V30 45565 H 4316.74 -5.85449 0.502353 0
M  V30 45566 H 4318.26 -6.09295 -0.399067 0
M  V30 45567 H 4319.68 -5.44985 1.77943 0
M  V30 45568 H 4318.07 -5.42276 2.57015 0
M  V30 45569 H 4319.14 -4.01679 2.71629 0
M  V30 45570 N 4320.49 -0.756478 -1.38258 0
M  V30 45571 C 4321.71 -0.324835 -2.04334 0
M  V30 45572 C 4322.13 1.04781 -1.57055 0
M  V30 45573 O 4321.49 1.66605 -0.744912 0
M  V30 45574 C 4321.54 -0.34166 -3.59882 0
M  V30 45575 O 4321.26 -1.66015 -4.05427 0
M  V30 45576 C 4322.76 0.103487 -4.43179 0
M  V30 45577 H 4319.98 -0.138336 -0.656585 0
M  V30 45578 H 4322.52 -1.02614 -1.76892 0
M  V30 45579 H 4320.68 0.310929 -3.8615 0
M  V30 45580 H 4321.09 -1.58831 -4.99873 0
M  V30 45581 H 4322.57 0.0405545 -5.51985 0
M  V30 45582 H 4323.04 1.15178 -4.23829 0
M  V30 45583 H 4323.65 -0.520337 -4.22105 0
M  V30 45584 N 4321.96 1.49264 -0.505783 0
M  V30 45585 C 4323.2 2.04369 0.0353402 0
M  V30 45586 C 4323.57 1.37666 1.33836 0
M  V30 45587 O 4324.77 1.8352 1.96402 0
M  V30 45588 C 4323.04 3.56948 0.179663 0
M  V30 45589 S 4324.6 4.33587 0.674344 0
M  V30 45590 H 4321.42 0.711 -0.000504404 0
M  V30 45591 H 4324.02 1.83262 -0.680839 0
M  V30 45592 H 4322.72 4.03037 -0.773906 0
M  V30 45593 H 4322.25 3.82469 0.920941 0
M  V30 45594 H 4324.27 4.56587 1.94276 0
M  V30 45595 N 4323.44 0.239823 1.55765 0
M  V30 45596 C 4324.38 -0.703169 2.17096 0
M  V30 45597 C 4325.35 -1.17795 1.12085 0
M  V30 45598 O 4326.54 -1.25738 1.40436 0
M  V30 45599 C 4323.66 -1.95481 2.76595 0
M  V30 45600 C 4322.71 -1.61848 3.94598 0
M  V30 45601 S 4323.54 -0.72728 5.30538 0
M  V30 45602 C 4324.7 -1.98808 5.93487 0
M  V30 45603 H 4324.93 -0.181936 2.96743 0
M  V30 45604 H 4322.47 0.0243413 1.54381 0
M  V30 45605 H 4324.42 -2.67339 3.11512 0
M  V30 45606 H 4323.08 -2.44716 1.96908 0
M  V30 45607 H 4322.28 -2.54891 4.34795 0
M  V30 45608 H 4321.88 -0.980386 3.60922 0
M  V30 45609 H 4324.17 -2.93611 6.10572 0
M  V30 45610 H 4325.11 -1.62971 6.89091 0
M  V30 45611 H 4325.52 -2.13694 5.22489 0
M  V30 45612 N 4324.92 -1.57565 -0.0333739 0
M  V30 45613 C 4326.15 -1.93051 -0.73587 0
M  V30 45614 C 4326.56 -0.837607 -1.69649 0
M  V30 45615 O 4325.9 0.195055 -1.82662 0
M  V30 45616 C 4325.96 -3.24306 -1.55132 0
M  V30 45617 C 4325.63 -4.50704 -0.755943 0
M  V30 45618 C 4326.62 -5.19868 -0.0581128 0
M  V30 45619 C 4324.31 -4.97232 -0.711756 0
M  V30 45620 C 4326.3 -6.33834 0.673252 0
M  V30 45621 C 4323.99 -6.11096 0.0233567 0
M  V30 45622 C 4324.99 -6.79251 0.714624 0
M  V30 45623 O 4324.68 -7.90938 1.43781 0
M  V30 45624 H 4324.41 -0.641858 -0.212119 0
M  V30 45625 H 4326.96 -2.054 0.00374256 0
M  V30 45626 H 4325.19 -3.08272 -2.33464 0
M  V30 45627 H 4326.88 -3.4515 -2.13603 0
M  V30 45628 H 4327.65 -4.84928 -0.0833088 0
M  V30 45629 H 4323.53 -4.4403 -1.23931 0
M  V30 45630 H 4327.07 -6.86967 1.21336 0
M  V30 45631 H 4322.97 -6.4548 0.050491 0
M  V30 45632 H 4323.74 -8.07273 1.35104 0
M  V30 45633 N 4326.4 0.305564 -1.54609 0
M  V30 45634 C 4327.63 1.06041 -1.77659 0
M  V30 45635 C 4328.04 1.81095 -0.533859 0
M  V30 45636 O 4327.4 1.75626 0.496144 0
M  V30 45637 C 4327.45 2.04453 -2.9813 0
M  V30 45638 O 4327.17 1.32445 -4.176 0
M  V30 45639 C 4328.67 2.92012 -3.33532 0
M  V30 45640 H 4325.89 0.314677 -0.592637 0
M  V30 45641 H 4328.44 0.346223 -2.01548 0
M  V30 45642 H 4326.59 2.7138 -2.76463 0
M  V30 45643 H 4327 1.98497 -4.85489 0
M  V30 45644 H 4328.48 3.56924 -4.21081 0
M  V30 45645 H 4328.96 3.60071 -2.51486 0
M  V30 45646 H 4329.56 2.30622 -3.57342 0
M  V30 45647 N 4327.88 1.46988 0.568532 0
M  V30 45648 C 4329.12 1.52728 1.32358 0
M  V30 45649 C 4329.45 0.186391 1.94107 0
M  V30 45650 O 4328.72 -0.788538 1.79329 0
M  V30 45651 H 4327.3 0.562551 0.491473 0
M  V30 45652 H 4329.96 1.83213 0.664764 0
M  V30 45653 H 4329.05 2.28771 2.12297 0
M  V30 45654 N 4329.35 -0.814342 1.3493 0
M  V30 45655 C 4330.3 -1.92575 1.27214 0
M  V30 45656 C 4331.27 -1.6546 0.145628 0
M  V30 45657 O 4332.46 -1.87959 0.32804 0
M  V30 45658 C 4329.6 -3.28987 1.04219 0
M  V30 45659 C 4328.71 -3.68339 2.25723 0
M  V30 45660 C 4327.84 -4.93741 1.95941 0
M  V30 45661 C 4326.88 -5.25699 3.1354 0
M  V30 45662 N 4326.02 -6.4228 2.83585 0
M  V30 45663 H 4330.86 -1.98507 2.22259 0
M  V30 45664 H 4328.4 -0.97107 1.10493 0
M  V30 45665 H 4330.36 -4.07613 0.889219 0
M  V30 45666 H 4328.99 -3.22545 0.1284 0
M  V30 45667 H 4328.04 -2.85035 2.51911 0
M  V30 45668 H 4329.35 -3.8792 3.13559 0
M  V30 45669 H 4328.5 -5.80176 1.77429 0
M  V30 45670 H 4327.24 -4.7618 1.05377 0
M  V30 45671 H 4326.25 -4.37758 3.32638 0
M  V30 45672 H 4327.47 -5.45195 4.04895 0
M  V30 45673 H 4325.42 -6.26158 1.95607 0
M  V30 45674 H 4325.34 -6.62075 3.64956 0
M  V30 45675 H 4326.6 -7.31762 2.68597 0
M  V30 45676 N 4330.83 -1.18801 -1.03557 0
M  V30 45677 C 4331.74 -0.934801 -2.15171 0
M  V30 45678 C 4332.76 0.102872 -1.73696 0
M  V30 45679 O 4333.93 -0.080224 -2.0124 0
M  V30 45680 C 4331 -0.469523 -3.43506 0
M  V30 45681 C 4330.06 -1.57578 -3.99334 0
M  V30 45682 C 4329.29 -1.13261 -5.21544 0
M  V30 45683 O 4329.52 0.00659544 -5.704 0
M  V30 45684 O 4328.45 -1.93243 -5.70036 0
M  V30 45685 H 4332.28 -1.86885 -2.3939 0
M  V30 45686 H 4329.86 -0.970259 -1.13606 0
M  V30 45687 H 4331.74 -0.218372 -4.20834 0
M  V30 45688 H 4330.42 0.43617 -3.20748 0
M  V30 45689 H 4329.33 -1.881 -3.23371 0
M  V30 45690 H 4330.66 -2.45778 -4.26443 0
M  V30 45691 N 4332.31 1.22555 -0.990855 0
M  V30 45692 C 4333.26 2.24408 -0.539422 0
M  V30 45693 C 4334.23 1.60513 0.427171 0
M  V30 45694 O 4335.41 1.87883 0.332386 0
M  V30 45695 C 4332.55 3.44809 0.141796 0
M  V30 45696 C 4331.67 4.23225 -0.866295 0
M  V30 45697 C 4330.8 5.30963 -0.158805 0
M  V30 45698 C 4329.84 6.01096 -1.1554 0
M  V30 45699 N 4328.98 7.00482 -0.47636 0
M  V30 45700 H 4333.82 2.62386 -1.41271 0
M  V30 45701 H 4331.35 1.28958 -0.707687 0
M  V30 45702 H 4333.31 4.1351 0.553655 0
M  V30 45703 H 4331.94 3.076 0.978887 0
M  V30 45704 H 4330.99 3.5384 -1.39649 0
M  V30 45705 H 4332.31 4.71578 -1.62529 0
M  V30 45706 H 4331.46 6.05908 0.309889 0
M  V30 45707 H 4330.2 4.83578 0.632709 0
M  V30 45708 H 4329.2 5.24934 -1.63475 0
M  V30 45709 H 4330.43 6.50568 -1.94776 0
M  V30 45710 H 4328.38 6.55333 0.295755 0
M  V30 45711 H 4328.29 7.46831 -1.17384 0
M  V30 45712 H 4329.56 7.79494 -0.0304008 0
M  V30 45713 N 4333.79 0.763799 1.37855 0
M  V30 45714 C 4335.04 0.325012 2.00179 0
M  V30 45715 C 4335.37 -1.0934 1.60494 0
M  V30 45716 O 4334.64 -1.75073 0.847326 0
M  V30 45717 C 4334.93 0.459515 3.57156 0
M  V30 45718 C 4334.78 1.91977 4.06774 0
M  V30 45719 C 4336.1 -0.141 4.39874 0
M  V30 45720 H 4333.22 0.119568 0.727236 0
M  V30 45721 H 4335.86 0.965356 1.63649 0
M  V30 45722 H 4334.01 -0.0856326 3.88406 0
M  V30 45723 H 4335.68 2.52401 3.86124 0
M  V30 45724 H 4333.92 2.43133 3.59261 0
M  V30 45725 H 4334.6 1.96498 5.15842 0
M  V30 45726 H 4337.07 0.324048 4.14836 0
M  V30 45727 H 4335.95 -0.0167065 5.48897 0
M  V30 45728 H 4336.21 -1.23045 4.24632 0
M  V30 45729 N 4335.27 -1.48993 0.513692 0
M  V30 45730 C 4336.49 -2.07385 -0.0248611 0
M  V30 45731 C 4336.92 -1.3699 -1.28901 0
M  V30 45732 O 4336.28 -0.430619 -1.76112 0
M  V30 45733 C 4336.32 -3.59742 -0.248571 0
M  V30 45734 O 4335.43 -3.90681 -1.32069 0
M  V30 45735 H 4334.77 -0.663235 0.0318682 0
M  V30 45736 H 4337.3 -1.91627 0.716946 0
M  V30 45737 H 4337.31 -4.05211 -0.47622 0
M  V30 45738 H 4335.98 -4.10386 0.674971 0
M  V30 45739 H 4334.56 -3.57009 -1.07699 0
M  V30 45740 N 4336.75 -0.248081 -1.55635 0
M  V30 45741 C 4338.16 0.254852 -1.84952 0
M  V30 45742 C 4338.51 1.57504 -1.16991 0
M  V30 45743 O 4337.63 2.11697 -0.448705 0
M  V30 45744 C 4338.23 0.469185 -3.35536 0
M  V30 45745 C 4336.79 0.916381 -3.65075 0
M  V30 45746 C 4335.93 -0.0057374 -2.77299 0
M  V30 45747 H 4338.88 -0.470611 -1.51562 0
M  V30 45748 H 4338.91 1.31163 -3.57179 0
M  V30 45749 H 4338.42 -0.491829 -3.84971 0
M  V30 45750 H 4336.52 1.88982 -3.21118 0
M  V30 45751 H 4336.63 0.772425 -4.72832 0
M  V30 45752 H 4335 0.505838 -2.49626 0
M  V30 45753 H 4335.78 -0.962146 -3.29542 0
M  V30 45754 N 4338.22 1.5758 0.0250174 0
M  V30 45755 C 4339.47 1.89082 0.7136 0
M  V30 45756 C 4339.79 0.846289 1.75679 0
M  V30 45757 O 4339.06 -0.119578 1.95535 0
M  V30 45758 H 4337.64 0.697824 0.266554 0
M  V30 45759 H 4340.3 1.94897 -0.00998927 0
M  V30 45760 H 4339.4 2.88082 1.20063 0
M  V30 45761 N 4339.7 -0.29736 1.54769 0
M  V30 45762 C 4341.12 -0.643226 1.46064 0
M  V30 45763 C 4341.32 -1.90564 0.654811 0
M  V30 45764 O 4340.37 -2.51967 0.163954 0
M  V30 45765 C 4341.69 -0.792837 2.9006 0
M  V30 45766 C 4343.23 -0.888485 3.00125 0
M  V30 45767 C 4343.71 -1.07007 4.45324 0
M  V30 45768 N 4345.2 -1.13618 4.49049 0
M  V30 45769 C 4345.94 -1.29504 5.58584 0
M  V30 45770 N 4345.43 -1.42264 6.78036 0
M  V30 45771 N 4347.22 -1.32421 5.46279 0
M  V30 45772 H 4339.38 0.532031 2.05629 0
M  V30 45773 H 4341.64 0.176414 0.931441 0
M  V30 45774 H 4341.34 0.0639414 3.51642 0
M  V30 45775 H 4341.22 -1.68072 3.37686 0
M  V30 45776 H 4343.61 -1.73575 2.38654 0
M  V30 45777 H 4343.69 0.0234864 2.55789 0
M  V30 45778 H 4343.33 -0.227556 5.0739 0
M  V30 45779 H 4343.26 -1.99632 4.87293 0
M  V30 45780 H 4345.75 -1.05095 3.62992 0
M  V30 45781 H 4346.06 -1.54151 7.5727 0
M  V30 45782 H 4344.41 -1.39313 6.80894 0
M  V30 45783 H 4347.6 -1.22066 4.51904 0
M  V30 45784 H 4347.77 -1.44458 6.31693 0
M  V30 45785 N 4341.18 -1.47287 -0.560729 0
M  V30 45786 C 4342.41 -1.57341 -1.34356 0
M  V30 45787 C 4342.82 -0.222332 -1.87486 0
M  V30 45788 O 4342.18 0.783881 -1.64808 0
M  V30 45789 C 4342.23 -2.59585 -2.51591 0
M  V30 45790 O 4341.95 -3.89446 -2.00657 0
M  V30 45791 C 4343.45 -2.79789 -3.43851 0
M  V30 45792 H 4340.67 -0.531414 -0.409683 0
M  V30 45793 H 4343.22 -1.92878 -0.679594 0
M  V30 45794 H 4341.37 -2.26992 -3.13932 0
M  V30 45795 H 4341.79 -4.45285 -2.77167 0
M  V30 45796 H 4343.26 -3.552 -4.22536 0
M  V30 45797 H 4343.74 -1.87484 -3.97173 0
M  V30 45798 H 4344.34 -3.13565 -2.87328 0
M  V30 45799 N 4342.66 0.807175 -1.3536 0
M  V30 45800 C 4343.88 1.60076 -1.31872 0
M  V30 45801 C 4344.31 1.87827 0.101354 0
M  V30 45802 O 4343.67 1.46505 1.06799 0
M  V30 45803 C 4343.71 2.9093 -2.13054 0
M  V30 45804 O 4342.82 3.83728 -1.51086 0
M  V30 45805 H 4342.16 0.486253 -0.452166 0
M  V30 45806 H 4344.69 1.00185 -1.78393 0
M  V30 45807 H 4344.7 3.40359 -2.24988 0
M  V30 45808 H 4343.37 2.70057 -3.16294 0
M  V30 45809 H 4341.95 3.42278 -1.47988 0
M  V30 45810 N 4344.14 1.19348 1.02926 0
M  V30 45811 C 4345.41 0.905229 1.73392 0
M  V30 45812 C 4345.79 -0.589173 2.02712 0
M  V30 45813 O 4345.14 -1.54724 1.68145 0
M  V30 45814 C 4345.35 1.76475 3.01094 0
M  V30 45815 C 4346.7 1.99883 3.74609 0
M  V30 45816 O 4347.72 1.73623 3.1102 0
M  V30 45817 O 4346.58 2.44157 4.88927 0
M  V30 45818 H 4343.68 0.337329 0.755075 0
M  V30 45819 H 4346.22 1.30159 1.08888 0
M  V30 45820 H 4344.99 2.77726 2.75652 0
M  V30 45821 H 4344.62 1.36764 3.73338 0
M  V30 45822 N 4345.61 -1.22028 0.997341 0
M  V30 45823 C 4347.02 -1.72666 0.710163 0
M  V30 45824 C 4347.38 -1.80344 -0.772698 0
M  V30 45825 O 4346.5 -1.45275 -1.60387 0
M  V30 45826 C 4347.1 -3.1359 1.28245 0
M  V30 45827 C 4345.65 -3.61616 1.04455 0
M  V30 45828 C 4344.8 -2.39368 1.39994 0
M  V30 45829 H 4347.75 -1.07313 1.16917 0
M  V30 45830 H 4347.77 -3.74675 0.663243 0
M  V30 45831 H 4347.29 -3.0797 2.36169 0
M  V30 45832 H 4345.39 -3.72596 -0.0178724 0
M  V30 45833 H 4345.5 -4.47504 1.71105 0
M  V30 45834 H 4343.86 -2.41187 0.818596 0
M  V30 45835 H 4344.65 -2.36405 2.48932 0
M  V30 45836 N 4347.09 -0.771099 -1.37448 0
M  V30 45837 C 4348.04 -0.144722 -2.32149 0
M  V30 45838 C 4349.03 0.685701 -1.54902 0
M  V30 45839 O 4350.24 0.582835 -1.70303 0
M  V30 45840 H 4346.62 -0.0280128 -0.751478 0
M  V30 45841 H 4348.59 -0.959205 -2.82563 0
M  V30 45842 C 4347.34 0.720531 -3.40152 0
M  V30 45843 H 4346.66 0.0909081 -3.99697 0
M  V30 45844 H 4348.1 1.12579 -4.08781 0
M  V30 45845 C 4346.56 1.87085 -2.8018 0
M  V30 45846 O 4347.09 2.96628 -2.70878 0
M  V30 45847 N 4345.29 1.67127 -2.37733 0
M  V30 45848 H 4344.84 0.780286 -2.45498 0
M  V30 45849 H 4344.8 2.4426 -1.97951 0
M  V30 45850 N 4348.57 1.48719 -0.521586 0
M  V30 45851 C 4349.98 1.86533 -0.0789803 0
M  V30 45852 C 4350.33 1.43198 1.34122 0
M  V30 45853 O 4349.46 0.818948 2.00305 0
M  V30 45854 C 4350.05 3.38525 -0.136553 0
M  V30 45855 C 4348.61 3.75563 0.250813 0
M  V30 45856 C 4347.76 2.72754 -0.500039 0
M  V30 45857 H 4350.71 1.40743 -0.733288 0
M  V30 45858 H 4350.73 3.74841 0.653802 0
M  V30 45859 H 4350.24 3.70034 -1.17031 0
M  V30 45860 H 4348.34 3.49666 1.28703 0
M  V30 45861 H 4348.46 4.79028 -0.0829566 0
M  V30 45862 H 4346.82 2.54646 0.0526785 0
M  V30 45863 H 4347.6 3.07108 -1.53427 0
M  V30 45864 N 4350.05 0.256331 1.55501 0
M  V30 45865 C 4351.01 -0.625975 2.20486 0
M  V30 45866 C 4352.01 -1.09564 1.17696 0
M  V30 45867 O 4353.2 -0.998831 1.4272 0
M  V30 45868 C 4350.33 -1.86144 2.85593 0
M  V30 45869 H 4351.53 -0.0588597 2.99842 0
M  V30 45870 H 4349.08 0.00683387 1.56299 0
M  V30 45871 H 4349.81 -2.46955 2.10199 0
M  V30 45872 H 4349.6 -1.53279 3.60899 0
M  V30 45873 H 4351.09 -2.48929 3.35297 0
M  V30 45874 N 4351.53 -1.57591 -0.0166602 0
M  V30 45875 C 4352.49 -2.06325 -0.99812 0
M  V30 45876 C 4353.49 -0.969584 -1.2828 0
M  V30 45877 O 4354.68 -1.2328 -1.23076 0
M  V30 45878 C 4351.81 -2.49067 -2.32762 0
M  V30 45879 H 4353 -2.94299 -0.576902 0
M  V30 45880 H 4350.56 -1.54058 -0.263772 0
M  V30 45881 H 4351.29 -1.64287 -2.79607 0
M  V30 45882 H 4351.08 -3.28925 -2.13426 0
M  V30 45883 H 4352.57 -2.87156 -3.03202 0
M  V30 45884 N 4353 0.289148 -1.54925 0
M  V30 45885 C 4354.42 0.861339 -1.65644 0
M  V30 45886 C 4354.77 1.87651 -0.572836 0
M  V30 45887 O 4353.89 2.14468 0.288506 0
M  V30 45888 C 4354.49 1.56906 -3.00277 0
M  V30 45889 C 4353.05 2.0895 -3.13077 0
M  V30 45890 C 4352.19 0.926106 -2.61378 0
M  V30 45891 H 4355.14 0.0658655 -1.58563 0
M  V30 45892 H 4355.16 2.43525 -2.92363 0
M  V30 45893 H 4354.68 0.829954 -3.79122 0
M  V30 45894 H 4352.78 2.85871 -2.38974 0
M  V30 45895 H 4352.89 2.31589 -4.19408 0
M  V30 45896 H 4351.25 1.31499 -2.18128 0
M  V30 45897 H 4352.04 0.200768 -3.42712 0
M  V30 45898 N 4354.48 1.47583 0.55291 0
M  V30 45899 C 4355.76 1.44911 1.31378 0
M  V30 45900 C 4356.14 0.14836 2.10578 0
M  V30 45901 O 4355.49 -0.87013 2.11284 0
M  V30 45902 C 4355.7 2.69729 2.21467 0
M  V30 45903 C 4357.05 3.1712 2.82348 0
M  V30 45904 O 4358.07 2.70486 2.31767 0
M  V30 45905 O 4356.93 3.98203 3.74295 0
M  V30 45906 H 4354.02 0.577682 0.591787 0
M  V30 45907 H 4356.57 1.59789 0.571458 0
M  V30 45908 H 4355.34 3.55929 1.62573 0
M  V30 45909 H 4354.96 2.57458 3.02987 0
M  V30 45910 N 4355.96 -0.799985 1.35787 0
M  V30 45911 C 4357.19 -1.59375 1.32719 0
M  V30 45912 C 4357.61 -1.87878 -0.091392 0
M  V30 45913 O 4356.97 -1.47069 -1.0602 0
M  V30 45914 C 4357.02 -2.89796 2.14594 0
M  V30 45915 O 4356.12 -3.82921 1.53118 0
M  V30 45916 H 4355.46 -0.483848 0.454739 0
M  V30 45917 H 4357.99 -0.99238 1.78922 0
M  V30 45918 H 4358 -3.39161 2.2679 0
M  V30 45919 H 4356.68 -2.68376 3.17722 0
M  V30 45920 H 4355.25 -3.41488 1.49801 0
M  V30 45921 N 4357.44 -1.19892 -1.02292 0
M  V30 45922 C 4358.35 -0.95757 -2.14168 0
M  V30 45923 C 4359.36 0.0844434 -1.73795 0
M  V30 45924 O 4360.54 -0.101564 -2.01144 0
M  V30 45925 C 4357.61 -0.50593 -3.42989 0
M  V30 45926 C 4356.67 -1.61804 -3.9764 0
M  V30 45927 C 4355.9 -1.18786 -5.20313 0
M  V30 45928 O 4356.12 -0.0539034 -5.70375 0
M  V30 45929 O 4355.06 -1.99278 -5.67954 0
M  V30 45930 H 4358.88 -1.89414 -2.37395 0
M  V30 45931 H 4356.47 -0.982254 -1.12571 0
M  V30 45932 H 4358.35 -0.262994 -4.20579 0
M  V30 45933 H 4357.02 0.402126 -3.21193 0
M  V30 45934 H 4355.93 -1.9152 -3.21358 0
M  V30 45935 H 4357.26 -2.50287 -4.23813 0
M  V30 45936 N 4358.92 1.21498 -1.0038 0
M  V30 45937 C 4360.14 1.95073 -0.70436 0
M  V30 45938 C 4360.57 1.73507 0.726416 0
M  V30 45939 O 4359.92 1.02116 1.49807 0
M  V30 45940 C 4359.97 3.45594 -1.02944 0
M  V30 45941 O 4359.08 4.12182 -0.134034 0
M  V30 45942 H 4358.42 0.609889 -0.262548 0
M  V30 45943 H 4360.95 1.5429 -1.34372 0
M  V30 45944 H 4360.96 3.96159 -0.975796 0
M  V30 45945 H 4359.63 3.60614 -2.07196 0
M  V30 45946 H 4358.21 3.721 -0.244099 0
M  V30 45947 N 4360.39 0.778378 1.37037 0
M  V30 45948 C 4361.64 0.346225 1.99823 0
M  V30 45949 C 4361.97 -1.07631 1.61645 0
M  V30 45950 O 4361.25 -1.74165 0.865847 0
M  V30 45951 C 4361.53 0.49737 3.56649 0
M  V30 45952 C 4361.38 1.9628 4.04715 0
M  V30 45953 C 4362.7 -0.0943374 4.39999 0
M  V30 45954 H 4359.82 0.127275 0.725927 0
M  V30 45955 H 4362.46 0.982658 1.62616 0
M  V30 45956 H 4360.61 -0.0444321 3.88475 0
M  V30 45957 H 4362.29 2.56482 3.83425 0
M  V30 45958 H 4360.53 2.4693 3.56662 0
M  V30 45959 H 4361.2 2.01958 5.13729 0
M  V30 45960 H 4363.68 0.368029 4.14469 0
M  V30 45961 H 4362.55 0.0415124 5.48884 0
M  V30 45962 H 4362.81 -1.18534 4.25913 0
M  V30 45963 N 4361.87 -1.4844 0.529465 0
M  V30 45964 C 4363.12 -2.01699 -0.00681899 0
M  V30 45965 C 4363.44 -1.41186 -1.35373 0
M  V30 45966 O 4364.64 -1.8594 -1.97834 0
M  V30 45967 C 4363.1 -3.59846 -0.0625502 0
M  V30 45968 C 4362.71 -4.29342 1.27943 0
M  V30 45969 C 4364.45 -4.20952 -0.54769 0
M  V30 45970 C 4362.36 -5.7942 1.18431 0
M  V30 45971 H 4361.29 -0.753974 -0.00631902 0
M  V30 45972 H 4363.94 -1.70706 0.673167 0
M  V30 45973 H 4362.32 -3.87677 -0.807602 0
M  V30 45974 H 4363.49 -4.13183 2.04001 0
M  V30 45975 H 4361.81 -3.80105 1.70027 0
M  V30 45976 H 4364.41 -5.30894 -0.636814 0
M  V30 45977 H 4364.75 -3.86234 -1.55334 0
M  V30 45978 H 4365.28 -3.97548 0.141663 0
M  V30 45979 H 4362.02 -6.18711 2.1651 0
M  V30 45980 H 4361.54 -5.97994 0.465093 0
M  V30 45981 H 4363.22 -6.41059 0.874769 0
M  V30 45982 N 4363.35 -0.264574 -1.55363 0
M  V30 45983 C 4364.6 0.355736 -1.99656 0
M  V30 45984 C 4364.93 1.56291 -1.15269 0
M  V30 45985 O 4364.21 1.93249 -0.22023 0
M  V30 45986 C 4364.49 0.748285 -3.5224 0
M  V30 45987 C 4364.34 -0.465498 -4.47385 0
M  V30 45988 C 4365.66 1.5887 -4.10425 0
M  V30 45989 H 4362.78 0.127827 -0.72583 0
M  V30 45990 H 4365.42 -0.369416 -1.86374 0
M  V30 45991 H 4363.57 1.36613 -3.63688 0
M  V30 45992 H 4365.24 -1.10403 -4.47894 0
M  V30 45993 H 4363.49 -1.10547 -4.19478 0
M  V30 45994 H 4364.16 -0.147232 -5.51804 0
M  V30 45995 H 4366.63 1.067 -4.02187 0
M  V30 45996 H 4365.51 1.83219 -5.17419 0
M  V30 45997 H 4365.77 2.56633 -3.59989 0
M  V30 45998 N 4364.83 1.57598 0.00830251 0
M  V30 45999 C 4365.79 2.06852 0.987164 0
M  V30 46000 C 4366.79 0.976373 1.27764 0
M  V30 46001 O 4367.98 1.23931 1.22421 0
M  V30 46002 C 4365.11 2.50298 2.31438 0
M  V30 46003 H 4366.31 2.94601 0.561287 0
M  V30 46004 H 4363.86 1.54196 0.255598 0
M  V30 46005 H 4364.6 1.65768 2.78732 0
M  V30 46006 H 4364.38 3.30053 2.11678 0
M  V30 46007 H 4365.87 2.8876 3.01675 0
M  V30 46008 N 4366.31 -0.280928 1.55076 0
M  V30 46009 C 4367.24 -1.37232 1.82326 0
M  V30 46010 C 4368.22 -1.47894 0.675739 0
M  V30 46011 O 4369.4 -1.64642 0.917885 0
M  V30 46012 C 4366.53 -2.74953 1.97783 0
M  V30 46013 C 4365.58 -2.81616 3.20304 0
M  V30 46014 S 4366.41 -2.41666 4.77868 0
M  V30 46015 C 4367.56 -3.81378 4.96288 0
M  V30 46016 H 4367.8 -1.13913 2.74611 0
M  V30 46017 H 4365.33 -0.480135 1.46745 0
M  V30 46018 H 4367.29 -3.54268 2.07374 0
M  V30 46019 H 4365.95 -2.9553 1.064 0
M  V30 46020 H 4365.14 -3.82679 3.27983 0
M  V30 46021 H 4364.74 -2.10315 3.09263 0
M  V30 46022 H 4367.04 -4.76574 4.81543 0
M  V30 46023 H 4367.98 -3.78656 5.98352 0
M  V30 46024 H 4368.39 -3.72313 4.24315 0
M  V30 46025 N 4367.79 -1.47874 -0.545076 0
M  V30 46026 C 4368.7 -1.63925 -1.67826 0
M  V30 46027 C 4369.71 -0.521914 -1.65988 0
M  V30 46028 O 4370.89 -0.791037 -1.85215 0
M  V30 46029 C 4367.95 -1.66108 -3.04318 0
M  V30 46030 C 4367.01 -2.89358 -3.17128 0
M  V30 46031 C 4366.25 -2.91426 -4.47109 0
M  V30 46032 O 4366.47 -2.02346 -5.33303 0
M  V30 46033 O 4365.4 -3.83429 -4.63967 0
M  V30 46034 H 4369.23 -2.59835 -1.57224 0
M  V30 46035 H 4366.81 -1.311 -0.716466 0
M  V30 46036 H 4368.7 -1.70151 -3.85521 0
M  V30 46037 H 4367.37 -0.733679 -3.15276 0
M  V30 46038 H 4366.28 -2.90853 -2.35277 0
M  V30 46039 H 4367.61 -3.81432 -3.1108 0
M  V30 46040 N 4369.26 0.792773 -1.36209 0
M  V30 46041 C 4370.68 1.09034 -1.16549 0
M  V30 46042 C 4370.88 2.01496 0.0127001 0
M  V30 46043 O 4369.94 2.43196 0.679099 0
M  V30 46044 C 4371.25 1.70804 -2.4748 0
M  V30 46045 C 4372.8 1.83161 -2.53813 0
M  V30 46046 C 4373.27 2.48345 -3.84823 0
M  V30 46047 N 4374.76 2.55817 -3.8615 0
M  V30 46048 C 4375.5 3.07055 -4.84257 0
M  V30 46049 N 4374.99 3.58626 -5.92756 0
M  V30 46050 N 4376.79 3.05736 -4.7168 0
M  V30 46051 H 4368.94 0.178416 -2.11649 0
M  V30 46052 H 4371.2 0.14176 -0.937341 0
M  V30 46053 H 4370.91 1.10332 -3.33946 0
M  V30 46054 H 4370.78 2.7035 -2.63041 0
M  V30 46055 H 4373.17 2.42771 -1.67768 0
M  V30 46056 H 4373.25 0.824301 -2.42155 0
M  V30 46057 H 4372.89 1.8938 -4.71272 0
M  V30 46058 H 4372.82 3.4964 -3.93776 0
M  V30 46059 H 4375.31 2.19296 -3.07762 0
M  V30 46060 H 4375.63 3.96064 -6.63591 0
M  V30 46061 H 4373.97 3.56787 -5.96429 0
M  V30 46062 H 4377.16 2.64734 -3.86049 0
M  V30 46063 H 4377.34 3.4536 -5.48298 0
M  V30 46064 N 4370.74 1.20433 1.01654 0
M  V30 46065 C 4371.99 1.01603 1.75513 0
M  V30 46066 C 4372.32 -0.450758 1.88896 0
M  V30 46067 O 4371.6 -1.33465 1.41483 0
M  V30 46068 C 4371.88 1.70029 3.1743 0
M  V30 46069 C 4371.73 3.24153 3.11841 0
M  V30 46070 C 4373.05 1.43341 4.16103 0
M  V30 46071 H 4370.17 0.370512 0.637095 0
M  V30 46072 H 4372.81 1.48448 1.18588 0
M  V30 46073 H 4370.96 1.30202 3.66032 0
M  V30 46074 H 4372.63 3.73274 2.71042 0
M  V30 46075 H 4370.88 3.55055 2.49236 0
M  V30 46076 H 4371.55 3.67187 4.12162 0
M  V30 46077 H 4374.02 1.77893 3.76156 0
M  V30 46078 H 4372.9 1.9375 5.13568 0
M  V30 46079 H 4373.16 0.36103 4.40623 0
M  V30 46080 N 4372.22 -1.20963 1.01023 0
M  V30 46081 C 4373.44 -1.94697 0.714695 0
M  V30 46082 C 4373.87 -1.7389 -0.717204 0
M  V30 46083 O 4373.23 -1.02909 -1.49263 0
M  V30 46084 C 4373.28 -3.45043 1.04775 0
M  V30 46085 O 4372.38 -4.12105 0.155891 0
M  V30 46086 H 4371.72 -0.608488 0.265778 0
M  V30 46087 H 4374.25 -1.53575 1.35188 0
M  V30 46088 H 4374.26 -3.95636 0.996792 0
M  V30 46089 H 4372.94 -3.5951 2.09105 0
M  V30 46090 H 4371.51 -3.71966 0.263829 0
M  V30 46091 N 4373.7 -0.785634 -1.36622 0
M  V30 46092 C 4374.94 -0.356817 -1.99636 0
M  V30 46093 C 4375.28 1.06773 -1.62214 0
M  V30 46094 O 4374.55 1.73703 -0.875071 0
M  V30 46095 C 4374.83 -0.516277 -3.5638 0
M  V30 46096 C 4374.69 -1.98424 -4.03668 0
M  V30 46097 C 4376.01 0.0710019 -4.40043 0
M  V30 46098 H 4373.13 -0.131123 -0.725242 0
M  V30 46099 H 4375.77 -0.991269 -1.62092 0
M  V30 46100 H 4373.92 0.0238298 -3.88493 0
M  V30 46101 H 4375.59 -2.58512 -3.8206 0
M  V30 46102 H 4373.83 -2.48818 -3.55348 0
M  V30 46103 H 4374.5 -2.04679 -5.1265 0
M  V30 46104 H 4376.98 -0.390004 -4.14268 0
M  V30 46105 H 4375.86 -0.0706205 -5.48855 0
M  V30 46106 H 4376.12 1.16274 -4.26536 0
M  V30 46107 N 4375.18 1.48157 -0.53733 0
M  V30 46108 C 4376.11 2.32553 0.210047 0
M  V30 46109 C 4377.09 1.42554 0.928027 0
M  V30 46110 O 4378.27 1.71433 0.912374 0
M  V30 46111 C 4375.4 3.23913 1.2529 0
M  V30 46112 C 4374.36 4.22995 0.652616 0
M  V30 46113 C 4373.68 5.0354 1.79866 0
M  V30 46114 C 4374.98 5.20912 -0.380537 0
M  V30 46115 H 4376.68 2.95288 -0.494496 0
M  V30 46116 H 4374.22 1.41999 -0.239254 0
M  V30 46117 H 4376.17 3.81785 1.78376 0
M  V30 46118 H 4374.9 2.59193 1.98712 0
M  V30 46119 H 4373.56 3.6632 0.143222 0
M  V30 46120 H 4373.21 4.35238 2.52144 0
M  V30 46121 H 4372.91 5.70607 1.40289 0
M  V30 46122 H 4374.43 5.64266 2.33316 0
M  V30 46123 H 4375.84 5.73265 0.063506 0
M  V30 46124 H 4374.24 5.96072 -0.694094 0
M  V30 46125 H 4375.31 4.676 -1.28367 0
M  V30 46126 N 4376.65 0.272809 1.55221 0
M  V30 46127 C 4377.9 -0.344632 1.99546 0
M  V30 46128 C 4378.23 -1.56034 1.16119 0
M  V30 46129 O 4377.48 -1.94479 0.218289 0
M  V30 46130 C 4377.78 -0.773049 3.48939 0
M  V30 46131 C 4377.45 0.337763 4.49633 0
M  V30 46132 C 4376.11 0.642779 4.76888 0
M  V30 46133 C 4378.46 1.08639 5.09752 0
M  V30 46134 C 4375.79 1.70004 5.6153 0
M  V30 46135 C 4378.14 2.13335 5.95542 0
M  V30 46136 C 4376.81 2.44474 6.21119 0
M  V30 46137 H 4376.08 -0.12611 0.73019 0
M  V30 46138 H 4378.72 0.386041 1.87569 0
M  V30 46139 H 4377.03 -1.58336 3.58381 0
M  V30 46140 H 4378.73 -1.26149 3.80641 0
M  V30 46141 H 4375.32 0.0899087 4.28506 0
M  V30 46142 H 4379.5 0.863995 4.88722 0
M  V30 46143 H 4374.76 1.94634 5.79593 0
M  V30 46144 H 4378.93 2.71819 6.41161 0
M  V30 46145 H 4376.56 3.26533 6.86498 0
M  V30 46146 N 4378.13 -1.576 5.54043e-05 0
M  V30 46147 C 4379.41 -1.81794 -0.721822 0
M  V30 46148 C 4379.79 -0.877771 -1.91985 0
M  V30 46149 O 4379.14 0.0734924 -2.28382 0
M  V30 46150 C 4379.35 -3.30286 -1.12749 0
M  V30 46151 C 4380.7 -3.96025 -1.53132 0
M  V30 46152 O 4381.72 -3.34609 -1.22128 0
M  V30 46153 O 4380.58 -5.04214 -2.10784 0
M  V30 46154 H 4377.67 -0.748594 -0.351477 0
M  V30 46155 H 4380.22 -1.69681 0.0255137 0
M  V30 46156 H 4378.99 -3.90343 -0.273549 0
M  V30 46157 H 4378.61 -3.47398 -1.93393 0
M  V30 46158 N 4379.61 0.2727 -1.55223 0
M  V30 46159 C 4381.03 0.619907 -1.47069 0
M  V30 46160 C 4381.23 1.89498 -0.685045 0
M  V30 46161 O 4380.28 2.51674 -0.204019 0
M  V30 46162 C 4381.6 0.74659 -2.91284 0
M  V30 46163 C 4383.14 0.840625 -3.015 0
M  V30 46164 C 4383.62 0.999083 -4.4697 0
M  V30 46165 N 4385.11 1.0646 -4.508 0
M  V30 46166 C 4385.84 1.20601 -5.60574 0
M  V30 46167 N 4385.34 1.31459 -6.80213 0
M  V30 46168 N 4387.13 1.23714 -5.48317 0
M  V30 46169 H 4379.28 -0.564678 -2.04756 0
M  V30 46170 H 4381.55 -0.19121 -0.928516 0
M  V30 46171 H 4381.25 -0.119877 -3.51496 0
M  V30 46172 H 4381.13 1.62678 -3.40317 0
M  V30 46173 H 4383.51 1.69756 -2.41385 0
M  V30 46174 H 4383.6 -0.0641773 -2.55719 0
M  V30 46175 H 4383.24 0.146806 -5.07688 0
M  V30 46176 H 4383.17 1.91854 -4.90408 0
M  V30 46177 H 4385.66 0.993068 -3.64618 0
M  V30 46178 H 4385.97 1.42084 -7.59626 0
M  V30 46179 H 4384.32 1.28463 -6.83024 0
M  V30 46180 H 4387.51 1.14861 -4.53789 0
M  V30 46181 H 4387.68 1.3439 -6.33911 0
M  V30 46182 N 4381.09 1.48161 0.537226 0
M  V30 46183 C 4382.34 1.55065 1.28988 0
M  V30 46184 C 4382.65 0.226279 1.94287 0
M  V30 46185 O 4383.86 0.17349 2.70945 0
M  V30 46186 C 4382.31 2.73438 2.34008 0
M  V30 46187 C 4381.92 4.12487 1.74811 0
M  V30 46188 C 4383.66 2.89649 3.10329 0
M  V30 46189 C 4381.57 5.22131 2.77729 0
M  V30 46190 H 4380.5 0.577248 0.485078 0
M  V30 46191 H 4383.15 1.7448 0.568255 0
M  V30 46192 H 4381.53 2.47442 3.09174 0
M  V30 46193 H 4382.71 4.4847 1.05883 0
M  V30 46194 H 4381.02 4.01331 1.11008 0
M  V30 46195 H 4383.62 3.68732 3.87222 0
M  V30 46196 H 4383.96 1.98833 3.65747 0
M  V30 46197 H 4384.5 3.1551 2.42277 0
M  V30 46198 H 4381.24 6.14888 2.2714 0
M  V30 46199 H 4380.76 4.90643 3.45007 0
M  V30 46200 H 4382.43 5.49936 3.40851 0
M  V30 46201 N 4382.57 -0.785538 1.36627 0
M  V30 46202 C 4383.98 -1.08415 1.17126 0
M  V30 46203 C 4384.18 -2.015 -0.00201407 0
M  V30 46204 O 4383.24 -2.43553 -0.666192 0
M  V30 46205 C 4384.55 -1.69489 2.48383 0
M  V30 46206 C 4386.1 -1.81812 2.54781 0
M  V30 46207 C 4386.57 -2.46301 3.86134 0
M  V30 46208 N 4388.07 -2.53766 3.87501 0
M  V30 46209 C 4388.8 -3.04483 4.85878 0
M  V30 46210 N 4388.3 -3.55478 5.94649 0
M  V30 46211 N 4390.09 -3.03231 4.73294 0
M  V30 46212 H 4382.24 -0.167189 2.11741 0
M  V30 46213 H 4384.5 -0.136787 0.93808 0
M  V30 46214 H 4384.21 -1.0856 3.34526 0
M  V30 46215 H 4384.08 -2.68951 2.64471 0
M  V30 46216 H 4386.47 -2.41878 1.69053 0
M  V30 46217 H 4386.55 -0.811447 2.42588 0
M  V30 46218 H 4386.2 -1.86878 4.7227 0
M  V30 46219 H 4386.13 -3.47547 3.95624 0
M  V30 46220 H 4388.62 -2.17661 3.08921 0
M  V30 46221 H 4388.93 -3.92539 6.65682 0
M  V30 46222 H 4387.27 -3.53619 5.98313 0
M  V30 46223 H 4390.47 -2.62683 3.87447 0
M  V30 46224 H 4390.64 -3.42448 5.50121 0
M  V30 46225 N 4384.04 -1.20971 -1.01014 0
M  V30 46226 C 4384.99 -0.964354 -2.09688 0
M  V30 46227 C 4385.96 0.107795 -1.6575 0
M  V30 46228 O 4387.15 -0.0382658 -1.90762 0
M  V30 46229 C 4384.29 -0.529549 -3.41013 0
M  V30 46230 C 4383.4 -1.67057 -3.98392 0
M  V30 46231 C 4382.53 -1.18544 -5.17804 0
M  V30 46232 C 4381.57 -2.29912 -5.6728 0
M  V30 46233 N 4380.71 -1.82569 -6.77947 0
M  V30 46234 H 4385.55 -1.89471 -2.3001 0
M  V30 46235 H 4383.09 -0.944329 -1.12787 0
M  V30 46236 H 4385.05 -0.258735 -4.16397 0
M  V30 46237 H 4383.68 0.363806 -3.20743 0
M  V30 46238 H 4382.73 -2.05614 -3.20042 0
M  V30 46239 H 4384.04 -2.50892 -4.31108 0
M  V30 46240 H 4383.19 -0.870973 -6.00416 0
M  V30 46241 H 4381.93 -0.317058 -4.86668 0
M  V30 46242 H 4380.94 -2.62167 -4.83269 0
M  V30 46243 H 4382.16 -3.17237 -6.00448 0
M  V30 46244 H 4380.11 -0.980682 -6.48628 0
M  V30 46245 H 4380.03 -2.59981 -7.09891 0
M  V30 46246 H 4381.29 -1.54142 -7.64108 0
M  V30 46247 N 4385.52 1.20426 -1.01663 0
M  V30 46248 C 4386.77 1.8942 -0.704589 0
M  V30 46249 C 4387.09 1.79234 0.768134 0
M  V30 46250 O 4386.36 1.19476 1.55249 0
M  V30 46251 H 4384.94 0.701169 -0.257627 0
M  V30 46252 H 4387.6 1.46255 -1.28823 0
M  V30 46253 H 4386.7 2.96048 -0.98802 0
M  V30 46254 N 4387 0.792868 1.36203 0
M  V30 46255 C 4388.25 0.366856 1.99149 0
M  V30 46256 C 4388.58 -1.06237 1.62923 0
M  V30 46257 O 4387.83 -1.74924 0.877504 0
M  V30 46258 C 4388.13 0.481626 3.5414 0
M  V30 46259 C 4387.8 1.87216 4.10196 0
M  V30 46260 C 4386.46 2.25262 4.25218 0
M  V30 46261 C 4388.81 2.78252 4.4071 0
M  V30 46262 C 4386.14 3.53739 4.68066 0
M  V30 46263 C 4388.49 4.06161 4.84991 0
M  V30 46264 C 4387.15 4.44224 4.98218 0
M  V30 46265 H 4386.42 0.134242 0.728739 0
M  V30 46266 H 4389.07 1.011 1.62638 0
M  V30 46267 H 4387.38 -0.246008 3.91027 0
M  V30 46268 H 4389.07 0.132985 4.00779 0
M  V30 46269 H 4385.66 1.56653 3.98946 0
M  V30 46270 H 4389.85 2.50112 4.2867 0
M  V30 46271 H 4385.1 3.83097 4.76494 0
M  V30 46272 H 4389.28 4.76814 5.07564 0
M  V30 46273 H 4386.9 5.43833 5.31178 0
M  V30 46274 N 4388.48 -1.4787 0.54518 0
M  V30 46275 C 4389.89 -1.86384 0.108646 0
M  V30 46276 C 4390.24 -1.45314 -1.31827 0
M  V30 46277 O 4389.37 -0.850711 -1.98977 0
M  V30 46278 C 4389.96 -3.38265 0.190393 0
M  V30 46279 C 4388.52 -3.75915 -0.191032 0
M  V30 46280 C 4387.67 -2.71924 0.543368 0
M  V30 46281 H 4390.62 -1.39559 0.755586 0
M  V30 46282 H 4390.64 -3.75834 -0.594085 0
M  V30 46283 H 4390.15 -3.68126 1.22903 0
M  V30 46284 H 4388.25 -3.51669 -1.23124 0
M  V30 46285 H 4388.36 -4.78836 0.159155 0
M  V30 46286 H 4386.73 -2.54697 -0.0121599 0
M  V30 46287 H 4387.51 -3.04628 1.58293 0
M  V30 46288 N 4389.96 -0.281037 -1.55074 0
M  V30 46289 C 4391.2 0.335163 -2.01633 0
M  V30 46290 C 4391.56 1.52606 -1.16513 0
M  V30 46291 O 4392.76 2.21229 -1.52679 0
M  V30 46292 C 4391.03 0.702049 -3.50437 0
M  V30 46293 S 4392.59 1.30394 -4.18978 0
M  V30 46294 H 4389.41 0.103943 -0.703361 0
M  V30 46295 H 4392.01 -0.404254 -1.91275 0
M  V30 46296 H 4390.72 -0.173474 -4.10033 0
M  V30 46297 H 4390.25 1.47277 -3.64792 0
M  V30 46298 H 4392.26 2.59238 -4.23096 0
M  V30 46299 N 4391.44 1.57598 -0.00841331 0
M  V30 46300 C 4392.35 2.12388 0.996412 0
M  V30 46301 C 4393.36 1.07113 1.37124 0
M  V30 46302 O 4394.54 1.3906 1.45685 0
M  V30 46303 C 4391.6 2.62322 2.2669 0
M  V30 46304 C 4390.66 3.82231 1.95442 0
M  V30 46305 C 4389.9 4.29774 3.16433 0
M  V30 46306 O 4390.12 3.76599 4.28403 0
M  V30 46307 O 4389.05 5.21843 2.9994 0
M  V30 46308 H 4392.88 2.98481 0.56062 0
M  V30 46309 H 4390.46 1.47903 0.210935 0
M  V30 46310 H 4392.35 2.946 3.01312 0
M  V30 46311 H 4391.02 1.79323 2.6949 0
M  V30 46312 H 4389.93 3.54913 1.18269 0
M  V30 46313 H 4391.26 4.6633 1.57472 0
M  V30 46314 N 4392.91 -0.264465 1.55365 0
M  V30 46315 C 4393.88 -1.31039 1.88046 0
M  V30 46316 C 4394.88 -1.4194 0.755618 0
M  V30 46317 O 4396.07 -1.40944 1.02374 0
M  V30 46318 C 4393.2 -2.69059 2.09332 0
M  V30 46319 H 4394.39 -1.03287 2.81552 0
M  V30 46320 H 4391.94 -0.502937 1.47987 0
M  V30 46321 H 4392.68 -3.01978 1.18236 0
M  V30 46322 H 4392.46 -2.62531 2.91238 0
M  V30 46323 H 4393.95 -3.44615 2.35861 0
M  V30 46324 N 4394.39 -1.48444 -0.529361 0
M  V30 46325 C 4395.81 -1.34578 -0.857957 0
M  V30 46326 C 4396.01 -0.35727 -1.98307 0
M  V30 46327 O 4395.06 0.221291 -2.51528 0
M  V30 46328 C 4396.38 -2.74621 -1.2249 0
M  V30 46329 C 4397.92 -2.83114 -1.33474 0
M  V30 46330 C 4398.4 -4.23861 -1.73511 0
M  V30 46331 N 4399.89 -4.26536 -1.80613 0
M  V30 46332 C 4400.63 -5.32379 -2.12978 0
M  V30 46333 N 4400.12 -6.48499 -2.43763 0
M  V30 46334 N 4401.91 -5.19774 -2.13989 0
M  V30 46335 H 4394.07 -2.11329 0.212999 0
M  V30 46336 H 4396.33 -0.947437 0.0326532 0
M  V30 46337 H 4396.03 -3.48521 -0.471782 0
M  V30 46338 H 4395.91 -3.08185 -2.1749 0
M  V30 46339 H 4398.3 -2.09469 -2.07862 0
M  V30 46340 H 4398.38 -2.53169 -0.365938 0
M  V30 46341 H 4398.02 -4.98022 -0.996838 0
M  V30 46342 H 4397.95 -4.51249 -2.71443 0
M  V30 46343 H 4400.44 -3.42778 -1.59096 0
M  V30 46344 H 4400.75 -7.25002 -2.67566 0
M  V30 46345 H 4399.1 -6.51773 -2.41281 0
M  V30 46346 H 4402.29 -4.28073 -1.89396 0
M  V30 46347 H 4402.46 -6.02362 -2.38881 0
M  V30 46348 N 4395.87 0.778281 -1.37042 0
M  V30 46349 C 4397.12 1.53888 -1.32085 0
M  V30 46350 C 4397.45 1.9396 0.0964704 0
M  V30 46351 O 4396.72 1.63571 1.05236 0
M  V30 46352 C 4397.01 2.80839 -2.25392 0
M  V30 46353 C 4396.86 2.47062 -3.75873 0
M  V30 46354 C 4398.18 3.82733 -2.17264 0
M  V30 46355 H 4395.3 0.558286 -0.48113 0
M  V30 46356 H 4397.94 0.893338 -1.67689 0
M  V30 46357 H 4396.09 3.35924 -1.95159 0
M  V30 46358 H 4397.76 1.97942 -4.16673 0
M  V30 46359 H 4396 1.79849 -3.94762 0
M  V30 46360 H 4396.68 3.37783 -4.36585 0
M  V30 46361 H 4399.15 3.37124 -2.43899 0
M  V30 46362 H 4398.03 4.69293 -2.84702 0
M  V30 46363 H 4398.29 4.26516 -1.16346 0
M  V30 46364 N 4397.35 1.21505 1.00371 0
M  V30 46365 C 4398.59 1.03459 1.74425 0
M  V30 46366 C 4398.93 -0.430697 1.89364 0
M  V30 46367 O 4398.2 -1.31957 1.4289 0
M  V30 46368 C 4398.48 1.73386 3.15609 0
M  V30 46369 C 4398.34 3.27442 3.08386 0
M  V30 46370 C 4399.66 1.47746 4.14559 0
M  V30 46371 H 4396.78 0.377248 0.633129 0
M  V30 46372 H 4399.42 1.49697 1.17007 0
M  V30 46373 H 4397.57 1.34077 3.64631 0
M  V30 46374 H 4399.24 3.76128 2.67068 0
M  V30 46375 H 4397.48 3.57678 2.45456 0
M  V30 46376 H 4398.15 3.71538 4.08244 0
M  V30 46377 H 4400.63 1.81873 3.74248 0
M  V30 46378 H 4399.51 1.99187 5.11484 0
M  V30 46379 H 4399.77 0.407744 4.40216 0
M  V30 46380 N 4398.83 -1.19885 1.023 0
M  V30 46381 C 4399.79 -2.21114 0.603428 0
M  V30 46382 C 4400.79 -1.57381 -0.329829 0
M  V30 46383 O 4401.98 -1.73802 -0.117641 0
M  V30 46384 C 4399.11 -3.40696 -0.117872 0
M  V30 46385 H 4400.3 -2.59748 1.49903 0
M  V30 46386 H 4397.86 -1.3346 0.813515 0
M  V30 46387 H 4398.59 -3.07572 -1.02809 0
M  V30 46388 H 4398.38 -3.88186 0.552647 0
M  V30 46389 H 4399.87 -4.15694 -0.39855 0
M  V30 46390 N 4400.3 -0.80008 -1.35781 0
M  V30 46391 C 4401.72 -0.483031 -1.52115 0
M  V30 46392 C 4401.92 0.996887 -1.75113 0
M  V30 46393 O 4400.98 1.7821 -1.78878 0
M  V30 46394 C 4402.29 -1.32274 -2.70045 0
M  V30 46395 C 4403.84 -1.31752 -2.8392 0
M  V30 46396 C 4404.31 -2.1412 -4.04866 0
M  V30 46397 N 4405.8 -2.11622 -4.12032 0
M  V30 46398 C 4406.54 -2.72117 -5.04718 0
M  V30 46399 N 4406.03 -3.41513 -6.02777 0
M  V30 46400 N 4407.83 -2.61793 -4.97414 0
M  V30 46401 H 4399.98 -1.7586 -1.19109 0
M  V30 46402 H 4402.24 -0.748143 -0.582226 0
M  V30 46403 H 4401.95 -2.3727 -2.59607 0
M  V30 46404 H 4401.82 -0.971431 -3.64476 0
M  V30 46405 H 4404.21 -0.275436 -2.93812 0
M  V30 46406 H 4404.29 -1.70866 -1.90364 0
M  V30 46407 H 4403.93 -3.18365 -3.95735 0
M  V30 46408 H 4403.86 -1.7237 -4.9759 0
M  V30 46409 H 4406.35 -1.61124 -3.4183 0
M  V30 46410 H 4406.67 -3.84976 -6.70084 0
M  V30 46411 H 4405.01 -3.45617 -6.02971 0
M  V30 46412 H 4408.2 -2.07171 -4.19759 0
M  V30 46413 H 4408.38 -3.0923 -5.69457 0
M  V30 46414 N 4401.78 1.47579 -0.553014 0
M  V30 46415 C 4403.03 2.01684 -0.0252704 0
M  V30 46416 C 4403.34 1.43322 1.3311 0
M  V30 46417 O 4404.55 1.89064 1.94851 0
M  V30 46418 C 4403.01 3.599 0.00529399 0
M  V30 46419 C 4402.61 4.27252 -1.34757 0
M  V30 46420 C 4404.36 4.2177 0.480651 0
M  V30 46421 C 4402.26 5.77463 -1.27635 0
M  V30 46422 H 4401.19 0.753979 -0.00567684 0
M  V30 46423 H 4403.85 1.69614 -0.70024 0
M  V30 46424 H 4402.23 3.88913 0.745824 0
M  V30 46425 H 4403.4 4.09885 -2.10549 0
M  V30 46426 H 4401.72 3.77352 -1.76052 0
M  V30 46427 H 4404.31 5.3184 0.552273 0
M  V30 46428 H 4404.66 3.88657 1.4917 0
M  V30 46429 H 4405.19 3.97272 -0.204892 0
M  V30 46430 H 4401.93 6.15188 -2.26326 0
M  V30 46431 H 4401.45 5.97178 -0.56017 0
M  V30 46432 H 4403.13 6.39586 -0.976645 0
M  V30 46433 N 4403.26 0.289257 1.54923 0
M  V30 46434 C 4404.19 -0.58541 2.26042 0
M  V30 46435 C 4405.17 -1.14748 1.25566 0
M  V30 46436 O 4406.36 -1.179 1.54315 0
M  V30 46437 C 4403.49 -1.76295 2.99228 0
M  V30 46438 C 4402.44 -1.33177 4.06753 0
M  V30 46439 C 4401.77 -2.59354 4.67589 0
M  V30 46440 C 4403.07 -0.471593 5.20167 0
M  V30 46441 H 4404.76 0.00774057 2.99399 0
M  V30 46442 H 4402.31 0.00516291 1.43999 0
M  V30 46443 H 4404.26 -2.38085 3.47698 0
M  V30 46444 H 4402.98 -2.38215 2.2343 0
M  V30 46445 H 4401.64 -0.736995 3.59115 0
M  V30 46446 H 4401.29 -3.19563 3.88444 0
M  V30 46447 H 4400.99 -2.31209 5.402 0
M  V30 46448 H 4402.51 -3.21967 5.18816 0
M  V30 46449 H 4403.93 -0.994857 5.64602 0
M  V30 46450 H 4402.32 -0.284429 5.99426 0
M  V30 46451 H 4403.39 0.50621 4.8225 0
M  V30 46452 N 4404.74 -1.57591 0.016771 0
M  V30 46453 C 4406.15 -1.79202 -0.523771 0
M  V30 46454 C 4406.5 -0.925856 -1.72981 0
M  V30 46455 O 4405.62 -0.132868 -2.15992 0
M  V30 46456 C 4406.22 -3.25004 -0.956977 0
M  V30 46457 C 4404.78 -3.47653 -1.44271 0
M  V30 46458 C 4403.93 -2.74376 -0.401661 0
M  V30 46459 H 4406.88 -1.56831 0.242871 0
M  V30 46460 H 4406.9 -3.34037 -1.82207 0
M  V30 46461 H 4406.41 -3.8802 -0.0790051 0
M  V30 46462 H 4404.51 -2.89874 -2.34102 0
M  V30 46463 H 4404.62 -4.56357 -1.45861 0
M  V30 46464 H 4402.99 -2.39488 -0.867037 0
M  V30 46465 H 4403.77 -3.401 0.467633 0
M  V30 46466 N 4406.22 0.256222 -1.55503 0
M  V30 46467 C 4407.15 1.33975 -1.85966 0
M  V30 46468 C 4408.16 1.4474 -0.745263 0
M  V30 46469 O 4409.35 1.46257 -1.02329 0
M  V30 46470 C 4406.45 2.71933 -2.02252 0
M  V30 46471 C 4405.62 2.83551 -3.33043 0
M  V30 46472 C 4404.68 4.02292 -3.39186 0
M  V30 46473 O 4403.71 3.92259 -4.12458 0
M  V30 46474 N 4404.91 5.15036 -2.67802 0
M  V30 46475 H 4407.68 1.08181 -2.79494 0
M  V30 46476 H 4405.24 0.446334 -1.55626 0
M  V30 46477 H 4407.23 3.4969 -2.03714 0
M  V30 46478 H 4405.8 2.90475 -1.15513 0
M  V30 46479 H 4405.02 1.92543 -3.43978 0
M  V30 46480 H 4406.31 2.88256 -4.19268 0
M  V30 46481 H 4405.7 5.26078 -2.07987 0
M  V30 46482 H 4404.26 5.90962 -2.74967 0
M  V30 46483 N 4407.69 1.48722 0.521481 0
M  V30 46484 C 4408.94 1.57172 1.27684 0
M  V30 46485 C 4409.27 0.249343 1.92895 0
M  V30 46486 O 4408.52 -0.761099 1.80294 0
M  V30 46487 C 4408.82 2.66505 2.38138 0
M  V30 46488 C 4408.49 4.08671 1.90523 0
M  V30 46489 C 4407.15 4.47363 1.77255 0
M  V30 46490 C 4409.5 4.97729 1.54645 0
M  V30 46491 C 4406.83 5.7291 1.26458 0
M  V30 46492 C 4409.18 6.23773 1.05307 0
M  V30 46493 C 4407.85 6.61314 0.906629 0
M  V30 46494 H 4407.12 0.575134 0.467228 0
M  V30 46495 H 4409.76 1.82474 0.580987 0
M  V30 46496 H 4408.07 2.35096 3.13428 0
M  V30 46497 H 4409.77 2.70256 2.96247 0
M  V30 46498 H 4406.36 3.78118 2.01803 0
M  V30 46499 H 4410.54 4.68507 1.63752 0
M  V30 46500 H 4405.8 6.00713 1.13814 0
M  V30 46501 H 4409.97 6.92172 0.766196 0
M  V30 46502 H 4407.6 7.58482 0.510816 0
M  V30 46503 N 4409.17 -0.771003 1.37453 0
M  V30 46504 C 4410.1 -1.89822 1.35977 0
M  V30 46505 C 4411.08 -1.68561 0.228276 0
M  V30 46506 O 4412.27 -1.89408 0.428741 0
M  V30 46507 C 4409.4 -3.27116 1.16673 0
M  V30 46508 C 4408.35 -3.62942 2.26842 0
M  V30 46509 C 4407.68 -4.98784 1.92661 0
M  V30 46510 C 4408.98 -3.69614 3.6903 0
M  V30 46511 H 4410.67 -1.91315 2.30302 0
M  V30 46512 H 4408.22 -0.919043 1.10858 0
M  V30 46513 H 4410.17 -4.05611 1.1427 0
M  V30 46514 H 4408.9 -3.26058 0.18804 0
M  V30 46515 H 4407.55 -2.86755 2.28402 0
M  V30 46516 H 4407.2 -4.94268 0.933195 0
M  V30 46517 H 4406.9 -5.23724 2.66434 0
M  V30 46518 H 4408.43 -5.79679 1.91847 0
M  V30 46519 H 4409.84 -4.3826 3.69596 0
M  V30 46520 H 4408.24 -4.06051 4.41862 0
M  V30 46521 H 4409.31 -2.70258 4.02602 0
M  V30 46522 N 4410.65 -1.22035 -0.997255 0
M  V30 46523 C 4411.93 -0.950883 -1.70931 0
M  V30 46524 C 4412.31 0.53522 -2.04202 0
M  V30 46525 O 4411.66 1.50211 -1.72188 0
M  V30 46526 C 4411.87 -1.84396 -2.96309 0
M  V30 46527 C 4413.21 -2.09745 -3.69178 0
M  V30 46528 O 4414.24 -1.81809 -3.06307 0
M  V30 46529 O 4413.1 -2.57035 -4.82281 0
M  V30 46530 H 4410.19 -0.35723 -0.745866 0
M  V30 46531 H 4412.74 -1.33001 -1.05399 0
M  V30 46532 H 4411.51 -2.84937 -2.68191 0
M  V30 46533 H 4411.13 -1.46615 -3.69581 0
M  V30 46534 N 4412.13 1.19341 -1.02934 0
M  V30 46535 C 4413.41 1.84809 -0.640707 0
M  V30 46536 C 4413.79 1.91858 0.880552 0
M  V30 46537 O 4413.13 1.43593 1.77745 0
M  V30 46538 C 4413.34 3.23751 -1.30332 0
M  V30 46539 C 4414.69 3.99907 -1.42687 0
M  V30 46540 O 4415.72 3.3315 -1.26053 0
M  V30 46541 O 4414.57 5.19488 -1.69689 0
M  V30 46542 H 4411.67 0.796436 -0.222754 0
M  V30 46543 H 4414.21 1.26827 -1.12752 0
M  V30 46544 H 4412.99 3.13458 -2.34222 0
M  V30 46545 H 4412.61 3.89378 -0.804398 0
M  V30 46546 N 4413.61 0.80727 1.35355 0
M  V30 46547 C 4414.85 0.387958 1.98749 0
M  V30 46548 C 4415.18 -1.04503 1.6404 0
M  V30 46549 O 4414.44 -1.73983 0.896007 0
M  V30 46550 C 4414.74 0.51916 3.53609 0
M  V30 46551 C 4414.4 1.91557 4.08187 0
M  V30 46552 C 4413.06 2.2976 4.22805 0
M  V30 46553 C 4415.42 2.82911 4.37734 0
M  V30 46554 C 4412.74 3.58684 4.64287 0
M  V30 46555 C 4415.1 4.11282 4.80656 0
M  V30 46556 C 4413.76 4.49483 4.93478 0
M  V30 46557 H 4413.03 0.141964 0.727274 0
M  V30 46558 H 4415.68 1.02819 1.61556 0
M  V30 46559 H 4413.98 -0.204521 3.91266 0
M  V30 46560 H 4415.68 0.175486 4.00616 0
M  V30 46561 H 4412.27 1.60876 3.97262 0
M  V30 46562 H 4416.45 2.54644 4.25993 0
M  V30 46563 H 4411.71 3.88129 4.72404 0
M  V30 46564 H 4415.88 4.8217 5.02479 0
M  V30 46565 H 4413.51 5.49436 5.2538 0
M  V30 46566 N 4415.08 -1.47283 0.560833 0
M  V30 46567 C 4416.33 -2.02464 0.0381332 0
M  V30 46568 C 4416.66 -1.43479 -1.31317 0
M  V30 46569 O 4415.91 -0.581377 -1.86865 0
M  V30 46570 C 4416.21 -3.57258 -0.100658 0
M  V30 46571 C 4415.88 -4.3518 1.18022 0
M  V30 46572 C 4414.54 -4.56189 1.53119 0
M  V30 46573 C 4416.89 -4.80091 2.02884 0
M  V30 46574 C 4414.22 -5.19358 2.72918 0
M  V30 46575 C 4416.57 -5.44582 3.2189 0
M  V30 46576 C 4415.24 -5.63823 3.57296 0
M  V30 46577 H 4414.51 -0.740869 0.0139539 0
M  V30 46578 H 4417.15 -1.76913 0.733074 0
M  V30 46579 H 4415.46 -3.81822 -0.87859 0
M  V30 46580 H 4417.16 -3.97608 -0.5205 0
M  V30 46581 H 4413.75 -4.1911 0.896948 0
M  V30 46582 H 4417.93 -4.63635 1.77076 0
M  V30 46583 H 4413.19 -5.32448 3.00514 0
M  V30 46584 H 4417.36 -5.78344 3.87931 0
M  V30 46585 H 4414.99 -6.12542 4.50219 0
M  V30 46586 N 4416.56 -0.297469 -1.54767 0
M  V30 46587 C 4417.97 0.195882 -1.8567 0
M  V30 46588 C 4418.32 1.53702 -1.21943 0
M  V30 46589 O 4417.45 2.10162 -0.515828 0
M  V30 46590 C 4418.04 0.3622 -3.36858 0
M  V30 46591 C 4416.6 0.799772 -3.67805 0
M  V30 46592 C 4415.75 -0.0939552 -2.77141 0
M  V30 46593 H 4418.7 -0.518591 -1.49988 0
M  V30 46594 H 4418.72 1.19733 -3.61171 0
M  V30 46595 H 4418.23 -0.614055 -3.83211 0
M  V30 46596 H 4416.34 1.7867 -3.26967 0
M  V30 46597 H 4416.45 0.621606 -4.7505 0
M  V30 46598 H 4414.81 0.426166 -2.51109 0
M  V30 46599 H 4415.6 -1.0665 -3.26314 0
M  V30 46600 N 4418.04 1.5758 -0.0251282 0
M  V30 46601 C 4419.45 1.79478 0.51426 0
M  V30 46602 C 4419.8 0.935017 1.72487 0
M  V30 46603 O 4418.93 0.144321 2.15918 0
M  V30 46604 C 4419.52 3.25507 0.939728 0
M  V30 46605 C 4418.08 3.48413 1.42426 0
M  V30 46606 C 4417.23 2.74585 0.387104 0
M  V30 46607 H 4420.18 1.567 -0.251185 0
M  V30 46608 H 4420.2 3.34999 1.80433 0
M  V30 46609 H 4419.71 3.88056 0.0584264 0
M  V30 46610 H 4417.81 2.91111 2.32562 0
M  V30 46611 H 4417.93 4.57124 1.43439 0
M  V30 46612 H 4416.29 2.39945 0.854324 0
M  V30 46613 H 4417.07 3.39847 -0.485662 0
M  V30 46614 N 4419.52 -0.247971 1.55637 0
M  V30 46615 C 4420.45 -1.32986 1.86674 0
M  V30 46616 C 4421.46 -1.44343 0.752928 0
M  V30 46617 O 4422.65 -1.45712 1.03103 0
M  V30 46618 C 4419.75 -2.70856 2.03691 0
M  V30 46619 C 4418.93 -2.8178 3.34542 0
M  V30 46620 C 4417.98 -4.00488 3.41315 0
M  V30 46621 O 4417.01 -3.90066 4.14533 0
M  V30 46622 N 4418.21 -5.13609 2.7053 0
M  V30 46623 H 4420.98 -1.06697 2.80064 0
M  V30 46624 H 4418.54 -0.438074 1.55861 0
M  V30 46625 H 4420.53 -3.48604 2.05565 0
M  V30 46626 H 4419.1 -2.89858 1.17051 0
M  V30 46627 H 4418.32 -1.90716 3.44994 0
M  V30 46628 H 4419.61 -2.86028 4.20791 0
M  V30 46629 H 4419.01 -5.24968 2.10774 0
M  V30 46630 H 4417.56 -5.89496 2.78098 0
M  V30 46631 N 4421 -1.48997 -0.513587 0
M  V30 46632 C 4422.27 -1.48343 -1.2749 0
M  V30 46633 C 4422.65 -0.204139 -2.10111 0
M  V30 46634 O 4422 0.813806 -2.13517 0
M  V30 46635 C 4422.21 -2.75506 -2.14238 0
M  V30 46636 C 4423.56 -3.24494 -2.73841 0
M  V30 46637 O 4424.58 -2.76536 -2.24514 0
M  V30 46638 O 4423.44 -4.07987 -3.63606 0
M  V30 46639 H 4420.54 -0.593169 -0.576263 0
M  V30 46640 H 4423.08 -1.61248 -0.528892 0
M  V30 46641 H 4421.86 -3.60115 -1.53079 0
M  V30 46642 H 4421.48 -2.654 -2.96055 0
M  V30 46643 N 4422.48 0.763702 -1.3786 0
M  V30 46644 C 4423.72 1.51784 -1.32833 0
M  V30 46645 C 4424.04 1.95427 0.0823032 0
M  V30 46646 O 4425.24 2.70299 0.255077 0
M  V30 46647 C 4423.7 2.74125 -2.33203 0
M  V30 46648 C 4423.31 2.37548 -3.79835 0
M  V30 46649 C 4425.05 3.52045 -2.37201 0
M  V30 46650 C 4422.96 3.56439 -4.71916 0
M  V30 46651 H 4421.89 0.569879 -0.493715 0
M  V30 46652 H 4424.54 0.835765 -1.63362 0
M  V30 46653 H 4422.92 3.44263 -1.95702 0
M  V30 46654 H 4424.1 1.75142 -4.26218 0
M  V30 46655 H 4422.41 1.72785 -3.78859 0
M  V30 46656 H 4425.01 4.40426 -3.03197 0
M  V30 46657 H 4425.35 3.92481 -1.38795 0
M  V30 46658 H 4425.88 2.88912 -2.7345 0
M  V30 46659 H 4422.62 3.21079 -5.71479 0
M  V30 46660 H 4422.14 4.17923 -4.30233 0
M  V30 46661 H 4423.82 4.23151 -4.89441 0
M  V30 46662 N 4423.95 1.22562 0.990769 0
M  V30 46663 C 4424.89 0.940847 2.07902 0
M  V30 46664 C 4425.86 -0.117025 1.62178 0
M  V30 46665 O 4427.05 0.0150169 1.88494 0
M  V30 46666 C 4424.18 0.415439 3.36143 0
M  V30 46667 C 4423.22 1.45832 4.00793 0
M  V30 46668 S 4424.05 3.03235 4.41372 0
M  V30 46669 C 4425.21 2.52337 5.7278 0
M  V30 46670 H 4425.44 1.86238 2.31738 0
M  V30 46671 H 4422.98 1.05692 1.12554 0
M  V30 46672 H 4424.93 0.118891 4.10328 0
M  V30 46673 H 4423.6 -0.485012 3.10333 0
M  V30 46674 H 4422.79 1.04061 4.9314 0
M  V30 46675 H 4422.39 1.70368 3.32943 0
M  V30 46676 H 4424.68 1.93711 6.49217 0
M  V30 46677 H 4425.63 3.43183 6.1938 0
M  V30 46678 H 4426.03 1.93548 5.30282 0
M  V30 46679 N 4425.43 -1.18793 1.03566 0
M  V30 46680 C 4426.38 -2.24295 0.615984 0
M  V30 46681 C 4427.37 -1.65644 -0.35475 0
M  V30 46682 O 4428.58 -1.78618 -0.222588 0
M  V30 46683 H 4424.95 -0.729902 0.18096 0
M  V30 46684 H 4426.93 -2.57004 1.51629 0
M  V30 46685 C 4425.67 -3.47698 -0.0103513 0
M  V30 46686 H 4425 -3.93123 0.727647 0
M  V30 46687 H 4426.44 -4.23159 -0.266846 0
M  V30 46688 C 4424.9 -3.12494 -1.25894 0
M  V30 46689 O 4425.43 -3.25769 -2.35026 0
M  V30 46690 N 4423.63 -2.66864 -1.1503 0
M  V30 46691 H 4423.18 -2.56262 -0.262238 0
M  V30 46692 H 4423.14 -2.43681 -1.98663 0
M  V30 46693 N 4426.91 -0.814437 -1.34925 0
M  V30 46694 C 4427.86 -0.228301 -2.29668 0
M  V30 46695 C 4428.83 0.64211 -1.53187 0
M  V30 46696 O 4430.01 0.585541 -1.81593 0
M  V30 46697 C 4427.15 0.61077 -3.39652 0
M  V30 46698 C 4426.26 -0.280944 -4.31085 0
M  V30 46699 C 4425.4 0.566881 -5.28167 0
M  V30 46700 C 4424.44 -0.324746 -6.11238 0
M  V30 46701 N 4423.58 0.48351 -7.00433 0
M  V30 46702 H 4428.42 -1.04163 -2.79203 0
M  V30 46703 H 4425.95 -0.525181 -1.37405 0
M  V30 46704 H 4427.91 1.11248 -4.02094 0
M  V30 46705 H 4426.54 1.38929 -2.91374 0
M  V30 46706 H 4425.59 -0.900818 -3.6958 0
M  V30 46707 H 4426.9 -0.966895 -4.89339 0
M  V30 46708 H 4426.06 1.13342 -5.96019 0
M  V30 46709 H 4424.8 1.28637 -4.70429 0
M  V30 46710 H 4423.8 -0.903489 -5.42326 0
M  V30 46711 H 4425.03 -1.04222 -6.71055 0
M  V30 46712 H 4422.97 1.18683 -6.45175 0
M  V30 46713 H 4422.89 -0.14423 -7.55862 0
M  V30 46714 H 4424.16 1.03307 -7.72624 0
M  V30 46715 N 4428.39 1.46984 -0.568636 0
M  V30 46716 C 4429.63 2.02741 -0.0489422 0
M  V30 46717 C 4429.97 1.44081 1.30208 0
M  V30 46718 O 4429.24 0.600617 1.84994 0
M  V30 46719 C 4429.52 3.60086 0.0319204 0
M  V30 46720 C 4429.38 4.29157 -1.34701 0
M  V30 46721 C 4430.7 4.3384 0.739645 0
M  V30 46722 H 4427.82 0.736748 -0.0192597 0
M  V30 46723 H 4430.46 1.75286 -0.733127 0
M  V30 46724 H 4428.61 3.83608 0.614595 0
M  V30 46725 H 4430.28 4.16941 -1.97377 0
M  V30 46726 H 4428.52 3.89066 -1.9186 0
M  V30 46727 H 4429.19 5.37822 -1.24304 0
M  V30 46728 H 4431.67 4.15379 0.244793 0
M  V30 46729 H 4430.55 5.4354 0.765215 0
M  V30 46730 H 4430.81 4.03881 1.79812 0
M  V30 46731 N 4429.87 0.305673 1.54607 0
M  V30 46732 C 4431.11 -0.303028 1.99411 0
M  V30 46733 C 4431.43 -1.54644 1.19769 0
M  V30 46734 O 4432.63 -2.23002 1.54863 0
M  V30 46735 C 4431.09 -0.590463 3.55023 0
M  V30 46736 C 4430.7 0.634875 4.43479 0
M  V30 46737 C 4432.44 -1.1601 4.0834 0
M  V30 46738 C 4430.35 0.320334 5.90532 0
M  V30 46739 H 4429.28 -0.117005 0.744866 0
M  V30 46740 H 4431.93 0.415108 1.78743 0
M  V30 46741 H 4430.31 -1.36832 3.71609 0
M  V30 46742 H 4431.49 1.41094 4.38667 0
M  V30 46743 H 4429.8 1.12347 4.00958 0
M  V30 46744 H 4432.4 -1.40976 5.15781 0
M  V30 46745 H 4432.74 -2.10385 3.59227 0
M  V30 46746 H 4433.27 -0.443847 3.95316 0
M  V30 46747 H 4430.01 1.23277 6.43804 0
M  V30 46748 H 4429.53 -0.418369 5.98339 0
M  V30 46749 H 4431.21 -0.0763966 6.46955 0
M  V30 46750 N 4431.34 -1.57564 0.0334847 0
M  V30 46751 C 4432.59 -1.91601 -0.642932 0
M  V30 46752 C 4432.91 -0.910908 -1.72417 0
M  V30 46753 O 4432.18 0.0469242 -1.95844 0
M  V30 46754 H 4430.76 -0.707236 -0.240471 0
M  V30 46755 H 4433.42 -1.94726 0.0823173 0
M  V30 46756 H 4432.52 -2.9234 -1.09288 0
M  V30 46757 N 4432.82 0.239714 -1.55766 0
M  V30 46758 C 4433.73 1.31825 -1.9406 0
M  V30 46759 C 4434.75 1.52272 -0.841979 0
M  V30 46760 O 4435.92 1.65755 -1.144 0
M  V30 46761 C 4432.99 2.65148 -2.23377 0
M  V30 46762 C 4432.05 2.53161 -3.4671 0
M  V30 46763 C 4431.28 3.80127 -3.74619 0
M  V30 46764 O 4431.51 4.82332 -3.04486 0
M  V30 46765 O 4430.44 3.78328 -4.68136 0
M  V30 46766 H 4434.27 1.02337 -2.85938 0
M  V30 46767 H 4431.85 0.441072 -1.42741 0
M  V30 46768 H 4433.73 3.4392 -2.43509 0
M  V30 46769 H 4432.41 2.94353 -1.34676 0
M  V30 46770 H 4431.31 1.72651 -3.31877 0
M  V30 46771 H 4432.65 2.289 -4.35736 0
M  V30 46772 N 4434.3 1.49267 0.505678 0
M  V30 46773 C 4435.55 1.58518 1.2601 0
M  V30 46774 C 4435.87 0.269788 1.9262 0
M  V30 46775 O 4435.13 -0.741934 1.81091 0
M  V30 46776 C 4435.43 2.69016 2.35298 0
M  V30 46777 C 4435.09 4.10668 1.86178 0
M  V30 46778 C 4433.76 4.49218 1.72501 0
M  V30 46779 C 4436.11 4.99341 1.49357 0
M  V30 46780 C 4433.44 5.74219 1.20374 0
M  V30 46781 C 4435.79 6.24855 0.986852 0
M  V30 46782 C 4434.45 6.62239 0.836437 0
M  V30 46783 H 4433.72 0.580057 0.461102 0
M  V30 46784 H 4436.37 1.8308 0.5616 0
M  V30 46785 H 4434.67 2.38407 3.10917 0
M  V30 46786 H 4436.37 2.73383 2.93364 0
M  V30 46787 H 4432.96 3.80237 1.97781 0
M  V30 46788 H 4437.15 4.70218 1.58774 0
M  V30 46789 H 4432.4 6.01887 1.07436 0
M  V30 46790 H 4436.58 6.92946 0.692739 0
M  V30 46791 H 4434.2 7.58981 0.43034 0
M  V30 46792 N 4435.78 -0.756381 1.38263 0
M  V30 46793 C 4436.71 -1.88369 1.37983 0
M  V30 46794 C 4437.69 -1.6831 0.246141 0
M  V30 46795 O 4438.87 -1.88943 0.448806 0
M  V30 46796 C 4436 -3.2586 1.20136 0
M  V30 46797 C 4434.96 -3.60515 2.30679 0
M  V30 46798 C 4434.28 -4.96713 1.97941 0
M  V30 46799 C 4435.58 -3.65679 3.72929 0
M  V30 46800 H 4437.28 -1.88861 2.32318 0
M  V30 46801 H 4434.82 -0.907233 1.11827 0
M  V30 46802 H 4436.78 -4.04376 1.18566 0
M  V30 46803 H 4435.5 -3.2584 0.222613 0
M  V30 46804 H 4434.16 -2.84316 2.3143 0
M  V30 46805 H 4433.81 -4.9325 0.985566 0
M  V30 46806 H 4433.51 -5.20869 2.71974 0
M  V30 46807 H 4435.03 -5.77611 1.97984 0
M  V30 46808 H 4436.45 -4.34315 3.74224 0
M  V30 46809 H 4434.84 -4.01342 4.46144 0
M  V30 46810 H 4435.91 -2.65973 4.05446 0
M  V30 46811 N 4437.26 -1.23086 -0.984255 0
M  V30 46812 C 4438.48 -1.08806 -1.76567 0
M  V30 46813 C 4438.91 0.356592 -1.84689 0
M  V30 46814 O 4438.26 1.25783 -1.30569 0
M  V30 46815 C 4438.31 -1.71382 -3.1727 0
M  V30 46816 O 4437.42 -0.973354 -4.00749 0
M  V30 46817 H 4436.76 -0.381618 -0.543381 0
M  V30 46818 H 4439.29 -1.63061 -1.23581 0
M  V30 46819 H 4439.3 -1.76462 -3.67866 0
M  V30 46820 H 4437.97 -2.76504 -3.10674 0
M  V30 46821 H 4436.55 -0.999204 -3.59264 0
M  V30 46822 N 4438.73 1.18243 -1.04194 0
M  V30 46823 C 4439.68 2.23966 -0.62787 0
M  V30 46824 C 4440.68 1.6583 0.34596 0
M  V30 46825 O 4441.88 1.78734 0.213112 0
M  V30 46826 H 4438.26 0.728933 -0.184828 0
M  V30 46827 H 4440.23 2.56197 -1.5299 0
M  V30 46828 C 4438.98 3.47699 -0.00808815 0
M  V30 46829 H 4438.3 3.92731 -0.748485 0
M  V30 46830 H 4439.74 4.23295 0.244401 0
M  V30 46831 C 4438.2 3.13157 1.24235 0
M  V30 46832 O 4438.73 3.27011 2.33295 0
M  V30 46833 N 4436.94 2.67471 1.13613 0
M  V30 46834 H 4436.48 2.56397 0.248644 0
M  V30 46835 H 4436.44 2.44731 1.97368 0
M  V30 46836 N 4440.21 0.821581 1.34491 0
M  V30 46837 C 4441.14 0.200026 2.28326 0
M  V30 46838 C 4442.16 -0.609324 1.50967 0
M  V30 46839 O 4443.35 -0.439225 1.73012 0
M  V30 46840 C 4440.45 -0.738315 3.3076 0
M  V30 46841 C 4439.62 0.0279169 4.37391 0
M  V30 46842 C 4438.68 -0.83115 5.19594 0
M  V30 46843 O 4437.7 -0.276622 5.68527 0
M  V30 46844 N 4438.91 -2.15113 5.39172 0
M  V30 46845 H 4441.67 1.00619 2.82305 0
M  V30 46846 H 4439.23 0.678418 1.47 0
M  V30 46847 H 4441.22 -1.31759 3.82651 0
M  V30 46848 H 4439.79 -1.44523 2.77185 0
M  V30 46849 H 4439.01 0.788495 3.86234 0
M  V30 46850 H 4440.3 0.555429 5.05759 0
M  V30 46851 H 4439.7 -2.62541 5.01088 0
M  V30 46852 H 4438.26 -2.67929 5.94186 0
M  V30 46853 N 4441.69 -1.4668 0.576422 0
M  V30 46854 C 4442.62 -2.28342 -0.198151 0
M  V30 46855 C 4443.64 -1.38144 -0.861405 0
M  V30 46856 O 4444.82 -1.62799 -0.732024 0
M  V30 46857 C 4441.92 -3.12991 -1.29961 0
M  V30 46858 C 4441.1 -4.31274 -0.729488 0
M  V30 46859 C 4440.16 -4.97369 -1.71786 0
M  V30 46860 O 4439.18 -5.55161 -1.25639 0
M  V30 46861 N 4440.38 -4.93807 -3.0518 0
M  V30 46862 H 4443.15 -2.95459 0.502428 0
M  V30 46863 H 4440.71 -1.56523 0.41377 0
M  V30 46864 H 4442.7 -3.54073 -1.95996 0
M  V30 46865 H 4441.27 -2.4799 -1.90314 0
M  V30 46866 H 4440.49 -3.94052 0.10815 0
M  V30 46867 H 4441.78 -5.0774 -0.328259 0
M  V30 46868 H 4441.18 -4.48089 -3.45301 0
M  V30 46869 H 4439.74 -5.3885 -3.66721 0
M  V30 46870 N 4443.17 -0.313868 -1.54443 0
M  V30 46871 C 4444.58 0.176178 -1.85867 0
M  V30 46872 C 4444.93 1.524 -1.23566 0
M  V30 46873 O 4444.06 2.09603 -0.53809 0
M  V30 46874 C 4444.65 0.326451 -3.37224 0
M  V30 46875 C 4443.21 0.760716 -3.68633 0
M  V30 46876 C 4442.36 -0.123344 -2.77026 0
M  V30 46877 H 4445.31 -0.53447 -1.49429 0
M  V30 46878 H 4445.33 1.15895 -3.6242 0
M  V30 46879 H 4444.84 -0.654666 -3.82539 0
M  V30 46880 H 4442.94 1.75192 -3.28844 0
M  V30 46881 H 4443.05 0.571186 -4.75683 0
M  V30 46882 H 4441.42 0.399508 -2.51547 0
M  V30 46883 H 4442.2 -1.10105 -3.25164 0
M  V30 46884 N 4444.65 1.57544 -0.0418402 0
M  V30 46885 C 4445.88 1.96342 0.642926 0
M  V30 46886 C 4446.28 0.917595 1.65459 0
M  V30 46887 O 4445.63 -0.107682 1.83384 0
M  V30 46888 C 4445.69 3.31338 1.39482 0
M  V30 46889 C 4445.35 4.53798 0.540045 0
M  V30 46890 C 4446.35 5.19553 -0.189989 0
M  V30 46891 C 4444.04 5.00061 0.47371 0
M  V30 46892 C 4446.03 6.299 -0.974896 0
M  V30 46893 C 4443.72 6.10288 -0.314892 0
M  V30 46894 C 4444.71 6.75068 -1.03789 0
M  V30 46895 O 4444.4 7.83177 -1.81354 0
M  V30 46896 H 4444.13 0.651247 0.181254 0
M  V30 46897 H 4446.69 2.05148 -0.101737 0
M  V30 46898 H 4444.92 3.19059 2.1849 0
M  V30 46899 H 4446.61 3.54948 1.96892 0
M  V30 46900 H 4447.37 4.84774 -0.148152 0
M  V30 46901 H 4443.25 4.49437 1.02604 0
M  V30 46902 H 4446.8 6.80395 -1.53974 0
M  V30 46903 H 4442.69 6.44504 -0.3584 0
M  V30 46904 H 4443.46 7.99907 -1.73466 0
M  V30 46905 N 4446.12 -0.23145 1.55891 0
M  V30 46906 C 4447.54 -0.799268 1.68726 0
M  V30 46907 C 4447.89 -1.85396 0.642087 0
M  V30 46908 O 4447.01 -2.15391 -0.208709 0
M  V30 46909 C 4447.61 -1.45653 3.05893 0
M  V30 46910 C 4446.17 -1.97186 3.20616 0
M  V30 46911 C 4445.31 -0.828459 2.64635 0
M  V30 46912 H 4448.26 -0.00697036 1.58698 0
M  V30 46913 H 4448.28 -2.32506 3.01199 0
M  V30 46914 H 4447.8 -0.688674 3.81941 0
M  V30 46915 H 4445.9 -2.76805 2.49419 0
M  V30 46916 H 4446.01 -2.15863 4.27715 0
M  V30 46917 H 4444.37 -1.23313 2.22859 0
M  V30 46918 H 4445.16 -0.0734337 3.43221 0
M  V30 46919 N 4447.6 -1.49533 -0.497755 0
M  V30 46920 C 4448.53 -1.62564 -1.61572 0
M  V30 46921 C 4449.55 -0.508188 -1.54665 0
M  V30 46922 O 4450.74 -0.780366 -1.60538 0
M  V30 46923 C 4447.84 -1.56936 -3.00374 0
M  V30 46924 C 4447.01 -2.84269 -3.3243 0
M  V30 46925 C 4446.07 -2.71648 -4.50659 0
M  V30 46926 O 4445.09 -3.45586 -4.52282 0
M  V30 46927 N 4446.3 -1.8341 -5.50764 0
M  V30 46928 H 4449.06 -2.58986 -1.50819 0
M  V30 46929 H 4446.62 -1.46662 -0.685691 0
M  V30 46930 H 4448.61 -1.46142 -3.77392 0
M  V30 46931 H 4447.18 -0.68359 -3.05034 0
M  V30 46932 H 4446.4 -3.09389 -2.44278 0
M  V30 46933 H 4447.69 -3.68679 -3.50647 0
M  V30 46934 H 4447.09 -1.22602 -5.52255 0
M  V30 46935 H 4445.65 -1.78537 -6.26871 0
M  V30 46936 N 4449.08 0.749038 -1.38662 0
M  V30 46937 C 4450.33 1.50828 -1.35119 0
M  V30 46938 C 4450.66 1.94415 0.0573365 0
M  V30 46939 O 4449.91 1.66069 1.03536 0
M  V30 46940 C 4450.21 2.77112 -2.25707 0
M  V30 46941 C 4449.88 2.52464 -3.73594 0
M  V30 46942 C 4448.54 2.45451 -4.13893 0
M  V30 46943 C 4450.89 2.31049 -4.67189 0
M  V30 46944 C 4448.22 2.15045 -5.45869 0
M  V30 46945 C 4450.57 2.02162 -5.99427 0
M  V30 46946 C 4449.23 1.93609 -6.38805 0
M  V30 46947 H 4448.5 0.551919 -0.494436 0
M  V30 46948 H 4451.15 0.860919 -1.71057 0
M  V30 46949 H 4449.46 3.46521 -1.8284 0
M  V30 46950 H 4451.15 3.35088 -2.20266 0
M  V30 46951 H 4447.74 2.58795 -3.41647 0
M  V30 46952 H 4451.93 2.35443 -4.36898 0
M  V30 46953 H 4447.18 2.06934 -5.75316 0
M  V30 46954 H 4451.36 1.84597 -6.71489 0
M  V30 46955 H 4448.98 1.69813 -7.40991 0
M  V30 46956 N 4450.56 1.23606 0.977714 0
M  V30 46957 C 4451.49 0.962844 2.06893 0
M  V30 46958 C 4452.47 -0.0998173 1.62293 0
M  V30 46959 O 4453.65 0.0350083 1.88467 0
M  V30 46960 C 4450.78 0.451068 3.35683 0
M  V30 46961 C 4449.83 1.50075 3.99224 0
M  V30 46962 S 4450.66 3.07899 4.38131 0
M  V30 46963 C 4451.82 2.58398 5.70071 0
M  V30 46964 H 4452.05 1.88685 2.2975 0
M  V30 46965 H 4449.58 1.0688 1.11427 0
M  V30 46966 H 4451.54 0.162405 4.10179 0
M  V30 46967 H 4450.2 -0.452069 3.1083 0
M  V30 46968 H 4449.39 1.09286 4.92009 0
M  V30 46969 H 4449 1.7389 3.31117 0
M  V30 46970 H 4451.29 2.00586 6.47126 0
M  V30 46971 H 4452.23 3.49733 6.15705 0
M  V30 46972 H 4452.64 1.99162 5.282 0
M  V30 46973 N 4452.04 -1.17688 1.0482 0
M  V30 46974 C 4453 -2.19784 0.650194 0
M  V30 46975 C 4454 -1.58045 -0.296372 0
M  V30 46976 O 4455.19 -1.74013 -0.0807485 0
M  V30 46977 C 4452.32 -3.4087 -0.0455788 0
M  V30 46978 H 4453.52 -2.5651 1.55379 0
M  V30 46979 H 4451.07 -1.31705 0.841641 0
M  V30 46980 H 4451.8 -3.09684 -0.962617 0
M  V30 46981 H 4451.59 -3.86926 0.634863 0
M  V30 46982 H 4453.08 -4.16446 -0.310285 0
M  V30 46983 N 4453.52 -0.828702 -1.34053 0
M  V30 46984 C 4454.74 -0.432691 -2.02325 0
M  V30 46985 C 4455.16 0.96309 -1.62388 0
M  V30 46986 O 4454.52 1.62422 -0.832178 0
M  V30 46987 C 4454.57 -0.531945 -3.57565 0
M  V30 46988 O 4454.29 -1.87272 -3.96057 0
M  V30 46989 C 4455.79 -0.131578 -4.43105 0
M  V30 46990 H 4453.01 -0.172946 -0.648329 0
M  V30 46991 H 4455.55 -1.11846 -1.71204 0
M  V30 46992 H 4453.71 0.105802 -3.87255 0
M  V30 46993 H 4454.12 -1.85104 -4.90751 0
M  V30 46994 H 4455.6 -0.252098 -5.51424 0
M  V30 46995 H 4456.07 0.925494 -4.29338 0
M  V30 46996 H 4456.68 -0.743354 -4.18753 0
M  V30 46997 N 4454.99 1.46373 -0.584193 0
M  V30 46998 C 4456.24 2.02678 -0.0704428 0
M  V30 46999 C 4456.57 1.45454 1.28673 0
M  V30 47000 O 4455.85 0.620205 1.84347 0
M  V30 47001 C 4456.13 3.60099 -0.00627333 0
M  V30 47002 C 4455.98 4.27704 -1.39245 0
M  V30 47003 C 4457.3 4.346 0.693589 0
M  V30 47004 H 4454.42 0.736503 -0.0270728 0
M  V30 47005 H 4457.06 1.74499 -0.751677 0
M  V30 47006 H 4455.21 3.84238 0.573874 0
M  V30 47007 H 4456.89 4.14824 -2.01788 0
M  V30 47008 H 4455.13 3.87009 -1.95975 0
M  V30 47009 H 4455.8 5.36473 -1.30001 0
M  V30 47010 H 4458.28 4.15616 0.200723 0
M  V30 47011 H 4457.15 5.44321 0.707523 0
M  V30 47012 H 4457.41 4.05766 1.75519 0
M  V30 47013 N 4456.47 0.322054 1.54274 0
M  V30 47014 C 4457.72 -0.28139 2.00838 0
M  V30 47015 C 4458.05 -1.51905 1.2099 0
M  V30 47016 O 4457.33 -1.92299 0.291801 0
M  V30 47017 C 4457.61 -0.617038 3.54774 0
M  V30 47018 C 4457.46 0.631221 4.45349 0
M  V30 47019 C 4458.78 -1.43528 4.16038 0
M  V30 47020 H 4455.9 -0.100801 0.730074 0
M  V30 47021 H 4458.54 0.438333 1.84875 0
M  V30 47022 H 4456.69 -1.23021 3.68508 0
M  V30 47023 H 4458.36 1.2695 4.43488 0
M  V30 47024 H 4456.61 1.26039 4.15086 0
M  V30 47025 H 4457.28 0.351929 5.50877 0
M  V30 47026 H 4459.75 -0.916991 4.0587 0
M  V30 47027 H 4458.63 -1.63889 5.23862 0
M  V30 47028 H 4458.89 -2.43095 3.69266 0
M  V30 47029 N 4457.95 -1.5752 0.0501946 0
M  V30 47030 C 4459.18 -1.9668 -0.632504 0
M  V30 47031 C 4459.59 -0.926356 -1.64971 0
M  V30 47032 O 4458.93 0.0979555 -1.83439 0
M  V30 47033 C 4458.99 -3.32073 -1.37723 0
M  V30 47034 C 4458.66 -4.54078 -0.515971 0
M  V30 47035 C 4459.65 -5.19445 0.217539 0
M  V30 47036 C 4457.34 -5.00305 -0.447184 0
M  V30 47037 C 4459.33 -6.29375 1.00829 0
M  V30 47038 C 4457.02 -6.10113 0.347252 0
M  V30 47039 C 4458.02 -6.74508 1.07368 0
M  V30 47040 O 4457.71 -7.82204 1.85505 0
M  V30 47041 H 4457.44 -0.652199 -0.177798 0
M  V30 47042 H 4459.99 -2.05091 0.112615 0
M  V30 47043 H 4458.22 -3.20214 -2.16795 0
M  V30 47044 H 4459.91 -3.55988 -1.95007 0
M  V30 47045 H 4460.68 -4.84688 0.173858 0
M  V30 47046 H 4456.56 -4.49975 -1.00219 0
M  V30 47047 H 4460.1 -6.79569 1.5758 0
M  V30 47048 H 4456 -6.44305 0.392575 0
M  V30 47049 H 4456.76 -7.98976 1.77706 0
M  V30 47050 N 4459.43 0.223179 -1.56012 0
M  V30 47051 C 4460.37 1.27657 -1.92282 0
M  V30 47052 C 4461.34 1.46656 -0.779815 0
M  V30 47053 O 4462.53 1.60252 -1.03557 0
M  V30 47054 C 4459.67 2.62226 -2.24347 0
M  V30 47055 C 4458.78 2.51038 -3.51573 0
M  V30 47056 C 4457.92 3.7812 -3.73094 0
M  V30 47057 C 4456.96 3.61648 -4.93839 0
M  V30 47058 N 4456.09 4.80675 -5.11758 0
M  V30 47059 H 4460.93 0.960259 -2.82105 0
M  V30 47060 H 4458.47 0.462852 -1.39628 0
M  V30 47061 H 4460.43 3.40588 -2.40948 0
M  V30 47062 H 4459.06 2.91956 -1.377 0
M  V30 47063 H 4458.11 1.6412 -3.43175 0
M  V30 47064 H 4459.42 2.34787 -4.40087 0
M  V30 47065 H 4458.58 4.64925 -3.89782 0
M  V30 47066 H 4457.32 3.97294 -2.82858 0
M  V30 47067 H 4456.32 2.73227 -4.77103 0
M  V30 47068 H 4457.55 3.43946 -5.85558 0
M  V30 47069 H 4455.49 5.00166 -4.24464 0
M  V30 47070 H 4455.41 4.67144 -5.94401 0
M  V30 47071 H 4456.68 5.68911 -5.3288 0
M  V30 47072 N 4460.91 1.49795 0.489818 0
M  V30 47073 C 4462.15 1.60082 1.24505 0
M  V30 47074 C 4462.48 0.291675 1.91997 0
M  V30 47075 O 4461.76 -0.705583 1.81251 0
M  V30 47076 C 4462.04 2.76799 2.30335 0
M  V30 47077 C 4461.9 4.17541 1.67271 0
M  V30 47078 C 4463.21 2.89123 3.31807 0
M  V30 47079 H 4460.33 0.582661 0.451304 0
M  V30 47080 H 4462.98 1.82119 0.541548 0
M  V30 47081 H 4461.13 2.58141 2.90337 0
M  V30 47082 H 4462.8 4.47744 1.11011 0
M  V30 47083 H 4461.04 4.22668 0.976428 0
M  V30 47084 H 4461.71 4.95102 2.44086 0
M  V30 47085 H 4464.19 3.06143 2.81808 0
M  V30 47086 H 4463.06 3.72447 4.03205 0
M  V30 47087 H 4463.32 1.98944 3.94808 0
M  V30 47088 N 4462.38 -0.741673 1.39057 0
M  V30 47089 C 4463.63 -1.50109 1.35917 0
M  V30 47090 C 4463.96 -1.94443 -0.0470254 0
M  V30 47091 O 4463.21 -1.66616 -1.02653 0
M  V30 47092 C 4463.51 -2.75912 2.27173 0
M  V30 47093 C 4463.18 -2.50479 3.74928 0
M  V30 47094 C 4461.84 -2.43253 4.15189 0
M  V30 47095 C 4464.19 -2.28568 4.68408 0
M  V30 47096 C 4461.52 -2.12147 5.47001 0
M  V30 47097 C 4463.87 -1.98981 6.00491 0
M  V30 47098 C 4462.54 -1.90218 6.39823 0
M  V30 47099 H 4461.81 -0.549289 0.497356 0
M  V30 47100 H 4464.45 -0.851835 1.71511 0
M  V30 47101 H 4462.76 -3.45547 1.84675 0
M  V30 47102 H 4464.46 -3.33915 2.2204 0
M  V30 47103 H 4461.05 -2.5698 3.43015 0
M  V30 47104 H 4465.23 -2.33123 4.38141 0
M  V30 47105 H 4460.49 -2.0388 5.76405 0
M  V30 47106 H 4464.66 -1.81033 6.72458 0
M  V30 47107 H 4462.29 -1.65881 7.41881 0
M  V30 47108 N 4463.86 -1.24123 -0.971145 0
M  V30 47109 C 4464.79 -0.988422 -2.06792 0
M  V30 47110 C 4465.81 0.0408969 -1.62749 0
M  V30 47111 O 4467 -0.195735 -1.77424 0
M  V30 47112 C 4464.1 -0.469141 -3.35637 0
M  V30 47113 C 4463.27 -1.56079 -4.08605 0
M  V30 47114 C 4462.33 -1.04476 -5.15724 0
M  V30 47115 O 4461.35 -1.73572 -5.4209 0
M  V30 47116 N 4462.56 0.122613 -5.8037 0
M  V30 47117 H 4465.32 -1.93273 -2.29054 0
M  V30 47118 H 4462.88 -1.15106 -1.13852 0
M  V30 47119 H 4464.87 -0.108756 -4.04554 0
M  V30 47120 H 4463.44 0.38081 -3.10272 0
M  V30 47121 H 4462.66 -2.09352 -3.34014 0
M  V30 47122 H 4463.95 -2.29465 -4.54118 0
M  V30 47123 H 4463.35 0.700366 -5.61348 0
M  V30 47124 H 4461.91 0.424176 -6.50418 0
M  V30 47125 N 4465.34 1.17131 -1.05443 0
M  V30 47126 C 4466.57 1.91369 -0.786481 0
M  V30 47127 C 4466.98 1.76958 0.65814 0
M  V30 47128 O 4466.34 1.10843 1.44983 0
M  V30 47129 C 4466.39 3.42352 -1.16092 0
M  V30 47130 O 4466.11 3.56323 -2.54884 0
M  V30 47131 C 4467.61 4.33659 -0.919475 0
M  V30 47132 H 4464.83 0.607108 -0.285765 0
M  V30 47133 H 4467.38 1.4852 -1.40578 0
M  V30 47134 H 4465.53 3.82937 -0.586326 0
M  V30 47135 H 4465.95 4.49886 -2.69634 0
M  V30 47136 H 4467.42 5.38095 -1.23119 0
M  V30 47137 H 4467.9 4.3896 0.145205 0
M  V30 47138 H 4468.5 3.98791 -1.47803 0
M  V30 47139 N 4466.82 0.835799 1.33612 0
M  V30 47140 C 4467.75 0.281821 2.31793 0
M  V30 47141 C 4468.73 -0.608777 1.58833 0
M  V30 47142 O 4469.91 -0.532969 1.86743 0
M  V30 47143 C 4467.04 -0.546491 3.42973 0
M  V30 47144 C 4466 0.248054 4.27281 0
M  V30 47145 C 4465.32 -0.703814 5.30048 0
M  V30 47146 C 4466.62 1.46342 5.01379 0
M  V30 47147 H 4468.32 1.10216 2.78375 0
M  V30 47148 H 4465.86 0.531435 1.33835 0
M  V30 47149 H 4467.82 -0.944322 4.10683 0
M  V30 47150 H 4466.54 -1.40001 2.95072 0
M  V30 47151 H 4465.2 0.627408 3.61191 0
M  V30 47152 H 4464.85 -1.55365 4.78404 0
M  V30 47153 H 4464.55 -0.176318 5.87335 0
M  V30 47154 H 4466.07 -1.09923 6.00624 0
M  V30 47155 H 4467.49 1.13891 5.61873 0
M  V30 47156 H 4465.88 1.92748 5.68303 0
M  V30 47157 H 4466.95 2.23482 4.3033 0
M  V30 47158 N 4468.3 -1.46061 0.591947 0
M  V30 47159 C 4469.25 -2.27458 -0.157092 0
M  V30 47160 C 4470.23 -1.36413 -0.853253 0
M  V30 47161 O 4471.42 -1.60519 -0.745824 0
M  V30 47162 C 4468.55 -3.2296 -1.16411 0
M  V30 47163 C 4467.64 -4.21492 -0.469594 0
M  V30 47164 N 4468.03 -5.03517 0.480016 0
M  V30 47165 C 4466.33 -4.40164 -0.719164 0
M  V30 47166 C 4467.03 -5.74901 0.886794 0
M  V30 47167 N 4466 -5.43096 0.233922 0
M  V30 47168 H 4469.81 -2.8827 0.572494 0
M  V30 47169 H 4467.32 -1.57023 0.41443 0
M  V30 47170 H 4469.32 -3.79992 -1.71499 0
M  V30 47171 H 4467.98 -2.63708 -1.89442 0
M  V30 47172 H 4468.99 -5.10777 0.856003 0
M  V30 47173 H 4465.66 -3.92051 -1.43534 0
M  V30 47174 H 4467.05 -6.50838 1.66911 0
M  V30 47175 N 4469.77 -0.330231 -1.54101 0
M  V30 47176 C 4471 0.27482 -2.05571 0
M  V30 47177 C 4471.42 1.44483 -1.20442 0
M  V30 47178 O 4470.78 1.8002 -0.215055 0
M  V30 47179 C 4470.83 0.680665 -3.54118 0
M  V30 47180 O 4469.93 1.78227 -3.71899 0
M  V30 47181 H 4469.28 0.0483616 -0.662236 0
M  V30 47182 H 4471.81 -0.480578 -1.98876 0
M  V30 47183 H 4471.82 0.961495 -3.96509 0
M  V30 47184 H 4470.49 -0.175049 -4.15531 0
M  V30 47185 H 4469.07 1.49973 -3.41412 0
M  V30 47186 N 4471.25 1.57491 -0.0585476 0
M  V30 47187 C 4472.48 1.97299 0.622968 0
M  V30 47188 C 4472.9 0.936396 1.63942 0
M  V30 47189 O 4472.25 -0.078534 1.82331 0
M  V30 47190 C 4472.3 3.37187 1.30334 0
M  V30 47191 O 4472.02 4.36874 0.327577 0
M  V30 47192 C 4473.53 3.91795 2.07392 0
M  V30 47193 H 4470.75 0.649159 0.169803 0
M  V30 47194 H 4473.29 2.04105 -0.127031 0
M  V30 47195 H 4471.44 3.31509 2.00451 0
M  V30 47196 H 4471.86 5.18144 0.814087 0
M  V30 47197 H 4473.33 4.91935 2.50408 0
M  V30 47198 H 4473.81 3.2762 2.9251 0
M  V30 47199 H 4474.42 4.00834 1.4217 0
M  V30 47200 N 4472.73 -0.214903 1.56128 0
M  V30 47201 C 4473.98 -0.936455 1.79095 0
M  V30 47202 C 4474.3 -1.84604 0.628213 0
M  V30 47203 O 4473.57 -1.92665 -0.354552 0
M  V30 47204 H 4472.15 -0.348777 0.660578 0
M  V30 47205 H 4474.81 -0.225162 1.93595 0
M  V30 47206 H 4473.91 -1.53933 2.71498 0
M  V30 47207 N 4474.21 -1.50053 -0.481867 0
M  V30 47208 C 4475.14 -1.64269 -1.59839 0
M  V30 47209 C 4476.15 -0.524564 -1.54117 0
M  V30 47210 O 4477.34 -0.797349 -1.59702 0
M  V30 47211 C 4474.44 -1.60113 -2.98692 0
M  V30 47212 C 4473.62 -2.87779 -3.29397 0
M  V30 47213 C 4472.67 -2.76413 -4.47753 0
M  V30 47214 O 4471.7 -3.50364 -4.48591 0
M  V30 47215 N 4472.9 -1.89242 -5.48788 0
M  V30 47216 H 4475.67 -2.60571 -1.48064 0
M  V30 47217 H 4473.23 -1.47382 -0.670097 0
M  V30 47218 H 4475.22 -1.50137 -3.75821 0
M  V30 47219 H 4473.79 -0.715905 -3.04292 0
M  V30 47220 H 4473.01 -3.11963 -2.40983 0
M  V30 47221 H 4474.3 -3.72377 -3.46717 0
M  V30 47222 H 4473.7 -1.28453 -5.50923 0
M  V30 47223 H 4472.25 -1.85176 -6.24942 0
M  V30 47224 N 4475.69 0.734288 -1.39449 0
M  V30 47225 C 4476.91 1.52861 -1.40172 0
M  V30 47226 C 4477.34 1.881 0.001649 0
M  V30 47227 O 4476.69 1.5196 0.988826 0
M  V30 47228 C 4476.74 2.79227 -2.28176 0
M  V30 47229 O 4475.85 3.75179 -1.71214 0
M  V30 47230 H 4475.19 0.461601 -0.477306 0
M  V30 47231 H 4477.72 0.905884 -1.83453 0
M  V30 47232 H 4477.73 3.27955 -2.42713 0
M  V30 47233 H 4476.4 2.52911 -3.30165 0
M  V30 47234 H 4474.98 3.33952 -1.65923 0
M  V30 47235 N 4477.16 1.24636 0.964549 0
M  V30 47236 C 4478.39 1.11602 1.74814 0
M  V30 47237 C 4478.81 -0.327165 1.85233 0
M  V30 47238 O 4478.17 -1.2369 1.32554 0
M  V30 47239 C 4478.22 1.76408 3.14504 0
M  V30 47240 O 4477.32 1.03699 3.9915 0
M  V30 47241 H 4476.67 0.390215 0.537241 0
M  V30 47242 H 4479.2 1.65006 1.20971 0
M  V30 47243 H 4479.21 1.82292 3.65012 0
M  V30 47244 H 4477.88 2.81411 3.06236 0
M  V30 47245 H 4476.46 1.05623 3.57628 0
M  V30 47246 N 4478.64 -1.1657 1.06062 0
M  V30 47247 C 4479.58 -2.19796 0.613597 0
M  V30 47248 C 4480.55 -1.5851 -0.362397 0
M  V30 47249 O 4481.74 -1.86528 -0.271928 0
M  V30 47250 C 4478.86 -3.3855 -0.100796 0
M  V30 47251 C 4477.91 -4.18314 0.831585 0
M  V30 47252 S 4478.74 -4.82367 2.32556 0
M  V30 47253 C 4479.9 -6.04502 1.62259 0
M  V30 47254 H 4480.13 -2.57375 1.48814 0
M  V30 47255 H 4477.67 -1.27324 0.873382 0
M  V30 47256 H 4479.62 -4.0736 -0.506755 0
M  V30 47257 H 4478.28 -2.99341 -0.951498 0
M  V30 47258 H 4477.48 -5.03231 0.278248 0
M  V30 47259 H 4477.08 -3.54986 1.17732 0
M  V30 47260 H 4479.37 -6.7113 0.926858 0
M  V30 47261 H 4480.31 -6.64381 2.44957 0
M  V30 47262 H 4480.72 -5.53555 1.10619 0
M  V30 47263 N 4480.12 -0.842873 -1.33167 0
M  V30 47264 C 4481.37 -0.441169 -1.97943 0
M  V30 47265 C 4481.7 0.997965 -1.66596 0
M  V30 47266 O 4480.98 1.69835 -0.947957 0
M  V30 47267 C 4481.26 -0.666965 -3.53869 0
M  V30 47268 C 4481.11 -2.15366 -3.94889 0
M  V30 47269 C 4482.43 -0.115699 -4.39948 0
M  V30 47270 H 4479.55 -0.161765 -0.719028 0
M  V30 47271 H 4482.19 -1.05913 -1.57742 0
M  V30 47272 H 4480.34 -0.140965 -3.88244 0
M  V30 47273 H 4482.01 -2.74483 -3.70751 0
M  V30 47274 H 4480.26 -2.63665 -3.44475 0
M  V30 47275 H 4480.93 -2.26239 -5.03508 0
M  V30 47276 H 4483.4 -0.565358 -4.12241 0
M  V30 47277 H 4482.28 -0.303345 -5.48061 0
M  V30 47278 H 4482.54 0.980783 -4.31084 0
M  V30 47279 N 4481.6 1.45745 -0.599685 0
M  V30 47280 C 4483.02 1.57423 -0.262696 0
M  V30 47281 C 4483.22 1.59226 1.23488 0
M  V30 47282 O 4482.27 1.51832 2.01751 0
M  V30 47283 C 4483.58 2.86058 -0.926896 0
M  V30 47284 C 4485.13 2.99719 -0.902072 0
M  V30 47285 C 4485.61 4.31113 -1.54613 0
M  V30 47286 N 4487.1 4.37853 -1.51126 0
M  V30 47287 C 4487.83 5.38173 -1.97882 0
M  V30 47288 N 4487.33 6.45074 -2.52689 0
M  V30 47289 N 4489.12 5.29481 -1.88697 0
M  V30 47290 H 4481.27 1.42818 -1.57216 0
M  V30 47291 H 4483.54 0.682327 -0.658129 0
M  V30 47292 H 4483.24 2.90598 -1.98105 0
M  V30 47293 H 4483.12 3.74561 -0.44537 0
M  V30 47294 H 4485.5 2.94751 0.143514 0
M  V30 47295 H 4485.58 2.12647 -1.42179 0
M  V30 47296 H 4485.23 4.3684 -2.59101 0
M  V30 47297 H 4485.16 5.16989 -1.0015 0
M  V30 47298 H 4487.65 3.61206 -1.11081 0
M  V30 47299 H 4487.96 7.17859 -2.8618 0
M  V30 47300 H 4486.31 6.45847 -2.56724 0
M  V30 47301 H 4489.5 4.44872 -1.45625 0
M  V30 47302 H 4489.67 6.07516 -2.2545 0
M  V30 47303 N 4483.08 0.338398 1.53924 0
M  V30 47304 C 4484.35 -0.314706 1.93052 0
M  V30 47305 C 4484.73 -1.68664 1.26947 0
M  V30 47306 O 4484.08 -2.24634 0.418524 0
M  V30 47307 C 4484.29 -0.392127 3.4679 0
M  V30 47308 C 4485.64 -0.645407 4.19666 0
M  V30 47309 O 4486.66 -0.474451 3.53026 0
M  V30 47310 O 4485.52 -0.976219 5.3771 0
M  V30 47311 H 4482.62 -0.18257 0.806596 0
M  V30 47312 H 4485.16 0.389199 1.65177 0
M  V30 47313 H 4483.94 0.570838 3.87114 0
M  V30 47314 H 4483.56 -1.14302 3.80816 0
M  V30 47315 N 4484.56 -1.57458 0.0668989 0
M  V30 47316 C 4485.8 -1.94403 -0.598248 0
M  V30 47317 C 4486.16 -0.946394 -1.67515 0
M  V30 47318 O 4485.45 0.0320769 -1.91573 0
M  V30 47319 C 4485.64 -3.35788 -1.22397 0
M  V30 47320 C 4485.47 -4.49213 -0.209209 0
M  V30 47321 C 4484.24 -5.04886 0.204395 0
M  V30 47322 C 4486.44 -5.11333 0.55161 0
M  V30 47323 N 4484.42 -6.0185 1.21037 0
M  V30 47324 C 4485.79 -6.03749 1.41021 0
M  V30 47325 C 4487.85 -4.94171 0.608212 0
M  V30 47326 C 4486.55 -6.80846 2.32037 0
M  V30 47327 C 4488.58 -5.71907 1.50586 0
M  V30 47328 C 4487.94 -6.63968 2.35215 0
M  V30 47329 H 4484.04 -0.758545 -0.190088 0
M  V30 47330 H 4486.62 -1.94175 0.142901 0
M  V30 47331 H 4484.79 -3.36764 -1.93507 0
M  V30 47332 H 4486.53 -3.59982 -1.84919 0
M  V30 47333 H 4483.28 -4.73266 -0.177742 0
M  V30 47334 H 4483.7 -6.55029 1.71072 0
M  V30 47335 H 4488.35 -4.22788 -0.0318733 0
M  V30 47336 H 4486.06 -7.5151 2.97083 0
M  V30 47337 H 4489.65 -5.6065 1.55443 0
M  V30 47338 H 4488.53 -7.23069 3.03547 0
M  V30 47339 N 4486.03 0.20662 -1.5624 0
M  V30 47340 C 4487.28 0.930155 -1.80211 0
M  V30 47341 C 4487.61 1.83384 -0.639045 0
M  V30 47342 O 4486.89 1.91121 0.360999 0
M  V30 47343 C 4487.17 1.7563 -3.14366 0
M  V30 47344 C 4487.02 0.878102 -4.41146 0
M  V30 47345 C 4488.34 2.73117 -3.45101 0
M  V30 47346 H 4485.46 0.336719 -0.655583 0
M  V30 47347 H 4488.1 0.198156 -1.88964 0
M  V30 47348 H 4486.25 2.38037 -3.07035 0
M  V30 47349 H 4487.93 0.269625 -4.60511 0
M  V30 47350 H 4486.17 0.184233 -4.33409 0
M  V30 47351 H 4486.84 1.49087 -5.31486 0
M  V30 47352 H 4489.32 2.20844 -3.52657 0
M  V30 47353 H 4488.19 3.28013 -4.40112 0
M  V30 47354 H 4488.45 3.51597 -2.68015 0
M  V30 47355 N 4487.51 1.50306 0.473902 0
M  V30 47356 C 4488.44 1.63601 1.59092 0
M  V30 47357 C 4489.42 0.484196 1.55223 0
M  V30 47358 O 4490.61 0.703332 1.74887 0
M  V30 47359 C 4487.73 1.61599 2.97663 0
M  V30 47360 C 4486.78 2.82307 3.19696 0
M  V30 47361 S 4487.61 4.43646 2.99898 0
M  V30 47362 C 4488.77 4.44333 4.40817 0
M  V30 47363 H 4489 2.58087 1.47574 0
M  V30 47364 H 4486.53 1.39534 0.661038 0
M  V30 47365 H 4488.49 1.6113 3.77555 0
M  V30 47366 H 4487.15 0.683529 3.06572 0
M  V30 47367 H 4486.35 2.77203 4.20921 0
M  V30 47368 H 4485.95 2.80329 2.47572 0
M  V30 47369 H 4488.24 4.17722 5.33399 0
M  V30 47370 H 4489.18 5.45927 4.50965 0
M  V30 47371 H 4489.59 3.74074 4.22764 0
M  V30 47372 N 4488.99 -0.726883 1.39836 0
M  V30 47373 C 4489.92 -1.854 1.41947 0
M  V30 47374 C 4490.9 -1.6775 0.281787 0
M  V30 47375 O 4492.09 -1.87948 0.488783 0
M  V30 47376 C 4489.22 -3.23238 1.27021 0
M  V30 47377 C 4488.17 -3.55541 2.38274 0
M  V30 47378 C 4487.5 -4.92402 2.08432 0
M  V30 47379 C 4488.8 -3.57686 3.80602 0
M  V30 47380 H 4490.49 -1.83891 2.36272 0
M  V30 47381 H 4488.04 -0.883309 1.13726 0
M  V30 47382 H 4489.99 -4.0177 1.27117 0
M  V30 47383 H 4488.71 -3.25295 0.291678 0
M  V30 47384 H 4487.37 -2.79343 2.37409 0
M  V30 47385 H 4487.02 -4.91049 1.08997 0
M  V30 47386 H 4486.72 -5.14982 2.82961 0
M  V30 47387 H 4488.24 -5.73282 2.10191 0
M  V30 47388 H 4489.66 -4.26279 3.83352 0
M  V30 47389 H 4488.05 -3.91788 4.54557 0
M  V30 47390 H 4489.12 -2.57313 4.10996 0
M  V30 47391 N 4490.47 -1.25146 -0.957926 0
M  V30 47392 C 4491.69 -1.12527 -1.74219 0
M  V30 47393 C 4492.12 0.317337 -1.85404 0
M  V30 47394 O 4491.48 1.22985 -1.33208 0
M  V30 47395 C 4491.52 -1.78073 -3.13564 0
M  V30 47396 O 4490.63 -1.05814 -3.98594 0
M  V30 47397 H 4489.97 -0.393058 -0.535165 0
M  V30 47398 H 4492.5 -1.65646 -1.20094 0
M  V30 47399 H 4492.51 -1.84226 -3.6404 0
M  V30 47400 H 4491.18 -2.83032 -3.04739 0
M  V30 47401 H 4489.76 -1.07518 -3.57063 0
M  V30 47402 N 4491.95 1.16006 -1.06679 0
M  V30 47403 C 4492.88 2.22685 -0.702386 0
M  V30 47404 C 4493.86 1.67307 0.306974 0
M  V30 47405 O 4495.04 1.93352 0.181237 0
M  V30 47406 C 4492.17 3.47178 -0.09216 0
M  V30 47407 C 4491.13 4.15473 -1.02792 0
M  V30 47408 C 4490.45 5.33962 -0.280798 0
M  V30 47409 C 4491.75 4.66011 -2.35862 0
M  V30 47410 H 4493.45 2.53423 -1.59427 0
M  V30 47411 H 4490.99 1.2181 -0.768004 0
M  V30 47412 H 4492.94 4.21038 0.174666 0
M  V30 47413 H 4491.67 3.15752 0.834766 0
M  V30 47414 H 4490.33 3.43545 -1.27956 0
M  V30 47415 H 4489.98 4.98791 0.64937 0
M  V30 47416 H 4489.68 5.80597 -0.904463 0
M  V30 47417 H 4491.2 6.10596 -0.0216107 0
M  V30 47418 H 4492.61 5.31433 -2.15063 0
M  V30 47419 H 4491.01 5.23282 -2.93761 0
M  V30 47420 H 4492.08 3.82013 -2.98654 0
M  V30 47421 N 4493.42 0.849923 1.32718 0
M  V30 47422 C 4494.65 0.463927 2.02145 0
M  V30 47423 C 4495.07 -0.930391 1.63479 0
M  V30 47424 O 4494.43 -1.6103 0.833009 0
M  V30 47425 C 4494.48 0.60508 3.55487 0
M  V30 47426 O 4493.58 -0.364105 4.1079 0
M  V30 47427 H 4492.92 0.187068 0.637104 0
M  V30 47428 H 4495.45 1.14781 1.69371 0
M  V30 47429 H 4495.46 0.490838 4.05037 0
M  V30 47430 H 4494.14 1.62187 3.82973 0
M  V30 47431 H 4492.72 -0.206497 3.72328 0
M  V30 47432 N 4494.9 -1.45425 0.607406 0
M  V30 47433 C 4495.85 -2.32269 -0.124029 0
M  V30 47434 C 4496.84 -1.45958 -0.859803 0
M  V30 47435 O 4498.05 -1.62443 -0.77539 0
M  V30 47436 H 4494.43 -0.749693 -0.0588575 0
M  V30 47437 H 4496.4 -2.91741 0.626865 0
M  V30 47438 C 4495.15 -3.2957 -1.10809 0
M  V30 47439 H 4494.47 -3.9598 -0.551353 0
M  V30 47440 H 4495.91 -3.93066 -1.58981 0
M  V30 47441 C 4494.37 -2.56729 -2.18155 0
M  V30 47442 O 4494.9 -2.34854 -3.25894 0
M  V30 47443 N 4493.1 -2.16868 -1.93434 0
M  V30 47444 H 4492.65 -2.34859 -1.05826 0
M  V30 47445 H 4492.61 -1.68454 -2.65463 0
M  V30 47446 N 4496.38 -0.346557 -1.53742 0
M  V30 47447 C 4497.63 0.249034 -2.00963 0
M  V30 47448 C 4497.96 1.50316 -1.23432 0
M  V30 47449 O 4497.21 1.93216 -0.310829 0
M  V30 47450 C 4497.51 0.605685 -3.5223 0
M  V30 47451 C 4497.18 -0.551904 -4.4751 0
M  V30 47452 C 4495.84 -0.869576 -4.73278 0
M  V30 47453 C 4498.19 -1.32836 -5.03988 0
M  V30 47454 C 4495.52 -1.96601 -5.52779 0
M  V30 47455 C 4497.87 -2.41506 -5.84686 0
M  V30 47456 C 4496.53 -2.7383 -6.08748 0
M  V30 47457 H 4495.8 0.0911279 -0.735375 0
M  V30 47458 H 4498.45 -0.475093 -1.85513 0
M  V30 47459 H 4496.76 1.41057 -3.65527 0
M  V30 47460 H 4498.45 1.07845 -3.86226 0
M  V30 47461 H 4495.04 -0.294252 -4.27589 0
M  V30 47462 H 4499.23 -1.09619 -4.84043 0
M  V30 47463 H 4494.48 -2.22065 -5.69646 0
M  V30 47464 H 4498.66 -3.021 -6.27462 0
M  V30 47465 H 4496.28 -3.58915 -6.70137 0
M  V30 47466 N 4497.86 1.5742 -0.0752483 0
M  V30 47467 C 4499.09 1.97948 0.602007 0
M  V30 47468 C 4499.5 0.953732 1.6294 0
M  V30 47469 O 4498.86 -0.059191 1.82404 0
M  V30 47470 C 4498.91 3.38551 1.2675 0
M  V30 47471 O 4498.63 4.37196 0.281222 0
M  V30 47472 C 4500.13 3.93973 2.03225 0
M  V30 47473 H 4497.35 0.650924 0.162909 0
M  V30 47474 H 4499.9 2.03959 -0.148672 0
M  V30 47475 H 4498.05 3.33616 1.96924 0
M  V30 47476 H 4498.46 5.18978 0.759085 0
M  V30 47477 H 4499.94 4.94563 2.45176 0
M  V30 47478 H 4500.42 3.30704 2.89019 0
M  V30 47479 H 4501.02 4.02319 1.3791 0
M  V30 47480 N 4499.34 -0.198331 1.56347 0
M  V30 47481 C 4500.27 -1.2698 1.90811 0
M  V30 47482 C 4501.28 -1.41874 0.798468 0
M  V30 47483 O 4502.47 -1.42358 1.07687 0
M  V30 47484 C 4499.57 -2.64239 2.12205 0
M  V30 47485 C 4498.74 -2.70995 3.43338 0
M  V30 47486 C 4497.8 -3.89426 3.53883 0
M  V30 47487 O 4496.83 -3.7668 4.26732 0
M  V30 47488 N 4498.03 -5.04742 2.86733 0
M  V30 47489 H 4500.8 -0.977333 2.83317 0
M  V30 47490 H 4498.36 -0.388266 1.57175 0
M  V30 47491 H 4500.35 -3.41888 2.16552 0
M  V30 47492 H 4498.92 -2.85988 1.26214 0
M  V30 47493 H 4498.14 -1.79644 3.50887 0
M  V30 47494 H 4499.43 -2.72497 4.29678 0
M  V30 47495 H 4498.82 -5.17996 2.27368 0
M  V30 47496 H 4497.38 -5.8035 2.96711 0
M  V30 47497 N 4500.81 -1.50555 -0.465925 0
M  V30 47498 C 4502.23 -1.38096 -0.800106 0
M  V30 47499 C 4502.43 -0.441057 -1.96614 0
M  V30 47500 O 4501.49 0.11441 -2.52241 0
M  V30 47501 C 4502.8 -2.79569 -1.10732 0
M  V30 47502 C 4504.35 -2.8852 -1.21347 0
M  V30 47503 C 4504.82 -4.30838 -1.55378 0
M  V30 47504 N 4506.31 -4.33813 -1.62359 0
M  V30 47505 C 4507.05 -5.40934 -1.90206 0
M  V30 47506 N 4506.54 -6.58255 -2.16039 0
M  V30 47507 N 4508.34 -5.28382 -1.91751 0
M  V30 47508 H 4500.49 -2.10236 0.30244 0
M  V30 47509 H 4502.75 -0.9452 0.0728078 0
M  V30 47510 H 4502.46 -3.50209 -0.323538 0
M  V30 47511 H 4502.33 -3.17132 -2.04223 0
M  V30 47512 H 4504.72 -2.18097 -1.98791 0
M  V30 47513 H 4504.8 -2.54493 -0.258231 0
M  V30 47514 H 4504.44 -5.01801 -0.784713 0
M  V30 47515 H 4504.37 -4.62356 -2.5206 0
M  V30 47516 H 4506.86 -3.49217 -1.44415 0
M  V30 47517 H 4507.18 -7.35698 -2.36575 0
M  V30 47518 H 4505.52 -6.6142 -2.1342 0
M  V30 47519 H 4508.71 -4.35721 -1.7107 0
M  V30 47520 H 4508.89 -6.11952 -2.13118 0
M  V30 47521 N 4502.29 0.719457 -1.4022 0
M  V30 47522 C 4503.26 1.81525 -1.39934 0
M  V30 47523 C 4504.26 1.58094 -0.293778 0
M  V30 47524 O 4505.45 1.65207 -0.552487 0
M  V30 47525 C 4502.58 3.19557 -1.18727 0
M  V30 47526 H 4503.77 1.83178 -2.37457 0
M  V30 47527 H 4501.32 0.924702 -1.26012 0
M  V30 47528 H 4502.06 3.23556 -0.21948 0
M  V30 47529 H 4501.84 3.37963 -1.98805 0
M  V30 47530 H 4503.33 3.99593 -1.21305 0
M  V30 47531 N 4503.77 1.25652 0.951275 0
M  V30 47532 C 4505.18 1.09659 1.51102 0
M  V30 47533 C 4505.53 -0.326547 1.93463 0
M  V30 47534 O 4504.66 -1.21691 1.78942 0
M  V30 47535 C 4505.25 1.98447 2.74598 0
M  V30 47536 C 4503.81 1.86629 3.26874 0
M  V30 47537 C 4502.96 1.92398 1.99696 0
M  V30 47538 H 4505.91 1.38889 0.767816 0
M  V30 47539 H 4505.93 1.52643 3.48541 0
M  V30 47540 H 4505.44 3.02017 2.43736 0
M  V30 47541 H 4503.54 0.859549 3.6255 0
M  V30 47542 H 4503.66 2.71621 3.94663 0
M  V30 47543 H 4502.02 1.36324 2.15146 0
M  V30 47544 H 4502.8 2.97579 1.71177 0
M  V30 47545 N 4505.25 -1.15438 1.07293 0
M  V30 47546 C 4506.49 -1.86486 0.796912 0
M  V30 47547 C 4506.83 -1.8208 -0.675307 0
M  V30 47548 O 4506.1 -1.24352 -1.49556 0
M  V30 47549 C 4506.39 -3.35621 1.30501 0
M  V30 47550 C 4506.24 -3.48663 2.84173 0
M  V30 47551 C 4507.56 -4.30354 0.921058 0
M  V30 47552 H 4504.68 -0.677134 0.290962 0
M  V30 47553 H 4507.32 -1.35628 1.3306 0
M  V30 47554 H 4505.47 -3.79065 0.851016 0
M  V30 47555 H 4507.14 -3.14087 3.37857 0
M  V30 47556 H 4505.38 -2.90242 3.22401 0
M  V30 47557 H 4506.05 -4.53442 3.14793 0
M  V30 47558 H 4508.53 -3.94866 1.31224 0
M  V30 47559 H 4507.41 -5.33188 1.30391 0
M  V30 47560 H 4507.67 -4.41761 -0.173071 0
M  V30 47561 N 4506.73 -0.85695 -1.32265 0
M  V30 47562 C 4507.69 -0.308251 -2.27118 0
M  V30 47563 C 4508.69 0.533368 -1.51697 0
M  V30 47564 O 4509.88 0.344547 -1.70759 0
M  V30 47565 C 4507.01 0.563639 -3.36208 0
M  V30 47566 H 4508.2 -1.14545 -2.77163 0
M  V30 47567 H 4505.76 -0.631471 -1.42976 0
M  V30 47568 H 4506.49 1.42256 -2.91434 0
M  V30 47569 H 4506.28 -0.0388128 -3.92081 0
M  V30 47570 H 4507.77 0.940243 -4.06877 0
M  V30 47571 N 4508.2 1.45101 -0.61511 0
M  V30 47572 C 4509.14 2.27717 0.148328 0
M  V30 47573 C 4510.12 1.37587 0.866524 0
M  V30 47574 O 4511.3 1.6702 0.873871 0
M  V30 47575 C 4508.43 3.1614 1.21545 0
M  V30 47576 C 4507.47 4.22265 0.599564 0
M  V30 47577 S 4508.31 5.32148 -0.598268 0
M  V30 47578 C 4509.46 6.24138 0.469265 0
M  V30 47579 H 4509.69 2.92119 -0.552586 0
M  V30 47580 H 4507.23 1.49052 -0.402831 0
M  V30 47581 H 4509.19 3.67639 1.82625 0
M  V30 47582 H 4507.85 2.50989 1.88848 0
M  V30 47583 H 4507.04 4.84086 1.40273 0
M  V30 47584 H 4506.64 3.73946 0.0637445 0
M  V30 47585 H 4508.93 6.63989 1.34628 0
M  V30 47586 H 4509.88 7.0801 -0.112974 0
M  V30 47587 H 4510.28 5.58973 0.787971 0
M  V30 47588 N 4509.68 0.354705 1.53557 0
M  V30 47589 C 4510.65 -0.484487 2.24021 0
M  V30 47590 C 4511.65 -1.01857 1.24426 0
M  V30 47591 O 4512.84 -0.906045 1.48783 0
M  V30 47592 C 4509.97 -1.67605 2.96852 0
M  V30 47593 H 4511.16 0.131948 2.9961 0
M  V30 47594 H 4508.71 0.10622 1.55939 0
M  V30 47595 H 4509.45 -2.33087 2.25479 0
M  V30 47596 H 4509.23 -1.30016 3.69916 0
M  V30 47597 H 4510.72 -2.27101 3.50449 0
M  V30 47598 N 4511.16 -1.57378 0.0835957 0
M  V30 47599 C 4512.39 -1.98265 -0.591501 0
M  V30 47600 C 4512.8 -0.962359 -1.62432 0
M  V30 47601 O 4512.16 0.0495168 -1.82433 0
M  V30 47602 C 4512.21 -3.39218 -1.24953 0
M  V30 47603 O 4511.93 -4.37339 -0.258032 0
M  V30 47604 C 4513.43 -3.95045 -2.01133 0
M  V30 47605 H 4510.65 -0.651779 -0.159454 0
M  V30 47606 H 4513.2 -2.03877 0.159487 0
M  V30 47607 H 4511.35 -3.34656 -1.95152 0
M  V30 47608 H 4511.77 -5.19373 -0.731551 0
M  V30 47609 H 4513.24 -4.95857 -2.4255 0
M  V30 47610 H 4513.72 -3.32232 -2.87261 0
M  V30 47611 H 4514.32 -4.03045 -1.35775 0
M  V30 47612 N 4512.64 0.190037 -1.5645 0
M  V30 47613 C 4513.89 0.906408 -1.82087 0
M  V30 47614 C 4514.24 1.80675 -0.661399 0
M  V30 47615 O 4513.53 1.88502 0.343171 0
M  V30 47616 C 4513.73 1.75371 -3.11416 0
M  V30 47617 C 4513.56 0.936898 -4.39832 0
M  V30 47618 C 4512.33 0.61933 -5.0149 0
M  V30 47619 C 4514.52 0.28722 -5.13497 0
M  V30 47620 N 4512.51 -0.215583 -6.13521 0
M  V30 47621 C 4513.88 -0.409671 -6.18645 0
M  V30 47622 C 4515.93 0.203464 -4.97484 0
M  V30 47623 C 4514.64 -1.18235 -7.09516 0
M  V30 47624 C 4516.66 -0.555829 -5.88782 0
M  V30 47625 C 4516.02 -1.24115 -6.93379 0
M  V30 47626 H 4512.12 0.310906 -0.717538 0
M  V30 47627 H 4514.71 0.174753 -1.93914 0
M  V30 47628 H 4512.88 2.45693 -3.00815 0
M  V30 47629 H 4514.61 2.40995 -3.25121 0
M  V30 47630 H 4511.36 0.944963 -4.64077 0
M  V30 47631 H 4511.79 -0.622799 -6.74129 0
M  V30 47632 H 4516.43 0.718952 -4.16642 0
M  V30 47633 H 4514.15 -1.70925 -7.89817 0
M  V30 47634 H 4517.73 -0.622057 -5.78465 0
M  V30 47635 H 4516.61 -1.81927 -7.62805 0
M  V30 47636 N 4514.12 1.508 0.457934 0
M  V30 47637 C 4515.34 1.66501 1.23662 0
M  V30 47638 C 4515.77 0.353353 1.84751 0
M  V30 47639 O 4515.13 -0.684287 1.6789 0
M  V30 47640 C 4515.17 2.76771 2.3115 0
M  V30 47641 O 4514.28 2.38939 3.36128 0
M  V30 47642 H 4513.62 0.55584 0.363232 0
M  V30 47643 H 4516.15 1.97252 0.543404 0
M  V30 47644 H 4516.16 3.00242 2.76258 0
M  V30 47645 H 4514.83 3.7196 1.8606 0
M  V30 47646 H 4513.41 2.25964 2.96639 0
M  V30 47647 N 4515.6 -0.71201 1.40599 0
M  V30 47648 C 4516.53 -1.83884 1.43906 0
M  V30 47649 C 4517.51 -1.67441 0.299563 0
M  V30 47650 O 4518.69 -1.87419 0.50869 0
M  V30 47651 C 4515.82 -3.21873 1.30442 0
M  V30 47652 C 4514.78 -3.52994 2.42032 0
M  V30 47653 C 4514.1 -4.90164 2.13643 0
M  V30 47654 C 4515.4 -3.5363 3.84374 0
M  V30 47655 H 4517.1 -1.81375 2.38209 0
M  V30 47656 H 4514.64 -0.871197 1.14657 0
M  V30 47657 H 4516.59 -4.00399 1.31371 0
M  V30 47658 H 4515.32 -3.24967 0.326164 0
M  V30 47659 H 4513.98 -2.76809 2.40359 0
M  V30 47660 H 4513.63 -4.89865 1.14199 0
M  V30 47661 H 4513.33 -5.11952 2.88407 0
M  V30 47662 H 4514.85 -5.7102 2.1626 0
M  V30 47663 H 4516.26 -4.2219 3.87852 0
M  V30 47664 H 4514.66 -3.86945 4.58687 0
M  V30 47665 H 4515.73 -2.5294 4.13702 0
M  V30 47666 N 4517.07 -1.26155 -0.944598 0
M  V30 47667 C 4518.3 -1.14369 -1.73016 0
M  V30 47668 C 4518.72 0.297654 -1.8573 0
M  V30 47669 O 4518.08 1.21565 -1.34505 0
M  V30 47670 C 4518.13 -1.81389 -3.11657 0
M  V30 47671 O 4517.23 -1.10036 -3.97449 0
M  V30 47672 H 4516.57 -0.398712 -0.530966 0
M  V30 47673 H 4519.1 -1.6691 -1.18331 0
M  V30 47674 H 4519.11 -1.88076 -3.62065 0
M  V30 47675 H 4517.79 -2.86248 -3.0172 0
M  V30 47676 H 4516.37 -1.113 -3.55903 0
M  V30 47677 N 4518.55 1.14868 -1.07903 0
M  V30 47678 C 4519.79 1.87448 -0.815031 0
M  V30 47679 C 4520.16 1.80761 0.647267 0
M  V30 47680 O 4521.36 2.48426 1.02655 0
M  V30 47681 C 4519.63 3.32282 -1.31619 0
M  V30 47682 S 4521.19 4.22532 -1.18372 0
M  V30 47683 H 4518 0.646823 -0.295196 0
M  V30 47684 H 4520.61 1.3855 -1.37928 0
M  V30 47685 H 4519.31 3.34695 -2.37503 0
M  V30 47686 H 4518.84 3.86235 -0.747397 0
M  V30 47687 H 4520.86 4.96043 -0.12476 0
M  V30 47688 N 4520.03 0.863952 1.31809 0
M  V30 47689 C 4521.28 0.471905 1.96925 0
M  V30 47690 C 4521.6 -0.974519 1.68325 0
M  V30 47691 O 4520.86 -1.70027 0.968993 0
M  V30 47692 C 4521.16 0.668671 3.51089 0
M  V30 47693 C 4520.82 2.08697 3.99695 0
M  V30 47694 C 4519.49 2.47486 4.12679 0
M  V30 47695 C 4521.84 3.01222 4.25341 0
M  V30 47696 C 4519.17 3.78053 4.48657 0
M  V30 47697 C 4521.52 4.31298 4.62779 0
M  V30 47698 C 4520.18 4.70009 4.7397 0
M  V30 47699 H 4519.45 0.172682 0.720598 0
M  V30 47700 H 4522.1 1.09579 1.5705 0
M  V30 47701 H 4520.4 -0.0383875 3.91781 0
M  V30 47702 H 4522.1 0.345243 3.99511 0
M  V30 47703 H 4518.69 1.7758 3.90081 0
M  V30 47704 H 4522.88 2.72483 4.14809 0
M  V30 47705 H 4518.13 4.07816 4.55517 0
M  V30 47706 H 4522.31 5.03048 4.81576 0
M  V30 47707 H 4519.93 5.71225 5.01604 0
M  V30 47708 N 4521.51 -1.44772 0.622796 0
M  V30 47709 C 4522.75 -2.0212 0.123971 0
M  V30 47710 C 4523.08 -1.48919 -1.25113 0
M  V30 47711 O 4522.34 -0.66011 -1.84231 0
M  V30 47712 C 4522.64 -3.57364 0.050958 0
M  V30 47713 C 4522.3 -4.29783 1.36373 0
M  V30 47714 C 4520.96 -4.49284 1.7233 0
M  V30 47715 C 4523.32 -4.71054 2.23064 0
M  V30 47716 C 4520.64 -5.07315 2.947 0
M  V30 47717 C 4523 -5.3044 3.44698 0
M  V30 47718 C 4521.66 -5.48161 3.80888 0
M  V30 47719 H 4520.93 -0.73961 0.0453641 0
M  V30 47720 H 4523.58 -1.73645 0.80745 0
M  V30 47721 H 4521.88 -3.85205 -0.715855 0
M  V30 47722 H 4523.58 -3.99457 -0.351392 0
M  V30 47723 H 4520.17 -4.14928 1.0739 0
M  V30 47724 H 4524.35 -4.55708 1.96581 0
M  V30 47725 H 4519.61 -5.19223 3.22827 0
M  V30 47726 H 4523.78 -5.6137 4.12112 0
M  V30 47727 H 4521.41 -5.92895 4.75793 0
M  V30 47728 N 4522.99 -0.362844 -1.53366 0
M  V30 47729 C 4524.23 0.228042 -2.01514 0
M  V30 47730 C 4524.56 1.48644 -1.24975 0
M  V30 47731 O 4523.84 1.91457 -0.342683 0
M  V30 47732 C 4524.12 0.522759 -3.56285 0
M  V30 47733 C 4523.98 -0.749075 -4.43519 0
M  V30 47734 C 4525.29 1.32447 -4.19697 0
M  V30 47735 H 4522.41 0.0814085 -0.73249 0
M  V30 47736 H 4525.06 -0.487195 -1.83648 0
M  V30 47737 H 4523.21 1.13207 -3.7164 0
M  V30 47738 H 4524.88 -1.38664 -4.39966 0
M  V30 47739 H 4523.12 -1.37 -4.11599 0
M  V30 47740 H 4523.79 -0.49786 -5.4975 0
M  V30 47741 H 4526.27 0.80906 -4.08159 0
M  V30 47742 H 4525.14 1.49942 -5.28023 0
M  V30 47743 H 4525.4 2.33219 -3.75581 0
M  V30 47744 N 4524.46 1.57332 -0.0919406 0
M  V30 47745 C 4525.69 1.98997 0.584372 0
M  V30 47746 C 4526.11 0.970584 1.61125 0
M  V30 47747 O 4525.47 -0.0613267 1.81196 0
M  V30 47748 C 4525.52 3.3964 1.21149 0
M  V30 47749 O 4524.62 3.40455 2.32732 0
M  V30 47750 H 4523.97 0.64717 0.14855 0
M  V30 47751 H 4526.5 2.03872 -0.172419 0
M  V30 47752 H 4526.51 3.77265 1.55354 0
M  V30 47753 H 4525.18 4.13358 0.459168 0
M  V30 47754 H 4523.76 3.14621 2.00169 0
M  V30 47755 N 4525.94 -0.181737 1.56549 0
M  V30 47756 C 4526.91 -1.20887 1.94728 0
M  V30 47757 C 4527.91 -1.37735 0.829796 0
M  V30 47758 O 4529.1 -1.35319 1.09701 0
M  V30 47759 C 4526.23 -2.57585 2.233 0
M  V30 47760 H 4527.42 -0.882175 2.86632 0
M  V30 47761 H 4524.97 -0.423785 1.50445 0
M  V30 47762 H 4525.71 -2.95286 1.34077 0
M  V30 47763 H 4525.49 -2.46724 3.04745 0
M  V30 47764 H 4526.98 -3.31628 2.53796 0
M  V30 47765 N 4527.42 -1.51041 -0.44993 0
M  V30 47766 C 4528.65 -1.67154 -1.22777 0
M  V30 47767 C 4529.07 -0.363146 -1.84561 0
M  V30 47768 O 4528.43 0.675374 -1.68251 0
M  V30 47769 C 4528.48 -2.77993 -2.29679 0
M  V30 47770 O 4527.58 -2.40719 -3.34856 0
M  V30 47771 H 4526.92 -0.557759 -0.360279 0
M  V30 47772 H 4529.45 -1.97537 -0.532936 0
M  V30 47773 H 4529.46 -3.01703 -2.74662 0
M  V30 47774 H 4528.14 -3.72942 -1.84085 0
M  V30 47775 H 4526.71 -2.27534 -2.95437 0
M  V30 47776 N 4528.9 0.704544 -1.40975 0
M  V30 47777 C 4530.13 1.49349 -1.43187 0
M  V30 47778 C 4530.54 1.88768 -0.0346172 0
M  V30 47779 O 4529.9 1.56187 0.944027 0
M  V30 47780 C 4529.95 2.76179 -2.33254 0
M  V30 47781 O 4529.67 2.38423 -3.67541 0
M  V30 47782 C 4531.17 3.69991 -2.44175 0
M  V30 47783 H 4528.39 0.460542 -0.487998 0
M  V30 47784 H 4530.94 0.868196 -1.85156 0
M  V30 47785 H 4529.09 3.34967 -1.94618 0
M  V30 47786 H 4529.5 3.20111 -4.15487 0
M  V30 47787 H 4530.98 4.55792 -3.1138 0
M  V30 47788 H 4531.46 4.13862 -1.47021 0
M  V30 47789 H 4532.06 3.17111 -2.83409 0
M  V30 47790 N 4530.38 1.26654 0.937895 0
M  V30 47791 C 4531.6 1.15285 1.72407 0
M  V30 47792 C 4532.03 -0.2878 1.85885 0
M  V30 47793 O 4531.38 -1.2085 1.35148 0
M  V30 47794 C 4531.43 1.83039 3.10691 0
M  V30 47795 O 4530.54 1.12142 3.9686 0
M  V30 47796 H 4529.88 0.401523 0.528844 0
M  V30 47797 H 4532.41 1.67535 1.17444 0
M  V30 47798 H 4532.42 1.89994 3.61063 0
M  V30 47799 H 4531.09 2.87844 3.00198 0
M  V30 47800 H 4529.67 1.13185 3.55308 0
M  V30 47801 N 4531.85 -1.14294 1.08511 0
M  V30 47802 C 4533.27 -1.66923 0.836286 0
M  V30 47803 C 4533.62 -1.85578 -0.636795 0
M  V30 47804 O 4532.74 -1.56772 -1.49169 0
M  V30 47805 C 4533.34 -3.03213 1.51153 0
M  V30 47806 C 4531.9 -3.52871 1.30991 0
M  V30 47807 C 4531.04 -2.28324 1.57364 0
M  V30 47808 H 4533.99 -0.983448 1.24555 0
M  V30 47809 H 4534.01 -3.68723 0.939341 0
M  V30 47810 H 4533.53 -2.89603 2.58363 0
M  V30 47811 H 4531.63 -3.71702 0.258559 0
M  V30 47812 H 4531.74 -4.33579 2.03829 0
M  V30 47813 H 4530.1 -2.3445 0.995247 0
M  V30 47814 H 4530.89 -2.17289 2.65783 0
M  V30 47815 N 4533.33 -0.87093 -1.31349 0
M  V30 47816 C 4534.58 -0.492384 -1.9735 0
M  V30 47817 C 4534.93 0.945115 -1.67587 0
M  V30 47818 O 4534.23 1.65671 -0.962481 0
M  V30 47819 C 4534.42 -0.68728 -3.5073 0
M  V30 47820 C 4534.25 -2.14217 -3.954 0
M  V30 47821 C 4533.02 -2.78396 -4.21691 0
M  V30 47822 C 4535.22 -3.11454 -4.09269 0
M  V30 47823 N 4533.2 -4.14627 -4.52722 0
M  V30 47824 C 4534.57 -4.32718 -4.44022 0
M  V30 47825 C 4536.63 -3.07432 -3.91651 0
M  V30 47826 C 4535.33 -5.50479 -4.62996 0
M  V30 47827 C 4537.35 -4.24453 -4.11818 0
M  V30 47828 C 4536.72 -5.44478 -4.46903 0
M  V30 47829 H 4532.82 -0.229232 -0.747647 0
M  V30 47830 H 4535.4 -1.12573 -1.58857 0
M  V30 47831 H 4533.57 -0.0835205 -3.8831 0
M  V30 47832 H 4535.3 -0.277025 -4.03751 0
M  V30 47833 H 4532.06 -2.29341 -4.14367 0
M  V30 47834 H 4532.48 -4.84945 -4.72396 0
M  V30 47835 H 4537.12 -2.15745 -3.63613 0
M  V30 47836 H 4534.84 -6.42683 -4.89881 0
M  V30 47837 H 4538.43 -4.22794 -3.99671 0
M  V30 47838 H 4537.31 -6.33521 -4.62192 0
M  V30 47839 N 4534.81 1.4444 -0.630465 0
M  V30 47840 C 4536.06 2.02351 -0.134888 0
M  V30 47841 C 4536.39 1.49474 1.2398 0
M  V30 47842 O 4535.66 0.678539 1.8228 0
M  V30 47843 C 4535.95 3.59897 -0.120833 0
M  V30 47844 C 4535.8 4.23058 -1.52782 0
M  V30 47845 C 4537.12 4.36587 0.554973 0
M  V30 47846 H 4534.24 0.735268 -0.0504904 0
M  V30 47847 H 4536.88 1.72019 -0.806812 0
M  V30 47848 H 4535.03 3.85869 0.451341 0
M  V30 47849 H 4536.7 4.08195 -2.14883 0
M  V30 47850 H 4534.95 3.80578 -2.08189 0
M  V30 47851 H 4535.62 5.32066 -1.47003 0
M  V30 47852 H 4538.09 4.16044 0.0683966 0
M  V30 47853 H 4536.97 5.46296 0.533993 0
M  V30 47854 H 4537.23 4.11144 1.62521 0
M  V30 47855 N 4536.29 0.370972 1.53172 0
M  V30 47856 C 4537.25 -0.460699 2.24522 0
M  V30 47857 C 4538.25 -1.00531 1.25499 0
M  V30 47858 O 4539.44 -0.890213 1.49736 0
M  V30 47859 C 4536.57 -1.64447 2.98613 0
M  V30 47860 H 4537.77 0.163718 2.99453 0
M  V30 47861 H 4535.32 0.122753 1.55817 0
M  V30 47862 H 4536.05 -2.30683 2.27938 0
M  V30 47863 H 4535.84 -1.26086 3.71275 0
M  V30 47864 H 4537.33 -2.23372 3.52838 0
M  V30 47865 N 4537.77 -1.57281 0.100283 0
M  V30 47866 C 4538.73 -2.13161 -0.842323 0
M  V30 47867 C 4539.73 -1.06207 -1.20734 0
M  V30 47868 O 4540.92 -1.3207 -1.13592 0
M  V30 47869 C 4538.05 -2.65647 -2.13646 0
M  V30 47870 H 4539.24 -2.97767 -0.357009 0
M  V30 47871 H 4536.8 -1.5559 -0.148768 0
M  V30 47872 H 4537.53 -1.84575 -2.66651 0
M  V30 47873 H 4537.32 -3.43851 -1.88439 0
M  V30 47874 H 4538.81 -3.08856 -2.81066 0
M  V30 47875 N 4539.25 0.173432 -1.56643 0
M  V30 47876 C 4540.49 0.888694 -1.81067 0
M  V30 47877 C 4540.81 1.83504 -0.677185 0
M  V30 47878 O 4542.01 2.59251 -0.806297 0
M  V30 47879 C 4540.47 1.6308 -3.20832 0
M  V30 47880 C 4540.08 0.728201 -4.42042 0
M  V30 47881 C 4541.82 2.33441 -3.5455 0
M  V30 47882 C 4539.73 1.47042 -5.72829 0
M  V30 47883 H 4538.66 0.335594 -0.675198 0
M  V30 47884 H 4541.31 0.141648 -1.82952 0
M  V30 47885 H 4539.69 2.42252 -3.13257 0
M  V30 47886 H 4540.87 -0.0264069 -4.60792 0
M  V30 47887 H 4539.18 0.134346 -4.16183 0
M  V30 47888 H 4541.78 2.89562 -4.49509 0
M  V30 47889 H 4542.12 3.08677 -2.79328 0
M  V30 47890 H 4542.65 1.61215 -3.63668 0
M  V30 47891 H 4539.39 0.760429 -6.51074 0
M  V30 47892 H 4538.91 2.19841 -5.58059 0
M  V30 47893 H 4540.59 2.01847 -6.14709 0
M  V30 47894 N 4540.72 1.51278 0.441914 0
M  V30 47895 C 4541.65 1.75205 1.54354 0
M  V30 47896 C 4542.63 0.601738 1.59101 0
M  V30 47897 O 4543.82 0.843974 1.74902 0
M  V30 47898 C 4540.95 1.87292 2.9247 0
M  V30 47899 C 4539.9 3.02698 3.02586 0
M  V30 47900 C 4539.23 2.99962 4.42636 0
M  V30 47901 C 4540.53 4.4274 2.7709 0
M  V30 47902 H 4542.22 2.67447 1.34582 0
M  V30 47903 H 4539.77 1.28697 0.646003 0
M  V30 47904 H 4541.72 2.02615 3.69493 0
M  V30 47905 H 4540.45 0.916954 3.13464 0
M  V30 47906 H 4539.11 2.87073 2.28002 0
M  V30 47907 H 4538.75 2.02152 4.6059 0
M  V30 47908 H 4538.45 3.77455 4.50335 0
M  V30 47909 H 4539.98 3.17372 5.21639 0
M  V30 47910 H 4541.39 4.58739 3.43848 0
M  V30 47911 H 4539.79 5.21904 2.96203 0
M  V30 47912 H 4540.86 4.53093 1.72728 0
M  V30 47913 N 4542.2 -0.697058 1.41347 0
M  V30 47914 C 4543.61 -1.27693 1.36204 0
M  V30 47915 C 4543.96 -1.9615 0.0444153 0
M  V30 47916 O 4543.09 -1.98692 -0.857349 0
M  V30 47917 C 4543.68 -2.32214 2.46702 0
M  V30 47918 C 4542.24 -2.85781 2.44962 0
M  V30 47919 C 4541.39 -1.598 2.26626 0
M  V30 47920 H 4544.34 -0.491915 1.50884 0
M  V30 47921 H 4544.36 -3.13472 2.15675 0
M  V30 47922 H 4543.87 -1.82361 3.42587 0
M  V30 47923 H 4541.97 -3.39815 1.52829 0
M  V30 47924 H 4542.09 -3.36313 3.41219 0
M  V30 47925 H 4540.45 -1.85554 1.74476 0
M  V30 47926 H 4541.23 -1.11944 3.24536 0
M  V30 47927 N 4543.68 -1.2715 -0.931165 0
M  V30 47928 C 4544.63 -1.06234 -2.01738 0
M  V30 47929 C 4545.61 0.00853409 -1.60898 0
M  V30 47930 O 4546.81 -0.209599 -1.75755 0
M  V30 47931 C 4543.93 -0.707905 -3.35922 0
M  V30 47932 C 4543.02 -1.81675 -3.83217 0
M  V30 47933 N 4543.41 -3.05578 -4.03058 0
M  V30 47934 C 4541.71 -1.70263 -4.12221 0
M  V30 47935 C 4542.41 -3.77712 -4.42389 0
M  V30 47936 N 4541.39 -3.05456 -4.49664 0
M  V30 47937 H 4545.19 -2.00268 -2.15104 0
M  V30 47938 H 4542.7 -1.17814 -1.11775 0
M  V30 47939 H 4544.7 -0.539188 -4.13399 0
M  V30 47940 H 4543.36 0.22485 -3.23921 0
M  V30 47941 H 4544.37 -3.41377 -3.89464 0
M  V30 47942 H 4541.05 -0.840473 -4.08953 0
M  V30 47943 H 4542.44 -4.84185 -4.65849 0
M  V30 47944 N 4545.16 1.13717 -1.09116 0
M  V30 47945 C 4546.4 1.85195 -0.82648 0
M  V30 47946 C 4546.74 1.83132 0.646254 0
M  V30 47947 O 4546.01 1.26715 1.47559 0
M  V30 47948 C 4546.29 3.33503 -1.35823 0
M  V30 47949 C 4546.15 3.44098 -2.89684 0
M  V30 47950 C 4547.47 4.28834 -0.989407 0
M  V30 47951 H 4544.59 0.672419 -0.301698 0
M  V30 47952 H 4547.23 1.33494 -1.35201 0
M  V30 47953 H 4545.38 3.77663 -0.911214 0
M  V30 47954 H 4547.05 3.08672 -3.42811 0
M  V30 47955 H 4545.29 2.85076 -3.26977 0
M  V30 47956 H 4545.96 4.48376 -3.21967 0
M  V30 47957 H 4548.44 3.92729 -1.37489 0
M  V30 47958 H 4547.32 5.31046 -1.38857 0
M  V30 47959 H 4547.58 4.41981 0.102769 0
M  V30 47960 N 4546.64 0.877884 1.30885 0
M  V30 47961 C 4547.88 0.488862 1.95686 0
M  V30 47962 C 4548.2 -0.965425 1.70114 0
M  V30 47963 O 4549.4 -1.46096 2.28841 0
M  V30 47964 C 4547.86 0.823325 3.50356 0
M  V30 47965 C 4547.47 2.2949 3.84757 0
M  V30 47966 C 4549.21 0.503157 4.21508 0
M  V30 47967 C 4547.12 2.57137 5.32574 0
M  V30 47968 H 4546.05 0.179088 0.732423 0
M  V30 47969 H 4548.7 1.07188 1.4894 0
M  V30 47970 H 4547.08 0.169471 3.95637 0
M  V30 47971 H 4548.26 2.99248 3.5041 0
M  V30 47972 H 4546.57 2.5819 3.26691 0
M  V30 47973 H 4549.17 0.686837 5.3027 0
M  V30 47974 H 4549.51 -0.556963 4.12557 0
M  V30 47975 H 4550.04 1.1139 3.81886 0
M  V30 47976 H 4546.78 3.61862 5.46568 0
M  V30 47977 H 4546.3 1.91981 5.68246 0
M  V30 47978 H 4547.98 2.42272 5.99928 0
M  V30 47979 N 4548.11 -1.44104 0.638116 0
M  V30 47980 C 4549.34 -2.0685 0.150988 0
M  V30 47981 C 4549.76 -1.47421 -1.16827 0
M  V30 47982 O 4549.12 -0.578325 -1.71829 0
M  V30 47983 C 4549.17 -3.60555 0.0572067 0
M  V30 47984 O 4548.27 -4.00468 -0.984832 0
M  V30 47985 H 4547.61 -0.658148 0.087963 0
M  V30 47986 H 4550.14 -1.84862 0.876772 0
M  V30 47987 H 4550.15 -4.07789 -0.131088 0
M  V30 47988 H 4548.83 -4.03189 1.02035 0
M  V30 47989 H 4547.41 -3.64852 -0.770544 0
M  V30 47990 N 4549.59 -0.37909 -1.52973 0
M  V30 47991 C 4551.01 -0.0286009 -1.59574 0
M  V30 47992 C 4551.21 1.45537 -1.3936 0
M  V30 47993 O 4550.26 2.21865 -1.20549 0
M  V30 47994 C 4551.58 -0.496639 -2.9657 0
M  V30 47995 C 4553.12 -0.452018 -3.09719 0
M  V30 47996 C 4553.6 -0.896082 -4.49148 0
M  V30 47997 N 4555.09 -0.851682 -4.55303 0
M  V30 47998 C 4555.83 -1.16681 -5.61403 0
M  V30 47999 N 4555.32 -1.5519 -6.75195 0
M  V30 48000 N 4557.11 -1.08873 -5.51455 0
M  V30 48001 H 4549.27 -1.34531 -1.64363 0
M  V30 48002 H 4551.53 -0.550761 -0.7716 0
M  V30 48003 H 4551.23 -1.53269 -3.16546 0
M  V30 48004 H 4551.11 0.109669 -3.77041 0
M  V30 48005 H 4553.5 0.574928 -2.89445 0
M  V30 48006 H 4553.58 -1.094 -2.31226 0
M  V30 48007 H 4553.22 -1.92121 -4.70162 0
M  V30 48008 H 4553.15 -0.231215 -5.26092 0
M  V30 48009 H 4555.64 -0.568169 -3.73604 0
M  V30 48010 H 4555.95 -1.77626 -7.5211 0
M  V30 48011 H 4554.3 -1.59068 -6.76552 0
M  V30 48012 H 4557.49 -0.786966 -4.61437 0
M  V30 48013 H 4557.66 -1.33764 -6.34043 0
M  V30 48014 N 4551.07 1.57225 -0.108623 0
M  V30 48015 C 4552 2.1045 0.88239 0
M  V30 48016 C 4552.98 1.01833 1.26763 0
M  V30 48017 O 4554.16 1.2942 1.3705 0
M  V30 48018 C 4551.29 2.59265 2.17943 0
M  V30 48019 C 4550.34 3.79668 1.94304 0
M  V30 48020 S 4551.17 5.2259 1.16874 0
M  V30 48021 C 4552.33 5.74766 2.47779 0
M  V30 48022 H 4552.56 2.94179 0.429642 0
M  V30 48023 H 4550.09 1.54043 0.104946 0
M  V30 48024 H 4552.05 2.88046 2.92472 0
M  V30 48025 H 4550.71 1.75737 2.60337 0
M  V30 48026 H 4549.9 4.11938 2.90385 0
M  V30 48027 H 4549.51 3.51451 1.279 0
M  V30 48028 H 4551.8 5.83858 3.4368 0
M  V30 48029 H 4552.74 6.73034 2.20069 0
M  V30 48030 H 4553.15 5.02772 2.56672 0
M  V30 48031 N 4552.55 -0.165123 1.56733 0
M  V30 48032 C 4553.8 -0.879004 1.81983 0
M  V30 48033 C 4554.12 -1.82512 0.686625 0
M  V30 48034 O 4553.39 -1.93695 -0.293078 0
M  V30 48035 H 4551.97 -0.327584 0.67134 0
M  V30 48036 H 4554.63 -0.163458 1.94213 0
M  V30 48037 H 4553.72 -1.45218 2.76257 0
M  V30 48038 N 4554.03 -1.5151 -0.433885 0
M  V30 48039 C 4554.97 -1.73073 -1.5269 0
M  V30 48040 C 4555.94 -0.572496 -1.55922 0
M  V30 48041 O 4557.13 -0.807314 -1.72879 0
M  V30 48042 C 4554.27 -1.86485 -2.90375 0
M  V30 48043 C 4553.38 -3.14047 -2.96645 0
M  V30 48044 C 4552.52 -3.18033 -4.25474 0
M  V30 48045 C 4551.56 -4.39897 -4.25625 0
M  V30 48046 N 4550.69 -4.41414 -5.45984 0
M  V30 48047 H 4555.53 -2.66371 -1.33606 0
M  V30 48048 H 4553.07 -1.32011 -0.648971 0
M  V30 48049 H 4555.03 -1.92242 -3.70269 0
M  V30 48050 H 4553.66 -0.965918 -3.0801 0
M  V30 48051 H 4552.71 -3.17582 -2.09393 0
M  V30 48052 H 4554.02 -4.0395 -2.92618 0
M  V30 48053 H 4553.18 -3.22726 -5.13744 0
M  V30 48054 H 4551.91 -2.26025 -4.32162 0
M  V30 48055 H 4550.92 -4.35377 -3.35748 0
M  V30 48056 H 4552.14 -5.33174 -4.20598 0
M  V30 48057 H 4550.09 -3.52277 -5.53386 0
M  V30 48058 H 4550.01 -5.2513 -5.43851 0
M  V30 48059 H 4551.28 -4.50303 -6.36276 0
M  V30 48060 N 4555.5 0.689552 -1.41714 0
M  V30 48061 C 4556.43 1.81572 -1.46813 0
M  V30 48062 C 4557.42 1.66944 -0.326163 0
M  V30 48063 O 4558.6 1.86586 -0.538442 0
M  V30 48064 C 4555.73 3.19757 -1.35547 0
M  V30 48065 C 4554.68 3.49099 -2.47617 0
M  V30 48066 C 4554.01 4.86703 -2.21414 0
M  V30 48067 C 4555.31 3.4747 -3.89951 0
M  V30 48068 H 4557 1.77562 -2.41065 0
M  V30 48069 H 4554.55 0.852846 -1.16028 0
M  V30 48070 H 4556.5 3.98259 -1.37724 0
M  V30 48071 H 4555.23 3.24407 -0.377822 0
M  V30 48072 H 4553.89 2.7295 -2.44732 0
M  V30 48073 H 4553.53 4.87986 -1.21978 0
M  V30 48074 H 4553.23 5.07299 -2.96515 0
M  V30 48075 H 4554.76 5.67507 -2.25317 0
M  V30 48076 H 4556.17 4.15966 -3.94519 0
M  V30 48077 H 4554.57 3.79599 -4.64785 0
M  V30 48078 H 4555.64 2.46326 -4.17674 0
M  V30 48079 N 4556.98 1.27642 0.924409 0
M  V30 48080 C 4557.89 1.12473 2.05881 0
M  V30 48081 C 4558.91 0.0539301 1.73916 0
M  V30 48082 O 4560.08 0.261082 1.99701 0
M  V30 48083 C 4557.15 0.776887 3.37884 0
M  V30 48084 C 4556.21 1.92891 3.83525 0
M  V30 48085 C 4555.44 1.59757 5.09228 0
M  V30 48086 O 4555.67 0.506982 5.68142 0
M  V30 48087 O 4554.6 2.43781 5.50322 0
M  V30 48088 H 4558.43 2.07679 2.21592 0
M  V30 48089 H 4556.01 1.0686 1.04409 0
M  V30 48090 H 4557.89 0.596376 4.17159 0
M  V30 48091 H 4556.57 -0.145618 3.23372 0
M  V30 48092 H 4555.48 2.16451 3.05123 0
M  V30 48093 H 4556.81 2.83174 4.02583 0
M  V30 48094 N 4558.46 -1.13137 1.09717 0
M  V30 48095 C 4559.39 -2.18341 0.697133 0
M  V30 48096 C 4560.41 -1.6067 -0.262495 0
M  V30 48097 O 4561.59 -1.78435 -0.0480899 0
M  V30 48098 C 4558.69 -3.38899 0.00696642 0
M  V30 48099 C 4557.87 -4.26075 0.988891 0
M  V30 48100 C 4556.93 -5.25154 0.331579 0
M  V30 48101 O 4555.95 -5.60698 0.980123 0
M  V30 48102 N 4557.15 -5.73274 -0.91306 0
M  V30 48103 H 4559.92 -2.53275 1.60225 0
M  V30 48104 H 4557.48 -1.28488 0.985016 0
M  V30 48105 H 4559.47 -4.02257 -0.444049 0
M  V30 48106 H 4558.04 -3.02178 -0.800444 0
M  V30 48107 H 4557.26 -3.59447 1.61838 0
M  V30 48108 H 4558.55 -4.81172 1.65381 0
M  V30 48109 H 4557.95 -5.46549 -1.45947 0
M  V30 48110 H 4556.51 -6.38554 -1.30735 0
M  V30 48111 N 4559.94 -0.884812 -1.30418 0
M  V30 48112 C 4561.18 -0.50392 -1.9644 0
M  V30 48113 C 4561.52 0.944459 -1.69687 0
M  V30 48114 O 4560.79 1.66733 -1.00151 0
M  V30 48115 C 4561.08 -0.779208 -3.51568 0
M  V30 48116 C 4560.93 -2.2782 -3.87838 0
M  V30 48117 C 4562.25 -0.255607 -4.39357 0
M  V30 48118 H 4559.37 -0.184558 -0.713518 0
M  V30 48119 H 4562.01 -1.10877 -1.54293 0
M  V30 48120 H 4560.16 -0.26441 -3.87599 0
M  V30 48121 H 4561.83 -2.8614 -3.61831 0
M  V30 48122 H 4560.07 -2.74491 -3.35912 0
M  V30 48123 H 4560.74 -2.42143 -4.96055 0
M  V30 48124 H 4563.22 -0.696223 -4.10234 0
M  V30 48125 H 4562.1 -0.477553 -5.46819 0
M  V30 48126 H 4562.36 0.843141 -4.33986 0
M  V30 48127 N 4561.42 1.43763 -0.645749 0
M  V30 48128 C 4562.69 1.95409 -0.086365 0
M  V30 48129 C 4563.07 1.5873 1.39169 0
M  V30 48130 O 4562.42 0.868656 2.11345 0
M  V30 48131 C 4562.63 3.47486 -0.324687 0
M  V30 48132 C 4563.98 4.24 -0.225646 0
M  V30 48133 O 4565 3.55273 -0.25684 0
M  V30 48134 O 4563.86 5.46313 -0.142993 0
M  V30 48135 H 4560.96 0.826883 0.0139192 0
M  V30 48136 H 4563.5 1.5374 -0.718469 0
M  V30 48137 H 4562.27 3.67285 -1.34973 0
M  V30 48138 H 4561.9 3.96136 0.340848 0
M  V30 48139 N 4562.89 0.387197 1.5277 0
M  V30 48140 C 4564.14 -0.195954 2.01851 0
M  V30 48141 C 4564.47 -1.46636 1.27324 0
M  V30 48142 O 4563.75 -1.90888 0.373099 0
M  V30 48143 C 4564.03 -0.466011 3.57072 0
M  V30 48144 C 4563.88 0.819541 4.42271 0
M  V30 48145 C 4565.2 -1.25753 4.21751 0
M  V30 48146 H 4562.32 -0.069745 0.733692 0
M  V30 48147 H 4564.96 0.51635 1.82849 0
M  V30 48148 H 4563.11 -1.0728 3.73394 0
M  V30 48149 H 4564.79 1.45646 4.37704 0
M  V30 48150 H 4563.03 1.43531 4.09367 0
M  V30 48151 H 4563.7 0.585258 5.48889 0
M  V30 48152 H 4566.18 -0.744023 4.09394 0
M  V30 48153 H 4565.05 -1.41523 5.30342 0
M  V30 48154 H 4565.31 -2.27214 3.79244 0
M  V30 48155 N 4564.37 -1.57165 0.116959 0
M  V30 48156 C 4565.32 -2.1646 -0.851342 0
M  V30 48157 C 4566.31 -1.11327 -1.27682 0
M  V30 48158 O 4567.52 -1.29634 -1.2488 0
M  V30 48159 H 4563.9 -0.69272 -0.292648 0
M  V30 48160 H 4565.87 -2.96606 -0.326745 0
M  V30 48161 C 4564.62 -2.77697 -2.09236 0
M  V30 48162 H 4563.94 -3.58292 -1.7739 0
M  V30 48163 H 4565.38 -3.22726 -2.74998 0
M  V30 48164 C 4563.84 -1.74677 -2.88079 0
M  V30 48165 O 4564.37 -1.19891 -3.83392 0
M  V30 48166 N 4562.57 -1.44665 -2.52033 0
M  V30 48167 H 4562.12 -1.89408 -1.74592 0
M  V30 48168 H 4562.08 -0.759782 -3.05081 0
M  V30 48169 N 4565.85 0.156809 -1.56818 0
M  V30 48170 C 4566.78 1.19582 -2.00555 0
M  V30 48171 C 4567.76 1.45357 -0.883477 0
M  V30 48172 O 4568.95 1.56445 -1.1506 0
M  V30 48173 C 4566.08 2.53135 -2.37782 0
M  V30 48174 C 4565.03 2.41901 -3.53083 0
M  V30 48175 C 4564.36 3.80075 -3.76094 0
M  V30 48176 C 4565.66 1.9114 -4.86069 0
M  V30 48177 H 4567.35 0.832192 -2.87602 0
M  V30 48178 H 4564.9 0.398869 -1.38366 0
M  V30 48179 H 4566.85 3.26038 -2.66978 0
M  V30 48180 H 4565.57 2.91314 -1.4766 0
M  V30 48181 H 4564.23 1.71451 -3.24037 0
M  V30 48182 H 4563.88 4.15673 -2.8324 0
M  V30 48183 H 4563.58 3.73423 -4.53684 0
M  V30 48184 H 4565.1 4.54542 -4.07706 0
M  V30 48185 H 4566.52 2.53828 -5.14047 0
M  V30 48186 H 4564.92 1.95402 -5.67396 0
M  V30 48187 H 4565.99 0.866506 -4.77095 0
M  V30 48188 N 4567.33 1.51738 0.425844 0
M  V30 48189 C 4568.58 1.64974 1.1743 0
M  V30 48190 C 4568.9 0.371512 1.90919 0
M  V30 48191 O 4568.16 -0.644898 1.84769 0
M  V30 48192 C 4568.46 2.8111 2.20707 0
M  V30 48193 C 4568.12 4.1996 1.64148 0
M  V30 48194 C 4566.79 4.57731 1.48446 0
M  V30 48195 C 4569.14 5.06556 1.22678 0
M  V30 48196 C 4566.47 5.79792 0.897669 0
M  V30 48197 C 4568.82 6.29208 0.654242 0
M  V30 48198 C 4567.48 6.65741 0.484222 0
M  V30 48199 H 4566.75 0.603683 0.429706 0
M  V30 48200 H 4569.4 1.858 0.463764 0
M  V30 48201 H 4567.7 2.54553 2.97843 0
M  V30 48202 H 4569.4 2.8855 2.7846 0
M  V30 48203 H 4565.99 3.90187 1.77348 0
M  V30 48204 H 4570.17 4.77973 1.33625 0
M  V30 48205 H 4565.43 6.06735 0.753807 0
M  V30 48206 H 4569.6 6.95644 0.32445 0
M  V30 48207 H 4567.23 7.60195 0.0274161 0
M  V30 48208 N 4568.81 -0.682027 1.42078 0
M  V30 48209 C 4570.05 -1.45419 1.43641 0
M  V30 48210 C 4570.41 -1.91939 0.0484676 0
M  V30 48211 O 4571.61 -2.6873 -0.0611569 0
M  V30 48212 C 4569.88 -2.62418 2.42634 0
M  V30 48213 S 4571.44 -3.5137 2.62839 0
M  V30 48214 H 4568.26 -0.496761 0.508674 0
M  V30 48215 H 4570.86 -0.794583 1.78624 0
M  V30 48216 H 4569.57 -2.26469 3.42257 0
M  V30 48217 H 4569.1 -3.33259 2.09051 0
M  V30 48218 H 4571.11 -4.58135 1.90597 0
M  V30 48219 N 4570.29 -1.2813 -0.917626 0
M  V30 48220 C 4571.22 -1.14255 -2.03637 0
M  V30 48221 C 4572.2 -0.0413346 -1.7005 0
M  V30 48222 O 4573.38 -0.217633 -1.92977 0
M  V30 48223 C 4570.51 -0.79955 -3.37971 0
M  V30 48224 C 4569.47 -1.85511 -3.85707 0
M  V30 48225 C 4568.79 -1.36584 -5.16961 0
M  V30 48226 C 4570.09 -3.26099 -4.07991 0
M  V30 48227 H 4571.79 -2.07842 -2.15504 0
M  V30 48228 H 4569.33 -1.00068 -1.03549 0
M  V30 48229 H 4571.28 -0.68926 -4.15725 0
M  V30 48230 H 4570.01 0.17203 -3.26147 0
M  V30 48231 H 4568.67 -1.95448 -3.10155 0
M  V30 48232 H 4568.32 -0.383429 -5.01536 0
M  V30 48233 H 4568.02 -2.07163 -5.4987 0
M  V30 48234 H 4569.54 -1.26869 -5.97274 0
M  V30 48235 H 4570.95 -3.19106 -4.76282 0
M  V30 48236 H 4569.35 -3.94478 -4.52224 0
M  V30 48237 H 4570.42 -3.70405 -3.12935 0
M  V30 48238 N 4571.76 1.12553 -1.10316 0
M  V30 48239 C 4573.01 1.84308 -0.846075 0
M  V30 48240 C 4573.34 1.83807 0.626794 0
M  V30 48241 O 4572.62 1.28273 1.46206 0
M  V30 48242 C 4572.9 3.32043 -1.39353 0
M  V30 48243 C 4572.75 3.41006 -2.93317 0
M  V30 48244 C 4574.07 4.27761 -1.03484 0
M  V30 48245 H 4571.19 0.669181 -0.308813 0
M  V30 48246 H 4573.83 1.32052 -1.3661 0
M  V30 48247 H 4571.98 3.76675 -0.951219 0
M  V30 48248 H 4573.66 3.05019 -3.46066 0
M  V30 48249 H 4571.9 2.81592 -3.29983 0
M  V30 48250 H 4572.57 4.44936 -3.26704 0
M  V30 48251 H 4575.05 3.91248 -1.41647 0
M  V30 48252 H 4573.92 5.29543 -1.44482 0
M  V30 48253 H 4574.18 4.42065 0.055885 0
M  V30 48254 N 4573.24 0.891716 1.29947 0
M  V30 48255 C 4574.2 0.368359 2.26221 0
M  V30 48256 C 4575.2 -0.492961 1.53057 0
M  V30 48257 O 4576.39 -0.299152 1.71612 0
M  V30 48258 C 4573.53 -0.474301 3.37584 0
M  V30 48259 H 4574.72 1.21853 2.74029 0
M  V30 48260 H 4572.27 0.669157 1.41251 0
M  V30 48261 H 4573.01 -1.34479 2.95103 0
M  V30 48262 H 4572.79 0.142752 3.9184 0
M  V30 48263 H 4574.28 -0.832036 4.09227 0
M  V30 48264 N 4574.72 -1.43419 0.653364 0
M  V30 48265 C 4575.95 -2.06162 0.174564 0
M  V30 48266 C 4576.36 -1.48973 -1.15984 0
M  V30 48267 O 4575.72 -0.621102 -1.71606 0
M  V30 48268 C 4575.77 -3.61417 0.0776136 0
M  V30 48269 O 4575.49 -4.1648 1.35927 0
M  V30 48270 C 4576.99 -4.41236 -0.427247 0
M  V30 48271 H 4574.21 -0.664942 0.0899587 0
M  V30 48272 H 4576.76 -1.83921 0.894053 0
M  V30 48273 H 4574.91 -3.82843 -0.592436 0
M  V30 48274 H 4575.33 -5.10148 1.21857 0
M  V30 48275 H 4576.8 -5.50211 -0.444037 0
M  V30 48276 H 4577.28 -4.14273 -1.45858 0
M  V30 48277 H 4577.88 -4.2478 0.210317 0
M  V30 48278 N 4576.2 -0.395293 -1.52562 0
M  V30 48279 C 4577.47 0.242839 -1.94087 0
M  V30 48280 C 4577.85 1.63837 -1.33119 0
M  V30 48281 O 4577.2 2.22926 -0.501607 0
M  V30 48282 C 4577.41 0.263148 -3.48007 0
M  V30 48283 C 4578.76 0.489206 -4.21772 0
M  V30 48284 O 4579.78 0.343101 -3.54544 0
M  V30 48285 O 4578.64 0.775979 -5.40963 0
M  V30 48286 H 4575.74 0.152508 -0.812816 0
M  V30 48287 H 4578.28 -0.450235 -1.63618 0
M  V30 48288 H 4577.06 -0.71412 -3.84729 0
M  V30 48289 H 4576.68 1.0009 -3.84796 0
M  V30 48290 N 4577.68 1.57101 -0.125292 0
M  V30 48291 C 4578.92 1.95409 0.531179 0
M  V30 48292 C 4579.25 1.00896 1.66284 0
M  V30 48293 O 4578.51 0.0340119 1.9567 0
M  V30 48294 C 4578.8 3.401 1.0985 0
M  V30 48295 C 4578.47 4.50815 0.0875405 0
M  V30 48296 C 4577.13 4.80823 -0.190429 0
M  V30 48297 C 4579.48 5.17722 -0.601084 0
M  V30 48298 C 4576.81 5.75053 -1.1632 0
M  V30 48299 C 4579.16 6.12999 -1.56253 0
M  V30 48300 C 4577.83 6.41397 -1.84842 0
M  V30 48301 H 4577.1 0.715053 0.194372 0
M  V30 48302 H 4579.75 1.90372 -0.20753 0
M  V30 48303 H 4578.05 3.41862 1.9141 0
M  V30 48304 H 4579.75 3.67056 1.61465 0
M  V30 48305 H 4576.34 4.27445 0.314378 0
M  V30 48306 H 4580.52 4.94689 -0.399507 0
M  V30 48307 H 4575.78 5.95358 -1.39138 0
M  V30 48308 H 4579.95 6.63927 -2.10176 0
M  V30 48309 H 4577.58 7.14219 -2.60374 0
M  V30 48310 N 4579.15 -0.14849 1.56899 0
M  V30 48311 C 4580.38 -0.875052 1.87153 0
M  V30 48312 C 4580.79 -1.75319 0.711324 0
M  V30 48313 O 4580.13 -1.80746 -0.328088 0
M  V30 48314 C 4580.2 -1.78429 3.12095 0
M  V30 48315 C 4579.86 -1.08346 4.43971 0
M  V30 48316 C 4580.86 -0.438065 5.18051 0
M  V30 48317 C 4578.54 -1.07341 4.90697 0
M  V30 48318 C 4580.54 0.208014 6.3706 0
M  V30 48319 C 4578.22 -0.423516 6.09631 0
M  V30 48320 C 4579.22 0.216069 6.82658 0
M  V30 48321 O 4578.91 0.855659 7.99333 0
M  V30 48322 H 4578.64 -0.258482 0.62463 0
M  V30 48323 H 4581.2 -0.146448 2.04877 0
M  V30 48324 H 4579.43 -2.55379 2.90376 0
M  V30 48325 H 4581.11 -2.38267 3.28609 0
M  V30 48326 H 4581.88 -0.437647 4.83021 0
M  V30 48327 H 4577.76 -1.56065 4.3378 0
M  V30 48328 H 4581.3 0.707824 6.94 0
M  V30 48329 H 4577.2 -0.421595 6.44122 0
M  V30 48330 H 4577.97 0.757178 8.1499 0
M  V30 48331 N 4580.63 -1.51961 -0.417791 0
M  V30 48332 C 4582.05 -1.40571 -0.755766 0
M  V30 48333 C 4582.25 -0.503385 -1.95111 0
M  V30 48334 O 4581.3 0.0341037 -2.52477 0
M  V30 48335 C 4582.62 -2.82951 -1.01782 0
M  V30 48336 C 4584.16 -2.92235 -1.12106 0
M  V30 48337 C 4584.64 -4.35564 -1.41592 0
M  V30 48338 N 4586.13 -4.38759 -1.48476 0
M  V30 48339 C 4586.87 -5.46711 -1.72901 0
M  V30 48340 N 4586.36 -6.64795 -1.94987 0
M  V30 48341 N 4588.15 -5.34215 -1.74844 0
M  V30 48342 H 4580.31 -2.09167 0.369172 0
M  V30 48343 H 4582.57 -0.942405 0.102842 0
M  V30 48344 H 4582.27 -3.51061 -0.211958 0
M  V30 48345 H 4582.15 -3.23469 -1.9403 0
M  V30 48346 H 4584.54 -2.24311 -1.91752 0
M  V30 48347 H 4584.62 -2.55186 -0.177136 0
M  V30 48348 H 4584.26 -5.04044 -0.624671 0
M  V30 48349 H 4584.19 -4.70141 -2.37223 0
M  V30 48350 H 4586.68 -3.53635 -1.33232 0
M  V30 48351 H 4586.99 -7.42852 -2.1305 0
M  V30 48352 H 4585.34 -6.67875 -1.9227 0
M  V30 48353 H 4588.53 -4.40943 -1.57121 0
M  V30 48354 H 4588.7 -6.18422 -1.93541 0
M  V30 48355 N 4582.11 0.674483 -1.42438 0
M  V30 48356 C 4583.06 1.78065 -1.42396 0
M  V30 48357 C 4584.04 1.58168 -0.295257 0
M  V30 48358 O 4585.24 1.68641 -0.537508 0
M  V30 48359 C 4582.36 3.16527 -1.32912 0
M  V30 48360 C 4581.45 3.42046 -2.50729 0
M  V30 48361 N 4581.84 3.38149 -3.7615 0
M  V30 48362 C 4580.14 3.72683 -2.44996 0
M  V30 48363 C 4580.84 3.63161 -4.54411 0
M  V30 48364 N 4579.82 3.8394 -3.84826 0
M  V30 48365 H 4583.62 1.73446 -2.37263 0
M  V30 48366 H 4581.13 0.875332 -1.36791 0
M  V30 48367 H 4583.13 3.95795 -1.30964 0
M  V30 48368 H 4581.79 3.22344 -0.390477 0
M  V30 48369 H 4582.8 3.18043 -4.08741 0
M  V30 48370 H 4579.48 3.85744 -1.59713 0
M  V30 48371 H 4580.87 3.66105 -5.63397 0
M  V30 48372 N 4583.59 1.28615 0.910818 0
M  V30 48373 C 4584.52 1.08596 2.0184 0
M  V30 48374 C 4585.53 0.0367991 1.62758 0
M  V30 48375 O 4586.72 0.280163 1.76288 0
M  V30 48376 C 4583.82 0.628743 3.33017 0
M  V30 48377 C 4583 1.75396 4.00693 0
M  V30 48378 C 4582.05 1.28963 5.10152 0
M  V30 48379 O 4581.08 1.99239 5.33191 0
M  V30 48380 N 4582.28 0.154428 5.80295 0
M  V30 48381 H 4585.05 2.03981 2.19572 0
M  V30 48382 H 4582.61 1.20407 1.0823 0
M  V30 48383 H 4584.6 0.30165 4.03574 0
M  V30 48384 H 4583.17 -0.232342 3.11735 0
M  V30 48385 H 4582.39 2.2505 3.23645 0
M  V30 48386 H 4583.68 2.5087 4.42653 0
M  V30 48387 H 4583.08 -0.431742 5.6405 0
M  V30 48388 H 4581.63 -0.11337 6.51701 0
M  V30 48389 N 4585.07 -1.11967 1.10911 0
M  V30 48390 C 4586.32 -1.82944 0.849367 0
M  V30 48391 C 4586.63 -1.85277 -0.627047 0
M  V30 48392 O 4587.83 -2.52299 -1.00286 0
M  V30 48393 C 4586.29 -3.28523 1.46971 0
M  V30 48394 C 4585.9 -3.34536 2.97976 0
M  V30 48395 C 4587.64 -4.04438 1.28956 0
M  V30 48396 C 4585.55 -4.74479 3.53021 0
M  V30 48397 H 4584.48 -0.685466 0.314089 0
M  V30 48398 H 4587.13 -1.26035 1.33369 0
M  V30 48399 H 4585.51 -3.8533 0.913052 0
M  V30 48400 H 4586.69 -2.87641 3.59999 0
M  V30 48401 H 4585 -2.72097 3.15202 0
M  V30 48402 H 4587.6 -5.07781 1.6752 0
M  V30 48403 H 4587.94 -4.15655 0.231602 0
M  V30 48404 H 4588.47 -3.54004 1.81456 0
M  V30 48405 H 4585.21 -4.68458 4.58506 0
M  V30 48406 H 4584.73 -5.21806 2.95768 0
M  V30 48407 H 4586.41 -5.43428 3.51134 0
M  V30 48408 N 4586.54 -0.898595 -1.29472 0
M  V30 48409 C 4587.45 -0.380055 -2.31501 0
M  V30 48410 C 4588.47 0.524637 -1.65902 0
M  V30 48411 O 4589.65 0.414482 -1.97089 0
M  V30 48412 C 4586.71 0.385017 -3.44556 0
M  V30 48413 C 4585.77 -0.551064 -4.25748 0
M  V30 48414 C 4585.01 0.177591 -5.33404 0
M  V30 48415 O 4585.23 1.40169 -5.52909 0
M  V30 48416 O 4584.16 -0.479317 -5.99988 0
M  V30 48417 H 4587.99 -1.22648 -2.77833 0
M  V30 48418 H 4585.57 -0.662882 -1.33889 0
M  V30 48419 H 4587.46 0.817696 -4.1339 0
M  V30 48420 H 4586.13 1.20752 -3.00334 0
M  V30 48421 H 4585.04 -1.03283 -3.5956 0
M  V30 48422 H 4586.37 -1.33996 -4.7361 0
M  V30 48423 N 4588.02 1.4307 -0.660961 0
M  V30 48424 C 4588.93 2.34585 0.0263338 0
M  V30 48425 C 4589.95 1.54319 0.803843 0
M  V30 48426 O 4591.12 1.86941 0.749325 0
M  V30 48427 C 4588.19 3.32693 0.975522 0
M  V30 48428 C 4587.25 4.28861 0.194086 0
M  V30 48429 C 4586.48 5.22282 1.09806 0
M  V30 48430 O 4586.71 5.20307 2.33745 0
M  V30 48431 O 4585.64 5.9923 0.566303 0
M  V30 48432 H 4589.47 2.94867 -0.727137 0
M  V30 48433 H 4587.05 1.43341 -0.42116 0
M  V30 48434 H 4588.93 3.93001 1.5208 0
M  V30 48435 H 4587.61 2.74904 1.70908 0
M  V30 48436 H 4586.52 3.72009 -0.394966 0
M  V30 48437 H 4587.85 4.89653 -0.500071 0
M  V30 48438 N 4589.5 0.403378 1.5235 0
M  V30 48439 C 4590.41 -0.431928 2.3059 0
M  V30 48440 C 4591.43 -1.05879 1.38078 0
M  V30 48441 O 4592.6 -1.06155 1.71152 0
M  V30 48442 C 4589.67 -1.53659 3.10789 0
M  V30 48443 C 4588.73 -0.933377 4.1903 0
M  V30 48444 C 4587.96 -1.98539 4.95397 0
M  V30 48445 O 4588.18 -3.20266 4.72002 0
M  V30 48446 O 4587.12 -1.59483 5.80387 0
M  V30 48447 H 4590.94 0.205845 3.03002 0
M  V30 48448 H 4588.53 0.166728 1.48467 0
M  V30 48449 H 4590.41 -2.17801 3.6075 0
M  V30 48450 H 4589.09 -2.15906 2.41176 0
M  V30 48451 H 4587.99 -0.254822 3.73231 0
M  V30 48452 H 4589.33 -0.354907 4.90919 0
M  V30 48453 N 4590.98 -1.57033 0.133622 0
M  V30 48454 C 4591.91 -2.19093 -0.80749 0
M  V30 48455 C 4592.89 -1.13521 -1.26677 0
M  V30 48456 O 4594.07 -1.41814 -1.32674 0
M  V30 48457 C 4591.2 -2.80195 -2.05202 0
M  V30 48458 C 4590.16 -3.91478 -1.73001 0
M  V30 48459 C 4589.48 -4.39453 -3.04606 0
M  V30 48460 C 4590.78 -5.1289 -0.986987 0
M  V30 48461 H 4592.48 -2.97989 -0.290298 0
M  V30 48462 H 4590.02 -1.43335 -0.138189 0
M  V30 48463 H 4591.98 -3.22274 -2.7151 0
M  V30 48464 H 4590.7 -1.9861 -2.59271 0
M  V30 48465 H 4589.36 -3.49997 -1.09077 0
M  V30 48466 H 4589.01 -3.54708 -3.56639 0
M  V30 48467 H 4588.71 -5.14505 -2.83829 0
M  V30 48468 H 4590.23 -4.84193 -3.72007 0
M  V30 48469 H 4591.65 -5.51896 -1.55188 0
M  V30 48470 H 4590.04 -5.93618 -0.879642 0
M  V30 48471 H 4591.11 -4.84894 0.0236991 0
M  V30 48472 N 4592.46 0.140167 -1.56975 0
M  V30 48473 C 4593.73 0.880708 -1.74651 0
M  V30 48474 C 4594.11 1.99034 -0.703474 0
M  V30 48475 O 4593.46 2.26822 0.2764 0
M  V30 48476 C 4593.67 1.41689 -3.18944 0
M  V30 48477 C 4595.02 1.8776 -3.8083 0
M  V30 48478 O 4596.04 1.51415 -3.22416 0
M  V30 48479 O 4594.9 2.5481 -4.83461 0
M  V30 48480 H 4592 0.416688 -0.714353 0
M  V30 48481 H 4594.54 0.125559 -1.69235 0
M  V30 48482 H 4593.31 0.619766 -3.86361 0
M  V30 48483 H 4592.94 2.23535 -3.28813 0
M  V30 48484 N 4593.93 1.52181 0.409726 0
M  V30 48485 C 4595.35 1.4097 0.748301 0
M  V30 48486 C 4595.55 0.513725 1.94841 0
M  V30 48487 O 4594.61 -0.0207138 2.52492 0
M  V30 48488 C 4595.92 2.83486 1.0028 0
M  V30 48489 C 4597.47 2.92825 1.10555 0
M  V30 48490 C 4597.94 4.36308 1.39281 0
M  V30 48491 N 4599.43 4.3954 1.46147 0
M  V30 48492 C 4600.17 5.4762 1.69999 0
M  V30 48493 N 4599.66 6.65819 1.91459 0
M  V30 48494 N 4601.46 5.35135 1.72009 0
M  V30 48495 H 4593.61 2.08968 -0.380259 0
M  V30 48496 H 4595.87 0.941847 -0.107838 0
M  V30 48497 H 4595.58 3.51168 0.193337 0
M  V30 48498 H 4595.45 3.24493 1.92312 0
M  V30 48499 H 4597.84 2.25324 1.9056 0
M  V30 48500 H 4597.92 2.55276 0.1636 0
M  V30 48501 H 4597.56 5.04368 0.597932 0
M  V30 48502 H 4597.49 4.71393 2.34726 0
M  V30 48503 H 4599.98 3.54337 1.31354 0
M  V30 48504 H 4600.3 7.43972 2.09108 0
M  V30 48505 H 4598.64 6.68886 1.88725 0
M  V30 48506 H 4601.83 4.4177 1.54781 0
M  V30 48507 H 4602.01 6.1944 1.90259 0
M  V30 48508 N 4595.41 -0.666919 1.42793 0
M  V30 48509 C 4596.83 -0.980983 1.25892 0
M  V30 48510 C 4597.03 -2.00792 0.168765 0
M  V30 48511 O 4596.08 -2.48323 -0.457383 0
M  V30 48512 C 4597.4 -1.47829 2.61853 0
M  V30 48513 C 4598.95 -1.59565 2.69273 0
M  V30 48514 C 4599.42 -2.1269 4.05619 0
M  V30 48515 N 4600.91 -2.20012 4.07614 0
M  V30 48516 C 4601.65 -2.62209 5.09935 0
M  V30 48517 N 4601.14 -3.03802 6.22637 0
M  V30 48518 N 4602.94 -2.62028 4.97291 0
M  V30 48519 H 4595.09 0.0128638 2.12396 0
M  V30 48520 H 4597.35 -0.0567925 0.946297 0
M  V30 48521 H 4597.06 -0.798179 3.42523 0
M  V30 48522 H 4596.93 -2.45569 2.86314 0
M  V30 48523 H 4599.32 -2.2668 1.88944 0
M  V30 48524 H 4599.4 -0.602932 2.48593 0
M  V30 48525 H 4599.04 -1.46181 4.86409 0
M  V30 48526 H 4598.97 -3.12767 4.23656 0
M  V30 48527 H 4601.46 -1.90696 3.26256 0
M  V30 48528 H 4601.78 -3.3471 6.96555 0
M  V30 48529 H 4600.12 -3.0164 6.2613 0
M  V30 48530 H 4603.31 -2.28901 4.08316 0
M  V30 48531 H 4603.48 -2.94593 5.77165 0
M  V30 48532 N 4596.89 -1.29096 -0.903985 0
M  V30 48533 C 4597.85 -1.13867 -1.98915 0
M  V30 48534 C 4598.85 -0.0754021 -1.60623 0
M  V30 48535 O 4600.04 -0.321991 -1.71198 0
M  V30 48536 C 4597.18 -0.740315 -3.32764 0
M  V30 48537 H 4598.37 -2.10253 -2.13854 0
M  V30 48538 H 4595.92 -1.12222 -1.08793 0
M  V30 48539 H 4596.66 0.223884 -3.23526 0
M  V30 48540 H 4596.44 -1.5085 -3.61921 0
M  V30 48541 H 4597.93 -0.656691 -4.12404 0
M  V30 48542 N 4598.37 1.11377 -1.11503 0
M  V30 48543 C 4599.62 1.83129 -0.864296 0
M  V30 48544 C 4599.94 1.84685 0.610049 0
M  V30 48545 O 4599.2 1.29594 1.46642 0
M  V30 48546 C 4599.5 3.30021 -1.37189 0
M  V30 48547 C 4599.16 3.48624 -2.85958 0
M  V30 48548 C 4597.83 3.53409 -3.26581 0
M  V30 48549 C 4600.18 3.54824 -3.81771 0
M  V30 48550 C 4597.51 3.61951 -4.61745 0
M  V30 48551 C 4599.86 3.64897 -5.16753 0
M  V30 48552 C 4598.52 3.67942 -5.56933 0
M  V30 48553 H 4597.79 0.670116 -0.316268 0
M  V30 48554 H 4600.44 1.31349 -1.39355 0
M  V30 48555 H 4598.74 3.84301 -0.762888 0
M  V30 48556 H 4600.44 3.8403 -1.15422 0
M  V30 48557 H 4597.03 3.4557 -2.53533 0
M  V30 48558 H 4601.22 3.50387 -3.51487 0
M  V30 48559 H 4596.47 3.62586 -4.92282 0
M  V30 48560 H 4600.65 3.68637 -5.90829 0
M  V30 48561 H 4598.27 3.74313 -6.6166 0
M  V30 48562 N 4599.85 0.905449 1.28994 0
M  V30 48563 C 4600.78 0.344828 2.26591 0
M  V30 48564 C 4601.79 -0.512081 1.54537 0
M  V30 48565 O 4602.98 -0.328306 1.75455 0
M  V30 48566 C 4600.08 -0.52647 3.34786 0
M  V30 48567 C 4599.25 0.306025 4.36328 0
M  V30 48568 C 4598.31 -0.499025 5.23828 0
M  V30 48569 O 4597.34 0.0855005 5.69136 0
M  V30 48570 N 4598.54 -1.80388 5.51761 0
M  V30 48571 H 4601.31 1.18369 2.75334 0
M  V30 48572 H 4598.87 0.770531 1.42388 0
M  V30 48573 H 4600.86 -1.07157 3.90256 0
M  V30 48574 H 4599.43 -1.26603 2.85815 0
M  V30 48575 H 4598.65 1.03253 3.80437 0
M  V30 48576 H 4599.94 0.875949 5.01203 0
M  V30 48577 H 4599.34 -2.30142 5.1677 0
M  V30 48578 H 4597.89 -2.29599 6.10023 0
M  V30 48579 N 4601.33 -1.42718 0.668539 0
M  V30 48580 C 4602.55 -2.06483 0.19483 0
M  V30 48581 C 4602.98 -1.49866 -1.13674 0
M  V30 48582 O 4602.33 -0.614642 -1.70563 0
M  V30 48583 C 4602.38 -3.60352 0.133673 0
M  V30 48584 O 4601.49 -4.02467 -0.899665 0
M  V30 48585 H 4600.83 -0.656134 0.101904 0
M  V30 48586 H 4603.36 -1.8296 0.915787 0
M  V30 48587 H 4603.37 -4.07976 -0.0445606 0
M  V30 48588 H 4602.04 -4.00934 1.10564 0
M  V30 48589 H 4600.62 -3.66404 -0.69298 0
M  V30 48590 N 4602.8 -0.411452 -1.52134 0
M  V30 48591 C 4604.05 0.163817 -2.02137 0
M  V30 48592 C 4604.38 1.44592 -1.29641 0
M  V30 48593 O 4603.66 1.9027 -0.40342 0
M  V30 48594 C 4603.94 0.409145 -3.57768 0
M  V30 48595 C 4603.79 -0.889798 -4.40911 0
M  V30 48596 C 4605.11 1.19027 -4.23699 0
M  V30 48597 H 4602.23 0.0580637 -0.734709 0
M  V30 48598 H 4604.87 -0.545374 -1.82005 0
M  V30 48599 H 4603.02 1.01326 -3.75054 0
M  V30 48600 H 4604.7 -1.52591 -4.35332 0
M  V30 48601 H 4602.94 -1.50026 -4.07032 0
M  V30 48602 H 4603.61 -0.672507 -5.47888 0
M  V30 48603 H 4606.09 0.678797 -4.10526 0
M  V30 48604 H 4604.96 1.33068 -5.32526 0
M  V30 48605 H 4605.22 2.21152 -3.82811 0
M  V30 48606 N 4604.28 1.56959 -0.141948 0
M  V30 48607 C 4605.21 2.19518 0.795859 0
M  V30 48608 C 4606.19 1.14191 1.26073 0
M  V30 48609 O 4607.38 1.42516 1.3192 0
M  V30 48610 C 4604.51 2.81279 2.03714 0
M  V30 48611 C 4603.46 3.9239 1.70922 0
M  V30 48612 C 4602.79 4.41062 3.02271 0
M  V30 48613 C 4604.09 5.13406 0.959774 0
M  V30 48614 H 4605.78 2.98139 0.274491 0
M  V30 48615 H 4603.33 1.43407 0.130586 0
M  V30 48616 H 4605.28 3.23709 2.69797 0
M  V30 48617 H 4604 1.99983 2.58214 0
M  V30 48618 H 4602.66 3.5057 1.0722 0
M  V30 48619 H 4602.31 3.56594 3.54753 0
M  V30 48620 H 4602.01 5.16003 2.81096 0
M  V30 48621 H 4603.54 4.86159 3.69434 0
M  V30 48622 H 4604.95 5.52712 1.52259 0
M  V30 48623 H 4603.35 5.94076 0.848148 0
M  V30 48624 H 4604.42 4.84875 -0.0494139 0
M  V30 48625 N 4605.76 -0.13184 1.57048 0
M  V30 48626 C 4606.67 -1.18143 2.02681 0
M  V30 48627 C 4607.69 -1.4611 0.944875 0
M  V30 48628 O 4608.86 -1.5748 1.25546 0
M  V30 48629 C 4605.93 -2.4913 2.41112 0
M  V30 48630 C 4604.99 -2.28675 3.63326 0
M  V30 48631 C 4604.22 -3.53417 3.99915 0
M  V30 48632 O 4604.44 -4.60211 3.36989 0
M  V30 48633 O 4603.38 -3.4518 4.93086 0
M  V30 48634 H 4607.2 -0.823966 2.92309 0
M  V30 48635 H 4604.79 -0.341694 1.4544 0
M  V30 48636 H 4606.67 -3.26329 2.66623 0
M  V30 48637 H 4605.35 -2.84377 1.54634 0
M  V30 48638 H 4604.25 -1.49378 3.42983 0
M  V30 48639 H 4605.59 -1.98339 4.50469 0
M  V30 48640 N 4607.24 -1.52396 -0.40165 0
M  V30 48641 C 4608.48 -1.67069 -1.1496 0
M  V30 48642 C 4608.82 -0.403119 -1.8997 0
M  V30 48643 O 4608.09 0.598709 -1.85056 0
M  V30 48644 C 4608.37 -2.89757 -2.13805 0
M  V30 48645 C 4608.23 -4.26583 -1.42643 0
M  V30 48646 C 4609.55 -3.07976 -3.14386 0
M  V30 48647 H 4606.67 -0.607982 -0.416565 0
M  V30 48648 H 4609.31 -1.84966 -0.434446 0
M  V30 48649 H 4607.46 -2.74629 -2.74793 0
M  V30 48650 H 4609.13 -4.53454 -0.84717 0
M  V30 48651 H 4607.37 -4.27642 -0.72834 0
M  V30 48652 H 4608.04 -5.08491 -2.14805 0
M  V30 48653 H 4610.52 -3.22052 -2.6348 0
M  V30 48654 H 4609.4 -3.95321 -3.80805 0
M  V30 48655 H 4609.66 -2.21624 -3.82538 0
M  V30 48656 N 4608.72 0.659337 -1.43145 0
M  V30 48657 C 4609.96 1.4214 -1.44652 0
M  V30 48658 C 4610.29 1.9408 -0.0682589 0
M  V30 48659 O 4609.57 1.71902 0.909947 0
M  V30 48660 C 4609.85 2.60726 -2.48382 0
M  V30 48661 C 4609.71 2.14318 -3.95459 0
M  V30 48662 C 4611.02 3.62943 -2.48919 0
M  V30 48663 H 4608.14 0.515501 -0.526714 0
M  V30 48664 H 4610.79 0.748007 -1.74656 0
M  V30 48665 H 4608.94 3.18176 -2.22927 0
M  V30 48666 H 4610.61 1.61917 -4.3195 0
M  V30 48667 H 4608.85 1.45746 -4.08584 0
M  V30 48668 H 4609.52 2.99567 -4.63642 0
M  V30 48669 H 4612 3.15241 -2.71593 0
M  V30 48670 H 4610.87 4.43476 -3.23451 0
M  V30 48671 H 4611.13 4.15121 -1.52075 0
M  V30 48672 N 4610.19 1.29574 0.897126 0
M  V30 48673 C 4611.16 1.1492 1.98308 0
M  V30 48674 C 4612.16 0.0839193 1.60581 0
M  V30 48675 O 4613.35 0.331066 1.71025 0
M  V30 48676 C 4610.48 0.757952 3.32367 0
M  V30 48677 H 4611.67 2.11385 2.12736 0
M  V30 48678 H 4609.22 1.12797 1.08197 0
M  V30 48679 H 4609.96 -0.206723 3.2364 0
M  V30 48680 H 4609.74 1.52768 3.61116 0
M  V30 48681 H 4611.23 0.678553 4.1205 0
M  V30 48682 N 4611.67 -1.10784 1.12092 0
M  V30 48683 C 4612.63 -2.15204 0.788653 0
M  V30 48684 C 4613.63 -1.5961 -0.195261 0
M  V30 48685 O 4614.82 -1.74174 0.0300805 0
M  V30 48686 C 4611.96 -3.40469 0.171294 0
M  V30 48687 H 4613.15 -2.4611 1.71377 0
M  V30 48688 H 4610.7 -1.26085 0.923696 0
M  V30 48689 H 4611.44 -3.15179 -0.763721 0
M  V30 48690 H 4611.22 -3.82105 0.879648 0
M  V30 48691 H 4612.71 -4.17576 -0.0448132 0
M  V30 48692 N 4613.15 -0.912277 -1.28512 0
M  V30 48693 C 4614.56 -0.591415 -1.77085 0
M  V30 48694 C 4614.91 0.893239 -1.74687 0
M  V30 48695 O 4614.04 1.69871 -1.34062 0
M  V30 48696 C 4614.63 -1.0668 -3.21566 0
M  V30 48697 C 4613.19 -0.796879 -3.67868 0
M  V30 48698 C 4612.34 -1.23436 -2.48312 0
M  V30 48699 H 4615.29 -1.09369 -1.14996 0
M  V30 48700 H 4615.31 -0.407588 -3.78311 0
M  V30 48701 H 4614.82 -2.14737 -3.23279 0
M  V30 48702 H 4612.92 0.270549 -3.71616 0
M  V30 48703 H 4613.04 -1.40359 -4.58079 0
M  V30 48704 H 4611.4 -0.653123 -2.46184 0
M  V30 48705 H 4612.18 -2.32325 -2.52745 0
M  V30 48706 N 4614.63 1.42361 -0.676098 0
M  V30 48707 C 4615.88 2.01123 -0.198508 0
M  V30 48708 C 4616.2 1.53735 1.19961 0
M  V30 48709 O 4615.47 0.759581 1.80575 0
M  V30 48710 H 4614.05 0.743675 -0.0703982 0
M  V30 48711 H 4616.71 1.7426 -0.872898 0
M  V30 48712 H 4615.81 3.11453 -0.200795 0
M  V30 48713 N 4616.11 0.419515 1.51914 0
M  V30 48714 C 4617.33 -0.154499 2.06824 0
M  V30 48715 C 4617.76 -1.37215 1.28661 0
M  V30 48716 O 4617.11 -1.7846 0.319646 0
M  V30 48717 C 4617.16 -0.473046 3.57484 0
M  V30 48718 O 4616.27 -1.56241 3.81658 0
M  V30 48719 H 4615.61 -0.00966906 0.66393 0
M  V30 48720 H 4618.14 0.59571 1.95736 0
M  V30 48721 H 4618.15 -0.728684 4.0144 0
M  V30 48722 H 4616.82 0.417018 4.13804 0
M  V30 48723 H 4615.4 -1.29813 3.49575 0
M  V30 48724 N 4617.58 -1.56882 0.15027 0
M  V30 48725 C 4619 -1.82997 -0.370012 0
M  V30 48726 C 4619.35 -1.06913 -1.64512 0
M  V30 48727 O 4618.47 -0.315444 -2.14089 0
M  V30 48728 C 4619.07 -3.31945 -0.678092 0
M  V30 48729 C 4617.63 -3.5863 -1.14288 0
M  V30 48730 C 4616.77 -2.76793 -0.167681 0
M  V30 48731 H 4619.72 -1.54208 0.374912 0
M  V30 48732 H 4619.74 -3.48278 -1.53242 0
M  V30 48733 H 4619.26 -3.87293 0.250128 0
M  V30 48734 H 4617.36 -3.08671 -2.08693 0
M  V30 48735 H 4617.47 -4.67077 -1.0666 0
M  V30 48736 H 4615.83 -2.45975 -0.66095 0
M  V30 48737 H 4616.62 -3.34913 0.754187 0
M  V30 48738 N 4619.06 0.12351 -1.57115 0
M  V30 48739 C 4620.29 0.845167 -1.88522 0
M  V30 48740 C 4620.7 1.74165 -0.739126 0
M  V30 48741 O 4620.04 1.81246 0.299291 0
M  V30 48742 C 4620.11 1.73441 -3.14894 0
M  V30 48743 C 4619.77 1.01269 -4.45638 0
M  V30 48744 C 4620.77 0.355592 -5.18683 0
M  V30 48745 C 4618.45 0.995207 -4.92342 0
M  V30 48746 C 4620.45 -0.309338 -6.36649 0
M  V30 48747 C 4618.13 0.326476 -6.10227 0
M  V30 48748 C 4619.13 -0.324646 -6.82228 0
M  V30 48749 O 4618.82 -0.982718 -7.97871 0
M  V30 48750 H 4618.55 0.248512 -0.628664 0
M  V30 48751 H 4621.1 0.113835 -2.05084 0
M  V30 48752 H 4619.33 2.50727 -2.94402 0
M  V30 48753 H 4621.02 2.33009 -3.32358 0
M  V30 48754 H 4621.79 0.360748 -4.83657 0
M  V30 48755 H 4617.67 1.49144 -4.36208 0
M  V30 48756 H 4621.21 -0.818144 -6.92786 0
M  V30 48757 H 4617.11 0.319068 -6.44711 0
M  V30 48758 H 4617.88 -0.88674 -8.13682 0
M  V30 48759 N 4620.54 1.52607 0.393562 0
M  V30 48760 C 4621.49 1.73441 1.47994 0
M  V30 48761 C 4622.47 0.588439 1.49754 0
M  V30 48762 O 4623.67 0.846101 1.55467 0
M  V30 48763 C 4620.8 1.90257 2.85757 0
M  V30 48764 C 4619.88 3.10773 2.88584 0
M  V30 48765 N 4620.27 4.33205 2.61088 0
M  V30 48766 C 4618.57 3.10925 3.19752 0
M  V30 48767 C 4619.27 5.1478 2.70881 0
M  V30 48768 N 4618.25 4.50366 3.04419 0
M  V30 48769 H 4622.05 2.65732 1.25554 0
M  V30 48770 H 4619.56 1.50852 0.60146 0
M  V30 48771 H 4621.56 2.03304 3.63969 0
M  V30 48772 H 4620.22 0.991771 3.09183 0
M  V30 48773 H 4621.23 4.61416 2.35193 0
M  V30 48774 H 4617.91 2.29639 3.48672 0
M  V30 48775 H 4619.3 6.22364 2.53206 0
M  V30 48776 N 4622.02 -0.651737 1.43493 0
M  V30 48777 C 4623.43 -0.967575 1.26926 0
M  V30 48778 C 4623.63 -2.00602 0.190053 0
M  V30 48779 O 4622.69 -2.48794 -0.431019 0
M  V30 48780 C 4624 -1.45043 2.63407 0
M  V30 48781 C 4625.55 -1.567 2.7095 0
M  V30 48782 C 4626.03 -2.08376 4.07852 0
M  V30 48783 N 4627.52 -2.15676 4.09925 0
M  V30 48784 C 4628.25 -2.56786 5.12688 0
M  V30 48785 N 4627.75 -2.97181 6.25824 0
M  V30 48786 N 4629.54 -2.56738 5.00042 0
M  V30 48787 H 4621.69 0.0353905 2.12371 0
M  V30 48788 H 4623.96 -0.0467525 0.946846 0
M  V30 48789 H 4623.66 -0.761805 3.4335 0
M  V30 48790 H 4623.54 -2.42519 2.88902 0
M  V30 48791 H 4625.92 -2.24664 1.91338 0
M  V30 48792 H 4626 -0.576532 2.49218 0
M  V30 48793 H 4625.65 -1.41014 4.87932 0
M  V30 48794 H 4625.58 -3.08256 4.26949 0
M  V30 48795 H 4628.07 -1.87225 3.28261 0
M  V30 48796 H 4628.38 -3.27303 7.00066 0
M  V30 48797 H 4626.73 -2.94982 6.29294 0
M  V30 48798 H 4629.92 -2.24558 4.10721 0
M  V30 48799 H 4630.09 -2.88454 5.80257 0
M  V30 48800 N 4623.5 -1.30048 -0.890242 0
M  V30 48801 C 4624.43 -1.18548 -2.01168 0
M  V30 48802 C 4625.41 -0.0773953 -1.69924 0
M  V30 48803 O 4626.59 -0.258518 -1.92472 0
M  V30 48804 C 4623.72 -0.871059 -3.36199 0
M  V30 48805 C 4622.68 -1.9365 -3.81685 0
M  V30 48806 C 4622 -1.47518 -5.13948 0
M  V30 48807 C 4623.3 -3.3468 -4.00982 0
M  V30 48808 H 4625 -2.12367 -2.11047 0
M  V30 48809 H 4622.54 -1.02242 -1.01403 0
M  V30 48810 H 4624.5 -0.777286 -4.14169 0
M  V30 48811 H 4623.22 0.102811 -3.26438 0
M  V30 48812 H 4621.88 -2.01982 -3.05939 0
M  V30 48813 H 4621.53 -0.489727 -5.0061 0
M  V30 48814 H 4621.23 -2.1878 -5.45352 0
M  V30 48815 H 4622.75 -1.3951 -5.94449 0
M  V30 48816 H 4624.16 -3.29137 -4.69406 0
M  V30 48817 H 4622.56 -4.03982 -4.43755 0
M  V30 48818 H 4623.63 -3.76959 -3.05008 0
M  V30 48819 N 4624.97 1.10188 -1.12678 0
M  V30 48820 C 4625.9 2.18649 -0.819439 0
M  V30 48821 C 4626.89 1.68699 0.217856 0
M  V30 48822 O 4628.07 1.94041 0.0784899 0
M  V30 48823 C 4625.2 3.46201 -0.276062 0
M  V30 48824 C 4624.15 4.0944 -1.24671 0
M  V30 48825 C 4623.48 5.31723 -0.563445 0
M  V30 48826 C 4624.78 4.52853 -2.60233 0
M  V30 48827 H 4626.47 2.44616 -1.72637 0
M  V30 48828 H 4624.02 1.17568 -0.831493 0
M  V30 48829 H 4625.97 4.21372 -0.0487631 0
M  V30 48830 H 4624.7 3.19733 0.666219 0
M  V30 48831 H 4623.36 3.36279 -1.45986 0
M  V30 48832 H 4623 5.01532 0.384059 0
M  V30 48833 H 4622.7 5.74987 -1.21095 0
M  V30 48834 H 4624.23 6.09623 -0.345244 0
M  V30 48835 H 4625.64 5.19286 -2.42931 0
M  V30 48836 H 4624.04 5.06975 -3.21086 0
M  V30 48837 H 4625.11 3.65645 -3.18484 0
M  V30 48838 N 4626.45 0.919079 1.28026 0
M  V30 48839 C 4627.68 0.571041 1.98864 0
M  V30 48840 C 4628.1 -0.848936 1.68637 0
M  V30 48841 O 4627.45 -1.56304 0.942091 0
M  V30 48842 C 4627.5 0.777001 3.53051 0
M  V30 48843 O 4627.22 2.14111 3.82215 0
M  V30 48844 C 4628.73 0.436511 4.41146 0
M  V30 48845 H 4625.95 0.217197 0.634875 0
M  V30 48846 H 4628.49 1.23374 1.63092 0
M  V30 48847 H 4626.64 0.161221 3.87064 0
M  V30 48848 H 4627.06 2.18471 4.76834 0
M  V30 48849 H 4628.53 0.631363 5.48377 0
M  V30 48850 H 4629.01 -0.627534 4.34694 0
M  V30 48851 H 4629.62 1.03006 4.12638 0
M  V30 48852 N 4627.93 -1.42001 0.683638 0
M  V30 48853 C 4629.17 -2.03281 0.213585 0
M  V30 48854 C 4629.54 -1.52928 -1.16091 0
M  V30 48855 O 4630.74 -2.06054 -1.72613 0
M  V30 48856 C 4629.01 -3.56482 0.255981 0
M  V30 48857 S 4630.57 -4.38571 -0.141775 0
M  V30 48858 H 4627.38 -0.705656 0.0870101 0
M  V30 48859 H 4629.99 -1.73616 0.898761 0
M  V30 48860 H 4628.69 -3.90626 1.25854 0
M  V30 48861 H 4628.22 -3.90832 -0.448738 0
M  V30 48862 H 4630.24 -4.76832 -1.37278 0
M  V30 48863 N 4629.41 -0.427565 -1.51689 0
M  V30 48864 C 4630.34 0.379519 -2.30395 0
M  V30 48865 C 4631.32 1.02977 -1.35387 0
M  V30 48866 O 4632.51 1.03528 -1.64303 0
M  V30 48867 C 4629.64 1.48638 -3.13885 0
M  V30 48868 C 4628.59 0.960148 -4.17091 0
M  V30 48869 C 4627.92 2.16202 -4.89041 0
M  V30 48870 C 4629.22 0.00135318 -5.223 0
M  V30 48871 H 4630.91 -0.277268 -2.98113 0
M  V30 48872 H 4628.46 -0.134789 -1.43368 0
M  V30 48873 H 4630.41 2.05813 -3.67721 0
M  V30 48874 H 4629.13 2.17132 -2.4397 0
M  V30 48875 H 4627.79 0.410678 -3.64292 0
M  V30 48876 H 4627.44 2.83292 -4.15638 0
M  V30 48877 H 4627.14 1.81634 -5.58823 0
M  V30 48878 H 4628.66 2.73948 -5.45696 0
M  V30 48879 H 4630.08 0.482486 -5.71266 0
M  V30 48880 H 4628.47 -0.25641 -5.99552 0
M  V30 48881 H 4629.54 -0.938341 -4.75734 0
M  V30 48882 N 4630.89 1.568 -0.158588 0
M  V30 48883 C 4632.3 1.58371 0.197718 0
M  V30 48884 C 4632.5 1.1734 1.6381 0
M  V30 48885 O 4631.56 0.879071 2.36704 0
M  V30 48886 C 4632.87 3.00615 -0.0715516 0
M  V30 48887 C 4634.42 3.12999 -0.00875537 0
M  V30 48888 C 4634.9 4.57313 -0.250846 0
M  V30 48889 N 4636.39 4.62776 -0.198176 0
M  V30 48890 C 4637.12 5.7227 -0.359843 0
M  V30 48891 N 4636.62 6.90369 -0.579868 0
M  V30 48892 N 4638.41 5.61317 -0.296635 0
M  V30 48893 H 4630.56 1.81761 -1.09893 0
M  V30 48894 H 4632.82 0.841833 -0.435913 0
M  V30 48895 H 4632.53 3.35065 -1.06886 0
M  V30 48896 H 4632.4 3.71686 0.642627 0
M  V30 48897 H 4634.79 2.78383 0.979119 0
M  V30 48898 H 4634.87 2.4439 -0.755445 0
M  V30 48899 H 4634.52 4.92634 -1.23587 0
M  V30 48900 H 4634.45 5.24063 0.516305 0
M  V30 48901 H 4636.94 3.77885 -0.0332444 0
M  V30 48902 H 4637.25 7.69686 -0.693021 0
M  V30 48903 H 4635.6 6.92262 -0.61633 0
M  V30 48904 H 4638.79 4.67932 -0.125423 0
M  V30 48905 H 4638.96 6.46598 -0.426059 0
M  V30 48906 N 4632.37 -0.115176 1.57179 0
M  V30 48907 C 4633.31 -1.16007 2.01606 0
M  V30 48908 C 4634.31 -1.4265 0.913637 0
M  V30 48909 O 4635.51 -1.42568 1.09884 0
M  V30 48910 H 4631.89 -0.39123 0.642217 0
M  V30 48911 H 4633.86 -0.758896 2.88589 0
M  V30 48912 C 4632.61 -2.47759 2.43949 0
M  V30 48913 H 4631.93 -2.28096 3.28348 0
M  V30 48914 H 4633.37 -3.19422 2.78829 0
M  V30 48915 C 4631.83 -3.10613 1.30465 0
M  V30 48916 O 4632.36 -3.96844 0.622724 0
M  V30 48917 N 4630.57 -2.70549 1.06074 0
M  V30 48918 H 4630.11 -2.00521 1.61707 0
M  V30 48919 H 4630.07 -3.12933 0.303394 0
M  V30 48920 N 4633.84 -1.52813 -0.385464 0
M  V30 48921 C 4635.09 -1.68279 -1.13182 0
M  V30 48922 C 4635.42 -0.423245 -1.89532 0
M  V30 48923 O 4634.7 0.579047 -1.85681 0
M  V30 48924 C 4634.98 -2.92009 -2.1072 0
M  V30 48925 C 4634.83 -4.28072 -1.3811 0
M  V30 48926 C 4636.15 -3.11294 -3.11102 0
M  V30 48927 H 4633.27 -0.612366 -0.410093 0
M  V30 48928 H 4635.91 -1.85417 -0.414803 0
M  V30 48929 H 4634.06 -2.77528 -2.71865 0
M  V30 48930 H 4635.74 -4.54327 -0.799027 0
M  V30 48931 H 4633.98 -4.2839 -0.682942 0
M  V30 48932 H 4634.65 -5.10741 -2.09399 0
M  V30 48933 H 4637.13 -3.24829 -2.60049 0
M  V30 48934 H 4636 -3.99338 -3.7659 0
M  V30 48935 H 4636.26 -2.25669 -3.80165 0
M  V30 48936 N 4635.32 0.644118 -1.43836 0
M  V30 48937 C 4636.27 1.75005 -1.46141 0
M  V30 48938 C 4637.26 1.57506 -0.328741 0
M  V30 48939 O 4638.45 1.67463 -0.573159 0
M  V30 48940 C 4635.58 3.13636 -1.39596 0
M  V30 48941 C 4634.66 3.36651 -2.57928 0
M  V30 48942 N 4635.05 3.30094 -3.83238 0
M  V30 48943 C 4633.35 3.67403 -2.52846 0
M  V30 48944 C 4634.05 3.5344 -4.62012 0
M  V30 48945 N 4633.03 3.75691 -3.92883 0
M  V30 48946 H 4636.83 1.68374 -2.40889 0
M  V30 48947 H 4634.34 0.84612 -1.38617 0
M  V30 48948 H 4636.34 3.92928 -1.3933 0
M  V30 48949 H 4635 3.21443 -0.458763 0
M  V30 48950 H 4636.01 3.09302 -4.15395 0
M  V30 48951 H 4632.69 3.82269 -1.67859 0
M  V30 48952 H 4634.08 3.54072 -5.71036 0
M  V30 48953 N 4636.8 1.30518 0.883332 0
M  V30 48954 C 4637.75 1.17039 1.98923 0
M  V30 48955 C 4638.72 0.0594824 1.65993 0
M  V30 48956 O 4639.9 0.229962 1.89409 0
M  V30 48957 C 4637.04 0.869894 3.33956 0
M  V30 48958 C 4636.15 2.06284 3.79567 0
M  V30 48959 C 4635.29 1.70029 5.03253 0
M  V30 48960 C 4634.33 2.85809 5.41276 0
M  V30 48961 N 4633.47 2.49839 6.56144 0
M  V30 48962 H 4638.31 2.11647 2.09784 0
M  V30 48963 H 4635.84 1.05299 1.02715 0
M  V30 48964 H 4637.8 0.676283 4.11682 0
M  V30 48965 H 4636.43 -0.0393197 3.22776 0
M  V30 48966 H 4635.48 2.36765 2.97736 0
M  V30 48967 H 4636.79 2.92986 4.03684 0
M  V30 48968 H 4635.95 1.47052 5.88609 0
M  V30 48969 H 4634.69 0.804998 4.8101 0
M  V30 48970 H 4633.69 3.0945 4.54446 0
M  V30 48971 H 4634.92 3.76028 5.65491 0
M  V30 48972 H 4632.86 1.62817 6.35473 0
M  V30 48973 H 4632.78 3.30072 6.80139 0
M  V30 48974 H 4634.05 2.30223 7.44727 0
M  V30 48975 N 4638.28 -1.09589 1.13261 0
M  V30 48976 C 4639.52 -1.82 0.894644 0
M  V30 48977 C 4639.86 -1.85404 -0.577841 0
M  V30 48978 O 4639.13 -1.32104 -1.42754 0
M  V30 48979 C 4639.41 -3.28232 1.48108 0
M  V30 48980 C 4639.27 -3.33109 3.02255 0
M  V30 48981 C 4640.59 -4.24867 1.14788 0
M  V30 48982 H 4637.71 -0.660758 0.326447 0
M  V30 48983 H 4640.35 -1.28384 1.40063 0
M  V30 48984 H 4638.5 -3.74021 1.05075 0
M  V30 48985 H 4640.17 -2.95736 3.54031 0
M  V30 48986 H 4638.41 -2.72744 3.37333 0
M  V30 48987 H 4639.08 -4.36118 3.38386 0
M  V30 48988 H 4641.56 -3.87355 1.5197 0
M  V30 48989 H 4640.44 -5.25527 1.58471 0
M  V30 48990 H 4640.7 -4.42057 0.0613403 0
M  V30 48991 N 4639.76 -0.925856 -1.27537 0
M  V30 48992 C 4640.98 -0.581579 -1.98558 0
M  V30 48993 C 4641.4 0.839981 -1.69085 0
M  V30 48994 O 4640.76 1.55802 -0.950367 0
M  V30 48995 C 4640.81 -0.795713 -3.52634 0
M  V30 48996 O 4640.53 -2.16135 -3.81074 0
M  V30 48997 C 4642.03 -0.459899 -4.40908 0
M  V30 48998 H 4639.25 -0.220561 -0.633714 0
M  V30 48999 H 4641.79 -1.24237 -1.62436 0
M  V30 49000 H 4639.95 -0.181746 -3.86973 0
M  V30 49001 H 4640.36 -2.20997 -4.75668 0
M  V30 49002 H 4641.84 -0.660436 -5.48035 0
M  V30 49003 H 4642.31 0.604472 -4.3502 0
M  V30 49004 H 4642.92 -1.05193 -4.12086 0
M  V30 49005 N 4641.23 1.41636 -0.691159 0
M  V30 49006 C 4642.46 2.05627 -0.229163 0
M  V30 49007 C 4642.88 1.51996 1.11994 0
M  V30 49008 O 4642.23 0.666382 1.69899 0
M  V30 49009 C 4642.28 3.61084 -0.17341 0
M  V30 49010 O 4642.01 4.1273 -1.46921 0
M  V30 49011 C 4643.51 4.42214 0.31011 0
M  V30 49012 H 4640.73 0.662324 -0.107557 0
M  V30 49013 H 4643.27 1.81486 -0.942502 0
M  V30 49014 H 4641.43 3.84279 0.490723 0
M  V30 49015 H 4641.84 5.06738 -1.35339 0
M  V30 49016 H 4643.31 5.51195 0.298002 0
M  V30 49017 H 4643.79 4.17994 1.34823 0
M  V30 49018 H 4644.4 4.24073 -0.322865 0
M  V30 49019 N 4642.71 0.435603 1.5146 0
M  V30 49020 C 4643.95 -0.130637 2.03982 0
M  V30 49021 C 4644.32 -1.40112 1.31273 0
M  V30 49022 O 4645.52 -2.04749 1.74159 0
M  V30 49023 C 4643.79 -0.345977 3.55721 0
M  V30 49024 S 4645.35 -0.875871 4.2997 0
M  V30 49025 H 4642.17 -0.0326631 0.710249 0
M  V30 49026 H 4644.77 0.59461 1.86238 0
M  V30 49027 H 4643.47 0.585053 4.06208 0
M  V30 49028 H 4643 -1.09835 3.77756 0
M  V30 49029 H 4645.02 -2.15363 4.47027 0
M  V30 49030 O 4644.23 -1.58537 0.307926 0
M  V30 49031 H 4644.92 -1.92011 -0.255248 0
M  V30 END ATOM
M  V30 BEGIN BOND
M  V30 END BOND
M  V30 END CTAB
M  END
$$$$
