drugbank_target|P42898 Methylenetetrahydrofolate reductase (DB00115; DB00116)
 OpenBabel12092120073D

  0  0  0     0  0            999 V3000
M  V30 BEGIN CTAB
M  V30 COUNTS 10391 10530 0 0 0
M  V30 BEGIN ATOM
M  V30 1 H -0.908 1.98254 -0.117106 0
M  V30 2 N 0 1.576 0 0
M  V30 3 C 0.933 2.03868 1.02534 0
M  V30 4 C 1.911 0.928543 1.3348 0
M  V30 5 O 3.095 1.19667 1.45644 0
M  V30 6 C 0.222 2.43627 2.35294 0
M  V30 7 C -0.732 3.65373 2.2001 0
M  V30 8 S 0.101 5.13292 1.52614 0
M  V30 9 C 1.257 5.56322 2.86805 0
M  V30 10 H 1.49 2.90518 0.631377 0
M  V30 11 H -0.977 1.52953 0.210867 0
M  V30 12 H 0.981 2.67203 3.11629 0
M  V30 13 H -0.358 1.57376 2.7183 0
M  V30 14 H -1.165 3.90944 3.18086 0
M  V30 15 H -1.563 3.418 1.51819 0
M  V30 16 H 0.729 5.58782 3.83104 0
M  V30 17 H 1.672 6.56266 2.65933 0
M  V30 18 H 2.08 4.83886 2.90714 0
M  V30 19 N 1.4781 -0.272755 1.55222 0
M  V30 20 C 2.7241 -1.00581 1.761 0
M  V30 21 C 3.0571 -1.85932 0.560625 0
M  V30 22 O 2.3321 -1.89416 -0.441801 0
M  V30 23 C 2.6151 -1.88816 3.06628 0
M  V30 24 C 2.4681 -1.06457 4.37021 0
M  V30 25 C 3.7871 -2.8752 3.33197 0
M  V30 26 H 0.9061 -0.364244 0.640699 0
M  V30 27 H 3.5481 -0.278189 1.87952 0
M  V30 28 H 1.6981 -2.50856 2.96654 0
M  V30 29 H 3.3701 -0.464863 4.58952 0
M  V30 30 H 1.6131 -0.368043 4.32236 0
M  V30 31 H 2.2841 -1.71514 5.24678 0
M  V30 32 H 4.7601 -2.35615 3.42965 0
M  V30 33 H 3.6361 -3.46399 4.25792 0
M  V30 34 H 3.8971 -3.62657 2.52849 0
M  V30 35 N 2.9562 -1.48159 -0.537278 0
M  V30 36 C 3.9042 -1.62573 -1.66352 0
M  V30 37 C 4.8982 -0.492366 -1.62087 0
M  V30 38 O 6.1042 -0.670847 -1.67032 0
M  V30 39 H 2.4792 -0.511992 -0.550789 0
M  V30 40 H 4.4502 -2.57176 -1.51337 0
M  V30 41 C 3.1992 -1.67583 -3.04649 0
M  V30 42 H 2.5222 -2.54151 -3.08622 0
M  V30 43 H 3.9622 -1.81713 -3.83088 0
M  V30 44 C 2.4212 -0.413039 -3.34358 0
M  V30 45 O 2.9512 0.477259 -3.98855 0
M  V30 46 N 1.1572 -0.286961 -2.8918 0
M  V30 47 H 0.7042 -1.01241 -2.36871 0
M  V30 48 H 0.6622 0.556963 -3.09427 0
M  V30 49 N 4.4343 0.785586 -1.36625 0
M  V30 50 C 5.3443 1.92964 -1.33425 0
M  V30 51 C 6.3603 1.72394 -0.235851 0
M  V30 52 O 7.5363 1.95866 -0.468878 0
M  V30 53 C 4.6013 3.27884 -1.12662 0
M  V30 54 C 3.6623 3.61204 -2.32013 0
M  V30 55 C 2.8953 4.89687 -2.12231 0
M  V30 56 O 3.1183 5.59704 -1.09945 0
M  V30 57 O 2.0523 5.21752 -3.00098 0
M  V30 58 H 5.8783 1.98613 -2.29753 0
M  V30 59 H 3.4633 0.926384 -1.17211 0
M  V30 60 H 5.3453 4.08614 -1.03016 0
M  V30 61 H 4.0203 3.23118 -0.193991 0
M  V30 62 H 2.9273 2.80765 -2.47228 0
M  V30 63 H 4.2603 3.70698 -3.23796 0
M  V30 64 N 5.9124 1.20967 1.01018 0
M  V30 65 C 6.8754 0.965918 2.07853 0
M  V30 66 C 7.8754 -0.0610545 1.60684 0
M  V30 67 O 9.0654 0.175681 1.73312 0
M  V30 68 C 6.1974 0.455513 3.37843 0
M  V30 69 H 7.3904 1.91365 2.3091 0
M  V30 70 H 4.9434 1.02594 1.17916 0
M  V30 71 H 5.6784 -0.497381 3.20463 0
M  V30 72 H 5.4634 1.19622 3.73407 0
M  V30 73 H 6.9534 0.304667 4.16487 0
M  V30 74 N 7.3905 -1.2043 1.01659 0
M  V30 75 C 8.8065 -1.41852 0.731442 0
M  V30 76 C 9.0065 -1.89358 -0.688898 0
M  V30 77 O 8.0625 -2.06247 -1.45666 0
M  V30 78 C 9.3755 -2.44019 1.75714 0
M  V30 79 C 10.9235 -2.57785 1.77527 0
M  V30 80 C 11.3985 -3.63194 2.79023 0
M  V30 81 N 12.8895 -3.70678 2.77763 0
M  V30 82 C 13.6245 -4.51897 3.52954 0
M  V30 83 N 13.1205 -5.36921 4.37821 0
M  V30 84 N 14.9135 -4.4643 3.41551 0
M  V30 85 H 7.0645 -0.879093 1.93354 0
M  V30 86 H 9.3275 -0.448425 0.835236 0
M  V30 87 H 9.0335 -2.1611 2.77469 0
M  V30 88 H 8.9075 -3.43007 1.56927 0
M  V30 89 H 11.2945 -2.85023 0.764569 0
M  V30 90 H 11.3755 -1.58992 2.00387 0
M  V30 91 H 11.0195 -3.36699 3.80258 0
M  V30 92 H 10.9495 -4.61609 2.53425 0
M  V30 93 H 13.4405 -3.09944 2.16201 0
M  V30 94 H 13.7535 -5.95981 4.91962 0
M  V30 95 H 12.0985 -5.36424 4.41899 0
M  V30 96 H 15.2895 -3.79042 2.74672 0
M  V30 97 H 15.4625 -5.09491 4.00404 0
M  V30 98 N 8.8686 -0.792821 -1.36206 0
M  V30 99 C 10.1166 -0.366062 -1.98757 0
M  V30 100 C 10.4376 1.0668 -1.63231 0
M  V30 101 O 9.7076 1.73587 -0.907978 0
M  V30 102 H 8.2876 -0.132364 -0.735179 0
M  V30 103 H 10.9496 -1.01562 -1.66347 0
M  V30 104 H 10.0456 -0.460638 -3.08682 0
M  V30 105 N 10.3467 1.47872 -0.545128 0
M  V30 106 C 11.2947 2.31533 0.222512 0
M  V30 107 C 12.2887 1.42177 0.920985 0
M  V30 108 O 13.4947 1.59005 0.843645 0
M  V30 109 H 9.8697 0.746519 0.0906278 0
M  V30 110 H 11.8407 2.94139 -0.50246 0
M  V30 111 C 10.5897 3.2457 1.24699 0
M  V30 112 H 9.9127 3.93283 0.718944 0
M  V30 113 H 11.3527 3.85963 1.75523 0
M  V30 114 C 9.8117 2.47237 2.28856 0
M  V30 115 O 10.3417 2.20808 3.35569 0
M  V30 116 N 8.5477 2.08461 2.02466 0
M  V30 117 H 8.0947 2.30155 1.157 0
M  V30 118 H 8.0527 1.57033 2.72375 0
M  V30 119 N 11.8248 0.280983 1.55075 0
M  V30 120 C 13.0498 -0.340154 2.04592 0
M  V30 121 C 13.4748 -1.48246 1.15779 0
M  V30 122 O 12.8328 -1.80614 0.15761 0
M  V30 123 C 12.8808 -0.793104 3.5177 0
M  V30 124 O 11.9848 -1.89981 3.66034 0
M  V30 125 H 11.3258 -0.0694289 0.66036 0
M  V30 126 H 13.8558 0.416993 2.00306 0
M  V30 127 H 13.8658 -1.08729 3.93245 0
M  V30 128 H 12.5408 0.0426163 4.15878 0
M  V30 129 H 11.1178 -1.60771 3.36463 0
M  V30 130 N 13.3029 -1.57598 0.00835791 0
M  V30 131 C 14.5279 -1.95617 -0.689103 0
M  V30 132 C 14.9529 -0.883753 -1.66046 0
M  V30 133 O 14.3109 0.157352 -1.80616 0
M  V30 134 C 14.3589 -3.32736 -1.38994 0
M  V30 135 O 13.4629 -3.27631 -2.50463 0
M  V30 136 H 12.8039 -0.638379 -0.182668 0
M  V30 137 H 15.3339 -2.045 0.064036 0
M  V30 138 H 15.3439 -3.68494 -1.75147 0
M  V30 139 H 14.0189 -4.1034 -0.677778 0
M  V30 140 H 12.5959 -3.03561 -2.16576 0
M  V30 141 N 14.781 0.264519 -1.55364 0
M  V30 142 C 15.711 1.33121 -1.91836 0
M  V30 143 C 16.692 1.51101 -0.781192 0
M  V30 144 O 17.877 1.64003 -1.04003 0
M  V30 145 C 15.007 2.68921 -2.19769 0
M  V30 146 C 13.961 2.65661 -3.35571 0
M  V30 147 C 13.287 4.05093 -3.49004 0
M  V30 148 C 14.587 2.24187 -4.71739 0
M  V30 149 H 16.281 1.02844 -2.81182 0
M  V30 150 H 13.827 0.493286 -1.35287 0
M  V30 151 H 15.78 3.43663 -2.43872 0
M  V30 152 H 14.504 3.00799 -1.27231 0
M  V30 153 H 13.163 1.93377 -3.1145 0
M  V30 154 H 12.811 4.34206 -2.53917 0
M  V30 155 H 12.511 4.03804 -4.26868 0
M  V30 156 H 14.035 4.81561 -3.75408 0
M  V30 157 H 15.449 2.88654 -4.9533 0
M  V30 158 H 13.846 2.34044 -5.52579 0
M  V30 159 H 14.916 1.19327 -4.69988 0
M  V30 160 N 16.2591 1.48442 0.529413 0
M  V30 161 C 17.2071 1.63452 1.65487 0
M  V30 162 C 18.2011 0.500955 1.61823 0
M  V30 163 O 19.4071 0.679695 1.66674 0
M  V30 164 H 15.7821 0.514905 0.548066 0
M  V30 165 H 17.7531 2.57975 1.49971 0
M  V30 166 C 16.5021 1.69196 3.03756 0
M  V30 167 H 15.8251 2.55784 3.07269 0
M  V30 168 H 17.2651 1.83743 3.82119 0
M  V30 169 C 15.7241 0.430765 3.34135 0
M  V30 170 O 16.2541 -0.4561 3.99102 0
M  V30 171 N 14.4601 0.302293 2.89023 0
M  V30 172 H 14.0071 1.02496 2.36331 0
M  V30 173 H 13.9651 -0.540546 3.09718 0
M  V30 174 N 17.7372 -0.778329 1.37039 0
M  V30 175 C 19.1482 -1.35421 1.28523 0
M  V30 176 C 19.4992 -1.96075 -0.0700901 0
M  V30 177 O 18.6242 -1.93352 -0.971801 0
M  V30 178 C 19.2192 -2.46211 2.32735 0
M  V30 179 C 17.7782 -2.99585 2.27873 0
M  V30 180 C 16.9252 -1.72748 2.16918 0
M  V30 181 H 19.8762 -0.5791 1.47757 0
M  V30 182 H 19.8972 -3.2552 1.9702 0
M  V30 183 H 19.4092 -2.02036 3.31365 0
M  V30 184 H 17.5102 -3.48152 1.32745 0
M  V30 185 H 17.6232 -3.55646 3.21018 0
M  V30 186 H 15.9872 -1.95416 1.63354 0
M  V30 187 H 16.7702 -1.30686 3.17452 0
M  V30 188 N 19.2153 -1.21501 -1.00376 0
M  V30 189 C 20.4553 -1.04444 -1.75701 0
M  V30 190 C 20.8193 0.414644 -1.87469 0
M  V30 191 O 22.0203 0.705763 -2.59369 0
M  V30 192 C 20.2913 -1.72389 -3.13077 0
M  V30 193 S 21.8503 -1.70604 -4.04277 0
M  V30 194 H 18.6683 -0.374249 -0.604532 0
M  V30 195 H 21.2703 -1.54267 -1.20091 0
M  V30 196 H 19.9743 -2.77734 -3.02146 0
M  V30 197 H 19.5053 -1.22751 -3.73759 0
M  V30 198 H 21.5203 -0.748012 -4.9053 0
M  V30 199 N 20.6934 1.19889 -1.02296 0
M  V30 200 C 21.6234 2.25141 -0.619174 0
M  V30 201 C 22.6044 1.66051 0.368915 0
M  V30 202 O 23.7894 1.92546 0.252941 0
M  V30 203 C 20.9194 3.4728 0.0368783 0
M  V30 204 C 19.8734 4.19005 -0.872865 0
M  V30 205 C 19.1994 5.34637 -0.0822402 0
M  V30 206 C 20.4994 4.74452 -2.18387 0
M  V30 207 H 22.1934 2.59171 -1.49903 0
M  V30 208 H 19.7394 1.24579 -0.722222 0
M  V30 209 H 21.6924 4.20098 0.330958 0
M  V30 210 H 20.4164 3.12433 0.95149 0
M  V30 211 H 19.0754 3.48061 -1.15105 0
M  V30 212 H 18.7234 4.96034 0.83422 0
M  V30 213 H 18.4234 5.83557 -0.688149 0
M  V30 214 H 19.9474 6.10255 0.205238 0
M  V30 215 H 21.3614 5.39055 -1.95172 0
M  V30 216 H 19.7584 5.33834 -2.74119 0
M  V30 217 H 20.8284 3.92844 -2.84257 0
M  V30 218 N 22.1715 0.800033 1.35784 0
M  V30 219 C 23.0815 0.207204 2.33683 0
M  V30 220 C 24.0975 -0.64631 1.61551 0
M  V30 221 O 25.2735 -0.559604 1.93469 0
M  V30 222 C 22.3385 -0.639659 3.40748 0
M  V30 223 C 21.3995 0.233585 4.28664 0
M  V30 224 C 20.6325 -0.572954 5.30616 0
M  V30 225 O 20.8555 -1.80816 5.40982 0
M  V30 226 O 19.7895 0.0327285 6.01891 0
M  V30 227 H 23.6155 1.01692 2.86169 0
M  V30 228 H 21.2005 0.561691 1.38439 0
M  V30 229 H 23.0825 -1.12223 4.06182 0
M  V30 230 H 21.7575 -1.42708 2.90544 0
M  V30 231 H 20.6645 0.763147 3.66233 0
M  V30 232 H 21.9975 0.984784 4.82248 0
M  V30 233 N 23.6496 -1.47581 0.552962 0
M  V30 234 C 24.8976 -2.02082 0.0272703 0
M  V30 235 C 25.2186 -1.4301 -1.32563 0
M  V30 236 O 24.4886 -0.603745 -1.86365 0
M  V30 237 H 23.0686 -0.746966 0.00709182 0
M  V30 238 H 25.7306 -1.81033 0.722008 0
M  V30 239 H 24.8266 -3.12034 -0.0639951 0
M  V30 240 N 25.1277 -0.289203 -1.54924 0
M  V30 241 C 26.3527 0.329299 -2.04769 0
M  V30 242 C 26.7777 1.4763 -1.16564 0
M  V30 243 O 26.1357 1.80527 -0.167186 0
M  V30 244 C 26.1837 0.774438 -3.52186 0
M  V30 245 O 25.2877 1.88038 -3.67036 0
M  V30 246 H 24.6287 0.0659259 -0.660719 0
M  V30 247 H 27.1587 -0.42761 -2.00082 0
M  V30 248 H 27.1687 1.06642 -3.93816 0
M  V30 249 H 25.8437 -0.0646707 -4.1585 0
M  V30 250 H 24.4207 1.58985 -3.3731 0
M  V30 251 N 26.6058 1.57591 -0.0167156 0
M  V30 252 C 27.5688 2.08393 0.954204 0
M  V30 253 C 28.5688 0.996531 1.26198 0
M  V30 254 O 29.7588 1.25858 1.20438 0
M  V30 255 C 26.8908 2.5394 2.27436 0
M  V30 256 H 28.0838 2.95455 0.514451 0
M  V30 257 H 25.6368 1.54582 0.231089 0
M  V30 258 H 26.3718 1.70171 2.76066 0
M  V30 259 H 26.1568 3.33371 2.06412 0
M  V30 260 H 27.6468 2.93512 2.97053 0
M  V30 261 N 28.0839 -0.256276 1.55502 0
M  V30 262 C 29.3089 -1.00766 1.81276 0
M  V30 263 C 29.7339 -1.78524 0.59252 0
M  V30 264 O 29.0919 -1.75413 -0.45827 0
M  V30 265 C 29.1399 -1.92869 3.04687 0
M  V30 266 O 28.2439 -3.019 2.80945 0
M  V30 267 H 27.5849 -0.287224 0.598664 0
M  V30 268 H 30.1149 -0.280109 2.02674 0
M  V30 269 H 30.1249 -2.34511 3.33869 0
M  V30 270 H 28.7999 -1.35689 3.93143 0
M  V30 271 H 27.3769 -2.64454 2.62904 0
M  V30 272 N 29.562 -1.4872 -0.521534 0
M  V30 273 C 30.787 -1.61101 -1.30618 0
M  V30 274 C 31.212 -0.274611 -1.86085 0
M  V30 275 O 30.57 0.754937 -1.64834 0
M  V30 276 C 30.618 -2.66709 -2.4269 0
M  V30 277 O 29.722 -2.24456 -3.45967 0
M  V30 278 H 29.063 -0.539921 -0.386499 0
M  V30 279 H 31.593 -1.94767 -0.626645 0
M  V30 280 H 31.603 -2.88245 -2.88754 0
M  V30 281 H 30.278 -3.63727 -2.01682 0
M  V30 282 H 28.855 -2.13168 -3.05964 0
M  V30 283 N 31.0401 0.771051 -1.3745 0
M  V30 284 C 32.2881 1.52661 -1.32435 0
M  V30 285 C 32.6091 1.9479 0.0905024 0
M  V30 286 O 31.8791 1.66348 1.03466 0
M  V30 287 H 30.4591 0.566218 -0.487244 0
M  V30 288 H 33.1211 0.917636 -1.71946 0
M  V30 289 H 32.2171 2.42568 -1.96385 0
M  V30 290 N 32.5182 1.22032 0.997298 0
M  V30 291 C 33.7432 1.06921 1.77715 0
M  V30 292 C 34.1682 -0.376226 1.84299 0
M  V30 293 O 33.5262 -1.27165 1.29223 0
M  V30 294 C 33.5742 1.67996 3.19076 0
M  V30 295 O 32.6782 0.930653 4.01762 0
M  V30 296 H 32.0192 0.375814 0.547412 0
M  V30 297 H 34.5492 1.61737 1.25309 0
M  V30 298 H 34.5592 1.72538 3.69723 0
M  V30 299 H 33.2342 2.73182 3.13599 0
M  V30 300 H 31.8112 0.960917 3.60307 0
M  V30 301 N 33.9963 -1.19345 1.0293 0
M  V30 302 C 34.9063 -2.26245 0.620515 0
M  V30 303 C 35.9223 -1.70486 -0.347928 0
M  V30 304 O 37.0983 -2.00347 -0.205704 0
M  V30 305 C 34.1633 -3.46693 -0.0218957 0
M  V30 306 C 33.2243 -4.17632 0.994102 0
M  V30 307 C 32.4573 -5.32329 0.382253 0
M  V30 308 O 32.6803 -5.64552 -0.814676 0
M  V30 309 O 31.6143 -5.91664 1.10531 0
M  V30 310 H 35.4403 -2.63453 1.51083 0
M  V30 311 H 33.0253 -1.26207 0.799513 0
M  V30 312 H 34.9073 -4.19683 -0.380072 0
M  V30 313 H 33.5823 -3.11333 -0.886209 0
M  V30 314 H 32.4893 -3.4676 1.40387 0
M  V30 315 H 33.8223 -4.56964 1.8288 0
M  V30 316 N 35.4744 -0.807222 -1.35358 0
M  V30 317 C 36.6994 -0.399309 -2.0352 0
M  V30 318 C 37.1244 0.981986 -1.60433 0
M  V30 319 O 36.4824 1.63601 -0.781299 0
M  V30 320 C 36.5304 -0.491552 -3.57234 0
M  V30 321 O 35.6344 0.494754 -4.09421 0
M  V30 322 H 34.9754 -0.166682 -0.642739 0
M  V30 323 H 37.5054 -1.09328 -1.72941 0
M  V30 324 H 37.5154 -0.361588 -4.06395 0
M  V30 325 H 36.1904 -1.49907 -3.87944 0
M  V30 326 H 34.7674 0.324977 -3.71481 0
M  V30 327 N 36.9525 1.47285 -0.560781 0
M  V30 328 C 38.1775 2.07359 -0.0410566 0
M  V30 329 C 38.6025 1.41017 1.24483 0
M  V30 330 O 37.9605 0.486368 1.74654 0
M  V30 331 C 38.0085 3.6035 0.134123 0
M  V30 332 O 37.1125 3.94681 1.19587 0
M  V30 333 H 36.4535 0.661887 -0.0529291 0
M  V30 334 H 38.9835 1.89252 -0.777482 0
M  V30 335 H 38.9935 4.0652 0.347207 0
M  V30 336 H 37.6685 4.08034 -0.805047 0
M  V30 337 H 36.2455 3.60251 0.962987 0
M  V30 338 N 38.4306 0.297415 1.54768 0
M  V30 339 C 39.3776 -0.580276 2.23386 0
M  V30 340 C 40.3476 -1.13238 1.21517 0
M  V30 341 O 41.5326 -1.17757 1.50126 0
M  V30 342 C 38.6726 -1.74801 2.97555 0
M  V30 343 C 37.7856 -1.22764 4.1419 0
M  V30 344 C 36.9206 -2.35895 4.75949 0
M  V30 345 C 35.9596 -1.80974 5.84735 0
M  V30 346 N 35.0966 -2.87664 6.40464 0
M  V30 347 H 39.9366 0.0114833 2.97998 0
M  V30 348 H 37.4736 0.0174361 1.4709 0
M  V30 349 H 39.4316 -2.43475 3.38786 0
M  V30 350 H 38.0616 -2.31145 2.25326 0
M  V30 351 H 37.1136 -0.433271 3.77924 0
M  V30 352 H 38.4256 -0.785551 4.92575 0
M  V30 353 H 37.5796 -3.12523 5.20014 0
M  V30 354 H 36.3186 -2.83429 3.96887 0
M  V30 355 H 35.3236 -1.02834 5.40097 0
M  V30 356 H 36.5486 -1.34348 6.65678 0
M  V30 357 H 34.4946 -3.34538 5.64287 0
M  V30 358 H 34.4116 -2.4794 7.14186 0
M  V30 359 H 35.6796 -3.642 6.89187 0
M  V30 360 N 39.9087 -1.5758 0.0250728 0
M  V30 361 C 41.1857 -1.82917 -0.692873 0
M  V30 362 C 41.5657 -0.908137 -1.90568 0
M  V30 363 O 40.9137 0.0372298 -2.2847 0
M  V30 364 C 41.1237 -3.32034 -1.07492 0
M  V30 365 C 42.4717 -3.98406 -1.46826 0
M  V30 366 O 43.4957 -3.36505 -1.16801 0
M  V30 367 O 42.3547 -5.07497 -2.02754 0
M  V30 368 H 39.4487 -0.754079 -0.33955 0
M  V30 369 H 41.9947 -1.69619 0.0524456 0
M  V30 370 H 40.7667 -3.90728 -0.211552 0
M  V30 371 H 40.3897 -3.50424 -1.87854 0
M  V30 372 N 41.3868 0.248026 -1.55636 0
M  V30 373 C 42.6118 0.998028 -1.81808 0
M  V30 374 C 43.0368 1.78207 -0.601979 0
M  V30 375 O 42.3948 1.75653 0.448961 0
M  V30 376 C 42.4428 1.9125 -3.05705 0
M  V30 377 O 41.5468 3.00406 -2.82542 0
M  V30 378 H 40.8878 0.284045 -0.600179 0
M  V30 379 H 43.4178 0.269357 -2.02819 0
M  V30 380 H 43.4278 2.32737 -3.35108 0
M  V30 381 H 42.1028 1.33602 -3.93857 0
M  V30 382 H 40.6798 2.63056 -2.64303 0
M  V30 383 N 42.8649 1.48995 0.513639 0
M  V30 384 C 44.0899 1.61792 1.29762 0
M  V30 385 C 44.5149 0.284475 1.85936 0
M  V30 386 O 43.8729 -0.746185 1.65232 0
M  V30 387 C 43.9209 2.67993 2.41272 0
M  V30 388 O 43.0249 2.26287 3.44772 0
M  V30 389 H 42.3659 0.541963 0.38363 0
M  V30 390 H 44.8959 1.95097 0.616307 0
M  V30 391 H 44.9059 2.89772 2.87221 0
M  V30 392 H 43.5809 3.64791 1.9975 0
M  V30 393 H 42.1579 2.14788 3.04829 0
M  V30 394 N 44.343 -0.763751 1.37857 0
M  V30 395 C 45.759 -1.06542 1.18832 0
M  V30 396 C 45.959 -2.01478 0.0299722 0
M  V30 397 O 45.015 -2.4458 -0.627447 0
M  V30 398 C 46.328 -1.65525 2.51042 0
M  V30 399 C 47.876 -1.77745 2.57635 0
M  V30 400 C 48.351 -2.4014 3.89996 0
M  V30 401 N 49.842 -2.47582 3.91481 0
M  V30 402 C 50.577 -2.96732 4.9065 0
M  V30 403 N 50.073 -3.45993 6.00217 0
M  V30 404 N 51.866 -2.95679 4.78048 0
M  V30 405 H 44.017 -0.133556 2.1198 0
M  V30 406 H 46.28 -0.121879 0.940133 0
M  V30 407 H 45.986 -1.03236 3.36207 0
M  V30 408 H 45.86 -2.64719 2.68707 0
M  V30 409 H 48.247 -2.39164 1.72872 0
M  V30 410 H 48.328 -0.772836 2.43846 0
M  V30 411 H 47.972 -1.79358 4.75177 0
M  V30 412 H 47.902 -3.41223 4.01092 0
M  V30 413 H 50.393 -2.1273 3.12337 0
M  V30 414 H 50.706 -3.81922 6.7183 0
M  V30 415 H 49.051 -3.44077 6.03851 0
M  V30 416 H 52.242 -2.56499 3.91568 0
M  V30 417 H 52.415 -3.33672 5.55488 0
M  V30 418 N 45.8211 -1.22559 -0.990812 0
M  V30 419 C 47.0611 -1.06302 -1.74583 0
M  V30 420 C 47.4251 0.394737 -1.87898 0
M  V30 421 O 48.6261 0.678214 -2.60103 0
M  V30 422 C 46.8971 -1.75699 -3.11231 0
M  V30 423 S 48.4561 -1.74882 -4.02445 0
M  V30 424 H 45.2741 -0.380639 -0.600529 0
M  V30 425 H 47.8761 -1.55532 -1.18449 0
M  V30 426 H 46.5801 -2.80923 -2.99183 0
M  V30 427 H 46.1111 -1.26708 -3.72436 0
M  V30 428 H 48.1261 -0.799997 -4.89709 0
M  V30 429 N 47.2992 1.18797 -1.03562 0
M  V30 430 C 48.5242 1.9314 -0.755764 0
M  V30 431 C 48.9492 1.7537 0.68022 0
M  V30 432 O 48.3072 1.06046 1.47051 0
M  V30 433 C 48.3552 3.42747 -1.12058 0
M  V30 434 O 47.4592 4.11683 -0.243124 0
M  V30 435 H 46.8002 0.602724 -0.278604 0
M  V30 436 H 49.3302 1.50678 -1.3841 0
M  V30 437 H 49.3402 3.93437 -1.08035 0
M  V30 438 H 48.0152 3.55002 -2.16672 0
M  V30 439 H 46.5922 3.71323 -0.342539 0
M  V30 440 N 48.7773 0.814389 1.34928 0
M  V30 441 C 50.0053 0.411136 2.02774 0
M  V30 442 C 50.4203 -0.980316 1.61354 0
M  V30 443 O 49.7773 -1.63299 0.814847 0
M  V30 444 C 49.8283 0.493865 3.58111 0
M  V30 445 O 49.5493 1.83047 3.98027 0
M  V30 446 C 51.0503 0.0844174 4.4322 0
M  V30 447 H 48.2703 0.166037 0.650133 0
M  V30 448 H 50.8143 1.10018 1.72384 0
M  V30 449 H 48.9693 -0.147006 3.87121 0
M  V30 450 H 49.3833 1.79872 4.92693 0
M  V30 451 H 50.8573 0.193404 5.51661 0
M  V30 452 H 51.3343 -0.97113 4.28329 0
M  V30 453 H 51.9403 0.69875 4.19521 0
M  V30 454 N 50.2554 -1.46986 0.568584 0
M  V30 455 C 51.6664 -1.86188 0.138219 0
M  V30 456 C 52.0174 -1.47388 -1.29504 0
M  V30 457 O 51.1424 -0.88219 -1.97602 0
M  V30 458 C 51.7374 -3.3792 0.244065 0
M  V30 459 C 50.2964 -3.76171 -0.131335 0
M  V30 460 C 49.4434 -2.71027 0.586465 0
M  V30 461 H 52.3944 -1.38342 0.777645 0
M  V30 462 H 52.4154 -3.76729 -0.534351 0
M  V30 463 H 51.9274 -3.66128 1.28731 0
M  V30 464 H 50.0284 -3.5358 -1.17526 0
M  V30 465 H 50.1414 -4.78523 0.235146 0
M  V30 466 H 48.5054 -2.54684 0.0282722 0
M  V30 467 H 49.2884 -3.02077 1.63109 0
M  V30 468 N 51.7335 -0.305618 -1.54608 0
M  V30 469 C 52.9815 0.301701 -1.99835 0
M  V30 470 C 53.3025 1.54054 -1.19551 0
M  V30 471 O 52.5725 1.93702 -0.292658 0
M  V30 472 H 51.1525 0.114468 -0.738178 0
M  V30 473 H 53.8145 -0.418016 -1.90364 0
M  V30 474 H 52.9105 0.570548 -3.06841 0
M  V30 475 N 53.2116 1.57565 -0.0334293 0
M  V30 476 C 54.1416 2.13511 0.945265 0
M  V30 477 C 55.1226 1.05231 1.33643 0
M  V30 478 O 56.3076 1.33084 1.41429 0
M  V30 479 C 53.4376 2.6657 2.22616 0
M  V30 480 C 52.3916 3.79676 1.97561 0
M  V30 481 C 51.7176 4.1918 3.31952 0
M  V30 482 C 53.0176 5.0557 1.31135 0
M  V30 483 H 54.7116 2.95538 0.479325 0
M  V30 484 H 52.2576 1.42166 0.229115 0
M  V30 485 H 54.2106 3.04344 2.91466 0
M  V30 486 H 52.9346 1.8171 2.71384 0
M  V30 487 H 51.5936 3.42347 1.31127 0
M  V30 488 H 51.2416 3.31296 3.78487 0
M  V30 489 H 50.9416 4.95402 3.15992 0
M  V30 490 H 52.4656 4.59541 4.02063 0
M  V30 491 H 53.8796 5.40903 1.89992 0
M  V30 492 H 52.2766 5.86818 1.25559 0
M  V30 493 H 53.3466 4.84062 0.284894 0
M  V30 494 N 54.6897 -0.239769 1.55765 0
M  V30 495 C 55.9667 -0.990056 1.68693 0
M  V30 496 C 56.3467 -2.03107 0.5754 0
M  V30 497 O 55.6947 -2.24604 -0.42017 0
M  V30 498 C 55.9047 -1.61696 3.09282 0
M  V30 499 C 57.2527 -2.11613 3.6811 0
M  V30 500 O 58.2767 -1.71624 3.12127 0
M  V30 501 O 57.1357 -2.85057 4.66267 0
M  V30 502 H 54.2297 -0.461299 0.686391 0
M  V30 503 H 56.7757 -0.232991 1.68093 0
M  V30 504 H 55.5477 -0.864357 3.81634 0
M  V30 505 H 55.1707 -2.44005 3.13923 0
M  V30 506 N 56.1678 -1.49265 -0.50573 0
M  V30 507 C 57.5788 -1.51769 -1.08734 0
M  V30 508 C 57.9298 -0.301192 -1.93874 0
M  V30 509 O 57.0548 0.589456 -2.08217 0
M  V30 510 C 57.6498 -2.75017 -1.97867 0
M  V30 511 C 56.2088 -2.80314 -2.51199 0
M  V30 512 C 55.3558 -2.4562 -1.28709 0
M  V30 513 H 58.3068 -1.56031 -0.289855 0
M  V30 514 H 58.3278 -2.5491 -2.82491 0
M  V30 515 H 57.8398 -3.63539 -1.35873 0
M  V30 516 H 55.9408 -1.96061 -3.16845 0
M  V30 517 H 56.0538 -3.82366 -2.88675 0
M  V30 518 H 54.4178 -1.97297 -1.61078 0
M  V30 519 H 55.2008 -3.36411 -0.6843 0
M  V30 520 N 57.6459 0.756429 -1.3826 0
M  V30 521 C 58.5559 1.9009 -1.37488 0
M  V30 522 C 59.5719 1.71855 -0.272366 0
M  V30 523 O 60.7479 1.94827 -0.510318 0
M  V30 524 C 57.8129 3.25421 -1.19592 0
M  V30 525 C 56.8739 3.56202 -2.39622 0
M  V30 526 C 56.1069 4.85075 -2.2257 0
M  V30 527 O 56.3299 5.57246 -1.21793 0
M  V30 528 O 55.2639 5.15269 -3.11098 0
M  V30 529 H 59.0899 1.93695 -2.33914 0
M  V30 530 H 56.6749 0.901313 -1.1915 0
M  V30 531 H 58.5569 4.06337 -1.11661 0
M  V30 532 H 57.2319 3.22634 -0.262486 0
M  V30 533 H 56.1389 2.75458 -2.53128 0
M  V30 534 H 57.4719 3.63747 -3.31586 0
M  V30 535 N 59.124 1.23083 0.984299 0
M  V30 536 C 60.54 0.992637 1.24975 0
M  V30 537 C 60.74 -0.308618 1.99123 0
M  V30 538 O 59.796 -1.02905 2.30579 0
M  V30 539 C 61.109 2.19698 2.05312 0
M  V30 540 C 62.657 2.24147 2.18465 0
M  V30 541 C 63.132 3.44157 3.02192 0
M  V30 542 N 64.623 3.44372 3.09777 0
M  V30 543 C 65.358 4.33886 3.74874 0
M  V30 544 N 64.854 5.3363 4.41827 0
M  V30 545 N 66.647 4.21639 3.71721 0
M  V30 546 H 58.798 2.06731 0.487453 0
M  V30 547 H 61.061 0.906339 0.277944 0
M  V30 548 H 60.767 3.1411 1.58201 0
M  V30 549 H 60.641 2.20465 3.06064 0
M  V30 550 H 63.028 1.30277 2.64786 0
M  V30 551 H 63.109 2.27415 1.17115 0
M  V30 552 H 62.753 4.38332 2.56568 0
M  V30 553 H 62.683 3.3813 4.03702 0
M  V30 554 H 65.174 2.72201 2.62135 0
M  V30 555 H 65.487 5.98196 4.89266 0
M  V30 556 H 63.832 5.37534 4.40548 0
M  V30 557 H 67.023 3.42962 3.18582 0
M  V30 558 H 67.196 4.91604 4.22173 0
M  V30 559 N 60.6021 -1.18246 1.0419 0
M  V30 560 C 61.5521 -2.19843 0.604392 0
M  V30 561 C 62.5361 -1.56962 -0.353814 0
M  V30 562 O 63.7281 -1.76156 -0.17267 0
M  V30 563 C 60.8571 -3.43287 -0.0298975 0
M  V30 564 C 59.9431 -4.13288 0.951531 0
M  V30 565 N 60.3341 -4.59271 2.11906 0
M  V30 566 C 58.6321 -4.39165 0.7778 0
M  V30 567 C 59.3331 -5.13173 2.73912 0
M  V30 568 N 58.3091 -5.04763 2.01779 0
M  V30 569 H 62.1111 -2.53089 1.4941 0
M  V30 570 H 59.6251 -1.34465 0.910658 0
M  V30 571 H 61.6221 -4.15334 -0.361037 0
M  V30 572 H 60.2821 -3.11537 -0.915127 0
M  V30 573 H 61.2931 -4.5368 2.49789 0
M  V30 574 H 57.9701 -4.17461 -0.0572331 0
M  V30 575 H 59.3601 -5.58947 3.72864 0
M  V30 576 N 62.0802 -0.821533 -1.34494 0
M  V30 577 C 62.9902 -0.244355 -2.33324 0
M  V30 578 C 64.0062 0.620527 -1.62559 0
M  V30 579 O 65.1822 0.528754 -1.94335 0
M  V30 580 C 62.2472 0.585368 -3.41723 0
M  V30 581 C 61.3082 -0.301752 -4.28238 0
M  V30 582 C 60.5412 0.488466 -5.3146 0
M  V30 583 O 60.7642 1.72186 -5.4379 0
M  V30 584 O 59.6982 -0.12848 -6.01763 0
M  V30 585 H 63.5242 -1.06231 -2.84515 0
M  V30 586 H 61.1092 -0.583645 -1.37528 0
M  V30 587 H 62.9912 1.05747 -4.07916 0
M  V30 588 H 61.6662 1.38068 -2.92778 0
M  V30 589 H 60.5732 -0.821315 -3.64973 0
M  V30 590 H 61.9062 -1.06138 -4.8062 0
M  V30 591 N 63.5583 1.46682 -0.576371 0
M  V30 592 C 64.9743 1.57822 -0.237562 0
M  V30 593 C 65.1743 1.57237 1.26011 0
M  V30 594 O 64.2303 1.48596 2.04146 0
M  V30 595 C 65.5433 2.87499 -0.881168 0
M  V30 596 C 67.0913 3.01119 -0.85417 0
M  V30 597 C 67.5663 4.33524 -1.4772 0
M  V30 598 N 69.0573 4.40207 -1.44125 0
M  V30 599 C 69.7923 5.4126 -1.89276 0
M  V30 600 N 69.2883 6.49021 -2.42371 0
M  V30 601 N 71.0813 5.32422 -1.80231 0
M  V30 602 H 63.2323 1.45306 -1.54919 0
M  V30 603 H 65.4953 0.692733 -0.647167 0
M  V30 604 H 65.2013 2.9372 -1.93447 0
M  V30 605 H 65.0753 3.75224 -0.385592 0
M  V30 606 H 67.4623 2.94485 0.190491 0
M  V30 607 H 67.5433 2.14887 -1.3877 0
M  V30 608 H 67.1873 4.40916 -2.52103 0
M  V30 609 H 67.1173 5.1852 -0.918947 0
M  V30 610 H 69.6083 3.62931 -1.05307 0
M  V30 611 H 69.9213 7.2233 -2.74698 0
M  V30 612 H 68.2663 6.49858 -2.46393 0
M  V30 613 H 71.4573 4.47137 -1.38514 0
M  V30 614 H 71.6303 6.11034 -2.15735 0
M  V30 615 N 65.0364 0.313813 1.54444 0
M  V30 616 C 65.9664 -0.549454 2.26943 0
M  V30 617 C 66.9474 -1.12741 1.27372 0
M  V30 618 O 68.1324 -1.15436 1.56167 0
M  V30 619 C 65.2624 -1.71523 3.01989 0
M  V30 620 C 64.2164 -1.26703 4.08816 0
M  V30 621 C 63.5424 -2.51898 4.71647 0
M  V30 622 C 64.8424 -0.388962 5.2085 0
M  V30 623 H 66.5364 0.0552661 2.99349 0
M  V30 624 H 64.0824 0.0280207 1.43973 0
M  V30 625 H 66.0354 -2.32535 3.51433 0
M  V30 626 H 64.7594 -2.34639 2.27183 0
M  V30 627 H 63.4184 -0.679896 3.6024 0
M  V30 628 H 63.0664 -3.13356 3.93468 0
M  V30 629 H 62.7664 -2.22605 5.43802 0
M  V30 630 H 64.2904 -3.1369 5.23861 0
M  V30 631 H 65.7044 -0.905107 5.6611 0
M  V30 632 H 64.1014 -0.18924 5.99802 0
M  V30 633 H 65.1714 0.582699 4.81386 0
M  V30 634 N 66.5145 -1.57545 0.0417849 0
M  V30 635 C 67.9305 -1.56467 -0.314704 0
M  V30 636 C 68.1305 -1.04859 -1.72066 0
M  V30 637 O 67.1865 -0.700983 -2.42575 0
M  V30 638 C 68.4995 -3.00317 -0.15174 0
M  V30 639 C 70.0475 -3.12201 -0.223553 0
M  V30 640 C 70.5225 -4.57913 -0.0892295 0
M  V30 641 N 72.0135 -4.6297 -0.145808 0
M  V30 642 C 72.7485 -5.73362 -0.0658459 0
M  V30 643 N 72.2445 -6.92769 0.0659282 0
M  V30 644 N 74.0375 -5.6197 -0.12075 0
M  V30 645 H 66.1885 -1.89416 0.961014 0
M  V30 646 H 68.4515 -0.871862 0.372237 0
M  V30 647 H 68.1575 -3.42073 0.817254 0
M  V30 648 H 68.0315 -3.65892 -0.916692 0
M  V30 649 H 70.4185 -2.70349 -1.18301 0
M  V30 650 H 70.4995 -2.49323 0.571994 0
M  V30 651 H 70.1435 -5.00448 0.866867 0
M  V30 652 H 70.0735 -5.18786 -0.903802 0
M  V30 653 H 72.5645 -3.7709 -0.247286 0
M  V30 654 H 72.8775 -7.72707 0.119905 0
M  V30 655 H 71.2225 -6.94927 0.100885 0
M  V30 656 H 74.4135 -4.67572 -0.222187 0
M  V30 657 H 74.5865 -6.47977 -0.0549735 0
M  V30 658 N 67.9926 0.231505 -1.5589 0
M  V30 659 C 68.9026 1.308 -1.94752 0
M  V30 660 C 69.9186 1.51826 -0.849989 0
M  V30 661 O 71.0946 1.6515 -1.15271 0
M  V30 662 C 68.1596 2.63968 -2.24771 0
M  V30 663 C 67.2206 2.51331 -3.48039 0
M  V30 664 C 66.4536 3.78148 -3.76616 0
M  V30 665 O 66.6766 4.80722 -3.07022 0
M  V30 666 O 65.6106 3.75857 -4.70123 0
M  V30 667 H 69.4366 1.0083 -2.86474 0
M  V30 668 H 67.0216 0.433547 -1.42971 0
M  V30 669 H 68.9036 3.42633 -2.45318 0
M  V30 670 H 67.5786 2.9364 -1.36225 0
M  V30 671 H 66.4856 1.709 -3.32782 0
M  V30 672 H 67.8186 2.26601 -4.36936 0
M  V30 673 N 69.4707 1.49531 0.497807 0
M  V30 674 C 70.4177 1.66436 1.59899 0
M  V30 675 C 71.3877 0.505793 1.58212 0
M  V30 676 O 72.5727 0.733202 1.7615 0
M  V30 677 C 69.7127 1.7399 2.98029 0
M  V30 678 C 68.8257 3.01172 3.09708 0
M  V30 679 C 67.9607 2.99686 4.38591 0
M  V30 680 C 66.9997 4.21434 4.43914 0
M  V30 681 N 66.1367 4.1784 5.64229 0
M  V30 682 H 70.9767 2.60459 1.44793 0
M  V30 683 H 68.5137 1.29137 0.704423 0
M  V30 684 H 70.4717 1.76352 3.78095 0
M  V30 685 H 69.1017 0.834301 3.11832 0
M  V30 686 H 68.1537 3.08408 2.22685 0
M  V30 687 H 69.4657 3.91165 3.09502 0
M  V30 688 H 68.6197 3.00628 5.2698 0
M  V30 689 H 67.3587 2.07477 4.41367 0
M  V30 690 H 66.3637 4.20733 3.53926 0
M  V30 691 H 67.5887 5.14839 4.42851 0
M  V30 692 H 65.5347 3.28469 5.67841 0
M  V30 693 H 65.4517 5.01571 5.65652 0
M  V30 694 H 66.7197 4.22889 6.54817 0
M  V30 695 N 70.9488 -0.749086 1.3866 0
M  V30 696 C 71.8818 -1.87111 1.30631 0
M  V30 697 C 72.8598 -1.61572 0.18251 0
M  V30 698 O 74.0438 -1.85019 0.360592 0
M  V30 699 C 71.1708 -3.22815 1.02511 0
M  V30 700 C 70.2168 -3.67234 2.1689 0
M  V30 701 S 71.0498 -3.78245 3.79066 0
M  V30 702 C 72.2058 -5.16761 3.53142 0
M  V30 703 H 72.4388 -1.93636 2.25594 0
M  V30 704 H 69.9718 -0.912525 1.24549 0
M  V30 705 H 71.9298 -4.01181 0.869701 0
M  V30 706 H 70.5908 -3.13964 0.0925884 0
M  V30 707 H 69.7838 -4.65677 1.92771 0
M  V30 708 H 69.3858 -2.96034 2.28561 0
M  V30 709 H 71.6778 -6.02656 3.09534 0
M  V30 710 H 72.6208 -5.45902 4.50995 0
M  V30 711 H 73.0288 -4.85771 2.87554 0
M  V30 712 N 72.4269 -1.23603 -0.977757 0
M  V30 713 C 73.8429 -0.999251 -1.24447 0
M  V30 714 C 74.0429 0.298053 -1.99283 0
M  V30 715 O 73.0989 1.01681 -2.31122 0
M  V30 716 C 74.4119 -2.20784 -2.04144 0
M  V30 717 C 75.9599 -2.25303 -2.17273 0
M  V30 718 C 76.4349 -3.45755 -3.00362 0
M  V30 719 N 77.9259 -3.4601 -3.07947 0
M  V30 720 C 78.6609 -4.35868 -3.72568 0
M  V30 721 N 78.1569 -5.35966 -4.38991 0
M  V30 722 N 79.9499 -4.23605 -3.6948 0
M  V30 723 H 72.1009 -2.06986 -0.476483 0
M  V30 724 H 74.3639 -0.907801 -0.273134 0
M  V30 725 H 74.0699 -3.14945 -1.56533 0
M  V30 726 H 73.9439 -2.22085 -3.04891 0
M  V30 727 H 76.3309 -1.3168 -2.64092 0
M  V30 728 H 76.4119 -2.28033 -1.15907 0
M  V30 729 H 76.0559 -4.39687 -2.5424 0
M  V30 730 H 75.9859 -3.40266 -4.01904 0
M  V30 731 H 78.4769 -2.73588 -2.60688 0
M  V30 732 H 78.7899 -6.00783 -4.86086 0
M  V30 733 H 77.1349 -5.39863 -4.37691 0
M  V30 734 H 80.3259 -3.44647 -3.16759 0
M  V30 735 H 80.4989 -4.93836 -4.1956 0
M  V30 736 N 73.905 1.17692 -1.04816 0
M  V30 737 C 75.321 1.39863 -0.768794 0
M  V30 738 C 75.521 1.91118 0.638451 0
M  V30 739 O 74.577 2.10036 1.40146 0
M  V30 740 C 75.89 2.39274 -1.82122 0
M  V30 741 C 77.438 2.52987 -1.843 0
M  V30 742 C 77.913 3.55669 -2.88555 0
M  V30 743 N 79.404 3.63183 -2.87493 0
M  V30 744 C 80.139 4.42381 -3.64811 0
M  V30 745 N 79.635 5.25125 -4.51903 0
M  V30 746 N 81.428 4.37217 -3.53267 0
M  V30 747 H 73.579 0.82752 -1.95617 0
M  V30 748 H 75.842 0.426123 -0.846831 0
M  V30 749 H 75.548 2.08678 -2.83102 0
M  V30 750 H 75.422 3.38725 -1.65967 0
M  V30 751 H 77.809 2.82896 -0.839869 0
M  V30 752 H 77.89 1.53623 -2.04532 0
M  V30 753 H 77.534 3.26499 -3.89051 0
M  V30 754 H 77.464 4.54728 -2.65575 0
M  V30 755 H 79.955 3.04103 -2.24343 0
M  V30 756 H 80.268 5.82728 -5.07591 0
M  V30 757 H 78.613 5.24519 -4.55966 0
M  V30 758 H 81.804 3.71626 -2.84625 0
M  V30 759 H 81.977 4.98696 -4.13771 0
M  V30 760 N 75.3831 0.828654 1.34056 0
M  V30 761 C 76.7991 0.515135 1.51058 0
M  V30 762 C 76.9991 -0.959581 1.77184 0
M  V30 763 O 76.0551 -1.74382 1.82612 0
M  V30 764 C 77.3681 1.37963 2.67183 0
M  V30 765 C 78.9161 1.37735 2.81066 0
M  V30 766 C 79.3911 2.22645 4.00241 0
M  V30 767 N 80.8821 2.203 4.07458 0
M  V30 768 C 81.6171 2.82744 4.98842 0
M  V30 769 N 81.1131 3.54201 5.9541 0
M  V30 770 N 82.9061 2.72268 4.91759 0
M  V30 771 H 75.0571 1.78343 1.15358 0
M  V30 772 H 77.3201 0.760304 0.566252 0
M  V30 773 H 77.0261 2.42714 2.54525 0
M  V30 774 H 76.9001 1.0484 3.62338 0
M  V30 775 H 79.2871 0.337593 2.93163 0
M  V30 776 H 79.3681 1.74859 1.86703 0
M  V30 777 H 79.0121 3.26674 3.88905 0
M  V30 778 H 78.9421 1.82869 4.93829 0
M  V30 779 H 81.4331 1.68327 3.38341 0
M  V30 780 H 81.7461 3.9908 6.61782 0
M  V30 781 H 80.0911 3.58308 5.95517 0
M  V30 782 H 83.2821 2.16014 4.15278 0
M  V30 783 H 83.4551 3.21219 5.62781 0
M  V30 784 N 76.8612 -1.46375 0.584142 0
M  V30 785 C 77.7912 -2.33103 -0.136037 0
M  V30 786 C 78.7722 -1.45431 -0.882255 0
M  V30 787 O 79.9572 -1.74246 -0.857434 0
M  V30 788 C 77.0872 -3.27731 -1.14933 0
M  V30 789 C 76.0412 -4.24855 -0.517862 0
M  V30 790 C 75.3672 -5.09001 -1.63773 0
M  V30 791 C 76.6672 -5.19439 0.545886 0
M  V30 792 H 78.3612 -2.93568 0.588086 0
M  V30 793 H 75.9072 -1.41166 0.284259 0
M  V30 794 H 77.8602 -3.87261 -1.66153 0
M  V30 795 H 76.5842 -2.65377 -1.90375 0
M  V30 796 H 75.2432 -3.6659 -0.0267361 0
M  V30 797 H 74.8912 -4.43031 -2.38185 0
M  V30 798 H 74.5912 -5.74777 -1.22085 0
M  V30 799 H 76.1152 -5.71396 -2.15266 0
M  V30 800 H 77.5292 -5.73177 0.118704 0
M  V30 801 H 75.9262 -5.93566 0.88317 0
M  V30 802 H 76.9962 -4.63285 1.43162 0
M  V30 803 N 78.3393 -0.321999 -1.54275 0
M  V30 804 C 79.2493 0.553631 -2.27974 0
M  V30 805 C 80.2653 1.13054 -1.32268 0
M  V30 806 O 81.4413 1.15084 -1.6528 0
M  V30 807 C 78.5063 1.69927 -3.02201 0
M  V30 808 C 77.5673 1.15433 -4.1349 0
M  V30 809 C 76.8003 2.24537 -4.84168 0
M  V30 810 O 77.0233 3.44852 -4.5435 0
M  V30 811 O 75.9573 1.90044 -5.7111 0
M  V30 812 H 79.7833 -0.0448345 -3.03667 0
M  V30 813 H 77.3683 -0.0877418 -1.49142 0
M  V30 814 H 79.2503 2.3663 -3.48689 0
M  V30 815 H 77.9253 2.28395 -2.29385 0
M  V30 816 H 76.8323 0.452436 -3.71354 0
M  V30 817 H 78.1653 0.614805 -4.88345 0
M  V30 818 N 79.8174 1.5752 -0.0501392 0
M  V30 819 C 81.0424 1.97376 0.636997 0
M  V30 820 C 81.4674 0.927466 1.63645 0
M  V30 821 O 80.8254 -0.10941 1.8097 0
M  V30 822 C 80.8734 3.36304 1.30123 0
M  V30 823 O 79.9774 3.34156 2.41689 0
M  V30 824 H 79.3184 0.642998 0.165679 0
M  V30 825 H 81.8484 2.04258 -0.118233 0
M  V30 826 H 81.8584 3.73008 1.65315 0
M  V30 827 H 80.5334 4.11993 0.568746 0
M  V30 828 H 79.1104 3.09196 2.08451 0
M  V30 829 N 81.2955 -0.223234 1.56011 0
M  V30 830 C 82.5435 -0.946003 1.78592 0
M  V30 831 C 82.8645 -1.84936 0.618349 0
M  V30 832 O 82.1345 -1.92473 -0.364833 0
M  V30 833 H 80.7145 -0.352298 0.658707 0
M  V30 834 H 83.3765 -0.235494 1.93472 0
M  V30 835 H 82.4725 -1.55381 2.70672 0
M  V30 836 N 82.7736 -1.49793 -0.48987 0
M  V30 837 C 84.0506 -1.50348 -1.25119 0
M  V30 838 C 84.4306 -0.237466 -2.0976 0
M  V30 839 O 83.7786 0.77981 -2.14782 0
M  V30 840 C 83.9886 -2.78872 -2.09837 0
M  V30 841 C 85.3366 -3.288 -2.68655 0
M  V30 842 O 86.3606 -2.80065 -2.20096 0
M  V30 843 O 85.2196 -4.13707 -3.57083 0
M  V30 844 H 82.3136 -0.602242 -0.566775 0
M  V30 845 H 84.8596 -1.62067 -0.503229 0
M  V30 846 H 83.6316 -3.62499 -1.47343 0
M  V30 847 H 83.2546 -2.70066 -2.91805 0
M  V30 848 N 84.2517 0.741722 -1.39055 0
M  V30 849 C 85.1987 1.85566 -1.37237 0
M  V30 850 C 86.1687 1.64457 -0.233072 0
M  V30 851 O 87.3537 1.85957 -0.427147 0
M  V30 852 C 84.4937 3.23004 -1.215 0
M  V30 853 C 83.6067 3.55864 -2.44918 0
M  V30 854 C 82.7417 4.82669 -2.21821 0
M  V30 855 C 81.7807 5.08351 -3.40948 0
M  V30 856 N 80.9177 6.26356 -3.17211 0
M  V30 857 H 85.7577 1.86455 -2.32462 0
M  V30 858 H 83.2947 0.911176 -1.15482 0
M  V30 859 H 85.2527 4.02331 -1.10389 0
M  V30 860 H 83.8827 3.21411 -0.29908 0
M  V30 861 H 82.9347 2.7129 -2.66657 0
M  V30 862 H 84.2467 3.70765 -3.33668 0
M  V30 863 H 83.4007 5.69962 -2.07914 0
M  V30 864 H 82.1397 4.69929 -1.30454 0
M  V30 865 H 81.1447 4.19522 -3.55361 0
M  V30 866 H 82.3697 5.22981 -4.33207 0
M  V30 867 H 80.3157 6.14917 -2.28502 0
M  V30 868 H 80.2327 6.41813 -3.99515 0
M  V30 869 H 81.5007 7.16506 -3.06984 0
M  V30 870 N 85.7298 1.2412 0.971189 0
M  V30 871 C 86.9758 1.09048 1.71698 0
M  V30 872 C 87.3308 -0.367442 1.88859 0
M  V30 873 O 86.6238 -1.26792 1.43646 0
M  V30 874 C 86.8178 1.75983 3.11071 0
M  V30 875 C 86.6468 3.28133 3.07504 0
M  V30 876 C 85.4168 3.97331 3.1218 0
M  V30 877 C 87.6148 4.24773 2.89952 0
M  V30 878 N 85.5968 5.3639 2.98596 0
M  V30 879 C 86.9678 5.50806 2.84627 0
M  V30 880 C 89.0228 4.15392 2.74506 0
M  V30 881 C 87.7258 6.68533 2.65437 0
M  V30 882 C 89.7518 5.32793 2.56682 0
M  V30 883 C 89.1138 6.57756 2.52063 0
M  V30 884 H 85.2128 0.453632 0.636979 0
M  V30 885 H 87.7968 1.56983 1.15171 0
M  V30 886 H 85.9678 1.30566 3.65796 0
M  V30 887 H 87.6998 1.53803 3.74335 0
M  V30 888 H 84.4548 3.48473 3.20724 0
M  V30 889 H 84.8788 6.09321 2.95054 0
M  V30 890 H 89.5208 3.19543 2.76861 0
M  V30 891 H 87.2388 7.64509 2.61825 0
M  V30 892 H 90.8248 5.27383 2.4568 0
M  V30 893 H 89.7048 7.4707 2.38446 0
M  V30 894 N 87.2079 -1.17134 1.05439 0
M  V30 895 C 88.4549 -1.87456 0.765942 0
M  V30 896 C 88.7829 -1.81189 -0.707153 0
M  V30 897 O 88.0379 -1.21633 -1.5331 0
M  V30 898 C 88.3369 -3.36833 1.19491 0
M  V30 899 C 88.0029 -3.63301 2.67063 0
M  V30 900 C 86.6649 -3.70234 3.07376 0
M  V30 901 C 89.0169 -3.74575 3.62413 0
M  V30 902 C 86.3449 -3.85933 4.41896 0
M  V30 903 C 88.6969 -3.91793 4.9667 0
M  V30 904 C 87.3609 -3.96966 5.36633 0
M  V30 905 H 86.6309 -0.685948 0.280278 0
M  V30 906 H 89.2779 -1.38556 1.32192 0
M  V30 907 H 87.5829 -3.87807 0.557969 0
M  V30 908 H 89.2799 -3.89611 0.948893 0
M  V30 909 H 85.8699 -3.58532 2.34846 0
M  V30 910 H 90.0539 -3.68537 3.32406 0
M  V30 911 H 85.3099 -3.88187 4.72357 0
M  V30 912 H 89.4839 -3.99458 5.70444 0
M  V30 913 H 87.1109 -4.08883 6.40874 0
M  V30 914 N 88.686 -0.835752 -1.33615 0
M  V30 915 C 89.911 -0.442389 -2.02627 0
M  V30 916 C 90.336 0.947735 -1.62479 0
M  V30 917 O 89.694 1.61907 -0.815826 0
M  V30 918 C 89.742 -0.567216 -3.56111 0
M  V30 919 O 88.846 0.407799 -4.10379 0
M  V30 920 H 88.187 -0.180278 -0.639059 0
M  V30 921 H 90.717 -1.12972 -1.70583 0
M  V30 922 H 90.727 -0.447708 -4.05536 0
M  V30 923 H 89.402 -1.58103 -3.84677 0
M  V30 924 H 87.979 0.246107 -3.72087 0
M  V30 925 N 90.1641 1.46063 -0.591896 0
M  V30 926 C 91.0941 2.33172 0.123673 0
M  V30 927 C 92.0751 1.45897 0.87453 0
M  V30 928 O 93.2601 1.74698 0.848181 0
M  V30 929 C 90.3901 3.28336 1.13194 0
M  V30 930 C 89.3441 4.25124 0.495324 0
M  V30 931 C 88.6701 5.09863 1.61071 0
M  V30 932 C 89.9701 5.19143 -0.573425 0
M  V30 933 H 91.6641 2.93252 -0.603646 0
M  V30 934 H 89.2101 1.41014 -0.291741 0
M  V30 935 H 91.1631 3.88137 1.64097 0
M  V30 936 H 89.8871 2.66383 1.88965 0
M  V30 937 H 88.5461 3.66599 0.00729452 0
M  V30 938 H 88.1941 4.44288 2.35832 0
M  V30 939 H 87.8941 5.75417 1.19035 0
M  V30 940 H 89.4181 5.72529 2.12233 0
M  V30 941 H 90.8321 5.73106 -0.1491 0
M  V30 942 H 89.2291 5.93089 -0.914636 0
M  V30 943 H 90.2991 4.62519 -1.45617 0
M  V30 944 N 91.6422 0.330177 1.54103 0
M  V30 945 C 92.5522 -0.541534 2.28264 0
M  V30 946 C 93.5682 -1.12351 1.32866 0
M  V30 947 O 94.7442 -1.14206 1.65888 0
M  V30 948 C 91.8092 -1.68322 3.03098 0
M  V30 949 C 90.8702 -1.13238 4.14096 0
M  V30 950 C 90.1032 -2.21966 4.85352 0
M  V30 951 O 90.3262 -3.42437 4.56172 0
M  V30 952 O 89.2602 -1.87013 5.7211 0
M  V30 953 H 93.0862 0.060938 3.03639 0
M  V30 954 H 90.6712 0.09565 1.49093 0
M  V30 955 H 92.5532 -2.34777 3.49939 0
M  V30 956 H 91.2282 -2.27176 2.30593 0
M  V30 957 H 90.1352 -0.432736 3.71589 0
M  V30 958 H 91.4682 -0.588898 4.88664 0
M  V30 959 N 93.1203 -1.57491 0.0584922 0
M  V30 960 C 94.3673 -1.92978 -0.613648 0
M  V30 961 C 94.6953 -0.937461 -1.70417 0
M  V30 962 O 93.9503 0.049078 -1.95638 0
M  V30 963 C 94.2493 -3.3513 -1.24188 0
M  V30 964 C 93.9153 -4.50037 -0.278826 0
M  V30 965 C 92.5773 -4.81198 -0.0138447 0
M  V30 966 C 94.9293 -5.19807 0.380777 0
M  V30 967 C 92.2573 -5.79473 0.918052 0
M  V30 968 C 94.6093 -6.19079 1.30091 0
M  V30 969 C 93.2733 -6.48665 1.57449 0
M  V30 970 H 92.5433 -0.706157 -0.22455 0
M  V30 971 H 95.1903 -1.91082 0.126533 0
M  V30 972 H 93.4953 -3.33429 -2.05749 0
M  V30 973 H 95.1923 -3.59871 -1.769 0
M  V30 974 H 91.7823 -4.25726 -0.495539 0
M  V30 975 H 95.9663 -4.95939 0.189158 0
M  V30 976 H 91.2223 -6.00727 1.1374 0
M  V30 977 H 95.3963 -6.7225 1.81804 0
M  V30 978 H 93.0233 -7.24628 2.29822 0
M  V30 979 N 94.5984 0.214957 -1.56127 0
M  V30 980 C 95.8454 0.938372 -1.79446 0
M  V30 981 C 96.1734 1.8407 -0.628378 0
M  V30 982 O 95.4284 1.91837 0.386925 0
M  V30 983 C 95.7274 1.80314 -3.0858 0
M  V30 984 C 95.3934 1.05349 -4.3842 0
M  V30 985 C 94.0554 0.846435 -4.73697 0
M  V30 986 C 96.4074 0.524588 -5.18553 0
M  V30 987 C 93.7354 0.098683 -5.86617 0
M  V30 988 C 96.0874 -0.209853 -6.32252 0
M  V30 989 C 94.7514 -0.428102 -6.66126 0
M  V30 990 H 94.0214 0.343375 -0.656639 0
M  V30 991 H 96.6684 0.206077 -1.90388 0
M  V30 992 H 94.9734 2.6035 -2.92789 0
M  V30 993 H 96.6704 2.36513 -3.23825 0
M  V30 994 H 93.2604 1.22486 -4.10725 0
M  V30 995 H 97.4444 0.672008 -4.91729 0
M  V30 996 H 92.7004 -0.0805753 -6.11347 0
M  V30 997 H 96.8744 -0.627157 -6.9357 0
M  V30 998 H 94.5014 -1.00944 -7.53468 0
M  V30 999 N 96.0765 1.50051 0.48192 0
M  V30 1000 C 97.4875 1.5348 1.06305 0
M  V30 1001 C 97.8385 0.331997 1.93371 0
M  V30 1002 O 96.9635 -0.556256 2.09129 0
M  V30 1003 C 97.5585 2.7813 1.93466 0
M  V30 1004 C 96.1175 2.84275 2.46707 0
M  V30 1005 C 95.2645 2.47637 1.24785 0
M  V30 1006 H 98.2155 1.56472 0.264995 0
M  V30 1007 H 98.2365 2.59372 2.78399 0
M  V30 1008 H 97.7485 3.65654 1.30072 0
M  V30 1009 H 95.8495 2.01077 3.13686 0
M  V30 1010 H 95.9625 3.8691 2.82555 0
M  V30 1011 H 94.3265 1.99835 1.57918 0
M  V30 1012 H 95.1095 3.37457 0.630694 0
M  V30 1013 N 97.5546 -0.734337 1.39446 0
M  V30 1014 C 98.9656 -1.31264 1.32766 0
M  V30 1015 C 99.3166 -1.96198 -0.00767497 0
M  V30 1016 O 98.4416 -1.96346 -0.909796 0
M  V30 1017 C 99.0366 -2.38682 2.4045 0
M  V30 1018 C 97.5956 -2.92184 2.37288 0
M  V30 1019 C 96.7426 -1.6576 2.22304 0
M  V30 1020 H 99.6936 -0.531799 1.49525 0
M  V30 1021 H 99.7146 -3.19087 2.07276 0
M  V30 1022 H 99.2266 -1.91392 3.37625 0
M  V30 1023 H 97.3276 -3.43752 1.43754 0
M  V30 1024 H 97.4406 -3.45253 3.3217 0
M  V30 1025 H 95.8046 -1.9012 1.69489 0
M  V30 1026 H 96.5876 -1.20521 3.21449 0
M  V30 1027 N 99.0327 -1.24633 -0.964593 0
M  V30 1028 C 100.449 -1.01239 -1.2338 0
M  V30 1029 C 100.649 0.2769 -1.99588 0
M  V30 1030 O 99.7047 0.992241 -2.32187 0
M  V30 1031 C 101.018 -2.22937 -2.01791 0
M  V30 1032 C 102.566 -2.27594 -2.14872 0
M  V30 1033 C 103.041 -3.48921 -2.96678 0
M  V30 1034 N 104.532 -3.49257 -3.04259 0
M  V30 1035 C 105.267 -4.39795 -3.67924 0
M  V30 1036 N 104.763 -5.40591 -4.33281 0
M  V30 1037 N 106.556 -4.275 -3.64966 0
M  V30 1038 H 98.7067 -2.0748 -0.454502 0
M  V30 1039 H 100.97 -0.910647 -0.26349 0
M  V30 1040 H 100.676 -3.16587 -1.53184 0
M  V30 1041 H 100.55 -2.25306 -3.02518 0
M  V30 1042 H 102.937 -1.34473 -2.6268 0
M  V30 1043 H 103.018 -2.2925 -1.13482 0
M  V30 1044 H 102.662 -4.42359 -2.49562 0
M  V30 1045 H 102.592 -3.4451 -3.98272 0
M  V30 1046 H 105.083 -2.76337 -2.57771 0
M  V30 1047 H 105.396 -6.05904 -4.79687 0
M  V30 1048 H 103.741 -5.44475 -4.3194 0
M  V30 1049 H 106.932 -3.47987 -3.13086 0
M  V30 1050 H 107.105 -4.98258 -4.14298 0
M  V30 1051 N 100.511 1.16574 -1.06058 0
M  V30 1052 C 101.739 1.90952 -0.796552 0
M  V30 1053 C 102.154 1.77302 0.648808 0
M  V30 1054 O 101.511 1.11605 1.44397 0
M  V30 1055 C 101.562 3.41736 -1.17894 0
M  V30 1056 O 101.283 3.54975 -2.56758 0
M  V30 1057 C 102.784 4.33169 -0.942308 0
M  V30 1058 H 100.004 0.605594 -0.288959 0
M  V30 1059 H 102.548 1.47777 -1.41358 0
M  V30 1060 H 100.703 3.82623 -0.606491 0
M  V30 1061 H 101.117 4.4846 -2.72 0
M  V30 1062 H 102.591 5.37439 -1.25952 0
M  V30 1063 H 103.068 4.3903 0.122078 0
M  V30 1064 H 103.674 3.98007 -1.49902 0
M  V30 1065 N 101.989 0.842826 1.3317 0
M  V30 1066 C 102.952 0.284065 2.27433 0
M  V30 1067 C 103.952 -0.54948 1.5112 0
M  V30 1068 O 105.142 -0.362699 1.70382 0
M  V30 1069 C 102.274 -0.599384 3.35589 0
M  V30 1070 H 103.467 1.11589 2.78366 0
M  V30 1071 H 101.02 0.616221 1.4364 0
M  V30 1072 H 101.755 -1.45349 2.89904 0
M  V30 1073 H 101.54 -0.00291266 3.921 0
M  V30 1074 H 103.03 -0.983488 4.05854 0
M  V30 1075 N 103.467 -1.45747 0.599634 0
M  V30 1076 C 104.377 -2.34262 -0.125888 0
M  V30 1077 C 105.393 -1.50768 -0.868625 0
M  V30 1078 O 106.569 -1.83592 -0.828003 0
M  V30 1079 C 103.634 -3.28252 -1.11587 0
M  V30 1080 C 102.695 -4.27651 -0.375956 0
M  V30 1081 C 101.928 -5.1715 -1.31877 0
M  V30 1082 O 102.151 -5.09916 -2.55621 0
M  V30 1083 O 101.085 -5.96286 -0.820157 0
M  V30 1084 H 104.911 -2.97688 0.601315 0
M  V30 1085 H 102.496 -1.44999 0.359934 0
M  V30 1086 H 104.378 -3.86191 -1.68626 0
M  V30 1087 H 103.053 -2.67401 -1.82424 0
M  V30 1088 H 101.96 -3.7335 0.236698 0
M  V30 1089 H 103.293 -4.91334 0.29177 0
M  V30 1090 N 104.945 -0.338344 -1.53925 0
M  V30 1091 C 106.193 0.259245 -2.0043 0
M  V30 1092 C 106.514 1.51484 -1.22791 0
M  V30 1093 O 105.784 1.93037 -0.33368 0
M  V30 1094 H 104.364 0.0987845 -0.740439 0
M  V30 1095 H 107.026 -0.458302 -1.89435 0
M  V30 1096 H 106.122 0.505334 -3.07982 0
M  V30 1097 N 106.423 1.57458 -0.0668435 0
M  V30 1098 C 107.386 2.11323 0.887422 0
M  V30 1099 C 108.386 1.03618 1.22964 0
M  V30 1100 O 109.576 1.29626 1.16373 0
M  V30 1101 C 106.708 2.61048 2.19242 0
M  V30 1102 H 107.901 2.96942 0.420194 0
M  V30 1103 H 105.454 1.55239 0.181793 0
M  V30 1104 H 106.189 1.78868 2.70512 0
M  V30 1105 H 105.974 3.39769 1.95702 0
M  V30 1106 H 107.464 3.02814 2.87565 0
M  V30 1107 N 107.901 -0.206675 1.56239 0
M  V30 1108 C 109.147 -0.930218 1.80208 0
M  V30 1109 C 109.48 -1.83387 0.638981 0
M  V30 1110 O 108.755 -1.91119 -0.361066 0
M  V30 1111 C 109.038 -1.75641 3.1436 0
M  V30 1112 C 108.891 -0.878257 4.41142 0
M  V30 1113 C 110.21 -2.73129 3.45092 0
M  V30 1114 H 107.329 -0.336742 0.655571 0
M  V30 1115 H 109.971 -0.198222 1.88963 0
M  V30 1116 H 108.121 -2.38048 3.07027 0
M  V30 1117 H 109.793 -0.269787 4.6051 0
M  V30 1118 H 108.036 -0.184385 4.33408 0
M  V30 1119 H 108.707 -1.49106 5.3148 0
M  V30 1120 H 111.183 -2.20856 3.52649 0
M  V30 1121 H 110.059 -3.28028 4.40101 0
M  V30 1122 H 110.32 -3.51606 2.68003 0
M  V30 1123 N 109.379 -1.50304 -0.473955 0
M  V30 1124 C 110.327 -1.69482 -1.59307 0
M  V30 1125 C 111.321 -0.560669 -1.59853 0
M  V30 1126 O 112.527 -0.741087 -1.64036 0
M  V30 1127 H 108.902 -0.534892 -0.528578 0
M  V30 1128 H 110.873 -2.63364 -1.40293 0
M  V30 1129 C 109.622 -1.80354 -2.97267 0
M  V30 1130 H 108.945 -2.67012 -2.97564 0
M  V30 1131 H 110.385 -1.97798 -3.75036 0
M  V30 1132 C 108.844 -0.55448 -3.32306 0
M  V30 1133 O 109.374 0.307661 -4.0052 0
M  V30 1134 N 107.58 -0.409354 -2.87702 0
M  V30 1135 H 107.127 -1.11196 -2.32364 0
M  V30 1136 H 107.085 0.425223 -3.11511 0
M  V30 1137 N 110.857 0.726932 -1.39834 0
M  V30 1138 C 111.787 1.85405 -1.41941 0
M  V30 1139 C 112.768 1.67751 -0.281728 0
M  V30 1140 O 113.953 1.8795 -0.488717 0
M  V30 1141 C 111.083 3.23243 -1.2701 0
M  V30 1142 C 110.037 3.55549 -2.38262 0
M  V30 1143 C 109.363 4.9241 -2.08415 0
M  V30 1144 C 110.663 3.577 -3.80589 0
M  V30 1145 H 112.357 1.83899 -2.36266 0
M  V30 1146 H 109.903 0.883349 -1.13723 0
M  V30 1147 H 111.856 4.01775 -1.27103 0
M  V30 1148 H 110.58 3.25296 -0.291564 0
M  V30 1149 H 109.239 2.79351 -2.37399 0
M  V30 1150 H 108.887 4.91052 -1.0898 0
M  V30 1151 H 108.587 5.14992 -2.82943 0
M  V30 1152 H 110.111 5.73289 -2.10171 0
M  V30 1153 H 111.525 4.26293 -3.83337 0
M  V30 1154 H 109.922 3.91804 -4.54543 0
M  V30 1155 H 110.992 2.57328 -4.10987 0
M  V30 1156 N 112.336 1.25143 0.95797 0
M  V30 1157 C 113.585 1.0909 1.69654 0
M  V30 1158 C 113.898 -0.368548 1.92097 0
M  V30 1159 O 115.104 -0.649455 2.63618 0
M  V30 1160 C 113.56 1.90395 3.05414 0
M  V30 1161 C 113.168 3.4081 2.90779 0
M  V30 1162 C 114.912 1.82901 3.83076 0
M  V30 1163 C 112.819 4.14423 4.21909 0
M  V30 1164 H 111.749 0.404625 0.636235 0
M  V30 1165 H 114.4 1.4931 1.06672 0
M  V30 1166 H 112.782 1.42996 3.69281 0
M  V30 1167 H 113.956 3.95859 2.35865 0
M  V30 1168 H 112.271 3.49361 2.26575 0
M  V30 1169 H 114.868 2.35196 4.80195 0
M  V30 1170 H 115.211 0.796224 4.08615 0
M  V30 1171 H 115.744 2.28033 3.25954 0
M  V30 1172 H 112.483 5.18102 4.01561 0
M  V30 1173 H 112.003 3.64159 4.76601 0
M  V30 1174 H 113.682 4.21956 4.90471 0
M  V30 1175 N 113.814 -1.1601 1.06675 0
M  V30 1176 C 115.039 -1.91068 0.806706 0
M  V30 1177 C 115.464 -1.77112 -0.633485 0
M  V30 1178 O 114.822 -1.09908 -1.44187 0
M  V30 1179 C 114.87 -3.39655 1.21106 0
M  V30 1180 O 113.974 -4.10893 0.352189 0
M  V30 1181 H 113.315 -0.595125 0.294486 0
M  V30 1182 H 115.845 -1.46955 1.42356 0
M  V30 1183 H 115.855 -3.90434 1.18428 0
M  V30 1184 H 114.53 -3.49132 2.26008 0
M  V30 1185 H 113.107 -3.70285 0.440868 0
M  V30 1186 N 115.292 -0.849877 -1.32721 0
M  V30 1187 C 116.708 -0.539102 -1.50219 0
M  V30 1188 C 116.908 0.931271 -1.78689 0
M  V30 1189 O 115.964 1.71455 -1.85363 0
M  V30 1190 C 117.277 -1.42196 -2.64954 0
M  V30 1191 C 118.825 -1.42189 -2.78839 0
M  V30 1192 C 119.3 -2.28985 -3.96648 0
M  V30 1193 N 120.791 -2.26754 -4.03902 0
M  V30 1194 C 121.526 -2.90644 -4.94281 0
M  V30 1195 N 121.022 -3.63629 -5.897 0
M  V30 1196 N 122.815 -2.80057 -4.87365 0
M  V30 1197 H 114.966 -1.80156 -1.12506 0
M  V30 1198 H 117.229 -0.769217 -0.554085 0
M  V30 1199 H 116.935 -2.46733 -2.50631 0
M  V30 1200 H 116.809 -1.10591 -3.60624 0
M  V30 1201 H 119.196 -0.38419 -2.92588 0
M  V30 1202 H 119.277 -1.77807 -1.83898 0
M  V30 1203 H 118.921 -3.32819 -3.83658 0
M  V30 1204 H 118.851 -1.90702 -4.90857 0
M  V30 1205 H 121.342 -1.73688 -3.3562 0
M  V30 1206 H 121.655 -4.09558 -6.55349 0
M  V30 1207 H 120 -3.67737 -5.89741 0
M  V30 1208 H 123.191 -2.22593 -4.11789 0
M  V30 1209 H 123.364 -3.30132 -5.57599 0
M  V30 1210 N 116.77 1.45427 -0.607355 0
M  V30 1211 C 118.017 2.02241 -0.102455 0
M  V30 1212 C 118.345 1.4758 1.26691 0
M  V30 1213 O 117.6 0.640468 1.84923 0
M  V30 1214 C 117.899 3.57398 -0.0129263 0
M  V30 1215 C 117.565 4.3121 -1.31792 0
M  V30 1216 C 116.227 4.51092 -1.67539 0
M  V30 1217 C 118.579 4.73401 -2.18039 0
M  V30 1218 C 115.907 5.10422 -2.89285 0
M  V30 1219 C 118.259 5.34078 -3.39034 0
M  V30 1220 C 116.923 5.52184 -3.75033 0
M  V30 1221 H 116.193 0.740051 -0.037491 0
M  V30 1222 H 118.84 1.74494 -0.788926 0
M  V30 1223 H 117.145 3.84421 0.756806 0
M  V30 1224 H 118.842 3.99061 0.393881 0
M  V30 1225 H 115.432 4.16047 -1.02968 0
M  V30 1226 H 119.616 4.57774 -1.91721 0
M  V30 1227 H 114.872 5.22629 -3.17283 0
M  V30 1228 H 119.046 5.65724 -4.06115 0
M  V30 1229 H 116.673 5.97925 -4.69457 0
M  V30 1230 N 118.248 0.346503 1.53744 0
M  V30 1231 C 119.525 -0.304532 1.93215 0
M  V30 1232 C 119.905 -1.67993 1.27834 0
M  V30 1233 O 119.253 -2.24411 0.430352 0
M  V30 1234 C 119.463 -0.373852 3.46992 0
M  V30 1235 C 120.811 -0.62329 4.2 0
M  V30 1236 O 121.835 -0.455847 3.53271 0
M  V30 1237 O 120.694 -0.947879 5.38217 0
M  V30 1238 H 117.788 -0.178318 0.807547 0
M  V30 1239 H 120.334 0.397895 1.64969 0
M  V30 1240 H 119.106 0.591224 3.86808 0
M  V30 1241 H 118.729 -1.12294 3.81413 0
M  V30 1242 N 119.726 -1.57421 0.075193 0
M  V30 1243 C 121.142 -1.57099 -0.281444 0
M  V30 1244 C 121.342 -1.08486 -1.69803 0
M  V30 1245 O 120.398 -0.752279 -2.41033 0
M  V30 1246 C 121.711 -3.00571 -0.0880041 0
M  V30 1247 C 123.259 -3.12605 -0.157281 0
M  V30 1248 C 123.734 -4.57999 0.0079207 0
M  V30 1249 N 125.225 -4.63176 -0.0475725 0
M  V30 1250 C 125.96 -5.73373 0.0557876 0
M  V30 1251 N 125.456 -6.92473 0.21286 0
M  V30 1252 N 127.249 -5.621 -0.00152098 0
M  V30 1253 H 119.4 -1.87335 1.00098 0
M  V30 1254 H 121.663 -0.86377 0.390646 0
M  V30 1255 H 121.369 -3.40262 0.889629 0
M  V30 1256 H 121.243 -3.67754 -0.838875 0
M  V30 1257 H 123.63 -2.72798 -1.1254 0
M  V30 1258 H 123.711 -2.48053 0.62475 0
M  V30 1259 H 123.355 -4.98496 0.972824 0
M  V30 1260 H 123.285 -5.20586 -0.793556 0
M  V30 1261 H 125.776 -3.7753 -0.167244 0
M  V30 1262 H 126.089 -7.72279 0.283781 0
M  V30 1263 H 124.434 -6.94556 0.248267 0
M  V30 1264 H 127.625 -4.67938 -0.122958 0
M  V30 1265 H 127.798 -6.47948 0.0824844 0
M  V30 1266 N 121.204 0.198386 -1.56346 0
M  V30 1267 C 122.137 1.27381 -1.89339 0
M  V30 1268 C 123.115 1.44106 -0.753134 0
M  V30 1269 O 124.299 1.59549 -1.00381 0
M  V30 1270 C 121.426 2.6409 -2.12071 0
M  V30 1271 C 120.472 2.64253 -3.34772 0
M  V30 1272 S 121.305 2.16013 -4.89999 0
M  V30 1273 C 122.461 3.54553 -5.15794 0
M  V30 1274 H 122.694 0.992058 -2.8026 0
M  V30 1275 H 120.227 0.401726 -1.49082 0
M  V30 1276 H 122.185 3.42786 -2.2585 0
M  V30 1277 H 120.846 2.89478 -1.21906 0
M  V30 1278 H 120.039 3.64768 -3.47794 0
M  V30 1279 H 119.641 1.93637 -3.1997 0
M  V30 1280 H 121.933 4.50396 -5.06112 0
M  V30 1281 H 122.876 3.46428 -6.1757 0
M  V30 1282 H 123.284 3.49313 -4.43442 0
M  V30 1283 N 122.682 1.50554 0.465978 0
M  V30 1284 C 123.645 1.69233 1.54574 0
M  V30 1285 C 124.645 0.562901 1.50626 0
M  V30 1286 O 125.835 0.830016 1.53155 0
M  V30 1287 C 122.967 1.7223 2.94193 0
M  V30 1288 H 124.16 2.65571 1.39327 0
M  V30 1289 H 121.713 1.40111 0.692711 0
M  V30 1290 H 122.448 0.77603 3.14878 0
M  V30 1291 H 122.233 2.54285 2.98466 0
M  V30 1292 H 123.723 1.88618 3.72576 0
M  V30 1293 N 124.16 -0.719506 1.40217 0
M  V30 1294 C 125.123 -1.8153 1.39927 0
M  V30 1295 C 126.123 -1.58095 0.293723 0
M  V30 1296 O 127.313 -1.65209 0.552429 0
M  V30 1297 C 124.445 -3.19561 1.18716 0
M  V30 1298 H 125.638 -1.83186 2.37451 0
M  V30 1299 H 123.191 -0.924746 1.26008 0
M  V30 1300 H 123.926 -3.23557 0.219366 0
M  V30 1301 H 123.711 -3.3797 1.98793 0
M  V30 1302 H 125.201 -3.99598 1.21291 0
M  V30 1303 N 125.638 -1.25649 -0.95132 0
M  V30 1304 C 126.886 -1.10375 -1.69298 0
M  V30 1305 C 127.207 0.355339 -1.91735 0
M  V30 1306 O 126.477 1.25188 -1.50681 0
M  V30 1307 H 125.057 -0.405461 -0.627384 0
M  V30 1308 H 127.719 -1.57823 -1.14358 0
M  V30 1309 H 126.815 -1.61465 -2.67087 0
M  V30 1310 N 127.117 1.15442 -1.07289 0
M  V30 1311 C 128.365 1.85845 -0.794096 0
M  V30 1312 C 128.686 1.82692 0.681809 0
M  V30 1313 O 127.956 1.26741 1.49377 0
M  V30 1314 H 126.536 0.688089 -0.290763 0
M  V30 1315 H 129.198 1.39947 -1.3565 0
M  V30 1316 H 128.294 2.91001 -1.12804 0
M  V30 1317 N 128.595 0.856903 1.32268 0
M  V30 1318 C 130.006 0.515711 1.79436 0
M  V30 1319 C 130.357 -0.966586 1.70738 0
M  V30 1320 O 129.482 -1.75409 1.26731 0
M  V30 1321 C 130.077 0.929335 3.25805 0
M  V30 1322 C 128.636 0.640006 3.70919 0
M  V30 1323 C 127.783 1.12784 2.53328 0
M  V30 1324 H 130.734 1.04389 1.19535 0
M  V30 1325 H 130.755 0.246633 3.797 0
M  V30 1326 H 130.267 2.00821 3.32103 0
M  V30 1327 H 128.368 -0.428051 3.70133 0
M  V30 1328 H 128.481 1.20788 4.63624 0
M  V30 1329 H 126.845 0.548033 2.48734 0
M  V30 1330 H 127.628 2.21387 2.62379 0
M  V30 1331 N 130.073 -1.45103 0.615059 0
M  V30 1332 C 131.003 -2.33339 -0.0865619 0
M  V30 1333 C 131.984 -1.4727 -0.851209 0
M  V30 1334 O 133.169 -1.76026 -0.820281 0
M  V30 1335 C 130.299 -3.30095 -1.07956 0
M  V30 1336 C 129.253 -4.25858 -0.427628 0
M  V30 1337 C 128.579 -5.12361 -1.5294 0
M  V30 1338 C 129.879 -5.18165 0.655944 0
M  V30 1339 H 131.573 -2.92254 0.650224 0
M  V30 1340 H 129.119 -1.40532 0.314138 0
M  V30 1341 H 131.072 -3.90698 -1.57901 0
M  V30 1342 H 129.796 -2.69355 -1.84703 0
M  V30 1343 H 128.455 -3.66564 0.0510292 0
M  V30 1344 H 128.103 -4.47984 -2.28734 0
M  V30 1345 H 127.803 -5.77238 -1.09865 0
M  V30 1346 H 129.327 -5.75833 -2.03098 0
M  V30 1347 H 130.741 -5.72796 0.240257 0
M  V30 1348 H 129.138 -5.91559 1.00888 0
M  V30 1349 H 130.208 -4.60144 1.52957 0
M  V30 1350 N 131.551 -0.354651 -1.53558 0
M  V30 1351 C 132.781 0.239167 -2.05211 0
M  V30 1352 C 133.189 1.43879 -1.22863 0
M  V30 1353 O 132.532 1.81857 -0.259565 0
M  V30 1354 C 132.594 0.707251 -3.52474 0
M  V30 1355 C 132.258 -0.374212 -4.55465 0
M  V30 1356 C 133.255 -1.22054 -5.0537 0
M  V30 1357 C 130.94 -0.531323 -4.99482 0
M  V30 1358 C 132.934 -2.20942 -5.97882 0
M  V30 1359 C 130.621 -1.52358 -5.91802 0
M  V30 1360 C 131.619 -2.36108 -6.40892 0
M  V30 1361 O 131.307 -3.33643 -7.31394 0
M  V30 1362 H 131.039 0.0479716 -0.674296 0
M  V30 1363 H 133.593 -0.508121 -1.99016 0
M  V30 1364 H 131.823 1.50596 -3.56171 0
M  V30 1365 H 133.512 1.22285 -3.87042 0
M  V30 1366 H 134.278 -1.1103 -4.7212 0
M  V30 1367 H 130.157 0.110738 -4.60867 0
M  V30 1368 H 133.701 -2.86348 -6.36121 0
M  V30 1369 H 129.598 -1.63434 -6.24467 0
M  V30 1370 H 130.366 -3.29244 -7.4936 0
M  V30 1371 N 133.029 1.57378 -0.0835403 0
M  V30 1372 C 134.278 1.93106 0.582498 0
M  V30 1373 C 134.591 0.96651 1.70053 0
M  V30 1374 O 135.797 1.21705 2.42693 0
M  V30 1375 C 134.253 3.43076 1.08751 0
M  V30 1376 C 133.861 4.48 -0.000146404 0
M  V30 1377 C 135.605 3.87785 1.72694 0
M  V30 1378 C 133.512 5.89113 0.519568 0
M  V30 1379 H 132.442 0.720775 0.221358 0
M  V30 1380 H 135.093 1.82821 -0.157675 0
M  V30 1381 H 133.475 3.48474 1.88101 0
M  V30 1382 H 134.649 4.54233 -0.775199 0
M  V30 1383 H 132.964 4.1283 -0.54406 0
M  V30 1384 H 135.561 4.90604 2.1263 0
M  V30 1385 H 135.904 3.25796 2.59158 0
M  V30 1386 H 136.437 3.8504 0.999457 0
M  V30 1387 H 133.176 6.54775 -0.308186 0
M  V30 1388 H 132.696 5.86376 1.26188 0
M  V30 1389 H 134.375 6.39346 0.992237 0
M  V30 1390 N 134.507 -0.190092 1.56449 0
M  V30 1391 C 135.784 -0.935886 1.71757 0
M  V30 1392 C 136.164 -2.01173 0.639726 0
M  V30 1393 O 135.512 -2.25827 -0.348502 0
M  V30 1394 C 135.722 -1.51775 3.1427 0
M  V30 1395 C 137.07 -1.99794 3.74656 0
M  V30 1396 O 138.094 -1.61607 3.1743 0
M  V30 1397 O 136.953 -2.70079 4.751 0
M  V30 1398 H 134.047 -0.439229 0.700719 0
M  V30 1399 H 136.593 -0.179395 1.68749 0
M  V30 1400 H 135.365 -0.742505 3.84191 0
M  V30 1401 H 134.988 -2.33894 3.21527 0
M  V30 1402 N 135.985 -1.50799 -0.457987 0
M  V30 1403 C 137.231 -1.62683 -1.21088 0
M  V30 1404 C 137.564 -0.332268 -1.91336 0
M  V30 1405 O 136.839 0.667043 -1.82704 0
M  V30 1406 C 137.122 -2.81615 -2.24422 0
M  V30 1407 C 136.975 -4.20989 -1.58392 0
M  V30 1408 C 138.294 -2.96085 -3.2561 0
M  V30 1409 H 135.413 -0.592087 -0.438864 0
M  V30 1410 H 138.055 -1.83225 -0.50286 0
M  V30 1411 H 136.205 -2.64231 -2.84806 0
M  V30 1412 H 137.877 -4.49994 -1.01504 0
M  V30 1413 H 136.12 -4.24641 -0.886704 0
M  V30 1414 H 136.791 -5.0016 -2.33547 0
M  V30 1415 H 139.267 -3.12042 -2.75262 0
M  V30 1416 H 138.143 -3.80902 -3.95228 0
M  V30 1417 H 138.404 -2.0726 -3.90507 0
M  V30 1418 N 137.463 0.71206 -1.40597 0
M  V30 1419 C 138.691 1.50111 -1.42388 0
M  V30 1420 C 139.106 1.88784 -0.0245395 0
M  V30 1421 O 138.463 1.55681 0.952351 0
M  V30 1422 C 138.514 2.7742 -2.31776 0
M  V30 1423 O 138.235 2.40382 -3.66262 0
M  V30 1424 C 139.736 3.7129 -2.42196 0
M  V30 1425 H 136.956 0.46314 -0.485533 0
M  V30 1426 H 139.5 0.878068 -1.8469 0
M  V30 1427 H 137.655 3.36001 -1.92827 0
M  V30 1428 H 138.069 3.22324 -4.13772 0
M  V30 1429 H 139.543 4.57448 -3.08943 0
M  V30 1430 H 140.02 4.14641 -1.44809 0
M  V30 1431 H 140.626 3.18619 -2.81712 0
M  V30 1432 N 138.941 1.26152 0.944643 0
M  V30 1433 C 140.187 1.12665 1.69346 0
M  V30 1434 C 140.542 -0.3273 1.89596 0
M  V30 1435 O 139.835 -1.23717 1.46303 0
M  V30 1436 C 140.029 1.82541 3.07268 0
M  V30 1437 C 139.858 3.34582 3.00475 0
M  V30 1438 C 138.628 4.03863 3.03681 0
M  V30 1439 C 140.826 4.30828 2.80877 0
M  V30 1440 N 138.808 5.42603 2.87151 0
M  V30 1441 C 140.179 5.5672 2.7288 0
M  V30 1442 C 142.234 4.21122 2.65633 0
M  V30 1443 C 140.937 6.74013 2.51196 0
M  V30 1444 C 142.963 5.38118 2.45323 0
M  V30 1445 C 142.325 6.62955 2.38055 0
M  V30 1446 H 138.424 0.467041 0.627214 0
M  V30 1447 H 141.008 1.59391 1.11815 0
M  V30 1448 H 139.179 1.38296 3.62945 0
M  V30 1449 H 140.911 1.61708 3.70989 0
M  V30 1450 H 137.666 3.55198 3.1326 0
M  V30 1451 H 138.09 6.15443 2.82063 0
M  V30 1452 H 142.732 3.25344 2.70021 0
M  V30 1453 H 140.45 7.6989 2.4555 0
M  V30 1454 H 144.036 5.32475 2.34439 0
M  V30 1455 H 142.916 7.51959 2.22546 0
M  V30 1456 N 140.419 -1.14872 1.07899 0
M  V30 1457 C 141.369 -2.17809 0.674027 0
M  V30 1458 C 142.353 -1.58008 -0.303699 0
M  V30 1459 O 143.545 -1.76616 -0.11654 0
M  V30 1460 C 140.674 -3.43208 0.0793318 0
M  V30 1461 C 139.76 -4.10051 1.08253 0
M  V30 1462 N 140.151 -4.52296 2.2641 0
M  V30 1463 C 138.449 -4.36469 0.917124 0
M  V30 1464 C 139.15 -5.04199 2.901 0
M  V30 1465 N 138.126 -4.98088 2.17736 0
M  V30 1466 H 141.928 -2.48207 1.57386 0
M  V30 1467 H 139.442 -1.315 0.952976 0
M  V30 1468 H 141.439 -4.16272 -0.228719 0
M  V30 1469 H 140.099 -3.14291 -0.815551 0
M  V30 1470 H 141.11 -4.45504 2.64096 0
M  V30 1471 H 137.787 -4.17432 0.0756078 0
M  V30 1472 H 139.177 -5.46802 3.90458 0
M  V30 1473 N 141.898 -0.863906 -1.31812 0
M  V30 1474 C 143.309 -0.52522 -1.7916 0
M  V30 1475 C 143.66 0.957518 -1.71248 0
M  V30 1476 O 142.785 1.74734 -1.27659 0
M  V30 1477 C 143.38 -0.9466 -3.25307 0
M  V30 1478 C 141.939 -0.659668 -3.70574 0
M  V30 1479 C 141.086 -1.14126 -2.52726 0
M  V30 1480 H 144.037 -1.05022 -1.1898 0
M  V30 1481 H 144.058 -0.266766 -3.79564 0
M  V30 1482 H 143.57 -2.02579 -3.31034 0
M  V30 1483 H 141.671 0.408416 -3.70355 0
M  V30 1484 H 141.784 -1.23245 -4.62977 0
M  V30 1485 H 140.148 -0.561216 -2.4844 0
M  V30 1486 H 140.931 -2.22775 -2.61201 0
M  V30 1487 N 143.376 1.44774 -0.622745 0
M  V30 1488 C 144.339 2.29069 0.0774015 0
M  V30 1489 C 145.339 1.4059 0.780461 0
M  V30 1490 O 146.529 1.62551 0.626322 0
M  V30 1491 C 143.661 3.21974 1.12006 0
M  V30 1492 H 144.854 2.92459 -0.663901 0
M  V30 1493 H 142.407 1.51548 -0.382486 0
M  V30 1494 H 143.142 2.63417 1.89162 0
M  V30 1495 H 142.927 3.87168 0.619951 0
M  V30 1496 H 144.417 3.85318 1.60995 0
M  V30 1497 N 144.854 0.36279 1.53368 0
M  V30 1498 C 146.102 -0.227326 2.00817 0
M  V30 1499 C 146.423 -1.49511 1.25186 0
M  V30 1500 O 145.693 -1.92482 0.364348 0
M  V30 1501 H 144.273 -0.0869923 0.741917 0
M  V30 1502 H 146.935 0.488381 1.88682 0
M  V30 1503 H 146.031 -0.456273 3.08747 0
M  V30 1504 N 146.332 -1.57332 0.0918853 0
M  V30 1505 C 147.609 -1.85691 -0.614668 0
M  V30 1506 C 147.989 -0.988146 -1.86545 0
M  V30 1507 O 147.337 -0.0597055 -2.28422 0
M  V30 1508 C 147.547 -3.36294 -0.933126 0
M  V30 1509 C 148.895 -4.04275 -1.29796 0
M  V30 1510 O 149.919 -3.41157 -1.02424 0
M  V30 1511 O 148.778 -5.1564 -1.81047 0
M  V30 1512 H 145.872 -0.767802 -0.307261 0
M  V30 1513 H 148.418 -1.69244 0.12434 0
M  V30 1514 H 147.19 -3.91273 -0.0456404 0
M  V30 1515 H 146.813 -3.58076 -1.72822 0
M  V30 1516 N 147.81 0.181792 -1.56548 0
M  V30 1517 C 149.221 0.745244 -1.71181 0
M  V30 1518 C 149.572 1.83262 -0.70068 0
M  V30 1519 O 148.697 2.15946 0.140154 0
M  V30 1520 C 149.292 1.35859 -3.10367 0
M  V30 1521 C 147.851 1.86898 -3.2672 0
M  V30 1522 C 146.998 0.743942 -2.67134 0
M  V30 1523 H 149.949 -0.0434661 -1.5864 0
M  V30 1524 H 149.97 2.22817 -3.08436 0
M  V30 1525 H 149.482 0.566948 -3.83937 0
M  V30 1526 H 147.583 2.68738 -2.5809 0
M  V30 1527 H 147.696 2.02162 -4.34359 0
M  V30 1528 H 146.06 1.16169 -2.26665 0
M  V30 1529 H 146.843 -0.035676 -3.43281 0
M  V30 1530 N 149.288 1.51039 0.449983 0
M  V30 1531 C 150.536 1.62759 1.19808 0
M  V30 1532 C 150.857 0.339981 1.92013 0
M  V30 1533 O 150.127 -0.643606 1.85026 0
M  V30 1534 H 148.707 0.599811 0.445237 0
M  V30 1535 H 151.369 1.87914 0.517138 0
M  V30 1536 H 150.465 2.44911 1.93455 0
M  V30 1537 N 150.766 -0.704594 1.40972 0
M  V30 1538 C 151.991 -1.49858 1.43378 0
M  V30 1539 C 152.416 -1.88061 0.038184 0
M  V30 1540 O 151.774 -1.5402 -0.956425 0
M  V30 1541 C 151.822 -2.74333 2.34038 0
M  V30 1542 O 150.926 -3.7147 1.7912 0
M  V30 1543 H 150.267 -0.45139 0.486974 0
M  V30 1544 H 152.797 -0.866832 1.8533 0
M  V30 1545 H 152.807 -3.22741 2.49604 0
M  V30 1546 H 151.482 -2.45863 3.35446 0
M  V30 1547 H 150.059 -3.30363 1.72958 0
M  V30 1548 N 152.244 -1.26651 -0.937939 0
M  V30 1549 C 153.521 -1.0313 -1.66204 0
M  V30 1550 C 153.901 0.437256 -2.06522 0
M  V30 1551 O 153.249 1.41831 -1.79154 0
M  V30 1552 C 153.459 -1.98314 -2.87181 0
M  V30 1553 C 154.807 -2.27107 -3.58758 0
M  V30 1554 O 155.831 -1.96205 -2.97291 0
M  V30 1555 O 154.69 -2.79736 -4.69479 0
M  V30 1556 H 151.784 -0.392384 -0.727986 0
M  V30 1557 H 154.33 -1.37874 -0.989382 0
M  V30 1558 H 153.102 -2.97399 -2.54302 0
M  V30 1559 H 152.725 -1.64068 -3.6217 0
M  V30 1560 N 153.722 1.14298 -1.08507 0
M  V30 1561 C 154.669 2.19414 -0.715965 0
M  V30 1562 C 155.639 1.63399 0.298326 0
M  V30 1563 O 156.824 1.89929 0.182101 0
M  V30 1564 C 153.964 3.44845 -0.132534 0
M  V30 1565 C 153.077 4.15007 -1.19973 0
M  V30 1566 C 152.212 5.28024 -0.580048 0
M  V30 1567 C 151.251 5.9002 -1.62921 0
M  V30 1568 N 150.388 6.94485 -1.03125 0
M  V30 1569 H 155.228 2.50336 -1.61666 0
M  V30 1570 H 152.765 1.2293 -0.807882 0
M  V30 1571 H 154.723 4.16601 0.223454 0
M  V30 1572 H 153.353 3.14403 0.731467 0
M  V30 1573 H 152.405 3.41629 -1.67313 0
M  V30 1574 H 153.717 4.57178 -1.99473 0
M  V30 1575 H 152.871 6.06455 -0.172364 0
M  V30 1576 H 151.61 4.87076 0.246603 0
M  V30 1577 H 150.615 5.10291 -2.04654 0
M  V30 1578 H 151.84 6.33042 -2.45835 0
M  V30 1579 H 149.786 6.55612 -0.225711 0
M  V30 1580 H 149.703 7.35148 -1.76334 0
M  V30 1581 H 150.971 7.7679 -0.649458 0
M  V30 1582 N 155.201 0.870884 1.31352 0
M  V30 1583 C 156.111 0.330783 2.32256 0
M  V30 1584 C 157.127 -0.559767 1.6475 0
M  V30 1585 O 158.303 -0.456263 1.96164 0
M  V30 1586 C 155.368 -0.458137 3.4366 0
M  V30 1587 C 154.429 0.460482 4.26823 0
M  V30 1588 C 153.662 -0.290881 5.32907 0
M  V30 1589 O 153.885 -1.51885 5.49806 0
M  V30 1590 O 152.819 0.351732 6.00871 0
M  V30 1591 H 156.645 1.16718 2.80376 0
M  V30 1592 H 154.23 0.634285 1.35267 0
M  V30 1593 H 156.112 -0.905343 4.1156 0
M  V30 1594 H 154.787 -1.27106 2.97701 0
M  V30 1595 H 153.694 0.956207 3.61673 0
M  V30 1596 H 155.027 1.23903 4.7635 0
M  V30 1597 N 156.679 -1.44442 0.630414 0
M  V30 1598 C 157.907 -2.06414 0.141671 0
M  V30 1599 C 158.322 -1.47105 -1.18345 0
M  V30 1600 O 157.679 -0.593662 -1.72574 0
M  V30 1601 C 157.73 -3.61494 0.0199784 0
M  V30 1602 O 157.451 -4.18594 1.29269 0
M  V30 1603 C 158.952 -4.40499 -0.497544 0
M  V30 1604 H 156.172 -0.666292 0.0793452 0
M  V30 1605 H 158.716 -1.85323 0.864614 0
M  V30 1606 H 156.871 -3.8185 -0.653402 0
M  V30 1607 H 157.285 -5.12026 1.13707 0
M  V30 1608 H 158.759 -5.49433 -0.531708 0
M  V30 1609 H 159.236 -4.11895 -1.52445 0
M  V30 1610 H 159.842 -4.25061 0.142562 0
M  V30 1611 N 158.157 -0.370918 -1.53173 0
M  V30 1612 C 159.382 0.220293 -2.06227 0
M  V30 1613 C 159.807 1.41243 -1.24225 0
M  V30 1614 O 159.165 1.79387 -0.262645 0
M  V30 1615 C 159.213 0.586663 -3.55796 0
M  V30 1616 O 158.317 1.68317 -3.76488 0
M  V30 1617 H 157.658 0.0308099 -0.663285 0
M  V30 1618 H 160.188 -0.533068 -1.97534 0
M  V30 1619 H 160.198 0.85617 -3.98916 0
M  V30 1620 H 158.873 -0.285013 -4.14922 0
M  V30 1621 H 157.45 1.40881 -3.45264 0
M  V30 1622 N 159.635 1.57281 -0.100228 0
M  V30 1623 C 160.86 1.99302 0.573881 0
M  V30 1624 C 161.285 0.979059 1.60611 0
M  V30 1625 O 160.643 -0.0517803 1.81226 0
M  V30 1626 C 160.691 3.40274 1.19358 0
M  V30 1627 O 159.795 3.41676 2.30935 0
M  V30 1628 H 159.136 0.647944 0.145138 0
M  V30 1629 H 161.666 2.03779 -0.183156 0
M  V30 1630 H 161.676 3.78078 1.53365 0
M  V30 1631 H 160.351 4.13594 0.437385 0
M  V30 1632 H 158.928 3.15672 1.98509 0
M  V30 1633 N 161.113 -0.173488 1.56642 0
M  V30 1634 C 162.046 -1.24353 1.91342 0
M  V30 1635 C 163.024 -1.4289 0.775965 0
M  V30 1636 O 164.208 -1.57932 1.02907 0
M  V30 1637 C 161.335 -2.60683 2.16245 0
M  V30 1638 C 160.381 -2.58894 3.38934 0
M  V30 1639 S 161.214 -2.0819 4.93373 0
M  V30 1640 C 162.37 -3.46302 5.21369 0
M  V30 1641 H 162.603 -0.947345 2.81803 0
M  V30 1642 H 160.136 -0.377958 1.49703 0
M  V30 1643 H 162.094 -3.39149 2.31275 0
M  V30 1644 H 160.755 -2.87502 1.26496 0
M  V30 1645 H 159.948 -3.59188 3.53553 0
M  V30 1646 H 159.55 -1.88522 3.2301 0
M  V30 1647 H 161.842 -4.42287 5.13214 0
M  V30 1648 H 162.785 -3.3656 6.23003 0
M  V30 1649 H 163.193 -3.42214 4.48943 0
M  V30 1650 N 162.591 -1.51276 -0.441967 0
M  V30 1651 C 163.524 -1.66933 -1.55591 0
M  V30 1652 C 164.502 -0.516958 -1.54163 0
M  V30 1653 O 165.686 -0.740209 -1.73358 0
M  V30 1654 C 162.813 -1.67866 -2.94174 0
M  V30 1655 C 161.859 -2.89013 -3.13646 0
M  V30 1656 S 162.692 -4.49897 -2.90436 0
M  V30 1657 C 163.848 -4.53568 -4.31308 0
M  V30 1658 H 164.081 -2.61155 -1.42076 0
M  V30 1659 H 161.614 -1.40902 -0.631341 0
M  V30 1660 H 163.572 -1.69089 -3.74058 0
M  V30 1661 H 162.233 -0.748296 -3.05056 0
M  V30 1662 H 161.426 -2.86054 -4.14957 0
M  V30 1663 H 161.028 -2.85509 -2.4158 0
M  V30 1664 H 163.32 -4.28924 -5.24434 0
M  V30 1665 H 164.263 -5.55355 -4.39303 0
M  V30 1666 H 164.671 -3.82943 -4.14747 0
M  V30 1667 N 164.069 0.697108 -1.41344 0
M  V30 1668 C 165.318 1.45279 -1.39918 0
M  V30 1669 C 165.631 1.95597 -0.0109624 0
M  V30 1670 O 166.837 2.71208 0.125919 0
M  V30 1671 C 165.293 2.62695 -2.46007 0
M  V30 1672 C 164.901 2.19169 -3.90729 0
M  V30 1673 C 166.645 3.40336 -2.53715 0
M  V30 1674 C 164.552 3.33535 -4.88373 0
M  V30 1675 H 163.482 0.545692 -0.520323 0
M  V30 1676 H 166.133 0.756929 -1.67161 0
M  V30 1677 H 164.515 3.34541 -2.11892 0
M  V30 1678 H 165.689 1.54623 -4.34083 0
M  V30 1679 H 164.004 1.54525 -3.86666 0
M  V30 1680 H 166.601 4.2547 -3.2385 0
M  V30 1681 H 166.944 3.85418 -1.5735 0
M  V30 1682 H 167.477 2.75546 -2.86913 0
M  V30 1683 H 164.216 2.93468 -5.86137 0
M  V30 1684 H 163.736 3.96936 -4.49668 0
M  V30 1685 H 165.415 3.99335 -5.09059 0
M  V30 1686 N 165.547 1.27147 0.931209 0
M  V30 1687 C 166.51 1.09615 2.01289 0
M  V30 1688 C 167.51 0.0412581 1.60747 0
M  V30 1689 O 168.7 0.285545 1.71844 0
M  V30 1690 C 165.832 0.669447 3.34262 0
M  V30 1691 H 167.025 2.05662 2.18273 0
M  V30 1692 H 164.578 1.09885 1.11153 0
M  V30 1693 H 165.313 -0.292572 3.22978 0
M  V30 1694 H 165.098 1.43127 3.65044 0
M  V30 1695 H 166.588 0.568921 4.13706 0
M  V30 1696 N 167.025 -1.13721 1.09112 0
M  V30 1697 C 168.25 -1.89314 0.847053 0
M  V30 1698 C 168.675 -1.78416 -0.595774 0
M  V30 1699 O 168.033 -1.12942 -1.41823 0
M  V30 1700 C 168.081 -3.3701 1.28284 0
M  V30 1701 O 167.185 -4.10054 0.439267 0
M  V30 1702 H 166.526 -0.588745 0.307044 0
M  V30 1703 H 169.056 -1.43902 1.45442 0
M  V30 1704 H 169.066 -3.87834 1.26683 0
M  V30 1705 H 167.741 -3.4426 2.33363 0
M  V30 1706 H 166.318 -3.69266 0.519312 0
M  V30 1707 N 168.503 -0.877838 -1.30888 0
M  V30 1708 C 169.731 -0.507414 -2.00581 0
M  V30 1709 C 170.146 0.902216 -1.65848 0
M  V30 1710 O 169.503 1.59225 -0.891831 0
M  V30 1711 C 169.554 -0.664162 -3.55347 0
M  V30 1712 O 169.275 -2.01829 -3.8884 0
M  V30 1713 C 170.776 -0.295787 -4.42312 0
M  V30 1714 H 167.996 -0.196866 -0.641471 0
M  V30 1715 H 170.54 -1.18117 -1.66939 0
M  V30 1716 H 168.695 -0.0378619 -3.87381 0
M  V30 1717 H 169.109 -2.03174 -4.8355 0
M  V30 1718 H 170.583 -0.456388 -5.5011 0
M  V30 1719 H 171.06 0.765663 -4.32475 0
M  V30 1720 H 171.666 -0.898113 -4.15709 0
M  V30 1721 N 169.982 1.44106 -0.638065 0
M  V30 1722 C 170.945 2.29138 0.0531013 0
M  V30 1723 C 171.945 1.41409 0.765506 0
M  V30 1724 O 173.135 1.63206 0.609046 0
M  V30 1725 C 170.267 3.23144 1.08584 0
M  V30 1726 H 171.46 2.91739 -0.694883 0
M  V30 1727 H 169.013 1.51134 -0.398538 0
M  V30 1728 H 169.748 2.65408 1.86357 0
M  V30 1729 H 169.533 3.87804 0.578852 0
M  V30 1730 H 171.023 3.87004 1.56899 0
M  V30 1731 N 171.46 0.379036 1.52974 0
M  V30 1732 C 172.706 -0.206727 2.01744 0
M  V30 1733 C 173.039 -1.47314 1.26539 0
M  V30 1734 O 172.314 -1.91084 0.362903 0
M  V30 1735 C 172.597 -0.485066 3.56818 0
M  V30 1736 C 172.45 0.795919 4.42702 0
M  V30 1737 C 173.769 -1.28003 4.21074 0
M  V30 1738 H 170.888 -0.0736607 0.73331 0
M  V30 1739 H 173.53 0.506581 1.83122 0
M  V30 1740 H 171.68 -1.09272 3.72816 0
M  V30 1741 H 173.352 1.43307 4.38476 0
M  V30 1742 H 171.595 1.41344 4.10127 0
M  V30 1743 H 172.266 0.555947 5.49193 0
M  V30 1744 H 174.742 -0.765867 4.08991 0
M  V30 1745 H 173.618 -1.44352 5.29579 0
M  V30 1746 H 173.879 -2.29236 3.78026 0
M  V30 1747 N 172.938 -1.57226 0.108567 0
M  V30 1748 C 173.886 -2.16002 -0.862885 0
M  V30 1749 C 174.88 -1.10644 -1.28274 0
M  V30 1750 O 176.086 -1.28966 -1.2557 0
M  V30 1751 H 172.461 -0.691148 -0.296342 0
M  V30 1752 H 174.432 -2.96427 -0.342575 0
M  V30 1753 C 173.181 -2.76576 -2.10716 0
M  V30 1754 H 172.504 -3.5734 -1.793 0
M  V30 1755 H 173.944 -3.21253 -2.76717 0
M  V30 1756 C 172.403 -1.73137 -2.89007 0
M  V30 1757 O 172.933 -1.17842 -3.84026 0
M  V30 1758 N 171.139 -1.43317 -2.52801 0
M  V30 1759 H 170.686 -1.88473 -1.75601 0
M  V30 1760 H 170.644 -0.743485 -3.05483 0
M  V30 1761 N 174.416 0.165178 -1.56732 0
M  V30 1762 C 175.646 0.894919 -1.86212 0
M  V30 1763 C 176.054 1.76066 -0.692627 0
M  V30 1764 O 175.397 1.80387 0.347303 0
M  V30 1765 C 175.459 1.8174 -3.10179 0
M  V30 1766 C 175.123 1.13064 -4.42793 0
M  V30 1767 C 176.12 0.493169 -5.17556 0
M  V30 1768 C 173.805 1.12556 -4.89527 0
M  V30 1769 C 175.799 -0.140209 -6.37246 0
M  V30 1770 C 173.486 0.488366 -6.09145 0
M  V30 1771 C 174.484 -0.143411 -6.82849 0
M  V30 1772 O 174.172 -0.77055 -8.00199 0
M  V30 1773 H 173.904 0.265114 -0.621844 0
M  V30 1774 H 176.458 0.168242 -2.0471 0
M  V30 1775 H 174.688 2.58455 -2.87642 0
M  V30 1776 H 176.377 2.4175 -3.26055 0
M  V30 1777 H 177.143 0.489023 -4.82528 0
M  V30 1778 H 173.022 1.60672 -4.32094 0
M  V30 1779 H 176.566 -0.633932 -6.94714 0
M  V30 1780 H 172.463 0.490116 -6.43637 0
M  V30 1781 H 173.231 -0.670408 -8.1575 0
M  V30 1782 N 175.894 1.51508 0.433938 0
M  V30 1783 C 177.134 1.66006 1.19253 0
M  V30 1784 C 177.498 0.369868 1.88404 0
M  V30 1785 O 178.699 0.39066 2.65946 0
M  V30 1786 C 176.97 2.83229 2.17981 0
M  V30 1787 S 178.529 3.18075 3.02281 0
M  V30 1788 H 175.347 0.584821 0.404358 0
M  V30 1789 H 177.949 1.89425 0.48357 0
M  V30 1790 H 176.653 3.75407 1.65824 0
M  V30 1791 H 176.184 2.6201 2.93453 0
M  V30 1792 H 178.199 2.64772 4.19655 0
M  V30 1793 N 177.372 -0.689602 1.41712 0
M  V30 1794 C 178.62 -1.4468 1.4111 0
M  V30 1795 C 178.941 -1.94986 0.0232196 0
M  V30 1796 O 178.211 -1.72097 -0.935913 0
M  V30 1797 H 176.791 -0.536847 0.519427 0
M  V30 1798 H 179.453 -0.815825 1.77004 0
M  V30 1799 H 178.549 -2.30706 2.10193 0
M  V30 1800 N 178.85 -1.27639 -0.924453 0
M  V30 1801 C 179.78 -1.13166 -2.04244 0
M  V30 1802 C 180.761 -0.032256 -1.70069 0
M  V30 1803 O 181.946 -0.207328 -1.9309 0
M  V30 1804 C 179.076 -0.781496 -3.38393 0
M  V30 1805 C 178.03 -1.83449 -3.86692 0
M  V30 1806 C 177.356 -1.33822 -5.17683 0
M  V30 1807 C 178.656 -3.23917 -4.09726 0
M  V30 1808 H 180.35 -2.06689 -2.1661 0
M  V30 1809 H 177.896 -0.995136 -1.04082 0
M  V30 1810 H 179.849 -0.667057 -4.16087 0
M  V30 1811 H 178.573 0.189439 -3.2605 0
M  V30 1812 H 177.232 -1.93789 -3.11193 0
M  V30 1813 H 176.88 -0.35665 -5.01734 0
M  V30 1814 H 176.58 -2.04224 -5.50968 0
M  V30 1815 H 178.104 -1.23679 -5.97943 0
M  V30 1816 H 179.518 -3.16559 -4.77978 0
M  V30 1817 H 177.915 -3.92059 -4.54324 0
M  V30 1818 H 178.985 -3.68729 -3.14908 0
M  V30 1819 N 180.328 1.1314 -1.09713 0
M  V30 1820 C 181.238 2.22242 -0.751367 0
M  V30 1821 C 182.254 1.72224 0.247938 0
M  V30 1822 O 183.43 2.01205 0.0885463 0
M  V30 1823 C 180.495 3.46231 -0.180274 0
M  V30 1824 C 179.556 4.11125 -1.2359 0
M  V30 1825 C 178.789 5.29195 -0.691966 0
M  V30 1826 O 179.012 5.68342 0.48414 0
M  V30 1827 O 177.946 5.84214 -1.44838 0
M  V30 1828 H 181.772 2.54197 -1.66186 0
M  V30 1829 H 179.357 1.21331 -0.871735 0
M  V30 1830 H 181.239 4.21185 0.134739 0
M  V30 1831 H 179.914 3.1597 0.703185 0
M  V30 1832 H 178.821 3.37985 -1.60366 0
M  V30 1833 H 180.154 4.45524 -2.09211 0
M  V30 1834 N 181.806 0.884767 1.30421 0
M  V30 1835 C 183.034 0.518044 2.0031 0
M  V30 1836 C 183.449 -0.893408 1.66324 0
M  V30 1837 O 182.806 -1.5875 0.900262 0
M  V30 1838 C 182.857 0.682997 3.54989 0
M  V30 1839 O 182.578 2.03888 3.87764 0
M  V30 1840 C 184.079 0.31924 4.42149 0
M  V30 1841 H 181.299 0.200265 0.640418 0
M  V30 1842 H 183.843 1.19001 1.6631 0
M  V30 1843 H 181.998 0.0584052 3.87356 0
M  V30 1844 H 182.412 2.05735 4.82466 0
M  V30 1845 H 183.886 0.485555 5.4986 0
M  V30 1846 H 184.363 -0.742717 4.32875 0
M  V30 1847 H 184.969 0.920147 4.15227 0
M  V30 1848 N 183.284 -1.43765 0.645699 0
M  V30 1849 C 184.533 -2.01116 0.153412 0
M  V30 1850 C 184.846 -1.51493 -1.23731 0
M  V30 1851 O 186.052 -2.01067 -1.8244 0
M  V30 1852 C 184.508 -3.59206 0.223473 0
M  V30 1853 C 184.116 -4.17823 1.61642 0
M  V30 1854 C 185.86 -4.23972 -0.211597 0
M  V30 1855 C 183.767 -5.68183 1.64081 0
M  V30 1856 H 182.697 -0.752093 0.0535891 0
M  V30 1857 H 185.348 -1.6482 0.806633 0
M  V30 1858 H 183.73 -3.92867 -0.497118 0
M  V30 1859 H 184.904 -3.95674 2.36176 0
M  V30 1860 H 183.219 -3.65399 1.99681 0
M  V30 1861 H 185.816 -5.34275 -0.213112 0
M  V30 1862 H 186.159 -3.97352 -1.24165 0
M  V30 1863 H 186.692 -3.95166 0.456988 0
M  V30 1864 H 183.431 -5.99559 2.64971 0
M  V30 1865 H 182.951 -5.9241 0.938611 0
M  V30 1866 H 184.63 -6.32085 1.3812 0
M  V30 1867 N 184.763 -0.387143 -1.52771 0
M  V30 1868 C 185.693 0.440551 -2.29306 0
M  V30 1869 C 186.674 1.06535 -1.32606 0
M  V30 1870 O 187.859 1.07853 -1.61497 0
M  V30 1871 C 184.989 1.56919 -3.09829 0
M  V30 1872 C 183.943 1.07054 -4.14395 0
M  V30 1873 C 183.269 2.29109 -4.83129 0
M  V30 1874 C 184.569 0.140015 -5.22112 0
M  V30 1875 H 186.263 -0.198026 -2.98744 0
M  V30 1876 H 183.809 -0.09668 -1.43675 0
M  V30 1877 H 185.762 2.15503 -3.62128 0
M  V30 1878 H 184.486 2.23532 -2.3812 0
M  V30 1879 H 183.145 0.507247 -3.63074 0
M  V30 1880 H 182.793 2.94227 -4.0797 0
M  V30 1881 H 182.493 1.96406 -5.53804 0
M  V30 1882 H 184.017 2.88339 -5.38231 0
M  V30 1883 H 185.431 0.633978 -5.69784 0
M  V30 1884 H 183.828 -0.0971485 -6.00021 0
M  V30 1885 H 184.898 -0.811711 -4.78058 0
M  V30 1886 N 186.241 1.57166 -0.116904 0
M  V30 1887 C 187.191 2.11756 0.845178 0
M  V30 1888 C 188.175 1.03783 1.22955 0
M  V30 1889 O 189.367 1.3002 1.20099 0
M  V30 1890 C 186.496 2.71886 2.09602 0
M  V30 1891 C 185.582 3.86937 1.7361 0
M  V30 1892 N 185.973 4.94073 1.08284 0
M  V30 1893 C 184.271 3.97082 2.03082 0
M  V30 1894 C 184.972 5.74477 0.913855 0
M  V30 1895 N 183.948 5.2423 1.43818 0
M  V30 1896 H 187.75 2.91967 0.336523 0
M  V30 1897 H 185.264 1.62174 0.0856332 0
M  V30 1898 H 187.261 3.09338 2.79492 0
M  V30 1899 H 185.921 1.93138 2.61013 0
M  V30 1900 H 186.932 5.12483 0.747067 0
M  V30 1901 H 183.609 3.29372 2.56554 0
M  V30 1902 H 184.999 6.70701 0.40125 0
M  V30 1903 N 187.719 -0.156864 1.56817 0
M  V30 1904 C 188.652 -1.22316 1.9265 0
M  V30 1905 C 189.63 -1.42059 0.791076 0
M  V30 1906 O 190.814 -1.56831 1.04576 0
M  V30 1907 C 187.941 -2.58375 2.18998 0
M  V30 1908 C 186.987 -2.55284 3.41661 0
M  V30 1909 S 187.82 -2.02946 4.95553 0
M  V30 1910 C 188.976 -3.40753 5.25013 0
M  V30 1911 H 189.209 -0.917403 2.82791 0
M  V30 1912 H 186.742 -0.362059 1.50095 0
M  V30 1913 H 188.7 -3.36677 2.34859 0
M  V30 1914 H 187.361 -2.86145 1.29538 0
M  V30 1915 H 186.554 -3.55418 3.57343 0
M  V30 1916 H 186.156 -1.85086 3.24991 0
M  V30 1917 H 188.448 -4.36819 5.17876 0
M  V30 1918 H 189.391 -3.29933 6.26538 0
M  V30 1919 H 189.799 -3.37433 4.52548 0
M  V30 1920 N 189.197 -1.51736 -0.425897 0
M  V30 1921 C 190.425 -1.68794 -1.1965 0
M  V30 1922 C 190.84 -0.390164 -1.84725 0
M  V30 1923 O 190.197 0.632376 -1.71194 0
M  V30 1924 C 190.248 -2.81174 -2.27208 0
M  V30 1925 O 189.969 -4.05925 -1.64793 0
M  V30 1926 C 191.47 -3.09599 -3.17275 0
M  V30 1927 H 188.69 -0.566128 -0.360194 0
M  V30 1928 H 191.234 -1.98211 -0.503249 0
M  V30 1929 H 189.389 -2.54324 -2.9223 0
M  V30 1930 H 189.803 -4.68423 -2.35967 0
M  V30 1931 H 191.277 -3.91786 -3.88854 0
M  V30 1932 H 191.754 -2.22468 -3.78688 0
M  V30 1933 H 192.36 -3.38151 -2.57941 0
M  V30 1934 N 190.675 0.682077 -1.42076 0
M  V30 1935 C 191.915 1.45424 -1.43636 0
M  V30 1936 C 192.279 1.91939 -0.0484001 0
M  V30 1937 O 193.48 2.6873 0.0612514 0
M  V30 1938 C 191.751 2.62427 -2.42625 0
M  V30 1939 S 193.31 3.51379 -2.62827 0
M  V30 1940 H 190.128 0.496779 -0.508657 0
M  V30 1941 H 192.73 0.794645 -1.78621 0
M  V30 1942 H 191.434 2.26481 -3.42249 0
M  V30 1943 H 190.965 3.33266 -2.09039 0
M  V30 1944 H 192.98 4.58141 -1.9058 0
M  V30 1945 N 192.153 1.28127 0.917671 0
M  V30 1946 C 193.393 1.163 1.68088 0
M  V30 1947 C 193.757 -0.284515 1.8988 0
M  V30 1948 O 194.958 -0.525413 2.63615 0
M  V30 1949 C 193.229 1.93546 3.00457 0
M  V30 1950 S 194.788 1.98048 3.91564 0
M  V30 1951 H 191.606 0.415005 0.577315 0
M  V30 1952 H 194.208 1.62173 1.09179 0
M  V30 1953 H 192.912 2.97888 2.82295 0
M  V30 1954 H 192.443 1.48207 3.64415 0
M  V30 1955 H 194.458 1.08415 4.84211 0
M  V30 1956 N 193.631 -1.12557 1.10312 0
M  V30 1957 C 195.047 -1.36036 0.834649 0
M  V30 1958 C 195.247 -1.93946 -0.546539 0
M  V30 1959 O 194.303 -2.16484 -1.29966 0
M  V30 1960 C 195.616 -2.30312 1.9333 0
M  V30 1961 C 197.164 -2.43906 1.9616 0
M  V30 1962 C 197.639 -3.41496 3.05195 0
M  V30 1963 N 199.13 -3.49053 3.04494 0
M  V30 1964 C 199.865 -4.24471 3.85502 0
M  V30 1965 N 199.361 -5.02966 4.76442 0
M  V30 1966 N 201.154 -4.19864 3.73725 0
M  V30 1967 H 193.305 -0.733246 1.99342 0
M  V30 1968 H 195.568 -0.385234 0.866198 0
M  V30 1969 H 195.274 -1.94933 2.92735 0
M  V30 1970 H 195.148 -3.30421 1.81939 0
M  V30 1971 H 197.535 -2.78567 0.973886 0
M  V30 1972 H 197.616 -1.4369 2.11629 0
M  V30 1973 H 197.26 -3.07565 4.04186 0
M  V30 1974 H 197.19 -4.41539 2.86968 0
M  V30 1975 H 199.681 -2.93053 2.38596 0
M  V30 1976 H 199.994 -5.57846 5.34815 0
M  V30 1977 H 198.339 -5.02167 4.80472 0
M  V30 1978 H 201.53 -3.57623 3.02032 0
M  V30 1979 H 201.703 -4.78386 4.37093 0
M  V30 1980 N 195.109 -0.891671 -1.2995 0
M  V30 1981 C 196.041 -0.320695 -2.26945 0
M  V30 1982 C 197.054 0.528497 -1.53983 0
M  V30 1983 O 198.243 0.346959 -1.75096 0
M  V30 1984 C 195.343 0.562066 -3.34207 0
M  V30 1985 C 194.516 -0.259576 -4.36629 0
M  V30 1986 C 193.575 0.554739 -5.23268 0
M  V30 1987 O 192.601 -0.0249311 -5.69195 0
M  V30 1988 N 193.803 1.8625 -5.4981 0
M  V30 1989 H 196.568 -1.15432 -2.76578 0
M  V30 1990 H 194.129 -0.755336 -1.432 0
M  V30 1991 H 196.121 1.11304 -3.89093 0
M  V30 1992 H 194.691 1.29637 -2.84452 0
M  V30 1993 H 193.911 -0.991986 -3.81514 0
M  V30 1994 H 195.199 -0.822564 -5.02107 0
M  V30 1995 H 194.597 2.35628 -5.14292 0
M  V30 1996 H 193.154 2.36078 -6.07545 0
M  V30 1997 N 196.587 1.43421 -0.653314 0
M  V30 1998 C 198.003 1.56341 -0.320886 0
M  V30 1999 C 198.203 1.63696 1.17499 0
M  V30 2000 O 197.259 1.59208 1.95982 0
M  V30 2001 C 198.572 2.82424 -1.03233 0
M  V30 2002 C 200.12 2.96168 -1.01259 0
M  V30 2003 C 200.595 4.25084 -1.70492 0
M  V30 2004 N 202.086 4.31948 -1.67257 0
M  V30 2005 C 202.821 5.30466 -2.17701 0
M  V30 2006 N 202.317 6.35261 -2.76434 0
M  V30 2007 N 204.11 5.2212 -2.082 0
M  V30 2008 H 196.261 1.3689 -1.62403 0
M  V30 2009 H 198.524 0.657455 -0.682977 0
M  V30 2010 H 198.23 2.83053 -2.08744 0
M  V30 2011 H 198.104 3.72653 -0.583948 0
M  V30 2012 H 200.491 2.9508 0.0341235 0
M  V30 2013 H 200.572 2.07229 -1.49966 0
M  V30 2014 H 200.216 4.26932 -2.7512 0
M  V30 2015 H 200.146 5.1292 -1.19251 0
M  V30 2016 H 202.637 3.56838 -1.24398 0
M  V30 2017 H 202.95 7.06754 -3.12601 0
M  V30 2018 H 201.295 6.35884 -2.80495 0
M  V30 2019 H 204.486 4.39166 -1.62021 0
M  V30 2020 H 204.659 5.98739 -2.47822 0
M  V30 2021 N 198.065 0.39524 1.52563 0
M  V30 2022 C 198.995 -0.428384 2.29537 0
M  V30 2023 C 199.976 -1.05831 1.33169 0
M  V30 2024 O 201.161 -1.06995 1.62067 0
M  V30 2025 C 198.291 -1.55274 3.10656 0
M  V30 2026 C 197.245 -1.04855 4.14957 0
M  V30 2027 C 196.571 -2.26543 4.84337 0
M  V30 2028 C 197.871 -0.112324 5.22179 0
M  V30 2029 H 199.565 0.213867 2.98635 0
M  V30 2030 H 197.111 0.104298 1.43622 0
M  V30 2031 H 199.064 -2.1358 3.63265 0
M  V30 2032 H 197.788 -2.22266 2.39302 0
M  V30 2033 H 196.447 -0.487985 3.63338 0
M  V30 2034 H 196.095 -2.92059 4.09525 0
M  V30 2035 H 195.795 -1.93466 5.54837 0
M  V30 2036 H 197.319 -2.85481 5.39753 0
M  V30 2037 H 198.733 -0.603752 5.70112 0
M  V30 2038 H 197.13 0.128968 5.99961 0
M  V30 2039 H 198.2 0.837052 4.77621 0
M  V30 2040 N 199.544 -1.57102 0.125237 0
M  V30 2041 C 200.454 -2.19191 -0.8362 0
M  V30 2042 C 201.47 -1.16985 -1.28805 0
M  V30 2043 O 202.646 -1.49479 -1.34974 0
M  V30 2044 C 199.711 -2.78407 -2.06617 0
M  V30 2045 C 198.772 -3.9567 -1.66565 0
M  V30 2046 C 198.005 -4.52052 -2.83698 0
M  V30 2047 O 198.228 -4.07326 -3.99302 0
M  V30 2048 O 197.162 -5.42645 -2.60423 0
M  V30 2049 H 200.988 -3.01816 -0.337776 0
M  V30 2050 H 198.573 -1.4906 -0.100695 0
M  V30 2051 H 200.455 -3.16129 -2.7864 0
M  V30 2052 H 199.13 -1.9881 -2.55453 0
M  V30 2053 H 198.037 -3.62705 -0.916296 0
M  V30 2054 H 199.37 -4.76722 -1.22464 0
M  V30 2055 N 201.022 0.148545 -1.56898 0
M  V30 2056 C 201.932 1.20293 -2.01412 0
M  V30 2057 C 202.948 1.47107 -0.929273 0
M  V30 2058 O 204.124 1.58807 -1.23863 0
M  V30 2059 C 201.189 2.51682 -2.38447 0
M  V30 2060 C 200.25 2.32529 -3.60872 0
M  V30 2061 C 199.483 3.57653 -3.96132 0
M  V30 2062 O 199.706 4.63771 -3.32073 0
M  V30 2063 O 198.64 3.50408 -4.89385 0
M  V30 2064 H 202.466 0.855025 -2.91416 0
M  V30 2065 H 200.051 0.357151 -1.45068 0
M  V30 2066 H 201.933 3.29147 -2.63135 0
M  V30 2067 H 200.608 2.86006 -1.51599 0
M  V30 2068 H 199.515 1.53019 -3.41373 0
M  V30 2069 H 200.848 2.03121 -4.48333 0
M  V30 2070 N 202.5 1.5196 0.417844 0
M  V30 2071 C 203.749 1.6482 1.16264 0
M  V30 2072 C 204.062 0.379886 1.91876 0
M  V30 2073 O 205.268 0.388154 2.68711 0
M  V30 2074 C 203.724 2.91161 2.1155 0
M  V30 2075 C 203.332 4.25068 1.41495 0
M  V30 2076 C 205.076 3.13383 2.86341 0
M  V30 2077 C 202.983 5.42541 2.35379 0
M  V30 2078 H 201.913 0.613954 0.437694 0
M  V30 2079 H 204.564 1.78442 0.427871 0
M  V30 2080 H 202.946 2.71218 2.88543 0
M  V30 2081 H 204.12 4.55463 0.699263 0
M  V30 2082 H 202.435 4.0888 0.787792 0
M  V30 2083 H 205.032 3.98324 3.5671 0
M  V30 2084 H 205.375 2.27256 3.48798 0
M  V30 2085 H 205.908 3.33757 2.1645 0
M  V30 2086 H 202.647 6.30987 1.77582 0
M  V30 2087 H 202.167 5.16497 3.04945 0
M  V30 2088 H 203.846 5.75272 2.96093 0
M  V30 2089 N 203.978 -0.674533 1.42435 0
M  V30 2090 C 205.206 -1.46283 1.46317 0
M  V30 2091 C 205.621 -1.88653 0.0745836 0
M  V30 2092 O 204.978 -1.58151 -0.91074 0
M  V30 2093 C 205.029 -2.71178 2.3905 0
M  V30 2094 O 204.75 -2.30586 3.72507 0
M  V30 2095 C 206.251 -3.64738 2.51955 0
M  V30 2096 H 203.471 -0.450104 0.497642 0
M  V30 2097 H 206.015 -0.828792 1.86953 0
M  V30 2098 H 204.17 -3.3077 2.01667 0
M  V30 2099 H 204.584 -3.11241 4.22172 0
M  V30 2100 H 206.058 -4.49096 3.20962 0
M  V30 2101 H 206.535 -4.10656 1.55752 0
M  V30 2102 H 207.141 -3.11038 2.90061 0
M  V30 2103 N 205.456 -1.28612 -0.910864 0
M  V30 2104 C 206.704 -1.15705 -1.65701 0
M  V30 2105 C 207.025 0.29416 -1.92769 0
M  V30 2106 O 206.295 1.20331 -1.54588 0
M  V30 2107 H 204.875 -0.425216 -0.614167 0
M  V30 2108 H 207.537 -1.61381 -1.0928 0
M  V30 2109 H 206.633 -1.6988 -2.61815 0
M  V30 2110 N 206.934 1.1197 -1.10907 0
M  V30 2111 C 207.884 2.15946 -0.731538 0
M  V30 2112 C 208.868 1.58758 0.261699 0
M  V30 2113 O 210.06 1.76863 0.0696722 0
M  V30 2114 C 207.189 3.42877 -0.170299 0
M  V30 2115 C 206.275 4.07037 -1.19087 0
M  V30 2116 N 206.666 4.46135 -2.38322 0
M  V30 2117 C 204.964 4.33884 -1.03252 0
M  V30 2118 C 205.665 4.96331 -3.03366 0
M  V30 2119 N 204.641 4.9214 -2.30865 0
M  V30 2120 H 208.443 2.43947 -1.63912 0
M  V30 2121 H 205.957 1.28927 -0.987505 0
M  V30 2122 H 207.954 4.16732 0.118271 0
M  V30 2123 H 206.614 3.16343 0.731935 0
M  V30 2124 H 207.625 4.38345 -2.75815 0
M  V30 2125 H 204.302 4.17084 -0.186256 0
M  V30 2126 H 205.692 5.36257 -4.04818 0
M  V30 2127 N 208.412 0.89855 1.29475 0
M  V30 2128 C 209.342 0.39201 2.30186 0
M  V30 2129 C 210.323 -0.532359 1.61555 0
M  V30 2130 O 211.508 -0.443331 1.89072 0
M  V30 2131 C 208.638 -0.382353 3.45189 0
M  V30 2132 C 207.592 0.451483 4.25612 0
M  V30 2133 C 206.918 -0.450307 5.328 0
M  V30 2134 C 208.218 1.70079 4.93832 0
M  V30 2135 H 209.912 1.23362 2.72804 0
M  V30 2136 H 207.458 0.594638 1.31149 0
M  V30 2137 H 209.411 -0.747451 4.14718 0
M  V30 2138 H 208.135 -1.25774 3.01411 0
M  V30 2139 H 206.794 0.798897 3.57789 0
M  V30 2140 H 206.442 -1.32379 4.85268 0
M  V30 2141 H 206.142 0.103902 5.87508 0
M  V30 2142 H 207.666 -0.811623 6.05182 0
M  V30 2143 H 209.08 1.40549 5.55805 0
M  V30 2144 H 207.477 2.19623 5.58467 0
M  V30 2145 H 208.547 2.43744 4.19186 0
M  V30 2146 N 209.89 -1.43072 0.660911 0
M  V30 2147 C 210.84 -2.27948 -0.04847 0
M  V30 2148 C 211.824 -1.40325 -0.787246 0
M  V30 2149 O 213.016 -1.63893 -0.668446 0
M  V30 2150 C 210.145 -3.28143 -1.00881 0
M  V30 2151 C 209.231 -4.23252 -0.268108 0
M  V30 2152 N 209.622 -5.00656 0.719528 0
M  V30 2153 C 207.92 -4.43092 -0.508493 0
M  V30 2154 C 208.621 -5.70019 1.15988 0
M  V30 2155 N 207.597 -5.41364 0.492584 0
M  V30 2156 H 211.399 -2.85213 0.709279 0
M  V30 2157 H 208.913 -1.54869 0.488822 0
M  V30 2158 H 210.91 -3.87736 -1.53188 0
M  V30 2159 H 209.57 -2.7244 -1.76654 0
M  V30 2160 H 210.581 -5.06115 1.09855 0
M  V30 2161 H 207.258 -3.98449 -1.24679 0
M  V30 2162 H 208.648 -6.4214 1.97751 0
M  V30 2163 N 211.368 -0.403325 -1.52352 0
M  V30 2164 C 212.315 0.425011 -2.26853 0
M  V30 2165 C 213.285 1.04598 -1.29029 0
M  V30 2166 O 214.47 1.07135 -1.57882 0
M  V30 2167 C 211.61 1.53888 -3.08889 0
M  V30 2168 C 210.723 0.939396 -4.21663 0
M  V30 2169 C 209.858 2.02547 -4.91068 0
M  V30 2170 C 208.897 1.40263 -5.95813 0
M  V30 2171 N 208.034 2.4286 -6.58759 0
M  V30 2172 H 212.874 -0.21674 -2.97211 0
M  V30 2173 H 210.411 -0.118722 -1.4662 0
M  V30 2174 H 212.369 2.19558 -3.54753 0
M  V30 2175 H 210.999 2.15074 -2.40714 0
M  V30 2176 H 210.051 0.171898 -3.80011 0
M  V30 2177 H 211.363 0.44436 -4.96817 0
M  V30 2178 H 210.517 2.75958 -5.40308 0
M  V30 2179 H 209.256 2.55415 -4.15469 0
M  V30 2180 H 208.261 0.653833 -5.45898 0
M  V30 2181 H 209.486 0.881719 -6.73352 0
M  V30 2182 H 207.432 2.94871 -5.85992 0
M  V30 2183 H 207.349 1.98152 -7.2957 0
M  V30 2184 H 208.617 3.15858 -7.12639 0
M  V30 2185 N 212.846 1.57033 -0.133567 0
M  V30 2186 C 213.809 2.14897 0.796995 0
M  V30 2187 C 214.809 1.0874 1.18458 0
M  V30 2188 O 215.999 1.34446 1.1077 0
M  V30 2189 C 213.131 2.70112 2.07973 0
M  V30 2190 H 214.324 2.98457 0.293873 0
M  V30 2191 H 211.877 1.55871 0.115787 0
M  V30 2192 H 212.612 1.9018 2.62682 0
M  V30 2193 H 212.397 3.47764 1.81115 0
M  V30 2194 H 213.887 3.14738 2.74462 0
M  V30 2195 N 214.325 -0.140222 1.56975 0
M  V30 2196 C 215.272 -1.17292 1.98774 0
M  V30 2197 C 216.242 -1.4232 0.856408 0
M  V30 2198 O 217.427 -1.54541 1.119 0
M  V30 2199 C 214.567 -2.49973 2.37923 0
M  V30 2200 C 213.68 -2.32062 3.64378 0
M  V30 2201 C 212.815 -3.57825 3.926 0
M  V30 2202 C 211.854 -3.3498 5.12303 0
M  V30 2203 N 210.991 -4.52891 5.36502 0
M  V30 2204 H 215.831 -0.809472 2.86795 0
M  V30 2205 H 213.368 -0.388237 1.41884 0
M  V30 2206 H 215.326 -3.27346 2.58652 0
M  V30 2207 H 213.956 -2.84252 1.52972 0
M  V30 2208 H 213.008 -1.45711 3.51387 0
M  V30 2209 H 214.32 -2.11145 4.51906 0
M  V30 2210 H 213.474 -4.43624 4.13863 0
M  V30 2211 H 212.213 -3.81753 3.03506 0
M  V30 2212 H 211.218 -2.4757 4.90906 0
M  V30 2213 H 212.443 -3.12444 6.02956 0
M  V30 2214 H 210.389 -4.76979 4.50363 0
M  V30 2215 H 210.306 -4.35001 6.18312 0
M  V30 2216 H 211.574 -5.39884 5.62268 0
M  V30 2217 N 215.803 -1.52179 -0.40978 0
M  V30 2218 C 216.735 -1.71703 -1.51825 0
M  V30 2219 C 217.748 -0.597445 -1.51441 0
M  V30 2220 O 218.937 -0.872582 -1.55719 0
M  V30 2221 C 216.037 -1.74171 -2.90719 0
M  V30 2222 C 215.21 -3.03156 -3.15302 0
M  V30 2223 C 214.269 -2.97445 -4.34065 0
M  V30 2224 O 213.295 -3.71352 -4.31377 0
M  V30 2225 N 214.497 -2.15191 -5.39141 0
M  V30 2226 H 217.262 -2.67334 -1.35472 0
M  V30 2227 H 214.823 -1.50409 -0.599069 0
M  V30 2228 H 216.815 -1.67884 -3.68235 0
M  V30 2229 H 215.385 -0.860166 -3.00533 0
M  V30 2230 H 214.605 -3.23097 -2.25836 0
M  V30 2231 H 215.893 -3.88484 -3.28569 0
M  V30 2232 H 215.291 -1.54573 -5.44173 0
M  V30 2233 H 213.848 -2.1476 -6.15403 0
M  V30 2234 N 217.281 0.66697 -1.42791 0
M  V30 2235 C 218.211 1.79218 -1.49677 0
M  V30 2236 C 219.192 1.66405 -0.352623 0
M  V30 2237 O 220.377 1.85708 -0.567993 0
M  V30 2238 C 217.507 3.17565 -1.40605 0
M  V30 2239 C 216.461 3.45124 -2.53127 0
M  V30 2240 C 215.787 4.83127 -2.29112 0
M  V30 2241 C 217.087 3.41236 -3.95418 0
M  V30 2242 H 218.781 1.73713 -2.43853 0
M  V30 2243 H 216.327 0.83432 -1.17367 0
M  V30 2244 H 218.28 3.96022 -1.44029 0
M  V30 2245 H 217.004 3.23767 -0.429271 0
M  V30 2246 H 215.663 2.69031 -2.49034 0
M  V30 2247 H 215.311 4.85988 -1.29709 0
M  V30 2248 H 215.011 5.02528 -3.04531 0
M  V30 2249 H 216.535 5.63859 -2.34297 0
M  V30 2250 H 217.949 4.09651 -4.01073 0
M  V30 2251 H 216.346 3.72173 -4.70752 0
M  V30 2252 H 217.416 2.39665 -4.21532 0
M  V30 2253 N 218.759 1.29093 0.90403 0
M  V30 2254 C 220.007 1.16583 1.65085 0
M  V30 2255 C 220.328 -0.283933 1.92922 0
M  V30 2256 O 219.598 -1.19509 1.55224 0
M  V30 2257 H 218.178 0.428467 0.611903 0
M  V30 2258 H 220.84 1.61959 1.08422 0
M  V30 2259 H 219.936 1.71266 2.6091 0
M  V30 2260 N 220.237 -1.11381 1.11499 0
M  V30 2261 C 221.167 -2.19509 0.796125 0
M  V30 2262 C 222.148 -1.68458 -0.235796 0
M  V30 2263 O 223.333 -1.93947 -0.0991344 0
M  V30 2264 C 220.463 -3.46475 0.239205 0
M  V30 2265 C 219.417 -4.10744 1.20307 0
M  V30 2266 C 218.743 -5.32293 0.50683 0
M  V30 2267 C 220.043 -4.55597 2.55399 0
M  V30 2268 H 221.737 -2.46439 1.70024 0
M  V30 2269 H 219.283 -1.18446 0.818935 0
M  V30 2270 H 221.236 -4.214 0.00392006 0
M  V30 2271 H 219.96 -3.19006 -0.700206 0
M  V30 2272 H 218.619 -3.37813 1.42399 0
M  V30 2273 H 218.267 -5.01095 -0.437408 0
M  V30 2274 H 217.967 -5.76243 1.1497 0
M  V30 2275 H 219.491 -6.09956 0.280351 0
M  V30 2276 H 220.905 -5.21841 2.37391 0
M  V30 2277 H 219.302 -5.10363 3.15673 0
M  V30 2278 H 220.372 -3.69013 3.14575 0
M  V30 2279 N 221.715 -0.905404 -1.28997 0
M  V30 2280 C 222.662 -0.385892 -2.27551 0
M  V30 2281 C 223.632 0.535113 -1.57244 0
M  V30 2282 O 224.817 0.459119 -1.85194 0
M  V30 2283 C 221.957 0.375461 -3.43051 0
M  V30 2284 C 221.07 -0.577092 -4.28128 0
M  V30 2285 C 220.205 0.201879 -5.30816 0
M  V30 2286 C 219.244 -0.744829 -6.07551 0
M  V30 2287 N 218.381 9.42587e-05 -7.021 0
M  V30 2288 H 223.221 -1.23139 -2.71368 0
M  V30 2289 H 220.758 -0.618542 -1.33463 0
M  V30 2290 H 222.716 0.832992 -4.088 0
M  V30 2291 H 221.346 1.18537 -3.00248 0
M  V30 2292 H 220.398 -1.15315 -3.62501 0
M  V30 2293 H 221.71 -1.30152 -4.8152 0
M  V30 2294 H 220.864 0.720351 -6.02408 0
M  V30 2295 H 219.603 0.959413 -4.7817 0
M  V30 2296 H 218.608 -1.27475 -5.34818 0
M  V30 2297 H 219.833 -1.50178 -6.62286 0
M  V30 2298 H 217.779 0.739791 -6.51815 0
M  V30 2299 H 217.696 -0.664321 -7.53076 0
M  V30 2300 H 218.964 0.498644 -7.77903 0
M  V30 2301 N 223.193 1.4272 -0.668489 0
M  V30 2302 C 224.141 2.32586 0.0254857 0
M  V30 2303 C 225.135 1.49471 0.797176 0
M  V30 2304 O 226.341 1.65583 0.705853 0
M  V30 2305 H 222.716 0.751514 0.0270339 0
M  V30 2306 H 224.687 2.88823 -0.749936 0
M  V30 2307 C 223.436 3.3397 0.967427 0
M  V30 2308 H 222.759 3.97961 0.383048 0
M  V30 2309 H 224.199 3.9945 1.42181 0
M  V30 2310 C 222.658 2.65744 2.0708 0
M  V30 2311 O 223.188 2.48454 3.15648 0
M  V30 2312 N 221.394 2.2487 1.8407 0
M  V30 2313 H 220.941 2.39132 0.95778 0
M  V30 2314 H 220.899 1.79552 2.58086 0
M  V30 2315 N 224.671 0.411399 1.52136 0
M  V30 2316 C 225.92 -0.165009 2.01024 0
M  V30 2317 C 226.233 -1.4603 1.30133 0
M  V30 2318 O 227.439 -2.1181 1.69849 0
M  V30 2319 C 225.895 -0.344618 3.58246 0
M  V30 2320 C 225.503 0.938716 4.38055 0
M  V30 2321 C 227.247 -0.876195 4.15359 0
M  V30 2322 C 225.154 0.726172 5.86925 0
M  V30 2323 H 224.084 -0.0654407 0.751155 0
M  V30 2324 H 226.735 0.537192 1.75461 0
M  V30 2325 H 225.117 -1.10921 3.80148 0
M  V30 2326 H 226.291 1.70963 4.27912 0
M  V30 2327 H 224.606 1.39688 3.92271 0
M  V30 2328 H 227.203 -1.05128 5.24263 0
M  V30 2329 H 227.546 -1.85152 3.7286 0
M  V30 2330 H 228.079 -0.170607 3.97434 0
M  V30 2331 H 224.818 1.67312 6.33788 0
M  V30 2332 H 224.338 -0.00540283 5.998 0
M  V30 2333 H 226.017 0.369231 6.45946 0
M  V30 2334 N 226.149 -1.5696 0.141893 0
M  V30 2335 C 227.082 -2.12271 -0.837627 0
M  V30 2336 C 228.06 -1.04495 -1.24578 0
M  V30 2337 O 229.244 -1.32293 -1.34278 0
M  V30 2338 C 226.371 -2.63822 -2.12404 0
M  V30 2339 C 225.417 -3.83698 -1.86221 0
M  V30 2340 S 226.25 -5.24948 -1.05781 0
M  V30 2341 C 227.406 -5.79884 -2.35552 0
M  V30 2342 H 227.639 -2.95023 -0.367249 0
M  V30 2343 H 225.172 -1.54231 -0.0723014 0
M  V30 2344 H 227.13 -2.94175 -2.86307 0
M  V30 2345 H 225.791 -1.8121 -2.56557 0
M  V30 2346 H 224.984 -4.17995 -2.81596 0
M  V30 2347 H 224.586 -3.5408 -1.20429 0
M  V30 2348 H 226.878 -5.91005 -3.31239 0
M  V30 2349 H 227.821 -6.77544 -2.05767 0
M  V30 2350 H 228.229 -5.08095 -2.45967 0
M  V30 2351 N 227.627 0.131896 -1.57047 0
M  V30 2352 C 228.59 1.14638 -1.98471 0
M  V30 2353 C 229.59 1.35029 -0.873148 0
M  V30 2354 O 230.78 1.31764 -1.13946 0
M  V30 2355 C 227.912 2.50358 -2.31373 0
M  V30 2356 H 229.105 0.79064 -2.8929 0
M  V30 2357 H 226.658 0.375761 -1.51716 0
M  V30 2358 H 227.393 2.90876 -1.43393 0
M  V30 2359 H 227.178 2.36915 -3.12432 0
M  V30 2360 H 228.668 3.23395 -2.64207 0
M  V30 2361 N 229.106 1.52395 0.401703 0
M  V30 2362 C 230.036 1.79231 1.49661 0
M  V30 2363 C 231.017 0.643654 1.57452 0
M  V30 2364 O 232.202 0.889989 1.72606 0
M  V30 2365 C 229.332 1.94971 2.87409 0
M  V30 2366 C 228.286 3.10604 2.94465 0
M  V30 2367 C 227.612 3.11577 4.34538 0
M  V30 2368 C 228.912 4.49921 2.6527 0
M  V30 2369 H 230.606 2.70917 1.27454 0
M  V30 2370 H 228.152 1.30362 0.6117 0
M  V30 2371 H 230.105 2.12328 3.63999 0
M  V30 2372 H 228.829 0.999632 3.10926 0
M  V30 2373 H 227.488 2.93009 2.20321 0
M  V30 2374 H 227.136 2.14277 4.55076 0
M  V30 2375 H 226.836 3.89247 4.40183 0
M  V30 2376 H 228.36 3.31073 5.13053 0
M  V30 2377 H 229.774 4.67683 3.31581 0
M  V30 2378 H 228.171 5.29564 2.82281 0
M  V30 2379 H 229.241 4.57507 1.60671 0
M  V30 2380 N 230.584 -0.659388 1.43143 0
M  V30 2381 C 232 -0.974337 1.26407 0
M  V30 2382 C 232.2 -2.007 0.179341 0
M  V30 2383 O 231.256 -2.4856 -0.444295 0
M  V30 2384 C 232.569 -1.46447 2.62628 0
M  V30 2385 C 234.117 -1.58144 2.7011 0
M  V30 2386 C 234.592 -2.1055 4.06734 0
M  V30 2387 N 236.083 -2.17861 4.08767 0
M  V30 2388 C 236.818 -2.59519 5.1131 0
M  V30 2389 N 236.314 -3.00518 6.24228 0
M  V30 2390 N 238.107 -2.59404 4.98664 0
M  V30 2391 H 230.258 0.0240528 2.12386 0
M  V30 2392 H 232.521 -0.0518065 0.946583 0
M  V30 2393 H 232.227 -0.780123 3.42939 0
M  V30 2394 H 232.101 -2.44058 2.87603 0
M  V30 2395 H 234.488 -2.25682 1.90136 0
M  V30 2396 H 234.569 -0.589828 2.48907 0
M  V30 2397 H 234.213 -1.43616 4.87172 0
M  V30 2398 H 234.143 -3.10531 4.25298 0
M  V30 2399 H 236.634 -1.88975 3.27257 0
M  V30 2400 H 236.947 -3.31036 6.98309 0
M  V30 2401 H 235.292 -2.98337 6.2771 0
M  V30 2402 H 238.483 -2.26747 4.09516 0
M  V30 2403 H 238.656 -2.91548 5.78709 0
M  V30 2404 N 232.062 -1.29571 -0.897171 0
M  V30 2405 C 233.31 -1.17456 -1.64464 0
M  V30 2406 C 233.631 0.273698 -1.9307 0
M  V30 2407 O 232.901 1.18684 -1.55855 0
M  V30 2408 H 231.481 -0.431706 -0.609622 0
M  V30 2409 H 234.143 -1.62531 -1.07562 0
M  V30 2410 H 233.239 -1.72648 -2.59998 0
M  V30 2411 N 233.54 1.10788 -1.12088 0
M  V30 2412 C 234.817 1.79136 -0.785476 0
M  V30 2413 C 235.197 1.98246 0.725377 0
M  V30 2414 O 234.545 1.57258 1.65778 0
M  V30 2415 C 234.755 3.12375 -1.55636 0
M  V30 2416 C 236.103 3.8731 -1.74001 0
M  V30 2417 O 237.127 3.22085 -1.52117 0
M  V30 2418 O 235.986 5.04369 -2.10415 0
M  V30 2419 H 233.08 0.776226 -0.285311 0
M  V30 2420 H 235.626 1.1747 -1.2247 0
M  V30 2421 H 234.398 2.93863 -2.5838 0
M  V30 2422 H 234.021 3.81758 -1.11114 0
M  V30 2423 N 235.018 0.912232 1.28515 0
M  V30 2424 C 236.429 0.591352 1.77087 0
M  V30 2425 C 236.78 -0.8933 1.74684 0
M  V30 2426 O 235.905 -1.69876 1.34056 0
M  V30 2427 C 236.5 1.06668 3.2157 0
M  V30 2428 C 235.059 0.79675 3.67871 0
M  V30 2429 C 234.206 1.23427 2.48316 0
M  V30 2430 H 237.157 1.09365 1.15 0
M  V30 2431 H 237.178 0.407455 3.78312 0
M  V30 2432 H 236.69 2.14726 3.23287 0
M  V30 2433 H 234.791 -0.270679 3.71616 0
M  V30 2434 H 234.904 1.40343 4.58084 0
M  V30 2435 H 233.268 0.653036 2.46186 0
M  V30 2436 H 234.051 2.32316 2.52753 0
M  V30 2437 N 236.496 -1.42363 0.676048 0
M  V30 2438 C 237.745 -2.00745 0.196037 0
M  V30 2439 C 238.058 -1.54083 -1.20489 0
M  V30 2440 O 239.264 -2.04891 -1.78134 0
M  V30 2441 C 237.72 -3.58651 0.299616 0
M  V30 2442 C 237.328 -4.143 1.70468 0
M  V30 2443 C 239.072 -4.24326 -0.121619 0
M  V30 2444 C 236.979 -5.64574 1.76096 0
M  V30 2445 H 235.909 -0.750787 0.0695301 0
M  V30 2446 H 238.56 -1.63072 0.841412 0
M  V30 2447 H 236.942 -3.93833 -0.413673 0
M  V30 2448 H 238.116 -3.90575 2.44515 0
M  V30 2449 H 236.431 -3.61081 2.07387 0
M  V30 2450 H 239.028 -5.34607 -0.0997362 0
M  V30 2451 H 239.371 -3.99897 -1.15708 0
M  V30 2452 H 239.904 -3.94108 0.540706 0
M  V30 2453 H 236.643 -5.93804 2.77628 0
M  V30 2454 H 236.163 -5.90286 1.06406 0
M  V30 2455 H 237.842 -6.29013 1.51496 0
M  V30 2456 N 237.974 -0.419461 -1.51915 0
M  V30 2457 C 239.222 0.152637 -2.01523 0
M  V30 2458 C 239.543 1.44762 -1.30649 0
M  V30 2459 O 238.813 1.90997 -0.435535 0
M  V30 2460 H 237.393 0.0593966 -0.744635 0
M  V30 2461 H 240.055 -0.558073 -1.86739 0
M  V30 2462 H 239.151 0.341369 -3.10227 0
M  V30 2463 N 239.452 1.56882 -0.150215 0
M  V30 2464 C 240.729 1.87844 0.545327 0
M  V30 2465 C 241.109 1.0567 1.82749 0
M  V30 2466 O 240.457 0.144442 2.28043 0
M  V30 2467 C 240.667 3.39526 0.80767 0
M  V30 2468 C 242.015 4.08814 1.14703 0
M  V30 2469 O 243.039 3.44723 0.896917 0
M  V30 2470 O 241.898 5.22004 1.61784 0
M  V30 2471 H 238.992 0.778677 0.278553 0
M  V30 2472 H 241.538 1.68666 -0.187068 0
M  V30 2473 H 240.31 3.91173 -0.0996096 0
M  V30 2474 H 239.933 3.64243 1.59413 0
M  V30 2475 N 240.93 -0.123565 1.57115 0
M  V30 2476 C 241.862 -1.17739 1.96648 0
M  V30 2477 C 242.875 -1.37906 0.865201 0
M  V30 2478 O 244.064 -1.37062 1.14351 0
M  V30 2479 C 241.164 -2.53821 2.24562 0
M  V30 2480 C 240.337 -2.54317 3.55867 0
M  V30 2481 C 239.396 -3.72112 3.72047 0
M  V30 2482 O 238.422 -3.55907 4.44206 0
M  V30 2483 N 239.624 -4.90498 3.10471 0
M  V30 2484 H 242.389 -0.841147 2.87654 0
M  V30 2485 H 239.95 -0.31289 1.58848 0
M  V30 2486 H 241.942 -3.31175 2.32606 0
M  V30 2487 H 240.512 -2.79645 1.39705 0
M  V30 2488 H 239.732 -1.62711 3.59053 0
M  V30 2489 H 241.02 -2.51701 4.42181 0
M  V30 2490 H 240.418 -5.06567 2.51806 0
M  V30 2491 H 238.975 -5.65544 3.24043 0
M  V30 2492 N 242.408 -1.52605 -0.393616 0
M  V30 2493 C 243.654 -1.68624 -1.13743 0
M  V30 2494 C 244.009 -0.418687 -1.87789 0
M  V30 2495 O 243.302 0.58747 -1.82371 0
M  V30 2496 C 243.496 -2.85721 -2.14705 0
M  V30 2497 C 243.325 -4.23742 -1.50575 0
M  V30 2498 C 242.095 -4.89033 -1.2718 0
M  V30 2499 C 244.293 -5.05293 -0.958311 0
M  V30 2500 N 242.275 -6.11048 -0.591058 0
M  V30 2501 C 243.646 -6.18673 -0.405367 0
M  V30 2502 C 245.701 -4.90517 -0.854274 0
M  V30 2503 C 244.404 -7.18895 0.241434 0
M  V30 2504 C 246.43 -5.90986 -0.221301 0
M  V30 2505 C 245.792 -7.03669 0.320894 0
M  V30 2506 H 241.891 -0.670556 -0.402342 0
M  V30 2507 H 244.475 -1.89946 -0.427607 0
M  V30 2508 H 242.646 -2.65987 -2.83029 0
M  V30 2509 H 244.378 -2.90699 -2.8156 0
M  V30 2510 H 241.133 -4.47672 -1.54554 0
M  V30 2511 H 241.557 -6.76474 -0.266862 0
M  V30 2512 H 246.199 -4.03612 -1.25926 0
M  V30 2513 H 243.917 -8.05413 0.658448 0
M  V30 2514 H 247.503 -5.81626 -0.142111 0
M  V30 2515 H 246.383 -7.80078 0.802956 0
M  V30 2516 N 243.887 0.651787 -1.4349 0
M  V30 2517 C 244.797 1.79368 -1.5121 0
M  V30 2518 C 245.813 1.69361 -0.399093 0
M  V30 2519 O 246.989 1.90505 -0.653431 0
M  V30 2520 C 244.054 3.15653 -1.43401 0
M  V30 2521 C 243.115 3.37446 -2.65384 0
M  V30 2522 C 242.348 4.67229 -2.57939 0
M  V30 2523 O 242.571 5.46676 -1.62792 0
M  V30 2524 O 241.505 4.90773 -3.48462 0
M  V30 2525 H 245.331 1.7581 -2.47638 0
M  V30 2526 H 242.916 0.810447 -1.25507 0
M  V30 2527 H 244.798 3.96935 -1.41494 0
M  V30 2528 H 243.473 3.19798 -0.501085 0
M  V30 2529 H 242.38 2.55923 -2.72863 0
M  V30 2530 H 243.713 3.38148 -3.57654 0
M  V30 2531 N 245.365 1.30045 0.890287 0
M  V30 2532 C 246.275 1.17885 2.02831 0
M  V30 2533 C 247.291 0.0999609 1.73713 0
M  V30 2534 O 248.467 0.313867 1.98939 0
M  V30 2535 C 245.532 0.866079 3.35708 0
M  V30 2536 C 244.593 2.02979 3.78283 0
M  V30 2537 C 243.826 1.73184 5.0482 0
M  V30 2538 O 244.049 0.657237 5.66601 0
M  V30 2539 O 242.983 2.58267 5.43674 0
M  V30 2540 H 246.809 2.13474 2.16015 0
M  V30 2541 H 244.394 1.09587 1.01543 0
M  V30 2542 H 246.276 0.706623 4.15433 0
M  V30 2543 H 244.951 -0.0599443 3.23644 0
M  V30 2544 H 243.858 2.24454 2.99285 0
M  V30 2545 H 245.191 2.93734 3.94944 0
M  V30 2546 N 246.843 -1.10192 1.12674 0
M  V30 2547 C 247.753 -2.20172 0.810026 0
M  V30 2548 C 248.769 -1.72821 -0.202188 0
M  V30 2549 O 249.945 -2.01369 -0.0351691 0
M  V30 2550 C 247.01 -3.45631 0.272007 0
M  V30 2551 C 246.071 -4.07704 1.34447 0
M  V30 2552 C 245.304 -5.27175 0.832029 0
M  V30 2553 O 245.527 -5.69425 -0.333284 0
M  V30 2554 O 244.461 -5.80168 1.60277 0
M  V30 2555 H 248.287 -2.49701 1.72867 0
M  V30 2556 H 245.872 -1.18977 0.903597 0
M  V30 2557 H 247.754 -4.21394 -0.0230219 0
M  V30 2558 H 246.429 -3.17723 -0.619164 0
M  V30 2559 H 245.336 -3.33614 1.6927 0
M  V30 2560 H 246.669 -4.3982 2.2095 0
M  V30 2561 N 248.321 -0.919034 -1.28029 0
M  V30 2562 C 249.231 -0.416756 -2.30869 0
M  V30 2563 C 250.247 0.498235 -1.66714 0
M  V30 2564 O 251.423 0.383144 -1.97722 0
M  V30 2565 C 248.488 0.330274 -3.45123 0
M  V30 2566 C 247.549 -0.618578 -4.2482 0
M  V30 2567 C 246.782 0.0928959 -5.33619 0
M  V30 2568 O 247.005 1.31375 -5.55065 0
M  V30 2569 O 245.939 -0.574499 -5.99152 0
M  V30 2570 H 249.765 -1.27043 -2.75851 0
M  V30 2571 H 247.35 -0.684052 -1.3282 0
M  V30 2572 H 249.232 0.751972 -4.14636 0
M  V30 2573 H 247.907 1.1597 -3.02213 0
M  V30 2574 H 246.814 -1.08978 -3.57875 0
M  V30 2575 H 248.147 -1.41497 -4.71423 0
M  V30 2576 N 249.799 1.42003 -0.683588 0
M  V30 2577 C 251.047 2.01015 -0.209101 0
M  V30 2578 C 251.368 1.54365 1.19149 0
M  V30 2579 O 250.638 0.769083 1.80172 0
M  V30 2580 H 249.218 0.743294 -0.074315 0
M  V30 2581 H 251.88 1.73798 -0.882066 0
M  V30 2582 H 250.976 3.11343 -0.2172 0
M  V30 2583 N 251.277 0.427512 1.51691 0
M  V30 2584 C 252.525 -0.141948 2.01601 0
M  V30 2585 C 252.846 -1.44067 1.31414 0
M  V30 2586 O 252.116 -1.90763 0.445658 0
M  V30 2587 H 250.696 -0.0554468 0.744939 0
M  V30 2588 H 253.358 0.567968 1.86441 0
M  V30 2589 H 252.454 -0.324913 3.10404 0
M  V30 2590 N 252.755 -1.56801 0.158532 0
M  V30 2591 C 254.002 -1.9649 -0.489679 0
M  V30 2592 C 254.33 -1.04394 -1.6411 0
M  V30 2593 O 253.585 -0.0754401 -1.95555 0
M  V30 2594 C 253.884 -3.4235 -1.02623 0
M  V30 2595 C 253.55 -4.50899 0.00794526 0
M  V30 2596 C 252.212 -4.80312 0.292207 0
M  V30 2597 C 254.564 -5.16333 0.710584 0
M  V30 2598 C 251.892 -5.72461 1.28472 0
M  V30 2599 C 254.244 -6.09553 1.69199 0
M  V30 2600 C 252.908 -6.37339 1.98383 0
M  V30 2601 H 252.178 -0.719009 -0.179186 0
M  V30 2602 H 254.825 -1.8989 0.247798 0
M  V30 2603 H 253.13 -3.45838 -1.84128 0
M  V30 2604 H 254.827 -3.70393 -1.53656 0
M  V30 2605 H 251.417 -4.28015 -0.22379 0
M  V30 2606 H 255.601 -4.93732 0.504174 0
M  V30 2607 H 250.857 -5.92278 1.51714 0
M  V30 2608 H 255.031 -6.59327 2.24189 0
M  V30 2609 H 252.658 -7.08546 2.7544 0
M  V30 2610 N 254.233 0.115231 -1.57178 0
M  V30 2611 C 255.181 1.16014 -2.01602 0
M  V30 2612 C 256.175 1.42653 -0.913587 0
M  V30 2613 O 257.381 1.42571 -1.09879 0
M  V30 2614 H 253.756 0.391252 -0.642204 0
M  V30 2615 H 255.727 0.758998 -2.88586 0
M  V30 2616 C 254.476 2.47767 -2.4394 0
M  V30 2617 H 253.799 2.28108 -3.28339 0
M  V30 2618 H 255.239 3.19432 -2.78818 0
M  V30 2619 C 253.698 3.10617 -1.30455 0
M  V30 2620 O 254.228 3.96846 -0.622585 0
M  V30 2621 N 252.434 2.70553 -1.06064 0
M  V30 2622 H 251.981 2.00527 -1.61699 0
M  V30 2623 H 251.939 3.12934 -0.303284 0
M  V30 2624 N 255.711 1.52812 0.385517 0
M  V30 2625 C 256.941 1.71658 1.14966 0
M  V30 2626 C 257.349 0.436253 1.84102 0
M  V30 2627 O 256.692 -0.599313 1.73649 0
M  V30 2628 C 256.754 2.81309 2.23843 0
M  V30 2629 C 256.418 4.22313 1.74644 0
M  V30 2630 C 257.415 5.05352 1.22129 0
M  V30 2631 C 255.1 4.68648 1.80761 0
M  V30 2632 C 257.094 6.32807 0.763838 0
M  V30 2633 C 254.781 5.96086 1.34627 0
M  V30 2634 C 255.779 6.77996 0.825264 0
M  V30 2635 O 255.467 8.03045 0.370669 0
M  V30 2636 H 255.199 0.578022 0.350523 0
M  V30 2637 H 257.753 2.00263 0.456509 0
M  V30 2638 H 255.983 2.48133 2.96592 0
M  V30 2639 H 257.672 2.88524 2.85497 0
M  V30 2640 H 258.438 4.70736 1.16758 0
M  V30 2641 H 254.317 4.04979 2.20256 0
M  V30 2642 H 257.861 6.96689 0.356494 0
M  V30 2643 H 253.758 6.30205 1.39686 0
M  V30 2644 H 254.526 8.17021 0.491829 0
M  V30 2645 N 257.189 -0.644168 1.43834 0
M  V30 2646 C 258.152 -1.73857 1.49353 0
M  V30 2647 C 259.152 -1.56315 0.377112 0
M  V30 2648 O 260.342 -1.62048 0.639226 0
M  V30 2649 C 257.474 -3.12819 1.35488 0
M  V30 2650 H 258.667 -1.70342 2.46827 0
M  V30 2651 H 256.22 -0.856652 1.30733 0
M  V30 2652 H 256.955 -3.2194 0.390569 0
M  V30 2653 H 256.74 -3.26958 2.16428 0
M  V30 2654 H 258.23 -3.92606 1.42302 0
M  V30 2655 N 258.668 -1.30515 -0.883378 0
M  V30 2656 C 259.914 -1.19607 -1.63774 0
M  V30 2657 C 260.247 0.248314 -1.92606 0
M  V30 2658 O 259.522 1.17742 -1.54813 0
M  V30 2659 C 259.805 -2.02669 -2.97653 0
M  V30 2660 C 259.658 -3.55335 -2.75784 0
M  V30 2661 C 260.977 -1.86573 -3.98596 0
M  V30 2662 H 258.096 -0.435856 -0.594305 0
M  V30 2663 H 260.738 -1.60165 -1.02212 0
M  V30 2664 H 258.888 -1.68208 -3.50197 0
M  V30 2665 H 260.56 -3.99863 -2.30016 0
M  V30 2666 H 258.803 -3.79438 -2.1026 0
M  V30 2667 H 259.474 -4.08745 -3.70988 0
M  V30 2668 H 261.95 -2.16703 -3.55217 0
M  V30 2669 H 260.826 -2.47014 -4.90179 0
M  V30 2670 H 261.087 -0.825321 -4.34328 0
M  V30 2671 N 260.146 1.09593 -1.13257 0
M  V30 2672 C 261.423 1.78293 -0.804432 0
M  V30 2673 C 261.803 1.99004 0.70431 0
M  V30 2674 O 261.151 1.59007 1.641 0
M  V30 2675 C 261.361 3.10707 -1.5894 0
M  V30 2676 C 262.709 3.85443 -1.78099 0
M  V30 2677 O 263.733 3.20454 -1.55525 0
M  V30 2678 O 262.592 5.02108 -2.15753 0
M  V30 2679 H 259.686 0.773156 -0.293528 0
M  V30 2680 H 262.232 1.16164 -1.23709 0
M  V30 2681 H 261.004 2.91106 -2.61482 0
M  V30 2682 H 260.627 3.80558 -1.15157 0
M  V30 2683 N 261.624 0.925811 1.2754 0
M  V30 2684 C 262.554 0.440748 2.29303 0
M  V30 2685 C 263.535 -0.497971 1.62648 0
M  V30 2686 O 264.72 -0.403126 1.8997 0
M  V30 2687 C 261.85 -0.309048 3.45922 0
M  V30 2688 C 260.804 0.54166 4.24559 0
M  V30 2689 C 260.13 -0.337191 5.33636 0
M  V30 2690 C 261.43 1.80516 4.90114 0
M  V30 2691 H 263.124 1.29121 2.70126 0
M  V30 2692 H 260.67 0.622323 1.29858 0
M  V30 2693 H 262.623 -0.659315 4.1621 0
M  V30 2694 H 261.347 -1.19352 3.04011 0
M  V30 2695 H 260.006 0.874609 3.56014 0
M  V30 2696 H 259.654 -1.22056 4.87966 0
M  V30 2697 H 259.354 0.228497 5.87156 0
M  V30 2698 H 260.878 -0.683072 6.06767 0
M  V30 2699 H 262.292 1.52307 5.52698 0
M  V30 2700 H 260.689 2.3142 5.53683 0
M  V30 2701 H 261.759 2.52581 4.13921 0
M  V30 2702 N 263.102 -1.41638 0.69111 0
M  V30 2703 C 264.348 -2.01598 0.220519 0
M  V30 2704 C 264.681 -1.54594 -1.17535 0
M  V30 2705 O 263.956 -0.755177 -1.79241 0
M  V30 2706 C 264.239 -3.59062 0.273243 0
M  V30 2707 C 264.092 -4.16203 1.70573 0
M  V30 2708 C 265.411 -4.38546 -0.369457 0
M  V30 2709 H 262.53 -0.732468 0.0816045 0
M  V30 2710 H 265.172 -1.68445 0.878986 0
M  V30 2711 H 263.322 -3.87435 -0.287411 0
M  V30 2712 H 264.994 -3.98722 2.31989 0
M  V30 2713 H 263.237 -3.71414 2.2413 0
M  V30 2714 H 263.908 -5.25358 1.69419 0
M  V30 2715 H 266.384 -4.1596 0.107977 0
M  V30 2716 H 265.26 -5.48069 -0.302002 0
M  V30 2717 H 265.521 -4.17662 -1.44951 0
M  V30 2718 N 264.58 -0.43555 -1.51462 0
M  V30 2719 C 265.527 0.376797 -2.27703 0
M  V30 2720 C 266.497 1.01838 -1.31219 0
M  V30 2721 O 267.682 1.03762 -1.60119 0
M  V30 2722 C 264.822 1.47301 -3.12084 0
M  V30 2723 C 263.935 0.849744 -4.2356 0
M  V30 2724 C 263.07 1.92086 -4.95254 0
M  V30 2725 C 262.109 1.27593 -5.98654 0
M  V30 2726 N 261.246 2.28833 -6.63762 0
M  V30 2727 H 266.086 -0.279734 -2.96684 0
M  V30 2728 H 263.623 -0.149795 -1.46335 0
M  V30 2729 H 265.581 2.11984 -3.59331 0
M  V30 2730 H 264.211 2.0992 -2.45221 0
M  V30 2731 H 263.263 0.0912529 -3.80291 0
M  V30 2732 H 264.575 0.338878 -4.97648 0
M  V30 2733 H 263.729 2.64435 -5.46039 0
M  V30 2734 H 262.468 2.46545 -4.20793 0
M  V30 2735 H 261.473 0.537893 -5.47162 0
M  V30 2736 H 262.698 0.738693 -6.7507 0
M  V30 2737 H 260.644 2.82375 -5.92115 0
M  V30 2738 H 260.561 1.82632 -7.33608 0
M  V30 2739 H 261.829 3.00671 -7.19178 0
M  V30 2740 N 266.058 1.56714 -0.166846 0
M  V30 2741 C 267.008 2.14338 0.777382 0
M  V30 2742 C 267.992 1.07642 1.19591 0
M  V30 2743 O 269.184 1.33775 1.15902 0
M  V30 2744 C 266.313 2.78417 2.00846 0
M  V30 2745 C 265.399 3.92264 1.61212 0
M  V30 2746 N 265.79 4.97268 0.925104 0
M  V30 2747 C 264.088 4.03342 1.90346 0
M  V30 2748 C 264.789 5.77093 0.730627 0
M  V30 2749 N 263.765 5.2854 1.27067 0
M  V30 2750 H 267.567 2.9289 0.243466 0
M  V30 2751 H 265.081 1.62364 0.0339954 0
M  V30 2752 H 267.078 3.18073 2.69509 0
M  V30 2753 H 265.738 2.01344 2.54736 0
M  V30 2754 H 266.749 5.14601 0.583646 0
M  V30 2755 H 263.426 3.37368 2.45946 0
M  V30 2756 H 264.816 6.71638 0.187668 0
M  V30 2757 N 267.536 -0.106894 1.57237 0
M  V30 2758 C 268.785 -0.811163 1.8467 0
M  V30 2759 C 269.098 -1.80469 0.754342 0
M  V30 2760 O 270.304 -2.55601 0.915439 0
M  V30 2761 C 268.76 -1.49337 3.27454 0
M  V30 2762 C 268.368 -0.540217 4.44731 0
M  V30 2763 C 270.112 -2.18206 3.64124 0
M  V30 2764 C 268.019 -1.22634 5.78545 0
M  V30 2765 H 266.949 -0.306679 0.688813 0
M  V30 2766 H 269.6 -0.0639887 1.83388 0
M  V30 2767 H 267.982 -2.2876 3.23241 0
M  V30 2768 H 269.156 0.221659 4.60267 0
M  V30 2769 H 267.471 0.042146 4.16379 0
M  V30 2770 H 270.068 -2.70253 4.61376 0
M  V30 2771 H 270.411 -2.96562 2.92158 0
M  V30 2772 H 270.944 -1.45658 3.70174 0
M  V30 2773 H 267.683 -0.483832 6.53712 0
M  V30 2774 H 267.203 -1.95993 5.66874 0
M  V30 2775 H 268.882 -1.75615 6.2271 0
M  V30 2776 N 269.014 -1.53014 -0.377408 0
M  V30 2777 C 270.43 -1.42523 -0.718281 0
M  V30 2778 C 270.63 -0.55487 -1.9371 0
M  V30 2779 O 269.686 -0.0327593 -2.52479 0
M  V30 2780 C 270.999 -2.85546 -0.942539 0
M  V30 2781 C 272.547 -2.95101 -1.04329 0
M  V30 2782 C 273.022 -4.3916 -1.3001 0
M  V30 2783 N 274.513 -4.42536 -1.36806 0
M  V30 2784 C 275.248 -5.51097 -1.58364 0
M  V30 2785 N 274.744 -6.69724 -1.77317 0
M  V30 2786 N 276.537 -5.38657 -1.60638 0
M  V30 2787 H 268.688 -2.08116 0.424426 0
M  V30 2788 H 270.951 -0.939352 0.127759 0
M  V30 2789 H 270.657 -3.51499 -0.118929 0
M  V30 2790 H 270.531 -3.28493 -1.85397 0
M  V30 2791 H 272.918 -2.29309 -1.85745 0
M  V30 2792 H 272.999 -2.55566 -0.109505 0
M  V30 2793 H 272.643 -5.05521 -0.490991 0
M  V30 2794 H 272.573 -4.76258 -2.24691 0
M  V30 2795 H 275.064 -3.57039 -1.23821 0
M  V30 2796 H 275.377 -7.48233 -1.93306 0
M  V30 2797 H 273.722 -6.72732 -1.74518 0
M  V30 2798 H 276.913 -4.44948 -1.45391 0
M  V30 2799 H 277.086 -6.2333 -1.77098 0
M  V30 2800 N 270.492 0.636531 -1.44174 0
M  V30 2801 C 271.717 1.42847 -1.50364 0
M  V30 2802 C 272.142 1.87665 -0.127867 0
M  V30 2803 O 271.5 1.58408 0.88185 0
M  V30 2804 C 271.548 2.62854 -2.4686 0
M  V30 2805 O 270.652 3.62501 -1.9664 0
M  V30 2806 H 269.993 0.427642 -0.507955 0
M  V30 2807 H 272.523 0.777422 -1.89255 0
M  V30 2808 H 272.533 3.10465 -2.64718 0
M  V30 2809 H 271.208 2.29578 -3.46795 0
M  V30 2810 H 269.785 3.21735 -1.88523 0
M  V30 2811 N 271.97 1.30982 0.876444 0
M  V30 2812 C 272.88 1.2003 2.01569 0
M  V30 2813 C 273.896 0.11838 1.73597 0
M  V30 2814 O 275.072 0.33495 1.98595 0
M  V30 2815 C 272.137 0.901637 3.34771 0
M  V30 2816 C 271.198 2.06979 3.76109 0
M  V30 2817 C 270.431 1.78529 5.02954 0
M  V30 2818 O 270.654 0.717296 5.65872 0
M  V30 2819 O 269.588 2.64019 5.40905 0
M  V30 2820 H 273.414 2.15753 2.13739 0
M  V30 2821 H 270.999 1.10658 1.00375 0
M  V30 2822 H 272.881 0.750645 4.1466 0
M  V30 2823 H 271.556 -0.0256141 3.2369 0
M  V30 2824 H 270.463 2.27616 2.96887 0
M  V30 2825 H 271.796 2.97907 3.91807 0
M  V30 2826 N 273.449 -1.08991 1.13837 0
M  V30 2827 C 274.696 -1.81258 0.902882 0
M  V30 2828 C 275.024 -1.85936 -0.570803 0
M  V30 2829 O 274.279 -1.3267 -1.43865 0
M  V30 2830 C 274.578 -3.27042 1.44147 0
M  V30 2831 C 274.244 -3.4249 2.93276 0
M  V30 2832 C 272.906 -3.46414 3.33992 0
M  V30 2833 C 275.258 -3.4666 3.892 0
M  V30 2834 C 272.586 -3.52091 4.69307 0
M  V30 2835 C 274.938 -3.53872 5.24364 0
M  V30 2836 C 273.602 -3.56066 5.646 0
M  V30 2837 H 272.872 -0.663268 0.330388 0
M  V30 2838 H 275.519 -1.28368 1.42105 0
M  V30 2839 H 273.824 -3.82599 0.844097 0
M  V30 2840 H 275.521 -3.81499 1.23528 0
M  V30 2841 H 272.111 -3.40124 2.60794 0
M  V30 2842 H 276.295 -3.42865 3.58828 0
M  V30 2843 H 271.551 -3.52079 4.9985 0
M  V30 2844 H 275.725 -3.56043 5.98503 0
M  V30 2845 H 273.352 -3.60218 6.69438 0
M  V30 2846 N 274.927 -0.932562 -1.27047 0
M  V30 2847 C 276.175 -0.574422 -1.93765 0
M  V30 2848 C 276.496 0.887993 -1.73608 0
M  V30 2849 O 275.766 1.62999 -1.08665 0
M  V30 2850 H 274.346 -0.209451 -0.717035 0
M  V30 2851 H 277.008 -1.18601 -1.5466 0
M  V30 2852 H 276.104 -0.784841 -3.02071 0
M  V30 2853 N 276.405 1.4127 -0.698611 0
M  V30 2854 C 277.682 1.94955 -0.158762 0
M  V30 2855 C 278.062 1.63781 1.33188 0
M  V30 2856 O 277.41 0.946423 2.07979 0
M  V30 2857 C 277.62 3.46044 -0.453309 0
M  V30 2858 C 278.968 4.22872 -0.382707 0
M  V30 2859 O 279.992 3.54076 -0.388396 0
M  V30 2860 O 278.851 5.45407 -0.345463 0
M  V30 2861 H 275.945 0.82683 -0.0167505 0
M  V30 2862 H 278.491 1.50971 -0.77498 0
M  V30 2863 H 277.263 3.62028 -1.48498 0
M  V30 2864 H 276.886 3.97128 0.19373 0
M  V30 2865 N 277.883 0.443576 1.51229 0
M  V30 2866 C 279.113 -0.119117 2.06256 0
M  V30 2867 C 279.521 -1.36471 1.31043 0
M  V30 2868 O 278.864 -1.80034 0.365151 0
M  V30 2869 C 278.926 -0.500546 3.55998 0
M  V30 2870 C 278.59 0.639125 4.52509 0
M  V30 2871 C 279.587 1.51311 4.97394 0
M  V30 2872 C 277.272 0.821632 4.95535 0
M  V30 2873 C 279.266 2.55425 5.83984 0
M  V30 2874 C 276.953 1.86603 5.81913 0
M  V30 2875 C 277.951 2.73072 6.26036 0
M  V30 2876 O 277.639 3.75718 7.10698 0
M  V30 2877 H 277.371 -0.00857665 0.675946 0
M  V30 2878 H 279.925 0.623288 1.95715 0
M  V30 2879 H 278.155 -1.29575 3.64345 0
M  V30 2880 H 279.844 -0.995116 3.93513 0
M  V30 2881 H 280.61 1.38367 4.64844 0
M  V30 2882 H 276.489 0.158149 4.60729 0
M  V30 2883 H 280.033 3.22949 6.18344 0
M  V30 2884 H 275.93 1.99564 6.13876 0
M  V30 2885 H 276.698 3.72374 7.2889 0
M  V30 2886 N 279.361 -1.56624 0.175154 0
M  V30 2887 C 280.608 -1.96999 -0.468811 0
M  V30 2888 C 280.936 -1.06129 -1.62994 0
M  V30 2889 O 280.191 -0.0961771 -1.95464 0
M  V30 2890 C 280.49 -3.43419 -0.989864 0
M  V30 2891 C 280.156 -4.50866 0.0557687 0
M  V30 2892 C 278.818 -4.79975 0.343134 0
M  V30 2893 C 281.17 -5.15551 0.765308 0
M  V30 2894 C 278.498 -5.71066 1.34536 0
M  V30 2895 C 280.85 -6.07724 1.75654 0
M  V30 2896 C 279.514 -6.35199 2.05132 0
M  V30 2897 H 278.784 -0.720869 -0.17155 0
M  V30 2898 H 281.431 -1.89616 0.267924 0
M  V30 2899 H 279.736 -3.47772 -1.80449 0
M  V30 2900 H 281.433 -3.72002 -1.49719 0
M  V30 2901 H 278.023 -4.28229 -0.178381 0
M  V30 2902 H 282.207 -4.9317 0.556513 0
M  V30 2903 H 277.463 -5.90635 1.57988 0
M  V30 2904 H 281.637 -6.56912 2.31169 0
M  V30 2905 H 279.264 -7.05584 2.8294 0
M  V30 2906 N 280.839 0.0985539 -1.57292 0
M  V30 2907 C 282.116 0.834155 -1.76921 0
M  V30 2908 C 282.496 1.97101 -0.755928 0
M  V30 2909 O 281.844 2.27474 0.216245 0
M  V30 2910 C 282.054 1.33194 -3.22584 0
M  V30 2911 C 283.402 1.77611 -3.85668 0
M  V30 2912 O 284.426 1.42825 -3.26312 0
M  V30 2913 O 283.285 2.4192 -4.90038 0
M  V30 2914 H 280.379 0.397628 -0.725135 0
M  V30 2915 H 282.925 0.0807044 -1.69508 0
M  V30 2916 H 281.697 0.517248 -3.87866 0
M  V30 2917 H 281.32 2.1475 -3.34616 0
M  V30 2918 N 282.317 1.53212 0.369288 0
M  V30 2919 C 283.566 1.68436 1.10961 0
M  V30 2920 C 283.879 0.440738 1.9057 0
M  V30 2921 O 285.085 0.473446 2.6734 0
M  V30 2922 C 283.541 2.97744 2.0218 0
M  V30 2923 C 283.149 4.29355 1.279 0
M  V30 2924 C 284.893 3.22334 2.76226 0
M  V30 2925 C 282.8 5.49755 2.17999 0
M  V30 2926 H 281.73 0.627568 0.41794 0
M  V30 2927 H 284.381 1.79713 0.370884 0
M  V30 2928 H 282.763 2.8026 2.79768 0
M  V30 2929 H 283.937 4.57458 0.554007 0
M  V30 2930 H 282.252 4.11179 0.657311 0
M  V30 2931 H 284.849 4.09471 3.43857 0
M  V30 2932 H 285.192 2.38238 3.41392 0
M  V30 2933 H 285.725 3.40475 2.05723 0
M  V30 2934 H 282.464 6.36318 1.57417 0
M  V30 2935 H 281.984 5.25937 2.88359 0
M  V30 2936 H 283.663 5.84401 2.77641 0
M  V30 2937 N 283.795 -0.628877 1.44509 0
M  V30 2938 C 285.035 -1.39993 1.48934 0
M  V30 2939 C 285.399 -1.91627 0.119604 0
M  V30 2940 O 286.6 -2.68772 0.0385283 0
M  V30 2941 C 284.871 -2.53241 2.52198 0
M  V30 2942 S 286.43 -3.41383 2.75687 0
M  V30 2943 H 283.248 -0.477558 0.526744 0
M  V30 2944 H 285.85 -0.727804 1.81448 0
M  V30 2945 H 284.554 -2.13622 3.50419 0
M  V30 2946 H 284.085 -3.25278 2.21264 0
M  V30 2947 H 286.1 -4.50752 2.07453 0
M  V30 2948 N 285.273 -1.31445 -0.869486 0
M  V30 2949 C 286.519 -1.21337 -1.62496 0
M  V30 2950 C 286.852 0.227872 -1.92858 0
M  V30 2951 O 286.127 1.16094 -1.56053 0
M  V30 2952 C 286.41 -2.05814 -2.95487 0
M  V30 2953 C 286.263 -3.5824 -2.72 0
M  V30 2954 C 287.582 -1.9079 -3.96594 0
M  V30 2955 H 284.701 -0.442135 -0.589649 0
M  V30 2956 H 287.343 -1.6124 -1.00507 0
M  V30 2957 H 285.493 -1.71913 -3.48394 0
M  V30 2958 H 287.165 -4.0228 -2.25762 0
M  V30 2959 H 285.408 -3.81647 -2.06224 0
M  V30 2960 H 286.079 -4.12657 -3.66631 0
M  V30 2961 H 288.555 -2.20459 -3.52898 0
M  V30 2962 H 287.431 -2.52199 -4.87531 0
M  V30 2963 H 287.692 -0.871341 -4.33428 0
M  V30 2964 N 286.751 1.08385 -1.14413 0
M  V30 2965 C 287.714 2.13486 -0.834048 0
M  V30 2966 C 288.714 1.59988 0.161418 0
M  V30 2967 O 289.904 1.74071 -0.0669575 0
M  V30 2968 C 287.036 3.4003 -0.243354 0
M  V30 2969 H 288.229 2.42425 -1.7655 0
M  V30 2970 H 285.782 1.24101 -0.950189 0
M  V30 2971 H 286.517 3.16726 0.696807 0
M  V30 2972 H 286.302 3.80157 -0.960367 0
M  V30 2973 H 287.792 4.17577 -0.0436242 0
M  V30 2974 N 288.23 0.939286 1.26551 0
M  V30 2975 C 289.478 0.58469 1.93457 0
M  V30 2976 C 289.799 -0.878774 1.74076 0
M  V30 2977 O 289.069 -1.62421 1.09528 0
M  V30 2978 H 287.649 0.21325 0.715914 0
M  V30 2979 H 290.311 1.1942 1.54029 0
M  V30 2980 H 289.407 0.800849 3.0165 0
M  V30 2981 N 289.708 -1.40897 0.706093 0
M  V30 2982 C 290.938 -2.05075 0.250523 0
M  V30 2983 C 291.346 -1.53275 -1.10921 0
M  V30 2984 O 290.689 -0.680281 -1.7064 0
M  V30 2985 C 290.751 -3.59219 0.142178 0
M  V30 2986 C 290.415 -4.33864 1.43566 0
M  V30 2987 C 291.412 -4.62448 2.37566 0
M  V30 2988 C 289.097 -4.72946 1.69195 0
M  V30 2989 C 291.091 -5.29088 3.5545 0
M  V30 2990 C 288.778 -5.3932 2.87362 0
M  V30 2991 C 289.776 -5.6732 3.80312 0
M  V30 2992 O 289.464 -6.32325 4.96408 0
M  V30 2993 H 289.196 -0.666645 0.112074 0
M  V30 2994 H 291.75 -1.81467 0.962239 0
M  V30 2995 H 289.98 -3.81609 -0.6254 0
M  V30 2996 H 291.669 -4.0495 -0.277584 0
M  V30 2997 H 292.435 -4.32727 2.19027 0
M  V30 2998 H 288.314 -4.50527 0.977042 0
M  V30 2999 H 291.858 -5.50859 4.28018 0
M  V30 3000 H 287.755 -5.68461 3.05814 0
M  V30 3001 H 288.523 -6.50821 4.9636 0
M  V30 3002 N 291.186 -0.45159 -1.50991 0
M  V30 3003 C 292.597 0.00818571 -1.86698 0
M  V30 3004 C 292.948 1.40661 -1.3678 0
M  V30 3005 O 292.073 2.0391 -0.724546 0
M  V30 3006 C 292.668 0.0216303 -3.38793 0
M  V30 3007 C 291.227 0.425865 -3.73983 0
M  V30 3008 C 290.374 -0.372163 -2.74791 0
M  V30 3009 H 293.325 -0.666785 -1.44013 0
M  V30 3010 H 293.346 0.828078 -3.7138 0
M  V30 3011 H 292.858 -0.996288 -3.75094 0
M  V30 3012 H 290.959 1.44886 -3.43277 0
M  V30 3013 H 291.072 0.140761 -4.78893 0
M  V30 3014 H 289.436 0.171498 -2.54122 0
M  V30 3015 H 290.219 -1.38922 -3.13935 0
M  V30 3016 N 292.664 1.56529 -0.183458 0
M  V30 3017 C 293.611 2.18546 0.742055 0
M  V30 3018 C 294.581 1.12912 1.2182 0
M  V30 3019 O 295.766 1.41115 1.28418 0
M  V30 3020 C 292.906 2.83977 1.96089 0
M  V30 3021 C 292.019 4.04105 1.52719 0
M  V30 3022 C 291.154 4.57427 2.70063 0
M  V30 3023 C 290.193 5.69938 2.23243 0
M  V30 3024 N 289.33 6.17717 3.33722 0
M  V30 3025 H 294.17 2.97284 0.206432 0
M  V30 3026 H 291.707 1.46823 0.0901571 0
M  V30 3027 H 293.665 3.20077 2.67594 0
M  V30 3028 H 292.295 2.07822 2.47002 0
M  V30 3029 H 291.347 3.73745 0.708436 0
M  V30 3030 H 292.659 4.85513 1.1436 0
M  V30 3031 H 291.813 4.95772 3.49708 0
M  V30 3032 H 290.552 3.75101 3.11689 0
M  V30 3033 H 289.557 5.31133 1.42048 0
M  V30 3034 H 290.782 6.54073 1.82661 0
M  V30 3035 H 288.728 5.38317 3.74902 0
M  V30 3036 H 288.645 6.94146 2.99495 0
M  V30 3037 H 289.913 6.60713 4.13616 0
M  V30 3038 N 294.142 -0.090211 1.57342 0
M  V30 3039 C 295.39 -0.791241 1.85967 0
M  V30 3040 C 295.711 -1.7903 0.772859 0
M  V30 3041 O 294.981 -1.94872 -0.200398 0
M  V30 3042 H 293.561 -0.295205 0.686195 0
M  V30 3043 H 296.223 -0.0706782 1.94772 0
M  V30 3044 H 295.319 -1.31882 2.82867 0
M  V30 3045 N 295.62 -1.53406 -0.361157 0
M  V30 3046 C 296.57 -1.76536 -1.44287 0
M  V30 3047 C 297.554 -0.620019 -1.48474 0
M  V30 3048 O 298.746 -0.878834 -1.53641 0
M  V30 3049 C 295.875 -1.96266 -2.81664 0
M  V30 3050 C 294.961 -3.16815 -2.81938 0
M  V30 3051 N 295.352 -4.38637 -2.51855 0
M  V30 3052 C 293.65 -3.17627 -3.13096 0
M  V30 3053 C 294.351 -5.20401 -2.59919 0
M  V30 3054 N 293.327 -4.56712 -2.94814 0
M  V30 3055 H 297.129 -2.68331 -1.19899 0
M  V30 3056 H 294.643 -1.52091 -0.56938 0
M  V30 3057 H 296.64 -2.10966 -3.59582 0
M  V30 3058 H 295.3 -1.05702 -3.07013 0
M  V30 3059 H 296.311 -4.66293 -2.25369 0
M  V30 3060 H 292.988 -2.36971 -3.43731 0
M  V30 3061 H 294.378 -6.27586 -2.39969 0
M  V30 3062 N 297.098 0.621204 -1.44841 0
M  V30 3063 C 298.509 1.20298 -1.42777 0
M  V30 3064 C 298.86 1.95639 -0.148259 0
M  V30 3065 O 297.985 2.02955 0.750892 0
M  V30 3066 C 298.58 2.1882 -2.58657 0
M  V30 3067 C 297.139 2.72403 -2.59756 0
M  V30 3068 C 296.286 1.4757 -2.34773 0
M  V30 3069 H 299.237 0.411297 -1.53278 0
M  V30 3070 H 299.258 3.01607 -2.31977 0
M  V30 3071 H 298.77 1.63957 -3.51766 0
M  V30 3072 H 296.871 3.31242 -1.70615 0
M  V30 3073 H 296.984 3.17765 -3.58556 0
M  V30 3074 H 295.348 1.76051 -1.8406 0
M  V30 3075 H 296.131 0.945954 -3.3001 0
M  V30 3076 N 298.576 1.31904 0.862503 0
M  V30 3077 C 299.486 1.22161 2.00285 0
M  V30 3078 C 300.502 0.136785 1.73462 0
M  V30 3079 O 301.678 0.355994 1.98229 0
M  V30 3080 C 298.743 0.937093 3.33796 0
M  V30 3081 C 297.804 2.10957 3.73893 0
M  V30 3082 C 297.037 1.83853 5.01033 0
M  V30 3083 O 297.26 0.777274 5.65079 0
M  V30 3084 O 296.194 2.69741 5.38074 0
M  V30 3085 H 300.02 2.18008 2.11439 0
M  V30 3086 H 297.605 1.11716 0.991957 0
M  V30 3087 H 299.487 0.794583 4.13841 0
M  V30 3088 H 298.162 0.00871894 3.23699 0
M  V30 3089 H 297.069 2.30752 2.94456 0
M  V30 3090 H 298.402 3.02046 3.88625 0
M  V30 3091 N 300.054 -1.07777 1.14986 0
M  V30 3092 C 301.017 -2.13041 0.845358 0
M  V30 3093 C 302.017 -1.60071 -0.152931 0
M  V30 3094 O 303.207 -1.74033 0.0761879 0
M  V30 3095 C 300.339 -3.39896 0.261383 0
M  V30 3096 H 301.532 -2.41485 1.77834 0
M  V30 3097 H 299.085 -1.23595 0.956757 0
M  V30 3098 H 299.82 -3.17091 -0.68 0
M  V30 3099 H 299.605 -3.79642 0.980514 0
M  V30 3100 H 301.095 -4.17548 0.0657687 0
M  V30 3101 N 301.532 -0.945985 -1.26051 0
M  V30 3102 C 302.78 -0.594941 -1.93145 0
M  V30 3103 C 303.101 0.86953 -1.7454 0
M  V30 3104 O 302.371 1.61838 -1.10387 0
M  V30 3105 H 300.951 -0.217044 -0.714773 0
M  V30 3106 H 303.613 -1.20235 -1.53393 0
M  V30 3107 H 302.709 -0.816835 -3.01221 0
M  V30 3108 N 303.011 1.40521 -0.713556 0
M  V30 3109 C 304.236 2.05759 -0.26035 0
M  V30 3110 C 304.661 1.53403 1.08854 0
M  V30 3111 O 304.019 0.668535 1.68524 0
M  V30 3112 C 304.067 3.59745 -0.248122 0
M  V30 3113 O 303.171 4.05123 0.77131 0
M  V30 3114 H 302.512 0.652564 -0.122703 0
M  V30 3115 H 305.042 1.79958 -0.973467 0
M  V30 3116 H 305.052 4.07911 -0.0851129 0
M  V30 3117 H 303.727 3.97218 -1.2325 0
M  V30 3118 H 302.304 3.68422 0.57619 0
M  V30 3119 N 304.489 0.459591 1.5075 0
M  V30 3120 C 305.736 -0.0993495 2.02256 0
M  V30 3121 C 306.064 -1.40751 1.34237 0
M  V30 3122 O 305.319 -1.90379 0.453228 0
M  V30 3123 C 305.618 -0.342866 3.55752 0
M  V30 3124 C 305.284 0.88218 4.42186 0
M  V30 3125 C 303.946 1.21808 4.65528 0
M  V30 3126 C 306.298 1.69837 4.92752 0
M  V30 3127 C 303.626 2.37045 5.36681 0
M  V30 3128 C 305.978 2.84192 5.65171 0
M  V30 3129 C 304.642 3.1821 5.8677 0
M  V30 3130 H 303.912 -0.0363545 0.740108 0
M  V30 3131 H 306.559 0.611329 1.8148 0
M  V30 3132 H 304.864 -1.13567 3.7498 0
M  V30 3133 H 306.561 -0.789121 3.93159 0
M  V30 3134 H 303.151 0.610467 4.2423 0
M  V30 3135 H 307.335 1.45205 4.74583 0
M  V30 3136 H 302.591 2.63689 5.51614 0
M  V30 3137 H 306.765 3.4779 6.03337 0
M  V30 3138 H 304.392 4.07613 6.41682 0
M  V30 3139 N 305.967 -1.56429 0.191757 0
M  V30 3140 C 306.877 -2.22541 -0.742481 0
M  V30 3141 C 307.893 -1.22342 -1.23727 0
M  V30 3142 O 309.069 -1.55069 -1.28513 0
M  V30 3143 C 306.134 -2.8692 -1.94623 0
M  V30 3144 C 305.195 -4.02378 -1.49633 0
M  V30 3145 C 304.428 -4.63678 -2.6427 0
M  V30 3146 O 304.651 -4.23895 -3.81666 0
M  V30 3147 O 303.585 -5.53202 -2.37174 0
M  V30 3148 H 307.411 -3.02977 -0.209462 0
M  V30 3149 H 304.996 -1.49353 -0.0373832 0
M  V30 3150 H 306.878 -3.27663 -2.64982 0
M  V30 3151 H 305.553 -2.09466 -2.46791 0
M  V30 3152 H 304.46 -3.66265 -0.761636 0
M  V30 3153 H 305.793 -4.81487 -1.02134 0
M  V30 3154 N 307.445 0.0818655 -1.57387 0
M  V30 3155 C 308.408 1.08265 -2.02018 0
M  V30 3156 C 309.408 1.32183 -0.915664 0
M  V30 3157 O 310.598 1.28073 -1.18081 0
M  V30 3158 C 307.73 2.42871 -2.39221 0
M  V30 3159 H 308.923 0.698204 -2.91659 0
M  V30 3160 H 306.476 0.327303 -1.52835 0
M  V30 3161 H 307.211 2.86167 -1.52575 0
M  V30 3162 H 306.996 2.26855 -3.19811 0
M  V30 3163 H 308.486 3.14826 -2.74362 0
M  V30 3164 N 308.923 1.53595 0.353017 0
M  V30 3165 C 310.2 1.61002 1.11075 0
M  V30 3166 C 310.58 0.425356 2.0677 0
M  V30 3167 O 309.928 -0.583267 2.2093 0
M  V30 3168 C 310.138 2.96631 1.83877 0
M  V30 3169 C 311.486 3.51653 2.37961 0
M  V30 3170 O 312.51 2.98743 1.93987 0
M  V30 3171 O 311.369 4.44177 3.18386 0
M  V30 3172 H 308.463 0.650825 0.510251 0
M  V30 3173 H 311.009 1.6594 0.35527 0
M  V30 3174 H 309.781 3.74293 1.14108 0
M  V30 3175 H 309.404 2.95242 2.66304 0
M  V30 3176 N 310.401 -0.613514 1.45168 0
M  V30 3177 C 311.331 -1.7354 1.56225 0
M  V30 3178 C 312.312 -1.64981 0.41414 0
M  V30 3179 O 313.497 -1.83472 0.636526 0
M  V30 3180 C 310.627 -3.12128 1.52295 0
M  V30 3181 C 309.581 -3.35491 2.65762 0
M  V30 3182 C 308.907 -4.74291 2.46885 0
M  V30 3183 C 310.207 -3.26325 4.0781 0
M  V30 3184 H 311.901 -1.64543 2.50132 0
M  V30 3185 H 309.447 -0.790185 1.20383 0
M  V30 3186 H 311.4 -3.90404 1.58628 0
M  V30 3187 H 310.124 -3.2195 0.549139 0
M  V30 3188 H 308.783 -2.59603 2.58847 0
M  V30 3189 H 308.431 -4.80839 1.47657 0
M  V30 3190 H 308.131 -4.9088 3.22972 0
M  V30 3191 H 309.655 -5.54775 2.55063 0
M  V30 3192 H 311.069 -3.94483 4.16 0
M  V30 3193 H 309.466 -3.54445 4.8424 0
M  V30 3194 H 310.536 -2.23855 4.30136 0
M  V30 3195 N 311.879 -1.3236 -0.855495 0
M  V30 3196 C 312.826 -1.21225 -1.964 0
M  V30 3197 C 313.796 -0.0946204 -1.6583 0
M  V30 3198 O 314.981 -0.27002 -1.8888 0
M  V30 3199 C 312.121 -0.940419 -3.32039 0
M  V30 3200 C 311.234 -2.14276 -3.75113 0
M  V30 3201 C 310.369 -1.80648 -4.9954 0
M  V30 3202 C 309.408 -2.97208 -5.35102 0
M  V30 3203 N 308.545 -2.63678 -6.50706 0
M  V30 3204 H 313.385 -2.16042 -2.05255 0
M  V30 3205 H 310.922 -1.07451 -1.00463 0
M  V30 3206 H 312.88 -0.763311 -4.10158 0
M  V30 3207 H 311.51 -0.0290413 -3.22787 0
M  V30 3208 H 310.562 -2.43017 -2.92655 0
M  V30 3209 H 311.874 -3.01468 -3.97389 0
M  V30 3210 H 311.028 -1.59484 -5.85363 0
M  V30 3211 H 309.767 -0.906678 -4.79198 0
M  V30 3212 H 308.772 -3.19004 -4.47791 0
M  V30 3213 H 309.997 -3.87918 -5.57401 0
M  V30 3214 H 307.943 -1.76238 -6.31883 0
M  V30 3215 H 307.86 -3.444 -6.72997 0
M  V30 3216 H 309.128 -2.45942 -7.39684 0
M  V30 3217 N 313.357 1.07166 -1.15556 0
M  V30 3218 C 314.307 2.12649 -0.82247 0
M  V30 3219 C 315.291 1.59725 0.194129 0
M  V30 3220 O 316.483 1.76999 -0.00540402 0
M  V30 3221 C 313.612 3.41847 -0.315572 0
M  V30 3222 C 312.698 4.0162 -1.36244 0
M  V30 3223 N 313.089 4.35625 -2.5703 0
M  V30 3224 C 311.387 4.29114 -1.21562 0
M  V30 3225 C 312.088 4.83017 -3.24144 0
M  V30 3226 N 311.064 4.81906 -2.51531 0
M  V30 3227 H 314.866 2.36776 -1.74111 0
M  V30 3228 H 312.38 1.24622 -1.0413 0
M  V30 3229 H 314.377 4.16859 -0.0585855 0
M  V30 3230 H 313.037 3.19163 0.597105 0
M  V30 3231 H 314.048 4.26253 -2.94158 0
M  V30 3232 H 310.725 4.15919 -0.362988 0
M  V30 3233 H 312.115 5.18605 -4.27198 0
M  V30 3234 N 314.835 0.952656 1.25548 0
M  V30 3235 C 315.765 0.489287 2.28316 0
M  V30 3236 C 316.746 -0.463359 1.63667 0
M  V30 3237 O 317.931 -0.36274 1.90782 0
M  V30 3238 C 315.061 -0.235603 3.465 0
M  V30 3239 C 314.015 0.631593 4.23314 0
M  V30 3240 C 313.341 -0.223923 5.34231 0
M  V30 3241 C 314.641 1.90871 4.86174 0
M  V30 3242 H 316.335 1.34822 2.67326 0
M  V30 3243 H 313.881 0.649728 1.28509 0
M  V30 3244 H 315.834 -0.570882 4.17515 0
M  V30 3245 H 314.558 -1.12877 3.06474 0
M  V30 3246 H 313.217 0.949929 3.54079 0
M  V30 3247 H 312.865 -1.11678 4.90446 0
M  V30 3248 H 312.565 0.35299 5.86539 0
M  V30 3249 H 314.089 -0.554214 6.0808 0
M  V30 3250 H 315.503 1.63997 5.49343 0
M  V30 3251 H 313.9 2.43112 5.4865 0
M  V30 3252 H 314.97 2.61304 4.08471 0
M  V30 3253 N 316.313 -1.40141 0.720998 0
M  V30 3254 C 317.26 -2.30688 0.071919 0
M  V30 3255 C 318.23 -1.48476 -0.744584 0
M  V30 3256 O 319.415 -1.77201 -0.707423 0
M  V30 3257 C 316.555 -3.34724 -0.839855 0
M  V30 3258 C 315.668 -4.31998 -0.0122438 0
M  V30 3259 C 314.803 -5.23102 -0.923995 0
M  V30 3260 C 313.842 -6.12033 -0.0907969 0
M  V30 3261 N 312.979 -6.95537 -0.957718 0
M  V30 3262 H 317.819 -2.85628 0.849755 0
M  V30 3263 H 315.356 -1.40653 0.430726 0
M  V30 3264 H 317.314 -3.93618 -1.38279 0
M  V30 3265 H 315.944 -2.81274 -1.58381 0
M  V30 3266 H 314.996 -3.74841 0.64794 0
M  V30 3267 H 316.308 -4.94772 0.632595 0
M  V30 3268 H 315.462 -5.86953 -1.53527 0
M  V30 3269 H 314.201 -4.60615 -1.60264 0
M  V30 3270 H 313.206 -5.47207 0.533377 0
M  V30 3271 H 314.431 -6.76581 0.584428 0
M  V30 3272 H 312.377 -6.35633 -1.62192 0
M  V30 3273 H 312.294 -7.55099 -0.36904 0
M  V30 3274 H 313.562 -7.63832 -1.555 0
M  V30 3275 N 317.792 -0.46758 -1.50504 0
M  V30 3276 C 318.702 0.33382 -2.32213 0
M  V30 3277 C 319.718 0.999323 -1.42441 0
M  V30 3278 O 320.894 0.988068 -1.75497 0
M  V30 3279 C 317.959 1.4035 -3.17022 0
M  V30 3280 C 317.02 0.754961 -4.2261 0
M  V30 3281 C 316.253 1.77367 -5.03365 0
M  V30 3282 O 316.476 2.99976 -4.8515 0
M  V30 3283 O 315.41 1.34744 -5.86624 0
M  V30 3284 H 319.236 -0.334067 -3.01857 0
M  V30 3285 H 316.821 -0.229496 -1.47627 0
M  V30 3286 H 318.703 2.02318 -3.69656 0
M  V30 3287 H 317.378 2.05492 -2.5011 0
M  V30 3288 H 316.285 0.0964244 -3.73976 0
M  V30 3289 H 317.618 0.146545 -4.91982 0
M  V30 3290 N 319.27 1.56325 -0.20005 0
M  V30 3291 C 320.217 2.1932 0.718833 0
M  V30 3292 C 321.187 1.14198 1.20615 0
M  V30 3293 O 322.372 1.42469 1.26914 0
M  V30 3294 C 319.512 2.86041 1.93066 0
M  V30 3295 C 318.625 4.05702 1.48425 0
M  V30 3296 C 317.76 4.60266 2.65196 0
M  V30 3297 C 316.799 5.72273 2.17185 0
M  V30 3298 N 315.936 6.21221 3.27152 0
M  V30 3299 H 320.776 2.97486 0.17489 0
M  V30 3300 H 318.313 1.46911 0.0745794 0
M  V30 3301 H 320.271 3.22897 2.64184 0
M  V30 3302 H 318.901 2.1043 2.44783 0
M  V30 3303 H 317.953 3.74475 0.668755 0
M  V30 3304 H 319.265 4.86699 1.09204 0
M  V30 3305 H 318.419 4.99453 3.4443 0
M  V30 3306 H 317.158 3.78386 3.07693 0
M  V30 3307 H 316.163 5.3261 1.36407 0
M  V30 3308 H 317.388 6.55974 1.75713 0
M  V30 3309 H 315.334 5.42263 3.69171 0
M  V30 3310 H 315.251 6.97284 2.92116 0
M  V30 3311 H 316.519 6.65063 4.06585 0
M  V30 3312 N 320.748 -0.0735177 1.57428 0
M  V30 3313 C 321.994 -0.774145 1.87443 0
M  V30 3314 C 322.327 -1.77311 0.792103 0
M  V30 3315 O 321.602 -1.93492 -0.197793 0
M  V30 3316 C 321.885 -1.48367 3.28115 0
M  V30 3317 C 321.738 -0.501227 4.46999 0
M  V30 3318 C 323.057 -2.429 3.66998 0
M  V30 3319 H 320.176 -0.279971 0.681752 0
M  V30 3320 H 322.818 -0.0373616 1.89963 0
M  V30 3321 H 320.968 -2.11171 3.26097 0
M  V30 3322 H 322.64 0.121468 4.6114 0
M  V30 3323 H 320.883 0.183593 4.33411 0
M  V30 3324 H 321.554 -1.03526 5.42205 0
M  V30 3325 H 324.03 -1.90175 3.70098 0
M  V30 3326 H 322.906 -2.89549 4.66318 0
M  V30 3327 H 323.167 -3.27628 2.96837 0
M  V30 3328 N 322.226 -1.5378 -0.344866 0
M  V30 3329 C 323.451 -1.75211 -1.10977 0
M  V30 3330 C 323.876 -0.48936 -1.81623 0
M  V30 3331 O 323.234 0.557925 -1.72502 0
M  V30 3332 C 323.282 -2.93147 -2.09993 0
M  V30 3333 O 322.386 -2.63203 -3.17487 0
M  V30 3334 H 321.727 -0.581241 -0.321021 0
M  V30 3335 H 324.257 -2.00738 -0.395661 0
M  V30 3336 H 324.267 -3.19898 -2.53237 0
M  V30 3337 H 322.942 -3.84731 -1.5797 0
M  V30 3338 H 321.519 -2.47336 -2.79069 0
M  V30 3339 N 323.704 0.605807 -1.45491 0
M  V30 3340 C 324.667 1.69836 -1.5391 0
M  V30 3341 C 325.667 1.55261 -0.418424 0
M  V30 3342 O 326.857 1.60296 -0.681965 0
M  V30 3343 C 323.989 3.09117 -1.43734 0
M  V30 3344 H 325.182 1.63738 -2.51257 0
M  V30 3345 H 322.735 0.821689 -1.32959 0
M  V30 3346 H 323.47 3.20791 -0.475788 0
M  V30 3347 H 323.255 3.21104 -2.25021 0
M  V30 3348 H 324.745 3.88696 -1.52661 0
M  V30 3349 N 325.182 1.32811 0.848464 0
M  V30 3350 C 326.43 1.23479 1.59991 0
M  V30 3351 C 326.751 -0.201853 1.93952 0
M  V30 3352 O 326.021 -1.12818 1.60153 0
M  V30 3353 H 324.601 0.454034 0.593179 0
M  V30 3354 H 327.263 1.66412 1.01455 0
M  V30 3355 H 326.359 1.82178 2.53412 0
M  V30 3356 N 326.66 -1.06551 1.16123 0
M  V30 3357 C 327.623 -2.12132 0.867906 0
M  V30 3358 C 328.623 -1.60224 -0.135944 0
M  V30 3359 O 329.813 -1.73943 0.0946422 0
M  V30 3360 C 326.945 -3.396 0.297419 0
M  V30 3361 H 328.138 -2.39586 1.80385 0
M  V30 3362 H 325.691 -1.22574 0.969812 0
M  V30 3363 H 326.426 -3.17794 -0.64633 0
M  V30 3364 H 326.211 -3.78581 1.02073 0
M  V30 3365 H 327.701 -4.17455 0.110052 0
M  V30 3366 N 328.138 -0.959301 -1.25041 0
M  V30 3367 C 329.415 -0.533805 -1.88175 0
M  V30 3368 C 329.795 0.988994 -1.865 0
M  V30 3369 O 329.143 1.85677 -1.33177 0
M  V30 3370 C 329.353 -1.11575 -3.30684 0
M  V30 3371 C 330.701 -1.19548 -4.07423 0
M  V30 3372 O 331.725 -1.06765 -3.39823 0
M  V30 3373 O 330.584 -1.39656 -5.28354 0
M  V30 3374 H 327.678 -0.176772 -0.807887 0
M  V30 3375 H 330.224 -1.05303 -1.33076 0
M  V30 3376 H 328.996 -2.15884 -3.26358 0
M  V30 3377 H 328.619 -0.580059 -3.93346 0
M  V30 3378 N 329.616 1.39756 -0.72842 0
M  V30 3379 C 330.863 2.00645 -0.273487 0
M  V30 3380 C 331.191 1.57786 1.13727 0
M  V30 3381 O 330.446 0.794886 1.7883 0
M  V30 3382 C 330.745 3.56002 -0.315776 0
M  V30 3383 C 330.411 4.18489 -1.67863 0
M  V30 3384 C 329.073 4.3527 -2.05166 0
M  V30 3385 C 331.425 4.53219 -2.57375 0
M  V30 3386 C 328.753 4.84069 -3.31503 0
M  V30 3387 C 331.105 5.03423 -3.83077 0
M  V30 3388 C 329.769 5.18413 -4.20481 0
M  V30 3389 H 329.039 0.734211 -0.100076 0
M  V30 3390 H 331.686 1.6718 -0.933972 0
M  V30 3391 H 329.991 3.89452 0.428285 0
M  V30 3392 H 331.688 4.00963 0.0542575 0
M  V30 3393 H 328.278 4.05824 -1.37858 0
M  V30 3394 H 332.462 4.39878 -2.29827 0
M  V30 3395 H 327.718 4.93859 -3.60435 0
M  V30 3396 H 331.892 5.2927 -4.52599 0
M  V30 3397 H 329.519 5.55987 -5.18443 0
M  V30 3398 N 331.094 0.475555 1.50254 0
M  V30 3399 C 332.343 -0.0795996 2.01543 0
M  V30 3400 C 332.656 -1.4038 1.36209 0
M  V30 3401 O 333.862 -2.04415 1.7868 0
M  V30 3402 C 332.318 -0.192363 3.59386 0
M  V30 3403 C 331.926 1.12367 4.33679 0
M  V30 3404 C 333.67 -0.699238 4.18701 0
M  V30 3405 C 331.577 0.974453 5.83317 0
M  V30 3406 H 330.507 -0.0335228 0.753254 0
M  V30 3407 H 333.158 0.611128 1.73025 0
M  V30 3408 H 331.54 -0.946974 3.84511 0
M  V30 3409 H 332.714 1.88958 4.20276 0
M  V30 3410 H 331.029 1.562 3.85993 0
M  V30 3411 H 333.626 -0.827978 5.28251 0
M  V30 3412 H 333.969 -1.69171 3.80377 0
M  V30 3413 H 334.502 -0.00188807 3.978 0
M  V30 3414 H 331.241 1.94042 6.26121 0
M  V30 3415 H 330.761 0.248998 5.99283 0
M  V30 3416 H 332.44 0.642867 6.43798 0
M  V30 3417 N 332.573 -1.56217 0.208337 0
M  V30 3418 C 333.822 -1.97124 -0.427204 0
M  V30 3419 C 334.135 -1.09859 -1.61835 0
M  V30 3420 O 335.341 -1.40606 -2.32255 0
M  V30 3421 C 333.797 -3.50633 -0.811442 0
M  V30 3422 C 333.405 -4.46582 0.35615 0
M  V30 3423 C 335.149 -4.00282 -1.41332 0
M  V30 3424 C 333.056 -5.91379 -0.0497852 0
M  V30 3425 H 331.986 -0.736086 -0.163381 0
M  V30 3426 H 334.637 -1.8099 0.302456 0
M  V30 3427 H 333.019 -3.62319 -1.59815 0
M  V30 3428 H 334.193 -4.46636 1.1337 0
M  V30 3429 H 332.508 -4.07202 0.870396 0
M  V30 3430 H 335.105 -5.0595 -1.72972 0
M  V30 3431 H 335.448 -3.45359 -2.32449 0
M  V30 3432 H 335.981 -3.91764 -0.690323 0
M  V30 3433 H 332.72 -6.50255 0.827529 0
M  V30 3434 H 332.24 -5.94549 -0.791926 0
M  V30 3435 H 333.919 -6.45209 -0.481042 0
M  V30 3436 N 334.051 0.0651679 -1.57465 0
M  V30 3437 C 335.279 0.775808 -1.91804 0
M  V30 3438 C 335.694 1.70782 -0.804916 0
M  V30 3439 O 335.051 1.81153 0.221311 0
M  V30 3440 C 335.102 1.56381 -3.25925 0
M  V30 3441 O 334.823 0.669248 -4.32958 0
M  V30 3442 C 336.324 2.37485 -3.7432 0
M  V30 3443 H 333.544 0.2202 -0.63384 0
M  V30 3444 H 336.088 0.0334587 -2.04473 0
M  V30 3445 H 334.243 2.25837 -3.14764 0
M  V30 3446 H 334.657 1.21801 -5.10162 0
M  V30 3447 H 336.131 2.88223 -4.70778 0
M  V30 3448 H 336.608 3.17307 -3.03666 0
M  V30 3449 H 337.214 1.73173 -3.88447 0
M  V30 3450 N 335.529 1.53961 0.336706 0
M  V30 3451 C 336.461 1.78751 1.4346 0
M  V30 3452 C 337.474 0.669019 1.48418 0
M  V30 3453 O 338.663 0.945884 1.51378 0
M  V30 3454 C 335.763 1.87844 2.82078 0
M  V30 3455 C 334.936 3.17854 3.00479 0
M  V30 3456 C 333.995 3.17816 4.19379 0
M  V30 3457 O 333.021 3.91511 4.13168 0
M  V30 3458 N 334.223 2.40669 5.2826 0
M  V30 3459 H 336.988 2.73493 1.22563 0
M  V30 3460 H 334.549 1.53096 0.526625 0
M  V30 3461 H 336.541 1.85261 3.59806 0
M  V30 3462 H 335.111 1.00257 2.96086 0
M  V30 3463 H 334.331 3.33504 2.10163 0
M  V30 3464 H 335.619 4.03718 3.0966 0
M  V30 3465 H 335.017 1.8036 5.36178 0
M  V30 3466 H 333.574 2.43877 6.04456 0
M  V30 3467 N 337.007 -0.598083 1.45811 0
M  V30 3468 C 337.937 -1.71873 1.58057 0
M  V30 3469 C 338.918 -1.64533 0.431615 0
M  V30 3470 O 340.103 -1.82787 0.65595 0
M  V30 3471 C 337.233 -3.10495 1.55597 0
M  V30 3472 C 336.187 -3.32654 2.69305 0
M  V30 3473 C 335.513 -4.71646 2.51902 0
M  V30 3474 C 336.813 -3.21981 4.11248 0
M  V30 3475 H 338.507 -1.61881 2.51863 0
M  V30 3476 H 336.053 -0.777372 1.21214 0
M  V30 3477 H 338.006 -3.88699 1.6276 0
M  V30 3478 H 336.73 -3.2135 0.583255 0
M  V30 3479 H 335.389 -2.56843 2.61586 0
M  V30 3480 H 335.037 -4.79246 1.52748 0
M  V30 3481 H 334.737 -4.87426 3.2816 0
M  V30 3482 H 336.261 -5.52038 2.60933 0
M  V30 3483 H 337.675 -3.90049 4.20161 0
M  V30 3484 H 336.072 -3.49289 4.87972 0
M  V30 3485 H 337.142 -2.1928 4.32486 0
M  V30 3486 N 338.485 -1.33259 -0.841409 0
M  V30 3487 C 339.732 -1.24572 -1.5965 0
M  V30 3488 C 340.06 0.189137 -1.93578 0
M  V30 3489 O 339.315 1.14566 -1.5866 0
M  V30 3490 C 339.614 -2.06381 -2.9179 0
M  V30 3491 C 339.28 -3.556 -2.77235 0
M  V30 3492 C 337.942 -3.96282 -2.72973 0
M  V30 3493 C 340.294 -4.50433 -2.62221 0
M  V30 3494 C 337.622 -5.30017 -2.51592 0
M  V30 3495 C 339.974 -5.84327 -2.42374 0
M  V30 3496 C 338.638 -6.24194 -2.36512 0
M  V30 3497 H 337.908 -0.455842 -0.5842 0
M  V30 3498 H 340.555 -1.6482 -0.975016 0
M  V30 3499 H 338.86 -1.58903 -3.5813 0
M  V30 3500 H 340.557 -1.97019 -3.49263 0
M  V30 3501 H 337.147 -3.23298 -2.81384 0
M  V30 3502 H 341.331 -4.19914 -2.64549 0
M  V30 3503 H 336.587 -5.59947 -2.45499 0
M  V30 3504 H 340.761 -6.57414 -2.29739 0
M  V30 3505 H 338.388 -7.27759 -2.19706 0
M  V30 3506 N 339.963 1.05934 -1.16686 0
M  V30 3507 C 341.21 1.788 -0.950622 0
M  V30 3508 C 341.538 1.87384 0.521305 0
M  V30 3509 O 340.793 1.36438 1.40297 0
M  V30 3510 C 341.092 3.23105 -1.52767 0
M  V30 3511 C 340.758 3.34594 -3.02254 0
M  V30 3512 C 339.42 3.37437 -3.43059 0
M  V30 3513 C 341.772 3.36219 -3.98254 0
M  V30 3514 C 339.1 3.39525 -4.78477 0
M  V30 3515 C 341.452 3.39845 -5.33562 0
M  V30 3516 C 340.116 3.40971 -5.73842 0
M  V30 3517 H 339.386 0.654275 -0.347857 0
M  V30 3518 H 342.033 1.24555 -1.45459 0
M  V30 3519 H 340.338 3.80227 -0.94524 0
M  V30 3520 H 342.035 3.7809 -1.336 0
M  V30 3521 H 338.625 3.3309 -2.6972 0
M  V30 3522 H 342.809 3.33231 -3.67792 0
M  V30 3523 H 338.065 3.38703 -5.09009 0
M  V30 3524 H 342.239 3.4005 -6.07733 0
M  V30 3525 H 339.866 3.42342 -6.78753 0
M  V30 3526 N 341.441 0.965919 1.2453 0
M  V30 3527 C 342.351 0.502154 2.29163 0
M  V30 3528 C 343.367 -0.436017 1.68448 0
M  V30 3529 O 344.543 -0.309497 1.99008 0
M  V30 3530 C 341.608 -0.201956 3.46111 0
M  V30 3531 C 340.669 0.775821 4.22232 0
M  V30 3532 C 339.902 0.105217 5.33596 0
M  V30 3533 O 340.125 -1.10683 5.59558 0
M  V30 3534 O 339.059 0.796475 5.96607 0
M  V30 3535 H 342.885 1.37194 2.70946 0
M  V30 3536 H 340.47 0.732875 1.30189 0
M  V30 3537 H 342.352 -0.597564 4.17142 0
M  V30 3538 H 341.027 -1.04673 3.06309 0
M  V30 3539 H 339.934 1.22185 3.53584 0
M  V30 3540 H 341.267 1.58896 4.65846 0
M  V30 3541 N 342.919 -1.39368 0.735821 0
M  V30 3542 C 343.882 -2.2896 0.104874 0
M  V30 3543 C 344.882 -1.46347 -0.666274 0
M  V30 3544 O 346.072 -1.67014 -0.49517 0
M  V30 3545 C 343.204 -3.29857 -0.860656 0
M  V30 3546 H 344.397 -2.86259 0.894205 0
M  V30 3547 H 341.95 -1.48029 0.501704 0
M  V30 3548 H 342.685 -2.77615 -1.67631 0
M  V30 3549 H 342.47 -3.9087 -0.310327 0
M  V30 3550 H 343.96 -3.96893 -1.29867 0
M  V30 3551 N 344.397 -0.483516 -1.5 0
M  V30 3552 C 345.674 0.129337 -1.95172 0
M  V30 3553 C 346.054 1.55802 -1.4244 0
M  V30 3554 O 345.402 2.19625 -0.630649 0
M  V30 3555 C 345.612 0.0599251 -3.48949 0
M  V30 3556 C 346.96 0.242617 -4.23906 0
M  V30 3557 O 347.984 0.135933 -3.55941 0
M  V30 3558 O 346.843 0.459454 -5.44565 0
M  V30 3559 H 343.937 0.104887 -0.820322 0
M  V30 3560 H 346.483 -0.544807 -1.60717 0
M  V30 3561 H 345.255 -0.937079 -3.79914 0
M  V30 3562 H 344.878 0.774984 -3.89974 0
M  V30 3563 N 345.875 1.56104 -0.216619 0
M  V30 3564 C 347.103 2.02563 0.421413 0
M  V30 3565 C 347.518 1.0965 1.53695 0
M  V30 3566 O 346.875 0.10521 1.82196 0
M  V30 3567 C 346.926 3.48584 0.957665 0
M  V30 3568 O 346.647 4.37953 -0.113389 0
M  V30 3569 C 348.148 4.10664 1.66943 0
M  V30 3570 H 345.368 0.662944 0.103665 0
M  V30 3571 H 347.912 2.01793 -0.331629 0
M  V30 3572 H 346.067 3.49985 1.661 0
M  V30 3573 H 346.481 5.23704 0.288932 0
M  V30 3574 H 347.955 5.14622 1.99671 0
M  V30 3575 H 348.432 3.55373 2.58083 0
M  V30 3576 H 349.038 4.13098 1.01142 0
M  V30 3577 N 347.353 -0.0568162 1.57498 0
M  V30 3578 C 348.6 -0.753104 1.87975 0
M  V30 3579 C 348.928 -1.76815 0.81035 0
M  V30 3580 O 348.183 -1.94756 -0.19199 0
M  V30 3581 C 348.482 -1.48359 3.25153 0
M  V30 3582 C 348.148 -0.60713 4.46794 0
M  V30 3583 C 346.81 -0.365642 4.79809 0
M  V30 3584 C 349.162 -0.000305978 5.212 0
M  V30 3585 C 346.49 0.491905 5.84634 0
M  V30 3586 C 348.842 0.844781 6.26934 0
M  V30 3587 C 347.506 1.096 6.58441 0
M  V30 3588 H 346.776 -0.27558 0.687849 0
M  V30 3589 H 349.423 -0.0135173 1.91495 0
M  V30 3590 H 347.728 -2.29577 3.17492 0
M  V30 3591 H 349.425 -2.02739 3.45974 0
M  V30 3592 H 346.015 -0.805487 4.20963 0
M  V30 3593 H 350.199 -0.173961 4.95995 0
M  V30 3594 H 345.455 0.695131 6.07436 0
M  V30 3595 H 349.629 1.32165 6.83744 0
M  V30 3596 H 347.256 1.76224 7.39492 0
M  V30 3597 N 348.832 -1.54138 -0.328536 0
M  V30 3598 C 350.079 -1.72105 -1.06706 0
M  V30 3599 C 350.407 -0.492111 -1.88171 0
M  V30 3600 O 349.662 0.526153 -1.88494 0
M  V30 3601 C 349.961 -2.9457 -2.02393 0
M  V30 3602 C 349.627 -4.29544 -1.37122 0
M  V30 3603 C 348.289 -4.6624 -1.19052 0
M  V30 3604 C 350.641 -5.1333 -0.902331 0
M  V30 3605 C 347.969 -5.84325 -0.527331 0
M  V30 3606 C 350.321 -6.32094 -0.252988 0
M  V30 3607 C 348.985 -6.67473 -0.0600901 0
M  V30 3608 H 348.255 -0.629775 -0.390466 0
M  V30 3609 H 350.902 -1.88372 -0.34473 0
M  V30 3610 H 349.207 -2.72969 -2.81061 0
M  V30 3611 H 350.904 -3.05665 -2.59557 0
M  V30 3612 H 347.494 -4.0067 -1.52188 0
M  V30 3613 H 351.678 -4.855 -1.02974 0
M  V30 3614 H 346.934 -6.103 -0.366634 0
M  V30 3615 H 351.108 -6.96299 0.118366 0
M  V30 3616 H 348.735 -7.58832 0.455828 0
M  V30 3617 N 350.31 0.590341 -1.46126 0
M  V30 3618 C 351.726 0.912917 -1.30912 0
M  V30 3619 C 351.926 1.99616 -0.274893 0
M  V30 3620 O 350.982 2.50397 0.325197 0
M  V30 3621 C 352.295 1.3375 -2.69317 0
M  V30 3622 C 353.843 1.45077 -2.77348 0
M  V30 3623 C 354.318 1.90904 -4.16317 0
M  V30 3624 N 355.809 1.9811 -4.18696 0
M  V30 3625 C 356.544 2.34828 -5.23109 0
M  V30 3626 N 356.04 2.70393 -6.37856 0
M  V30 3627 N 357.833 2.35317 -5.10473 0
M  V30 3628 H 349.984 -0.125358 -2.1203 0
M  V30 3629 H 352.247 0.00658481 -0.947977 0
M  V30 3630 H 351.953 0.615614 -3.4627 0
M  V30 3631 H 351.827 2.30058 -2.9892 0
M  V30 3632 H 354.214 2.16353 -2.00687 0
M  V30 3633 H 354.295 0.4704 -2.51438 0
M  V30 3634 H 353.939 1.20209 -4.9347 0
M  V30 3635 H 353.869 2.89886 -4.39629 0
M  V30 3636 H 356.36 1.73146 -3.359 0
M  V30 3637 H 356.673 2.97341 -7.13308 0
M  V30 3638 H 355.018 2.68048 -6.41229 0
M  V30 3639 H 358.209 2.0695 -4.19868 0
M  V30 3640 H 358.382 2.63605 -5.9196 0
M  V30 3641 N 351.788 1.33704 0.83433 0
M  V30 3642 C 353.035 1.25417 1.58987 0
M  V30 3643 C 353.363 -0.178869 1.93676 0
M  V30 3644 O 352.618 -1.13723 1.59265 0
M  V30 3645 C 352.917 2.07926 2.90692 0
M  V30 3646 C 352.583 3.57066 2.75345 0
M  V30 3647 C 351.245 3.97724 2.70867 0
M  V30 3648 C 353.597 4.51817 2.59828 0
M  V30 3649 C 350.925 5.31344 2.48778 0
M  V30 3650 C 353.277 5.85604 2.39272 0
M  V30 3651 C 351.941 6.25439 2.33199 0
M  V30 3652 H 351.211 0.458934 0.581774 0
M  V30 3653 H 353.858 1.65335 0.966261 0
M  V30 3654 H 352.163 1.608 3.57282 0
M  V30 3655 H 353.86 1.98868 3.48213 0
M  V30 3656 H 350.45 3.24785 2.79665 0
M  V30 3657 H 354.634 4.21311 2.62319 0
M  V30 3658 H 349.89 5.61241 2.42526 0
M  V30 3659 H 354.064 6.58623 2.2625 0
M  V30 3660 H 351.691 7.28914 2.15843 0
M  V30 3661 N 353.266 -1.05314 1.17247 0
M  V30 3662 C 354.512 -1.78557 0.961513 0
M  V30 3663 C 354.845 -1.87419 -0.508697 0
M  V30 3664 O 354.12 -1.37307 -1.37757 0
M  V30 3665 C 354.403 -3.22514 1.60176 0
M  V30 3666 C 354.256 -3.21673 3.14399 0
M  V30 3667 C 355.575 -4.20318 1.30463 0
M  V30 3668 H 352.694 -0.6482 0.350723 0
M  V30 3669 H 355.336 -1.23102 1.44727 0
M  V30 3670 H 353.486 -3.69867 1.18871 0
M  V30 3671 H 355.158 -2.82405 3.64753 0
M  V30 3672 H 353.401 -2.60048 3.47214 0
M  V30 3673 H 354.072 -4.23271 3.54324 0
M  V30 3674 H 356.548 -3.81454 1.66229 0
M  V30 3675 H 355.424 -5.19289 1.77848 0
M  V30 3676 H 355.685 -4.41526 0.22521 0
M  V30 3677 N 354.744 -0.972509 -1.24016 0
M  V30 3678 C 355.691 -0.505969 -2.25186 0
M  V30 3679 C 356.661 0.451009 -1.5986 0
M  V30 3680 O 357.846 0.360307 -1.87367 0
M  V30 3681 C 354.986 0.193089 -3.44559 0
M  V30 3682 C 354.099 -0.803222 -4.24467 0
M  V30 3683 C 353.234 -0.0797793 -5.3114 0
M  V30 3684 C 352.273 -1.06583 -6.02749 0
M  V30 3685 N 351.41 -0.372074 -7.01113 0
M  V30 3686 H 356.25 -1.37351 -2.64459 0
M  V30 3687 H 353.787 -0.688419 -1.29997 0
M  V30 3688 H 355.745 0.615125 -4.1264 0
M  V30 3689 H 354.375 1.02455 -3.06109 0
M  V30 3690 H 353.427 -1.34368 -3.55878 0
M  V30 3691 H 354.739 -1.55494 -4.73944 0
M  V30 3692 H 353.893 0.400015 -6.0538 0
M  V30 3693 H 352.632 0.704597 -4.82583 0
M  V30 3694 H 351.637 -1.55645 -5.27309 0
M  V30 3695 H 352.862 -1.85074 -6.53395 0
M  V30 3696 H 350.808 0.393238 -6.5482 0
M  V30 3697 H 350.725 -1.06258 -7.48495 0
M  V30 3698 H 351.993 0.0855932 -7.79453 0
M  V30 3699 N 356.222 1.38976 -0.743202 0
M  V30 3700 C 357.185 2.28901 -0.117014 0
M  V30 3701 C 358.185 1.46698 0.658503 0
M  V30 3702 O 359.375 1.67274 0.486305 0
M  V30 3703 C 356.507 3.30309 0.84315 0
M  V30 3704 H 357.7 2.8578 -0.909373 0
M  V30 3705 H 355.253 1.47761 -0.509547 0
M  V30 3706 H 355.988 2.785 1.66157 0
M  V30 3707 H 355.773 3.91029 0.289594 0
M  V30 3708 H 357.263 3.97577 1.2776 0
M  V30 3709 N 357.7 0.491464 1.49741 0
M  V30 3710 C 358.94 -0.0549118 2.04326 0
M  V30 3711 C 359.304 -1.35148 1.36378 0
M  V30 3712 O 360.505 -1.9815 1.81631 0
M  V30 3713 C 358.776 -0.213841 3.5676 0
M  V30 3714 S 360.335 -0.715839 4.32922 0
M  V30 3715 H 357.153 -0.00630513 0.710972 0
M  V30 3716 H 359.755 0.663257 1.83905 0
M  V30 3717 H 358.459 0.73527 4.0376 0
M  V30 3718 H 357.99 -0.957529 3.81569 0
M  V30 3719 H 360.005 -1.9864 4.54705 0
M  V30 3720 N 359.178 -1.55987 0.224894 0
M  V30 3721 C 360.406 -2.02784 -0.410665 0
M  V30 3722 C 360.821 -1.10464 -1.53112 0
M  V30 3723 O 360.178 -0.114871 -1.82138 0
M  V30 3724 C 360.229 -3.49087 -0.939165 0
M  V30 3725 O 359.95 -4.37887 0.136614 0
M  V30 3726 C 361.451 -4.11543 -1.64763 0
M  V30 3727 H 358.671 -0.663484 -0.100148 0
M  V30 3728 H 361.215 -2.01614 0.342326 0
M  V30 3729 H 359.37 -3.50861 -1.64242 0
M  V30 3730 H 359.784 -5.23849 -0.261155 0
M  V30 3731 H 361.258 -5.15673 -1.96939 0
M  V30 3732 H 361.735 -3.56736 -2.56195 0
M  V30 3733 H 362.341 -4.13629 -0.989503 0
M  V30 3734 N 360.656 0.0484629 -1.57525 0
M  V30 3735 C 361.933 0.777447 -1.79486 0
M  V30 3736 C 362.313 1.94597 -0.818251 0
M  V30 3737 O 361.661 2.28047 0.143767 0
M  V30 3738 C 361.871 1.22864 -3.26658 0
M  V30 3739 C 363.219 1.65251 -3.91123 0
M  V30 3740 O 364.243 1.32372 -3.3069 0
M  V30 3741 O 363.102 2.26207 -4.97486 0
M  V30 3742 H 360.196 0.374357 -0.737419 0
M  V30 3743 H 362.742 0.0267359 -1.69679 0
M  V30 3744 H 361.514 0.393589 -3.89316 0
M  V30 3745 H 361.137 2.03996 -3.41279 0
M  V30 3746 N 362.134 1.5431 0.320358 0
M  V30 3747 C 363.067 1.78769 1.41834 0
M  V30 3748 C 364.045 0.63783 1.49568 0
M  V30 3749 O 365.229 0.875628 1.66928 0
M  V30 3750 C 362.356 1.90712 2.79905 0
M  V30 3751 C 361.402 3.13023 2.89687 0
M  V30 3752 S 362.235 4.71554 2.53766 0
M  V30 3753 C 363.391 4.86408 3.93902 0
M  V30 3754 H 363.624 2.71619 1.20874 0
M  V30 3755 H 361.157 1.45474 0.517377 0
M  V30 3756 H 363.115 1.98279 3.59438 0
M  V30 3757 H 361.776 0.988343 2.98145 0
M  V30 3758 H 360.969 3.18124 3.90913 0
M  V30 3759 H 360.571 3.03803 2.18128 0
M  V30 3760 H 362.863 4.69241 4.88691 0
M  V30 3761 H 363.806 5.88508 3.93782 0
M  V30 3762 H 364.214 4.14689 3.83005 0
M  V30 3763 N 363.613 -0.582584 1.46437 0
M  V30 3764 C 364.861 -1.33814 1.51453 0
M  V30 3765 C 365.182 -1.94277 0.167792 0
M  V30 3766 O 364.452 -1.78566 -0.805677 0
M  V30 3767 H 363.032 -0.496838 0.557818 0
M  V30 3768 H 365.694 -0.682281 1.82568 0
M  V30 3769 H 364.79 -2.14479 2.26728 0
M  V30 3770 N 365.091 -1.34144 -0.827227 0
M  V30 3771 C 366.34 -1.25602 -1.5782 0
M  V30 3772 C 366.653 0.173445 -1.94829 0
M  V30 3773 O 367.859 0.380984 -2.68814 0
M  V30 3774 C 366.315 -2.20151 -2.84713 0
M  V30 3775 C 365.923 -3.68331 -2.55021 0
M  V30 3776 C 367.667 -2.20508 -3.62735 0
M  V30 3777 C 365.574 -4.54762 -3.78082 0
M  V30 3778 H 364.504 -0.466573 -0.592306 0
M  V30 3779 H 367.155 -1.59283 -0.911116 0
M  V30 3780 H 365.537 -1.79417 -3.53023 0
M  V30 3781 H 366.711 -4.17577 -1.94849 0
M  V30 3782 H 365.026 -3.7038 -1.90283 0
M  V30 3783 H 367.623 -2.82306 -4.54101 0
M  V30 3784 H 367.966 -1.20322 -3.98533 0
M  V30 3785 H 368.499 -2.59664 -3.01362 0
M  V30 3786 H 365.238 -5.55867 -3.47407 0
M  V30 3787 H 364.758 -4.10254 -4.37552 0
M  V30 3788 H 366.437 -4.69153 -4.45538 0
M  V30 3789 N 366.569 1.04691 -1.17803 0
M  V30 3790 C 367.797 1.81446 -0.99423 0
M  V30 3791 C 368.212 1.83174 0.457459 0
M  V30 3792 O 367.569 1.26265 1.31771 0
M  V30 3793 C 367.62 3.27334 -1.5341 0
M  V30 3794 O 367.341 3.25798 -2.92895 0
M  V30 3795 C 368.842 4.20759 -1.39559 0
M  V30 3796 H 366.062 0.571599 -0.351447 0
M  V30 3797 H 368.606 1.31982 -1.56208 0
M  V30 3798 H 366.761 3.74052 -1.00815 0
M  V30 3799 H 367.175 4.17144 -3.17949 0
M  V30 3800 H 368.649 5.21084 -1.82141 0
M  V30 3801 H 369.126 4.37856 -0.343394 0
M  V30 3802 H 369.732 3.79901 -1.91195 0
M  V30 3803 N 368.047 0.979072 1.23499 0
M  V30 3804 C 369.287 0.655228 1.93613 0
M  V30 3805 C 369.651 -0.796336 1.74707 0
M  V30 3806 O 370.852 -1.23094 2.38959 0
M  V30 3807 C 369.123 1.03337 3.42135 0
M  V30 3808 S 370.682 0.825793 4.3096 0
M  V30 3809 H 367.5 0.240004 0.669267 0
M  V30 3810 H 370.102 1.25843 1.49612 0
M  V30 3811 H 368.806 2.08646 3.53405 0
M  V30 3812 H 368.337 0.421397 3.91137 0
M  V30 3813 H 370.352 -0.290991 4.95346 0
M  V30 3814 N 369.525 -1.3858 0.750561 0
M  V30 3815 C 370.936 -1.82927 0.373438 0
M  V30 3816 C 371.287 -1.62634 -1.09748 0
M  V30 3817 O 370.412 -1.12588 -1.84805 0
M  V30 3818 C 371.007 -3.32088 0.671029 0
M  V30 3819 C 369.566 -3.74795 0.34722 0
M  V30 3820 C 368.713 -2.61391 0.92575 0
M  V30 3821 H 371.664 -1.27351 0.946958 0
M  V30 3822 H 371.685 -3.80465 -0.0518269 0
M  V30 3823 H 371.197 -3.46826 1.74164 0
M  V30 3824 H 369.298 -3.65638 -0.716933 0
M  V30 3825 H 369.411 -4.71667 0.840656 0
M  V30 3826 H 367.775 -2.52265 0.351327 0
M  V30 3827 H 368.558 -2.78929 2.00133 0
M  V30 3828 N 371.003 -0.499398 -1.49478 0
M  V30 3829 C 372.252 0.0475259 -2.01644 0
M  V30 3830 C 372.565 1.38195 -1.38425 0
M  V30 3831 O 373.771 2.01547 -1.8191 0
M  V30 3832 C 372.227 0.135164 -3.59646 0
M  V30 3833 C 371.835 -1.19252 -4.31837 0
M  V30 3834 C 373.579 0.632538 -4.19761 0
M  V30 3835 C 371.486 -1.06713 -5.81693 0
M  V30 3836 H 370.416 0.0215349 -0.753692 0
M  V30 3837 H 373.067 -0.638577 -1.7203 0
M  V30 3838 H 371.449 0.885681 -3.85969 0
M  V30 3839 H 372.623 -1.9562 -4.17216 0
M  V30 3840 H 370.938 -1.62321 -3.83459 0
M  V30 3841 H 373.535 0.743833 -5.29501 0
M  V30 3842 H 373.878 1.63098 -3.83021 0
M  V30 3843 H 374.411 -0.0613987 -3.97753 0
M  V30 3844 H 371.15 -2.03979 -6.22955 0
M  V30 3845 H 370.67 -0.344307 -5.98811 0
M  V30 3846 H 372.349 -0.745208 -6.42694 0
M  V30 3847 N 372.481 1.55866 -0.233164 0
M  V30 3848 C 373.727 1.98897 0.395959 0
M  V30 3849 C 374.06 1.12091 1.58585 0
M  V30 3850 O 373.335 0.181182 1.93654 0
M  V30 3851 C 373.618 3.50658 0.819224 0
M  V30 3852 C 373.471 4.48233 -0.375109 0
M  V30 3853 C 374.79 4.07135 1.67121 0
M  V30 3854 H 371.909 0.723102 0.142451 0
M  V30 3855 H 374.551 1.87082 -0.331725 0
M  V30 3856 H 372.701 3.60857 1.43925 0
M  V30 3857 H 374.373 4.50031 -1.01341 0
M  V30 3858 H 372.616 4.21624 -1.02058 0
M  V30 3859 H 373.287 5.51988 -0.0358328 0
M  V30 3860 H 375.763 3.99952 1.14795 0
M  V30 3861 H 374.639 5.13615 1.93625 0
M  V30 3862 H 374.9 3.54736 2.63846 0
M  V30 3863 N 373.959 -0.0401083 1.57549 0
M  V30 3864 C 375.37 -0.588097 1.77196 0
M  V30 3865 C 375.721 -1.76209 0.862832 0
M  V30 3866 O 374.846 -2.16331 0.0548389 0
M  V30 3867 C 375.441 -1.07363 3.21339 0
M  V30 3868 C 374 -1.56723 3.42221 0
M  V30 3869 C 373.147 -0.50041 2.72747 0
M  V30 3870 H 376.098 0.186119 1.57605 0
M  V30 3871 H 376.119 -1.94143 3.27244 0
M  V30 3872 H 375.631 -0.218975 3.87482 0
M  V30 3873 H 373.732 -2.4441 2.81237 0
M  V30 3874 H 373.845 -1.62234 4.50796 0
M  V30 3875 H 372.209 -0.952894 2.36203 0
M  V30 3876 H 372.992 0.344599 3.41566 0
M  V30 3877 N 375.437 -1.54477 -0.31217 0
M  V30 3878 C 376.685 -1.72884 -1.04668 0
M  V30 3879 C 377.006 -0.511477 -1.88173 0
M  V30 3880 O 376.276 0.474407 -1.90069 0
M  V30 3881 H 374.856 -0.637461 -0.389425 0
M  V30 3882 H 377.518 -1.91807 -0.345852 0
M  V30 3883 H 376.614 -2.61334 -1.70619 0
M  V30 3884 N 376.915 0.57481 -1.46744 0
M  V30 3885 C 378.164 1.32898 -1.51727 0
M  V30 3886 C 378.477 1.948 -0.176692 0
M  V30 3887 O 379.683 2.71299 -0.104385 0
M  V30 3888 C 378.139 2.40901 -2.67385 0
M  V30 3889 C 377.747 1.85266 -4.07898 0
M  V30 3890 C 379.491 3.17609 -2.81646 0
M  V30 3891 C 377.398 2.90945 -5.14883 0
M  V30 3892 H 376.328 0.499631 -0.564699 0
M  V30 3893 H 378.979 0.612536 -1.72975 0
M  V30 3894 H 377.361 3.15379 -2.39483 0
M  V30 3895 H 378.535 1.17278 -4.45626 0
M  V30 3896 H 376.85 1.21199 -3.98371 0
M  V30 3897 H 379.447 3.96493 -3.58744 0
M  V30 3898 H 379.79 3.70696 -1.89448 0
M  V30 3899 H 380.323 2.50239 -3.09233 0
M  V30 3900 H 377.062 2.42736 -6.089 0
M  V30 3901 H 376.582 3.57398 -4.81691 0
M  V30 3902 H 378.261 3.54755 -5.41071 0
M  V30 3903 N 378.394 1.34581 0.820102 0
M  V30 3904 C 379.641 1.27096 1.57648 0
M  V30 3905 C 379.969 -0.158317 1.93855 0
M  V30 3906 O 379.224 -1.12028 1.60463 0
M  V30 3907 C 379.523 2.10997 2.8847 0
M  V30 3908 C 379.189 3.59966 2.71543 0
M  V30 3909 C 377.851 4.00575 2.66634 0
M  V30 3910 C 380.203 4.54548 2.55021 0
M  V30 3911 C 377.531 5.33953 2.43128 0
M  V30 3912 C 379.883 5.88109 2.33047 0
M  V30 3913 C 378.547 6.27878 2.26552 0
M  V30 3914 H 377.817 0.465078 0.576874 0
M  V30 3915 H 380.464 1.6635 0.948671 0
M  V30 3916 H 378.769 1.6458 3.55557 0
M  V30 3917 H 380.466 2.0255 3.46084 0
M  V30 3918 H 377.056 3.27733 2.76205 0
M  V30 3919 H 381.24 4.24069 2.57835 0
M  V30 3920 H 376.496 5.63781 2.3656 0
M  V30 3921 H 380.67 6.60985 2.19251 0
M  V30 3922 H 378.297 7.31162 2.081 0
M  V30 3923 N 379.872 -1.04064 1.18357 0
M  V30 3924 C 381.283 -1.58719 0.98312 0
M  V30 3925 C 381.634 -1.90556 -0.467193 0
M  V30 3926 O 380.759 -1.69561 -1.34454 0
M  V30 3927 C 381.354 -2.88379 1.77828 0
M  V30 3928 C 379.913 -3.3965 1.62218 0
M  V30 3929 C 379.06 -2.13235 1.77274 0
M  V30 3930 H 382.011 -0.867359 1.32901 0
M  V30 3931 H 382.032 -3.58773 1.26737 0
M  V30 3932 H 381.544 -2.65176 2.83379 0
M  V30 3933 H 379.645 -3.67866 0.592036 0
M  V30 3934 H 379.758 -4.13475 2.42023 0
M  V30 3935 H 378.122 -2.24542 1.20221 0
M  V30 3936 H 378.905 -1.92487 2.8426 0
M  V30 3937 N 381.35 -0.985608 -1.22978 0
M  V30 3938 C 382.599 -0.652881 -1.90841 0
M  V30 3939 C 382.912 0.817842 -1.77681 0
M  V30 3940 O 384.118 1.26185 -2.40395 0
M  V30 3941 C 382.574 -1.11717 -3.42122 0
M  V30 3942 C 382.182 -2.6126 -3.63933 0
M  V30 3943 C 383.926 -0.85843 -4.1573 0
M  V30 3944 C 381.833 -3.0133 -5.08876 0
M  V30 3945 H 380.763 -0.240491 -0.714619 0
M  V30 3946 H 383.414 -1.1942 -1.39324 0
M  V30 3947 H 381.796 -0.504027 -3.92779 0
M  V30 3948 H 382.97 -3.27858 -3.23799 0
M  V30 3949 H 381.285 -2.84937 -3.03644 0
M  V30 3950 H 383.882 -1.13359 -5.22546 0
M  V30 3951 H 384.225 0.205461 -4.15793 0
M  V30 3952 H 384.758 -1.43341 -3.71077 0
M  V30 3953 H 381.497 -4.06864 -5.13947 0
M  V30 3954 H 381.017 -2.3943 -5.49939 0
M  V30 3955 H 382.696 -2.92224 -5.77247 0
M  V30 3956 N 382.828 1.3818 -0.7579 0
M  V30 3957 C 383.76 2.2901 -0.0932177 0
M  V30 3958 C 384.773 1.47958 0.679136 0
M  V30 3959 O 385.962 1.70773 0.519514 0
M  V30 3960 C 383.062 3.26953 0.89192 0
M  V30 3961 C 382.235 4.37045 0.176303 0
M  V30 3962 C 381.294 5.15148 1.07281 0
M  V30 3963 O 380.32 5.66616 0.541728 0
M  V30 3964 N 381.522 5.28542 2.40049 0
M  V30 3965 H 384.287 2.86694 -0.873303 0
M  V30 3966 H 381.848 1.50007 -0.609054 0
M  V30 3967 H 383.84 3.76083 1.49479 0
M  V30 3968 H 382.41 2.70136 1.57306 0
M  V30 3969 H 381.63 3.89493 -0.607328 0
M  V30 3970 H 382.918 5.07801 -0.318718 0
M  V30 3971 H 382.316 4.88285 2.85647 0
M  V30 3972 H 380.873 5.8103 2.95376 0
M  V30 3973 N 384.306 0.507319 1.49211 0
M  V30 3974 C 385.554 -0.0348839 2.0207 0
M  V30 3975 C 385.875 -1.36898 1.38866 0
M  V30 3976 O 385.145 -1.88133 0.546151 0
M  V30 3977 H 383.725 -0.0158812 0.746831 0
M  V30 3978 H 386.387 0.665998 1.83168 0
M  V30 3979 H 385.483 -0.159917 3.1169 0
M  V30 3980 N 385.784 -1.5574 0.241426 0
M  V30 3981 C 387.014 -2.02913 -0.38857 0
M  V30 3982 C 387.422 -1.12014 -1.52478 0
M  V30 3983 O 386.765 -0.125903 -1.83268 0
M  V30 3984 C 386.827 -3.4636 -0.963075 0
M  V30 3985 C 386.491 -4.56982 0.0401916 0
M  V30 3986 C 387.488 -5.12941 0.847766 0
M  V30 3987 C 385.173 -5.0203 0.164699 0
M  V30 3988 C 387.167 -6.12437 1.76636 0
M  V30 3989 C 384.854 -6.01358 1.0868 0
M  V30 3990 C 385.852 -6.5644 1.88616 0
M  V30 3991 O 385.54 -7.53831 2.79273 0
M  V30 3992 H 385.272 -0.668983 -0.0971452 0
M  V30 3993 H 387.826 -2.02198 0.361248 0
M  V30 3994 H 386.056 -3.44206 -1.76235 0
M  V30 3995 H 387.745 -3.77065 -1.50257 0
M  V30 3996 H 388.511 -4.78974 0.762133 0
M  V30 3997 H 384.39 -4.58824 -0.447411 0
M  V30 3998 H 387.934 -6.55355 2.39071 0
M  V30 3999 H 383.831 -6.34746 1.17338 0
M  V30 4000 H 384.599 -7.71428 2.73572 0
M  V30 4001 N 387.262 0.0317525 -1.57568 0
M  V30 4002 C 388.212 1.04101 -2.02847 0
M  V30 4003 C 389.196 1.3219 -0.917317 0
M  V30 4004 O 390.388 1.31819 -1.18121 0
M  V30 4005 C 387.517 2.34295 -2.5092 0
M  V30 4006 C 386.603 2.09308 -3.68851 0
M  V30 4007 N 386.994 1.5437 -4.81667 0
M  V30 4008 C 385.292 2.39604 -3.76172 0
M  V30 4009 C 385.993 1.45126 -5.63306 0
M  V30 4010 N 384.969 1.92589 -5.08341 0
M  V30 4011 H 388.771 0.610217 -2.87495 0
M  V30 4012 H 386.285 0.238108 -1.60645 0
M  V30 4013 H 388.282 3.07404 -2.81617 0
M  V30 4014 H 386.942 2.78055 -1.67677 0
M  V30 4015 H 387.953 1.22678 -5.03161 0
M  V30 4016 H 384.63 2.86457 -3.03724 0
M  V30 4017 H 386.02 1.03163 -6.63933 0
M  V30 4018 N 388.74 1.54641 0.303973 0
M  V30 4019 C 389.965 1.78092 1.06292 0
M  V30 4020 C 390.39 0.537342 1.80262 0
M  V30 4021 O 389.748 -0.511993 1.7392 0
M  V30 4022 C 389.796 2.98612 2.02147 0
M  V30 4023 O 388.9 2.71528 3.10397 0
M  V30 4024 H 388.241 0.589548 0.305497 0
M  V30 4025 H 390.771 2.01716 0.3423 0
M  V30 4026 H 390.781 3.265 2.44667 0
M  V30 4027 H 389.456 3.88785 1.47714 0
M  V30 4028 H 388.033 2.54648 2.72413 0
M  V30 4029 N 390.218 -0.567019 1.47046 0
M  V30 4030 C 391.148 -1.68482 1.61667 0
M  V30 4031 C 392.129 -1.6358 0.466418 0
M  V30 4032 O 393.314 -1.81354 0.694574 0
M  V30 4033 C 390.444 -3.07124 1.62148 0
M  V30 4034 C 389.398 -3.26867 2.76301 0
M  V30 4035 C 388.724 -4.66196 2.61849 0
M  V30 4036 C 390.024 -3.13186 4.17986 0
M  V30 4037 H 391.718 -1.56502 2.5524 0
M  V30 4038 H 389.264 -0.751486 1.22836 0
M  V30 4039 H 391.217 -3.8516 1.70968 0
M  V30 4040 H 389.941 -3.2004 0.651287 0
M  V30 4041 H 388.6 -2.51237 2.66975 0
M  V30 4042 H 388.248 -4.75898 1.62879 0
M  V30 4043 H 387.948 -4.80356 3.38425 0
M  V30 4044 H 389.472 -5.46379 2.72584 0
M  V30 4045 H 390.886 -3.81049 4.2834 0
M  V30 4046 H 389.283 -3.3886 4.95272 0
M  V30 4047 H 390.353 -2.10057 4.3704 0
M  V30 4048 N 391.696 -1.35014 -0.812953 0
M  V30 4049 C 393.112 -1.14914 -1.10757 0
M  V30 4050 C 393.312 0.0426818 -2.01455 0
M  V30 4051 O 392.368 0.715212 -2.42159 0
M  V30 4052 C 393.681 -2.44911 -1.74468 0
M  V30 4053 C 395.229 -2.5106 -1.86917 0
M  V30 4054 C 395.704 -3.81085 -2.54044 0
M  V30 4055 N 397.195 -3.82301 -2.61535 0
M  V30 4056 C 397.93 -4.79634 -3.14227 0
M  V30 4057 N 397.426 -5.87353 -3.67407 0
M  V30 4058 N 399.219 -4.67078 -3.12721 0
M  V30 4059 H 391.37 -2.1136 -0.20989 0
M  V30 4060 H 393.633 -0.935128 -0.155692 0
M  V30 4061 H 393.339 -3.32267 -1.15289 0
M  V30 4062 H 393.213 -2.58989 -2.74234 0
M  V30 4063 H 395.6 -1.64137 -2.45241 0
M  V30 4064 H 395.681 -2.40901 -0.860242 0
M  V30 4065 H 395.325 -4.68402 -1.96372 0
M  V30 4066 H 395.255 -3.88529 -3.55461 0
M  V30 4067 H 397.746 -3.04465 -2.23851 0
M  V30 4068 H 398.059 -6.57624 -4.05894 0
M  V30 4069 H 396.404 -5.91054 -3.65623 0
M  V30 4070 H 399.595 -3.82067 -2.70449 0
M  V30 4071 H 399.768 -5.43098 -3.53481 0
M  V30 4072 N 393.175 1.03435 -1.18907 0
M  V30 4073 C 394.107 2.1165 -0.879595 0
M  V30 4074 C 395.12 1.62316 0.125439 0
M  V30 4075 O 396.309 1.78201 -0.103245 0
M  V30 4076 C 393.409 3.37622 -0.294042 0
M  V30 4077 C 392.582 4.16166 -1.34629 0
M  V30 4078 C 391.641 5.20457 -0.775274 0
M  V30 4079 O 390.667 5.50379 -1.4516 0
M  V30 4080 N 391.869 5.78949 0.424126 0
M  V30 4081 H 394.634 2.38791 -1.81105 0
M  V30 4082 H 392.195 1.19681 -1.09032 0
M  V30 4083 H 394.187 4.04572 0.101679 0
M  V30 4084 H 392.757 3.07873 0.541575 0
M  V30 4085 H 391.977 3.44444 -1.91707 0
M  V30 4086 H 393.265 4.65432 -2.05549 0
M  V30 4087 H 392.663 5.56948 0.991209 0
M  V30 4088 H 391.22 6.47334 0.761691 0
M  V30 4089 N 394.653 0.992116 1.22453 0
M  V30 4090 C 395.583 0.561677 2.26644 0
M  V30 4091 C 396.564 -0.411055 1.65059 0
M  V30 4092 O 397.749 -0.301861 1.9184 0
M  V30 4093 C 394.879 -0.125247 3.47074 0
M  V30 4094 C 393.833 0.765948 4.21091 0
M  V30 4095 C 393.159 -0.0538484 5.34673 0
M  V30 4096 C 394.459 2.06242 4.79856 0
M  V30 4097 H 396.153 1.43259 2.62902 0
M  V30 4098 H 393.699 0.690283 1.26377 0
M  V30 4099 H 395.652 -0.437764 4.1912 0
M  V30 4100 H 394.376 -1.03069 3.0991 0
M  V30 4101 H 393.035 1.0621 3.50878 0
M  V30 4102 H 392.683 -0.960188 4.9375 0
M  V30 4103 H 392.383 0.539415 5.85119 0
M  V30 4104 H 393.907 -0.360477 6.09535 0
M  V30 4105 H 395.321 1.8139 5.43848 0
M  V30 4106 H 393.718 2.60444 5.40638 0
M  V30 4107 H 394.788 2.74167 3.99951 0
M  V30 4108 N 396.131 -1.37776 0.765217 0
M  V30 4109 C 397.377 -2.00145 0.327072 0
M  V30 4110 C 397.71 -1.60607 -1.09175 0
M  V30 4111 O 396.985 -0.849127 -1.74986 0
M  V30 4112 C 397.268 -3.57109 0.46319 0
M  V30 4113 C 397.121 -4.06576 1.92395 0
M  V30 4114 C 398.44 -4.39888 -0.136473 0
M  V30 4115 H 395.559 -0.727113 0.120316 0
M  V30 4116 H 398.201 -1.63549 0.967039 0
M  V30 4117 H 396.351 -3.88414 -0.0816358 0
M  V30 4118 H 398.023 -3.85864 2.52798 0
M  V30 4119 H 396.266 -3.59011 2.43503 0
M  V30 4120 H 396.937 -5.15639 1.97028 0
M  V30 4121 H 399.413 -4.14803 0.328317 0
M  V30 4122 H 398.289 -5.48899 -0.0110582 0
M  V30 4123 H 398.55 -4.24758 -1.22608 0
M  V30 4124 N 397.609 -0.515225 -1.4894 0
M  V30 4125 C 398.556 0.255567 -2.29381 0
M  V30 4126 C 399.526 0.947387 -1.36432 0
M  V30 4127 O 400.711 0.951288 -1.65394 0
M  V30 4128 C 397.851 1.30551 -3.19453 0
M  V30 4129 C 396.964 0.624029 -4.27469 0
M  V30 4130 C 396.099 1.65563 -5.0474 0
M  V30 4131 C 395.138 0.956802 -6.04576 0
M  V30 4132 N 394.275 1.93326 -6.74959 0
M  V30 4133 H 399.115 -0.436607 -2.94784 0
M  V30 4134 H 396.652 -0.227154 -1.45336 0
M  V30 4135 H 398.61 1.92639 -3.70062 0
M  V30 4136 H 397.24 1.96626 -2.56004 0
M  V30 4137 H 396.292 -0.110459 -3.8024 0
M  V30 4138 H 397.604 0.0746092 -4.98744 0
M  V30 4139 H 396.758 2.35119 -5.59289 0
M  V30 4140 H 395.497 2.23893 -4.3327 0
M  V30 4141 H 394.502 0.247097 -5.49244 0
M  V30 4142 H 395.727 0.379814 -6.78037 0
M  V30 4143 H 393.673 2.50591 -6.06251 0
M  V30 4144 H 393.59 1.43489 -7.42258 0
M  V30 4145 H 394.858 2.62126 -7.34105 0
M  V30 4146 N 399.087 1.5561 -0.249682 0
M  V30 4147 C 400.017 2.24477 0.642826 0
M  V30 4148 C 400.998 1.22601 1.17911 0
M  V30 4149 O 402.183 1.5126 1.21795 0
M  V30 4150 C 399.313 2.94638 1.83863 0
M  V30 4151 C 398.267 4.03227 1.435 0
M  V30 4152 C 397.593 4.60828 2.71186 0
M  V30 4153 C 398.893 5.18796 0.604002 0
M  V30 4154 H 400.587 2.99321 0.0685625 0
M  V30 4155 H 398.133 1.43965 0.0315363 0
M  V30 4156 H 400.086 3.41517 2.46868 0
M  V30 4157 H 398.81 2.17287 2.43832 0
M  V30 4158 H 397.469 3.57121 0.828275 0
M  V30 4159 H 397.117 3.80174 3.29358 0
M  V30 4160 H 396.817 5.34132 2.44901 0
M  V30 4161 H 398.341 5.10442 3.35084 0
M  V30 4162 H 399.755 5.61883 1.13842 0
M  V30 4163 H 398.152 5.98506 0.437097 0
M  V30 4164 H 399.222 4.83384 -0.383147 0
M  V30 4165 N 400.565 -0.0233959 1.57583 0
M  V30 4166 C 401.79 -0.728376 1.94189 0
M  V30 4167 C 402.215 -1.67793 0.850119 0
M  V30 4168 O 401.573 -1.80262 -0.19371 0
M  V30 4169 C 401.621 -1.45669 3.29868 0
M  V30 4170 O 400.725 -2.57013 3.22518 0
M  V30 4171 H 400.066 -0.195493 0.63457 0
M  V30 4172 H 402.596 0.0228214 2.04587 0
M  V30 4173 H 402.606 -1.82535 3.6489 0
M  V30 4174 H 401.281 -0.760314 4.08891 0
M  V30 4175 H 399.858 -2.22648 2.99136 0
M  V30 4176 N 402.043 -1.548 -0.295768 0
M  V30 4177 C 402.99 -1.86113 -1.36494 0
M  V30 4178 C 403.96 -0.7105 -1.50137 0
M  V30 4179 O 405.145 -0.959626 -1.64912 0
M  V30 4180 C 402.285 -2.11861 -2.72413 0
M  V30 4181 C 401.398 -3.39471 -2.67177 0
M  V30 4182 C 400.533 -3.55035 -3.95125 0
M  V30 4183 C 399.572 -4.76418 -3.84308 0
M  V30 4184 N 398.709 -4.8876 -5.04042 0
M  V30 4185 H 403.549 -2.77314 -1.09091 0
M  V30 4186 H 401.086 -1.37315 -0.52753 0
M  V30 4187 H 403.044 -2.24786 -3.51464 0
M  V30 4188 H 401.674 -1.2392 -2.98066 0
M  V30 4189 H 400.726 -3.35139 -1.79962 0
M  V30 4190 H 402.038 -4.28646 -2.55076 0
M  V30 4191 H 401.192 -3.67653 -4.82614 0
M  V30 4192 H 399.931 -2.64002 -4.10066 0
M  V30 4193 H 398.936 -4.63827 -2.95202 0
M  V30 4194 H 400.161 -5.68863 -3.70906 0
M  V30 4195 H 398.107 -4.00652 -5.19436 0
M  V30 4196 H 398.024 -5.71945 -4.94384 0
M  V30 4197 H 399.292 -5.0574 -5.93167 0
M  V30 4198 N 403.521 0.559213 -1.47345 0
M  V30 4199 C 404.451 1.67622 -1.62558 0
M  V30 4200 C 405.432 1.63331 -0.475087 0
M  V30 4201 O 406.617 1.80983 -0.704182 0
M  V30 4202 C 403.747 3.0626 -1.63774 0
M  V30 4203 C 402.701 3.25397 -2.7803 0
M  V30 4204 C 402.027 4.64801 -2.64318 0
M  V30 4205 C 403.327 3.10965 -4.19641 0
M  V30 4206 H 405.021 1.55146 -2.56067 0
M  V30 4207 H 402.567 0.744961 -1.23233 0
M  V30 4208 H 404.52 3.84247 -1.73008 0
M  V30 4209 H 403.244 3.1969 -0.66825 0
M  V30 4210 H 401.903 2.49817 -2.68304 0
M  V30 4211 H 401.551 4.75028 -1.65401 0
M  V30 4212 H 401.251 4.78555 -3.40968 0
M  V30 4213 H 402.775 5.44926 -2.75478 0
M  V30 4214 H 404.189 3.78772 -4.30354 0
M  V30 4215 H 402.586 3.36229 -4.97062 0
M  V30 4216 H 403.656 2.07736 -4.38148 0
M  V30 4217 N 404.999 1.35443 0.805782 0
M  V30 4218 C 405.909 1.30546 1.94923 0
M  V30 4219 C 406.925 0.210233 1.72725 0
M  V30 4220 O 408.101 0.43975 1.9654 0
M  V30 4221 C 405.166 1.07782 3.29521 0
M  V30 4222 C 404.227 2.26625 3.64609 0
M  V30 4223 C 403.46 2.04938 4.92784 0
M  V30 4224 O 403.683 1.01624 5.61274 0
M  V30 4225 O 402.617 2.9232 5.26149 0
M  V30 4226 H 406.443 2.26779 2.02002 0
M  V30 4227 H 404.028 1.15823 0.943682 0
M  V30 4228 H 405.91 0.969392 4.10098 0
M  V30 4229 H 404.585 0.146003 3.23371 0
M  V30 4230 H 403.492 2.43033 2.84404 0
M  V30 4231 H 404.825 3.18257 3.75464 0
M  V30 4232 N 406.477 -1.02803 1.19454 0
M  V30 4233 C 407.723 -1.76478 0.999171 0
M  V30 4234 C 408.056 -1.88456 -0.468828 0
M  V30 4235 O 407.331 -1.40198 -1.34814 0
M  V30 4236 C 407.614 -3.19044 1.66981 0
M  V30 4237 C 407.467 -3.14932 3.21151 0
M  V30 4238 C 408.786 -4.17456 1.39349 0
M  V30 4239 H 405.905 -0.640614 0.364393 0
M  V30 4240 H 408.547 -1.20005 1.47305 0
M  V30 4241 H 406.697 -3.67263 1.2669 0
M  V30 4242 H 408.369 -2.74605 3.70661 0
M  V30 4243 H 406.612 -2.52625 3.52652 0
M  V30 4244 H 407.283 -4.1566 3.63223 0
M  V30 4245 H 409.759 -3.77842 1.74283 0
M  V30 4246 H 408.635 -5.154 1.88823 0
M  V30 4247 H 408.896 -4.40949 0.318813 0
M  V30 4248 N 407.956 -0.998596 -1.21925 0
M  V30 4249 C 409.367 -0.711939 -1.72593 0
M  V30 4250 C 409.718 0.770842 -1.80423 0
M  V30 4251 O 408.843 1.60237 -1.4544 0
M  V30 4252 C 409.438 -1.28567 -3.13458 0
M  V30 4253 C 407.997 -1.04828 -3.61508 0
M  V30 4254 C 407.144 -1.4024 -2.39224 0
M  V30 4255 H 410.095 -1.17027 -1.07193 0
M  V30 4256 H 410.116 -0.667098 -3.74607 0
M  V30 4257 H 409.628 -2.36486 -3.07727 0
M  V30 4258 H 407.729 0.0140383 -3.72597 0
M  V30 4259 H 407.842 -1.71566 -4.47328 0
M  V30 4260 H 406.206 -0.821077 -2.41103 0
M  V30 4261 H 406.989 -2.49176 -2.36149 0
M  V30 4262 N 409.434 1.37368 -0.772513 0
M  V30 4263 C 410.366 2.28899 -0.117502 0
M  V30 4264 C 411.379 1.4867 0.663405 0
M  V30 4265 O 412.568 1.71314 0.501372 0
M  V30 4266 C 409.668 3.2788 0.857192 0
M  V30 4267 C 408.841 4.37207 0.129938 0
M  V30 4268 C 407.9 5.16257 1.01811 0
M  V30 4269 O 406.926 5.67159 0.481601 0
M  V30 4270 N 408.128 5.31058 2.3443 0
M  V30 4271 H 410.893 2.85752 -0.903662 0
M  V30 4272 H 408.454 1.49353 -0.62493 0
M  V30 4273 H 410.446 3.77647 1.45482 0
M  V30 4274 H 409.016 2.7179 1.54432 0
M  V30 4275 H 408.236 3.88827 -0.648605 0
M  V30 4276 H 409.524 5.07434 -0.372559 0
M  V30 4277 H 408.922 4.91287 2.80452 0
M  V30 4278 H 407.479 5.84131 2.89197 0
M  V30 4279 N 410.912 0.523116 1.48665 0
M  V30 4280 C 411.822 -0.247406 2.33292 0
M  V30 4281 C 412.838 -0.945769 1.46052 0
M  V30 4282 O 414.014 -0.922253 1.79043 0
M  V30 4283 C 411.079 -1.28487 3.22012 0
M  V30 4284 C 410.14 -0.597592 4.2512 0
M  V30 4285 C 409.373 -1.58563 5.09601 0
M  V30 4286 O 409.596 -2.81763 4.95949 0
M  V30 4287 O 408.53 -1.12879 5.91221 0
M  V30 4288 H 412.356 0.445869 3.00409 0
M  V30 4289 H 409.941 0.284128 1.46673 0
M  V30 4290 H 411.823 -1.88459 3.7691 0
M  V30 4291 H 410.498 -1.96068 2.57564 0
M  V30 4292 H 409.405 0.0424407 3.74076 0
M  V30 4293 H 410.738 0.0361517 4.92187 0
M  V30 4294 N 412.39 -1.55475 0.257931 0
M  V30 4295 C 413.639 -1.98383 -0.364275 0
M  V30 4296 C 413.952 -1.14952 -1.58258 0
M  V30 4297 O 415.158 -1.47924 -2.27664 0
M  V30 4298 C 413.614 -3.53037 -0.699479 0
M  V30 4299 C 413.222 -4.45223 0.498046 0
M  V30 4300 C 414.966 -4.04575 -1.28526 0
M  V30 4301 C 412.873 -5.91238 0.138383 0
M  V30 4302 H 411.803 -0.740911 -0.13988 0
M  V30 4303 H 414.454 -1.79936 0.359883 0
M  V30 4304 H 412.836 -3.6722 -1.48207 0
M  V30 4305 H 414.01 -4.42803 1.27522 0
M  V30 4306 H 412.325 -4.04226 0.999503 0
M  V30 4307 H 414.922 -5.11196 -1.56788 0
M  V30 4308 H 415.265 -3.5258 -2.21344 0
M  V30 4309 H 415.798 -3.93762 -0.565337 0
M  V30 4310 H 412.537 -6.47294 1.03398 0
M  V30 4311 H 412.057 -5.96768 -0.602374 0
M  V30 4312 H 413.736 -6.46413 -0.27553 0
M  V30 4313 N 413.868 0.0150385 -1.57593 0
M  V30 4314 C 414.815 1.01126 -2.07466 0
M  V30 4315 C 415.785 1.35064 -0.966794 0
M  V30 4316 O 416.97 1.4516 -1.23827 0
M  V30 4317 C 414.11 2.30276 -2.57035 0
M  V30 4318 C 413.223 2.02373 -3.81666 0
M  V30 4319 C 412.358 3.25496 -4.19793 0
M  V30 4320 C 411.397 2.93211 -5.37303 0
M  V30 4321 N 410.534 4.08826 -5.70794 0
M  V30 4322 H 415.374 0.57901 -2.92321 0
M  V30 4323 H 412.911 0.27426 -1.44521 0
M  V30 4324 H 414.869 3.05757 -2.83846 0
M  V30 4325 H 413.499 2.71197 -1.75077 0
M  V30 4326 H 412.551 1.17327 -3.61854 0
M  V30 4327 H 413.863 1.74567 -4.67256 0
M  V30 4328 H 413.017 4.09333 -4.47807 0
M  V30 4329 H 411.756 3.56428 -3.32882 0
M  V30 4330 H 410.761 2.07777 -5.09027 0
M  V30 4331 H 411.986 2.63542 -6.25877 0
M  V30 4332 H 409.932 4.39682 -4.86842 0
M  V30 4333 H 409.849 3.84491 -6.50924 0
M  V30 4334 H 411.117 4.93496 -6.03392 0
M  V30 4335 N 415.346 1.54954 0.287554 0
M  V30 4336 C 416.623 1.65569 1.04146 0
M  V30 4337 C 417.003 0.512672 2.0478 0
M  V30 4338 O 416.351 -0.489038 2.23205 0
M  V30 4339 C 416.561 3.04163 1.71131 0
M  V30 4340 C 417.909 3.61429 2.22832 0
M  V30 4341 O 418.933 3.06702 1.81141 0
M  V30 4342 O 417.792 4.57281 2.9926 0
M  V30 4343 H 414.886 0.671881 0.482188 0
M  V30 4344 H 417.432 1.67297 0.28457 0
M  V30 4345 H 416.204 3.78796 0.981303 0
M  V30 4346 H 415.827 3.06271 2.53543 0
M  V30 4347 N 416.824 -0.551391 1.4764 0
M  V30 4348 C 418.07 -1.31024 1.54792 0
M  V30 4349 C 418.403 -1.9304 0.211967 0
M  V30 4350 O 417.678 -1.78175 -0.77999 0
M  V30 4351 C 417.961 -2.41593 2.67029 0
M  V30 4352 C 417.814 -1.84408 4.10261 0
M  V30 4353 C 419.133 -3.43488 2.75143 0
M  V30 4354 H 416.252 -0.475031 0.563485 0
M  V30 4355 H 418.894 -0.616454 1.79722 0
M  V30 4356 H 417.044 -3.00772 2.45904 0
M  V30 4357 H 418.716 -1.29445 4.42766 0
M  V30 4358 H 416.959 -1.15051 4.18265 0
M  V30 4359 H 417.63 -2.64367 4.84576 0
M  V30 4360 H 420.106 -2.94236 2.94218 0
M  V30 4361 H 418.982 -4.18274 3.55441 0
M  V30 4362 H 419.243 -4.02703 1.82435 0
M  V30 4363 N 418.302 -1.35869 -0.798587 0
M  V30 4364 C 419.551 -1.28921 -1.5512 0
M  V30 4365 C 419.864 0.13208 -1.95154 0
M  V30 4366 O 421.07 0.323879 -2.69561 0
M  V30 4367 C 419.526 -2.26141 -2.79979 0
M  V30 4368 C 419.134 -3.73658 -2.47151 0
M  V30 4369 C 420.878 -2.28152 -3.57976 0
M  V30 4370 C 418.785 -4.62679 -3.6835 0
M  V30 4371 H 417.715 -0.479031 -0.582276 0
M  V30 4372 H 420.366 -1.61179 -0.877125 0
M  V30 4373 H 418.748 -1.86865 -3.49138 0
M  V30 4374 H 419.922 -4.21616 -1.85947 0
M  V30 4375 H 418.237 -3.74333 -1.82383 0
M  V30 4376 H 420.834 -2.91875 -4.4801 0
M  V30 4377 H 421.177 -1.28748 -3.95891 0
M  V30 4378 H 421.71 -2.65998 -2.95787 0
M  V30 4379 H 418.449 -5.63111 -3.35538 0
M  V30 4380 H 417.969 -4.19442 -4.28752 0
M  V30 4381 H 419.648 -4.78498 -4.35487 0
M  V30 4382 N 419.78 1.02168 -1.19998 0
M  V30 4383 C 420.69 2.14069 -0.959774 0
M  V30 4384 C 421.706 1.73804 0.082655 0
M  V30 4385 O 422.882 2.01133 -0.103633 0
M  V30 4386 C 419.947 3.42936 -0.509459 0
M  V30 4387 C 419.008 3.97474 -1.62213 0
M  V30 4388 C 418.241 5.2019 -1.19321 0
M  V30 4389 O 418.464 5.70369 -0.0597726 0
M  V30 4390 O 417.398 5.67749 -1.99863 0
M  V30 4391 H 421.224 2.37199 -1.89658 0
M  V30 4392 H 418.809 1.12469 -0.983411 0
M  V30 4393 H 420.691 4.20551 -0.267322 0
M  V30 4394 H 419.366 3.21234 0.398821 0
M  V30 4395 H 418.273 3.21161 -1.9185 0
M  V30 4396 H 419.606 4.23555 -2.50723 0
M  V30 4397 N 421.258 1.00505 1.21394 0
M  V30 4398 C 422.669 0.721082 1.72213 0
M  V30 4399 C 423.02 -0.761263 1.80829 0
M  V30 4400 O 422.145 -1.59464 1.46288 0
M  V30 4401 C 422.74 1.30228 3.12772 0
M  V30 4402 C 421.299 1.06743 3.60947 0
M  V30 4403 C 420.446 1.41507 2.38477 0
M  V30 4404 H 423.397 1.17594 1.06571 0
M  V30 4405 H 423.418 0.686955 3.74247 0
M  V30 4406 H 422.93 2.38115 3.06468 0
M  V30 4407 H 421.031 0.00572162 3.726 0
M  V30 4408 H 421.144 1.73936 4.46411 0
M  V30 4409 H 419.508 0.833852 2.40664 0
M  V30 4410 H 420.291 2.50424 2.34824 0
M  V30 4411 N 422.737 -1.36956 0.779787 0
M  V30 4412 C 423.986 -1.98738 0.344405 0
M  V30 4413 C 424.299 -1.62596 -1.08728 0
M  V30 4414 O 425.505 -2.1754 -1.62445 0
M  V30 4415 C 423.961 -3.5544 0.564829 0
M  V30 4416 C 423.569 -4.00514 2.0073 0
M  V30 4417 C 425.313 -4.24059 0.193471 0
M  V30 4418 C 423.22 -5.49957 2.17489 0
M  V30 4419 H 422.15 -0.743561 0.12503 0
M  V30 4420 H 424.801 -1.56381 0.960057 0
M  V30 4421 H 423.183 -3.95817 -0.120397 0
M  V30 4422 H 424.357 -3.71362 2.72814 0
M  V30 4423 H 422.672 -3.44703 2.336 0
M  V30 4424 H 425.269 -5.33874 0.297097 0
M  V30 4425 H 425.612 -4.07378 -0.857263 0
M  V30 4426 H 426.145 -3.89012 0.831556 0
M  V30 4427 H 422.884 -5.71574 3.2091 0
M  V30 4428 H 422.404 -5.80767 1.49899 0
M  V30 4429 H 424.083 -6.16043 1.97738 0
M  V30 4430 N 424.215 -0.530993 -1.48385 0
M  V30 4431 C 425.162 0.231223 -2.29639 0
M  V30 4432 C 426.132 0.932864 -1.37429 0
M  V30 4433 O 427.317 0.933692 -1.66394 0
M  V30 4434 C 424.457 1.27155 -3.2082 0
M  V30 4435 C 423.57 0.578655 -4.28107 0
M  V30 4436 C 422.705 1.602 -5.06467 0
M  V30 4437 C 421.744 0.892625 -6.05556 0
M  V30 4438 N 420.881 1.86157 -6.76971 0
M  V30 4439 H 425.721 -0.467848 -2.94305 0
M  V30 4440 H 423.258 -0.242556 -1.45086 0
M  V30 4441 H 425.216 1.88703 -3.72085 0
M  V30 4442 H 423.846 1.939 -2.58075 0
M  V30 4443 H 422.898 -0.150782 -3.80101 0
M  V30 4444 H 424.21 0.0217065 -4.98795 0
M  V30 4445 H 423.364 2.29173 -5.61751 0
M  V30 4446 H 422.103 2.19285 -4.35621 0
M  V30 4447 H 421.108 0.188829 -5.49476 0
M  V30 4448 H 422.333 0.307878 -6.78402 0
M  V30 4449 H 420.279 2.44147 -6.08875 0
M  V30 4450 H 420.196 1.35608 -7.43738 0
M  V30 4451 H 421.464 2.54325 -7.36844 0
M  V30 4452 N 425.693 1.55336 -0.266172 0
M  V30 4453 C 426.97 1.91372 0.404486 0
M  V30 4454 C 427.35 1.18935 1.74407 0
M  V30 4455 O 426.698 0.3132 2.26343 0
M  V30 4456 C 426.908 3.44581 0.553593 0
M  V30 4457 C 428.256 4.16196 0.840618 0
M  V30 4458 O 429.28 3.50426 0.638739 0
M  V30 4459 O 428.139 5.32567 1.22618 0
M  V30 4460 H 425.233 0.797194 0.220025 0
M  V30 4461 H 427.779 1.66813 -0.311664 0
M  V30 4462 H 426.551 3.89357 -0.389498 0
M  V30 4463 H 426.174 3.75065 1.31955 0
M  V30 4464 N 427.171 -0.0066808 1.57599 0
M  V30 4465 C 428.119 -1.01851 2.09115 0
M  V30 4466 C 429.113 -1.36021 1.00969 0
M  V30 4467 O 430.319 -1.34663 1.19439 0
M  V30 4468 H 426.694 -0.346083 0.667631 0
M  V30 4469 H 428.665 -0.558394 2.93129 0
M  V30 4470 C 427.414 -2.30374 2.60429 0
M  V30 4471 H 426.737 -2.04947 3.43273 0
M  V30 4472 H 428.177 -2.99466 3.00161 0
M  V30 4473 C 426.636 -3.00893 1.51542 0
M  V30 4474 O 427.166 -3.91614 0.894484 0
M  V30 4475 N 425.372 -2.62603 1.2445 0
M  V30 4476 H 424.919 -1.88911 1.75129 0
M  V30 4477 H 424.877 -3.10101 0.518137 0
M  V30 4478 N 428.649 -1.55105 -0.279332 0
M  V30 4479 C 429.926 -1.66119 -1.03267 0
M  V30 4480 C 430.306 -0.523525 -2.04505 0
M  V30 4481 O 429.654 0.477194 -2.23462 0
M  V30 4482 C 429.864 -3.05067 -1.69515 0
M  V30 4483 C 431.212 -3.62606 -2.20912 0
M  V30 4484 O 432.236 -3.07659 -1.79512 0
M  V30 4485 O 431.095 -4.58861 -2.96831 0
M  V30 4486 H 428.189 -0.674429 -0.478618 0
M  V30 4487 H 430.735 -1.67446 -0.275694 0
M  V30 4488 H 429.507 -3.79311 -0.9612 0
M  V30 4489 H 429.13 -3.07611 -2.51915 0
M  V30 4490 N 430.127 0.543554 -1.4793 0
M  V30 4491 C 431.09 1.63156 -1.60975 0
M  V30 4492 C 432.09 1.53346 -0.483899 0
M  V30 4493 O 433.28 1.5726 -0.749339 0
M  V30 4494 C 430.412 3.02743 -1.56716 0
M  V30 4495 H 431.605 1.52934 -2.57975 0
M  V30 4496 H 429.158 0.764557 -1.36324 0
M  V30 4497 H 429.893 3.18484 -0.611418 0
M  V30 4498 H 429.678 3.11272 -2.38438 0
M  V30 4499 H 431.168 3.81871 -1.6901 0
M  V30 4500 N 431.605 1.3629 0.791371 0
M  V30 4501 C 432.568 1.30309 1.88553 0
M  V30 4502 C 433.568 0.211204 1.59407 0
M  V30 4503 O 434.758 0.465865 1.67855 0
M  V30 4504 C 431.89 1.01956 3.25297 0
M  V30 4505 H 433.083 2.27614 1.95273 0
M  V30 4506 H 430.636 1.21035 0.988953 0
M  V30 4507 H 431.371 0.050998 3.2426 0
M  V30 4508 H 431.156 1.80968 3.4784 0
M  V30 4509 H 432.646 1.0037 4.05359 0
M  V30 4510 N 433.083 -1.0153 1.20538 0
M  V30 4511 C 434.332 -1.74558 1.01057 0
M  V30 4512 C 434.645 -1.90168 -0.457756 0
M  V30 4513 O 435.851 -2.60301 -0.771722 0
M  V30 4514 C 434.307 -3.13963 1.75941 0
M  V30 4515 C 433.915 -3.06361 3.26875 0
M  V30 4516 C 435.659 -3.91191 1.64832 0
M  V30 4517 C 433.566 -4.40782 3.94291 0
M  V30 4518 H 432.496 -0.654417 0.374505 0
M  V30 4519 H 435.147 -1.13521 1.44171 0
M  V30 4520 H 433.529 -3.75549 1.25614 0
M  V30 4521 H 434.703 -2.54074 3.84425 0
M  V30 4522 H 433.018 -2.42625 3.38411 0
M  V30 4523 H 435.615 -4.90644 2.12539 0
M  V30 4524 H 435.958 -4.11884 0.604745 0
M  V30 4525 H 436.491 -3.36236 2.12579 0
M  V30 4526 H 433.23 -4.25292 4.98805 0
M  V30 4527 H 432.75 -4.9307 3.41529 0
M  V30 4528 H 434.429 -5.09621 3.98617 0
M  V30 4529 N 434.561 -1.01147 -1.20859 0
M  V30 4530 C 435.977 -0.725422 -1.42161 0
M  V30 4531 C 436.177 0.696919 -1.89064 0
M  V30 4532 O 435.233 1.46539 -2.05627 0
M  V30 4533 C 436.546 -1.74678 -2.44761 0
M  V30 4534 C 438.094 -1.76433 -2.58535 0
M  V30 4535 C 438.569 -2.77481 -3.64374 0
M  V30 4536 N 440.06 -2.76189 -3.71852 0
M  V30 4537 C 440.795 -3.51035 -4.53389 0
M  V30 4538 N 440.291 -4.35541 -5.38773 0
M  V30 4539 N 442.084 -3.39655 -4.47873 0
M  V30 4540 H 434.235 -1.92979 -0.887282 0
M  V30 4541 H 436.498 -0.833327 -0.451962 0
M  V30 4542 H 436.204 -2.76551 -2.17285 0
M  V30 4543 H 436.078 -1.55472 -3.43669 0
M  V30 4544 H 438.465 -0.75248 -2.85345 0
M  V30 4545 H 438.546 -1.99712 -1.5984 0
M  V30 4546 H 438.19 -3.78827 -3.38308 0
M  V30 4547 H 438.12 -2.51466 -4.6268 0
M  V30 4548 H 440.611 -2.14885 -3.10858 0
M  V30 4549 H 440.924 -4.89432 -5.98061 0
M  V30 4550 H 439.269 -4.39621 -5.38292 0
M  V30 4551 H 442.46 -2.73063 -3.80203 0
M  V30 4552 H 442.633 -3.9824 -5.11184 0
M  V30 4553 N 436.039 1.36541 -0.78704 0
M  V30 4554 C 436.987 2.31965 -0.171724 0
M  V30 4555 C 437.981 1.55689 0.667631 0
M  V30 4556 O 439.187 1.70969 0.562981 0
M  V30 4557 H 435.562 0.751101 -0.0367545 0
M  V30 4558 H 437.533 2.81428 -0.992017 0
M  V30 4559 C 436.282 3.40968 0.680904 0
M  V30 4560 H 435.605 3.99775 0.0443961 0
M  V30 4561 H 437.045 4.10063 1.07815 0
M  V30 4562 C 435.504 2.82338 1.83813 0
M  V30 4563 O 436.034 2.74311 2.93456 0
M  V30 4564 N 434.24 2.39661 1.6435 0
M  V30 4565 H 433.787 2.46389 0.751668 0
M  V30 4566 H 433.745 2.00779 2.4194 0
M  V30 4567 N 437.518 0.538854 1.48102 0
M  V30 4568 C 438.748 0.0122958 2.06596 0
M  V30 4569 C 439.156 -1.27861 1.39457 0
M  V30 4570 O 438.499 -1.77348 0.478907 0
M  V30 4571 C 438.561 -0.273131 3.58461 0
M  V30 4572 C 438.225 0.92561 4.47528 0
M  V30 4573 C 439.222 1.82637 4.86765 0
M  V30 4574 C 436.907 1.13511 4.89306 0
M  V30 4575 C 438.901 2.92047 5.66558 0
M  V30 4576 C 436.588 2.23233 5.68868 0
M  V30 4577 C 437.586 3.12333 6.07402 0
M  V30 4578 O 437.274 4.20155 6.85365 0
M  V30 4579 H 437.006 0.0344283 0.675123 0
M  V30 4580 H 439.56 0.746494 1.91355 0
M  V30 4581 H 437.79 -1.06141 3.71848 0
M  V30 4582 H 439.479 -0.742842 3.99045 0
M  V30 4583 H 440.245 1.67649 4.55103 0
M  V30 4584 H 436.124 0.450835 4.5879 0
M  V30 4585 H 439.668 3.6162 5.96554 0
M  V30 4586 H 435.565 2.38201 5.99942 0
M  V30 4587 H 436.333 4.17975 7.03732 0
M  V30 4588 N 438.996 -1.55193 0.274407 0
M  V30 4589 C 440.244 -1.99187 -0.341902 0
M  V30 4590 C 440.565 -1.16422 -1.56431 0
M  V30 4591 O 439.835 -0.253573 -1.94252 0
M  V30 4592 H 438.415 -0.735721 -0.129317 0
M  V30 4593 H 441.077 -1.91168 0.379578 0
M  V30 4594 H 440.173 -3.05629 -0.632253 0
M  V30 4595 N 440.474 -0.00167713 -1.576 0
M  V30 4596 C 441.723 0.682021 -1.89819 0
M  V30 4597 C 442.036 1.74844 -0.876871 0
M  V30 4598 O 443.242 2.48688 -1.08934 0
M  V30 4599 C 441.698 1.26425 -3.36964 0
M  V30 4600 C 441.306 0.232568 -4.47396 0
M  V30 4601 C 443.05 1.92604 -3.78291 0
M  V30 4602 C 440.957 0.824882 -5.85619 0
M  V30 4603 H 439.887 0.258499 -0.708304 0
M  V30 4604 H 442.538 -0.0624957 -1.83394 0
M  V30 4605 H 440.92 2.05949 -3.38232 0
M  V30 4606 H 442.094 -0.5382 -4.57646 0
M  V30 4607 H 440.409 -0.32888 -4.15099 0
M  V30 4608 H 443.006 2.37827 -4.78897 0
M  V30 4609 H 443.349 2.75732 -3.11894 0
M  V30 4610 H 443.882 1.19812 -3.79328 0
M  V30 4611 H 440.621 0.0323542 -6.55492 0
M  V30 4612 H 440.141 1.56477 -5.79029 0
M  V30 4613 H 441.82 1.32301 -6.33329 0
M  V30 4614 N 441.952 1.55251 0.271103 0
M  V30 4615 C 442.862 1.9136 1.35714 0
M  V30 4616 C 443.878 0.811075 1.5394 0
M  V30 4617 O 445.054 1.11031 1.6803 0
M  V30 4618 C 442.119 2.1798 2.69603 0
M  V30 4619 C 441.18 3.4153 2.60107 0
M  V30 4620 C 440.413 3.66871 3.8761 0
M  V30 4621 O 440.636 2.94689 4.8838 0
M  V30 4622 O 439.57 4.60405 3.87699 0
M  V30 4623 H 443.396 2.83815 1.08088 0
M  V30 4624 H 440.981 1.41821 0.469792 0
M  V30 4625 H 442.863 2.36518 3.48765 0
M  V30 4626 H 441.538 1.28708 2.97012 0
M  V30 4627 H 440.445 3.28325 1.79314 0
M  V30 4628 H 441.778 4.31027 2.37647 0
M  V30 4629 N 443.43 -0.535701 1.48216 0
M  V30 4630 C 444.36 -1.65014 1.65204 0
M  V30 4631 C 445.341 -1.62554 0.501011 0
M  V30 4632 O 446.526 -1.7984 0.732886 0
M  V30 4633 C 443.656 -3.03616 1.68626 0
M  V30 4634 C 442.61 -3.20932 2.83172 0
M  V30 4635 C 441.936 -4.60537 2.71679 0
M  V30 4636 C 443.236 -3.04249 4.24535 0
M  V30 4637 H 444.93 -1.51053 2.58502 0
M  V30 4638 H 442.476 -0.725262 1.24402 0
M  V30 4639 H 444.429 -3.81446 1.79099 0
M  V30 4640 H 443.153 -3.18587 0.719026 0
M  V30 4641 H 441.812 -2.45517 2.72244 0
M  V30 4642 H 441.46 -4.72336 1.72937 0
M  V30 4643 H 441.16 -4.73069 3.48538 0
M  V30 4644 H 442.684 -5.40475 2.84112 0
M  V30 4645 H 444.098 -3.71877 4.36326 0
M  V30 4646 H 442.495 -3.28278 5.02348 0
M  V30 4647 H 443.565 -2.00739 4.41397 0
M  V30 4648 N 444.908 -1.36708 -0.784132 0
M  V30 4649 C 445.871 -1.31307 -1.87859 0
M  V30 4650 C 446.871 -0.219654 -1.59293 0
M  V30 4651 O 448.061 -0.47476 -1.67606 0
M  V30 4652 C 445.193 -1.03679 -3.24751 0
M  V30 4653 H 446.386 -2.28647 -1.94064 0
M  V30 4654 H 443.939 -1.21558 -0.98252 0
M  V30 4655 H 444.674 -0.0681936 -3.24228 0
M  V30 4656 H 444.459 -1.82811 -3.46876 0
M  V30 4657 H 445.949 -1.02518 -4.04821 0
M  V30 4658 N 446.386 1.0089 -1.21074 0
M  V30 4659 C 447.632 1.74866 -1.02712 0
M  V30 4660 C 447.965 1.89178 0.438787 0
M  V30 4661 O 447.24 1.42325 1.32567 0
M  V30 4662 C 447.523 3.16347 -1.72036 0
M  V30 4663 C 447.376 3.09782 -3.26121 0
M  V30 4664 C 448.695 4.15187 -1.45973 0
M  V30 4665 H 445.814 0.634736 -0.374539 0
M  V30 4666 H 448.456 1.17646 -1.49196 0
M  V30 4667 H 446.606 3.65201 -1.32517 0
M  V30 4668 H 448.278 2.68673 -3.74983 0
M  V30 4669 H 446.521 2.46982 -3.56626 0
M  V30 4670 H 447.192 4.09829 -3.6979 0
M  V30 4671 H 449.668 3.75022 -1.80272 0
M  V30 4672 H 448.544 5.12331 -1.96999 0
M  V30 4673 H 448.805 4.40386 -0.388924 0
M  V30 4674 N 447.864 1.01787 1.20321 0
M  V30 4675 C 449.089 0.727009 1.9424 0
M  V30 4676 C 449.514 -0.706179 1.74341 0
M  V30 4677 O 448.872 -1.48609 1.03852 0
M  V30 4678 C 448.92 1.06958 3.44372 0
M  V30 4679 O 448.024 0.181983 4.11998 0
M  V30 4680 H 447.365 0.269626 0.606793 0
M  V30 4681 H 449.895 1.36158 1.52716 0
M  V30 4682 H 449.905 1.02182 3.94997 0
M  V30 4683 H 448.58 2.11378 3.58179 0
M  V30 4684 H 447.157 0.287378 3.71791 0
M  V30 4685 N 449.342 -1.36122 0.79427 0
M  V30 4686 C 450.272 -2.32551 0.210328 0
M  V30 4687 C 451.253 -1.56884 -0.657386 0
M  V30 4688 O 452.438 -1.85014 -0.590207 0
M  V30 4689 C 449.568 -3.41128 -0.651819 0
M  V30 4690 C 448.522 -4.27842 0.116395 0
M  V30 4691 C 447.848 -5.2763 -0.86666 0
M  V30 4692 C 449.148 -5.05647 1.30837 0
M  V30 4693 H 450.842 -2.81636 1.01594 0
M  V30 4694 H 448.388 -1.35407 0.489981 0
M  V30 4695 H 450.341 -4.07581 -1.07031 0
M  V30 4696 H 449.065 -2.90622 -1.49019 0
M  V30 4697 H 447.724 -3.62952 0.515915 0
M  V30 4698 H 447.372 -4.73395 -1.70019 0
M  V30 4699 H 447.072 -5.86514 -0.35705 0
M  V30 4700 H 448.596 -5.96955 -1.28361 0
M  V30 4701 H 450.01 -5.65113 0.965393 0
M  V30 4702 H 448.407 -5.73967 1.75161 0
M  V30 4703 H 449.477 -4.37006 2.10128 0
M  V30 4704 N 450.82 -0.546701 -1.47814 0
M  V30 4705 C 452.06 -0.0209604 -2.04389 0
M  V30 4706 C 452.424 1.29993 -1.413 0
M  V30 4707 O 453.625 1.91273 -1.8886 0
M  V30 4708 C 451.896 0.0812844 -3.57308 0
M  V30 4709 S 453.455 0.55467 -4.3528 0
M  V30 4710 H 450.273 -0.0200865 -0.710716 0
M  V30 4711 H 452.875 -0.731055 -1.81317 0
M  V30 4712 H 451.579 -0.884616 -4.00753 0
M  V30 4713 H 451.11 0.815253 -3.8486 0
M  V30 4714 H 453.125 1.81627 -4.61764 0
M  V30 4715 N 452.299 1.55045 -0.282633 0
M  V30 4716 C 453.231 2.2023 0.634924 0
M  V30 4717 C 454.244 1.18931 1.11172 0
M  V30 4718 O 455.433 1.4562 1.03233 0
M  V30 4719 C 452.533 2.82041 1.87899 0
M  V30 4720 C 451.706 4.091 1.54776 0
M  V30 4721 C 450.765 4.54887 2.64507 0
M  V30 4722 O 449.791 5.20496 2.30375 0
M  V30 4723 N 450.993 4.25659 3.94709 0
M  V30 4724 H 453.758 2.99601 0.0769811 0
M  V30 4725 H 451.319 1.61565 -0.104048 0
M  V30 4726 H 453.311 3.09613 2.60619 0
M  V30 4727 H 451.881 2.06618 2.3458 0
M  V30 4728 H 451.101 3.88736 0.654049 0
M  V30 4729 H 452.389 4.9187 1.30158 0
M  V30 4730 H 451.787 3.7306 4.25256 0
M  V30 4731 H 450.344 4.57984 4.63782 0
M  V30 4732 N 453.777 0.010035 1.57597 0
M  V30 4733 C 454.687 -0.994226 2.12491 0
M  V30 4734 C 455.703 -1.37013 1.07254 0
M  V30 4735 O 456.879 -1.45542 1.3921 0
M  V30 4736 C 453.944 -2.2642 2.62555 0
M  V30 4737 C 453.005 -1.95049 3.82432 0
M  V30 4738 C 452.238 -3.15991 4.30099 0
M  V30 4739 O 452.461 -4.28015 3.7704 0
M  V30 4740 O 451.395 -2.99403 5.22151 0
M  V30 4741 H 455.221 -0.557549 2.98538 0
M  V30 4742 H 452.806 -0.209413 1.47925 0
M  V30 4743 H 454.688 -3.01009 2.9491 0
M  V30 4744 H 453.363 -2.69306 1.796 0
M  V30 4745 H 452.27 -1.17904 3.55034 0
M  V30 4746 H 453.603 -1.56992 4.66491 0
M  V30 4747 N 455.255 -1.55392 -0.262866 0
M  V30 4748 C 456.185 -1.91978 -1.32917 0
M  V30 4749 C 457.166 -0.7828 -1.51017 0
M  V30 4750 O 458.351 -1.04178 -1.63892 0
M  V30 4751 C 455.481 -2.20055 -2.68687 0
M  V30 4752 C 454.435 -3.35854 -2.65304 0
M  V30 4753 C 453.761 -3.49435 -4.04721 0
M  V30 4754 C 455.061 -4.71977 -2.23685 0
M  V30 4755 H 456.755 -2.81292 -1.02544 0
M  V30 4756 H 454.301 -1.3534 -0.491846 0
M  V30 4757 H 456.254 -2.44237 -3.43404 0
M  V30 4758 H 454.978 -1.27551 -3.00663 0
M  V30 4759 H 453.637 -3.11655 -1.93045 0
M  V30 4760 H 453.285 -2.54379 -4.33936 0
M  V30 4761 H 452.985 -4.27297 -4.0335 0
M  V30 4762 H 454.509 -3.7592 -4.81161 0
M  V30 4763 H 455.923 -4.95637 -2.88127 0
M  V30 4764 H 454.32 -5.52828 -2.33456 0
M  V30 4765 H 455.39 -4.70115 -1.18827 0
M  V30 4766 N 456.733 0.527833 -1.48498 0
M  V30 4767 C 457.663 1.64136 -1.66077 0
M  V30 4768 C 458.644 1.62286 -0.509625 0
M  V30 4769 O 459.829 1.79449 -0.742413 0
M  V30 4770 C 456.959 3.02717 -1.70234 0
M  V30 4771 C 455.913 3.19426 -2.8487 0
M  V30 4772 C 455.239 4.5909 -2.74118 0
M  V30 4773 C 456.539 3.01993 -4.26142 0
M  V30 4774 H 458.233 1.4968 -2.593 0
M  V30 4775 H 455.779 0.718654 -1.24785 0
M  V30 4776 H 457.732 3.80491 -1.8112 0
M  V30 4777 H 456.456 3.18201 -0.735911 0
M  V30 4778 H 455.115 2.4407 -2.73542 0
M  V30 4779 H 454.763 4.71413 -1.7544 0
M  V30 4780 H 454.463 4.71214 -3.51042 0
M  V30 4781 H 455.987 5.3896 -2.86974 0
M  V30 4782 H 457.401 3.69558 -4.38292 0
M  V30 4783 H 455.798 3.2561 -5.04082 0
M  V30 4784 H 456.868 1.98396 -4.42456 0
M  V30 4785 N 458.211 1.37122 0.776871 0
M  V30 4786 C 459.174 1.32301 1.8716 0
M  V30 4787 C 460.174 0.228099 1.59174 0
M  V30 4788 O 461.364 0.483642 1.67352 0
M  V30 4789 C 458.496 1.054 3.24197 0
M  V30 4790 H 459.689 2.29673 1.92848 0
M  V30 4791 H 457.242 1.22077 0.97606 0
M  V30 4792 H 457.977 0.0853872 3.24188 0
M  V30 4793 H 457.762 1.84648 3.45901 0
M  V30 4794 H 459.252 1.04664 4.04271 0
M  V30 4795 N 459.689 -1.00246 1.21608 0
M  V30 4796 C 460.914 -1.78167 1.06167 0
M  V30 4797 C 461.339 -1.84138 -0.384035 0
M  V30 4798 O 460.697 -1.28683 -1.27712 0
M  V30 4799 C 460.745 -3.19786 1.66642 0
M  V30 4800 O 459.849 -4.02153 0.913613 0
M  V30 4801 H 459.19 -0.549 0.37349 0
M  V30 4802 H 461.72 -1.25994 1.61204 0
M  V30 4803 H 461.73 -3.70451 1.70969 0
M  V30 4804 H 460.405 -3.14754 2.7185 0
M  V30 4805 H 458.982 -3.60711 0.945635 0
M  V30 4806 N 461.167 -1.02423 -1.1978 0
M  V30 4807 C 462.415 -0.716569 -1.8897 0
M  V30 4808 C 462.736 0.756769 -1.79716 0
M  V30 4809 O 462.006 1.5449 -1.20456 0
M  V30 4810 H 460.586 -0.262062 -0.699523 0
M  V30 4811 H 463.248 -1.29747 -1.45436 0
M  V30 4812 H 462.344 -1.00675 -2.95417 0
M  V30 4813 N 462.645 1.35699 -0.801477 0
M  V30 4814 C 463.575 2.32436 -0.222658 0
M  V30 4815 C 464.556 1.5723 0.649057 0
M  V30 4816 O 465.741 1.85324 0.580387 0
M  V30 4817 C 462.871 3.41469 0.633719 0
M  V30 4818 C 461.825 4.27774 -0.139083 0
M  V30 4819 C 461.151 5.28082 0.838666 0
M  V30 4820 C 462.451 5.04946 -1.33517 0
M  V30 4821 H 464.145 2.81094 -1.03086 0
M  V30 4822 H 461.691 1.35146 -0.497155 0
M  V30 4823 H 463.644 4.08143 1.04868 0
M  V30 4824 H 462.368 2.91408 1.47475 0
M  V30 4825 H 461.027 3.62673 -0.535156 0
M  V30 4826 H 460.675 4.7429 1.67506 0
M  V30 4827 H 460.375 5.86695 0.32594 0
M  V30 4828 H 461.899 5.97628 1.25194 0
M  V30 4829 H 463.313 5.64593 -0.995349 0
M  V30 4830 H 461.71 5.7303 -1.78202 0
M  V30 4831 H 462.78 4.35886 -2.12442 0
M  V30 4832 N 464.123 0.554532 1.47522 0
M  V30 4833 C 465.369 0.0295227 2.02779 0
M  V30 4834 C 465.702 -1.31582 1.42828 0
M  V30 4835 O 464.977 -1.85561 0.582872 0
M  V30 4836 C 465.26 -0.0664057 3.60039 0
M  V30 4837 C 465.113 1.30585 4.30427 0
M  V30 4838 C 466.432 -0.781162 4.33112 0
M  V30 4839 H 463.551 0.0122027 0.736899 0
M  V30 4840 H 466.193 0.716305 1.7598 0
M  V30 4841 H 464.343 -0.651307 3.83002 0
M  V30 4842 H 466.015 1.93374 4.18813 0
M  V30 4843 H 464.258 1.88125 3.90886 0
M  V30 4844 H 464.929 1.19147 5.38988 0
M  V30 4845 H 467.405 -0.284565 4.15126 0
M  V30 4846 H 466.281 -0.817237 5.42782 0
M  V30 4847 H 466.542 -1.83672 4.0214 0
M  V30 4848 N 465.601 -1.54893 0.290851 0
M  V30 4849 C 467.012 -1.85584 -0.203816 0
M  V30 4850 C 467.363 -1.21285 -1.54222 0
M  V30 4851 O 466.488 -0.506841 -2.10381 0
M  V30 4852 C 467.083 -3.367 -0.376595 0
M  V30 4853 C 465.642 -3.6746 -0.815485 0
M  V30 4854 C 464.789 -2.77178 0.0821087 0
M  V30 4855 H 467.74 -1.50208 0.512175 0
M  V30 4856 H 467.761 -3.60656 -1.21275 0
M  V30 4857 H 467.273 -3.8347 0.59767 0
M  V30 4858 H 465.374 -3.26201 -1.80066 0
M  V30 4859 H 465.487 -4.7478 -0.641905 0
M  V30 4860 H 463.851 -2.50925 -0.436895 0
M  V30 4861 H 464.634 -3.26767 1.05254 0
M  V30 4862 N 467.08 -0.0183926 -1.57589 0
M  V30 4863 C 468.328 0.661253 -1.90976 0
M  V30 4864 C 468.649 1.73281 -0.894353 0
M  V30 4865 O 467.919 1.9579 0.0656788 0
M  V30 4866 H 466.499 0.247233 -0.704901 0
M  V30 4867 H 469.161 -0.0636639 -1.94796 0
M  V30 4868 H 468.257 1.12083 -2.9128 0
M  V30 4869 N 468.558 1.5553 0.254621 0
M  V30 4870 C 469.488 1.9268 1.31897 0
M  V30 4871 C 470.469 0.790797 1.506 0
M  V30 4872 O 471.654 1.05045 1.63337 0
M  V30 4873 C 468.784 2.21477 2.67517 0
M  V30 4874 C 467.738 3.37256 2.63519 0
M  V30 4875 C 467.064 3.51576 4.02862 0
M  V30 4876 C 468.364 4.73157 2.21179 0
M  V30 4877 H 470.058 2.81832 1.01051 0
M  V30 4878 H 467.604 1.35599 0.484662 0
M  V30 4879 H 469.557 2.46055 3.42104 0
M  V30 4880 H 468.281 1.29144 2.99982 0
M  V30 4881 H 466.94 3.12675 1.9139 0
M  V30 4882 H 466.588 2.56676 4.32581 0
M  V30 4883 H 466.288 4.2943 4.01078 0
M  V30 4884 H 467.812 3.78467 4.79161 0
M  V30 4885 H 469.226 4.97158 2.85494 0
M  V30 4886 H 467.623 5.54058 2.30521 0
M  V30 4887 H 468.693 4.70739 1.16332 0
M  V30 4888 N 470.036 -0.519951 1.48776 0
M  V30 4889 C 470.986 -1.61995 1.60442 0
M  V30 4890 C 471.97 -1.54155 0.460991 0
M  V30 4891 O 473.162 -1.62006 0.712965 0
M  V30 4892 C 470.291 -3.00683 1.65664 0
M  V30 4893 C 469.377 -3.1359 2.8552 0
M  V30 4894 N 469.768 -2.96441 4.09825 0
M  V30 4895 C 468.066 -3.44662 2.83062 0
M  V30 4896 C 468.767 -3.1303 4.90293 0
M  V30 4897 N 467.743 -3.41058 4.23297 0
M  V30 4898 H 471.545 -1.47362 2.54287 0
M  V30 4899 H 469.059 -0.725649 1.45286 0
M  V30 4900 H 471.056 -3.79712 1.72117 0
M  V30 4901 H 469.716 -3.16401 0.729425 0
M  V30 4902 H 470.727 -2.72999 4.40104 0
M  V30 4903 H 467.404 -3.66675 1.9964 0
M  V30 4904 H 468.794 -3.04424 5.98979 0
M  V30 4905 N 471.514 -1.37532 -0.769588 0
M  V30 4906 C 472.761 -1.3286 -1.52822 0
M  V30 4907 C 473.089 0.0862597 -1.94309 0
M  V30 4908 O 472.344 1.05995 -1.6451 0
M  V30 4909 C 472.643 -2.21558 -2.8044 0
M  V30 4910 C 472.309 -3.69796 -2.57996 0
M  V30 4911 C 470.971 -4.10194 -2.51583 0
M  V30 4912 C 473.323 -4.63699 -2.37976 0
M  V30 4913 C 470.651 -5.42608 -2.23144 0
M  V30 4914 C 473.003 -5.96353 -2.1106 0
M  V30 4915 C 471.667 -6.35853 -2.03093 0
M  V30 4916 H 470.937 -0.486168 -0.559215 0
M  V30 4917 H 473.584 -1.69757 -0.886277 0
M  V30 4918 H 471.889 -1.77663 -3.49204 0
M  V30 4919 H 473.586 -2.15256 -3.38328 0
M  V30 4920 H 470.176 -3.37759 -2.63851 0
M  V30 4921 H 474.36 -4.33346 -2.41919 0
M  V30 4922 H 469.616 -5.72173 -2.15472 0
M  V30 4923 H 473.79 -6.68667 -1.94568 0
M  V30 4924 H 471.417 -7.38382 -1.8082 0
M  V30 4925 N 472.992 0.995999 -1.22138 0
M  V30 4926 C 474.222 1.76809 -1.06874 0
M  V30 4927 C 474.63 1.85265 0.383866 0
M  V30 4928 O 473.973 1.31969 1.27789 0
M  V30 4929 C 474.035 3.2186 -1.60144 0
M  V30 4930 C 473.699 3.36958 -3.0872 0
M  V30 4931 C 474.696 3.2452 -4.0618 0
M  V30 4932 C 472.381 3.62109 -3.48112 0
M  V30 4933 C 474.375 3.37013 -5.41019 0
M  V30 4934 C 472.062 3.74243 -4.831 0
M  V30 4935 C 473.06 3.61702 -5.79362 0
M  V30 4936 O 472.748 3.73436 -7.119 0
M  V30 4937 H 472.48 0.562207 -0.375365 0
M  V30 4938 H 475.034 1.26113 -1.62125 0
M  V30 4939 H 473.264 3.73734 -0.992981 0
M  V30 4940 H 474.953 3.80775 -1.40589 0
M  V30 4941 H 475.719 3.05004 -3.77091 0
M  V30 4942 H 471.598 3.70949 -2.73712 0
M  V30 4943 H 475.142 3.27141 -6.16137 0
M  V30 4944 H 471.039 3.93266 -5.11872 0
M  V30 4945 H 471.807 3.90328 -7.19435 0
M  V30 4946 N 474.47 1.03057 1.19235 0
M  V30 4947 C 475.698 0.747697 1.92917 0
M  V30 4948 C 476.113 -0.69372 1.75593 0
M  V30 4949 O 475.47 -1.47191 1.07894 0
M  V30 4950 C 475.521 1.09159 3.44625 0
M  V30 4951 O 475.242 2.47641 3.61394 0
M  V30 4952 C 476.743 0.831763 4.35427 0
M  V30 4953 H 473.963 0.273453 0.612751 0
M  V30 4954 H 476.507 1.37552 1.51327 0
M  V30 4955 H 474.662 0.508919 3.84043 0
M  V30 4956 H 475.076 2.60499 4.55237 0
M  V30 4957 H 476.55 1.12233 5.4047 0
M  V30 4958 H 477.027 -0.233769 4.38577 0
M  V30 4959 H 477.633 1.39725 4.01693 0
M  V30 4960 N 475.948 -1.35272 0.808662 0
M  V30 4961 C 476.878 -2.32315 0.234981 0
M  V30 4962 C 477.859 -1.57572 -0.64071 0
M  V30 4963 O 479.044 -1.8563 -0.570551 0
M  V30 4964 C 476.174 -3.41801 -0.615601 0
M  V30 4965 C 475.128 -4.27694 0.161767 0
M  V30 4966 C 474.454 -5.28519 -0.810649 0
M  V30 4967 C 475.754 -5.04231 1.36193 0
M  V30 4968 H 477.448 -2.80543 1.04575 0
M  V30 4969 H 474.994 -1.3488 0.504315 0
M  V30 4970 H 476.947 -4.08693 -1.02702 0
M  V30 4971 H 475.671 -2.92186 -1.45928 0
M  V30 4972 H 474.33 -3.62384 0.554382 0
M  V30 4973 H 473.978 -4.75171 -1.64988 0
M  V30 4974 H 473.678 -5.8686 -0.294822 0
M  V30 4975 H 475.202 -5.98283 -1.22023 0
M  V30 4976 H 476.616 -5.64058 1.02528 0
M  V30 4977 H 475.013 -5.72077 1.81239 0
M  V30 4978 H 476.083 -4.34753 2.14751 0
M  V30 4979 N 477.426 -0.562348 -1.47226 0
M  V30 4980 C 478.374 0.195476 -2.31777 0
M  V30 4981 C 479.368 0.90433 -1.43242 0
M  V30 4982 O 480.574 0.825031 -1.59979 0
M  V30 4983 H 476.949 0.0819095 -0.747526 0
M  V30 4984 H 478.92 -0.536753 -2.93533 0
M  V30 4985 C 477.669 1.20902 -3.26003 0
M  V30 4986 H 476.992 0.672997 -3.94095 0
M  V30 4987 H 478.432 1.71006 -3.87986 0
M  V30 4988 C 476.891 2.25955 -2.49891 0
M  V30 4989 O 477.421 3.32969 -2.2471 0
M  V30 4990 N 475.627 2.00019 -2.1081 0
M  V30 4991 H 475.174 1.13006 -2.31489 0
M  V30 4992 H 475.132 2.70523 -1.60201 0
M  V30 4993 N 478.904 1.54736 -0.299062 0
M  V30 4994 C 480.32 1.59507 0.0543849 0
M  V30 4995 C 480.52 1.31606 1.52585 0
M  V30 4996 O 479.576 1.08853 2.27832 0
M  V30 4997 C 480.889 2.98751 -0.34181 0
M  V30 4998 C 482.437 3.1165 -0.290414 0
M  V30 4999 C 482.912 4.53199 -0.661402 0
M  V30 5000 N 484.403 4.59114 -0.613863 0
M  V30 5001 C 485.138 5.66709 -0.873417 0
M  V30 5002 N 484.634 6.82349 -1.19884 0
M  V30 5003 N 486.427 5.56369 -0.800608 0
M  V30 5004 H 478.578 1.71133 -1.25806 0
M  V30 5005 H 480.841 0.799186 -0.509908 0
M  V30 5006 H 480.547 3.24085 -1.36608 0
M  V30 5007 H 480.421 3.75961 0.305508 0
M  V30 5008 H 482.808 2.86066 0.724605 0
M  V30 5009 H 482.889 2.366 -0.972327 0
M  V30 5010 H 482.533 4.79513 -1.67422 0
M  V30 5011 H 482.463 5.26583 0.0425612 0
M  V30 5012 H 484.954 3.76053 -0.3732 0
M  V30 5013 H 485.267 7.60326 -1.38291 0
M  V30 5014 H 483.612 6.83906 -1.23685 0
M  V30 5015 H 486.803 4.64904 -0.546045 0
M  V30 5016 H 486.976 6.40139 -1.00626 0
M  V30 5017 N 480.382 0.0267497 1.57577 0
M  V30 5018 C 481.292 -0.971633 2.13533 0
M  V30 5019 C 482.308 -1.35868 1.08701 0
M  V30 5020 O 483.484 -1.44058 1.40746 0
M  V30 5021 C 480.549 -2.23622 2.64941 0
M  V30 5022 C 479.61 -1.90982 3.8448 0
M  V30 5023 C 478.843 -3.11411 4.33427 0
M  V30 5024 O 479.066 -4.23992 3.81558 0
M  V30 5025 O 478 -2.93848 5.25297 0
M  V30 5026 H 481.826 -0.525853 2.99113 0
M  V30 5027 H 479.411 -0.193712 1.48139 0
M  V30 5028 H 481.293 -2.97864 2.98086 0
M  V30 5029 H 479.968 -2.67386 1.82446 0
M  V30 5030 H 478.875 -1.14132 3.56265 0
M  V30 5031 H 480.208 -1.52036 4.6813 0
M  V30 5032 N 481.861 -1.55662 -0.24637 0
M  V30 5033 C 482.794 -1.85332 -1.33143 0
M  V30 5034 C 483.772 -0.708464 -1.46354 0
M  V30 5035 O 484.956 -0.954274 -1.6256 0
M  V30 5036 C 482.083 -2.0385 -2.70487 0
M  V30 5037 C 481.129 -3.26488 -2.74423 0
M  V30 5038 S 481.962 -4.83124 -2.30979 0
M  V30 5039 C 483.118 -5.04647 -3.70246 0
M  V30 5040 H 483.351 -2.77077 -1.07777 0
M  V30 5041 H 480.884 -1.47776 -0.44738 0
M  V30 5042 H 482.842 -2.15202 -3.49569 0
M  V30 5043 H 481.503 -1.12947 -2.9309 0
M  V30 5044 H 480.696 -3.36413 -3.7529 0
M  V30 5045 H 480.298 -3.13864 -2.03385 0
M  V30 5046 H 482.59 -4.92023 -4.65746 0
M  V30 5047 H 483.533 -6.06625 -3.65255 0
M  V30 5048 H 483.941 -4.32491 -3.62784 0
M  V30 5049 N 483.339 0.512053 -1.4905 0
M  V30 5050 C 484.302 1.59704 -1.64399 0
M  V30 5051 C 485.302 1.52285 -0.516317 0
M  V30 5052 O 486.492 1.55635 -0.782527 0
M  V30 5053 C 483.624 2.9935 -1.63102 0
M  V30 5054 H 484.817 1.47428 -2.61161 0
M  V30 5055 H 482.37 0.735469 -1.37915 0
M  V30 5056 H 483.105 3.17116 -0.678836 0
M  V30 5057 H 482.89 3.06144 -2.44986 0
M  V30 5058 H 484.38 3.782 -1.77072 0
M  V30 5059 N 484.817 1.37938 0.762283 0
M  V30 5060 C 486.045 1.36883 1.55147 0
M  V30 5061 C 486.46 -0.0435348 1.8875 0
M  V30 5062 O 485.817 -1.00786 1.52146 0
M  V30 5063 C 485.868 2.21624 2.85596 0
M  V30 5064 O 485.589 3.57358 2.5343 0
M  V30 5065 C 487.09 2.28653 3.7978 0
M  V30 5066 H 484.31 0.468521 0.480343 0
M  V30 5067 H 486.854 1.81404 0.944079 0
M  V30 5068 H 485.009 1.80588 3.42734 0
M  V30 5069 H 485.423 4.01883 3.37032 0
M  V30 5070 H 486.897 2.9225 4.68288 0
M  V30 5071 H 487.374 1.29767 4.19592 0
M  V30 5072 H 487.98 2.70043 3.28568 0
M  V30 5073 N 486.295 -0.989507 1.22664 0
M  V30 5074 C 487.523 -1.76496 1.07967 0
M  V30 5075 C 487.938 -1.85148 -0.369543 0
M  V30 5076 O 487.295 -1.32408 -1.25596 0
M  V30 5077 C 487.346 -3.19642 1.68853 0
M  V30 5078 O 487.067 -3.11453 3.08105 0
M  V30 5079 C 488.568 -4.13621 1.59475 0
M  V30 5080 H 485.788 -0.55418 0.378319 0
M  V30 5081 H 488.332 -1.24378 1.62328 0
M  V30 5082 H 486.487 -3.68816 1.18547 0
M  V30 5083 H 486.901 -4.01499 3.37489 0
M  V30 5084 H 488.375 -5.11801 2.06795 0
M  V30 5085 H 488.852 -4.35718 0.55191 0
M  V30 5086 H 489.458 -3.70346 2.09103 0
M  V30 5087 N 487.773 -1.03688 -1.18687 0
M  V30 5088 C 488.683 -0.634908 -2.25845 0
M  V30 5089 C 489.699 0.337065 -1.70704 0
M  V30 5090 O 490.875 0.192943 -2.00474 0
M  V30 5091 C 487.94 -0.000180054 -3.467 0
M  V30 5092 C 487.001 -1.02067 -4.1699 0
M  V30 5093 C 486.234 -0.41614 -5.32075 0
M  V30 5094 O 486.457 0.778712 -5.65059 0
M  V30 5095 O 485.391 -1.14296 -5.90948 0
M  V30 5096 H 489.217 -1.52757 -2.62486 0
M  V30 5097 H 486.802 -0.807533 -1.25695 0
M  V30 5098 H 488.684 0.353342 -4.19916 0
M  V30 5099 H 487.359 0.866367 -3.11891 0
M  V30 5100 H 486.266 -1.42592 -3.45859 0
M  V30 5101 H 487.599 -1.85786 -4.5579 0
M  V30 5102 N 489.251 1.34841 -0.815825 0
M  V30 5103 C 490.497 1.98793 -0.401129 0
M  V30 5104 C 490.83 1.64548 1.03139 0
M  V30 5105 O 490.105 0.913487 1.71714 0
M  V30 5106 C 490.388 3.55143 -0.595409 0
M  V30 5107 C 490.241 3.99155 -2.07352 0
M  V30 5108 C 491.56 4.40092 -0.0268823 0
M  V30 5109 H 488.679 0.722146 -0.14722 0
M  V30 5110 H 491.321 1.59847 -1.02707 0
M  V30 5111 H 489.471 3.8845 -0.0625779 0
M  V30 5112 H 491.143 3.76216 -2.66945 0
M  V30 5113 H 489.386 3.49726 -2.56659 0
M  V30 5114 H 490.057 5.07971 -2.1603 0
M  V30 5115 H 492.533 4.13298 -0.482042 0
M  V30 5116 H 491.409 5.48562 -0.19267 0
M  V30 5117 H 491.67 4.29016 1.06759 0
M  V30 5118 N 490.729 0.570148 1.46925 0
M  V30 5119 C 491.659 -0.158274 2.32963 0
M  V30 5120 C 492.64 -0.896093 1.44583 0
M  V30 5121 O 493.825 -0.874022 1.7342 0
M  V30 5122 C 490.955 -1.18055 3.26619 0
M  V30 5123 C 489.909 -0.558379 4.24342 0
M  V30 5124 C 489.235 -1.68623 5.07415 0
M  V30 5125 C 490.535 0.496295 5.19937 0
M  V30 5126 H 492.229 0.560046 2.94115 0
M  V30 5127 H 489.775 0.270775 1.41431 0
M  V30 5128 H 491.728 -1.69841 3.85658 0
M  V30 5129 H 490.452 -1.92899 2.63548 0
M  V30 5130 H 489.111 -0.0617157 3.66548 0
M  V30 5131 H 488.759 -2.42402 4.40738 0
M  V30 5132 H 488.459 -1.27564 5.73586 0
M  V30 5133 H 489.983 -2.20709 5.69315 0
M  V30 5134 H 491.397 0.0640052 5.73264 0
M  V30 5135 H 489.794 0.82649 5.94381 0
M  V30 5136 H 490.864 1.38735 4.6463 0
M  V30 5137 N 492.207 -1.54576 0.307264 0
M  V30 5138 C 493.154 -2.23751 -0.56604 0
M  V30 5139 C 494.124 -1.22235 -1.12462 0
M  V30 5140 O 495.309 -1.50873 -1.16799 0
M  V30 5141 C 492.449 -2.98661 -1.72903 0
M  V30 5142 C 491.562 -4.14963 -1.20124 0
M  V30 5143 C 490.697 -4.77441 -2.3286 0
M  V30 5144 C 489.736 -5.85875 -1.77247 0
M  V30 5145 N 488.873 -6.42282 -2.8358 0
M  V30 5146 H 493.713 -2.97984 0.0304578 0
M  V30 5147 H 491.25 -1.47076 0.0268015 0
M  V30 5148 H 493.208 -3.40329 -2.41313 0
M  V30 5149 H 491.838 -2.26793 -2.29706 0
M  V30 5150 H 490.89 -3.78193 -0.409198 0
M  V30 5151 H 492.202 -4.93066 -0.754171 0
M  V30 5152 H 491.356 -5.21993 -3.09205 0
M  V30 5153 H 490.095 -3.98684 -2.80896 0
M  V30 5154 H 489.1 -5.40741 -0.993926 0
M  V30 5155 H 490.325 -6.6652 -1.30107 0
M  V30 5156 H 488.271 -5.66406 -3.30939 0
M  V30 5157 H 488.188 -7.1575 -2.43388 0
M  V30 5158 H 489.456 -6.91492 -3.59804 0
M  V30 5159 N 493.685 -0.035106 -1.57561 0
M  V30 5160 C 495.101 0.321334 -1.56332 0
M  V30 5161 C 495.301 1.72509 -1.04129 0
M  V30 5162 O 494.357 2.4287 -0.690694 0
M  V30 5163 C 495.67 0.164469 -3.0025 0
M  V30 5164 C 497.218 0.236786 -3.12103 0
M  V30 5165 C 497.693 0.10864 -4.57871 0
M  V30 5166 N 499.184 0.165433 -4.62904 0
M  V30 5167 C 499.919 0.0901506 -5.73329 0
M  V30 5168 N 499.415 -0.0365606 -6.9279 0
M  V30 5169 N 501.208 0.144572 -5.61914 0
M  V30 5170 H 493.359 -0.952976 -1.89821 0
M  V30 5171 H 495.622 -0.368537 -0.873432 0
M  V30 5172 H 495.328 -0.802746 -3.42416 0
M  V30 5173 H 495.202 0.932194 -3.655 0
M  V30 5174 H 497.589 1.19446 -2.69845 0
M  V30 5175 H 497.67 -0.561419 -2.49563 0
M  V30 5176 H 497.314 -0.845644 -5.00811 0
M  V30 5177 H 497.244 0.925786 -5.18398 0
M  V30 5178 H 499.735 0.263269 -3.76982 0
M  V30 5179 H 500.048 -0.0871487 -7.72751 0
M  V30 5180 H 498.393 -0.0714256 -6.94963 0
M  V30 5181 H 501.584 0.242006 -4.67474 0
M  V30 5182 H 501.757 0.0824413 -6.47948 0
M  V30 5183 N 495.163 1.55791 0.238111 0
M  V30 5184 C 496.093 1.94068 1.29846 0
M  V30 5185 C 497.074 0.806726 1.49753 0
M  V30 5186 O 498.259 1.06772 1.62214 0
M  V30 5187 C 495.389 2.24302 2.65153 0
M  V30 5188 C 494.343 3.40032 2.59927 0
M  V30 5189 C 493.669 3.55829 3.99111 0
M  V30 5190 C 494.969 4.75476 2.16148 0
M  V30 5191 H 496.663 2.82887 0.980563 0
M  V30 5192 H 494.209 1.36105 0.470253 0
M  V30 5193 H 496.162 2.4967 3.39475 0
M  V30 5194 H 494.886 1.32318 2.98596 0
M  V30 5195 H 493.545 3.14687 1.88063 0
M  V30 5196 H 493.193 2.6125 4.29834 0
M  V30 5197 H 492.893 4.3366 3.96501 0
M  V30 5198 H 494.417 3.83528 4.7512 0
M  V30 5199 H 495.831 5.00158 2.80205 0
M  V30 5200 H 494.228 5.56472 2.24631 0
M  V30 5201 H 495.298 4.71946 1.11333 0
M  V30 5202 N 496.642 -0.504142 1.49319 0
M  V30 5203 C 497.89 -1.25598 1.58334 0
M  V30 5204 C 498.211 -1.93114 0.270538 0
M  V30 5205 O 497.481 -1.82585 -0.709891 0
M  V30 5206 H 496.061 -0.466571 0.58337 0
M  V30 5207 H 498.723 -0.584547 1.85928 0
M  V30 5208 H 497.819 -2.02159 2.37778 0
M  V30 5209 N 498.12 -1.38341 -0.754957 0
M  V30 5210 C 499.053 -1.29837 -1.87663 0
M  V30 5211 C 500.031 -0.175659 -1.61648 0
M  V30 5212 O 501.215 -0.352745 -1.8517 0
M  V30 5213 C 498.342 -1.01141 -3.23246 0
M  V30 5214 C 497.388 -2.15331 -3.6815 0
M  V30 5215 S 498.221 -3.77459 -3.79849 0
M  V30 5216 C 499.377 -3.50948 -5.18253 0
M  V30 5217 H 499.61 -2.24771 -1.9459 0
M  V30 5218 H 497.143 -1.24161 -0.917796 0
M  V30 5219 H 499.101 -0.852687 -4.01546 0
M  V30 5220 H 497.762 -0.0792784 -3.14 0
M  V30 5221 H 496.955 -1.90795 -4.6649 0
M  V30 5222 H 496.557 -2.27304 -2.97 0
M  V30 5223 H 498.849 -3.06977 -6.03963 0
M  V30 5224 H 499.792 -4.48677 -5.47809 0
M  V30 5225 H 500.2 -2.85492 -4.86985 0
M  V30 5226 N 499.598 0.982988 -1.23187 0
M  V30 5227 C 500.844 1.7273 -1.07405 0
M  V30 5228 C 501.199 1.885 0.385447 0
M  V30 5229 O 500.492 1.4243 1.28157 0
M  V30 5230 C 500.686 3.12736 -1.73006 0
M  V30 5231 C 500.515 3.10621 -3.25184 0
M  V30 5232 C 499.285 3.15957 -3.94334 0
M  V30 5233 C 501.483 2.93992 -4.21987 0
M  V30 5234 N 499.465 3.03701 -5.33516 0
M  V30 5235 C 500.836 2.8987 -5.48065 0
M  V30 5236 C 502.891 2.78457 -4.12754 0
M  V30 5237 C 501.594 2.71804 -6.65969 0
M  V30 5238 C 503.62 2.61754 -5.30319 0
M  V30 5239 C 502.982 2.58328 -6.55321 0
M  V30 5240 H 499.081 0.641279 -0.447533 0
M  V30 5241 H 501.665 1.16664 -1.55877 0
M  V30 5242 H 499.836 3.67026 -1.2707 0
M  V30 5243 H 501.568 3.75786 -1.50224 0
M  V30 5244 H 498.323 3.24034 -3.45397 0
M  V30 5245 H 498.747 3.00855 -6.06478 0
M  V30 5246 H 503.389 2.79898 -3.16886 0
M  V30 5247 H 501.107 2.69108 -7.61975 0
M  V30 5248 H 504.693 2.50702 -5.25014 0
M  V30 5249 H 503.573 2.45564 -7.4476 0
M  V30 5250 N 501.076 1.04316 1.18135 0
M  V30 5251 C 502.304 0.768117 1.92113 0
M  V30 5252 C 502.719 -0.675057 1.76319 0
M  V30 5253 O 502.076 -1.46038 1.09449 0
M  V30 5254 C 502.127 1.12808 3.43448 0
M  V30 5255 O 501.848 2.5146 3.58747 0
M  V30 5256 C 503.349 0.8779 4.3452 0
M  V30 5257 H 500.569 0.279937 0.609817 0
M  V30 5258 H 503.113 1.39149 1.49859 0
M  V30 5259 H 501.268 0.549623 3.83481 0
M  V30 5260 H 501.682 2.65313 4.52448 0
M  V30 5261 H 503.156 1.17959 5.39249 0
M  V30 5262 H 503.633 -0.187239 4.38801 0
M  V30 5263 H 504.239 1.43977 4.00188 0
M  V30 5264 N 502.554 -1.34406 0.822964 0
M  V30 5265 C 503.464 -2.33298 0.246838 0
M  V30 5266 C 504.48 -1.62625 -0.618797 0
M  V30 5267 O 505.656 -1.94391 -0.526685 0
M  V30 5268 C 502.721 -3.41785 -0.581731 0
M  V30 5269 C 501.782 -4.28206 0.306309 0
M  V30 5270 C 501.015 -5.31512 -0.48281 0
M  V30 5271 O 501.238 -5.43973 -1.71607 0
M  V30 5272 O 500.172 -6.01749 0.134884 0
M  V30 5273 H 503.998 -2.84401 1.06534 0
M  V30 5274 H 501.583 -1.37466 0.585108 0
M  V30 5275 H 503.465 -4.08028 -1.05313 0
M  V30 5276 H 502.14 -2.92925 -1.37756 0
M  V30 5277 H 501.047 -3.64885 0.825199 0
M  V30 5278 H 502.38 -4.80507 1.06649 0
M  V30 5279 N 504.032 -0.577932 -1.46621 0
M  V30 5280 C 505.309 0.00495287 -1.95599 0
M  V30 5281 C 505.689 1.46428 -1.5206 0
M  V30 5282 O 505.037 2.1517 -0.769046 0
M  V30 5283 C 505.247 -0.162114 -3.48623 0
M  V30 5284 C 506.595 -0.0274623 -4.24591 0
M  V30 5285 O 507.619 -0.0907067 -3.56084 0
M  V30 5286 O 506.478 0.1122 -5.46385 0
M  V30 5287 H 503.572 0.0525057 -0.825332 0
M  V30 5288 H 506.118 -0.645914 -1.56927 0
M  V30 5289 H 504.89 -1.17679 -3.73185 0
M  V30 5290 H 504.513 0.525407 -3.94113 0
M  V30 5291 N 505.51 1.54411 -0.315457 0
M  V30 5292 C 506.921 1.85885 0.174265 0
M  V30 5293 C 507.272 1.23723 1.52273 0
M  V30 5294 O 506.397 0.540246 2.09548 0
M  V30 5295 C 506.992 3.37257 0.322981 0
M  V30 5296 C 505.551 3.68711 0.756922 0
M  V30 5297 C 504.698 2.77013 -0.126195 0
M  V30 5298 H 507.649 1.49374 -0.536007 0
M  V30 5299 H 507.67 3.62539 1.15522 0
M  V30 5300 H 507.182 3.82471 -0.658602 0
M  V30 5301 H 505.283 3.29024 1.74854 0
M  V30 5302 H 505.396 4.75741 0.566291 0
M  V30 5303 H 503.76 2.51588 0.39692 0
M  V30 5304 H 504.543 3.25051 -1.1044 0
M  V30 5305 N 506.988 0.0434614 1.5754 0
M  V30 5306 C 508.404 -0.313039 1.565 0
M  V30 5307 C 508.604 -1.71954 1.05043 0
M  V30 5308 O 507.66 -2.425 0.703564 0
M  V30 5309 C 508.973 -0.148544 3.00333 0
M  V30 5310 C 510.521 -0.220231 3.12224 0
M  V30 5311 C 510.996 -0.0843565 4.57922 0
M  V30 5312 N 512.487 -0.140881 4.62986 0
M  V30 5313 C 513.222 -0.0597443 5.73369 0
M  V30 5314 N 512.718 0.0733004 6.92761 0
M  V30 5315 N 514.511 -0.11477 5.61983 0
M  V30 5316 H 506.662 0.96303 1.89313 0
M  V30 5317 H 508.925 0.373164 0.871466 0
M  V30 5318 H 508.631 0.820894 3.41986 0
M  V30 5319 H 508.505 -0.912798 3.65989 0
M  V30 5320 H 510.892 -1.18014 2.70475 0
M  V30 5321 H 510.973 0.574646 2.49262 0
M  V30 5322 H 510.617 0.872192 5.00355 0
M  V30 5323 H 510.547 -0.898281 5.18882 0
M  V30 5324 H 513.038 -0.243273 3.77116 0
M  V30 5325 H 513.351 0.128128 7.72694 0
M  V30 5326 H 511.696 0.10828 6.94916 0
M  V30 5327 H 514.887 -0.217212 4.67596 0
M  V30 5328 H 515.06 -0.0480779 6.47982 0
M  V30 5329 N 508.466 -1.55915 -0.229846 0
M  V30 5330 C 509.882 -1.48721 -0.579166 0
M  V30 5331 C 510.082 -0.736976 -1.87539 0
M  V30 5332 O 509.138 -0.273258 -2.51017 0
M  V30 5333 C 510.451 -2.9323 -0.666082 0
M  V30 5334 C 511.999 -3.03701 -0.757267 0
M  V30 5335 C 512.474 -4.49552 -0.8756 0
M  V30 5336 N 513.965 -4.53561 -0.940035 0
M  V30 5337 C 514.7 -5.63683 -1.05116 0
M  V30 5338 N 514.196 -6.83576 -1.12675 0
M  V30 5339 N 515.989 -5.51516 -1.08565 0
M  V30 5340 H 508.14 -2.03123 0.620857 0
M  V30 5341 H 510.403 -0.922898 0.21671 0
M  V30 5342 H 510.109 -3.51032 0.21664 0
M  V30 5343 H 509.983 -3.44668 -1.53243 0
M  V30 5344 H 512.37 -2.45969 -1.63043 0
M  V30 5345 H 512.451 -2.55446 0.134583 0
M  V30 5346 H 512.095 -5.079 -0.00692351 0
M  V30 5347 H 512.025 -4.95506 -1.78274 0
M  V30 5348 H 514.516 -3.67215 -0.892269 0
M  V30 5349 H 514.829 -7.63251 -1.21109 0
M  V30 5350 H 513.174 -6.86303 -1.09603 0
M  V30 5351 H 516.365 -4.5678 -1.02319 0
M  V30 5352 H 516.538 -6.37372 -1.1688 0
M  V30 5353 N 509.944 0.496216 -1.49584 0
M  V30 5354 C 511.355 1.07765 -1.52459 0
M  V30 5355 C 511.706 1.93679 -0.31353 0
M  V30 5356 O 510.831 2.08588 0.576186 0
M  V30 5357 C 511.426 1.96111 -2.76271 0
M  V30 5358 C 509.985 2.49409 -2.81908 0
M  V30 5359 C 509.132 1.27142 -2.46435 0
M  V30 5360 H 512.083 0.279914 -1.56212 0
M  V30 5361 H 512.104 2.80862 -2.56704 0
M  V30 5362 H 511.616 1.33555 -3.64396 0
M  V30 5363 H 509.717 3.1559 -1.98074 0
M  V30 5364 H 509.83 2.86234 -3.84196 0
M  V30 5365 H 508.194 1.59818 -1.98319 0
M  V30 5366 H 508.977 0.662866 -3.3684 0
M  V30 5367 N 511.423 1.38739 0.74761 0
M  V30 5368 C 512.353 1.39173 1.87492 0
M  V30 5369 C 513.334 0.256794 1.6815 0
M  V30 5370 O 514.519 0.460762 1.88655 0
M  V30 5371 C 511.649 1.22197 3.25093 0
M  V30 5372 C 510.603 2.32957 3.59047 0
M  V30 5373 C 509.929 2.01082 4.95449 0
M  V30 5374 C 511.229 3.75237 3.6331 0
M  V30 5375 H 512.923 2.3351 1.87386 0
M  V30 5376 H 510.469 1.12399 0.900134 0
M  V30 5377 H 512.422 1.21124 4.03617 0
M  V30 5378 H 511.146 0.243241 3.25693 0
M  V30 5379 H 509.805 2.33226 2.82845 0
M  V30 5380 H 509.453 1.01678 4.92616 0
M  V30 5381 H 509.153 2.75267 5.19136 0
M  V30 5382 H 510.677 2.01638 5.76346 0
M  V30 5383 H 512.091 3.76966 4.31937 0
M  V30 5384 H 510.488 4.48677 3.98509 0
M  V30 5385 H 511.558 4.07122 2.634 0
M  V30 5386 N 512.901 -0.976442 1.23707 0
M  V30 5387 C 514.312 -1.53284 1.06587 0
M  V30 5388 C 514.663 -1.92765 -0.365526 0
M  V30 5389 O 513.788 -1.7645 -1.25277 0
M  V30 5390 C 514.383 -2.78548 1.92864 0
M  V30 5391 C 512.942 -3.30574 1.79994 0
M  V30 5392 C 512.089 -2.03538 1.88328 0
M  V30 5393 H 515.04 -0.795692 1.37311 0
M  V30 5394 H 515.061 -3.5155 1.45577 0
M  V30 5395 H 514.573 -2.49782 2.97037 0
M  V30 5396 H 512.674 -3.64211 0.786202 0
M  V30 5397 H 512.787 -4.00065 2.636 0
M  V30 5398 H 511.151 -2.17853 1.31954 0
M  V30 5399 H 511.934 -1.77149 2.94063 0
M  V30 5400 N 514.379 -1.04941 -1.1758 0
M  V30 5401 C 515.625 -0.768896 -1.88307 0
M  V30 5402 C 515.98 0.696361 -1.79356 0
M  V30 5403 O 515.273 1.50245 -1.18899 0
M  V30 5404 C 515.467 -1.18062 -3.37337 0
M  V30 5405 C 515.296 -2.68436 -3.60794 0
M  V30 5406 C 514.066 -3.35709 -3.77661 0
M  V30 5407 C 516.264 -3.66657 -3.60649 0
M  V30 5408 N 514.246 -4.74974 -3.88939 0
M  V30 5409 C 515.617 -4.91638 -3.77747 0
M  V30 5410 C 517.672 -3.60162 -3.43785 0
M  V30 5411 C 516.375 -6.10902 -3.79726 0
M  V30 5412 C 518.401 -4.78863 -3.47051 0
M  V30 5413 C 517.763 -6.02666 -3.64654 0
M  V30 5414 H 513.862 -0.33355 -0.707296 0
M  V30 5415 H 516.446 -1.34085 -1.41171 0
M  V30 5416 H 514.617 -0.636648 -3.83147 0
M  V30 5417 H 516.349 -0.8502 -3.95669 0
M  V30 5418 H 513.104 -2.8611 -3.77409 0
M  V30 5419 H 513.528 -5.47378 -3.98379 0
M  V30 5420 H 518.17 -2.65412 -3.29114 0
M  V30 5421 H 515.888 -7.05998 -3.93182 0
M  V30 5422 H 519.474 -4.75488 -3.35265 0
M  V30 5423 H 518.354 -6.92979 -3.67083 0
M  V30 5424 N 515.857 1.33968 -0.830081 0
M  V30 5425 C 516.82 2.27694 -0.26235 0
M  V30 5426 C 517.82 1.50589 0.563876 0
M  V30 5427 O 519.01 1.70028 0.378941 0
M  V30 5428 C 516.142 3.35002 0.63138 0
M  V30 5429 H 517.335 2.79419 -1.08928 0
M  V30 5430 H 514.888 1.44221 -0.602486 0
M  V30 5431 H 515.623 2.88504 1.48109 0
M  V30 5432 H 515.408 3.92079 0.0403276 0
M  V30 5433 H 516.898 4.04897 1.02217 0
M  V30 5434 N 517.335 0.585699 1.46312 0
M  V30 5435 C 518.265 -0.133556 2.33118 0
M  V30 5436 C 519.246 -0.880707 1.45525 0
M  V30 5437 O 520.431 -0.855579 1.74337 0
M  V30 5438 C 517.561 -1.14585 3.27853 0
M  V30 5439 C 516.515 -0.513341 4.2491 0
M  V30 5440 C 515.841 -1.63231 5.09175 0
M  V30 5441 C 517.141 0.551413 5.19381 0
M  V30 5442 H 518.835 0.59121 2.93505 0
M  V30 5443 H 516.381 0.285761 1.41136 0
M  V30 5444 H 518.334 -1.65741 3.87438 0
M  V30 5445 H 517.058 -1.90093 2.65579 0
M  V30 5446 H 515.717 -0.0228349 3.66593 0
M  V30 5447 H 515.365 -2.37713 4.43285 0
M  V30 5448 H 515.065 -1.21473 5.74907 0
M  V30 5449 H 516.589 -2.14658 5.71624 0
M  V30 5450 H 518.003 0.124804 5.73164 0
M  V30 5451 H 516.4 0.889486 5.93471 0
M  V30 5452 H 517.47 1.43655 4.63132 0
M  V30 5453 N 518.813 -1.54241 0.323641 0
M  V30 5454 C 520.038 -2.05452 -0.283605 0
M  V30 5455 C 520.463 -1.19823 -1.44997 0
M  V30 5456 O 519.821 -0.207358 -1.8011 0
M  V30 5457 C 519.869 -3.53823 -0.695795 0
M  V30 5458 O 518.973 -3.71134 -1.79815 0
M  V30 5459 H 518.314 -0.662024 -0.0511917 0
M  V30 5460 H 520.844 -1.99079 0.472073 0
M  V30 5461 H 520.854 -3.96094 -0.978434 0
M  V30 5462 H 519.529 -4.15602 0.157287 0
M  V30 5463 H 518.106 -3.40768 -1.51431 0
M  V30 5464 N 520.291 -0.0518155 -1.57515 0
M  V30 5465 C 521.254 0.907547 -2.10467 0
M  V30 5466 C 522.254 1.23947 -1.02439 0
M  V30 5467 O 523.444 1.17604 -1.2851 0
M  V30 5468 C 520.576 2.21723 -2.58944 0
M  V30 5469 H 521.769 0.44851 -2.96527 0
M  V30 5470 H 519.322 0.196598 -1.55059 0
M  V30 5471 H 520.057 2.72206 -1.76279 0
M  V30 5472 H 519.842 1.98935 -3.37886 0
M  V30 5473 H 521.332 2.90441 -3.00056 0
M  V30 5474 N 521.769 1.56035 0.221574 0
M  V30 5475 C 522.719 1.8881 1.27807 0
M  V30 5476 C 523.703 0.751177 1.42289 0
M  V30 5477 O 524.895 1.01359 1.45104 0
M  V30 5478 C 522.024 2.20828 2.6285 0
M  V30 5479 C 521.11 3.40912 2.52269 0
M  V30 5480 N 521.501 4.59531 2.1134 0
M  V30 5481 C 519.799 3.44526 2.83228 0
M  V30 5482 C 520.5 5.41689 2.1201 0
M  V30 5483 N 519.476 4.814 2.52497 0
M  V30 5484 H 523.278 2.78036 0.952529 0
M  V30 5485 H 520.792 1.566 0.430134 0
M  V30 5486 H 522.789 2.42483 3.39127 0
M  V30 5487 H 521.449 1.32914 2.9625 0
M  V30 5488 H 522.46 4.8469 1.82472 0
M  V30 5489 H 519.137 2.66956 3.21 0
M  V30 5490 H 520.527 6.46643 1.82491 0
M  V30 5491 N 523.247 -0.488276 1.49845 0
M  V30 5492 C 524.658 -1.06955 1.53028 0
M  V30 5493 C 525.009 -1.9351 0.323797 0
M  V30 5494 O 524.134 -2.08891 -0.565116 0
M  V30 5495 C 524.729 -1.94643 2.77307 0
M  V30 5496 C 523.288 -2.4791 2.83227 0
M  V30 5497 C 522.435 -1.25833 2.47106 0
M  V30 5498 H 525.386 -0.271626 1.56358 0
M  V30 5499 H 525.407 -2.79496 2.5819 0
M  V30 5500 H 524.919 -1.31621 3.65099 0
M  V30 5501 H 523.02 -3.14535 1.99745 0
M  V30 5502 H 523.133 -2.84193 3.85709 0
M  V30 5503 H 521.497 -1.58764 1.99163 0
M  V30 5504 H 522.28 -0.644993 3.37186 0
M  V30 5505 N 524.725 -1.39134 -0.740242 0
M  V30 5506 C 525.672 -1.37434 -1.8542 0
M  V30 5507 C 526.642 -0.234822 -1.64432 0
M  V30 5508 O 527.827 -0.429125 -1.85912 0
M  V30 5509 C 524.967 -1.21844 -3.22875 0
M  V30 5510 C 524.08 -2.45296 -3.55603 0
M  V30 5511 C 523.215 -2.22334 -4.82432 0
M  V30 5512 C 522.254 -3.41488 -5.07988 0
M  V30 5513 N 521.391 -3.17877 -6.26018 0
M  V30 5514 H 526.231 -2.3266 -1.86207 0
M  V30 5515 H 523.768 -1.15578 -0.909946 0
M  V30 5516 H 525.726 -1.10818 -4.02213 0
M  V30 5517 H 524.356 -0.3025 -3.21379 0
M  V30 5518 H 523.408 -2.66945 -2.71006 0
M  V30 5519 H 524.72 -3.34063 -3.7041 0
M  V30 5520 H 523.874 -2.0852 -5.69741 0
M  V30 5521 H 522.613 -1.30954 -4.6979 0
M  V30 5522 H 521.618 -3.55807 -4.19144 0
M  V30 5523 H 522.843 -4.33763 -5.22519 0
M  V30 5524 H 520.789 -2.29156 -6.14673 0
M  V30 5525 H 520.706 -4.00198 -6.41387 0
M  V30 5526 H 521.974 -3.07746 -7.16179 0
M  V30 5527 N 526.204 0.969867 -1.24223 0
M  V30 5528 C 527.62 1.23809 -1.00716 0
M  V30 5529 C 527.82 1.99469 0.285358 0
M  V30 5530 O 526.876 2.31764 1.00207 0
M  V30 5531 C 528.189 2.02734 -2.2208 0
M  V30 5532 C 529.737 2.15834 -2.26681 0
M  V30 5533 C 530.212 2.98154 -3.47661 0
M  V30 5534 N 531.703 3.05737 -3.47964 0
M  V30 5535 C 532.438 3.69785 -4.38231 0
M  V30 5536 N 531.934 4.35569 -5.3875 0
M  V30 5537 N 533.727 3.66775 -4.25949 0
M  V30 5538 H 525.878 0.463294 -2.07286 0
M  V30 5539 H 528.141 0.267348 -0.909521 0
M  V30 5540 H 527.847 1.54524 -3.15935 0
M  V30 5541 H 527.721 3.0347 -2.24021 0
M  V30 5542 H 530.108 2.63248 -1.33359 0
M  V30 5543 H 530.189 1.14453 -2.28767 0
M  V30 5544 H 529.833 2.51435 -4.41297 0
M  V30 5545 H 529.763 3.99729 -3.42818 0
M  V30 5546 H 532.254 2.58941 -2.75242 0
M  V30 5547 H 532.567 4.82251 -6.03866 0
M  V30 5548 H 530.912 4.34244 -5.42639 0
M  V30 5549 H 534.103 3.14558 -3.46657 0
M  V30 5550 H 534.276 4.16407 -4.96497 0
M  V30 5551 N 527.682 1.05563 1.17022 0
M  V30 5552 C 529.098 0.777684 1.39371 0
M  V30 5553 C 529.298 -0.626269 1.91521 0
M  V30 5554 O 528.354 -1.38806 2.10924 0
M  V30 5555 C 529.667 1.83642 2.3811 0
M  V30 5556 C 531.215 1.85907 2.51809 0
M  V30 5557 C 531.69 2.90813 3.53824 0
M  V30 5558 N 533.181 2.898 3.61345 0
M  V30 5559 C 533.916 3.6762 4.40049 0
M  V30 5560 N 533.412 4.55237 5.22237 0
M  V30 5561 N 535.205 3.56044 4.34959 0
M  V30 5562 H 527.356 1.9614 0.815047 0
M  V30 5563 H 529.619 0.849527 0.420722 0
M  V30 5564 H 529.325 2.84425 2.06871 0
M  V30 5565 H 529.199 1.6812 3.37662 0
M  V30 5566 H 531.586 0.857865 2.82356 0
M  V30 5567 H 531.667 2.05506 1.52318 0
M  V30 5568 H 531.311 3.91122 3.24015 0
M  V30 5569 H 531.241 2.68465 4.53028 0
M  V30 5570 H 533.732 2.26274 3.02669 0
M  V30 5571 H 534.045 5.11291 5.79484 0
M  V30 5572 H 532.39 4.59296 5.21605 0
M  V30 5573 H 535.581 2.86986 3.69806 0
M  V30 5574 H 535.754 4.16938 4.96051 0
M  V30 5575 N 529.16 -1.33526 0.837174 0
M  V30 5576 C 530.07 -2.33023 0.271568 0
M  V30 5577 C 531.086 -1.63272 -0.601514 0
M  V30 5578 O 532.262 -1.94939 -0.506038 0
M  V30 5579 C 529.327 -3.42382 -0.545448 0
M  V30 5580 C 528.388 -4.27857 0.351709 0
M  V30 5581 C 527.621 -5.31994 -0.426409 0
M  V30 5582 O 527.844 -5.45763 -1.65828 0
M  V30 5583 O 526.778 -6.01572 0.1987 0
M  V30 5584 H 530.604 -2.83256 1.09545 0
M  V30 5585 H 528.189 -1.36837 0.599655 0
M  V30 5586 H 530.071 -4.09122 -1.00979 0
M  V30 5587 H 528.746 -2.94369 -1.34641 0
M  V30 5588 H 527.653 -3.6399 0.863853 0
M  V30 5589 H 528.986 -4.79349 1.1174 0
M  V30 5590 N 530.638 -0.59345 -1.46 0
M  V30 5591 C 531.548 0.135817 -2.34207 0
M  V30 5592 C 532.564 0.875008 -1.50398 0
M  V30 5593 O 533.74 0.835778 -1.83239 0
M  V30 5594 C 530.805 1.12977 -3.27776 0
M  V30 5595 C 529.866 0.394081 -4.27487 0
M  V30 5596 C 529.099 1.34068 -5.16586 0
M  V30 5597 O 529.322 2.5778 -5.08828 0
M  V30 5598 O 528.256 0.845426 -5.95933 0
M  V30 5599 H 532.082 -0.588691 -2.9794 0
M  V30 5600 H 529.667 -0.353784 -1.45151 0
M  V30 5601 H 531.549 1.70261 -3.85473 0
M  V30 5602 H 530.224 1.83556 -2.66625 0
M  V30 5603 H 529.131 -0.220869 -3.73447 0
M  V30 5604 H 530.464 -0.270939 -4.91454 0
M  V30 5605 N 532.116 1.54067 -0.331816 0
M  V30 5606 C 533.393 1.92915 0.322955 0
M  V30 5607 C 533.773 1.26225 1.69205 0
M  V30 5608 O 533.121 0.408919 2.24811 0
M  V30 5609 C 533.331 3.46619 0.406946 0
M  V30 5610 C 534.679 4.19386 0.663339 0
M  V30 5611 O 535.703 3.5282 0.489536 0
M  V30 5612 O 534.562 5.37288 0.999193 0
M  V30 5613 H 531.656 0.805808 0.186016 0
M  V30 5614 H 534.202 1.65342 -0.382135 0
M  V30 5615 H 532.974 3.87354 -0.554287 0
M  V30 5616 H 532.597 3.80324 1.15929 0
M  V30 5617 N 533.594 0.0601682 1.57485 0
M  V30 5618 C 534.84 -0.612501 1.93329 0
M  V30 5619 C 535.173 -1.6996 0.939526 0
M  V30 5620 O 534.448 -1.94472 -0.0330957 0
M  V30 5621 C 534.731 -1.20025 3.39508 0
M  V30 5622 C 534.584 -0.12059 4.49638 0
M  V30 5623 C 535.903 -2.10923 3.86264 0
M  V30 5624 H 533.022 -0.221185 0.703027 0
M  V30 5625 H 535.664 0.123768 1.89596 0
M  V30 5626 H 533.814 -1.82774 3.42821 0
M  V30 5627 H 535.486 0.51185 4.58452 0
M  V30 5628 H 533.729 0.550251 4.30296 0
M  V30 5629 H 534.4 -0.572019 5.49028 0
M  V30 5630 H 536.876 -1.58124 3.84884 0
M  V30 5631 H 535.752 -2.48987 4.8918 0
M  V30 5632 H 536.013 -3.01292 3.23536 0
M  V30 5633 N 535.072 -1.5615 -0.213296 0
M  V30 5634 C 536.488 -1.49327 -0.56336 0
M  V30 5635 C 536.688 -0.756826 -1.86747 0
M  V30 5636 O 535.744 -0.299866 -2.50713 0
M  V30 5637 C 537.057 -2.9392 -0.634944 0
M  V30 5638 C 538.605 -3.04487 -0.725013 0
M  V30 5639 C 539.08 -4.50456 -0.82787 0
M  V30 5640 N 540.571 -4.54533 -0.891876 0
M  V30 5641 C 541.306 -5.64766 -0.991315 0
M  V30 5642 N 540.802 -6.84733 -1.05419 0
M  V30 5643 N 542.595 -5.52637 -1.02709 0
M  V30 5644 H 534.746 -2.02453 0.642366 0
M  V30 5645 H 537.009 -0.920548 0.226487 0
M  V30 5646 H 536.715 -3.50783 0.253859 0
M  V30 5647 H 536.589 -3.46274 -1.49579 0
M  V30 5648 H 538.976 -2.47685 -1.60425 0
M  V30 5649 H 539.057 -2.55289 0.161669 0
M  V30 5650 H 538.701 -5.07878 0.0469464 0
M  V30 5651 H 538.631 -4.97369 -1.73009 0
M  V30 5652 H 541.122 -3.68141 -0.85327 0
M  V30 5653 H 541.435 -7.64493 -1.13007 0
M  V30 5654 H 539.78 -6.87427 -1.02318 0
M  V30 5655 H 542.971 -4.5784 -0.974687 0
M  V30 5656 H 543.144 -6.38576 -1.10113 0
M  V30 5657 N 536.55 0.480323 -1.50102 0
M  V30 5658 C 537.961 1.06142 -1.53593 0
M  V30 5659 C 538.312 1.93335 -0.334055 0
M  V30 5660 O 537.437 2.09188 0.55403 0
M  V30 5661 C 538.032 1.9317 -2.78336 0
M  V30 5662 C 536.591 2.46405 -2.84538 0
M  V30 5663 C 535.738 1.24521 -2.4777 0
M  V30 5664 H 538.689 0.26333 -1.565 0
M  V30 5665 H 538.71 2.78123 -2.59669 0
M  V30 5666 H 538.222 1.29683 -3.65792 0
M  V30 5667 H 536.323 3.13472 -2.01411 0
M  V30 5668 H 536.436 2.82143 -3.87211 0
M  V30 5669 H 534.8 1.57706 -2.00003 0
M  V30 5670 H 535.583 0.627102 -3.37524 0
M  V30 5671 N 538.028 1.39524 0.732853 0
M  V30 5672 C 539.277 1.36175 1.48792 0
M  V30 5673 C 539.59 -0.0388195 1.95561 0
M  V30 5674 O 540.796 -0.194899 2.708 0
M  V30 5675 C 539.252 2.39242 2.68871 0
M  V30 5676 C 538.86 3.85024 2.29042 0
M  V30 5677 C 540.604 2.44972 3.46683 0
M  V30 5678 C 538.511 4.79727 3.45856 0
M  V30 5679 H 537.441 0.506267 0.558757 0
M  V30 5680 H 540.092 1.65181 0.799226 0
M  V30 5681 H 538.474 2.0331 3.39825 0
M  V30 5682 H 539.648 4.30008 1.6562 0
M  V30 5683 H 537.963 3.82609 1.64316 0
M  V30 5684 H 540.56 3.12918 4.33574 0
M  V30 5685 H 540.903 1.4749 3.89297 0
M  V30 5686 H 541.436 2.79808 2.82759 0
M  V30 5687 H 538.175 5.78479 3.08289 0
M  V30 5688 H 537.695 4.39421 4.08251 0
M  V30 5689 H 539.374 4.98731 4.12161 0
M  V30 5690 N 539.506 -0.963266 1.24736 0
M  V30 5691 C 540.753 -1.7068 1.0897 0
M  V30 5692 C 541.081 -1.90934 -0.370751 0
M  V30 5693 O 540.336 -1.47155 -1.29011 0
M  V30 5694 C 540.635 -3.09944 1.7796 0
M  V30 5695 C 540.301 -3.09518 3.27887 0
M  V30 5696 C 538.963 -3.09109 3.68789 0
M  V30 5697 C 541.315 -3.03509 4.23712 0
M  V30 5698 C 538.643 -3.00429 5.03944 0
M  V30 5699 C 540.995 -2.96371 5.5888 0
M  V30 5700 C 539.659 -2.94293 5.99123 0
M  V30 5701 H 538.929 -0.624564 0.398749 0
M  V30 5702 H 541.576 -1.12603 1.54896 0
M  V30 5703 H 539.881 -3.71513 1.2444 0
M  V30 5704 H 541.578 -3.66278 1.63222 0
M  V30 5705 H 538.168 -3.10603 2.95337 0
M  V30 5706 H 542.352 -3.0295 3.93109 0
M  V30 5707 H 537.608 -2.97183 5.34314 0
M  V30 5708 H 541.782 -2.90681 6.32833 0
M  V30 5709 H 539.409 -2.87322 7.03811 0
M  V30 5710 N 540.985 -1.06182 -1.16461 0
M  V30 5711 C 542.231 -0.788825 -1.87481 0
M  V30 5712 C 542.586 0.677298 -1.80085 0
M  V30 5713 O 541.879 1.48976 -1.20486 0
M  V30 5714 C 542.073 -1.21633 -3.36066 0
M  V30 5715 C 541.902 -2.72247 -3.57927 0
M  V30 5716 C 540.672 -3.39696 -3.74079 0
M  V30 5717 C 542.87 -3.70461 -3.56739 0
M  V30 5718 N 540.852 -4.79072 -3.83879 0
M  V30 5719 C 542.223 -4.95616 -3.72511 0
M  V30 5720 C 544.278 -3.63788 -3.39945 0
M  V30 5721 C 542.981 -6.14895 -3.73225 0
M  V30 5722 C 545.007 -4.82517 -3.41953 0
M  V30 5723 C 544.369 -6.065 -3.58242 0
M  V30 5724 H 540.468 -0.341034 -0.703719 0
M  V30 5725 H 543.052 -1.35575 -1.39741 0
M  V30 5726 H 541.223 -0.67725 -3.8245 0
M  V30 5727 H 542.955 -0.892119 -3.94745 0
M  V30 5728 H 539.71 -2.90097 -3.74354 0
M  V30 5729 H 540.134 -5.51573 -3.92551 0
M  V30 5730 H 544.776 -2.68888 -3.26281 0
M  V30 5731 H 542.494 -7.10129 -3.85672 0
M  V30 5732 H 546.08 -4.79017 -3.30203 0
M  V30 5733 H 544.96 -6.96833 -3.59712 0
M  V30 5734 N 542.463 1.3308 -0.844243 0
M  V30 5735 C 543.426 2.27403 -0.286485 0
M  V30 5736 C 544.426 1.51179 0.547872 0
M  V30 5737 O 545.616 1.70421 0.360886 0
M  V30 5738 C 542.748 3.35653 0.595813 0
M  V30 5739 H 543.941 2.78248 -1.11885 0
M  V30 5740 H 541.494 1.43574 -0.617749 0
M  V30 5741 H 542.229 2.90058 1.4504 0
M  V30 5742 H 542.014 3.921 -0.00125994 0
M  V30 5743 H 543.504 4.05958 0.979168 0
M  V30 5744 N 543.941 0.601185 1.45683 0
M  V30 5745 C 545.166 0.0982245 2.07167 0
M  V30 5746 C 545.591 -1.20546 1.44396 0
M  V30 5747 O 544.949 -1.73247 0.534347 0
M  V30 5748 C 544.997 -0.0346976 3.60583 0
M  V30 5749 O 544.101 -1.08657 3.97828 0
M  V30 5750 H 543.442 0.0711618 0.660176 0
M  V30 5751 H 545.972 0.829376 1.87036 0
M  V30 5752 H 545.982 -0.234969 4.07323 0
M  V30 5753 H 544.657 0.917265 4.05659 0
M  V30 5754 H 543.234 -0.863275 3.6277 0
M  V30 5755 N 545.419 -1.53889 0.339982 0
M  V30 5756 C 546.835 -1.59595 -0.0120752 0
M  V30 5757 C 547.035 -1.35605 -1.49042 0
M  V30 5758 O 546.091 -1.14856 -2.24865 0
M  V30 5759 C 547.404 -2.9774 0.420898 0
M  V30 5760 C 548.952 -3.1077 0.37294 0
M  V30 5761 C 549.427 -4.51286 0.781327 0
M  V30 5762 N 550.918 -4.57325 0.735374 0
M  V30 5763 C 551.653 -5.64194 1.02336 0
M  V30 5764 N 551.149 -6.7893 1.37933 0
M  V30 5765 N 552.942 -5.54051 0.947838 0
M  V30 5766 H 545.093 -1.67738 1.30299 0
M  V30 5767 H 547.356 -0.785385 0.530918 0
M  V30 5768 H 547.062 -3.20349 1.45152 0
M  V30 5769 H 546.936 -3.76639 -0.205721 0
M  V30 5770 H 549.323 -2.87886 -0.648505 0
M  V30 5771 H 549.404 -2.33939 1.03472 0
M  V30 5772 H 549.048 -4.74905 1.80077 0
M  V30 5773 H 548.978 -5.26511 0.0970679 0
M  V30 5774 H 551.469 -3.74931 0.472773 0
M  V30 5775 H 551.782 -7.56392 1.58402 0
M  V30 5776 H 550.127 -6.80386 1.41774 0
M  V30 5777 H 553.318 -4.63293 0.669115 0
M  V30 5778 H 553.491 -6.37246 1.17563 0
M  V30 5779 N 546.897 -0.0685191 -1.57451 0
M  V30 5780 C 548.308 0.464634 -1.80826 0
M  V30 5781 C 548.659 1.69847 -0.982169 0
M  V30 5782 O 547.784 2.15439 -0.203734 0
M  V30 5783 C 548.379 0.849721 -3.27971 0
M  V30 5784 C 546.938 1.32776 -3.52204 0
M  V30 5785 C 546.085 0.311332 -2.75547 0
M  V30 5786 H 549.036 -0.294248 -1.55948 0
M  V30 5787 H 549.057 1.71138 -3.39841 0
M  V30 5788 H 548.569 -0.0484736 -3.8807 0
M  V30 5789 H 546.67 2.24456 -2.97406 0
M  V30 5790 H 546.783 1.30794 -4.60901 0
M  V30 5791 H 545.147 0.787915 -2.42206 0
M  V30 5792 H 545.93 -0.579078 -3.38381 0
M  V30 5793 N 548.375 1.56261 0.205012 0
M  V30 5794 C 549.322 1.93754 1.25411 0
M  V30 5795 C 550.292 0.796826 1.45739 0
M  V30 5796 O 551.477 1.05414 1.59036 0
M  V30 5797 C 548.617 2.27383 2.59598 0
M  V30 5798 C 547.73 3.5447 2.46931 0
M  V30 5799 C 546.865 3.77468 3.73753 0
M  V30 5800 C 545.904 4.98014 3.55877 0
M  V30 5801 N 545.041 5.17316 4.74688 0
M  V30 5802 H 549.881 2.83203 0.92737 0
M  V30 5803 H 547.418 1.40158 0.446574 0
M  V30 5804 H 549.376 2.44895 3.37761 0
M  V30 5805 H 548.006 1.41088 2.90335 0
M  V30 5806 H 547.058 3.45061 1.60116 0
M  V30 5807 H 548.37 4.42789 2.29651 0
M  V30 5808 H 547.524 3.95165 4.60358 0
M  V30 5809 H 546.263 2.87461 3.93976 0
M  V30 5810 H 545.268 4.80249 2.67657 0
M  V30 5811 H 546.493 5.8952 3.37109 0
M  V30 5812 H 544.439 4.30255 4.95194 0
M  V30 5813 H 544.356 5.99796 4.60197 0
M  V30 5814 H 545.624 5.39463 5.62672 0
M  V30 5815 N 549.853 -0.472356 1.50355 0
M  V30 5816 C 551.078 -1.25251 1.65309 0
M  V30 5817 C 551.503 -1.85081 0.335643 0
M  V30 5818 O 550.861 -1.67227 -0.700335 0
M  V30 5819 C 550.909 -2.3379 2.74544 0
M  V30 5820 O 550.013 -3.38401 2.35709 0
M  V30 5821 H 549.354 -0.368539 0.552336 0
M  V30 5822 H 551.884 -0.562271 1.96722 0
M  V30 5823 H 551.894 -2.79121 2.97583 0
M  V30 5824 H 550.569 -1.89614 3.70161 0
M  V30 5825 H 549.146 -2.9879 2.23112 0
M  V30 5826 N 551.331 -1.39911 -0.725443 0
M  V30 5827 C 552.561 -1.40744 -1.51244 0
M  V30 5828 C 552.969 -0.00275403 -1.892 0
M  V30 5829 O 552.312 0.981299 -1.55294 0
M  V30 5830 C 552.374 -2.22527 -2.82351 0
M  V30 5831 C 552.038 -3.71053 -2.66774 0
M  V30 5832 C 553.035 -4.63916 -2.34686 0
M  V30 5833 C 550.72 -4.14753 -2.83347 0
M  V30 5834 C 552.714 -5.98463 -2.19366 0
M  V30 5835 C 550.401 -5.49372 -2.67644 0
M  V30 5836 C 551.399 -6.41042 -2.357 0
M  V30 5837 O 551.087 -7.73181 -2.20107 0
M  V30 5838 H 550.819 -0.482314 -0.473655 0
M  V30 5839 H 553.373 -1.84472 -0.903284 0
M  V30 5840 H 551.603 -1.73563 -3.45562 0
M  V30 5841 H 553.292 -2.15421 -3.44018 0
M  V30 5842 H 554.058 -4.31453 -2.21525 0
M  V30 5843 H 549.937 -3.43728 -3.072 0
M  V30 5844 H 553.481 -6.69979 -1.94354 0
M  V30 5845 H 549.378 -5.81424 -2.80387 0
M  V30 5846 H 550.146 -7.84008 -2.35103 0
M  V30 5847 N 552.809 0.956637 -1.25245 0
M  V30 5848 C 554.058 1.69537 -1.0927 0
M  V30 5849 C 554.371 1.92136 0.366503 0
M  V30 5850 O 555.577 2.63687 0.64665 0
M  V30 5851 C 554.033 3.05211 -1.9072 0
M  V30 5852 C 553.641 2.90416 -3.41119 0
M  V30 5853 C 555.385 3.82882 -1.83308 0
M  V30 5854 C 553.292 4.21468 -4.14872 0
M  V30 5855 H 552.222 0.635804 -0.405302 0
M  V30 5856 H 554.873 1.06513 -1.49423 0
M  V30 5857 H 553.255 3.69128 -1.43389 0
M  V30 5858 H 554.429 2.35444 -3.9611 0
M  V30 5859 H 552.744 2.26203 -3.49602 0
M  V30 5860 H 555.341 4.79944 -2.35706 0
M  V30 5861 H 555.684 4.0853 -0.800572 0
M  V30 5862 H 556.217 3.25711 -2.28379 0
M  V30 5863 H 552.956 4.01009 -5.18529 0
M  V30 5864 H 552.476 4.76213 -3.64665 0
M  V30 5865 H 554.155 4.90022 -4.22478 0
M  V30 5866 N 554.287 1.06798 1.15896 0
M  V30 5867 C 555.517 0.807522 1.90165 0
M  V30 5868 C 555.925 -0.642417 1.7796 0
M  V30 5869 O 555.268 -1.45193 1.12537 0
M  V30 5870 C 555.33 1.12939 3.41299 0
M  V30 5871 C 554.994 2.57879 3.7729 0
M  V30 5872 C 555.991 3.56118 3.78782 0
M  V30 5873 C 553.676 2.93311 4.07767 0
M  V30 5874 C 555.67 4.87827 4.10248 0
M  V30 5875 C 553.357 4.25219 4.38899 0
M  V30 5876 C 554.355 5.22287 4.4012 0
M  V30 5877 O 554.043 6.51826 4.70508 0
M  V30 5878 H 553.775 0.291946 0.609708 0
M  V30 5879 H 556.329 1.42627 1.47806 0
M  V30 5880 H 554.559 0.45359 3.84031 0
M  V30 5881 H 556.248 0.852363 3.9685 0
M  V30 5882 H 557.014 3.30086 3.55342 0
M  V30 5883 H 552.893 2.18409 4.05979 0
M  V30 5884 H 556.437 5.63586 4.11116 0
M  V30 5885 H 552.334 4.51006 4.61805 0
M  V30 5886 H 553.102 6.56893 4.88298 0
M  V30 5887 N 555.766 -1.3263 0.851289 0
M  V30 5888 C 557.182 -1.50162 0.5407 0
M  V30 5889 C 557.382 -1.78788 -0.929369 0
M  V30 5890 O 556.438 -1.85545 -1.71258 0
M  V30 5891 C 557.751 -2.64803 1.42478 0
M  V30 5892 C 559.299 -2.78688 1.42485 0
M  V30 5893 C 559.774 -3.96405 2.29407 0
M  V30 5894 N 561.265 -4.0366 2.27184 0
M  V30 5895 C 562 -4.93971 2.9117 0
M  V30 5896 N 561.496 -5.89313 3.64256 0
M  V30 5897 N 563.289 -4.87066 2.80576 0
M  V30 5898 H 555.44 -1.12315 1.80275 0
M  V30 5899 H 557.703 -0.553266 0.769806 0
M  V30 5900 H 557.409 -2.50368 2.46999 0
M  V30 5901 H 557.283 -3.60506 1.10974 0
M  V30 5902 H 559.67 -2.92547 0.387304 0
M  V30 5903 H 559.751 -1.83708 1.78002 0
M  V30 5904 H 559.395 -3.83304 3.33228 0
M  V30 5905 H 559.325 -4.90654 1.91224 0
M  V30 5906 H 561.816 -3.35435 1.74045 0
M  V30 5907 H 562.129 -6.54913 4.10255 0
M  V30 5908 H 560.474 -5.8935 3.68364 0
M  V30 5909 H 563.665 -4.11552 2.23031 0
M  V30 5910 H 563.838 -5.57248 3.30725 0
M  V30 5911 N 557.244 -0.608902 -1.45362 0
M  V30 5912 C 558.472 -0.111013 -2.06602 0
M  V30 5913 C 558.887 1.20516 -1.45332 0
M  V30 5914 O 558.244 1.73437 -0.567978 0
M  V30 5915 C 558.295 0.033688 -3.61484 0
M  V30 5916 O 558.016 -1.23041 -4.20467 0
M  V30 5917 C 559.517 0.562882 -4.39712 0
M  V30 5918 H 556.737 -0.0694453 -0.667397 0
M  V30 5919 H 559.281 -0.837008 -1.86586 0
M  V30 5920 H 557.436 0.710016 -3.80838 0
M  V30 5921 H 557.85 -1.06094 -5.13658 0
M  V30 5922 H 559.324 0.613213 -5.48583 0
M  V30 5923 H 559.801 1.58543 -4.09586 0
M  V30 5924 H 560.407 -0.0794454 -4.25226 0
M  V30 5925 N 558.722 1.53707 -0.348139 0
M  V30 5926 C 559.654 2.22725 0.540946 0
M  V30 5927 C 560.667 1.2354 1.06027 0
M  V30 5928 O 561.856 1.49867 0.96964 0
M  V30 5929 C 558.956 2.89756 1.75768 0
M  V30 5930 C 558.129 4.15297 1.37285 0
M  V30 5931 C 557.188 4.65697 2.44976 0
M  V30 5932 O 556.214 5.29798 2.08092 0
M  V30 5933 N 557.416 4.42017 3.763 0
M  V30 5934 H 560.181 2.99658 -0.0501592 0
M  V30 5935 H 557.742 1.60979 -0.17248 0
M  V30 5936 H 559.734 3.20388 2.47252 0
M  V30 5937 H 558.304 2.16382 2.25605 0
M  V30 5938 H 557.524 3.9116 0.488584 0
M  V30 5939 H 558.812 4.96948 1.09179 0
M  V30 5940 H 558.21 3.9076 4.09051 0
M  V30 5941 H 556.767 4.77242 4.4394 0
M  V30 5942 N 560.2 0.0768682 1.57412 0
M  V30 5943 C 561.11 -0.903207 2.16516 0
M  V30 5944 C 562.126 -1.32341 1.12968 0
M  V30 5945 O 563.302 -1.39507 1.45258 0
M  V30 5946 C 560.367 -2.1508 2.71922 0
M  V30 5947 C 559.428 -1.78653 3.90361 0
M  V30 5948 C 558.661 -2.97465 4.43114 0
M  V30 5949 O 558.884 -4.11638 3.94854 0
M  V30 5950 O 557.818 -2.76987 5.3438 0
M  V30 5951 H 561.644 -0.430427 3.00634 0
M  V30 5952 H 559.229 -0.146485 1.4868 0
M  V30 5953 H 561.111 -2.8823 3.07411 0
M  V30 5954 H 559.786 -2.61446 1.9086 0
M  V30 5955 H 558.693 -1.0274 3.59716 0
M  V30 5956 H 560.026 -1.37066 4.7273 0
M  V30 5957 N 561.678 -1.56367 -0.196722 0
M  V30 5958 C 562.924 -1.81698 -0.914182 0
M  V30 5959 C 563.279 -0.65367 -1.80956 0
M  V30 5960 O 562.572 0.351224 -1.88353 0
M  V30 5961 C 562.766 -3.10663 -1.767 0
M  V30 5962 C 562.595 -4.39428 -0.955689 0
M  V30 5963 C 561.365 -5.01221 -0.64076 0
M  V30 5964 C 563.563 -5.1337 -0.309165 0
M  V30 5965 N 561.545 -6.13608 0.189358 0
M  V30 5966 C 562.916 -6.18815 0.383225 0
M  V30 5967 C 564.971 -4.97393 -0.224726 0
M  V30 5968 C 563.674 -7.10015 1.15201 0
M  V30 5969 C 565.7 -5.89014 0.530658 0
M  V30 5970 C 565.062 -6.93903 1.2115 0
M  V30 5971 H 561.161 -0.716203 -0.31397 0
M  V30 5972 H 563.745 -1.93838 -0.18304 0
M  V30 5973 H 561.916 -2.99762 -2.46976 0
M  V30 5974 H 563.648 -3.24088 -2.42382 0
M  V30 5975 H 560.403 -4.63669 -0.96479 0
M  V30 5976 H 560.827 -6.74389 0.593979 0
M  V30 5977 H 565.469 -4.16331 -0.736754 0
M  V30 5978 H 563.187 -7.9054 1.67547 0
M  V30 5979 H 566.773 -5.78726 0.597326 0
M  V30 5980 H 565.653 -7.63576 1.78665 0
M  V30 5981 N 563.156 0.464375 -1.50603 0
M  V30 5982 C 564.433 1.22549 -1.5245 0
M  V30 5983 C 564.813 2.09327 -0.273035 0
M  V30 5984 O 564.161 2.16074 0.743242 0
M  V30 5985 C 564.371 2.05074 -2.82393 0
M  V30 5986 C 565.719 2.63036 -3.33313 0
M  V30 5987 O 566.743 2.1531 -2.8376 0
M  V30 5988 O 565.602 3.5001 -4.19709 0
M  V30 5989 H 562.696 0.556471 -0.611775 0
M  V30 5990 H 565.242 0.475648 -1.62898 0
M  V30 5991 H 564.014 1.41169 -3.64948 0
M  V30 5992 H 563.637 2.87179 -2.7498 0
M  V30 5993 N 564.634 1.40294 0.718013 0
M  V30 5994 C 565.544 1.42678 1.86226 0
M  V30 5995 C 566.56 0.319655 1.71039 0
M  V30 5996 O 567.736 0.563852 1.93346 0
M  V30 5997 C 564.801 1.2852 3.21999 0
M  V30 5998 C 563.862 2.49354 3.49458 0
M  V30 5999 C 563.095 2.35863 4.78753 0
M  V30 6000 O 563.318 1.37114 5.53675 0
M  V30 6001 O 562.252 3.25189 5.06494 0
M  V30 6002 H 566.078 2.39167 1.87171 0
M  V30 6003 H 563.663 1.2159 0.868112 0
M  V30 6004 H 565.545 1.22824 4.03103 0
M  V30 6005 H 564.22 0.351359 3.21787 0
M  V30 6006 H 563.127 2.60628 2.68373 0
M  V30 6007 H 564.46 3.41491 3.54464 0
M  V30 6008 N 566.112 -0.949982 1.2575 0
M  V30 6009 C 567.359 -1.69515 1.10774 0
M  V30 6010 C 567.687 -1.91316 -0.350479 0
M  V30 6011 O 566.942 -1.48515 -1.27443 0
M  V30 6012 C 567.241 -3.08039 1.81237 0
M  V30 6013 C 566.907 -3.06023 3.31151 0
M  V30 6014 C 565.569 -3.0518 3.72047 0
M  V30 6015 C 567.921 -2.98998 4.26907 0
M  V30 6016 C 565.249 -2.95067 5.07102 0
M  V30 6017 C 567.601 -2.90426 5.61992 0
M  V30 6018 C 566.265 -2.87922 6.0221 0
M  V30 6019 H 565.535 -0.6203 0.405351 0
M  V30 6020 H 568.182 -1.10953 1.56082 0
M  V30 6021 H 566.487 -3.70172 1.28373 0
M  V30 6022 H 568.184 -3.64526 1.67098 0
M  V30 6023 H 564.774 -3.07453 2.98614 0
M  V30 6024 H 568.958 -2.98764 3.963 0
M  V30 6025 H 564.214 -2.915 5.37436 0
M  V30 6026 H 568.388 -2.83952 6.35881 0
M  V30 6027 H 566.015 -2.79841 7.06819 0
M  V30 6028 N 567.59 -1.07411 -1.15328 0
M  V30 6029 C 569.001 -0.820261 -1.67716 0
M  V30 6030 C 569.352 0.654539 -1.8496 0
M  V30 6031 O 568.477 1.50664 -1.55337 0
M  V30 6032 C 569.072 -1.48242 -3.04647 0
M  V30 6033 C 567.631 -1.27606 -3.5411 0
M  V30 6034 C 566.778 -1.5517 -2.29821 0
M  V30 6035 H 569.729 -1.23608 -0.995332 0
M  V30 6036 H 569.75 -0.903984 -3.69606 0
M  V30 6037 H 569.262 -2.55578 -2.92064 0
M  V30 6038 H 567.363 -0.222948 -3.71932 0
M  V30 6039 H 567.476 -1.99667 -4.35511 0
M  V30 6040 H 565.84 -0.972747 -2.35393 0
M  V30 6041 H 566.623 -2.63689 -2.19824 0
M  V30 6042 N 569.068 1.32177 -0.85831 0
M  V30 6043 C 570.016 2.30729 -0.294442 0
M  V30 6044 C 571.01 1.59009 0.584165 0
M  V30 6045 O 572.216 1.73713 0.471562 0
M  V30 6046 H 568.591 0.748097 -0.0765171 0
M  V30 6047 H 570.562 2.75774 -1.1398 0
M  V30 6048 C 569.311 3.44098 0.499208 0
M  V30 6049 H 568.634 3.99449 -0.167579 0
M  V30 6050 H 570.074 4.15202 0.859273 0
M  V30 6051 C 568.533 2.91684 1.68588 0
M  V30 6052 O 569.063 2.89481 2.78503 0
M  V30 6053 N 567.269 2.48036 1.51415 0
M  V30 6054 H 566.816 2.50027 0.620006 0
M  V30 6055 H 566.774 2.13322 2.30957 0
M  V30 6056 N 570.547 0.616602 1.45037 0
M  V30 6057 C 571.795 0.115103 2.01772 0
M  V30 6058 C 572.116 -1.2622 1.48639 0
M  V30 6059 O 571.386 -1.83563 0.684199 0
M  V30 6060 H 569.966 0.0395607 0.745952 0
M  V30 6061 H 572.628 0.800032 1.77723 0
M  V30 6062 H 571.724 0.0717274 3.12018 0
M  V30 6063 N 572.025 -1.5352 0.356285 0
M  V30 6064 C 573.441 -1.59599 0.00485267 0
M  V30 6065 C 573.641 -1.37179 -1.47595 0
M  V30 6066 O 572.697 -1.17234 -2.23635 0
M  V30 6067 C 574.01 -2.97277 0.452454 0
M  V30 6068 C 575.558 -3.10357 0.405881 0
M  V30 6069 C 576.033 -4.50432 0.829148 0
M  V30 6070 N 577.524 -4.5652 0.783838 0
M  V30 6071 C 578.259 -5.63077 1.08315 0
M  V30 6072 N 577.755 -6.77429 1.45126 0
M  V30 6073 N 579.548 -5.53014 1.00655 0
M  V30 6074 H 571.699 -1.66346 1.32071 0
M  V30 6075 H 573.962 -0.77971 0.539218 0
M  V30 6076 H 573.668 -3.18792 1.48542 0
M  V30 6077 H 573.542 -3.76836 -0.165762 0
M  V30 6078 H 575.929 -2.88558 -0.617934 0
M  V30 6079 H 576.01 -2.32828 1.05947 0
M  V30 6080 H 575.654 -4.72968 1.85103 0
M  V30 6081 H 575.584 -5.26378 0.152906 0
M  V30 6082 H 578.075 -3.74408 0.512513 0
M  V30 6083 H 578.388 -7.54669 1.66415 0
M  V30 6084 H 576.733 -6.78844 1.48983 0
M  V30 6085 H 579.924 -4.62557 0.718215 0
M  V30 6086 H 580.097 -6.35964 1.24315 0
M  V30 6087 N 573.503 -0.0852151 -1.57369 0
M  V30 6088 C 574.749 0.575588 -1.95086 0
M  V30 6089 C 575.104 1.66402 -0.96582 0
M  V30 6090 O 574.397 1.91598 0.00978463 0
M  V30 6091 C 574.591 1.18482 -3.3719 0
M  V30 6092 C 574.42 0.156928 -4.49426 0
M  V30 6093 C 573.19 -0.263126 -5.04614 0
M  V30 6094 C 575.388 -0.611068 -5.10657 0
M  V30 6095 N 573.37 -1.28032 -6.00401 0
M  V30 6096 C 574.741 -1.48036 -6.02068 0
M  V30 6097 C 576.796 -0.665669 -4.9343 0
M  V30 6098 C 575.499 -2.39943 -6.781 0
M  V30 6099 C 577.525 -1.5723 -5.70116 0
M  V30 6100 C 576.887 -2.42924 -6.61186 0
M  V30 6101 H 572.986 0.181249 -0.760705 0
M  V30 6102 H 575.57 -0.165484 -1.93995 0
M  V30 6103 H 573.741 1.89575 -3.38992 0
M  V30 6104 H 575.473 1.80718 -3.62109 0
M  V30 6105 H 572.228 0.122664 -4.73441 0
M  V30 6106 H 572.652 -1.78682 -6.52994 0
M  V30 6107 H 577.294 -0.0173214 -4.22796 0
M  V30 6108 H 575.012 -3.05807 -7.48002 0
M  V30 6109 H 578.598 -1.61956 -5.58804 0
M  V30 6110 H 577.478 -3.1194 -7.19488 0
M  V30 6111 N 574.981 1.5647 0.188427 0
M  V30 6112 C 576.229 1.80655 0.905986 0
M  V30 6113 C 576.55 0.659391 1.83513 0
M  V30 6114 O 575.82 -0.321868 1.93238 0
M  V30 6115 H 574.4 0.666391 0.337538 0
M  V30 6116 H 577.062 1.93949 0.192339 0
M  V30 6117 H 576.158 2.74066 1.49313 0
M  V30 6118 N 576.459 -0.456382 1.50847 0
M  V30 6119 C 577.407 -1.57318 1.71329 0
M  V30 6120 C 578.401 -1.59187 0.579287 0
M  V30 6121 O 579.607 -1.6316 0.76018 0
M  V30 6122 H 575.982 -0.5223 0.541024 0
M  V30 6123 H 577.953 -1.3721 2.64983 0
M  V30 6124 C 576.702 -2.95142 1.83811 0
M  V30 6125 H 576.025 -2.94428 2.70467 0
M  V30 6126 H 577.465 -3.72702 2.02161 0
M  V30 6127 C 575.924 -3.31636 0.593224 0
M  V30 6128 O 576.454 -4.00852 -0.260898 0
M  V30 6129 N 574.66 -2.87205 0.442902 0
M  V30 6130 H 574.207 -2.31051 1.13901 0
M  V30 6131 H 574.165 -3.11986 -0.38884 0
M  V30 6132 N 577.937 -1.40673 -0.710563 0
M  V30 6133 C 579.162 -1.42741 -1.50465 0
M  V30 6134 C 579.587 -0.0302116 -1.88076 0
M  V30 6135 O 578.945 0.962945 -1.53613 0
M  V30 6136 C 578.993 -2.32873 -2.75322 0
M  V30 6137 O 578.097 -1.77544 -3.72226 0
M  V30 6138 H 577.438 -0.485056 -0.45345 0
M  V30 6139 H 579.968 -1.84961 -0.874681 0
M  V30 6140 H 579.978 -2.48233 -3.23797 0
M  V30 6141 H 578.653 -3.34401 -2.47283 0
M  V30 6142 H 577.23 -1.71556 -3.31093 0
M  V30 6143 N 579.415 0.9433 -1.26252 0
M  V30 6144 C 580.64 1.72898 -1.14547 0
M  V30 6145 C 581.065 1.85761 0.295743 0
M  V30 6146 O 580.423 1.3463 1.21427 0
M  V30 6147 C 580.471 3.11471 -1.8171 0
M  V30 6148 O 579.575 3.97336 -1.10445 0
M  V30 6149 H 578.916 0.530555 -0.399259 0
M  V30 6150 H 581.446 1.18159 -1.67032 0
M  V30 6151 H 581.456 3.61872 -1.88449 0
M  V30 6152 H 580.131 3.01425 -2.86558 0
M  V30 6153 H 578.708 3.55788 -1.11666 0
M  V30 6154 N 580.893 1.08022 1.14757 0
M  V30 6155 C 582.118 0.82895 1.90114 0
M  V30 6156 C 582.543 -0.612772 1.77839 0
M  V30 6157 O 581.901 -1.42895 1.11583 0
M  V30 6158 C 581.949 1.25062 3.38219 0
M  V30 6159 O 581.053 0.400119 4.10454 0
M  V30 6160 H 580.394 0.301412 0.591648 0
M  V30 6161 H 582.924 1.44062 1.45284 0
M  V30 6162 H 582.934 1.22977 3.89025 0
M  V30 6163 H 581.609 2.30067 3.46471 0
M  V30 6164 H 580.186 0.484052 3.69745 0
M  V30 6165 N 582.371 -1.3172 0.865308 0
M  V30 6166 C 583.782 -1.79104 0.527126 0
M  V30 6167 C 584.133 -1.7135 -0.955695 0
M  V30 6168 O 583.258 -1.27845 -1.74598 0
M  V30 6169 C 583.853 -3.25207 0.950061 0
M  V30 6170 C 582.412 -3.70504 0.663611 0
M  V30 6171 C 581.559 -2.52605 1.14395 0
M  V30 6172 H 584.51 -1.18868 1.05148 0
M  V30 6173 H 584.531 -3.79535 0.270805 0
M  V30 6174 H 584.043 -3.30818 2.02931 0
M  V30 6175 H 582.144 -3.70398 -0.404474 0
M  V30 6176 H 582.257 -4.62845 1.23737 0
M  V30 6177 H 580.621 -2.4838 0.563859 0
M  V30 6178 H 581.404 -2.60964 2.23053 0
M  V30 6179 N 583.85 -0.624285 -1.44708 0
M  V30 6180 C 584.812 0.0749638 -2.29077 0
M  V30 6181 C 585.812 0.778965 -1.40673 0
M  V30 6182 O 587.003 0.624591 -1.62618 0
M  V30 6183 C 584.135 1.11663 -3.22094 0
M  V30 6184 H 585.327 -0.667013 -2.92388 0
M  V30 6185 H 582.88 -0.384098 -1.51507 0
M  V30 6186 H 583.615 1.88881 -2.63618 0
M  V30 6187 H 583.401 0.61583 -3.87234 0
M  V30 6188 H 584.891 1.60585 -3.8549 0
M  V30 6189 N 585.328 1.53329 -0.364422 0
M  V30 6190 C 586.575 2.01239 0.225634 0
M  V30 6191 C 586.903 1.25172 1.48869 0
M  V30 6192 O 586.158 0.333289 1.92841 0
M  V30 6193 C 586.457 3.52911 0.564661 0
M  V30 6194 C 586.123 4.46837 -0.603936 0
M  V30 6195 C 584.785 4.72234 -0.924585 0
M  V30 6196 C 587.137 5.02409 -1.38691 0
M  V30 6197 C 584.465 5.50454 -2.0302 0
M  V30 6198 C 586.817 5.81836 -2.48293 0
M  V30 6199 C 585.481 6.0552 -2.80894 0
M  V30 6200 H 584.751 0.736386 0.0825654 0
M  V30 6201 H 587.398 1.84948 -0.496645 0
M  V30 6202 H 585.703 3.67144 1.36794 0
M  V30 6203 H 587.4 3.87455 1.03344 0
M  V30 6204 H 583.99 4.27217 -0.343983 0
M  V30 6205 H 588.174 4.82735 -1.15243 0
M  V30 6206 H 583.43 5.67024 -2.28678 0
M  V30 6207 H 587.604 6.23905 -3.0938 0
M  V30 6208 H 585.231 6.65916 -3.66688 0
M  V30 6209 N 586.806 0.0935595 1.57322 0
M  V30 6210 C 588.054 -0.569383 1.93913 0
M  V30 6211 C 588.375 -1.68817 0.976009 0
M  V30 6212 O 587.645 -1.9588 0.0278099 0
M  V30 6213 H 586.225 -0.21332 0.715894 0
M  V30 6214 H 588.887 0.156531 1.9427 0
M  V30 6215 H 587.983 -0.980577 2.96296 0
M  V30 6216 N 588.284 -1.56567 -0.180126 0
M  V30 6217 C 589.194 -1.98947 -1.24327 0
M  V30 6218 C 590.21 -0.899446 -1.4895 0
M  V30 6219 O 591.386 -1.20639 -1.61271 0
M  V30 6220 C 588.451 -2.33328 -2.56435 0
M  V30 6221 C 587.512 -3.56114 -2.39752 0
M  V30 6222 C 586.745 -3.88845 -3.65561 0
M  V30 6223 O 586.968 -3.22662 -4.70368 0
M  V30 6224 O 585.902 -4.82226 -3.60197 0
M  V30 6225 H 589.728 -2.89634 -0.913565 0
M  V30 6226 H 587.313 -1.44319 -0.386306 0
M  V30 6227 H 589.195 -2.5645 -3.34382 0
M  V30 6228 H 587.87 -1.45806 -2.89002 0
M  V30 6229 H 586.777 -3.38221 -1.59866 0
M  V30 6230 H 588.11 -4.4415 -2.12113 0
M  V30 6231 N 589.762 0.448376 -1.51087 0
M  V30 6232 C 590.692 1.55102 -1.74544 0
M  V30 6233 C 591.673 1.59357 -0.594932 0
M  V30 6234 O 592.858 1.75261 -0.836491 0
M  V30 6235 C 589.988 2.93268 -1.86041 0
M  V30 6236 C 588.942 3.03877 -3.01402 0
M  V30 6237 C 588.268 4.43914 -2.98068 0
M  V30 6238 C 589.568 2.7898 -4.41551 0
M  V30 6239 H 591.262 1.35724 -2.66869 0
M  V30 6240 H 588.808 0.651498 -1.28419 0
M  V30 6241 H 590.761 3.70356 -2.01034 0
M  V30 6242 H 589.485 3.13853 -0.903548 0
M  V30 6243 H 588.144 2.29227 -2.86096 0
M  V30 6244 H 587.792 4.6145 -2.00182 0
M  V30 6245 H 587.492 4.51944 -3.75527 0
M  V30 6246 H 589.016 5.22991 -3.1514 0
M  V30 6247 H 590.43 3.45805 -4.57265 0
M  V30 6248 H 588.827 2.98431 -5.20633 0
M  V30 6249 H 589.897 1.74663 -4.5235 0
M  V30 6250 N 591.24 1.41047 0.703093 0
M  V30 6251 C 592.187 1.42302 1.81711 0
M  V30 6252 C 593.157 0.278336 1.63751 0
M  V30 6253 O 594.342 0.478266 1.84709 0
M  V30 6254 C 591.482 1.30362 3.19531 0
M  V30 6255 C 590.595 2.54638 3.48975 0
M  V30 6256 C 589.73 2.35047 4.76368 0
M  V30 6257 C 588.769 3.54837 4.98756 0
M  V30 6258 N 587.906 3.34363 6.1737 0
M  V30 6259 H 592.746 2.37516 1.79973 0
M  V30 6260 H 590.283 1.1795 0.878983 0
M  V30 6261 H 592.241 1.21443 3.99134 0
M  V30 6262 H 590.871 0.387602 3.20464 0
M  V30 6263 H 589.923 2.74037 2.63833 0
M  V30 6264 H 591.235 3.43766 3.61423 0
M  V30 6265 H 590.389 2.23552 5.64012 0
M  V30 6266 H 589.128 1.43363 4.66153 0
M  V30 6267 H 588.133 3.66795 4.09563 0
M  V30 6268 H 589.358 4.47464 5.10835 0
M  V30 6269 H 587.304 2.45373 6.08382 0
M  V30 6270 H 587.221 4.17063 6.30551 0
M  V30 6271 H 588.489 3.26626 7.07768 0
M  V30 6272 N 592.718 -0.936591 1.26751 0
M  V30 6273 C 593.995 -1.66094 1.03306 0
M  V30 6274 C 594.375 -2.06568 -0.435058 0
M  V30 6275 O 593.723 -1.79305 -1.41641 0
M  V30 6276 C 593.933 -2.86969 1.98619 0
M  V30 6277 C 595.281 -3.58516 2.27489 0
M  V30 6278 O 596.305 -2.97082 1.96522 0
M  V30 6279 O 595.164 -4.69181 2.80235 0
M  V30 6280 H 592.258 -0.727568 0.393158 0
M  V30 6281 H 594.804 -0.987914 1.3798 0
M  V30 6282 H 593.576 -2.53985 2.9767 0
M  V30 6283 H 593.199 -3.61996 1.64454 0
M  V30 6284 N 594.196 -1.08629 -1.14182 0
M  V30 6285 C 595.426 -0.837673 -1.88856 0
M  V30 6286 C 595.834 0.614024 -1.78959 0
M  V30 6287 O 595.177 1.43384 -1.14833 0
M  V30 6288 C 595.239 -1.18355 -3.39459 0
M  V30 6289 C 594.903 -2.63848 -3.73139 0
M  V30 6290 C 595.9 -3.62099 -3.73069 0
M  V30 6291 C 593.585 -2.99761 -4.03049 0
M  V30 6292 C 595.579 -4.94292 -4.02435 0
M  V30 6293 C 593.266 -4.32147 -4.32078 0
M  V30 6294 C 594.264 -5.29223 -4.31755 0
M  V30 6295 O 593.952 -6.59229 -4.60079 0
M  V30 6296 H 593.684 -0.301609 -0.604986 0
M  V30 6297 H 596.238 -1.44961 -1.45518 0
M  V30 6298 H 594.468 -0.514628 -3.8326 0
M  V30 6299 H 596.157 -0.915391 -3.95443 0
M  V30 6300 H 596.923 -3.35698 -3.50046 0
M  V30 6301 H 592.802 -2.2484 -4.02453 0
M  V30 6302 H 596.346 -5.70055 -4.02098 0
M  V30 6303 H 592.243 -4.58296 -4.54571 0
M  V30 6304 H 593.011 -6.64578 -4.77785 0
M  V30 6305 N 595.674 1.31259 -0.872281 0
M  V30 6306 C 596.904 2.00504 -0.498183 0
M  V30 6307 C 597.312 1.65632 0.914479 0
M  V30 6308 O 596.655 0.882849 1.61095 0
M  V30 6309 C 596.717 3.5482 -0.578194 0
M  V30 6310 C 596.381 4.13172 -1.95289 0
M  V30 6311 C 597.378 4.30107 -2.92069 0
M  V30 6312 C 595.063 4.48846 -2.25483 0
M  V30 6313 C 597.057 4.81908 -4.17185 0
M  V30 6314 C 594.744 5.00349 -3.50847 0
M  V30 6315 C 595.742 5.16831 -4.46514 0
M  V30 6316 O 595.43 5.67228 -5.69656 0
M  V30 6317 H 595.162 0.648055 -0.192354 0
M  V30 6318 H 597.716 1.6841 -1.17589 0
M  V30 6319 H 595.946 3.86383 0.156438 0
M  V30 6320 H 597.635 4.05318 -0.217192 0
M  V30 6321 H 598.401 4.02862 -2.7005 0
M  V30 6322 H 594.28 4.35292 -1.51795 0
M  V30 6323 H 597.824 4.94688 -4.91863 0
M  V30 6324 H 593.721 5.27028 -3.72708 0
M  V30 6325 H 594.489 5.85592 -5.7186 0
M  V30 6326 N 597.152 0.631951 1.44375 0
M  V30 6327 C 598.082 -0.0593243 2.33425 0
M  V30 6328 C 599.063 -0.833964 1.48253 0
M  V30 6329 O 600.248 -0.799682 1.76971 0
M  V30 6330 C 597.378 -1.04096 3.31333 0
M  V30 6331 C 596.332 -0.377899 4.26328 0
M  V30 6332 C 595.658 -1.4695 5.14111 0
M  V30 6333 C 596.958 0.716371 5.17364 0
M  V30 6334 H 598.652 0.684287 2.91475 0
M  V30 6335 H 596.198 0.330518 1.40156 0
M  V30 6336 H 598.151 -1.53331 3.92514 0
M  V30 6337 H 596.875 -1.81547 2.71493 0
M  V30 6338 H 595.534 0.0938054 3.6648 0
M  V30 6339 H 595.182 -2.2349 4.50623 0
M  V30 6340 H 594.882 -1.03121 5.78481 0
M  V30 6341 H 596.406 -1.96363 5.78164 0
M  V30 6342 H 597.82 0.307089 5.72477 0
M  V30 6343 H 596.217 1.07784 5.90341 0
M  V30 6344 H 597.287 1.58316 4.58327 0
M  V30 6345 N 598.631 -1.53133 0.372548 0
M  V30 6346 C 599.878 -2.01356 -0.214959 0
M  V30 6347 C 600.206 -1.2596 -1.48204 0
M  V30 6348 O 599.461 -0.343511 -1.92662 0
M  V30 6349 C 599.76 -3.53206 -0.545938 0
M  V30 6350 C 599.426 -4.46511 0.627624 0
M  V30 6351 C 598.088 -4.71737 0.949615 0
M  V30 6352 C 600.44 -5.01666 1.41353 0
M  V30 6353 C 597.768 -5.4937 2.05936 0
M  V30 6354 C 600.12 -5.80511 2.51375 0
M  V30 6355 C 598.784 -6.04022 2.84101 0
M  V30 6356 H 598.054 -0.736813 -0.078659 0
M  V30 6357 H 600.701 -1.84682 0.506447 0
M  V30 6358 H 599.006 -3.67864 -1.34845 0
M  V30 6359 H 600.703 -3.87997 -1.01287 0
M  V30 6360 H 597.293 -4.27029 0.366635 0
M  V30 6361 H 601.477 -4.82117 1.17802 0
M  V30 6362 H 596.733 -5.65803 2.31682 0
M  V30 6363 H 600.907 -6.22255 3.12684 0
M  V30 6364 H 598.534 -6.63962 3.70214 0
M  V30 6365 N 600.109 -0.101901 -1.5727 0
M  V30 6366 C 601.339 0.567568 -1.98651 0
M  V30 6367 C 601.747 1.61839 -0.980037 0
M  V30 6368 O 601.09 1.83661 0.0376564 0
M  V30 6369 C 601.152 1.26742 -3.36417 0
M  V30 6370 C 600.816 0.366561 -4.55528 0
M  V30 6371 C 601.813 -0.388022 -5.1845 0
M  V30 6372 C 599.498 0.282629 -5.01504 0
M  V30 6373 C 601.492 -1.21445 -6.25724 0
M  V30 6374 C 599.179 -0.547443 -6.08643 0
M  V30 6375 C 600.177 -1.29462 -6.70618 0
M  V30 6376 O 599.865 -2.11095 -7.7569 0
M  V30 6377 H 599.597 0.156282 -0.657687 0
M  V30 6378 H 602.151 -0.179912 -2.04611 0
M  V30 6379 H 600.381 2.06162 -3.27161 0
M  V30 6380 H 602.07 1.8321 -3.622 0
M  V30 6381 H 602.836 -0.332949 -4.83856 0
M  V30 6382 H 598.715 0.853868 -4.53023 0
M  V30 6383 H 602.259 -1.79814 -6.74027 0
M  V30 6384 H 598.156 -0.603971 -6.42668 0
M  V30 6385 H 598.924 -2.03851 -7.92709 0
M  V30 6386 N 601.587 1.56661 0.17182 0
M  V30 6387 C 602.517 1.99401 1.21498 0
M  V30 6388 C 603.498 0.869516 1.46197 0
M  V30 6389 O 604.683 1.13556 1.57539 0
M  V30 6390 C 601.813 2.35346 2.55401 0
M  V30 6391 C 600.767 3.5075 2.45272 0
M  V30 6392 C 600.093 3.72437 3.8366 0
M  V30 6393 C 601.393 4.84216 1.95787 0
M  V30 6394 H 603.087 2.86792 0.859699 0
M  V30 6395 H 600.633 1.37977 0.412103 0
M  V30 6396 H 602.586 2.63843 3.2858 0
M  V30 6397 H 601.31 1.44864 2.92715 0
M  V30 6398 H 599.969 3.2238 1.74547 0
M  V30 6399 H 599.617 2.79246 4.18367 0
M  V30 6400 H 599.317 4.50087 3.77751 0
M  V30 6401 H 600.841 4.03334 4.58426 0
M  V30 6402 H 602.255 5.11592 2.5874 0
M  V30 6403 H 600.652 5.65498 2.00827 0
M  V30 6404 H 601.722 4.76243 0.912159 0
M  V30 6405 N 603.065 -0.440357 1.51323 0
M  V30 6406 C 604.012 -1.53429 1.72419 0
M  V30 6407 C 604.982 -1.56165 0.565826 0
M  V30 6408 O 606.167 -1.73222 0.799917 0
M  V30 6409 C 603.307 -2.91169 1.85242 0
M  V30 6410 C 602.42 -2.97985 3.12777 0
M  V30 6411 C 601.555 -4.26829 3.16212 0
M  V30 6412 C 600.594 -4.27501 4.38074 0
M  V30 6413 N 599.731 -5.47866 4.39076 0
M  V30 6414 H 604.571 -1.34743 2.65797 0
M  V30 6415 H 602.108 -0.654608 1.31732 0
M  V30 6416 H 604.066 -3.71087 1.90658 0
M  V30 6417 H 602.696 -3.0842 0.952744 0
M  V30 6418 H 601.748 -2.10749 3.16685 0
M  V30 6419 H 603.06 -2.94342 4.02696 0
M  V30 6420 H 602.214 -5.15118 3.20527 0
M  V30 6421 H 600.953 -4.33124 2.24176 0
M  V30 6422 H 599.958 -3.37606 4.33938 0
M  V30 6423 H 601.183 -4.22873 5.31371 0
M  V30 6424 H 599.129 -5.54887 3.49909 0
M  V30 6425 H 599.046 -5.46091 5.22801 0
M  V30 6426 H 600.314 -6.38195 4.4758 0
M  V30 6427 N 604.543 -1.41418 -0.695603 0
M  V30 6428 C 605.768 -1.44329 -1.48942 0
M  V30 6429 C 606.193 -0.0501579 -1.88033 0
M  V30 6430 O 605.551 0.946598 -1.54626 0
M  V30 6431 C 605.599 -2.3578 -2.72837 0
M  V30 6432 O 604.703 -1.81482 -3.70322 0
M  V30 6433 H 604.044 -0.489838 -0.44828 0
M  V30 6434 H 606.574 -1.85878 -0.855014 0
M  V30 6435 H 606.584 -2.51654 -3.21145 0
M  V30 6436 H 605.259 -3.37005 -2.43722 0
M  V30 6437 H 603.836 -1.75058 -3.29255 0
M  V30 6438 N 606.021 0.929856 -1.27246 0
M  V30 6439 C 606.968 2.03017 -1.09785 0
M  V30 6440 C 607.938 1.661 0.000456744 0
M  V30 6441 O 609.123 1.90116 -0.161462 0
M  V30 6442 C 606.263 3.36878 -0.748816 0
M  V30 6443 C 605.376 3.86763 -1.92453 0
M  V30 6444 C 604.511 5.09061 -1.51758 0
M  V30 6445 C 603.55 5.51237 -2.66091 0
M  V30 6446 N 602.687 6.64732 -2.25999 0
M  V30 6447 H 607.527 2.17285 -2.03939 0
M  V30 6448 H 605.064 1.06448 -1.01524 0
M  V30 6449 H 607.022 4.13855 -0.527283 0
M  V30 6450 H 605.652 3.22424 0.155771 0
M  V30 6451 H 604.704 3.06086 -2.25867 0
M  V30 6452 H 606.016 4.13994 -2.78227 0
M  V30 6453 H 605.17 5.93532 -1.25716 0
M  V30 6454 H 603.909 4.83602 -0.630896 0
M  V30 6455 H 602.914 4.65316 -2.92849 0
M  V30 6456 H 604.139 5.78692 -3.55377 0
M  V30 6457 H 602.085 6.40935 -1.3978 0
M  V30 6458 H 602.002 6.91607 -3.05313 0
M  V30 6459 H 603.27 7.52549 -2.03199 0
M  V30 6460 N 607.499 1.09233 1.13605 0
M  V30 6461 C 608.724 0.849067 1.89224 0
M  V30 6462 C 609.149 -0.593875 1.78479 0
M  V30 6463 O 608.507 -1.41703 1.13092 0
M  V30 6464 C 608.555 1.28642 3.36873 0
M  V30 6465 O 607.659 0.44363 4.10007 0
M  V30 6466 H 607 0.30767 0.588417 0
M  V30 6467 H 609.53 1.45595 1.43748 0
M  V30 6468 H 609.54 1.27096 3.87699 0
M  V30 6469 H 608.215 2.33729 3.44011 0
M  V30 6470 H 606.792 0.523241 3.69211 0
M  V30 6471 N 608.977 -1.30795 0.87923 0
M  V30 6472 C 610.388 -1.78535 0.546093 0
M  V30 6473 C 610.739 -1.72354 -0.937467 0
M  V30 6474 O 609.864 -1.2969 -1.73233 0
M  V30 6475 C 610.459 -3.24181 0.9845 0
M  V30 6476 C 609.018 -3.69779 0.702871 0
M  V30 6477 C 608.165 -2.51377 1.17068 0
M  V30 6478 H 611.116 -1.17746 1.06403 0
M  V30 6479 H 611.137 -3.79227 0.311045 0
M  V30 6480 H 610.649 -3.28647 2.06429 0
M  V30 6481 H 608.75 -3.70806 -0.365166 0
M  V30 6482 H 608.863 -4.61507 1.28639 0
M  V30 6483 H 607.227 -2.47768 0.590172 0
M  V30 6484 H 608.01 -2.58584 2.25808 0
M  V30 6485 N 610.455 -0.639598 -1.44038 0
M  V30 6486 C 611.402 0.0602458 -2.30721 0
M  V30 6487 C 612.372 0.828352 -1.43971 0
M  V30 6488 O 613.557 0.807693 -1.72861 0
M  V30 6489 C 610.697 1.03008 -3.29368 0
M  V30 6490 C 609.81 0.259502 -4.3122 0
M  V30 6491 C 608.945 1.22191 -5.16955 0
M  V30 6492 C 607.984 0.440978 -6.10509 0
M  V30 6493 N 607.121 1.35428 -6.88915 0
M  V30 6494 H 611.961 -0.684867 -2.90023 0
M  V30 6495 H 609.498 -0.349509 -1.42888 0
M  V30 6496 H 611.456 1.60583 -3.85057 0
M  V30 6497 H 610.086 1.74222 -2.71747 0
M  V30 6498 H 609.138 -0.432317 -3.77935 0
M  V30 6499 H 610.45 -0.348347 -4.97582 0
M  V30 6500 H 609.604 1.86873 -5.77203 0
M  V30 6501 H 608.343 1.86367 -4.50687 0
M  V30 6502 H 607.348 -0.219279 -5.49363 0
M  V30 6503 H 608.573 -0.196192 -6.78817 0
M  V30 6504 H 606.519 1.9831 -6.25307 0
M  V30 6505 H 606.436 0.800657 -7.51748 0
M  V30 6506 H 607.704 1.98967 -7.53679 0
M  V30 6507 N 611.933 1.52934 -0.380664 0
M  V30 6508 C 612.843 2.29921 0.466192 0
M  V30 6509 C 613.859 1.36488 1.07922 0
M  V30 6510 O 615.035 1.69553 1.0869 0
M  V30 6511 C 612.1 3.08468 1.58266 0
M  V30 6512 C 611.161 4.17595 0.995627 0
M  V30 6513 C 610.394 4.92387 2.05889 0
M  V30 6514 O 610.617 4.67184 3.27254 0
M  V30 6515 O 609.551 5.77949 1.68102 0
M  V30 6516 H 613.377 3.03274 -0.160735 0
M  V30 6517 H 610.962 1.48698 -0.144617 0
M  V30 6518 H 612.844 3.57469 2.23145 0
M  V30 6519 H 611.519 2.37937 2.19471 0
M  V30 6520 H 610.426 3.72811 0.310332 0
M  V30 6521 H 611.759 4.90336 0.427918 0
M  V30 6522 N 613.412 0.11024 1.57214 0
M  V30 6523 C 614.322 -0.857077 2.18383 0
M  V30 6524 C 615.338 -1.29915 1.1575 0
M  V30 6525 O 616.514 -1.36394 1.48184 0
M  V30 6526 C 613.579 -2.09264 2.76423 0
M  V30 6527 C 612.64 -1.70333 3.94063 0
M  V30 6528 C 611.873 -2.87999 4.49324 0
M  V30 6529 O 612.096 -4.0317 4.03497 0
M  V30 6530 O 611.03 -2.6559 5.40135 0
M  V30 6531 H 614.856 -0.366561 3.0148 0
M  V30 6532 H 612.441 -0.114914 1.48957 0
M  V30 6533 H 614.323 -2.81644 3.13456 0
M  V30 6534 H 612.998 -2.57339 1.96363 0
M  V30 6535 H 611.905 -0.950864 3.61814 0
M  V30 6536 H 613.238 -1.27007 4.75531 0
M  V30 6537 N 614.89 -1.56749 -0.16351 0
M  V30 6538 C 615.82 -2.00042 -1.20438 0
M  V30 6539 C 616.801 -0.877256 -1.45733 0
M  V30 6540 O 617.986 -1.1439 -1.56935 0
M  V30 6541 C 615.116 -2.36697 -2.54149 0
M  V30 6542 C 614.07 -3.52046 -2.43408 0
M  V30 6543 C 613.396 -3.74466 -3.81679 0
M  V30 6544 C 614.696 -4.85247 -1.93216 0
M  V30 6545 H 616.39 -2.87244 -0.844477 0
M  V30 6546 H 613.936 -1.38194 -0.40478 0
M  V30 6547 H 615.889 -2.65582 -3.27176 0
M  V30 6548 H 614.613 -1.46414 -2.91943 0
M  V30 6549 H 613.272 -3.23301 -1.72834 0
M  V30 6550 H 612.92 -2.81461 -4.1688 0
M  V30 6551 H 612.62 -4.52084 -3.75359 0
M  V30 6552 H 614.144 -4.0576 -4.5628 0
M  V30 6553 H 615.558 -5.12957 -2.56023 0
M  V30 6554 H 613.955 -5.66556 -1.97825 0
M  V30 6555 H 615.025 -4.7672 -0.88689 0
M  V30 6556 N 616.368 0.432326 -1.51554 0
M  V30 6557 C 617.298 1.53242 -1.76179 0
M  V30 6558 C 618.279 1.58717 -0.611801 0
M  V30 6559 O 619.464 1.74364 -0.855033 0
M  V30 6560 C 616.594 2.91278 -1.89141 0
M  V30 6561 C 615.548 3.00663 -3.04608 0
M  V30 6562 C 614.874 4.40728 -3.02759 0
M  V30 6563 C 616.174 2.74281 -4.44485 0
M  V30 6564 H 617.868 1.32886 -2.68294 0
M  V30 6565 H 615.414 0.637841 -1.29103 0
M  V30 6566 H 617.367 3.68203 -2.04951 0
M  V30 6567 H 616.091 3.12877 -0.936785 0
M  V30 6568 H 614.75 2.26179 -2.88511 0
M  V30 6569 H 614.398 4.59301 -2.05065 0
M  V30 6570 H 614.098 4.47936 -3.80299 0
M  V30 6571 H 615.622 5.19619 -3.20669 0
M  V30 6572 H 617.036 3.40936 -4.60907 0
M  V30 6573 H 615.433 2.92893 -5.23769 0
M  V30 6574 H 616.503 1.69856 -4.54177 0
M  V30 6575 N 617.846 1.41785 0.688094 0
M  V30 6576 C 618.793 1.44221 1.80191 0
M  V30 6577 C 619.763 0.295688 1.63447 0
M  V30 6578 O 620.948 0.49783 1.84191 0
M  V30 6579 C 618.088 1.33743 3.1813 0
M  V30 6580 C 617.201 2.58325 3.46254 0
M  V30 6581 C 616.336 2.40086 4.73848 0
M  V30 6582 C 615.375 3.60107 4.94964 0
M  V30 6583 N 614.512 3.40892 6.13789 0
M  V30 6584 H 619.352 2.39411 1.77444 0
M  V30 6585 H 616.889 1.18876 0.866423 0
M  V30 6586 H 618.847 1.25669 3.97823 0
M  V30 6587 H 617.477 0.42157 3.20035 0
M  V30 6588 H 616.529 2.7682 2.60912 0
M  V30 6589 H 617.841 3.4758 3.57756 0
M  V30 6590 H 616.995 2.29522 5.61609 0
M  V30 6591 H 615.734 1.483 4.64606 0
M  V30 6592 H 614.739 3.71118 4.05649 0
M  V30 6593 H 615.964 4.52857 5.06061 0
M  V30 6594 H 613.91 2.51812 6.05745 0
M  V30 6595 H 613.827 4.23727 6.26092 0
M  V30 6596 H 615.095 3.34114 7.04264 0
M  V30 6597 N 619.324 -0.923095 1.27737 0
M  V30 6598 C 620.257 -2.02515 1.05181 0
M  V30 6599 C 621.235 -1.62574 -0.0292204 0
M  V30 6600 O 622.419 -1.88137 0.116848 0
M  V30 6601 C 619.546 -3.33407 0.596468 0
M  V30 6602 C 618.592 -3.92328 1.67276 0
M  V30 6603 S 619.425 -4.24342 3.26641 0
M  V30 6604 C 620.581 -5.58308 2.82919 0
M  V30 6605 H 620.814 -2.21336 1.98488 0
M  V30 6606 H 618.347 -1.06679 1.1162 0
M  V30 6607 H 620.305 -4.09086 0.34044 0
M  V30 6608 H 618.966 -3.125 -0.316614 0
M  V30 6609 H 618.159 -4.86797 1.30556 0
M  V30 6610 H 617.761 -3.2325 1.8811 0
M  V30 6611 H 620.053 -6.37801 2.28509 0
M  V30 6612 H 620.996 -5.99931 3.7615 0
M  V30 6613 H 621.404 -5.19049 2.21919 0
M  V30 6614 N 620.802 -1.09834 -1.13024 0
M  V30 6615 C 622.048 -0.848072 -1.84876 0
M  V30 6616 C 622.403 0.619663 -1.82148 0
M  V30 6617 O 621.696 1.45067 -1.25164 0
M  V30 6618 C 621.89 -1.32263 -3.32026 0
M  V30 6619 C 621.719 -2.83497 -3.49084 0
M  V30 6620 C 620.489 -3.51425 -3.63082 0
M  V30 6621 C 622.687 -3.81623 -3.44773 0
M  V30 6622 N 620.669 -4.91042 -3.68443 0
M  V30 6623 C 622.04 -5.07217 -3.56555 0
M  V30 6624 C 624.095 -3.74419 -3.282 0
M  V30 6625 C 622.798 -6.26457 -3.53474 0
M  V30 6626 C 624.824 -4.93151 -3.26429 0
M  V30 6627 C 624.186 -6.1759 -3.38765 0
M  V30 6628 H 620.285 -0.363249 -0.692513 0
M  V30 6629 H 622.869 -1.39952 -1.35357 0
M  V30 6630 H 621.04 -0.79858 -3.80102 0
M  V30 6631 H 622.772 -1.01725 -3.91707 0
M  V30 6632 H 619.527 -3.0186 -3.64935 0
M  V30 6633 H 619.951 -5.63782 -3.74805 0
M  V30 6634 H 624.593 -2.79132 -3.17561 0
M  V30 6635 H 622.311 -7.22039 -3.62884 0
M  V30 6636 H 625.897 -4.8928 -3.14796 0
M  V30 6637 H 624.777 -7.07925 -3.37361 0
M  V30 6638 N 622.28 1.30327 -0.886154 0
M  V30 6639 C 623.528 1.9571 -0.504195 0
M  V30 6640 C 623.849 1.70294 0.950003 0
M  V30 6641 O 623.119 1.02718 1.66811 0
M  V30 6642 H 621.699 0.72412 -0.183465 0
M  V30 6643 H 624.361 1.58835 -1.12949 0
M  V30 6644 H 623.457 3.04704 -0.675431 0
M  V30 6645 N 623.758 0.647228 1.43697 0
M  V30 6646 C 624.668 -0.0487997 2.34549 0
M  V30 6647 C 625.684 -0.818586 1.53542 0
M  V30 6648 O 626.86 -0.767195 1.86215 0
M  V30 6649 C 623.925 -1.00734 3.31743 0
M  V30 6650 C 622.986 -0.23515 4.28655 0
M  V30 6651 C 622.219 -1.14803 5.21206 0
M  V30 6652 O 622.442 -2.38717 5.18045 0
M  V30 6653 O 621.376 -0.623667 5.9866 0
M  V30 6654 H 625.202 0.698863 2.9555 0
M  V30 6655 H 622.787 0.407412 1.43738 0
M  V30 6656 H 624.669 -1.55837 3.91526 0
M  V30 6657 H 623.344 -1.73534 2.73254 0
M  V30 6658 H 622.251 0.359319 3.7237 0
M  V30 6659 H 623.584 0.453152 4.9011 0
M  V30 6660 N 625.236 -1.5273 0.388769 0
M  V30 6661 C 626.146 -2.30165 -0.453993 0
M  V30 6662 C 627.162 -1.37058 -1.07197 0
M  V30 6663 O 628.338 -1.70127 -1.0779 0
M  V30 6664 C 625.403 -3.09303 -1.56628 0
M  V30 6665 C 624.464 -4.18117 -0.973467 0
M  V30 6666 C 623.697 -4.93472 -2.03275 0
M  V30 6667 O 623.92 -4.68913 -3.24772 0
M  V30 6668 O 622.854 -5.78833 -1.65034 0
M  V30 6669 H 626.68 -3.03185 0.176816 0
M  V30 6670 H 624.265 -1.4862 0.152501 0
M  V30 6671 H 626.147 -3.58648 -2.21246 0
M  V30 6672 H 624.822 -2.39098 -2.18206 0
M  V30 6673 H 623.729 -3.7297 -0.290556 0
M  V30 6674 H 625.062 -4.90556 -0.401908 0
M  V30 6675 N 626.714 -0.118576 -1.57153 0
M  V30 6676 C 627.644 0.828436 -2.1831 0
M  V30 6677 C 628.625 1.27758 -1.12303 0
M  V30 6678 O 629.81 1.34026 -1.40537 0
M  V30 6679 C 626.94 2.07876 -2.78217 0
M  V30 6680 C 625.894 1.76742 -3.89803 0
M  V30 6681 C 625.22 3.08801 -4.36516 0
M  V30 6682 C 626.52 1.03606 -5.11921 0
M  V30 6683 H 628.214 0.318824 -2.97698 0
M  V30 6684 H 625.76 0.151911 -1.43196 0
M  V30 6685 H 627.713 2.74584 -3.19659 0
M  V30 6686 H 626.437 2.61161 -1.96118 0
M  V30 6687 H 625.096 1.12424 -3.48936 0
M  V30 6688 H 624.744 3.6002 -3.51276 0
M  V30 6689 H 624.444 2.88743 -5.11763 0
M  V30 6690 H 625.968 3.76627 -4.80608 0
M  V30 6691 H 627.382 1.60467 -5.50385 0
M  V30 6692 H 625.779 0.936454 -5.92748 0
M  V30 6693 H 626.849 0.0227421 -4.84895 0
M  V30 6694 N 628.193 1.56834 0.155195 0
M  V30 6695 C 629.421 1.87049 0.884326 0
M  V30 6696 C 629.836 0.705839 1.7511 0
M  V30 6697 O 629.193 -0.324641 1.79589 0
M  V30 6698 C 629.244 3.1644 1.74781 0
M  V30 6699 O 628.965 4.28417 0.915978 0
M  V30 6700 C 630.466 3.60113 2.58522 0
M  V30 6701 H 627.686 0.620196 0.25612 0
M  V30 6702 H 630.23 2.03946 0.150445 0
M  V30 6703 H 628.385 3.01321 2.43484 0
M  V30 6704 H 628.799 5.02353 1.50803 0
M  V30 6705 H 630.273 4.53508 3.14698 0
M  V30 6706 H 630.75 2.85005 3.34169 0
M  V30 6707 H 631.356 3.77898 1.95124 0
M  V30 6708 N 629.671 -0.424282 1.51781 0
M  V30 6709 C 630.896 -1.19928 1.6921 0
M  V30 6710 C 631.321 -1.8392 0.394355 0
M  V30 6711 O 630.679 -1.69371 -0.646778 0
M  V30 6712 C 630.727 -2.24937 2.81843 0
M  V30 6713 O 629.831 -3.3073 2.46356 0
M  V30 6714 H 629.172 -0.35078 0.563781 0
M  V30 6715 H 631.702 -0.499401 1.98412 0
M  V30 6716 H 631.712 -2.69512 3.06312 0
M  V30 6717 H 630.387 -1.77742 3.76006 0
M  V30 6718 H 628.964 -2.9154 2.32505 0
M  V30 6719 N 631.149 -1.42148 -0.680565 0
M  V30 6720 C 632.059 -1.47565 -1.82378 0
M  V30 6721 C 633.075 -0.36489 -1.70131 0
M  V30 6722 O 634.251 -0.614916 -1.91783 0
M  V30 6723 C 631.316 -1.37013 -3.18478 0
M  V30 6724 C 630.377 -2.58532 -3.42724 0
M  V30 6725 C 629.61 -2.48473 -4.72331 0
M  V30 6726 O 629.833 -1.51745 -5.49845 0
M  V30 6727 O 628.767 -3.38503 -4.97694 0
M  V30 6728 H 632.593 -2.44045 -1.80764 0
M  V30 6729 H 630.178 -1.23849 -0.835569 0
M  V30 6730 H 632.06 -1.33468 -3.99705 0
M  V30 6731 H 630.735 -0.436552 -3.20743 0
M  V30 6732 H 629.642 -2.67652 -2.61368 0
M  V30 6733 H 630.975 -3.50769 -3.45286 0
M  V30 6734 N 632.627 0.916307 -1.28225 0
M  V30 6735 C 633.537 2.05165 -1.13775 0
M  V30 6736 C 634.553 1.73879 -0.0649418 0
M  V30 6737 O 635.729 1.99531 -0.273722 0
M  V30 6738 C 632.794 3.37385 -0.798267 0
M  V30 6739 C 631.855 3.82296 -1.95316 0
M  V30 6740 C 631.088 5.08206 -1.62978 0
M  V30 6741 O 631.311 5.6781 -0.542948 0
M  V30 6742 O 630.245 5.48768 -2.47261 0
M  V30 6743 H 634.071 2.20273 -2.09078 0
M  V30 6744 H 631.656 1.0373 -1.07519 0
M  V30 6745 H 633.538 4.16773 -0.62278 0
M  V30 6746 H 632.213 3.23458 0.125139 0
M  V30 6747 H 631.12 3.03746 -2.18378 0
M  V30 6748 H 632.453 4.00782 -2.85718 0
M  V30 6749 N 634.105 1.10431 1.1244 0
M  V30 6750 C 635.33 0.869089 1.88313 0
M  V30 6751 C 635.755 -0.574912 1.79099 0
M  V30 6752 O 635.113 -1.40496 1.14589 0
M  V30 6753 C 635.161 1.32208 3.3549 0
M  V30 6754 O 634.265 0.487092 4.09513 0
M  V30 6755 H 633.606 0.313894 0.585121 0
M  V30 6756 H 636.136 1.47111 1.42195 0
M  V30 6757 H 636.146 1.31201 3.86329 0
M  V30 6758 H 634.821 2.37364 3.41513 0
M  V30 6759 H 633.398 0.562372 3.68635 0
M  V30 6760 N 635.583 -1.29855 0.893053 0
M  V30 6761 C 636.829 -1.96116 0.516349 0
M  V30 6762 C 637.162 -1.70281 -0.933695 0
M  V30 6763 O 636.437 -1.01205 -1.66096 0
M  V30 6764 C 636.72 -3.51068 0.801455 0
M  V30 6765 C 636.573 -3.86387 2.30272 0
M  V30 6766 C 637.892 -4.39186 0.283423 0
M  V30 6767 H 635.011 -0.712335 0.189072 0
M  V30 6768 H 637.653 -1.53587 1.11852 0
M  V30 6769 H 635.803 -3.87424 0.288949 0
M  V30 6770 H 637.475 -3.60012 2.88425 0
M  V30 6771 H 635.718 -3.34167 2.76613 0
M  V30 6772 H 636.389 -4.94512 2.45279 0
M  V30 6773 H 638.865 -4.09785 0.722187 0
M  V30 6774 H 637.741 -5.46505 0.512169 0
M  V30 6775 H 638.002 -4.34511 -0.815643 0
M  V30 6776 N 637.061 -0.65484 -1.43351 0
M  V30 6777 C 638.308 -0.168892 -2.01794 0
M  V30 6778 C 638.636 1.2177 -1.51665 0
M  V30 6779 O 637.891 1.82717 -0.70092 0
M  V30 6780 C 638.19 -0.130424 -3.57162 0
M  V30 6781 C 637.856 -1.45898 -4.26643 0
M  V30 6782 C 636.518 -1.82279 -4.4534 0
M  V30 6783 C 638.87 -2.33485 -4.65976 0
M  V30 6784 C 636.198 -3.0591 -5.00635 0
M  V30 6785 C 638.55 -3.5641 -5.22642 0
M  V30 6786 C 637.214 -3.92985 -5.39555 0
M  V30 6787 H 636.484 -0.061802 -0.738418 0
M  V30 6788 H 639.131 -0.845869 -1.71806 0
M  V30 6789 H 637.436 0.630008 -3.86702 0
M  V30 6790 H 639.133 0.262465 -4.0014 0
M  V30 6791 H 635.723 -1.16591 -4.12437 0
M  V30 6792 H 639.907 -2.06668 -4.51223 0
M  V30 6793 H 635.163 -3.34295 -5.11915 0
M  V30 6794 H 639.337 -4.24495 -5.52066 0
M  V30 6795 H 636.964 -4.88862 -5.82167 0
M  V30 6796 N 638.539 1.52521 -0.396863 0
M  V30 6797 C 639.449 2.30403 0.44178 0
M  V30 6798 C 640.465 1.37625 1.06468 0
M  V30 6799 O 641.641 1.70697 1.06886 0
M  V30 6800 C 638.706 3.1013 1.54986 0
M  V30 6801 C 637.767 4.18628 0.951279 0
M  V30 6802 C 637 4.94543 2.00655 0
M  V30 6803 O 637.223 4.70629 3.22281 0
M  V30 6804 O 636.157 5.797 1.61962 0
M  V30 6805 H 639.983 3.03087 -0.192892 0
M  V30 6806 H 637.568 1.48537 -0.16038 0
M  V30 6807 H 639.45 3.59816 2.19341 0
M  V30 6808 H 638.125 2.40251 2.16935 0
M  V30 6809 H 637.032 3.73119 0.270773 0
M  V30 6810 H 638.365 4.90763 0.375887 0
M  V30 6811 N 640.017 0.126909 1.57088 0
M  V30 6812 C 641.263 -0.529952 1.95753 0
M  V30 6813 C 641.596 -1.65823 1.01077 0
M  V30 6814 O 640.871 -1.94437 0.0494162 0
M  V30 6815 C 641.154 -1.05517 3.44294 0
M  V30 6816 C 641.007 0.0702253 4.49745 0
M  V30 6817 C 642.326 -1.9435 3.94862 0
M  V30 6818 H 639.445 -0.191168 0.711775 0
M  V30 6819 H 642.087 0.204071 1.88901 0
M  V30 6820 H 640.237 -1.68069 3.50264 0
M  V30 6821 H 641.909 0.705834 4.55868 0
M  V30 6822 H 640.152 0.732259 4.27575 0
M  V30 6823 H 640.823 -0.338642 5.5096 0
M  V30 6824 H 643.299 -1.41658 3.91244 0
M  V30 6825 H 642.175 -2.28015 4.993 0
M  V30 6826 H 642.436 -2.87299 3.36024 0
M  V30 6827 N 641.495 -1.56914 -0.146875 0
M  V30 6828 C 642.742 -1.83356 -0.859467 0
M  V30 6829 C 643.07 -0.707811 -1.81164 0
M  V30 6830 O 642.325 0.303155 -1.93338 0
M  V30 6831 C 642.624 -3.16128 -1.66727 0
M  V30 6832 C 642.29 -4.42586 -0.861881 0
M  V30 6833 C 640.952 -4.76929 -0.639687 0
M  V30 6834 C 643.304 -5.20344 -0.298643 0
M  V30 6835 C 640.632 -5.86491 0.156451 0
M  V30 6836 C 642.984 -6.30742 0.484536 0
M  V30 6837 C 641.648 -6.63635 0.717306 0
M  V30 6838 H 640.918 -0.670947 -0.314501 0
M  V30 6839 H 643.565 -1.91104 -0.123108 0
M  V30 6840 H 641.87 -3.03831 -2.47374 0
M  V30 6841 H 643.567 -3.33802 -2.2221 0
M  V30 6842 H 640.157 -4.15662 -1.04513 0
M  V30 6843 H 644.341 -4.94186 -0.457585 0
M  V30 6844 H 639.597 -6.10419 0.346292 0
M  V30 6845 H 643.771 -6.90188 0.928105 0
M  V30 6846 H 641.398 -7.48367 1.33607 0
M  V30 6847 N 642.974 0.416227 -1.52004 0
M  V30 6848 C 644.22 1.16555 -1.6596 0
M  V30 6849 C 644.553 1.90347 -0.384906 0
M  V30 6850 O 643.828 1.84474 0.616405 0
M  V30 6851 C 644.111 2.1657 -2.87696 0
M  V30 6852 C 643.964 1.46722 -4.25197 0
M  V30 6853 C 645.283 3.17321 -3.04951 0
M  V30 6854 H 642.402 0.422369 -0.603965 0
M  V30 6855 H 645.044 0.452141 -1.84542 0
M  V30 6856 H 643.194 2.77411 -2.71985 0
M  V30 6857 H 644.866 0.89056 -4.52622 0
M  V30 6858 H 643.109 0.769263 -4.26925 0
M  V30 6859 H 643.78 2.19665 -5.0641 0
M  V30 6860 H 646.256 2.66552 -3.19514 0
M  V30 6861 H 645.132 3.84573 -3.91656 0
M  V30 6862 H 645.393 3.84643 -2.17951 0
M  V30 6863 N 644.452 1.42507 0.673017 0
M  V30 6864 C 645.382 1.48916 1.79851 0
M  V30 6865 C 646.363 0.345566 1.66553 0
M  V30 6866 O 647.548 0.560116 1.85947 0
M  V30 6867 C 644.678 1.39258 3.18158 0
M  V30 6868 C 643.632 2.51662 3.46194 0
M  V30 6869 C 642.958 2.27062 4.84094 0
M  V30 6870 C 644.258 3.93968 3.42909 0
M  V30 6871 H 645.952 2.43114 1.74745 0
M  V30 6872 H 643.498 1.17013 0.839288 0
M  V30 6873 H 645.451 1.42349 3.96629 0
M  V30 6874 H 644.175 0.415542 3.23946 0
M  V30 6875 H 642.834 2.47891 2.70084 0
M  V30 6876 H 642.482 1.27648 4.86534 0
M  V30 6877 H 642.182 3.02398 5.03815 0
M  V30 6878 H 643.706 2.31905 5.64847 0
M  V30 6879 H 645.12 3.99332 4.11347 0
M  V30 6880 H 643.517 4.6917 3.74165 0
M  V30 6881 H 644.587 4.20512 2.41449 0
M  V30 6882 N 645.93 -0.909495 1.28709 0
M  V30 6883 C 647.16 -1.69027 1.188 0
M  V30 6884 C 647.568 -1.87469 -0.255329 0
M  V30 6885 O 646.911 -1.40458 -1.18394 0
M  V30 6886 C 646.973 -3.10064 1.81936 0
M  V30 6887 C 646.637 -3.14891 3.31199 0
M  V30 6888 C 647.634 -2.95768 4.27571 0
M  V30 6889 C 645.319 -3.37269 3.7223 0
M  V30 6890 C 647.313 -2.98942 5.6295 0
M  V30 6891 C 645 -3.40074 5.07733 0
M  V30 6892 C 645.998 -3.20932 6.02903 0
M  V30 6893 O 645.686 -3.23507 7.35934 0
M  V30 6894 H 645.418 -0.535014 0.413203 0
M  V30 6895 H 647.972 -1.14645 1.70428 0
M  V30 6896 H 646.202 -3.66005 1.24808 0
M  V30 6897 H 647.891 -3.70185 1.66486 0
M  V30 6898 H 648.657 -2.78302 3.97206 0
M  V30 6899 H 644.536 -3.51212 2.98615 0
M  V30 6900 H 648.08 -2.83919 6.37209 0
M  V30 6901 H 643.977 -3.5707 5.37747 0
M  V30 6902 H 644.745 -3.3984 7.44615 0
M  V30 6903 N 647.408 -1.11026 -1.11852 0
M  V30 6904 C 648.338 -0.786812 -2.19844 0
M  V30 6905 C 649.319 0.242935 -1.68356 0
M  V30 6906 O 650.504 0.107355 -1.93903 0
M  V30 6907 C 647.634 -0.224516 -3.46574 0
M  V30 6908 C 646.588 -1.18564 -4.1125 0
M  V30 6909 C 645.914 -0.484261 -5.32503 0
M  V30 6910 C 647.214 -2.53465 -4.56676 0
M  V30 6911 H 648.908 -1.68978 -2.47158 0
M  V30 6912 H 646.454 -0.813906 -1.18792 0
M  V30 6913 H 648.407 0.0139435 -4.21398 0
M  V30 6914 H 647.131 0.713722 -3.18706 0
M  V30 6915 H 645.79 -1.40966 -3.38414 0
M  V30 6916 H 645.438 0.458646 -5.00905 0
M  V30 6917 H 645.138 -1.12526 -5.76725 0
M  V30 6918 H 646.662 -0.254492 -6.10069 0
M  V30 6919 H 648.076 -2.35177 -5.22843 0
M  V30 6920 H 646.473 -3.13507 -5.11697 0
M  V30 6921 H 647.543 -3.13008 -3.70343 0
M  V30 6922 N 648.886 1.2938 -0.899927 0
M  V30 6923 C 650.111 2.00228 -0.540692 0
M  V30 6924 C 650.536 1.66909 0.867359 0
M  V30 6925 O 649.894 0.893824 1.57735 0
M  V30 6926 C 649.942 3.52921 -0.740232 0
M  V30 6927 O 649.046 4.11879 0.207154 0
M  V30 6928 H 648.387 0.629505 -0.211233 0
M  V30 6929 H 650.917 1.6487 -1.21158 0
M  V30 6930 H 650.927 4.0287 -0.644973 0
M  V30 6931 H 649.602 3.76508 -1.76677 0
M  V30 6932 H 648.179 3.72845 0.0643315 0
M  V30 6933 N 650.364 0.662433 1.43002 0
M  V30 6934 C 651.612 0.179237 2.01304 0
M  V30 6935 C 651.933 -1.21428 1.52579 0
M  V30 6936 O 651.203 -1.81294 0.742252 0
M  V30 6937 H 649.783 0.0632725 0.744316 0
M  V30 6938 H 652.445 0.856169 1.75088 0
M  V30 6939 H 651.541 0.170957 3.11631 0
M  V30 6940 N 651.842 -1.52309 0.404946 0
M  V30 6941 C 652.752 -2.30634 -0.429555 0
M  V30 6942 C 653.768 -1.38187 -1.05737 0
M  V30 6943 O 654.944 -1.71261 -1.05979 0
M  V30 6944 C 652.009 -3.10947 -1.53339 0
M  V30 6945 C 651.07 -4.19126 -0.929065 0
M  V30 6946 C 650.303 -4.95601 -1.9803 0
M  V30 6947 O 650.526 -4.72331 -3.1978 0
M  V30 6948 O 649.46 -5.80551 -1.58886 0
M  V30 6949 H 653.286 -3.0298 0.208963 0
M  V30 6950 H 650.871 -1.4845 0.168255 0
M  V30 6951 H 652.753 -3.60974 -2.1743 0
M  V30 6952 H 651.428 -2.41399 -2.15658 0
M  V30 6953 H 650.335 -3.73257 -0.250982 0
M  V30 6954 H 651.668 -4.90955 -0.349855 0
M  V30 6955 N 653.32 -0.135238 -1.57019 0
M  V30 6956 C 654.731 0.387521 -1.82634 0
M  V30 6957 C 655.082 1.65528 -1.05332 0
M  V30 6958 O 654.207 2.14381 -0.294926 0
M  V30 6959 C 654.802 0.709852 -3.3128 0
M  V30 6960 C 653.361 1.17718 -3.57518 0
M  V30 6961 C 652.508 0.194183 -2.76619 0
M  V30 6962 H 655.459 -0.360126 -1.5456 0
M  V30 6963 H 655.48 1.5657 -3.46794 0
M  V30 6964 H 654.992 -0.213024 -3.87515 0
M  V30 6965 H 653.093 2.1164 -3.06658 0
M  V30 6966 H 653.206 1.11128 -4.66034 0
M  V30 6967 H 651.57 0.684478 -2.4533 0
M  V30 6968 H 652.353 -0.722076 -3.3562 0
M  V30 6969 N 654.798 1.5699 0.138552 0
M  V30 6970 C 655.746 1.99858 1.18994 0
M  V30 6971 C 656.74 0.89231 1.43994 0
M  V30 6972 O 657.946 1.0775 1.44187 0
M  V30 6973 H 654.321 0.636325 0.400743 0
M  V30 6974 H 656.292 2.87427 0.801755 0
M  V30 6975 C 655.041 2.40235 2.51361 0
M  V30 6976 H 654.364 3.24917 2.32957 0
M  V30 6977 H 655.804 2.74045 3.23535 0
M  V30 6978 C 654.263 1.25829 3.1252 0
M  V30 6979 O 654.793 0.563604 3.97727 0
M  V30 6980 N 652.999 1.02036 2.72097 0
M  V30 6981 H 652.546 1.58705 2.02905 0
M  V30 6982 H 652.504 0.256796 3.1335 0
M  V30 6983 N 656.276 -0.40816 1.52223 0
M  V30 6984 C 657.692 -0.74685 1.41047 0
M  V30 6985 C 657.892 -1.94788 0.51573 0
M  V30 6986 O 656.948 -2.52494 -0.0181156 0
M  V30 6987 C 658.261 -0.999878 2.83589 0
M  V30 6988 C 659.809 -1.10253 2.92939 0
M  V30 6989 C 660.284 -1.38832 4.36451 0
M  V30 6990 N 661.775 -1.45694 4.3969 0
M  V30 6991 C 662.51 -1.69435 5.47795 0
M  V30 6992 N 662.006 -1.90774 6.66016 0
M  V30 6993 N 663.799 -1.71458 5.35312 0
M  V30 6994 H 655.95 0.382409 2.08929 0
M  V30 6995 H 658.213 0.108807 0.941735 0
M  V30 6996 H 657.919 -0.189723 3.51188 0
M  V30 6997 H 657.793 -1.91978 3.24691 0
M  V30 6998 H 660.18 -1.90328 2.2552 0
M  V30 6999 H 660.261 -0.160973 2.55293 0
M  V30 7000 H 659.905 -0.592741 5.04429 0
M  V30 7001 H 659.835 -2.34241 4.71634 0
M  V30 7002 H 662.326 -1.3099 3.54472 0
M  V30 7003 H 662.639 -2.08342 7.44186 0
M  V30 7004 H 660.984 -1.88037 6.69079 0
M  V30 7005 H 664.175 -1.54326 4.41929 0
M  V30 7006 H 664.348 -1.89621 6.19635 0
M  V30 7007 N 657.755 -1.42862 -0.66545 0
M  V30 7008 C 658.703 -1.47319 -1.8 0
M  V30 7009 C 659.697 -0.347963 -1.65788 0
M  V30 7010 O 660.903 -0.521406 -1.72283 0
M  V30 7011 H 657.278 -0.461588 -0.593667 0
M  V30 7012 H 659.249 -2.42876 -1.7336 0
M  V30 7013 C 657.998 -1.40152 -3.18203 0
M  V30 7014 H 657.321 -2.26035 -3.2977 0
M  V30 7015 H 658.761 -1.47331 -3.9758 0
M  V30 7016 C 657.22 -0.117493 -3.36695 0
M  V30 7017 O 657.75 0.826058 -3.93115 0
M  V30 7018 N 655.956 -0.0316218 -2.90583 0
M  V30 7019 H 655.503 -0.800247 -2.44855 0
M  V30 7020 H 655.461 0.826835 -3.03333 0
M  V30 7021 N 659.233 0.902656 -1.29189 0
M  V30 7022 C 660.481 1.6496 -1.16758 0
M  V30 7023 C 660.802 1.92952 0.28188 0
M  V30 7024 O 660.072 1.55351 1.19344 0
M  V30 7025 H 658.652 0.611447 -0.429118 0
M  V30 7026 H 661.314 1.0825 -1.62074 0
M  V30 7027 H 660.41 2.60728 -1.71544 0
M  V30 7028 N 660.711 1.11618 1.11262 0
M  V30 7029 C 661.661 0.745274 2.15475 0
M  V30 7030 C 662.645 -0.251585 1.58921 0
M  V30 7031 O 663.837 -0.0584093 1.76904 0
M  V30 7032 C 660.966 0.192128 3.42762 0
M  V30 7033 C 660.052 1.21676 4.0627 0
M  V30 7034 N 660.443 2.41158 4.44608 0
M  V30 7035 C 658.741 1.06013 4.33217 0
M  V30 7036 C 659.442 3.0652 4.94389 0
M  V30 7037 N 658.418 2.33994 4.9066 0
M  V30 7038 H 662.22 1.65462 2.42898 0
M  V30 7039 H 659.734 0.995695 1.28295 0
M  V30 7040 H 661.731 -0.0917339 4.16799 0
M  V30 7041 H 660.391 -0.711778 3.16802 0
M  V30 7042 H 661.402 2.786 4.3658 0
M  V30 7043 H 658.079 0.212809 4.16957 0
M  V30 7044 H 659.469 4.08225 5.33669 0
M  V30 7045 N 662.189 -1.289 0.906776 0
M  V30 7046 C 663.136 -2.2751 0.388313 0
M  V30 7047 C 664.106 -1.57301 -0.533439 0
M  V30 7048 O 665.291 -1.85243 -0.457148 0
M  V30 7049 C 662.431 -3.43091 -0.37181 0
M  V30 7050 C 661.544 -4.28066 0.581647 0
M  V30 7051 C 660.679 -5.30837 -0.19623 0
M  V30 7052 C 659.718 -6.07472 0.751294 0
M  V30 7053 N 658.855 -7.021 0.00737727 0
M  V30 7054 H 663.695 -2.71237 1.23428 0
M  V30 7055 H 661.232 -1.33397 0.619962 0
M  V30 7056 H 663.19 -4.08888 -0.828641 0
M  V30 7057 H 661.82 -3.00374 -1.18218 0
M  V30 7058 H 660.872 -3.62378 1.157 0
M  V30 7059 H 662.184 -4.81382 1.30665 0
M  V30 7060 H 661.338 -6.02485 -0.71394 0
M  V30 7061 H 660.077 -4.78272 -0.954324 0
M  V30 7062 H 659.082 -5.34682 1.28044 0
M  V30 7063 H 660.307 -6.62126 1.50883 0
M  V30 7064 H 658.253 -6.51894 -0.732854 0
M  V30 7065 H 658.17 -7.53004 0.672334 0
M  V30 7066 H 659.438 -7.77956 -0.490365 0
M  V30 7067 N 663.667 -0.670007 -1.42649 0
M  V30 7068 C 664.913 -0.190568 -2.01903 0
M  V30 7069 C 665.246 1.19817 -1.52832 0
M  V30 7070 O 664.521 1.80342 -0.728485 0
M  V30 7071 C 664.804 -0.21991 -3.59428 0
M  V30 7072 C 664.657 -1.64376 -4.18689 0
M  V30 7073 C 665.976 0.434519 -4.3795 0
M  V30 7074 H 663.095 -0.0707219 -0.733599 0
M  V30 7075 H 665.737 -0.853883 -1.69732 0
M  V30 7076 H 663.887 0.344894 -3.86966 0
M  V30 7077 H 665.559 -2.26044 -4.02122 0
M  V30 7078 H 663.802 -2.18591 -3.747 0
M  V30 7079 H 664.473 -1.61601 -5.27815 0
M  V30 7080 H 666.949 -0.0462156 -4.16074 0
M  V30 7081 H 665.825 0.38333 -5.4756 0
M  V30 7082 H 666.086 1.51135 -4.15464 0
M  V30 7083 N 665.145 1.52092 -0.413018 0
M  V30 7084 C 666.373 2.06274 0.160881 0
M  V30 7085 C 666.788 1.28273 1.38533 0
M  V30 7086 O 666.145 0.33563 1.79387 0
M  V30 7087 C 666.196 3.57921 0.507443 0
M  V30 7088 O 665.917 4.32971 -0.668388 0
M  V30 7089 C 667.418 4.28533 1.13465 0
M  V30 7090 H 664.638 0.67074 0.0186759 0
M  V30 7091 H 667.182 1.95951 -0.585092 0
M  V30 7092 H 665.337 3.68238 1.20331 0
M  V30 7093 H 665.751 5.23135 -0.378169 0
M  V30 7094 H 667.225 5.35804 1.32732 0
M  V30 7095 H 667.702 3.85258 2.10886 0
M  V30 7096 H 668.308 4.22595 0.478876 0
M  V30 7097 N 666.623 0.143563 1.56945 0
M  V30 7098 C 667.863 -0.511198 1.97904 0
M  V30 7099 C 668.227 -1.62262 1.0264 0
M  V30 7100 O 669.428 -2.338 1.32631 0
M  V30 7101 C 667.699 -1.00753 3.42905 0
M  V30 7102 S 669.258 -1.66737 4.05887 0
M  V30 7103 H 666.076 -0.165399 0.691494 0
M  V30 7104 H 668.678 0.234464 1.94089 0
M  V30 7105 H 667.382 -0.187817 4.0997 0
M  V30 7106 H 666.913 -1.7879 3.50425 0
M  V30 7107 H 668.928 -2.95444 3.98657 0
M  V30 7108 N 668.101 -1.57061 -0.130224 0
M  V30 7109 C 669.031 -2.02552 -1.16168 0
M  V30 7110 C 670.012 -0.907971 -1.4384 0
M  V30 7111 O 671.197 -1.17693 -1.54473 0
M  V30 7112 C 668.327 -2.42035 -2.49071 0
M  V30 7113 C 667.281 -3.5713 -2.35886 0
M  V30 7114 C 666.607 -3.82478 -3.7365 0
M  V30 7115 C 667.907 -4.89236 -1.8288 0
M  V30 7116 H 669.601 -2.8897 -0.783359 0
M  V30 7117 H 667.147 -1.39021 -0.375376 0
M  V30 7118 H 669.1 -2.72462 -3.21469 0
M  V30 7119 H 667.824 -1.52573 -2.88771 0
M  V30 7120 H 666.483 -3.26895 -1.65938 0
M  V30 7121 H 666.131 -2.9024 -4.10816 0
M  V30 7122 H 665.831 -4.59944 -3.65685 0
M  V30 7123 H 667.355 -4.15347 -4.47571 0
M  V30 7124 H 668.769 -5.18272 -2.45085 0
M  V30 7125 H 667.166 -5.70624 -1.85763 0
M  V30 7126 H 668.236 -4.78494 -0.785571 0
M  V30 7127 N 669.579 0.400081 -1.52437 0
M  V30 7128 C 670.99 0.97851 -1.59003 0
M  V30 7129 C 671.341 1.91293 -0.436068 0
M  V30 7130 O 670.466 2.1183 0.442365 0
M  V30 7131 C 671.061 1.78145 -2.88184 0
M  V30 7132 C 669.62 2.30976 -2.97199 0
M  V30 7133 C 668.767 1.11212 -2.54022 0
M  V30 7134 H 671.718 0.180002 -1.57676 0
M  V30 7135 H 671.739 2.63968 -2.74046 0
M  V30 7136 H 671.251 1.1011 -3.72152 0
M  V30 7137 H 669.352 3.02355 -2.17744 0
M  V30 7138 H 669.465 2.61221 -4.01622 0
M  V30 7139 H 667.829 1.46882 -2.08081 0
M  V30 7140 H 668.612 0.447307 -3.40373 0
M  V30 7141 N 671.057 1.43213 0.657864 0
M  V30 7142 C 672.303 1.45795 1.41829 0
M  V30 7143 C 672.658 0.0792176 1.92237 0
M  V30 7144 O 671.951 -0.901406 1.69072 0
M  V30 7145 C 672.145 2.43143 2.61947 0
M  V30 7146 C 671.974 3.90345 2.23295 0
M  V30 7147 C 670.744 4.58749 2.11843 0
M  V30 7148 C 672.942 4.80308 1.83873 0
M  V30 7149 N 670.924 5.90898 1.66473 0
M  V30 7150 C 672.295 6.01693 1.49549 0
M  V30 7151 C 674.35 4.67609 1.71015 0
M  V30 7152 C 673.053 7.11792 1.03657 0
M  V30 7153 C 675.079 5.77707 1.26527 0
M  V30 7154 C 674.441 6.98215 0.931379 0
M  V30 7155 H 670.54 0.588628 0.514822 0
M  V30 7156 H 673.124 1.7936 0.7575 0
M  V30 7157 H 671.295 2.11612 3.25692 0
M  V30 7158 H 673.027 2.36193 3.28626 0
M  V30 7159 H 669.782 4.1319 2.31453 0
M  V30 7160 H 670.206 6.61034 1.46163 0
M  V30 7161 H 674.848 3.74902 1.95469 0
M  V30 7162 H 672.566 8.04332 0.779502 0
M  V30 7163 H 676.152 5.69899 1.17074 0
M  V30 7164 H 675.032 7.81959 0.592379 0
M  V30 7165 N 672.536 -0.895792 1.29666 0
M  V30 7166 C 673.484 -2.02173 1.15017 0
M  V30 7167 C 674.478 -1.69276 0.0647651 0
M  V30 7168 O 675.684 -1.7859 0.224846 0
M  V30 7169 H 672.059 -0.662719 0.355397 0
M  V30 7170 H 674.03 -2.11666 2.10334 0
M  V30 7171 C 672.779 -3.37212 0.847555 0
M  V30 7172 H 672.102 -3.6303 1.67479 0
M  V30 7173 H 673.542 -4.16668 0.785106 0
M  V30 7174 C 672.001 -3.33891 -0.44929 0
M  V30 7175 O 672.531 -3.73673 -1.47415 0
M  V30 7176 N 670.737 -2.86991 -0.456547 0
M  V30 7177 H 670.284 -2.54813 0.377925 0
M  V30 7178 H 670.242 -2.85152 -1.32423 0
M  V30 7179 N 674.014 -1.12206 -1.10668 0
M  V30 7180 C 675.291 -0.787382 -1.79052 0
M  V30 7181 C 675.671 0.723267 -1.98323 0
M  V30 7182 O 675.019 1.6561 -1.57434 0
M  V30 7183 C 675.229 -1.55968 -3.1221 0
M  V30 7184 C 676.577 -1.74413 -3.87125 0
M  V30 7185 O 677.601 -1.5246 -3.21923 0
M  V30 7186 O 676.46 -2.10952 -5.04144 0
M  V30 7187 H 673.554 -0.286137 -0.775922 0
M  V30 7188 H 676.1 -1.22595 -1.1734 0
M  V30 7189 H 674.872 -2.58692 -2.93588 0
M  V30 7190 H 674.495 -1.1152 -3.8164 0
M  V30 7191 N 675.492 1.28418 -0.913599 0
M  V30 7192 C 676.402 2.31043 -0.406965 0
M  V30 7193 C 677.418 1.66501 0.505298 0
M  V30 7194 O 678.594 1.97558 0.391522 0
M  V30 7195 C 675.659 3.4498 0.344901 0
M  V30 7196 C 674.72 4.25078 -0.600563 0
M  V30 7197 C 673.953 5.33575 0.115516 0
M  V30 7198 O 674.176 5.54503 1.33727 0
M  V30 7199 O 673.11 5.9939 -0.549095 0
M  V30 7200 H 676.936 2.76387 -1.25873 0
M  V30 7201 H 674.521 1.33109 -0.678415 0
M  V30 7202 H 676.403 4.14314 0.769542 0
M  V30 7203 H 675.078 3.01719 1.1725 0
M  V30 7204 H 673.985 3.58334 -1.0746 0
M  V30 7205 H 675.318 4.72018 -1.39497 0
M  V30 7206 N 676.97 0.677563 1.42291 0
M  V30 7207 C 678.381 0.277912 1.8462 0
M  V30 7208 C 678.732 -1.18048 1.56714 0
M  V30 7209 O 677.857 -1.90404 1.02836 0
M  V30 7210 C 678.452 0.497619 3.35126 0
M  V30 7211 C 677.011 0.152063 3.76093 0
M  V30 7212 C 676.158 0.78872 2.65847 0
M  V30 7213 H 679.109 0.879527 1.32098 0
M  V30 7214 H 679.13 -0.24939 3.79682 0
M  V30 7215 H 678.642 1.55913 3.55405 0
M  V30 7216 H 676.743 -0.905896 3.6142 0
M  V30 7217 H 676.856 0.594514 4.75397 0
M  V30 7218 H 675.22 0.219813 2.5375 0
M  V30 7219 H 676.003 1.85374 2.88949 0
M  V30 7220 N 678.448 -1.51871 0.421078 0
M  V30 7221 C 679.378 -2.30231 -0.389363 0
M  V30 7222 C 680.359 -1.34946 -1.03555 0
M  V30 7223 O 681.544 -1.63859 -1.04229 0
M  V30 7224 C 678.674 -3.13247 -1.49979 0
M  V30 7225 C 677.628 -4.16677 -0.977966 0
M  V30 7226 C 676.954 -4.88112 -2.1829 0
M  V30 7227 C 678.254 -5.22295 -0.0236775 0
M  V30 7228 H 679.948 -2.98229 0.264524 0
M  V30 7229 H 677.494 -1.43424 0.12866 0
M  V30 7230 H 679.447 -3.66838 -2.07383 0
M  V30 7231 H 678.171 -2.4304 -2.18173 0
M  V30 7232 H 676.83 -3.64114 -0.426245 0
M  V30 7233 H 676.478 -4.14423 -2.85066 0
M  V30 7234 H 676.178 -5.58041 -1.84021 0
M  V30 7235 H 677.702 -5.44521 -2.76278 0
M  V30 7236 H 679.116 -5.71055 -0.506899 0
M  V30 7237 H 677.513 -5.99656 0.230782 0
M  V30 7238 H 678.583 -4.76131 0.917999 0
M  V30 7239 N 679.926 -0.151884 -1.56866 0
M  V30 7240 C 680.889 0.771861 -2.15812 0
M  V30 7241 C 681.889 1.17181 -1.10115 0
M  V30 7242 O 683.079 1.09194 -1.35729 0
M  V30 7243 C 680.211 2.04806 -2.7252 0
M  V30 7244 H 681.404 0.259021 -2.98779 0
M  V30 7245 H 678.957 0.097588 -1.55995 0
M  V30 7246 H 679.692 2.60445 -1.93233 0
M  V30 7247 H 679.477 1.77044 -3.49854 0
M  V30 7248 H 680.967 2.70771 -3.1792 0
M  V30 7249 N 681.404 1.57128 0.121893 0
M  V30 7250 C 682.367 1.99197 1.13372 0
M  V30 7251 C 683.367 0.881728 1.3447 0
M  V30 7252 O 684.557 1.14783 1.31036 0
M  V30 7253 C 681.689 2.32963 2.4888 0
M  V30 7254 H 682.882 2.89788 0.772204 0
M  V30 7255 H 680.435 1.51952 0.366093 0
M  V30 7256 H 681.17 1.45243 2.89957 0
M  V30 7257 H 680.955 3.13934 2.34921 0
M  V30 7258 H 682.445 2.66261 3.21706 0
M  V30 7259 N 682.882 -0.391992 1.52647 0
M  V30 7260 C 683.792 -1.503 1.80131 0
M  V30 7261 C 684.808 -1.59825 0.687882 0
M  V30 7262 O 685.984 -1.76218 0.975149 0
M  V30 7263 C 683.049 -2.85863 1.96171 0
M  V30 7264 C 682.11 -2.86084 3.20085 0
M  V30 7265 C 681.343 -4.15181 3.35351 0
M  V30 7266 O 681.566 -5.09981 2.55491 0
M  V30 7267 O 680.5 -4.22603 4.28591 0
M  V30 7268 H 684.326 -1.30007 2.74466 0
M  V30 7269 H 681.911 -0.579539 1.37701 0
M  V30 7270 H 683.793 -3.66236 2.08445 0
M  V30 7271 H 682.468 -3.06189 1.05025 0
M  V30 7272 H 681.375 -2.04504 3.13256 0
M  V30 7273 H 682.708 -2.7071 4.11068 0
M  V30 7274 N 684.36 -1.4356 -0.65026 0
M  V30 7275 C 685.588 -1.48779 -1.43779 0
M  V30 7276 C 686.003 -0.106593 -1.88499 0
M  V30 7277 O 685.36 0.883766 -1.59674 0
M  V30 7278 C 685.411 -2.43618 -2.67081 0
M  V30 7279 O 685.132 -3.76367 -2.24231 0
M  V30 7280 C 686.633 -2.5811 -3.60409 0
M  V30 7281 H 683.853 -0.50521 -0.441593 0
M  V30 7282 H 686.397 -1.88332 -0.796941 0
M  V30 7283 H 684.552 -2.07253 -3.273 0
M  V30 7284 H 684.966 -4.27394 -3.0403 0
M  V30 7285 H 686.44 -3.28539 -4.43583 0
M  V30 7286 H 686.917 -1.627 -4.07953 0
M  V30 7287 H 687.523 -2.95298 -3.0607 0
M  V30 7288 N 685.838 0.888903 -1.30139 0
M  V30 7289 C 687.063 1.67884 -1.21777 0
M  V30 7290 C 687.488 1.86848 0.216689 0
M  V30 7291 O 686.846 1.39659 1.15608 0
M  V30 7292 C 686.894 3.03483 -1.94757 0
M  V30 7293 O 685.998 3.92294 -1.27198 0
M  V30 7294 H 685.339 0.513144 -0.421402 0
M  V30 7295 H 687.869 1.10968 -1.71893 0
M  V30 7296 H 687.879 3.53553 -2.03627 0
M  V30 7297 H 686.554 2.89 -2.99085 0
M  V30 7298 H 685.131 3.50732 -1.26655 0
M  V30 7299 N 687.317 1.12792 1.10072 0
M  V30 7300 C 688.247 0.821688 2.18565 0
M  V30 7301 C 689.228 -0.21612 1.68721 0
M  V30 7302 O 690.413 -0.0764932 1.94049 0
M  V30 7303 C 687.543 0.279624 3.46172 0
M  V30 7304 C 686.497 1.25092 4.09312 0
M  V30 7305 C 685.823 0.568916 5.31665 0
M  V30 7306 C 687.123 2.60699 4.52585 0
M  V30 7307 H 688.817 1.72888 2.44438 0
M  V30 7308 H 686.363 0.832702 1.17482 0
M  V30 7309 H 688.316 0.053099 4.21367 0
M  V30 7310 H 687.04 -0.662929 3.19801 0
M  V30 7311 H 685.699 1.46332 3.36129 0
M  V30 7312 H 685.347 -0.378898 5.01571 0
M  V30 7313 H 685.047 1.21687 5.74862 0
M  V30 7314 H 686.571 0.351517 6.09587 0
M  V30 7315 H 687.985 2.43465 5.19035 0
M  V30 7316 H 686.382 3.21608 5.06644 0
M  V30 7317 H 687.452 3.1886 3.65317 0
M  V30 7318 N 688.795 -1.27931 0.920396 0
M  V30 7319 C 689.725 -2.29487 0.431024 0
M  V30 7320 C 690.706 -1.62435 -0.504861 0
M  V30 7321 O 691.891 -1.89797 -0.411176 0
M  V30 7322 C 689.021 -3.45788 -0.323709 0
M  V30 7323 C 687.975 -4.24784 0.523658 0
M  V30 7324 C 687.301 -5.33488 -0.359809 0
M  V30 7325 C 688.601 -4.90874 1.78437 0
M  V30 7326 H 690.295 -2.70671 1.27975 0
M  V30 7327 H 687.841 -1.30121 0.616813 0
M  V30 7328 H 689.794 -4.15927 -0.676952 0
M  V30 7329 H 688.518 -3.03502 -1.2064 0
M  V30 7330 H 687.177 -3.56382 0.85951 0
M  V30 7331 H 686.825 -4.87445 -1.24124 0
M  V30 7332 H 686.525 -5.87247 0.203605 0
M  V30 7333 H 688.049 -6.06472 -0.708787 0
M  V30 7334 H 689.463 -5.53339 1.49963 0
M  V30 7335 H 687.86 -5.54659 2.29071 0
M  V30 7336 H 688.93 -4.14988 2.50824 0
M  V30 7337 N 690.273 -0.685099 -1.4193 0
M  V30 7338 C 691.22 -0.0131869 -2.30796 0
M  V30 7339 C 692.19 0.782129 -1.46533 0
M  V30 7340 O 693.375 0.75229 -1.75343 0
M  V30 7341 C 690.515 0.924768 -3.32479 0
M  V30 7342 C 689.628 0.122181 -4.31827 0
M  V30 7343 C 688.763 1.05682 -5.20581 0
M  V30 7344 C 687.802 0.246526 -6.11603 0
M  V30 7345 N 686.939 1.13442 -6.92875 0
M  V30 7346 H 691.779 -0.776789 -2.87698 0
M  V30 7347 H 689.316 -0.394791 -1.41703 0
M  V30 7348 H 691.274 1.48251 -3.89971 0
M  V30 7349 H 689.904 1.65488 -2.77152 0
M  V30 7350 H 688.956 -0.552335 -3.76369 0
M  V30 7351 H 690.268 -0.506473 -4.96222 0
M  V30 7352 H 689.422 1.68415 -5.82856 0
M  V30 7353 H 688.161 1.71935 -4.56388 0
M  V30 7354 H 687.166 -0.393944 -5.48387 0
M  V30 7355 H 688.391 -0.412053 -6.77849 0
M  V30 7356 H 686.337 1.78316 -6.313 0
M  V30 7357 H 686.254 0.561089 -7.53915 0
M  V30 7358 H 687.522 1.74889 -7.59628 0
M  V30 7359 N 691.751 1.51645 -0.429126 0
M  V30 7360 C 692.661 2.31288 0.392809 0
M  V30 7361 C 693.677 1.39852 1.03525 0
M  V30 7362 O 694.853 1.72926 1.03241 0
M  V30 7363 C 691.918 3.13347 1.48372 0
M  V30 7364 C 690.979 4.20551 0.862268 0
M  V30 7365 C 690.212 4.98688 1.9012 0
M  V30 7366 O 690.435 4.77359 3.12225 0
M  V30 7367 O 689.369 5.83005 1.4963 0
M  V30 7368 H 693.195 3.02609 -0.257138 0
M  V30 7369 H 690.78 1.48163 -0.191851 0
M  V30 7370 H 692.662 3.64387 2.1166 0
M  V30 7371 H 691.337 2.44799 2.1179 0
M  V30 7372 H 690.244 3.73609 0.191568 0
M  V30 7373 H 691.577 4.91449 0.271704 0
M  V30 7374 N 693.229 0.160201 1.56784 0
M  V30 7375 C 694.139 -0.787167 2.21 0
M  V30 7376 C 695.155 -1.26167 1.19825 0
M  V30 7377 O 696.331 -1.31611 1.52448 0
M  V30 7378 C 693.396 -2.00364 2.8294 0
M  V30 7379 C 692.457 -1.5771 3.99282 0
M  V30 7380 C 691.69 -2.73558 4.58259 0
M  V30 7381 O 691.913 -3.90129 4.16119 0
M  V30 7382 O 690.847 -2.48271 5.48311 0
M  V30 7383 H 694.673 -0.270462 3.02493 0
M  V30 7384 H 692.258 -0.0674666 1.49248 0
M  V30 7385 H 694.14 -2.71529 3.22257 0
M  V30 7386 H 692.815 -2.50961 2.04451 0
M  V30 7387 H 691.722 -0.835274 3.64656 0
M  V30 7388 H 693.055 -1.11815 4.79331 0
M  V30 7389 N 694.707 -1.5719 -0.113559 0
M  V30 7390 C 695.637 -2.03772 -1.14013 0
M  V30 7391 C 696.618 -0.923176 -1.42869 0
M  V30 7392 O 697.803 -1.19325 -1.53216 0
M  V30 7393 C 694.933 -2.44663 -2.4649 0
M  V30 7394 C 693.887 -3.59612 -2.32085 0
M  V30 7395 C 693.213 -3.8642 -3.69573 0
M  V30 7396 C 694.513 -4.91149 -1.7768 0
M  V30 7397 H 696.207 -2.89785 -0.752665 0
M  V30 7398 H 693.753 -1.39412 -0.360609 0
M  V30 7399 H 695.706 -2.75857 -3.18561 0
M  V30 7400 H 694.43 -1.55628 -2.87137 0
M  V30 7401 H 693.089 -3.28636 -1.62461 0
M  V30 7402 H 692.737 -2.94581 -4.07715 0
M  V30 7403 H 692.437 -4.63797 -3.60786 0
M  V30 7404 H 693.961 -4.2007 -4.4314 0
M  V30 7405 H 695.375 -5.20843 -2.39574 0
M  V30 7406 H 693.772 -5.72562 -1.79701 0
M  V30 7407 H 694.842 -4.79301 -0.734776 0
M  V30 7408 N 696.185 0.383891 -1.52853 0
M  V30 7409 C 697.115 1.47559 -1.80965 0
M  V30 7410 C 698.096 1.5669 -0.661986 0
M  V30 7411 O 699.281 1.71556 -0.910072 0
M  V30 7412 C 696.411 2.85114 -1.98312 0
M  V30 7413 C 695.365 2.9082 -3.14019 0
M  V30 7414 C 694.691 4.30873 -3.16627 0
M  V30 7415 C 695.991 2.60001 -4.52986 0
M  V30 7416 H 697.685 1.24283 -2.72386 0
M  V30 7417 H 695.231 0.596445 -1.31067 0
M  V30 7418 H 697.184 3.61496 -2.16561 0
M  V30 7419 H 695.908 3.09738 -1.03585 0
M  V30 7420 H 694.567 2.16886 -2.9556 0
M  V30 7421 H 694.215 4.52545 -2.19573 0
M  V30 7422 H 693.915 4.3561 -3.94357 0
M  V30 7423 H 695.439 5.09154 -3.37038 0
M  V30 7424 H 696.853 3.261 -4.71521 0
M  V30 7425 H 695.25 2.76081 -5.32822 0
M  V30 7426 H 696.32 1.5532 -4.59351 0
M  V30 7427 N 697.663 1.43903 0.642637 0
M  V30 7428 C 699.079 1.27536 0.959519 0
M  V30 7429 C 699.279 0.202751 2.00477 0
M  V30 7430 O 698.335 -0.415256 2.49062 0
M  V30 7431 C 699.648 2.6432 1.43372 0
M  V30 7432 C 701.196 2.71937 1.54981 0
M  V30 7433 C 701.671 4.09164 2.05789 0
M  V30 7434 N 703.162 4.11282 2.13076 0
M  V30 7435 C 703.897 5.14303 2.53534 0
M  V30 7436 N 703.393 6.27693 2.93212 0
M  V30 7437 N 705.186 5.01657 2.53567 0
M  V30 7438 H 697.337 2.12344 -0.0488376 0
M  V30 7439 H 699.6 0.947124 0.0407559 0
M  V30 7440 H 699.306 3.43826 0.740048 0
M  V30 7441 H 699.18 2.90432 2.40685 0
M  V30 7442 H 701.567 1.92757 2.23448 0
M  V30 7443 H 701.648 2.49578 0.560739 0
M  V30 7444 H 701.292 4.88815 1.37921 0
M  V30 7445 H 701.222 4.28893 3.05546 0
M  V30 7446 H 703.713 3.2944 1.85143 0
M  V30 7447 H 704.026 7.02125 3.22863 0
M  V30 7448 H 702.371 6.31149 2.90991 0
M  V30 7449 H 705.562 4.12134 2.21952 0
M  V30 7450 H 705.735 5.82072 2.84774 0
M  V30 7451 N 699.141 -0.881989 1.30609 0
M  V30 7452 C 700.387 -1.63647 1.19781 0
M  V30 7453 C 700.72 -1.92632 -0.246265 0
M  V30 7454 O 699.995 -1.54938 -1.17577 0
M  V30 7455 C 700.278 -2.97437 2.02985 0
M  V30 7456 C 700.131 -2.75406 3.55628 0
M  V30 7457 C 701.45 -3.98397 1.86997 0
M  V30 7458 H 698.569 -0.593841 0.436488 0
M  V30 7459 H 701.211 -1.02041 1.60273 0
M  V30 7460 H 699.361 -3.50018 1.68581 0
M  V30 7461 H 701.033 -2.2959 4.00107 0
M  V30 7462 H 699.276 -2.09856 3.79662 0
M  V30 7463 H 699.947 -3.70552 4.09139 0
M  V30 7464 H 702.423 -3.54986 2.17081 0
M  V30 7465 H 701.299 -4.89916 2.47536 0
M  V30 7466 H 701.56 -4.3424 0.829943 0
M  V30 7467 N 700.619 -1.13374 -1.09472 0
M  V30 7468 C 701.567 -0.806105 -2.18185 0
M  V30 7469 C 702.561 0.21136 -1.68076 0
M  V30 7470 O 703.767 0.0685558 -1.79869 0
M  V30 7471 H 700.142 -0.242901 -0.71169 0
M  V30 7472 H 702.113 -1.73115 -2.43051 0
M  V30 7473 C 700.862 -0.287928 -3.46506 0
M  V30 7474 H 700.185 -1.06217 -3.85432 0
M  V30 7475 H 701.625 -0.0971054 -4.23889 0
M  V30 7476 C 700.084 0.986256 -3.22141 0
M  V30 7477 O 700.614 2.06217 -3.44728 0
M  V30 7478 N 698.82 0.917153 -2.75747 0
M  V30 7479 H 698.367 0.0414609 -2.57567 0
M  V30 7480 H 698.325 1.77029 -2.59823 0
M  V30 7481 N 702.098 1.27442 -0.927168 0
M  V30 7482 C 703.514 1.46754 -0.627329 0
M  V30 7483 C 703.714 1.83902 0.823549 0
M  V30 7484 O 702.77 1.95215 1.60148 0
M  V30 7485 C 704.083 2.56045 -1.57674 0
M  V30 7486 C 705.631 2.69906 -1.58491 0
M  V30 7487 C 706.106 3.82355 -2.52128 0
M  V30 7488 N 707.597 3.89728 -2.50332 0
M  V30 7489 C 708.332 4.76155 -3.19475 0
M  V30 7490 N 707.828 5.67073 -3.97995 0
M  V30 7491 N 709.621 4.6988 -3.08496 0
M  V30 7492 H 701.772 1.01613 -1.86517 0
M  V30 7493 H 704.035 0.507443 -0.800753 0
M  V30 7494 H 703.741 2.35542 -2.61176 0
M  V30 7495 H 703.615 3.53423 -1.31804 0
M  V30 7496 H 706.002 2.89792 -0.557208 0
M  V30 7497 H 706.083 1.73018 -1.8841 0
M  V30 7498 H 705.727 3.63224 -3.55008 0
M  V30 7499 H 705.657 4.7867 -2.19505 0
M  V30 7500 H 708.148 3.24717 -1.93306 0
M  V30 7501 H 708.461 6.2988 -4.4774 0
M  V30 7502 H 706.806 5.6687 -4.02098 0
M  V30 7503 H 709.997 3.97848 -2.46646 0
M  V30 7504 H 710.17 5.37017 -3.62652 0
M  V30 7505 N 703.576 0.692616 1.41565 0
M  V30 7506 C 704.508 -0.0137132 2.29196 0
M  V30 7507 C 705.521 -0.747417 1.44629 0
M  V30 7508 O 706.71 -0.598611 1.68163 0
M  V30 7509 C 703.81 -1.04347 3.22436 0
M  V30 7510 C 702.983 -0.379985 4.35746 0
M  V30 7511 C 702.042 -1.31195 5.09583 0
M  V30 7512 O 701.068 -0.805455 5.63472 0
M  V30 7513 N 702.27 -2.64443 5.16769 0
M  V30 7514 H 705.035 0.738614 2.90456 0
M  V30 7515 H 702.596 0.538415 1.52685 0
M  V30 7516 H 704.588 -1.6686 3.687 0
M  V30 7517 H 703.158 -1.69736 2.62504 0
M  V30 7518 H 702.378 0.424975 3.91903 0
M  V30 7519 H 703.666 0.0814904 5.08735 0
M  V30 7520 H 703.064 -3.08114 4.74428 0
M  V30 7521 H 701.621 -3.22159 5.66619 0
M  V30 7522 N 705.054 -1.51416 0.437162 0
M  V30 7523 C 706.302 -2.01687 -0.129108 0
M  V30 7524 C 706.623 -1.32329 -1.43227 0
M  V30 7525 O 705.893 -0.457796 -1.90476 0
M  V30 7526 H 704.473 -0.745277 -0.0507023 0
M  V30 7527 H 707.135 -1.86075 0.579828 0
M  V30 7528 H 706.231 -3.10605 -0.305141 0
M  V30 7529 N 706.532 -0.168513 -1.56696 0
M  V30 7530 C 707.781 0.477233 -1.95973 0
M  V30 7531 C 708.094 1.64578 -1.05704 0
M  V30 7532 O 709.3 2.35758 -1.3465 0
M  V30 7533 C 707.756 0.900413 -3.48455 0
M  V30 7534 C 707.364 -0.242382 -4.47344 0
M  V30 7535 C 709.108 1.51474 -3.96555 0
M  V30 7536 C 707.015 0.200272 -5.91061 0
M  V30 7537 H 705.945 0.182061 -0.73169 0
M  V30 7538 H 708.596 -0.256297 -1.81701 0
M  V30 7539 H 706.978 1.68984 -3.58135 0
M  V30 7540 H 708.152 -1.01967 -4.49377 0
M  V30 7541 H 706.467 -0.766484 -4.09285 0
M  V30 7542 H 709.064 1.85792 -5.01384 0
M  V30 7543 H 709.407 2.41163 -3.39332 0
M  V30 7544 H 709.94 0.789802 -3.89881 0
M  V30 7545 H 706.679 -0.661775 -6.52151 0
M  V30 7546 H 706.199 0.942979 -5.92341 0
M  V30 7547 H 707.878 0.645088 -6.43776 0
M  V30 7548 N 708.01 1.57248 0.105221 0
M  V30 7549 C 708.94 2.04374 1.12931 0
M  V30 7550 C 709.921 0.93074 1.42377 0
M  V30 7551 O 711.106 1.20136 1.52581 0
M  V30 7552 C 708.236 2.45967 2.45189 0
M  V30 7553 C 707.19 3.60838 2.30174 0
M  V30 7554 C 706.516 3.88374 3.67518 0
M  V30 7555 C 707.816 4.92084 1.75073 0
M  V30 7556 H 709.51 2.9018 0.737287 0
M  V30 7557 H 707.056 1.39601 0.353211 0
M  V30 7558 H 709.009 2.77542 3.17094 0
M  V30 7559 H 707.733 1.57148 2.86308 0
M  V30 7560 H 706.392 3.29493 1.60716 0
M  V30 7561 H 706.04 2.96739 4.06147 0
M  V30 7562 H 705.74 4.65703 3.58321 0
M  V30 7563 H 707.264 4.22415 4.40906 0
M  V30 7564 H 708.678 5.22106 2.36809 0
M  V30 7565 H 707.075 5.73507 1.76662 0
M  V30 7566 H 708.145 4.79684 0.709347 0
M  V30 7567 N 709.488 -0.375779 1.53054 0
M  V30 7568 C 710.716 -1.14036 1.72637 0
M  V30 7569 C 711.131 -1.83342 0.450687 0
M  V30 7570 O 710.488 -1.7318 -0.575749 0
M  V30 7571 C 710.539 -2.17841 2.88492 0
M  V30 7572 O 710.26 -1.51358 4.11123 0
M  V30 7573 C 711.761 -3.06924 3.19863 0
M  V30 7574 H 708.981 -0.341386 0.577665 0
M  V30 7575 H 711.525 -0.437809 1.99759 0
M  V30 7576 H 709.68 -2.8371 2.63794 0
M  V30 7577 H 710.094 -2.20439 4.75928 0
M  V30 7578 H 711.568 -3.75763 4.04359 0
M  V30 7579 H 712.045 -3.71169 2.34798 0
M  V30 7580 H 712.651 -2.46684 3.46449 0
M  V30 7581 N 710.966 -1.44241 -0.634997 0
M  V30 7582 C 712.215 -1.46102 -1.39058 0
M  V30 7583 C 712.528 -0.0959909 -1.95364 0
M  V30 7584 O 713.734 0.00788751 -2.71499 0
M  V30 7585 C 712.19 -2.57195 -2.51751 0
M  V30 7586 C 711.798 -3.99888 -2.01974 0
M  V30 7587 C 713.542 -2.68272 -3.28984 0
M  V30 7588 C 711.449 -5.02412 -3.11987 0
M  V30 7589 H 710.379 -0.543556 -0.522554 0
M  V30 7590 H 713.03 -1.70294 -0.683538 0
M  V30 7591 H 711.412 -2.26237 -3.25012 0
M  V30 7592 H 712.586 -4.40396 -1.35604 0
M  V30 7593 H 710.901 -3.93019 -1.37568 0
M  V30 7594 H 713.498 -3.42042 -4.10988 0
M  V30 7595 H 713.841 -1.73957 -3.78212 0
M  V30 7596 H 714.374 -2.98622 -2.62812 0
M  V30 7597 H 711.113 -5.98342 -2.67707 0
M  V30 7598 H 710.633 -4.66501 -3.77011 0
M  V30 7599 H 712.312 -5.25939 -3.76825 0
M  V30 7600 N 712.444 0.87505 -1.31075 0
M  V30 7601 C 713.392 2.00317 -1.18219 0
M  V30 7602 C 714.386 1.69152 -0.0916872 0
M  V30 7603 O 715.592 1.7821 -0.253229 0
M  V30 7604 H 711.967 0.656981 -0.365895 0
M  V30 7605 H 713.938 2.08293 -2.13674 0
M  V30 7606 C 712.687 3.35821 -0.901095 0
M  V30 7607 H 712.01 3.6032 -1.73233 0
M  V30 7608 H 713.45 4.15366 -0.851295 0
M  V30 7609 C 711.909 3.34563 0.396114 0
M  V30 7610 O 712.439 3.75971 1.41452 0
M  V30 7611 N 710.645 2.87681 0.410832 0
M  V30 7612 H 710.192 2.54179 -0.418415 0
M  V30 7613 H 710.15 2.87223 1.27869 0
M  V30 7614 N 713.922 1.13953 1.08869 0
M  V30 7615 C 715.147 0.928559 1.85452 0
M  V30 7616 C 715.572 -0.517642 1.80837 0
M  V30 7617 O 714.93 -1.36779 1.19001 0
M  V30 7618 C 714.978 1.42814 3.31114 0
M  V30 7619 O 714.082 0.617129 4.07756 0
M  V30 7620 H 713.423 0.33235 0.574839 0
M  V30 7621 H 715.953 1.5156 1.37443 0
M  V30 7622 H 715.963 1.43425 3.8196 0
M  V30 7623 H 714.638 2.48109 3.33788 0
M  V30 7624 H 713.215 0.679365 3.66659 0
M  V30 7625 N 715.4 -1.26948 0.933913 0
M  V30 7626 C 716.332 -2.25768 0.395137 0
M  V30 7627 C 717.345 -1.55637 -0.477585 0
M  V30 7628 O 718.534 -1.76142 -0.289204 0
M  V30 7629 C 715.634 -3.35874 -0.451882 0
M  V30 7630 C 714.807 -4.3554 0.40299 0
M  V30 7631 C 713.866 -5.24809 -0.3824 0
M  V30 7632 O 712.892 -5.68805 0.212057 0
M  V30 7633 N 714.094 -5.55636 -1.68072 0
M  V30 7634 H 716.859 -2.72634 1.24463 0
M  V30 7635 H 714.42 -1.40639 0.802008 0
M  V30 7636 H 716.412 -3.92542 -0.984516 0
M  V30 7637 H 714.982 -2.8856 -1.20215 0
M  V30 7638 H 714.202 -3.78047 1.11688 0
M  V30 7639 H 715.49 -4.99131 0.987201 0
M  V30 7640 H 714.888 -5.2176 -2.18592 0
M  V30 7641 H 713.445 -6.14978 -2.15975 0
M  V30 7642 N 716.879 -0.700114 -1.41195 0
M  V30 7643 C 718.29 -0.307249 -1.84154 0
M  V30 7644 C 718.641 1.15539 -1.58572 0
M  V30 7645 O 717.766 1.88744 -1.05852 0
M  V30 7646 C 718.361 -0.550872 -3.34292 0
M  V30 7647 C 716.92 -0.211877 -3.75803 0
M  V30 7648 C 716.067 -0.830915 -2.64558 0
M  V30 7649 H 719.018 -0.900431 -1.30683 0
M  V30 7650 H 719.039 0.188954 -3.80031 0
M  V30 7651 H 718.551 -1.61548 -3.5288 0
M  V30 7652 H 716.652 0.848283 -3.62815 0
M  V30 7653 H 716.765 -0.67007 -4.74391 0
M  V30 7654 H 715.129 -0.260155 -2.53368 0
M  V30 7655 H 715.912 -1.89948 -2.85963 0
M  V30 7656 N 718.357 1.51182 -0.445186 0
M  V30 7657 C 719.305 2.29531 0.376597 0
M  V30 7658 C 720.299 1.35711 1.01385 0
M  V30 7659 O 721.505 1.53018 0.947922 0
M  V30 7660 H 717.88 0.738803 0.140267 0
M  V30 7661 H 719.851 2.96838 -0.304958 0
M  V30 7662 C 718.6 3.1552 1.4609 0
M  V30 7663 H 717.923 3.87605 0.979912 0
M  V30 7664 H 719.363 3.73384 2.009 0
M  V30 7665 C 717.822 2.31406 2.44852 0
M  V30 7666 O 718.352 1.97912 3.49562 0
M  V30 7667 N 716.558 1.94478 2.15932 0
M  V30 7668 H 716.105 2.21917 1.30808 0
M  V30 7669 H 716.063 1.38498 2.82251 0
M  V30 7670 N 719.835 0.176821 1.56605 0
M  V30 7671 C 721.084 -0.466833 1.96223 0
M  V30 7672 C 721.397 -1.64015 1.06576 0
M  V30 7673 O 722.603 -2.3504 1.35898 0
M  V30 7674 C 721.059 -0.881921 3.48927 0
M  V30 7675 C 720.667 0.266102 4.47209 0
M  V30 7676 C 722.411 -1.49368 3.97353 0
M  V30 7677 C 720.318 -0.168923 5.91159 0
M  V30 7678 H 719.248 -0.178178 0.732645 0
M  V30 7679 H 721.899 0.265929 1.81563 0
M  V30 7680 H 720.281 -1.67082 3.59026 0
M  V30 7681 H 721.455 1.04349 4.4883 0
M  V30 7682 H 719.77 0.788178 4.08872 0
M  V30 7683 H 722.367 -1.8313 5.02362 0
M  V30 7684 H 722.71 -2.3936 3.40606 0
M  V30 7685 H 723.243 -0.769114 3.90294 0
M  V30 7686 H 719.982 0.696351 6.51791 0
M  V30 7687 H 719.502 -0.911552 5.92833 0
M  V30 7688 H 721.181 -0.610938 6.44109 0
M  V30 7689 N 721.313 -1.57302 -0.09688 0
M  V30 7690 C 722.261 -2.02942 -1.13654 0
M  V30 7691 C 723.255 -0.930173 -1.41577 0
M  V30 7692 O 724.461 -1.11535 -1.41279 0
M  V30 7693 H 720.836 -0.646726 -0.383731 0
M  V30 7694 H 722.807 -2.89452 -0.725267 0
M  V30 7695 C 721.556 -2.46815 -2.44903 0
M  V30 7696 H 720.879 -3.30979 -2.24261 0
M  V30 7697 H 722.319 -2.82527 -3.16156 0
M  V30 7698 C 720.778 -1.34071 -3.09074 0
M  V30 7699 O 721.308 -0.668856 -3.96092 0
M  V30 7700 N 719.514 -1.09214 -2.69296 0
M  V30 7701 H 719.061 -1.64029 -1.98626 0
M  V30 7702 H 719.019 -0.339785 -3.12559 0
M  V30 7703 N 722.791 0.367657 -1.53252 0
M  V30 7704 C 724.039 1.10832 -1.68999 0
M  V30 7705 C 724.36 1.89894 -0.443306 0
M  V30 7706 O 723.63 1.88235 0.54262 0
M  V30 7707 H 722.21 0.412153 -0.623008 0
M  V30 7708 H 724.872 0.414775 -1.90435 0
M  V30 7709 H 723.968 1.7993 -2.55013 0
M  V30 7710 N 724.269 1.44576 0.627338 0
M  V30 7711 C 725.216 1.51734 1.73912 0
M  V30 7712 C 726.186 0.364745 1.62046 0
M  V30 7713 O 727.371 0.575503 1.81914 0
M  V30 7714 C 724.511 1.47116 3.12171 0
M  V30 7715 C 723.624 2.72778 3.34986 0
M  V30 7716 C 722.759 2.59968 4.63239 0
M  V30 7717 C 721.798 3.80776 4.79245 0
M  V30 7718 N 720.935 3.66618 5.98778 0
M  V30 7719 H 725.775 2.46722 1.6713 0
M  V30 7720 H 723.312 1.22444 0.815224 0
M  V30 7721 H 725.27 1.42429 3.92135 0
M  V30 7722 H 723.9 0.556928 3.17959 0
M  V30 7723 H 722.952 2.87637 2.48936 0
M  V30 7724 H 724.264 3.62441 3.42692 0
M  V30 7725 H 723.418 2.53135 5.51369 0
M  V30 7726 H 722.157 1.67872 4.57898 0
M  V30 7727 H 721.162 3.87989 3.89544 0
M  V30 7728 H 722.387 4.73913 4.86398 0
M  V30 7729 H 720.333 2.77277 5.9452 0
M  V30 7730 H 720.25 4.499 6.07557 0
M  V30 7731 H 721.518 3.63684 6.89459 0
M  V30 7732 N 725.747 -0.868086 1.31537 0
M  V30 7733 C 727.158 -1.437 1.19195 0
M  V30 7734 C 727.509 -1.95169 -0.200842 0
M  V30 7735 O 726.634 -1.86432 -1.09872 0
M  V30 7736 C 727.229 -2.612 2.15778 0
M  V30 7737 C 725.788 -3.1413 2.07363 0
M  V30 7738 C 724.935 -1.86845 2.049 0
M  V30 7739 H 727.886 -0.676457 1.43561 0
M  V30 7740 H 727.907 -3.37948 1.74847 0
M  V30 7741 H 727.419 -2.23709 3.17137 0
M  V30 7742 H 725.52 -3.56238 1.09204 0
M  V30 7743 H 725.633 -3.76285 2.96557 0
M  V30 7744 H 723.997 -2.05886 1.49943 0
M  V30 7745 H 724.78 -1.51589 3.08019 0
M  V30 7746 N 727.225 -1.14528 -1.08264 0
M  V30 7747 C 728.45 -0.938381 -1.84957 0
M  V30 7748 C 728.875 0.508044 -1.81109 0
M  V30 7749 O 728.233 1.36146 -1.19724 0
M  V30 7750 C 728.281 -1.44568 -3.30352 0
M  V30 7751 O 727.385 -0.638745 -4.07423 0
M  V30 7752 H 726.726 -0.335394 -0.573068 0
M  V30 7753 H 729.256 -1.52287 -1.36637 0
M  V30 7754 H 729.266 -1.45449 -3.81194 0
M  V30 7755 H 727.941 -2.49876 -3.32468 0
M  V30 7756 H 726.518 -0.698801 -3.66294 0
M  V30 7757 N 728.703 1.26451 -0.940633 0
M  V30 7758 C 729.928 1.98407 -0.60412 0
M  V30 7759 C 730.353 1.69584 0.81382 0
M  V30 7760 O 729.711 0.943553 1.54812 0
M  V30 7761 C 729.759 3.50387 -0.852136 0
M  V30 7762 O 728.863 4.1233 0.076013 0
M  V30 7763 H 728.204 0.622466 -0.231153 0
M  V30 7764 H 730.734 1.60932 -1.26342 0
M  V30 7765 H 730.744 4.00614 -0.772816 0
M  V30 7766 H 729.419 3.70696 -1.88566 0
M  V30 7767 H 727.996 3.7286 -0.0543187 0
M  V30 7768 N 730.181 0.707592 1.40822 0
M  V30 7769 C 731.458 0.171172 1.9485 0
M  V30 7770 C 731.838 -1.32143 1.64625 0
M  V30 7771 O 731.186 -2.07372 0.959647 0
M  V30 7772 C 731.396 0.475334 3.45748 0
M  V30 7773 C 732.744 0.409625 4.22619 0
M  V30 7774 O 733.768 0.410934 3.53822 0
M  V30 7775 O 732.627 0.380185 5.45176 0
M  V30 7776 H 729.721 0.022015 0.826707 0
M  V30 7777 H 732.267 0.784577 1.50474 0
M  V30 7778 H 731.039 1.50801 3.61075 0
M  V30 7779 H 730.662 -0.168439 3.97243 0
M  V30 7780 N 731.66 -1.50943 0.453197 0
M  V30 7781 C 733.071 -1.86699 -0.00619892 0
M  V30 7782 C 733.422 -1.3693 -1.40515 0
M  V30 7783 O 732.547 -0.726715 -2.03833 0
M  V30 7784 C 733.142 -3.38795 -0.018025 0
M  V30 7785 C 731.701 -3.74028 -0.421885 0
M  V30 7786 C 730.848 -2.74752 0.375087 0
M  V30 7787 H 733.799 -1.43942 0.668317 0
M  V30 7788 H 733.82 -3.71468 -0.824125 0
M  V30 7789 H 733.332 -3.74988 1.00028 0
M  V30 7790 H 731.433 -3.43431 -1.44521 0
M  V30 7791 H 731.546 -4.78908 -0.135664 0
M  V30 7792 H 729.91 -2.5414 -0.168794 0
M  V30 7793 H 730.693 -3.13787 1.39256 0
M  V30 7794 N 733.138 -0.185124 -1.56509 0
M  V30 7795 C 734.387 0.456421 -1.96468 0
M  V30 7796 C 734.7 1.63448 -1.07444 0
M  V30 7797 O 735.906 2.34316 -1.37143 0
M  V30 7798 C 734.362 0.863404 -3.4939 0
M  V30 7799 C 733.97 -0.289815 -4.47062 0
M  V30 7800 C 735.714 1.47259 -3.98139 0
M  V30 7801 C 733.621 0.137571 -5.9124 0
M  V30 7802 H 732.551 0.17429 -0.733579 0
M  V30 7803 H 735.202 -0.275554 -1.81419 0
M  V30 7804 H 733.584 1.65176 -3.59907 0
M  V30 7805 H 734.758 -1.06728 -4.4827 0
M  V30 7806 H 733.073 -0.809851 -4.08449 0
M  V30 7807 H 735.67 1.80463 -5.03326 0
M  V30 7808 H 736.013 2.3755 -3.41871 0
M  V30 7809 H 736.546 0.748405 -3.90696 0
M  V30 7810 H 733.285 -0.730907 -6.51412 0
M  V30 7811 H 732.805 0.8801 -5.93308 0
M  V30 7812 H 734.484 0.576771 -6.44424 0
M  V30 7813 N 734.616 1.57351 0.0885366 0
M  V30 7814 C 735.862 1.86696 0.791996 0
M  V30 7815 C 736.195 0.775148 1.78059 0
M  V30 7816 O 735.47 -0.216247 1.93294 0
M  V30 7817 C 735.753 3.26684 1.51491 0
M  V30 7818 C 735.606 4.465 0.543858 0
M  V30 7819 C 736.925 3.64664 2.46391 0
M  V30 7820 H 734.044 0.679049 0.286463 0
M  V30 7821 H 736.686 1.89919 0.0554866 0
M  V30 7822 H 734.836 3.24067 2.14273 0
M  V30 7823 H 736.508 4.61235 -0.0774597 0
M  V30 7824 H 734.751 4.33567 -0.142228 0
M  V30 7825 H 735.422 5.41192 1.08696 0
M  V30 7826 H 737.898 3.68267 1.93698 0
M  V30 7827 H 736.774 4.63534 2.93986 0
M  V30 7828 H 737.035 2.93698 3.30445 0
M  V30 7829 N 736.094 -0.359525 1.53444 0
M  V30 7830 C 737.342 -1.09935 1.69584 0
M  V30 7831 C 737.663 -1.89656 0.453371 0
M  V30 7832 O 736.933 -1.8852 -0.53263 0
M  V30 7833 H 735.513 -0.408843 0.625185 0
M  V30 7834 H 738.175 -0.40467 1.90653 0
M  V30 7835 H 737.271 -1.78575 2.55964 0
M  V30 7836 N 737.572 -1.44907 -0.619662 0
M  V30 7837 C 738.818 -1.49504 -1.37914 0
M  V30 7838 C 739.173 -0.130158 -1.91959 0
M  V30 7839 O 738.466 0.856263 -1.71402 0
M  V30 7840 C 738.66 -2.50002 -2.55409 0
M  V30 7841 C 738.489 -3.96128 -2.12867 0
M  V30 7842 C 737.259 -4.64204 -1.99606 0
M  V30 7843 C 739.457 -4.85014 -1.71074 0
M  V30 7844 N 737.439 -5.95104 -1.50748 0
M  V30 7845 C 738.81 -6.05447 -1.33544 0
M  V30 7846 C 740.865 -4.71979 -1.58557 0
M  V30 7847 C 739.568 -7.1429 -0.847484 0
M  V30 7848 C 741.594 -5.80858 -1.11165 0
M  V30 7849 C 740.956 -7.00439 -0.745932 0
M  V30 7850 H 737.055 -0.60207 -0.499034 0
M  V30 7851 H 739.639 -1.81305 -0.70968 0
M  V30 7852 H 737.81 -2.20172 -3.19967 0
M  V30 7853 H 739.542 -2.44823 -3.22248 0
M  V30 7854 H 736.297 -4.19182 -2.20417 0
M  V30 7855 H 736.721 -6.64676 -1.28585 0
M  V30 7856 H 741.363 -3.79953 -1.85461 0
M  V30 7857 H 739.081 -8.06116 -0.565974 0
M  V30 7858 H 742.667 -5.72803 -1.01923 0
M  V30 7859 H 741.547 -7.83255 -0.384848 0
M  V30 7860 N 739.05 0.861098 -1.31996 0
M  V30 7861 C 740.298 1.61162 -1.21947 0
M  V30 7862 C 740.619 1.93751 0.220351 0
M  V30 7863 O 739.889 1.59069 1.14341 0
M  V30 7864 H 738.469 0.597485 -0.448353 0
M  V30 7865 H 741.131 1.03039 -1.65436 0
M  V30 7866 H 740.227 2.55138 -1.79752 0
M  V30 7867 N 740.528 1.15101 1.07655 0
M  V30 7868 C 741.939 0.933848 1.61667 0
M  V30 7869 C 742.29 -0.525569 1.8903 0
M  V30 7870 O 741.415 -1.39605 1.65346 0
M  V30 7871 C 742.01 1.68876 2.93711 0
M  V30 7872 C 740.569 1.51697 3.44478 0
M  V30 7873 C 739.716 1.70633 2.18586 0
M  V30 7874 H 742.667 1.30171 0.907816 0
M  V30 7875 H 742.688 1.15645 3.625 0
M  V30 7876 H 742.2 2.7509 2.73764 0
M  V30 7877 H 740.301 0.478635 3.69513 0
M  V30 7878 H 740.414 2.29194 4.20722 0
M  V30 7879 H 738.778 1.13259 2.28132 0
M  V30 7880 H 739.561 2.78206 2.01137 0
M  V30 7881 N 742.006 -1.2595 0.947325 0
M  V30 7882 C 743.231 -1.98083 0.614633 0
M  V30 7883 C 743.656 -1.70013 -0.804815 0
M  V30 7884 O 743.014 -0.95175 -1.54309 0
M  V30 7885 C 743.062 -3.4993 0.870706 0
M  V30 7886 O 742.166 -4.12364 -0.0541451 0
M  V30 7887 H 741.507 -0.621232 0.234451 0
M  V30 7888 H 744.037 -1.60259 1.27193 0
M  V30 7889 H 744.047 -4.00198 0.794051 0
M  V30 7890 H 742.722 -3.69691 1.90529 0
M  V30 7891 H 741.299 -3.72826 0.0740917 0
M  V30 7892 N 743.484 -0.715051 -1.40445 0
M  V30 7893 C 744.732 -0.253826 -2.005 0
M  V30 7894 C 745.053 1.15681 -1.5698 0
M  V30 7895 O 744.323 1.78414 -0.809027 0
M  V30 7896 H 742.903 -0.0908537 -0.741454 0
M  V30 7897 H 745.565 -0.920561 -1.7179 0
M  V30 7898 H 744.661 -0.286499 -3.10782 0
M  V30 7899 N 744.962 1.50701 -0.461195 0
M  V30 7900 C 746.21 2.01867 0.0970051 0
M  V30 7901 C 746.531 1.34591 1.41104 0
M  V30 7902 O 745.801 0.488041 1.89723 0
M  V30 7903 H 744.381 0.74599 0.0388392 0
M  V30 7904 H 747.043 1.85129 -0.609357 0
M  V30 7905 H 746.139 3.11051 0.255688 0
M  V30 7906 N 746.441 0.193421 1.56409 0
M  V30 7907 C 747.671 -0.450783 2.01622 0
M  V30 7908 C 748.079 -1.5585 1.07273 0
M  V30 7909 O 747.422 -1.83569 0.0694875 0
M  V30 7910 C 747.484 -1.06913 3.43235 0
M  V30 7911 C 747.148 -0.100352 4.5689 0
M  V30 7912 C 748.145 0.689633 5.15306 0
M  V30 7913 C 745.83 0.0102436 5.02299 0
M  V30 7914 C 747.824 1.5772 6.17579 0
M  V30 7915 C 745.511 0.901368 6.04416 0
M  V30 7916 C 746.509 1.68341 6.61929 0
M  V30 7917 O 746.197 2.5596 7.62063 0
M  V30 7918 H 745.929 -0.117671 0.66568 0
M  V30 7919 H 748.483 0.2989 2.03214 0
M  V30 7920 H 746.713 -1.86736 3.38624 0
M  V30 7921 H 748.402 -1.61781 3.72266 0
M  V30 7922 H 749.168 0.614485 4.81092 0
M  V30 7923 H 745.047 -0.58829 4.57231 0
M  V30 7924 H 748.591 2.18805 6.62397 0
M  V30 7925 H 744.488 0.977637 6.38054 0
M  V30 7926 H 745.256 2.49721 7.79475 0
M  V30 7927 N 747.919 -1.57396 -0.0801906 0
M  V30 7928 C 749.165 -1.87113 -0.782083 0
M  V30 7929 C 749.498 -0.78458 -1.77646 0
M  V30 7930 O 748.773 0.205993 -1.93406 0
M  V30 7931 C 749.056 -3.27483 -1.49756 0
M  V30 7932 C 748.909 -4.46782 -0.520171 0
M  V30 7933 C 750.228 -3.65965 -2.44454 0
M  V30 7934 H 747.347 -0.680559 -0.282858 0
M  V30 7935 H 749.989 -1.89946 -0.0454139 0
M  V30 7936 H 748.139 -3.25199 -2.12551 0
M  V30 7937 H 749.811 -4.61187 0.101919 0
M  V30 7938 H 748.054 -4.33485 0.165219 0
M  V30 7939 H 748.725 -5.41761 -1.05824 0
M  V30 7940 H 751.201 -3.69289 -1.91742 0
M  V30 7941 H 750.077 -4.65086 -2.91524 0
M  V30 7942 H 750.338 -2.95446 -3.28883 0
M  V30 7943 N 749.397 0.351382 -1.53633 0
M  V30 7944 C 750.644 1.0925 -1.70502 0
M  V30 7945 C 750.972 1.88881 -0.464123 0
M  V30 7946 O 750.227 1.87693 0.554077 0
M  V30 7947 C 750.526 2.06744 -2.91533 0
M  V30 7948 C 750.192 1.43484 -4.27461 0
M  V30 7949 C 748.854 1.2596 -4.64422 0
M  V30 7950 C 751.206 0.978436 -5.11934 0
M  V30 7951 C 748.534 0.614017 -5.83478 0
M  V30 7952 C 750.886 0.346795 -6.31649 0
M  V30 7953 C 749.55 0.15917 -6.6731 0
M  V30 7954 H 748.82 0.399773 -0.623909 0
M  V30 7955 H 751.467 0.372656 -1.87839 0
M  V30 7956 H 749.772 2.85082 -2.68767 0
M  V30 7957 H 751.469 2.64066 -3.01778 0
M  V30 7958 H 748.059 1.5812 -3.98367 0
M  V30 7959 H 752.243 1.1017 -4.83918 0
M  V30 7960 H 747.499 0.457194 -6.09688 0
M  V30 7961 H 751.673 -0.0149864 -6.96398 0
M  V30 7962 H 749.3 -0.343129 -7.59425 0
M  V30 7963 N 750.875 1.45233 0.611969 0
M  V30 7964 C 751.807 1.49575 1.73666 0
M  V30 7965 C 752.82 0.386987 1.58134 0
M  V30 7966 O 754.009 0.653804 1.66095 0
M  V30 7967 C 751.109 1.33223 3.11617 0
M  V30 7968 C 750.282 2.57694 3.5343 0
M  V30 7969 C 749.341 2.35962 4.70328 0
M  V30 7970 O 748.367 3.09553 4.77667 0
M  V30 7971 N 749.569 1.40243 5.63305 0
M  V30 7972 H 752.334 2.46539 1.70407 0
M  V30 7973 H 749.895 1.40917 0.79712 0
M  V30 7974 H 751.887 1.16502 3.87569 0
M  V30 7975 H 750.457 0.44551 3.09409 0
M  V30 7976 H 749.677 2.8956 2.67486 0
M  V30 7977 H 750.965 3.40441 3.78124 0
M  V30 7978 H 750.363 0.795023 5.60086 0
M  V30 7979 H 748.92 1.29496 6.38807 0
M  V30 7980 N 752.353 -0.854086 1.3245 0
M  V30 7981 C 753.3 -1.96271 1.21434 0
M  V30 7982 C 754.27 -1.6582 0.0963851 0
M  V30 7983 O 755.455 -1.88851 0.27203 0
M  V30 7984 C 752.595 -3.31939 0.943952 0
M  V30 7985 C 751.708 -3.74885 2.14675 0
M  V30 7986 C 750.843 -4.99347 1.81179 0
M  V30 7987 C 749.882 -5.34785 2.97777 0
M  V30 7988 N 749.019 -6.50425 2.6437 0
M  V30 7989 H 753.859 -2.05025 2.16261 0
M  V30 7990 H 751.396 -1.00348 1.07558 0
M  V30 7991 H 753.354 -4.10076 0.767675 0
M  V30 7992 H 751.984 -3.22784 0.0324763 0
M  V30 7993 H 751.036 -2.92396 2.43328 0
M  V30 7994 H 752.348 -3.97068 3.01891 0
M  V30 7995 H 751.502 -5.85193 1.60107 0
M  V30 7996 H 750.241 -4.79101 0.911777 0
M  V30 7997 H 749.246 -4.47451 3.1948 0
M  V30 7998 H 750.471 -5.56988 3.88511 0
M  V30 7999 H 748.417 -6.31695 1.7691 0
M  V30 8000 H 748.334 -6.7263 3.45116 0
M  V30 8001 H 749.602 -7.39422 2.46729 0
M  V30 8002 N 753.831 -1.1567 -1.07043 0
M  V30 8003 C 754.794 -0.858906 -2.12498 0
M  V30 8004 C 755.794 0.142735 -1.60165 0
M  V30 8005 O 756.984 -0.0872678 -1.73981 0
M  V30 8006 C 754.116 -0.283021 -3.39723 0
M  V30 8007 H 755.309 -1.79368 -2.40348 0
M  V30 8008 H 752.862 -0.964608 -1.22984 0
M  V30 8009 H 753.597 0.659796 -3.17517 0
M  V30 8010 H 753.382 -1.00467 -3.7901 0
M  V30 8011 H 754.872 -0.0923543 -4.17498 0
M  V30 8012 N 755.309 1.25446 -0.953992 0
M  V30 8013 C 756.539 1.96929 -0.624688 0
M  V30 8014 C 756.947 1.71112 0.807292 0
M  V30 8015 O 756.29 0.983512 1.55154 0
M  V30 8016 C 756.352 3.50425 -0.802676 0
M  V30 8017 C 756.016 3.99916 -2.21169 0
M  V30 8018 C 757.013 4.10662 -3.18831 0
M  V30 8019 C 754.698 4.33598 -2.53571 0
M  V30 8020 C 756.692 4.54401 -4.46988 0
M  V30 8021 C 754.379 4.77024 -3.81958 0
M  V30 8022 C 755.377 4.87388 -4.78478 0
M  V30 8023 O 755.065 5.29851 -6.04577 0
M  V30 8024 H 754.797 0.634511 -0.233179 0
M  V30 8025 H 757.351 1.60591 -1.28061 0
M  V30 8026 H 755.581 3.86596 -0.0896044 0
M  V30 8027 H 757.27 4.03117 -0.47452 0
M  V30 8028 H 758.036 3.84872 -2.95124 0
M  V30 8029 H 753.915 4.24757 -1.79171 0
M  V30 8030 H 757.459 4.62406 -5.22328 0
M  V30 8031 H 753.356 5.02258 -4.05471 0
M  V30 8032 H 754.124 5.48039 -6.07944 0
M  V30 8033 N 756.787 0.722489 1.40064 0
M  V30 8034 C 757.717 0.0892452 2.33329 0
M  V30 8035 C 758.698 -0.737992 1.53257 0
M  V30 8036 O 759.883 -0.685516 1.81698 0
M  V30 8037 C 757.013 -0.828139 3.37282 0
M  V30 8038 C 755.967 -0.106005 4.27869 0
M  V30 8039 C 755.293 -1.13957 5.22415 0
M  V30 8040 C 756.593 1.04395 5.11761 0
M  V30 8041 H 758.287 0.868269 2.86534 0
M  V30 8042 H 755.833 0.418982 1.3777 0
M  V30 8043 H 757.786 -1.28058 4.01471 0
M  V30 8044 H 756.51 -1.63914 2.82489 0
M  V30 8045 H 755.169 0.326683 3.65142 0
M  V30 8046 H 754.817 -1.9438 4.63924 0
M  V30 8047 H 754.517 -0.661233 5.83868 0
M  V30 8048 H 756.041 -1.59197 5.89482 0
M  V30 8049 H 757.455 0.670541 5.69365 0
M  V30 8050 H 755.852 1.4511 5.82291 0
M  V30 8051 H 756.922 1.87144 4.47331 0
M  V30 8052 N 758.265 -1.50454 0.469181 0
M  V30 8053 C 759.175 -2.32248 -0.331349 0
M  V30 8054 C 760.191 -1.42548 -0.997807 0
M  V30 8055 O 761.367 -1.75602 -0.9862 0
M  V30 8056 C 758.432 -3.17171 -1.40012 0
M  V30 8057 C 757.493 -4.2269 -0.750463 0
M  V30 8058 C 756.726 -5.03554 -1.76831 0
M  V30 8059 O 756.949 -4.85469 -2.99459 0
M  V30 8060 O 755.883 -5.86767 -1.3412 0
M  V30 8061 H 759.709 -3.01821 0.337279 0
M  V30 8062 H 757.294 -1.47602 0.231066 0
M  V30 8063 H 759.176 -3.69871 -2.01924 0
M  V30 8064 H 757.851 -2.50328 -2.05226 0
M  V30 8065 H 756.758 -3.73986 -0.0924446 0
M  V30 8066 H 758.091 -4.91997 -0.14131 0
M  V30 8067 N 759.743 -0.201713 -1.56304 0
M  V30 8068 C 760.99 0.435307 -1.97766 0
M  V30 8069 C 761.318 1.61169 -1.0888 0
M  V30 8070 O 760.573 1.95272 -0.12934 0
M  V30 8071 C 760.872 0.931432 -3.45049 0
M  V30 8072 C 760.538 -0.132287 -4.50706 0
M  V30 8073 C 759.2 -0.424552 -4.79323 0
M  V30 8074 C 761.552 -0.852703 -5.14177 0
M  V30 8075 C 758.88 -1.4421 -5.68701 0
M  V30 8076 C 761.232 -1.85944 -6.04655 0
M  V30 8077 C 759.896 -2.15884 -6.31625 0
M  V30 8078 H 759.166 0.15929 -0.723676 0
M  V30 8079 H 761.813 -0.300069 -1.89134 0
M  V30 8080 H 760.118 1.7452 -3.50785 0
M  V30 8081 H 761.815 1.43383 -3.74489 0
M  V30 8082 H 758.405 0.105671 -4.2847 0
M  V30 8083 H 762.589 -0.640139 -4.92154 0
M  V30 8084 H 757.845 -1.6799 -5.87869 0
M  V30 8085 H 762.019 -2.42286 -6.52894 0
M  V30 8086 H 759.646 -2.94875 -7.0068 0
M  V30 8087 N 761.222 1.57436 0.0718424 0
M  V30 8088 C 762.469 1.87248 0.771007 0
M  V30 8089 C 762.797 0.793441 1.7758 0
M  V30 8090 O 762.052 -0.210565 1.94564 0
M  V30 8091 C 762.351 3.23723 1.51455 0
M  V30 8092 C 762.017 4.46194 0.649736 0
M  V30 8093 C 760.679 4.79438 0.411409 0
M  V30 8094 C 763.031 5.21176 0.05004 0
M  V30 8095 C 760.359 5.85077 -0.436096 0
M  V30 8096 C 762.711 6.27712 -0.784919 0
M  V30 8097 C 761.375 6.59457 -1.03312 0
M  V30 8098 H 760.645 0.685188 0.282132 0
M  V30 8099 H 763.292 1.91474 0.0317896 0
M  V30 8100 H 761.597 3.15287 2.32597 0
M  V30 8101 H 763.294 3.44023 2.06031 0
M  V30 8102 H 759.884 4.20175 0.84562 0
M  V30 8103 H 764.068 4.95806 0.221282 0
M  V30 8104 H 759.324 6.08071 -0.637136 0
M  V30 8105 H 763.498 6.84974 -1.25635 0
M  V30 8106 H 761.125 7.4114 -1.6916 0
M  V30 8107 N 762.7 -0.34323 1.53817 0
M  V30 8108 C 763.928 -1.10348 1.75017 0
M  V30 8109 C 764.343 -1.82345 0.489475 0
M  V30 8110 O 763.7 -1.74362 -0.538886 0
M  V30 8111 C 763.751 -2.11672 2.93048 0
M  V30 8112 O 763.472 -1.42603 4.14241 0
M  V30 8113 C 764.973 -3.0007 3.26301 0
M  V30 8114 H 762.193 -0.329056 0.584776 0
M  V30 8115 H 764.737 -0.395339 2.00642 0
M  V30 8116 H 762.892 -2.78051 2.69753 0
M  V30 8117 H 763.306 -2.10294 4.80496 0
M  V30 8118 H 764.78 -3.67101 4.12239 0
M  V30 8119 H 765.257 -3.66105 2.42618 0
M  V30 8120 H 765.863 -2.3928 3.51604 0
M  V30 8121 N 764.178 -1.45556 -0.604258 0
M  V30 8122 C 765.403 -1.53509 -1.39462 0
M  V30 8123 C 765.828 -0.169638 -1.87333 0
M  V30 8124 O 765.186 0.846346 -1.60333 0
M  V30 8125 C 765.234 -2.52654 -2.5729 0
M  V30 8126 O 764.338 -2.04666 -3.5803 0
M  V30 8127 H 763.679 -0.517355 -0.416221 0
M  V30 8128 H 766.209 -1.90939 -0.735072 0
M  V30 8129 H 766.219 -2.71568 -3.04491 0
M  V30 8130 H 764.894 -3.51823 -2.21797 0
M  V30 8131 H 763.471 -1.95643 -3.17456 0
M  V30 8132 N 765.656 0.84705 -1.32902 0
M  V30 8133 C 767.072 1.13645 -1.12058 0
M  V30 8134 C 767.272 2.01281 0.093937 0
M  V30 8135 O 766.328 2.4026 0.776608 0
M  V30 8136 C 767.641 1.80644 -2.40392 0
M  V30 8137 C 769.189 1.93246 -2.46221 0
M  V30 8138 C 769.664 2.6366 -3.74496 0
M  V30 8139 N 771.155 2.71179 -3.75521 0
M  V30 8140 C 771.89 3.26332 -4.71482 0
M  V30 8141 N 771.386 3.82236 -5.77813 0
M  V30 8142 N 773.179 3.24507 -4.58968 0
M  V30 8143 H 765.33 0.263612 -2.10758 0
M  V30 8144 H 767.593 0.17944 -0.930863 0
M  V30 8145 H 767.299 1.23708 -3.29225 0
M  V30 8146 H 767.173 2.80736 -2.51926 0
M  V30 8147 H 769.56 2.49338 -1.57843 0
M  V30 8148 H 769.641 0.921272 -2.38634 0
M  V30 8149 H 769.285 2.08229 -4.63253 0
M  V30 8150 H 769.215 3.65234 -3.79357 0
M  V30 8151 H 771.706 2.31527 -2.9867 0
M  V30 8152 H 772.019 4.22499 -6.47082 0
M  V30 8153 H 770.364 3.80546 -5.81558 0
M  V30 8154 H 773.555 2.80085 -3.7506 0
M  V30 8155 H 773.728 3.67188 -5.33926 0
M  V30 8156 N 767.134 1.16236 1.06428 0
M  V30 8157 C 768.044 0.881976 2.1739 0
M  V30 8158 C 769.06 -0.145259 1.73393 0
M  V30 8159 O 770.236 0.0310558 2.01376 0
M  V30 8160 C 767.301 0.385496 3.4455 0
M  V30 8161 C 766.362 1.47779 4.03063 0
M  V30 8162 C 765.595 1.0049 5.24154 0
M  V30 8163 O 765.818 -0.145889 5.70213 0
M  V30 8164 O 764.752 1.79265 5.74585 0
M  V30 8165 H 768.578 1.80983 2.43883 0
M  V30 8166 H 766.163 0.942226 1.15942 0
M  V30 8167 H 768.045 0.115536 4.21242 0
M  V30 8168 H 766.72 -0.514369 3.19587 0
M  V30 8169 H 765.627 1.80147 3.27869 0
M  V30 8170 H 766.96 2.35291 4.32318 0
M  V30 8171 N 768.612 -1.24939 0.960631 0
M  V30 8172 C 769.84 -1.96881 0.636045 0
M  V30 8173 C 770.255 -1.71334 -0.793093 0
M  V30 8174 O 769.612 -0.992917 -1.53125 0
M  V30 8175 C 769.663 -3.50309 0.892533 0
M  V30 8176 O 769.384 -3.74977 2.26548 0
M  V30 8177 C 770.885 -4.39474 0.581159 0
M  V30 8178 H 768.105 -0.627399 0.237931 0
M  V30 8179 H 770.649 -1.58952 1.28664 0
M  V30 8180 H 768.804 -3.86326 0.288257 0
M  V30 8181 H 769.218 -4.69401 2.34014 0
M  V30 8182 H 770.692 -5.46008 0.811125 0
M  V30 8183 H 771.169 -4.3652 -0.48443 0
M  V30 8184 H 771.775 -4.09032 1.16502 0
M  V30 8185 N 770.09 -0.729906 -1.39679 0
M  V30 8186 C 771.053 -0.0951668 -2.29002 0
M  V30 8187 C 772.053 0.672471 -1.46063 0
M  V30 8188 O 773.243 0.502245 -1.66803 0
M  V30 8189 C 770.375 0.874631 -3.29489 0
M  V30 8190 H 771.568 -0.882062 -2.86635 0
M  V30 8191 H 769.121 -0.495424 -1.4824 0
M  V30 8192 H 769.856 1.68807 -2.76902 0
M  V30 8193 H 769.641 0.326893 -3.90735 0
M  V30 8194 H 771.131 1.31548 -3.96339 0
M  V30 8195 N 771.568 1.50203 -0.477153 0
M  V30 8196 C 772.478 2.32421 0.319027 0
M  V30 8197 C 773.494 1.43075 0.990233 0
M  V30 8198 O 774.67 1.76123 0.976873 0
M  V30 8199 C 771.735 3.17909 1.38328 0
M  V30 8200 C 770.796 4.23082 0.728036 0
M  V30 8201 C 770.029 5.04484 1.74158 0
M  V30 8202 O 770.252 4.8705 2.96881 0
M  V30 8203 O 769.186 5.8747 1.31006 0
M  V30 8204 H 773.012 3.01638 -0.353281 0
M  V30 8205 H 770.597 1.47478 -0.238891 0
M  V30 8206 H 772.479 3.70937 1.9996 0
M  V30 8207 H 771.154 2.51413 2.03895 0
M  V30 8208 H 770.061 3.7403 0.07261 0
M  V30 8209 H 771.394 4.92065 0.115216 0
M  V30 8210 N 773.046 0.209999 1.56195 0
M  V30 8211 C 774.009 -0.691232 2.18528 0
M  V30 8212 C 775.009 -1.13013 1.14388 0
M  V30 8213 O 776.199 -1.04081 1.39688 0
M  V30 8214 C 773.331 -1.94551 2.79934 0
M  V30 8215 H 774.524 -0.147953 2.99535 0
M  V30 8216 H 772.077 -0.0396243 1.5625 0
M  V30 8217 H 772.812 -2.53094 2.02766 0
M  V30 8218 H 772.597 -1.63938 3.56184 0
M  V30 8219 H 774.087 -2.58785 3.2775 0
M  V30 8220 N 774.524 -1.57472 -0.0634922 0
M  V30 8221 C 775.454 -2.07297 -1.07473 0
M  V30 8222 C 776.435 -0.968162 -1.39859 0
M  V30 8223 O 777.62 -1.24139 -1.49343 0
M  V30 8224 C 774.75 -2.52381 -2.38581 0
M  V30 8225 C 773.704 -3.66813 -2.20526 0
M  V30 8226 C 773.03 -3.97982 -3.57092 0
M  V30 8227 C 774.33 -4.96553 -1.61965 0
M  V30 8228 H 776.024 -2.92033 -0.660092 0
M  V30 8229 H 773.57 -1.40488 -0.316074 0
M  V30 8230 H 775.523 -2.85852 -3.09624 0
M  V30 8231 H 774.247 -1.64684 -2.8204 0
M  V30 8232 H 772.906 -3.33639 -1.51924 0
M  V30 8233 H 772.554 -3.07403 -3.98136 0
M  V30 8234 H 772.254 -4.7504 -3.45848 0
M  V30 8235 H 773.778 -4.33956 -4.29552 0
M  V30 8236 H 775.192 -5.28201 -2.22883 0
M  V30 8237 H 773.589 -5.7799 -1.61394 0
M  V30 8238 H 774.659 -4.81396 -0.581918 0
M  V30 8239 N 776.003 0.335068 -1.53997 0
M  V30 8240 C 776.933 1.41727 -1.85568 0
M  V30 8241 C 777.914 1.54505 -0.7115 0
M  V30 8242 O 779.099 1.68573 -0.964191 0
M  V30 8243 C 776.229 2.7866 -2.07282 0
M  V30 8244 C 775.183 2.80682 -3.23112 0
M  V30 8245 C 774.509 4.20581 -3.30175 0
M  V30 8246 C 775.809 2.45458 -4.61029 0
M  V30 8247 H 777.503 1.15555 -2.76202 0
M  V30 8248 H 775.049 0.554445 -1.32898 0
M  V30 8249 H 777.002 3.54423 -2.27952 0
M  V30 8250 H 775.726 3.06286 -1.13387 0
M  V30 8251 H 774.385 2.07373 -3.02311 0
M  V30 8252 H 774.033 4.4533 -2.33859 0
M  V30 8253 H 773.733 4.22843 -4.08016 0
M  V30 8254 H 775.257 4.98174 -3.53066 0
M  V30 8255 H 776.671 3.10934 -4.81656 0
M  V30 8256 H 775.068 2.5899 -5.41336 0
M  V30 8257 H 776.138 1.40628 -4.6406 0
M  V30 8258 N 777.481 1.45874 0.596531 0
M  V30 8259 C 778.413 1.51408 1.7207 0
M  V30 8260 C 779.426 0.403738 1.57714 0
M  V30 8261 O 780.615 0.671384 1.65393 0
M  V30 8262 C 777.715 1.3652 3.10186 0
M  V30 8263 C 776.888 2.61428 3.50677 0
M  V30 8264 C 775.947 2.40937 4.67799 0
M  V30 8265 O 774.973 3.14602 4.74357 0
M  V30 8266 N 776.175 1.4621 5.61785 0
M  V30 8267 H 778.94 2.48333 1.67782 0
M  V30 8268 H 776.501 1.41755 0.782129 0
M  V30 8269 H 778.493 1.20606 3.86311 0
M  V30 8270 H 777.063 0.478302 3.08919 0
M  V30 8271 H 776.283 2.92381 2.644 0
M  V30 8272 H 777.571 3.44432 3.74491 0
M  V30 8273 H 776.969 0.854382 5.59211 0
M  V30 8274 H 775.526 1.36264 6.37397 0
M  V30 8275 N 778.959 -0.83999 1.33349 0
M  V30 8276 C 780.205 -1.59753 1.24927 0
M  V30 8277 C 780.538 -1.93318 -0.184855 0
M  V30 8278 O 779.813 -1.586 -1.12589 0
M  V30 8279 C 780.096 -2.90829 2.12345 0
M  V30 8280 C 779.949 -2.63953 3.6421 0
M  V30 8281 C 781.268 -3.92246 1.99577 0
M  V30 8282 H 778.387 -0.579654 0.45516 0
M  V30 8283 H 781.029 -0.968909 1.63439 0
M  V30 8284 H 779.179 -3.44478 1.79631 0
M  V30 8285 H 780.851 -2.16745 4.07209 0
M  V30 8286 H 779.094 -1.97671 3.86146 0
M  V30 8287 H 779.765 -3.57348 4.20721 0
M  V30 8288 H 782.241 -3.479 2.28265 0
M  V30 8289 H 781.117 -4.81793 2.62996 0
M  V30 8290 H 781.378 -4.3138 0.967673 0
M  V30 8291 N 780.437 -1.16799 -1.0581 0
M  V30 8292 C 781.367 -0.902241 -2.15364 0
M  V30 8293 C 782.348 0.153351 -1.69407 0
M  V30 8294 O 783.533 0.00442032 -1.94199 0
M  V30 8295 C 780.663 -0.407911 -3.44896 0
M  V30 8296 C 779.617 -1.40197 -4.04387 0
M  V30 8297 C 778.943 -0.765848 -5.29187 0
M  V30 8298 C 780.243 -2.77316 -4.42598 0
M  V30 8299 H 781.937 -1.81841 -2.37853 0
M  V30 8300 H 779.483 -0.875731 -1.14311 0
M  V30 8301 H 781.436 -0.20945 -4.20879 0
M  V30 8302 H 780.16 0.54378 -3.22041 0
M  V30 8303 H 778.819 -1.58707 -3.30466 0
M  V30 8304 H 778.467 0.192482 -5.02632 0
M  V30 8305 H 778.167 -1.42939 -5.69949 0
M  V30 8306 H 779.691 -0.577519 -6.07863 0
M  V30 8307 H 781.105 -2.62561 -5.09642 0
M  V30 8308 H 779.502 -3.4019 -4.94359 0
M  V30 8309 H 780.572 -3.32199 -3.53231 0
M  V30 8310 N 781.915 1.24427 -0.967243 0
M  V30 8311 C 782.862 2.25398 -0.496419 0
M  V30 8312 C 783.832 1.59667 0.457781 0
M  V30 8313 O 785.017 1.87213 0.368246 0
M  V30 8314 C 782.157 3.44474 0.207693 0
M  V30 8315 C 781.27 4.24804 -0.785221 0
M  V30 8316 C 780.405 5.31169 -0.0572631 0
M  V30 8317 C 779.444 6.03195 -1.04027 0
M  V30 8318 N 778.581 7.01265 -0.34235 0
M  V30 8319 H 783.421 2.65039 -1.36229 0
M  V30 8320 H 780.958 1.30288 -0.682902 0
M  V30 8321 H 782.916 4.12376 0.632612 0
M  V30 8322 H 781.546 3.05672 1.03752 0
M  V30 8323 H 780.598 3.56445 -1.32858 0
M  V30 8324 H 781.91 4.74599 -1.53483 0
M  V30 8325 H 781.064 6.05205 0.425674 0
M  V30 8326 H 779.803 4.8228 0.725047 0
M  V30 8327 H 778.808 5.27964 -1.53409 0
M  V30 8328 H 780.033 6.54173 -1.82302 0
M  V30 8329 H 777.979 6.54648 0.420993 0
M  V30 8330 H 777.896 7.48939 -1.03084 0
M  V30 8331 H 779.164 7.7941 0.118634 0
M  V30 8332 N 783.393 0.737304 1.3929 0
M  V30 8333 C 784.34 0.0988364 2.30588 0
M  V30 8334 C 785.31 -0.727206 1.49335 0
M  V30 8335 O 786.495 -0.686694 1.78014 0
M  V30 8336 C 783.635 -0.800734 3.35682 0
M  V30 8337 C 782.748 0.0381731 4.31983 0
M  V30 8338 C 781.883 -0.862884 5.24145 0
M  V30 8339 C 780.922 -0.0193639 6.12097 0
M  V30 8340 N 780.059 -0.87648 6.96608 0
M  V30 8341 H 784.899 0.883031 2.84617 0
M  V30 8342 H 782.436 0.447111 1.4014 0
M  V30 8343 H 784.394 -1.33676 3.95205 0
M  V30 8344 H 783.024 -1.55088 2.83103 0
M  V30 8345 H 782.076 0.691641 3.74059 0
M  V30 8346 H 783.388 0.690294 4.94 0
M  V30 8347 H 782.542 -1.46667 5.88705 0
M  V30 8348 H 781.281 -1.54878 4.62454 0
M  V30 8349 H 780.286 0.597202 5.46547 0
M  V30 8350 H 781.511 0.663348 6.75852 0
M  V30 8351 H 779.457 -1.54762 6.37483 0
M  V30 8352 H 779.374 -0.280892 7.55478 0
M  V30 8353 H 780.642 -1.46575 7.65595 0
M  V30 8354 N 784.871 -1.49948 0.485112 0
M  V30 8355 C 786.101 -2.06506 -0.0621921 0
M  V30 8356 C 786.509 -1.34756 -1.32806 0
M  V30 8357 O 785.852 -0.41466 -1.78959 0
M  V30 8358 C 785.914 -3.57243 -0.402182 0
M  V30 8359 C 785.578 -4.50574 0.763671 0
M  V30 8360 C 786.575 -4.93032 1.6497 0
M  V30 8361 C 784.26 -4.9308 0.957973 0
M  V30 8362 C 786.254 -5.76718 2.71432 0
M  V30 8363 C 783.941 -5.76546 2.0258 0
M  V30 8364 C 784.939 -6.18267 2.90232 0
M  V30 8365 O 784.627 -7.00066 3.95174 0
M  V30 8366 H 784.359 -0.675925 0.0100672 0
M  V30 8367 H 786.913 -1.93922 0.677023 0
M  V30 8368 H 785.143 -3.6778 -1.19478 0
M  V30 8369 H 786.832 -3.96107 -0.886219 0
M  V30 8370 H 787.598 -4.60851 1.51134 0
M  V30 8371 H 783.477 -4.60117 0.285144 0
M  V30 8372 H 787.021 -6.09203 3.39878 0
M  V30 8373 H 782.918 -6.0814 2.16417 0
M  V30 8374 H 783.686 -7.18343 3.92333 0
M  V30 8375 N 786.349 -0.21828 -1.56081 0
M  V30 8376 C 787.259 0.704602 -2.23769 0
M  V30 8377 C 788.275 1.21633 -1.24425 0
M  V30 8378 O 789.451 1.25862 -1.57228 0
M  V30 8379 C 786.516 1.89725 -2.90182 0
M  V30 8380 C 785.577 1.42782 -4.0486 0
M  V30 8381 C 784.81 2.56361 -4.68097 0
M  V30 8382 O 785.033 3.74417 -4.30312 0
M  V30 8383 O 783.967 2.2775 -5.57148 0
M  V30 8384 H 787.793 0.158007 -3.03289 0
M  V30 8385 H 785.378 0.0120279 -1.49395 0
M  V30 8386 H 787.26 2.59382 -3.32113 0
M  V30 8387 H 785.935 2.432 -2.13624 0
M  V30 8388 H 784.842 0.699359 -3.67505 0
M  V30 8389 H 786.175 0.939474 -4.83151 0
M  V30 8390 N 787.827 1.57504 0.0551401 0
M  V30 8391 C 788.757 2.07864 1.06372 0
M  V30 8392 C 789.738 0.975565 1.39344 0
M  V30 8393 O 790.923 1.24929 1.48682 0
M  V30 8394 C 788.053 2.53643 2.3724 0
M  V30 8395 C 787.007 3.67978 2.18578 0
M  V30 8396 C 786.333 3.9987 3.54976 0
M  V30 8397 C 787.633 4.97405 1.59329 0
M  V30 8398 H 789.327 2.92379 0.644595 0
M  V30 8399 H 786.873 1.40654 0.308619 0
M  V30 8400 H 788.826 2.8749 3.08103 0
M  V30 8401 H 787.55 1.66177 2.81163 0
M  V30 8402 H 786.209 3.3444 1.50152 0
M  V30 8403 H 785.857 3.0951 3.965 0
M  V30 8404 H 785.557 4.76867 3.43324 0
M  V30 8405 H 787.081 4.36228 4.27244 0
M  V30 8406 H 788.495 5.29375 2.20078 0
M  V30 8407 H 786.892 5.78837 1.58327 0
M  V30 8408 H 787.962 4.81697 0.55638 0
M  V30 8409 N 789.305 -0.326896 1.54172 0
M  V30 8410 C 790.721 -0.671034 1.44808 0
M  V30 8411 C 790.921 -1.91781 0.618258 0
M  V30 8412 O 789.977 -2.52235 0.115751 0
M  V30 8413 C 791.29 -0.848147 2.88491 0
M  V30 8414 C 792.838 -0.945702 2.98371 0
M  V30 8415 C 793.313 -1.15501 4.43197 0
M  V30 8416 N 794.804 -1.22183 4.46795 0
M  V30 8417 C 795.539 -1.4016 5.56006 0
M  V30 8418 N 795.035 -1.55202 6.75192 0
M  V30 8419 N 796.828 -1.42841 5.43648 0
M  V30 8420 H 788.979 0.49262 2.06608 0
M  V30 8421 H 791.242 0.158574 0.934643 0
M  V30 8422 H 790.948 -0.00329969 3.517 0
M  V30 8423 H 790.822 -1.74497 3.34411 0
M  V30 8424 H 793.209 -1.78106 2.35292 0
M  V30 8425 H 793.29 -0.0254215 2.55787 0
M  V30 8426 H 792.934 -0.324521 5.06862 0
M  V30 8427 H 792.864 -2.08911 4.83388 0
M  V30 8428 H 795.355 -1.12016 3.60917 0
M  V30 8429 H 795.668 -1.68601 7.54184 0
M  V30 8430 H 794.013 -1.52306 6.78106 0
M  V30 8431 H 797.204 -1.30683 4.49488 0
M  V30 8432 H 797.377 -1.56509 6.28816 0
M  V30 8433 N 790.784 -1.46188 -0.588786 0
M  V30 8434 C 792.03 -1.51407 -1.34921 0
M  V30 8435 C 792.363 -0.162771 -1.93517 0
M  V30 8436 O 791.638 0.825082 -1.76132 0
M  V30 8437 C 791.921 -2.60795 -2.48311 0
M  V30 8438 C 791.774 -4.05435 -1.94789 0
M  V30 8439 C 793.093 -2.66313 -3.50379 0
M  V30 8440 H 790.212 -0.551213 -0.489217 0
M  V30 8441 H 792.854 -1.78095 -0.661993 0
M  V30 8442 H 791.004 -2.3817 -3.06932 0
M  V30 8443 H 792.676 -4.39328 -1.40672 0
M  V30 8444 H 790.919 -4.15202 -1.25659 0
M  V30 8445 H 791.59 -4.77691 -2.76613 0
M  V30 8446 H 794.066 -2.86634 -3.01629 0
M  V30 8447 H 792.942 -3.44681 -4.27184 0
M  V30 8448 H 793.203 -1.72127 -4.07216 0
M  V30 8449 N 792.262 0.832906 -1.33792 0
M  V30 8450 C 793.21 1.96455 -1.24532 0
M  V30 8451 C 794.204 1.68774 -0.145455 0
M  V30 8452 O 795.41 1.77314 -0.309797 0
M  V30 8453 H 791.785 0.645008 -0.386611 0
M  V30 8454 H 793.756 2.01389 -2.20193 0
M  V30 8455 C 792.505 3.32784 -1.00748 0
M  V30 8456 H 791.828 3.54626 -1.84609 0
M  V30 8457 H 793.268 4.12447 -0.98301 0
M  V30 8458 C 791.727 3.35654 0.289475 0
M  V30 8459 O 792.257 3.80281 1.29419 0
M  V30 8460 N 790.463 2.88843 0.3191 0
M  V30 8461 H 790.01 2.52719 -0.499069 0
M  V30 8462 H 789.968 2.91145 1.18667 0
M  V30 8463 N 793.74 1.17359 1.05189 0
M  V30 8464 C 794.97 0.985099 1.81602 0
M  V30 8465 C 795.378 -0.469872 1.83273 0
M  V30 8466 O 794.721 -1.33806 1.25864 0
M  V30 8467 C 794.783 1.44956 3.2898 0
M  V30 8468 C 794.447 2.92666 3.50993 0
M  V30 8469 C 795.444 3.906 3.43115 0
M  V30 8470 C 793.129 3.30841 3.77954 0
M  V30 8471 C 795.123 5.24709 3.61883 0
M  V30 8472 C 792.81 4.65116 3.96371 0
M  V30 8473 C 793.808 5.61859 3.88335 0
M  V30 8474 O 793.496 6.93704 4.06238 0
M  V30 8475 H 793.228 0.348731 0.579105 0
M  V30 8476 H 795.782 1.56066 1.33539 0
M  V30 8477 H 794.012 0.817559 3.77959 0
M  V30 8478 H 795.701 1.22674 3.86919 0
M  V30 8479 H 796.467 3.62453 3.22262 0
M  V30 8480 H 792.346 2.5611 3.83313 0
M  V30 8481 H 795.89 6.00205 3.55527 0
M  V30 8482 H 791.787 4.92969 4.16715 0
M  V30 8483 H 792.555 7.00443 4.23463 0
M  V30 8484 N 795.218 -1.23913 0.973828 0
M  V30 8485 C 796.168 -2.22892 0.479933 0
M  V30 8486 C 797.152 -1.54726 -0.441434 0
M  V30 8487 O 798.344 -1.74908 -0.271358 0
M  V30 8488 C 795.473 -3.42577 -0.222702 0
M  V30 8489 C 794.559 -4.17981 0.717851 0
M  V30 8490 N 794.95 -4.7045 1.8577 0
M  V30 8491 C 793.248 -4.42841 0.529858 0
M  V30 8492 C 793.949 -5.27751 2.44651 0
M  V30 8493 N 792.925 -5.15302 1.73104 0
M  V30 8494 H 796.727 -2.61083 1.34956 0
M  V30 8495 H 794.241 -1.39368 0.83368 0
M  V30 8496 H 796.238 -4.1265 -0.593793 0
M  V30 8497 H 794.898 -3.05904 -1.0887 0
M  V30 8498 H 795.909 -4.66997 2.23908 0
M  V30 8499 H 792.586 -4.1648 -0.291664 0
M  V30 8500 H 793.976 -5.79011 3.40875 0
M  V30 8501 N 796.696 -0.74468 -1.38897 0
M  V30 8502 C 797.626 -0.126355 -2.33158 0
M  V30 8503 C 798.607 0.713517 -1.54412 0
M  V30 8504 O 799.792 0.656523 -1.82766 0
M  V30 8505 C 796.922 0.774375 -3.38557 0
M  V30 8506 C 795.876 0.0379214 -4.27983 0
M  V30 8507 C 795.202 1.05631 -5.24162 0
M  V30 8508 C 796.502 -1.12523 -5.10035 0
M  V30 8509 H 798.196 -0.913744 -2.85116 0
M  V30 8510 H 795.742 -0.440847 -1.37086 0
M  V30 8511 H 797.695 1.21655 -4.03458 0
M  V30 8512 H 796.419 1.59399 -2.85061 0
M  V30 8513 H 795.078 -0.384733 -3.64576 0
M  V30 8514 H 794.726 1.86975 -4.66958 0
M  V30 8515 H 794.426 0.568261 -5.84846 0
M  V30 8516 H 795.95 1.49799 -5.9194 0
M  V30 8517 H 797.364 -0.761037 -5.68226 0
M  V30 8518 H 795.761 -1.54355 -5.79909 0
M  V30 8519 H 796.831 -1.94237 -4.44297 0
M  V30 8520 N 798.174 1.49689 -0.493057 0
M  V30 8521 C 799.42 2.02727 0.0543518 0
M  V30 8522 C 799.753 1.37264 1.37376 0
M  V30 8523 O 799.028 0.505644 1.87812 0
M  V30 8524 C 799.311 3.59456 0.215226 0
M  V30 8525 C 799.164 4.35459 -1.12675 0
M  V30 8526 C 800.483 4.29511 0.959586 0
M  V30 8527 H 797.602 0.736773 0.0182786 0
M  V30 8528 H 800.244 1.78792 -0.642924 0
M  V30 8529 H 798.394 3.79981 0.809122 0
M  V30 8530 H 800.066 4.2645 -1.75891 0
M  V30 8531 H 798.309 3.9833 -1.71801 0
M  V30 8532 H 798.98 5.43454 -0.967578 0
M  V30 8533 H 801.456 4.13594 0.455977 0
M  V30 8534 H 800.332 5.38939 1.04098 0
M  V30 8535 H 800.593 3.94202 2.00144 0
M  V30 8536 N 799.652 0.226554 1.55963 0
M  V30 8537 C 800.6 -0.697922 2.21882 0
M  V30 8538 C 801.594 -1.19586 1.19981 0
M  V30 8539 O 802.8 -1.15511 1.38048 0
M  V30 8540 H 799.175 -0.243501 0.711485 0
M  V30 8541 H 801.146 -0.118576 2.98164 0
M  V30 8542 C 799.895 -1.89309 2.91646 0
M  V30 8543 H 799.218 -1.51906 3.69817 0
M  V30 8544 H 800.658 -2.51762 3.41162 0
M  V30 8545 C 799.117 -2.75162 1.94391 0
M  V30 8546 O 799.647 -3.74071 1.46402 0
M  V30 8547 N 797.853 -2.41302 1.61932 0
M  V30 8548 H 797.4 -1.60923 2.01151 0
M  V30 8549 H 797.358 -2.99023 0.971219 0
M  V30 8550 N 801.13 -1.57531 -0.0467866 0
M  V30 8551 C 802.376 -1.8873 -0.742218 0
M  V30 8552 C 802.709 -0.822084 -1.75941 0
M  V30 8553 O 801.984 0.164922 -1.938 0
M  V30 8554 C 802.267 -3.30586 -1.42776 0
M  V30 8555 C 802.12 -4.47785 -0.425285 0
M  V30 8556 C 803.439 -3.71068 -2.36636 0
M  V30 8557 H 800.558 -0.686406 -0.268359 0
M  V30 8558 H 803.2 -1.89999 -0.00511341 0
M  V30 8559 H 801.35 -3.29634 -2.05605 0
M  V30 8560 H 803.022 -4.60867 0.199721 0
M  V30 8561 H 801.265 -4.33037 0.25713 0
M  V30 8562 H 801.936 -5.43884 -0.943086 0
M  V30 8563 H 804.412 -3.73273 -1.83866 0
M  V30 8564 H 803.288 -4.71165 -2.81593 0
M  V30 8565 H 803.549 -3.02355 -3.22542 0
M  V30 8566 N 802.608 0.318715 -1.54344 0
M  V30 8567 C 803.555 1.39242 -1.84066 0
M  V30 8568 C 804.525 1.51175 -0.688134 0
M  V30 8569 O 805.71 1.66318 -0.935039 0
M  V30 8570 C 802.85 2.75528 -2.07794 0
M  V30 8571 C 801.963 2.72187 -3.35467 0
M  V30 8572 C 801.098 4.00352 -3.4913 0
M  V30 8573 C 800.137 3.91338 -4.7066 0
M  V30 8574 N 799.274 5.11242 -4.81224 0
M  V30 8575 H 804.114 1.13196 -2.75664 0
M  V30 8576 H 801.651 0.547857 -1.36517 0
M  V30 8577 H 803.609 3.54763 -2.19543 0
M  V30 8578 H 802.239 2.99873 -1.19482 0
M  V30 8579 H 801.291 1.84917 -3.3243 0
M  V30 8580 H 802.603 2.61411 -4.24812 0
M  V30 8581 H 801.757 4.88019 -3.60448 0
M  V30 8582 H 800.496 4.1394 -2.57886 0
M  V30 8583 H 799.501 3.02055 -4.59394 0
M  V30 8584 H 800.726 3.7931 -5.63294 0
M  V30 8585 H 798.672 5.25327 -3.92897 0
M  V30 8586 H 798.589 5.0282 -5.64543 0
M  V30 8587 H 799.857 6.0061 -4.96879 0
M  V30 8588 N 804.086 1.46499 0.581025 0
M  V30 8589 C 805.334 1.51596 1.33653 0
M  V30 8590 C 805.655 0.169859 1.94259 0
M  V30 8591 O 804.925 -0.803776 1.78651 0
M  V30 8592 H 803.505 0.558346 0.496244 0
M  V30 8593 H 806.167 1.8264 0.680338 0
M  V30 8594 H 805.263 2.26956 2.14237 0
M  V30 8595 N 805.565 -0.825799 1.34232 0
M  V30 8596 C 806.475 -1.9684 1.27638 0
M  V30 8597 C 807.491 -1.73018 0.184569 0
M  V30 8598 O 808.667 -1.97172 0.410525 0
M  V30 8599 C 805.732 -3.31084 1.02879 0
M  V30 8600 C 804.793 -3.67933 2.21188 0
M  V30 8601 C 804.026 -4.95772 1.976 0
M  V30 8602 O 804.249 -5.62721 0.93281 0
M  V30 8603 O 803.183 -5.30431 2.84477 0
M  V30 8604 H 807.009 -2.05346 2.23756 0
M  V30 8605 H 804.594 -0.960772 1.1441 0
M  V30 8606 H 806.476 -4.11492 0.908406 0
M  V30 8607 H 805.151 -3.23552 0.0979821 0
M  V30 8608 H 804.058 -2.87981 2.38784 0
M  V30 8609 H 805.391 -3.80147 3.12648 0
M  V30 8610 N 807.043 -1.17915 -1.04565 0
M  V30 8611 C 807.991 -0.897919 -2.1457 0
M  V30 8612 C 808.985 0.139883 -1.68821 0
M  V30 8613 O 810.191 -0.00779463 -1.79998 0
M  V30 8614 H 806.566 -0.272867 -0.700748 0
M  V30 8615 H 808.537 -1.83268 -2.3549 0
M  V30 8616 C 807.286 -0.434634 -3.44973 0
M  V30 8617 H 806.609 -1.22469 -3.8058 0
M  V30 8618 H 808.049 -0.276804 -4.23095 0
M  V30 8619 C 806.508 0.848738 -3.26034 0
M  V30 8620 O 807.038 1.9141 -3.53164 0
M  V30 8621 N 805.244 0.799373 -2.79389 0
M  V30 8622 H 804.791 -0.0678192 -2.57511 0
M  V30 8623 H 804.749 1.6585 -2.67098 0
M  V30 8624 N 808.521 1.23394 -0.980386 0
M  V30 8625 C 809.77 1.91116 -0.644785 0
M  V30 8626 C 810.083 1.77333 0.825367 0
M  V30 8627 O 811.289 2.39858 1.27203 0
M  V30 8628 C 809.745 3.42592 -1.10266 0
M  V30 8629 C 809.353 3.65037 -2.59715 0
M  V30 8630 C 811.097 4.1609 -0.8408 0
M  V30 8631 C 809.004 5.10148 -2.9917 0
M  V30 8632 H 807.934 0.715632 -0.23746 0
M  V30 8633 H 810.585 1.39829 -1.18828 0
M  V30 8634 H 808.967 3.92989 -0.487372 0
M  V30 8635 H 810.141 3.25186 -3.26482 0
M  V30 8636 H 808.456 3.04849 -2.83647 0
M  V30 8637 H 811.053 5.23021 -1.11143 0
M  V30 8638 H 811.396 4.15702 0.223085 0
M  V30 8639 H 811.929 3.71681 -1.41767 0
M  V30 8640 H 808.668 5.15668 -4.04682 0
M  V30 8641 H 808.188 5.50949 -2.37097 0
M  V30 8642 H 809.867 5.7848 -2.89775 0
M  V30 8643 N 809.999 0.752036 1.385 0
M  V30 8644 C 811.227 0.318274 2.04437 0
M  V30 8645 C 811.642 -1.05285 1.56718 0
M  V30 8646 O 810.999 -1.66844 0.73956 0
M  V30 8647 C 811.05 0.330106 3.5999 0
M  V30 8648 O 810.771 1.64712 4.05957 0
M  V30 8649 C 812.272 -0.117713 4.43144 0
M  V30 8650 H 809.492 0.136228 0.657026 0
M  V30 8651 H 812.036 1.02045 1.7722 0
M  V30 8652 H 810.191 -0.323323 3.86048 0
M  V30 8653 H 810.605 1.57225 5.0038 0
M  V30 8654 H 812.079 -0.0582735 5.51969 0
M  V30 8655 H 812.556 -1.16538 4.23457 0
M  V30 8656 H 813.162 0.506784 4.2227 0
M  V30 8657 N 811.477 -1.49425 0.500989 0
M  V30 8658 C 812.425 -2.30771 -0.291149 0
M  V30 8659 C 813.419 -1.3938 -0.962787 0
M  V30 8660 O 814.625 -1.56431 -0.890477 0
M  V30 8661 H 811 -0.743499 -0.11275 0
M  V30 8662 H 812.971 -2.95501 0.414917 0
M  V30 8663 C 811.72 -3.20725 -1.34279 0
M  V30 8664 H 811.043 -3.90975 -0.83538 0
M  V30 8665 H 812.483 -3.80583 -1.86903 0
M  V30 8666 C 810.942 -2.40334 -2.36095 0
M  V30 8667 O 811.472 -2.10749 -3.41976 0
M  V30 8668 N 809.678 -2.02359 -2.08565 0
M  V30 8669 H 809.225 -2.26619 -1.22482 0
M  V30 8670 H 809.183 -1.48878 -2.76916 0
M  V30 8671 N 812.955 -0.234822 -1.55841 0
M  V30 8672 C 813.918 0.656378 -2.196 0
M  V30 8673 C 814.918 1.11179 -1.16171 0
M  V30 8674 O 816.108 1.01845 -1.41326 0
M  V30 8675 C 813.24 1.90072 -2.82993 0
M  V30 8676 H 814.433 0.100281 -2.99732 0
M  V30 8677 H 811.986 0.0147613 -1.56293 0
M  V30 8678 H 812.721 2.49836 -2.06767 0
M  V30 8679 H 812.506 1.5825 -3.58747 0
M  V30 8680 H 813.996 2.53538 -3.31826 0
M  V30 8681 N 814.433 1.57553 0.0384317 0
M  V30 8682 C 815.844 1.77258 0.586211 0
M  V30 8683 C 816.195 0.864706 1.76117 0
M  V30 8684 O 815.32 0.057141 2.16325 0
M  V30 8685 C 815.915 3.21453 1.07021 0
M  V30 8686 C 814.474 3.42387 1.56358 0
M  V30 8687 C 813.621 2.72801 0.497508 0
M  V30 8688 H 816.572 1.57585 -0.187796 0
M  V30 8689 H 816.593 3.27451 1.93794 0
M  V30 8690 H 816.105 3.87505 0.214851 0
M  V30 8691 H 814.206 2.81497 2.44111 0
M  V30 8692 H 814.319 4.50968 1.61754 0
M  V30 8693 H 812.683 2.36305 0.95038 0
M  V30 8694 H 813.466 3.41529 -0.348234 0
M  V30 8695 N 815.911 -0.310526 1.54511 0
M  V30 8696 C 816.821 -1.4054 1.87844 0
M  V30 8697 C 817.837 -1.55954 0.771635 0
M  V30 8698 O 819.013 -1.70801 1.06719 0
M  V30 8699 C 816.078 -2.75063 2.11048 0
M  V30 8700 C 815.139 -2.68715 3.348 0
M  V30 8701 C 814.372 -3.96821 3.56887 0
M  V30 8702 O 814.595 -4.95721 2.82165 0
M  V30 8703 O 813.529 -3.99291 4.50389 0
M  V30 8704 H 817.355 -1.15275 2.80972 0
M  V30 8705 H 814.94 -0.505732 1.4058 0
M  V30 8706 H 816.822 -3.54671 2.27566 0
M  V30 8707 H 815.497 -3.00191 1.21108 0
M  V30 8708 H 814.404 -1.87611 3.23655 0
M  V30 8709 H 815.737 -2.4854 4.2484 0
M  V30 8710 N 817.389 -1.46805 -0.573248 0
M  V30 8711 C 818.319 -1.60951 -1.69165 0
M  V30 8712 C 819.3 -0.45948 -1.63777 0
M  V30 8713 O 820.485 -0.68688 -1.81647 0
M  V30 8714 C 817.615 -1.60844 -3.07809 0
M  V30 8715 C 816.569 -2.74913 -3.28035 0
M  V30 8716 C 815.895 -2.59871 -4.67302 0
M  V30 8717 C 817.195 -4.16654 -3.14955 0
M  V30 8718 H 818.889 -2.54574 -1.57582 0
M  V30 8719 H 816.435 -1.22516 -0.756686 0
M  V30 8720 H 818.388 -1.69334 -3.85881 0
M  V30 8721 H 817.112 -0.637714 -3.20314 0
M  V30 8722 H 815.771 -2.65908 -2.52366 0
M  V30 8723 H 815.419 -1.60861 -4.76585 0
M  V30 8724 H 815.119 -3.36386 -4.81786 0
M  V30 8725 H 816.643 -2.70265 -5.4753 0
M  V30 8726 H 818.057 -4.26721 -3.82861 0
M  V30 8727 H 816.454 -4.93831 -3.40956 0
M  V30 8728 H 817.524 -4.36146 -2.11908 0
M  V30 8729 N 818.867 0.818669 -1.34668 0
M  V30 8730 C 819.799 1.93754 -1.22442 0
M  V30 8731 C 820.812 1.62103 -0.150501 0
M  V30 8732 O 822.001 1.73898 -0.402728 0
M  V30 8733 C 819.101 3.27806 -0.860031 0
M  V30 8734 C 818.274 3.8745 -2.02981 0
M  V30 8735 C 817.333 4.99887 -1.64314 0
M  V30 8736 O 816.359 5.17957 -2.36029 0
M  V30 8737 N 817.561 5.77795 -0.55976 0
M  V30 8738 H 820.326 2.04773 -2.18833 0
M  V30 8739 H 817.887 0.995472 -1.27679 0
M  V30 8740 H 819.879 4.00478 -0.583068 0
M  V30 8741 H 818.449 3.12597 0.0138253 0
M  V30 8742 H 817.669 3.07119 -2.47127 0
M  V30 8743 H 818.957 4.2403 -2.81204 0
M  V30 8744 H 818.355 5.65688 0.0363329 0
M  V30 8745 H 816.912 6.50899 -0.342541 0
M  V30 8746 N 820.346 1.18468 1.03938 0
M  V30 8747 C 821.757 0.984808 1.58614 0
M  V30 8748 C 822.108 -0.465165 1.90606 0
M  V30 8749 O 821.233 -1.34274 1.69704 0
M  V30 8750 C 821.828 1.78135 2.8819 0
M  V30 8751 C 820.387 1.62579 3.39478 0
M  V30 8752 C 819.534 1.77501 2.13046 0
M  V30 8753 H 822.485 1.32993 0.865944 0
M  V30 8754 H 822.506 1.27119 3.58638 0
M  V30 8755 H 822.018 2.83661 2.64874 0
M  V30 8756 H 820.119 0.59595 3.67803 0
M  V30 8757 H 820.232 2.42463 4.13217 0
M  V30 8758 H 818.596 1.2046 2.24414 0
M  V30 8759 H 819.379 2.84464 1.92185 0
M  V30 8760 N 821.824 -1.22873 0.986916 0
M  V30 8761 C 822.772 -2.26597 0.525043 0
M  V30 8762 C 823.766 -1.64079 -0.421252 0
M  V30 8763 O 824.972 -1.77576 -0.294429 0
M  V30 8764 H 821.347 -0.736606 0.151381 0
M  V30 8765 H 823.318 -2.62909 1.41142 0
M  V30 8766 C 822.067 -3.47374 -0.150542 0
M  V30 8767 H 821.39 -3.95737 0.568541 0
M  V30 8768 H 822.83 -4.21739 -0.437256 0
M  V30 8769 C 821.289 -3.07163 -1.38392 0
M  V30 8770 O 821.819 -3.16028 -2.47971 0
M  V30 8771 N 820.025 -2.62009 -1.25697 0
M  V30 8772 H 819.572 -2.54996 -0.365355 0
M  V30 8773 H 819.53 -2.35472 -2.08327 0
M  V30 8774 N 823.302 -0.75937 -1.38099 0
M  V30 8775 C 824.265 -0.14372 -2.28749 0
M  V30 8776 C 825.265 0.641338 -1.47457 0
M  V30 8777 O 826.455 0.466751 -1.67831 0
M  V30 8778 C 823.587 0.804545 -3.3127 0
M  V30 8779 H 824.78 -0.942663 -2.847 0
M  V30 8780 H 822.333 -0.526757 -1.47156 0
M  V30 8781 H 823.068 1.62895 -2.80421 0
M  V30 8782 H 822.853 0.243939 -3.9134 0
M  V30 8783 H 824.343 1.23111 -3.99041 0
M  V30 8784 N 824.78 1.49157 -0.508906 0
M  V30 8785 C 826.026 2.02773 0.0328469 0
M  V30 8786 C 826.359 1.38714 1.35912 0
M  V30 8787 O 825.634 0.525536 1.87266 0
M  V30 8788 C 825.917 3.59664 0.177088 0
M  V30 8789 C 825.77 4.34239 -1.17287 0
M  V30 8790 C 827.089 4.30505 0.913977 0
M  V30 8791 H 824.208 0.736926 0.0104631 0
M  V30 8792 H 826.85 1.781 -0.661851 0
M  V30 8793 H 825 3.80818 0.768774 0
M  V30 8794 H 826.672 4.24561 -1.80404 0
M  V30 8795 H 824.915 3.96486 -1.76016 0
M  V30 8796 H 825.586 5.42397 -1.02516 0
M  V30 8797 H 828.062 4.14054 0.412084 0
M  V30 8798 H 826.938 5.40012 0.983759 0
M  V30 8799 H 827.199 3.96302 1.95951 0
M  V30 8800 N 826.258 0.243083 1.55714 0
M  V30 8801 C 827.486 -0.386971 2.03249 0
M  V30 8802 C 827.901 -1.51812 1.12243 0
M  V30 8803 O 827.258 -1.81992 0.136119 0
M  V30 8804 C 827.309 -0.898361 3.5016 0
M  V30 8805 O 827.03 0.187708 4.37698 0
M  V30 8806 C 828.531 -1.59949 4.13438 0
M  V30 8807 H 825.751 -0.0923981 0.664608 0
M  V30 8808 H 828.295 0.365832 2.01201 0
M  V30 8809 H 826.45 -1.60136 3.52754 0
M  V30 8810 H 826.864 -0.200001 5.24119 0
M  V30 8811 H 828.338 -1.90907 5.17937 0
M  V30 8812 H 828.815 -2.52014 3.59702 0
M  V30 8813 H 829.421 -0.941163 4.14756 0
M  V30 8814 N 827.736 -1.57571 -0.0300757 0
M  V30 8815 C 828.982 -1.90355 -0.716687 0
M  V30 8816 C 829.337 -0.841568 -1.73018 0
M  V30 8817 O 828.63 0.149847 -1.91013 0
M  V30 8818 C 828.824 -3.27624 -1.42818 0
M  V30 8819 C 828.653 -4.47076 -0.485111 0
M  V30 8820 C 827.423 -5.05188 -0.106533 0
M  V30 8821 C 829.621 -5.13758 0.236059 0
M  V30 8822 N 827.603 -6.08155 0.837899 0
M  V30 8823 C 828.974 -6.1128 1.03619 0
M  V30 8824 C 831.029 -4.96977 0.30311 0
M  V30 8825 C 829.732 -6.93829 1.89721 0
M  V30 8826 C 831.758 -5.80086 1.15125 0
M  V30 8827 C 831.12 -6.77178 1.9393 0
M  V30 8828 H 827.219 -0.745417 -0.236384 0
M  V30 8829 H 829.803 -1.94686 0.0231985 0
M  V30 8830 H 827.974 -3.24224 -2.13854 0
M  V30 8831 H 829.706 -3.47927 -2.0671 0
M  V30 8832 H 826.461 -4.71277 -0.468498 0
M  V30 8833 H 826.885 -6.64311 1.30459 0
M  V30 8834 H 831.527 -4.21791 -0.291858 0
M  V30 8835 H 829.245 -7.6836 2.50298 0
M  V30 8836 H 832.831 -5.6915 1.20665 0
M  V30 8837 H 831.711 -7.4037 2.58499 0
M  V30 8838 N 829.214 0.302327 -1.54673 0
M  V30 8839 C 830.462 1.03565 -1.73547 0
M  V30 8840 C 830.783 1.87843 -0.523448 0
M  V30 8841 O 830.053 1.90367 0.462295 0
M  V30 8842 H 828.633 0.385358 -0.639928 0
M  V30 8843 H 831.295 0.333632 -1.92023 0
M  V30 8844 H 830.391 1.68952 -2.62415 0
M  V30 8845 N 830.692 1.47107 0.565454 0
M  V30 8846 C 831.941 1.5257 1.31929 0
M  V30 8847 C 832.254 0.189092 1.94684 0
M  V30 8848 O 833.46 0.121657 2.71227 0
M  V30 8849 C 831.916 2.68914 2.39193 0
M  V30 8850 C 831.524 4.09069 1.82665 0
M  V30 8851 C 833.268 2.83663 3.1581 0
M  V30 8852 C 831.175 5.16726 2.87661 0
M  V30 8853 H 830.105 0.567869 0.496025 0
M  V30 8854 H 832.756 1.73361 0.60151 0
M  V30 8855 H 831.138 2.41486 3.13848 0
M  V30 8856 H 832.312 4.46364 1.14438 0
M  V30 8857 H 830.627 3.99135 1.1866 0
M  V30 8858 H 833.224 3.61261 3.94201 0
M  V30 8859 H 833.567 1.91804 3.69482 0
M  V30 8860 H 834.1 3.10821 2.48265 0
M  V30 8861 H 830.839 6.10433 2.38854 0
M  V30 8862 H 830.359 4.83957 3.54324 0
M  V30 8863 H 832.038 5.43319 3.51303 0
M  V30 8864 N 832.17 -0.811516 1.35101 0
M  V30 8865 C 833.417 -1.56835 1.28098 0
M  V30 8866 C 833.745 -1.93951 -0.14597 0
M  V30 8867 O 833 -1.61173 -1.11004 0
M  V30 8868 C 833.299 -2.87121 2.1283 0
M  V30 8869 C 832.965 -2.69245 3.61688 0
M  V30 8870 C 831.627 -2.64078 4.02264 0
M  V30 8871 C 833.979 -2.52122 4.56162 0
M  V30 8872 C 831.307 -2.39724 5.3549 0
M  V30 8873 C 833.659 -2.29298 5.89581 0
M  V30 8874 C 832.323 -2.2255 6.29307 0
M  V30 8875 H 831.593 -0.5739 0.468742 0
M  V30 8876 H 834.24 -0.93806 1.66951 0
M  V30 8877 H 832.545 -3.54502 1.66841 0
M  V30 8878 H 834.242 -3.44788 2.0475 0
M  V30 8879 H 830.832 -2.74112 3.29485 0
M  V30 8880 H 835.016 -2.5513 4.25702 0
M  V30 8881 H 830.272 -2.32965 5.65276 0
M  V30 8882 H 834.446 -2.15038 6.62368 0
M  V30 8883 H 832.073 -2.0344 7.32473 0
M  V30 8884 N 833.648 -1.19017 -1.03309 0
M  V30 8885 C 835.059 -0.993206 -1.5809 0
M  V30 8886 C 835.41 0.45505 -1.9085 0
M  V30 8887 O 834.535 1.33372 -1.70414 0
M  V30 8888 C 835.13 -1.79661 -2.87241 0
M  V30 8889 C 833.689 -1.64377 -3.38611 0
M  V30 8890 C 832.836 -1.78628 -2.12102 0
M  V30 8891 H 835.787 -1.3345 -0.858879 0
M  V30 8892 H 835.808 -1.29019 -3.57958 0
M  V30 8893 H 835.32 -2.85061 -2.63366 0
M  V30 8894 H 833.421 -0.615447 -3.67482 0
M  V30 8895 H 833.534 -2.44651 -4.11926 0
M  V30 8896 H 831.898 -1.21648 -2.23772 0
M  V30 8897 H 832.681 -2.8548 -1.90673 0
M  V30 8898 N 835.127 1.22348 -0.993418 0
M  V30 8899 C 836.375 1.90733 -0.668246 0
M  V30 8900 C 836.696 1.77732 0.802261 0
M  V30 8901 O 835.966 1.16486 1.57505 0
M  V30 8902 H 834.546 0.705966 -0.244174 0
M  V30 8903 H 837.208 1.48691 -1.26004 0
M  V30 8904 H 836.304 2.97883 -0.931239 0
M  V30 8905 N 836.605 0.766683 1.37694 0
M  V30 8906 C 838.021 0.445739 1.53249 0
M  V30 8907 C 838.221 -1.03935 1.72626 0
M  V30 8908 O 837.277 -1.82525 1.74473 0
M  V30 8909 C 838.59 1.2564 2.73194 0
M  V30 8910 C 840.138 1.24779 2.87053 0
M  V30 8911 C 840.613 2.04169 4.09974 0
M  V30 8912 N 842.104 2.01497 4.17077 0
M  V30 8913 C 842.839 2.5971 5.11212 0
M  V30 8914 N 842.335 3.26691 6.10938 0
M  V30 8915 N 844.128 2.49568 5.03659 0
M  V30 8916 H 836.279 1.72899 1.23368 0
M  V30 8917 H 838.542 0.733701 0.600322 0
M  V30 8918 H 838.248 2.30859 2.65324 0
M  V30 8919 H 838.122 0.882133 3.6674 0
M  V30 8920 H 840.509 0.203603 2.94397 0
M  V30 8921 H 840.59 1.66166 1.9448 0
M  V30 8922 H 840.234 3.08606 4.03392 0
M  V30 8923 H 840.164 1.60167 5.01651 0
M  V30 8924 H 842.655 1.52728 3.45662 0
M  V30 8925 H 842.968 3.68497 6.79286 0
M  V30 8926 H 841.313 3.30789 6.11231 0
M  V30 8927 H 844.504 1.96859 4.24693 0
M  V30 8928 H 844.677 2.95231 5.76839 0
M  V30 8929 N 838.083 -1.48885 0.516809 0
M  V30 8930 C 838.993 -2.33185 -0.257293 0
M  V30 8931 C 840.009 -1.4565 -0.951952 0
M  V30 8932 O 841.185 -1.78651 -0.929834 0
M  V30 8933 C 838.25 -3.21465 -1.29851 0
M  V30 8934 C 837.311 -4.24863 -0.615608 0
M  V30 8935 C 836.544 -5.08925 -1.60722 0
M  V30 8936 O 836.767 -4.9475 -2.83863 0
M  V30 8937 O 835.701 -5.90737 -1.15384 0
M  V30 8938 H 839.527 -3.00596 0.433131 0
M  V30 8939 H 837.112 -1.46792 0.277908 0
M  V30 8940 H 838.994 -3.76108 -1.90055 0
M  V30 8941 H 837.669 -2.5673 -1.97158 0
M  V30 8942 H 836.576 -3.74091 0.0265829 0
M  V30 8943 H 837.909 -4.92198 0.0152871 0
M  V30 8944 N 839.561 -0.251338 -1.55583 0
M  V30 8945 C 840.81 0.372681 -1.98227 0
M  V30 8946 C 841.123 1.58743 -1.1428 0
M  V30 8947 O 842.329 2.28289 -1.46957 0
M  V30 8948 C 840.785 0.714439 -3.52738 0
M  V30 8949 C 840.393 -0.479168 -4.4543 0
M  V30 8950 C 842.137 1.3024 -4.04027 0
M  V30 8951 C 840.044 -0.113318 -5.91291 0
M  V30 8952 H 838.974 0.14302 -0.740312 0
M  V30 8953 H 841.625 -0.352253 -1.80087 0
M  V30 8954 H 840.007 1.49762 -3.66589 0
M  V30 8955 H 841.181 -1.25644 -4.4334 0
M  V30 8956 H 839.496 -0.982359 -4.04646 0
M  V30 8957 H 842.093 1.58953 -5.10527 0
M  V30 8958 H 842.436 2.22837 -3.51638 0
M  V30 8959 H 842.969 0.582024 -3.93519 0
M  V30 8960 H 839.708 -1.00654 -6.47726 0
M  V30 8961 H 839.228 0.627666 -5.96507 0
M  V30 8962 H 840.907 0.30293 -6.4629 0
M  V30 8963 N 841.039 1.57585 0.0217189 0
M  V30 8964 C 842.288 1.88786 0.710125 0
M  V30 8965 C 842.601 0.850819 1.76126 0
M  V30 8966 O 843.807 1.0523 2.50277 0
M  V30 8967 C 842.263 3.3505 1.31413 0
M  V30 8968 C 841.871 4.47001 0.298959 0
M  V30 8969 C 843.615 3.7539 1.98199 0
M  V30 8970 C 841.522 5.8433 0.911727 0
M  V30 8971 H 840.452 0.704388 0.268986 0
M  V30 8972 H 843.103 1.83466 -0.0352638 0
M  V30 8973 H 841.485 3.35138 2.10947 0
M  V30 8974 H 842.659 4.58395 -0.470203 0
M  V30 8975 H 840.974 4.15542 -0.267222 0
M  V30 8976 H 843.571 4.75314 2.4491 0
M  V30 8977 H 843.914 3.07766 2.80331 0
M  V30 8978 H 844.447 3.77508 1.2543 0
M  V30 8979 H 841.186 6.55372 0.129659 0
M  V30 8980 H 840.706 5.76643 1.65056 0
M  V30 8981 H 842.385 6.31295 1.41688 0
M  V30 8982 N 842.517 -0.29412 1.54831 0
M  V30 8983 C 843.449 -1.38476 1.82639 0
M  V30 8984 C 844.462 -1.46517 0.709694 0
M  V30 8985 O 845.651 -1.48712 0.987269 0
M  V30 8986 C 842.751 -2.76791 1.95551 0
M  V30 8987 C 841.924 -2.91599 3.26019 0
M  V30 8988 C 840.983 -4.10456 3.29261 0
M  V30 8989 O 840.009 -4.02214 4.02756 0
M  V30 8990 N 841.211 -5.21422 2.55145 0
M  V30 8991 H 843.976 -1.14974 2.76769 0
M  V30 8992 H 841.537 -0.484206 1.5449 0
M  V30 8993 H 843.529 -3.5456 1.95113 0
M  V30 8994 H 842.099 -2.93209 1.08384 0
M  V30 8995 H 841.319 -2.00886 3.39173 0
M  V30 8996 H 842.607 -2.98409 4.12104 0
M  V30 8997 H 842.005 -5.31 1.95078 0
M  V30 8998 H 840.562 -5.97501 2.60454 0
M  V30 8999 N 843.995 -1.47404 -0.557645 0
M  V30 9000 C 845.406 -1.47872 -1.13977 0
M  V30 9001 C 845.757 -0.233176 -1.94809 0
M  V30 9002 O 844.882 0.661945 -2.06027 0
M  V30 9003 C 845.477 -2.67926 -2.07368 0
M  V30 9004 C 844.036 -2.71354 -2.60852 0
M  V30 9005 C 843.183 -2.40967 -1.37223 0
M  V30 9006 H 846.134 -1.54921 -0.344268 0
M  V30 9007 H 846.155 -2.44871 -2.91236 0
M  V30 9008 H 845.667 -3.58562 -1.48509 0
M  V30 9009 H 843.768 -1.84855 -3.23511 0
M  V30 9010 H 843.881 -3.72032 -3.01876 0
M  V30 9011 H 842.245 -1.91541 -1.67882 0
M  V30 9012 H 843.028 -3.33811 -0.801583 0
M  V30 9013 N 845.473 0.80434 -1.35529 0
M  V30 9014 C 846.701 1.59283 -1.32048 0
M  V30 9015 C 847.116 1.88527 0.101556 0
M  V30 9016 O 846.473 1.48975 1.05417 0
M  V30 9017 C 846.524 2.92276 -2.12737 0
M  V30 9018 O 846.245 2.64299 -3.49396 0
M  V30 9019 C 847.746 3.86631 -2.16867 0
M  V30 9020 H 844.966 0.494523 -0.453528 0
M  V30 9021 H 847.51 0.999415 -1.78415 0
M  V30 9022 H 845.665 3.48125 -1.69964 0
M  V30 9023 H 846.079 3.4923 -3.91329 0
M  V30 9024 H 847.553 4.77053 -2.77712 0
M  V30 9025 H 848.03 4.23384 -1.16803 0
M  V30 9026 H 848.636 3.36717 -2.59811 0
M  V30 9027 N 846.951 1.19563 1.02676 0
M  V30 9028 C 848.197 1.00105 1.76371 0
M  V30 9029 C 848.53 -0.466823 1.88506 0
M  V30 9030 O 847.805 -1.34665 1.40341 0
M  V30 9031 C 848.088 1.67321 3.18866 0
M  V30 9032 C 847.941 3.21486 3.1459 0
M  V30 9033 C 849.26 1.39794 4.17308 0
M  V30 9034 H 846.379 0.365075 0.640226 0
M  V30 9035 H 849.021 1.47433 1.19848 0
M  V30 9036 H 847.171 1.27081 3.67128 0
M  V30 9037 H 848.843 3.70953 2.7421 0
M  V30 9038 H 847.086 3.5292 2.52249 0
M  V30 9039 H 847.757 3.63665 4.15273 0
M  V30 9040 H 850.233 1.74685 3.77657 0
M  V30 9041 H 849.109 1.89371 5.15199 0
M  V30 9042 H 849.37 0.323505 4.40915 0
M  V30 9043 N 848.429 -1.21819 0.999893 0
M  V30 9044 C 849.675 -1.91035 0.680701 0
M  V30 9045 C 850.008 -1.77582 -0.786021 0
M  V30 9046 O 849.283 -1.14917 -1.56921 0
M  V30 9047 C 849.566 -3.43013 1.0961 0
M  V30 9048 C 849.419 -3.65481 2.6219 0
M  V30 9049 C 850.738 -4.35204 0.654616 0
M  V30 9050 H 847.857 -0.693748 0.248763 0
M  V30 9051 H 850.499 -1.43555 1.24466 0
M  V30 9052 H 848.649 -3.83581 0.616253 0
M  V30 9053 H 850.321 -3.34273 3.17899 0
M  V30 9054 H 848.564 -3.09522 3.03938 0
M  V30 9055 H 849.235 -4.71945 2.86307 0
M  V30 9056 H 851.711 -4.0219 1.06688 0
M  V30 9057 H 850.587 -5.40198 0.973492 0
M  V30 9058 H 850.848 -4.3986 -0.444458 0
M  V30 9059 N 849.908 -0.773975 -1.37286 0
M  V30 9060 C 851.185 -0.263942 -1.93811 0
M  V30 9061 C 851.565 1.24138 -1.70743 0
M  V30 9062 O 850.913 2.02557 -1.05749 0
M  V30 9063 C 851.123 -0.639753 -3.43086 0
M  V30 9064 C 852.471 -0.610796 -4.20184 0
M  V30 9065 O 853.495 -0.579278 -3.51458 0
M  V30 9066 O 852.354 -0.639862 -5.42741 0
M  V30 9067 H 849.448 -0.0614331 -0.824715 0
M  V30 9068 H 851.994 -0.855477 -1.46559 0
M  V30 9069 H 850.766 -1.67856 -3.53469 0
M  V30 9070 H 850.389 -0.0212827 -3.97594 0
M  V30 9071 N 851.386 1.48609 -0.524698 0
M  V30 9072 C 852.797 1.86516 -0.0828846 0
M  V30 9073 C 853.148 1.43478 1.33822 0
M  V30 9074 O 852.273 0.823139 2.00133 0
M  V30 9075 C 852.868 3.38495 -0.143639 0
M  V30 9076 C 851.427 3.75615 0.242951 0
M  V30 9077 C 850.574 2.72649 -0.505747 0
M  V30 9078 H 853.525 1.40589 -0.736233 0
M  V30 9079 H 853.546 3.74977 0.645955 0
M  V30 9080 H 853.058 3.69789 -1.17805 0
M  V30 9081 H 851.159 3.49935 1.27971 0
M  V30 9082 H 851.272 4.7901 -0.0929834 0
M  V30 9083 H 849.636 2.54656 0.0473482 0
M  V30 9084 H 850.419 3.06786 -1.54069 0
M  V30 9085 N 852.864 0.259585 1.55447 0
M  V30 9086 C 854.11 -0.362143 1.9954 0
M  V30 9087 C 854.443 -1.5666 1.14767 0
M  V30 9088 O 853.718 -1.93319 0.214025 0
M  V30 9089 C 854.001 -0.759588 3.51998 0
M  V30 9090 C 853.854 0.451134 4.47532 0
M  V30 9091 C 855.173 -1.60186 4.09913 0
M  V30 9092 H 852.292 -0.130157 0.725416 0
M  V30 9093 H 854.934 0.363431 1.86492 0
M  V30 9094 H 853.084 -1.3778 3.63248 0
M  V30 9095 H 854.756 1.08965 4.48246 0
M  V30 9096 H 852.999 1.092 4.19831 0
M  V30 9097 H 853.67 0.129518 5.51848 0
M  V30 9098 H 856.146 -1.0799 4.01842 0
M  V30 9099 H 855.022 -1.84879 5.16828 0
M  V30 9100 H 855.283 -2.57787 3.59163 0
M  V30 9101 N 854.342 -1.57594 -0.0133615 0
M  V30 9102 C 855.567 -1.94649 -0.715996 0
M  V30 9103 C 855.992 -0.860786 -1.67249 0
M  V30 9104 O 855.35 0.182228 -1.80382 0
M  V30 9105 C 855.398 -3.30789 -1.43566 0
M  V30 9106 O 854.502 -3.24148 -2.54955 0
M  V30 9107 H 853.843 -0.635801 -0.191449 0
M  V30 9108 H 856.373 -2.04569 0.0358478 0
M  V30 9109 H 856.383 -3.66045 -1.80208 0
M  V30 9110 H 855.058 -4.09367 -0.734263 0
M  V30 9111 H 853.635 -3.00548 -2.20739 0
M  V30 9112 N 855.82 0.285905 -1.54985 0
M  V30 9113 C 857.067 1.0192 -1.74982 0
M  V30 9114 C 857.395 1.86743 -0.543816 0
M  V30 9115 O 856.65 1.89874 0.473972 0
M  V30 9116 C 856.949 1.94193 -3.0004 0
M  V30 9117 C 856.615 1.25225 -4.33162 0
M  V30 9118 C 855.277 1.06149 -4.69346 0
M  V30 9119 C 857.629 0.760427 -5.15623 0
M  V30 9120 C 854.957 0.365991 -5.85557 0
M  V30 9121 C 857.309 0.0785787 -6.32551 0
M  V30 9122 C 855.973 -0.124002 -6.67385 0
M  V30 9123 H 855.243 0.372951 -0.640304 0
M  V30 9124 H 857.89 0.292652 -1.89251 0
M  V30 9125 H 856.195 2.73426 -2.80616 0
M  V30 9126 H 857.892 2.51029 -3.12707 0
M  V30 9127 H 854.482 1.41081 -4.04715 0
M  V30 9128 H 858.666 0.895466 -4.88155 0
M  V30 9129 H 853.922 0.198193 -6.11079 0
M  V30 9130 H 858.096 -0.310339 -6.95708 0
M  V30 9131 H 855.723 -0.664918 -7.57287 0
M  V30 9132 N 857.298 1.47698 0.54982 0
M  V30 9133 C 858.231 1.55288 1.67215 0
M  V30 9134 C 859.209 0.404533 1.57487 0
M  V30 9135 O 860.393 0.613372 1.78241 0
M  V30 9136 C 857.52 1.46233 3.05505 0
M  V30 9137 C 856.566 2.65662 3.33655 0
M  V30 9138 S 857.399 4.278 3.22098 0
M  V30 9139 C 858.555 4.21311 4.62869 0
M  V30 9140 H 858.788 2.50238 1.60524 0
M  V30 9141 H 856.321 1.35987 0.731227 0
M  V30 9142 H 858.279 1.41696 3.85269 0
M  V30 9143 H 856.94 0.526543 3.09655 0
M  V30 9144 H 856.133 2.55411 4.3449 0
M  V30 9145 H 855.735 2.67359 2.61524 0
M  V30 9146 H 858.027 3.90021 5.53977 0
M  V30 9147 H 858.97 5.22257 4.78177 0
M  V30 9148 H 859.378 3.52063 4.41262 0
M  V30 9149 N 858.776 -0.797141 1.35954 0
M  V30 9150 C 860.023 -1.55468 1.29754 0
M  V30 9151 C 860.351 -1.94095 -0.125391 0
M  V30 9152 O 859.606 -1.62341 -1.09288 0
M  V30 9153 C 859.905 -2.84847 2.15863 0
M  V30 9154 C 859.571 -2.65394 3.64523 0
M  V30 9155 C 858.233 -2.59796 4.05042 0
M  V30 9156 C 860.585 -2.4727 4.58811 0
M  V30 9157 C 857.913 -2.3403 5.38002 0
M  V30 9158 C 860.265 -2.23032 5.91979 0
M  V30 9159 C 858.929 -2.15862 6.31633 0
M  V30 9160 H 858.199 -0.568897 0.474803 0
M  V30 9161 H 860.846 -0.920299 1.67937 0
M  V30 9162 H 859.151 -3.52712 1.70591 0
M  V30 9163 H 860.848 -3.42597 2.08395 0
M  V30 9164 H 857.438 -2.70602 3.32374 0
M  V30 9165 H 861.622 -2.506 4.28384 0
M  V30 9166 H 856.878 -2.26956 5.67715 0
M  V30 9167 H 861.052 -2.08001 6.64612 0
M  V30 9168 H 858.679 -1.9566 7.34589 0
M  V30 9169 N 860.254 -1.20106 -1.0204 0
M  V30 9170 C 861.5 -1.02042 -1.75951 0
M  V30 9171 C 861.855 0.443229 -1.87225 0
M  V30 9172 O 861.148 1.32477 -1.38421 0
M  V30 9173 C 861.342 -1.63308 -3.17908 0
M  V30 9174 C 861.171 -3.15478 -3.20474 0
M  V30 9175 C 859.941 -3.84432 -3.27933 0
M  V30 9176 C 862.139 -4.12747 -3.06829 0
M  V30 9177 N 860.121 -5.23925 -3.19963 0
M  V30 9178 C 861.492 -5.38892 -3.06586 0
M  V30 9179 C 863.547 -4.03996 -2.91018 0
M  V30 9180 C 862.25 -6.57296 -2.92154 0
M  V30 9181 C 864.276 -5.22019 -2.77938 0
M  V30 9182 C 863.638 -6.47067 -2.78358 0
M  V30 9183 H 859.737 -0.427602 -0.654737 0
M  V30 9184 H 862.321 -1.52216 -1.21402 0
M  V30 9185 H 860.492 -1.15723 -3.7076 0
M  V30 9186 H 862.224 -1.38597 -3.80227 0
M  V30 9187 H 858.979 -3.35269 -3.34502 0
M  V30 9188 H 859.403 -5.9694 -3.19362 0
M  V30 9189 H 864.045 -3.0813 -2.8951 0
M  V30 9190 H 861.763 -7.5334 -2.92412 0
M  V30 9191 H 865.349 -5.17057 -2.66728 0
M  V30 9192 H 864.229 -7.36857 -2.6835 0
M  V30 9193 N 861.732 1.21287 -1.00634 0
M  V30 9194 C 862.679 2.23705 -0.567876 0
M  V30 9195 C 863.649 1.61043 0.406753 0
M  V30 9196 O 864.834 1.88289 0.308499 0
M  V30 9197 C 861.974 3.44961 0.097996 0
M  V30 9198 C 861.087 4.22091 -0.919972 0
M  V30 9199 C 860.222 5.30718 -0.226222 0
M  V30 9200 C 859.261 5.99581 -1.23165 0
M  V30 9201 N 858.398 6.99821 -0.565278 0
M  V30 9202 H 863.238 2.60571 -1.44592 0
M  V30 9203 H 860.775 1.28049 -0.724006 0
M  V30 9204 H 862.733 4.1418 0.501097 0
M  V30 9205 H 861.363 3.08818 0.939744 0
M  V30 9206 H 860.415 3.52038 -1.44131 0
M  V30 9207 H 861.727 4.69476 -1.68505 0
M  V30 9208 H 860.881 6.06253 0.232917 0
M  V30 9209 H 859.62 4.84343 0.571247 0
M  V30 9210 H 858.625 5.22816 -1.70128 0
M  V30 9211 H 859.85 6.48042 -2.03022 0
M  V30 9212 H 857.796 6.55656 0.212508 0
M  V30 9213 H 857.713 7.4528 -1.26858 0
M  V30 9214 H 858.981 7.79393 -0.129389 0
M  V30 9215 N 863.21 0.781244 1.36873 0
M  V30 9216 C 864.487 0.274217 1.93668 0
M  V30 9217 C 864.867 -1.2323 1.71399 0
M  V30 9218 O 864.215 -2.01993 1.06822 0
M  V30 9219 C 864.425 0.657939 3.42742 0
M  V30 9220 C 865.773 0.63307 4.19854 0
M  V30 9221 O 866.797 0.597909 3.51146 0
M  V30 9222 O 865.656 0.668636 5.42394 0
M  V30 9223 H 862.75 0.0658059 0.824378 0
M  V30 9224 H 865.296 0.863238 1.46104 0
M  V30 9225 H 864.068 1.69728 3.52573 0
M  V30 9226 H 863.691 0.0423678 3.97577 0
M  V30 9227 N 864.689 -1.48329 0.532571 0
M  V30 9228 C 865.599 -2.33445 -0.232546 0
M  V30 9229 C 866.615 -1.46651 -0.93645 0
M  V30 9230 O 867.791 -1.79627 -0.910834 0
M  V30 9231 C 864.856 -3.22824 -1.26434 0
M  V30 9232 C 863.917 -4.25492 -0.570511 0
M  V30 9233 C 863.15 -5.10601 -1.55315 0
M  V30 9234 O 863.373 -4.97733 -2.78599 0
M  V30 9235 O 862.307 -5.91927 -1.09112 0
M  V30 9236 H 866.133 -3.00119 0.464988 0
M  V30 9237 H 863.718 -1.46489 0.293462 0
M  V30 9238 H 865.6 -3.78103 -1.86055 0
M  V30 9239 H 864.275 -2.58807 -1.94424 0
M  V30 9240 H 863.182 -3.74041 0.0662587 0
M  V30 9241 H 864.515 -4.92154 0.0674904 0
M  V30 9242 N 866.167 -0.267825 -1.55308 0
M  V30 9243 C 867.13 0.60965 -2.20943 0
M  V30 9244 C 868.13 1.0869 -1.18504 0
M  V30 9245 O 869.32 0.988248 -1.43455 0
M  V30 9246 C 866.452 1.84027 -2.86961 0
M  V30 9247 H 867.645 0.0366806 -2.99878 0
M  V30 9248 H 865.198 -0.0183941 -1.56289 0
M  V30 9249 H 865.933 2.45394 -2.1202 0
M  V30 9250 H 865.718 1.50605 -3.62023 0
M  V30 9251 H 867.208 2.46442 -3.37129 0
M  V30 9252 N 867.645 1.57599 0.00500368 0
M  V30 9253 C 868.892 1.90349 0.690895 0
M  V30 9254 C 869.22 0.868045 1.74055 0
M  V30 9255 O 868.475 -0.127855 1.95282 0
M  V30 9256 C 868.774 3.29855 1.37588 0
M  V30 9257 C 868.44 4.48548 0.459906 0
M  V30 9258 C 867.102 4.80752 0.207693 0
M  V30 9259 C 869.454 5.20919 -0.171054 0
M  V30 9260 C 866.782 5.82701 -0.683855 0
M  V30 9261 C 869.134 6.23818 -1.05045 0
M  V30 9262 C 867.798 6.54481 -1.31189 0
M  V30 9263 H 867.068 0.696538 0.252816 0
M  V30 9264 H 869.715 1.91436 -0.0494495 0
M  V30 9265 H 868.02 3.24869 2.19015 0
M  V30 9266 H 869.717 3.52452 1.91255 0
M  V30 9267 H 866.307 4.23384 0.666648 0
M  V30 9268 H 870.491 4.96299 0.0107942 0
M  V30 9269 H 865.747 6.04822 -0.894467 0
M  V30 9270 H 869.921 6.79029 -1.54574 0
M  V30 9271 H 867.548 7.33299 -2.00442 0
M  V30 9272 N 869.123 -0.277682 1.55134 0
M  V30 9273 C 870.086 -1.32635 1.86924 0
M  V30 9274 C 871.086 -1.42578 0.743507 0
M  V30 9275 O 872.276 -1.4181 1.01171 0
M  V30 9276 C 869.408 -2.70832 2.07034 0
M  V30 9277 H 870.601 -1.0568 2.80663 0
M  V30 9278 H 868.154 -0.515517 1.47554 0
M  V30 9279 H 868.889 -3.02974 1.15661 0
M  V30 9280 H 868.674 -2.65001 2.88993 0
M  V30 9281 H 870.164 -3.46611 2.32918 0
M  V30 9282 N 870.601 -1.47988 -0.541979 0
M  V30 9283 C 871.531 -1.64503 -1.65713 0
M  V30 9284 C 872.512 -0.494116 -1.62765 0
M  V30 9285 O 873.697 -0.725256 -1.80149 0
M  V30 9286 C 870.827 -1.67337 -3.04328 0
M  V30 9287 C 869.781 -2.81809 -3.2213 0
M  V30 9288 C 869.107 -2.69724 -4.61685 0
M  V30 9289 C 870.407 -4.23241 -3.06046 0
M  V30 9290 H 872.101 -2.5786 -1.52147 0
M  V30 9291 H 869.647 -1.24094 -0.730529 0
M  V30 9292 H 871.6 -1.77481 -3.82202 0
M  V30 9293 H 870.324 -0.705514 -3.18889 0
M  V30 9294 H 868.983 -2.71201 -2.46669 0
M  V30 9295 H 868.631 -1.70934 -4.73065 0
M  V30 9296 H 868.331 -3.4653 -4.74543 0
M  V30 9297 H 869.855 -2.81818 -5.41674 0
M  V30 9298 H 871.269 -4.34746 -3.73723 0
M  V30 9299 H 869.666 -5.00952 -3.30405 0
M  V30 9300 H 870.736 -4.40543 -2.02609 0
M  V30 9301 N 872.079 0.78992 -1.36375 0
M  V30 9302 C 873.325 1.54939 -1.31778 0
M  V30 9303 C 873.68 1.92128 0.102327 0
M  V30 9304 O 872.973 1.59823 1.05675 0
M  V30 9305 C 873.167 2.83698 -2.17371 0
M  V30 9306 C 872.996 2.59093 -3.67561 0
M  V30 9307 C 871.766 2.5414 -4.36739 0
M  V30 9308 C 873.964 2.28325 -4.60838 0
M  V30 9309 N 871.946 2.21427 -5.72576 0
M  V30 9310 C 873.317 2.05596 -5.84919 0
M  V30 9311 C 875.372 2.14328 -4.49409 0
M  V30 9312 C 874.075 1.70285 -6.98853 0
M  V30 9313 C 876.101 1.80415 -5.63209 0
M  V30 9314 C 875.463 1.58533 -6.86328 0
M  V30 9315 H 871.562 0.568011 -0.537483 0
M  V30 9316 H 874.146 0.923183 -1.71422 0
M  V30 9317 H 872.317 3.44187 -1.79972 0
M  V30 9318 H 874.049 3.49425 -2.04167 0
M  V30 9319 H 870.804 2.69368 -3.89535 0
M  V30 9320 H 871.228 2.07818 -6.44314 0
M  V30 9321 H 875.87 2.29935 -3.54809 0
M  V30 9322 H 873.588 1.53415 -7.93404 0
M  V30 9323 H 877.174 1.70269 -5.56327 0
M  V30 9324 H 876.054 1.32677 -7.72895 0
M  V30 9325 N 873.557 1.20646 1.01402 0
M  V30 9326 C 874.806 1.01242 1.7445 0
M  V30 9327 C 875.119 -0.455732 1.90217 0
M  V30 9328 O 876.325 -0.768951 2.60383 0
M  V30 9329 C 874.781 1.76275 3.13776 0
M  V30 9330 C 874.389 3.27201 3.06013 0
M  V30 9331 C 876.133 1.65248 3.91016 0
M  V30 9332 C 874.04 3.9476 4.40362 0
M  V30 9333 H 872.97 0.375202 0.654018 0
M  V30 9334 H 875.621 1.44292 1.13367 0
M  V30 9335 H 874.003 1.26013 3.75415 0
M  V30 9336 H 875.177 3.84695 2.53665 0
M  V30 9337 H 873.492 3.38669 2.42265 0
M  V30 9338 H 876.089 2.13061 4.90417 0
M  V30 9339 H 876.432 0.609128 4.1182 0
M  V30 9340 H 876.965 2.12937 3.3601 0
M  V30 9341 H 873.704 4.99258 4.24761 0
M  V30 9342 H 873.224 3.42054 4.92706 0
M  V30 9343 H 874.903 3.99159 5.09196 0
M  V30 9344 N 875.035 -1.20752 1.01276 0
M  V30 9345 C 875.945 -2.27079 0.589277 0
M  V30 9346 C 876.961 -1.6999 -0.371389 0
M  V30 9347 O 878.137 -2.00044 -0.233294 0
M  V30 9348 C 875.202 -3.4663 -0.0696715 0
M  V30 9349 C 874.263 -4.18962 0.936454 0
M  V30 9350 C 873.496 -5.32806 0.308856 0
M  V30 9351 O 873.719 -5.63376 -0.8924 0
M  V30 9352 O 872.653 -5.93131 1.02367 0
M  V30 9353 H 876.479 -2.6551 1.47438 0
M  V30 9354 H 874.064 -1.27297 0.782045 0
M  V30 9355 H 875.946 -4.19119 -0.437873 0
M  V30 9356 H 874.621 -3.10082 -0.929029 0
M  V30 9357 H 873.528 -3.48661 1.35595 0
M  V30 9358 H 874.861 -4.59441 1.76565 0
M  V30 9359 N 876.513 -0.788492 -1.36457 0
M  V30 9360 C 877.929 -0.470063 -1.52521 0
M  V30 9361 C 878.129 1.01176 -1.74258 0
M  V30 9362 O 877.185 1.79726 -1.77355 0
M  V30 9363 C 878.498 -1.2997 -2.71161 0
M  V30 9364 C 880.046 -1.2933 -2.85031 0
M  V30 9365 C 880.521 -2.10665 -4.06674 0
M  V30 9366 N 882.012 -2.08107 -4.13819 0
M  V30 9367 C 882.747 -2.6781 -5.07016 0
M  V30 9368 N 882.243 -3.36369 -6.05663 0
M  V30 9369 N 884.036 -2.57549 -4.99625 0
M  V30 9370 H 876.187 -1.7484 -1.20602 0
M  V30 9371 H 878.45 -0.743159 -0.588574 0
M  V30 9372 H 878.156 -2.35051 -2.61618 0
M  V30 9373 H 878.03 -0.940367 -3.6529 0
M  V30 9374 H 880.417 -0.250414 -2.94036 0
M  V30 9375 H 880.498 -1.69239 -1.91812 0
M  V30 9376 H 880.142 -3.14984 -3.98431 0
M  V30 9377 H 880.072 -1.68128 -4.9904 0
M  V30 9378 H 882.563 -1.58208 -3.43189 0
M  V30 9379 H 882.876 -3.79258 -6.73338 0
M  V30 9380 H 881.221 -3.40471 -6.05891 0
M  V30 9381 H 884.412 -2.0359 -4.21508 0
M  V30 9382 H 884.585 -3.0437 -5.72069 0
M  V30 9383 N 877.991 1.48044 -0.54043 0
M  V30 9384 C 879.237 2.03392 -0.0183377 0
M  V30 9385 C 879.592 1.4091 1.31004 0
M  V30 9386 O 878.885 0.549375 1.83555 0
M  V30 9387 C 879.079 3.57085 0.150008 0
M  V30 9388 C 878.908 4.34468 -1.1605 0
M  V30 9389 C 877.678 4.75008 -1.72324 0
M  V30 9390 C 879.876 4.70641 -2.07368 0
M  V30 9391 N 877.858 5.36968 -2.97555 0
M  V30 9392 C 879.229 5.32728 -3.17176 0
M  V30 9393 C 881.284 4.52571 -2.07567 0
M  V30 9394 C 879.987 5.78654 -4.27261 0
M  V30 9395 C 882.013 4.99485 -3.16653 0
M  V30 9396 C 881.375 5.61606 -4.2518 0
M  V30 9397 H 877.474 0.780497 -0.0484652 0
M  V30 9398 H 880.058 1.80738 -0.724018 0
M  V30 9399 H 878.229 3.79542 0.824787 0
M  V30 9400 H 879.961 3.99071 0.672649 0
M  V30 9401 H 876.716 4.5644 -1.26331 0
M  V30 9402 H 877.14 5.72505 -3.61341 0
M  V30 9403 H 881.782 4.03914 -1.24952 0
M  V30 9404 H 879.5 6.26311 -5.10647 0
M  V30 9405 H 883.086 4.87286 -3.17874 0
M  V30 9406 H 881.966 5.97248 -5.08197 0
M  V30 9407 N 879.47 0.276058 1.55163 0
M  V30 9408 C 880.718 -0.339782 1.99223 0
M  V30 9409 C 881.039 -1.56307 1.16589 0
M  V30 9410 O 880.309 -1.94225 0.25564 0
M  V30 9411 H 878.889 -0.128534 0.735859 0
M  V30 9412 H 881.551 0.381612 1.91128 0
M  V30 9413 H 880.647 -0.629 3.05696 0
M  V30 9414 N 880.948 -1.576 0.00335426 0
M  V30 9415 C 881.895 -2.08632 -0.986975 0
M  V30 9416 C 882.865 -0.982491 -1.33927 0
M  V30 9417 O 884.05 -1.25513 -1.43705 0
M  V30 9418 C 881.19 -2.59705 -2.27261 0
M  V30 9419 C 880.303 -3.84002 -1.97905 0
M  V30 9420 C 879.438 -4.23563 -3.20574 0
M  V30 9421 C 878.477 -5.40688 -2.8692 0
M  V30 9422 N 877.614 -5.75526 -4.02136 0
M  V30 9423 H 882.454 -2.92977 -0.544855 0
M  V30 9424 H 879.991 -1.44831 -0.257376 0
M  V30 9425 H 881.949 -2.87395 -3.02423 0
M  V30 9426 H 880.579 -1.7823 -2.69136 0
M  V30 9427 H 879.631 -3.63199 -1.13096 0
M  V30 9428 H 880.943 -4.69261 -1.69102 0
M  V30 9429 H 880.097 -4.52554 -4.04079 0
M  V30 9430 H 878.836 -3.37019 -3.52518 0
M  V30 9431 H 877.841 -5.11417 -2.01822 0
M  V30 9432 H 879.066 -6.2891 -2.5622 0
M  V30 9433 H 877.012 -4.9194 -4.33971 0
M  V30 9434 H 876.929 -6.55367 -3.76869 0
M  V30 9435 H 878.197 -6.0911 -4.8642 0
M  V30 9436 N 882.426 0.269451 -1.5528 0
M  V30 9437 C 883.356 1.33729 -1.91413 0
M  V30 9438 C 884.337 1.51348 -0.776391 0
M  V30 9439 O 885.522 1.64332 -1.03482 0
M  V30 9440 C 882.652 2.69618 -2.18914 0
M  V30 9441 C 881.606 2.66725 -3.34726 0
M  V30 9442 C 880.932 4.06199 -3.47716 0
M  V30 9443 C 882.232 2.25684 -4.71025 0
M  V30 9444 H 883.926 1.03736 -2.80854 0
M  V30 9445 H 881.472 0.497579 -1.3513 0
M  V30 9446 H 883.425 3.44436 -2.42779 0
M  V30 9447 H 882.149 3.01201 -1.26275 0
M  V30 9448 H 880.808 1.94365 -3.10834 0
M  V30 9449 H 880.456 4.3501 -2.52537 0
M  V30 9450 H 880.156 4.05157 -4.25583 0
M  V30 9451 H 881.68 4.8275 -3.73877 0
M  V30 9452 H 883.094 2.90225 -4.94411 0
M  V30 9453 H 881.491 2.35797 -5.51833 0
M  V30 9454 H 882.561 1.20819 -4.69607 0
M  V30 9455 N 883.904 1.48273 0.534124 0
M  V30 9456 C 885.134 1.59503 1.31311 0
M  V30 9457 C 885.542 0.25284 1.87503 0
M  V30 9458 O 884.885 -0.767399 1.66903 0
M  V30 9459 C 884.947 2.57899 2.50456 0
M  V30 9460 C 884.611 4.03063 2.15382 0
M  V30 9461 C 885.608 4.90869 1.713 0
M  V30 9462 C 883.293 4.4857 2.26032 0
M  V30 9463 C 885.287 6.22209 1.38328 0
M  V30 9464 C 882.974 5.79932 1.92672 0
M  V30 9465 C 883.972 6.66574 1.4889 0
M  V30 9466 O 883.66 7.95492 1.15966 0
M  V30 9467 H 883.392 0.540695 0.405739 0
M  V30 9468 H 885.946 1.94794 0.651497 0
M  V30 9469 H 884.176 2.1772 3.19585 0
M  V30 9470 H 885.865 2.59008 3.12522 0
M  V30 9471 H 886.631 4.56951 1.62545 0
M  V30 9472 H 882.51 3.81321 2.59066 0
M  V30 9473 H 886.054 6.89792 1.04082 0
M  V30 9474 H 881.951 6.13386 2.01066 0
M  V30 9475 H 882.719 8.08207 1.29399 0
M  V30 9476 N 885.382 -0.782676 1.36792 0
M  V30 9477 C 886.292 -1.92679 1.33835 0
M  V30 9478 C 887.308 -1.72344 0.23952 0
M  V30 9479 O 888.484 -1.95766 0.473045 0
M  V30 9480 C 885.549 -3.27644 1.1336 0
M  V30 9481 C 884.61 -3.6071 2.32781 0
M  V30 9482 C 883.843 -4.89234 2.13273 0
M  V30 9483 O 884.066 -5.59468 1.11136 0
M  V30 9484 O 883 -5.21112 3.01208 0
M  V30 9485 H 886.826 -1.98124 2.30175 0
M  V30 9486 H 884.411 -0.923887 1.17408 0
M  V30 9487 H 886.293 -4.08394 1.03886 0
M  V30 9488 H 884.968 -3.23076 0.200868 0
M  V30 9489 H 883.875 -2.80238 2.47825 0
M  V30 9490 H 885.208 -3.70008 3.24584 0
M  V30 9491 N 886.86 -1.21182 -1.00761 0
M  V30 9492 C 887.77 -0.984691 -2.12934 0
M  V30 9493 C 888.786 0.0623657 -1.73888 0
M  V30 9494 O 889.962 -0.1271 -2.00999 0
M  V30 9495 C 887.027 -0.549447 -3.42319 0
M  V30 9496 C 886.088 -1.66841 -3.95553 0
M  V30 9497 C 885.321 -1.25384 -5.18763 0
M  V30 9498 O 885.544 -0.126333 -5.7026 0
M  V30 9499 O 884.478 -2.06475 -5.65377 0
M  V30 9500 H 888.304 -1.92413 -2.3497 0
M  V30 9501 H 885.889 -0.99647 -1.11314 0
M  V30 9502 H 887.771 -0.316384 -4.20211 0
M  V30 9503 H 886.446 0.361304 -3.21677 0
M  V30 9504 H 885.353 -1.95585 -3.189 0
M  V30 9505 H 886.686 -2.55649 -4.206 0
M  V30 9506 N 888.338 1.20213 -1.01915 0
M  V30 9507 C 889.248 2.26763 -0.601311 0
M  V30 9508 C 890.264 1.70185 0.362369 0
M  V30 9509 O 891.44 2.00165 0.222682 0
M  V30 9510 C 888.505 3.46662 0.0512879 0
M  V30 9511 C 887.566 4.18459 -0.958659 0
M  V30 9512 C 886.799 5.32634 -0.337107 0
M  V30 9513 O 887.022 5.63841 0.86251 0
M  V30 9514 O 885.956 5.9258 -1.05511 0
M  V30 9515 H 889.782 2.64725 -1.48844 0
M  V30 9516 H 887.367 1.2688 -0.788784 0
M  V30 9517 H 889.249 4.19345 0.41564 0
M  V30 9518 H 887.924 3.1057 0.912572 0
M  V30 9519 H 886.831 3.47937 -1.37442 0
M  V30 9520 H 888.164 4.58498 -1.78999 0
M  V30 9521 N 889.816 0.795718 1.36037 0
M  V30 9522 C 891.041 0.38204 2.03851 0
M  V30 9523 C 891.466 -0.995553 1.59594 0
M  V30 9524 O 890.824 -1.64258 0.767401 0
M  V30 9525 C 890.872 0.461248 3.57638 0
M  V30 9526 O 889.976 -0.529448 4.08987 0
M  V30 9527 H 889.317 0.161227 0.644129 0
M  V30 9528 H 891.847 1.07858 1.73861 0
M  V30 9529 H 891.857 0.32712 4.06687 0
M  V30 9530 H 890.532 1.46613 3.89201 0
M  V30 9531 H 889.109 -0.35646 3.71192 0
M  V30 9532 N 891.294 -1.47756 0.548274 0
M  V30 9533 C 892.705 -1.8636 0.112547 0
M  V30 9534 C 893.056 -1.45589 -1.31523 0
M  V30 9535 O 892.181 -0.854874 -1.98799 0
M  V30 9536 C 892.776 -3.38224 0.197473 0
M  V30 9537 C 891.335 -3.75954 -0.183163 0
M  V30 9538 C 890.482 -2.7181 0.549059 0
M  V30 9539 H 893.433 -1.394 0.758506 0
M  V30 9540 H 893.454 -3.75957 -0.586217 0
M  V30 9541 H 892.966 -3.67868 1.23673 0
M  V30 9542 H 891.067 -3.51926 -1.22387 0
M  V30 9543 H 891.18 -4.78801 0.169178 0
M  V30 9544 H 889.544 -2.54699 -0.00682862 0
M  V30 9545 H 890.327 -3.04296 1.5893 0
M  V30 9546 N 892.772 -0.284283 -1.55015 0
M  V30 9547 C 893.997 0.335799 -2.04664 0
M  V30 9548 C 894.422 1.47999 -1.16094 0
M  V30 9549 O 893.78 1.8058 -0.161454 0
M  V30 9550 C 893.828 0.785615 -3.51938 0
M  V30 9551 O 892.932 1.89202 -3.66437 0
M  V30 9552 H 892.273 0.0680233 -0.660506 0
M  V30 9553 H 894.803 -0.421255 -2.00216 0
M  V30 9554 H 894.813 1.07892 -3.93476 0
M  V30 9555 H 893.488 -0.0514675 -4.15868 0
M  V30 9556 H 892.065 1.60055 -3.36804 0
M  V30 9557 N 894.251 1.57596 -0.0117121 0
M  V30 9558 C 895.667 1.55837 0.344506 0
M  V30 9559 C 895.867 1.01557 1.74036 0
M  V30 9560 O 894.923 0.654563 2.43868 0
M  V30 9561 C 896.236 2.99973 0.209023 0
M  V30 9562 C 897.784 3.11717 0.283092 0
M  V30 9563 C 898.259 4.57659 0.176599 0
M  V30 9564 N 899.75 4.62608 0.234133 0
M  V30 9565 C 900.485 5.73132 0.175252 0
M  V30 9566 N 899.981 6.92768 0.0662888 0
M  V30 9567 N 901.774 5.61638 0.227972 0
M  V30 9568 H 893.925 1.91215 -0.924692 0
M  V30 9569 H 896.188 0.878807 -0.355531 0
M  V30 9570 H 895.894 3.4357 -0.751826 0
M  V30 9571 H 895.768 3.64075 0.98635 0
M  V30 9572 H 898.155 2.68043 1.23439 0
M  V30 9573 H 898.236 2.50369 -0.52431 0
M  V30 9574 H 897.88 5.02011 -0.771205 0
M  V30 9575 H 897.81 5.16967 1.00264 0
M  V30 9576 H 900.301 3.76549 0.319203 0
M  V30 9577 H 900.614 7.72795 0.0275765 0
M  V30 9578 H 898.959 6.94993 0.0317502 0
M  V30 9579 H 902.15 4.67063 0.311377 0
M  V30 9580 H 902.323 6.47754 0.178621 0
M  V30 9581 N 895.729 -0.261212 1.5542 0
M  V30 9582 C 896.957 -1.00916 1.8062 0
M  V30 9583 C 897.372 -1.79494 0.585444 0
M  V30 9584 O 896.729 -1.76974 -0.445702 0
M  V30 9585 C 896.78 -1.95841 3.03856 0
M  V30 9586 O 896.501 -1.20445 4.21218 0
M  V30 9587 C 898.002 -2.82352 3.41749 0
M  V30 9588 H 895.222 -0.297596 0.601397 0
M  V30 9589 H 897.766 -0.288427 2.02456 0
M  V30 9590 H 895.921 -2.63361 2.84112 0
M  V30 9591 H 896.335 -1.84528 4.90968 0
M  V30 9592 H 897.809 -3.44733 4.31118 0
M  V30 9593 H 898.286 -3.5273 2.61683 0
M  V30 9594 H 898.892 -2.20306 3.63793 0
M  V30 9595 N 897.207 -1.48554 -0.526253 0
M  V30 9596 C 898.456 -1.56014 -1.27837 0
M  V30 9597 C 898.769 -0.240643 -1.94114 0
M  V30 9598 O 899.975 -0.193525 -2.70809 0
M  V30 9599 C 898.431 -2.75161 -2.31979 0
M  V30 9600 C 898.039 -4.13768 -1.71755 0
M  V30 9601 C 899.783 -2.91936 -3.08178 0
M  V30 9602 C 897.69 -5.24171 -2.7386 0
M  V30 9603 H 896.62 -0.58082 -0.480795 0
M  V30 9604 H 899.271 -1.74895 -0.555335 0
M  V30 9605 H 897.653 -2.49722 -3.07335 0
M  V30 9606 H 898.827 -4.49241 -1.02563 0
M  V30 9607 H 897.142 -4.02141 -1.08036 0
M  V30 9608 H 899.739 -3.71586 -3.84484 0
M  V30 9609 H 900.082 -2.01533 -3.64267 0
M  V30 9610 H 900.615 -3.17294 -2.39937 0
M  V30 9611 H 897.354 -6.16552 -2.22586 0
M  V30 9612 H 896.874 -4.93181 -3.41368 0
M  V30 9613 H 898.553 -5.52442 -3.36774 0
M  V30 9614 N 898.685 0.775411 -1.37205 0
M  V30 9615 C 899.934 1.52909 -1.31536 0
M  V30 9616 C 900.247 1.9535 0.0989374 0
M  V30 9617 O 901.453 2.70072 0.278079 0
M  V30 9618 C 899.909 2.761 -2.30861 0
M  V30 9619 C 899.517 2.40773 -3.77799 0
M  V30 9620 C 901.261 3.54052 -2.34195 0
M  V30 9621 C 899.168 3.60444 -4.68865 0
M  V30 9622 H 898.098 0.574061 -0.488845 0
M  V30 9623 H 900.749 0.849642 -1.62645 0
M  V30 9624 H 899.131 3.45916 -1.92764 0
M  V30 9625 H 900.305 1.78764 -4.24712 0
M  V30 9626 H 898.62 1.76004 -3.77375 0
M  V30 9627 H 901.217 4.42992 -2.99437 0
M  V30 9628 H 901.56 3.93649 -1.35449 0
M  V30 9629 H 902.093 2.91229 -2.7098 0
M  V30 9630 H 898.832 3.25932 -5.68725 0
M  V30 9631 H 898.352 4.21571 -4.26659 0
M  V30 9632 H 900.031 4.27302 -4.85821 0
M  V30 9633 N 900.163 1.21714 1.00117 0
M  V30 9634 C 901.095 0.937627 2.09144 0
M  V30 9635 C 902.108 -0.0806291 1.626 0
M  V30 9636 O 903.297 0.152348 1.77849 0
M  V30 9637 C 900.397 0.387036 3.36683 0
M  V30 9638 C 899.57 1.46054 4.12295 0
M  V30 9639 C 898.629 0.918505 5.18122 0
M  V30 9640 O 897.655 1.60282 5.46167 0
M  V30 9641 N 898.857 -0.264308 5.79898 0
M  V30 9642 H 901.622 1.87622 2.33705 0
M  V30 9643 H 899.183 1.12291 1.16629 0
M  V30 9644 H 901.175 0.00992825 4.04699 0
M  V30 9645 H 899.745 -0.456467 3.09249 0
M  V30 9646 H 898.965 2.01133 3.39027 0
M  V30 9647 H 900.253 2.18306 4.59587 0
M  V30 9648 H 899.651 -0.837242 5.5947 0
M  V30 9649 H 898.208 -0.582886 6.49188 0
M  V30 9650 N 901.641 -1.19671 1.02551 0
M  V30 9651 C 902.871 -1.92952 0.738441 0
M  V30 9652 C 903.279 -1.75528 -0.706155 0
M  V30 9653 O 902.622 -1.0723 -1.49156 0
M  V30 9654 C 902.684 -3.45149 1.00562 0
M  V30 9655 C 902.348 -3.86341 2.44109 0
M  V30 9656 C 903.345 -3.91374 3.42231 0
M  V30 9657 C 901.03 -4.18076 2.7842 0
M  V30 9658 C 903.024 -4.27568 4.7272 0
M  V30 9659 C 900.711 -4.53943 4.0912 0
M  V30 9660 C 901.709 -4.58663 5.06081 0
M  V30 9661 O 901.397 -4.93701 6.3444 0
M  V30 9662 H 901.129 -0.619836 0.269776 0
M  V30 9663 H 903.683 -1.52852 1.37206 0
M  V30 9664 H 901.913 -3.85416 0.314849 0
M  V30 9665 H 903.602 -3.99664 0.708742 0
M  V30 9666 H 904.368 -3.67011 3.17061 0
M  V30 9667 H 900.247 -4.13589 2.03631 0
M  V30 9668 H 903.791 -4.31166 5.48399 0
M  V30 9669 H 899.688 -4.77764 4.34064 0
M  V30 9670 H 900.456 -5.11662 6.38862 0
M  V30 9671 N 903.119 -0.802921 -1.35613 0
M  V30 9672 C 904.368 -0.378087 -1.98125 0
M  V30 9673 C 904.681 1.05953 -1.64418 0
M  V30 9674 O 905.887 1.58729 -2.20266 0
M  V30 9675 C 904.343 -0.625077 -3.5443 0
M  V30 9676 C 903.951 -2.07499 -3.97049 0
M  V30 9677 C 905.695 -0.265419 -4.23669 0
M  V30 9678 C 903.602 -2.26793 -5.46186 0
M  V30 9679 H 902.532 -0.137633 -0.741332 0
M  V30 9680 H 905.183 -0.986461 -1.54729 0
M  V30 9681 H 903.565 0.0531975 -3.95964 0
M  V30 9682 H 904.739 -2.79077 -3.66678 0
M  V30 9683 H 903.054 -2.39417 -3.40688 0
M  V30 9684 H 905.651 -0.387669 -5.33293 0
M  V30 9685 H 905.994 0.787994 -4.08774 0
M  V30 9686 H 906.527 -0.897464 -3.87544 0
M  V30 9687 H 903.266 -3.30566 -5.66045 0
M  V30 9688 H 902.786 -1.59735 -5.78139 0
M  V30 9689 H 904.465 -2.08165 -6.12598 0
M  V30 9690 N 904.597 1.47463 -0.556102 0
M  V30 9691 C 905.547 2.27007 0.212592 0
M  V30 9692 C 906.531 1.34288 0.886312 0
M  V30 9693 O 907.723 1.5865 0.784801 0
M  V30 9694 C 904.852 3.20021 1.24263 0
M  V30 9695 C 903.938 4.2022 0.572385 0
M  V30 9696 N 904.329 5.04539 -0.35691 0
M  V30 9697 C 902.627 4.38276 0.826441 0
M  V30 9698 C 903.328 5.76895 -0.746134 0
M  V30 9699 N 902.304 5.43506 -0.101225 0
M  V30 9700 H 906.106 2.89582 -0.501925 0
M  V30 9701 H 903.62 1.57988 -0.375961 0
M  V30 9702 H 905.617 3.7569 1.80728 0
M  V30 9703 H 904.277 2.59003 1.95826 0
M  V30 9704 H 905.288 5.12715 -0.731012 0
M  V30 9705 H 901.965 3.88429 1.53066 0
M  V30 9706 H 903.355 6.5472 -1.50967 0
M  V30 9707 N 906.075 0.2925 1.54862 0
M  V30 9708 C 907.352 -0.371946 1.92031 0
M  V30 9709 C 907.732 -1.72363 1.21878 0
M  V30 9710 O 907.08 -2.25779 0.351573 0
M  V30 9711 C 907.29 -0.495027 3.45471 0
M  V30 9712 C 908.638 -0.769855 4.17562 0
M  V30 9713 O 909.662 -0.579168 3.5146 0
M  V30 9714 O 908.521 -1.13561 5.34571 0
M  V30 9715 H 905.615 -0.206463 0.800813 0
M  V30 9716 H 908.161 0.339933 1.6626 0
M  V30 9717 H 906.933 0.455528 3.88639 0
M  V30 9718 H 906.556 -1.2557 3.7725 0
M  V30 9719 N 907.553 -1.57587 0.0200696 0
M  V30 9720 C 908.501 -2.10814 -0.982868 0
M  V30 9721 C 909.495 -1.03263 -1.34287 0
M  V30 9722 O 910.701 -1.21708 -1.32617 0
M  V30 9723 H 907.076 -0.673409 -0.334701 0
M  V30 9724 H 909.047 -2.94034 -0.50856 0
M  V30 9725 C 907.796 -2.64301 -2.25921 0
M  V30 9726 H 907.119 -3.46703 -1.99091 0
M  V30 9727 H 908.559 -3.052 -2.94328 0
M  V30 9728 C 907.018 -1.56628 -2.98277 0
M  V30 9729 O 907.548 -0.960825 -3.9004 0
M  V30 9730 N 905.754 -1.28889 -2.60453 0
M  V30 9731 H 905.301 -1.7831 -1.85912 0
M  V30 9732 H 905.259 -0.570697 -3.09177 0
M  V30 9733 N 909.032 0.252966 -1.55557 0
M  V30 9734 C 910.262 0.998115 -1.8089 0
M  V30 9735 C 910.67 1.79679 -0.592623 0
M  V30 9736 O 910.013 1.78151 0.448093 0
M  V30 9737 C 910.075 1.98878 -2.99479 0
M  V30 9738 C 909.739 1.37761 -4.35742 0
M  V30 9739 C 910.736 0.783142 -5.13968 0
M  V30 9740 C 908.421 1.39879 -4.8243 0
M  V30 9741 C 910.415 0.218004 -6.37027 0
M  V30 9742 C 908.102 0.829801 -6.0544 0
M  V30 9743 C 909.1 0.240426 -6.82577 0
M  V30 9744 O 908.788 -0.319797 -8.03264 0
M  V30 9745 H 908.52 0.29963 -0.605969 0
M  V30 9746 H 911.074 0.282978 -2.03441 0
M  V30 9747 H 909.304 2.74206 -2.72669 0
M  V30 9748 H 910.993 2.59686 -3.11959 0
M  V30 9749 H 911.759 0.759326 -4.79019 0
M  V30 9750 H 907.638 1.84692 -4.22386 0
M  V30 9751 H 911.182 -0.242654 -6.97178 0
M  V30 9752 H 907.079 0.850924 -6.39867 0
M  V30 9753 H 907.847 -0.211078 -8.18228 0
M  V30 9754 N 910.51 1.48831 0.518367 0
M  V30 9755 C 911.757 1.57439 1.27355 0
M  V30 9756 C 912.085 0.25338 1.92843 0
M  V30 9757 O 911.34 -0.757323 1.80452 0
M  V30 9758 C 911.639 2.67003 2.3758 0
M  V30 9759 C 911.305 4.09069 1.89667 0
M  V30 9760 C 909.967 4.47733 1.76319 0
M  V30 9761 C 912.319 4.98052 1.53603 0
M  V30 9762 C 909.647 5.73173 1.25258 0
M  V30 9763 C 911.999 6.23992 1.04001 0
M  V30 9764 C 910.663 6.61503 0.892784 0
M  V30 9765 H 909.933 0.57611 0.466023 0
M  V30 9766 H 912.58 1.82595 0.577166 0
M  V30 9767 H 910.885 2.35751 3.12936 0
M  V30 9768 H 912.582 2.70876 2.95681 0
M  V30 9769 H 909.172 3.7854 2.01011 0
M  V30 9770 H 913.356 4.68849 1.62771 0
M  V30 9771 H 908.612 6.0095 1.12557 0
M  V30 9772 H 912.786 6.92331 0.751706 0
M  V30 9773 H 910.413 7.58587 0.494939 0
M  V30 9774 N 911.988 -0.768124 1.37614 0
M  V30 9775 C 912.918 -1.89537 1.36374 0
M  V30 9776 C 913.899 -1.68513 0.231803 0
M  V30 9777 O 915.084 -1.89318 0.432705 0
M  V30 9778 C 912.214 -3.26871 1.17358 0
M  V30 9779 C 911.168 -3.62466 2.27602 0
M  V30 9780 C 910.494 -4.9838 1.93705 0
M  V30 9781 C 911.794 -3.68841 3.69802 0
M  V30 9782 H 913.488 -1.90832 2.30702 0
M  V30 9783 H 911.034 -0.91672 1.11051 0
M  V30 9784 H 912.987 -4.05371 1.15119 0
M  V30 9785 H 911.711 -3.26018 0.194865 0
M  V30 9786 H 910.37 -2.86276 2.29002 0
M  V30 9787 H 910.018 -4.94071 0.943539 0
M  V30 9788 H 909.718 -5.23165 2.6753 0
M  V30 9789 H 911.242 -5.79276 1.93059 0
M  V30 9790 H 912.656 -4.37485 3.70513 0
M  V30 9791 H 911.053 -4.05126 4.42711 0
M  V30 9792 H 912.123 -2.69415 4.03167 0
M  V30 9793 N 913.466 -1.22244 -0.994698 0
M  V30 9794 C 914.712 -1.04746 -1.73655 0
M  V30 9795 C 915.045 0.41668 -1.89677 0
M  V30 9796 O 914.32 1.30897 -1.43862 0
M  V30 9797 C 914.603 -1.75716 -3.14318 0
M  V30 9798 C 914.456 -3.29714 -3.05955 0
M  V30 9799 C 915.775 -1.50809 -4.13455 0
M  V30 9800 H 912.894 -0.381921 -0.630322 0
M  V30 9801 H 915.536 -1.50559 -1.15897 0
M  V30 9802 H 913.686 -1.3677 -3.63629 0
M  V30 9803 H 915.358 -3.78093 -2.64279 0
M  V30 9804 H 913.601 -3.59484 -2.42804 0
M  V30 9805 H 914.272 -3.74547 -4.05485 0
M  V30 9806 H 916.748 -1.84636 -3.72892 0
M  V30 9807 H 915.624 -2.02964 -5.09997 0
M  V30 9808 H 915.885 -0.440292 -4.39902 0
M  V30 9809 N 914.944 1.19125 -1.03184 0
M  V30 9810 C 915.892 2.24492 -0.608781 0
M  V30 9811 C 916.886 1.65529 0.360065 0
M  V30 9812 O 918.092 1.78546 0.22832 0
M  V30 9813 H 914.467 0.73048 -0.178616 0
M  V30 9814 H 916.438 2.5749 -1.50803 0
M  V30 9815 C 915.187 3.47693 0.0215126 0
M  V30 9816 H 914.51 3.93354 -0.715024 0
M  V30 9817 H 915.95 4.23072 0.280429 0
M  V30 9818 C 914.409 3.12088 1.26896 0
M  V30 9819 O 914.939 3.25013 2.36071 0
M  V30 9820 N 913.145 2.66494 1.15886 0
M  V30 9821 H 912.692 2.56176 0.270463 0
M  V30 9822 H 912.65 2.43042 1.99444 0
M  V30 9823 N 916.422 0.810101 1.35185 0
M  V30 9824 C 917.352 0.237453 2.32289 0
M  V30 9825 C 918.333 -0.639032 1.5764 0
M  V30 9826 O 919.518 -0.568575 1.8569 0
M  V30 9827 C 916.648 -0.611964 3.41866 0
M  V30 9828 C 915.602 0.166318 4.27677 0
M  V30 9829 C 914.928 -0.805024 5.28605 0
M  V30 9830 C 916.228 1.36729 5.04086 0
M  V30 9831 H 917.922 1.04874 2.80432 0
M  V30 9832 H 915.468 0.505751 1.34826 0
M  V30 9833 H 917.421 -1.02267 4.08802 0
M  V30 9834 H 916.145 -1.45617 2.92341 0
M  V30 9835 H 914.804 0.558238 3.62325 0
M  V30 9836 H 914.452 -1.64483 4.75347 0
M  V30 9837 H 914.152 -0.288577 5.86891 0
M  V30 9838 H 915.676 -1.21386 5.98413 0
M  V30 9839 H 917.09 1.03128 5.63948 0
M  V30 9840 H 915.487 1.81848 5.71884 0
M  V30 9841 H 916.557 2.15214 4.34524 0
M  V30 9842 N 917.9 -1.47166 0.563914 0
M  V30 9843 C 919.146 -2.02756 0.0424338 0
M  V30 9844 C 919.479 -1.43662 -1.3067 0
M  V30 9845 O 918.754 -0.594676 -1.85186 0
M  V30 9846 C 919.037 -3.60074 -0.0434793 0
M  V30 9847 C 918.89 -4.29587 1.33323 0
M  V30 9848 C 920.209 -4.336 -0.753568 0
M  V30 9849 H 917.328 -0.736806 0.0168946 0
M  V30 9850 H 919.97 -1.75521 0.727496 0
M  V30 9851 H 918.12 -3.83409 -0.626906 0
M  V30 9852 H 919.792 -4.17573 1.96037 0
M  V30 9853 H 918.035 -3.8968 1.9061 0
M  V30 9854 H 918.706 -5.38218 1.22576 0
M  V30 9855 H 921.182 -4.15299 -0.258126 0
M  V30 9856 H 920.058 -5.43291 -0.782659 0
M  V30 9857 H 920.319 -4.03302 -1.81108 0
M  V30 9858 N 919.378 -0.300708 -1.54705 0
M  V30 9859 C 920.655 0.361757 -1.92226 0
M  V30 9860 C 921.035 1.71714 -1.2279 0
M  V30 9861 O 920.383 2.2559 -0.363542 0
M  V30 9862 C 920.593 0.476699 -3.45729 0
M  V30 9863 C 921.941 0.7477 -4.17965 0
M  V30 9864 O 922.965 0.560521 -3.51762 0
M  V30 9865 O 921.824 1.10724 -5.35166 0
M  V30 9866 H 918.918 0.202213 -0.801897 0
M  V30 9867 H 921.464 -0.348746 -1.66078 0
M  V30 9868 H 920.236 -0.476132 -3.88392 0
M  V30 9869 H 919.859 1.23568 -3.77911 0
M  V30 9870 N 920.856 1.57574 -0.0284266 0
M  V30 9871 C 921.804 2.11332 0.971675 0
M  V30 9872 C 922.798 1.03974 1.33738 0
M  V30 9873 O 924.004 1.22409 1.31969 0
M  V30 9874 H 920.379 0.675174 0.331125 0
M  V30 9875 H 922.35 2.943 0.49296 0
M  V30 9876 C 921.099 2.65496 2.24516 0
M  V30 9877 H 920.422 3.47753 1.9725 0
M  V30 9878 H 921.862 3.06757 2.92705 0
M  V30 9879 C 920.321 1.58207 2.97443 0
M  V30 9880 O 920.851 0.981496 3.89525 0
M  V30 9881 N 919.057 1.30269 2.59766 0
M  V30 9882 H 918.604 1.79294 1.84963 0
M  V30 9883 H 918.562 0.587085 3.0887 0
M  V30 9884 N 922.334 -0.244713 1.55689 0
M  V30 9885 C 923.611 -0.995407 1.68378 0
M  V30 9886 C 923.991 -2.03288 0.568949 0
M  V30 9887 O 923.339 -2.24469 -0.427299 0
M  V30 9888 C 923.549 -1.62678 3.08767 0
M  V30 9889 C 924.897 -2.1278 3.67437 0
M  V30 9890 O 925.921 -1.72614 3.11581 0
M  V30 9891 O 924.78 -2.86536 4.65359 0
M  V30 9892 H 921.874 -0.463476 0.684923 0
M  V30 9893 H 924.42 -0.238326 1.68018 0
M  V30 9894 H 923.192 -0.876469 3.81358 0
M  V30 9895 H 922.815 -2.45 3.13146 0
M  V30 9896 N 923.813 -1.49104 -0.510467 0
M  V30 9897 C 925.06 -1.58112 -1.26518 0
M  V30 9898 C 925.388 -0.263603 -1.92705 0
M  V30 9899 O 924.643 0.747743 -1.80852 0
M  V30 9900 C 924.942 -2.68259 -2.36161 0
M  V30 9901 C 924.608 -4.10069 -1.87495 0
M  V30 9902 C 923.27 -4.48662 -1.73942 0
M  V30 9903 C 925.622 -4.98859 -1.5096 0
M  V30 9904 C 922.95 -5.73829 -1.22217 0
M  V30 9905 C 925.302 -6.24535 -1.00691 0
M  V30 9906 C 923.966 -6.61967 -0.857691 0
M  V30 9907 H 923.236 -0.578574 -0.462962 0
M  V30 9908 H 925.883 -1.82899 -0.567475 0
M  V30 9909 H 924.188 -2.37407 -3.11681 0
M  V30 9910 H 925.885 -2.7244 -2.9424 0
M  V30 9911 H 922.475 -3.79601 -1.99001 0
M  V30 9912 H 926.659 -4.69706 -1.60282 0
M  V30 9913 H 921.915 -6.01539 -1.09368 0
M  V30 9914 H 926.089 -6.9272 -0.71498 0
M  V30 9915 H 923.716 -7.58839 -0.454702 0
M  V30 9916 N 925.291 0.760815 -1.38019 0
M  V30 9917 C 926.702 1.33773 -1.30237 0
M  V30 9918 C 927.053 1.96148 0.0451153 0
M  V30 9919 O 926.178 1.94574 0.9471 0
M  V30 9920 C 926.773 2.43227 -2.35851 0
M  V30 9921 C 925.332 2.96659 -2.31669 0
M  V30 9922 C 924.479 1.69972 -2.191 0
M  V30 9923 H 927.43 0.560237 -1.48482 0
M  V30 9924 H 927.451 3.22985 -2.01149 0
M  V30 9925 H 926.963 1.978 -3.33911 0
M  V30 9926 H 925.064 3.46433 -1.37167 0
M  V30 9927 H 925.177 3.51529 -3.25521 0
M  V30 9928 H 923.541 1.9332 -1.65829 0
M  V30 9929 H 924.324 1.26633 -3.19091 0
M  V30 9930 N 926.769 1.22769 0.988202 0
M  V30 9931 C 927.699 1.02627 2.09738 0
M  V30 9932 C 928.68 -0.0543211 1.70013 0
M  V30 9933 O 929.865 0.108811 1.93895 0
M  V30 9934 C 926.995 0.608302 3.41931 0
M  V30 9935 C 925.949 1.63536 3.95525 0
M  V30 9936 C 925.275 1.07308 5.23822 0
M  V30 9937 C 926.575 3.02649 4.25677 0
M  V30 9938 H 928.269 1.954 2.26847 0
M  V30 9939 H 925.815 0.940888 1.09011 0
M  V30 9940 H 927.768 0.454478 4.18942 0
M  V30 9941 H 926.492 -0.355095 3.24664 0
M  V30 9942 H 925.151 1.77704 3.20651 0
M  V30 9943 H 924.799 0.100894 5.02899 0
M  V30 9944 H 924.499 1.75925 5.60646 0
M  V30 9945 H 926.023 0.930938 6.03462 0
M  V30 9946 H 927.437 2.91828 4.93467 0
M  V30 9947 H 925.834 3.68434 4.73684 0
M  V30 9948 H 926.904 3.52228 3.33262 0
M  V30 9949 N 928.247 -1.18576 1.03814 0
M  V30 9950 C 929.524 -1.8433 0.654358 0
M  V30 9951 C 929.904 -1.92504 -0.866338 0
M  V30 9952 O 929.252 -1.44904 -1.76678 0
M  V30 9953 C 929.462 -3.22778 1.32723 0
M  V30 9954 C 930.81 -3.98841 1.45641 0
M  V30 9955 O 931.834 -3.32209 1.28514 0
M  V30 9956 O 930.693 -5.18219 1.73526 0
M  V30 9957 H 927.787 -0.794766 0.228638 0
M  V30 9958 H 930.333 -1.25989 1.13687 0
M  V30 9959 H 929.105 -3.11717 2.36534 0
M  V30 9960 H 928.728 -3.88772 0.833176 0
M  V30 9961 N 929.725 -0.817259 -1.34754 0
M  V30 9962 C 930.673 -0.223352 -2.31525 0
M  V30 9963 C 931.667 0.632785 -1.57137 0
M  V30 9964 O 932.873 0.524757 -1.72181 0
M  V30 9965 H 929.248 -0.0534765 -0.750096 0
M  V30 9966 H 931.219 -1.05446 -2.79148 0
M  V30 9967 C 929.968 0.604784 -3.424 0
M  V30 9968 H 929.291 -0.0446664 -3.99775 0
M  V30 9969 H 930.731 0.986543 -4.12363 0
M  V30 9970 C 929.19 1.77478 -2.86362 0
M  V30 9971 O 929.72 2.87273 -2.8078 0
M  V30 9972 N 927.926 1.58971 -2.43263 0
M  V30 9973 H 927.473 0.696598 -2.48003 0
M  V30 9974 H 927.431 2.37408 -2.06119 0
M  V30 9975 N 931.203 1.46865 -0.571711 0
M  V30 9976 C 932.443 2.04324 -0.0556487 0
M  V30 9977 C 932.807 1.43486 1.27576 0
M  V30 9978 O 934.008 1.92079 1.8804 0
M  V30 9979 C 932.279 3.57394 0.0206263 0
M  V30 9980 S 933.838 4.36159 0.480709 0
M  V30 9981 H 930.656 0.710273 -0.0321467 0
M  V30 9982 H 933.258 1.8005 -0.761725 0
M  V30 9983 H 931.962 3.99193 -0.952509 0
M  V30 9984 H 931.493 3.86188 0.749812 0
M  V30 9985 H 933.508 4.6478 1.73763 0
M  V30 9986 N 932.681 0.308908 1.54543 0
M  V30 9987 C 933.611 -0.556657 2.26768 0
M  V30 9988 C 934.592 -1.13145 1.27013 0
M  V30 9989 O 935.777 -1.15931 1.558 0
M  V30 9990 C 932.907 -1.72481 3.01443 0
M  V30 9991 C 931.861 -1.28001 4.08411 0
M  V30 9992 C 931.187 -2.53395 4.70845 0
M  V30 9993 C 932.487 -0.405497 5.20724 0
M  V30 9994 H 934.181 0.0457618 2.99365 0
M  V30 9995 H 931.727 0.0234495 1.43981 0
M  V30 9996 H 933.68 -2.3365 3.50693 0
M  V30 9997 H 932.404 -2.35359 2.26437 0
M  V30 9998 H 931.063 -0.69133 3.60022 0
M  V30 9999 H 930.711 -3.14604 3.92471 0
M  V30 10000 H 930.411 -2.2433 5.43093 0
M  V30 10001 H 931.935 -3.15352 5.22863 0
M  V30 10002 H 933.349 -0.923076 5.6582 0
M  V30 10003 H 931.746 -0.208282 5.99738 0
M  V30 10004 H 932.816 0.567412 4.81569 0
M  V30 10005 N 934.159 -1.57557 0.0367827 0
M  V30 10006 C 935.405 -1.93224 -0.635306 0
M  V30 10007 C 935.76 -0.914194 -1.69293 0
M  V30 10008 O 935.053 0.0686974 -1.91477 0
M  V30 10009 C 935.247 -3.33387 -1.28794 0
M  V30 10010 C 935.076 -4.48731 -0.295055 0
M  V30 10011 C 933.846 -5.05185 0.10783 0
M  V30 10012 C 936.044 -5.12294 0.453749 0
M  V30 10013 N 934.026 -6.04054 1.09508 0
M  V30 10014 C 935.397 -6.06335 1.29452 0
M  V30 10015 C 937.452 -4.95244 0.513622 0
M  V30 10016 C 936.155 -6.85158 2.18977 0
M  V30 10017 C 938.181 -5.74682 1.39624 0
M  V30 10018 C 937.543 -6.68344 2.22477 0
M  V30 10019 H 933.642 -0.754772 -0.204555 0
M  V30 10020 H 936.226 -1.94413 0.105751 0
M  V30 10021 H 934.397 -3.33002 -1.9991 0
M  V30 10022 H 936.129 -3.56381 -1.91767 0
M  V30 10023 H 932.884 -4.7284 -0.268192 0
M  V30 10024 H 933.308 -6.5818 1.58518 0
M  V30 10025 H 937.95 -4.2265 -0.112699 0
M  V30 10026 H 935.668 -7.57052 2.82661 0
M  V30 10027 H 939.254 -5.6352 1.44696 0
M  V30 10028 H 938.134 -7.2874 2.89668 0
M  V30 10029 N 935.637 0.236453 -1.55816 0
M  V30 10030 C 936.569 1.31602 -1.87653 0
M  V30 10031 C 937.582 1.43782 -0.763584 0
M  V30 10032 O 938.771 1.44945 -1.04178 0
M  V30 10033 C 935.871 2.69342 -2.05689 0
M  V30 10034 C 935.044 2.79298 -3.36617 0
M  V30 10035 C 934.103 3.97952 -3.44268 0
M  V30 10036 O 933.129 3.86989 -4.17406 0
M  V30 10037 N 934.331 5.11594 -2.74321 0
M  V30 10038 H 937.096 1.04623 -2.80845 0
M  V30 10039 H 934.657 0.426534 -1.5618 0
M  V30 10040 H 936.649 3.47074 -2.08138 0
M  V30 10041 H 935.219 2.88984 -1.19192 0
M  V30 10042 H 934.439 1.8816 -3.46395 0
M  V30 10043 H 935.727 2.82908 -4.22895 0
M  V30 10044 H 935.125 5.23394 -2.14651 0
M  V30 10045 H 933.682 5.87422 -2.8245 0
M  V30 10046 N 937.115 1.49373 0.502552 0
M  V30 10047 C 938.361 1.59016 1.25864 0
M  V30 10048 C 938.694 0.27532 1.92238 0
M  V30 10049 O 937.969 -0.720988 1.80643 0
M  V30 10050 C 938.252 2.74828 2.32683 0
M  V30 10051 C 938.105 4.16102 1.7082 0
M  V30 10052 C 939.424 2.86288 3.34256 0
M  V30 10053 H 936.543 0.578798 0.456248 0
M  V30 10054 H 939.185 1.81651 0.557032 0
M  V30 10055 H 937.335 2.5566 2.92524 0
M  V30 10056 H 939.007 4.46782 1.14818 0
M  V30 10057 H 937.25 4.21822 1.01238 0
M  V30 10058 H 937.921 4.93006 2.48292 0
M  V30 10059 H 940.397 3.03733 2.84404 0
M  V30 10060 H 939.273 3.69001 4.06362 0
M  V30 10061 H 939.534 1.95576 3.96488 0
M  V30 10062 N 938.594 -0.753485 1.38421 0
M  V30 10063 C 939.84 -1.51485 1.34834 0
M  V30 10064 C 940.173 -1.94102 -0.0615381 0
M  V30 10065 O 939.448 -1.65439 -1.02274 0
M  V30 10066 C 939.731 -2.76736 2.30411 0
M  V30 10067 C 939.584 -2.40256 3.80259 0
M  V30 10068 C 940.903 -3.7876 2.24119 0
M  V30 10069 H 938.022 -0.549534 0.491102 0
M  V30 10070 H 940.664 -0.863006 1.6927 0
M  V30 10071 H 938.814 -3.32357 2.01175 0
M  V30 10072 H 940.486 -1.90409 4.20169 0
M  V30 10073 H 938.729 -1.72714 3.97935 0
M  V30 10074 H 939.4 -3.29869 4.42595 0
M  V30 10075 H 941.876 -3.32679 2.49928 0
M  V30 10076 H 940.752 -4.64092 2.93104 0
M  V30 10077 H 941.013 -4.24352 1.24006 0
M  V30 10078 N 940.072 -1.23292 -0.981677 0
M  V30 10079 C 940.982 -1.02964 -2.10798 0
M  V30 10080 C 941.998 0.0254674 -1.73981 0
M  V30 10081 O 943.174 -0.169706 -2.00684 0
M  V30 10082 C 940.239 -0.621934 -3.41076 0
M  V30 10083 C 939.3 -1.75194 -3.91926 0
M  V30 10084 C 938.533 -1.36359 -5.15986 0
M  V30 10085 O 938.756 -0.247265 -5.69864 0
M  V30 10086 O 937.69 -2.18421 -5.60871 0
M  V30 10087 H 941.516 -1.97354 -2.30836 0
M  V30 10088 H 939.101 -1.01986 -1.09175 0
M  V30 10089 H 940.983 -0.405446 -4.19445 0
M  V30 10090 H 939.658 0.29299 -3.22371 0
M  V30 10091 H 938.565 -2.02305 -3.1468 0
M  V30 10092 H 939.898 -2.64513 -4.15083 0
M  V30 10093 N 941.55 1.18024 -1.04442 0
M  V30 10094 C 942.827 1.8398 -0.664125 0
M  V30 10095 C 943.207 1.92961 0.856116 0
M  V30 10096 O 942.555 1.45839 1.75907 0
M  V30 10097 C 942.765 3.22069 -1.34433 0
M  V30 10098 C 944.113 3.98063 -1.47754 0
M  V30 10099 O 945.137 3.31523 -1.30274 0
M  V30 10100 O 943.996 5.17291 -1.76272 0
M  V30 10101 H 941.09 0.793543 -0.23285 0
M  V30 10102 H 943.636 1.25385 -1.14354 0
M  V30 10103 H 942.408 3.10458 -2.38184 0
M  V30 10104 H 942.031 3.88325 -0.853782 0
M  V30 10105 N 943.028 0.824394 1.34319 0
M  V30 10106 C 944.256 0.426194 2.02463 0
M  V30 10107 C 944.671 -0.968298 1.62078 0
M  V30 10108 O 944.028 -1.62689 0.82696 0
M  V30 10109 C 944.079 0.520465 3.57734 0
M  V30 10110 O 943.8 1.86 3.96656 0
M  V30 10111 C 945.301 0.117353 4.43145 0
M  V30 10112 H 942.521 0.170864 0.648881 0
M  V30 10113 H 945.065 1.11296 1.71562 0
M  V30 10114 H 943.22 -0.118233 3.8722 0
M  V30 10115 H 943.634 1.83528 4.91343 0
M  V30 10116 H 945.108 0.234395 5.51502 0
M  V30 10117 H 945.585 -0.939271 4.29039 0
M  V30 10118 H 946.191 0.729908 4.1899 0
M  V30 10119 N 944.506 -1.46559 0.579492 0
M  V30 10120 C 945.436 -2.33059 -0.143437 0
M  V30 10121 C 946.417 -1.4515 -0.886868 0
M  V30 10122 O 947.602 -1.73973 -0.862961 0
M  V30 10123 C 944.732 -3.27364 -1.15973 0
M  V30 10124 C 943.686 -4.24689 -0.531348 0
M  V30 10125 C 943.012 -5.08479 -1.65388 0
M  V30 10126 C 944.312 -5.1961 0.529391 0
M  V30 10127 H 946.006 -2.93753 0.578762 0
M  V30 10128 H 943.552 -1.41256 0.279775 0
M  V30 10129 H 945.505 -3.86732 -1.67382 0
M  V30 10130 H 944.229 -2.64771 -1.91217 0
M  V30 10131 H 942.888 -3.6658 -0.0383749 0
M  V30 10132 H 942.536 -4.42273 -2.3959 0
M  V30 10133 H 942.236 -5.74387 -1.23909 0
M  V30 10134 H 943.76 -5.70709 -2.17079 0
M  V30 10135 H 945.174 -5.73212 0.100506 0
M  V30 10136 H 943.571 -5.93843 0.86432 0
M  V30 10137 H 944.641 -4.63737 1.4169 0
M  V30 10138 N 945.984 -0.3171 -1.54377 0
M  V30 10139 C 946.894 0.560867 -2.27797 0
M  V30 10140 C 947.91 1.13473 -1.31908 0
M  V30 10141 O 949.086 1.15608 -1.64914 0
M  V30 10142 C 946.151 1.70886 -3.0166 0
M  V30 10143 C 945.212 1.16745 -4.13121 0
M  V30 10144 C 944.445 2.26073 -4.83453 0
M  V30 10145 O 944.668 3.46292 -4.53252 0
M  V30 10146 O 943.602 1.91856 -5.70504 0
M  V30 10147 H 947.428 -0.035193 -3.0368 0
M  V30 10148 H 945.013 -0.0830062 -1.49169 0
M  V30 10149 H 946.895 2.37736 -3.47936 0
M  V30 10150 H 945.57 2.29122 -2.28658 0
M  V30 10151 H 944.477 0.464224 -3.71209 0
M  V30 10152 H 945.81 0.630307 -4.88147 0
M  V30 10153 N 947.462 1.57535 -0.0451378 0
M  V30 10154 C 948.392 2.14208 0.929372 0
M  V30 10155 C 949.373 1.06221 1.32858 0
M  V30 10156 O 950.558 1.34132 1.40436 0
M  V30 10157 C 947.688 2.68217 2.20629 0
M  V30 10158 C 946.642 3.81134 1.94734 0
M  V30 10159 C 945.968 4.21636 3.28828 0
M  V30 10160 C 947.268 5.06531 1.27374 0
M  V30 10161 H 948.962 2.95886 0.457348 0
M  V30 10162 H 946.508 1.42332 0.218544 0
M  V30 10163 H 948.461 3.06502 2.89196 0
M  V30 10164 H 947.185 1.83722 2.70026 0
M  V30 10165 H 945.844 3.43312 1.28579 0
M  V30 10166 H 945.492 3.34099 3.76014 0
M  V30 10167 H 945.192 4.97736 3.12302 0
M  V30 10168 H 946.716 4.62516 3.98637 0
M  V30 10169 H 948.13 5.423 1.85967 0
M  V30 10170 H 946.527 5.87735 1.21194 0
M  V30 10171 H 947.597 4.84261 0.248913 0
M  V30 10172 N 948.94 -0.228186 1.55939 0
M  V30 10173 C 949.87 -1.28607 1.94891 0
M  V30 10174 C 950.851 -1.49236 0.816245 0
M  V30 10175 O 952.036 -1.61531 1.07803 0
M  V30 10176 C 949.166 -2.63719 2.25986 0
M  V30 10177 C 948.12 -2.57757 3.4168 0
M  V30 10178 C 947.446 -3.96837 3.58364 0
M  V30 10179 C 948.746 -2.13116 4.76843 0
M  V30 10180 H 950.44 -0.962531 2.83506 0
M  V30 10181 H 947.986 -0.461577 1.36402 0
M  V30 10182 H 949.939 -3.37878 2.51826 0
M  V30 10183 H 948.663 -2.97747 1.34217 0
M  V30 10184 H 947.322 -1.86055 3.15878 0
M  V30 10185 H 946.97 -4.28162 2.63982 0
M  V30 10186 H 946.67 -3.93731 4.36176 0
M  V30 10187 H 948.194 -4.72668 3.86545 0
M  V30 10188 H 949.608 -2.77015 5.01932 0
M  V30 10189 H 948.005 -2.21083 5.57891 0
M  V30 10190 H 949.075 -1.08326 4.72645 0
M  V30 10191 N 950.418 -1.49637 -0.494624 0
M  V30 10192 C 951.366 -1.6727 -1.61627 0
M  V30 10193 C 952.36 -0.538587 -1.6061 0
M  V30 10194 O 953.566 -0.718411 -1.65042 0
M  V30 10195 H 949.941 -0.527557 -0.535899 0
M  V30 10196 H 951.912 -2.61405 -1.43909 0
M  V30 10197 C 950.661 -1.7624 -2.99725 0
M  V30 10198 H 949.984 -2.62886 -3.01216 0
M  V30 10199 H 951.424 -1.92611 -3.77726 0
M  V30 10200 C 949.883 -0.508632 -3.33038 0
M  V30 10201 O 950.413 0.362828 -4.00058 0
M  V30 10202 N 948.619 -0.369667 -2.88239 0
M  V30 10203 H 948.166 -1.07984 -2.33875 0
M  V30 10204 H 948.124 0.468112 -3.10896 0
M  V30 10205 N 951.896 0.746133 -1.38819 0
M  V30 10206 C 953.312 1.0502 -1.20179 0
M  V30 10207 C 953.512 2.01423 -0.0556271 0
M  V30 10208 O 952.568 2.45359 0.59625 0
M  V30 10209 C 953.881 1.62315 -2.53129 0
M  V30 10210 C 955.429 1.74449 -2.59878 0
M  V30 10211 C 955.904 2.35155 -3.93022 0
M  V30 10212 N 957.395 2.42577 -3.94602 0
M  V30 10213 C 958.13 2.9046 -4.94389 0
M  V30 10214 N 957.626 3.38322 -6.04574 0
M  V30 10215 N 959.419 2.89568 -4.81775 0
M  V30 10216 H 951.57 0.106551 -2.12133 0
M  V30 10217 H 953.833 0.109897 -0.941609 0
M  V30 10218 H 953.539 0.98946 -3.37495 0
M  V30 10219 H 953.413 2.61276 -2.72057 0
M  V30 10220 H 955.8 2.36943 -1.75903 0
M  V30 10221 H 955.881 0.741721 -2.4481 0
M  V30 10222 H 955.525 1.73292 -4.77422 0
M  V30 10223 H 955.455 3.36088 -4.05404 0
M  V30 10224 H 957.946 2.08735 -3.15021 0
M  V30 10225 H 958.259 3.73336 -6.76639 0
M  V30 10226 H 956.604 3.3636 -6.08184 0
M  V30 10227 H 959.795 2.51492 -3.94803 0
M  V30 10228 H 959.968 3.26571 -5.59692 0
M  V30 10229 N 953.375 1.23811 0.975125 0
M  V30 10230 C 954.786 1.0675 1.53171 0
M  V30 10231 C 955.137 -0.363475 1.92804 0
M  V30 10232 O 954.262 -1.25089 1.76583 0
M  V30 10233 C 954.857 1.93161 2.78342 0
M  V30 10234 C 953.416 1.80346 3.30382 0
M  V30 10235 C 952.563 1.88544 2.03338 0
M  V30 10236 H 955.514 1.37396 0.79423 0
M  V30 10237 H 955.535 1.45951 3.51395 0
M  V30 10238 H 955.047 2.97302 2.49465 0
M  V30 10239 H 953.148 0.790077 3.64127 0
M  V30 10240 H 953.261 2.64026 3.99784 0
M  V30 10241 H 951.625 1.32186 2.17713 0
M  V30 10242 H 952.408 2.94252 1.76836 0
M  V30 10243 N 954.853 -1.17469 1.05066 0
M  V30 10244 C 956.081 -1.9162 0.780334 0
M  V30 10245 C 956.496 -1.76745 -0.663817 0
M  V30 10246 O 955.853 -1.10377 -1.45338 0
M  V30 10247 C 955.904 -3.42723 1.14992 0
M  V30 10248 O 955.625 -3.57139 2.53739 0
M  V30 10249 C 957.126 -4.33952 0.905549 0
M  V30 10250 H 954.346 -0.608022 0.283814 0
M  V30 10251 H 956.89 -1.4897 1.401 0
M  V30 10252 H 955.045 -3.83124 0.57403 0
M  V30 10253 H 955.459 -4.5075 2.68189 0
M  V30 10254 H 956.933 -5.38487 1.21391 0
M  V30 10255 H 957.41 -4.38911 -0.159295 0
M  V30 10256 H 958.016 -3.99263 1.46522 0
M  V30 10257 N 956.331 -0.831506 -1.3388 0
M  V30 10258 C 957.263 -0.216908 -2.28171 0
M  V30 10259 C 958.276 0.598141 -1.51414 0
M  V30 10260 O 959.465 0.426416 -1.73332 0
M  V30 10261 C 956.565 0.713831 -3.31297 0
M  V30 10262 C 955.738 -0.0602673 -4.37358 0
M  V30 10263 C 954.797 0.792696 -5.20195 0
M  V30 10264 O 953.823 0.234564 -5.68716 0
M  V30 10265 N 955.025 2.11119 -5.40748 0
M  V30 10266 H 957.79 -1.02704 -2.81553 0
M  V30 10267 H 955.351 -0.689272 -1.46495 0
M  V30 10268 H 957.343 1.28925 -3.83615 0
M  V30 10269 H 955.913 1.42469 -2.78247 0
M  V30 10270 H 955.133 -0.817041 -3.8564 0
M  V30 10271 H 956.421 -0.592822 -5.05335 0
M  V30 10272 H 955.819 2.58828 -5.03016 0
M  V30 10273 H 954.376 2.63527 -5.96151 0
M  V30 10274 N 957.809 1.4625 -0.587256 0
M  V30 10275 C 958.757 2.32076 0.156108 0
M  V30 10276 C 959.751 1.44756 0.879887 0
M  V30 10277 O 960.957 1.61356 0.797759 0
M  V30 10278 H 957.332 0.748808 0.0692098 0
M  V30 10279 H 959.303 2.9258 -0.586497 0
M  V30 10280 C 958.052 3.28008 1.15352 0
M  V30 10281 H 957.375 3.9518 0.60601 0
M  V30 10282 H 958.815 3.90832 1.64396 0
M  V30 10283 C 957.274 2.53691 2.21681 0
M  V30 10284 O 957.804 2.30329 3.29107 0
M  V30 10285 N 956.01 2.14174 1.96412 0
M  V30 10286 H 955.557 2.33374 1.09061 0
M  V30 10287 H 955.515 1.6477 2.67765 0
M  V30 10288 N 959.287 0.325282 1.54207 0
M  V30 10289 C 960.25 -0.527228 2.23054 0
M  V30 10290 C 961.25 -1.04217 1.22456 0
M  V30 10291 O 962.44 -0.934325 1.47024 0
M  V30 10292 C 959.572 -1.7325 2.93594 0
M  V30 10293 H 960.765 0.0746423 2.99807 0
M  V30 10294 H 958.318 0.0763872 1.56113 0
M  V30 10295 H 959.053 -2.37356 2.20981 0
M  V30 10296 H 958.838 -1.37065 3.67363 0
M  V30 10297 H 960.328 -2.3376 3.46043 0
M  V30 10298 N 960.765 -1.57509 0.0534917 0
M  V30 10299 C 962.181 -1.56696 -0.303067 0
M  V30 10300 C 962.381 -1.06135 -1.71282 0
M  V30 10301 O 961.437 -0.71899 -2.42047 0
M  V30 10302 C 962.75 -3.00421 -0.129418 0
M  V30 10303 C 964.298 -3.12358 -0.200346 0
M  V30 10304 C 964.773 -4.57967 -0.0551971 0
M  V30 10305 N 966.264 -4.63066 -0.111398 0
M  V30 10306 C 966.999 -5.73395 -0.0232344 0
M  V30 10307 N 966.495 -6.92701 0.11741 0
M  V30 10308 N 968.288 -5.62045 -0.078984 0
M  V30 10309 H 960.439 -1.88696 0.975064 0
M  V30 10310 H 962.702 -0.869072 0.378706 0
M  V30 10311 H 962.408 -3.41456 0.842653 0
M  V30 10312 H 962.282 -3.66563 -0.889476 0
M  V30 10313 H 964.669 -2.71221 -1.16289 0
M  V30 10314 H 964.75 -2.48891 0.590506 0
M  V30 10315 H 964.394 -4.9979 0.904034 0
M  V30 10316 H 964.324 -5.19443 -0.865223 0
M  V30 10317 H 966.815 -3.77263 -0.219256 0
M  V30 10318 H 967.128 -7.72597 0.177326 0
M  V30 10319 H 965.473 -6.94833 0.152526 0
M  V30 10320 H 968.664 -4.67725 -0.187434 0
M  V30 10321 H 968.837 -6.48 -0.00681731 0
M  V30 10322 N 962.243 0.219913 -1.56058 0
M  V30 10323 C 963.153 1.29349 -1.95719 0
M  V30 10324 C 964.169 1.5119 -0.861248 0
M  V30 10325 O 965.345 1.64289 -1.16495 0
M  V30 10326 C 962.41 2.6229 -2.26726 0
M  V30 10327 C 961.471 2.48738 -3.49897 0
M  V30 10328 C 960.704 3.75339 -3.79416 0
M  V30 10329 O 960.927 4.78427 -3.10586 0
M  V30 10330 O 959.861 3.72352 -4.72903 0
M  V30 10331 H 963.687 0.986979 -2.87215 0
M  V30 10332 H 961.272 0.42291 -1.43289 0
M  V30 10333 H 963.154 3.408 -2.47857 0
M  V30 10334 H 961.829 2.92619 -1.38404 0
M  V30 10335 H 960.736 1.68422 -3.34043 0
M  V30 10336 H 962.069 2.23347 -4.38608 0
M  V30 10337 N 963.721 1.49897 0.486681 0
M  V30 10338 C 964.949 1.63837 1.26353 0
M  V30 10339 C 965.364 0.315428 1.86146 0
M  V30 10340 O 964.721 -0.700831 1.68507 0
M  V30 10341 C 964.772 2.71792 2.38351 0
M  V30 10342 O 964.493 3.98956 1.81013 0
M  V30 10343 C 965.994 2.96566 3.2949 0
M  V30 10344 H 963.214 0.551158 0.382709 0
M  V30 10345 H 965.758 1.96023 0.582694 0
M  V30 10346 H 963.913 2.42344 3.02238 0
M  V30 10347 H 964.327 4.58536 2.54647 0
M  V30 10348 H 965.801 3.75803 4.04322 0
M  V30 10349 H 966.278 2.07031 3.87343 0
M  V30 10350 H 966.884 3.27485 2.71355 0
M  V30 10351 N 965.199 -0.738761 1.39212 0
M  V30 10352 C 966.109 -1.88324 1.39897 0
M  V30 10353 C 967.125 -1.71494 0.294229 0
M  V30 10354 O 968.301 -1.94162 0.535087 0
M  V30 10355 C 965.366 -3.23871 1.23726 0
M  V30 10356 C 964.427 -3.53121 2.44139 0
M  V30 10357 C 963.66 -4.82202 2.2873 0
M  V30 10358 O 963.883 -5.55649 1.28879 0
M  V30 10359 O 962.817 -5.11265 3.17634 0
M  V30 10360 H 966.643 -1.90701 2.36362 0
M  V30 10361 H 964.228 -0.886067 1.20288 0
M  V30 10362 H 966.11 -4.04882 1.16826 0
M  V30 10363 H 964.785 -3.22274 0.303551 0
M  V30 10364 H 963.692 -2.72212 2.56615 0
M  V30 10365 H 965.025 -3.59495 3.36191 0
M  V30 10366 N 966.677 -1.24326 -0.968545 0
M  V30 10367 C 967.64 -1.03591 -2.04454 0
M  V30 10368 C 968.64 0.0064809 -1.60799 0
M  V30 10369 O 969.83 -0.234404 -1.72616 0
M  V30 10370 C 966.962 -0.56992 -3.36102 0
M  V30 10371 H 968.155 -1.99092 -2.24282 0
M  V30 10372 H 965.708 -1.06537 -1.14366 0
M  V30 10373 H 966.443 0.388325 -3.21967 0
M  V30 10374 H 966.228 -1.32227 -3.69132 0
M  V30 10375 H 967.718 -0.445854 -4.15213 0
M  V30 10376 N 968.156 1.1691 -1.05688 0
M  V30 10377 C 969.567 1.68915 -0.795273 0
M  V30 10378 C 969.918 1.83968 0.681925 0
M  V30 10379 O 969.043 1.53083 1.52953 0
M  V30 10380 C 969.638 3.06814 -1.43703 0
M  V30 10381 C 968.197 3.55965 -1.22335 0
M  V30 10382 C 967.344 2.32099 -1.51741 0
M  V30 10383 H 970.295 1.01357 -1.22116 0
M  V30 10384 H 970.316 3.70907 -0.849016 0
M  V30 10385 H 969.828 2.95826 -2.51214 0
M  V30 10386 H 967.929 3.72222 -0.16771 0
M  V30 10387 H 968.042 4.38427 -1.9318 0
M  V30 10388 H 966.406 2.36811 -0.937696 0
M  V30 10389 H 967.189 2.23715 -2.60397 0
M  V30 10390 O 969.673 0.973286 1.28877 0
M  V30 10391 H 970.364 0.614502 1.83694 0
M  V30 END ATOM
M  V30 BEGIN BOND
M  V30 END BOND
M  V30 END CTAB
M  END
$$$$
