drugbank_target|P43003 Excitatory amino acid transporter 1 (DB00142)
 OpenBabel12092119483D

  0  0  0     0  0            999 V3000
M  V30 BEGIN CTAB
M  V30 COUNTS 8554 8620 0 0 0
M  V30 BEGIN ATOM
M  V30 1 H -0.908 1.98254 -0.117106 0
M  V30 2 N 0 1.576 0 0
M  V30 3 C 0.933 2.03868 1.02534 0
M  V30 4 C 1.911 0.928543 1.3348 0
M  V30 5 O 3.095 1.19667 1.45644 0
M  V30 6 C 0.222 2.43627 2.35294 0
M  V30 7 C -0.732 3.65373 2.2001 0
M  V30 8 S 0.101 5.13292 1.52614 0
M  V30 9 C 1.257 5.56322 2.86805 0
M  V30 10 H 1.49 2.90518 0.631377 0
M  V30 11 H -0.977 1.52953 0.210867 0
M  V30 12 H 0.981 2.67203 3.11629 0
M  V30 13 H -0.358 1.57376 2.7183 0
M  V30 14 H -1.165 3.90944 3.18086 0
M  V30 15 H -1.563 3.418 1.51819 0
M  V30 16 H 0.729 5.58782 3.83104 0
M  V30 17 H 1.672 6.56266 2.65933 0
M  V30 18 H 2.08 4.83886 2.90714 0
M  V30 19 N 1.4781 -0.272755 1.55222 0
M  V30 20 C 2.7061 -1.02255 1.79865 0
M  V30 21 C 3.1211 -1.79924 0.572088 0
M  V30 22 O 2.4781 -1.76638 -0.458842 0
M  V30 23 C 2.5291 -1.98094 3.02392 0
M  V30 24 O 2.2501 -1.23572 4.20311 0
M  V30 25 C 3.7511 -2.84884 3.39641 0
M  V30 26 H 0.9711 -0.302057 0.599168 0
M  V30 27 H 3.5151 -0.303465 2.02236 0
M  V30 28 H 1.6701 -2.65465 2.82147 0
M  V30 29 H 2.0841 -1.88172 4.89583 0
M  V30 30 H 3.5581 -3.47927 4.28545 0
M  V30 31 H 4.0351 -3.54665 2.59055 0
M  V30 32 H 4.6411 -2.23003 3.62146 0
M  V30 33 N 2.9562 -1.48159 -0.537278 0
M  V30 34 C 3.9032 -1.62138 -1.64256 0
M  V30 35 C 4.8732 -0.463668 -1.59497 0
M  V30 36 O 6.0582 -0.686241 -1.78032 0
M  V30 37 C 3.1982 -1.66028 -3.02537 0
M  V30 38 C 2.3112 -2.92855 -3.17585 0
M  V30 39 C 1.4462 -2.87952 -4.46382 0
M  V30 40 C 0.4852 -4.09516 -4.54932 0
M  V30 41 N -0.3778 -4.02733 -5.75109 0
M  V30 42 H 4.4622 -2.56529 -1.51647 0
M  V30 43 H 1.9992 -1.27224 -0.738414 0
M  V30 44 H 3.9572 -1.66265 -3.82638 0
M  V30 45 H 2.5872 -0.751331 -3.13934 0
M  V30 46 H 1.6392 -3.02395 -2.30784 0
M  V30 47 H 2.9512 -3.82822 -3.19764 0
M  V30 48 H 2.1052 -2.8655 -5.34765 0
M  V30 49 H 0.8442 -1.95702 -4.46712 0
M  V30 50 H -0.1508 -4.11201 -3.64957 0
M  V30 51 H 1.0742 -5.02917 -4.56346 0
M  V30 52 H -0.9798 -3.13299 -5.76351 0
M  V30 53 H -1.0628 -4.86397 -5.78752 0
M  V30 54 H 0.2052 -4.05379 -6.65799 0
M  V30 55 N 4.4343 0.785586 -1.36625 0
M  V30 56 C 5.6593 1.57963 -1.34397 0
M  V30 57 C 6.0843 1.87964 0.071526 0
M  V30 58 O 5.4423 1.48182 1.0446 0
M  V30 59 C 5.4903 2.87511 -2.17646 0
M  V30 60 O 4.5943 3.81281 -1.57158 0
M  V30 61 H 3.9353 0.479014 -0.459828 0
M  V30 62 H 6.4653 0.973411 -1.79961 0
M  V30 63 H 6.4753 3.36745 -2.30362 0
M  V30 64 H 5.1503 2.65002 -3.20541 0
M  V30 65 H 3.7273 3.39885 -1.53403 0
M  V30 66 N 5.9124 1.20967 1.01018 0
M  V30 67 C 6.8604 0.961223 2.1181 0
M  V30 68 C 7.8544 -0.0897034 1.69162 0
M  V30 69 O 9.0604 0.0612271 1.79896 0
M  V30 70 H 5.4354 0.29355 0.692338 0
M  V30 71 H 7.4064 1.90178 2.29946 0
M  V30 72 C 6.1554 0.536854 3.4353 0
M  V30 73 H 5.4784 1.33713 3.76777 0
M  V30 74 H 6.9184 0.402286 4.22087 0
M  V30 75 C 5.3774 -0.751574 3.2841 0
M  V30 76 O 5.9074 -1.80841 3.58691 0
M  V30 77 N 4.1134 -0.716079 2.81639 0
M  V30 78 H 3.6604 0.144236 2.57196 0
M  V30 79 H 3.6184 -1.57847 2.71904 0
M  V30 80 N 7.3905 -1.2043 1.01659 0
M  V30 81 C 8.6385 -1.89423 0.704522 0
M  V30 82 C 8.9595 -1.79231 -0.768197 0
M  V30 83 O 8.2295 -1.1947 -1.55254 0
M  V30 84 H 6.8095 -0.701178 0.257602 0
M  V30 85 H 9.4715 -1.4626 1.28818 0
M  V30 86 H 8.5675 -2.96052 0.987916 0
M  V30 87 N 8.8686 -0.792821 -1.36206 0
M  V30 88 C 9.7786 -0.194808 -2.3379 0
M  V30 89 C 10.7946 0.654869 -1.61206 0
M  V30 90 O 11.9706 0.569856 -1.9317 0
M  V30 91 C 9.0356 0.657721 -3.40404 0
M  V30 92 C 8.0966 -0.210849 -4.28782 0
M  V30 93 C 7.3296 0.601086 -5.30304 0
M  V30 94 O 7.5526 1.83682 -5.40016 0
M  V30 95 O 6.4866 -0.000808277 -6.019 0
M  V30 96 H 10.3126 -1.00172 -2.86704 0
M  V30 97 H 7.8976 -0.554341 -1.38735 0
M  V30 98 H 9.7796 1.14375 -4.05581 0
M  V30 99 H 8.4546 1.44247 -2.89784 0
M  V30 100 H 7.3616 -0.743714 -3.66633 0
M  V30 101 H 8.6946 -0.959195 -4.82763 0
M  V30 102 N 10.3467 1.47872 -0.545128 0
M  V30 103 C 11.2567 2.33633 0.212746 0
M  V30 104 C 12.2727 1.4744 0.923983 0
M  V30 105 O 13.4487 1.80393 0.895572 0
M  V30 106 C 10.5137 3.23884 1.23693 0
M  V30 107 C 9.5747 4.25961 0.534417 0
M  V30 108 C 8.8077 5.11899 1.5098 0
M  V30 109 O 9.0307 5.00077 2.7437 0
M  V30 110 O 7.9647 5.92831 1.0409 0
M  V30 111 H 11.7907 2.99714 -0.490416 0
M  V30 112 H 9.3757 1.46235 -0.305871 0
M  V30 113 H 11.2577 3.79666 1.82843 0
M  V30 114 H 9.9327 2.60446 1.92222 0
M  V30 115 H 8.8397 3.73972 -0.0979679 0
M  V30 116 H 10.1727 4.92079 -0.109213 0
M  V30 117 N 11.8248 0.280983 1.55075 0
M  V30 118 C 13.2358 -0.215629 1.85451 0
M  V30 119 C 13.5868 -1.54991 1.203 0
M  V30 120 O 12.7118 -2.10699 0.493435 0
M  V30 121 C 13.3068 -0.398026 3.36454 0
M  V30 122 C 11.8658 -0.838866 3.66933 0
M  V30 123 C 11.0128 0.064458 2.77225 0
M  V30 124 H 13.9638 0.502601 1.50531 0
M  V30 125 H 13.9848 -1.23569 3.59876 0
M  V30 126 H 13.4968 0.573241 3.83843 0
M  V30 127 H 11.5978 -1.8214 3.25048 0
M  V30 128 H 11.7108 -0.672123 4.74362 0
M  V30 129 H 10.0748 -0.452863 2.50642 0
M  V30 130 H 10.8578 1.03172 3.2743 0
M  V30 131 N 13.3029 -1.57598 0.00835791 0
M  V30 132 C 14.2499 -2.08945 -0.980346 0
M  V30 133 C 15.2199 -0.986738 -1.33614 0
M  V30 134 O 16.4049 -1.25968 -1.43306 0
M  V30 135 C 13.5449 -2.60425 -2.26435 0
M  V30 136 C 12.6579 -3.84628 -1.96685 0
M  V30 137 C 11.7929 -4.24579 -3.19228 0
M  V30 138 C 10.8319 -5.41596 -2.85202 0
M  V30 139 N 9.9689 -5.768 -4.00307 0
M  V30 140 H 14.8089 -2.93148 -0.535551 0
M  V30 141 H 12.3459 -1.44912 -0.252776 0
M  V30 142 H 14.3039 -2.88354 -3.01509 0
M  V30 143 H 12.9339 -1.79083 -2.68568 0
M  V30 144 H 11.9859 -3.63556 -1.11942 0
M  V30 145 H 13.2979 -4.69796 -1.67611 0
M  V30 146 H 12.4519 -4.53834 -4.02641 0
M  V30 147 H 11.1909 -3.38137 -3.51447 0
M  V30 148 H 10.1959 -5.12056 -2.00198 0
M  V30 149 H 11.4209 -6.29721 -2.54222 0
M  V30 150 H 9.3669 -4.93316 -4.32407 0
M  V30 151 H 9.2839 -6.5656 -3.74786 0
M  V30 152 H 10.5519 -6.10652 -4.84484 0
M  V30 153 N 14.781 0.264519 -1.55364 0
M  V30 154 C 15.714 1.35297 -1.83766 0
M  V30 155 C 16.692 1.47171 -0.691336 0
M  V30 156 O 17.876 1.63663 -0.935238 0
M  V30 157 C 15.003 2.72847 -2.00679 0
M  V30 158 C 14.049 2.78214 -3.23263 0
M  V30 159 S 14.882 2.36601 -4.80396 0
M  V30 160 C 16.038 3.7611 -5.00292 0
M  V30 161 H 16.271 1.11003 -2.758 0
M  V30 162 H 13.804 0.464596 -1.47244 0
M  V30 163 H 15.762 3.52057 -2.11108 0
M  V30 164 H 14.423 2.94388 -1.09518 0
M  V30 165 H 13.616 3.7919 -3.3201 0
M  V30 166 H 13.218 2.07034 -3.11469 0
M  V30 167 H 15.51 4.71457 -4.86554 0
M  V30 168 H 16.453 3.7231 -6.02321 0
M  V30 169 H 16.861 3.67806 -4.28228 0
M  V30 170 N 16.2591 1.48442 0.529413 0
M  V30 171 C 17.5071 1.56179 1.28267 0
M  V30 172 C 17.8281 0.237721 1.93546 0
M  V30 173 O 17.0981 -0.740779 1.81354 0
M  V30 174 H 15.6781 0.575367 0.476405 0
M  V30 175 H 18.3401 1.84909 0.61602 0
M  V30 176 H 17.4361 2.34312 2.06165 0
M  V30 177 N 17.7372 -0.778329 1.37039 0
M  V30 178 C 18.9852 -1.53361 1.31623 0
M  V30 179 C 19.3062 -1.94739 -0.100831 0
M  V30 180 O 18.5762 -1.65797 -1.04347 0
M  V30 181 H 17.1562 -0.568794 0.484234 0
M  V30 182 H 19.8182 -0.926742 1.71457 0
M  V30 183 H 18.9142 -2.43606 1.95096 0
M  V30 184 N 19.2153 -1.21501 -1.00376 0
M  V30 185 C 20.6313 -0.972629 -1.26539 0
M  V30 186 C 20.8313 0.340257 -1.98606 0
M  V30 187 O 19.8873 1.06561 -2.28913 0
M  V30 188 C 21.2003 -2.16404 -2.08781 0
M  V30 189 C 22.7483 -2.20643 -2.22004 0
M  V30 190 C 23.2233 -3.39306 -3.07629 0
M  V30 191 N 24.7143 -3.39401 -3.15217 0
M  V30 192 C 25.4493 -4.27867 -3.81729 0
M  V30 193 N 24.9453 -5.26533 -4.5026 0
M  V30 194 N 26.7383 -4.15672 -3.78382 0
M  V30 195 H 18.8893 -2.05929 -0.520281 0
M  V30 196 H 21.1523 -0.901803 -0.292328 0
M  V30 197 H 20.8583 -3.11554 -1.63178 0
M  V30 198 H 20.7323 -2.15567 -3.09533 0
M  V30 199 H 23.1193 -1.26048 -2.66825 0
M  V30 200 H 23.2003 -2.25523 -1.20718 0
M  V30 201 H 22.8443 -4.34195 -2.63509 0
M  V30 202 H 22.7743 -3.31665 -4.09031 0
M  V30 203 H 25.2653 -2.67997 -2.66432 0
M  V30 204 H 25.5783 -5.90337 -4.98721 0
M  V30 205 H 23.9233 -5.30457 -4.49044 0
M  V30 206 H 27.1143 -3.3785 -3.23998 0
M  V30 207 H 27.2873 -4.84825 -4.2994 0
M  V30 208 N 20.6934 1.19889 -1.02296 0
M  V30 209 C 21.6264 2.21639 -0.543282 0
M  V30 210 C 22.6044 1.57275 0.412698 0
M  V30 211 O 23.7884 1.85568 0.331198 0
M  V30 212 C 20.9154 3.38057 0.208571 0
M  V30 213 C 19.9614 4.20751 -0.697933 0
M  V30 214 S 20.7944 4.89529 -2.17075 0
M  V30 215 C 21.9504 6.09363 -1.42923 0
M  V30 216 H 22.1834 2.61984 -1.40541 0
M  V30 217 H 19.7164 1.30041 -0.832387 0
M  V30 218 H 21.6744 4.05539 0.63624 0
M  V30 219 H 20.3354 2.96159 1.04635 0
M  V30 220 H 19.5284 5.03862 -0.117831 0
M  V30 221 H 19.1304 3.58556 -1.06366 0
M  V30 222 H 21.4224 6.73742 -0.712637 0
M  V30 223 H 22.3654 6.71845 -2.23673 0
M  V30 224 H 22.7734 5.56798 -0.929327 0
M  V30 225 N 22.1715 0.800033 1.35784 0
M  V30 226 C 23.0815 0.207204 2.33683 0
M  V30 227 C 24.0975 -0.64631 1.61551 0
M  V30 228 O 25.2735 -0.559604 1.93469 0
M  V30 229 C 22.3385 -0.639659 3.40748 0
M  V30 230 C 21.3995 0.233585 4.28664 0
M  V30 231 C 20.6325 -0.572954 5.30616 0
M  V30 232 O 20.8555 -1.80816 5.40982 0
M  V30 233 O 19.7895 0.0327285 6.01891 0
M  V30 234 H 23.6155 1.01692 2.86169 0
M  V30 235 H 21.2005 0.561691 1.38439 0
M  V30 236 H 23.0825 -1.12223 4.06182 0
M  V30 237 H 21.7575 -1.42708 2.90544 0
M  V30 238 H 20.6645 0.763147 3.66233 0
M  V30 239 H 21.9975 0.984784 4.82248 0
M  V30 240 N 23.6496 -1.47581 0.552962 0
M  V30 241 C 25.0656 -1.5818 0.212424 0
M  V30 242 C 25.2656 -1.55213 -1.28496 0
M  V30 243 O 24.3216 -1.45329 -2.06484 0
M  V30 244 C 25.6346 -2.88865 0.835318 0
M  V30 245 C 27.1826 -3.0244 0.806156 0
M  V30 246 C 27.6576 -4.35819 1.40804 0
M  V30 247 N 29.1486 -4.42444 1.37103 0
M  V30 248 C 29.8836 -5.44202 1.80641 0
M  V30 249 N 29.3796 -6.52795 2.32015 0
M  V30 250 N 31.1726 -5.35222 1.71738 0
M  V30 251 H 23.3236 -1.47753 1.52587 0
M  V30 252 H 25.5866 -0.702941 0.636064 0
M  V30 253 H 25.2926 -2.9676 1.88749 0
M  V30 254 H 25.1666 -3.7579 0.325848 0
M  V30 255 H 27.5536 -2.94144 -0.237317 0
M  V30 256 H 27.6346 -2.17068 1.35334 0
M  V30 257 H 27.2786 -4.44871 2.45056 0
M  V30 258 H 27.2086 -5.19916 0.836338 0
M  V30 259 H 29.6996 -3.6456 0.995202 0
M  V30 260 H 30.0126 -7.26609 2.63171 0
M  V30 261 H 28.3576 -6.53696 2.36023 0
M  V30 262 H 31.5486 -4.49284 1.31382 0
M  V30 263 H 31.7216 -6.14389 2.05987 0
M  V30 264 N 25.1277 -0.289203 -1.54924 0
M  V30 265 C 26.3747 0.323519 -1.99899 0
M  V30 266 C 26.7027 1.54797 -1.17762 0
M  V30 267 O 25.9577 1.94237 -0.238835 0
M  V30 268 C 26.2567 0.736119 -3.49737 0
M  V30 269 C 25.9227 -0.385276 -4.49251 0
M  V30 270 C 24.5847 -0.693156 -4.76181 0
M  V30 271 C 26.9367 -1.14021 -5.08575 0
M  V30 272 C 24.2647 -1.7593 -5.59701 0
M  V30 273 C 26.6167 -2.19619 -5.93254 0
M  V30 274 C 25.2807 -2.51026 -6.185 0
M  V30 275 H 24.5507 0.118384 -0.731482 0
M  V30 276 H 27.1977 -0.405847 -1.8715 0
M  V30 277 H 25.5027 1.54539 -3.60035 0
M  V30 278 H 27.1997 1.22118 -3.81953 0
M  V30 279 H 23.7897 -0.135202 -4.28387 0
M  V30 280 H 27.9737 -0.915611 -4.87781 0
M  V30 281 H 23.2297 -2.0075 -5.77503 0
M  V30 282 H 27.4037 -2.78581 -6.38252 0
M  V30 283 H 25.0307 -3.33772 -6.83008 0
M  V30 284 N 26.6058 1.57591 -0.0167156 0
M  V30 285 C 27.5378 2.06343 0.997753 0
M  V30 286 C 28.5508 0.984469 1.29661 0
M  V30 287 O 29.7398 1.26093 1.26344 0
M  V30 288 C 26.8398 2.46255 2.32834 0
M  V30 289 C 26.0128 3.77083 2.21646 0
M  V30 290 C 25.0718 4.0368 3.37534 0
M  V30 291 O 24.0978 4.7411 3.14973 0
M  V30 292 N 25.2998 3.52881 4.60929 0
M  V30 293 H 28.0648 2.93997 0.581875 0
M  V30 294 H 25.6258 1.61002 0.170316 0
M  V30 295 H 27.6178 2.61149 3.09166 0
M  V30 296 H 26.1878 1.64032 2.66106 0
M  V30 297 H 25.4078 3.72106 1.30119 0
M  V30 298 H 26.6958 4.62822 2.11361 0
M  V30 299 H 26.0938 2.95878 4.82154 0
M  V30 300 H 24.6508 3.73076 5.34469 0
M  V30 301 N 28.0839 -0.256276 1.55502 0
M  V30 302 C 29.0159 -1.33981 1.85962 0
M  V30 303 C 30.0289 -1.44743 0.745212 0
M  V30 304 O 31.2179 -1.4626 1.02324 0
M  V30 305 C 28.3179 -2.7194 2.02242 0
M  V30 306 C 27.4909 -2.83562 3.33033 0
M  V30 307 C 26.5499 -4.02304 3.39172 0
M  V30 308 O 25.5759 -3.92273 4.12444 0
M  V30 309 N 26.7779 -5.15045 2.67784 0
M  V30 310 H 29.5429 -1.08191 2.7949 0
M  V30 311 H 27.1039 -0.446388 1.55624 0
M  V30 312 H 29.0959 -3.49697 2.03701 0
M  V30 313 H 27.6659 -2.90479 1.15502 0
M  V30 314 H 26.8859 -1.92555 3.43971 0
M  V30 315 H 28.1739 -2.88271 4.19258 0
M  V30 316 H 27.5719 -5.26085 2.07968 0
M  V30 317 H 26.1289 -5.90972 2.74947 0
M  V30 318 N 29.562 -1.4872 -0.521534 0
M  V30 319 C 30.81 -1.56857 -1.27437 0
M  V30 320 C 31.131 -0.247982 -1.93417 0
M  V30 321 O 30.401 0.731151 -1.81744 0
M  V30 322 H 28.981 -0.577885 -0.473347 0
M  V30 323 H 31.643 -1.85233 -0.606205 0
M  V30 324 H 30.739 -2.35402 -2.0492 0
M  V30 325 N 31.0401 0.771051 -1.3745 0
M  V30 326 C 32.2861 1.5319 -1.32894 0
M  V30 327 C 32.6191 1.94008 0.0862511 0
M  V30 328 O 31.8941 1.64124 1.04373 0
M  V30 329 C 32.1771 2.79648 -2.26868 0
M  V30 330 C 32.0301 2.45079 -3.77169 0
M  V30 331 C 33.3491 3.81583 -2.19277 0
M  V30 332 H 30.4681 0.555744 -0.484064 0
M  V30 333 H 33.1101 0.884492 -1.68157 0
M  V30 334 H 31.2601 3.34891 -1.96926 0
M  V30 335 H 32.9321 1.95745 -4.1771 0
M  V30 336 H 31.1751 1.77767 -3.95704 0
M  V30 337 H 31.8461 3.35478 -4.38359 0
M  V30 338 H 34.3221 3.35835 -2.45671 0
M  V30 339 H 33.1981 4.67787 -2.87171 0
M  V30 340 H 33.4591 4.25897 -1.18592 0
M  V30 341 N 32.5182 1.22032 0.997298 0
M  V30 342 C 33.9342 0.979326 1.26021 0
M  V30 343 C 34.1342 -0.32972 1.98784 0
M  V30 344 O 33.1902 -1.05345 2.29475 0
M  V30 345 C 34.5032 2.17509 2.07631 0
M  V30 346 C 36.0512 2.21817 2.2083 0
M  V30 347 C 36.5262 3.40933 3.05825 0
M  V30 348 N 38.0172 3.41067 3.13412 0
M  V30 349 C 38.7522 4.29885 3.79455 0
M  V30 350 N 38.2482 5.28914 4.47462 0
M  V30 351 N 40.0412 4.17673 3.76173 0
M  V30 352 H 32.1922 2.06202 0.509352 0
M  V30 353 H 34.4552 0.90334 0.287541 0
M  V30 354 H 34.1612 3.12415 1.61524 0
M  V30 355 H 34.0352 2.17206 3.08385 0
M  V30 356 H 36.4222 1.27462 2.66153 0
M  V30 357 H 36.5032 2.2616 1.1952 0
M  V30 358 H 36.1472 4.35586 2.61203 0
M  V30 359 H 36.0772 3.33829 4.07266 0
M  V30 360 H 38.5682 2.69406 2.65007 0
M  V30 361 H 38.8812 5.92973 4.95583 0
M  V30 362 H 37.2262 5.32831 4.46224 0
M  V30 363 H 40.4172 3.39564 3.22202 0
M  V30 364 H 40.5902 4.87098 4.27363 0
M  V30 365 N 33.9963 -1.19345 1.0293 0
M  V30 366 C 34.9433 -2.2258 0.610464 0
M  V30 367 C 35.9133 -1.6179 -0.375946 0
M  V30 368 O 37.0983 -1.88844 -0.272511 0
M  V30 369 C 34.2383 -3.45085 -0.0321473 0
M  V30 370 C 33.3513 -4.20258 1.00035 0
M  V30 371 C 32.4863 -5.3019 0.32746 0
M  V30 372 C 31.5253 -5.97121 1.34584 0
M  V30 373 N 30.6623 -6.98615 0.698726 0
M  V30 374 H 35.5023 -2.57764 1.49538 0
M  V30 375 H 33.0393 -1.26644 0.748311 0
M  V30 376 H 34.9973 -4.15061 -0.421966 0
M  V30 377 H 33.6273 -3.10555 -0.88064 0
M  V30 378 H 32.6793 -3.49223 1.50823 0
M  V30 379 H 33.9913 -4.66175 1.77433 0
M  V30 380 H 33.1453 -6.06587 -0.11718 0
M  V30 381 H 31.8843 -4.85345 -0.478713 0
M  V30 382 H 30.8893 -5.19474 1.80074 0
M  V30 383 H 32.1143 -6.4405 2.15352 0
M  V30 384 H 30.0603 -6.55942 -0.0873471 0
M  V30 385 H 29.9773 -7.42724 1.41058 0
M  V30 386 H 31.2453 -7.79004 0.278102 0
M  V30 387 N 35.4744 -0.807222 -1.35358 0
M  V30 388 C 36.8904 -0.491038 -1.51858 0
M  V30 389 C 37.0904 0.987648 -1.75635 0
M  V30 390 O 36.1464 1.77265 -1.79815 0
M  V30 391 C 37.4594 -1.33695 -2.69344 0
M  V30 392 C 39.0074 -1.33246 -2.83222 0
M  V30 393 C 39.4824 -2.1625 -4.03733 0
M  V30 394 N 40.9734 -2.1379 -4.10911 0
M  V30 395 C 41.7084 -2.74772 -5.03277 0
M  V30 396 N 41.2044 -3.44684 -6.0097 0
M  V30 397 N 42.9974 -2.6441 -4.96028 0
M  V30 398 H 35.1484 -1.76485 -1.18181 0
M  V30 399 H 37.4114 -0.751199 -0.578276 0
M  V30 400 H 37.1174 -2.38634 -2.58354 0
M  V30 401 H 36.9914 -0.990618 -3.6396 0
M  V30 402 H 39.3784 -0.290911 -2.93663 0
M  V30 403 H 39.4594 -1.71866 -1.89461 0
M  V30 404 H 39.1034 -3.20445 -3.94052 0
M  V30 405 H 39.0334 -1.74989 -4.96675 0
M  V30 406 H 41.5244 -1.62923 -3.40976 0
M  V30 407 H 41.8374 -3.88501 -6.68047 0
M  V30 408 H 40.1824 -3.48788 -6.01142 0
M  V30 409 H 43.3734 -2.0938 -4.18662 0
M  V30 410 H 43.5464 -3.12225 -5.6782 0
M  V30 411 N 36.9525 1.47285 -0.560781 0
M  V30 412 C 38.1805 2.06855 -0.0430262 0
M  V30 413 C 38.5955 1.41291 1.25229 0
M  V30 414 O 37.9525 0.510648 1.7521 0
M  V30 415 C 38.0035 3.61178 0.152518 0
M  V30 416 O 37.7245 4.24285 -1.0915 0
M  V30 417 C 39.2255 4.37624 0.707145 0
M  V30 418 H 36.4455 0.669319 -0.0474652 0
M  V30 419 H 38.9895 1.89237 -0.77521 0
M  V30 420 H 37.1445 3.78298 0.834843 0
M  V30 421 H 37.5585 5.16868 -0.891482 0
M  V30 422 H 39.0325 5.46271 0.793244 0
M  V30 423 H 39.5095 4.04152 1.71923 0
M  V30 424 H 40.1155 4.25257 0.0604027 0
M  V30 425 N 38.4306 0.297415 1.54768 0
M  V30 426 C 39.3606 -0.573494 2.26348 0
M  V30 427 C 40.3416 -1.14085 1.26169 0
M  V30 428 O 41.5266 -1.17086 1.54934 0
M  V30 429 C 38.6566 -1.74716 3.00153 0
M  V30 430 C 37.6106 -1.31032 4.07449 0
M  V30 431 C 36.9366 -2.56887 4.68949 0
M  V30 432 C 38.2366 -0.444183 5.20408 0
M  V30 433 H 39.9306 0.0235131 2.99391 0
M  V30 434 H 37.4766 0.0127488 1.43994 0
M  V30 435 H 39.4296 -2.3625 3.48947 0
M  V30 436 H 38.1536 -2.37035 2.24682 0
M  V30 437 H 36.8126 -0.718066 3.59499 0
M  V30 438 H 36.4606 -3.17512 3.90122 0
M  V30 439 H 36.1606 -2.2836 5.41411 0
M  V30 440 H 37.6846 -3.19229 5.20505 0
M  V30 441 H 39.0986 -0.9651 5.65118 0
M  V30 442 H 37.4956 -0.252846 5.99567 0
M  V30 443 H 38.5656 0.531609 4.81977 0
M  V30 444 N 39.9087 -1.5758 0.0250728 0
M  V30 445 C 40.8387 -2.13007 -0.956575 0
M  V30 446 C 41.8197 -1.0452 -1.342 0
M  V30 447 O 43.0047 -1.32332 -1.42133 0
M  V30 448 C 40.1347 -2.65386 -2.24026 0
M  V30 449 C 39.0887 -3.78623 -1.99571 0
M  V30 450 C 38.4147 -4.17414 -3.3417 0
M  V30 451 C 39.7147 -5.04867 -1.33814 0
M  V30 452 H 41.4087 -2.9528 -0.494991 0
M  V30 453 H 38.9547 -1.42042 -0.236651 0
M  V30 454 H 40.9077 -3.02794 -2.93076 0
M  V30 455 H 39.6317 -1.80268 -2.72343 0
M  V30 456 H 38.2907 -3.41646 -1.32941 0
M  V30 457 H 37.9387 -3.29284 -3.80238 0
M  V30 458 H 37.6387 -4.93719 -3.18615 0
M  V30 459 H 39.1627 -4.57402 -4.04495 0
M  V30 460 H 40.5767 -5.39888 -1.92857 0
M  V30 461 H 38.9737 -5.86144 -1.28669 0
M  V30 462 H 40.0437 -4.83904 -0.310561 0
M  V30 463 N 41.3868 0.248026 -1.55636 0
M  V30 464 C 42.3498 1.29044 -1.89421 0
M  V30 465 C 43.3498 1.41134 -0.770581 0
M  V30 466 O 44.5398 1.39854 -1.03858 0
M  V30 467 C 41.6718 2.66831 -2.12165 0
M  V30 468 H 42.8648 1.00305 -2.82629 0
M  V30 469 H 40.4178 0.487265 -1.48511 0
M  V30 470 H 41.1528 3.00711 -1.21422 0
M  V30 471 H 40.9378 2.59438 -2.93997 0
M  V30 472 H 42.4278 3.42103 -2.3949 0
M  V30 473 N 42.8649 1.48995 0.513639 0
M  V30 474 C 43.8119 1.6473 1.61656 0
M  V30 475 C 44.7819 0.488984 1.58739 0
M  V30 476 O 45.9669 0.714478 1.76918 0
M  V30 477 C 43.1069 1.7082 2.99858 0
M  V30 478 C 42.2199 2.9787 3.12885 0
M  V30 479 C 41.3549 2.95017 4.41744 0
M  V30 480 C 40.3939 4.16702 4.48359 0
M  V30 481 N 39.5309 4.11832 5.68629 0
M  V30 482 H 44.3709 2.58909 1.47547 0
M  V30 483 H 41.9079 1.28382 0.71808 0
M  V30 484 H 43.8659 1.72331 3.79944 0
M  V30 485 H 42.4959 0.801181 3.12699 0
M  V30 486 H 41.5479 3.06029 2.25944 0
M  V30 487 H 42.8599 3.8786 3.13633 0
M  V30 488 H 42.0139 2.95021 5.30139 0
M  V30 489 H 40.7529 2.02784 4.43542 0
M  V30 490 H 39.7579 4.16955 3.58369 0
M  V30 491 H 40.9829 5.10113 4.48287 0
M  V30 492 H 38.9289 3.22428 5.71293 0
M  V30 493 H 38.8459 4.95543 5.7094 0
M  V30 494 H 40.1139 4.1592 6.59266 0
M  V30 495 N 44.343 -0.763751 1.37857 0
M  V30 496 C 45.29 -1.87726 1.34267 0
M  V30 497 C 46.26 -1.64807 0.206879 0
M  V30 498 O 47.445 -1.86613 0.397508 0
M  V30 499 C 44.585 -3.24896 1.16346 0
M  V30 500 C 43.698 -3.59716 2.39225 0
M  V30 501 C 42.833 -4.86137 2.14114 0
M  V30 502 C 41.872 -5.13711 3.32817 0
M  V30 503 N 41.009 -6.31323 3.07206 0
M  V30 504 H 45.849 -1.90129 2.29466 0
M  V30 505 H 43.386 -0.929433 1.14017 0
M  V30 506 H 45.344 -4.04036 1.03975 0
M  V30 507 H 43.974 -3.21847 0.247909 0
M  V30 508 H 43.026 -2.75498 2.62307 0
M  V30 509 H 44.338 -3.76027 3.27728 0
M  V30 510 H 43.492 -5.73198 1.9882 0
M  V30 511 H 42.231 -4.71945 1.22961 0
M  V30 512 H 41.236 -4.25123 3.48641 0
M  V30 513 H 42.461 -5.29807 4.24832 0
M  V30 514 H 40.407 -6.18474 2.1869 0
M  V30 515 H 40.324 -6.48087 3.89254 0
M  V30 516 H 41.592 -7.213 2.95546 0
M  V30 517 N 45.8211 -1.22559 -0.990812 0
M  V30 518 C 46.7681 -0.997519 -2.0813 0
M  V30 519 C 47.7381 0.0814702 -1.659 0
M  V30 520 O 48.9231 -0.0685424 -1.90677 0
M  V30 521 C 46.0631 -0.583615 -3.40129 0
M  V30 522 C 45.1761 -1.7336 -3.9569 0
M  V30 523 C 44.3111 -1.26748 -5.15857 0
M  V30 524 C 43.3501 -2.38888 -5.63559 0
M  V30 525 N 42.4871 -1.93308 -6.74964 0
M  V30 526 H 47.3271 -1.93099 -2.26973 0
M  V30 527 H 44.8641 -0.962114 -1.11273 0
M  V30 528 H 46.8221 -0.324801 -4.15934 0
M  V30 529 H 45.4521 0.312845 -3.2128 0
M  V30 530 H 44.5041 -2.10669 -3.16738 0
M  V30 531 H 45.8161 -2.57704 -4.27071 0
M  V30 532 H 44.9701 -0.966173 -5.98957 0
M  V30 533 H 43.7091 -0.394272 -4.86104 0
M  V30 534 H 42.7141 -2.69805 -4.79046 0
M  V30 535 H 43.9391 -3.26728 -5.95336 0
M  V30 536 H 41.8851 -1.08352 -6.4699 0
M  V30 537 H 41.8021 -2.71217 -7.05675 0
M  V30 538 H 43.0701 -1.66252 -7.61564 0
M  V30 539 N 47.2992 1.18797 -1.03562 0
M  V30 540 C 48.5452 1.8893 -0.737113 0
M  V30 541 C 48.8782 1.79837 0.732956 0
M  V30 542 O 48.1532 1.19525 1.5344 0
M  V30 543 C 48.4362 3.39607 -1.19745 0
M  V30 544 C 48.2892 3.57537 -2.72924 0
M  V30 545 C 49.6082 4.33069 -0.783526 0
M  V30 546 H 46.7272 0.686057 -0.269249 0
M  V30 547 H 49.3692 1.39797 -1.28673 0
M  V30 548 H 47.5192 3.81583 -0.729855 0
M  V30 549 H 49.1912 3.24688 -3.27682 0
M  V30 550 H 47.4342 3.00363 -3.12993 0
M  V30 551 H 48.1052 4.63238 -3.00191 0
M  V30 552 H 50.5812 3.98846 -1.18581 0
M  V30 553 H 49.4572 5.3707 -1.13343 0
M  V30 554 H 49.7182 4.40986 0.313681 0
M  V30 555 N 48.7773 0.814389 1.34928 0
M  V30 556 C 49.7093 0.187834 2.28429 0
M  V30 557 C 50.7223 -0.617374 1.5064 0
M  V30 558 O 51.9113 -0.448454 1.72775 0
M  V30 559 C 49.0113 -0.755962 3.30361 0
M  V30 560 C 48.1843 0.00456686 4.374 0
M  V30 561 C 47.2433 -0.858876 5.19143 0
M  V30 562 O 46.2693 -0.306968 5.68372 0
M  V30 563 N 47.4713 -2.17988 5.38016 0
M  V30 564 H 50.2363 0.991105 2.82838 0
M  V30 565 H 47.7973 0.670561 1.4736 0
M  V30 566 H 49.7893 -1.338 3.81942 0
M  V30 567 H 48.3593 -1.46001 2.7641 0
M  V30 568 H 47.5793 0.767865 3.86649 0
M  V30 569 H 48.8673 0.528422 5.06049 0
M  V30 570 H 48.2653 -2.65212 4.99679 0
M  V30 571 H 46.8223 -2.71098 5.92747 0
M  V30 572 N 50.2554 -1.46986 0.568584 0
M  V30 573 C 51.2034 -2.31858 -0.185649 0
M  V30 574 C 52.1974 -1.43624 -0.898249 0
M  V30 575 O 53.4034 -1.60327 -0.818242 0
M  V30 576 H 49.7784 -0.747866 -0.0787399 0
M  V30 577 H 51.7494 -2.93303 0.549191 0
M  V30 578 C 50.4984 -3.26513 -1.19519 0
M  V30 579 H 49.8214 -3.94377 -0.656285 0
M  V30 580 H 51.2614 -3.88707 -1.6936 0
M  V30 581 C 49.7204 -2.50847 -2.24894 0
M  V30 582 O 50.2504 -2.26119 -3.32014 0
M  V30 583 N 48.4564 -2.11656 -1.99124 0
M  V30 584 H 48.0034 -2.31966 -1.12024 0
M  V30 585 H 47.9614 -1.61347 -2.69842 0
M  V30 586 N 51.7335 -0.305618 -1.54608 0
M  V30 587 C 52.9825 0.303098 -1.9941 0
M  V30 588 C 53.2955 1.54648 -1.19764 0
M  V30 589 O 54.5015 2.23007 -1.54855 0
M  V30 590 C 52.9575 0.590588 -3.55021 0
M  V30 591 C 52.5655 -0.634719 -4.43481 0
M  V30 592 C 54.3095 1.16025 -4.08336 0
M  V30 593 C 52.2165 -0.320126 -5.90533 0
M  V30 594 H 51.1465 0.117031 -0.744862 0
M  V30 595 H 53.7975 -0.415045 -1.78745 0
M  V30 596 H 52.1795 1.36845 -3.71604 0
M  V30 597 H 53.3535 -1.41079 -4.38672 0
M  V30 598 H 51.6685 -1.12333 -4.00962 0
M  V30 599 H 54.2655 1.40994 -5.15776 0
M  V30 600 H 54.6085 2.10397 -3.5922 0
M  V30 601 H 55.1415 0.443985 -3.95315 0
M  V30 602 H 51.8805 -1.23254 -6.43808 0
M  V30 603 H 51.4005 0.418579 -5.98338 0
M  V30 604 H 53.0795 0.0766241 -6.46955 0
M  V30 605 N 53.2116 1.57565 -0.0334293 0
M  V30 606 C 54.4396 1.9628 0.654347 0
M  V30 607 C 54.8546 0.910138 1.65414 0
M  V30 608 O 54.2116 -0.107595 1.82183 0
M  V30 609 C 54.2626 3.35067 1.35693 0
M  V30 610 O 53.9836 4.36296 0.397191 0
M  V30 611 C 55.4846 3.88439 2.13613 0
M  V30 612 H 52.7046 0.646369 0.180132 0
M  V30 613 H 55.2486 2.04282 -0.0944721 0
M  V30 614 H 53.4036 3.2827 2.05712 0
M  V30 615 H 53.8176 5.1678 0.896597 0
M  V30 616 H 55.2916 4.8788 2.58219 0
M  V30 617 H 55.7686 3.22914 2.97696 0
M  V30 618 H 56.3746 3.98516 1.48543 0
M  V30 619 N 54.6897 -0.239769 1.55765 0
M  V30 620 C 55.6367 -1.29696 1.90913 0
M  V30 621 C 56.6067 -1.47478 0.764164 0
M  V30 622 O 57.7917 -1.61345 1.01845 0
M  V30 623 C 54.9317 -2.64598 2.21544 0
M  V30 624 C 54.0447 -2.54765 3.48882 0
M  V30 625 C 53.1797 -3.82069 3.69049 0
M  V30 626 C 52.2187 -3.66883 4.89963 0
M  V30 627 N 51.3557 -4.86094 5.06614 0
M  V30 628 H 56.1957 -0.990224 2.81067 0
M  V30 629 H 53.7327 -0.477684 1.39128 0
M  V30 630 H 55.6907 -3.43132 2.3731 0
M  V30 631 H 54.3207 -2.93405 1.34585 0
M  V30 632 H 53.3727 -1.67763 3.41409 0
M  V30 633 H 54.6847 -2.39457 4.37563 0
M  V30 634 H 53.8387 -4.69046 3.84812 0
M  V30 635 H 52.5777 -4.00282 2.78614 0
M  V30 636 H 51.5827 -2.78289 4.74168 0
M  V30 637 H 52.8077 -3.50157 5.81865 0
M  V30 638 H 50.7537 -5.04655 4.19117 0
M  V30 639 H 50.6707 -4.73443 5.89396 0
M  V30 640 H 51.9387 -5.74549 5.26795 0
M  V30 641 N 56.1678 -1.49265 -0.50573 0
M  V30 642 C 57.0778 -1.68312 -1.63427 0
M  V30 643 C 58.0938 -0.565682 -1.64548 0
M  V30 644 O 59.2698 -0.839801 -1.83055 0
M  V30 645 C 56.3348 -1.74107 -2.99813 0
M  V30 646 C 55.3958 -2.97653 -3.09356 0
M  V30 647 C 54.6288 -3.03163 -4.39236 0
M  V30 648 O 54.8518 -2.16396 -5.27758 0
M  V30 649 O 53.7858 -3.9558 -4.53652 0
M  V30 650 H 57.6118 -2.63907 -1.50289 0
M  V30 651 H 55.1968 -1.32951 -0.681502 0
M  V30 652 H 57.0788 -1.803 -3.80881 0
M  V30 653 H 55.7538 -0.816901 -3.13223 0
M  V30 654 H 54.6608 -2.96981 -2.27493 0
M  V30 655 H 55.9938 -3.89535 -3.00871 0
M  V30 656 N 57.6459 0.756429 -1.3826 0
M  V30 657 C 58.9229 1.50584 -1.24835 0
M  V30 658 C 59.3029 2.10556 0.151485 0
M  V30 659 O 58.6509 1.96825 1.1607 0
M  V30 660 C 58.8609 2.57448 -2.3563 0
M  V30 661 C 60.2089 3.24429 -2.73917 0
M  V30 662 O 61.2329 2.67751 -2.34921 0
M  V30 663 O 60.0919 4.26937 -3.41156 0
M  V30 664 H 57.1859 0.667664 -0.48801 0
M  V30 665 H 59.7319 0.792083 -1.5008 0
M  V30 666 H 58.5039 2.11362 -3.29305 0
M  V30 667 H 58.1269 3.36408 -2.11933 0
M  V30 668 N 59.124 1.23083 0.984299 0
M  V30 669 C 60.37 1.06214 1.72761 0
M  V30 670 C 60.703 -0.400584 1.90024 0
M  V30 671 O 59.978 -1.29672 1.44967 0
M  V30 672 C 60.261 1.78375 3.12817 0
M  V30 673 C 60.114 3.32296 3.03149 0
M  V30 674 C 61.433 1.54309 4.12161 0
M  V30 675 H 58.552 0.387251 0.627061 0
M  V30 676 H 61.194 1.51536 1.14616 0
M  V30 677 H 59.344 1.39848 3.62457 0
M  V30 678 H 61.016 3.8032 2.61064 0
M  V30 679 H 59.259 3.6153 2.39747 0
M  V30 680 H 59.93 3.77972 4.02295 0
M  V30 681 H 62.406 1.87791 3.71314 0
M  V30 682 H 61.282 2.07281 5.08258 0
M  V30 683 H 61.543 0.477572 4.39513 0
M  V30 684 N 60.6021 -1.18246 1.0419 0
M  V30 685 C 61.5491 -2.2192 0.634037 0
M  V30 686 C 62.5191 -1.62179 -0.358765 0
M  V30 687 O 63.7041 -1.89122 -0.252466 0
M  V30 688 C 60.8441 -3.451 0.00445535 0
M  V30 689 C 59.9571 -4.19174 1.04487 0
M  V30 690 C 59.0921 -5.29813 0.383676 0
M  V30 691 C 58.1311 -5.9566 1.4091 0
M  V30 692 N 57.2681 -6.97834 0.772784 0
M  V30 693 H 62.1081 -2.56164 1.52263 0
M  V30 694 H 59.6451 -1.25843 0.761701 0
M  V30 695 H 61.6031 -4.15485 -0.377919 0
M  V30 696 H 60.2331 -3.11472 -0.847652 0
M  V30 697 H 59.2851 -3.47604 1.54518 0
M  V30 698 H 60.5971 -4.64267 1.82368 0
M  V30 699 H 59.7511 -6.06677 -0.0528366 0
M  V30 700 H 58.4901 -4.85825 -0.427208 0
M  V30 701 H 57.4951 -5.17535 1.85574 0
M  V30 702 H 58.7201 -6.4173 2.22171 0
M  V30 703 H 56.6661 -6.55998 -0.0177708 0
M  V30 704 H 56.5831 -7.41186 1.48928 0
M  V30 705 H 57.8511 -7.78665 0.36071 0
M  V30 706 N 62.0802 -0.821533 -1.34494 0
M  V30 707 C 63.3052 -0.420873 -2.03085 0
M  V30 708 C 63.7302 0.964915 -1.61465 0
M  V30 709 O 63.0882 1.62763 -0.798607 0
M  V30 710 C 63.1362 -0.529414 -3.56693 0
M  V30 711 O 62.2402 0.451302 -4.09923 0
M  V30 712 H 61.5812 -0.173489 -0.640935 0
M  V30 713 H 64.1112 -1.11157 -1.71771 0
M  V30 714 H 64.1212 -0.404671 -4.05988 0
M  V30 715 H 62.7962 -1.54014 -3.86332 0
M  V30 716 H 61.3732 0.285558 -3.71805 0
M  V30 717 N 63.5583 1.46682 -0.576371 0
M  V30 718 C 64.7883 2.06498 -0.0648694 0
M  V30 719 C 65.1963 1.42665 1.24271 0
M  V30 720 O 64.5393 0.523886 1.76071 0
M  V30 721 C 64.6013 3.5904 0.181816 0
M  V30 722 C 64.2653 4.45028 -1.0392 0
M  V30 723 C 65.2623 4.81959 -1.94966 0
M  V30 724 C 62.9473 4.86259 -1.25927 0
M  V30 725 C 64.9413 5.58942 -3.06371 0
M  V30 726 C 62.6283 5.63002 -2.37638 0
M  V30 727 C 63.6263 5.99257 -3.2769 0
M  V30 728 O 63.3143 6.7445 -4.37461 0
M  V30 729 H 63.0463 0.674028 -0.0515987 0
M  V30 730 H 65.6003 1.89393 -0.794951 0
M  V30 731 H 63.8303 3.74429 0.966436 0
M  V30 732 H 65.5193 4.00806 0.641047 0
M  V30 733 H 66.2853 4.50689 -1.79177 0
M  V30 734 H 62.1643 4.57494 -0.567448 0
M  V30 735 H 65.7083 5.87158 -3.76684 0
M  V30 736 H 61.6053 5.93686 -2.53392 0
M  V30 737 H 62.3733 6.92867 -4.35749 0
M  V30 738 N 65.0364 0.313813 1.54444 0
M  V30 739 C 65.9664 -0.549454 2.26943 0
M  V30 740 C 66.9474 -1.12741 1.27372 0
M  V30 741 O 68.1324 -1.15436 1.56167 0
M  V30 742 C 65.2624 -1.71523 3.01989 0
M  V30 743 C 64.2164 -1.26703 4.08816 0
M  V30 744 C 63.5424 -2.51898 4.71647 0
M  V30 745 C 64.8424 -0.388962 5.2085 0
M  V30 746 H 66.5364 0.0552661 2.99349 0
M  V30 747 H 64.0824 0.0280207 1.43973 0
M  V30 748 H 66.0354 -2.32535 3.51433 0
M  V30 749 H 64.7594 -2.34639 2.27183 0
M  V30 750 H 63.4184 -0.679896 3.6024 0
M  V30 751 H 63.0664 -3.13356 3.93468 0
M  V30 752 H 62.7664 -2.22605 5.43802 0
M  V30 753 H 64.2904 -3.1369 5.23861 0
M  V30 754 H 65.7044 -0.905107 5.6611 0
M  V30 755 H 64.1014 -0.18924 5.99802 0
M  V30 756 H 65.1714 0.582699 4.81386 0
M  V30 757 N 66.5145 -1.57545 0.0417849 0
M  V30 758 C 67.7615 -1.92317 -0.634082 0
M  V30 759 C 68.0895 -0.919334 -1.71402 0
M  V30 760 O 67.3445 0.0698253 -1.95575 0
M  V30 761 C 67.6435 -3.33794 -1.27735 0
M  V30 762 C 67.3095 -4.49716 -0.326543 0
M  V30 763 C 65.9715 -4.81156 -0.0648814 0
M  V30 764 C 68.3235 -5.20182 0.325623 0
M  V30 765 C 65.6515 -5.80414 0.856539 0
M  V30 766 C 68.0035 -6.20424 1.23518 0
M  V30 767 C 66.6675 -6.50298 1.5056 0
M  V30 768 H 65.9375 -0.703736 -0.232027 0
M  V30 769 H 68.5845 -1.91205 0.106259 0
M  V30 770 H 66.8895 -3.31228 -2.09274 0
M  V30 771 H 68.5865 -3.57975 -1.80707 0
M  V30 772 H 65.1765 -4.25176 -0.540665 0
M  V30 773 H 69.3605 -4.96112 0.136546 0
M  V30 774 H 64.6165 -6.019 1.07363 0
M  V30 775 H 68.7905 -6.74141 1.74664 0
M  V30 776 H 66.4175 -7.27025 2.22123 0
M  V30 777 N 67.9926 0.231505 -1.5589 0
M  V30 778 C 69.4086 0.580748 -1.48659 0
M  V30 779 C 69.6086 1.87617 -0.73498 0
M  V30 780 O 68.6646 2.51046 -0.270586 0
M  V30 781 C 69.9776 0.669202 -2.93159 0
M  V30 782 C 71.5256 0.760499 -3.03621 0
M  V30 783 C 72.0006 0.880383 -4.49459 0
M  V30 784 N 73.4916 0.944861 -4.53461 0
M  V30 785 C 74.2266 1.05716 -5.63571 0
M  V30 786 N 73.7226 1.13403 -6.83456 0
M  V30 787 N 75.5156 1.09152 -5.514 0
M  V30 788 H 67.6666 -0.618695 -2.03189 0
M  V30 789 H 69.9296 -0.215728 -0.923128 0
M  V30 790 H 69.6356 -0.212904 -3.51055 0
M  V30 791 H 69.5096 1.5361 -3.44505 0
M  V30 792 H 71.8966 1.63305 -2.45796 0
M  V30 793 H 71.9776 -0.131864 -2.5546 0
M  V30 794 H 71.6216 0.0123284 -5.07899 0
M  V30 795 H 71.5516 1.78802 -4.95316 0
M  V30 796 H 74.0426 0.896176 -3.6712 0
M  V30 797 H 74.3556 1.21921 -7.63122 0
M  V30 798 H 72.7006 1.10333 -6.86186 0
M  V30 799 H 75.8916 1.02805 -4.56671 0
M  V30 800 H 76.0646 1.17558 -6.37247 0
M  V30 801 N 69.4707 1.49531 0.497807 0
M  V30 802 C 70.4187 1.66926 1.61983 0
M  V30 803 C 71.4127 0.535167 1.60724 0
M  V30 804 O 72.6187 0.714896 1.65195 0
M  V30 805 H 68.9937 0.526415 0.537021 0
M  V30 806 H 70.9647 2.61098 1.44465 0
M  V30 807 C 69.7137 1.75602 3.00099 0
M  V30 808 H 69.0367 2.62244 3.01775 0
M  V30 809 H 70.4767 1.91807 3.78135 0
M  V30 810 C 68.9357 0.501543 3.33146 0
M  V30 811 O 69.4657 -0.371342 3.9998 0
M  V30 812 N 67.6717 0.363531 2.88317 0
M  V30 813 H 67.2187 1.07485 2.34104 0
M  V30 814 H 67.1767 -0.474728 3.10795 0
M  V30 815 N 70.9488 -0.749086 1.3866 0
M  V30 816 C 71.9118 -1.84457 1.36045 0
M  V30 817 C 72.9118 -1.58682 0.260122 0
M  V30 818 O 74.1018 -1.66343 0.517261 0
M  V30 819 C 71.2338 -3.22008 1.11911 0
M  V30 820 H 72.4268 -1.88182 2.33512 0
M  V30 821 H 69.9798 -0.951266 1.24019 0
M  V30 822 H 70.7148 -3.2395 0.150686 0
M  V30 823 H 70.4998 -3.42111 1.91579 0
M  V30 824 H 71.9898 -4.0208 1.12788 0
M  V30 825 N 72.4269 -1.23603 -0.977757 0
M  V30 826 C 73.6739 -1.06971 -1.71941 0
M  V30 827 C 74.0019 0.393009 -1.90488 0
M  V30 828 O 73.2569 1.30719 -1.4564 0
M  V30 829 C 73.5559 -1.7433 -3.11999 0
M  V30 830 C 73.2219 -3.24252 -3.13323 0
M  V30 831 C 71.8839 -3.65156 -3.13392 0
M  V30 832 C 74.2359 -4.20141 -3.08433 0
M  V30 833 C 71.5639 -5.00403 -3.0629 0
M  V30 834 C 73.9159 -5.55384 -3.02873 0
M  V30 835 C 72.5799 -5.95647 -3.01265 0
M  V30 836 H 71.8499 -0.391433 -0.629175 0
M  V30 837 H 74.4969 -1.53572 -1.14403 0
M  V30 838 H 72.8019 -1.20096 -3.7294 0
M  V30 839 H 74.4989 -1.58936 -3.68158 0
M  V30 840 H 71.0889 -2.91692 -3.14029 0
M  V30 841 H 75.2729 -3.89547 -3.07517 0
M  V30 842 H 70.5289 -5.3081 -3.03399 0
M  V30 843 H 74.7029 -6.29398 -2.98046 0
M  V30 844 H 72.3299 -7.0041 -2.95516 0
M  V30 845 N 73.905 1.17692 -1.04816 0
M  V30 846 C 75.151 1.88137 -0.75711 0
M  V30 847 C 75.484 1.80604 0.713841 0
M  V30 848 O 74.759 1.21146 1.52164 0
M  V30 849 C 75.042 3.38318 -1.2334 0
M  V30 850 C 74.895 3.54622 -2.76701 0
M  V30 851 C 76.214 4.32214 -0.829415 0
M  V30 852 H 73.333 0.683163 -0.27651 0
M  V30 853 H 75.975 1.38424 -1.30149 0
M  V30 854 H 74.125 3.80787 -0.770286 0
M  V30 855 H 75.797 3.21194 -3.31107 0
M  V30 856 H 74.04 2.97026 -3.16161 0
M  V30 857 H 74.711 4.60028 -3.05088 0
M  V30 858 H 77.187 3.97565 -1.22805 0
M  V30 859 H 76.063 5.35838 -1.19033 0
M  V30 860 H 76.324 4.41294 0.266891 0
M  V30 861 N 75.3831 0.828654 1.34056 0
M  V30 862 C 76.3131 0.269443 2.3194 0
M  V30 863 C 77.2941 -0.617247 1.58506 0
M  V30 864 O 78.4791 -0.542931 1.86456 0
M  V30 865 C 75.6091 -0.564793 3.42677 0
M  V30 866 C 74.5631 0.225241 4.27407 0
M  V30 867 C 73.8891 -0.7321 5.29664 0
M  V30 868 C 75.1891 1.43663 5.02154 0
M  V30 869 H 76.8831 1.08728 2.7896 0
M  V30 870 H 74.4291 0.524283 1.34117 0
M  V30 871 H 76.3821 -0.966233 4.10173 0
M  V30 872 H 75.1061 -1.41574 2.9432 0
M  V30 873 H 73.7651 0.608117 3.61521 0
M  V30 874 H 73.4131 -1.57916 4.77568 0
M  V30 875 H 73.1131 -0.20767 5.87233 0
M  V30 876 H 74.6371 -1.13128 6.00029 0
M  V30 877 H 76.0511 1.1089 5.62473 0
M  V30 878 H 74.4481 1.89711 5.69324 0
M  V30 879 H 75.5181 2.21181 4.31517 0
M  V30 880 N 76.8612 -1.46375 0.584142 0
M  V30 881 C 77.7912 -2.33103 -0.136037 0
M  V30 882 C 78.7722 -1.45431 -0.882255 0
M  V30 883 O 79.9572 -1.74246 -0.857434 0
M  V30 884 C 77.0872 -3.27731 -1.14933 0
M  V30 885 C 76.0412 -4.24855 -0.517862 0
M  V30 886 C 75.3672 -5.09001 -1.63773 0
M  V30 887 C 76.6672 -5.19439 0.545886 0
M  V30 888 H 78.3612 -2.93568 0.588086 0
M  V30 889 H 75.9072 -1.41166 0.284259 0
M  V30 890 H 77.8602 -3.87261 -1.66153 0
M  V30 891 H 76.5842 -2.65377 -1.90375 0
M  V30 892 H 75.2432 -3.6659 -0.0267361 0
M  V30 893 H 74.8912 -4.43031 -2.38185 0
M  V30 894 H 74.5912 -5.74777 -1.22085 0
M  V30 895 H 76.1152 -5.71396 -2.15266 0
M  V30 896 H 77.5292 -5.73177 0.118704 0
M  V30 897 H 75.9262 -5.93566 0.88317 0
M  V30 898 H 76.9962 -4.63285 1.43162 0
M  V30 899 N 78.3393 -0.321999 -1.54275 0
M  V30 900 C 79.5673 0.283052 -2.04955 0
M  V30 901 C 79.9823 1.45904 -1.19823 0
M  V30 902 O 79.3393 1.81063 -0.228545 0
M  V30 903 C 79.3903 0.719028 -3.54277 0
M  V30 904 O 79.1113 -0.410175 -4.36176 0
M  V30 905 C 80.6123 1.38705 -4.21041 0
M  V30 906 H 77.8323 0.0584616 -0.668448 0
M  V30 907 H 80.3763 -0.467734 -1.99079 0
M  V30 908 H 78.5313 1.41979 -3.60445 0
M  V30 909 H 78.9453 -0.0669416 -5.24457 0
M  V30 910 H 80.4193 1.64306 -5.2698 0
M  V30 911 H 80.8963 2.33385 -3.72059 0
M  V30 912 H 81.5023 0.728906 -4.19007 0
M  V30 913 N 79.8174 1.5752 -0.0501392 0
M  V30 914 C 81.0634 1.92936 0.624798 0
M  V30 915 C 81.3964 0.928685 1.70555 0
M  V30 916 O 80.6714 -0.0454779 1.94447 0
M  V30 917 C 80.9544 3.38737 1.22185 0
M  V30 918 C 80.8074 4.49552 0.149218 0
M  V30 919 C 82.1264 3.84913 2.13378 0
M  V30 920 H 79.2454 0.701604 0.225657 0
M  V30 921 H 81.8874 1.89671 -0.111693 0
M  V30 922 H 80.0374 3.4165 1.84953 0
M  V30 923 H 81.7094 4.58768 -0.482648 0
M  V30 924 H 79.9524 4.30638 -0.522841 0
M  V30 925 H 80.6234 5.48653 0.606966 0
M  V30 926 H 83.0994 3.8387 1.60572 0
M  V30 927 H 81.9754 4.87584 2.52097 0
M  V30 928 H 82.2364 3.21611 3.03346 0
M  V30 929 N 81.2955 -0.223234 1.56011 0
M  V30 930 C 82.5235 -0.964812 1.83027 0
M  V30 931 C 82.9385 -1.78013 0.62904 0
M  V30 932 O 82.2955 -1.78008 -0.402414 0
M  V30 933 C 82.3465 -1.88373 3.08542 0
M  V30 934 O 82.0675 -1.10137 4.2403 0
M  V30 935 C 83.5685 -2.73934 3.48533 0
M  V30 936 H 80.7885 -0.282842 0.608475 0
M  V30 937 H 83.3325 -0.238971 2.03099 0
M  V30 938 H 81.4875 -2.56354 2.9045 0
M  V30 939 H 81.9015 -1.72501 4.95322 0
M  V30 940 H 83.3755 -3.34117 4.39397 0
M  V30 941 H 83.8525 -3.46244 2.70207 0
M  V30 942 H 84.4585 -2.11369 3.69057 0
M  V30 943 N 82.7736 -1.49793 -0.48987 0
M  V30 944 C 83.7366 -1.66752 -1.57246 0
M  V30 945 C 84.7366 -0.538867 -1.51502 0
M  V30 946 O 85.9266 -0.805545 -1.54456 0
M  V30 947 C 83.0586 -1.67528 -2.96896 0
M  V30 948 H 84.2516 -2.63321 -1.43534 0
M  V30 949 H 81.8046 -1.38992 -0.714914 0
M  V30 950 H 82.5396 -0.725837 -3.16073 0
M  V30 951 H 82.3246 -2.49504 -3.02473 0
M  V30 952 H 83.8146 -1.82667 -3.7553 0
M  V30 953 N 84.2517 0.741722 -1.39055 0
M  V30 954 C 85.4977 1.50336 -1.36113 0
M  V30 955 C 85.8307 1.94148 0.0450796 0
M  V30 956 O 85.1057 1.66301 1.00868 0
M  V30 957 C 85.3887 2.74773 -2.32749 0
M  V30 958 C 85.2417 2.37023 -3.82283 0
M  V30 959 C 86.5607 3.76846 -2.27322 0
M  V30 960 H 83.6797 0.545351 -0.495743 0
M  V30 961 H 86.3217 0.848624 -1.69995 0
M  V30 962 H 84.4717 3.30639 -2.03986 0
M  V30 963 H 86.1437 1.8684 -4.21768 0
M  V30 964 H 84.3867 1.69334 -3.99385 0
M  V30 965 H 85.0577 3.26104 -4.45376 0
M  V30 966 H 87.5337 3.30548 -2.5274 0
M  V30 967 H 86.4097 4.6159 -2.97028 0
M  V30 968 H 86.6707 4.23286 -1.27599 0
M  V30 969 N 85.7298 1.2412 0.971189 0
M  V30 970 C 86.9788 1.07284 1.70801 0
M  V30 971 C 87.2918 -0.388902 1.91695 0
M  V30 972 O 88.4978 -0.677379 2.62914 0
M  V30 973 C 86.9538 1.87145 3.07416 0
M  V30 974 C 86.5618 3.37707 2.94377 0
M  V30 975 C 88.3058 1.78828 3.84995 0
M  V30 976 C 86.2128 4.09925 4.26281 0
M  V30 977 H 85.1428 0.397854 0.64049 0
M  V30 978 H 87.7938 1.4817 1.0825 0
M  V30 979 H 86.1758 1.39071 3.70777 0
M  V30 980 H 87.3498 3.93335 2.4005 0
M  V30 981 H 85.6648 3.46938 2.30267 0
M  V30 982 H 88.2618 2.30089 4.82662 0
M  V30 983 H 88.6048 0.75284 4.09436 0
M  V30 984 H 89.1378 2.24563 3.28354 0
M  V30 985 H 85.8768 5.13813 4.07033 0
M  V30 986 H 85.3968 3.59083 4.80437 0
M  V30 987 H 87.0758 4.1673 4.94919 0
M  V30 988 N 87.2079 -1.17134 1.05439 0
M  V30 989 C 88.4539 -1.87733 0.767077 0
M  V30 990 C 88.7869 -1.8098 -0.704253 0
M  V30 991 O 88.0619 -1.21951 -1.5152 0
M  V30 992 C 88.3449 -3.37659 1.25133 0
M  V30 993 C 88.1979 -3.53149 2.78578 0
M  V30 994 C 89.5169 -4.31768 0.852324 0
M  V30 995 H 86.6359 -0.681687 0.280129 0
M  V30 996 H 89.2779 -1.37732 1.30881 0
M  V30 997 H 87.4279 -3.80373 0.790469 0
M  V30 998 H 89.0999 -3.19434 3.32806 0
M  V30 999 H 87.3429 -2.95345 3.17732 0
M  V30 1000 H 88.0139 -4.58403 3.07523 0
M  V30 1001 H 90.4899 -3.96909 1.24911 0
M  V30 1002 H 89.3659 -5.35199 1.21873 0
M  V30 1003 H 89.6269 -4.41429 -0.243485 0
M  V30 1004 N 88.686 -0.835752 -1.33615 0
M  V30 1005 C 89.934 -0.429109 -1.97492 0
M  V30 1006 C 90.255 1.01433 -1.66543 0
M  V30 1007 O 89.525 1.70611 -0.962744 0
M  V30 1008 H 88.105 -0.155686 -0.730596 0
M  V30 1009 H 90.767 -1.06802 -1.63031 0
M  V30 1010 H 89.863 -0.55861 -3.0706 0
M  V30 1011 N 90.1641 1.46063 -0.591896 0
M  V30 1012 C 91.3921 2.06717 -0.0868936 0
M  V30 1013 C 91.8071 1.43916 1.22203 0
M  V30 1014 O 91.1641 0.547698 1.74088 0
M  V30 1015 C 91.2151 3.6142 0.0758725 0
M  V30 1016 O 90.9361 4.21874 -1.18126 0
M  V30 1017 C 92.4371 4.39025 0.61416 0
M  V30 1018 H 89.6571 0.668162 -0.0616518 0
M  V30 1019 H 92.2011 1.8755 -0.815175 0
M  V30 1020 H 90.3561 3.79983 0.754413 0
M  V30 1021 H 90.7701 5.14861 -1.00092 0
M  V30 1022 H 92.2441 5.4783 0.677193 0
M  V30 1023 H 92.7211 4.07708 1.63312 0
M  V30 1024 H 93.3271 4.2529 -0.0298142 0
M  V30 1025 N 91.6422 0.330177 1.54103 0
M  V30 1026 C 92.8912 -0.271336 1.99867 0
M  V30 1027 C 93.2042 -1.52723 1.22209 0
M  V30 1028 O 94.4102 -2.20515 1.58383 0
M  V30 1029 C 92.8662 -0.534032 3.55916 0
M  V30 1030 C 92.4742 0.705193 4.42415 0
M  V30 1031 C 94.2182 -1.09514 4.1013 0
M  V30 1032 C 92.1252 0.414035 5.89949 0
M  V30 1033 H 91.0552 -0.105166 0.74663 0
M  V30 1034 H 93.7062 0.443429 1.78062 0
M  V30 1035 H 92.0882 -1.30915 3.73734 0
M  V30 1036 H 93.2622 1.4804 4.36372 0
M  V30 1037 H 91.5772 1.18698 3.99124 0
M  V30 1038 H 94.1742 -1.3277 5.17954 0
M  V30 1039 H 94.5172 -2.04656 3.62521 0
M  V30 1040 H 95.0502 -0.381038 3.95971 0
M  V30 1041 H 91.7892 1.33481 6.41766 0
M  V30 1042 H 91.3092 -0.323336 5.98928 0
M  V30 1043 H 92.9882 0.0263105 6.46995 0
M  V30 1044 N 93.1203 -1.57491 0.0584922 0
M  V30 1045 C 94.0503 -2.14988 -0.911178 0
M  V30 1046 C 95.0313 -1.07343 -1.31952 0
M  V30 1047 O 96.2163 -1.35318 -1.39294 0
M  V30 1048 C 93.3463 -2.70078 -2.18347 0
M  V30 1049 C 92.3003 -3.82771 -1.91495 0
M  V30 1050 C 91.6263 -4.24408 -3.25241 0
M  V30 1051 C 92.9263 -5.07592 -1.23075 0
M  V30 1052 H 94.6203 -2.96263 -0.432246 0
M  V30 1053 H 92.1663 -1.42512 -0.206469 0
M  V30 1054 H 94.1193 -3.08943 -2.86587 0
M  V30 1055 H 92.8433 -1.86005 -2.68458 0
M  V30 1056 H 91.5023 -3.44389 -1.25664 0
M  V30 1057 H 91.1503 -3.37275 -3.73168 0
M  V30 1058 H 90.8503 -5.00366 -3.08071 0
M  V30 1059 H 92.3743 -4.65879 -3.94701 0
M  V30 1060 H 93.7883 -5.43857 -1.81362 0
M  V30 1061 H 92.1853 -5.88741 -1.16207 0
M  V30 1062 H 93.2553 -4.84454 -0.207847 0
M  V30 1063 N 94.5984 0.214957 -1.56127 0
M  V30 1064 C 95.8464 0.936518 -1.79091 0
M  V30 1065 C 96.1674 1.84606 -0.628148 0
M  V30 1066 O 95.4374 1.92664 0.35462 0
M  V30 1067 H 94.0174 0.3488 -0.660566 0
M  V30 1068 H 96.6794 0.22523 -1.93594 0
M  V30 1069 H 95.7754 1.53943 -2.71492 0
M  V30 1070 N 96.0765 1.50051 0.48192 0
M  V30 1071 C 97.3235 1.60498 1.23477 0
M  V30 1072 C 97.6515 0.300331 1.92167 0
M  V30 1073 O 96.9065 -0.713094 1.82246 0
M  V30 1074 C 97.2055 2.72717 2.30998 0
M  V30 1075 C 96.8715 4.13572 1.79636 0
M  V30 1076 C 95.5335 4.519 1.65348 0
M  V30 1077 C 97.8855 5.01649 1.41412 0
M  V30 1078 C 95.2135 5.76057 1.11244 0
M  V30 1079 C 97.5655 6.26343 0.887538 0
M  V30 1080 C 96.2295 6.63483 0.731207 0
M  V30 1081 H 95.4995 0.587303 0.451836 0
M  V30 1082 H 98.1465 1.83948 0.532468 0
M  V30 1083 H 96.4515 2.43312 3.07094 0
M  V30 1084 H 98.1485 2.78006 2.88988 0
M  V30 1085 H 94.7385 3.83329 1.91721 0
M  V30 1086 H 98.9225 4.72679 1.51289 0
M  V30 1087 H 94.1785 6.03516 0.978686 0
M  V30 1088 H 98.3525 6.93958 0.582654 0
M  V30 1089 H 95.9795 7.59568 0.309806 0
M  V30 1090 N 97.5546 -0.734337 1.39446 0
M  V30 1091 C 98.7826 -1.52358 1.39981 0
M  V30 1092 C 99.1976 -1.88799 -0.0054975 0
M  V30 1093 O 98.5546 -1.54146 -0.976998 0
M  V30 1094 C 98.6056 -2.81072 2.27333 0
M  V30 1095 O 98.3266 -2.46178 3.62392 0
M  V30 1096 C 99.8276 -3.75096 2.36259 0
M  V30 1097 H 97.0476 -0.470806 0.478103 0
M  V30 1098 H 99.5916 -0.907339 1.83269 0
M  V30 1099 H 97.7466 -3.39026 1.87457 0
M  V30 1100 H 98.1606 -3.28866 4.08592 0
M  V30 1101 H 99.6346 -4.62305 3.01626 0
M  V30 1102 H 100.112 -4.16892 1.38194 0
M  V30 1103 H 100.718 -3.23061 2.76608 0
M  V30 1104 N 99.0327 -1.24633 -0.964593 0
M  V30 1105 C 99.9627 -1.06611 -2.07741 0
M  V30 1106 C 100.944 0.0218666 -1.70086 0
M  V30 1107 O 102.129 -0.145793 -1.93652 0
M  V30 1108 C 99.2587 -0.673444 -3.40708 0
M  V30 1109 C 98.2127 -1.71054 -3.92332 0
M  V30 1110 C 97.5387 -1.17285 -5.21678 0
M  V30 1111 C 98.8387 -3.10718 -4.19824 0
M  V30 1112 H 100.533 -1.99693 -2.23076 0
M  V30 1113 H 98.0787 -0.96152 -1.07195 0
M  V30 1114 H 100.032 -0.534345 -4.17998 0
M  V30 1115 H 98.7557 0.293073 -3.25282 0
M  V30 1116 H 97.4147 -1.83791 -3.17201 0
M  V30 1117 H 97.0627 -0.196847 -5.02615 0
M  V30 1118 H 96.7627 -1.86592 -5.57187 0
M  V30 1119 H 98.2867 -1.04593 -6.01575 0
M  V30 1120 H 99.7007 -3.01192 -4.87808 0
M  V30 1121 H 98.0977 -3.77406 -4.66567 0
M  V30 1122 H 99.1677 -3.58524 -3.26479 0
M  V30 1123 N 100.511 1.16574 -1.06058 0
M  V30 1124 C 101.927 1.3904 -0.783585 0
M  V30 1125 C 102.127 1.91784 0.618145 0
M  V30 1126 O 101.183 2.11511 1.37911 0
M  V30 1127 C 102.496 2.37329 -1.84649 0
M  V30 1128 C 104.044 2.51018 -1.86973 0
M  V30 1129 C 104.519 3.52588 -2.92311 0
M  V30 1130 N 106.01 3.60113 -2.91329 0
M  V30 1131 C 106.745 4.38486 -3.69482 0
M  V30 1132 N 106.241 5.20302 -4.57447 0
M  V30 1133 N 108.034 4.33446 -3.57885 0
M  V30 1134 H 100.185 0.806725 -1.96483 0
M  V30 1135 H 102.448 0.417117 -0.851303 0
M  V30 1136 H 102.154 2.05663 -2.85299 0
M  V30 1137 H 102.028 3.36946 -1.6955 0
M  V30 1138 H 104.415 2.81989 -0.869827 0
M  V30 1139 H 104.496 1.51445 -2.0615 0
M  V30 1140 H 104.14 3.22354 -3.92492 0
M  V30 1141 H 104.07 4.51886 -2.70383 0
M  V30 1142 H 106.561 3.01707 -2.27555 0
M  V30 1143 H 106.874 5.77311 -5.13743 0
M  V30 1144 H 105.219 5.19653 -4.61503 0
M  V30 1145 H 108.41 3.68586 -2.88551 0
M  V30 1146 H 108.583 4.94279 -4.19037 0
M  V30 1147 N 101.989 0.842826 1.3317 0
M  V30 1148 C 103.4 0.496651 1.79973 0
M  V30 1149 C 103.751 -0.984641 1.69703 0
M  V30 1150 O 102.876 -1.76743 1.24863 0
M  V30 1151 C 103.471 0.894727 3.26772 0
M  V30 1152 C 102.03 0.600629 3.71577 0
M  V30 1153 C 101.177 1.10091 2.5451 0
M  V30 1154 H 104.128 1.03116 1.20635 0
M  V30 1155 H 104.149 0.206347 3.7994 0
M  V30 1156 H 103.661 1.97287 3.34215 0
M  V30 1157 H 101.762 -0.467284 3.69658 0
M  V30 1158 H 101.875 1.15863 4.64879 0
M  V30 1159 H 100.239 0.52162 2.49301 0
M  V30 1160 H 101.022 2.18591 2.64713 0
M  V30 1161 N 103.467 -1.45747 0.599634 0
M  V30 1162 C 104.697 -2.06369 0.0977132 0
M  V30 1163 C 105.105 -1.44624 -1.21985 0
M  V30 1164 O 104.448 -0.551831 -1.75216 0
M  V30 1165 C 104.51 -3.59284 -0.124673 0
M  V30 1166 C 104.174 -4.43318 1.10987 0
M  V30 1167 C 105.171 -4.78796 2.02609 0
M  V30 1168 C 102.856 -4.84194 1.33647 0
M  V30 1169 C 104.85 -5.53997 3.15224 0
M  V30 1170 C 102.537 -5.5915 2.46565 0
M  V30 1171 C 103.535 -5.93968 3.37182 0
M  V30 1172 O 103.223 -6.67405 4.48136 0
M  V30 1173 H 102.955 -0.673122 0.0623153 0
M  V30 1174 H 105.509 -1.88104 0.824981 0
M  V30 1175 H 103.739 -3.75919 -0.906745 0
M  V30 1176 H 105.428 -4.01775 -0.577201 0
M  V30 1177 H 106.194 -4.47781 1.86325 0
M  V30 1178 H 102.073 -4.56534 0.64016 0
M  V30 1179 H 105.617 -5.81091 3.85978 0
M  V30 1180 H 101.514 -5.89579 2.62805 0
M  V30 1181 H 102.282 -6.85847 4.46717 0
M  V30 1182 N 104.945 -0.338344 -1.53925 0
M  V30 1183 C 106.361 0.0137736 -1.59594 0
M  V30 1184 C 106.561 1.49186 -1.35447 0
M  V30 1185 O 105.617 2.24987 -1.14616 0
M  V30 1186 C 106.93 -0.41773 -2.97784 0
M  V30 1187 C 108.478 -0.369633 -3.1081 0
M  V30 1188 C 108.953 -0.776524 -4.51369 0
M  V30 1189 N 110.444 -0.730506 -4.57403 0
M  V30 1190 C 111.179 -1.01736 -5.64303 0
M  V30 1191 N 110.675 -1.3721 -6.79077 0
M  V30 1192 N 112.468 -0.941942 -5.54151 0
M  V30 1193 H 104.619 -1.3012 -1.67876 0
M  V30 1194 H 106.882 -0.530082 -0.78595 0
M  V30 1195 H 106.588 -1.44811 -3.20504 0
M  V30 1196 H 106.462 0.209729 -3.76616 0
M  V30 1197 H 108.849 0.651568 -2.87817 0
M  V30 1198 H 108.93 -1.03223 -2.34049 0
M  V30 1199 H 108.574 -1.79571 -4.75096 0
M  V30 1200 H 108.504 -0.0914649 -5.26521 0
M  V30 1201 H 110.995 -0.468783 -3.74981 0
M  V30 1202 H 111.308 -1.57597 -7.5656 0
M  V30 1203 H 109.653 -1.4105 -6.80536 0
M  V30 1204 H 112.844 -0.664184 -4.63364 0
M  V30 1205 H 113.017 -1.16884 -6.37371 0
M  V30 1206 N 106.423 1.57458 -0.0668435 0
M  V30 1207 C 107.356 2.08033 0.93795 0
M  V30 1208 C 108.334 0.984321 1.29421 0
M  V30 1209 O 109.518 1.25736 1.40437 0
M  V30 1210 C 106.645 2.53388 2.24749 0
M  V30 1211 C 105.691 3.74376 2.04315 0
M  V30 1212 S 106.524 5.19303 1.30706 0
M  V30 1213 C 107.68 5.67986 2.62951 0
M  V30 1214 H 107.913 2.92935 0.50759 0
M  V30 1215 H 105.446 1.5371 0.145804 0
M  V30 1216 H 107.404 2.8018 3.00016 0
M  V30 1217 H 106.065 1.68763 2.64911 0
M  V30 1218 H 105.258 4.04083 3.01218 0
M  V30 1219 H 104.86 3.47931 1.37186 0
M  V30 1220 H 107.152 5.74528 3.5906 0
M  V30 1221 H 108.095 6.66955 2.3786 0
M  V30 1222 H 108.503 4.95781 2.69929 0
M  V30 1223 N 107.901 -0.206675 1.56239 0
M  V30 1224 C 109.126 -0.949474 1.8439 0
M  V30 1225 C 109.551 -1.76549 0.649016 0
M  V30 1226 O 108.909 -1.76782 -0.402231 0
M  V30 1227 C 108.957 -1.83078 3.10668 0
M  V30 1228 O 108.061 -2.9281 2.90407 0
M  V30 1229 H 107.402 -0.268033 0.607499 0
M  V30 1230 H 109.932 -0.215488 2.03462 0
M  V30 1231 H 109.942 -2.2377 3.41161 0
M  V30 1232 H 108.617 -1.23112 3.97261 0
M  V30 1233 H 107.194 -2.55956 2.71184 0
M  V30 1234 N 109.379 -1.50304 -0.473955 0
M  V30 1235 C 110.609 -1.64663 -1.24778 0
M  V30 1236 C 111.017 -0.328174 -1.86332 0
M  V30 1237 O 110.36 0.699536 -1.69859 0
M  V30 1238 C 110.422 -2.6778 -2.39863 0
M  V30 1239 C 110.086 -4.11413 -1.98969 0
M  V30 1240 C 111.083 -4.97372 -1.51385 0
M  V30 1241 C 108.768 -4.57312 -2.07777 0
M  V30 1242 C 110.762 -6.27277 -1.13148 0
M  V30 1243 C 108.449 -5.87223 -1.69152 0
M  V30 1244 C 109.447 -6.72031 -1.21915 0
M  V30 1245 O 109.135 -7.99518 -0.838237 0
M  V30 1246 H 108.867 -0.556602 -0.383627 0
M  V30 1247 H 111.421 -1.9726 -0.572491 0
M  V30 1248 H 109.651 -2.30419 -3.10554 0
M  V30 1249 H 111.34 -2.71388 -3.01833 0
M  V30 1250 H 112.106 -4.63128 -1.44004 0
M  V30 1251 H 107.985 -3.91449 -2.43493 0
M  V30 1252 H 111.529 -6.93425 -0.762077 0
M  V30 1253 H 107.426 -6.20989 -1.76191 0
M  V30 1254 H 108.194 -8.12764 -0.967339 0
M  V30 1255 N 110.857 0.726932 -1.39834 0
M  V30 1256 C 112.273 1.03354 -1.21615 0
M  V30 1257 C 112.473 2.01327 -0.08338 0
M  V30 1258 O 111.529 2.46158 0.56238 0
M  V30 1259 C 112.842 1.58811 -2.55342 0
M  V30 1260 C 114.39 1.70851 -2.62257 0
M  V30 1261 C 114.865 2.29716 -3.96225 0
M  V30 1262 N 116.356 2.37116 -3.97907 0
M  V30 1263 C 117.091 2.83619 -4.98345 0
M  V30 1264 N 116.587 3.29958 -6.09179 0
M  V30 1265 N 118.38 2.82901 -4.8572 0
M  V30 1266 H 110.531 0.0773069 -2.12259 0
M  V30 1267 H 112.794 0.0969102 -0.943034 0
M  V30 1268 H 112.5 0.942855 -3.38826 0
M  V30 1269 H 112.374 2.57502 -2.75632 0
M  V30 1270 H 114.761 2.34497 -1.79152 0
M  V30 1271 H 114.842 0.707913 -2.45809 0
M  V30 1272 H 114.486 1.66696 -4.79765 0
M  V30 1273 H 114.416 3.30469 -4.09997 0
M  V30 1274 H 116.907 2.04374 -3.17868 0
M  V30 1275 H 117.22 3.63976 -6.8172 0
M  V30 1276 H 115.565 3.27946 -6.12761 0
M  V30 1277 H 118.756 2.46027 -3.98231 0
M  V30 1278 H 118.929 3.18827 -5.6414 0
M  V30 1279 N 112.336 1.25143 0.95797 0
M  V30 1280 C 113.246 1.06968 2.08794 0
M  V30 1281 C 114.262 0.00773911 1.73998 0
M  V30 1282 O 115.438 0.207972 2.00323 0
M  V30 1283 C 112.503 0.68691 3.39827 0
M  V30 1284 C 111.564 1.82641 3.88511 0
M  V30 1285 C 110.797 1.46181 5.1329 0
M  V30 1286 O 111.02 0.355971 5.69288 0
M  V30 1287 O 109.954 2.29085 5.566 0
M  V30 1288 H 113.78 2.01723 2.27027 0
M  V30 1289 H 111.365 1.04051 1.07209 0
M  V30 1290 H 113.247 0.485417 4.18595 0
M  V30 1291 H 111.922 -0.231417 3.22872 0
M  V30 1292 H 110.829 2.08274 3.10762 0
M  V30 1293 H 112.162 2.72386 4.09959 0
M  V30 1294 N 113.814 -1.1601 1.06675 0
M  V30 1295 C 115.06 -1.86909 0.786945 0
M  V30 1296 C 115.393 -1.81717 -0.685018 0
M  V30 1297 O 114.668 -1.23551 -1.50218 0
M  V30 1298 C 114.951 -3.36313 1.28707 0
M  V30 1299 C 114.804 -3.50175 2.82308 0
M  V30 1300 C 116.123 -4.3084 0.898071 0
M  V30 1301 H 113.242 -0.678677 0.287343 0
M  V30 1302 H 115.884 -1.36336 1.32334 0
M  V30 1303 H 114.034 -3.79513 0.830768 0
M  V30 1304 H 115.706 -3.15886 3.36175 0
M  V30 1305 H 113.949 -2.91959 3.20847 0
M  V30 1306 H 114.62 -4.55116 3.12368 0
M  V30 1307 H 117.096 -3.95561 1.29114 0
M  V30 1308 H 115.972 -5.33876 1.27543 0
M  V30 1309 H 116.233 -4.41662 -0.196651 0
M  V30 1310 N 115.292 -0.849877 -1.32721 0
M  V30 1311 C 116.239 -0.289033 -2.28983 0
M  V30 1312 C 117.209 0.601324 -1.54833 0
M  V30 1313 O 118.394 0.537253 -1.8308 0
M  V30 1314 C 115.534 0.520623 -3.4115 0
M  V30 1315 C 114.647 -0.394989 -4.3019 0
M  V30 1316 C 113.782 0.426834 -5.29482 0
M  V30 1317 C 112.821 -0.486476 -6.10164 0
M  V30 1318 N 111.958 0.297879 -7.01468 0
M  V30 1319 H 116.798 -1.11519 -2.76347 0
M  V30 1320 H 114.335 -0.56138 -1.35967 0
M  V30 1321 H 116.293 1.00563 -4.04899 0
M  V30 1322 H 114.923 1.31165 -2.9495 0
M  V30 1323 H 113.975 -0.99836 -3.67065 0
M  V30 1324 H 115.287 -1.09612 -4.86607 0
M  V30 1325 H 114.441 0.975205 -5.98811 0
M  V30 1326 H 113.18 1.16136 -4.73671 0
M  V30 1327 H 112.185 -1.04677 -5.39743 0
M  V30 1328 H 113.41 -1.21953 -6.6806 0
M  V30 1329 H 111.356 1.01558 -6.48091 0
M  V30 1330 H 111.273 -0.344318 -7.55216 0
M  V30 1331 H 112.541 0.828131 -7.75089 0
M  V30 1332 N 116.77 1.45427 -0.607355 0
M  V30 1333 C 118 2.06314 -0.108656 0
M  V30 1334 C 118.408 1.45269 1.21217 0
M  V30 1335 O 117.751 0.561115 1.74921 0
M  V30 1336 C 117.813 3.59345 0.105618 0
M  V30 1337 C 117.477 4.42723 -1.13337 0
M  V30 1338 C 118.474 4.77715 -2.05145 0
M  V30 1339 C 116.159 4.83478 -1.36213 0
M  V30 1340 C 118.153 5.52317 -3.18158 0
M  V30 1341 C 115.84 5.57835 -2.49527 0
M  V30 1342 C 116.838 5.92171 -3.40327 0
M  V30 1343 O 116.526 6.65019 -4.51669 0
M  V30 1344 H 116.258 0.672782 -0.0658842 0
M  V30 1345 H 118.812 1.87664 -0.834945 0
M  V30 1346 H 117.042 3.76394 0.886796 0
M  V30 1347 H 118.731 4.02076 0.555886 0
M  V30 1348 H 119.497 4.46787 -1.88697 0
M  V30 1349 H 115.376 4.56188 -0.664362 0
M  V30 1350 H 118.92 5.79036 -3.89054 0
M  V30 1351 H 114.817 5.88177 -2.65928 0
M  V30 1352 H 115.585 6.83469 -4.50348 0
M  V30 1353 N 118.248 0.346503 1.53744 0
M  V30 1354 C 119.495 -0.249104 2.00962 0
M  V30 1355 C 119.823 -1.5032 1.23426 0
M  V30 1356 O 119.078 -1.93217 0.310761 0
M  V30 1357 C 119.377 -0.605809 3.52228 0
M  V30 1358 C 119.043 0.551747 4.47512 0
M  V30 1359 C 117.705 0.86941 4.73281 0
M  V30 1360 C 120.057 1.32818 5.03993 0
M  V30 1361 C 117.385 1.96582 5.52786 0
M  V30 1362 C 119.737 2.41486 5.84694 0
M  V30 1363 C 118.401 2.73808 6.08757 0
M  V30 1364 H 117.671 -0.0911538 0.735372 0
M  V30 1365 H 120.318 0.475027 1.85515 0
M  V30 1366 H 118.623 -1.4107 3.65522 0
M  V30 1367 H 120.32 -1.07858 3.86222 0
M  V30 1368 H 116.91 0.294102 4.2759 0
M  V30 1369 H 121.094 1.09602 4.84047 0
M  V30 1370 H 116.35 2.22045 5.69654 0
M  V30 1371 H 120.524 3.02078 6.27473 0
M  V30 1372 H 118.151 3.58892 6.7015 0
M  V30 1373 N 119.726 -1.57421 0.075193 0
M  V30 1374 C 120.951 -1.98364 -0.605515 0
M  V30 1375 C 121.376 -0.953383 -1.62149 0
M  V30 1376 O 120.734 0.0806053 -1.81121 0
M  V30 1377 C 120.782 -3.38332 -1.24756 0
M  V30 1378 O 119.886 -3.37959 -2.36342 0
M  V30 1379 H 119.227 -0.645553 -0.155428 0
M  V30 1380 H 121.757 -2.04044 0.150714 0
M  V30 1381 H 121.767 -3.75591 -1.5936 0
M  V30 1382 H 120.442 -4.12846 -0.503129 0
M  V30 1383 H 119.019 -3.12474 -2.03506 0
M  V30 1384 N 121.204 0.198386 -1.56346 0
M  V30 1385 C 122.451 0.919286 -1.80431 0
M  V30 1386 C 122.779 1.83393 -0.647866 0
M  V30 1387 O 122.034 1.92236 0.366556 0
M  V30 1388 C 122.333 1.77031 -3.10475 0
M  V30 1389 C 121.999 1.00693 -4.39513 0
M  V30 1390 C 120.661 0.796145 -4.74568 0
M  V30 1391 C 123.013 0.469559 -5.19081 0
M  V30 1392 C 120.341 0.0364588 -5.86689 0
M  V30 1393 C 122.693 -0.2769 -6.31994 0
M  V30 1394 C 121.357 -0.49873 -6.65634 0
M  V30 1395 H 120.627 0.336391 -0.660244 0
M  V30 1396 H 123.274 0.185872 -1.90596 0
M  V30 1397 H 121.579 2.5723 -2.95533 0
M  V30 1398 H 123.276 2.33065 -3.26315 0
M  V30 1399 H 119.866 1.18122 -4.12001 0
M  V30 1400 H 124.05 0.619816 -4.92414 0
M  V30 1401 H 119.306 -0.145412 -6.11227 0
M  V30 1402 H 123.48 -0.700684 -6.92866 0
M  V30 1403 H 121.107 -1.0893 -7.52355 0
M  V30 1404 N 122.682 1.50554 0.465978 0
M  V30 1405 C 124.093 1.54599 1.04671 0
M  V30 1406 C 124.444 0.352488 1.93008 0
M  V30 1407 O 123.569 -0.534044 2.09707 0
M  V30 1408 C 124.164 2.80166 1.90505 0
M  V30 1409 C 122.723 2.86876 2.43678 0
M  V30 1410 C 121.87 2.48947 1.22151 0
M  V30 1411 H 124.821 1.56744 0.248384 0
M  V30 1412 H 124.842 2.62311 2.75633 0
M  V30 1413 H 124.354 3.67013 1.26186 0
M  V30 1414 H 122.455 2.04393 3.11536 0
M  V30 1415 H 122.568 3.89885 2.78436 0
M  V30 1416 H 120.932 2.01498 1.5579 0
M  V30 1417 H 121.715 3.38107 0.594866 0
M  V30 1418 N 124.16 -0.719506 1.40217 0
M  V30 1419 C 125.408 -1.47641 1.3801 0
M  V30 1420 C 125.729 -1.94992 -0.018145 0
M  V30 1421 O 124.999 -1.70073 -0.972207 0
M  V30 1422 H 123.579 -0.547744 0.507923 0
M  V30 1423 H 126.241 -0.853187 1.75233 0
M  V30 1424 H 125.337 -2.35112 2.05253 0
M  V30 1425 N 125.638 -1.25649 -0.95132 0
M  V30 1426 C 126.548 -1.08073 -2.08224 0
M  V30 1427 C 127.564 -0.0169666 -1.73992 0
M  V30 1428 O 128.74 -0.218593 -2.0021 0
M  V30 1429 C 125.805 -0.704922 -3.39458 0
M  V30 1430 C 124.866 -1.84699 -3.87537 0
M  V30 1431 C 124.099 -1.48902 -5.12508 0
M  V30 1432 O 124.322 -0.386156 -5.69091 0
M  V30 1433 O 123.256 -2.32033 -5.55378 0
M  V30 1434 H 127.082 -2.02924 -2.25954 0
M  V30 1435 H 124.667 -1.04618 -1.06656 0
M  V30 1436 H 126.549 -0.507609 -4.18332 0
M  V30 1437 H 125.224 0.214291 -3.2299 0
M  V30 1438 H 124.131 -2.09919 -3.09653 0
M  V30 1439 H 125.464 -2.74557 -4.08509 0
M  V30 1440 N 127.117 1.15442 -1.07289 0
M  V30 1441 C 128.047 2.22312 -0.714107 0
M  V30 1442 C 129.028 1.67467 0.298155 0
M  V30 1443 O 130.213 1.93445 0.171048 0
M  V30 1444 C 127.343 3.47124 -0.110448 0
M  V30 1445 C 126.297 4.14926 -1.04979 0
M  V30 1446 C 125.623 5.33807 -0.308924 0
M  V30 1447 C 126.923 4.64762 -2.38314 0
M  V30 1448 H 128.617 2.5258 -1.6076 0
M  V30 1449 H 126.163 1.21404 -0.77441 0
M  V30 1450 H 128.116 4.21124 0.152482 0
M  V30 1451 H 126.84 3.16187 0.81812 0
M  V30 1452 H 125.499 3.42866 -1.29764 0
M  V30 1453 H 125.147 4.99126 0.623084 0
M  V30 1454 H 124.847 5.80113 -0.935036 0
M  V30 1455 H 126.371 6.10576 -0.0537771 0
M  V30 1456 H 127.785 5.30292 -2.1786 0
M  V30 1457 H 126.182 5.21728 -2.96514 0
M  V30 1458 H 127.252 3.80434 -3.00663 0
M  V30 1459 N 128.595 0.856903 1.32268 0
M  V30 1460 C 129.525 0.31858 2.31316 0
M  V30 1461 C 130.506 -0.583487 1.59779 0
M  V30 1462 O 131.691 -0.503259 1.87566 0
M  V30 1463 C 128.821 -0.491979 3.43798 0
M  V30 1464 C 127.775 0.315849 4.26833 0
M  V30 1465 C 127.101 -0.619586 5.31098 0
M  V30 1466 C 128.401 1.54282 4.98993 0
M  V30 1467 H 130.095 1.14621 2.76591 0
M  V30 1468 H 127.641 0.552613 1.32974 0
M  V30 1469 H 129.594 -0.879012 4.1213 0
M  V30 1470 H 128.318 -1.35299 2.97257 0
M  V30 1471 H 126.977 0.684664 3.6015 0
M  V30 1472 H 126.625 -1.47751 4.8081 0
M  V30 1473 H 126.325 -0.0830621 5.87541 0
M  V30 1474 H 127.849 -1.00375 6.02293 0
M  V30 1475 H 129.263 1.22796 5.59995 0
M  V30 1476 H 127.66 2.01745 5.65172 0
M  V30 1477 H 128.73 2.30285 4.26728 0
M  V30 1478 N 130.073 -1.45103 0.615059 0
M  V30 1479 C 131.006 -2.27717 -0.148408 0
M  V30 1480 C 131.984 -1.37584 -0.866572 0
M  V30 1481 O 133.168 -1.67017 -0.87393 0
M  V30 1482 C 130.295 -3.16136 -1.21557 0
M  V30 1483 C 129.341 -4.22263 -0.599712 0
M  V30 1484 S 130.174 -5.3215 0.598081 0
M  V30 1485 C 131.33 -6.24137 -0.469484 0
M  V30 1486 H 131.563 -2.92121 0.552483 0
M  V30 1487 H 129.096 -1.49054 0.402778 0
M  V30 1488 H 131.054 -3.67633 -1.82638 0
M  V30 1489 H 129.715 -2.50982 -1.88857 0
M  V30 1490 H 128.908 -4.84081 -1.4029 0
M  V30 1491 H 128.51 -3.73945 -0.063876 0
M  V30 1492 H 130.802 -6.63984 -1.34652 0
M  V30 1493 H 131.745 -7.0801 0.112725 0
M  V30 1494 H 132.153 -5.58971 -0.788168 0
M  V30 1495 N 131.551 -0.354651 -1.53558 0
M  V30 1496 C 132.967 -0.00315426 -1.596 0
M  V30 1497 C 133.167 1.47741 -1.37021 0
M  V30 1498 O 132.223 2.23759 -1.16996 0
M  V30 1499 C 133.536 -0.44929 -2.97325 0
M  V30 1500 C 135.084 -0.402578 -3.104 0
M  V30 1501 C 135.559 -0.824355 -4.5052 0
M  V30 1502 N 137.05 -0.778979 -4.56603 0
M  V30 1503 C 137.785 -1.07715 -5.63192 0
M  V30 1504 N 137.281 -1.44405 -6.77583 0
M  V30 1505 N 139.074 -1.00066 -5.53121 0
M  V30 1506 H 131.225 -1.31893 -1.66487 0
M  V30 1507 H 133.488 -0.538388 -0.780284 0
M  V30 1508 H 133.194 -1.48202 -3.1895 0
M  V30 1509 H 133.068 0.169772 -3.76818 0
M  V30 1510 H 135.455 0.621004 -2.88492 0
M  V30 1511 H 135.536 -1.05699 -2.32941 0
M  V30 1512 H 135.18 -1.846 -4.73165 0
M  V30 1513 H 135.11 -0.147304 -5.26394 0
M  V30 1514 H 137.601 -0.508528 -3.74463 0
M  V30 1515 H 137.914 -1.65612 -7.54846 0
M  V30 1516 H 136.259 -1.4826 -6.79002 0
M  V30 1517 H 139.45 -0.713293 -4.62633 0
M  V30 1518 H 139.623 -1.23638 -6.36096 0
M  V30 1519 N 133.029 1.57378 -0.0835403 0
M  V30 1520 C 133.962 2.09016 0.915833 0
M  V30 1521 C 134.94 0.997993 1.2837 0
M  V30 1522 O 136.124 1.27219 1.39096 0
M  V30 1523 C 133.251 2.55757 2.22049 0
M  V30 1524 C 132.297 3.76522 2.00333 0
M  V30 1525 S 133.13 5.20661 1.25191 0
M  V30 1526 C 134.286 5.70743 2.56912 0
M  V30 1527 H 134.519 2.93457 0.476492 0
M  V30 1528 H 132.052 1.53856 0.129493 0
M  V30 1529 H 134.01 2.83346 2.97027 0
M  V30 1530 H 132.671 1.71564 2.63106 0
M  V30 1531 H 131.864 4.07256 2.96916 0
M  V30 1532 H 131.466 3.49367 1.33488 0
M  V30 1533 H 133.758 5.78304 3.52946 0
M  V30 1534 H 134.701 6.6944 2.30772 0
M  V30 1535 H 135.109 4.98616 2.64655 0
M  V30 1536 N 134.507 -0.190092 1.56449 0
M  V30 1537 C 135.437 -1.23816 1.97969 0
M  V30 1538 C 136.418 -1.47201 0.852395 0
M  V30 1539 O 137.603 -1.58854 1.1171 0
M  V30 1540 C 134.733 -2.5813 2.3235 0
M  V30 1541 C 133.687 -2.49348 3.47864 0
M  V30 1542 C 133.013 -3.8798 3.67934 0
M  V30 1543 C 134.313 -2.01424 4.81898 0
M  V30 1544 H 136.007 -0.89311 2.85769 0
M  V30 1545 H 133.553 -0.428177 1.37487 0
M  V30 1546 H 135.506 -3.31637 2.59991 0
M  V30 1547 H 134.23 -2.94386 1.41438 0
M  V30 1548 H 132.889 -1.78297 3.20321 0
M  V30 1549 H 132.537 -4.21597 2.74344 0
M  V30 1550 H 132.237 -3.82978 4.45648 0
M  V30 1551 H 133.761 -4.63101 3.97957 0
M  V30 1552 H 135.175 -2.64693 5.08538 0
M  V30 1553 H 133.572 -2.07413 5.63116 0
M  V30 1554 H 134.642 -0.967677 4.75146 0
M  V30 1555 N 135.985 -1.50799 -0.457987 0
M  V30 1556 C 136.917 -1.66786 -1.57211 0
M  V30 1557 C 137.93 -0.548962 -1.53265 0
M  V30 1558 O 139.119 -0.8226 -1.58416 0
M  V30 1559 C 136.219 -1.64834 -2.96113 0
M  V30 1560 C 135.392 -2.92971 -3.24787 0
M  V30 1561 C 134.451 -2.83485 -4.43309 0
M  V30 1562 O 133.477 -3.5744 -4.42973 0
M  V30 1563 N 134.679 -1.97929 -5.45714 0
M  V30 1564 H 137.444 -2.62889 -1.43909 0
M  V30 1565 H 135.005 -1.48427 -0.646617 0
M  V30 1566 H 136.997 -1.56084 -3.7339 0
M  V30 1567 H 135.567 -0.764118 -3.03117 0
M  V30 1568 H 134.787 -3.15749 -2.36 0
M  V30 1569 H 136.075 -3.77834 -3.40762 0
M  V30 1570 H 135.473 -1.37182 -5.48815 0
M  V30 1571 H 134.03 -1.95073 -6.21924 0
M  V30 1572 N 137.463 0.71206 -1.40597 0
M  V30 1573 C 138.396 1.83582 -1.35546 0
M  V30 1574 C 139.374 1.61032 -0.225284 0
M  V30 1575 O 140.558 1.83998 -0.409519 0
M  V30 1576 C 137.685 3.19983 -1.11034 0
M  V30 1577 C 136.731 3.61355 -2.2655 0
M  V30 1578 S 137.564 3.68062 -3.88961 0
M  V30 1579 C 138.72 5.07216 -3.66719 0
M  V30 1580 H 138.953 1.87586 -2.30648 0
M  V30 1581 H 136.486 0.879182 -1.26924 0
M  V30 1582 H 138.444 3.98734 -0.975761 0
M  V30 1583 H 137.105 3.13608 -0.175798 0
M  V30 1584 H 136.298 4.60403 -2.0505 0
M  V30 1585 H 135.9 2.8987 -2.36329 0
M  V30 1586 H 138.192 5.94238 -3.25404 0
M  V30 1587 H 139.135 5.33753 -4.6531 0
M  V30 1588 H 139.543 4.77976 -3.00332 0
M  V30 1589 N 138.941 1.26152 0.944643 0
M  V30 1590 C 139.871 1.09902 2.06019 0
M  V30 1591 C 140.852 0.00519538 1.70099 0
M  V30 1592 O 142.037 0.176583 1.93396 0
M  V30 1593 C 139.167 0.727562 3.39594 0
M  V30 1594 C 138.121 1.77274 3.89561 0
M  V30 1595 C 137.447 1.25569 5.19747 0
M  V30 1596 C 138.747 3.17357 4.14827 0
M  V30 1597 H 140.441 2.03217 2.19871 0
M  V30 1598 H 137.987 0.978452 1.05652 0
M  V30 1599 H 139.94 0.600777 4.17095 0
M  V30 1600 H 138.664 -0.241287 3.25707 0
M  V30 1601 H 137.323 1.88814 3.14237 0
M  V30 1602 H 136.971 0.276783 5.02238 0
M  V30 1603 H 136.671 1.95433 5.54148 0
M  V30 1604 H 138.195 1.1415 5.99835 0
M  V30 1605 H 139.609 3.08914 4.82954 0
M  V30 1606 H 138.006 3.84781 4.60504 0
M  V30 1607 H 139.076 3.63673 3.20734 0
M  V30 1608 N 140.419 -1.14872 1.07899 0
M  V30 1609 C 141.665 -1.86064 0.806725 0
M  V30 1610 C 141.998 -1.82434 -0.665706 0
M  V30 1611 O 141.273 -1.25138 -1.48899 0
M  V30 1612 C 141.556 -3.34929 1.32267 0
M  V30 1613 C 141.409 -3.47161 2.86006 0
M  V30 1614 C 142.728 -4.29863 0.943717 0
M  V30 1615 H 139.847 -0.675591 0.294526 0
M  V30 1616 H 142.489 -1.34925 1.33773 0
M  V30 1617 H 140.639 -3.78611 0.870974 0
M  V30 1618 H 142.311 -3.12302 3.39507 0
M  V30 1619 H 140.554 -2.88539 3.23925 0
M  V30 1620 H 141.225 -4.51777 3.17177 0
M  V30 1621 H 143.701 -3.9417 1.33302 0
M  V30 1622 H 142.577 -5.32494 1.33198 0
M  V30 1623 H 142.838 -4.41846 -0.149796 0
M  V30 1624 N 141.898 -0.863906 -1.31812 0
M  V30 1625 C 142.828 -0.330843 -2.31144 0
M  V30 1626 C 143.809 0.575005 -1.60087 0
M  V30 1627 O 144.994 0.493304 -1.8783 0
M  V30 1628 C 142.124 0.47374 -3.44054 0
M  V30 1629 C 141.078 -0.338481 -4.26659 0
M  V30 1630 C 140.404 0.591412 -5.31419 0
M  V30 1631 C 141.704 -1.56926 -4.98168 0
M  V30 1632 H 143.398 -1.16086 -2.75979 0
M  V30 1633 H 140.944 -0.559657 -1.32679 0
M  V30 1634 H 142.897 0.857143 -4.12591 0
M  V30 1635 H 141.621 1.33721 -2.9797 0
M  V30 1636 H 140.28 -0.703754 -3.59782 0
M  V30 1637 H 139.928 1.45199 -4.81587 0
M  V30 1638 H 139.628 0.0519022 -5.87577 0
M  V30 1639 H 141.152 0.97179 -6.02817 0
M  V30 1640 H 142.566 -1.25764 -5.59336 0
M  V30 1641 H 140.963 -2.04739 -5.64094 0
M  V30 1642 H 142.033 -2.32544 -4.25501 0
M  V30 1643 N 143.376 1.44774 -0.622745 0
M  V30 1644 C 144.787 1.85546 -0.207226 0
M  V30 1645 C 145.138 1.52093 1.23944 0
M  V30 1646 O 144.263 0.95492 1.94191 0
M  V30 1647 C 144.858 3.36781 -0.369313 0
M  V30 1648 C 143.417 3.76399 -0.00836847 0
M  V30 1649 C 142.564 2.68664 -0.686651 0
M  V30 1650 H 145.515 1.3536 -0.828454 0
M  V30 1651 H 145.536 3.78453 0.394162 0
M  V30 1652 H 145.048 3.61098 -1.42231 0
M  V30 1653 H 143.149 3.57698 1.04322 0
M  V30 1654 H 143.262 4.7732 -0.412584 0
M  V30 1655 H 141.626 2.54404 -0.122777 0
M  V30 1656 H 142.409 2.95815 -1.74208 0
M  V30 1657 N 144.854 0.36279 1.53368 0
M  V30 1658 C 145.784 -0.476976 2.28576 0
M  V30 1659 C 146.765 -1.08631 1.30894 0
M  V30 1660 O 147.95 -1.10409 1.59761 0
M  V30 1661 C 145.08 -1.61828 3.07293 0
M  V30 1662 C 144.034 -1.13633 4.1264 0
M  V30 1663 C 143.36 -2.36766 4.79423 0
M  V30 1664 C 144.66 -0.223061 5.21823 0
M  V30 1665 H 146.354 0.150474 2.99022 0
M  V30 1666 H 143.9 0.0738103 1.43811 0
M  V30 1667 H 145.853 -2.21237 3.58653 0
M  V30 1668 H 144.577 -2.27292 2.34533 0
M  V30 1669 H 143.236 -0.564945 3.62221 0
M  V30 1670 H 142.884 -3.0068 4.03238 0
M  V30 1671 H 142.584 -2.05192 5.50609 0
M  V30 1672 H 144.108 -2.96865 5.33576 0
M  V30 1673 H 145.522 -0.724545 5.68703 0
M  V30 1674 H 143.919 0.001678 6.001 0
M  V30 1675 H 144.989 0.735553 4.79289 0
M  V30 1676 N 146.332 -1.57332 0.0918853 0
M  V30 1677 C 147.581 -1.93412 -0.572249 0
M  V30 1678 C 147.894 -0.975515 -1.69538 0
M  V30 1679 O 149.1 -1.22991 -2.42045 0
M  V30 1680 C 147.556 -3.43648 -1.0693 0
M  V30 1681 C 147.164 -4.47994 0.0239049 0
M  V30 1682 C 148.908 -3.88695 -1.70635 0
M  V30 1683 C 146.815 -5.89381 -0.488319 0
M  V30 1684 H 145.745 -0.721939 -0.217532 0
M  V30 1685 H 148.396 -1.82735 0.167369 0
M  V30 1686 H 146.778 -3.49466 -1.8625 0
M  V30 1687 H 147.952 -4.53815 0.799277 0
M  V30 1688 H 146.267 -4.12536 0.565946 0
M  V30 1689 H 148.864 -4.91725 -2.10025 0
M  V30 1690 H 149.207 -3.27166 -2.57426 0
M  V30 1691 H 149.74 -3.85564 -0.979023 0
M  V30 1692 H 146.479 -6.54602 0.342906 0
M  V30 1693 H 145.999 -5.87037 -1.23077 0
M  V30 1694 H 147.678 -6.39863 -0.958317 0
M  V30 1695 N 147.81 0.181792 -1.56548 0
M  V30 1696 C 149.059 0.898348 -1.8059 0
M  V30 1697 C 149.372 1.83862 -0.667379 0
M  V30 1698 O 150.578 2.59678 -0.792446 0
M  V30 1699 C 149.034 1.64791 -3.19956 0
M  V30 1700 C 148.642 0.751789 -4.41647 0
M  V30 1701 C 150.386 2.35331 -3.53298 0
M  V30 1702 C 148.293 1.50098 -5.72035 0
M  V30 1703 H 147.223 0.339194 -0.673397 0
M  V30 1704 H 149.874 0.151413 -1.82874 0
M  V30 1705 H 148.256 2.43921 -3.11959 0
M  V30 1706 H 149.43 -0.0018076 -4.608 0
M  V30 1707 H 147.745 0.156562 -4.16106 0
M  V30 1708 H 150.342 2.91958 -4.47956 0
M  V30 1709 H 150.685 3.10164 -2.77676 0
M  V30 1710 H 151.218 1.63154 -3.62803 0
M  V30 1711 H 147.957 0.795175 -6.50659 0
M  V30 1712 H 147.477 2.22817 -5.56878 0
M  V30 1713 H 149.156 2.05125 -6.13622 0
M  V30 1714 N 149.288 1.51039 0.449983 0
M  V30 1715 C 150.513 1.6715 1.22783 0
M  V30 1716 C 150.938 0.363081 1.84563 0
M  V30 1717 O 150.296 -0.675433 1.68249 0
M  V30 1718 C 150.344 2.77985 2.29689 0
M  V30 1719 O 149.448 2.40707 3.34864 0
M  V30 1720 H 148.789 0.557746 0.360299 0
M  V30 1721 H 151.319 1.97535 0.533005 0
M  V30 1722 H 151.329 3.01693 2.74673 0
M  V30 1723 H 150.004 3.72935 1.84098 0
M  V30 1724 H 148.581 2.27523 2.95445 0
M  V30 1725 N 150.766 -0.704594 1.40972 0
M  V30 1726 C 151.991 -1.49858 1.43378 0
M  V30 1727 C 152.416 -1.88061 0.038184 0
M  V30 1728 O 151.774 -1.5402 -0.956425 0
M  V30 1729 C 151.822 -2.74333 2.34038 0
M  V30 1730 O 150.926 -3.7147 1.7912 0
M  V30 1731 H 150.267 -0.45139 0.486974 0
M  V30 1732 H 152.797 -0.866832 1.8533 0
M  V30 1733 H 152.807 -3.22741 2.49604 0
M  V30 1734 H 151.482 -2.45863 3.35446 0
M  V30 1735 H 150.059 -3.30363 1.72958 0
M  V30 1736 N 152.244 -1.26651 -0.937939 0
M  V30 1737 C 153.174 -1.10993 -2.05433 0
M  V30 1738 C 154.155 -0.0142161 -1.70094 0
M  V30 1739 O 155.34 -0.186837 -1.93299 0
M  V30 1740 C 152.47 -0.745561 -3.39203 0
M  V30 1741 C 151.424 -1.79337 -3.88616 0
M  V30 1742 C 150.75 -1.28324 -5.19073 0
M  V30 1743 C 152.05 -3.19553 -4.13138 0
M  V30 1744 H 153.744 -2.0438 -2.1879 0
M  V30 1745 H 151.29 -0.984041 -1.05131 0
M  V30 1746 H 153.243 -0.622888 -4.16771 0
M  V30 1747 H 151.967 0.22401 -3.25831 0
M  V30 1748 H 150.626 -1.90477 -3.13231 0
M  V30 1749 H 150.274 -0.303414 -5.02084 0
M  V30 1750 H 149.974 -1.98369 -5.53103 0
M  V30 1751 H 151.498 -1.1733 -5.99221 0
M  V30 1752 H 152.912 -3.11471 -4.81309 0
M  V30 1753 H 151.309 -3.87218 -4.58457 0
M  V30 1754 H 152.379 -3.65368 -3.18801 0
M  V30 1755 N 153.722 1.14298 -1.08507 0
M  V30 1756 C 154.968 1.85633 -0.816581 0
M  V30 1757 C 155.301 1.82784 0.656021 0
M  V30 1758 O 154.576 1.25926 1.48233 0
M  V30 1759 C 154.859 3.34223 -1.34041 0
M  V30 1760 C 154.712 3.45639 -2.87843 0
M  V30 1761 C 156.031 4.29356 -0.9665 0
M  V30 1762 H 153.15 0.67402 -0.298104 0
M  V30 1763 H 155.792 1.34214 -1.34487 0
M  V30 1764 H 153.942 3.78144 -0.89104 0
M  V30 1765 H 155.614 3.10498 -3.41158 0
M  V30 1766 H 153.857 2.86817 -3.25451 0
M  V30 1767 H 154.528 4.50089 -3.19569 0
M  V30 1768 H 157.004 3.93457 -1.35391 0
M  V30 1769 H 155.88 5.3178 -1.3602 0
M  V30 1770 H 156.141 4.41919 0.126362 0
M  V30 1771 N 155.201 0.870884 1.31352 0
M  V30 1772 C 156.429 0.49677 2.00848 0
M  V30 1773 C 156.844 -0.910998 1.65367 0
M  V30 1774 O 156.201 -1.59696 0.883374 0
M  V30 1775 C 156.252 0.645308 3.55694 0
M  V30 1776 O 155.973 1.99764 3.89905 0
M  V30 1777 C 157.474 0.272326 4.42463 0
M  V30 1778 H 154.694 0.193462 0.642506 0
M  V30 1779 H 157.238 1.1723 1.67563 0
M  V30 1780 H 155.393 0.0173176 3.87396 0
M  V30 1781 H 155.807 2.00607 4.84621 0
M  V30 1782 H 157.281 0.427208 5.50344 0
M  V30 1783 H 157.758 -0.788587 4.32062 0
M  V30 1784 H 158.364 0.876054 4.1618 0
M  V30 1785 N 156.679 -1.44442 0.630414 0
M  V30 1786 C 157.927 -2.01653 0.134351 0
M  V30 1787 C 158.248 -1.49836 -1.24796 0
M  V30 1788 O 157.518 -0.701684 -1.82902 0
M  V30 1789 H 156.098 -0.74554 0.0466769 0
M  V30 1790 H 158.76 -1.76952 0.816955 0
M  V30 1791 H 157.856 -3.11935 0.101498 0
M  V30 1792 N 158.157 -0.370918 -1.53173 0
M  V30 1793 C 159.09 0.516727 -2.22273 0
M  V30 1794 C 160.068 1.07877 -1.21661 0
M  V30 1795 O 161.252 1.13389 -1.50583 0
M  V30 1796 C 158.379 1.71346 -2.92161 0
M  V30 1797 C 157.425 1.27838 -4.0689 0
M  V30 1798 S 158.258 0.275217 -5.34792 0
M  V30 1799 C 159.414 1.47816 -6.08195 0
M  V30 1800 H 159.647 -0.0701054 -2.97217 0
M  V30 1801 H 157.18 -0.155038 -1.5362 0
M  V30 1802 H 159.138 2.39988 -3.3304 0
M  V30 1803 H 157.799 2.27156 -2.16931 0
M  V30 1804 H 156.992 2.17141 -4.54825 0
M  V30 1805 H 156.594 0.671105 -3.6793 0
M  V30 1806 H 158.886 2.40831 -6.33251 0
M  V30 1807 H 159.829 1.04008 -7.0042 0
M  V30 1808 H 160.237 1.68663 -5.38714 0
M  V30 1809 N 159.635 1.57281 -0.100228 0
M  V30 1810 C 160.598 2.13158 0.842398 0
M  V30 1811 C 161.598 1.06202 1.20738 0
M  V30 1812 O 162.788 1.32066 1.13597 0
M  V30 1813 C 159.92 2.65639 2.13655 0
M  V30 1814 H 161.113 2.97766 0.357114 0
M  V30 1815 H 158.666 1.5559 0.148823 0
M  V30 1816 H 159.401 1.84566 2.66657 0
M  V30 1817 H 159.186 3.43844 1.88451 0
M  V30 1818 H 160.676 3.08846 2.81077 0
M  V30 1819 N 161.113 -0.173488 1.56642 0
M  V30 1820 C 162.076 -1.19859 1.95362 0
M  V30 1821 C 163.076 -1.37296 0.83704 0
M  V30 1822 O 164.266 -1.34739 1.10413 0
M  V30 1823 C 161.398 -2.56405 2.24654 0
M  V30 1824 H 162.591 -0.867062 2.87092 0
M  V30 1825 H 160.144 -0.415853 1.50666 0
M  V30 1826 H 160.879 -2.94576 1.35631 0
M  V30 1827 H 160.664 -2.45115 3.06041 0
M  V30 1828 H 162.154 -3.30287 2.5554 0
M  V30 1829 N 162.591 -1.51276 -0.441967 0
M  V30 1830 C 163.521 -1.752 -1.54361 0
M  V30 1831 C 164.502 -0.601682 -1.59103 0
M  V30 1832 O 165.687 -0.843913 -1.74905 0
M  V30 1833 C 162.817 -1.87282 -2.92477 0
M  V30 1834 C 161.771 -3.02687 -3.02596 0
M  V30 1835 C 161.097 -2.99947 -4.42647 0
M  V30 1836 C 162.397 -4.4273 -2.77106 0
M  V30 1837 H 164.091 -2.67442 -1.34592 0
M  V30 1838 H 161.637 -1.28694 -0.646048 0
M  V30 1839 H 163.59 -2.02602 -3.695 0
M  V30 1840 H 162.314 -0.916844 -3.13467 0
M  V30 1841 H 160.973 -2.87065 -2.28012 0
M  V30 1842 H 160.621 -2.02136 -4.60597 0
M  V30 1843 H 160.321 -3.77439 -4.50348 0
M  V30 1844 H 161.845 -3.17354 -5.2165 0
M  V30 1845 H 163.259 -4.58727 -3.43864 0
M  V30 1846 H 161.656 -5.21893 -2.96222 0
M  V30 1847 H 162.726 -4.53087 -1.72744 0
M  V30 1848 N 164.069 0.697108 -1.41344 0
M  V30 1849 C 165.346 1.45154 -1.31109 0
M  V30 1850 C 165.726 2.11009 0.0620449 0
M  V30 1851 O 165.074 2.01571 1.07618 0
M  V30 1852 C 165.284 2.47223 -2.46337 0
M  V30 1853 C 166.632 3.1252 -2.87431 0
M  V30 1854 O 167.656 2.57547 -2.46065 0
M  V30 1855 O 166.515 4.12083 -3.58957 0
M  V30 1856 H 163.609 0.646365 -0.515889 0
M  V30 1857 H 166.155 0.727716 -1.53305 0
M  V30 1858 H 164.927 1.97204 -3.37974 0
M  V30 1859 H 164.55 3.27116 -2.2601 0
M  V30 1860 N 165.547 1.27147 0.931209 0
M  V30 1861 C 166.772 1.16191 1.71797 0
M  V30 1862 C 167.197 -0.278004 1.86034 0
M  V30 1863 O 166.555 -1.20137 1.35782 0
M  V30 1864 C 166.603 1.84673 3.09723 0
M  V30 1865 O 165.707 1.14231 3.96264 0
M  V30 1866 H 165.048 0.404303 0.526721 0
M  V30 1867 H 167.578 1.68152 1.1656 0
M  V30 1868 H 167.588 1.91893 3.60057 0
M  V30 1869 H 166.263 2.89421 2.98677 0
M  V30 1870 H 164.84 1.15056 3.54706 0
M  V30 1871 N 167.025 -1.13721 1.09112 0
M  V30 1872 C 167.972 -2.19031 0.727591 0
M  V30 1873 C 168.942 -1.63555 -0.289656 0
M  V30 1874 O 170.127 -1.90023 -0.172026 0
M  V30 1875 C 167.267 -3.4477 0.15082 0
M  V30 1876 C 166.38 -4.14365 1.22172 0
M  V30 1877 C 165.515 -5.27709 0.608042 0
M  V30 1878 C 164.554 -5.89147 1.66047 0
M  V30 1879 N 163.691 -6.93929 1.06806 0
M  V30 1880 H 168.531 -2.49475 1.62991 0
M  V30 1881 H 166.068 -1.22499 0.81439 0
M  V30 1882 H 168.026 -4.16714 -0.201358 0
M  V30 1883 H 166.656 -3.14787 -0.714783 0
M  V30 1884 H 165.708 -3.40737 1.69122 0
M  V30 1885 H 167.02 -4.56114 2.01895 0
M  V30 1886 H 166.174 -6.06355 0.204523 0
M  V30 1887 H 164.913 -4.872 -0.220769 0
M  V30 1888 H 163.918 -5.09198 2.07357 0
M  V30 1889 H 165.143 -6.31729 2.49189 0
M  V30 1890 H 163.089 -6.55483 0.260476 0
M  V30 1891 H 163.006 -7.34202 1.8023 0
M  V30 1892 H 164.274 -7.76434 0.690644 0
M  V30 1893 N 168.503 -0.877838 -1.30888 0
M  V30 1894 C 169.466 -0.344265 -2.266 0
M  V30 1895 C 170.466 0.50922 -1.52524 0
M  V30 1896 O 171.656 0.317398 -1.71284 0
M  V30 1897 C 168.788 0.510198 -3.37061 0
M  V30 1898 H 169.981 -1.1893 -2.7531 0
M  V30 1899 H 167.534 -0.654088 -1.41956 0
M  V30 1900 H 168.269 1.37612 -2.93655 0
M  V30 1901 H 168.054 -0.101047 -3.9197 0
M  V30 1902 H 169.544 0.875537 -4.08319 0
M  V30 1903 N 169.982 1.44106 -0.638065 0
M  V30 1904 C 171.207 2.0685 -0.150916 0
M  V30 1905 C 171.632 1.47417 1.16833 0
M  V30 1906 O 170.99 0.578264 1.71831 0
M  V30 1907 C 171.038 3.60555 -0.05708 0
M  V30 1908 O 170.142 4.00465 0.984972 0
M  V30 1909 H 169.483 0.658151 -0.0879399 0
M  V30 1910 H 172.013 1.84865 -0.876707 0
M  V30 1911 H 172.023 4.07789 0.131232 0
M  V30 1912 H 170.698 4.03193 -1.02021 0
M  V30 1913 H 169.275 3.64849 0.770672 0
M  V30 1914 N 171.46 0.379036 1.52974 0
M  V30 1915 C 172.708 -0.206014 2.01047 0
M  V30 1916 C 173.029 -1.48175 1.26765 0
M  V30 1917 O 172.299 -1.92085 0.384743 0
M  V30 1918 H 170.879 -0.0791184 0.742798 0
M  V30 1919 H 173.541 0.508366 1.88153 0
M  V30 1920 H 172.637 -0.423501 3.09213 0
M  V30 1921 N 172.938 -1.57226 0.108567 0
M  V30 1922 C 173.885 -2.14756 -0.845481 0
M  V30 1923 C 174.855 -1.06971 -1.27068 0
M  V30 1924 O 176.04 -1.34827 -1.35005 0
M  V30 1925 C 173.18 -2.74298 -2.09415 0
M  V30 1926 C 172.293 -3.96358 -1.71826 0
M  V30 1927 C 171.428 -4.44021 -2.9158 0
M  V30 1928 C 170.467 -5.58637 -2.50181 0
M  V30 1929 N 169.604 -6.01091 -3.62814 0
M  V30 1930 H 174.444 -2.95961 -0.348035 0
M  V30 1931 H 171.981 -1.46226 -0.160106 0
M  V30 1932 H 173.939 -3.06945 -2.82561 0
M  V30 1933 H 172.569 -1.95801 -2.56636 0
M  V30 1934 H 171.621 -3.69939 -0.885947 0
M  V30 1935 H 172.933 -4.79504 -1.37394 0
M  V30 1936 H 172.087 -4.78522 -3.72963 0
M  V30 1937 H 170.826 -3.59803 -3.29231 0
M  V30 1938 H 169.831 -5.23751 -1.67228 0
M  V30 1939 H 171.056 -6.44613 -2.13659 0
M  V30 1940 H 169.002 -5.19817 -4.00158 0
M  V30 1941 H 168.919 -6.79066 -3.32273 0
M  V30 1942 H 170.187 -6.40227 -4.44668 0
M  V30 1943 N 174.416 0.165178 -1.56732 0
M  V30 1944 C 175.349 1.23336 -1.91998 0
M  V30 1945 C 176.327 1.42476 -0.783531 0
M  V30 1946 O 177.511 1.57384 -1.03743 0
M  V30 1947 C 174.638 2.59533 -2.17625 0
M  V30 1948 C 173.684 2.57093 -3.40302 0
M  V30 1949 S 174.517 2.05571 -4.9447 0
M  V30 1950 C 175.673 3.43532 -5.23198 0
M  V30 1951 H 175.906 0.932387 -2.82301 0
M  V30 1952 H 173.439 0.370013 -1.49901 0
M  V30 1953 H 175.397 3.37918 -2.3307 0
M  V30 1954 H 174.058 2.86827 -1.28019 0
M  V30 1955 H 173.251 3.57308 -3.55453 0
M  V30 1956 H 172.853 1.86806 -3.24005 0
M  V30 1957 H 175.145 4.39559 -5.15552 0
M  V30 1958 H 176.088 3.33251 -6.2478 0
M  V30 1959 H 176.496 3.39828 -4.50752 0
M  V30 1960 N 175.894 1.51508 0.433938 0
M  V30 1961 C 177.142 1.6402 1.18075 0
M  V30 1962 C 177.463 0.360328 1.91642 0
M  V30 1963 O 176.733 -0.623945 1.85698 0
M  V30 1964 H 175.313 0.6045 0.43885 0
M  V30 1965 H 177.975 1.88452 0.497178 0
M  V30 1966 H 177.071 2.46949 1.90847 0
M  V30 1967 N 177.372 -0.689602 1.41712 0
M  V30 1968 C 178.305 -1.81403 1.3845 0
M  V30 1969 C 179.283 -1.60653 0.250874 0
M  V30 1970 O 180.467 -1.83323 0.43874 0
M  V30 1971 C 177.594 -3.18176 1.1611 0
M  V30 1972 C 176.64 -3.57705 2.3227 0
M  V30 1973 S 177.473 -3.61827 3.94767 0
M  V30 1974 C 178.629 -5.01318 3.74742 0
M  V30 1975 H 178.862 -1.83893 2.33603 0
M  V30 1976 H 176.395 -0.858878 1.28307 0
M  V30 1977 H 178.353 -3.97132 1.03907 0
M  V30 1978 H 177.014 -3.13288 0.225668 0
M  V30 1979 H 176.207 -4.57082 2.12349 0
M  V30 1980 H 175.809 -2.86073 2.40911 0
M  V30 1981 H 178.101 -5.88986 3.34817 0
M  V30 1982 H 179.044 -5.26283 4.73743 0
M  V30 1983 H 179.452 -4.73138 3.07898 0
M  V30 1984 N 178.85 -1.27639 -0.924453 0
M  V30 1985 C 180.266 -1.05113 -1.20097 0
M  V30 1986 C 180.466 0.213262 -2.00368 0
M  V30 1987 O 179.522 0.91787 -2.35226 0
M  V30 1988 C 180.835 -2.29244 -1.94596 0
M  V30 1989 C 182.383 -2.34315 -2.07522 0
M  V30 1990 C 182.858 -3.58183 -2.85427 0
M  V30 1991 N 184.349 -3.5876 -2.92994 0
M  V30 1992 C 185.084 -4.51277 -3.53746 0
M  V30 1993 N 184.58 -5.54102 -4.15863 0
M  V30 1994 N 186.373 -4.38894 -3.51181 0
M  V30 1995 H 178.524 -2.08821 -0.388264 0
M  V30 1996 H 180.787 -0.918568 -0.234385 0
M  V30 1997 H 180.493 -3.21301 -1.43034 0
M  V30 1998 H 180.367 -2.34816 -2.95197 0
M  V30 1999 H 182.754 -1.42762 -2.58269 0
M  V30 2000 H 182.835 -2.32744 -1.06131 0
M  V30 2001 H 182.479 -4.50074 -2.35363 0
M  V30 2002 H 182.409 -3.57006 -3.8711 0
M  V30 2003 H 184.9 -2.84398 -2.4885 0
M  V30 2004 H 185.213 -6.20859 -4.60168 0
M  V30 2005 H 183.558 -5.57941 -4.144 0
M  V30 2006 H 186.749 -3.57772 -3.01856 0
M  V30 2007 H 186.922 -5.11186 -3.98237 0
M  V30 2008 N 180.328 1.1314 -1.09713 0
M  V30 2009 C 181.291 2.16831 -0.742751 0
M  V30 2010 C 182.291 1.59159 0.229129 0
M  V30 2011 O 183.481 1.74199 0.00693237 0
M  V30 2012 C 180.613 3.40756 -0.0989168 0
M  V30 2013 H 181.806 2.49695 -1.66109 0
M  V30 2014 H 179.359 1.2802 -0.896699 0
M  V30 2015 H 180.094 3.13485 0.830514 0
M  V30 2016 H 179.879 3.83888 -0.798265 0
M  V30 2017 H 181.369 4.17386 0.133524 0
M  V30 2018 N 181.806 0.884767 1.30421 0
M  V30 2019 C 183.052 0.503851 1.96441 0
M  V30 2020 C 183.385 -0.944518 1.69684 0
M  V30 2021 O 182.66 -1.66737 1.00145 0
M  V30 2022 C 182.943 0.779085 3.51571 0
M  V30 2023 C 182.796 2.27807 3.87846 0
M  V30 2024 C 184.115 0.255452 4.39358 0
M  V30 2025 H 181.234 0.184533 0.713524 0
M  V30 2026 H 183.876 1.10872 1.54297 0
M  V30 2027 H 182.026 0.264274 3.876 0
M  V30 2028 H 183.698 2.86127 3.61841 0
M  V30 2029 H 181.941 2.74479 3.35922 0
M  V30 2030 H 182.612 2.42125 4.96064 0
M  V30 2031 H 185.088 0.696079 4.10236 0
M  V30 2032 H 183.964 0.477361 5.4682 0
M  V30 2033 H 184.225 -0.843293 4.33983 0
M  V30 2034 N 183.284 -1.43765 0.645699 0
M  V30 2035 C 184.53 -2.02197 0.156271 0
M  V30 2036 C 184.863 -1.50776 -1.22393 0
M  V30 2037 O 184.138 -0.697771 -1.81553 0
M  V30 2038 C 184.421 -3.59749 0.158872 0
M  V30 2039 C 184.274 -4.21419 1.57245 0
M  V30 2040 C 185.593 -4.37149 -0.50879 0
M  V30 2041 H 182.712 -0.734694 0.0582602 0
M  V30 2042 H 185.354 -1.71157 0.824951 0
M  V30 2043 H 183.504 -3.86325 -0.410525 0
M  V30 2044 H 185.176 -4.059 2.19186 0
M  V30 2045 H 183.419 -3.78356 2.122 0
M  V30 2046 H 184.09 -5.30482 1.52619 0
M  V30 2047 H 186.566 -4.16093 -0.024412 0
M  V30 2048 H 185.442 -5.4683 -0.476213 0
M  V30 2049 H 185.703 -4.12839 -1.58165 0
M  V30 2050 N 184.763 -0.387143 -1.52771 0
M  V30 2051 C 185.993 0.195585 -2.05672 0
M  V30 2052 C 186.401 1.41241 -1.25887 0
M  V30 2053 O 185.744 1.81265 -0.298081 0
M  V30 2054 C 185.806 0.632327 -3.53895 0
M  V30 2055 C 185.47 -0.470739 -4.54569 0
M  V30 2056 C 186.467 -1.32746 -5.02667 0
M  V30 2057 C 184.152 -0.637151 -4.98243 0
M  V30 2058 C 186.146 -2.33574 -5.93061 0
M  V30 2059 C 183.833 -1.64877 -5.88438 0
M  V30 2060 C 184.831 -2.49649 -6.35739 0
M  V30 2061 O 184.519 -3.49082 -7.24153 0
M  V30 2062 H 184.251 0.033658 -0.675162 0
M  V30 2063 H 186.805 -0.550221 -1.97893 0
M  V30 2064 H 185.035 1.43008 -3.59285 0
M  V30 2065 H 186.724 1.14048 -3.89548 0
M  V30 2066 H 187.49 -1.21019 -4.69659 0
M  V30 2067 H 183.369 0.0129567 -4.60998 0
M  V30 2068 H 186.913 -2.99777 -6.29904 0
M  V30 2069 H 182.81 -1.76643 -6.2086 0
M  V30 2070 H 183.578 -3.45065 -7.42208 0
M  V30 2071 N 186.241 1.57166 -0.116904 0
M  V30 2072 C 187.471 1.99184 0.548586 0
M  V30 2073 C 187.879 0.995436 1.60897 0
M  V30 2074 O 187.222 -0.0201293 1.83689 0
M  V30 2075 C 187.284 3.37611 1.23526 0
M  V30 2076 C 186.948 4.55857 0.323077 0
M  V30 2077 C 187.945 5.18056 -0.437476 0
M  V30 2078 C 185.63 5.01751 0.234761 0
M  V30 2079 C 187.624 6.24536 -1.2741 0
M  V30 2080 C 185.311 6.08093 -0.605496 0
M  V30 2081 C 186.309 6.69352 -1.35856 0
M  V30 2082 O 185.997 7.7364 -2.18487 0
M  V30 2083 H 185.729 0.659148 0.149999 0
M  V30 2084 H 188.283 2.0443 -0.199428 0
M  V30 2085 H 186.513 3.29113 2.0303 0
M  V30 2086 H 188.202 3.63932 1.79745 0
M  V30 2087 H 188.968 4.83516 -0.379105 0
M  V30 2088 H 184.847 4.53817 0.810601 0
M  V30 2089 H 188.391 6.72281 -1.86237 0
M  V30 2090 H 184.288 6.42063 -0.665268 0
M  V30 2091 H 185.056 7.90727 -2.11406 0
M  V30 2092 N 187.719 -0.156864 1.56817 0
M  V30 2093 C 188.652 -1.22316 1.9265 0
M  V30 2094 C 189.63 -1.42059 0.791076 0
M  V30 2095 O 190.814 -1.56831 1.04576 0
M  V30 2096 C 187.941 -2.58375 2.18998 0
M  V30 2097 C 186.987 -2.55284 3.41661 0
M  V30 2098 S 187.82 -2.02946 4.95553 0
M  V30 2099 C 188.976 -3.40753 5.25013 0
M  V30 2100 H 189.209 -0.917403 2.82791 0
M  V30 2101 H 186.742 -0.362059 1.50095 0
M  V30 2102 H 188.7 -3.36677 2.34859 0
M  V30 2103 H 187.361 -2.86145 1.29538 0
M  V30 2104 H 186.554 -3.55418 3.57343 0
M  V30 2105 H 186.156 -1.85086 3.24991 0
M  V30 2106 H 188.448 -4.36819 5.17876 0
M  V30 2107 H 189.391 -3.29933 6.26538 0
M  V30 2108 H 189.799 -3.37433 4.52548 0
M  V30 2109 N 189.197 -1.51736 -0.425897 0
M  V30 2110 C 190.425 -1.68794 -1.1965 0
M  V30 2111 C 190.84 -0.390164 -1.84725 0
M  V30 2112 O 190.197 0.632376 -1.71194 0
M  V30 2113 C 190.248 -2.81174 -2.27208 0
M  V30 2114 O 189.969 -4.05925 -1.64793 0
M  V30 2115 C 191.47 -3.09599 -3.17275 0
M  V30 2116 H 188.69 -0.566128 -0.360194 0
M  V30 2117 H 191.234 -1.98211 -0.503249 0
M  V30 2118 H 189.389 -2.54324 -2.9223 0
M  V30 2119 H 189.803 -4.68423 -2.35967 0
M  V30 2120 H 191.277 -3.91786 -3.88854 0
M  V30 2121 H 191.754 -2.22468 -3.78688 0
M  V30 2122 H 192.36 -3.38151 -2.57941 0
M  V30 2123 N 190.675 0.682077 -1.42076 0
M  V30 2124 C 191.903 1.47057 -1.4554 0
M  V30 2125 C 192.318 1.8869 -0.0645779 0
M  V30 2126 O 191.675 1.57666 0.919115 0
M  V30 2127 C 191.726 2.72442 -2.37609 0
M  V30 2128 O 191.447 2.32559 -3.71279 0
M  V30 2129 C 192.948 3.66069 -2.50017 0
M  V30 2130 H 190.168 0.452737 -0.495248 0
M  V30 2131 H 192.712 0.838695 -1.8651 0
M  V30 2132 H 190.867 3.31835 -1.9991 0
M  V30 2133 H 191.281 3.13475 -4.20516 0
M  V30 2134 H 192.755 4.50792 -3.18576 0
M  V30 2135 H 193.232 4.11476 -1.53572 0
M  V30 2136 H 193.838 3.12572 -2.88407 0
M  V30 2137 N 192.153 1.28127 0.917671 0
M  V30 2138 C 193.381 1.17892 1.70026 0
M  V30 2139 C 193.796 -0.262958 1.8696 0
M  V30 2140 O 193.153 -1.17811 1.3938 0
M  V30 2141 C 193.204 1.86872 3.09453 0
M  V30 2142 O 192.925 3.25428 2.93306 0
M  V30 2143 C 194.426 1.8289 4.03815 0
M  V30 2144 H 191.646 0.40942 0.531617 0
M  V30 2145 H 194.19 1.69181 1.14883 0
M  V30 2146 H 192.345 1.39464 3.61426 0
M  V30 2147 H 192.759 3.59918 3.81523 0
M  V30 2148 H 194.233 2.35751 4.99125 0
M  V30 2149 H 194.71 0.800412 4.31845 0
M  V30 2150 H 195.316 2.29959 3.57769 0
M  V30 2151 N 193.631 -1.12557 1.10312 0
M  V30 2152 C 194.88 -1.83395 0.839588 0
M  V30 2153 C 195.193 -1.84939 -0.636929 0
M  V30 2154 O 196.399 -2.51761 -1.01631 0
M  V30 2155 C 194.855 -3.29303 1.45215 0
M  V30 2156 C 194.463 -3.36122 2.96186 0
M  V30 2157 C 196.207 -4.05121 1.26796 0
M  V30 2158 C 194.114 -4.76357 3.50483 0
M  V30 2159 H 193.044 -0.687133 0.310425 0
M  V30 2160 H 195.695 -1.26746 1.32694 0
M  V30 2161 H 194.077 -3.85812 0.892469 0
M  V30 2162 H 195.251 -2.89559 3.58458 0
M  V30 2163 H 193.566 -2.73776 3.13745 0
M  V30 2164 H 196.163 -5.08668 1.64806 0
M  V30 2165 H 196.506 -4.15773 0.209409 0
M  V30 2166 H 197.039 -3.54967 1.79563 0
M  V30 2167 H 193.778 -4.70899 4.55998 0
M  V30 2168 H 193.298 -5.23377 2.92978 0
M  V30 2169 H 194.977 -5.45294 3.48228 0
M  V30 2170 N 195.109 -0.891671 -1.2995 0
M  V30 2171 C 196.358 -0.509521 -1.95158 0
M  V30 2172 C 196.671 0.947388 -1.71125 0
M  V30 2173 O 197.877 1.43669 -2.30372 0
M  V30 2174 C 196.333 -0.860315 -3.49466 0
M  V30 2175 C 195.941 -2.33545 -3.8231 0
M  V30 2176 C 197.685 -0.547687 -4.20952 0
M  V30 2177 C 195.592 -2.62752 -5.29826 0
M  V30 2178 H 194.522 -0.18682 -0.730489 0
M  V30 2179 H 197.173 -1.08756 -1.47798 0
M  V30 2180 H 195.555 -0.211285 -3.95436 0
M  V30 2181 H 196.729 -3.02936 -3.47227 0
M  V30 2182 H 195.044 -2.61629 -3.23944 0
M  V30 2183 H 197.641 -0.742854 -5.29515 0
M  V30 2184 H 197.984 0.51332 -4.13123 0
M  V30 2185 H 198.517 -1.1542 -3.80688 0
M  V30 2186 H 195.256 -3.6762 -5.42712 0
M  V30 2187 H 194.776 -1.97977 -5.66185 0
M  V30 2188 H 196.455 -2.48601 -5.97333 0
M  V30 2189 N 196.587 1.43421 -0.653314 0
M  V30 2190 C 197.55 2.29182 0.0287951 0
M  V30 2191 C 198.55 1.42213 0.750465 0
M  V30 2192 O 199.74 1.63843 0.591701 0
M  V30 2193 C 196.872 3.24278 1.05151 0
M  V30 2194 H 198.065 2.90985 -0.725786 0
M  V30 2195 H 195.618 1.50702 -0.414545 0
M  V30 2196 H 196.353 2.6737 1.83532 0
M  V30 2197 H 196.138 3.88396 0.537687 0
M  V30 2198 H 197.628 3.88647 1.52786 0
M  V30 2199 N 198.065 0.39524 1.52563 0
M  V30 2200 C 199.311 -0.185318 2.01952 0
M  V30 2201 C 199.644 -1.45964 1.28095 0
M  V30 2202 O 198.919 -1.90689 0.38315 0
M  V30 2203 C 199.202 -0.447193 3.57312 0
M  V30 2204 C 199.055 0.842828 4.41833 0
M  V30 2205 C 200.374 -1.23529 4.22408 0
M  V30 2206 H 197.493 -0.0658788 0.73405 0
M  V30 2207 H 200.135 0.525975 1.82575 0
M  V30 2208 H 198.285 -1.05312 3.73954 0
M  V30 2209 H 199.957 1.4795 4.36931 0
M  V30 2210 H 198.2 1.45686 4.08605 0
M  V30 2211 H 198.871 0.614165 5.48573 0
M  V30 2212 H 201.347 -0.722445 4.0978 0
M  V30 2213 H 200.223 -1.38727 5.3108 0
M  V30 2214 H 200.484 -2.25213 3.80436 0
M  V30 2215 N 199.544 -1.57102 0.125237 0
M  V30 2216 C 200.79 -1.95697 -0.532035 0
M  V30 2217 C 201.123 -1.009 -1.6593 0
M  V30 2218 O 200.398 -0.047347 -1.94442 0
M  V30 2219 C 200.681 -3.44181 -1.05884 0
M  V30 2220 C 200.534 -4.49752 0.0654392 0
M  V30 2221 C 201.853 -3.94655 -1.9477 0
M  V30 2222 H 198.972 -0.711571 -0.191925 0
M  V30 2223 H 201.614 -1.88923 0.20206 0
M  V30 2224 H 199.764 -3.50085 -1.68442 0
M  V30 2225 H 201.436 -4.55943 0.700982 0
M  V30 2226 H 199.679 -4.27653 0.727709 0
M  V30 2227 H 200.35 -5.50924 -0.344505 0
M  V30 2228 H 202.826 -3.91094 -1.42074 0
M  V30 2229 H 201.702 -4.99057 -2.28546 0
M  V30 2230 H 201.963 -3.35718 -2.87656 0
M  V30 2231 N 201.022 0.148545 -1.56898 0
M  V30 2232 C 202.271 0.85984 -1.82454 0
M  V30 2233 C 202.584 1.82406 -0.706229 0
M  V30 2234 O 203.79 2.57938 -0.847349 0
M  V30 2235 C 202.246 1.57967 -3.2338 0
M  V30 2236 C 201.854 0.65794 -4.43142 0
M  V30 2237 C 203.598 2.27784 -3.58211 0
M  V30 2238 C 201.505 1.3793 -5.75091 0
M  V30 2239 H 200.435 0.324834 -0.68044 0
M  V30 2240 H 203.086 0.112588 -1.83154 0
M  V30 2241 H 201.468 2.37249 -3.17063 0
M  V30 2242 H 202.642 -0.0995497 -4.60692 0
M  V30 2243 H 200.957 0.0682643 -4.16344 0
M  V30 2244 H 203.554 2.8239 -4.54048 0
M  V30 2245 H 203.897 3.04204 -2.84193 0
M  V30 2246 H 204.43 1.55421 -3.66182 0
M  V30 2247 H 201.169 0.656982 -6.52199 0
M  V30 2248 H 200.689 2.10954 -5.61479 0
M  V30 2249 H 202.368 1.92063 -6.17835 0
M  V30 2250 N 202.5 1.5196 0.417844 0
M  V30 2251 C 203.748 1.65263 1.16329 0
M  V30 2252 C 204.069 0.380634 1.91249 0
M  V30 2253 O 203.339 -0.604214 1.86349 0
M  V30 2254 H 201.919 0.60912 0.432414 0
M  V30 2255 H 204.581 1.88969 0.477162 0
M  V30 2256 H 203.677 2.4896 1.88217 0
M  V30 2257 N 203.978 -0.674533 1.42435 0
M  V30 2258 C 205.227 -1.43034 1.42212 0
M  V30 2259 C 205.54 -1.95555 0.0420788 0
M  V30 2260 O 206.746 -2.71374 -0.0827558 0
M  V30 2261 C 205.202 -2.58748 2.50155 0
M  V30 2262 C 204.81 -2.12925 3.94166 0
M  V30 2263 C 206.554 -3.36257 2.59098 0
M  V30 2264 C 204.461 -3.25723 4.93618 0
M  V30 2265 H 203.391 -0.537345 0.528939 0
M  V30 2266 H 206.042 -0.73024 1.68344 0
M  V30 2267 H 204.424 -3.31128 2.17188 0
M  V30 2268 H 205.598 -1.47697 4.36488 0
M  V30 2269 H 203.913 -1.48354 3.89076 0
M  V30 2270 H 206.51 -4.20264 3.30578 0
M  V30 2271 H 206.853 -3.82866 1.63461 0
M  V30 2272 H 207.386 -2.70947 2.9126 0
M  V30 2273 H 204.125 -2.84105 5.90732 0
M  V30 2274 H 203.645 -3.89732 4.55926 0
M  V30 2275 H 205.324 -3.91186 5.15347 0
M  V30 2276 N 205.456 -1.28612 -0.910864 0
M  V30 2277 C 206.705 -1.15311 -1.65488 0
M  V30 2278 C 207.018 0.296999 -1.93332 0
M  V30 2279 O 208.224 0.551168 -2.65847 0
M  V30 2280 C 206.68 -2.01599 -2.98137 0
M  V30 2281 C 206.288 -3.51367 -2.7793 0
M  V30 2282 C 208.032 -1.96993 -3.76024 0
M  V30 2283 C 205.939 -4.29797 -4.06237 0
M  V30 2284 H 204.869 -0.42796 -0.620779 0
M  V30 2285 H 207.52 -1.53166 -1.01057 0
M  V30 2286 H 205.902 -1.56603 -3.63719 0
M  V30 2287 H 207.076 -4.0434 -2.21011 0
M  V30 2288 H 205.391 -3.57529 -2.13452 0
M  V30 2289 H 207.988 -2.52856 -4.71135 0
M  V30 2290 H 208.331 -0.94733 -4.05378 0
M  V30 2291 H 208.864 -2.39973 -3.17266 0
M  V30 2292 H 205.603 -5.32648 -3.82055 0
M  V30 2293 H 205.123 -3.81596 -4.62757 0
M  V30 2294 H 206.802 -4.39869 -4.74473 0
M  V30 2295 N 206.934 1.1197 -1.10907 0
M  V30 2296 C 208.183 1.82947 -0.849302 0
M  V30 2297 C 208.496 1.85275 0.627112 0
M  V30 2298 O 209.702 2.52296 1.00295 0
M  V30 2299 C 208.158 3.28529 -1.46959 0
M  V30 2300 C 207.766 3.34546 -2.97965 0
M  V30 2301 C 209.51 4.04443 -1.28942 0
M  V30 2302 C 207.417 4.74491 -3.53004 0
M  V30 2303 H 206.347 0.685477 -0.314065 0
M  V30 2304 H 208.998 1.2604 -1.33365 0
M  V30 2305 H 207.38 3.85333 -0.912917 0
M  V30 2306 H 208.554 2.87654 -3.59989 0
M  V30 2307 H 206.869 2.72108 -3.15192 0
M  V30 2308 H 209.466 5.07787 -1.67502 0
M  V30 2309 H 209.809 4.15656 -0.231456 0
M  V30 2310 H 210.342 3.5401 -1.81443 0
M  V30 2311 H 207.081 4.68474 -4.58489 0
M  V30 2312 H 206.601 5.21816 -2.9575 0
M  V30 2313 H 208.28 5.4344 -3.51115 0
M  V30 2314 N 208.412 0.89855 1.29475 0
M  V30 2315 C 209.658 0.524658 1.95896 0
M  V30 2316 C 209.991 -0.926468 1.70676 0
M  V30 2317 O 209.266 -1.65665 1.01908 0
M  V30 2318 C 209.549 0.81633 3.50725 0
M  V30 2319 C 209.402 2.31907 3.85408 0
M  V30 2320 C 210.721 0.302038 4.39062 0
M  V30 2321 H 207.84 0.19209 0.711527 0
M  V30 2322 H 210.482 1.12502 1.53112 0
M  V30 2323 H 208.632 0.305369 3.87298 0
M  V30 2324 H 210.304 2.89949 3.58786 0
M  V30 2325 H 208.547 2.78027 3.32992 0
M  V30 2326 H 209.218 2.47373 4.93468 0
M  V30 2327 H 211.694 0.739551 4.09475 0
M  V30 2328 H 210.57 0.535331 5.46283 0
M  V30 2329 H 210.831 -0.797216 4.34853 0
M  V30 2330 N 209.89 -1.43072 0.660911 0
M  V30 2331 C 211.139 -2.00942 0.174735 0
M  V30 2332 C 211.452 -1.52797 -1.22117 0
M  V30 2333 O 212.658 -2.02991 -1.80297 0
M  V30 2334 C 211.114 -3.58948 0.261559 0
M  V30 2335 C 210.722 -4.16085 1.66064 0
M  V30 2336 C 212.466 -4.24173 -0.166617 0
M  V30 2337 C 210.373 -5.6641 1.70098 0
M  V30 2338 H 209.303 -0.751483 0.0615631 0
M  V30 2339 H 211.954 -1.63955 0.824069 0
M  V30 2340 H 210.336 -3.93372 -0.455421 0
M  V30 2341 H 211.51 -3.93147 2.40359 0
M  V30 2342 H 209.825 -3.6326 2.03546 0
M  V30 2343 H 212.422 -5.34471 -0.156433 0
M  V30 2344 H 212.765 -3.98647 -1.19943 0
M  V30 2345 H 213.298 -3.94659 0.498875 0
M  V30 2346 H 210.037 -5.96715 2.71315 0
M  V30 2347 H 209.557 -5.91382 1.00139 0
M  V30 2348 H 211.236 -6.30585 1.44816 0
M  V30 2349 N 211.368 -0.403325 -1.52352 0
M  V30 2350 C 212.617 0.175668 -2.00934 0
M  V30 2351 C 212.93 1.46718 -1.29356 0
M  V30 2352 O 214.136 2.12708 -1.68724 0
M  V30 2353 C 212.592 0.363612 -3.58058 0
M  V30 2354 C 212.2 -0.915472 -4.38547 0
M  V30 2355 C 213.944 0.89821 -4.14888 0
M  V30 2356 C 211.851 -0.695035 -5.87302 0
M  V30 2357 H 210.781 0.0694234 -0.750797 0
M  V30 2358 H 213.432 -0.527879 -1.75743 0
M  V30 2359 H 211.814 1.12935 -3.79555 0
M  V30 2360 H 212.988 -1.68691 -4.28812 0
M  V30 2361 H 211.303 -1.37606 -3.93006 0
M  V30 2362 H 213.9 1.07907 -5.23699 0
M  V30 2363 H 214.243 1.87126 -3.71873 0
M  V30 2364 H 214.776 0.191681 -3.97338 0
M  V30 2365 H 211.515 -1.63948 -6.34666 0
M  V30 2366 H 211.035 0.0372116 -5.99788 0
M  V30 2367 H 212.714 -0.33497 -6.46132 0
M  V30 2368 N 212.846 1.57033 -0.133567 0
M  V30 2369 C 214.095 1.94861 0.520768 0
M  V30 2370 C 214.408 1.02012 1.66892 0
M  V30 2371 O 215.614 1.29365 2.38699 0
M  V30 2372 C 214.07 3.46362 0.977809 0
M  V30 2373 C 213.678 4.47773 -0.142674 0
M  V30 2374 C 215.422 3.93083 1.60269 0
M  V30 2375 C 213.329 5.90468 0.331883 0
M  V30 2376 H 212.259 0.727453 0.198315 0
M  V30 2377 H 214.91 1.82227 -0.215759 0
M  V30 2378 H 213.292 3.54282 1.7692 0
M  V30 2379 H 214.466 4.51536 -0.919317 0
M  V30 2380 H 212.781 4.10891 -0.675124 0
M  V30 2381 H 215.378 4.97121 1.96914 0
M  V30 2382 H 215.721 3.33876 2.48662 0
M  V30 2383 H 216.254 3.88025 0.876453 0
M  V30 2384 H 212.993 6.53463 -0.516341 0
M  V30 2385 H 212.513 5.90094 1.07469 0
M  V30 2386 H 214.192 6.42179 0.788332 0
M  V30 2387 N 214.325 -0.140222 1.56975 0
M  V30 2388 C 215.275 -1.17827 1.95194 0
M  V30 2389 C 216.259 -1.38195 0.824075 0
M  V30 2390 O 217.451 -1.39643 1.0876 0
M  V30 2391 C 214.58 -2.51024 2.34184 0
M  V30 2392 C 213.666 -2.3422 3.53556 0
M  V30 2393 N 214.057 -1.87185 4.69889 0
M  V30 2394 C 212.355 -2.64949 3.58773 0
M  V30 2395 C 213.056 -1.83586 5.5197 0
M  V30 2396 N 212.032 -2.2715 4.93866 0
M  V30 2397 H 215.834 -0.806817 2.82609 0
M  V30 2398 H 213.348 -0.348208 1.58623 0
M  V30 2399 H 215.345 -3.26074 2.59772 0
M  V30 2400 H 214.005 -2.88945 1.48124 0
M  V30 2401 H 215.016 -1.57048 4.93514 0
M  V30 2402 H 211.693 -3.067 2.8327 0
M  V30 2403 H 213.083 -1.48655 6.55249 0
M  V30 2404 N 215.803 -1.52179 -0.40978 0
M  V30 2405 C 217.214 -1.58377 -0.988615 0
M  V30 2406 C 217.565 -0.423879 -1.91566 0
M  V30 2407 O 216.69 0.455844 -2.11544 0
M  V30 2408 C 217.285 -2.87044 -1.79976 0
M  V30 2409 C 215.844 -2.95722 -2.32863 0
M  V30 2410 C 214.991 -2.53309 -1.12828 0
M  V30 2411 H 217.942 -1.57558 -0.190039 0
M  V30 2412 H 217.963 -2.7236 -2.65707 0
M  V30 2413 H 217.475 -3.71444 -1.12478 0
M  V30 2414 H 215.576 -2.15814 -3.03735 0
M  V30 2415 H 215.689 -3.99951 -2.63773 0
M  V30 2416 H 214.053 -2.07142 -1.48204 0
M  V30 2417 H 214.836 -3.40082 -0.46897 0
M  V30 2418 N 217.281 0.66697 -1.42791 0
M  V30 2419 C 218.529 1.42417 -1.43394 0
M  V30 2420 C 218.85 1.94925 -0.0542373 0
M  V30 2421 O 218.12 1.73564 0.908415 0
M  V30 2422 H 216.7 0.528515 -0.527902 0
M  V30 2423 H 219.362 0.787562 -1.78279 0
M  V30 2424 H 218.458 2.27333 -2.13837 0
M  V30 2425 N 218.759 1.29093 0.90403 0
M  V30 2426 C 219.706 1.13853 2.00764 0
M  V30 2427 C 220.676 0.0330084 1.66067 0
M  V30 2428 O 221.861 0.199733 1.89752 0
M  V30 2429 C 219.001 0.816537 3.35301 0
M  V30 2430 C 218.114 2.00206 3.82807 0
M  V30 2431 C 217.249 1.61983 5.059 0
M  V30 2432 C 216.288 2.77143 5.45764 0
M  V30 2433 N 215.425 2.39346 6.60044 0
M  V30 2434 H 220.265 2.08276 2.13132 0
M  V30 2435 H 217.802 1.03648 1.04381 0
M  V30 2436 H 219.76 0.610557 4.12708 0
M  V30 2437 H 218.39 -0.090779 3.22672 0
M  V30 2438 H 217.442 2.31988 3.01473 0
M  V30 2439 H 218.754 2.86512 4.08304 0
M  V30 2440 H 217.908 1.37649 5.90879 0
M  V30 2441 H 216.647 0.728202 4.82233 0
M  V30 2442 H 215.652 3.02165 4.59322 0
M  V30 2443 H 216.877 3.66964 5.71414 0
M  V30 2444 H 214.823 1.52665 6.37989 0
M  V30 2445 H 214.74 3.19185 6.85315 0
M  V30 2446 H 216.008 2.1832 7.48303 0
M  V30 2447 N 220.237 -1.11381 1.11499 0
M  V30 2448 C 221.485 -1.8277 0.862524 0
M  V30 2449 C 221.806 -1.85097 -0.613534 0
M  V30 2450 O 221.076 -1.32198 -1.4457 0
M  V30 2451 H 219.656 -0.676823 0.316101 0
M  V30 2452 H 222.318 -1.34816 1.4075 0
M  V30 2453 H 221.414 -2.86614 1.23527 0
M  V30 2454 N 221.715 -0.905404 -1.28997 0
M  V30 2455 C 222.943 -0.549846 -1.9946 0
M  V30 2456 C 223.358 0.866834 -1.67724 0
M  V30 2457 O 222.715 1.57298 -0.925404 0
M  V30 2458 C 222.766 -0.739387 -3.53858 0
M  V30 2459 O 222.487 -2.10031 -3.84472 0
M  V30 2460 C 223.988 -0.389541 -4.41585 0
M  V30 2461 H 221.208 -0.210429 -0.637151 0
M  V30 2462 H 223.752 -1.21632 -1.64396 0
M  V30 2463 H 221.907 -0.120023 -3.87214 0
M  V30 2464 H 222.321 -2.13385 -4.79132 0
M  V30 2465 H 223.795 -0.572972 -5.49018 0
M  V30 2466 H 224.272 0.673756 -4.34001 0
M  V30 2467 H 224.878 -0.986089 -4.1371 0
M  V30 2468 N 223.193 1.4272 -0.668489 0
M  V30 2469 C 224.14 2.30796 0.0137489 0
M  V30 2470 C 225.11 1.4561 0.799177 0
M  V30 2471 O 226.295 1.74453 0.772702 0
M  V30 2472 C 223.435 3.31377 0.963507 0
M  V30 2473 C 222.548 4.31655 0.172569 0
M  V30 2474 C 221.683 5.19312 1.1175 0
M  V30 2475 C 220.722 6.11274 0.317886 0
M  V30 2476 N 219.859 6.91504 1.2152 0
M  V30 2477 H 224.699 2.88585 -0.743161 0
M  V30 2478 H 222.236 1.42154 -0.378226 0
M  V30 2479 H 224.194 3.88214 1.52792 0
M  V30 2480 H 222.824 2.75202 1.68712 0
M  V30 2481 H 221.876 3.76988 -0.508374 0
M  V30 2482 H 223.188 4.96779 -0.448527 0
M  V30 2483 H 222.342 5.80851 1.75206 0
M  V30 2484 H 221.081 4.5435 1.77249 0
M  V30 2485 H 220.086 5.48809 -0.329918 0
M  V30 2486 H 221.311 6.78283 -0.332917 0
M  V30 2487 H 219.257 6.29176 1.85671 0
M  V30 2488 H 219.174 7.53209 0.649036 0
M  V30 2489 H 220.442 7.57535 1.83742 0
M  V30 2490 N 224.671 0.411399 1.52136 0
M  V30 2491 C 225.581 -0.419774 2.30814 0
M  V30 2492 C 226.597 -1.0515 1.38634 0
M  V30 2493 O 227.773 -1.05252 1.71709 0
M  V30 2494 C 224.838 -1.52019 3.11594 0
M  V30 2495 C 223.899 -0.91129 4.19516 0
M  V30 2496 C 223.132 -1.95927 4.96436 0
M  V30 2497 O 223.355 -3.17775 4.73683 0
M  V30 2498 O 222.289 -1.56423 5.81219 0
M  V30 2499 H 226.115 0.221805 3.02889 0
M  V30 2500 H 223.7 0.174547 1.48377 0
M  V30 2501 H 225.582 -2.15898 3.61892 0
M  V30 2502 H 224.257 -2.14633 2.42311 0
M  V30 2503 H 223.164 -0.235157 3.7336 0
M  V30 2504 H 224.497 -0.32904 4.91099 0
M  V30 2505 N 226.149 -1.5696 0.141893 0
M  V30 2506 C 227.097 -2.17784 -0.816874 0
M  V30 2507 C 228.091 -1.1334 -1.25899 0
M  V30 2508 O 229.297 -1.316 -1.22806 0
M  V30 2509 H 225.672 -0.697278 -0.281615 0
M  V30 2510 H 227.643 -2.97087 -0.279621 0
M  V30 2511 C 226.392 -2.80983 -2.04802 0
M  V30 2512 H 225.715 -3.61062 -1.7168 0
M  V30 2513 H 227.155 -3.2705 -2.69841 0
M  V30 2514 C 225.614 -1.79228 -2.8527 0
M  V30 2515 O 226.144 -1.25962 -3.8144 0
M  V30 2516 N 224.35 -1.48647 -2.49704 0
M  V30 2517 H 223.897 -1.92155 -1.71564 0
M  V30 2518 H 223.855 -0.808115 -3.03837 0
M  V30 2519 N 227.627 0.131896 -1.57047 0
M  V30 2520 C 228.56 1.19236 -1.94571 0
M  V30 2521 C 229.538 1.40782 -0.813576 0
M  V30 2522 O 230.722 1.55148 -1.07058 0
M  V30 2523 C 227.849 2.54858 -2.23081 0
M  V30 2524 C 226.895 2.49817 -3.45679 0
M  V30 2525 S 227.728 1.95036 -4.98719 0
M  V30 2526 C 228.884 3.32357 -5.30367 0
M  V30 2527 H 229.117 0.872297 -2.84215 0
M  V30 2528 H 226.65 0.338134 -1.50652 0
M  V30 2529 H 228.608 3.32898 -2.40185 0
M  V30 2530 H 227.269 2.84047 -1.34074 0
M  V30 2531 H 226.462 3.49688 -3.62952 0
M  V30 2532 H 226.064 1.79892 -3.27895 0
M  V30 2533 H 228.356 4.28525 -5.2476 0
M  V30 2534 H 229.299 3.19923 -6.31708 0
M  V30 2535 H 229.707 3.3019 -4.57859 0
M  V30 2536 N 229.106 1.52395 0.401703 0
M  V30 2537 C 230.056 1.72649 1.48917 0
M  V30 2538 C 231.04 0.580436 1.50066 0
M  V30 2539 O 232.232 0.83779 1.55917 0
M  V30 2540 C 229.361 1.88729 2.86769 0
M  V30 2541 C 228.447 3.09228 2.90239 0
M  V30 2542 N 228.838 4.31805 2.63396 0
M  V30 2543 C 227.136 3.09214 3.21408 0
M  V30 2544 C 227.837 5.13326 2.73625 0
M  V30 2545 N 226.813 4.48735 3.06819 0
M  V30 2546 H 230.615 2.65058 1.26971 0
M  V30 2547 H 228.129 1.50528 0.609504 0
M  V30 2548 H 230.126 2.01358 3.65049 0
M  V30 2549 H 228.786 0.975252 3.09708 0
M  V30 2550 H 229.797 4.60154 2.37653 0
M  V30 2551 H 226.474 2.27774 3.49893 0
M  V30 2552 H 227.864 6.21003 2.56524 0
M  V30 2553 N 230.584 -0.659388 1.43143 0
M  V30 2554 C 232 -0.974337 1.26407 0
M  V30 2555 C 232.2 -2.007 0.179341 0
M  V30 2556 O 231.256 -2.4856 -0.444295 0
M  V30 2557 C 232.569 -1.46447 2.62628 0
M  V30 2558 C 234.117 -1.58144 2.7011 0
M  V30 2559 C 234.592 -2.1055 4.06734 0
M  V30 2560 N 236.083 -2.17861 4.08767 0
M  V30 2561 C 236.818 -2.59519 5.1131 0
M  V30 2562 N 236.314 -3.00518 6.24228 0
M  V30 2563 N 238.107 -2.59404 4.98664 0
M  V30 2564 H 230.258 0.0240528 2.12386 0
M  V30 2565 H 232.521 -0.0518065 0.946583 0
M  V30 2566 H 232.227 -0.780123 3.42939 0
M  V30 2567 H 232.101 -2.44058 2.87603 0
M  V30 2568 H 234.488 -2.25682 1.90136 0
M  V30 2569 H 234.569 -0.589828 2.48907 0
M  V30 2570 H 234.213 -1.43616 4.87172 0
M  V30 2571 H 234.143 -3.10531 4.25298 0
M  V30 2572 H 236.634 -1.88975 3.27257 0
M  V30 2573 H 236.947 -3.31036 6.98309 0
M  V30 2574 H 235.292 -2.98337 6.2771 0
M  V30 2575 H 238.483 -2.26747 4.09516 0
M  V30 2576 H 238.656 -2.91548 5.78709 0
M  V30 2577 N 232.062 -1.29571 -0.897171 0
M  V30 2578 C 232.972 -1.16808 -2.03453 0
M  V30 2579 C 233.988 -0.0907471 -1.73763 0
M  V30 2580 O 235.164 -0.303312 -1.99103 0
M  V30 2581 C 232.229 -0.848264 -3.36163 0
M  V30 2582 C 231.29 -2.0097 -3.79354 0
M  V30 2583 C 230.523 -1.70505 -5.05731 0
M  V30 2584 O 230.746 -0.62718 -5.66941 0
M  V30 2585 O 229.68 -2.5538 -5.45036 0
M  V30 2586 H 233.506 -2.12325 -2.17144 0
M  V30 2587 H 231.091 -1.09047 -1.02123 0
M  V30 2588 H 232.973 -0.684581 -4.15802 0
M  V30 2589 H 231.648 0.0771071 -3.23608 0
M  V30 2590 H 230.555 -2.22863 -3.00471 0
M  V30 2591 H 231.888 -2.91636 -3.96496 0
M  V30 2592 N 233.54 1.10788 -1.12088 0
M  V30 2593 C 234.788 1.8231 -0.872205 0
M  V30 2594 C 235.109 1.85419 0.603709 0
M  V30 2595 O 234.379 1.32963 1.43867 0
M  V30 2596 H 232.959 0.675137 -0.319686 0
M  V30 2597 H 235.621 1.34068 -1.41463 0
M  V30 2598 H 234.717 2.85955 -1.25045 0
M  V30 2599 N 235.018 0.912232 1.28515 0
M  V30 2600 C 235.965 0.397954 2.27343 0
M  V30 2601 C 236.935 -0.526766 1.57526 0
M  V30 2602 O 238.12 -0.449292 1.85435 0
M  V30 2603 C 235.26 -0.357263 3.43246 0
M  V30 2604 C 234.373 0.599788 4.27816 0
M  V30 2605 C 233.508 -0.173725 5.30916 0
M  V30 2606 C 232.547 0.777039 6.07148 0
M  V30 2607 N 231.684 0.0371398 7.0209 0
M  V30 2608 H 236.524 1.24577 2.70711 0
M  V30 2609 H 234.061 0.625612 1.33133 0
M  V30 2610 H 236.019 -0.8113 4.09236 0
M  V30 2611 H 234.649 -1.16943 3.00872 0
M  V30 2612 H 233.701 1.17235 3.61884 0
M  V30 2613 H 235.013 1.32704 4.80823 0
M  V30 2614 H 234.167 -0.688394 6.02782 0
M  V30 2615 H 232.906 -0.934041 4.78672 0
M  V30 2616 H 231.911 1.3031 5.34134 0
M  V30 2617 H 233.136 1.53689 6.61481 0
M  V30 2618 H 231.082 -0.705213 6.52198 0
M  V30 2619 H 230.999 0.704249 7.52713 0
M  V30 2620 H 232.267 -0.457383 7.78157 0
M  V30 2621 N 236.496 -1.42363 0.676048 0
M  V30 2622 C 237.745 -2.00745 0.196037 0
M  V30 2623 C 238.058 -1.54083 -1.20489 0
M  V30 2624 O 239.264 -2.04891 -1.78134 0
M  V30 2625 C 237.72 -3.58651 0.299616 0
M  V30 2626 C 237.328 -4.143 1.70468 0
M  V30 2627 C 239.072 -4.24326 -0.121619 0
M  V30 2628 C 236.979 -5.64574 1.76096 0
M  V30 2629 H 235.909 -0.750787 0.0695301 0
M  V30 2630 H 238.56 -1.63072 0.841412 0
M  V30 2631 H 236.942 -3.93833 -0.413673 0
M  V30 2632 H 238.116 -3.90575 2.44515 0
M  V30 2633 H 236.431 -3.61081 2.07387 0
M  V30 2634 H 239.028 -5.34607 -0.0997362 0
M  V30 2635 H 239.371 -3.99897 -1.15708 0
M  V30 2636 H 239.904 -3.94108 0.540706 0
M  V30 2637 H 236.643 -5.93804 2.77628 0
M  V30 2638 H 236.163 -5.90286 1.06406 0
M  V30 2639 H 237.842 -6.29013 1.51496 0
M  V30 2640 N 237.974 -0.419461 -1.51915 0
M  V30 2641 C 239.22 0.153166 -2.02221 0
M  V30 2642 C 239.553 1.43907 -1.30401 0
M  V30 2643 O 238.828 1.90055 -0.413438 0
M  V30 2644 C 239.111 0.390291 -3.57979 0
M  V30 2645 C 238.964 -0.913014 -4.40436 0
M  V30 2646 C 240.283 1.16794 -4.2432 0
M  V30 2647 H 237.402 0.0541924 -0.735005 0
M  V30 2648 H 240.044 -0.554955 -1.81715 0
M  V30 2649 H 238.194 0.993491 -3.75582 0
M  V30 2650 H 239.866 -1.54882 -4.34522 0
M  V30 2651 H 238.109 -1.52168 -4.06236 0
M  V30 2652 H 238.78 -0.701361 -5.47526 0
M  V30 2653 H 241.256 0.657161 -4.10878 0
M  V30 2654 H 240.132 1.3026 -5.3322 0
M  V30 2655 H 240.393 2.19132 -3.83971 0
M  V30 2656 N 239.452 1.56882 -0.150215 0
M  V30 2657 C 240.868 1.58263 0.20617 0
M  V30 2658 C 241.068 1.16464 1.64434 0
M  V30 2659 O 240.124 0.866422 2.3717 0
M  V30 2660 C 241.437 3.00649 -0.0555025 0
M  V30 2661 C 242.985 3.12999 0.00795388 0
M  V30 2662 C 243.46 4.5744 -0.226429 0
M  V30 2663 N 244.951 4.62875 -0.173469 0
M  V30 2664 C 245.686 5.72454 -0.329288 0
M  V30 2665 N 245.182 6.90669 -0.543005 0
M  V30 2666 N 246.975 5.61467 -0.266666 0
M  V30 2667 H 239.126 1.82345 -1.08922 0
M  V30 2668 H 241.389 0.844149 -0.431413 0
M  V30 2669 H 241.095 3.3563 -1.05096 0
M  V30 2670 H 240.969 3.71337 0.66246 0
M  V30 2671 H 243.356 2.77857 0.993966 0
M  V30 2672 H 243.437 2.4479 -0.742388 0
M  V30 2673 H 243.081 4.93287 -1.20956 0
M  V30 2674 H 243.011 5.2378 0.544274 0
M  V30 2675 H 245.502 3.77898 -0.0130709 0
M  V30 2676 H 245.815 7.70045 -0.651922 0
M  V30 2677 H 244.16 6.92581 -0.579366 0
M  V30 2678 H 247.351 4.67992 -0.100441 0
M  V30 2679 H 247.524 6.46816 -0.391535 0
M  V30 2680 N 240.93 -0.123565 1.57115 0
M  V30 2681 C 242.176 -0.833386 1.84885 0
M  V30 2682 C 242.509 -1.79742 0.735292 0
M  V30 2683 O 241.784 -1.92764 -0.25925 0
M  V30 2684 C 242.067 -1.5873 3.23228 0
M  V30 2685 C 241.92 -0.643183 4.45178 0
M  V30 2686 C 243.239 -2.54453 3.59085 0
M  V30 2687 H 240.358 -0.301518 0.6725 0
M  V30 2688 H 243 -0.097778 1.89748 0
M  V30 2689 H 241.15 -2.21438 3.19214 0
M  V30 2690 H 242.822 -0.0253015 4.61293 0
M  V30 2691 H 241.065 0.0456139 4.33776 0
M  V30 2692 H 241.736 -1.20724 5.38637 0
M  V30 2693 H 244.212 -2.01853 3.63861 0
M  V30 2694 H 243.088 -3.04238 4.5687 0
M  V30 2695 H 243.349 -3.36906 2.86264 0
M  V30 2696 N 242.408 -1.52605 -0.393616 0
M  V30 2697 C 243.636 -1.71294 -1.16043 0
M  V30 2698 C 244.051 -0.429259 -1.83855 0
M  V30 2699 O 243.408 0.595921 -1.72496 0
M  V30 2700 C 243.459 -2.8593 -2.21193 0
M  V30 2701 O 243.18 -4.09329 -1.56146 0
M  V30 2702 C 244.681 -3.16259 -3.10636 0
M  V30 2703 H 241.901 -0.573641 -0.348104 0
M  V30 2704 H 244.445 -1.99234 -0.461092 0
M  V30 2705 H 242.6 -2.60465 -2.86769 0
M  V30 2706 H 243.014 -4.73323 -2.25978 0
M  V30 2707 H 244.488 -3.99946 -3.80456 0
M  V30 2708 H 244.965 -2.3045 -3.73884 0
M  V30 2709 H 245.571 -3.43547 -2.50711 0
M  V30 2710 N 243.887 0.651787 -1.4349 0
M  V30 2711 C 244.85 1.74647 -1.48429 0
M  V30 2712 C 245.85 1.56513 -0.368817 0
M  V30 2713 O 247.04 1.62385 -0.630623 0
M  V30 2714 C 244.172 3.13533 -1.33827 0
M  V30 2715 H 245.365 1.71649 -2.4592 0
M  V30 2716 H 242.918 0.863573 -1.30277 0
M  V30 2717 H 243.653 3.22142 -0.37349 0
M  V30 2718 H 243.438 3.28101 -2.14691 0
M  V30 2719 H 244.928 3.93356 -1.40218 0
M  V30 2720 N 245.365 1.30045 0.890287 0
M  V30 2721 C 246.328 1.15963 1.977 0
M  V30 2722 C 247.328 0.0923777 1.60534 0
M  V30 2723 O 248.518 0.340071 1.70848 0
M  V30 2724 C 245.65 0.775451 3.31963 0
M  V30 2725 H 246.843 2.12502 2.11619 0
M  V30 2726 H 244.396 1.13366 1.07601 0
M  V30 2727 H 245.131 -0.189671 3.23745 0
M  V30 2728 H 244.916 1.54668 3.60306 0
M  V30 2729 H 246.406 0.700251 4.11687 0
M  V30 2730 N 246.843 -1.10192 1.12674 0
M  V30 2731 C 248.12 -1.78717 0.794965 0
M  V30 2732 C 248.5 -1.98628 -0.714853 0
M  V30 2733 O 247.848 -1.58135 -1.64941 0
M  V30 2734 C 248.058 -3.11546 1.5729 0
M  V30 2735 C 249.406 -3.86382 1.76052 0
M  V30 2736 O 250.43 -3.21274 1.53823 0
M  V30 2737 O 249.289 -5.03246 2.13087 0
M  V30 2738 H 246.383 -0.774702 0.289423 0
M  V30 2739 H 248.929 -1.16819 1.23091 0
M  V30 2740 H 247.701 -2.92489 2.59935 0
M  V30 2741 H 247.324 -3.81164 1.13137 0
M  V30 2742 N 248.321 -0.919034 -1.28029 0
M  V30 2743 C 249.284 -0.416182 -2.2539 0
M  V30 2744 C 250.284 0.460438 -1.54067 0
M  V30 2745 O 251.474 0.262744 -1.72207 0
M  V30 2746 C 248.606 0.402707 -3.38513 0
M  V30 2747 H 249.799 -1.27629 -2.71387 0
M  V30 2748 H 247.352 -0.698919 -1.39803 0
M  V30 2749 H 248.087 1.282 -2.97885 0
M  V30 2750 H 247.872 -0.225698 -3.9145 0
M  V30 2751 H 249.362 0.745191 -4.10897 0
M  V30 2752 N 249.799 1.42003 -0.683588 0
M  V30 2753 C 251.046 2.01413 -0.209514 0
M  V30 2754 C 251.374 1.54088 1.1869 0
M  V30 2755 O 250.629 0.737591 1.81268 0
M  V30 2756 C 250.928 3.56827 -0.202357 0
M  V30 2757 C 250.594 4.23617 -1.54464 0
M  V30 2758 C 249.256 4.41577 -1.91215 0
M  V30 2759 C 251.608 4.61178 -2.42826 0
M  V30 2760 C 248.936 4.9437 -3.15935 0
M  V30 2761 C 251.288 5.15355 -3.66867 0
M  V30 2762 C 249.952 5.31528 -4.03776 0
M  V30 2763 H 249.222 0.737023 -0.0766668 0
M  V30 2764 H 251.869 1.70067 -0.880312 0
M  V30 2765 H 250.174 3.87892 0.551969 0
M  V30 2766 H 251.871 4.00588 0.181793 0
M  V30 2767 H 248.461 4.10004 -1.24877 0
M  V30 2768 H 252.645 4.46968 -2.15717 0
M  V30 2769 H 247.901 5.05076 -3.44541 0
M  V30 2770 H 252.075 5.43402 -4.35531 0
M  V30 2771 H 249.702 5.72199 -5.00492 0
M  V30 2772 N 251.277 0.427512 1.51691 0
M  V30 2773 C 252.207 -0.3796 2.30394 0
M  V30 2774 C 253.188 -1.02982 1.35384 0
M  V30 2775 O 254.373 -1.03534 1.643 0
M  V30 2776 C 251.503 -1.48649 3.1388 0
M  V30 2777 C 250.457 -0.960294 4.17088 0
M  V30 2778 C 249.783 -2.16219 4.89033 0
M  V30 2779 C 251.083 -0.00153679 5.223 0
M  V30 2780 H 252.777 0.277164 2.98114 0
M  V30 2781 H 250.323 0.134739 1.43368 0
M  V30 2782 H 252.276 -2.05826 3.67714 0
M  V30 2783 H 251 -2.1714 2.43962 0
M  V30 2784 H 249.659 -0.410806 3.64291 0
M  V30 2785 H 249.307 -2.83307 4.15628 0
M  V30 2786 H 249.007 -1.81654 5.58816 0
M  V30 2787 H 250.531 -2.73968 5.45687 0
M  V30 2788 H 251.945 -0.482687 5.71264 0
M  V30 2789 H 250.342 0.256199 5.99553 0
M  V30 2790 H 251.412 0.938174 4.75738 0
M  V30 2791 N 252.755 -1.56801 0.158532 0
M  V30 2792 C 254.032 -1.88131 -0.535357 0
M  V30 2793 C 254.412 -1.06638 -1.82186 0
M  V30 2794 O 253.76 -0.156533 -2.27963 0
M  V30 2795 C 253.97 -3.39949 -0.789653 0
M  V30 2796 C 255.318 -4.09416 -1.12533 0
M  V30 2797 O 256.342 -3.45194 -0.878622 0
M  V30 2798 O 255.201 -5.22855 -1.59014 0
M  V30 2799 H 252.295 -0.780143 -0.27442 0
M  V30 2800 H 254.841 -1.68564 0.19601 0
M  V30 2801 H 253.613 -3.91115 0.120353 0
M  V30 2802 H 253.236 -3.65084 -1.57479 0
M  V30 2803 N 254.233 0.115231 -1.57178 0
M  V30 2804 C 255.163 1.1423 -2.03651 0
M  V30 2805 C 256.144 1.42967 -0.921655 0
M  V30 2806 O 257.329 1.53343 -1.19162 0
M  V30 2807 C 254.459 2.4675 -2.44401 0
M  V30 2808 C 253.413 2.32467 -3.59365 0
M  V30 2809 C 252.739 3.69984 -3.86026 0
M  V30 2810 C 254.039 1.78203 -4.90959 0
M  V30 2811 H 255.733 0.755749 -2.89705 0
M  V30 2812 H 253.279 0.362093 -1.39373 0
M  V30 2813 H 255.232 3.18854 -2.75517 0
M  V30 2814 H 253.956 2.87302 -1.55322 0
M  V30 2815 H 252.615 1.62811 -3.28463 0
M  V30 2816 H 252.263 4.08028 -2.94147 0
M  V30 2817 H 251.963 3.61279 -4.63412 0
M  V30 2818 H 253.487 4.43587 -4.19599 0
M  V30 2819 H 254.901 2.40128 -5.20587 0
M  V30 2820 H 253.298 1.8031 -5.72371 0
M  V30 2821 H 254.368 0.739876 -4.79222 0
M  V30 2822 N 255.711 1.52812 0.385517 0
M  V30 2823 C 256.96 1.67249 1.12741 0
M  V30 2824 C 257.273 0.4205 1.91027 0
M  V30 2825 O 258.479 0.445064 2.67827 0
M  V30 2826 C 256.935 2.95583 2.05326 0
M  V30 2827 C 256.543 4.27974 1.32447 0
M  V30 2828 C 258.287 3.19386 2.7963 0
M  V30 2829 C 256.194 5.47412 2.23818 0
M  V30 2830 H 255.124 0.6231 0.424573 0
M  V30 2831 H 257.775 1.79309 0.389924 0
M  V30 2832 H 256.157 2.77277 2.82725 0
M  V30 2833 H 257.331 4.56844 0.602495 0
M  V30 2834 H 255.646 4.10459 0.700885 0
M  V30 2835 H 258.243 4.05801 3.48181 0
M  V30 2836 H 258.586 2.34604 3.43899 0
M  V30 2837 H 259.119 3.38274 2.09322 0
M  V30 2838 H 255.858 6.34612 1.64157 0
M  V30 2839 H 255.378 5.22849 2.93921 0
M  V30 2840 H 257.057 5.81423 2.83824 0
M  V30 2841 N 257.189 -0.644168 1.43834 0
M  V30 2842 C 258.605 -0.960875 1.27434 0
M  V30 2843 C 258.805 -2.00499 0.200618 0
M  V30 2844 O 257.861 -2.49018 -0.417906 0
M  V30 2845 C 259.174 -1.43653 2.64167 0
M  V30 2846 C 260.722 -1.55271 2.71772 0
M  V30 2847 C 261.197 -2.06224 4.08944 0
M  V30 2848 N 262.688 -2.13513 4.11055 0
M  V30 2849 C 263.423 -2.54081 5.14033 0
M  V30 2850 N 262.919 -2.9388 6.27381 0
M  V30 2851 N 264.712 -2.54101 5.01387 0
M  V30 2852 H 256.863 0.0465779 2.12349 0
M  V30 2853 H 259.126 -0.0417638 0.94708 0
M  V30 2854 H 258.832 -0.743706 3.43747 0
M  V30 2855 H 258.706 -2.40993 2.90176 0
M  V30 2856 H 261.093 -2.23653 1.92519 0
M  V30 2857 H 261.174 -0.563395 2.49519 0
M  V30 2858 H 260.818 -1.38441 4.88668 0
M  V30 2859 H 260.748 -3.06003 4.28567 0
M  V30 2860 H 263.239 -1.85493 3.29242 0
M  V30 2861 H 263.552 -3.2361 7.01781 0
M  V30 2862 H 261.897 -2.91663 6.30839 0
M  V30 2863 H 265.088 -2.22391 4.11898 0
M  V30 2864 H 265.261 -2.85394 5.81768 0
M  V30 2865 N 258.668 -1.30515 -0.883378 0
M  V30 2866 C 259.616 -1.16941 -2.01066 0
M  V30 2867 C 260.61 -0.0809148 -1.69207 0
M  V30 2868 O 261.816 -0.241877 -1.78367 0
M  V30 2869 H 258.191 -0.361705 -0.659298 0
M  V30 2870 H 260.162 -2.12344 -2.09649 0
M  V30 2871 C 258.911 -0.879694 -3.36388 0
M  V30 2872 H 258.234 -1.70936 -3.61415 0
M  V30 2873 H 259.674 -0.82483 -4.159 0
M  V30 2874 C 258.133 0.417409 -3.34304 0
M  V30 2875 O 258.663 1.43843 -3.75063 0
M  V30 2876 N 256.869 0.429141 -2.87414 0
M  V30 2877 H 256.416 -0.402222 -2.5444 0
M  V30 2878 H 256.374 1.29696 -2.86403 0
M  V30 2879 N 260.146 1.09593 -1.13257 0
M  V30 2880 C 261.079 2.15451 -0.752061 0
M  V30 2881 C 262.057 1.60493 0.260913 0
M  V30 2882 O 263.241 1.8788 0.152819 0
M  V30 2883 C 260.368 3.38506 -0.114594 0
M  V30 2884 C 259.414 4.12183 -1.09579 0
M  V30 2885 S 260.247 4.6661 -2.62745 0
M  V30 2886 C 261.403 5.92966 -2.00354 0
M  V30 2887 H 261.636 2.47395 -1.64872 0
M  V30 2888 H 259.169 1.21515 -0.952545 0
M  V30 2889 H 261.127 4.09757 0.246808 0
M  V30 2890 H 259.788 3.04784 0.759309 0
M  V30 2891 H 258.981 5.00445 -0.597545 0
M  V30 2892 H 258.583 3.46785 -1.40057 0
M  V30 2893 H 260.875 6.63882 -1.35156 0
M  V30 2894 H 261.818 6.47467 -2.86691 0
M  V30 2895 H 262.226 5.45405 -1.4558 0
M  V30 2896 N 261.624 0.925811 1.2754 0
M  V30 2897 C 262.871 0.565255 1.94451 0
M  V30 2898 C 263.199 -0.89316 1.7278 0
M  V30 2899 O 262.454 -1.65213 1.04895 0
M  V30 2900 C 262.753 0.835296 3.47502 0
M  V30 2901 C 262.419 2.27515 3.89291 0
M  V30 2902 C 261.081 2.66879 4.00411 0
M  V30 2903 C 263.433 3.21158 4.10496 0
M  V30 2904 C 260.761 3.99014 4.30122 0
M  V30 2905 C 263.113 4.52871 4.4169 0
M  V30 2906 C 261.777 4.92072 4.51023 0
M  V30 2907 H 261.047 0.206841 0.711546 0
M  V30 2908 H 263.694 1.16942 1.51647 0
M  V30 2909 H 261.999 0.148442 3.91519 0
M  V30 2910 H 263.696 0.535322 3.97411 0
M  V30 2911 H 260.286 1.95976 3.81171 0
M  V30 2912 H 264.47 2.9195 4.01346 0
M  V30 2913 H 259.726 4.2907 4.35556 0
M  V30 2914 H 263.9 5.25436 4.57045 0
M  V30 2915 H 261.527 5.9449 4.738 0
M  V30 2916 N 263.102 -1.41638 0.69111 0
M  V30 2917 C 264.513 -1.84346 0.295517 0
M  V30 2918 C 264.864 -1.57833 -1.16547 0
M  V30 2919 O 263.989 -1.04648 -1.89414 0
M  V30 2920 C 264.584 -3.34636 0.529575 0
M  V30 2921 C 263.143 -3.7593 0.187944 0
M  V30 2922 C 262.29 -2.65082 0.814052 0
M  V30 2923 H 265.241 -1.31253 0.892092 0
M  V30 2924 H 265.262 -3.79903 -0.213148 0
M  V30 2925 H 264.774 -3.53901 1.59297 0
M  V30 2926 H 262.875 -3.62268 -0.871367 0
M  V30 2927 H 262.988 -4.74808 0.63985 0
M  V30 2928 H 261.352 -2.53528 0.244017 0
M  V30 2929 H 262.135 -2.87167 1.88123 0
M  V30 2930 N 264.58 -0.43555 -1.51462 0
M  V30 2931 C 265.991 0.0279871 -1.86679 0
M  V30 2932 C 266.342 1.42104 -1.35281 0
M  V30 2933 O 265.467 2.04667 -0.702878 0
M  V30 2934 C 266.062 0.0575626 -3.38751 0
M  V30 2935 C 264.621 0.465507 -3.7351 0
M  V30 2936 C 263.768 -0.342996 -2.75171 0
M  V30 2937 H 266.719 -0.651473 -1.44712 0
M  V30 2938 H 266.74 0.867421 -3.70481 0
M  V30 2939 H 266.252 -0.956448 -3.7613 0
M  V30 2940 H 264.353 1.48519 -3.41721 0
M  V30 2941 H 264.466 0.191546 -4.78717 0
M  V30 2942 H 262.83 0.198442 -2.53926 0
M  V30 2943 H 263.613 -1.35585 -3.15391 0
M  V30 2944 N 266.058 1.56714 -0.166846 0
M  V30 2945 C 267.006 2.19056 0.782123 0
M  V30 2946 C 268 1.15328 1.24079 0
M  V30 2947 O 269.206 1.33537 1.20697 0
M  V30 2948 H 265.581 0.70167 0.270486 0
M  V30 2949 H 267.552 2.97494 0.232322 0
M  V30 2950 C 266.301 2.84206 2.00306 0
M  V30 2951 H 265.624 3.63748 1.65914 0
M  V30 2952 H 267.064 3.31302 2.64604 0
M  V30 2953 C 265.523 1.83744 2.82382 0
M  V30 2954 O 266.053 1.32014 3.79388 0
M  V30 2955 N 264.259 1.52601 2.47308 0
M  V30 2956 H 263.806 1.9486 1.68485 0
M  V30 2957 H 263.764 0.856351 3.02513 0
M  V30 2958 N 267.536 -0.106894 1.57237 0
M  V30 2959 C 268.466 -1.13148 2.04254 0
M  V30 2960 C 269.447 -1.42476 0.929224 0
M  V30 2961 O 270.632 -1.52709 1.19973 0
M  V30 2962 C 267.762 -2.4545 2.45706 0
M  V30 2963 C 266.716 -2.30558 3.60592 0
M  V30 2964 C 266.042 -3.67931 3.87983 0
M  V30 2965 C 267.342 -1.75597 4.91897 0
M  V30 2966 H 269.036 -0.740374 2.90101 0
M  V30 2967 H 266.582 -0.354696 1.39563 0
M  V30 2968 H 268.535 -3.17389 2.77205 0
M  V30 2969 H 267.259 -2.86475 1.56843 0
M  V30 2970 H 265.918 -1.61067 3.29322 0
M  V30 2971 H 265.566 -4.06462 2.96306 0
M  V30 2972 H 265.266 -3.58817 4.65322 0
M  V30 2973 H 266.79 -4.41356 4.21945 0
M  V30 2974 H 268.204 -2.37364 5.21854 0
M  V30 2975 H 266.601 -1.77272 5.73319 0
M  V30 2976 H 267.671 -0.714451 4.79608 0
M  V30 2977 N 269.014 -1.53014 -0.377408 0
M  V30 2978 C 270.26 -1.68872 -1.12294 0
M  V30 2979 C 270.593 -0.433224 -1.89306 0
M  V30 2980 O 269.868 0.569258 -1.85983 0
M  V30 2981 C 270.151 -2.93115 -2.09179 0
M  V30 2982 C 270.004 -4.28794 -1.35853 0
M  V30 2983 C 271.323 -3.12928 -3.09458 0
M  V30 2984 H 268.442 -0.614518 -0.406862 0
M  V30 2985 H 271.084 -1.85633 -0.40503 0
M  V30 2986 H 269.234 -2.78956 -2.70399 0
M  V30 2987 H 270.906 -4.54742 -0.775082 0
M  V30 2988 H 269.149 -4.28744 -0.660364 0
M  V30 2989 H 269.82 -5.11837 -2.06706 0
M  V30 2990 H 272.296 -3.26194 -2.58334 0
M  V30 2991 H 271.172 -4.01316 -3.74482 0
M  V30 2992 H 271.433 -2.27669 -3.78971 0
M  V30 2993 N 270.492 0.636531 -1.44174 0
M  V30 2994 C 271.402 1.77754 -1.53103 0
M  V30 2995 C 272.418 1.68928 -0.417034 0
M  V30 2996 O 273.594 1.89801 -0.6736 0
M  V30 2997 C 270.659 3.14115 -1.46741 0
M  V30 2998 C 269.72 3.34612 -2.68948 0
M  V30 2999 C 268.953 4.64467 -2.6288 0
M  V30 3000 O 269.176 5.44919 -1.68581 0
M  V30 3001 O 268.11 4.87049 -3.53648 0
M  V30 3002 H 271.936 1.73174 -2.49489 0
M  V30 3003 H 269.521 0.79709 -1.2636 0
M  V30 3004 H 271.403 3.95412 -1.45696 0
M  V30 3005 H 270.078 3.19249 -0.534975 0
M  V30 3006 H 268.985 2.53014 -2.75562 0
M  V30 3007 H 270.318 3.34336 -3.61221 0
M  V30 3008 N 271.97 1.30982 0.876444 0
M  V30 3009 C 272.933 1.18054 1.96459 0
M  V30 3010 C 273.933 0.109399 1.60427 0
M  V30 3011 O 275.123 0.358173 1.70478 0
M  V30 3012 C 272.255 0.810616 3.31122 0
M  V30 3013 H 273.448 2.14735 2.09354 0
M  V30 3014 H 271.001 1.145 1.06392 0
M  V30 3015 H 271.736 -0.155322 3.23928 0
M  V30 3016 H 271.521 1.58481 3.58645 0
M  V30 3017 H 273.011 0.743876 4.10921 0
M  V30 3018 N 273.449 -1.08991 1.13837 0
M  V30 3019 C 274.689 -1.82867 0.913183 0
M  V30 3020 C 275.053 -1.83936 -0.550604 0
M  V30 3021 O 276.254 -2.53515 -0.893515 0
M  V30 3022 C 274.525 -3.24843 1.49036 0
M  V30 3023 S 276.084 -4.15669 1.40588 0
M  V30 3024 H 272.902 -0.630278 0.329046 0
M  V30 3025 H 275.504 -1.31049 1.45073 0
M  V30 3026 H 274.208 -3.21644 2.54899 0
M  V30 3027 H 273.739 -3.81734 0.950947 0
M  V30 3028 H 275.754 -4.94686 0.387353 0
M  V30 3029 N 274.927 -0.932562 -1.27047 0
M  V30 3030 C 276.174 -0.575559 -1.94148 0
M  V30 3031 C 276.502 0.883984 -1.73251 0
M  V30 3032 O 275.757 1.64655 -1.0577 0
M  V30 3033 C 276.056 -0.853713 -3.47054 0
M  V30 3034 C 275.722 -2.29577 -3.88079 0
M  V30 3035 C 274.384 -2.68999 -3.9899 0
M  V30 3036 C 276.736 -3.23331 -4.08787 0
M  V30 3037 C 274.064 -4.01289 -4.28 0
M  V30 3038 C 276.416 -4.55207 -4.39282 0
M  V30 3039 C 275.08 -4.94457 -4.48407 0
M  V30 3040 H 274.35 -0.210612 -0.710439 0
M  V30 3041 H 276.997 -1.17744 -1.51025 0
M  V30 3042 H 275.302 -0.169204 -3.91434 0
M  V30 3043 H 276.999 -0.55639 -3.97121 0
M  V30 3044 H 273.589 -1.97994 -3.80127 0
M  V30 3045 H 277.773 -2.94074 -3.99793 0
M  V30 3046 H 273.029 -4.31374 -4.33275 0
M  V30 3047 H 277.203 -5.27852 -4.54252 0
M  V30 3048 H 274.83 -5.96994 -4.7064 0
M  V30 3049 N 276.405 1.4127 -0.698611 0
M  V30 3050 C 277.352 2.30773 -0.0352094 0
M  V30 3051 C 278.322 1.47273 0.768111 0
M  V30 3052 O 279.507 1.76053 0.735524 0
M  V30 3053 C 276.647 3.33346 0.893 0
M  V30 3054 C 275.76 4.31924 0.0809695 0
M  V30 3055 C 274.895 5.21566 1.0071 0
M  V30 3056 C 273.934 6.11811 0.188155 0
M  V30 3057 N 273.071 6.93926 1.06825 0
M  V30 3058 H 277.911 2.86943 -0.804207 0
M  V30 3059 H 275.448 1.4132 -0.408294 0
M  V30 3060 H 277.406 3.91368 1.44523 0
M  V30 3061 H 276.036 2.78719 1.62836 0
M  V30 3062 H 275.088 3.75825 -0.588224 0
M  V30 3063 H 276.4 4.95716 -0.553801 0
M  V30 3064 H 275.554 5.84437 1.62845 0
M  V30 3065 H 274.293 4.58008 1.67572 0
M  V30 3066 H 273.298 5.47986 -0.446254 0
M  V30 3067 H 274.523 6.77425 -0.476716 0
M  V30 3068 H 272.469 6.32973 1.72283 0
M  V30 3069 H 272.386 7.54416 0.489123 0
M  V30 3070 H 273.654 7.61262 1.67632 0
M  V30 3071 N 277.883 0.443576 1.51229 0
M  V30 3072 C 278.815 -0.400608 2.25672 0
M  V30 3073 C 279.828 -0.980945 1.29928 0
M  V30 3074 O 281.017 -0.874024 1.55638 0
M  V30 3075 C 278.117 -1.57304 3.00181 0
M  V30 3076 C 277.29 -1.11046 4.23069 0
M  V30 3077 C 276.349 -2.15374 4.80105 0
M  V30 3078 O 275.375 -1.74554 5.41774 0
M  V30 3079 N 276.577 -3.47922 4.64683 0
M  V30 3080 H 279.342 0.23745 2.98758 0
M  V30 3081 H 276.903 0.272809 1.59585 0
M  V30 3082 H 278.895 -2.26733 3.35223 0
M  V30 3083 H 277.465 -2.11632 2.30066 0
M  V30 3084 H 276.685 -0.243019 3.9345 0
M  V30 3085 H 277.973 -0.778888 5.02803 0
M  V30 3086 H 277.371 -3.83815 4.15575 0
M  V30 3087 H 275.928 -4.13228 5.0407 0
M  V30 3088 N 279.361 -1.56624 0.175154 0
M  V30 3089 C 280.608 -1.96999 -0.468811 0
M  V30 3090 C 280.936 -1.06129 -1.62994 0
M  V30 3091 O 280.191 -0.0961771 -1.95464 0
M  V30 3092 C 280.49 -3.43419 -0.989864 0
M  V30 3093 C 280.156 -4.50866 0.0557687 0
M  V30 3094 C 278.818 -4.79975 0.343134 0
M  V30 3095 C 281.17 -5.15551 0.765308 0
M  V30 3096 C 278.498 -5.71066 1.34536 0
M  V30 3097 C 280.85 -6.07724 1.75654 0
M  V30 3098 C 279.514 -6.35199 2.05132 0
M  V30 3099 H 278.784 -0.720869 -0.17155 0
M  V30 3100 H 281.431 -1.89616 0.267924 0
M  V30 3101 H 279.736 -3.47772 -1.80449 0
M  V30 3102 H 281.433 -3.72002 -1.49719 0
M  V30 3103 H 278.023 -4.28229 -0.178381 0
M  V30 3104 H 282.207 -4.9317 0.556513 0
M  V30 3105 H 277.463 -5.90635 1.57988 0
M  V30 3106 H 281.637 -6.56912 2.31169 0
M  V30 3107 H 279.264 -7.05584 2.8294 0
M  V30 3108 N 280.839 0.0985539 -1.57292 0
M  V30 3109 C 281.786 1.11981 -2.01814 0
M  V30 3110 C 282.756 1.39999 -0.89384 0
M  V30 3111 O 283.941 1.5152 -1.15958 0
M  V30 3112 C 281.081 2.43577 -2.44467 0
M  V30 3113 C 280.194 2.2232 -3.70402 0
M  V30 3114 C 279.329 3.4729 -4.01949 0
M  V30 3115 C 278.368 3.2128 -5.21005 0
M  V30 3116 N 277.505 4.38507 -5.48321 0
M  V30 3117 H 282.345 0.733149 -2.88841 0
M  V30 3118 H 279.882 0.350482 -1.42864 0
M  V30 3119 H 281.84 3.20373 -2.6724 0
M  V30 3120 H 280.47 2.80097 -1.60455 0
M  V30 3121 H 279.522 1.36343 -3.55126 0
M  V30 3122 H 280.834 1.99089 -4.57345 0
M  V30 3123 H 279.988 4.32495 -4.25479 0
M  V30 3124 H 278.727 3.73572 -3.13521 0
M  V30 3125 H 277.732 2.34468 -4.97298 0
M  V30 3126 H 278.957 2.96348 -6.11028 0
M  V30 3127 H 276.903 4.64871 -4.62851 0
M  V30 3128 H 276.82 4.18455 -6.29628 0
M  V30 3129 H 278.088 5.24787 -5.76385 0
M  V30 3130 N 282.317 1.53212 0.369288 0
M  V30 3131 C 283.545 1.73119 1.13303 0
M  V30 3132 C 283.96 0.458455 1.83149 0
M  V30 3133 O 283.317 -0.568403 1.73423 0
M  V30 3134 C 283.368 2.89413 2.16616 0
M  V30 3135 O 283.089 4.11761 1.49614 0
M  V30 3136 C 284.59 3.21161 3.05566 0
M  V30 3137 H 281.81 0.579107 0.338934 0
M  V30 3138 H 284.354 1.99942 0.429338 0
M  V30 3139 H 282.509 2.64994 2.82589 0
M  V30 3140 H 282.923 4.76858 2.18419 0
M  V30 3141 H 284.397 4.05949 3.74045 0
M  V30 3142 H 284.874 2.36369 3.70171 0
M  V30 3143 H 285.48 3.47492 2.45213 0
M  V30 3144 N 283.795 -0.628877 1.44509 0
M  V30 3145 C 284.743 -1.76193 1.51852 0
M  V30 3146 C 285.737 -1.64849 0.390042 0
M  V30 3147 O 286.943 -1.709 0.565082 0
M  V30 3148 H 283.318 -0.581728 0.476547 0
M  V30 3149 H 285.289 -1.67123 2.47209 0
M  V30 3150 C 284.038 -3.14533 1.48204 0
M  V30 3151 H 283.361 -3.23911 2.34354 0
M  V30 3152 H 284.801 -3.93701 1.57402 0
M  V30 3153 C 283.26 -3.36287 0.203142 0
M  V30 3154 O 283.79 -3.9509 -0.725745 0
M  V30 3155 N 281.996 -2.90408 0.105563 0
M  V30 3156 H 281.543 -2.42739 0.862301 0
M  V30 3157 H 281.501 -3.05339 -0.749371 0
M  V30 3158 N 285.273 -1.31445 -0.869486 0
M  V30 3159 C 286.503 -1.23942 -1.65294 0
M  V30 3160 C 286.911 0.197561 -1.88166 0
M  V30 3161 O 286.254 1.14019 -1.44033 0
M  V30 3162 C 286.316 -1.91385 -3.04322 0
M  V30 3163 C 285.98 -3.40726 -3.04557 0
M  V30 3164 C 286.977 -4.36464 -2.82481 0
M  V30 3165 C 284.662 -3.82425 -3.25663 0
M  V30 3166 C 286.656 -5.71876 -2.8149 0
M  V30 3167 C 284.343 -5.1795 -3.243 0
M  V30 3168 C 285.341 -6.12486 -3.02241 0
M  V30 3169 O 285.029 -7.45534 -3.00724 0
M  V30 3170 H 284.761 -0.429459 -0.522054 0
M  V30 3171 H 287.315 -1.73873 -1.0935 0
M  V30 3172 H 285.545 -1.36004 -3.61994 0
M  V30 3173 H 287.234 -1.77791 -3.64891 0
M  V30 3174 H 288 -4.05576 -2.65956 0
M  V30 3175 H 283.879 -3.09274 -3.41863 0
M  V30 3176 H 287.423 -6.45638 -2.64191 0
M  V30 3177 H 283.32 -5.48473 -3.40365 0
M  V30 3178 H 284.088 -7.54713 -3.16782 0
M  V30 3179 N 286.751 1.08385 -1.14413 0
M  V30 3180 C 287.661 2.18856 -0.844951 0
M  V30 3181 C 288.677 1.73121 0.174668 0
M  V30 3182 O 289.853 2.014 0.00312857 0
M  V30 3183 C 286.918 3.45155 -0.32696 0
M  V30 3184 C 285.979 4.05513 -1.40916 0
M  V30 3185 C 285.212 5.25784 -0.915793 0
M  V30 3186 O 285.435 5.69884 0.242651 0
M  V30 3187 O 284.369 5.77545 -1.69487 0
M  V30 3188 H 288.195 2.46919 -1.76818 0
M  V30 3189 H 285.78 1.17524 -0.922411 0
M  V30 3190 H 287.662 4.21377 -0.0440211 0
M  V30 3191 H 286.337 3.18668 0.568539 0
M  V30 3192 H 285.244 3.30879 -1.74556 0
M  V30 3193 H 286.577 4.3625 -2.27919 0
M  V30 3194 N 288.23 0.939286 1.26551 0
M  V30 3195 C 289.177 0.446088 2.26448 0
M  V30 3196 C 290.147 -0.493234 1.58608 0
M  V30 3197 O 291.332 -0.409857 1.86346 0
M  V30 3198 C 288.472 -0.284375 3.43926 0
M  V30 3199 C 287.585 0.690399 4.26448 0
M  V30 3200 C 286.72 -0.0610712 5.31165 0
M  V30 3201 C 285.759 0.905649 6.05363 0
M  V30 3202 N 284.896 0.186055 7.01853 0
M  V30 3203 H 289.736 1.30291 2.68008 0
M  V30 3204 H 287.273 0.65371 1.31776 0
M  V30 3205 H 289.231 -0.724313 4.10864 0
M  V30 3206 H 287.861 -1.10535 3.03285 0
M  V30 3207 H 286.913 1.24885 3.59316 0
M  V30 3208 H 288.225 1.42873 4.779 0
M  V30 3209 H 287.379 -0.56038 6.04106 0
M  V30 3210 H 286.118 -0.832297 4.80546 0
M  V30 3211 H 285.123 1.4161 5.3125 0
M  V30 3212 H 286.348 1.67685 6.58072 0
M  V30 3213 H 284.294 -0.566714 6.53548 0
M  V30 3214 H 284.211 0.863752 7.51049 0
M  V30 3215 H 285.479 -0.292221 7.78952 0
M  V30 3216 N 289.708 -1.40897 0.706093 0
M  V30 3217 C 291.124 -1.55042 0.37869 0
M  V30 3218 C 291.324 -1.67944 -1.11342 0
M  V30 3219 O 290.38 -1.66372 -1.89938 0
M  V30 3220 C 291.693 -2.78398 1.13643 0
M  V30 3221 C 293.241 -2.92206 1.12181 0
M  V30 3222 C 293.716 -4.18463 1.86152 0
M  V30 3223 N 295.207 -4.25443 1.83173 0
M  V30 3224 C 295.942 -5.2202 2.37239 0
M  V30 3225 N 295.438 -6.24563 2.99821 0
M  V30 3226 N 297.231 -5.14033 2.27435 0
M  V30 3227 H 289.382 -1.30769 1.67372 0
M  V30 3228 H 291.645 -0.631653 0.706907 0
M  V30 3229 H 291.351 -2.7511 2.19106 0
M  V30 3230 H 291.225 -3.70228 0.721853 0
M  V30 3231 H 293.612 -2.95004 0.0754171 0
M  V30 3232 H 293.693 -2.01521 1.57554 0
M  V30 3233 H 293.337 -4.16427 2.90776 0
M  V30 3234 H 293.267 -5.08141 1.38206 0
M  V30 3235 H 295.758 -3.51976 1.37556 0
M  V30 3236 H 296.071 -6.94665 3.38616 0
M  V30 3237 H 294.416 -6.25035 3.03902 0
M  V30 3238 H 297.607 -4.3285 1.78208 0
M  V30 3239 H 297.78 -5.89129 2.69873 0
M  V30 3240 N 291.186 -0.45159 -1.50991 0
M  V30 3241 C 292.411 0.110667 -2.07105 0
M  V30 3242 C 292.836 1.3446 -1.31538 0
M  V30 3243 O 292.194 1.77743 -0.357365 0
M  V30 3244 C 292.242 0.397238 -3.58405 0
M  V30 3245 O 291.346 1.48124 -3.84881 0
M  V30 3246 H 290.687 -0.00439271 -0.663985 0
M  V30 3247 H 293.217 -0.637026 -1.9443 0
M  V30 3248 H 293.227 0.64351 -4.02893 0
M  V30 3249 H 291.902 -0.504553 -4.12828 0
M  V30 3250 H 290.479 1.22381 -3.52246 0
M  V30 3251 N 292.664 1.56529 -0.183458 0
M  V30 3252 C 293.911 1.97244 0.458357 0
M  V30 3253 C 294.239 1.06992 1.62428 0
M  V30 3254 O 293.494 0.106542 1.9541 0
M  V30 3255 C 293.793 3.43939 0.971637 0
M  V30 3256 C 293.459 4.5083 -0.0796784 0
M  V30 3257 C 292.121 4.79786 -0.368584 0
M  V30 3258 C 294.473 5.15138 -0.792638 0
M  V30 3259 C 291.801 5.70345 -1.37563 0
M  V30 3260 C 294.153 6.06784 -1.78875 0
M  V30 3261 C 292.817 6.34102 -2.08497 0
M  V30 3262 H 292.087 0.721768 0.167725 0
M  V30 3263 H 294.734 1.89472 -0.277976 0
M  V30 3264 H 293.039 3.48724 1.78602 0
M  V30 3265 H 294.736 3.72791 1.47744 0
M  V30 3266 H 291.326 4.28317 0.155668 0
M  V30 3267 H 295.51 4.92868 -0.582659 0
M  V30 3268 H 290.766 5.89789 -1.61118 0
M  V30 3269 H 294.94 6.55677 -2.3465 0
M  V30 3270 H 292.567 7.04074 -2.86678 0
M  V30 3271 N 294.142 -0.090211 1.57342 0
M  V30 3272 C 295.089 -1.10909 2.02405 0
M  V30 3273 C 296.059 -1.39523 0.901252 0
M  V30 3274 O 297.244 -1.50903 1.1676 0
M  V30 3275 C 294.384 -2.42277 2.45755 0
M  V30 3276 C 293.497 -2.20352 3.71576 0
M  V30 3277 C 292.632 -3.45154 4.03785 0
M  V30 3278 C 291.671 -3.18512 5.22701 0
M  V30 3279 N 290.808 -4.35593 5.50639 0
M  V30 3280 H 295.648 -0.71782 2.89225 0
M  V30 3281 H 293.185 -0.342901 1.43048 0
M  V30 3282 H 295.143 -3.18951 2.68935 0
M  V30 3283 H 293.773 -2.79242 1.61938 0
M  V30 3284 H 292.825 -1.34458 3.55844 0
M  V30 3285 H 294.137 -1.96661 4.58395 0
M  V30 3286 H 293.291 -4.30233 4.27767 0
M  V30 3287 H 292.03 -3.71904 3.15498 0
M  V30 3288 H 291.035 -2.31827 4.98534 0
M  V30 3289 H 292.26 -2.93103 6.12591 0
M  V30 3290 H 290.206 -4.6241 4.6531 0
M  V30 3291 H 290.123 -4.1511 6.31838 0
M  V30 3292 H 291.391 -5.21723 5.7916 0
M  V30 3293 N 295.62 -1.53406 -0.361157 0
M  V30 3294 C 296.866 -1.70054 -1.10496 0
M  V30 3295 C 297.199 -0.453278 -1.88836 0
M  V30 3296 O 296.474 0.5495 -1.86576 0
M  V30 3297 C 296.757 -2.95317 -2.06058 0
M  V30 3298 C 296.61 -4.3021 -1.31298 0
M  V30 3299 C 297.929 -3.16193 -3.06121 0
M  V30 3300 H 295.048 -0.618799 -0.400321 0
M  V30 3301 H 297.69 -1.86052 -0.385318 0
M  V30 3302 H 295.84 -2.81809 -2.67425 0
M  V30 3303 H 297.512 -4.55538 -0.726807 0
M  V30 3304 H 295.755 -4.29421 -0.614853 0
M  V30 3305 H 296.426 -5.14 -2.01265 0
M  V30 3306 H 298.902 -3.28916 -2.5486 0
M  V30 3307 H 297.778 -4.05266 -3.70204 0
M  V30 3308 H 298.039 -2.31676 -3.76535 0
M  V30 3309 N 297.098 0.621204 -1.44841 0
M  V30 3310 C 298.509 1.20298 -1.42777 0
M  V30 3311 C 298.86 1.95639 -0.148259 0
M  V30 3312 O 297.985 2.02955 0.750892 0
M  V30 3313 C 298.58 2.1882 -2.58657 0
M  V30 3314 C 297.139 2.72403 -2.59756 0
M  V30 3315 C 296.286 1.4757 -2.34773 0
M  V30 3316 H 299.237 0.411297 -1.53278 0
M  V30 3317 H 299.258 3.01607 -2.31977 0
M  V30 3318 H 298.77 1.63957 -3.51766 0
M  V30 3319 H 296.871 3.31242 -1.70615 0
M  V30 3320 H 296.984 3.17765 -3.58556 0
M  V30 3321 H 295.348 1.76051 -1.8406 0
M  V30 3322 H 296.131 0.945954 -3.3001 0
M  V30 3323 N 298.576 1.31904 0.862503 0
M  V30 3324 C 299.825 1.21373 1.61094 0
M  V30 3325 C 300.138 -0.22504 1.94301 0
M  V30 3326 O 301.344 -0.452121 2.67709 0
M  V30 3327 C 299.8 2.12525 2.9045 0
M  V30 3328 C 299.408 3.61441 2.64697 0
M  V30 3329 C 301.152 2.10813 3.68454 0
M  V30 3330 C 299.059 4.44578 3.90006 0
M  V30 3331 H 297.989 0.450705 0.604468 0
M  V30 3332 H 300.64 1.56811 0.953027 0
M  V30 3333 H 299.022 1.69994 3.57656 0
M  V30 3334 H 300.196 4.12264 2.05851 0
M  V30 3335 H 298.511 3.65205 2.00036 0
M  V30 3336 H 301.108 2.70167 4.61426 0
M  V30 3337 H 301.451 1.09713 4.01583 0
M  V30 3338 H 301.984 2.51583 3.08141 0
M  V30 3339 H 298.723 5.46461 3.62023 0
M  V30 3340 H 298.243 3.98508 4.48276 0
M  V30 3341 H 299.922 4.57176 4.5782 0
M  V30 3342 N 300.054 -1.07777 1.14986 0
M  V30 3343 C 300.986 -2.14769 0.800436 0
M  V30 3344 C 301.999 -1.61739 -0.185595 0
M  V30 3345 O 303.188 -1.78462 0.0370358 0
M  V30 3346 C 300.288 -3.38481 0.168533 0
M  V30 3347 C 299.461 -4.20876 1.1909 0
M  V30 3348 C 298.52 -5.22976 0.581575 0
M  V30 3349 O 297.546 -5.55388 1.24633 0
M  V30 3350 N 298.748 -5.76976 -0.638706 0
M  V30 3351 H 301.513 -2.45348 1.72118 0
M  V30 3352 H 299.074 -1.23645 1.04515 0
M  V30 3353 H 301.066 -4.03916 -0.251764 0
M  V30 3354 H 299.636 -3.05651 -0.655467 0
M  V30 3355 H 298.856 -3.51322 1.78791 0
M  V30 3356 H 300.144 -4.7274 1.88133 0
M  V30 3357 H 299.542 -5.52886 -1.19723 0
M  V30 3358 H 298.099 -6.44061 -1.00142 0
M  V30 3359 N 301.532 -0.945985 -1.26051 0
M  V30 3360 C 302.495 -0.463897 -2.24456 0
M  V30 3361 C 303.495 0.427655 -1.55009 0
M  V30 3362 O 304.685 0.226157 -1.72726 0
M  V30 3363 C 301.817 0.330812 -3.39291 0
M  V30 3364 H 303.01 -1.33357 -2.68619 0
M  V30 3365 H 300.563 -0.728416 -1.38289 0
M  V30 3366 H 301.298 1.21852 -3.00537 0
M  V30 3367 H 301.083 -0.308679 -3.90883 0
M  V30 3368 H 302.573 0.657865 -4.12386 0
M  V30 3369 N 303.011 1.40521 -0.713556 0
M  V30 3370 C 303.959 2.32549 -0.0485227 0
M  V30 3371 C 304.953 1.51931 0.74922 0
M  V30 3372 O 306.159 1.67745 0.652816 0
M  V30 3373 H 302.534 0.751994 0.00311138 0
M  V30 3374 H 304.505 2.86291 -0.841443 0
M  V30 3375 C 303.254 3.36879 0.860687 0
M  V30 3376 H 302.577 3.98978 0.256246 0
M  V30 3377 H 304.017 4.03772 1.294 0
M  V30 3378 C 302.476 2.72197 1.9852 0
M  V30 3379 O 303.006 2.5837 3.07584 0
M  V30 3380 N 301.212 2.30612 1.76823 0
M  V30 3381 H 300.759 2.42059 0.881217 0
M  V30 3382 H 300.717 1.87672 2.52243 0
M  V30 3383 N 304.489 0.459591 1.5075 0
M  V30 3384 C 305.399 -0.34613 2.32033 0
M  V30 3385 C 306.415 -1.00686 1.41909 0
M  V30 3386 O 307.591 -0.997361 1.7497 0
M  V30 3387 C 304.656 -1.42029 3.16273 0
M  V30 3388 C 303.717 -0.777362 4.22203 0
M  V30 3389 C 302.95 -1.80034 5.02418 0
M  V30 3390 O 303.173 -3.02544 4.83553 0
M  V30 3391 O 302.107 -1.37853 5.85901 0
M  V30 3392 H 305.933 0.318054 3.0203 0
M  V30 3393 H 303.518 0.221663 1.47746 0
M  V30 3394 H 305.4 -2.04275 3.68578 0
M  V30 3395 H 304.075 -2.06815 2.49016 0
M  V30 3396 H 302.982 -0.116256 3.73919 0
M  V30 3397 H 304.315 -0.172634 4.91897 0
M  V30 3398 N 305.967 -1.56429 0.191757 0
M  V30 3399 C 307.195 -2.01867 -0.453586 0
M  V30 3400 C 307.61 -1.07191 -1.5542 0
M  V30 3401 O 306.967 -0.0762108 -1.82341 0
M  V30 3402 C 307.018 -3.47017 -1.013 0
M  V30 3403 O 306.739 -4.38078 0.0437005 0
M  V30 3404 C 308.24 -4.07956 -1.73456 0
M  V30 3405 H 305.46 -0.661211 -0.114199 0
M  V30 3406 H 308.004 -2.02295 0.299483 0
M  V30 3407 H 306.159 -3.47298 -1.71647 0
M  V30 3408 H 306.573 -5.23178 -0.372212 0
M  V30 3409 H 308.047 -5.1138 -2.07833 0
M  V30 3410 H 308.524 -3.51222 -2.63704 0
M  V30 3411 H 309.13 -4.11437 -1.07702 0
M  V30 3412 N 307.445 0.0818655 -1.57387 0
M  V30 3413 C 308.375 1.09885 -2.06028 0
M  V30 3414 C 309.356 1.4098 -0.951774 0
M  V30 3415 O 310.541 1.50781 -1.22387 0
M  V30 3416 C 307.671 2.4151 -2.4958 0
M  V30 3417 C 306.625 2.24792 -3.64215 0
M  V30 3418 C 305.951 3.61712 -3.93787 0
M  V30 3419 C 307.251 1.67749 -4.94629 0
M  V30 3420 H 308.945 0.694128 -2.91243 0
M  V30 3421 H 306.491 0.332448 -1.4011 0
M  V30 3422 H 308.444 3.12939 -2.82219 0
M  V30 3423 H 307.168 2.83943 -1.61381 0
M  V30 3424 H 305.827 1.55807 -3.31843 0
M  V30 3425 H 305.475 4.01697 -3.02735 0
M  V30 3426 H 305.175 3.51368 -4.70971 0
M  V30 3427 H 306.699 4.34587 -4.28913 0
M  V30 3428 H 308.113 2.29032 -5.25564 0
M  V30 3429 H 306.51 1.68128 -5.76067 0
M  V30 3430 H 307.58 0.638059 -4.80684 0
M  V30 3431 N 308.923 1.53595 0.353017 0
M  V30 3432 C 310.169 1.70638 1.09593 0
M  V30 3433 C 310.502 0.463286 1.88593 0
M  V30 3434 O 309.777 -0.539597 1.86865 0
M  V30 3435 C 310.06 2.96406 2.04489 0
M  V30 3436 C 309.913 4.30901 1.29014 0
M  V30 3437 C 311.232 3.17812 3.0444 0
M  V30 3438 H 308.351 0.620913 0.397034 0
M  V30 3439 H 310.993 1.86254 0.375446 0
M  V30 3440 H 309.143 2.83223 2.65927 0
M  V30 3441 H 310.815 4.55917 0.702638 0
M  V30 3442 H 309.058 4.29741 0.592071 0
M  V30 3443 H 309.729 5.1506 1.98537 0
M  V30 3444 H 312.205 3.30263 2.53112 0
M  V30 3445 H 311.081 4.07223 3.6805 0
M  V30 3446 H 311.342 2.33669 3.75301 0
M  V30 3447 N 310.401 -0.613514 1.45168 0
M  V30 3448 C 311.649 -1.36997 1.48581 0
M  V30 3449 C 311.97 -1.94589 0.126545 0
M  V30 3450 O 311.24 -1.76816 -0.843372 0
M  V30 3451 H 309.82 -0.508558 0.547154 0
M  V30 3452 H 312.482 -0.720853 1.81079 0
M  V30 3453 H 311.578 -2.1924 2.22127 0
M  V30 3454 N 311.879 -1.3236 -0.855495 0
M  V30 3455 C 312.842 -1.21164 -1.94556 0
M  V30 3456 C 313.842 -0.134908 -1.60233 0
M  V30 3457 O 315.032 -0.385249 -1.69887 0
M  V30 3458 C 312.164 -0.863192 -3.29791 0
M  V30 3459 H 313.357 -2.18038 -2.05911 0
M  V30 3460 H 310.91 -1.16179 -1.04557 0
M  V30 3461 H 311.645 0.103769 -3.24134 0
M  V30 3462 H 311.43 -1.64166 -3.56078 0
M  V30 3463 H 312.92 -0.809156 -4.09686 0
M  V30 3464 N 313.357 1.07166 -1.15556 0
M  V30 3465 C 314.603 1.80065 -0.932984 0
M  V30 3466 C 314.936 1.86586 0.53845 0
M  V30 3467 O 314.211 1.35098 1.39924 0
M  V30 3468 C 314.494 3.25022 -1.55025 0
M  V30 3469 C 314.347 3.26634 -3.09242 0
M  V30 3470 C 315.666 4.22341 -1.2376 0
M  V30 3471 H 312.785 0.653697 -0.340366 0
M  V30 3472 H 315.427 1.25389 -1.4275 0
M  V30 3473 H 313.577 3.71712 -1.12972 0
M  V30 3474 H 315.249 2.88173 -3.60214 0
M  V30 3475 H 313.492 2.65539 -3.43033 0
M  V30 3476 H 314.163 4.28854 -3.47546 0
M  V30 3477 H 316.639 3.8405 -1.60139 0
M  V30 3478 H 315.515 5.22053 -1.69564 0
M  V30 3479 H 315.776 4.41828 -0.154938 0
M  V30 3480 N 314.835 0.952656 1.25548 0
M  V30 3481 C 316.084 0.602053 1.92505 0
M  V30 3482 C 316.397 -0.864663 1.75451 0
M  V30 3483 O 317.603 -1.32514 2.36965 0
M  V30 3484 C 316.059 1.02607 3.44963 0
M  V30 3485 C 315.667 2.51519 3.70732 0
M  V30 3486 C 317.411 0.747905 4.1786 0
M  V30 3487 C 315.318 2.87732 5.16686 0
M  V30 3488 H 314.248 0.22146 0.720744 0
M  V30 3489 H 316.899 1.15684 1.42441 0
M  V30 3490 H 315.281 0.399712 3.93978 0
M  V30 3491 H 316.455 3.19157 3.32378 0
M  V30 3492 H 314.77 2.76786 3.11092 0
M  V30 3493 H 317.367 0.994647 5.25367 0
M  V30 3494 H 317.71 -0.315629 4.15102 0
M  V30 3495 H 318.243 1.33452 3.74747 0
M  V30 3496 H 314.982 3.93095 5.24554 0
M  V30 3497 H 314.502 2.24765 5.56094 0
M  V30 3498 H 316.181 2.76817 5.84792 0
M  V30 3499 N 316.313 -1.40141 0.720998 0
M  V30 3500 C 317.261 -2.3252 0.0608547 0
M  V30 3501 C 318.255 -1.52326 -0.741152 0
M  V30 3502 O 319.461 -1.68089 -0.643911 0
M  V30 3503 H 315.836 -0.751999 0.000876664 0
M  V30 3504 H 317.807 -2.8584 0.856614 0
M  V30 3505 C 316.556 -3.37331 -0.842809 0
M  V30 3506 H 315.879 -3.99108 -0.235084 0
M  V30 3507 H 317.319 -4.04452 -1.27257 0
M  V30 3508 C 315.778 -2.73246 -1.97074 0
M  V30 3509 O 316.308 -2.59998 -3.06209 0
M  V30 3510 N 314.514 -2.31547 -1.75597 0
M  V30 3511 H 314.061 -2.42522 -0.868368 0
M  V30 3512 H 314.019 -1.89007 -2.51244 0
M  V30 3513 N 317.792 -0.46758 -1.50504 0
M  V30 3514 C 318.74 0.342482 -2.30065 0
M  V30 3515 C 319.734 0.993596 -1.37201 0
M  V30 3516 O 320.94 0.925102 -1.54408 0
M  V30 3517 H 317.315 0.129283 -0.740803 0
M  V30 3518 H 319.286 -0.34899 -2.96352 0
M  V30 3519 C 318.035 1.4139 -3.17654 0
M  V30 3520 H 317.358 0.922264 -3.89017 0
M  V30 3521 H 318.798 1.95335 -3.76325 0
M  V30 3522 C 317.257 2.4139 -2.35016 0
M  V30 3523 O 317.787 3.46586 -2.03079 0
M  V30 3524 N 315.993 2.13021 -1.97662 0
M  V30 3525 H 315.54 1.27499 -2.23834 0
M  V30 3526 H 315.498 2.80164 -1.42673 0
M  V30 3527 N 319.27 1.56325 -0.20005 0
M  V30 3528 C 320.516 1.98012 0.438059 0
M  V30 3529 C 320.849 1.08702 1.60927 0
M  V30 3530 O 320.124 0.140064 1.93995 0
M  V30 3531 C 320.407 3.48841 0.893419 0
M  V30 3532 C 320.26 4.48928 -0.279947 0
M  V30 3533 C 321.579 4.03498 1.75719 0
M  V30 3534 H 318.698 0.719918 0.157757 0
M  V30 3535 H 321.34 1.87743 -0.291968 0
M  V30 3536 H 319.49 3.57723 1.51547 0
M  V30 3537 H 321.162 4.52079 -0.91772 0
M  V30 3538 H 319.405 4.23694 -0.930919 0
M  V30 3539 H 320.076 5.5194 0.0812601 0
M  V30 3540 H 322.552 3.97427 1.23253 0
M  V30 3541 H 321.428 5.09393 2.04476 0
M  V30 3542 H 321.689 3.4906 2.71311 0
M  V30 3543 N 320.748 -0.0735177 1.57428 0
M  V30 3544 C 321.973 -0.789787 1.91774 0
M  V30 3545 C 322.398 -1.70413 0.796306 0
M  V30 3546 O 321.756 -1.79555 -0.250961 0
M  V30 3547 C 321.804 -1.5609 3.25067 0
M  V30 3548 O 320.908 -2.67144 3.14178 0
M  V30 3549 H 320.249 -0.215582 0.628029 0
M  V30 3550 H 322.779 -0.0422781 2.04556 0
M  V30 3551 H 322.789 -1.94052 3.58898 0
M  V30 3552 H 321.464 -0.890015 4.06265 0
M  V30 3553 H 320.041 -2.32052 2.91901 0
M  V30 3554 N 322.226 -1.5378 -0.344866 0
M  V30 3555 C 323.136 -1.84667 -1.4469 0
M  V30 3556 C 324.152 -0.736704 -1.57635 0
M  V30 3557 O 325.328 -1.02888 -1.73136 0
M  V30 3558 C 322.393 -2.04869 -2.79696 0
M  V30 3559 C 321.454 -3.28731 -2.76106 0
M  V30 3560 C 320.687 -3.4796 -4.04673 0
M  V30 3561 O 320.91 -2.71052 -5.01883 0
M  V30 3562 O 319.844 -4.41383 -4.09224 0
M  V30 3563 H 323.67 -2.78334 -1.21506 0
M  V30 3564 H 321.255 -1.39418 -0.536921 0
M  V30 3565 H 323.137 -2.19609 -3.59652 0
M  V30 3566 H 321.812 -1.14391 -3.02814 0
M  V30 3567 H 320.719 -3.19396 -1.94774 0
M  V30 3568 H 322.052 -4.19198 -2.57941 0
M  V30 3569 N 323.704 0.605807 -1.45491 0
M  V30 3570 C 324.667 1.69836 -1.5391 0
M  V30 3571 C 325.667 1.55261 -0.418424 0
M  V30 3572 O 326.857 1.60296 -0.681965 0
M  V30 3573 C 323.989 3.09117 -1.43734 0
M  V30 3574 H 325.182 1.63738 -2.51257 0
M  V30 3575 H 322.735 0.821689 -1.32959 0
M  V30 3576 H 323.47 3.20791 -0.475788 0
M  V30 3577 H 323.255 3.21104 -2.25021 0
M  V30 3578 H 324.745 3.88696 -1.52661 0
M  V30 3579 N 325.182 1.32811 0.848464 0
M  V30 3580 C 326.115 1.16601 1.96162 0
M  V30 3581 C 327.093 0.0638855 1.62474 0
M  V30 3582 O 328.277 0.224348 1.8716 0
M  V30 3583 C 325.404 0.786333 3.29446 0
M  V30 3584 C 324.45 1.89459 3.8211 0
M  V30 3585 S 325.283 3.50395 4.04949 0
M  V30 3586 C 326.439 3.14413 5.41198 0
M  V30 3587 H 326.672 2.10832 2.09612 0
M  V30 3588 H 324.205 1.17543 1.00115 0
M  V30 3589 H 326.163 0.574044 4.06466 0
M  V30 3590 H 324.824 -0.137218 3.138 0
M  V30 3591 H 324.017 1.58207 4.78526 0
M  V30 3592 H 323.619 2.06304 3.11953 0
M  V30 3593 H 325.911 2.64642 6.23675 0
M  V30 3594 H 326.854 4.09874 5.77416 0
M  V30 3595 H 327.262 2.51266 5.05495 0
M  V30 3596 N 326.66 -1.06551 1.16123 0
M  V30 3597 C 327.57 -2.17484 0.879662 0
M  V30 3598 C 328.586 -1.73377 -0.147104 0
M  V30 3599 O 329.762 -2.01379 0.0289128 0
M  V30 3600 C 326.827 -3.44591 0.381829 0
M  V30 3601 C 325.888 -4.0322 1.4735 0
M  V30 3602 C 325.121 -5.24261 0.999324 0
M  V30 3603 O 325.344 -5.70198 -0.151957 0
M  V30 3604 O 324.278 -5.74775 1.78653 0
M  V30 3605 H 328.104 -2.44075 1.80724 0
M  V30 3606 H 325.689 -1.16042 0.940992 0
M  V30 3607 H 327.571 -4.21254 0.111053 0
M  V30 3608 H 326.246 -3.19532 -0.51777 0
M  V30 3609 H 325.153 -3.2806 1.79798 0
M  V30 3610 H 326.486 -4.32568 2.34831 0
M  V30 3611 N 328.138 -0.959301 -1.25041 0
M  V30 3612 C 329.366 -0.633949 -1.96948 0
M  V30 3613 C 329.781 0.794916 -1.7125 0
M  V30 3614 O 329.138 1.53231 -0.991287 0
M  V30 3615 C 329.189 -0.888805 -3.50403 0
M  V30 3616 O 328.91 -2.26149 -3.75218 0
M  V30 3617 C 330.411 -0.576482 -4.39536 0
M  V30 3618 H 327.631 -0.237263 -0.627652 0
M  V30 3619 H 330.175 -1.28495 -1.59089 0
M  V30 3620 H 328.33 -0.284145 -3.86357 0
M  V30 3621 H 328.744 -2.33514 -4.6965 0
M  V30 3622 H 330.218 -0.805314 -5.46094 0
M  V30 3623 H 330.695 0.489075 -4.36468 0
M  V30 3624 H 331.301 -1.16067 -4.09156 0
M  V30 3625 N 329.616 1.39756 -0.72842 0
M  V30 3626 C 330.546 2.33289 -0.0991354 0
M  V30 3627 C 331.527 1.53568 0.731489 0
M  V30 3628 O 332.712 1.81987 0.677807 0
M  V30 3629 C 329.842 3.3763 0.813834 0
M  V30 3630 C 328.796 4.2791 0.0878663 0
M  V30 3631 C 328.122 5.22894 1.11741 0
M  V30 3632 C 329.422 5.11314 -1.06563 0
M  V30 3633 H 331.116 2.86163 -0.880408 0
M  V30 3634 H 328.662 1.37591 -0.424819 0
M  V30 3635 H 330.615 4.0201 1.26355 0
M  V30 3636 H 329.339 2.83181 1.62715 0
M  V30 3637 H 327.998 3.65 -0.342159 0
M  V30 3638 H 327.646 4.64744 1.92412 0
M  V30 3639 H 327.346 5.84143 0.636477 0
M  V30 3640 H 328.87 5.90151 1.56697 0
M  V30 3641 H 330.284 5.69076 -0.694671 0
M  V30 3642 H 328.681 5.81671 -1.47577 0
M  V30 3643 H 329.751 4.46534 -1.89038 0
M  V30 3644 N 331.094 0.475555 1.50254 0
M  V30 3645 C 332.322 -0.0754493 2.06762 0
M  V30 3646 C 332.737 -1.33111 1.33891 0
M  V30 3647 O 332.094 -1.77846 0.40952 0
M  V30 3648 C 332.145 -0.359008 3.59713 0
M  V30 3649 O 331.866 0.846851 4.29837 0
M  V30 3650 C 333.367 -0.956484 4.32858 0
M  V30 3651 H 330.587 0.00907525 0.670939 0
M  V30 3652 H 333.131 0.665618 1.93364 0
M  V30 3653 H 331.286 -1.05001 3.72899 0
M  V30 3654 H 331.7 0.594162 5.21124 0
M  V30 3655 H 333.174 -1.10463 5.40834 0
M  V30 3656 H 333.651 -1.94775 3.93649 0
M  V30 3657 H 334.257 -0.303723 4.24214 0
M  V30 3658 N 332.573 -1.56217 0.208337 0
M  V30 3659 C 333.989 -1.58919 -0.14729 0
M  V30 3660 C 334.189 -1.22486 -1.59998 0
M  V30 3661 O 333.245 -0.953849 -2.3379 0
M  V30 3662 C 334.558 -3.00236 0.167048 0
M  V30 3663 C 336.106 -3.12813 0.108219 0
M  V30 3664 C 336.581 -4.56284 0.396049 0
M  V30 3665 N 338.072 -4.61912 0.345142 0
M  V30 3666 C 338.807 -5.70837 0.541523 0
M  V30 3667 N 338.303 -6.88178 0.798968 0
M  V30 3668 N 340.096 -5.60091 0.474867 0
M  V30 3669 H 332.247 -1.78177 1.15614 0
M  V30 3670 H 334.51 -0.827555 0.462446 0
M  V30 3671 H 334.216 -3.31499 1.1748 0
M  V30 3672 H 334.09 -3.7354 -0.524184 0
M  V30 3673 H 336.477 -2.81354 -0.890157 0
M  V30 3674 H 336.558 -2.41866 0.832729 0
M  V30 3675 H 336.202 -4.88458 1.3918 0
M  V30 3676 H 336.132 -5.25439 -0.349502 0
M  V30 3677 H 338.623 -3.77589 0.153316 0
M  V30 3678 H 338.936 -7.67095 0.93727 0
M  V30 3679 H 337.281 -6.89953 0.836013 0
M  V30 3680 H 340.472 -4.67297 0.274064 0
M  V30 3681 H 340.645 -6.44917 0.631326 0
M  V30 3682 N 334.051 0.0651679 -1.57465 0
M  V30 3683 C 335.3 0.761916 -1.86756 0
M  V30 3684 C 335.613 1.78406 -0.801925 0
M  V30 3685 O 336.819 2.53084 -0.982885 0
M  V30 3686 C 335.275 1.40603 -3.31299 0
M  V30 3687 C 334.883 0.422115 -4.46007 0
M  V30 3688 C 336.627 2.08476 -3.69781 0
M  V30 3689 C 334.534 1.07252 -5.81593 0
M  V30 3690 H 333.464 0.288308 -0.696702 0
M  V30 3691 H 336.115 0.015344 -1.83494 0
M  V30 3692 H 334.497 2.20109 -3.29193 0
M  V30 3693 H 335.671 -0.343613 -4.59517 0
M  V30 3694 H 333.986 -0.152527 -4.16121 0
M  V30 3695 H 336.583 2.57925 -4.68379 0
M  V30 3696 H 336.926 2.88712 -2.99919 0
M  V30 3697 H 337.459 1.35792 -3.73905 0
M  V30 3698 H 334.198 0.310342 -6.54765 0
M  V30 3699 H 333.718 1.80895 -5.71872 0
M  V30 3700 H 335.397 1.59043 -6.27148 0
M  V30 3701 N 335.529 1.53961 0.336706 0
M  V30 3702 C 336.757 1.75483 1.09605 0
M  V30 3703 C 337.172 0.4972 1.82136 0
M  V30 3704 O 336.529 -0.53149 1.74589 0
M  V30 3705 C 336.58 2.93943 2.10428 0
M  V30 3706 O 336.301 4.14842 1.40846 0
M  V30 3707 C 337.802 3.27571 2.98684 0
M  V30 3708 H 335.022 0.586166 0.326574 0
M  V30 3709 H 337.566 2.00808 0.38683 0
M  V30 3710 H 335.721 2.70929 2.76905 0
M  V30 3711 H 336.135 4.81383 2.08255 0
M  V30 3712 H 337.609 4.13791 3.6535 0
M  V30 3713 H 338.086 2.44168 3.65074 0
M  V30 3714 H 338.692 3.52615 2.37787 0
M  V30 3715 N 337.007 -0.598083 1.45811 0
M  V30 3716 C 337.917 -1.73632 1.57763 0
M  V30 3717 C 338.933 -1.67763 0.461676 0
M  V30 3718 O 340.109 -1.87949 0.723685 0
M  V30 3719 C 337.174 -3.10114 1.55018 0
M  V30 3720 C 336.235 -3.27364 2.77726 0
M  V30 3721 C 335.468 -4.57334 2.75102 0
M  V30 3722 O 335.691 -5.40258 1.8297 0
M  V30 3723 O 334.625 -4.77502 3.66437 0
M  V30 3724 H 338.451 -1.66498 2.53992 0
M  V30 3725 H 336.036 -0.763308 1.28429 0
M  V30 3726 H 337.918 -3.9141 1.56129 0
M  V30 3727 H 336.593 -3.17718 0.619431 0
M  V30 3728 H 335.5 -2.45619 2.82174 0
M  V30 3729 H 336.833 -3.24641 3.69958 0
M  V30 3730 N 338.485 -1.33259 -0.841409 0
M  V30 3731 C 339.395 -1.25332 -1.98316 0
M  V30 3732 C 340.411 -0.164364 -1.73222 0
M  V30 3733 O 341.587 -0.387486 -1.97637 0
M  V30 3734 C 338.652 -0.990078 -3.32262 0
M  V30 3735 C 337.713 -2.16879 -3.70489 0
M  V30 3736 C 336.946 -1.91801 -4.98044 0
M  V30 3737 O 337.169 -0.867075 -5.63771 0
M  V30 3738 O 336.103 -2.78267 -5.33714 0
M  V30 3739 H 339.929 -2.21344 -2.07944 0
M  V30 3740 H 337.514 -1.1328 -0.974058 0
M  V30 3741 H 339.396 -0.860321 -4.12524 0
M  V30 3742 H 338.071 -0.0602155 -3.23644 0
M  V30 3743 H 336.978 -2.35407 -2.90748 0
M  V30 3744 H 338.311 -3.0819 -3.8377 0
M  V30 3745 N 339.963 1.05934 -1.16686 0
M  V30 3746 C 340.893 2.1546 -0.899949 0
M  V30 3747 C 341.874 1.69391 0.155154 0
M  V30 3748 O 343.059 1.94199 0.00648693 0
M  V30 3749 C 340.189 3.44939 -0.404241 0
M  V30 3750 C 339.143 4.04536 -1.39767 0
M  V30 3751 C 338.469 5.29268 -0.760216 0
M  V30 3752 C 339.769 4.42893 -2.76845 0
M  V30 3753 H 341.463 2.38046 -1.81588 0
M  V30 3754 H 339.009 1.14404 -0.874514 0
M  V30 3755 H 340.962 4.20901 -0.204971 0
M  V30 3756 H 339.686 3.21983 0.547206 0
M  V30 3757 H 338.345 3.30635 -1.58355 0
M  V30 3758 H 337.993 5.02611 0.197831 0
M  V30 3759 H 337.693 5.70101 -1.42332 0
M  V30 3760 H 339.217 6.07924 -0.57105 0
M  V30 3761 H 340.631 5.09921 -2.62019 0
M  V30 3762 H 339.028 4.94721 -3.39663 0
M  V30 3763 H 340.098 3.53584 -3.31823 0
M  V30 3764 N 341.441 0.965919 1.2453 0
M  V30 3765 C 342.687 0.62776 1.92839 0
M  V30 3766 C 343.02 -0.834694 1.75347 0
M  V30 3767 O 342.295 -1.60031 1.10546 0
M  V30 3768 C 342.578 1.00109 3.45905 0
M  V30 3769 C 342.431 2.52011 3.72573 0
M  V30 3770 C 343.75 0.53435 4.36844 0
M  V30 3771 H 340.869 0.229537 0.700344 0
M  V30 3772 H 343.511 1.2046 1.46933 0
M  V30 3773 H 341.661 0.510238 3.85135 0
M  V30 3774 H 343.333 3.08559 3.42912 0
M  V30 3775 H 341.576 2.95287 3.17786 0
M  V30 3776 H 342.247 2.73183 4.79661 0
M  V30 3777 H 344.723 0.955565 4.04979 0
M  V30 3778 H 343.599 0.824152 5.42678 0
M  V30 3779 H 343.86 -0.565589 4.38467 0
M  V30 3780 N 342.919 -1.39368 0.735821 0
M  V30 3781 C 344.33 -1.83313 0.354015 0
M  V30 3782 C 344.681 -1.61461 -1.11466 0
M  V30 3783 O 343.806 -1.10621 -1.85989 0
M  V30 3784 C 344.401 -3.32781 0.635769 0
M  V30 3785 C 342.96 -3.75142 0.307448 0
M  V30 3786 C 342.107 -2.62358 0.897974 0
M  V30 3787 H 345.058 -1.28349 0.933398 0
M  V30 3788 H 345.079 -3.80388 -0.0921773 0
M  V30 3789 H 344.591 -3.48654 1.70476 0
M  V30 3790 H 342.692 -3.64857 -0.755674 0
M  V30 3791 H 342.805 -4.72532 0.790583 0
M  V30 3792 H 341.169 -2.52624 0.324551 0
M  V30 3793 H 341.952 -2.81036 1.97164 0
M  V30 3794 N 344.397 -0.483516 -1.5 0
M  V30 3795 C 345.643 0.0672592 -2.02688 0
M  V30 3796 C 345.976 1.38247 -1.36387 0
M  V30 3797 O 345.251 1.88131 -0.493675 0
M  V30 3798 C 345.534 0.238109 -3.59312 0
M  V30 3799 C 345.387 -1.099 -4.36168 0
M  V30 3800 C 346.706 0.986916 -4.28892 0
M  V30 3801 H 343.825 0.0229696 -0.736642 0
M  V30 3802 H 346.467 -0.631527 -1.79197 0
M  V30 3803 H 344.617 0.8333 -3.79458 0
M  V30 3804 H 346.289 -1.73172 -4.27562 0
M  V30 3805 H 344.532 -1.69261 -3.99416 0
M  V30 3806 H 345.203 -0.932954 -5.44059 0
M  V30 3807 H 347.679 0.482302 -4.13295 0
M  V30 3808 H 346.555 1.07527 -5.38265 0
M  V30 3809 H 346.816 2.0265 -3.92919 0
M  V30 3810 N 345.875 1.56104 -0.216619 0
M  V30 3811 C 347.286 1.844 0.292128 0
M  V30 3812 C 347.637 1.13788 1.59833 0
M  V30 3813 O 346.762 0.405888 2.12559 0
M  V30 3814 C 347.357 3.3452 0.53681 0
M  V30 3815 C 345.916 3.63151 0.989876 0
M  V30 3816 C 345.063 2.77255 0.0502302 0
M  V30 3817 H 348.014 1.52481 -0.439926 0
M  V30 3818 H 348.035 3.54459 1.38345 0
M  V30 3819 H 347.547 3.85885 -0.414031 0
M  V30 3820 H 345.648 3.17238 1.95425 0
M  V30 3821 H 345.761 4.71177 0.867698 0
M  V30 3822 H 344.125 2.48555 0.556117 0
M  V30 3823 H 344.908 3.31416 -0.89544 0
M  V30 3824 N 347.353 -0.0568162 1.57498 0
M  V30 3825 C 348.601 -0.751617 1.87604 0
M  V30 3826 C 348.922 -1.77351 0.81066 0
M  V30 3827 O 348.192 -1.95254 -0.159018 0
M  V30 3828 H 346.772 -0.280583 0.692302 0
M  V30 3829 H 349.434 -0.0293483 1.94878 0
M  V30 3830 H 348.53 -1.25852 2.856 0
M  V30 3831 N 348.832 -1.54138 -0.328536 0
M  V30 3832 C 350.057 -1.76378 -1.09112 0
M  V30 3833 C 350.482 -0.508596 -1.81094 0
M  V30 3834 O 349.84 0.539598 -1.73084 0
M  V30 3835 C 349.888 -2.95358 -2.06872 0
M  V30 3836 O 348.992 -2.66556 -3.14677 0
M  V30 3837 H 348.333 -0.584614 -0.314838 0
M  V30 3838 H 350.863 -2.01146 -0.374348 0
M  V30 3839 H 350.873 -3.22566 -2.4983 0
M  V30 3840 H 349.548 -3.86385 -1.5388 0
M  V30 3841 H 348.125 -2.50282 -2.7643 0
M  V30 3842 N 350.31 0.590341 -1.46126 0
M  V30 3843 C 351.556 1.35082 -1.51264 0
M  V30 3844 C 351.889 1.93534 -0.160711 0
M  V30 3845 O 351.164 1.76045 0.826956 0
M  V30 3846 C 351.447 2.48588 -2.6053 0
M  V30 3847 C 351.3 1.95221 -4.05227 0
M  V30 3848 C 352.619 3.50662 -2.6594 0
M  V30 3849 H 349.738 0.489803 -0.550692 0
M  V30 3850 H 352.38 0.663887 -1.78024 0
M  V30 3851 H 350.53 3.07186 -2.37843 0
M  V30 3852 H 352.202 1.41139 -4.39178 0
M  V30 3853 H 350.445 1.26101 -4.15068 0
M  V30 3854 H 351.116 2.77121 -4.77397 0
M  V30 3855 H 353.592 3.01934 -2.86313 0
M  V30 3856 H 352.468 4.27551 -3.44226 0
M  V30 3857 H 352.729 4.07399 -1.71694 0
M  V30 3858 N 351.788 1.33704 0.83433 0
M  V30 3859 C 352.736 1.24323 1.96587 0
M  V30 3860 C 353.73 0.143659 1.6879 0
M  V30 3861 O 354.936 0.30791 1.77347 0
M  V30 3862 H 351.311 0.385925 0.645419 0
M  V30 3863 H 353.282 2.19978 2.01624 0
M  V30 3864 C 352.031 1.00394 3.32891 0
M  V30 3865 H 351.354 1.84231 3.54822 0
M  V30 3866 H 352.794 0.97862 4.12552 0
M  V30 3867 C 351.253 -0.293047 3.35623 0
M  V30 3868 O 351.783 -1.29823 3.80143 0
M  V30 3869 N 349.989 -0.322174 2.88809 0
M  V30 3870 H 349.536 0.496379 2.52772 0
M  V30 3871 H 349.494 -1.18977 2.91019 0
M  V30 3872 N 353.266 -1.05314 1.17247 0
M  V30 3873 C 354.514 -1.77941 0.958194 0
M  V30 3874 C 354.835 -1.88089 -0.514556 0
M  V30 3875 O 354.105 -1.39676 -1.37359 0
M  V30 3876 H 352.685 -0.659116 0.351533 0
M  V30 3877 H 355.347 -1.27166 1.47699 0
M  V30 3878 H 354.443 -2.79663 1.38546 0
M  V30 3879 N 354.744 -0.972509 -1.24016 0
M  V30 3880 C 355.99 -0.637978 -1.92504 0
M  V30 3881 C 356.323 0.825383 -1.75787 0
M  V30 3882 O 355.598 1.59442 -1.11393 0
M  V30 3883 C 355.881 -1.01942 -3.45369 0
M  V30 3884 C 355.734 -2.53983 -3.71231 0
M  V30 3885 C 357.053 -0.55751 -4.36555 0
M  V30 3886 H 354.172 -0.233248 -0.699117 0
M  V30 3887 H 356.814 -1.21238 -1.46292 0
M  V30 3888 H 354.964 -0.530656 -3.84859 0
M  V30 3889 H 356.636 -3.10374 -3.41271 0
M  V30 3890 H 354.879 -2.96968 -3.16216 0
M  V30 3891 H 355.55 -2.75723 -4.78206 0
M  V30 3892 H 358.026 -0.977029 -4.04467 0
M  V30 3893 H 356.902 -0.85292 -5.42233 0
M  V30 3894 H 357.163 0.542328 -4.38761 0
M  V30 3895 N 356.222 1.38976 -0.743202 0
M  V30 3896 C 357.17 2.32394 -0.0978389 0
M  V30 3897 C 358.164 1.53486 0.716824 0
M  V30 3898 O 359.37 1.69092 0.617088 0
M  V30 3899 H 355.745 0.75189 -0.0128402 0
M  V30 3900 H 357.716 2.84441 -0.901981 0
M  V30 3901 C 356.465 3.38629 0.789036 0
M  V30 3902 H 355.788 3.99432 0.171559 0
M  V30 3903 H 357.228 4.06426 1.20807 0
M  V30 3904 C 355.687 2.76347 1.92702 0
M  V30 3905 O 356.217 2.64836 3.02034 0
M  V30 3906 N 354.423 2.34311 1.71891 0
M  V30 3907 H 353.97 2.43873 0.829675 0
M  V30 3908 H 353.928 1.9298 2.48205 0
M  V30 3909 N 357.7 0.491464 1.49741 0
M  V30 3910 C 358.663 -0.280906 2.27472 0
M  V30 3911 C 359.663 -0.902454 1.33088 0
M  V30 3912 O 360.853 -0.768465 1.56334 0
M  V30 3913 C 357.985 -1.40209 3.10732 0
M  V30 3914 H 359.178 0.401056 2.97206 0
M  V30 3915 H 356.731 0.246131 1.5435 0
M  V30 3916 H 357.466 -2.11849 2.45541 0
M  V30 3917 H 357.251 -0.961969 3.80117 0
M  V30 3918 H 358.741 -1.9464 3.69466 0
M  V30 3919 N 359.178 -1.55987 0.224894 0
M  V30 3920 C 360.108 -2.23426 -0.678457 0
M  V30 3921 C 361.089 -1.20709 -1.19847 0
M  V30 3922 O 362.274 -1.49304 -1.24186 0
M  V30 3923 C 359.404 -2.91676 -1.88527 0
M  V30 3924 C 358.358 -4.00893 -1.49896 0
M  V30 3925 C 357.684 -4.56455 -2.78483 0
M  V30 3926 C 358.984 -5.17769 -0.686461 0
M  V30 3927 H 360.678 -2.99175 -0.116173 0
M  V30 3928 H 358.224 -1.43897 -0.054436 0
M  V30 3929 H 360.177 -3.37547 -2.5227 0
M  V30 3930 H 358.901 -2.1338 -2.47258 0
M  V30 3931 H 357.56 -3.55758 -0.884985 0
M  V30 3932 H 357.208 -3.74886 -3.35365 0
M  V30 3933 H 356.908 -5.30169 -2.53368 0
M  V30 3934 H 358.432 -5.05047 -3.43162 0
M  V30 3935 H 359.846 -5.60001 -1.22767 0
M  V30 3936 H 358.243 -5.97735 -0.532259 0
M  V30 3937 H 359.313 -4.83932 0.306196 0
M  V30 3938 N 360.656 0.0484629 -1.57525 0
M  V30 3939 C 361.904 0.741657 -1.88 0
M  V30 3940 C 362.225 1.76918 -0.820054 0
M  V30 3941 O 361.495 1.95335 0.148661 0
M  V30 3942 H 360.075 0.276908 -0.69378 0
M  V30 3943 H 362.737 0.019013 -1.94891 0
M  V30 3944 H 361.833 1.24336 -2.86264 0
M  V30 3945 N 362.134 1.5431 0.320358 0
M  V30 3946 C 363.064 1.86912 1.3995 0
M  V30 3947 C 364.045 0.726211 1.53819 0
M  V30 3948 O 365.23 0.980233 1.67646 0
M  V30 3949 C 362.36 2.09932 2.7667 0
M  V30 3950 C 361.314 3.25776 2.77586 0
M  V30 3951 C 360.64 3.34173 4.17412 0
M  V30 3952 C 361.94 4.6335 2.41048 0
M  V30 3953 H 363.634 2.77292 1.12914 0
M  V30 3954 H 361.18 1.33421 0.541738 0
M  V30 3955 H 363.133 2.31324 3.52232 0
M  V30 3956 H 361.857 1.16304 3.0519 0
M  V30 3957 H 360.516 3.04276 2.04479 0
M  V30 3958 H 360.164 2.38098 4.43078 0
M  V30 3959 H 359.864 4.12033 4.18931 0
M  V30 3960 H 361.388 3.57803 4.94782 0
M  V30 3961 H 362.802 4.84602 3.06324 0
M  V30 3962 H 361.199 5.43782 2.53813 0
M  V30 3963 H 362.269 4.65381 1.36193 0
M  V30 3964 N 363.613 -0.582584 1.46437 0
M  V30 3965 C 364.859 -1.34278 1.51978 0
M  V30 3966 C 365.192 -1.93446 0.170973 0
M  V30 3967 O 364.467 -1.76481 -0.817608 0
M  V30 3968 C 364.75 -2.47203 2.61845 0
M  V30 3969 C 364.603 -1.93069 4.06257 0
M  V30 3970 C 365.922 -3.49247 2.67795 0
M  V30 3971 H 363.041 -0.486876 0.553282 0
M  V30 3972 H 365.683 -0.654437 1.78374 0
M  V30 3973 H 363.833 -3.0592 2.39469 0
M  V30 3974 H 365.505 -1.38808 4.3992 0
M  V30 3975 H 363.748 -1.23898 4.1573 0
M  V30 3976 H 364.419 -2.74586 4.7886 0
M  V30 3977 H 366.895 -3.00411 2.8791 0
M  V30 3978 H 365.771 -4.25719 3.46489 0
M  V30 3979 H 366.032 -4.06482 1.73852 0
M  V30 3980 N 365.091 -1.34144 -0.827227 0
M  V30 3981 C 366.337 -1.26446 -1.58554 0
M  V30 3982 C 366.67 0.1664 -1.93486 0
M  V30 3983 O 365.945 1.1107 -1.59667 0
M  V30 3984 C 366.228 -2.15111 -2.8879 0
M  V30 3985 C 366.081 -3.66712 -2.60465 0
M  V30 3986 C 367.4 -2.03311 -3.90324 0
M  V30 3987 H 364.519 -0.46067 -0.575284 0
M  V30 3988 H 367.161 -1.64356 -0.953269 0
M  V30 3989 H 365.311 -1.8291 -3.42748 0
M  V30 3990 H 366.983 -4.09259 -2.1285 0
M  V30 3991 H 365.226 -3.88014 -1.93978 0
M  V30 3992 H 365.897 -4.24112 -3.53317 0
M  V30 3993 H 368.373 -2.31574 -3.45706 0
M  V30 3994 H 367.249 -2.67582 -4.79261 0
M  V30 3995 H 367.51 -1.00879 -4.30437 0
M  V30 3996 N 366.569 1.04691 -1.17803 0
M  V30 3997 C 367.816 1.77782 -0.969532 0
M  V30 3998 C 368.144 1.87926 0.501401 0
M  V30 3999 O 367.399 1.37918 1.38842 0
M  V30 4000 C 367.698 3.21467 -1.56186 0
M  V30 4001 C 367.364 3.3137 -3.05786 0
M  V30 4002 C 366.026 3.3378 -3.46619 0
M  V30 4003 C 368.378 3.31976 -4.01797 0
M  V30 4004 C 365.706 3.34431 -4.82051 0
M  V30 4005 C 368.058 3.34167 -5.37136 0
M  V30 4006 C 366.722 3.34866 -5.77426 0
M  V30 4007 H 365.992 0.650549 -0.354777 0
M  V30 4008 H 368.639 1.23006 -1.46772 0
M  V30 4009 H 366.944 3.79203 -0.985515 0
M  V30 4010 H 368.641 3.76652 -1.37602 0
M  V30 4011 H 365.231 3.3021 -2.73238 0
M  V30 4012 H 369.415 3.29311 -3.71306 0
M  V30 4013 H 364.671 3.33285 -5.12573 0
M  V30 4014 H 368.845 3.33585 -6.11305 0
M  V30 4015 H 366.472 3.35124 -6.82346 0
M  V30 4016 N 368.047 0.979072 1.23499 0
M  V30 4017 C 369.272 0.664845 1.96455 0
M  V30 4018 C 369.697 -0.761287 1.72006 0
M  V30 4019 O 369.055 -1.51837 0.990713 0
M  V30 4020 C 369.103 0.959479 3.47601 0
M  V30 4021 O 368.207 0.0508168 4.12369 0
M  V30 4022 H 367.548 0.250185 0.615064 0
M  V30 4023 H 370.078 1.31231 1.5697 0
M  V30 4024 H 370.088 0.895642 3.98048 0
M  V30 4025 H 368.763 1.99876 3.64723 0
M  V30 4026 H 367.34 0.16895 3.72517 0
M  V30 4027 N 369.525 -1.3858 0.750561 0
M  V30 4028 C 370.458 -2.28095 0.0693139 0
M  V30 4029 C 371.436 -1.45217 -0.731491 0
M  V30 4030 O 372.62 -1.74587 -0.71076 0
M  V30 4031 C 369.747 -3.26282 -0.90871 0
M  V30 4032 C 368.793 -4.26056 -0.194507 0
M  V30 4033 S 369.626 -5.24026 1.10257 0
M  V30 4034 C 370.782 -6.2577 0.127542 0
M  V30 4035 H 371.015 -2.85526 0.8284 0
M  V30 4036 H 368.548 -1.44536 0.543014 0
M  V30 4037 H 370.506 -3.83367 -1.46766 0
M  V30 4038 H 369.167 -2.6784 -1.64075 0
M  V30 4039 H 368.36 -4.95249 -0.93512 0
M  V30 4040 H 367.962 -3.72852 0.292837 0
M  V30 4041 H 370.254 -6.73796 -0.707516 0
M  V30 4042 H 371.197 -7.03712 0.787044 0
M  V30 4043 H 371.605 -5.63938 -0.251803 0
M  V30 4044 N 371.003 -0.499398 -1.49478 0
M  V30 4045 C 372.243 0.0440751 -2.04352 0
M  V30 4046 C 372.607 1.34423 -1.37093 0
M  V30 4047 O 373.808 1.97184 -1.82679 0
M  V30 4048 C 372.079 0.194918 -3.56868 0
M  V30 4049 S 373.638 0.69287 -4.33295 0
M  V30 4050 H 370.456 0.00253458 -0.710995 0
M  V30 4051 H 373.058 -0.673 -1.83551 0
M  V30 4052 H 371.762 -0.756672 -4.03364 0
M  V30 4053 H 371.293 0.93728 -3.82071 0
M  V30 4054 H 373.308 1.96226 -4.55752 0
M  V30 4055 N 372.481 1.55866 -0.233164 0
M  V30 4056 C 373.728 1.98603 0.395374 0
M  V30 4057 C 374.056 1.12105 1.58942 0
M  V30 4058 O 373.311 0.168656 1.94972 0
M  V30 4059 C 373.61 3.46856 0.861724 0
M  V30 4060 C 373.276 4.50348 -0.223066 0
M  V30 4061 C 371.938 4.78371 -0.521038 0
M  V30 4062 C 374.29 5.12355 -0.956124 0
M  V30 4063 C 371.618 5.6568 -1.55638 0
M  V30 4064 C 373.97 6.00786 -1.98089 0
M  V30 4065 C 372.634 6.27148 -2.28565 0
M  V30 4066 H 371.904 0.726739 0.144677 0
M  V30 4067 H 374.551 1.88491 -0.338114 0
M  V30 4068 H 372.856 3.5423 1.67418 0
M  V30 4069 H 374.553 3.77302 1.35809 0
M  V30 4070 H 371.143 4.28596 0.0193234 0
M  V30 4071 H 375.327 4.90765 -0.739166 0
M  V30 4072 H 370.583 5.84365 -1.798 0
M  V30 4073 H 374.757 6.4788 -2.55391 0
M  V30 4074 H 372.384 6.94597 -3.08932 0
M  V30 4075 N 373.959 -0.0401083 1.57549 0
M  V30 4076 C 375.207 -0.731677 1.8839 0
M  V30 4077 C 375.528 -1.76481 0.829425 0
M  V30 4078 O 374.798 -1.95411 -0.1383 0
M  V30 4079 H 373.378 -0.273225 0.695239 0
M  V30 4080 H 376.04 -0.00867725 1.94898 0
M  V30 4081 H 375.136 -1.22816 2.86919 0
M  V30 4082 N 375.437 -1.54477 -0.31217 0
M  V30 4083 C 376.684 -1.73227 -1.04875 0
M  V30 4084 C 377.012 -0.512042 -1.87639 0
M  V30 4085 O 376.267 0.506131 -1.89042 0
M  V30 4086 C 376.566 -2.967 -1.99258 0
M  V30 4087 C 376.232 -4.30974 -1.32559 0
M  V30 4088 C 374.894 -4.67477 -1.141 0
M  V30 4089 C 377.246 -5.14258 -0.847835 0
M  V30 4090 C 374.574 -5.84852 -0.465326 0
M  V30 4091 C 376.926 -6.32327 -0.185931 0
M  V30 4092 C 375.59 -6.67499 0.0107077 0
M  V30 4093 H 374.86 -0.633881 -0.383765 0
M  V30 4094 H 377.507 -1.88727 -0.324731 0
M  V30 4095 H 375.812 -2.75935 -2.7815 0
M  V30 4096 H 377.509 -3.08401 -2.563 0
M  V30 4097 H 374.099 -4.02262 -1.4793 0
M  V30 4098 H 378.283 -4.86565 -0.978192 0
M  V30 4099 H 373.539 -6.10654 -0.301883 0
M  V30 4100 H 377.713 -6.96135 0.192211 0
M  V30 4101 H 375.34 -7.58306 0.536287 0
M  V30 4102 N 376.915 0.57481 -1.46744 0
M  V30 4103 C 378.161 1.3347 -1.52688 0
M  V30 4104 C 378.494 1.93353 -0.181229 0
M  V30 4105 O 377.769 1.76912 0.808237 0
M  V30 4106 C 378.052 2.45811 -2.63152 0
M  V30 4107 C 377.905 1.90912 -4.07275 0
M  V30 4108 C 379.224 3.47822 -2.69644 0
M  V30 4109 H 376.343 0.483935 -0.555856 0
M  V30 4110 H 378.985 0.644968 -1.78718 0
M  V30 4111 H 377.135 3.04646 -2.41088 0
M  V30 4112 H 378.807 1.36473 -4.4065 0
M  V30 4113 H 377.05 1.21691 -4.16382 0
M  V30 4114 H 377.721 2.72042 -4.80309 0
M  V30 4115 H 380.197 2.9888 -2.895 0
M  V30 4116 H 379.073 4.23876 -3.48742 0
M  V30 4117 H 379.334 4.05555 -1.76005 0
M  V30 4118 N 378.394 1.34581 0.820102 0
M  V30 4119 C 379.643 1.26437 1.57151 0
M  V30 4120 C 379.956 -0.163111 1.94919 0
M  V30 4121 O 381.162 -0.366722 2.69012 0
M  V30 4122 C 379.618 2.21658 2.83541 0
M  V30 4123 C 379.226 3.69679 2.53065 0
M  V30 4124 C 380.97 2.22428 3.61561 0
M  V30 4125 C 378.877 4.56761 3.75664 0
M  V30 4126 H 377.807 0.469707 0.589823 0
M  V30 4127 H 380.458 1.59763 0.902656 0
M  V30 4128 H 378.84 1.81287 3.52067 0
M  V30 4129 H 380.014 4.18605 1.92631 0
M  V30 4130 H 378.329 3.71384 1.88316 0
M  V30 4131 H 380.926 2.8471 4.52597 0
M  V30 4132 H 381.269 1.22434 3.97889 0
M  V30 4133 H 381.802 2.61259 2.99981 0
M  V30 4134 H 378.541 5.57702 3.44454 0
M  V30 4135 H 378.061 4.12568 4.35371 0
M  V30 4136 H 379.74 4.71509 4.43044 0
M  V30 4137 N 379.872 -1.04064 1.18357 0
M  V30 4138 C 381.12 -1.76915 0.977013 0
M  V30 4139 C 381.441 -1.88624 -0.494577 0
M  V30 4140 O 380.711 -1.41125 -1.3587 0
M  V30 4141 H 379.291 -0.65535 0.358504 0
M  V30 4142 H 381.953 -1.25592 1.49039 0
M  V30 4143 H 381.049 -2.78178 1.41504 0
M  V30 4144 N 381.35 -0.985608 -1.22978 0
M  V30 4145 C 382.298 -0.522631 -2.26652 0
M  V30 4146 C 383.292 0.422998 -1.64034 0
M  V30 4147 O 384.498 0.296319 -1.77544 0
M  V30 4148 H 380.873 -0.150597 -0.736766 0
M  V30 4149 H 382.844 -1.40863 -2.63059 0
M  V30 4150 C 381.593 0.154238 -3.47358 0
M  V30 4151 H 380.916 -0.564329 -3.95797 0
M  V30 4152 H 382.356 0.441744 -4.21693 0
M  V30 4153 C 380.815 1.38719 -3.07016 0
M  V30 4154 O 381.345 2.48307 -3.15764 0
M  V30 4155 N 379.551 1.25975 -2.61875 0
M  V30 4156 H 379.098 0.368068 -2.54957 0
M  V30 4157 H 379.056 2.08578 -2.3525 0
M  V30 4158 N 382.828 1.3818 -0.7579 0
M  V30 4159 C 383.761 2.28055 -0.0814093 0
M  V30 4160 C 384.739 1.45603 0.723779 0
M  V30 4161 O 385.923 1.74961 0.701491 0
M  V30 4162 C 383.05 3.2676 0.891394 0
M  V30 4163 C 382.096 4.26153 0.171909 0
M  V30 4164 S 382.929 5.23434 -1.13035 0
M  V30 4165 C 384.085 6.25694 -0.160727 0
M  V30 4166 H 384.318 2.85082 -0.84353 0
M  V30 4167 H 381.851 1.44246 -0.550671 0
M  V30 4168 H 383.809 3.8414 1.44731 0
M  V30 4169 H 382.47 2.68706 1.62652 0
M  V30 4170 H 381.663 4.95738 0.908843 0
M  V30 4171 H 381.265 3.72691 -0.312606 0
M  V30 4172 H 383.557 6.74161 0.671773 0
M  V30 4173 H 384.5 7.03285 -0.824353 0
M  V30 4174 H 384.908 5.64064 0.221892 0
M  V30 4175 N 384.306 0.507319 1.49211 0
M  V30 4176 C 385.253 -0.267728 2.29242 0
M  V30 4177 C 386.223 -0.954609 1.35928 0
M  V30 4178 O 387.408 -0.960046 1.64887 0
M  V30 4179 C 384.548 -1.32243 3.18756 0
M  V30 4180 C 383.661 -0.64669 4.27132 0
M  V30 4181 C 382.796 -1.68238 5.03855 0
M  V30 4182 C 381.835 -0.98885 6.0406 0
M  V30 4183 N 380.972 -1.96903 6.73924 0
M  V30 4184 H 385.812 0.420968 2.95012 0
M  V30 4185 H 383.349 0.219443 1.45454 0
M  V30 4186 H 385.307 -1.94599 3.69036 0
M  V30 4187 H 383.937 -1.97981 2.54958 0
M  V30 4188 H 382.989 0.0902926 3.80293 0
M  V30 4189 H 384.301 -0.101058 4.98698 0
M  V30 4190 H 383.455 -2.38081 5.58034 0
M  V30 4191 H 382.194 -2.26187 4.32077 0
M  V30 4192 H 381.199 -0.276222 5.49106 0
M  V30 4193 H 382.424 -0.415767 6.77826 0
M  V30 4194 H 380.37 -2.53803 6.04913 0
M  V30 4195 H 380.287 -1.47423 7.41487 0
M  V30 4196 H 381.555 -2.66015 7.32705 0
M  V30 4197 N 385.784 -1.5574 0.241426 0
M  V30 4198 C 386.694 -2.2479 -0.671305 0
M  V30 4199 C 387.71 -1.26217 -1.19772 0
M  V30 4200 O 388.886 -1.59079 -1.23514 0
M  V30 4201 C 385.951 -2.92966 -1.85396 0
M  V30 4202 C 385.012 -4.06935 -1.36756 0
M  V30 4203 C 384.245 -4.71851 -2.49384 0
M  V30 4204 O 384.468 -4.35823 -3.67987 0
M  V30 4205 O 383.402 -5.60467 -2.19454 0
M  V30 4206 H 387.228 -3.0349 -0.112966 0
M  V30 4207 H 384.813 -1.49397 0.0101513 0
M  V30 4208 H 386.695 -3.35927 -2.54423 0
M  V30 4209 H 385.37 -2.17211 -2.40002 0
M  V30 4210 H 384.277 -3.68503 -0.644726 0
M  V30 4211 H 385.61 -4.84492 -0.867647 0
M  V30 4212 N 387.262 0.0317525 -1.57568 0
M  V30 4213 C 388.194 1.06073 -2.03178 0
M  V30 4214 C 389.207 1.32627 -0.944132 0
M  V30 4215 O 390.396 1.30162 -1.22148 0
M  V30 4216 C 387.496 2.40297 -2.38978 0
M  V30 4217 C 386.669 2.33137 -3.70089 0
M  V30 4218 C 385.728 3.49787 -3.9311 0
M  V30 4219 O 384.754 3.29403 -4.64201 0
M  V30 4220 N 385.956 4.71562 -3.38541 0
M  V30 4221 H 388.721 0.672006 -2.92069 0
M  V30 4222 H 386.282 0.219745 -1.60402 0
M  V30 4223 H 388.274 3.1705 -2.51518 0
M  V30 4224 H 386.844 2.71024 -1.55771 0
M  V30 4225 H 386.064 1.415 -3.67928 0
M  V30 4226 H 387.352 2.25493 -4.56104 0
M  V30 4227 H 386.75 4.91024 -2.80912 0
M  V30 4228 H 385.307 5.45689 -3.56464 0
M  V30 4229 N 388.74 1.54641 0.303973 0
M  V30 4230 C 389.988 1.73437 1.0375 0
M  V30 4231 C 390.309 0.521449 1.87899 0
M  V30 4232 O 389.579 -0.46432 1.90318 0
M  V30 4233 H 388.159 0.639518 0.386039 0
M  V30 4234 H 390.821 1.91988 0.335675 0
M  V30 4235 H 389.917 2.62235 1.69231 0
M  V30 4236 N 390.218 -0.567019 1.47046 0
M  V30 4237 C 391.15 -1.68985 1.54844 0
M  V30 4238 C 392.163 -1.56869 0.435431 0
M  V30 4239 O 393.352 -1.64006 0.70457 0
M  V30 4240 C 390.452 -3.07373 1.42742 0
M  V30 4241 C 389.625 -3.45339 2.6844 0
M  V30 4242 C 388.684 -4.62849 2.50314 0
M  V30 4243 O 387.71 -4.67922 3.24095 0
M  V30 4244 N 388.912 -5.58726 1.57499 0
M  V30 4245 H 391.677 -1.62745 2.51663 0
M  V30 4246 H 389.238 -0.753411 1.43302 0
M  V30 4247 H 391.23 -3.83803 1.28365 0
M  V30 4248 H 389.8 -3.07893 0.540445 0
M  V30 4249 H 389.02 -2.58455 2.97648 0
M  V30 4250 H 390.308 -3.67476 3.51907 0
M  V30 4251 H 389.706 -5.57376 0.966876 0
M  V30 4252 H 388.263 -6.34523 1.49078 0
M  V30 4253 N 391.696 -1.35014 -0.812953 0
M  V30 4254 C 392.659 -1.27292 -1.90602 0
M  V30 4255 C 393.659 -0.185817 -1.59723 0
M  V30 4256 O 394.849 -0.439102 -1.68575 0
M  V30 4257 C 391.981 -0.967676 -3.26877 0
M  V30 4258 H 393.174 -2.24479 -1.9887 0
M  V30 4259 H 390.727 -1.19446 -1.00808 0
M  V30 4260 H 391.462 0.0005954 -3.243 0
M  V30 4261 H 391.247 -1.75412 -3.50675 0
M  V30 4262 H 392.737 -0.939085 -4.06904 0
M  V30 4263 N 393.175 1.03435 -1.18907 0
M  V30 4264 C 394.105 2.13503 -0.945448 0
M  V30 4265 C 395.086 1.69682 0.119189 0
M  V30 4266 O 396.271 1.94169 -0.034707 0
M  V30 4267 C 393.401 3.44004 -0.477316 0
M  V30 4268 C 392.355 4.0148 -1.48316 0
M  V30 4269 C 391.681 5.27537 -0.872311 0
M  V30 4270 C 392.981 4.36921 -2.86177 0
M  V30 4271 H 394.675 2.34141 -1.86597 0
M  V30 4272 H 392.221 1.12523 -0.898584 0
M  V30 4273 H 394.174 4.20372 -0.294204 0
M  V30 4274 H 392.898 3.23072 0.478786 0
M  V30 4275 H 391.557 3.27201 -1.65332 0
M  V30 4276 H 391.205 5.02917 0.0911752 0
M  V30 4277 H 390.905 5.66954 -1.54393 0
M  V30 4278 H 392.429 6.06576 -0.699871 0
M  V30 4279 H 393.843 5.04248 -2.72776 0
M  V30 4280 H 392.24 4.87405 -3.50081 0
M  V30 4281 H 393.31 3.46466 -3.39248 0
M  V30 4282 N 394.653 0.992116 1.22453 0
M  V30 4283 C 396.069 0.702713 1.43297 0
M  V30 4284 C 396.269 -0.726909 1.87932 0
M  V30 4285 O 395.325 -1.49792 2.0327 0
M  V30 4286 C 396.638 1.70762 2.47509 0
M  V30 4287 C 398.186 1.72298 2.61309 0
M  V30 4288 C 398.661 2.71649 3.68742 0
M  V30 4289 N 400.152 2.70239 3.76199 0
M  V30 4290 C 400.887 3.43778 4.58917 0
M  V30 4291 N 400.383 4.26914 5.45633 0
M  V30 4292 N 402.176 3.32487 4.5322 0
M  V30 4293 H 394.327 1.91543 0.917871 0
M  V30 4294 H 396.59 0.826031 0.465162 0
M  V30 4295 H 396.296 2.73059 2.21657 0
M  V30 4296 H 396.17 1.49985 3.46099 0
M  V30 4297 H 398.557 0.706989 2.86506 0
M  V30 4298 H 398.638 1.97143 1.62997 0
M  V30 4299 H 398.282 3.73397 3.44292 0
M  V30 4300 H 398.212 2.44074 4.66622 0
M  V30 4301 H 400.703 2.09912 3.14237 0
M  V30 4302 H 401.016 4.79855 6.05771 0
M  V30 4303 H 399.361 4.31002 5.45218 0
M  V30 4304 H 402.552 2.6698 3.84499 0
M  V30 4305 H 402.725 3.90058 5.17454 0
M  V30 4306 N 396.131 -1.37776 0.765217 0
M  V30 4307 C 397.041 -2.34135 0.147666 0
M  V30 4308 C 398.057 -1.59854 -0.687215 0
M  V30 4309 O 399.233 -1.91983 -0.608659 0
M  V30 4310 C 396.298 -3.3901 -0.72617 0
M  V30 4311 C 395.359 -4.2912 0.124417 0
M  V30 4312 C 394.592 -5.28986 -0.707807 0
M  V30 4313 O 394.815 -5.36205 -1.94525 0
M  V30 4314 O 393.749 -6.01779 -0.12046 0
M  V30 4315 H 397.575 -2.88664 0.943758 0
M  V30 4316 H 395.16 -1.39824 0.526277 0
M  V30 4317 H 397.042 -4.03195 -1.22524 0
M  V30 4318 H 395.717 -2.86819 -1.50056 0
M  V30 4319 H 394.624 -3.68057 0.669696 0
M  V30 4320 H 395.957 -4.84598 0.861736 0
M  V30 4321 N 397.609 -0.515225 -1.4894 0
M  V30 4322 C 398.856 0.024215 -2.02486 0
M  V30 4323 C 399.184 1.35671 -1.39368 0
M  V30 4324 O 398.439 1.88566 -0.523574 0
M  V30 4325 C 398.738 0.210595 -3.56779 0
M  V30 4326 C 398.404 -1.04569 -4.38607 0
M  V30 4327 C 397.066 -1.39002 -4.60686 0
M  V30 4328 C 399.418 -1.88008 -4.86109 0
M  V30 4329 C 396.746 -2.568 -5.27514 0
M  V30 4330 C 399.098 -3.04972 -5.54234 0
M  V30 4331 C 397.762 -3.39768 -5.74555 0
M  V30 4332 H 397.032 0.00886088 -0.740947 0
M  V30 4333 H 399.679 -0.678263 -1.79086 0
M  V30 4334 H 397.984 0.99572 -3.78936 0
M  V30 4335 H 399.681 0.642659 -3.95817 0
M  V30 4336 H 396.271 -0.767497 -4.21672 0
M  V30 4337 H 400.455 -1.62719 -4.68867 0
M  V30 4338 H 395.711 -2.8398 -5.41447 0
M  V30 4339 H 399.885 -3.69943 -5.90013 0
M  V30 4340 H 397.512 -4.31148 -6.26112 0
M  V30 4341 N 399.087 1.5561 -0.249682 0
M  V30 4342 C 400.334 1.99011 0.374287 0
M  V30 4343 C 400.662 1.13785 1.57744 0
M  V30 4344 O 399.917 0.189326 1.94782 0
M  V30 4345 C 400.216 3.4775 0.824887 0
M  V30 4346 C 399.882 4.50086 -0.270819 0
M  V30 4347 C 398.544 4.77791 -0.571746 0
M  V30 4348 C 400.896 5.11312 -1.01041 0
M  V30 4349 C 398.224 5.63997 -1.61629 0
M  V30 4350 C 400.576 5.98651 -2.0445 0
M  V30 4351 C 399.24 6.24688 -2.35204 0
M  V30 4352 H 398.51 0.728233 0.136961 0
M  V30 4353 H 401.157 1.88122 -0.358087 0
M  V30 4354 H 399.462 3.55985 1.63651 0
M  V30 4355 H 401.159 3.78721 1.31799 0
M  V30 4356 H 397.749 4.28592 -0.026136 0
M  V30 4357 H 401.933 4.89953 -0.791177 0
M  V30 4358 H 397.189 5.82425 -1.85988 0
M  V30 4359 H 401.363 6.45135 -2.62248 0
M  V30 4360 H 398.99 6.91281 -3.16282 0
M  V30 4361 N 400.565 -0.0233959 1.57583 0
M  V30 4362 C 401.842 -0.748794 1.807 0
M  V30 4363 C 402.222 -1.9327 0.849106 0
M  V30 4364 O 401.57 -2.28247 -0.107468 0
M  V30 4365 C 401.78 -1.17651 3.28571 0
M  V30 4366 C 403.128 -1.59008 3.93702 0
M  V30 4367 O 404.152 -1.27094 3.32755 0
M  V30 4368 O 403.011 -2.18264 5.01022 0
M  V30 4369 H 400.105 -0.362578 0.743281 0
M  V30 4370 H 402.651 0.000261958 1.697 0
M  V30 4371 H 401.423 -0.331603 3.89892 0
M  V30 4372 H 401.046 -1.98541 3.44481 0
M  V30 4373 N 402.043 -1.548 -0.295768 0
M  V30 4374 C 403.268 -1.78653 -1.05346 0
M  V30 4375 C 403.693 -0.546894 -1.79974 0
M  V30 4376 O 403.051 0.502763 -1.7419 0
M  V30 4377 C 403.099 -2.99679 -2.00561 0
M  V30 4378 O 402.203 -2.7317 -3.08953 0
M  V30 4379 H 401.544 -0.59116 -0.302367 0
M  V30 4380 H 404.074 -2.01895 -0.331598 0
M  V30 4381 H 404.084 -3.27793 -2.42932 0
M  V30 4382 H 402.759 -3.89562 -1.4565 0
M  V30 4383 H 401.336 -2.56089 -2.71059 0
M  V30 4384 N 403.521 0.559213 -1.47345 0
M  V30 4385 C 404.451 1.67622 -1.62558 0
M  V30 4386 C 405.432 1.63331 -0.475087 0
M  V30 4387 O 406.617 1.80983 -0.704182 0
M  V30 4388 C 403.747 3.0626 -1.63774 0
M  V30 4389 C 402.701 3.25397 -2.7803 0
M  V30 4390 C 402.027 4.64801 -2.64318 0
M  V30 4391 C 403.327 3.10965 -4.19641 0
M  V30 4392 H 405.021 1.55146 -2.56067 0
M  V30 4393 H 402.567 0.744961 -1.23233 0
M  V30 4394 H 404.52 3.84247 -1.73008 0
M  V30 4395 H 403.244 3.1969 -0.66825 0
M  V30 4396 H 401.903 2.49817 -2.68304 0
M  V30 4397 H 401.551 4.75028 -1.65401 0
M  V30 4398 H 401.251 4.78555 -3.40968 0
M  V30 4399 H 402.775 5.44926 -2.75478 0
M  V30 4400 H 404.189 3.78772 -4.30354 0
M  V30 4401 H 402.586 3.36229 -4.97062 0
M  V30 4402 H 403.656 2.07736 -4.38148 0
M  V30 4403 N 404.999 1.35443 0.805782 0
M  V30 4404 C 405.947 1.28465 1.93906 0
M  V30 4405 C 406.941 0.17943 1.68447 0
M  V30 4406 O 408.147 0.345459 1.76654 0
M  V30 4407 H 404.522 0.399528 0.637088 0
M  V30 4408 H 406.493 2.24206 1.96912 0
M  V30 4409 C 405.242 1.07432 3.30687 0
M  V30 4410 H 404.565 1.91716 3.50835 0
M  V30 4411 H 406.005 1.06591 4.10383 0
M  V30 4412 C 404.464 -0.22179 3.36169 0
M  V30 4413 O 404.994 -1.21731 3.82811 0
M  V30 4414 N 403.2 -0.260841 2.89427 0
M  V30 4415 H 402.747 0.549884 2.51663 0
M  V30 4416 H 402.705 -1.12777 2.93477 0
M  V30 4417 N 406.477 -1.02803 1.19454 0
M  V30 4418 C 407.387 -2.14575 0.948408 0
M  V30 4419 C 408.403 -1.73757 -0.091871 0
M  V30 4420 O 409.579 -2.01185 0.0929654 0
M  V30 4421 C 406.644 -3.43202 0.491265 0
M  V30 4422 C 405.705 -3.98328 1.60103 0
M  V30 4423 C 404.938 -5.20816 1.16561 0
M  V30 4424 O 405.161 -5.70392 0.0295238 0
M  V30 4425 O 404.095 -5.68801 1.96849 0
M  V30 4426 H 407.921 -2.38202 1.88397 0
M  V30 4427 H 405.506 -1.12989 0.977433 0
M  V30 4428 H 407.388 -4.20687 0.245015 0
M  V30 4429 H 406.063 -3.21018 -0.415851 0
M  V30 4430 H 404.97 -3.22174 1.90144 0
M  V30 4431 H 406.303 -4.24879 2.48473 0
M  V30 4432 N 407.956 -0.998596 -1.21925 0
M  V30 4433 C 408.919 -0.558679 -2.22287 0
M  V30 4434 C 409.919 0.361525 -1.56683 0
M  V30 4435 O 411.109 0.152695 -1.73529 0
M  V30 4436 C 408.241 0.18661 -3.40389 0
M  V30 4437 H 409.434 -1.4463 -2.62721 0
M  V30 4438 H 406.987 -0.786413 -1.35075 0
M  V30 4439 H 407.722 1.08996 -3.05435 0
M  V30 4440 H 407.507 -0.474188 -3.89222 0
M  V30 4441 H 408.997 0.482367 -4.14805 0
M  V30 4442 N 409.434 1.37368 -0.772513 0
M  V30 4443 C 410.683 1.98918 -0.333861 0
M  V30 4444 C 410.996 1.62017 1.09589 0
M  V30 4445 O 412.202 2.16676 1.63596 0
M  V30 4446 C 410.658 3.55735 -0.545971 0
M  V30 4447 C 410.266 4.01573 -1.98603 0
M  V30 4448 C 412.01 4.24156 -0.170979 0
M  V30 4449 C 409.917 5.51102 -2.1457 0
M  V30 4450 H 408.847 0.744214 -0.121085 0
M  V30 4451 H 411.498 1.56888 -0.95175 0
M  V30 4452 H 409.88 3.95748 0.141387 0
M  V30 4453 H 411.054 3.72803 -2.7084 0
M  V30 4454 H 409.369 3.45937 -2.31769 0
M  V30 4455 H 411.966 5.34024 -0.26878 0
M  V30 4456 H 412.309 4.06917 0.878855 0
M  V30 4457 H 412.842 3.89447 -0.810914 0
M  V30 4458 H 409.581 5.73268 -3.17875 0
M  V30 4459 H 409.101 5.81554 -1.46817 0
M  V30 4460 H 410.78 6.17083 -1.94468 0
M  V30 4461 N 410.912 0.523116 1.48665 0
M  V30 4462 C 411.845 -0.290518 2.26343 0
M  V30 4463 C 412.823 -0.950913 1.31895 0
M  V30 4464 O 414.007 -0.976662 1.61225 0
M  V30 4465 C 411.134 -1.41088 3.07915 0
M  V30 4466 C 410.18 -0.862597 4.17686 0
M  V30 4467 S 411.013 0.264135 5.34848 0
M  V30 4468 C 412.169 -0.858864 6.19979 0
M  V30 4469 H 412.402 0.368726 2.95005 0
M  V30 4470 H 409.935 0.30878 1.51281 0
M  V30 4471 H 411.893 -2.0527 3.55492 0
M  V30 4472 H 410.554 -2.04182 2.38681 0
M  V30 4473 H 409.747 -1.70287 4.74361 0
M  V30 4474 H 409.349 -0.297595 3.72814 0
M  V30 4475 H 411.641 -1.7591 6.54264 0
M  V30 4476 H 412.584 -0.330244 7.07329 0
M  V30 4477 H 412.992 -1.13617 5.52948 0
M  V30 4478 N 412.39 -1.55475 0.257931 0
M  V30 4479 C 413.806 -1.59307 -0.0966563 0
M  V30 4480 C 414.006 -1.27514 -1.5602 0
M  V30 4481 O 413.062 -1.02774 -2.30637 0
M  V30 4482 C 414.375 -2.99552 0.262481 0
M  V30 4483 C 415.923 -3.1231 0.207683 0
M  V30 4484 C 416.398 -4.54793 0.541012 0
M  V30 4485 N 417.889 -4.6058 0.491921 0
M  V30 4486 C 418.624 -5.68825 0.722857 0
M  V30 4487 N 418.12 -6.85287 1.0175 0
M  V30 4488 N 419.913 -5.58296 0.652815 0
M  V30 4489 H 412.064 -1.74409 1.21224 0
M  V30 4490 H 414.327 -0.812424 0.48854 0
M  V30 4491 H 414.033 -3.27593 1.27967 0
M  V30 4492 H 413.907 -3.75019 -0.40508 0
M  V30 4493 H 416.294 -2.84044 -0.800195 0
M  V30 4494 H 416.375 -2.39095 0.909255 0
M  V30 4495 H 416.019 -4.83783 1.5465 0
M  V30 4496 H 415.949 -5.26285 -0.18216 0
M  V30 4497 H 418.44 -3.7691 0.273366 0
M  V30 4498 H 418.753 -7.63725 1.18084 0
M  V30 4499 H 417.098 -6.86945 1.05509 0
M  V30 4500 H 420.289 -4.66189 0.422592 0
M  V30 4501 H 420.462 -6.42582 0.836182 0
M  V30 4502 N 413.868 0.0150385 -1.57593 0
M  V30 4503 C 414.798 1.01047 -2.10503 0
M  V30 4504 C 415.779 1.36816 -1.01071 0
M  V30 4505 O 416.964 1.45455 -1.28672 0
M  V30 4506 C 414.094 2.30708 -2.59598 0
M  V30 4507 C 413.048 2.09142 -3.73421 0
M  V30 4508 C 412.374 3.44685 -4.08774 0
M  V30 4509 C 413.674 1.46619 -5.01298 0
M  V30 4510 H 415.368 0.569978 -2.93925 0
M  V30 4511 H 412.914 0.272724 -1.41394 0
M  V30 4512 H 414.867 3.00687 -2.95238 0
M  V30 4513 H 413.591 2.76843 -1.73279 0
M  V30 4514 H 412.25 1.41592 -3.38153 0
M  V30 4515 H 411.898 3.88495 -3.195 0
M  V30 4516 H 411.598 3.31077 -4.8545 0
M  V30 4517 H 413.122 4.16004 -4.4696 0
M  V30 4518 H 414.536 2.06535 -5.34805 0
M  V30 4519 H 412.933 1.43544 -5.82679 0
M  V30 4520 H 414.003 0.433611 -4.82957 0
M  V30 4521 N 415.346 1.54954 0.287554 0
M  V30 4522 C 416.592 1.75132 1.02257 0
M  V30 4523 C 416.925 0.542858 1.86458 0
M  V30 4524 O 416.2 -0.459856 1.88986 0
M  V30 4525 C 416.483 3.04812 1.91733 0
M  V30 4526 C 416.336 4.35985 1.10622 0
M  V30 4527 C 417.655 3.30438 2.90687 0
M  V30 4528 H 414.774 0.637194 0.370341 0
M  V30 4529 H 417.416 1.87678 0.296111 0
M  V30 4530 H 415.566 2.94247 2.53675 0
M  V30 4531 H 417.238 4.58487 0.508636 0
M  V30 4532 H 415.481 4.31865 0.409271 0
M  V30 4533 H 416.152 5.23017 1.76513 0
M  V30 4534 H 418.628 3.40701 2.38877 0
M  V30 4535 H 417.504 4.22467 3.50447 0
M  V30 4536 H 417.765 2.49377 3.65053 0
M  V30 4537 N 416.824 -0.551391 1.4764 0
M  V30 4538 C 417.787 -1.64007 1.60107 0
M  V30 4539 C 418.787 -1.53601 0.47576 0
M  V30 4540 O 419.977 -1.57655 0.740988 0
M  V30 4541 C 417.109 -3.03569 1.55108 0
M  V30 4542 H 418.302 -1.543 2.57161 0
M  V30 4543 H 415.855 -0.771776 1.35917 0
M  V30 4544 H 416.59 -3.18804 0.594519 0
M  V30 4545 H 416.375 -3.12532 2.36783 0
M  V30 4546 H 417.865 -3.82762 1.66982 0
M  V30 4547 N 418.302 -1.35869 -0.798587 0
M  V30 4548 C 419.548 -1.2978 -1.55836 0
M  V30 4549 C 419.881 0.125322 -1.93795 0
M  V30 4550 O 419.156 1.07658 -1.61987 0
M  V30 4551 C 419.439 -2.21188 -2.84162 0
M  V30 4552 C 419.292 -3.72155 -2.52628 0
M  V30 4553 C 420.611 -2.11545 -3.85923 0
M  V30 4554 H 417.73 -0.472769 -0.565383 0
M  V30 4555 H 420.372 -1.66341 -0.918192 0
M  V30 4556 H 418.522 -1.90139 -3.38791 0
M  V30 4557 H 420.194 -4.13682 -2.04121 0
M  V30 4558 H 418.437 -3.92042 -1.85704 0
M  V30 4559 H 419.108 -4.31511 -3.44242 0
M  V30 4560 H 421.584 -2.38855 -3.40716 0
M  V30 4561 H 420.46 -2.77688 -4.73477 0
M  V30 4562 H 420.721 -1.09987 -4.282 0
M  V30 4563 N 419.78 1.02168 -1.19998 0
M  V30 4564 C 421.029 1.75091 -1.0013 0
M  V30 4565 C 421.342 1.89923 0.467835 0
M  V30 4566 O 422.548 2.59888 0.785515 0
M  V30 4567 C 421.004 3.14892 -1.74273 0
M  V30 4568 C 420.612 3.0809 -3.25245 0
M  V30 4569 C 422.356 3.9206 -1.62755 0
M  V30 4570 C 420.263 4.42867 -3.91948 0
M  V30 4571 H 419.193 0.656394 -0.37103 0
M  V30 4572 H 421.844 1.14284 -1.43567 0
M  V30 4573 H 420.226 3.7621 -1.2362 0
M  V30 4574 H 421.4 2.5611 -3.83072 0
M  V30 4575 H 419.715 2.44416 -3.3712 0
M  V30 4576 H 422.312 4.91764 -2.09934 0
M  V30 4577 H 422.655 4.12199 -0.582894 0
M  V30 4578 H 423.188 3.37359 -2.10793 0
M  V30 4579 H 419.927 4.27931 -4.96543 0
M  V30 4580 H 419.447 4.94874 -3.3891 0
M  V30 4581 H 421.126 5.11728 -3.95909 0
M  V30 4582 N 421.258 1.00505 1.21394 0
M  V30 4583 C 422.191 0.51032 2.22421 0
M  V30 4584 C 423.169 -0.436 1.56645 0
M  V30 4585 O 424.353 -0.358709 1.85055 0
M  V30 4586 C 421.48 -0.258733 3.3771 0
M  V30 4587 C 420.526 0.635395 4.2174 0
M  V30 4588 S 421.359 2.09783 4.92698 0
M  V30 4589 C 422.515 1.33862 6.11418 0
M  V30 4590 H 422.748 1.36637 2.64041 0
M  V30 4591 H 420.281 0.812991 1.31262 0
M  V30 4592 H 422.239 -0.696372 4.0455 0
M  V30 4593 H 420.9 -1.0902 2.94573 0
M  V30 4594 H 420.093 0.0430189 5.03982 0
M  V30 4595 H 419.695 1.01031 3.60095 0
M  V30 4596 H 421.987 0.612541 6.74725 0
M  V30 4597 H 422.93 2.13675 6.75092 0
M  V30 4598 H 423.338 0.846568 5.58116 0
M  V30 4599 N 422.737 -1.36956 0.779787 0
M  V30 4600 C 423.983 -2.00237 0.357324 0
M  V30 4601 C 424.338 -1.60787 -1.05666 0
M  V30 4602 O 423.631 -0.847836 -1.71821 0
M  V30 4603 C 423.825 -3.54585 0.447686 0
M  V30 4604 C 423.654 -4.09025 1.86891 0
M  V30 4605 C 422.424 -4.39612 2.49138 0
M  V30 4606 C 424.622 -4.29461 2.82963 0
M  V30 4607 N 422.604 -4.79816 3.82949 0
M  V30 4608 C 423.975 -4.72363 4.01588 0
M  V30 4609 C 426.03 -4.1161 2.80145 0
M  V30 4610 C 424.733 -4.99284 5.17791 0
M  V30 4611 C 426.759 -4.39672 3.95528 0
M  V30 4612 C 426.121 -4.82822 5.12896 0
M  V30 4613 H 422.22 -0.76148 0.177968 0
M  V30 4614 H 424.804 -1.6613 1.01533 0
M  V30 4615 H 422.975 -3.87982 -0.180184 0
M  V30 4616 H 424.707 -4.047 0.0023955 0
M  V30 4617 H 421.462 -4.28975 2.00693 0
M  V30 4618 H 421.886 -5.04216 4.51769 0
M  V30 4619 H 426.528 -3.77415 1.90572 0
M  V30 4620 H 424.246 -5.32365 6.07958 0
M  V30 4621 H 427.832 -4.27441 3.94697 0
M  V30 4622 H 426.712 -5.04118 6.00695 0
M  V30 4623 N 424.215 -0.530993 -1.48385 0
M  V30 4624 C 425.445 -0.00133928 -2.066 0
M  V30 4625 C 425.853 1.28599 -1.38777 0
M  V30 4626 O 425.196 1.77599 -0.469495 0
M  V30 4627 C 425.258 0.292137 -3.58311 0
M  V30 4628 C 424.922 -0.901864 -4.48013 0
M  V30 4629 C 425.919 -1.80053 -4.87726 0
M  V30 4630 C 423.604 -1.10915 -4.89901 0
M  V30 4631 C 425.598 -2.89038 -5.68098 0
M  V30 4632 C 423.285 -2.20213 -5.70043 0
M  V30 4633 C 424.283 -3.09107 -6.0905 0
M  V30 4634 O 423.971 -4.16514 -6.87583 0
M  V30 4635 H 423.703 -0.0308475 -0.675296 0
M  V30 4636 H 426.257 -0.736335 -1.91748 0
M  V30 4637 H 424.487 1.08112 -3.7128 0
M  V30 4638 H 426.176 0.763994 -3.98645 0
M  V30 4639 H 426.942 -1.65234 -4.55986 0
M  V30 4640 H 422.821 -0.426498 -4.59023 0
M  V30 4641 H 426.365 -3.58451 -5.98464 0
M  V30 4642 H 422.262 -2.35016 -6.01197 0
M  V30 4643 H 423.03 -4.14237 -7.05939 0
M  V30 4644 N 425.693 1.55336 -0.266172 0
M  V30 4645 C 426.656 2.20878 0.612001 0
M  V30 4646 C 427.656 1.18388 1.08816 0
M  V30 4647 O 428.846 1.4335 0.989774 0
M  V30 4648 C 425.978 2.86765 1.84332 0
M  V30 4649 H 427.171 2.99873 0.0398718 0
M  V30 4650 H 424.724 1.56291 -0.0167309 0
M  V30 4651 H 425.459 2.11759 2.45619 0
M  V30 4652 H 425.244 3.61862 1.5099 0
M  V30 4653 H 426.734 3.36867 2.46801 0
M  V30 4654 N 427.171 -0.0066808 1.57599 0
M  V30 4655 C 428.582 -0.550379 1.78403 0
M  V30 4656 C 428.933 -1.74339 0.900014 0
M  V30 4657 O 428.058 -2.16166 0.100713 0
M  V30 4658 C 428.653 -1.00523 3.23544 0
M  V30 4659 C 427.212 -1.49428 3.45468 0
M  V30 4660 C 426.359 -0.442444 2.73748 0
M  V30 4661 H 429.31 0.219508 1.57175 0
M  V30 4662 H 429.331 -1.87157 3.31289 0
M  V30 4663 H 428.843 -0.136735 3.87859 0
M  V30 4664 H 426.944 -2.3839 2.86358 0
M  V30 4665 H 427.057 -1.52635 4.54136 0
M  V30 4666 H 425.421 -0.902578 2.38171 0
M  V30 4667 H 426.204 0.416973 3.40758 0
M  V30 4668 N 428.649 -1.55105 -0.279332 0
M  V30 4669 C 429.895 -1.75672 -1.01327 0
M  V30 4670 C 430.228 -0.552739 -1.86168 0
M  V30 4671 O 429.503 0.449827 -1.89227 0
M  V30 4672 C 429.786 -3.05825 -1.90114 0
M  V30 4673 C 429.639 -4.36565 -1.08309 0
M  V30 4674 C 430.958 -3.31975 -2.8893 0
M  V30 4675 H 428.077 -0.639149 -0.366957 0
M  V30 4676 H 430.719 -1.87833 -0.286154 0
M  V30 4677 H 428.869 -2.95588 -2.52111 0
M  V30 4678 H 430.541 -4.58751 -0.484314 0
M  V30 4679 H 428.784 -4.32076 -0.386362 0
M  V30 4680 H 429.455 -5.23946 -1.73737 0
M  V30 4681 H 431.931 -3.41963 -2.37067 0
M  V30 4682 H 430.807 -4.2432 -3.48201 0
M  V30 4683 H 431.068 -2.51309 -3.63725 0
M  V30 4684 N 430.127 0.543554 -1.4793 0
M  V30 4685 C 431.375 1.29752 -1.54948 0
M  V30 4686 C 431.696 1.93764 -0.219242 0
M  V30 4687 O 430.966 1.80639 0.75805 0
M  V30 4688 H 429.546 0.481874 -0.570795 0
M  V30 4689 H 432.208 0.633636 -1.84312 0
M  V30 4690 H 431.304 2.08392 -2.32334 0
M  V30 4691 N 431.605 1.3629 0.791371 0
M  V30 4692 C 432.854 1.29742 1.54434 0
M  V30 4693 C 433.167 -0.121729 1.95221 0
M  V30 4694 O 434.373 -0.309579 2.69729 0
M  V30 4695 C 432.829 2.27623 2.78776 0
M  V30 4696 C 432.437 3.74963 2.45166 0
M  V30 4697 C 434.181 2.30047 3.56761 0
M  V30 4698 C 432.088 4.64626 3.65891 0
M  V30 4699 H 431.018 0.482113 0.579727 0
M  V30 4700 H 433.669 1.61642 0.868565 0
M  V30 4701 H 432.051 1.88714 3.48142 0
M  V30 4702 H 433.225 4.22596 1.83709 0
M  V30 4703 H 431.54 3.75295 1.80396 0
M  V30 4704 H 434.137 2.94247 4.46456 0
M  V30 4705 H 434.48 1.30846 3.95203 0
M  V30 4706 H 435.013 2.67563 2.94372 0
M  V30 4707 H 431.752 5.64883 3.32547 0
M  V30 4708 H 431.272 4.2171 4.26521 0
M  V30 4709 H 432.951 4.80801 4.32943 0
M  V30 4710 N 433.083 -1.0153 1.20538 0
M  V30 4711 C 434.013 -2.11972 0.979295 0
M  V30 4712 C 434.994 -1.6985 -0.0921787 0
M  V30 4713 O 436.179 -1.94089 0.0655932 0
M  V30 4714 C 433.309 -3.43201 0.531984 0
M  V30 4715 C 432.263 -3.9907 1.54685 0
M  V30 4716 C 431.589 -5.26082 0.956127 0
M  V30 4717 C 432.889 -4.32313 2.93092 0
M  V30 4718 H 434.583 -2.31143 1.90298 0
M  V30 4719 H 432.129 -1.11079 0.916372 0
M  V30 4720 H 434.082 -4.1985 0.361044 0
M  V30 4721 H 432.806 -3.23792 -0.427327 0
M  V30 4722 H 431.465 -3.2453 1.70517 0
M  V30 4723 H 431.113 -5.02999 -0.0111538 0
M  V30 4724 H 430.813 -5.64426 1.63393 0
M  V30 4725 H 432.337 -6.05386 0.796284 0
M  V30 4726 H 433.751 -4.99845 2.80763 0
M  V30 4727 H 432.148 -4.81774 3.57791 0
M  V30 4728 H 433.218 -3.41025 3.44717 0
M  V30 4729 N 434.561 -1.01147 -1.20859 0
M  V30 4730 C 435.808 -0.697865 -1.90095 0
M  V30 4731 C 436.136 0.772014 -1.78522 0
M  V30 4732 O 435.391 1.57595 -1.16027 0
M  V30 4733 C 435.69 -1.0727 -3.40922 0
M  V30 4734 C 435.356 -2.53792 -3.72693 0
M  V30 4735 C 434.018 -2.93829 -3.81075 0
M  V30 4736 C 436.37 -3.48674 -3.87397 0
M  V30 4737 C 433.698 -4.27696 -4.01613 0
M  V30 4738 C 436.05 -4.82223 -4.09444 0
M  V30 4739 C 434.714 -5.21973 -4.16054 0
M  V30 4740 H 433.984 -0.255367 -0.695607 0
M  V30 4741 H 436.631 -1.27111 -1.43231 0
M  V30 4742 H 434.936 -0.417799 -3.89566 0
M  V30 4743 H 436.633 -0.807818 -3.92779 0
M  V30 4744 H 433.223 -2.21768 -3.66765 0
M  V30 4745 H 437.407 -3.18904 -3.80281 0
M  V30 4746 H 432.663 -4.58055 -4.04964 0
M  V30 4747 H 436.837 -5.55672 -4.19763 0
M  V30 4748 H 434.464 -6.25717 -4.31721 0
M  V30 4749 N 436.039 1.36541 -0.78704 0
M  V30 4750 C 436.969 2.32659 -0.197992 0
M  V30 4751 C 437.95 1.56533 0.665697 0
M  V30 4752 O 439.135 1.84698 0.60001 0
M  V30 4753 C 436.265 3.40778 0.669901 0
M  V30 4754 C 435.219 4.27897 -0.0937039 0
M  V30 4755 C 434.545 5.27163 0.894629 0
M  V30 4756 C 435.845 5.06334 -1.28154 0
M  V30 4757 H 437.539 2.82171 -1.00099 0
M  V30 4758 H 435.085 1.35665 -0.482793 0
M  V30 4759 H 437.038 4.07008 1.09191 0
M  V30 4760 H 435.762 2.89827 1.50558 0
M  V30 4761 H 434.421 3.6322 -0.49666 0
M  V30 4762 H 434.069 4.72486 1.72527 0
M  V30 4763 H 433.769 5.86317 0.388149 0
M  V30 4764 H 435.293 5.96266 1.31525 0
M  V30 4765 H 436.707 5.65617 -0.93541 0
M  V30 4766 H 435.104 5.74888 -1.72115 0
M  V30 4767 H 436.174 4.38114 -2.07807 0
M  V30 4768 N 437.518 0.538854 1.48102 0
M  V30 4769 C 438.767 0.0059532 2.01699 0
M  V30 4770 C 439.08 -1.34476 1.42041 0
M  V30 4771 O 440.286 -1.96653 1.87189 0
M  V30 4772 C 438.742 -0.0397627 3.59878 0
M  V30 4773 C 438.35 1.30659 4.28523 0
M  V30 4774 C 440.094 -0.521024 4.2129 0
M  V30 4775 C 438.001 1.22098 5.78659 0
M  V30 4776 H 436.931 -0.00154456 0.753998 0
M  V30 4777 H 439.582 0.683963 1.70277 0
M  V30 4778 H 437.964 -0.783037 3.88181 0
M  V30 4779 H 439.138 2.06613 4.11883 0
M  V30 4780 H 437.453 1.7243 3.79021 0
M  V30 4781 H 440.05 -0.603184 5.31287 0
M  V30 4782 H 440.393 -1.52885 3.8721 0
M  V30 4783 H 440.926 0.166834 3.9745 0
M  V30 4784 H 437.665 2.20424 6.17328 0
M  V30 4785 H 437.185 0.50295 5.97688 0
M  V30 4786 H 438.864 0.915345 6.40492 0
M  V30 4787 N 438.996 -1.55193 0.274407 0
M  V30 4788 C 439.959 -2.212 -0.600279 0
M  V30 4789 C 440.959 -1.18963 -1.08187 0
M  V30 4790 O 442.149 -1.43873 -0.982158 0
M  V30 4791 C 439.281 -2.87739 -1.82809 0
M  V30 4792 H 440.474 -2.9989 -0.0239682 0
M  V30 4793 H 438.027 -1.5628 0.0250192 0
M  V30 4794 H 438.762 -2.13058 -2.44493 0
M  V30 4795 H 438.547 -3.62658 -1.49069 0
M  V30 4796 H 440.037 -3.38171 -2.45011 0
M  V30 4797 N 440.474 -0.00167713 -1.576 0
M  V30 4798 C 441.722 0.681471 -1.90264 0
M  V30 4799 C 442.043 1.7422 -0.875924 0
M  V30 4800 O 441.313 1.95709 0.0864412 0
M  V30 4801 H 439.893 0.254696 -0.702239 0
M  V30 4802 H 442.555 -0.0429996 -1.94853 0
M  V30 4803 H 441.651 1.15166 -2.90075 0
M  V30 4804 N 441.952 1.55251 0.271103 0
M  V30 4805 C 442.899 1.88261 1.33516 0
M  V30 4806 C 443.869 0.734296 1.48988 0
M  V30 4807 O 445.054 0.985741 1.63364 0
M  V30 4808 C 442.194 2.16168 2.69008 0
M  V30 4809 C 441.307 3.43678 2.61743 0
M  V30 4810 C 440.442 3.61276 3.89427 0
M  V30 4811 C 439.481 4.82472 3.7668 0
M  V30 4812 N 438.618 4.96717 4.96202 0
M  V30 4813 H 443.458 2.79015 1.04665 0
M  V30 4814 H 440.995 1.38137 0.505618 0
M  V30 4815 H 442.953 2.30349 3.47844 0
M  V30 4816 H 441.583 1.28646 2.96057 0
M  V30 4817 H 440.635 3.37959 1.74607 0
M  V30 4818 H 441.947 4.3265 2.48224 0
M  V30 4819 H 441.101 3.75284 4.76704 0
M  V30 4820 H 439.84 2.70492 4.05814 0
M  V30 4821 H 438.845 4.68465 2.87786 0
M  V30 4822 H 440.07 5.74692 3.61809 0
M  V30 4823 H 438.016 4.08865 5.12997 0
M  V30 4824 H 437.933 5.79738 4.85222 0
M  V30 4825 H 439.201 5.15113 5.85046 0
M  V30 4826 N 443.43 -0.535701 1.48216 0
M  V30 4827 C 444.679 -1.28828 1.55197 0
M  V30 4828 C 444.992 -1.94263 0.228278 0
M  V30 4829 O 446.198 -2.70927 0.176278 0
M  V30 4830 C 444.654 -2.33727 2.73678 0
M  V30 4831 C 444.262 -1.74386 4.12666 0
M  V30 4832 C 446.006 -3.1003 2.89968 0
M  V30 4833 C 443.913 -2.77192 5.22416 0
M  V30 4834 H 442.843 -0.484484 0.577747 0
M  V30 4835 H 445.494 -0.56646 1.74538 0
M  V30 4836 H 443.876 -3.08919 2.4776 0
M  V30 4837 H 445.05 -1.05421 4.48579 0
M  V30 4838 H 443.365 -1.10595 4.01445 0
M  V30 4839 H 445.962 -3.86842 3.6913 0
M  V30 4840 H 446.305 -3.65542 1.9921 0
M  V30 4841 H 446.838 -2.41952 3.15759 0
M  V30 4842 H 443.577 -2.26507 6.15122 0
M  V30 4843 H 443.097 -3.44502 4.90998 0
M  V30 4844 H 444.776 -3.40285 5.50286 0
M  V30 4845 N 444.908 -1.36708 -0.784132 0
M  V30 4846 C 446.154 -1.31426 -1.54451 0
M  V30 4847 C 446.487 0.10476 -1.93917 0
M  V30 4848 O 445.762 1.05934 -1.6312 0
M  V30 4849 C 446.045 -2.24189 -2.818 0
M  V30 4850 C 445.898 -3.74813 -2.48667 0
M  V30 4851 C 447.217 -2.15626 -3.83658 0
M  V30 4852 H 444.336 -0.478739 -0.560337 0
M  V30 4853 H 446.978 -1.67305 -0.900498 0
M  V30 4854 H 445.128 -1.93722 -3.36755 0
M  V30 4855 H 446.8 -4.15823 -1.99722 0
M  V30 4856 H 445.043 -3.93989 -1.81535 0
M  V30 4857 H 445.714 -4.35138 -3.39646 0
M  V30 4858 H 448.19 -2.42456 -3.38163 0
M  V30 4859 H 447.066 -2.82694 -4.70506 0
M  V30 4860 H 447.327 -1.14522 -4.27009 0
M  V30 4861 N 446.386 1.0089 -1.21074 0
M  V30 4862 C 447.296 2.13039 -0.982425 0
M  V30 4863 C 448.312 1.73881 0.0642161 0
M  V30 4864 O 449.488 2.01012 -0.12496 0
M  V30 4865 C 446.553 3.42377 -0.545803 0
M  V30 4866 C 445.614 3.95731 -1.6642 0
M  V30 4867 C 444.847 5.18896 -1.24832 0
M  V30 4868 O 445.07 5.70273 -0.120265 0
M  V30 4869 O 444.004 5.65597 -2.05873 0
M  V30 4870 H 447.83 2.35175 -1.92163 0
M  V30 4871 H 445.415 1.1142 -0.995285 0
M  V30 4872 H 447.297 4.20244 -0.311912 0
M  V30 4873 H 445.972 3.21639 0.364727 0
M  V30 4874 H 444.879 3.19108 -1.95246 0
M  V30 4875 H 446.212 4.20872 -2.55201 0
M  V30 4876 N 447.864 1.01787 1.20321 0
M  V30 4877 C 448.797 0.533882 2.21867 0
M  V30 4878 C 449.775 -0.419361 1.57099 0
M  V30 4879 O 450.959 -0.339062 1.85426 0
M  V30 4880 C 448.086 -0.222899 3.37966 0
M  V30 4881 C 447.132 0.680091 4.21043 0
M  V30 4882 S 447.965 2.14997 4.90445 0
M  V30 4883 C 449.121 1.40339 6.09964 0
M  V30 4884 H 449.354 1.39429 2.62577 0
M  V30 4885 H 446.887 0.826867 1.30393 0
M  V30 4886 H 448.845 -0.653425 4.05266 0
M  V30 4887 H 447.506 -1.0589 2.95713 0
M  V30 4888 H 446.699 0.0964704 5.03908 0
M  V30 4889 H 446.301 1.04845 3.59004 0
M  V30 4890 H 448.593 0.68407 6.74038 0
M  V30 4891 H 449.536 2.20823 6.72787 0
M  V30 4892 H 449.944 0.905716 5.57187 0
M  V30 4893 N 449.342 -1.36122 0.79427 0
M  V30 4894 C 450.252 -2.33769 0.197296 0
M  V30 4895 C 451.268 -1.61276 -0.653153 0
M  V30 4896 O 452.444 -1.9323 -0.5678 0
M  V30 4897 C 449.509 -3.40474 -0.654098 0
M  V30 4898 C 448.57 -4.28759 0.215411 0
M  V30 4899 C 447.803 -5.30368 -0.595443 0
M  V30 4900 O 448.026 -5.40211 -1.83107 0
M  V30 4901 O 446.96 -6.019 0.00721351 0
M  V30 4902 H 450.786 -2.86597 1.00478 0
M  V30 4903 H 448.371 -1.38676 0.555818 0
M  V30 4904 H 450.253 -4.05703 -1.13944 0
M  V30 4905 H 448.928 -2.89937 -1.43938 0
M  V30 4906 H 447.835 -3.66554 0.747615 0
M  V30 4907 H 449.168 -4.82661 0.964332 0
M  V30 4908 N 450.82 -0.546701 -1.47814 0
M  V30 4909 C 452.097 0.0464413 -1.95545 0
M  V30 4910 C 452.477 1.4962 -1.48919 0
M  V30 4911 O 451.825 2.16752 -0.723232 0
M  V30 4912 C 452.035 -0.0881298 -3.48889 0
M  V30 4913 C 453.383 0.0626059 -4.24554 0
M  V30 4914 O 454.407 -0.0151555 -3.56197 0
M  V30 4915 O 453.266 0.228071 -5.46024 0
M  V30 4916 H 450.36 0.0700004 -0.824032 0
M  V30 4917 H 452.906 -0.612482 -1.58262 0
M  V30 4918 H 451.678 -1.09737 -3.75597 0
M  V30 4919 H 451.301 0.608886 -3.9291 0
M  V30 4920 N 452.299 1.55045 -0.282633 0
M  V30 4921 C 453.232 2.18951 0.64311 0
M  V30 4922 C 454.21 1.15287 1.14664 0
M  V30 4923 O 455.394 1.43846 1.21822 0
M  V30 4924 C 452.521 2.81874 1.87789 0
M  V30 4925 C 451.567 3.98906 1.50919 0
M  V30 4926 S 452.4 5.3234 0.580884 0
M  V30 4927 C 453.556 5.98737 1.82387 0
M  V30 4928 H 453.789 2.97131 0.100138 0
M  V30 4929 H 451.322 1.54255 -0.0668514 0
M  V30 4930 H 453.28 3.18757 2.58658 0
M  V30 4931 H 451.941 2.03573 2.392 0
M  V30 4932 H 451.134 4.4165 2.42819 0
M  V30 4933 H 450.736 3.63485 0.88061 0
M  V30 4934 H 453.028 6.18427 2.76684 0
M  V30 4935 H 453.971 6.93318 1.4393 0
M  V30 4936 H 454.379 5.28177 1.99223 0
M  V30 4937 N 453.777 0.010035 1.57597 0
M  V30 4938 C 455.025 -0.671371 1.90623 0
M  V30 4939 C 455.346 -1.73753 0.885151 0
M  V30 4940 O 454.616 -1.95752 -0.0760611 0
M  V30 4941 H 453.196 -0.250968 0.703579 0
M  V30 4942 H 455.858 0.0533325 1.94827 0
M  V30 4943 H 454.954 -1.13626 2.90681 0
M  V30 4944 N 455.255 -1.55392 -0.262866 0
M  V30 4945 C 456.501 -1.76737 -0.99458 0
M  V30 4946 C 456.834 -0.572453 -1.85571 0
M  V30 4947 O 456.109 0.429732 -1.89693 0
M  V30 4948 C 456.392 -3.07824 -1.8686 0
M  V30 4949 C 456.245 -4.3769 -1.03672 0
M  V30 4950 C 457.564 -3.35021 -2.85393 0
M  V30 4951 H 454.683 -0.643005 -0.360157 0
M  V30 4952 H 457.325 -1.88126 -0.266216 0
M  V30 4953 H 455.475 -2.98245 -2.48962 0
M  V30 4954 H 457.147 -4.59238 -0.43563 0
M  V30 4955 H 455.39 -4.32461 -0.340513 0
M  V30 4956 H 456.061 -5.25759 -1.6817 0
M  V30 4957 H 458.537 -3.44458 -2.33426 0
M  V30 4958 H 457.413 -4.27989 -3.43681 0
M  V30 4959 H 457.674 -2.55153 -3.61039 0
M  V30 4960 N 456.733 0.527833 -1.48498 0
M  V30 4961 C 457.982 1.28003 -1.55878 0
M  V30 4962 C 458.295 1.9414 -0.238577 0
M  V30 4963 O 459.501 2.7083 -0.190643 0
M  V30 4964 C 457.957 2.32272 -2.74914 0
M  V30 4965 C 457.565 1.72196 -4.13585 0
M  V30 4966 C 459.309 3.08488 -2.91608 0
M  V30 4967 C 457.216 2.74417 -5.23879 0
M  V30 4968 H 456.146 0.481413 -0.580308 0
M  V30 4969 H 458.797 0.557195 -1.74836 0
M  V30 4970 H 457.179 3.07601 -2.49395 0
M  V30 4971 H 458.353 1.03041 -4.49132 0
M  V30 4972 H 456.668 1.08464 -4.02025 0
M  V30 4973 H 459.265 3.84879 -3.71177 0
M  V30 4974 H 459.608 3.64481 -2.01145 0
M  V30 4975 H 460.141 2.40274 -3.17038 0
M  V30 4976 H 456.88 2.23242 -6.16314 0
M  V30 4977 H 456.4 3.41893 -4.92818 0
M  V30 4978 H 458.079 3.37362 -5.52083 0
M  V30 4979 N 458.211 1.37122 0.776871 0
M  V30 4980 C 459.459 1.31787 1.53221 0
M  V30 4981 C 459.78 -0.0987589 1.9475 0
M  V30 4982 O 459.05 -1.0417 1.65908 0
M  V30 4983 H 457.63 0.484839 0.568278 0
M  V30 4984 H 460.292 1.71556 0.924917 0
M  V30 4985 H 459.388 1.95355 2.43398 0
M  V30 4986 N 459.689 -1.00246 1.21608 0
M  V30 4987 C 460.937 -1.73717 1.0328 0
M  V30 4988 C 461.258 -1.90102 -0.434318 0
M  V30 4989 O 460.528 -1.45376 -1.31311 0
M  V30 4990 H 459.108 -0.643613 0.379172 0
M  V30 4991 H 461.77 -1.20787 1.52959 0
M  V30 4992 H 460.866 -2.73535 1.50283 0
M  V30 4993 N 461.167 -1.02423 -1.1978 0
M  V30 4994 C 462.099 -0.559152 -2.22275 0
M  V30 4995 C 463.112 0.36251 -1.58713 0
M  V30 4996 O 464.301 0.159641 -1.77785 0
M  V30 4997 C 461.401 0.205094 -3.38279 0
M  V30 4998 C 460.574 -0.720361 -4.31427 0
M  V30 4999 C 459.633 -0.00234368 -5.262 0
M  V30 5000 O 458.659 -0.627378 -5.65732 0
M  V30 5001 N 459.861 1.26996 -5.66438 0
M  V30 5002 H 462.626 -1.44064 -2.62804 0
M  V30 5003 H 460.187 -0.902692 -1.34399 0
M  V30 5004 H 462.179 0.694868 -3.9869 0
M  V30 5005 H 460.749 0.987947 -2.96578 0
M  V30 5006 H 459.969 -1.39031 -3.68869 0
M  V30 5007 H 461.257 -1.3495 -4.90577 0
M  V30 5008 H 460.655 1.79858 -5.36347 0
M  V30 5009 H 459.212 1.70432 -6.29123 0
M  V30 5010 N 462.645 1.35699 -0.801477 0
M  V30 5011 C 463.575 2.32436 -0.222658 0
M  V30 5012 C 464.556 1.5723 0.649057 0
M  V30 5013 O 465.741 1.85324 0.580387 0
M  V30 5014 C 462.871 3.41469 0.633719 0
M  V30 5015 C 461.825 4.27774 -0.139083 0
M  V30 5016 C 461.151 5.28082 0.838666 0
M  V30 5017 C 462.451 5.04946 -1.33517 0
M  V30 5018 H 464.145 2.81094 -1.03086 0
M  V30 5019 H 461.691 1.35146 -0.497155 0
M  V30 5020 H 463.644 4.08143 1.04868 0
M  V30 5021 H 462.368 2.91408 1.47475 0
M  V30 5022 H 461.027 3.62673 -0.535156 0
M  V30 5023 H 460.675 4.7429 1.67506 0
M  V30 5024 H 460.375 5.86695 0.32594 0
M  V30 5025 H 461.899 5.97628 1.25194 0
M  V30 5026 H 463.313 5.64593 -0.995349 0
M  V30 5027 H 461.71 5.7303 -1.78202 0
M  V30 5028 H 462.78 4.35886 -2.12442 0
M  V30 5029 N 464.123 0.554532 1.47522 0
M  V30 5030 C 465.086 -0.184174 2.28459 0
M  V30 5031 C 466.086 -0.845195 1.36796 0
M  V30 5032 O 467.276 -0.701467 1.59452 0
M  V30 5033 C 464.408 -1.26903 3.16399 0
M  V30 5034 H 465.601 0.526751 2.95238 0
M  V30 5035 H 463.154 0.311375 1.53167 0
M  V30 5036 H 463.889 -2.01244 2.54306 0
M  V30 5037 H 463.674 -0.799883 3.83854 0
M  V30 5038 H 465.164 -1.78794 3.77389 0
M  V30 5039 N 465.601 -1.54893 0.290851 0
M  V30 5040 C 466.534 -2.19289 -0.631489 0
M  V30 5041 C 467.512 -1.15893 -1.14051 0
M  V30 5042 O 468.696 -1.4449 -1.21058 0
M  V30 5043 C 465.823 -2.82866 -1.86291 0
M  V30 5044 C 464.869 -3.997 -1.48801 0
M  V30 5045 S 465.702 -5.32641 -0.552644 0
M  V30 5046 C 466.858 -5.99696 -1.79209 0
M  V30 5047 H 467.091 -2.9718 -0.0843791 0
M  V30 5048 H 464.624 -1.54218 0.075031 0
M  V30 5049 H 466.582 -3.20124 -2.56964 0
M  V30 5050 H 465.243 -2.04839 -2.38117 0
M  V30 5051 H 464.436 -4.42932 -2.40473 0
M  V30 5052 H 464.038 -3.63947 -0.861321 0
M  V30 5053 H 466.33 -6.19886 -2.734 0
M  V30 5054 H 467.273 -6.94071 -1.40251 0
M  V30 5055 H 467.681 -5.29226 -1.96419 0
M  V30 5056 N 467.08 -0.0183926 -1.57589 0
M  V30 5057 C 468.31 0.67207 -1.95363 0
M  V30 5058 C 468.718 1.66807 -0.892872 0
M  V30 5059 O 468.061 1.83204 0.134958 0
M  V30 5060 C 468.123 1.44397 -3.29226 0
M  V30 5061 C 467.787 0.607511 -4.52944 0
M  V30 5062 C 468.784 -0.112657 -5.19778 0
M  V30 5063 C 466.469 0.548068 -4.99301 0
M  V30 5064 C 468.463 -0.881057 -6.31281 0
M  V30 5065 C 466.15 -0.224044 -6.10689 0
M  V30 5066 C 467.148 -0.937323 -6.76538 0
M  V30 5067 O 466.836 -1.6968 -7.85789 0
M  V30 5068 H 466.568 0.190925 -0.648478 0
M  V30 5069 H 469.122 -0.0711994 -2.05277 0
M  V30 5070 H 467.352 2.23214 -3.15773 0
M  V30 5071 H 469.041 2.02152 -3.51979 0
M  V30 5072 H 469.807 -0.0759998 -4.8494 0
M  V30 5073 H 465.686 1.09281 -4.4786 0
M  V30 5074 H 469.23 -1.43832 -6.82611 0
M  V30 5075 H 465.127 -0.262457 -6.44966 0
M  V30 5076 H 465.895 -1.61544 -8.024 0
M  V30 5077 N 468.558 1.5553 0.254621 0
M  V30 5078 C 469.786 1.81046 1.00149 0
M  V30 5079 C 470.201 0.593047 1.79244 0
M  V30 5080 O 469.558 -0.438196 1.77161 0
M  V30 5081 C 469.609 3.04684 1.94551 0
M  V30 5082 O 469.33 4.21725 1.18658 0
M  V30 5083 C 470.831 3.42943 2.80901 0
M  V30 5084 H 468.051 0.602653 0.295044 0
M  V30 5085 H 470.595 2.02576 0.279842 0
M  V30 5086 H 468.75 2.85226 2.62154 0
M  V30 5087 H 469.164 4.91746 1.82445 0
M  V30 5088 H 470.638 4.32576 3.42902 0
M  V30 5089 H 471.115 2.63176 3.51617 0
M  V30 5090 H 471.721 3.64724 2.18762 0
M  V30 5091 N 470.036 -0.519951 1.48776 0
M  V30 5092 C 471.282 -1.27711 1.57536 0
M  V30 5093 C 471.615 -1.92547 0.252866 0
M  V30 5094 O 470.89 -1.7979 -0.742021 0
M  V30 5095 C 471.173 -2.35875 2.72094 0
M  V30 5096 C 471.026 -1.75664 4.1408 0
M  V30 5097 C 472.345 -3.37575 2.82367 0
M  V30 5098 H 469.464 -0.462971 0.573434 0
M  V30 5099 H 472.106 -0.578194 1.80989 0
M  V30 5100 H 470.256 -2.95488 2.52228 0
M  V30 5101 H 471.928 -1.20025 4.45412 0
M  V30 5102 H 470.171 -1.06154 4.20611 0
M  V30 5103 H 470.842 -2.54029 4.90075 0
M  V30 5104 H 473.318 -2.87929 3.00393 0
M  V30 5105 H 472.194 -4.1064 3.64233 0
M  V30 5106 H 472.455 -3.98743 1.90936 0
M  V30 5107 N 471.514 -1.37532 -0.769588 0
M  V30 5108 C 472.742 -1.36059 -1.55871 0
M  V30 5109 C 473.157 0.053544 -1.88724 0
M  V30 5110 O 472.514 1.01591 -1.5161 0
M  V30 5111 C 472.565 -2.20107 -2.86767 0
M  V30 5112 O 472.286 -3.56009 -2.55321 0
M  V30 5113 C 473.787 -2.26636 -3.80987 0
M  V30 5114 H 471.007 -0.465967 -0.482821 0
M  V30 5115 H 473.551 -1.80901 -0.953686 0
M  V30 5116 H 471.706 -1.78768 -3.43687 0
M  V30 5117 H 472.12 -4.0009 -3.39158 0
M  V30 5118 H 473.594 -2.89763 -4.69831 0
M  V30 5119 H 474.071 -1.2754 -4.20274 0
M  V30 5120 H 474.677 -2.68296 -3.29996 0
M  V30 5121 N 472.992 0.995999 -1.22138 0
M  V30 5122 C 474.238 1.73767 -1.04561 0
M  V30 5123 C 474.571 1.89633 0.418698 0
M  V30 5124 O 473.846 1.43723 1.3105 0
M  V30 5125 C 474.129 3.14505 -1.75382 0
M  V30 5126 C 473.982 3.06306 -3.29388 0
M  V30 5127 C 475.301 4.13615 -1.50369 0
M  V30 5128 H 472.42 0.630728 -0.38125 0
M  V30 5129 H 475.062 1.16057 -1.50435 0
M  V30 5130 H 473.212 3.63775 -1.36383 0
M  V30 5131 H 474.884 2.64681 -3.77812 0
M  V30 5132 H 473.127 2.43186 -3.59226 0
M  V30 5133 H 473.798 4.05884 -3.74116 0
M  V30 5134 H 476.274 3.73089 -1.84239 0
M  V30 5135 H 475.15 5.10212 -2.02421 0
M  V30 5136 H 475.411 4.39949 -0.435611 0
M  V30 5137 N 474.47 1.03057 1.19235 0
M  V30 5138 C 475.719 0.72326 1.88287 0
M  V30 5139 C 476.032 -0.751333 1.80594 0
M  V30 5140 O 477.238 -1.17176 2.44912 0
M  V30 5141 C 475.694 1.24338 3.3774 0
M  V30 5142 C 475.302 2.74587 3.53986 0
M  V30 5143 C 477.046 1.01213 4.12257 0
M  V30 5144 C 474.953 3.20009 4.97341 0
M  V30 5145 H 473.883 0.266848 0.705201 0
M  V30 5146 H 476.534 1.24509 1.34795 0
M  V30 5147 H 474.916 0.649457 3.90638 0
M  V30 5148 H 476.09 3.39649 3.11408 0
M  V30 5149 H 474.405 2.9601 2.9286 0
M  V30 5150 H 477.002 1.32675 5.17978 0
M  V30 5151 H 477.345 -0.051001 4.16269 0
M  V30 5152 H 477.878 1.57014 3.65501 0
M  V30 5153 H 474.617 4.25659 4.98493 0
M  V30 5154 H 474.137 2.59676 5.40674 0
M  V30 5155 H 475.816 3.13447 5.66003 0
M  V30 5156 N 475.948 -1.35272 0.808662 0
M  V30 5157 C 477.194 -1.99003 0.390581 0
M  V30 5158 C 477.527 -1.63999 -1.0401 0
M  V30 5159 O 476.802 -0.904368 -1.72196 0
M  V30 5160 C 477.085 -3.55454 0.576566 0
M  V30 5161 C 476.938 -4.00249 2.05233 0
M  V30 5162 C 478.257 -4.401 0.00354277 0
M  V30 5163 H 475.376 -0.722917 0.143388 0
M  V30 5164 H 478.018 -1.6039 1.01858 0
M  V30 5165 H 476.168 -3.88477 0.0419766 0
M  V30 5166 H 477.84 -3.77626 2.64946 0
M  V30 5167 H 476.083 -3.51082 2.54801 0
M  V30 5168 H 476.754 -5.0911 2.13333 0
M  V30 5169 H 479.23 -4.13548 0.460117 0
M  V30 5170 H 478.106 -5.48656 0.163575 0
M  V30 5171 H 478.367 -4.28444 -1.09032 0
M  V30 5172 N 477.426 -0.562348 -1.47226 0
M  V30 5173 C 478.674 -0.0401371 -2.0206 0
M  V30 5174 C 478.995 1.3165 -1.43852 0
M  V30 5175 O 478.265 1.85976 -0.615599 0
M  V30 5176 H 476.845 -0.0118479 -0.746906 0
M  V30 5177 H 479.507 -0.73352 -1.8057 0
M  V30 5178 H 478.603 0.0441254 -3.12069 0
M  V30 5179 N 478.904 1.54736 -0.299062 0
M  V30 5180 C 479.834 2.26409 0.571085 0
M  V30 5181 C 480.815 1.2629 1.13951 0
M  V30 5182 O 482 1.55059 1.16921 0
M  V30 5183 C 479.13 3.00338 1.74396 0
M  V30 5184 C 478.084 4.07588 1.30599 0
M  V30 5185 C 477.41 4.69222 2.56387 0
M  V30 5186 C 478.71 5.20455 0.438645 0
M  V30 5187 H 480.404 2.99388 -0.0266991 0
M  V30 5188 H 477.95 1.43993 -0.0142812 0
M  V30 5189 H 479.903 3.49198 2.35878 0
M  V30 5190 H 478.627 2.24934 2.36796 0
M  V30 5191 H 477.286 3.59575 0.71424 0
M  V30 5192 H 476.934 3.9046 3.17097 0
M  V30 5193 H 476.634 5.41653 2.27784 0
M  V30 5194 H 478.158 5.20844 3.18675 0
M  V30 5195 H 479.572 5.65221 0.959085 0
M  V30 5196 H 477.969 5.99594 0.246466 0
M  V30 5197 H 479.039 4.8192 -0.536738 0
M  V30 5198 N 480.382 0.0267497 1.57577 0
M  V30 5199 C 481.312 -0.954308 2.13108 0
M  V30 5200 C 482.293 -1.34088 1.04663 0
M  V30 5201 O 483.478 -1.41992 1.32484 0
M  V30 5202 C 480.608 -2.23744 2.65624 0
M  V30 5203 C 479.562 -1.99168 3.78835 0
M  V30 5204 C 478.888 -3.33726 4.17769 0
M  V30 5205 C 480.188 -1.33277 5.0501 0
M  V30 5206 H 481.882 -0.491848 2.95332 0
M  V30 5207 H 479.428 -0.23514 1.42067 0
M  V30 5208 H 481.381 -2.92754 3.03106 0
M  V30 5209 H 480.105 -2.72151 1.80558 0
M  V30 5210 H 478.764 -1.32577 3.41788 0
M  V30 5211 H 478.412 -3.79888 3.29688 0
M  V30 5212 H 478.112 -3.18089 4.94058 0
M  V30 5213 H 479.636 -4.04008 4.57832 0
M  V30 5214 H 481.05 -1.92283 5.40093 0
M  V30 5215 H 479.447 -1.28045 5.8628 0
M  V30 5216 H 480.517 -0.305411 4.83937 0
M  V30 5217 N 481.861 -1.55662 -0.24637 0
M  V30 5218 C 483.11 -1.7672 -0.972254 0
M  V30 5219 C 483.423 -0.59078 -1.86465 0
M  V30 5220 O 484.629 -0.684391 -2.62732 0
M  V30 5221 C 483.085 -3.12869 -1.7788 0
M  V30 5222 C 482.693 -4.38161 -0.933768 0
M  V30 5223 C 484.437 -3.43265 -2.49738 0
M  V30 5224 C 482.344 -5.6534 -1.73623 0
M  V30 5225 H 481.274 -0.658795 -0.366749 0
M  V30 5226 H 483.925 -1.82092 -0.226902 0
M  V30 5227 H 482.307 -3.01606 -2.56612 0
M  V30 5228 H 483.481 -4.60413 -0.188736 0
M  V30 5229 H 481.796 -4.15102 -0.328488 0
M  V30 5230 H 484.393 -4.35501 -3.10231 0
M  V30 5231 H 484.736 -2.64614 -3.2138 0
M  V30 5232 H 485.269 -3.55746 -1.78016 0
M  V30 5233 H 482.008 -6.46814 -1.06354 0
M  V30 5234 H 481.528 -5.47188 -2.45653 0
M  V30 5235 H 483.207 -6.04616 -2.30323 0
M  V30 5236 N 483.339 0.512053 -1.4905 0
M  V30 5237 C 484.289 1.61142 -1.61298 0
M  V30 5238 C 485.273 1.53908 -0.46916 0
M  V30 5239 O 486.465 1.61625 -0.721547 0
M  V30 5240 C 483.594 2.998 -1.67256 0
M  V30 5241 C 482.68 3.12072 -2.87179 0
M  V30 5242 N 483.071 2.94263 -4.11391 0
M  V30 5243 C 481.369 3.43156 -2.84886 0
M  V30 5244 C 482.07 3.10426 -4.91946 0
M  V30 5245 N 481.046 3.38808 -4.251 0
M  V30 5246 H 484.848 1.46011 -2.55065 0
M  V30 5247 H 482.362 0.717934 -1.45669 0
M  V30 5248 H 484.359 3.78794 -1.74128 0
M  V30 5249 H 483.019 3.1601 -0.746195 0
M  V30 5250 H 484.03 2.70661 -4.41546 0
M  V30 5251 H 480.707 3.65611 -2.01581 0
M  V30 5252 H 482.097 3.01243 -6.00585 0
M  V30 5253 N 484.817 1.37938 0.762283 0
M  V30 5254 C 485.78 1.34279 1.85747 0
M  V30 5255 C 486.78 0.244969 1.58923 0
M  V30 5256 O 487.97 0.501365 1.66829 0
M  V30 5257 C 485.102 1.08833 3.23061 0
M  V30 5258 H 486.295 2.31705 1.90401 0
M  V30 5259 H 483.848 1.23105 0.963057 0
M  V30 5260 H 484.583 0.119767 3.24079 0
M  V30 5261 H 484.368 1.88306 3.43923 0
M  V30 5262 H 485.858 1.08946 4.03138 0
M  V30 5263 N 486.295 -0.989507 1.22664 0
M  V30 5264 C 487.541 -1.7321 1.05481 0
M  V30 5265 C 487.874 -1.89852 -0.408635 0
M  V30 5266 O 487.149 -1.44416 -1.30285 0
M  V30 5267 C 487.432 -3.1357 1.77047 0
M  V30 5268 C 487.285 -3.04555 3.31008 0
M  V30 5269 C 488.604 -4.12812 1.5256 0
M  V30 5270 H 485.723 -0.628697 0.384589 0
M  V30 5271 H 488.365 -1.15258 1.51049 0
M  V30 5272 H 486.515 -3.63046 1.3831 0
M  V30 5273 H 488.187 -2.62674 3.7921 0
M  V30 5274 H 486.43 -2.41278 3.6051 0
M  V30 5275 H 487.101 -4.03894 3.76263 0
M  V30 5276 H 489.577 -3.72106 1.86215 0
M  V30 5277 H 488.453 -5.09132 2.05124 0
M  V30 5278 H 488.714 -4.39711 0.458936 0
M  V30 5279 N 487.773 -1.03688 -1.18687 0
M  V30 5280 C 489.022 -0.733235 -1.879 0
M  V30 5281 C 489.335 0.741745 -1.8099 0
M  V30 5282 O 490.541 1.15875 -2.4553 0
M  V30 5283 C 488.997 -1.26127 -3.37076 0
M  V30 5284 C 488.605 -2.76461 -3.52524 0
M  V30 5285 C 490.349 -1.03398 -4.11715 0
M  V30 5286 C 488.256 -3.22642 -4.95637 0
M  V30 5287 H 487.186 -0.270584 -0.703776 0
M  V30 5288 H 489.837 -1.25222 -1.34133 0
M  V30 5289 H 488.219 -0.670165 -3.90288 0
M  V30 5290 H 489.393 -3.41296 -3.09602 0
M  V30 5291 H 487.708 -2.97559 -2.91286 0
M  V30 5292 H 490.305 -1.3542 -5.17267 0
M  V30 5293 H 490.648 0.0289246 -4.1629 0
M  V30 5294 H 491.181 -1.5895 -3.64664 0
M  V30 5295 H 487.92 -4.28296 -4.96228 0
M  V30 5296 H 487.44 -2.62539 -5.39289 0
M  V30 5297 H 489.119 -3.16444 -5.64333 0
M  V30 5298 N 489.251 1.34841 -0.815825 0
M  V30 5299 C 490.497 1.98793 -0.401129 0
M  V30 5300 C 490.83 1.64548 1.03139 0
M  V30 5301 O 490.105 0.913487 1.71714 0
M  V30 5302 C 490.388 3.55143 -0.595409 0
M  V30 5303 C 490.241 3.99155 -2.07352 0
M  V30 5304 C 491.56 4.40092 -0.0268823 0
M  V30 5305 H 488.679 0.722146 -0.14722 0
M  V30 5306 H 491.321 1.59847 -1.02707 0
M  V30 5307 H 489.471 3.8845 -0.0625779 0
M  V30 5308 H 491.143 3.76216 -2.66945 0
M  V30 5309 H 489.386 3.49726 -2.56659 0
M  V30 5310 H 490.057 5.07971 -2.1603 0
M  V30 5311 H 492.533 4.13298 -0.482042 0
M  V30 5312 H 491.409 5.48562 -0.19267 0
M  V30 5313 H 491.67 4.29016 1.06759 0
M  V30 5314 N 490.729 0.570148 1.46925 0
M  V30 5315 C 491.659 -0.158274 2.32963 0
M  V30 5316 C 492.64 -0.896093 1.44583 0
M  V30 5317 O 493.825 -0.874022 1.7342 0
M  V30 5318 C 490.955 -1.18055 3.26619 0
M  V30 5319 C 489.909 -0.558379 4.24342 0
M  V30 5320 C 489.235 -1.68623 5.07415 0
M  V30 5321 C 490.535 0.496295 5.19937 0
M  V30 5322 H 492.229 0.560046 2.94115 0
M  V30 5323 H 489.775 0.270775 1.41431 0
M  V30 5324 H 491.728 -1.69841 3.85658 0
M  V30 5325 H 490.452 -1.92899 2.63548 0
M  V30 5326 H 489.111 -0.0617157 3.66548 0
M  V30 5327 H 488.759 -2.42402 4.40738 0
M  V30 5328 H 488.459 -1.27564 5.73586 0
M  V30 5329 H 489.983 -2.20709 5.69315 0
M  V30 5330 H 491.397 0.0640052 5.73264 0
M  V30 5331 H 489.794 0.82649 5.94381 0
M  V30 5332 H 490.864 1.38735 4.6463 0
M  V30 5333 N 492.207 -1.54576 0.307264 0
M  V30 5334 C 493.618 -1.8579 -0.184121 0
M  V30 5335 C 493.969 -1.22914 -1.52927 0
M  V30 5336 O 493.094 -0.529126 -2.09831 0
M  V30 5337 C 493.689 -3.37081 -0.340862 0
M  V30 5338 C 492.248 -3.68304 -0.776465 0
M  V30 5339 C 491.395 -2.77076 0.111503 0
M  V30 5340 H 494.346 -1.49656 0.528078 0
M  V30 5341 H 494.367 -3.61922 -1.17443 0
M  V30 5342 H 493.879 -3.82815 0.638309 0
M  V30 5343 H 491.98 -3.28092 -1.76596 0
M  V30 5344 H 492.093 -4.75434 -0.591512 0
M  V30 5345 H 490.457 -2.51374 -0.410256 0
M  V30 5346 H 491.24 -3.25632 1.08714 0
M  V30 5347 N 493.685 -0.035106 -1.57561 0
M  V30 5348 C 494.615 0.942993 -2.13612 0
M  V30 5349 C 495.596 1.33531 -1.05373 0
M  V30 5350 O 496.781 1.41287 -1.33235 0
M  V30 5351 C 493.911 2.22332 -2.66807 0
M  V30 5352 C 492.865 1.97156 -3.79886 0
M  V30 5353 C 492.191 3.31506 -4.19533 0
M  V30 5354 C 493.491 1.30596 -5.05709 0
M  V30 5355 H 495.185 0.476179 -2.95589 0
M  V30 5356 H 492.731 0.227602 -1.4219 0
M  V30 5357 H 494.684 2.91142 -3.04654 0
M  V30 5358 H 493.408 2.7119 -1.81999 0
M  V30 5359 H 492.067 1.30763 -3.42486 0
M  V30 5360 H 491.715 3.78134 -3.31698 0
M  V30 5361 H 491.415 3.15465 -4.95738 0
M  V30 5362 H 492.939 4.01574 -4.59968 0
M  V30 5363 H 494.353 1.89416 -5.41105 0
M  V30 5364 H 492.75 1.24934 -5.86951 0
M  V30 5365 H 493.82 0.279742 -4.84092 0
M  V30 5366 N 495.163 1.55791 0.238111 0
M  V30 5367 C 496.093 1.94068 1.29846 0
M  V30 5368 C 497.074 0.806726 1.49753 0
M  V30 5369 O 498.259 1.06772 1.62214 0
M  V30 5370 C 495.389 2.24302 2.65153 0
M  V30 5371 C 494.343 3.40032 2.59927 0
M  V30 5372 C 493.669 3.55829 3.99111 0
M  V30 5373 C 494.969 4.75476 2.16148 0
M  V30 5374 H 496.663 2.82887 0.980563 0
M  V30 5375 H 494.209 1.36105 0.470253 0
M  V30 5376 H 496.162 2.4967 3.39475 0
M  V30 5377 H 494.886 1.32318 2.98596 0
M  V30 5378 H 493.545 3.14687 1.88063 0
M  V30 5379 H 493.193 2.6125 4.29834 0
M  V30 5380 H 492.893 4.3366 3.96501 0
M  V30 5381 H 494.417 3.83528 4.7512 0
M  V30 5382 H 495.831 5.00158 2.80205 0
M  V30 5383 H 494.228 5.56472 2.24631 0
M  V30 5384 H 495.298 4.71946 1.11333 0
M  V30 5385 N 496.642 -0.504142 1.49319 0
M  V30 5386 C 497.872 -1.28071 1.62116 0
M  V30 5387 C 498.28 -1.86955 0.290566 0
M  V30 5388 O 497.623 -1.68415 -0.733616 0
M  V30 5389 C 497.685 -2.4521 2.62893 0
M  V30 5390 C 497.349 -2.07218 4.0732 0
M  V30 5391 C 498.346 -1.61375 4.94221 0
M  V30 5392 C 496.031 -2.16949 4.53033 0
M  V30 5393 C 498.025 -1.25763 6.2487 0
M  V30 5394 C 495.712 -1.80949 5.83696 0
M  V30 5395 C 496.71 -1.3543 6.69438 0
M  V30 5396 O 496.398 -0.99915 7.97667 0
M  V30 5397 H 496.13 -0.394763 0.54876 0
M  V30 5398 H 498.684 -0.612118 1.96067 0
M  V30 5399 H 496.914 -3.15134 2.24115 0
M  V30 5400 H 498.603 -3.0724 2.65252 0
M  V30 5401 H 499.369 -1.53306 4.60133 0
M  V30 5402 H 495.248 -2.5133 3.86463 0
M  V30 5403 H 498.792 -0.901631 6.91749 0
M  V30 5404 H 494.689 -1.88667 6.17313 0
M  V30 5405 H 495.457 -1.13089 8.1065 0
M  V30 5406 N 498.12 -1.38341 -0.754957 0
M  V30 5407 C 499.367 -1.34473 -1.51404 0
M  V30 5408 C 499.695 0.0656458 -1.94389 0
M  V30 5409 O 498.95 1.04244 -1.65625 0
M  V30 5410 C 499.249 -2.2452 -2.78075 0
M  V30 5411 C 498.915 -3.72512 -2.54059 0
M  V30 5412 C 497.577 -4.1284 -2.47218 0
M  V30 5413 C 499.929 -4.66197 -2.33044 0
M  V30 5414 C 497.257 -5.44945 -2.17376 0
M  V30 5415 C 499.609 -5.98558 -2.04723 0
M  V30 5416 C 498.273 -6.37972 -1.96337 0
M  V30 5417 H 497.543 -0.492072 -0.554027 0
M  V30 5418 H 500.19 -1.70687 -0.868223 0
M  V30 5419 H 498.495 -1.81357 -3.473 0
M  V30 5420 H 500.192 -2.18832 -3.36026 0
M  V30 5421 H 496.782 -3.40538 -2.60253 0
M  V30 5422 H 500.966 -4.35888 -2.37309 0
M  V30 5423 H 496.222 -5.74426 -2.09391 0
M  V30 5424 H 500.396 -6.70693 -1.87465 0
M  V30 5425 H 498.023 -7.40258 -1.72978 0
M  V30 5426 N 499.598 0.982988 -1.23187 0
M  V30 5427 C 500.528 2.09301 -1.03515 0
M  V30 5428 C 501.509 1.70035 0.0471136 0
M  V30 5429 O 502.694 1.93847 -0.117029 0
M  V30 5430 C 499.824 3.4167 -0.622791 0
M  V30 5431 C 498.778 3.94828 -1.65211 0
M  V30 5432 C 498.104 5.23362 -1.09527 0
M  V30 5433 C 499.404 4.2439 -3.04451 0
M  V30 5434 H 501.098 2.26016 -1.96359 0
M  V30 5435 H 498.644 1.08611 -0.945501 0
M  V30 5436 H 500.597 4.18746 -0.472233 0
M  V30 5437 H 499.321 3.24811 0.341329 0
M  V30 5438 H 497.98 3.19895 -1.79061 0
M  V30 5439 H 497.628 5.02852 -0.122211 0
M  V30 5440 H 497.328 5.59895 -1.783 0
M  V30 5441 H 498.852 6.03062 -0.956511 0
M  V30 5442 H 500.266 4.92225 -2.93917 0
M  V30 5443 H 498.663 4.72118 -3.70438 0
M  V30 5444 H 499.733 3.31765 -3.53638 0
M  V30 5445 N 501.076 1.04316 1.18135 0
M  V30 5446 C 502.322 0.749128 1.88457 0
M  V30 5447 C 502.655 -0.72149 1.803 0
M  V30 5448 O 501.93 -1.52676 1.205 0
M  V30 5449 C 502.213 1.21905 3.38838 0
M  V30 5450 C 502.066 2.75195 3.55792 0
M  V30 5451 C 503.385 0.811085 4.32561 0
M  V30 5452 H 500.504 0.273611 0.684329 0
M  V30 5453 H 503.146 1.29561 1.38975 0
M  V30 5454 H 501.296 0.754137 3.8111 0
M  V30 5455 H 502.968 3.29743 3.22595 0
M  V30 5456 H 501.211 3.14899 2.98364 0
M  V30 5457 H 501.882 3.03135 4.61317 0
M  V30 5458 H 504.358 1.21118 3.98082 0
M  V30 5459 H 503.234 1.16761 5.36338 0
M  V30 5460 H 503.495 -0.285596 4.41177 0
M  V30 5461 N 502.554 -1.34406 0.822964 0
M  V30 5462 C 503.782 -2.02508 0.424039 0
M  V30 5463 C 504.197 -1.61975 -0.970022 0
M  V30 5464 O 503.554 -0.825228 -1.62777 0
M  V30 5465 C 503.605 -3.57789 0.516657 0
M  V30 5466 O 503.326 -3.96853 1.85577 0
M  V30 5467 C 504.827 -4.43157 0.112637 0
M  V30 5468 H 502.047 -0.649063 0.170173 0
M  V30 5469 H 504.591 -1.7168 1.11113 0
M  V30 5470 H 502.746 -3.87207 -0.122353 0
M  V30 5471 H 503.16 -4.91538 1.83005 0
M  V30 5472 H 504.634 -5.51527 0.228526 0
M  V30 5473 H 505.111 -4.28939 -0.943837 0
M  V30 5474 H 505.717 -4.19067 0.725449 0
M  V30 5475 N 504.032 -0.577932 -1.46621 0
M  V30 5476 C 505.448 -0.239242 -1.57797 0
M  V30 5477 C 505.648 1.25843 -1.57371 0
M  V30 5478 O 504.704 2.03988 -1.48813 0
M  V30 5479 C 506.017 -0.884227 -2.87405 0
M  V30 5480 C 507.565 -0.857373 -3.01028 0
M  V30 5481 C 508.04 -1.48181 -4.33366 0
M  V30 5482 N 509.531 -1.44593 -4.40053 0
M  V30 5483 C 510.266 -1.89852 -5.41058 0
M  V30 5484 N 509.762 -2.43062 -6.48762 0
M  V30 5485 N 511.555 -1.80797 -5.3223 0
M  V30 5486 H 503.706 -1.55073 -1.45142 0
M  V30 5487 H 505.969 -0.647903 -0.692044 0
M  V30 5488 H 505.675 -1.93759 -2.93514 0
M  V30 5489 H 505.549 -0.389585 -3.75183 0
M  V30 5490 H 507.936 0.187357 -2.94505 0
M  V30 5491 H 508.017 -1.38999 -2.14739 0
M  V30 5492 H 507.661 -2.52572 -4.40647 0
M  V30 5493 H 507.591 -0.924464 -5.18422 0
M  V30 5494 H 510.082 -1.05694 -3.62819 0
M  V30 5495 H 510.395 -2.75466 -7.22038 0
M  V30 5496 H 508.74 -2.47085 -6.49595 0
M  V30 5497 H 511.931 -1.38989 -4.46989 0
M  V30 5498 H 512.104 -2.16385 -6.10804 0
M  V30 5499 N 505.51 1.54411 -0.315457 0
M  V30 5500 C 506.457 2.24048 0.554166 0
M  V30 5501 C 507.427 1.2283 1.11812 0
M  V30 5502 O 508.612 1.51491 1.15997 0
M  V30 5503 C 505.752 2.99574 1.71316 0
M  V30 5504 C 504.865 4.15594 1.17922 0
M  V30 5505 C 504 4.78669 2.30324 0
M  V30 5506 C 503.039 5.86807 1.74137 0
M  V30 5507 N 502.176 6.43777 2.8017 0
M  V30 5508 H 507.016 2.97964 -0.0462602 0
M  V30 5509 H 504.553 1.47059 -0.0346009 0
M  V30 5510 H 506.511 3.41604 2.39505 0
M  V30 5511 H 505.141 2.28008 2.285 0
M  V30 5512 H 504.193 3.78404 0.389136 0
M  V30 5513 H 505.505 4.93459 0.728012 0
M  V30 5514 H 504.659 5.23626 3.06433 0
M  V30 5515 H 503.398 4.00168 2.78778 0
M  V30 5516 H 502.403 5.41261 0.965236 0
M  V30 5517 H 503.628 6.67201 1.2657 0
M  V30 5518 H 501.574 5.68153 3.2793 0
M  V30 5519 H 501.491 7.17031 2.39588 0
M  V30 5520 H 502.759 6.9339 3.56132 0
M  V30 5521 N 506.988 0.0434614 1.5754 0
M  V30 5522 C 507.936 -0.951465 2.1225 0
M  V30 5523 C 508.93 -1.3274 1.05245 0
M  V30 5524 O 510.136 -1.30795 1.23663 0
M  V30 5525 H 506.511 -0.324667 0.678303 0
M  V30 5526 H 508.482 -0.464855 2.94757 0
M  V30 5527 C 507.231 -2.21972 2.67626 0
M  V30 5528 H 506.554 -1.93923 3.4962 0
M  V30 5529 H 507.994 -2.89765 3.09536 0
M  V30 5530 C 506.453 -2.95919 1.61038 0
M  V30 5531 O 506.983 -3.8857 1.01862 0
M  V30 5532 N 505.189 -2.58511 1.32741 0
M  V30 5533 H 504.736 -1.83244 1.81051 0
M  V30 5534 H 504.694 -3.08296 0.616531 0
M  V30 5535 N 508.466 -1.55915 -0.229846 0
M  V30 5536 C 509.877 -1.68809 -0.797531 0
M  V30 5537 C 510.228 -0.643995 -1.8533 0
M  V30 5538 O 509.353 0.206492 -2.15413 0
M  V30 5539 C 509.948 -3.06043 -1.45338 0
M  V30 5540 C 508.507 -3.20819 -1.96856 0
M  V30 5541 C 507.654 -2.6472 -0.825736 0
M  V30 5542 H 510.605 -1.58699 -0.00533733 0
M  V30 5543 H 510.626 -3.01438 -2.32196 0
M  V30 5544 H 510.138 -3.82012 -0.684743 0
M  V30 5545 H 508.239 -2.49704 -2.76548 0
M  V30 5546 H 508.352 -4.27937 -2.15423 0
M  V30 5547 H 506.716 -2.22985 -1.23084 0
M  V30 5548 H 507.499 -3.43229 -0.0699019 0
M  V30 5549 N 509.944 0.496216 -1.49584 0
M  V30 5550 C 511.19 1.24918 -1.60521 0
M  V30 5551 C 511.545 1.90197 -0.290352 0
M  V30 5552 O 510.838 1.77967 0.709813 0
M  V30 5553 C 511.032 2.3359 -2.705 0
M  V30 5554 C 510.861 1.78969 -4.12553 0
M  V30 5555 C 509.631 1.60057 -4.79281 0
M  V30 5556 C 511.829 1.29883 -4.97629 0
M  V30 5557 N 509.811 1.00415 -6.05632 0
M  V30 5558 C 511.182 0.824057 -6.14499 0
M  V30 5559 C 513.237 1.18501 -4.83593 0
M  V30 5560 C 511.94 0.246721 -7.18877 0
M  V30 5561 C 513.966 0.621634 -5.88124 0
M  V30 5562 C 513.328 0.157116 -7.04225 0
M  V30 5563 H 509.427 0.446896 -0.641722 0
M  V30 5564 H 512.011 0.555456 -1.86609 0
M  V30 5565 H 510.182 3.00418 -2.46178 0
M  V30 5566 H 511.914 3.00628 -2.70933 0
M  V30 5567 H 508.669 1.84562 -4.36158 0
M  V30 5568 H 509.093 0.725074 -6.73106 0
M  V30 5569 H 513.735 1.53012 -3.94141 0
M  V30 5570 H 511.453 -0.110651 -8.08024 0
M  V30 5571 H 515.039 0.536279 -5.79323 0
M  V30 5572 H 513.919 -0.272009 -7.83728 0
M  V30 5573 N 511.423 1.38739 0.74761 0
M  V30 5574 C 512.669 1.35475 1.50912 0
M  V30 5575 C 513.002 -0.0533093 1.94127 0
M  V30 5576 O 512.277 -1.01572 1.65871 0
M  V30 5577 C 512.56 2.31582 2.75757 0
M  V30 5578 C 512.413 3.81274 2.38642 0
M  V30 5579 C 513.732 2.25722 3.77806 0
M  V30 5580 H 510.851 0.493427 0.547447 0
M  V30 5581 H 513.493 1.69634 0.855823 0
M  V30 5582 H 511.643 2.02582 3.31501 0
M  V30 5583 H 513.315 4.20972 1.88626 0
M  V30 5584 H 511.558 3.98664 1.71025 0
M  V30 5585 H 512.229 4.4399 3.27989 0
M  V30 5586 H 514.705 2.51336 3.31616 0
M  V30 5587 H 513.581 2.95069 4.62845 0
M  V30 5588 H 513.842 1.25803 4.23823 0
M  V30 5589 N 512.901 -0.976442 1.23707 0
M  V30 5590 C 514.148 -1.71827 1.07153 0
M  V30 5591 C 514.476 -1.9053 -0.390982 0
M  V30 5592 O 513.731 -1.45779 -1.30564 0
M  V30 5593 C 514.03 -3.11814 1.74662 0
M  V30 5594 C 513.696 -3.12978 3.24585 0
M  V30 5595 C 512.358 -3.13003 3.6549 0
M  V30 5596 C 514.71 -3.07986 4.20469 0
M  V30 5597 C 512.038 -3.05757 5.00729 0
M  V30 5598 C 514.39 -3.02282 5.55705 0
M  V30 5599 C 513.054 -3.00631 5.95968 0
M  V30 5600 H 512.324 -0.628758 0.392102 0
M  V30 5601 H 514.971 -1.14239 1.53693 0
M  V30 5602 H 513.276 -3.72812 1.20492 0
M  V30 5603 H 514.973 -3.67989 1.59328 0
M  V30 5604 H 511.563 -3.13718 2.92026 0
M  V30 5605 H 515.747 -3.07103 3.89874 0
M  V30 5606 H 511.003 -3.02834 5.31132 0
M  V30 5607 H 515.177 -2.97376 6.29714 0
M  V30 5608 H 512.804 -2.94771 7.00724 0
M  V30 5609 N 514.379 -1.04941 -1.1758 0
M  V30 5610 C 515.628 -0.753124 -1.87112 0
M  V30 5611 C 515.941 0.722507 -1.81767 0
M  V30 5612 O 517.147 1.13265 -2.46746 0
M  V30 5613 C 515.603 -1.29695 -3.35719 0
M  V30 5614 C 515.211 -2.80184 -3.49572 0
M  V30 5615 C 516.955 -1.07759 -4.10595 0
M  V30 5616 C 514.862 -3.2788 -4.92187 0
M  V30 5617 H 513.792 -0.278034 -0.700866 0
M  V30 5618 H 516.443 -1.26637 -1.32798 0
M  V30 5619 H 514.825 -0.711522 -3.89555 0
M  V30 5620 H 515.999 -3.44561 -3.05965 0
M  V30 5621 H 514.314 -3.00632 -2.88113 0
M  V30 5622 H 516.911 -1.40899 -5.15802 0
M  V30 5623 H 517.254 -0.0152302 -4.16297 0
M  V30 5624 H 517.787 -1.62809 -3.62957 0
M  V30 5625 H 514.526 -4.33535 -4.91658 0
M  V30 5626 H 514.046 -2.68245 -5.36475 0
M  V30 5627 H 515.725 -3.22412 -5.60945 0
M  V30 5628 N 515.857 1.33968 -0.830081 0
M  V30 5629 C 517.105 1.97672 -0.420734 0
M  V30 5630 C 517.426 1.66111 1.02138 0
M  V30 5631 O 516.696 0.955503 1.71017 0
M  V30 5632 H 515.276 0.73125 -0.152587 0
M  V30 5633 H 517.938 1.63483 -1.0611 0
M  V30 5634 H 517.034 3.07294 -0.545588 0
M  V30 5635 N 517.335 0.585699 1.46312 0
M  V30 5636 C 518.583 0.072278 2.01971 0
M  V30 5637 C 518.904 -1.29345 1.45928 0
M  V30 5638 O 518.174 -1.84973 0.645109 0
M  V30 5639 H 516.754 0.023729 0.746623 0
M  V30 5640 H 519.416 0.762155 1.7938 0
M  V30 5641 H 518.512 0.00552767 3.121 0
M  V30 5642 N 518.813 -1.54241 0.323641 0
M  V30 5643 C 519.743 -2.27289 -0.534993 0
M  V30 5644 C 520.724 -1.28087 -1.11927 0
M  V30 5645 O 521.909 -1.56899 -1.14439 0
M  V30 5646 C 519.039 -3.03075 -1.69596 0
M  V30 5647 C 517.993 -4.09614 -1.24098 0
M  V30 5648 C 517.319 -4.73242 -2.4889 0
M  V30 5649 C 518.619 -5.21087 -0.355789 0
M  V30 5650 H 520.313 -2.99308 0.0743257 0
M  V30 5651 H 517.859 -1.43952 0.0371874 0
M  V30 5652 H 519.812 -3.52907 -2.30293 0
M  V30 5653 H 518.536 -2.28673 -2.33187 0
M  V30 5654 H 517.195 -3.60666 -0.656945 0
M  V30 5655 H 516.843 -3.95455 -3.10845 0
M  V30 5656 H 516.543 -5.45209 -2.19138 0
M  V30 5657 H 518.067 -5.25848 -3.10348 0
M  V30 5658 H 519.481 -5.66675 -0.869042 0
M  V30 5659 H 517.878 -5.9991 -0.151045 0
M  V30 5660 H 518.948 -4.81005 0.613339 0
M  V30 5661 N 520.291 -0.0518155 -1.57515 0
M  V30 5662 C 521.221 0.920283 -2.146 0
M  V30 5663 C 522.202 1.32406 -1.06783 0
M  V30 5664 O 523.387 1.39866 -1.34726 0
M  V30 5665 C 520.517 2.1949 -2.6915 0
M  V30 5666 C 519.471 1.93116 -3.81956 0
M  V30 5667 C 518.797 3.27037 -4.23026 0
M  V30 5668 C 520.097 1.25225 -5.07066 0
M  V30 5669 H 521.791 0.444801 -2.96077 0
M  V30 5670 H 519.337 0.212508 -1.42423 0
M  V30 5671 H 521.29 2.87894 -3.07725 0
M  V30 5672 H 520.014 2.69244 -1.84865 0
M  V30 5673 H 518.673 1.27123 -3.43854 0
M  V30 5674 H 518.321 3.74595 -3.3569 0
M  V30 5675 H 518.021 3.10189 -4.99056 0
M  V30 5676 H 519.545 3.96673 -4.64202 0
M  V30 5677 H 520.959 1.83666 -5.43083 0
M  V30 5678 H 519.356 1.18702 -5.88243 0
M  V30 5679 H 520.426 0.228382 -4.84362 0
M  V30 5680 N 521.769 1.56035 0.221574 0
M  V30 5681 C 522.701 1.889 1.29805 0
M  V30 5682 C 523.714 0.777269 1.43047 0
M  V30 5683 O 524.903 1.05557 1.43945 0
M  V30 5684 C 522.003 2.0825 2.67367 0
M  V30 5685 C 521.176 3.39267 2.76073 0
M  V30 5686 C 520.235 3.48049 3.94649 0
M  V30 5687 O 519.261 4.2108 3.82988 0
M  V30 5688 N 520.463 2.79191 5.08953 0
M  V30 5689 H 523.228 2.81831 1.01938 0
M  V30 5690 H 520.789 1.5658 0.411612 0
M  V30 5691 H 522.781 2.11441 3.45072 0
M  V30 5692 H 521.351 1.21944 2.87834 0
M  V30 5693 H 520.571 3.48175 1.84846 0
M  V30 5694 H 521.859 4.25575 2.7886 0
M  V30 5695 H 521.257 2.19635 5.21322 0
M  V30 5696 H 519.814 2.88043 5.84701 0
M  V30 5697 N 523.247 -0.488276 1.49845 0
M  V30 5698 C 524.21 -1.57069 1.66919 0
M  V30 5699 C 525.21 -1.51445 0.540479 0
M  V30 5700 O 526.4 -1.5437 0.807188 0
M  V30 5701 C 523.532 -2.96718 1.67844 0
M  V30 5702 H 524.725 -1.43254 2.63474 0
M  V30 5703 H 522.278 -0.713435 1.39068 0
M  V30 5704 H 523.013 -3.15996 0.7292 0
M  V30 5705 H 522.798 -3.02208 2.49826 0
M  V30 5706 H 524.288 -3.75335 1.83066 0
M  V30 5707 N 524.725 -1.39134 -0.740242 0
M  V30 5708 C 525.655 -1.40165 -1.86751 0
M  V30 5709 C 526.636 -0.265708 -1.68012 0
M  V30 5710 O 527.821 -0.47076 -1.88408 0
M  V30 5711 C 524.951 -1.2392 -3.2444 0
M  V30 5712 C 523.905 -2.34858 -3.57807 0
M  V30 5713 C 523.231 -2.03707 -4.94376 0
M  V30 5714 C 524.531 -3.77159 -3.61315 0
M  V30 5715 H 526.225 -2.345 -1.86145 0
M  V30 5716 H 523.771 -1.12875 -0.89416 0
M  V30 5717 H 525.724 -1.23263 -4.02969 0
M  V30 5718 H 524.448 -0.26051 -3.25559 0
M  V30 5719 H 523.107 -2.34723 -2.81604 0
M  V30 5720 H 522.755 -1.04289 -4.9207 0
M  V30 5721 H 522.455 -2.78016 -5.17669 0
M  V30 5722 H 523.979 -2.04691 -5.75268 0
M  V30 5723 H 525.393 -3.79252 -4.29931 0
M  V30 5724 H 523.79 -4.50784 -3.96124 0
M  V30 5725 H 524.86 -4.08513 -2.61238 0
M  V30 5726 N 526.204 0.969867 -1.24223 0
M  V30 5727 C 527.453 1.70687 -1.07466 0
M  V30 5728 C 527.766 1.91736 0.386861 0
M  V30 5729 O 528.972 2.62986 0.674581 0
M  V30 5730 C 527.428 3.07217 -1.87472 0
M  V30 5731 C 527.036 2.94018 -3.3802 0
M  V30 5732 C 528.78 3.84804 -1.79237 0
M  V30 5733 C 526.687 4.25844 -4.10379 0
M  V30 5734 H 525.617 0.640067 -0.398536 0
M  V30 5735 H 528.268 1.08092 -1.48285 0
M  V30 5736 H 526.65 3.70628 -1.39466 0
M  V30 5737 H 527.824 2.39632 -3.9359 0
M  V30 5738 H 526.139 2.29898 -3.47183 0
M  V30 5739 H 528.736 4.82417 -2.30603 0
M  V30 5740 H 529.079 4.09356 -0.757197 0
M  V30 5741 H 529.612 3.28115 -2.24912 0
M  V30 5742 H 526.351 4.06486 -5.14246 0
M  V30 5743 H 525.871 4.80054 -3.59594 0
M  V30 5744 H 527.55 4.94475 -4.17257 0
M  V30 5745 N 527.682 1.05563 1.17022 0
M  V30 5746 C 528.91 0.78845 1.91288 0
M  V30 5747 C 529.325 -0.656318 1.77025 0
M  V30 5748 O 528.682 -1.44869 1.10992 0
M  V30 5749 C 528.733 1.16444 3.42232 0
M  V30 5750 O 528.454 2.5525 3.5606 0
M  V30 5751 C 529.955 0.923937 4.33565 0
M  V30 5752 H 527.175 0.286389 0.606813 0
M  V30 5753 H 529.719 1.4073 1.48375 0
M  V30 5754 H 527.874 0.590266 3.82877 0
M  V30 5755 H 528.288 2.70097 4.49609 0
M  V30 5756 H 529.762 1.23672 5.37968 0
M  V30 5757 H 530.239 -0.140688 4.38975 0
M  V30 5758 H 530.845 1.48214 3.98639 0
M  V30 5759 N 529.16 -1.33526 0.837174 0
M  V30 5760 C 530.123 -2.27551 0.274421 0
M  V30 5761 C 531.123 -1.50886 -0.555881 0
M  V30 5762 O 532.313 -1.70227 -0.369918 0
M  V30 5763 C 529.445 -3.35332 -0.613605 0
M  V30 5764 H 530.638 -2.78837 1.10408 0
M  V30 5765 H 528.191 -1.439 0.610126 0
M  V30 5766 H 528.926 -2.89285 -1.46577 0
M  V30 5767 H 528.711 -3.92095 -0.0195341 0
M  V30 5768 H 530.201 -4.05433 -1.00068 0
M  V30 5769 N 530.638 -0.59345 -1.46 0
M  V30 5770 C 531.568 0.121192 -2.33185 0
M  V30 5771 C 532.549 0.872977 -1.4599 0
M  V30 5772 O 533.734 0.846321 -1.74789 0
M  V30 5773 C 530.864 1.12844 -3.28456 0
M  V30 5774 C 529.818 0.4908 -4.25177 0
M  V30 5775 C 529.144 1.60529 -5.10034 0
M  V30 5776 C 530.444 -0.578949 -5.19081 0
M  V30 5777 H 532.138 -0.606767 -2.93187 0
M  V30 5778 H 529.684 -0.293242 -1.40983 0
M  V30 5779 H 531.637 1.63684 -3.88311 0
M  V30 5780 H 530.361 1.88681 -2.66584 0
M  V30 5781 H 529.02 0.00339328 -3.666 0
M  V30 5782 H 528.668 2.35359 -4.44539 0
M  V30 5783 H 528.368 1.18422 -5.75543 0
M  V30 5784 H 529.892 2.11623 -5.72755 0
M  V30 5785 H 531.306 -0.155199 -5.7309 0
M  V30 5786 H 529.703 -0.920947 -5.92991 0
M  V30 5787 H 530.773 -1.46109 -4.62364 0
M  V30 5788 N 532.116 1.54067 -0.331816 0
M  V30 5789 C 533.364 2.00319 0.267739 0
M  V30 5790 C 533.685 1.22148 1.52003 0
M  V30 5791 O 532.955 0.325494 1.93177 0
M  V30 5792 H 531.535 0.740014 0.101922 0
M  V30 5793 H 534.197 1.89628 -0.450267 0
M  V30 5794 H 533.293 3.07765 0.518385 0
M  V30 5795 N 533.594 0.0601682 1.57485 0
M  V30 5796 C 534.822 -0.620937 1.97363 0
M  V30 5797 C 535.237 -1.63846 0.938082 0
M  V30 5798 O 534.594 -1.82339 -0.0766578 0
M  V30 5799 C 534.645 -1.29987 3.37321 0
M  V30 5800 O 534.366 -0.323081 4.36907 0
M  V30 5801 C 535.867 -2.06989 3.92008 0
M  V30 5802 H 533.087 -0.169135 0.649334 0
M  V30 5803 H 535.631 0.129132 2.04092 0
M  V30 5804 H 533.786 -2.0011 3.31715 0
M  V30 5805 H 534.2 -0.808754 5.18227 0
M  V30 5806 H 535.674 -2.49901 4.92192 0
M  V30 5807 H 536.151 -2.92173 3.2792 0
M  V30 5808 H 536.757 -1.41757 4.0098 0
M  V30 5809 N 535.072 -1.5615 -0.213296 0
M  V30 5810 C 536.297 -1.83986 -0.957282 0
M  V30 5811 C 536.722 -0.641526 -1.76822 0
M  V30 5812 O 536.08 0.409722 -1.7661 0
M  V30 5813 C 536.128 -3.09889 -1.84393 0
M  V30 5814 O 535.232 -2.89163 -2.94038 0
M  V30 5815 H 534.573 -0.606357 -0.270605 0
M  V30 5816 H 537.103 -2.03369 -0.224111 0
M  V30 5817 H 537.113 -3.40209 -2.25215 0
M  V30 5818 H 535.788 -3.96735 -1.24795 0
M  V30 5819 H 534.365 -2.70097 -2.57103 0
M  V30 5820 N 536.55 0.480323 -1.50102 0
M  V30 5821 C 537.775 1.26126 -1.64642 0
M  V30 5822 C 538.2 1.85257 -0.325823 0
M  V30 5823 O 537.558 1.66854 0.709194 0
M  V30 5824 C 537.606 2.35243 -2.73301 0
M  V30 5825 O 536.71 3.39646 -2.33911 0
M  V30 5826 H 536.051 0.371463 -0.550374 0
M  V30 5827 H 538.581 0.572696 -1.96421 0
M  V30 5828 H 538.591 2.80695 -2.96098 0
M  V30 5829 H 537.266 1.91574 -3.6915 0
M  V30 5830 H 535.843 2.99969 -2.21525 0
M  V30 5831 N 538.028 1.39524 0.732853 0
M  V30 5832 C 539.253 1.40329 1.52717 0
M  V30 5833 C 539.678 0.000286574 1.881 0
M  V30 5834 O 539.036 -0.987262 1.52062 0
M  V30 5835 C 539.084 2.28464 2.78992 0
M  V30 5836 O 538.188 1.716 3.75003 0
M  V30 5837 H 537.529 0.47778 0.461109 0
M  V30 5838 H 540.059 1.83546 0.903996 0
M  V30 5839 H 540.069 2.43051 3.27705 0
M  V30 5840 H 538.744 3.30425 2.52572 0
M  V30 5841 H 537.321 1.66267 3.33781 0
M  V30 5842 N 539.506 -0.963266 1.24736 0
M  V30 5843 C 540.731 -1.74699 1.11781 0
M  V30 5844 C 541.156 -1.85267 -0.325258 0
M  V30 5845 O 540.514 -1.32681 -1.23553 0
M  V30 5846 C 540.562 -3.14322 1.76731 0
M  V30 5847 O 539.666 -3.99043 1.04109 0
M  V30 5848 H 539.007 -0.53684 0.390767 0
M  V30 5849 H 541.537 -1.20801 1.65131 0
M  V30 5850 H 541.547 -3.64824 1.82668 0
M  V30 5851 H 540.222 -3.05946 2.81726 0
M  V30 5852 H 538.799 -3.5752 1.05991 0
M  V30 5853 N 540.985 -1.06182 -1.16461 0
M  V30 5854 C 541.948 -0.675723 -2.19013 0
M  V30 5855 C 542.948 0.277963 -1.58379 0
M  V30 5856 O 544.138 0.0604962 -1.74095 0
M  V30 5857 C 541.27 0.00591459 -3.40899 0
M  V30 5858 H 542.463 -1.58353 -2.54685 0
M  V30 5859 H 540.016 -0.856908 -1.30716 0
M  V30 5860 H 540.751 0.92652 -3.10783 0
M  V30 5861 H 540.536 -0.67984 -3.86161 0
M  V30 5862 H 542.026 0.26181 -4.16778 0
M  V30 5863 N 542.463 1.3308 -0.844243 0
M  V30 5864 C 543.691 2.01808 -0.456203 0
M  V30 5865 C 544.106 1.63498 0.944131 0
M  V30 5866 O 543.463 0.85102 1.61443 0
M  V30 5867 C 543.514 3.56922 -0.573513 0
M  V30 5868 O 543.235 3.93851 -1.91868 0
M  V30 5869 C 544.736 4.42922 -0.183125 0
M  V30 5870 H 541.956 0.646273 -0.180477 0
M  V30 5871 H 544.5 1.69891 -1.1383 0
M  V30 5872 H 542.655 3.87352 0.0607367 0
M  V30 5873 H 543.069 4.88564 -1.90802 0
M  V30 5874 H 544.543 5.51093 -0.316241 0
M  V30 5875 H 545.02 4.30386 0.875477 0
M  V30 5876 H 545.626 4.1786 -0.792027 0
M  V30 5877 N 543.941 0.601185 1.45683 0
M  V30 5878 C 544.871 -0.108824 2.33246 0
M  V30 5879 C 545.852 -0.865223 1.46451 0
M  V30 5880 O 547.037 -0.83704 1.75235 0
M  V30 5881 C 544.167 -1.11101 3.2905 0
M  V30 5882 C 543.121 -0.468244 4.25431 0
M  V30 5883 C 542.447 -1.57822 5.10878 0
M  V30 5884 C 543.747 0.606469 5.18767 0
M  V30 5885 H 545.441 0.622306 2.92861 0
M  V30 5886 H 542.987 0.300714 1.40825 0
M  V30 5887 H 544.94 -1.61622 3.89174 0
M  V30 5888 H 543.664 -1.87265 2.67581 0
M  V30 5889 H 542.323 0.0160484 3.66596 0
M  V30 5890 H 541.971 -2.32998 4.45781 0
M  V30 5891 H 541.671 -1.15369 5.76163 0
M  V30 5892 H 543.195 -2.08583 5.73869 0
M  V30 5893 H 544.609 0.185589 5.73 0
M  V30 5894 H 543.006 0.952381 5.92494 0
M  V30 5895 H 544.076 1.48559 4.61582 0
M  V30 5896 N 545.419 -1.53889 0.339982 0
M  V30 5897 C 546.83 -1.86139 -0.144671 0
M  V30 5898 C 547.181 -1.2613 -1.50285 0
M  V30 5899 O 546.306 -0.573515 -2.08662 0
M  V30 5900 C 546.901 -3.37728 -0.269285 0
M  V30 5901 C 545.46 -3.69868 -0.698168 0
M  V30 5902 C 544.607 -2.76777 0.170249 0
M  V30 5903 H 547.558 -1.48503 0.559704 0
M  V30 5904 H 547.579 -3.64331 -1.0974 0
M  V30 5905 H 547.091 -3.81375 0.719366 0
M  V30 5906 H 545.192 -3.31764 -1.69597 0
M  V30 5907 H 545.305 -4.76582 -0.490533 0
M  V30 5908 H 543.669 -2.52188 -0.356844 0
M  V30 5909 H 544.452 -3.23253 1.15597 0
M  V30 5910 N 546.897 -0.0685191 -1.57451 0
M  V30 5911 C 548.146 0.600898 -1.92541 0
M  V30 5912 C 548.459 1.70967 -0.950239 0
M  V30 5913 O 549.665 2.43844 -1.19384 0
M  V30 5914 C 548.121 1.12019 -3.42023 0
M  V30 5915 C 547.729 0.0426028 -4.4798 0
M  V30 5916 C 549.473 1.76386 -3.86119 0
M  V30 5917 C 547.38 0.575759 -5.88591 0
M  V30 5918 H 546.31 0.228225 -0.71863 0
M  V30 5919 H 548.961 -0.140223 -1.82963 0
M  V30 5920 H 547.343 1.91418 -3.46663 0
M  V30 5921 H 548.517 -0.73182 -4.54952 0
M  V30 5922 H 546.832 -0.504642 -4.13331 0
M  V30 5923 H 549.429 2.17302 -4.88553 0
M  V30 5924 H 549.772 2.62255 -3.23308 0
M  V30 5925 H 550.305 1.03615 -3.84069 0
M  V30 5926 H 547.044 -0.245691 -6.55039 0
M  V30 5927 H 546.564 1.31778 -5.85145 0
M  V30 5928 H 548.243 1.0532 -6.3837 0
M  V30 5929 N 548.375 1.56261 0.205012 0
M  V30 5930 C 549.603 1.84141 0.943386 0
M  V30 5931 C 550.018 0.649772 1.77266 0
M  V30 5932 O 549.375 -0.381612 1.78466 0
M  V30 5933 C 549.426 3.10719 1.84759 0
M  V30 5934 O 549.147 4.25286 1.05181 0
M  V30 5935 C 550.648 3.51706 2.69848 0
M  V30 5936 H 547.868 0.611734 0.275721 0
M  V30 5937 H 550.412 2.03364 0.215253 0
M  V30 5938 H 548.567 2.93422 2.52947 0
M  V30 5939 H 548.981 4.97301 1.66709 0
M  V30 5940 H 550.455 4.43266 3.28967 0
M  V30 5941 H 550.932 2.7423 3.43067 0
M  V30 5942 H 551.538 3.71499 2.07047 0
M  V30 5943 N 549.853 -0.472356 1.50355 0
M  V30 5944 C 551.1 -1.22453 1.61281 0
M  V30 5945 C 551.428 -1.91972 0.31256 0
M  V30 5946 O 550.683 -1.82696 -0.701475 0
M  V30 5947 C 550.982 -2.29257 2.74182 0
M  V30 5948 C 550.648 -1.76999 4.14708 0
M  V30 5949 C 549.31 -1.62467 4.52944 0
M  V30 5950 C 551.662 -1.38215 5.0254 0
M  V30 5951 C 548.99 -1.07574 5.76754 0
M  V30 5952 C 551.342 -0.847638 6.26895 0
M  V30 5953 C 550.006 -0.688946 6.63935 0
M  V30 5954 H 549.276 -0.448087 0.590168 0
M  V30 5955 H 551.923 -0.520744 1.84284 0
M  V30 5956 H 550.228 -3.05538 2.45263 0
M  V30 5957 H 551.925 -2.87212 2.7984 0
M  V30 5958 H 548.515 -1.89276 3.84542 0
M  V30 5959 H 552.699 -1.48276 4.73633 0
M  V30 5960 H 547.955 -0.940237 6.04127 0
M  V30 5961 H 552.129 -0.538455 6.94315 0
M  V30 5962 H 549.756 -0.261435 7.5975 0
M  V30 5963 N 551.331 -1.39911 -0.725443 0
M  V30 5964 C 552.278 -1.39393 -1.83952 0
M  V30 5965 C 553.248 -0.252249 -1.64173 0
M  V30 5966 O 554.433 -0.44882 -1.85446 0
M  V30 5967 C 551.573 -1.25262 -3.21564 0
M  V30 5968 C 550.686 -2.49054 -3.52982 0
M  V30 5969 C 549.821 -2.27439 -4.80047 0
M  V30 5970 C 548.86 -3.46857 -5.04338 0
M  V30 5971 N 547.997 -3.24499 -6.22611 0
M  V30 5972 H 552.837 -2.34622 -1.83729 0
M  V30 5973 H 550.374 -1.16537 -0.897636 0
M  V30 5974 H 552.332 -1.15077 -4.01015 0
M  V30 5975 H 550.962 -0.33657 -3.21041 0
M  V30 5976 H 550.014 -2.69805 -2.6816 0
M  V30 5977 H 551.326 -3.37973 -3.66846 0
M  V30 5978 H 550.48 -2.14551 -5.67497 0
M  V30 5979 H 549.219 -1.35929 -4.68374 0
M  V30 5980 H 548.224 -3.60232 -4.15346 0
M  V30 5981 H 549.449 -4.3928 -5.17889 0
M  V30 5982 H 547.395 -2.35663 -6.12208 0
M  V30 5983 H 547.312 -4.06978 -6.37106 0
M  V30 5984 H 548.58 -3.15325 -7.12875 0
M  V30 5985 N 552.809 0.956637 -1.25245 0
M  V30 5986 C 554.049 1.71585 -1.11076 0
M  V30 5987 C 554.413 1.88916 0.34277 0
M  V30 5988 O 555.614 2.61875 0.606227 0
M  V30 5989 C 553.885 3.06267 -1.84215 0
M  V30 5990 S 555.444 3.97469 -1.85914 0
M  V30 5991 H 552.262 0.589803 -0.397055 0
M  V30 5992 H 554.864 1.14114 -1.58739 0
M  V30 5993 H 553.568 2.91322 -2.89067 0
M  V30 5994 H 553.099 3.688 -1.36931 0
M  V30 5995 H 555.114 4.87316 -0.93474 0
M  V30 5996 N 554.287 1.06798 1.15896 0
M  V30 5997 C 555.217 0.704677 2.22613 0
M  V30 5998 C 556.198 -0.305252 1.67339 0
M  V30 5999 O 557.383 -0.179247 1.93371 0
M  V30 6000 C 554.513 0.0957325 3.47168 0
M  V30 6001 C 553.467 1.0322 4.15367 0
M  V30 6002 C 552.793 0.286293 5.33933 0
M  V30 6003 C 554.093 2.36341 4.65768 0
M  V30 6004 H 555.787 1.59688 2.53259 0
M  V30 6005 H 553.333 0.769257 1.21731 0
M  V30 6006 H 555.286 -0.170333 4.21056 0
M  V30 6007 H 554.01 -0.831516 3.15838 0
M  V30 6008 H 552.669 1.28309 3.43413 0
M  V30 6009 H 552.317 -0.644237 4.98857 0
M  V30 6010 H 552.017 0.910436 5.80504 0
M  V30 6011 H 553.541 0.0278938 6.10594 0
M  V30 6012 H 554.955 2.1561 5.31211 0
M  V30 6013 H 553.352 2.94299 5.2298 0
M  V30 6014 H 554.422 2.99047 3.81705 0
M  V30 6015 N 555.766 -1.3263 0.851289 0
M  V30 6016 C 556.676 -2.32722 0.296268 0
M  V30 6017 C 557.692 -1.63901 -0.584162 0
M  V30 6018 O 558.868 -1.95465 -0.485334 0
M  V30 6019 C 555.933 -3.42942 -0.509103 0
M  V30 6020 C 554.994 -4.2746 0.397069 0
M  V30 6021 C 554.227 -5.32416 -0.36996 0
M  V30 6022 O 554.45 -5.47491 -1.6003 0
M  V30 6023 O 553.384 -6.01327 0.262493 0
M  V30 6024 H 557.21 -2.82078 1.12543 0
M  V30 6025 H 554.795 -1.36194 0.614135 0
M  V30 6026 H 556.677 -4.1017 -0.96634 0
M  V30 6027 H 555.352 -2.95781 -1.31512 0
M  V30 6028 H 554.259 -3.63053 0.902411 0
M  V30 6029 H 555.592 -4.78136 1.16818 0
M  V30 6030 N 557.244 -0.608902 -1.45362 0
M  V30 6031 C 558.154 0.110969 -2.34337 0
M  V30 6032 C 559.17 0.859007 -1.51318 0
M  V30 6033 O 560.346 0.816296 -1.84116 0
M  V30 6034 C 557.411 1.09494 -3.28956 0
M  V30 6035 C 556.472 0.348718 -4.27881 0
M  V30 6036 C 555.705 1.28582 -5.17979 0
M  V30 6037 O 555.928 2.52369 -5.11533 0
M  V30 6038 O 554.862 0.782172 -5.96796 0
M  V30 6039 H 558.688 -0.620258 -2.97299 0
M  V30 6040 H 556.273 -0.36916 -1.44767 0
M  V30 6041 H 558.155 1.66163 -3.87257 0
M  V30 6042 H 556.83 1.80717 -2.68557 0
M  V30 6043 H 555.737 -0.260465 -3.73192 0
M  V30 6044 H 557.07 -0.323049 -4.91139 0
M  V30 6045 N 558.722 1.53707 -0.348139 0
M  V30 6046 C 559.67 2.26671 0.521808 0
M  V30 6047 C 560.664 1.28988 1.09811 0
M  V30 6048 O 561.87 1.4668 1.04332 0
M  V30 6049 H 558.245 0.728387 0.186968 0
M  V30 6050 H 560.216 2.98176 -0.115563 0
M  V30 6051 C 558.965 3.05591 1.6586 0
M  V30 6052 H 558.288 3.80589 1.22443 0
M  V30 6053 H 559.728 3.59851 2.24239 0
M  V30 6054 C 558.187 2.15366 2.59073 0
M  V30 6055 O 558.717 1.7528 3.61441 0
M  V30 6056 N 556.923 1.80352 2.27863 0
M  V30 6057 H 556.47 2.13149 1.44656 0
M  V30 6058 H 556.428 1.20268 2.90488 0
M  V30 6059 N 560.2 0.0768682 1.57412 0
M  V30 6060 C 561.148 -0.906229 2.1422 0
M  V30 6061 C 562.142 -1.30477 1.08037 0
M  V30 6062 O 563.348 -1.28143 1.2641 0
M  V30 6063 H 559.723 -0.310207 0.685037 0
M  V30 6064 H 561.694 -0.402228 2.95677 0
M  V30 6065 C 560.443 -2.16245 2.72274 0
M  V30 6066 H 559.766 -1.86463 3.53655 0
M  V30 6067 H 561.206 -2.83134 3.15613 0
M  V30 6068 C 559.665 -2.92437 1.67279 0
M  V30 6069 O 560.195 -3.86322 1.10081 0
M  V30 6070 N 558.401 -2.55637 1.38195 0
M  V30 6071 H 557.948 -1.79363 1.84897 0
M  V30 6072 H 557.906 -3.06919 0.681787 0
M  V30 6073 N 561.678 -1.56367 -0.196722 0
M  V30 6074 C 562.926 -1.80172 -0.915554 0
M  V30 6075 C 563.247 -0.649649 -1.8386 0
M  V30 6076 O 562.517 0.332111 -1.93064 0
M  V30 6077 H 561.097 -0.664592 -0.341067 0
M  V30 6078 H 563.759 -1.93844 -0.202622 0
M  V30 6079 H 562.855 -2.7327 -1.50764 0
M  V30 6080 N 563.156 0.464375 -1.50603 0
M  V30 6081 C 564.402 1.21776 -1.62168 0
M  V30 6082 C 564.735 1.91476 -0.324154 0
M  V30 6083 O 564.01 1.8242 0.674782 0
M  V30 6084 C 564.293 2.25614 -2.80661 0
M  V30 6085 C 564.146 1.60175 -4.20314 0
M  V30 6086 C 565.465 3.26862 -2.94702 0
M  V30 6087 H 562.584 0.44137 -0.590222 0
M  V30 6088 H 565.226 0.510623 -1.8301 0
M  V30 6089 H 563.376 2.85923 -2.63021 0
M  V30 6090 H 565.048 1.03411 -4.4956 0
M  V30 6091 H 563.291 0.904697 -4.24261 0
M  V30 6092 H 563.962 2.35665 -4.99165 0
M  V30 6093 H 566.438 2.76582 -3.10872 0
M  V30 6094 H 565.314 3.96839 -3.79223 0
M  V30 6095 H 565.575 3.91382 -2.05603 0
M  V30 6096 N 564.634 1.40294 0.718013 0
M  V30 6097 C 565.911 1.2894 1.47084 0
M  V30 6098 C 566.291 -0.0933625 2.10893 0
M  V30 6099 O 565.639 -1.10598 1.99951 0
M  V30 6100 C 565.849 2.4264 2.50852 0
M  V30 6101 C 567.197 2.8276 3.16752 0
M  V30 6102 O 568.221 2.42215 2.61171 0
M  V30 6103 O 567.08 3.528 4.17366 0
M  V30 6104 H 564.174 0.506236 0.653952 0
M  V30 6105 H 566.72 1.52208 0.750394 0
M  V30 6106 H 565.492 3.35009 2.022 0
M  V30 6107 H 565.115 2.21129 3.30435 0
M  V30 6108 N 566.112 -0.949982 1.2575 0
M  V30 6109 C 567.059 -2.04738 1.06541 0
M  V30 6110 C 568.029 -1.66078 -0.0268818 0
M  V30 6111 O 569.214 -1.90348 0.131196 0
M  V30 6112 C 566.354 -3.38027 0.695127 0
M  V30 6113 C 565.467 -3.89776 1.86276 0
M  V30 6114 C 564.602 -5.11411 1.4364 0
M  V30 6115 C 563.641 -5.554 2.57287 0
M  V30 6116 N 562.778 -6.68244 2.15395 0
M  V30 6117 H 567.618 -2.20502 2.00457 0
M  V30 6118 H 565.155 -1.0805 0.998178 0
M  V30 6119 H 567.113 -4.14641 0.461375 0
M  V30 6120 H 565.743 -3.22135 -0.207046 0
M  V30 6121 H 564.795 -3.0964 2.20969 0
M  V30 6122 H 566.107 -4.18368 2.71606 0
M  V30 6123 H 565.261 -5.95457 1.16257 0
M  V30 6124 H 564 -4.84545 0.553879 0
M  V30 6125 H 563.005 -4.69916 2.85409 0
M  V30 6126 H 564.23 -5.84272 3.46125 0
M  V30 6127 H 562.176 -6.43078 1.29565 0
M  V30 6128 H 562.093 -6.96377 2.94272 0
M  V30 6129 H 563.361 -7.55687 1.91201 0
M  V30 6130 N 567.59 -1.07411 -1.15328 0
M  V30 6131 C 569.006 -0.799759 -1.38116 0
M  V30 6132 C 569.206 0.59572 -1.92493 0
M  V30 6133 O 568.262 1.35433 -2.13106 0
M  V30 6134 C 569.575 -1.87407 -2.35158 0
M  V30 6135 C 571.123 -1.89889 -2.48819 0
M  V30 6136 C 571.598 -2.96406 -3.49153 0
M  V30 6137 N 573.089 -2.95512 -3.56689 0
M  V30 6138 C 573.824 -3.74575 -4.34144 0
M  V30 6139 N 573.32 -4.63488 -5.14928 0
M  V30 6140 N 575.113 -3.62919 -4.29239 0
M  V30 6141 H 567.264 -1.97411 -0.78374 0
M  V30 6142 H 569.527 -0.856113 -0.407154 0
M  V30 6143 H 569.233 -2.8768 -2.0232 0
M  V30 6144 H 569.107 -1.73471 -3.34944 0
M  V30 6145 H 571.494 -0.902677 -2.80955 0
M  V30 6146 H 571.575 -2.07904 -1.49029 0
M  V30 6147 H 571.219 -3.96227 -3.17752 0
M  V30 6148 H 571.149 -2.75638 -4.48699 0
M  V30 6149 H 573.64 -2.31061 -2.99031 0
M  V30 6150 H 573.953 -5.20445 -5.71276 0
M  V30 6151 H 572.298 -4.67537 -5.14232 0
M  V30 6152 H 575.489 -2.92833 -3.65194 0
M  V30 6153 H 575.662 -4.24777 -4.89355 0
M  V30 6154 N 569.068 1.32177 -0.85831 0
M  V30 6155 C 570.314 1.97417 -0.46417 0
M  V30 6156 C 570.647 1.67746 0.978514 0
M  V30 6157 O 569.922 0.967654 1.68721 0
M  V30 6158 C 570.205 3.53069 -0.708094 0
M  V30 6159 C 570.058 3.92357 -2.19946 0
M  V30 6160 C 571.377 4.39783 -0.166881 0
M  V30 6161 H 568.496 0.717097 -0.17012 0
M  V30 6162 H 571.138 1.56499 -1.07741 0
M  V30 6163 H 569.288 3.88054 -0.186128 0
M  V30 6164 H 570.96 3.67533 -2.78779 0
M  V30 6165 H 569.203 3.41384 -2.67656 0
M  V30 6166 H 569.874 5.00841 -2.32082 0
M  V30 6167 H 572.35 4.11556 -0.613285 0
M  V30 6168 H 571.226 5.47671 -0.367093 0
M  V30 6169 H 571.487 4.32196 0.930559 0
M  V30 6170 N 570.547 0.616602 1.45037 0
M  V30 6171 C 571.775 0.121968 2.0654 0
M  V30 6172 C 572.19 -1.19743 1.45969 0
M  V30 6173 O 571.547 -1.73133 0.577168 0
M  V30 6174 C 571.598 -0.0145171 3.61497 0
M  V30 6175 O 571.319 1.25269 4.19809 0
M  V30 6176 C 572.82 -0.539555 4.40004 0
M  V30 6177 H 570.04 0.0729837 0.667019 0
M  V30 6178 H 572.584 0.846891 1.8614 0
M  V30 6179 H 570.739 -0.689809 3.81209 0
M  V30 6180 H 571.153 1.08816 5.13088 0
M  V30 6181 H 572.627 -0.584112 5.48901 0
M  V30 6182 H 573.104 -1.56368 4.10421 0
M  V30 6183 H 573.71 0.101995 4.25178 0
M  V30 6184 N 572.025 -1.5352 0.356285 0
M  V30 6185 C 573.441 -1.59599 0.00485267 0
M  V30 6186 C 573.641 -1.37179 -1.47595 0
M  V30 6187 O 572.697 -1.17234 -2.23635 0
M  V30 6188 C 574.01 -2.97277 0.452454 0
M  V30 6189 C 575.558 -3.10357 0.405881 0
M  V30 6190 C 576.033 -4.50432 0.829148 0
M  V30 6191 N 577.524 -4.5652 0.783838 0
M  V30 6192 C 578.259 -5.63077 1.08315 0
M  V30 6193 N 577.755 -6.77429 1.45126 0
M  V30 6194 N 579.548 -5.53014 1.00655 0
M  V30 6195 H 571.699 -1.66346 1.32071 0
M  V30 6196 H 573.962 -0.77971 0.539218 0
M  V30 6197 H 573.668 -3.18792 1.48542 0
M  V30 6198 H 573.542 -3.76836 -0.165762 0
M  V30 6199 H 575.929 -2.88558 -0.617934 0
M  V30 6200 H 576.01 -2.32828 1.05947 0
M  V30 6201 H 575.654 -4.72968 1.85103 0
M  V30 6202 H 575.584 -5.26378 0.152906 0
M  V30 6203 H 578.075 -3.74408 0.512513 0
M  V30 6204 H 578.388 -7.54669 1.66415 0
M  V30 6205 H 576.733 -6.78844 1.48983 0
M  V30 6206 H 579.924 -4.62557 0.718215 0
M  V30 6207 H 580.097 -6.35964 1.24315 0
M  V30 6208 N 573.503 -0.0852151 -1.57369 0
M  V30 6209 C 574.75 0.580806 -1.93992 0
M  V30 6210 C 575.078 1.68801 -0.966252 0
M  V30 6211 O 574.333 1.95694 0.0158649 0
M  V30 6212 C 574.632 1.18482 -3.3719 0
M  V30 6213 C 574.298 0.2024 -4.50446 0
M  V30 6214 C 572.96 -0.0678318 -4.81152 0
M  V30 6215 C 575.312 -0.46895 -5.19086 0
M  V30 6216 C 572.64 -1.01627 -5.77831 0
M  V30 6217 C 574.992 -1.4058 -6.16782 0
M  V30 6218 C 573.656 -1.68436 -6.45899 0
M  V30 6219 H 572.926 0.212532 -0.709867 0
M  V30 6220 H 575.573 -0.158947 -1.90839 0
M  V30 6221 H 573.878 2.0006 -3.36873 0
M  V30 6222 H 575.575 1.70767 -3.62822 0
M  V30 6223 H 572.165 0.423208 -4.26505 0
M  V30 6224 H 576.349 -0.273307 -4.95547 0
M  V30 6225 H 571.605 -1.2392 -5.9871 0
M  V30 6226 H 575.779 -1.93188 -6.69068 0
M  V30 6227 H 573.406 -2.42088 -7.20623 0
M  V30 6228 N 574.981 1.5647 0.188427 0
M  V30 6229 C 576.227 1.81281 0.909124 0
M  V30 6230 C 576.56 0.66034 1.82628 0
M  V30 6231 O 575.835 -0.338737 1.91528 0
M  V30 6232 C 576.118 3.16388 1.7196 0
M  V30 6233 C 575.971 4.42137 0.826714 0
M  V30 6234 C 577.29 3.48256 2.69083 0
M  V30 6235 H 574.409 0.659457 0.329068 0
M  V30 6236 H 577.051 1.89182 0.176156 0
M  V30 6237 H 575.201 3.09784 2.34448 0
M  V30 6238 H 576.873 4.60794 0.216025 0
M  V30 6239 H 575.116 4.33594 0.133792 0
M  V30 6240 H 575.787 5.33184 1.42893 0
M  V30 6241 H 578.263 3.55203 2.16726 0
M  V30 6242 H 577.139 4.43899 3.2287 0
M  V30 6243 H 577.4 2.72088 3.48455 0
M  V30 6244 N 576.459 -0.456382 1.50847 0
M  V30 6245 C 577.389 -1.56025 1.73719 0
M  V30 6246 C 578.37 -1.5967 0.586473 0
M  V30 6247 O 579.555 -1.75702 0.827185 0
M  V30 6248 C 576.685 -2.94251 1.84483 0
M  V30 6249 C 575.639 -3.05471 2.99786 0
M  V30 6250 C 574.965 -4.45489 2.95709 0
M  V30 6251 C 576.265 -2.81318 4.40065 0
M  V30 6252 H 577.959 -1.37138 2.66146 0
M  V30 6253 H 575.505 -0.658299 1.28072 0
M  V30 6254 H 577.458 -3.71417 1.99067 0
M  V30 6255 H 576.182 -3.14328 0.886891 0
M  V30 6256 H 574.841 -2.30741 2.84876 0
M  V30 6257 H 574.489 -4.62505 1.97732 0
M  V30 6258 H 574.189 -4.53929 3.73125 0
M  V30 6259 H 575.713 -5.24655 3.12362 0
M  V30 6260 H 577.127 -3.48226 4.55425 0
M  V30 6261 H 575.524 -3.01188 5.19043 0
M  V30 6262 H 576.594 -1.7706 4.51418 0
M  V30 6263 N 577.937 -1.40673 -0.710563 0
M  V30 6264 C 579.348 -1.34975 -1.28991 0
M  V30 6265 C 579.699 -0.0256272 -1.96183 0
M  V30 6266 O 578.824 0.876339 -1.97862 0
M  V30 6267 C 579.419 -2.44467 -2.34567 0
M  V30 6268 C 577.978 -2.42213 -2.88114 0
M  V30 6269 C 577.125 -2.25085 -1.61963 0
M  V30 6270 H 580.076 -1.50406 -0.506343 0
M  V30 6271 H 580.097 -2.12663 -3.15523 0
M  V30 6272 H 579.609 -3.40825 -1.85634 0
M  V30 6273 H 577.71 -1.49568 -3.41263 0
M  V30 6274 H 577.823 -3.37983 -3.39565 0
M  V30 6275 H 576.187 -1.72691 -1.87216 0
M  V30 6276 H 576.97 -3.23449 -1.15047 0
M  V30 6277 N 579.415 0.9433 -1.26252 0
M  V30 6278 C 580.661 1.69175 -1.11837 0
M  V30 6279 C 580.994 1.91238 0.337891 0
M  V30 6280 O 580.269 1.49152 1.24836 0
M  V30 6281 C 580.552 3.06783 -1.88563 0
M  V30 6282 C 580.405 2.9206 -3.42083 0
M  V30 6283 C 581.724 4.06865 -1.67776 0
M  V30 6284 H 578.843 0.61399 -0.407658 0
M  V30 6285 H 581.485 1.09572 -1.55222 0
M  V30 6286 H 579.635 3.57663 -1.51689 0
M  V30 6287 H 581.307 2.48419 -3.88698 0
M  V30 6288 H 579.55 2.27731 -3.69217 0
M  V30 6289 H 580.221 3.89651 -3.90994 0
M  V30 6290 H 582.697 3.64939 -1.99897 0
M  V30 6291 H 581.573 5.01168 -2.23879 0
M  V30 6292 H 581.834 4.37705 -0.621816 0
M  V30 6293 N 580.893 1.08022 1.14757 0
M  V30 6294 C 582.141 0.805913 1.85336 0
M  V30 6295 C 582.462 -0.670162 1.83122 0
M  V30 6296 O 581.732 -1.48567 1.2769 0
M  V30 6297 H 580.312 0.295138 0.686223 0
M  V30 6298 H 582.974 1.36538 1.3908 0
M  V30 6299 H 582.07 1.14655 2.90277 0
M  V30 6300 N 582.371 -1.3172 0.865308 0
M  V30 6301 C 583.334 -2.26918 0.322627 0
M  V30 6302 C 584.334 -1.52031 -0.523751 0
M  V30 6303 O 585.524 -1.70973 -0.333727 0
M  V30 6304 C 582.656 -3.36558 -0.542338 0
M  V30 6305 H 583.849 -2.76432 1.16298 0
M  V30 6306 H 581.402 -1.42573 0.640512 0
M  V30 6307 H 582.137 -2.92329 -1.40407 0
M  V30 6308 H 581.922 -3.92048 0.0636395 0
M  V30 6309 H 583.412 -4.07465 -0.91446 0
M  V30 6310 N 583.85 -0.624285 -1.44708 0
M  V30 6311 C 585.077 -0.132919 -2.06473 0
M  V30 6312 C 585.493 1.18967 -1.46602 0
M  V30 6313 O 584.85 1.72824 -0.586341 0
M  V30 6314 C 584.901 -0.00465418 -3.615 0
M  V30 6315 O 584.622 -1.27494 -4.19138 0
M  V30 6316 C 586.123 0.516213 -4.40284 0
M  V30 6317 H 583.343 -0.0765201 -0.666623 0
M  V30 6318 H 585.887 -0.856751 -1.85688 0
M  V30 6319 H 584.042 0.669583 -3.8157 0
M  V30 6320 H 584.456 -1.11536 -5.12504 0
M  V30 6321 H 585.93 0.554994 -5.49203 0
M  V30 6322 H 586.407 1.5419 -4.11245 0
M  V30 6323 H 587.013 -0.124542 -4.25118 0
M  V30 6324 N 585.328 1.53329 -0.364422 0
M  V30 6325 C 586.577 2.00421 0.226747 0
M  V30 6326 C 586.89 1.25581 1.49963 0
M  V30 6327 O 588.096 1.63256 2.16933 0
M  V30 6328 C 586.552 3.57017 0.454618 0
M  V30 6329 C 586.16 4.40734 -0.803568 0
M  V30 6330 C 587.904 4.12468 1.00351 0
M  V30 6331 C 585.811 5.8888 -0.545345 0
M  V30 6332 H 584.741 0.748787 0.0885082 0
M  V30 6333 H 587.392 1.7703 -0.482983 0
M  V30 6334 H 585.774 3.76558 1.22558 0
M  V30 6335 H 586.948 4.32967 -1.57723 0
M  V30 6336 H 585.263 3.96381 -1.27559 0
M  V30 6337 H 587.86 5.20783 1.212 0
M  V30 6338 H 588.203 3.6699 1.9653 0
M  V30 6339 H 588.736 3.96721 0.29274 0
M  V30 6340 H 585.475 6.38633 -1.47743 0
M  V30 6341 H 584.995 5.99499 0.189842 0
M  V30 6342 H 586.674 6.46776 -0.170425 0
M  V30 6343 N 586.806 0.0935595 1.57322 0
M  V30 6344 C 587.754 -0.883457 2.15169 0
M  V30 6345 C 588.748 -1.29324 1.09415 0
M  V30 6346 O 589.954 -1.26795 1.27762 0
M  V30 6347 H 586.329 -0.302923 0.688289 0
M  V30 6348 H 588.3 -0.370845 2.96087 0
M  V30 6349 C 587.049 -2.13345 2.74552 0
M  V30 6350 H 586.372 -1.82702 3.55612 0
M  V30 6351 H 587.812 -2.7977 3.18598 0
M  V30 6352 C 586.271 -2.90646 1.70371 0
M  V30 6353 O 586.801 -3.85133 1.14173 0
M  V30 6354 N 585.007 -2.54157 1.40899 0
M  V30 6355 H 584.554 -1.77391 1.86789 0
M  V30 6356 H 584.512 -3.06178 0.714301 0
M  V30 6357 N 588.284 -1.56567 -0.180126 0
M  V30 6358 C 589.217 -1.90813 -1.25163 0
M  V30 6359 C 590.195 -0.7699 -1.43218 0
M  V30 6360 O 591.379 -1.02236 -1.58367 0
M  V30 6361 C 588.506 -2.15138 -2.61597 0
M  V30 6362 C 587.552 -3.37834 -2.60328 0
M  V30 6363 S 588.385 -4.92486 -2.1028 0
M  V30 6364 C 589.541 -5.19896 -3.48509 0
M  V30 6365 H 589.774 -2.81398 -0.959283 0
M  V30 6366 H 587.307 -1.49541 -0.3843 0
M  V30 6367 H 589.265 -2.29835 -3.40127 0
M  V30 6368 H 587.926 -1.25276 -2.88036 0
M  V30 6369 H 587.119 -3.52027 -3.60684 0
M  V30 6370 H 586.721 -3.22208 -1.8989 0
M  V30 6371 H 589.013 -5.11334 -4.44459 0
M  V30 6372 H 589.956 -6.21571 -3.39198 0
M  V30 6373 H 590.364 -4.47489 -3.44114 0
M  V30 6374 N 589.762 0.448376 -1.51087 0
M  V30 6375 C 591.039 1.20926 -1.53741 0
M  V30 6376 C 591.419 2.09025 -0.295222 0
M  V30 6377 O 590.767 2.16851 0.720283 0
M  V30 6378 C 590.977 2.02067 -2.84552 0
M  V30 6379 C 592.325 2.59486 -3.36084 0
M  V30 6380 O 593.349 2.12289 -2.86028 0
M  V30 6381 O 592.208 3.45539 -4.23397 0
M  V30 6382 H 589.302 0.549951 -0.617643 0
M  V30 6383 H 591.848 0.458344 -1.63393 0
M  V30 6384 H 590.62 1.37291 -3.66425 0
M  V30 6385 H 590.243 2.84246 -2.78011 0
M  V30 6386 N 591.24 1.41047 0.703093 0
M  V30 6387 C 592.488 1.39723 1.4602 0
M  V30 6388 C 592.809 0.00461257 1.94999 0
M  V30 6389 O 592.079 -0.952292 1.71196 0
M  V30 6390 H 590.659 0.514281 0.541779 0
M  V30 6391 H 593.321 1.76217 0.832678 0
M  V30 6392 H 592.417 2.07982 2.32701 0
M  V30 6393 N 592.718 -0.936591 1.26751 0
M  V30 6394 C 593.946 -1.71758 1.15355 0
M  V30 6395 C 594.361 -1.86549 -0.290683 0
M  V30 6396 O 593.718 -1.37616 -1.19868 0
M  V30 6397 C 593.769 -3.12193 1.82258 0
M  V30 6398 O 593.49 -2.98105 3.21038 0
M  V30 6399 C 594.991 -4.06485 1.76875 0
M  V30 6400 H 592.211 -0.537636 0.401483 0
M  V30 6401 H 594.755 -1.17382 1.67457 0
M  V30 6402 H 592.91 -3.63456 1.34083 0
M  V30 6403 H 593.324 -3.86824 3.54214 0
M  V30 6404 H 594.798 -5.02569 2.28316 0
M  V30 6405 H 595.275 -4.32986 0.736216 0
M  V30 6406 H 595.881 -3.61144 2.24623 0
M  V30 6407 N 594.196 -1.08629 -1.14182 0
M  V30 6408 C 595.159 -0.722027 -2.1753 0
M  V30 6409 C 596.159 0.244305 -1.58933 0
M  V30 6410 O 597.349 0.0235545 -1.74184 0
M  V30 6411 C 594.481 -0.0663966 -3.40835 0
M  V30 6412 H 595.674 -1.63719 -2.51269 0
M  V30 6413 H 593.227 -0.884442 -1.28869 0
M  V30 6414 H 593.962 0.860389 -3.12678 0
M  V30 6415 H 593.747 -0.761598 -3.84632 0
M  V30 6416 H 595.237 0.173346 -4.1724 0
M  V30 6417 N 595.674 1.31259 -0.872281 0
M  V30 6418 C 596.604 2.30929 -0.345554 0
M  V30 6419 C 597.585 1.60449 0.5648 0
M  V30 6420 O 598.77 1.8814 0.481335 0
M  V30 6421 C 595.9 3.44348 0.451823 0
M  V30 6422 C 594.854 4.26435 -0.365641 0
M  V30 6423 C 594.18 5.31785 0.557562 0
M  V30 6424 C 595.48 4.97159 -1.60095 0
M  V30 6425 H 597.174 2.75234 -1.17841 0
M  V30 6426 H 594.72 1.3232 -0.568094 0
M  V30 6427 H 596.673 4.13128 0.830854 0
M  V30 6428 H 595.397 2.98816 1.31821 0
M  V30 6429 H 594.056 3.59326 -0.726649 0
M  V30 6430 H 593.704 4.82502 1.4213 0
M  V30 6431 H 593.404 5.87598 0.0144878 0
M  V30 6432 H 594.928 6.03424 0.933387 0
M  V30 6433 H 596.342 5.58523 -1.29323 0
M  V30 6434 H 594.739 5.62779 -2.08327 0
M  V30 6435 H 595.809 4.24012 -2.35249 0
M  V30 6436 N 597.152 0.631951 1.44375 0
M  V30 6437 C 598.382 0.143658 2.061 0
M  V30 6438 C 598.79 -1.18733 1.47306 0
M  V30 6439 O 598.133 -1.73943 0.590724 0
M  V30 6440 C 598.195 -0.0446102 3.59472 0
M  V30 6441 C 597.859 1.20835 4.40736 0
M  V30 6442 C 598.856 2.13224 4.74164 0
M  V30 6443 C 596.541 1.44399 4.81097 0
M  V30 6444 C 598.535 3.27487 5.46838 0
M  V30 6445 C 596.222 2.58959 5.53519 0
M  V30 6446 C 597.22 3.50329 5.86309 0
M  V30 6447 O 596.908 4.62891 6.57257 0
M  V30 6448 H 596.64 0.0772939 0.671567 0
M  V30 6449 H 599.194 0.866677 1.8622 0
M  V30 6450 H 597.424 -0.822783 3.77845 0
M  V30 6451 H 599.113 -0.487561 4.02961 0
M  V30 6452 H 599.879 1.96253 4.4352 0
M  V30 6453 H 595.758 0.741696 4.54994 0
M  V30 6454 H 599.302 3.98826 5.72349 0
M  V30 6455 H 595.199 2.75873 5.83579 0
M  V30 6456 H 595.967 4.61883 6.75726 0
M  V30 6457 N 598.631 -1.53133 0.372548 0
M  V30 6458 C 599.541 -2.29671 -0.478379 0
M  V30 6459 C 600.557 -1.35913 -1.08644 0
M  V30 6460 O 601.733 -1.68975 -1.09588 0
M  V30 6461 C 598.798 -3.07625 -1.599 0
M  V30 6462 C 597.859 -4.17061 -1.01776 0
M  V30 6463 C 597.092 -4.91289 -2.08497 0
M  V30 6464 O 597.315 -4.65442 -3.29727 0
M  V30 6465 O 596.249 -5.7705 -1.71164 0
M  V30 6466 H 600.075 -3.03355 0.144649 0
M  V30 6467 H 597.66 -1.48773 0.136729 0
M  V30 6468 H 599.542 -3.56281 -2.25038 0
M  V30 6469 H 598.217 -2.3677 -2.2073 0
M  V30 6470 H 597.124 -3.72641 -0.330098 0
M  V30 6471 H 598.457 -4.90102 -0.453915 0
M  V30 6472 N 600.109 -0.101901 -1.5727 0
M  V30 6473 C 601.072 0.840129 -2.13247 0
M  V30 6474 C 602.072 1.20625 -1.06331 0
M  V30 6475 O 603.262 1.13456 -1.32186 0
M  V30 6476 C 600.394 2.13372 -2.65867 0
M  V30 6477 H 601.587 0.353945 -2.97804 0
M  V30 6478 H 599.14 0.147167 -1.55606 0
M  V30 6479 H 599.875 2.66461 -1.84849 0
M  V30 6480 H 599.66 1.88085 -3.44044 0
M  V30 6481 H 601.15 2.80748 -3.09145 0
M  V30 6482 N 601.587 1.56661 0.17182 0
M  V30 6483 C 602.517 1.99401 1.21498 0
M  V30 6484 C 603.498 0.869516 1.46197 0
M  V30 6485 O 604.683 1.13556 1.57539 0
M  V30 6486 C 601.813 2.35346 2.55401 0
M  V30 6487 C 600.767 3.5075 2.45272 0
M  V30 6488 C 600.093 3.72437 3.8366 0
M  V30 6489 C 601.393 4.84216 1.95787 0
M  V30 6490 H 603.087 2.86792 0.859699 0
M  V30 6491 H 600.633 1.37977 0.412103 0
M  V30 6492 H 602.586 2.63843 3.2858 0
M  V30 6493 H 601.31 1.44864 2.92715 0
M  V30 6494 H 599.969 3.2238 1.74547 0
M  V30 6495 H 599.617 2.79246 4.18367 0
M  V30 6496 H 599.317 4.50087 3.77751 0
M  V30 6497 H 600.841 4.03334 4.58426 0
M  V30 6498 H 602.255 5.11592 2.5874 0
M  V30 6499 H 600.652 5.65498 2.00827 0
M  V30 6500 H 601.722 4.76243 0.912159 0
M  V30 6501 N 603.065 -0.440357 1.51323 0
M  V30 6502 C 604.028 -1.51679 1.71832 0
M  V30 6503 C 605.028 -1.49648 0.588386 0
M  V30 6504 O 606.218 -1.51724 0.855891 0
M  V30 6505 C 603.35 -2.91228 1.77199 0
M  V30 6506 H 604.543 -1.34799 2.67898 0
M  V30 6507 H 602.096 -0.66883 1.41267 0
M  V30 6508 H 602.831 -3.13516 0.829363 0
M  V30 6509 H 602.616 -2.94107 2.59314 0
M  V30 6510 H 604.106 -3.69321 1.94915 0
M  V30 6511 N 604.543 -1.41418 -0.695603 0
M  V30 6512 C 605.506 -1.42988 -1.79129 0
M  V30 6513 C 606.506 -0.320514 -1.57573 0
M  V30 6514 O 607.696 -0.58039 -1.64247 0
M  V30 6515 C 604.828 -1.24122 -3.175 0
M  V30 6516 H 606.021 -2.40526 -1.7913 0
M  V30 6517 H 603.574 -1.2756 -0.903225 0
M  V30 6518 H 604.309 -0.274253 -3.23138 0
M  V30 6519 H 604.094 -2.045 -3.34547 0
M  V30 6520 H 605.584 -1.28056 -3.97481 0
M  V30 6521 N 606.021 0.929856 -1.27246 0
M  V30 6522 C 607.27 1.67182 -1.12842 0
M  V30 6523 C 607.583 1.9287 0.325666 0
M  V30 6524 O 608.789 2.64999 0.590572 0
M  V30 6525 C 607.245 3.01097 -1.97151 0
M  V30 6526 C 606.853 2.83115 -3.47203 0
M  V30 6527 C 608.597 3.78907 -1.91389 0
M  V30 6528 C 606.504 4.12573 -4.23719 0
M  V30 6529 H 605.434 0.627064 -0.418697 0
M  V30 6530 H 608.085 1.0332 -1.51649 0
M  V30 6531 H 606.467 3.66004 -1.51186 0
M  V30 6532 H 607.641 2.26989 -4.01015 0
M  V30 6533 H 605.956 2.18736 -3.54321 0
M  V30 6534 H 608.553 4.74837 -2.45834 0
M  V30 6535 H 608.896 4.0674 -0.887047 0
M  V30 6536 H 609.429 3.20794 -2.35237 0
M  V30 6537 H 606.168 3.8992 -5.26918 0
M  V30 6538 H 605.688 4.68371 -3.74685 0
M  V30 6539 H 607.367 4.8095 -4.32777 0
M  V30 6540 N 607.499 1.09233 1.13605 0
M  V30 6541 C 608.746 0.827159 1.84836 0
M  V30 6542 C 609.074 -0.647199 1.83416 0
M  V30 6543 O 608.329 -1.49228 1.26608 0
M  V30 6544 C 608.628 1.305 3.32723 0
M  V30 6545 C 608.294 2.78864 3.54325 0
M  V30 6546 C 606.956 3.19382 3.59928 0
M  V30 6547 C 609.308 3.74532 3.62457 0
M  V30 6548 C 606.636 4.54346 3.71196 0
M  V30 6549 C 608.988 5.09283 3.75252 0
M  V30 6550 C 607.652 5.49394 3.79108 0
M  V30 6551 H 606.922 0.302679 0.676363 0
M  V30 6552 H 609.569 1.36676 1.34134 0
M  V30 6553 H 607.874 0.68517 3.85762 0
M  V30 6554 H 609.571 1.07648 3.86281 0
M  V30 6555 H 606.161 2.46507 3.50617 0
M  V30 6556 H 610.345 3.44343 3.57409 0
M  V30 6557 H 605.601 4.84864 3.72447 0
M  V30 6558 H 609.775 5.83269 3.80487 0
M  V30 6559 H 607.402 6.5397 3.87591 0
M  V30 6560 N 608.977 -1.30795 0.87923 0
M  V30 6561 C 610.226 -1.95636 0.490875 0
M  V30 6562 C 610.539 -1.70214 -0.963674 0
M  V30 6563 O 611.745 -2.28991 -1.45861 0
M  V30 6564 C 610.201 -3.50271 0.826929 0
M  V30 6565 C 609.809 -3.84521 2.29886 0
M  V30 6566 C 611.553 -4.21456 0.507494 0
M  V30 6567 C 609.46 -5.32309 2.57685 0
M  V30 6568 H 608.39 -0.732238 0.179841 0
M  V30 6569 H 611.041 -1.48829 1.07341 0
M  V30 6570 H 609.423 -3.9562 0.173542 0
M  V30 6571 H 610.597 -3.50102 2.99609 0
M  V30 6572 H 608.912 -3.26425 2.58526 0
M  V30 6573 H 611.509 -5.30199 0.692293 0
M  V30 6574 H 611.852 -4.12614 -0.552718 0
M  V30 6575 H 612.385 -3.81772 1.11782 0
M  V30 6576 H 609.124 -5.46195 3.62424 0
M  V30 6577 H 608.644 -5.68048 1.92566 0
M  V30 6578 H 610.323 -5.99678 2.42889 0
M  V30 6579 N 610.455 -0.639598 -1.44038 0
M  V30 6580 C 611.418 0.0506628 -2.29144 0
M  V30 6581 C 612.418 0.764001 -1.41491 0
M  V30 6582 O 613.608 0.607309 -1.63271 0
M  V30 6583 C 610.74 1.0824 -3.2326 0
M  V30 6584 H 611.933 -0.697987 -2.91664 0
M  V30 6585 H 609.486 -0.400146 -1.51091 0
M  V30 6586 H 610.221 1.86075 -2.65606 0
M  V30 6587 H 610.006 0.574725 -3.87865 0
M  V30 6588 H 611.496 1.56487 -3.87171 0
M  V30 6589 N 611.933 1.52934 -0.380664 0
M  V30 6590 C 612.865 2.23822 0.493581 0
M  V30 6591 C 613.878 1.25761 1.03383 0
M  V30 6592 O 615.067 1.5189 0.937633 0
M  V30 6593 C 612.167 2.9342 1.69582 0
M  V30 6594 C 611.34 4.18115 1.28445 0
M  V30 6595 C 610.399 4.70788 2.35042 0
M  V30 6596 O 609.425 5.34093 1.96807 0
M  V30 6597 N 610.627 4.49899 3.66839 0
M  V30 6598 H 613.392 2.99484 -0.11371 0
M  V30 6599 H 610.953 1.60577 -0.206587 0
M  V30 6600 H 612.945 3.2556 2.40401 0
M  V30 6601 H 611.515 2.21119 2.20965 0
M  V30 6602 H 610.735 3.92109 0.405503 0
M  V30 6603 H 612.023 4.99152 0.986132 0
M  V30 6604 H 611.421 3.99349 4.0067 0
M  V30 6605 H 609.978 4.86551 4.33718 0
M  V30 6606 N 613.412 0.11024 1.57214 0
M  V30 6607 C 614.658 -0.550684 1.9518 0
M  V30 6608 C 614.991 -1.66885 0.993122 0
M  V30 6609 O 614.266 -1.94479 0.0287907 0
M  V30 6610 C 614.549 -1.09163 3.43155 0
M  V30 6611 C 614.402 0.0225198 4.49794 0
M  V30 6612 C 615.721 -1.98527 3.92778 0
M  V30 6613 H 612.84 -0.198706 0.709708 0
M  V30 6614 H 615.482 0.184024 1.89107 0
M  V30 6615 H 613.632 -1.71775 3.48462 0
M  V30 6616 H 615.304 0.657443 4.56591 0
M  V30 6617 H 613.547 0.686868 4.28328 0
M  V30 6618 H 614.218 -0.39706 5.5057 0
M  V30 6619 H 616.694 -1.458 3.8972 0
M  V30 6620 H 615.57 -2.33298 4.96853 0
M  V30 6621 H 615.831 -2.90846 3.32958 0
M  V30 6622 N 614.89 -1.56749 -0.16351 0
M  V30 6623 C 615.838 -1.97939 -1.22159 0
M  V30 6624 C 616.832 -0.869288 -1.45395 0
M  V30 6625 O 618.038 -1.05443 -1.45883 0
M  V30 6626 H 614.413 -0.629869 -0.410815 0
M  V30 6627 H 616.384 -2.86115 -0.847381 0
M  V30 6628 C 615.133 -2.36206 -2.55151 0
M  V30 6629 H 614.456 -3.2117 -2.38097 0
M  V30 6630 H 615.896 -2.68863 -3.27854 0
M  V30 6631 C 614.355 -1.20841 -3.14482 0
M  V30 6632 O 614.885 -0.500258 -3.98573 0
M  V30 6633 N 613.091 -0.976943 -2.73686 0
M  V30 6634 H 612.638 -1.55457 -2.05404 0
M  V30 6635 H 612.596 -0.206912 -3.13718 0
M  V30 6636 N 616.368 0.432326 -1.51554 0
M  V30 6637 C 617.316 1.54572 -1.73811 0
M  V30 6638 C 618.31 1.58246 -0.604539 0
M  V30 6639 O 619.516 1.6193 -0.786041 0
M  V30 6640 H 615.891 0.513626 -0.549265 0
M  V30 6641 H 617.862 1.32977 -2.67132 0
M  V30 6642 C 616.611 2.92181 -1.88483 0
M  V30 6643 H 615.934 2.90088 -2.75116 0
M  V30 6644 H 617.374 3.69439 -2.08065 0
M  V30 6645 C 615.833 3.3065 -0.645909 0
M  V30 6646 O 616.363 4.01216 0.197093 0
M  V30 6647 N 614.569 2.86464 -0.488538 0
M  V30 6648 H 614.116 2.29209 -1.17562 0
M  V30 6649 H 614.074 3.12565 0.339156 0
M  V30 6650 N 617.846 1.41785 0.688094 0
M  V30 6651 C 619.093 1.41544 1.44816 0
M  V30 6652 C 619.421 0.0271746 1.94481 0
M  V30 6653 O 618.676 -0.962235 1.7041 0
M  V30 6654 C 618.975 2.37532 2.67046 0
M  V30 6655 C 618.641 3.84209 2.35996 0
M  V30 6656 C 617.303 4.24165 2.27239 0
M  V30 6657 C 619.655 4.76785 2.10536 0
M  V30 6658 C 616.983 5.54695 1.91128 0
M  V30 6659 C 619.335 6.07644 1.75931 0
M  V30 6660 C 617.999 6.46613 1.65675 0
M  V30 6661 H 617.269 0.517945 0.529919 0
M  V30 6662 H 619.916 1.74635 0.785797 0
M  V30 6663 H 618.221 1.9772 3.38251 0
M  V30 6664 H 619.918 2.34615 3.25203 0
M  V30 6665 H 616.508 3.52567 2.4371 0
M  V30 6666 H 620.692 4.46714 2.16242 0
M  V30 6667 H 615.948 5.83762 1.81746 0
M  V30 6668 H 620.122 6.78874 1.55252 0
M  V30 6669 H 617.749 7.47668 1.37463 0
M  V30 6670 N 619.324 -0.923095 1.27737 0
M  V30 6671 C 620.234 -2.05765 1.12685 0
M  V30 6672 C 621.25 -1.73911 0.0557197 0
M  V30 6673 O 622.426 -1.99674 0.263137 0
M  V30 6674 C 619.491 -3.37804 0.780363 0
M  V30 6675 C 618.552 -3.83326 1.93286 0
M  V30 6676 C 617.785 -5.09064 1.60281 0
M  V30 6677 O 618.008 -5.6809 0.512828 0
M  V30 6678 O 616.942 -5.50071 2.44347 0
M  V30 6679 H 620.768 -2.21378 2.07907 0
M  V30 6680 H 618.353 -1.04299 1.06968 0
M  V30 6681 H 620.235 -4.17097 0.600668 0
M  V30 6682 H 618.91 -3.23387 -0.142291 0
M  V30 6683 H 617.817 -3.049 2.16764 0
M  V30 6684 H 619.15 -4.02292 2.83588 0
M  V30 6685 N 620.802 -1.09834 -1.13024 0
M  V30 6686 C 621.732 -0.763451 -2.20666 0
M  V30 6687 C 622.713 0.260778 -1.68089 0
M  V30 6688 O 623.898 0.127915 -1.93778 0
M  V30 6689 C 621.028 -0.187744 -3.46792 0
M  V30 6690 C 619.982 -1.14196 -4.12484 0
M  V30 6691 C 619.308 -0.427755 -5.32986 0
M  V30 6692 C 620.608 -2.48607 -4.59338 0
M  V30 6693 H 622.302 -1.66347 -2.48936 0
M  V30 6694 H 619.848 -0.801261 -1.19649 0
M  V30 6695 H 621.801 0.0586375 -4.21359 0
M  V30 6696 H 620.525 0.747485 -3.17931 0
M  V30 6697 H 619.184 -1.37369 -3.3989 0
M  V30 6698 H 618.832 0.511747 -5.0039 0
M  V30 6699 H 618.532 -1.06403 -5.77886 0
M  V30 6700 H 620.056 -0.189772 -6.10305 0
M  V30 6701 H 621.47 -2.29618 -5.25308 0
M  V30 6702 H 619.867 -3.08062 -5.14993 0
M  V30 6703 H 620.937 -3.09062 -3.73642 0
M  V30 6704 N 622.28 1.30327 -0.886154 0
M  V30 6705 C 623.228 2.30052 -0.343317 0
M  V30 6706 C 624.222 1.60212 0.550305 0
M  V30 6707 O 625.428 1.74674 0.434609 0
M  V30 6708 H 621.803 0.746306 -0.0923681 0
M  V30 6709 H 623.774 2.73294 -1.19804 0
M  V30 6710 C 622.523 3.45079 0.426107 0
M  V30 6711 H 621.846 3.99003 -0.25227 0
M  V30 6712 H 623.286 4.16931 0.771009 0
M  V30 6713 C 621.745 2.95195 1.62363 0
M  V30 6714 O 622.275 2.95323 2.723 0
M  V30 6715 N 620.481 2.51192 1.4612 0
M  V30 6716 H 620.028 2.51286 0.566832 0
M  V30 6717 H 619.986 2.18173 2.2638 0
M  V30 6718 N 623.758 0.647228 1.43697 0
M  V30 6719 C 625.005 0.158188 2.01881 0
M  V30 6720 C 625.333 -1.22573 1.51017 0
M  V30 6721 O 624.588 -1.83086 0.69122 0
M  V30 6722 C 624.887 0.111481 3.57226 0
M  V30 6723 C 624.553 1.43633 4.27411 0
M  V30 6724 C 623.215 1.79915 4.463 0
M  V30 6725 C 625.567 2.31011 4.67208 0
M  V30 6726 C 622.895 3.03251 5.02251 0
M  V30 6727 C 625.247 3.53633 5.24525 0
M  V30 6728 C 623.911 3.90118 5.41631 0
M  V30 6729 H 623.181 0.0578851 0.738736 0
M  V30 6730 H 625.828 0.836746 1.72252 0
M  V30 6731 H 624.133 -0.650507 3.86362 0
M  V30 6732 H 625.83 -0.283682 3.99995 0
M  V30 6733 H 622.42 1.14403 4.1305 0
M  V30 6734 H 626.604 2.04272 4.52313 0
M  V30 6735 H 621.86 3.31575 5.13681 0
M  V30 6736 H 626.034 4.21561 5.5431 0
M  V30 6737 H 623.661 4.85768 5.84751 0
M  V30 6738 N 625.236 -1.5273 0.388769 0
M  V30 6739 C 626.484 -2.01174 -0.193208 0
M  V30 6740 C 626.805 -1.27705 -1.47365 0
M  V30 6741 O 626.075 -0.396966 -1.91836 0
M  V30 6742 H 624.655 -0.743287 -0.0743871 0
M  V30 6743 H 627.317 -1.87826 0.520336 0
M  V30 6744 H 626.413 -3.09477 -0.403803 0
M  V30 6745 N 626.714 -0.118576 -1.57153 0
M  V30 6746 C 627.646 0.862247 -2.12363 0
M  V30 6747 C 628.659 1.23025 -1.06625 0
M  V30 6748 O 629.848 1.17927 -1.33998 0
M  V30 6749 C 626.948 2.16425 -2.60794 0
M  V30 6750 C 626.121 1.96801 -3.90626 0
M  V30 6751 C 625.18 3.10726 -4.2466 0
M  V30 6752 O 624.206 2.83659 -4.93484 0
M  V30 6753 N 625.408 4.37147 -3.81946 0
M  V30 6754 H 628.173 0.390564 -2.97144 0
M  V30 6755 H 625.734 0.0658591 -1.61766 0
M  V30 6756 H 627.726 2.91633 -2.80593 0
M  V30 6757 H 626.296 2.54943 -1.80895 0
M  V30 6758 H 625.516 1.05787 -3.7974 0
M  V30 6759 H 626.804 1.80993 -4.7552 0
M  V30 6760 H 626.202 4.62014 -3.26435 0
M  V30 6761 H 624.759 5.09229 -4.06853 0
M  V30 6762 N 628.193 1.56834 0.155195 0
M  V30 6763 C 629.442 1.82088 0.867567 0
M  V30 6764 C 629.755 0.69849 1.82703 0
M  V30 6765 O 630.961 0.836407 2.58295 0
M  V30 6766 C 629.417 3.22707 1.59336 0
M  V30 6767 C 629.025 4.42859 0.676719 0
M  V30 6768 C 630.769 3.57242 2.293 0
M  V30 6769 C 628.676 5.74501 1.40367 0
M  V30 6770 H 627.606 0.679057 0.327715 0
M  V30 6771 H 630.257 1.83105 0.120351 0
M  V30 6772 H 628.639 3.16054 2.38591 0
M  V30 6773 H 629.813 4.60731 -0.0800196 0
M  V30 6774 H 628.128 4.16311 0.0859129 0
M  V30 6775 H 630.725 4.52847 2.84312 0
M  V30 6776 H 631.068 2.82901 3.05406 0
M  V30 6777 H 631.601 3.6552 1.56972 0
M  V30 6778 H 628.34 6.51915 0.684623 0
M  V30 6779 H 627.86 5.60579 2.13332 0
M  V30 6780 H 629.539 6.17016 1.94681 0
M  V30 6781 N 629.671 -0.424282 1.51781 0
M  V30 6782 C 630.92 -1.16961 1.64326 0
M  V30 6783 C 631.233 -1.92035 0.371749 0
M  V30 6784 O 632.439 -2.68873 0.37676 0
M  V30 6785 C 630.895 -2.12782 2.90262 0
M  V30 6786 C 630.503 -1.43295 4.24465 0
M  V30 6787 C 632.247 -2.87667 3.12166 0
M  V30 6788 C 630.154 -2.37676 5.41538 0
M  V30 6789 H 629.084 -0.440293 0.612093 0
M  V30 6790 H 631.735 -0.435431 1.78259 0
M  V30 6791 H 630.117 -2.8969 2.69992 0
M  V30 6792 H 631.291 -0.718564 4.55163 0
M  V30 6793 H 629.606 -0.805118 4.08542 0
M  V30 6794 H 632.203 -3.58395 3.96808 0
M  V30 6795 H 632.546 -3.49758 2.25776 0
M  V30 6796 H 633.079 -2.17863 3.32837 0
M  V30 6797 H 629.818 -1.80255 6.30229 0
M  V30 6798 H 629.338 -3.07132 5.15199 0
M  V30 6799 H 631.017 -2.98529 5.74012 0
M  V30 6800 N 631.149 -1.42148 -0.680565 0
M  V30 6801 C 632.377 -1.45696 -1.46902 0
M  V30 6802 C 632.792 -0.0665858 -1.88683 0
M  V30 6803 O 632.149 0.917436 -1.57764 0
M  V30 6804 C 632.2 -2.37898 -2.72188 0
M  V30 6805 O 631.921 -3.71526 -2.32163 0
M  V30 6806 C 633.422 -2.50407 -3.65802 0
M  V30 6807 H 630.642 -0.495729 -0.45221 0
M  V30 6808 H 633.186 -1.866 -0.836709 0
M  V30 6809 H 631.341 -2.00263 -3.31622 0
M  V30 6810 H 631.755 -4.20849 -3.13027 0
M  V30 6811 H 633.229 -3.19056 -4.50452 0
M  V30 6812 H 633.706 -1.5401 -4.11312 0
M  V30 6813 H 634.312 -2.8874 -3.12265 0
M  V30 6814 N 632.627 0.916307 -1.28225 0
M  V30 6815 C 633.876 1.65975 -1.14608 0
M  V30 6816 C 634.189 1.93204 0.305191 0
M  V30 6817 O 635.395 2.65611 0.562432 0
M  V30 6818 C 633.851 2.98989 -2.00333 0
M  V30 6819 C 633.459 2.79417 -3.50186 0
M  V30 6820 C 635.203 3.76856 -1.95397 0
M  V30 6821 C 633.11 4.08056 -4.28071 0
M  V30 6822 H 632.04 0.622587 -0.425324 0
M  V30 6823 H 634.691 1.01705 -1.52736 0
M  V30 6824 H 633.073 3.6438 -1.5506 0
M  V30 6825 H 634.247 2.22723 -4.034 0
M  V30 6826 H 632.562 2.14966 -3.56621 0
M  V30 6827 H 635.159 4.72203 -2.50856 0
M  V30 6828 H 635.502 4.05776 -0.930137 0
M  V30 6829 H 636.035 3.1828 -2.38626 0
M  V30 6830 H 632.774 3.8431 -5.31024 0
M  V30 6831 H 632.294 4.64371 -3.79631 0
M  V30 6832 H 633.973 4.76333 -4.37854 0
M  V30 6833 N 634.105 1.10431 1.1244 0
M  V30 6834 C 635.33 0.869089 1.88313 0
M  V30 6835 C 635.755 -0.574912 1.79099 0
M  V30 6836 O 635.113 -1.40496 1.14589 0
M  V30 6837 C 635.161 1.32208 3.3549 0
M  V30 6838 O 634.265 0.487092 4.09513 0
M  V30 6839 H 633.606 0.313894 0.585121 0
M  V30 6840 H 636.136 1.47111 1.42195 0
M  V30 6841 H 636.146 1.31201 3.86329 0
M  V30 6842 H 634.821 2.37364 3.41513 0
M  V30 6843 H 633.398 0.562372 3.68635 0
M  V30 6844 N 635.583 -1.29855 0.893053 0
M  V30 6845 C 636.832 -1.95104 0.511597 0
M  V30 6846 C 637.145 -1.71226 -0.945567 0
M  V30 6847 O 638.351 -2.30525 -1.43424 0
M  V30 6848 C 636.807 -3.49374 0.864034 0
M  V30 6849 C 636.415 -3.82061 2.33952 0
M  V30 6850 C 638.159 -4.20894 0.552167 0
M  V30 6851 C 636.066 -5.29546 2.63316 0
M  V30 6852 H 634.996 -0.73029 0.187597 0
M  V30 6853 H 637.647 -1.47682 1.08914 0
M  V30 6854 H 636.029 -3.95413 0.215493 0
M  V30 6855 H 637.203 -3.46904 3.03305 0
M  V30 6856 H 635.518 -3.23665 2.61973 0
M  V30 6857 H 638.115 -5.29435 0.748489 0
M  V30 6858 H 638.458 -4.13178 -0.508924 0
M  V30 6859 H 638.991 -3.80564 1.15825 0
M  V30 6860 H 635.73 -5.4232 3.68197 0
M  V30 6861 H 635.25 -5.65974 1.9858 0
M  V30 6862 H 636.929 -5.97068 2.49236 0
M  V30 6863 N 637.061 -0.65484 -1.43351 0
M  V30 6864 C 638.289 -0.176685 -2.06144 0
M  V30 6865 C 638.704 1.15831 -1.49093 0
M  V30 6866 O 638.061 1.71542 -0.622868 0
M  V30 6867 C 638.112 -0.0813326 -3.61408 0
M  V30 6868 O 637.833 -1.36355 -4.1634 0
M  V30 6869 C 639.334 0.422706 -4.4128 0
M  V30 6870 H 636.554 -0.0906429 -0.66485 0
M  V30 6871 H 639.098 -0.895945 -1.83829 0
M  V30 6872 H 637.253 0.588496 -3.82904 0
M  V30 6873 H 637.667 -1.22381 -5.10023 0
M  V30 6874 H 639.141 0.438375 -5.50257 0
M  V30 6875 H 639.618 1.45432 -4.14423 0
M  V30 6876 H 640.224 -0.214687 -4.24758 0
M  V30 6877 N 638.539 1.52521 -0.396863 0
M  V30 6878 C 639.502 2.2527 0.422604 0
M  V30 6879 C 640.502 1.27184 0.983913 0
M  V30 6880 O 641.692 1.51222 0.864723 0
M  V30 6881 C 638.824 3.01356 1.59365 0
M  V30 6882 H 640.017 2.99133 -0.214416 0
M  V30 6883 H 637.57 1.55587 -0.149128 0
M  V30 6884 H 638.305 2.31813 2.26789 0
M  V30 6885 H 638.09 3.73357 1.19779 0
M  V30 6886 H 639.58 3.56571 2.17363 0
M  V30 6887 N 640.017 0.126909 1.57088 0
M  V30 6888 C 641.245 -0.53667 1.99819 0
M  V30 6889 C 641.66 -1.5972 1.00673 0
M  V30 6890 O 641.017 -1.825 0.000747365 0
M  V30 6891 C 641.068 -1.15563 3.42531 0
M  V30 6892 O 640.789 -0.137483 4.37884 0
M  V30 6893 C 642.29 -1.90176 4.00435 0
M  V30 6894 H 639.51 -0.141443 0.655923 0
M  V30 6895 H 642.054 0.215578 2.03361 0
M  V30 6896 H 640.209 -1.85861 3.39904 0
M  V30 6897 H 640.623 -0.588229 5.21191 0
M  V30 6898 H 642.097 -2.28801 5.02349 0
M  V30 6899 H 642.574 -2.78002 3.40017 0
M  V30 6900 H 643.18 -1.24623 4.06632 0
M  V30 6901 N 641.495 -1.56914 -0.146875 0
M  V30 6902 C 642.458 -1.97368 -1.16526 0
M  V30 6903 C 643.458 -0.860223 -1.35856 0
M  V30 6904 O 644.648 -1.12684 -1.32846 0
M  V30 6905 C 641.78 -2.28974 -2.52555 0
M  V30 6906 H 642.973 -2.88523 -0.818209 0
M  V30 6907 H 640.526 -1.5135 -0.390221 0
M  V30 6908 H 641.261 -1.40611 -2.92231 0
M  V30 6909 H 641.046 -3.10157 -2.39886 0
M  V30 6910 H 642.536 -2.61109 -3.25902 0
M  V30 6911 N 642.974 0.416227 -1.52004 0
M  V30 6912 C 643.937 1.48926 -1.74223 0
M  V30 6913 C 644.937 1.48693 -0.612119 0
M  V30 6914 O 646.127 1.50343 -0.879921 0
M  V30 6915 C 643.259 2.88372 -1.81809 0
M  V30 6916 H 644.452 1.3052 -2.70008 0
M  V30 6917 H 642.005 0.646271 -1.42313 0
M  V30 6918 H 642.74 3.12157 -0.879135 0
M  V30 6919 H 642.525 2.89944 -2.6396 0
M  V30 6920 H 644.015 3.66173 -2.00766 0
M  V30 6921 N 644.452 1.42507 0.673017 0
M  V30 6922 C 645.677 1.4668 1.46627 0
M  V30 6923 C 646.102 0.080066 1.8793 0
M  V30 6924 O 645.46 -0.921879 1.56112 0
M  V30 6925 C 645.508 2.40091 2.69051 0
M  V30 6926 O 644.612 1.8735 3.67387 0
M  V30 6927 H 643.953 0.496908 0.44043 0
M  V30 6928 H 646.483 1.87215 0.825334 0
M  V30 6929 H 646.493 2.56731 3.17101 0
M  V30 6930 H 645.168 3.4084 2.3833 0
M  V30 6931 H 643.745 1.80274 3.26429 0
M  V30 6932 N 645.93 -0.909495 1.28709 0
M  V30 6933 C 647.179 -1.65365 1.15487 0
M  V30 6934 C 647.492 -1.93364 -0.294941 0
M  V30 6935 O 648.698 -2.65905 -0.548338 0
M  V30 6936 C 647.154 -2.97923 2.01916 0
M  V30 6937 C 646.762 -2.77556 3.51663 0
M  V30 6938 C 648.506 -3.75814 1.97393 0
M  V30 6939 C 646.413 -4.0578 4.30229 0
M  V30 6940 H 645.343 -0.620323 0.42862 0
M  V30 6941 H 647.994 -1.00894 1.53273 0
M  V30 6942 H 646.376 -3.63552 1.5699 0
M  V30 6943 H 647.55 -2.2058 4.04575 0
M  V30 6944 H 645.865 -2.13072 3.57756 0
M  V30 6945 H 648.462 -4.70866 2.53357 0
M  V30 6946 H 648.805 -4.05277 0.951643 0
M  V30 6947 H 649.338 -3.1701 2.40311 0
M  V30 6948 H 646.077 -3.81488 5.33055 0
M  V30 6949 H 645.597 -4.62351 3.82089 0
M  V30 6950 H 647.276 -4.74004 4.40374 0
M  V30 6951 N 647.408 -1.11026 -1.11852 0
M  V30 6952 C 648.656 -0.854769 -1.83134 0
M  V30 6953 C 648.977 0.621375 -1.84835 0
M  V30 6954 O 648.247 1.45129 -1.31584 0
M  V30 6955 H 646.827 -0.313229 -0.678157 0
M  V30 6956 H 649.489 -1.40178 -1.35411 0
M  V30 6957 H 648.585 -1.22311 -2.87135 0
M  V30 6958 N 648.886 1.2938 -0.899927 0
M  V30 6959 C 649.849 2.25983 -0.382677 0
M  V30 6960 C 650.849 1.53366 0.483259 0
M  V30 6961 O 652.039 1.71798 0.28828 0
M  V30 6962 C 649.171 3.37878 0.452915 0
M  V30 6963 H 650.364 2.73252 -1.23586 0
M  V30 6964 H 647.917 1.40825 -0.678088 0
M  V30 6965 H 648.652 2.95949 1.32608 0
M  V30 6966 H 648.437 3.91742 -0.167562 0
M  V30 6967 H 649.927 4.09746 0.806107 0
M  V30 6968 N 650.364 0.662433 1.43002 0
M  V30 6969 C 651.327 -0.0142016 2.29196 0
M  V30 6970 C 652.327 -0.741394 1.42688 0
M  V30 6971 O 653.517 -0.581257 1.64216 0
M  V30 6972 C 650.649 -1.03084 3.24941 0
M  V30 6973 H 651.842 0.7443 2.90517 0
M  V30 6974 H 649.395 0.424133 1.50435 0
M  V30 6975 H 650.13 -1.81826 2.68533 0
M  V30 6976 H 649.915 -0.512946 3.8873 0
M  V30 6977 H 651.405 -1.50308 3.89612 0
M  V30 6978 N 651.842 -1.52309 0.404946 0
M  V30 6979 C 653.09 -2.01368 -0.17186 0
M  V30 6980 C 653.411 -1.29261 -1.46002 0
M  V30 6981 O 652.681 -0.41729 -1.91404 0
M  V30 6982 H 651.261 -0.744034 -0.0664993 0
M  V30 6983 H 653.923 -1.87263 0.540228 0
M  V30 6984 H 653.019 -3.09888 -0.370957 0
M  V30 6985 N 653.32 -0.135238 -1.57019 0
M  V30 6986 C 654.569 0.518694 -1.94917 0
M  V30 6987 C 654.882 1.66783 -1.0219 0
M  V30 6988 O 656.088 2.38561 -1.29619 0
M  V30 6989 C 654.544 0.974123 -3.46466 0
M  V30 6990 C 654.152 -0.147439 -4.47757 0
M  V30 6991 C 655.896 1.59851 -3.93253 0
M  V30 6992 C 653.803 0.325599 -5.90503 0
M  V30 6993 H 652.733 0.19754 -0.727663 0
M  V30 6994 H 655.384 -0.217698 -1.82204 0
M  V30 6995 H 653.766 1.76542 -3.5447 0
M  V30 6996 H 654.94 -0.924122 -4.51438 0
M  V30 6997 H 653.255 -0.679496 -4.10818 0
M  V30 6998 H 655.852 1.96385 -4.9733 0
M  V30 6999 H 656.195 2.48306 -3.3414 0
M  V30 7000 H 656.728 0.872323 -3.88118 0
M  V30 7001 H 653.467 -0.523295 -6.53408 0
M  V30 7002 H 652.987 1.06841 -5.90208 0
M  V30 7003 H 654.666 0.781498 -6.42263 0
M  V30 7004 N 654.798 1.5699 0.138552 0
M  V30 7005 C 656.209 1.73171 0.697754 0
M  V30 7006 C 656.56 0.750952 1.8126 0
M  V30 7007 O 655.685 -0.080549 2.1625 0
M  V30 7008 C 656.28 3.13996 1.27248 0
M  V30 7009 C 654.839 3.3175 1.77816 0
M  V30 7010 C 653.986 2.69084 0.669991 0
M  V30 7011 H 656.937 1.5846 -0.0871979 0
M  V30 7012 H 656.958 3.14463 2.14227 0
M  V30 7013 H 656.47 3.85354 0.460855 0
M  V30 7014 H 654.571 2.65403 2.61519 0
M  V30 7015 H 654.684 4.39768 1.90107 0
M  V30 7016 H 653.048 2.29782 1.09874 0
M  V30 7017 H 653.831 3.43053 -0.130329 0
M  V30 7018 N 656.276 -0.40816 1.52223 0
M  V30 7019 C 657.208 -1.51642 1.71864 0
M  V30 7020 C 658.221 -1.51378 0.599056 0
M  V30 7021 O 659.41 -1.55626 0.874239 0
M  V30 7022 C 656.51 -2.90534 1.74481 0
M  V30 7023 C 655.683 -3.14979 3.03491 0
M  V30 7024 C 654.742 -4.33749 2.97907 0
M  V30 7025 O 653.768 -4.30982 3.71811 0
M  V30 7026 N 654.97 -5.38912 2.15764 0
M  V30 7027 H 657.735 -1.35188 2.67478 0
M  V30 7028 H 655.296 -0.597468 1.50472 0
M  V30 7029 H 657.288 -3.68056 1.68275 0
M  V30 7030 H 655.858 -3.00441 0.863363 0
M  V30 7031 H 655.078 -2.25492 3.23337 0
M  V30 7032 H 656.366 -3.28156 3.88833 0
M  V30 7033 H 655.764 -5.44008 1.55152 0
M  V30 7034 H 654.321 -6.15174 2.15415 0
M  V30 7035 N 657.755 -1.42862 -0.66545 0
M  V30 7036 C 658.718 -1.46756 -1.76055 0
M  V30 7037 C 659.718 -0.353866 -1.56858 0
M  V30 7038 O 660.908 -0.615099 -1.62979 0
M  V30 7039 C 658.04 -1.30829 -3.14796 0
M  V30 7040 H 659.233 -2.44271 -1.73987 0
M  V30 7041 H 656.786 -1.29447 -0.875965 0
M  V30 7042 H 657.521 -0.342733 -3.22484 0
M  V30 7043 H 657.306 -2.11551 -3.30134 0
M  V30 7044 H 658.796 -1.36458 -3.94676 0
M  V30 7045 N 659.233 0.902656 -1.29189 0
M  V30 7046 C 660.481 1.6496 -1.16758 0
M  V30 7047 C 660.802 1.92952 0.28188 0
M  V30 7048 O 660.072 1.55351 1.19344 0
M  V30 7049 H 658.652 0.611447 -0.429118 0
M  V30 7050 H 661.314 1.0825 -1.62074 0
M  V30 7051 H 660.41 2.60728 -1.71544 0
M  V30 7052 N 660.711 1.11618 1.11262 0
M  V30 7053 C 661.641 0.79846 2.19424 0
M  V30 7054 C 662.622 -0.234003 1.68483 0
M  V30 7055 O 663.807 -0.0970704 1.93957 0
M  V30 7056 C 660.937 0.242892 3.4645 0
M  V30 7057 C 659.891 1.20744 4.10615 0
M  V30 7058 C 659.217 0.512494 5.32238 0
M  V30 7059 C 660.517 2.55884 4.55325 0
M  V30 7060 H 662.211 1.70286 2.46258 0
M  V30 7061 H 659.757 0.820195 1.18359 0
M  V30 7062 H 661.71 0.00840447 4.21399 0
M  V30 7063 H 660.434 -0.696811 3.1908 0
M  V30 7064 H 659.093 1.42759 3.37662 0
M  V30 7065 H 658.741 -0.432075 5.01141 0
M  V30 7066 H 658.441 1.15583 5.7612 0
M  V30 7067 H 659.965 0.286842 6.09926 0
M  V30 7068 H 661.379 2.37946 5.21588 0
M  V30 7069 H 659.776 3.16216 5.10027 0
M  V30 7070 H 660.846 3.14968 3.68678 0
M  V30 7071 N 662.189 -1.289 0.906776 0
M  V30 7072 C 663.435 -1.95558 0.53712 0
M  V30 7073 C 663.768 -1.71262 -0.915582 0
M  V30 7074 O 663.043 -1.02961 -1.65013 0
M  V30 7075 C 663.326 -3.50198 0.838645 0
M  V30 7076 C 663.179 -3.83923 2.34357 0
M  V30 7077 C 664.498 -4.38861 0.329988 0
M  V30 7078 H 661.617 -0.710289 0.196617 0
M  V30 7079 H 664.259 -1.52392 1.13475 0
M  V30 7080 H 662.409 -3.87096 0.330024 0
M  V30 7081 H 664.081 -3.56933 2.92227 0
M  V30 7082 H 662.324 -3.31215 2.80141 0
M  V30 7083 H 662.995 -4.91883 2.5051 0
M  V30 7084 H 665.471 -4.08996 0.765609 0
M  V30 7085 H 664.347 -5.45931 0.570105 0
M  V30 7086 H 664.608 -4.35352 -0.769511 0
M  V30 7087 N 663.667 -0.670007 -1.42649 0
M  V30 7088 C 664.895 -0.19854 -2.05945 0
M  V30 7089 C 665.31 1.14243 -1.50313 0
M  V30 7090 O 664.667 1.70872 -0.641027 0
M  V30 7091 C 664.718 -0.11966 -3.61302 0
M  V30 7092 O 664.439 -1.40764 -4.1487 0
M  V30 7093 C 665.94 0.375878 -4.41704 0
M  V30 7094 H 663.16 -0.0976894 -0.663851 0
M  V30 7095 H 665.704 -0.915392 -1.82868 0
M  V30 7096 H 663.859 0.547851 -3.83507 0
M  V30 7097 H 664.273 -1.27784 -5.08696 0
M  V30 7098 H 665.747 0.379988 -5.50691 0
M  V30 7099 H 666.224 1.41028 -4.15942 0
M  V30 7100 H 666.83 -0.259727 -4.24506 0
M  V30 7101 N 665.145 1.52092 -0.413018 0
M  V30 7102 C 666.078 2.23613 0.455234 0
M  V30 7103 C 667.056 1.2459 1.04481 0
M  V30 7104 O 668.24 1.53653 1.09193 0
M  V30 7105 C 665.367 2.96775 1.63224 0
M  V30 7106 C 664.413 4.10261 1.16568 0
M  V30 7107 S 665.246 5.35348 0.127633 0
M  V30 7108 C 666.402 6.1204 1.30987 0
M  V30 7109 H 666.635 2.96911 -0.152042 0
M  V30 7110 H 664.168 1.53134 -0.197343 0
M  V30 7111 H 666.126 3.39532 2.30713 0
M  V30 7112 H 664.787 2.23113 2.21087 0
M  V30 7113 H 663.98 4.6064 2.04515 0
M  V30 7114 H 663.582 3.6964 0.569386 0
M  V30 7115 H 665.874 6.39651 2.23276 0
M  V30 7116 H 666.817 7.03022 0.846533 0
M  V30 7117 H 667.225 5.43161 1.53743 0
M  V30 7118 N 666.623 0.143563 1.56945 0
M  V30 7119 C 667.869 -0.50916 1.96304 0
M  V30 7120 C 668.202 -1.64741 1.0283 0
M  V30 7121 O 667.477 -1.94374 0.0700361 0
M  V30 7122 C 667.76 -1.0186 3.45393 0
M  V30 7123 C 667.613 0.117923 4.49645 0
M  V30 7124 C 668.932 -1.90151 3.96901 0
M  V30 7125 H 666.051 -0.183608 0.713763 0
M  V30 7126 H 668.693 0.224095 1.88674 0
M  V30 7127 H 666.843 -1.64345 3.52027 0
M  V30 7128 H 668.515 0.754145 4.55094 0
M  V30 7129 H 666.758 0.777568 4.26774 0
M  V30 7130 H 667.429 -0.280187 5.51288 0
M  V30 7131 H 669.905 -1.375 3.92725 0
M  V30 7132 H 668.781 -2.22707 5.0169 0
M  V30 7133 H 669.042 -2.83718 3.39052 0
M  V30 7134 N 668.101 -1.57061 -0.130224 0
M  V30 7135 C 669.35 -1.83446 -0.838488 0
M  V30 7136 C 669.663 -0.727468 -1.81569 0
M  V30 7137 O 670.869 -0.877394 -2.56932 0
M  V30 7138 C 669.325 -3.25201 -1.54182 0
M  V30 7139 C 668.933 -4.4388 -0.606178 0
M  V30 7140 C 670.677 -3.60844 -2.23588 0
M  V30 7141 C 668.584 -5.76661 -1.31209 0
M  V30 7142 H 667.514 -0.684185 -0.316871 0
M  V30 7143 H 670.165 -1.83273 -0.0912059 0
M  V30 7144 H 668.547 -3.1981 -2.33533 0
M  V30 7145 H 669.721 -4.60545 0.153308 0
M  V30 7146 H 668.036 -4.16395 -0.0196705 0
M  V30 7147 H 670.633 -4.57313 -2.77072 0
M  V30 7148 H 670.976 -2.87724 -3.00867 0
M  V30 7149 H 671.509 -3.67971 -1.51137 0
M  V30 7150 H 668.248 -6.52922 -0.580823 0
M  V30 7151 H 667.768 -5.63902 -2.04387 0
M  V30 7152 H 669.447 -6.20035 -1.8484 0
M  V30 7153 N 669.579 0.400081 -1.52437 0
M  V30 7154 C 670.825 1.14788 -1.67187 0
M  V30 7155 C 671.158 1.89928 -0.405074 0
M  V30 7156 O 670.433 1.85118 0.596804 0
M  V30 7157 C 670.716 2.13507 -2.89977 0
M  V30 7158 C 670.569 1.42204 -4.2673 0
M  V30 7159 C 671.888 3.14069 -3.083 0
M  V30 7160 H 669.007 0.415939 -0.608411 0
M  V30 7161 H 671.649 0.432542 -1.85011 0
M  V30 7162 H 669.799 2.7451 -2.74912 0
M  V30 7163 H 671.471 0.842503 -4.53541 0
M  V30 7164 H 669.714 0.723939 -4.27717 0
M  V30 7165 H 670.385 2.14281 -5.08712 0
M  V30 7166 H 672.861 2.63148 -3.22323 0
M  V30 7167 H 671.737 3.80398 -3.95713 0
M  V30 7168 H 671.998 3.82309 -2.22018 0
M  V30 7169 N 671.057 1.43213 0.657864 0
M  V30 7170 C 671.987 1.50815 1.78262 0
M  V30 7171 C 672.968 0.363211 1.66177 0
M  V30 7172 O 674.153 0.579806 1.85343 0
M  V30 7173 C 671.283 1.42625 3.16663 0
M  V30 7174 C 670.237 2.5532 3.43505 0
M  V30 7175 C 669.563 2.32184 4.81658 0
M  V30 7176 C 670.863 3.97583 3.38711 0
M  V30 7177 H 672.557 2.44954 1.72157 0
M  V30 7178 H 670.103 1.17896 0.82683 0
M  V30 7179 H 672.056 1.46548 3.95097 0
M  V30 7180 H 670.78 0.449877 3.23487 0
M  V30 7181 H 669.439 2.50742 2.6744 0
M  V30 7182 H 669.087 1.32801 4.85153 0
M  V30 7183 H 668.787 3.07724 5.00579 0
M  V30 7184 H 670.311 2.37883 5.62356 0
M  V30 7185 H 671.725 4.03673 4.07089 0
M  V30 7186 H 670.122 4.73112 3.69168 0
M  V30 7187 H 671.192 4.23049 2.36976 0
M  V30 7188 N 672.536 -0.895792 1.29666 0
M  V30 7189 C 673.764 -1.68001 1.20761 0
M  V30 7190 C 674.179 -1.87379 -0.231187 0
M  V30 7191 O 673.536 -1.41359 -1.15429 0
M  V30 7192 C 673.587 -3.06236 1.92098 0
M  V30 7193 O 673.308 -2.8774 3.30359 0
M  V30 7194 C 674.809 -4.00652 1.89717 0
M  V30 7195 H 672.029 -0.524591 0.418384 0
M  V30 7196 H 674.573 -1.11995 1.71106 0
M  V30 7197 H 672.728 -3.59007 1.45578 0
M  V30 7198 H 673.142 -3.75359 3.66342 0
M  V30 7199 H 674.616 -4.95051 2.44189 0
M  V30 7200 H 675.093 -4.30424 0.873595 0
M  V30 7201 H 675.699 -3.53815 2.35998 0
M  V30 7202 N 674.014 -1.12206 -1.10668 0
M  V30 7203 C 675.239 -0.898938 -1.86906 0
M  V30 7204 C 675.664 0.546346 -1.79991 0
M  V30 7205 O 675.022 1.38655 -1.1681 0
M  V30 7206 C 675.07 -1.37529 -3.33344 0
M  V30 7207 O 674.174 -0.55218 -4.08687 0
M  V30 7208 H 673.515 -0.323163 -0.580053 0
M  V30 7209 H 676.045 -1.49355 -1.39837 0
M  V30 7210 H 676.055 -1.3733 -3.84193 0
M  V30 7211 H 674.73 -2.42767 -3.37693 0
M  V30 7212 H 673.307 -0.620947 -3.67694 0
M  V30 7213 N 675.492 1.28418 -0.913599 0
M  V30 7214 C 676.738 1.9527 -0.547484 0
M  V30 7215 C 677.071 1.71745 0.906486 0
M  V30 7216 O 676.346 1.03834 1.64465 0
M  V30 7217 C 676.629 3.49748 -0.857205 0
M  V30 7218 C 676.482 3.82675 -2.3639 0
M  V30 7219 C 677.801 4.3868 -0.353258 0
M  V30 7220 H 674.92 0.709236 -0.200381 0
M  V30 7221 H 677.562 1.51789 -1.14281 0
M  V30 7222 H 675.712 3.86915 -0.350548 0
M  V30 7223 H 677.384 3.55378 -2.94116 0
M  V30 7224 H 675.627 3.29724 -2.81894 0
M  V30 7225 H 676.298 4.90547 -2.53115 0
M  V30 7226 H 678.774 4.08584 -0.787288 0
M  V30 7227 H 677.65 5.45621 -0.599049 0
M  V30 7228 H 677.911 4.35753 0.746413 0
M  V30 7229 N 676.97 0.677563 1.42291 0
M  V30 7230 C 678.218 0.200578 2.01102 0
M  V30 7231 C 678.539 -1.19803 1.53858 0
M  V30 7232 O 677.809 -1.80496 0.761439 0
M  V30 7233 H 676.389 0.0711634 0.743603 0
M  V30 7234 H 679.051 0.874691 1.7417 0
M  V30 7235 H 678.147 0.204 3.11433 0
M  V30 7236 N 678.448 -1.51871 0.421078 0
M  V30 7237 C 679.378 -2.30231 -0.389363 0
M  V30 7238 C 680.359 -1.34946 -1.03555 0
M  V30 7239 O 681.544 -1.63859 -1.04229 0
M  V30 7240 C 678.674 -3.13247 -1.49979 0
M  V30 7241 C 677.628 -4.16677 -0.977966 0
M  V30 7242 C 676.954 -4.88112 -2.1829 0
M  V30 7243 C 678.254 -5.22295 -0.0236775 0
M  V30 7244 H 679.948 -2.98229 0.264524 0
M  V30 7245 H 677.494 -1.43424 0.12866 0
M  V30 7246 H 679.447 -3.66838 -2.07383 0
M  V30 7247 H 678.171 -2.4304 -2.18173 0
M  V30 7248 H 676.83 -3.64114 -0.426245 0
M  V30 7249 H 676.478 -4.14423 -2.85066 0
M  V30 7250 H 676.178 -5.58041 -1.84021 0
M  V30 7251 H 677.702 -5.44521 -2.76278 0
M  V30 7252 H 679.116 -5.71055 -0.506899 0
M  V30 7253 H 677.513 -5.99656 0.230782 0
M  V30 7254 H 678.583 -4.76131 0.917999 0
M  V30 7255 N 679.926 -0.151884 -1.56866 0
M  V30 7256 C 681.337 0.368128 -1.83035 0
M  V30 7257 C 681.688 1.64402 -1.07082 0
M  V30 7258 O 680.813 2.14056 -0.317647 0
M  V30 7259 C 681.408 0.674676 -3.32014 0
M  V30 7260 C 679.967 1.13919 -3.58747 0
M  V30 7261 C 679.114 0.164833 -2.7681 0
M  V30 7262 H 682.065 -0.376499 -1.54169 0
M  V30 7263 H 682.086 1.52883 -3.48435 0
M  V30 7264 H 681.598 -0.254113 -3.87267 0
M  V30 7265 H 679.699 2.08375 -3.08886 0
M  V30 7266 H 679.812 1.06179 -4.67186 0
M  V30 7267 H 678.176 0.658419 -2.46043 0
M  V30 7268 H 678.959 -0.757633 -3.34836 0
M  V30 7269 N 681.404 1.57128 0.121893 0
M  V30 7270 C 682.632 1.88883 0.844451 0
M  V30 7271 C 683.047 0.742824 1.73573 0
M  V30 7272 O 682.404 -0.286475 1.80238 0
M  V30 7273 C 682.455 3.20076 1.68029 0
M  V30 7274 O 682.176 4.30264 0.824898 0
M  V30 7275 C 683.677 3.65515 2.50826 0
M  V30 7276 H 680.897 0.62549 0.242907 0
M  V30 7277 H 683.441 2.04219 0.107151 0
M  V30 7278 H 681.596 3.06418 2.37038 0
M  V30 7279 H 682.01 5.05439 1.40113 0
M  V30 7280 H 683.484 4.60081 3.05008 0
M  V30 7281 H 683.961 2.92029 3.28048 0
M  V30 7282 H 684.567 3.81952 1.87064 0
M  V30 7283 N 682.882 -0.391992 1.52647 0
M  V30 7284 C 684.159 -1.15136 1.58123 0
M  V30 7285 C 684.539 -2.07786 0.372597 0
M  V30 7286 O 683.887 -2.19374 -0.639304 0
M  V30 7287 C 684.097 -1.91367 2.91856 0
M  V30 7288 C 685.445 -2.46833 3.45483 0
M  V30 7289 O 686.469 -2.01527 2.9371 0
M  V30 7290 O 685.328 -3.29587 4.3593 0
M  V30 7291 H 682.422 -0.526649 0.637629 0
M  V30 7292 H 684.968 -0.397386 1.64982 0
M  V30 7293 H 683.74 -1.23597 3.71268 0
M  V30 7294 H 683.363 -2.73732 2.88369 0
M  V30 7295 N 684.36 -1.4356 -0.65026 0
M  V30 7296 C 685.637 -1.35811 -1.40765 0
M  V30 7297 C 686.017 -0.00736379 -2.11099 0
M  V30 7298 O 685.365 1.00932 -2.05 0
M  V30 7299 C 685.575 -2.54332 -2.3899 0
M  V30 7300 C 686.923 -2.97551 -3.02901 0
M  V30 7301 O 687.947 -2.544 -2.49317 0
M  V30 7302 O 686.806 -3.72311 -4.00059 0
M  V30 7303 H 683.9 -0.536861 -0.629054 0
M  V30 7304 H 686.446 -1.55615 -0.676919 0
M  V30 7305 H 685.218 -3.44274 -1.85986 0
M  V30 7306 H 684.841 -2.36643 -3.19509 0
M  V30 7307 N 685.838 0.888903 -1.30139 0
M  V30 7308 C 687.087 1.63507 -1.18103 0
M  V30 7309 C 687.4 1.93808 0.264141 0
M  V30 7310 O 688.606 2.66744 0.505966 0
M  V30 7311 C 687.062 2.94673 -2.0663 0
M  V30 7312 C 686.67 2.71926 -3.56034 0
M  V30 7313 C 688.414 3.72626 -2.03346 0
M  V30 7314 C 686.321 3.98884 -4.3663 0
M  V30 7315 H 685.251 0.613426 -0.438435 0
M  V30 7316 H 687.902 0.984427 -1.54859 0
M  V30 7317 H 686.284 3.61009 -1.62754 0
M  V30 7318 H 687.458 2.14116 -4.08033 0
M  V30 7319 H 685.773 2.07353 -3.61101 0
M  V30 7320 H 688.37 4.66775 -2.60816 0
M  V30 7321 H 688.713 4.03712 -1.016 0
M  V30 7322 H 689.246 3.13147 -2.45324 0
M  V30 7323 H 685.985 3.72959 -5.39056 0
M  V30 7324 H 685.505 4.56214 -3.89396 0
M  V30 7325 H 687.184 4.66938 -4.47859 0
M  V30 7326 N 687.317 1.12792 1.10072 0
M  V30 7327 C 688.545 0.908506 1.85886 0
M  V30 7328 C 688.96 -0.542408 1.80841 0
M  V30 7329 O 688.317 -1.37517 1.1998 0
M  V30 7330 C 688.368 1.37973 3.34134 0
M  V30 7331 O 688.089 2.77378 3.39106 0
M  V30 7332 C 689.59 1.1978 4.26811 0
M  V30 7333 H 686.81 0.3244 0.587372 0
M  V30 7334 H 689.354 1.49882 1.39125 0
M  V30 7335 H 687.509 0.832566 3.78348 0
M  V30 7336 H 687.923 2.98144 4.31521 0
M  V30 7337 H 689.397 1.57635 5.29014 0
M  V30 7338 H 689.874 0.138768 4.38981 0
M  V30 7339 H 690.48 1.73266 3.88406 0
M  V30 7340 N 688.795 -1.27931 0.920396 0
M  V30 7341 C 689.725 -2.29487 0.431024 0
M  V30 7342 C 690.706 -1.62435 -0.504861 0
M  V30 7343 O 691.891 -1.89797 -0.411176 0
M  V30 7344 C 689.021 -3.45788 -0.323709 0
M  V30 7345 C 687.975 -4.24784 0.523658 0
M  V30 7346 C 687.301 -5.33488 -0.359809 0
M  V30 7347 C 688.601 -4.90874 1.78437 0
M  V30 7348 H 690.295 -2.70671 1.27975 0
M  V30 7349 H 687.841 -1.30121 0.616813 0
M  V30 7350 H 689.794 -4.15927 -0.676952 0
M  V30 7351 H 688.518 -3.03502 -1.2064 0
M  V30 7352 H 687.177 -3.56382 0.85951 0
M  V30 7353 H 686.825 -4.87445 -1.24124 0
M  V30 7354 H 686.525 -5.87247 0.203605 0
M  V30 7355 H 688.049 -6.06472 -0.708787 0
M  V30 7356 H 689.463 -5.53339 1.49963 0
M  V30 7357 H 687.86 -5.54659 2.29071 0
M  V30 7358 H 688.93 -4.14988 2.50824 0
M  V30 7359 N 690.273 -0.685099 -1.4193 0
M  V30 7360 C 691.522 -0.208816 -2.00616 0
M  V30 7361 C 691.835 1.19506 -1.54847 0
M  V30 7362 O 693.041 1.76826 -2.06021 0
M  V30 7363 C 691.497 -0.322446 -3.58453 0
M  V30 7364 C 691.105 -1.73102 -4.13206 0
M  V30 7365 C 692.849 0.0945979 -4.24395 0
M  V30 7366 C 690.756 -1.79687 -5.63442 0
M  V30 7367 H 689.686 -0.0743092 -0.750329 0
M  V30 7368 H 692.337 -0.851778 -1.62533 0
M  V30 7369 H 690.719 0.388588 -3.94089 0
M  V30 7370 H 691.893 -2.46997 -3.8901 0
M  V30 7371 H 690.208 -2.09682 -3.59753 0
M  V30 7372 H 692.805 0.0656937 -5.3466 0
M  V30 7373 H 693.148 1.1316 -4.00625 0
M  V30 7374 H 693.681 -0.56579 -3.93756 0
M  V30 7375 H 690.42 -2.81404 -5.92024 0
M  V30 7376 H 689.94 -1.10162 -5.89597 0
M  V30 7377 H 691.619 -1.55498 -6.28036 0
M  V30 7378 N 691.751 1.51645 -0.429126 0
M  V30 7379 C 693 2.01203 0.141538 0
M  V30 7380 C 693.313 1.31828 1.44502 0
M  V30 7381 O 694.519 1.7231 2.09813 0
M  V30 7382 C 692.975 3.58624 0.302786 0
M  V30 7383 C 692.583 4.3693 -0.989775 0
M  V30 7384 C 694.327 4.16353 0.827661 0
M  V30 7385 C 692.234 5.86037 -0.794619 0
M  V30 7386 H 691.164 0.751867 0.05667 0
M  V30 7387 H 693.815 1.74822 -0.557633 0
M  V30 7388 H 692.197 3.81417 1.06476 0
M  V30 7389 H 693.371 4.25887 -1.75945 0
M  V30 7390 H 691.686 3.90614 -1.44256 0
M  V30 7391 H 694.283 5.25455 0.990026 0
M  V30 7392 H 694.626 3.74995 1.80787 0
M  V30 7393 H 695.159 3.97606 0.124213 0
M  V30 7394 H 691.898 6.31792 -1.74697 0
M  V30 7395 H 691.418 5.99765 -0.0645968 0
M  V30 7396 H 693.097 6.45471 -0.444591 0
M  V30 7397 N 693.229 0.160201 1.56784 0
M  V30 7398 C 694.192 -0.760405 2.16219 0
M  V30 7399 C 695.192 -1.16595 1.10735 0
M  V30 7400 O 696.382 -1.08472 1.36306 0
M  V30 7401 C 693.514 -2.03358 2.73603 0
M  V30 7402 H 694.707 -0.243173 2.98912 0
M  V30 7403 H 692.26 -0.0893139 1.56045 0
M  V30 7404 H 692.995 -2.59416 1.94612 0
M  V30 7405 H 692.78 -1.75186 3.50788 0
M  V30 7406 H 694.27 -2.69081 3.19351 0
M  V30 7407 N 694.707 -1.5719 -0.113559 0
M  V30 7408 C 695.953 -1.85412 -0.821597 0
M  V30 7409 C 696.286 -0.746722 -1.7927 0
M  V30 7410 O 695.561 0.246971 -1.92926 0
M  V30 7411 C 695.844 -3.24233 -1.56669 0
M  V30 7412 C 695.697 -4.45578 -0.614823 0
M  V30 7413 C 697.016 -3.60697 -2.52161 0
M  V30 7414 H 694.135 -0.674406 -0.29723 0
M  V30 7415 H 696.777 -1.89807 -0.085694 0
M  V30 7416 H 694.927 -3.20617 -2.19401 0
M  V30 7417 H 696.599 -4.613 0.00407137 0
M  V30 7418 H 694.842 -4.33738 0.0732332 0
M  V30 7419 H 695.513 -5.39395 -1.17292 0
M  V30 7420 H 697.989 -3.65139 -1.99532 0
M  V30 7421 H 696.865 -4.58798 -3.01323 0
M  V30 7422 H 697.126 -2.88403 -3.35076 0
M  V30 7423 N 696.185 0.383891 -1.52853 0
M  V30 7424 C 697.462 1.14296 -1.58732 0
M  V30 7425 C 697.842 2.07585 -0.383611 0
M  V30 7426 O 697.19 2.1971 0.627661 0
M  V30 7427 C 697.4 1.89816 -2.92867 0
M  V30 7428 C 698.748 2.44998 -3.46787 0
M  V30 7429 O 699.772 1.99966 -2.94774 0
M  V30 7430 O 698.631 3.2727 -4.37672 0
M  V30 7431 H 695.725 0.52326 -0.640413 0
M  V30 7432 H 698.271 0.388631 -1.6519 0
M  V30 7433 H 697.043 1.21626 -3.71918 0
M  V30 7434 H 696.666 2.72199 -2.89816 0
M  V30 7435 N 697.663 1.43903 0.642637 0
M  V30 7436 C 698.909 1.47291 1.40275 0
M  V30 7437 C 699.264 0.0996024 1.92142 0
M  V30 7438 O 698.557 -0.883423 1.70018 0
M  V30 7439 C 698.751 2.45907 2.59354 0
M  V30 7440 C 698.58 3.92691 2.19143 0
M  V30 7441 C 697.35 4.6097 2.06966 0
M  V30 7442 C 699.548 4.82231 1.78768 0
M  V30 7443 N 697.53 5.9263 1.60196 0
M  V30 7444 C 698.901 6.03246 1.43159 0
M  V30 7445 C 700.956 4.69397 1.66045 0
M  V30 7446 C 699.659 7.12851 0.961014 0
M  V30 7447 C 701.685 5.79016 1.20392 0
M  V30 7448 C 701.047 6.99164 0.857271 0
M  V30 7449 H 697.146 0.594055 0.50855 0
M  V30 7450 H 699.73 1.80153 0.738434 0
M  V30 7451 H 697.901 2.15054 3.23429 0
M  V30 7452 H 699.633 2.39665 3.26102 0
M  V30 7453 H 696.388 4.15622 2.27058 0
M  V30 7454 H 696.812 6.62547 1.39143 0
M  V30 7455 H 701.454 3.76954 1.91482 0
M  V30 7456 H 699.172 8.05113 0.694148 0
M  V30 7457 H 702.758 5.71109 1.11023 0
M  V30 7458 H 701.638 7.82544 0.509408 0
M  V30 7459 N 699.141 -0.881989 1.30609 0
M  V30 7460 C 700.388 -1.63405 1.19604 0
M  V30 7461 C 700.716 -1.92905 -0.248574 0
M  V30 7462 O 699.971 -1.55062 -1.19391 0
M  V30 7463 C 700.27 -2.97999 1.97311 0
M  V30 7464 C 699.936 -2.88039 3.46907 0
M  V30 7465 C 698.598 -2.85029 3.877 0
M  V30 7466 C 700.95 -2.75948 4.42156 0
M  V30 7467 C 698.278 -2.67772 5.2203 0
M  V30 7468 C 700.63 -2.60228 5.76597 0
M  V30 7469 C 699.294 -2.55595 6.16626 0
M  V30 7470 H 698.564 -0.597941 0.437662 0
M  V30 7471 H 701.211 -1.02524 1.61744 0
M  V30 7472 H 699.516 -3.62847 1.47815 0
M  V30 7473 H 701.213 -3.55156 1.86186 0
M  V30 7474 H 697.803 -2.91192 3.14492 0
M  V30 7475 H 701.987 -2.77337 4.1158 0
M  V30 7476 H 697.243 -2.62601 5.52133 0
M  V30 7477 H 701.417 -2.49847 6.50038 0
M  V30 7478 H 699.044 -2.41981 7.20659 0
M  V30 7479 N 700.619 -1.13374 -1.09472 0
M  V30 7480 C 701.549 -0.833268 -2.18126 0
M  V30 7481 C 702.53 0.207169 -1.68834 0
M  V30 7482 O 703.715 0.0662012 -1.94087 0
M  V30 7483 C 700.845 -0.297979 -3.46019 0
M  V30 7484 C 699.799 -1.27261 -4.08642 0
M  V30 7485 C 699.125 -0.597104 -5.31356 0
M  V30 7486 C 700.425 -2.63095 -4.51197 0
M  V30 7487 H 702.119 -1.74182 -2.43518 0
M  V30 7488 H 699.665 -0.838921 -1.17039 0
M  V30 7489 H 701.618 -0.0754444 -4.21332 0
M  V30 7490 H 700.342 0.645959 -3.20148 0
M  V30 7491 H 699.001 -1.48113 -3.35348 0
M  V30 7492 H 698.649 0.352293 -5.01765 0
M  V30 7493 H 698.349 -1.24734 -5.74208 0
M  V30 7494 H 699.873 -0.38384 -6.09392 0
M  V30 7495 H 701.287 -2.46214 -5.17737 0
M  V30 7496 H 699.684 -3.2429 -5.04932 0
M  V30 7497 H 700.754 -3.20793 -3.6362 0
M  V30 7498 N 702.098 1.27442 -0.927168 0
M  V30 7499 C 703.375 1.89473 -0.485742 0
M  V30 7500 C 703.755 1.83922 1.03614 0
M  V30 7501 O 703.103 1.28409 1.89007 0
M  V30 7502 C 703.313 3.33417 -1.03123 0
M  V30 7503 C 704.661 4.10333 -1.0914 0
M  V30 7504 O 705.685 3.4243 -0.98082 0
M  V30 7505 O 704.544 5.31737 -1.26165 0
M  V30 7506 H 701.638 0.812124 -0.156154 0
M  V30 7507 H 704.184 1.35713 -1.01882 0
M  V30 7508 H 702.956 3.31747 -2.07508 0
M  V30 7509 H 702.579 3.94695 -0.479767 0
M  V30 7510 N 703.576 0.692616 1.41565 0
M  V30 7511 C 704.992 0.363878 1.55397 0
M  V30 7512 C 705.192 -1.1294 1.66874 0
M  V30 7513 O 704.248 -1.91517 1.64552 0
M  V30 7514 C 705.561 1.10982 2.7947 0
M  V30 7515 C 707.109 1.09387 2.93263 0
M  V30 7516 C 707.584 1.8215 4.20221 0
M  V30 7517 N 709.075 1.79105 4.27172 0
M  V30 7518 C 709.81 2.32247 5.2426 0
M  V30 7519 N 709.306 2.93847 6.27396 0
M  V30 7520 N 711.099 2.22519 5.1618 0
M  V30 7521 H 703.25 1.66116 1.3236 0
M  V30 7522 H 705.513 0.700848 0.63837 0
M  V30 7523 H 705.219 2.1647 2.77188 0
M  V30 7524 H 705.093 0.686492 3.709 0
M  V30 7525 H 707.48 0.0472638 2.95062 0
M  V30 7526 H 707.561 1.55623 2.03015 0
M  V30 7527 H 707.205 2.86789 4.19183 0
M  V30 7528 H 707.135 1.33351 5.09436 0
M  V30 7529 H 709.626 1.34191 3.53272 0
M  V30 7530 H 709.939 3.31972 6.97864 0
M  V30 7531 H 708.284 2.97924 6.27906 0
M  V30 7532 H 711.475 1.7407 4.34531 0
M  V30 7533 H 711.648 2.64239 5.91677 0
M  V30 7534 N 705.054 -1.51416 0.437162 0
M  V30 7535 C 705.984 -2.30631 -0.364922 0
M  V30 7536 C 706.965 -1.36037 -1.02118 0
M  V30 7537 O 708.15 -1.64956 -1.02485 0
M  V30 7538 C 705.28 -3.1482 -1.46648 0
M  V30 7539 C 704.234 -4.17691 -0.933717 0
M  V30 7540 C 703.56 -4.904 -2.13101 0
M  V30 7541 C 704.86 -5.2229 0.0317201 0
M  V30 7542 H 706.554 -2.97932 0.29614 0
M  V30 7543 H 704.1 -1.4328 0.143865 0
M  V30 7544 H 706.053 -3.69017 -2.03481 0
M  V30 7545 H 704.777 -2.4534 -2.15583 0
M  V30 7546 H 703.436 -3.64545 -0.387602 0
M  V30 7547 H 703.084 -4.17423 -2.80654 0
M  V30 7548 H 702.784 -5.59962 -1.78092 0
M  V30 7549 H 704.308 -5.4742 -2.70487 0
M  V30 7550 H 705.722 -5.7156 -0.446302 0
M  V30 7551 H 704.119 -5.99378 0.29437 0
M  V30 7552 H 705.189 -4.75131 0.968447 0
M  V30 7553 N 706.532 -0.168513 -1.56696 0
M  V30 7554 C 707.948 0.187686 -1.58493 0
M  V30 7555 C 708.148 1.63063 -1.18375 0
M  V30 7556 O 707.204 2.36142 -0.894042 0
M  V30 7557 C 708.517 -0.0905858 -3.00564 0
M  V30 7558 C 710.065 -0.028575 -3.12987 0
M  V30 7559 C 710.54 -0.279799 -4.57145 0
M  V30 7560 N 712.031 -0.227476 -4.62641 0
M  V30 7561 C 712.766 -0.396073 -5.7203 0
M  V30 7562 N 712.262 -0.623572 -6.89988 0
M  V30 7563 N 714.055 -0.332173 -5.61118 0
M  V30 7564 H 706.206 -1.11042 -1.81062 0
M  V30 7565 H 708.469 -0.441235 -0.839056 0
M  V30 7566 H 708.175 -1.09006 -3.34381 0
M  V30 7567 H 708.049 0.619078 -3.72085 0
M  V30 7568 H 710.436 0.961471 -2.78998 0
M  V30 7569 H 710.517 -0.770905 -2.43907 0
M  V30 7570 H 710.161 -1.26704 -4.91842 0
M  V30 7571 H 710.091 0.48311 -5.24379 0
M  V30 7572 H 712.582 -0.0571723 -3.77857 0
M  V30 7573 H 712.895 -0.741745 -7.69232 0
M  V30 7574 H 711.24 -0.660153 -6.91858 0
M  V30 7575 H 714.431 -0.155051 -4.67843 0
M  V30 7576 H 714.604 -0.466994 -6.46315 0
M  V30 7577 N 708.01 1.57248 0.105221 0
M  V30 7578 C 709.238 1.89768 0.82437 0
M  V30 7579 C 709.653 0.761192 1.72775 0
M  V30 7580 O 709.01 -0.267342 1.80531 0
M  V30 7581 C 709.061 3.2184 1.64625 0
M  V30 7582 O 708.782 4.31115 0.779217 0
M  V30 7583 C 710.283 3.68155 2.46935 0
M  V30 7584 H 707.503 0.628031 0.236259 0
M  V30 7585 H 710.047 2.04321 0.085485 0
M  V30 7586 H 708.202 3.08915 2.33775 0
M  V30 7587 H 708.616 5.06897 1.34745 0
M  V30 7588 H 710.09 4.6329 3.00111 0
M  V30 7589 H 710.567 2.95492 3.24932 0
M  V30 7590 H 711.173 3.83914 1.83002 0
M  V30 7591 N 709.488 -0.375779 1.53054 0
M  V30 7592 C 710.716 -1.14036 1.72637 0
M  V30 7593 C 711.131 -1.83342 0.450687 0
M  V30 7594 O 710.488 -1.7318 -0.575749 0
M  V30 7595 C 710.539 -2.17841 2.88492 0
M  V30 7596 O 710.26 -1.51358 4.11123 0
M  V30 7597 C 711.761 -3.06924 3.19863 0
M  V30 7598 H 708.981 -0.341386 0.577665 0
M  V30 7599 H 711.525 -0.437809 1.99759 0
M  V30 7600 H 709.68 -2.8371 2.63794 0
M  V30 7601 H 710.094 -2.20439 4.75928 0
M  V30 7602 H 711.568 -3.75763 4.04359 0
M  V30 7603 H 712.045 -3.71169 2.34798 0
M  V30 7604 H 712.651 -2.46684 3.46449 0
M  V30 7605 N 710.966 -1.44241 -0.634997 0
M  V30 7606 C 712.194 -1.50296 -1.42193 0
M  V30 7607 C 712.609 -0.12658 -1.88375 0
M  V30 7608 O 711.966 0.86678 -1.60603 0
M  V30 7609 C 712.017 -2.46437 -2.64482 0
M  V30 7610 O 711.738 -3.78724 -2.20226 0
M  V30 7611 C 713.239 -2.61918 -3.57651 0
M  V30 7612 H 710.459 -0.509865 -0.43621 0
M  V30 7613 H 713.003 -1.89167 -0.776921 0
M  V30 7614 H 711.158 -2.10712 -3.25083 0
M  V30 7615 H 711.572 -4.30595 -2.9948 0
M  V30 7616 H 713.046 -3.33225 -4.40074 0
M  V30 7617 H 713.523 -1.67017 -4.06204 0
M  V30 7618 H 714.129 -2.98528 -3.02921 0
M  V30 7619 N 712.444 0.87505 -1.31075 0
M  V30 7620 C 713.392 2.00317 -1.18219 0
M  V30 7621 C 714.386 1.69152 -0.0916872 0
M  V30 7622 O 715.592 1.7821 -0.253229 0
M  V30 7623 H 711.967 0.656981 -0.365895 0
M  V30 7624 H 713.938 2.08293 -2.13674 0
M  V30 7625 C 712.687 3.35821 -0.901095 0
M  V30 7626 H 712.01 3.6032 -1.73233 0
M  V30 7627 H 713.45 4.15366 -0.851295 0
M  V30 7628 C 711.909 3.34563 0.396114 0
M  V30 7629 O 712.439 3.75971 1.41452 0
M  V30 7630 N 710.645 2.87681 0.410832 0
M  V30 7631 H 710.192 2.54179 -0.418415 0
M  V30 7632 H 710.15 2.87223 1.27869 0
M  V30 7633 N 713.922 1.13953 1.08869 0
M  V30 7634 C 715.168 0.906151 1.8143 0
M  V30 7635 C 715.501 -0.566089 1.85766 0
M  V30 7636 O 714.776 -1.41915 1.33006 0
M  V30 7637 C 715.059 1.50183 3.27287 0
M  V30 7638 C 714.912 3.04359 3.31189 0
M  V30 7639 C 716.231 1.17477 4.24131 0
M  V30 7640 H 713.35 0.330624 0.658678 0
M  V30 7641 H 715.992 1.40873 1.27495 0
M  V30 7642 H 714.142 1.07442 3.73348 0
M  V30 7643 H 715.814 3.55896 2.93488 0
M  V30 7644 H 714.057 3.39053 2.70602 0
M  V30 7645 H 714.728 3.41141 4.33966 0
M  V30 7646 H 717.204 1.5442 3.86385 0
M  V30 7647 H 716.08 1.61795 5.24513 0
M  V30 7648 H 716.341 0.0893312 4.4201 0
M  V30 7649 N 715.4 -1.26948 0.933913 0
M  V30 7650 C 716.33 -2.29017 0.45534 0
M  V30 7651 C 717.311 -1.62961 -0.487605 0
M  V30 7652 O 718.496 -1.90223 -0.391022 0
M  V30 7653 C 715.626 -3.46112 -0.287015 0
M  V30 7654 C 714.58 -4.24205 0.568682 0
M  V30 7655 C 713.906 -5.3384 -0.303206 0
M  V30 7656 C 715.206 -4.88954 1.83633 0
M  V30 7657 H 716.9 -2.69298 1.30839 0
M  V30 7658 H 714.446 -1.29459 0.630579 0
M  V30 7659 H 716.399 -4.16622 -0.6328 0
M  V30 7660 H 715.123 -3.04765 -1.17414 0
M  V30 7661 H 713.782 -3.5545 0.897261 0
M  V30 7662 H 713.43 -4.88734 -1.18947 0
M  V30 7663 H 713.13 -5.86998 0.265879 0
M  V30 7664 H 714.654 -6.0719 -0.644423 0
M  V30 7665 H 716.068 -5.51717 1.55823 0
M  V30 7666 H 714.465 -5.52198 2.34941 0
M  V30 7667 H 715.535 -4.12305 2.55211 0
M  V30 7668 N 716.879 -0.700114 -1.41195 0
M  V30 7669 C 718.127 -0.232546 -2.00758 0
M  V30 7670 C 718.448 1.1734 -1.55745 0
M  V30 7671 O 717.718 1.79262 -0.790058 0
M  V30 7672 H 716.298 -0.0829845 -0.742376 0
M  V30 7673 H 718.96 -0.902289 -1.72756 0
M  V30 7674 H 718.056 -0.253521 -3.11069 0
M  V30 7675 N 718.357 1.51182 -0.445186 0
M  V30 7676 C 719.634 1.9478 0.178965 0
M  V30 7677 C 720.014 1.38428 1.59376 0
M  V30 7678 O 719.362 0.574552 2.21159 0
M  V30 7679 C 719.572 3.48683 0.148711 0
M  V30 7680 C 720.92 4.23152 0.35042 0
M  V30 7681 O 721.944 3.55479 0.226474 0
M  V30 7682 O 720.803 5.4322 0.597893 0
M  V30 7683 H 717.897 0.817387 0.12573 0
M  V30 7684 H 720.443 1.62051 -0.503729 0
M  V30 7685 H 719.215 3.82176 -0.84009 0
M  V30 7686 H 718.838 3.87875 0.873979 0
M  V30 7687 N 719.835 0.176821 1.56605 0
M  V30 7688 C 721.06 -0.47599 2.01864 0
M  V30 7689 C 721.485 -1.55645 1.05623 0
M  V30 7690 O 720.843 -1.81263 0.0366729 0
M  V30 7691 C 720.891 -1.02619 3.4569 0
M  V30 7692 O 719.995 -2.13996 3.52533 0
M  V30 7693 H 719.336 -0.113363 0.654251 0
M  V30 7694 H 721.866 0.28233 2.02643 0
M  V30 7695 H 721.876 -1.34742 3.85109 0
M  V30 7696 H 720.551 -0.235138 4.15235 0
M  V30 7697 H 719.128 -1.82876 3.24978 0
M  V30 7698 N 721.313 -1.57302 -0.09688 0
M  V30 7699 C 722.243 -2.0497 -1.11846 0
M  V30 7700 C 723.224 -0.938278 -1.41882 0
M  V30 7701 O 724.409 -1.20943 -1.51942 0
M  V30 7702 C 721.539 -2.47264 -2.43881 0
M  V30 7703 C 720.493 -3.62053 -2.28257 0
M  V30 7704 C 719.819 -3.90318 -3.65453 0
M  V30 7705 C 721.119 -4.93005 -1.72461 0
M  V30 7706 H 722.813 -2.90567 -0.721888 0
M  V30 7707 H 720.359 -1.39786 -0.345803 0
M  V30 7708 H 722.312 -2.7922 -3.15617 0
M  V30 7709 H 721.036 -1.58664 -2.8547 0
M  V30 7710 H 719.695 -3.30341 -1.58967 0
M  V30 7711 H 719.343 -2.98889 -4.04567 0
M  V30 7712 H 719.043 -4.67597 -3.55846 0
M  V30 7713 H 720.567 -4.24747 -4.3866 0
M  V30 7714 H 721.981 -5.23354 -2.34036 0
M  V30 7715 H 720.378 -5.74436 -1.73618 0
M  V30 7716 H 721.448 -4.80053 -0.683898 0
M  V30 7717 N 722.791 0.367657 -1.53252 0
M  V30 7718 C 724.039 1.10832 -1.68999 0
M  V30 7719 C 724.36 1.89894 -0.443306 0
M  V30 7720 O 723.63 1.88235 0.54262 0
M  V30 7721 H 722.21 0.412153 -0.623008 0
M  V30 7722 H 724.872 0.414775 -1.90435 0
M  V30 7723 H 723.968 1.7993 -2.55013 0
M  V30 7724 N 724.269 1.44576 0.627338 0
M  V30 7725 C 725.232 1.51372 1.72102 0
M  V30 7726 C 726.232 0.395329 1.55865 0
M  V30 7727 O 727.422 0.658094 1.61291 0
M  V30 7728 C 724.554 1.39129 3.11217 0
M  V30 7729 H 725.747 2.48798 1.6745 0
M  V30 7730 H 723.3 1.31724 0.841336 0
M  V30 7731 H 724.035 0.428114 3.21462 0
M  V30 7732 H 723.82 2.20229 3.24409 0
M  V30 7733 H 725.31 1.46874 3.90919 0
M  V30 7734 N 725.747 -0.868086 1.31537 0
M  V30 7735 C 726.995 -1.61807 1.21091 0
M  V30 7736 C 727.316 -1.93631 -0.230623 0
M  V30 7737 O 726.586 -1.5846 -1.15183 0
M  V30 7738 H 725.166 -0.599854 0.445178 0
M  V30 7739 H 727.828 -1.03915 1.64887 0
M  V30 7740 H 726.924 -2.56088 1.78396 0
M  V30 7741 N 727.225 -1.14528 -1.08264 0
M  V30 7742 C 728.474 -0.908992 -1.80056 0
M  V30 7743 C 728.787 0.565859 -1.87236 0
M  V30 7744 O 729.993 0.919454 -2.55457 0
M  V30 7745 C 728.449 -1.57681 -3.23519 0
M  V30 7746 C 728.057 -3.08803 -3.24569 0
M  V30 7747 C 729.801 -1.4217 -3.99985 0
M  V30 7748 C 727.708 -3.68414 -4.62629 0
M  V30 7749 H 726.638 -0.336432 -0.674781 0
M  V30 7750 H 729.289 -1.37437 -1.21587 0
M  V30 7751 H 727.671 -1.03911 -3.82124 0
M  V30 7752 H 728.845 -3.69252 -2.75663 0
M  V30 7753 H 727.16 -3.23968 -2.61598 0
M  V30 7754 H 729.757 -1.84106 -5.02005 0
M  V30 7755 H 730.1 -0.367989 -4.1467 0
M  V30 7756 H 730.633 -1.92984 -3.47853 0
M  V30 7757 H 727.372 -4.73644 -4.53147 0
M  V30 7758 H 726.892 -3.12746 -5.11811 0
M  V30 7759 H 728.571 -3.68793 -5.31602 0
M  V30 7760 N 728.703 1.26451 -0.940633 0
M  V30 7761 C 729.949 1.94065 -0.58878 0
M  V30 7762 C 730.282 1.7363 0.869853 0
M  V30 7763 O 729.557 1.073 1.62225 0
M  V30 7764 C 729.84 3.47852 -0.931199 0
M  V30 7765 C 729.693 3.77575 -2.44453 0
M  V30 7766 C 731.012 4.37832 -0.446229 0
M  V30 7767 H 728.131 0.704827 -0.21538 0
M  V30 7768 H 730.773 1.4933 -1.17475 0
M  V30 7769 H 728.923 3.86085 -0.432539 0
M  V30 7770 H 730.595 3.49059 -3.01588 0
M  V30 7771 H 728.838 3.23671 -2.88825 0
M  V30 7772 H 729.509 4.85068 -2.63464 0
M  V30 7773 H 731.985 4.06822 -0.873778 0
M  V30 7774 H 730.861 5.44228 -0.714648 0
M  V30 7775 H 731.122 4.37239 0.653815 0
M  V30 7776 N 730.181 0.707592 1.40822 0
M  V30 7777 C 731.091 0.0507246 2.34545 0
M  V30 7778 C 732.107 -0.752727 1.56876 0
M  V30 7779 O 733.283 -0.687524 1.89302 0
M  V30 7780 C 730.348 -0.865731 3.35717 0
M  V30 7781 C 729.409 -0.0531313 4.29267 0
M  V30 7782 C 728.642 -0.925939 5.25606 0
M  V30 7783 O 728.865 -2.16531 5.27703 0
M  V30 7784 O 727.799 -0.369194 6.00767 0
M  V30 7785 H 731.625 0.823587 2.9232 0
M  V30 7786 H 729.21 0.46801 1.4188 0
M  V30 7787 H 731.092 -1.39091 3.97783 0
M  V30 7788 H 729.767 -1.61788 2.80368 0
M  V30 7789 H 728.674 0.516931 3.70511 0
M  V30 7790 H 730.007 0.660617 4.87747 0
M  V30 7791 N 731.66 -1.50943 0.453197 0
M  V30 7792 C 732.61 -2.25003 -0.368467 0
M  V30 7793 C 733.594 -1.27864 -0.976714 0
M  V30 7794 O 734.786 -1.52867 -0.892228 0
M  V30 7795 C 731.915 -3.10701 -1.46014 0
M  V30 7796 C 731.001 -4.15278 -0.860506 0
M  V30 7797 N 731.392 -5.05799 0.00849611 0
M  V30 7798 C 729.69 -4.31542 -1.1264 0
M  V30 7799 C 730.391 -5.80664 0.346951 0
M  V30 7800 N 729.367 -5.42912 -0.273426 0
M  V30 7801 H 733.169 -2.92352 0.301246 0
M  V30 7802 H 730.683 -1.60203 0.266233 0
M  V30 7803 H 732.68 -3.62348 -2.06179 0
M  V30 7804 H 731.34 -2.44898 -2.13202 0
M  V30 7805 H 732.351 -5.16533 0.376077 0
M  V30 7806 H 729.028 -3.76962 -1.7946 0
M  V30 7807 H 730.418 -6.63565 1.05507 0
M  V30 7808 N 733.138 -0.185124 -1.56509 0
M  V30 7809 C 734.068 0.735098 -2.21627 0
M  V30 7810 C 735.049 1.2288 -1.1762 0
M  V30 7811 O 736.234 1.27945 -1.46095 0
M  V30 7812 C 733.364 1.95889 -2.86783 0
M  V30 7813 C 732.318 1.6005 -3.96948 0
M  V30 7814 C 731.644 2.90009 -4.4922 0
M  V30 7815 C 732.944 0.818008 -5.15855 0
M  V30 7816 H 734.638 0.192274 -2.98782 0
M  V30 7817 H 732.184 0.0910393 -1.43712 0
M  V30 7818 H 734.137 2.60779 -3.31017 0
M  V30 7819 H 732.861 2.52608 -2.07018 0
M  V30 7820 H 731.52 0.975237 -3.5339 0
M  V30 7821 H 731.168 3.44797 -3.6623 0
M  V30 7822 H 730.868 2.66778 -5.23549 0
M  V30 7823 H 732.392 3.55904 -4.9615 0
M  V30 7824 H 733.806 1.36979 -5.56695 0
M  V30 7825 H 732.203 0.684207 -5.96187 0
M  V30 7826 H 733.273 -0.182939 -4.84555 0
M  V30 7827 N 734.616 1.57351 0.0885366 0
M  V30 7828 C 735.841 1.91011 0.80805 0
M  V30 7829 C 736.266 0.780009 1.71165 0
M  V30 7830 O 735.624 -0.268083 1.79307 0
M  V30 7831 C 735.672 3.23562 1.59185 0
M  V30 7832 O 734.776 3.11615 2.7013 0
M  V30 7833 H 734.117 0.625943 0.221565 0
M  V30 7834 H 736.647 2.04507 0.0617954 0
M  V30 7835 H 736.657 3.5703 1.97468 0
M  V30 7836 H 735.332 4.05398 0.928741 0
M  V30 7837 H 733.909 2.89673 2.34827 0
M  V30 7838 N 736.094 -0.359525 1.53444 0
M  V30 7839 C 737.51 -0.701599 1.43352 0
M  V30 7840 C 737.71 -1.93049 0.577439 0
M  V30 7841 O 736.766 -2.52423 0.0622224 0
M  V30 7842 C 738.079 -0.90915 2.86627 0
M  V30 7843 C 739.627 -1.00878 2.96298 0
M  V30 7844 C 740.102 -1.24876 4.40647 0
M  V30 7845 N 741.593 -1.31632 4.44103 0
M  V30 7846 C 742.328 -1.51922 5.52908 0
M  V30 7847 N 741.824 -1.69489 6.71748 0
M  V30 7848 N 743.617 -1.54341 5.40496 0
M  V30 7849 H 735.768 0.448685 2.07607 0
M  V30 7850 H 738.031 0.138713 0.937797 0
M  V30 7851 H 737.737 -0.0778997 3.51614 0
M  V30 7852 H 737.611 -1.81551 3.30634 0
M  V30 7853 H 739.998 -1.83057 2.31461 0
M  V30 7854 H 740.079 -0.0796721 2.55676 0
M  V30 7855 H 739.723 -0.431961 5.0606 0
M  V30 7856 H 739.653 -2.19118 4.78848 0
M  V30 7857 H 742.144 -1.19646 3.5846 0
M  V30 7858 H 742.457 -1.84561 7.50438 0
M  V30 7859 H 740.802 -1.66655 6.74723 0
M  V30 7860 H 743.993 -1.40188 4.46615 0
M  V30 7861 H 744.166 -1.69812 6.25354 0
M  V30 7862 N 737.572 -1.44907 -0.619662 0
M  V30 7863 C 738.522 -1.49085 -1.72504 0
M  V30 7864 C 739.506 -0.355372 -1.56926 0
M  V30 7865 O 740.698 -0.601441 -1.66468 0
M  V30 7866 C 737.827 -1.44889 -3.11227 0
M  V30 7867 C 736.913 -2.63593 -3.32234 0
M  V30 7868 N 737.304 -3.88775 -3.23555 0
M  V30 7869 C 735.602 -2.59033 -3.63067 0
M  V30 7870 C 736.303 -4.67932 -3.45564 0
M  V30 7871 N 735.279 -3.9919 -3.68983 0
M  V30 7872 H 739.081 -2.43706 -1.6427 0
M  V30 7873 H 736.595 -1.4003 -0.82252 0
M  V30 7874 H 738.592 -1.45966 -3.90512 0
M  V30 7875 H 737.252 -0.513143 -3.2062 0
M  V30 7876 H 738.263 -4.20574 -3.02221 0
M  V30 7877 H 734.94 -1.7431 -3.79371 0
M  V30 7878 H 736.33 -5.76952 -3.44349 0
M  V30 7879 N 739.05 0.861098 -1.31996 0
M  V30 7880 C 739.96 2.00154 -1.22374 0
M  V30 7881 C 740.976 1.73447 -0.138631 0
M  V30 7882 O 742.152 1.98191 -0.358104 0
M  V30 7883 C 739.217 3.33696 -0.940645 0
M  V30 7884 C 738.278 3.73668 -2.11355 0
M  V30 7885 C 737.511 5.00837 -1.84386 0
M  V30 7886 O 737.734 5.64996 -0.783287 0
M  V30 7887 O 736.668 5.37787 -2.70313 0
M  V30 7888 H 740.494 2.11207 -2.18233 0
M  V30 7889 H 738.079 0.990768 -1.11822 0
M  V30 7890 H 739.961 4.13756 -0.798987 0
M  V30 7891 H 738.636 3.23698 -0.0121636 0
M  V30 7892 H 737.543 2.94211 -2.31065 0
M  V30 7893 H 738.876 3.88303 -3.02459 0
M  V30 7894 N 740.528 1.15101 1.07655 0
M  V30 7895 C 741.458 0.867864 2.16773 0
M  V30 7896 C 742.439 -0.180283 1.69142 0
M  V30 7897 O 743.624 -0.0353152 1.94168 0
M  V30 7898 C 740.754 0.35299 3.45501 0
M  V30 7899 C 739.708 1.33746 4.06566 0
M  V30 7900 C 739.034 0.681562 5.30338 0
M  V30 7901 C 740.334 2.7024 4.46954 0
M  V30 7902 H 742.028 1.78034 2.40716 0
M  V30 7903 H 739.574 0.857435 1.15689 0
M  V30 7904 H 741.527 0.142465 4.21159 0
M  V30 7905 H 740.251 -0.594945 3.21135 0
M  V30 7906 H 738.91 1.53429 3.32949 0
M  V30 7907 H 738.558 -0.272422 5.02262 0
M  V30 7908 H 738.258 1.33853 5.72151 0
M  V30 7909 H 739.782 0.48074 6.08705 0
M  V30 7910 H 741.196 2.5442 5.13754 0
M  V30 7911 H 739.593 3.32282 4.99709 0
M  V30 7912 H 740.663 3.26537 3.58471 0
M  V30 7913 N 742.006 -1.2595 0.947325 0
M  V30 7914 C 742.953 -2.26159 0.460497 0
M  V30 7915 C 743.923 -1.58919 -0.483125 0
M  V30 7916 O 745.108 -1.86603 -0.397983 0
M  V30 7917 C 742.248 -3.441 -0.26247 0
M  V30 7918 C 741.361 -4.25999 0.717539 0
M  V30 7919 C 740.496 -5.31193 -0.0272486 0
M  V30 7920 C 739.535 -6.04774 0.944177 0
M  V30 7921 N 738.672 -7.01721 0.230741 0
M  V30 7922 H 743.512 -2.67173 1.31995 0
M  V30 7923 H 741.049 -1.31358 0.662088 0
M  V30 7924 H 743.007 -4.11317 -0.698137 0
M  V30 7925 H 741.637 -3.03983 -1.08602 0
M  V30 7926 H 740.689 -3.58513 1.27171 0
M  V30 7927 H 742.001 -4.76981 1.45913 0
M  V30 7928 H 741.155 -6.04451 -0.521903 0
M  V30 7929 H 739.894 -4.81066 -0.801682 0
M  V30 7930 H 738.899 -5.30338 1.4499 0
M  V30 7931 H 740.124 -6.56991 1.71872 0
M  V30 7932 H 738.07 -6.53895 -0.525088 0
M  V30 7933 H 737.987 -7.50484 0.911556 0
M  V30 7934 H 739.255 -7.79122 -0.242616 0
M  V30 7935 N 743.484 -0.715051 -1.40445 0
M  V30 7936 C 744.432 -0.0509974 -2.32544 0
M  V30 7937 C 745.426 0.747602 -1.52011 0
M  V30 7938 O 746.632 0.651031 -1.67814 0
M  V30 7939 H 743.007 0.00231113 -0.751996 0
M  V30 7940 H 744.978 -0.84449 -2.86201 0
M  V30 7941 C 743.727 0.857101 -3.3697 0
M  V30 7942 H 743.05 0.252 -3.99005 0
M  V30 7943 H 744.49 1.28971 -4.03909 0
M  V30 7944 C 742.949 1.98231 -2.72408 0
M  V30 7945 O 743.479 3.07309 -2.58697 0
M  V30 7946 N 741.685 1.76577 -2.308 0
M  V30 7947 H 741.232 0.878641 -2.42152 0
M  V30 7948 H 741.19 2.52043 -1.87941 0
M  V30 7949 N 744.962 1.50701 -0.461195 0
M  V30 7950 C 746.378 1.59187 -0.114786 0
M  V30 7951 C 746.578 1.4702 1.37794 0
M  V30 7952 O 745.634 1.32361 2.15027 0
M  V30 7953 C 746.947 2.93453 -0.656167 0
M  V30 7954 C 748.495 3.06824 -0.618715 0
M  V30 7955 C 748.97 4.4365 -1.13747 0
M  V30 7956 N 750.461 4.50035 -1.09646 0
M  V30 7957 C 751.196 5.54278 -1.46846 0
M  V30 7958 N 750.692 6.65822 -1.91448 0
M  V30 7959 N 752.485 5.44767 -1.38512 0
M  V30 7960 H 744.636 1.56853 -1.43216 0
M  V30 7961 H 746.899 0.740712 -0.59165 0
M  V30 7962 H 746.605 3.07802 -1.7015 0
M  V30 7963 H 746.479 3.77082 -0.0942261 0
M  V30 7964 H 748.866 2.92129 0.417685 0
M  V30 7965 H 748.947 2.24976 -1.21734 0
M  V30 7966 H 748.591 4.59093 -2.17245 0
M  V30 7967 H 748.521 5.24074 -0.515153 0
M  V30 7968 H 751.012 3.69988 -0.769217 0
M  V30 7969 H 751.325 7.41413 -2.18007 0
M  V30 7970 H 749.67 6.66968 -1.95393 0
M  V30 7971 H 752.861 4.56511 -1.03516 0
M  V30 7972 H 753.034 6.25889 -1.6783 0
M  V30 7973 N 746.441 0.193421 1.56409 0
M  V30 7974 C 747.718 -0.493318 1.89277 0
M  V30 7975 C 748.098 -1.79765 1.10669 0
M  V30 7976 O 747.446 -2.27558 0.207274 0
M  V30 7977 C 747.656 -0.713732 3.41624 0
M  V30 7978 C 749.004 -1.03385 4.11821 0
M  V30 7979 O 750.028 -0.801511 3.47065 0
M  V30 7980 O 748.887 -1.47327 5.26267 0
M  V30 7981 H 745.981 -0.256973 0.786062 0
M  V30 7982 H 748.527 0.23351 1.68086 0
M  V30 7983 H 747.299 0.207446 3.9075 0
M  V30 7984 H 746.922 -1.49308 3.68501 0
M  V30 7985 N 747.919 -1.57396 -0.0801906 0
M  V30 7986 C 749.165 -1.87113 -0.782083 0
M  V30 7987 C 749.498 -0.78458 -1.77646 0
M  V30 7988 O 748.773 0.205993 -1.93406 0
M  V30 7989 C 749.056 -3.27483 -1.49756 0
M  V30 7990 C 748.909 -4.46782 -0.520171 0
M  V30 7991 C 750.228 -3.65965 -2.44454 0
M  V30 7992 H 747.347 -0.680559 -0.282858 0
M  V30 7993 H 749.989 -1.89946 -0.0454139 0
M  V30 7994 H 748.139 -3.25199 -2.12551 0
M  V30 7995 H 749.811 -4.61187 0.101919 0
M  V30 7996 H 748.054 -4.33485 0.165219 0
M  V30 7997 H 748.725 -5.41761 -1.05824 0
M  V30 7998 H 751.201 -3.69289 -1.91742 0
M  V30 7999 H 750.077 -4.65086 -2.91524 0
M  V30 8000 H 750.338 -2.95446 -3.28883 0
M  V30 8001 N 749.397 0.351382 -1.53633 0
M  V30 8002 C 750.307 1.45471 -1.84052 0
M  V30 8003 C 751.323 1.57945 -0.730015 0
M  V30 8004 O 752.499 1.73571 -1.02153 0
M  V30 8005 C 749.564 2.80562 -2.03681 0
M  V30 8006 C 748.625 2.77497 -3.27558 0
M  V30 8007 C 747.858 4.06144 -3.46241 0
M  V30 8008 O 748.081 5.03028 -2.68922 0
M  V30 8009 O 747.015 4.11092 -4.39645 0
M  V30 8010 H 750.841 1.22684 -2.77817 0
M  V30 8011 H 748.426 0.542827 -1.3919 0
M  V30 8012 H 750.308 3.6058 -2.18082 0
M  V30 8013 H 748.983 3.03296 -1.13106 0
M  V30 8014 H 747.89 1.96126 -3.18568 0
M  V30 8015 H 749.223 2.59716 -4.18101 0
M  V30 8016 N 750.875 1.45233 0.611969 0
M  V30 8017 C 751.808 1.48056 1.73651 0
M  V30 8018 C 752.786 0.337373 1.59061 0
M  V30 8019 O 753.97 0.537222 1.80683 0
M  V30 8020 C 751.097 1.33144 3.11433 0
M  V30 8021 C 750.143 2.51272 3.44623 0
M  V30 8022 S 750.976 4.13754 3.39953 0
M  V30 8023 C 752.132 4.013 4.80322 0
M  V30 8024 H 752.365 2.43205 1.70993 0
M  V30 8025 H 749.898 1.32763 0.788246 0
M  V30 8026 H 751.856 1.25228 3.90932 0
M  V30 8027 H 750.517 0.394734 3.1161 0
M  V30 8028 H 749.71 2.36753 4.44932 0
M  V30 8029 H 749.312 2.56027 2.72629 0
M  V30 8030 H 751.604 3.66174 5.7002 0
M  V30 8031 H 752.547 5.01506 4.99897 0
M  V30 8032 H 752.955 3.3303 4.55797 0
M  V30 8033 N 752.353 -0.854086 1.3245 0
M  V30 8034 C 753.601 -1.60513 1.228 0
M  V30 8035 C 753.922 -1.93865 -0.210073 0
M  V30 8036 O 753.192 -1.59673 -1.13496 0
M  V30 8037 H 751.772 -0.595099 0.451516 0
M  V30 8038 H 754.434 -1.0216 1.6598 0
M  V30 8039 H 753.53 -2.54182 1.81102 0
M  V30 8040 N 753.831 -1.1567 -1.07043 0
M  V30 8041 C 754.779 -0.852204 -2.16426 0
M  V30 8042 C 755.773 0.175661 -1.68487 0
M  V30 8043 O 756.979 0.0303874 -1.79974 0
M  V30 8044 H 753.354 -0.257942 -0.706378 0
M  V30 8045 H 755.325 -1.78231 -2.39324 0
M  V30 8046 C 754.074 -0.361362 -3.45817 0
M  V30 8047 H 753.397 -1.14369 -3.83092 0
M  V30 8048 H 754.837 -0.186997 -4.23587 0
M  V30 8049 C 753.296 0.917703 -3.2416 0
M  V30 8050 O 753.826 1.98858 -3.49025 0
M  V30 8051 N 752.032 0.858456 -2.77631 0
M  V30 8052 H 751.579 -0.0131821 -2.57597 0
M  V30 8053 H 751.537 1.71478 -2.6352 0
M  V30 8054 N 755.309 1.25446 -0.953992 0
M  V30 8055 C 756.534 1.97755 -0.625129 0
M  V30 8056 C 756.959 1.70437 0.795787 0
M  V30 8057 O 756.317 0.95992 1.53803 0
M  V30 8058 C 756.365 3.49463 -0.889251 0
M  V30 8059 O 755.469 4.12387 0.0322757 0
M  V30 8060 H 754.81 0.61998 -0.237742 0
M  V30 8061 H 757.34 1.59582 -1.28041 0
M  V30 8062 H 757.35 3.99772 -0.815263 0
M  V30 8063 H 756.025 3.68676 -1.92487 0
M  V30 8064 H 754.602 3.72782 -0.0938625 0
M  V30 8065 N 756.787 0.722489 1.40064 0
M  V30 8066 C 758.033 0.265371 2.01056 0
M  V30 8067 C 758.366 -1.14062 1.57174 0
M  V30 8068 O 757.641 -1.77514 0.794916 0
M  V30 8069 C 757.924 0.353157 3.58364 0
M  V30 8070 C 757.777 1.79802 4.123 0
M  V30 8071 C 759.096 -0.271677 4.39261 0
M  V30 8072 H 756.215 0.0979002 0.730469 0
M  V30 8073 H 758.857 0.916289 1.66446 0
M  V30 8074 H 757.007 -0.201037 3.87979 0
M  V30 8075 H 758.679 2.40813 3.93455 0
M  V30 8076 H 756.922 2.32348 3.66329 0
M  V30 8077 H 757.593 1.81079 5.21454 0
M  V30 8078 H 760.069 0.200607 4.15616 0
M  V30 8079 H 758.945 -0.179843 5.48605 0
M  V30 8080 H 759.206 -1.35611 4.20787 0
M  V30 8081 N 758.265 -1.50454 0.469181 0
M  V30 8082 C 759.514 -2.01507 -0.0881425 0
M  V30 8083 C 759.827 -1.35613 -1.40956 0
M  V30 8084 O 761.033 -1.77812 -2.05171 0
M  V30 8085 C 759.489 -3.59301 -0.207596 0
M  V30 8086 C 759.097 -4.34152 1.10527 0
M  V30 8087 C 760.841 -4.18401 -0.716981 0
M  V30 8088 C 758.748 -5.83725 0.949717 0
M  V30 8089 H 757.678 -0.753106 -0.0367156 0
M  V30 8090 H 760.329 -1.73282 0.603788 0
M  V30 8091 H 758.711 -3.84106 -0.963265 0
M  V30 8092 H 759.885 -4.21073 1.87175 0
M  V30 8093 H 758.2 -3.86652 1.54562 0
M  V30 8094 H 760.797 -5.27895 -0.850363 0
M  V30 8095 H 761.14 -3.79657 -1.70782 0
M  V30 8096 H 761.673 -3.97796 -0.0187511 0
M  V30 8097 H 758.412 -6.26938 1.91387 0
M  V30 8098 H 757.932 -5.99383 0.223591 0
M  V30 8099 H 759.611 -6.44065 0.61557 0
M  V30 8100 N 759.743 -0.201713 -1.56304 0
M  V30 8101 C 760.653 0.728296 -2.23009 0
M  V30 8102 C 761.669 1.22945 -1.23128 0
M  V30 8103 O 762.845 1.27523 -1.55884 0
M  V30 8104 C 759.91 1.92792 -2.88153 0
M  V30 8105 C 758.971 1.47068 -4.03323 0
M  V30 8106 C 758.204 2.61312 -4.65351 0
M  V30 8107 O 758.427 3.7896 -4.26317 0
M  V30 8108 O 757.361 2.33646 -5.54701 0
M  V30 8109 H 761.187 0.190166 -3.03104 0
M  V30 8110 H 758.772 0.0278725 -1.49374 0
M  V30 8111 H 760.654 2.6289 -3.29343 0
M  V30 8112 H 759.329 2.45452 -2.11033 0
M  V30 8113 H 758.236 0.738299 -3.66742 0
M  V30 8114 H 759.569 0.990666 -4.82127 0
M  V30 8115 N 761.222 1.57436 0.0718424 0
M  V30 8116 C 762.132 2.07039 1.10326 0
M  V30 8117 C 763.148 0.999918 1.424 0
M  V30 8118 O 764.324 1.31462 1.52577 0
M  V30 8119 C 761.389 2.50439 2.39752 0
M  V30 8120 C 760.45 3.71784 2.14651 0
M  V30 8121 C 759.683 4.13104 3.37906 0
M  V30 8122 O 759.906 3.54298 4.47023 0
M  V30 8123 O 758.84 5.05894 3.26121 0
M  V30 8124 H 762.666 2.95239 0.711872 0
M  V30 8125 H 760.251 1.46638 0.28597 0
M  V30 8126 H 762.133 2.78876 3.15921 0
M  V30 8127 H 760.808 1.65368 2.78271 0
M  V30 8128 H 759.715 3.48431 1.36187 0
M  V30 8129 H 761.048 4.57707 1.81012 0
M  V30 8130 N 762.7 -0.34323 1.53817 0
M  V30 8131 C 763.648 -1.44176 1.82527 0
M  V30 8132 C 764.642 -1.54452 0.695772 0
M  V30 8133 O 765.848 -1.57072 0.879114 0
M  V30 8134 H 762.223 -0.480729 0.578277 0
M  V30 8135 H 764.194 -1.17176 2.74431 0
M  V30 8136 C 762.943 -2.80695 2.05197 0
M  V30 8137 H 762.266 -2.73554 2.91561 0
M  V30 8138 H 763.706 -3.56679 2.29251 0
M  V30 8139 C 762.165 -3.26322 0.837589 0
M  V30 8140 O 762.695 -4.01683 0.0371631 0
M  V30 8141 N 760.901 -2.83128 0.654724 0
M  V30 8142 H 760.448 -2.21965 1.30725 0
M  V30 8143 H 760.406 -3.14011 -0.156345 0
M  V30 8144 N 764.178 -1.45556 -0.604258 0
M  V30 8145 C 765.088 -1.57025 -1.74299 0
M  V30 8146 C 766.104 -0.45456 -1.67958 0
M  V30 8147 O 767.28 -0.715711 -1.88254 0
M  V30 8148 C 764.345 -1.53702 -3.10768 0
M  V30 8149 C 763.406 -2.76335 -3.28538 0
M  V30 8150 C 762.639 -2.73161 -4.58496 0
M  V30 8151 O 762.862 -1.80678 -5.41028 0
M  V30 8152 O 761.796 -3.64409 -4.79051 0
M  V30 8153 H 765.622 -2.53284 -1.67573 0
M  V30 8154 H 763.207 -1.28104 -0.768745 0
M  V30 8155 H 765.089 -1.54468 -3.92068 0
M  V30 8156 H 763.764 -0.605957 -3.17978 0
M  V30 8157 H 762.671 -2.8113 -2.46813 0
M  V30 8158 H 764.004 -3.68578 -3.26207 0
M  V30 8159 N 765.656 0.84705 -1.32902 0
M  V30 8160 C 766.589 1.96038 -1.1681 0
M  V30 8161 C 767.567 1.62468 -0.0656144 0
M  V30 8162 O 768.751 1.87136 -0.226339 0
M  V30 8163 C 765.878 3.29362 -0.789839 0
M  V30 8164 C 764.924 3.81908 -1.89865 0
M  V30 8165 S 765.757 4.04576 -3.50826 0
M  V30 8166 C 766.913 5.40863 -3.14989 0
M  V30 8167 H 767.146 2.09387 -2.11055 0
M  V30 8168 H 764.679 0.999896 -1.1765 0
M  V30 8169 H 766.637 4.06405 -0.578369 0
M  V30 8170 H 765.298 3.13815 0.133878 0
M  V30 8171 H 764.491 4.78357 -1.58716 0
M  V30 8172 H 764.093 3.11733 -2.06636 0
M  V30 8173 H 766.385 6.23393 -2.65306 0
M  V30 8174 H 767.328 5.7698 -4.10488 0
M  V30 8175 H 767.736 5.05228 -2.51804 0
M  V30 8176 N 767.134 1.16236 1.06428 0
M  V30 8177 C 768.081 0.86769 2.13869 0
M  V30 8178 C 769.051 -0.183298 1.65086 0
M  V30 8179 O 770.236 -0.0488002 1.90738 0
M  V30 8180 C 767.376 0.373427 3.43074 0
M  V30 8181 C 766.489 1.48708 4.05598 0
M  V30 8182 C 765.624 0.947977 5.22673 0
M  V30 8183 C 764.663 2.03793 5.77178 0
M  V30 8184 N 763.8 1.51451 6.85571 0
M  V30 8185 H 768.64 1.78781 2.38414 0
M  V30 8186 H 766.177 0.891892 1.16977 0
M  V30 8187 H 768.135 0.0685035 4.17144 0
M  V30 8188 H 766.765 -0.509752 3.1875 0
M  V30 8189 H 765.817 1.908 3.29089 0
M  V30 8190 H 767.129 2.30964 4.42105 0
M  V30 8191 H 766.283 0.596154 6.03764 0
M  V30 8192 H 765.022 0.0947081 4.87608 0
M  V30 8193 H 764.027 2.39847 4.94726 0
M  V30 8194 H 765.252 2.89514 6.14295 0
M  V30 8195 H 763.198 0.683755 6.52427 0
M  V30 8196 H 763.115 2.27325 7.21013 0
M  V30 8197 H 764.383 1.19123 7.70344 0
M  V30 8198 N 768.612 -1.24939 0.960631 0
M  V30 8199 C 769.559 -2.25658 0.484459 0
M  V30 8200 C 770.529 -1.59422 -0.466242 0
M  V30 8201 O 771.714 -1.87015 -0.378169 0
M  V30 8202 C 768.854 -3.44359 -0.225958 0
M  V30 8203 C 767.967 -4.25214 0.762682 0
M  V30 8204 C 767.102 -5.31192 0.0290931 0
M  V30 8205 C 766.141 -6.03739 1.00827 0
M  V30 8206 N 765.278 -7.01437 0.305155 0
M  V30 8207 H 770.118 -2.65758 1.34821 0
M  V30 8208 H 767.655 -1.30648 0.675983 0
M  V30 8209 H 769.613 -4.12035 -0.654472 0
M  V30 8210 H 768.243 -3.05118 -1.05371 0
M  V30 8211 H 767.295 -3.57144 1.30966 0
M  V30 8212 H 768.607 -4.75406 1.50964 0
M  V30 8213 H 767.761 -6.04971 -0.457763 0
M  V30 8214 H 766.5 -4.81889 -0.750614 0
M  V30 8215 H 765.505 -5.2877 1.50607 0
M  V30 8216 H 766.73 -6.55131 1.7883 0
M  V30 8217 H 764.676 -6.54415 -0.455704 0
M  V30 8218 H 764.593 -7.49475 0.991104 0
M  V30 8219 H 765.861 -7.79336 -0.159966 0
M  V30 8220 N 770.09 -0.729906 -1.39679 0
M  V30 8221 C 771.501 -0.346241 -1.83461 0
M  V30 8222 C 771.852 1.1215 -1.60987 0
M  V30 8223 O 770.977 1.86456 -1.09832 0
M  V30 8224 C 771.572 -0.621656 -3.33048 0
M  V30 8225 C 770.131 -0.291543 -3.75269 0
M  V30 8226 C 769.278 -0.886844 -2.62736 0
M  V30 8227 H 772.229 -0.927949 -1.28743 0
M  V30 8228 H 772.25 0.108301 -3.80346 0
M  V30 8229 H 771.762 -1.68996 -3.49373 0
M  V30 8230 H 769.863 0.771133 -3.64533 0
M  V30 8231 H 769.976 -0.770544 -4.72863 0
M  V30 8232 H 768.34 -0.313839 -2.52759 0
M  V30 8233 H 769.123 -1.95971 -2.81869 0
M  V30 8234 N 771.568 1.50203 -0.477153 0
M  V30 8235 C 772.798 2.0647 0.0731427 0
M  V30 8236 C 773.206 1.3405 1.33518 0
M  V30 8237 O 772.549 0.405164 1.79176 0
M  V30 8238 C 772.611 3.57025 0.421121 0
M  V30 8239 C 772.275 4.50973 -0.739765 0
M  V30 8240 C 773.272 4.939 -1.62353 0
M  V30 8241 C 770.957 4.93581 -0.93181 0
M  V30 8242 C 772.951 5.78149 -2.6837 0
M  V30 8243 C 770.638 5.77612 -1.99519 0
M  V30 8244 C 771.636 6.19798 -2.86949 0
M  V30 8245 O 771.324 7.02152 -3.91456 0
M  V30 8246 H 771.056 0.675969 -0.00648243 0
M  V30 8247 H 773.61 1.94278 -0.66673 0
M  V30 8248 H 771.84 3.67141 1.21426 0
M  V30 8249 H 773.529 3.95632 0.907213 0
M  V30 8250 H 774.295 4.61646 -1.48687 0
M  V30 8251 H 770.174 4.60262 -0.260739 0
M  V30 8252 H 773.718 6.10997 -3.36643 0
M  V30 8253 H 769.615 6.09279 -2.13189 0
M  V30 8254 H 770.383 7.20414 -3.88518 0
M  V30 8255 N 773.046 0.209999 1.56195 0
M  V30 8256 C 773.978 -0.736967 2.17029 0
M  V30 8257 C 774.991 -1.16599 1.13616 0
M  V30 8258 O 776.18 -1.09914 1.40646 0
M  V30 8259 C 773.28 -2.00852 2.72969 0
M  V30 8260 C 772.453 -1.73691 4.01435 0
M  V30 8261 C 771.512 -2.85439 4.42053 0
M  V30 8262 O 770.538 -2.54405 5.09183 0
M  V30 8263 N 771.74 -4.14135 4.06783 0
M  V30 8264 H 774.505 -0.216656 2.98916 0
M  V30 8265 H 772.066 0.0285672 1.61875 0
M  V30 8266 H 774.058 -2.74778 2.97118 0
M  V30 8267 H 772.628 -2.43963 1.95451 0
M  V30 8268 H 771.848 -0.834676 3.85262 0
M  V30 8269 H 773.136 -1.52961 4.85263 0
M  V30 8270 H 772.534 -4.42196 3.52816 0
M  V30 8271 H 771.091 -4.84642 4.35851 0
M  V30 8272 N 774.524 -1.57472 -0.0634922 0
M  V30 8273 C 775.454 -2.07297 -1.07473 0
M  V30 8274 C 776.435 -0.968162 -1.39859 0
M  V30 8275 O 777.62 -1.24139 -1.49343 0
M  V30 8276 C 774.75 -2.52381 -2.38581 0
M  V30 8277 C 773.704 -3.66813 -2.20526 0
M  V30 8278 C 773.03 -3.97982 -3.57092 0
M  V30 8279 C 774.33 -4.96553 -1.61965 0
M  V30 8280 H 776.024 -2.92033 -0.660092 0
M  V30 8281 H 773.57 -1.40488 -0.316074 0
M  V30 8282 H 775.523 -2.85852 -3.09624 0
M  V30 8283 H 774.247 -1.64684 -2.8204 0
M  V30 8284 H 772.906 -3.33639 -1.51924 0
M  V30 8285 H 772.554 -3.07403 -3.98136 0
M  V30 8286 H 772.254 -4.7504 -3.45848 0
M  V30 8287 H 773.778 -4.33956 -4.29552 0
M  V30 8288 H 775.192 -5.28201 -2.22883 0
M  V30 8289 H 773.589 -5.7799 -1.61394 0
M  V30 8290 H 774.659 -4.81396 -0.581918 0
M  V30 8291 N 776.003 0.335068 -1.53997 0
M  V30 8292 C 777.252 1.07182 -1.70865 0
M  V30 8293 C 777.565 1.89541 -0.483078 0
M  V30 8294 O 778.771 2.66219 -0.532879 0
M  V30 8295 C 777.227 1.95497 -3.02174 0
M  V30 8296 C 776.835 1.18304 -4.32097 0
M  V30 8297 C 778.579 2.68978 -3.28407 0
M  V30 8298 C 776.486 2.05699 -5.54474 0
M  V30 8299 H 775.416 0.403857 -0.636722 0
M  V30 8300 H 778.067 0.33076 -1.80494 0
M  V30 8301 H 776.449 2.73456 -2.86423 0
M  V30 8302 H 777.623 0.451969 -4.58578 0
M  V30 8303 H 775.938 0.565556 -4.12541 0
M  V30 8304 H 778.535 3.34651 -4.17029 0
M  V30 8305 H 778.878 3.36 -2.45784 0
M  V30 8306 H 779.411 1.98087 -3.44973 0
M  V30 8307 H 776.15 1.43204 -6.39666 0
M  V30 8308 H 775.67 2.76572 -5.32229 0
M  V30 8309 H 777.349 2.64554 -5.90441 0
M  V30 8310 N 777.481 1.45874 0.596531 0
M  V30 8311 C 778.444 1.54988 1.68853 0
M  V30 8312 C 779.444 0.428302 1.54991 0
M  V30 8313 O 780.634 0.692158 1.59859 0
M  V30 8314 C 777.766 1.457 3.08195 0
M  V30 8315 H 778.959 2.52294 1.62135 0
M  V30 8316 H 776.512 1.33479 0.813206 0
M  V30 8317 H 777.247 0.496204 3.20481 0
M  V30 8318 H 777.032 2.27061 3.19665 0
M  V30 8319 H 778.522 1.55133 3.87716 0
M  V30 8320 N 778.959 -0.83999 1.33349 0
M  V30 8321 C 779.891 -1.95678 1.19344 0
M  V30 8322 C 780.904 -1.62322 0.124692 0
M  V30 8323 O 782.093 -1.74516 0.375012 0
M  V30 8324 C 779.193 -3.29133 0.807771 0
M  V30 8325 C 778.366 -3.9063 1.96792 0
M  V30 8326 C 777.425 -5.02438 1.56341 0
M  V30 8327 O 776.451 -5.21646 2.27759 0
M  V30 8328 N 777.653 -5.78612 0.467767 0
M  V30 8329 H 780.418 -2.08229 2.15548 0
M  V30 8330 H 777.979 -1.01566 1.26079 0
M  V30 8331 H 779.971 -4.01355 0.519282 0
M  V30 8332 H 778.541 -3.12535 -0.063555 0
M  V30 8333 H 777.761 -3.11011 2.4221 0
M  V30 8334 H 779.049 -4.2845 2.74422 0
M  V30 8335 H 778.447 -5.65559 -0.126324 0
M  V30 8336 H 777.004 -6.51362 0.238945 0
M  V30 8337 N 780.437 -1.16799 -1.0581 0
M  V30 8338 C 781.714 -0.862616 -1.75551 0
M  V30 8339 C 782.094 0.6385 -2.01212 0
M  V30 8340 O 781.442 1.58784 -1.64317 0
M  V30 8341 C 781.652 -1.6907 -3.05314 0
M  V30 8342 C 783 -1.90675 -3.79379 0
M  V30 8343 O 784.024 -1.65976 -3.15167 0
M  V30 8344 O 782.883 -2.32145 -4.94743 0
M  V30 8345 H 779.977 -0.318789 -0.763088 0
M  V30 8346 H 782.523 -1.27461 -1.12034 0
M  V30 8347 H 781.295 -2.70912 -2.82352 0
M  V30 8348 H 780.918 -1.27606 -3.76567 0
M  V30 8349 N 781.915 1.24427 -0.967243 0
M  V30 8350 C 782.863 2.27403 -0.488927 0
M  V30 8351 C 783.857 1.63388 0.447302 0
M  V30 8352 O 785.063 1.77085 0.322643 0
M  V30 8353 H 781.438 0.738921 -0.139643 0
M  V30 8354 H 783.409 2.65122 -1.36942 0
M  V30 8355 C 782.158 3.4709 0.205787 0
M  V30 8356 H 781.481 3.96591 -0.50551 0
M  V30 8357 H 782.921 4.2099 0.504296 0
M  V30 8358 C 781.38 3.04923 1.43261 0
M  V30 8359 O 781.91 3.12043 2.52967 0
M  V30 8360 N 780.116 2.59976 1.29849 0
M  V30 8361 H 779.663 2.54382 0.405876 0
M  V30 8362 H 779.621 2.32128 2.12047 0
M  V30 8363 N 783.393 0.737304 1.3929 0
M  V30 8364 C 784.303 0.100464 2.34385 0
M  V30 8365 C 785.319 -0.719282 1.58437 0
M  V30 8366 O 786.495 -0.647216 1.90717 0
M  V30 8367 C 783.56 -0.794325 3.37478 0
M  V30 8368 C 782.621 0.0379345 4.29283 0
M  V30 8369 C 781.854 -0.814241 5.27452 0
M  V30 8370 O 782.077 -2.05288 5.32177 0
M  V30 8371 O 781.011 -0.241679 6.01415 0
M  V30 8372 H 784.837 0.885407 2.90507 0
M  V30 8373 H 782.422 0.497999 1.40856 0
M  V30 8374 H 784.304 -1.30622 4.00644 0
M  V30 8375 H 782.979 -1.55804 2.83737 0
M  V30 8376 H 781.886 0.595405 3.69331 0
M  V30 8377 H 783.219 0.763926 4.86236 0
M  V30 8378 N 784.871 -1.49948 0.485112 0
M  V30 8379 C 786.099 -2.06806 -0.0622824 0
M  V30 8380 C 786.514 -1.34736 -1.32256 0
M  V30 8381 O 785.871 -0.420836 -1.77582 0
M  V30 8382 C 785.922 -3.59934 -0.336096 0
M  V30 8383 O 785.643 -4.29289 0.874203 0
M  V30 8384 C 787.144 -4.33459 -0.928903 0
M  V30 8385 H 784.364 -0.670867 0.0133472 0
M  V30 8386 H 786.908 -1.92937 0.677917 0
M  V30 8387 H 785.063 -3.7356 -1.02625 0
M  V30 8388 H 785.477 -5.20735 0.627332 0
M  V30 8389 H 786.951 -5.41527 -1.07017 0
M  V30 8390 H 787.428 -3.94881 -1.92265 0
M  V30 8391 H 788.034 -4.24399 -0.276705 0
M  V30 8392 N 786.349 -0.21828 -1.56081 0
M  V30 8393 C 787.259 0.704602 -2.23769 0
M  V30 8394 C 788.275 1.21633 -1.24425 0
M  V30 8395 O 789.451 1.25862 -1.57228 0
M  V30 8396 C 786.516 1.89725 -2.90182 0
M  V30 8397 C 785.577 1.42782 -4.0486 0
M  V30 8398 C 784.81 2.56361 -4.68097 0
M  V30 8399 O 785.033 3.74417 -4.30312 0
M  V30 8400 O 783.967 2.2775 -5.57148 0
M  V30 8401 H 787.793 0.158007 -3.03289 0
M  V30 8402 H 785.378 0.0120279 -1.49395 0
M  V30 8403 H 787.26 2.59382 -3.32113 0
M  V30 8404 H 785.935 2.432 -2.13624 0
M  V30 8405 H 784.842 0.699359 -3.67505 0
M  V30 8406 H 786.175 0.939474 -4.83151 0
M  V30 8407 N 787.827 1.57504 0.0551401 0
M  V30 8408 C 788.774 2.04825 1.06373 0
M  V30 8409 C 789.744 0.932108 1.37481 0
M  V30 8410 O 790.929 1.20093 1.48265 0
M  V30 8411 C 788.069 2.51091 2.36743 0
M  V30 8412 C 787.182 3.76392 2.12021 0
M  V30 8413 C 786.317 4.11373 3.36074 0
M  V30 8414 C 785.356 5.29666 3.0679 0
M  V30 8415 N 784.493 5.60205 4.2322 0
M  V30 8416 H 789.333 2.90753 0.653216 0
M  V30 8417 H 786.87 1.43776 0.310951 0
M  V30 8418 H 788.828 2.75973 3.12881 0
M  V30 8419 H 787.458 1.68118 2.75565 0
M  V30 8420 H 786.51 3.58751 1.26498 0
M  V30 8421 H 787.822 4.62662 1.86401 0
M  V30 8422 H 786.976 4.37245 4.20597 0
M  V30 8423 H 785.715 3.23704 3.64784 0
M  V30 8424 H 784.72 5.03574 2.20664 0
M  V30 8425 H 785.945 6.18968 2.79385 0
M  V30 8426 H 783.891 4.75495 4.5193 0
M  V30 8427 H 783.808 6.40928 4.00933 0
M  V30 8428 H 785.076 5.90637 5.08692 0
M  V30 8429 N 789.305 -0.326896 1.54172 0
M  V30 8430 C 790.716 -0.901533 1.63491 0
M  V30 8431 C 791.067 -1.88994 0.52684 0
M  V30 8432 O 790.192 -2.137 -0.340794 0
M  V30 8433 C 790.787 -1.64192 2.96355 0
M  V30 8434 C 789.346 -2.16533 3.07881 0
M  V30 8435 C 788.493 -0.98966 2.59039 0
M  V30 8436 H 791.444 -0.104568 1.58355 0
M  V30 8437 H 791.465 -2.50592 2.86328 0
M  V30 8438 H 790.977 -0.922291 3.76982 0
M  V30 8439 H 789.078 -2.91622 2.31922 0
M  V30 8440 H 789.191 -2.41762 4.13628 0
M  V30 8441 H 787.555 -1.36787 2.14852 0
M  V30 8442 H 788.338 -0.284401 3.4212 0
M  V30 8443 N 790.784 -1.46188 -0.588786 0
M  V30 8444 C 792.033 -1.50452 -1.34339 0
M  V30 8445 C 792.346 -0.158096 -1.9496 0
M  V30 8446 O 793.552 -0.0784918 -2.71387 0
M  V30 8447 C 792.008 -2.65074 -2.43441 0
M  V30 8448 C 791.616 -4.06111 -1.8915 0
M  V30 8449 C 793.36 -2.78603 -3.20282 0
M  V30 8450 C 791.267 -5.12084 -2.95845 0
M  V30 8451 H 790.197 -0.559905 -0.504997 0
M  V30 8452 H 792.848 -1.72382 -0.629014 0
M  V30 8453 H 791.23 -2.36462 -3.1765 0
M  V30 8454 H 792.404 -4.44487 -1.21524 0
M  V30 8455 H 790.719 -3.97197 -1.24995 0
M  V30 8456 H 793.316 -3.54944 -3.99898 0
M  V30 8457 H 793.659 -1.85902 -3.72486 0
M  V30 8458 H 794.192 -3.06832 -2.53178 0
M  V30 8459 H 790.931 -6.06556 -2.48535 0
M  V30 8460 H 790.451 -4.78259 -3.61979 0
M  V30 8461 H 792.13 -5.37661 -3.59902 0
M  V30 8462 N 792.262 0.832906 -1.33792 0
M  V30 8463 C 793.539 1.57359 -1.16178 0
M  V30 8464 C 793.919 2.09372 0.269532 0
M  V30 8465 O 793.267 1.89993 1.26944 0
M  V30 8466 C 793.477 2.70279 -2.20795 0
M  V30 8467 C 794.825 3.39305 -2.55259 0
M  V30 8468 O 795.849 2.80526 -2.19508 0
M  V30 8469 O 794.708 4.45428 -3.16632 0
M  V30 8470 H 791.802 0.694025 -0.449731 0
M  V30 8471 H 794.348 0.875144 -1.45394 0
M  V30 8472 H 793.12 2.29527 -3.16911 0
M  V30 8473 H 792.743 3.47782 -1.927 0
M  V30 8474 N 793.74 1.17359 1.05189 0
M  V30 8475 C 794.965 0.98709 1.82404 0
M  V30 8476 C 795.39 -0.459848 1.82392 0
M  V30 8477 O 794.748 -1.32924 1.23292 0
M  V30 8478 C 794.796 1.53276 3.26403 0
M  V30 8479 O 793.9 0.746541 4.05587 0
M  V30 8480 H 793.241 0.35047 0.563974 0
M  V30 8481 H 795.771 1.55856 1.32552 0
M  V30 8482 H 795.781 1.55504 3.77203 0
M  V30 8483 H 794.456 2.58603 3.25726 0
M  V30 8484 H 793.033 0.795671 3.64312 0
M  V30 8485 N 795.218 -1.23913 0.973828 0
M  V30 8486 C 796.128 -2.28838 0.516735 0
M  V30 8487 C 797.144 -1.68723 -0.425282 0
M  V30 8488 O 798.32 -1.99201 -0.296819 0
M  V30 8489 C 795.385 -3.46233 -0.179914 0
M  V30 8490 C 794.446 -4.21729 0.80269 0
M  V30 8491 C 793.679 -5.33518 0.139191 0
M  V30 8492 O 793.902 -5.60252 -1.07118 0
M  V30 8493 O 792.836 -5.96088 0.834447 0
M  V30 8494 H 796.662 -2.70067 1.38916 0
M  V30 8495 H 794.247 -1.2972 0.74115 0
M  V30 8496 H 796.129 -4.17514 -0.570991 0
M  V30 8497 H 794.804 -3.06969 -1.02721 0
M  V30 8498 H 793.711 -3.52799 1.24434 0
M  V30 8499 H 795.044 -4.64825 1.61859 0
M  V30 8500 N 796.696 -0.74468 -1.38897 0
M  V30 8501 C 797.924 -0.307428 -2.04603 0
M  V30 8502 C 798.339 1.06115 -1.56157 0
M  V30 8503 O 797.696 1.67233 -0.730701 0
M  V30 8504 C 797.747 -0.31101 -3.6016 0
M  V30 8505 O 797.468 -1.62557 -4.06825 0
M  V30 8506 C 798.969 0.141213 -4.43075 0
M  V30 8507 H 796.189 -0.132741 -0.657739 0
M  V30 8508 H 798.733 -1.01104 -1.77759 0
M  V30 8509 H 796.888 0.343792 -3.85872 0
M  V30 8510 H 797.302 -1.54569 -5.01207 0
M  V30 8511 H 798.776 0.0875449 -5.51931 0
M  V30 8512 H 799.253 1.18782 -4.22833 0
M  V30 8513 H 799.859 -0.484383 -4.22533 0
M  V30 8514 N 798.174 1.49689 -0.493057 0
M  V30 8515 C 799.121 2.28976 0.28959 0
M  V30 8516 C 800.091 1.35011 0.967536 0
M  V30 8517 O 801.276 1.63964 0.975736 0
M  V30 8518 C 798.416 3.1748 1.35279 0
M  V30 8519 C 797.529 4.26496 0.687418 0
M  V30 8520 C 796.664 5.02226 1.73038 0
M  V30 8521 C 795.703 6.03089 1.04645 0
M  V30 8522 N 794.84 6.72014 2.03325 0
M  V30 8523 H 799.68 2.954 -0.392798 0
M  V30 8524 H 797.217 1.45657 -0.205554 0
M  V30 8525 H 799.175 3.67162 1.98111 0
M  V30 8526 H 797.805 2.53057 2.00405 0
M  V30 8527 H 796.857 3.80362 -0.0540001 0
M  V30 8528 H 798.169 4.98578 0.14864 0
M  V30 8529 H 797.323 5.55737 2.43395 0
M  V30 8530 H 796.062 4.29899 2.303 0
M  V30 8531 H 795.067 5.48817 0.328606 0
M  V30 8532 H 796.292 6.77398 0.480428 0
M  V30 8533 H 794.238 6.02464 2.59564 0
M  V30 8534 H 794.155 7.40046 1.54492 0
M  V30 8535 H 795.423 7.30133 2.72995 0
M  V30 8536 N 799.652 0.226554 1.55963 0
M  V30 8537 C 800.585 -0.721625 2.1649 0
M  V30 8538 C 801.563 -1.18745 1.11078 0
M  V30 8539 O 802.747 -1.26929 1.3936 0
M  V30 8540 C 799.874 -1.97828 2.74921 0
M  V30 8541 C 798.92 -1.65202 3.93206 0
M  V30 8542 S 799.753 -0.772419 5.299 0
M  V30 8543 C 800.909 -2.03853 5.91773 0
M  V30 8544 H 801.142 -0.207192 2.96577 0
M  V30 8545 H 798.675 0.0111976 1.54396 0
M  V30 8546 H 800.633 -2.69982 3.09225 0
M  V30 8547 H 799.294 -2.46384 1.94817 0
M  V30 8548 H 798.487 -2.58583 4.32609 0
M  V30 8549 H 798.089 -1.01108 3.60074 0
M  V30 8550 H 800.381 -2.98799 6.08051 0
M  V30 8551 H 801.324 -1.68831 6.87678 0
M  V30 8552 H 801.732 -2.18134 5.20651 0
M  V30 8553 O 801.169 -1.61246 0.0904713 0
M  V30 8554 H 801.86 -1.86788 -0.512833 0
M  V30 END ATOM
M  V30 BEGIN BOND
M  V30 END BOND
M  V30 END CTAB
M  END
$$$$
