drugbank_target|P43007 Neutral amino acid transporter A (DB00160)
 OpenBabel12092119323D

  0  0  0     0  0            999 V3000
M  V30 BEGIN CTAB
M  V30 COUNTS 7981 8049 0 0 0
M  V30 BEGIN ATOM
M  V30 1 H -0.908 1.98254 -0.117106 0
M  V30 2 N 0 1.576 0 0
M  V30 3 C 0.933 2.03868 1.02534 0
M  V30 4 C 1.911 0.928543 1.3348 0
M  V30 5 O 3.095 1.19667 1.45644 0
M  V30 6 C 0.222 2.43627 2.35294 0
M  V30 7 C -0.732 3.65373 2.2001 0
M  V30 8 S 0.101 5.13292 1.52614 0
M  V30 9 C 1.257 5.56322 2.86805 0
M  V30 10 H 1.49 2.90518 0.631377 0
M  V30 11 H -0.977 1.52953 0.210867 0
M  V30 12 H 0.981 2.67203 3.11629 0
M  V30 13 H -0.358 1.57376 2.7183 0
M  V30 14 H -1.165 3.90944 3.18086 0
M  V30 15 H -1.563 3.418 1.51819 0
M  V30 16 H 0.729 5.58782 3.83104 0
M  V30 17 H 1.672 6.56266 2.65933 0
M  V30 18 H 2.08 4.83886 2.90714 0
M  V30 19 N 1.4781 -0.272755 1.55222 0
M  V30 20 C 2.3881 -1.35918 1.91216 0
M  V30 21 C 3.4041 -1.54026 0.809436 0
M  V30 22 O 4.5801 -1.68148 1.10852 0
M  V30 23 C 1.6451 -2.69834 2.17693 0
M  V30 24 C 0.7061 -2.6047 3.41253 0
M  V30 25 C -0.0609 -3.88 3.66458 0
M  V30 26 O 0.1621 -4.88693 2.94169 0
M  V30 27 O -0.9039 -3.88189 4.59992 0
M  V30 28 H 2.9221 -1.0839 2.83699 0
M  V30 29 H 0.5071 -0.471301 1.41771 0
M  V30 30 H 2.3891 -3.49017 2.36147 0
M  V30 31 H 1.0641 -2.97148 1.28392 0
M  V30 32 H -0.0289 -1.79663 3.28134 0
M  V30 33 H 1.3041 -2.38106 4.30774 0
M  V30 34 N 2.9562 -1.48159 -0.537278 0
M  V30 35 C 3.9032 -1.62138 -1.64256 0
M  V30 36 C 4.8732 -0.463668 -1.59497 0
M  V30 37 O 6.0582 -0.686241 -1.78032 0
M  V30 38 C 3.1982 -1.66028 -3.02537 0
M  V30 39 C 2.3112 -2.92855 -3.17585 0
M  V30 40 C 1.4462 -2.87952 -4.46382 0
M  V30 41 C 0.4852 -4.09516 -4.54932 0
M  V30 42 N -0.3778 -4.02733 -5.75109 0
M  V30 43 H 4.4622 -2.56529 -1.51647 0
M  V30 44 H 1.9992 -1.27224 -0.738414 0
M  V30 45 H 3.9572 -1.66265 -3.82638 0
M  V30 46 H 2.5872 -0.751331 -3.13934 0
M  V30 47 H 1.6392 -3.02395 -2.30784 0
M  V30 48 H 2.9512 -3.82822 -3.19764 0
M  V30 49 H 2.1052 -2.8655 -5.34765 0
M  V30 50 H 0.8442 -1.95702 -4.46712 0
M  V30 51 H -0.1508 -4.11201 -3.64957 0
M  V30 52 H 1.0742 -5.02917 -4.56346 0
M  V30 53 H -0.9798 -3.13299 -5.76351 0
M  V30 54 H -1.0628 -4.86397 -5.78752 0
M  V30 55 H 0.2052 -4.05379 -6.65799 0
M  V30 56 N 4.4343 0.785586 -1.36625 0
M  V30 57 C 5.6593 1.57963 -1.34397 0
M  V30 58 C 6.0843 1.87964 0.071526 0
M  V30 59 O 5.4423 1.48182 1.0446 0
M  V30 60 C 5.4903 2.87511 -2.17646 0
M  V30 61 O 4.5943 3.81281 -1.57158 0
M  V30 62 H 3.9353 0.479014 -0.459828 0
M  V30 63 H 6.4653 0.973411 -1.79961 0
M  V30 64 H 6.4753 3.36745 -2.30362 0
M  V30 65 H 5.1503 2.65002 -3.20541 0
M  V30 66 H 3.7273 3.39885 -1.53403 0
M  V30 67 N 5.9124 1.20967 1.01018 0
M  V30 68 C 6.8604 0.961223 2.1181 0
M  V30 69 C 7.8544 -0.0897034 1.69162 0
M  V30 70 O 9.0604 0.0612271 1.79896 0
M  V30 71 H 5.4354 0.29355 0.692338 0
M  V30 72 H 7.4064 1.90178 2.29946 0
M  V30 73 C 6.1554 0.536854 3.4353 0
M  V30 74 H 5.4784 1.33713 3.76777 0
M  V30 75 H 6.9184 0.402286 4.22087 0
M  V30 76 C 5.3774 -0.751574 3.2841 0
M  V30 77 O 5.9074 -1.80841 3.58691 0
M  V30 78 N 4.1134 -0.716079 2.81639 0
M  V30 79 H 3.6604 0.144236 2.57196 0
M  V30 80 H 3.6184 -1.57847 2.71904 0
M  V30 81 N 7.3905 -1.2043 1.01659 0
M  V30 82 C 8.3005 -2.2689 0.596484 0
M  V30 83 C 9.3165 -1.70107 -0.36599 0
M  V30 84 O 10.4925 -2.00117 -0.226942 0
M  V30 85 C 7.5575 -3.4665 -0.0586659 0
M  V30 86 C 6.6185 -4.18662 0.949751 0
M  V30 87 C 5.8515 -5.32705 0.32577 0
M  V30 88 O 6.0745 -5.63656 -0.874509 0
M  V30 89 O 5.0085 -5.92803 1.04249 0
M  V30 90 H 8.8345 -2.65041 1.4828 0
M  V30 91 H 6.4195 -1.27048 0.786082 0
M  V30 92 H 8.3015 -4.19256 -0.424564 0
M  V30 93 H 6.9765 -3.10375 -0.91918 0
M  V30 94 H 5.8835 -3.48229 1.36702 0
M  V30 95 H 7.2165 -4.58878 1.78023 0
M  V30 96 N 8.8686 -0.792821 -1.36206 0
M  V30 97 C 10.0966 -0.378825 -2.03402 0
M  V30 98 C 10.5116 1.00586 -1.59774 0
M  V30 99 O 9.8686 1.64574 -0.788764 0
M  V30 100 C 9.9196 -0.43683 -3.58851 0
M  V30 101 O 9.6406 -1.76691 -4.00889 0
M  V30 102 C 11.1416 -0.0138943 -4.43298 0
M  V30 103 H 8.3616 -0.155673 -0.652692 0
M  V30 104 H 10.9056 -1.07261 -1.74113 0
M  V30 105 H 9.0606 0.208575 -3.86838 0
M  V30 106 H 9.4746 -1.72011 -4.95492 0
M  V30 107 H 10.9486 -0.105615 -5.51899 0
M  V30 108 H 11.4256 1.03915 -4.2673 0
M  V30 109 H 12.0316 -0.63192 -4.20579 0
M  V30 110 N 10.3467 1.47872 -0.545128 0
M  V30 111 C 11.2947 2.31533 0.222512 0
M  V30 112 C 12.2887 1.42177 0.920985 0
M  V30 113 O 13.4947 1.59005 0.843645 0
M  V30 114 H 9.8697 0.746519 0.0906278 0
M  V30 115 H 11.8407 2.94139 -0.50246 0
M  V30 116 C 10.5897 3.2457 1.24699 0
M  V30 117 H 9.9127 3.93283 0.718944 0
M  V30 118 H 11.3527 3.85963 1.75523 0
M  V30 119 C 9.8117 2.47237 2.28856 0
M  V30 120 O 10.3417 2.20808 3.35569 0
M  V30 121 N 8.5477 2.08461 2.02466 0
M  V30 122 H 8.0947 2.30155 1.157 0
M  V30 123 H 8.0527 1.57033 2.72375 0
M  V30 124 N 11.8248 0.280983 1.55075 0
M  V30 125 C 13.0728 -0.333455 1.9933 0
M  V30 126 C 13.3938 -1.55937 1.17085 0
M  V30 127 O 12.6638 -1.94143 0.261805 0
M  V30 128 H 11.2438 -0.126197 0.736263 0
M  V30 129 H 13.9058 0.387678 1.91005 0
M  V30 130 H 13.0018 -0.619292 3.05894 0
M  V30 131 N 13.3029 -1.57598 0.00835791 0
M  V30 132 C 14.5329 -1.94931 -0.684496 0
M  V30 133 C 14.9409 -0.882233 -1.67372 0
M  V30 134 O 14.2839 0.146621 -1.83114 0
M  V30 135 C 14.3459 -3.283 -1.4649 0
M  V30 136 C 14.0099 -4.52548 -0.63634 0
M  V30 137 C 15.0069 -5.19839 0.0795586 0
M  V30 138 C 12.6919 -4.98942 -0.579849 0
M  V30 139 C 14.6859 -6.3183 0.840843 0
M  V30 140 C 12.3729 -6.10819 0.185155 0
M  V30 141 C 13.3709 -6.77121 0.894227 0
M  V30 142 O 13.0589 -7.86853 1.64673 0
M  V30 143 H 12.7909 -0.647249 -0.19505 0
M  V30 144 H 15.3449 -2.05318 0.0581272 0
M  V30 145 H 13.5749 -3.14345 -2.2522 0
M  V30 146 H 15.2639 -3.50685 -2.04389 0
M  V30 147 H 16.0299 -4.84979 0.0451202 0
M  V30 148 H 11.9089 -4.47155 -1.1213 0
M  V30 149 H 15.4529 -6.83513 1.39483 0
M  V30 150 H 11.3499 -6.4512 0.221384 0
M  V30 151 H 12.1179 -8.03412 1.56432 0
M  V30 152 N 14.781 0.264519 -1.55364 0
M  V30 153 C 15.711 1.33121 -1.91836 0
M  V30 154 C 16.692 1.51101 -0.781192 0
M  V30 155 O 17.877 1.64003 -1.04003 0
M  V30 156 C 15.007 2.68921 -2.19769 0
M  V30 157 C 13.961 2.65661 -3.35571 0
M  V30 158 C 13.287 4.05093 -3.49004 0
M  V30 159 C 14.587 2.24187 -4.71739 0
M  V30 160 H 16.281 1.02844 -2.81182 0
M  V30 161 H 13.827 0.493286 -1.35287 0
M  V30 162 H 15.78 3.43663 -2.43872 0
M  V30 163 H 14.504 3.00799 -1.27231 0
M  V30 164 H 13.163 1.93377 -3.1145 0
M  V30 165 H 12.811 4.34206 -2.53917 0
M  V30 166 H 12.511 4.03804 -4.26868 0
M  V30 167 H 14.035 4.81561 -3.75408 0
M  V30 168 H 15.449 2.88654 -4.9533 0
M  V30 169 H 13.846 2.34044 -5.52579 0
M  V30 170 H 14.916 1.19327 -4.69988 0
M  V30 171 N 16.2591 1.48442 0.529413 0
M  V30 172 C 17.5361 1.46978 1.29062 0
M  V30 173 C 17.9161 0.181769 2.10316 0
M  V30 174 O 17.2641 -0.836481 2.12639 0
M  V30 175 C 17.4741 2.7321 2.17157 0
M  V30 176 C 18.8221 3.21562 2.77278 0
M  V30 177 O 19.8461 2.74131 2.27444 0
M  V30 178 O 18.7051 4.04094 3.67927 0
M  V30 179 H 15.7991 0.587003 0.582543 0
M  V30 180 H 18.3451 1.60676 0.546021 0
M  V30 181 H 17.1171 3.58465 1.56903 0
M  V30 182 H 16.7401 2.62235 2.98862 0
M  V30 183 N 17.7372 -0.778329 1.37039 0
M  V30 184 C 18.9622 -1.57248 1.35233 0
M  V30 185 C 19.3872 -1.87999 -0.0615568 0
M  V30 186 O 18.7452 -1.48734 -1.03672 0
M  V30 187 C 18.7932 -2.86353 2.19167 0
M  V30 188 O 17.8972 -3.80442 1.59178 0
M  V30 189 H 17.2382 -0.476569 0.462362 0
M  V30 190 H 19.7682 -0.963853 1.80474 0
M  V30 191 H 19.7782 -3.35519 2.32145 0
M  V30 192 H 18.4532 -2.63299 3.21942 0
M  V30 193 H 17.0302 -3.39067 1.55203 0
M  V30 194 N 19.2153 -1.21501 -1.00376 0
M  V30 195 C 20.1783 -0.976927 -2.07337 0
M  V30 196 C 21.1783 0.0525322 -1.60714 0
M  V30 197 O 22.3683 -0.184869 -1.73216 0
M  V30 198 C 19.5003 -0.473423 -3.37597 0
M  V30 199 H 20.6933 -1.92587 -2.29892 0
M  V30 200 H 18.2463 -1.03217 -1.17371 0
M  V30 201 H 18.9813 0.480379 -3.20722 0
M  V30 202 H 18.7663 -1.216 -3.72768 0
M  V30 203 H 20.2563 -0.32675 -4.1632 0
M  V30 204 N 20.6934 1.19889 -1.02296 0
M  V30 205 C 21.6254 2.22334 -0.556787 0
M  V30 206 C 22.6384 1.58674 0.364199 0
M  V30 207 O 23.8274 1.77768 0.161533 0
M  V30 208 C 20.9274 3.38257 0.208694 0
M  V30 209 C 20.1004 4.31504 -0.71577 0
M  V30 210 C 19.1594 5.262 0.00325597 0
M  V30 211 O 18.1854 5.65798 -0.621357 0
M  V30 212 N 19.3874 5.66303 1.27599 0
M  V30 213 H 22.1524 2.62957 -1.43784 0
M  V30 214 H 19.7134 1.34495 -0.901261 0
M  V30 215 H 21.7054 3.98616 0.699111 0
M  V30 216 H 20.2754 2.96472 0.991102 0
M  V30 217 H 19.4954 3.69016 -1.38638 0
M  V30 218 H 20.7834 4.9072 -1.34428 0
M  V30 219 H 20.1814 5.36155 1.80429 0
M  V30 220 H 18.7384 6.28942 1.71102 0
M  V30 221 N 22.1715 0.800033 1.35784 0
M  V30 222 C 23.1345 0.211565 2.28221 0
M  V30 223 C 24.1345 -0.59728 1.49296 0
M  V30 224 O 25.3245 -0.416721 1.69142 0
M  V30 225 C 22.4565 -0.705846 3.33513 0
M  V30 226 H 23.6495 1.02677 2.81776 0
M  V30 227 H 21.2025 0.570211 1.45528 0
M  V30 228 H 21.9375 -1.54498 2.85133 0
M  V30 229 H 21.7225 -0.127655 3.91892 0
M  V30 230 H 23.2125 -1.11211 4.02519 0
M  V30 231 N 23.6496 -1.47581 0.552962 0
M  V30 232 C 24.8976 -2.02082 0.0272703 0
M  V30 233 C 25.2186 -1.4301 -1.32563 0
M  V30 234 O 24.4886 -0.603745 -1.86365 0
M  V30 235 H 23.0686 -0.746966 0.00709182 0
M  V30 236 H 25.7306 -1.81033 0.722008 0
M  V30 237 H 24.8266 -3.12034 -0.0639951 0
M  V30 238 N 25.1277 -0.289203 -1.54924 0
M  V30 239 C 26.5387 0.205791 -1.85562 0
M  V30 240 C 26.8897 1.54351 -1.2112 0
M  V30 241 O 26.0147 2.10435 -0.504601 0
M  V30 242 C 26.6097 0.380177 -3.3666 0
M  V30 243 C 25.1687 0.819395 -3.67373 0
M  V30 244 C 24.3157 -0.079159 -2.77187 0
M  V30 245 H 27.2667 -0.510577 -1.50262 0
M  V30 246 H 27.2877 1.21659 -3.60526 0
M  V30 247 H 26.7997 -0.593589 -3.83534 0
M  V30 248 H 24.9007 1.80413 -3.26009 0
M  V30 249 H 25.0137 0.646957 -4.74712 0
M  V30 250 H 23.3777 0.439565 -2.50878 0
M  V30 251 H 24.1607 -1.04906 -3.26878 0
M  V30 252 N 26.6058 1.57591 -0.0167156 0
M  V30 253 C 27.5688 2.08393 0.954204 0
M  V30 254 C 28.5688 0.996531 1.26198 0
M  V30 255 O 29.7588 1.25858 1.20438 0
M  V30 256 C 26.8908 2.5394 2.27436 0
M  V30 257 H 28.0838 2.95455 0.514451 0
M  V30 258 H 25.6368 1.54582 0.231089 0
M  V30 259 H 26.3718 1.70171 2.76066 0
M  V30 260 H 26.1568 3.33371 2.06412 0
M  V30 261 H 27.6468 2.93512 2.97053 0
M  V30 262 N 28.0839 -0.256276 1.55502 0
M  V30 263 C 29.0469 -1.30047 1.88734 0
M  V30 264 C 30.0469 -1.4154 0.763086 0
M  V30 265 O 31.2369 -1.40403 1.03115 0
M  V30 266 C 28.3689 -2.67953 2.10747 0
M  V30 267 H 29.5619 -1.01802 2.82093 0
M  V30 268 H 27.1149 -0.495134 1.4825 0
M  V30 269 H 27.8499 -3.01351 1.19825 0
M  V30 270 H 27.6349 -2.60993 2.92617 0
M  V30 271 H 29.1249 -3.43368 2.37673 0
M  V30 272 N 29.562 -1.4872 -0.521534 0
M  V30 273 C 30.81 -1.56857 -1.27437 0
M  V30 274 C 31.131 -0.247982 -1.93417 0
M  V30 275 O 30.401 0.731151 -1.81744 0
M  V30 276 H 28.981 -0.577885 -0.473347 0
M  V30 277 H 31.643 -1.85233 -0.606205 0
M  V30 278 H 30.739 -2.35402 -2.0492 0
M  V30 279 N 31.0401 0.771051 -1.3745 0
M  V30 280 C 32.4511 1.34737 -1.29239 0
M  V30 281 C 32.8021 1.96109 0.0596908 0
M  V30 282 O 31.9271 1.93865 0.961534 0
M  V30 283 C 32.5221 2.44973 -2.34037 0
M  V30 284 C 31.0811 2.98372 -2.29458 0
M  V30 285 C 30.2281 1.71595 -2.17831 0
M  V30 286 H 33.1791 0.571256 -1.48062 0
M  V30 287 H 33.2001 3.24471 -1.98744 0
M  V30 288 H 32.7121 2.00276 -3.32432 0
M  V30 289 H 30.8131 3.47443 -1.34589 0
M  V30 290 H 30.9261 3.53939 -3.229 0
M  V30 291 H 29.2901 1.94547 -1.64388 0
M  V30 292 H 30.0731 1.29001 -3.18141 0
M  V30 293 N 32.5182 1.22032 0.997298 0
M  V30 294 C 33.7662 1.04016 1.73278 0
M  V30 295 C 34.0872 -0.426255 1.90284 0
M  V30 296 O 33.3572 -1.30694 1.45931 0
M  V30 297 H 31.9372 0.381897 0.642 0
M  V30 298 H 34.5992 1.5347 1.20137 0
M  V30 299 H 33.6952 1.51441 2.72896 0
M  V30 300 N 33.9963 -1.19345 1.0293 0
M  V30 301 C 34.9593 -2.20793 0.615069 0
M  V30 302 C 35.9593 -1.57553 -0.321533 0
M  V30 303 O 37.1493 -1.73862 -0.108483 0
M  V30 304 C 34.2813 -3.40754 -0.0999222 0
M  V30 305 H 35.4743 -2.58955 1.51269 0
M  V30 306 H 33.0273 -1.3303 0.820534 0
M  V30 307 H 33.7623 -3.0811 -1.01187 0
M  V30 308 H 33.5473 -3.87889 0.57309 0
M  V30 309 H 35.0373 -4.15898 -0.376645 0
M  V30 310 N 35.4744 -0.807222 -1.35358 0
M  V30 311 C 36.8854 -0.44876 -1.81226 0
M  V30 312 C 37.2364 1.02929 -1.67033 0
M  V30 313 O 36.3614 1.79991 -1.20133 0
M  V30 314 C 36.9564 -0.807774 -3.2903 0
M  V30 315 C 35.5154 -0.501901 -3.73039 0
M  V30 316 C 34.6624 -1.03304 -2.57339 0
M  V30 317 H 37.6134 -0.998808 -1.23327 0
M  V30 318 H 37.6344 -0.10554 -3.80354 0
M  V30 319 H 37.1464 -1.88357 -3.39328 0
M  V30 320 H 35.2474 0.565128 -3.68289 0
M  V30 321 H 35.3604 -1.03497 -4.67787 0
M  V30 322 H 33.7244 -0.455339 -2.50597 0
M  V30 323 H 34.5074 -2.11496 -2.70415 0
M  V30 324 N 36.9525 1.47285 -0.560781 0
M  V30 325 C 38.2005 2.02064 -0.0379868 0
M  V30 326 C 38.5215 1.43711 1.31803 0
M  V30 327 O 37.7915 0.61362 1.86042 0
M  V30 328 H 36.3715 0.746918 -0.0110531 0
M  V30 329 H 39.0335 1.80648 -0.731598 0
M  V30 330 H 38.1295 3.12064 0.0474463 0
M  V30 331 N 38.4306 0.297415 1.54768 0
M  V30 332 C 39.6586 -0.315623 2.04478 0
M  V30 333 C 40.0736 -1.47792 1.17486 0
M  V30 334 O 39.4306 -1.81404 0.19971 0
M  V30 335 C 39.4816 -0.7753 3.53088 0
M  V30 336 O 39.2026 0.340732 4.36773 0
M  V30 337 C 40.7036 -1.45386 4.18781 0
M  V30 338 H 37.9236 -0.0690887 0.667434 0
M  V30 339 H 40.4676 0.436003 1.99798 0
M  V30 340 H 38.6226 -1.47696 3.58141 0
M  V30 341 H 39.0366 -0.0165035 5.24497 0
M  V30 342 H 40.5106 -1.72669 5.24299 0
M  V30 343 H 40.9876 -2.39275 3.68299 0
M  V30 344 H 41.5936 -0.795475 4.17795 0
M  V30 345 N 39.9087 -1.5758 0.0250728 0
M  V30 346 C 40.8717 -2.08896 -0.943139 0
M  V30 347 C 41.8717 -1.00321 -1.25668 0
M  V30 348 O 43.0617 -1.26495 -1.19769 0
M  V30 349 C 40.1937 -2.55143 -2.26086 0
M  V30 350 H 41.3867 -2.95723 -0.498775 0
M  V30 351 H 38.9397 -1.54703 -0.222888 0
M  V30 352 H 39.6747 -1.71633 -2.75159 0
M  V30 353 H 39.4597 -3.34461 -2.04641 0
M  V30 354 H 40.9497 -2.95083 -2.95492 0
M  V30 355 N 41.3868 0.248026 -1.55636 0
M  V30 356 C 42.3498 1.29044 -1.89421 0
M  V30 357 C 43.3498 1.41134 -0.770581 0
M  V30 358 O 44.5398 1.39854 -1.03858 0
M  V30 359 C 41.6718 2.66831 -2.12165 0
M  V30 360 H 42.8648 1.00305 -2.82629 0
M  V30 361 H 40.4178 0.487265 -1.48511 0
M  V30 362 H 41.1528 3.00711 -1.21422 0
M  V30 363 H 40.9378 2.59438 -2.93997 0
M  V30 364 H 42.4278 3.42103 -2.3949 0
M  V30 365 N 42.8649 1.48995 0.513639 0
M  V30 366 C 44.1129 1.57531 1.26604 0
M  V30 367 C 44.4339 0.258236 1.93283 0
M  V30 368 O 43.7039 -0.721502 1.8213 0
M  V30 369 H 42.2839 0.580387 0.470276 0
M  V30 370 H 44.9459 1.85552 0.596373 0
M  V30 371 H 44.0419 2.36486 2.03669 0
M  V30 372 N 44.343 -0.763751 1.37857 0
M  V30 373 C 45.759 -1.06542 1.18832 0
M  V30 374 C 45.959 -2.01478 0.0299722 0
M  V30 375 O 45.015 -2.4458 -0.627447 0
M  V30 376 C 46.328 -1.65525 2.51042 0
M  V30 377 C 47.876 -1.77745 2.57635 0
M  V30 378 C 48.351 -2.4014 3.89996 0
M  V30 379 N 49.842 -2.47582 3.91481 0
M  V30 380 C 50.577 -2.96732 4.9065 0
M  V30 381 N 50.073 -3.45993 6.00217 0
M  V30 382 N 51.866 -2.95679 4.78048 0
M  V30 383 H 44.017 -0.133556 2.1198 0
M  V30 384 H 46.28 -0.121879 0.940133 0
M  V30 385 H 45.986 -1.03236 3.36207 0
M  V30 386 H 45.86 -2.64719 2.68707 0
M  V30 387 H 48.247 -2.39164 1.72872 0
M  V30 388 H 48.328 -0.772836 2.43846 0
M  V30 389 H 47.972 -1.79358 4.75177 0
M  V30 390 H 47.902 -3.41223 4.01092 0
M  V30 391 H 50.393 -2.1273 3.12337 0
M  V30 392 H 50.706 -3.81922 6.7183 0
M  V30 393 H 49.051 -3.44077 6.03851 0
M  V30 394 H 52.242 -2.56499 3.91568 0
M  V30 395 H 52.415 -3.33672 5.55488 0
M  V30 396 N 45.8211 -1.22559 -0.990812 0
M  V30 397 C 46.7841 -0.998863 -2.0629 0
M  V30 398 C 47.7841 0.0354834 -1.60761 0
M  V30 399 O 48.9741 -0.203231 -1.7301 0
M  V30 400 C 46.1061 -0.509203 -3.37076 0
M  V30 401 H 47.2991 -1.95014 -2.27837 0
M  V30 402 H 44.8521 -1.04456 -1.16269 0
M  V30 403 H 45.5871 0.446335 -3.21214 0
M  V30 404 H 45.3721 -1.25547 -3.71457 0
M  V30 405 H 46.8621 -0.370888 -4.1595 0
M  V30 406 N 47.2992 1.18797 -1.03562 0
M  V30 407 C 48.7152 1.40671 -0.753917 0
M  V30 408 C 48.9152 1.9043 0.658686 0
M  V30 409 O 47.9712 2.08538 1.42366 0
M  V30 410 C 49.2842 2.41192 -1.79574 0
M  V30 411 C 50.8322 2.54928 -1.81606 0
M  V30 412 C 51.3072 3.58709 -2.84766 0
M  V30 413 N 52.7982 3.66212 -2.83625 0
M  V30 414 C 53.5332 4.46225 -3.60098 0
M  V30 415 N 53.0292 5.29888 -4.46308 0
M  V30 416 N 54.8222 4.40939 -3.4861 0
M  V30 417 H 46.9732 0.848221 -1.94728 0
M  V30 418 H 49.2362 0.435081 -0.842264 0
M  V30 419 H 48.9422 2.11669 -2.80872 0
M  V30 420 H 48.8162 3.40467 -1.62365 0
M  V30 421 H 51.2032 2.83771 -0.809817 0
M  V30 422 H 51.2842 1.55784 -2.02891 0
M  V30 423 H 50.9282 3.30607 -3.85566 0
M  V30 424 H 50.8582 4.57519 -2.60737 0
M  V30 425 H 53.3492 3.06466 -2.21105 0
M  V30 426 H 53.6622 5.88078 -5.01382 0
M  V30 427 H 52.0072 5.29326 -4.50377 0
M  V30 428 H 55.1982 3.74624 -2.80668 0
M  V30 429 H 55.3712 5.03056 -4.08459 0
M  V30 430 N 48.7773 0.814389 1.34928 0
M  V30 431 C 50.1933 0.499084 1.51596 0
M  V30 432 C 50.3933 -0.978319 1.76157 0
M  V30 433 O 49.4493 -1.76309 1.80752 0
M  V30 434 C 50.7623 1.35121 2.68631 0
M  V30 435 C 52.3103 1.34746 2.82511 0
M  V30 436 C 52.7853 2.18388 4.0258 0
M  V30 437 N 54.2763 2.15966 4.09772 0
M  V30 438 C 55.0113 2.77437 5.01813 0
M  V30 439 N 54.5073 3.47866 5.99134 0
M  V30 440 N 56.3003 2.67037 4.94619 0
M  V30 441 H 48.4513 1.7711 1.17243 0
M  V30 442 H 50.7143 0.754256 0.574284 0
M  V30 443 H 50.4203 2.40001 2.57085 0
M  V30 444 H 50.2943 1.00991 3.63429 0
M  V30 445 H 52.6813 0.30648 2.93504 0
M  V30 446 H 52.7623 1.72869 1.88547 0
M  V30 447 H 52.4063 3.2253 3.92347 0
M  V30 448 H 52.3363 1.77621 4.9574 0
M  V30 449 H 54.8273 1.64729 3.40107 0
M  V30 450 H 55.1403 3.92038 6.65977 0
M  V30 451 H 53.4853 3.51972 5.99284 0
M  V30 452 H 56.6763 2.11597 4.17546 0
M  V30 453 H 56.8493 3.15232 5.66156 0
M  V30 454 N 50.2554 -1.46986 0.568584 0
M  V30 455 C 51.4954 -2.04336 0.0512999 0
M  V30 456 C 51.8594 -1.43214 -1.27881 0
M  V30 457 O 53.0604 -1.91679 -1.88448 0
M  V30 458 C 51.3314 -3.57389 -0.0282328 0
M  V30 459 S 52.8904 -4.36056 -0.489991 0
M  V30 460 H 49.7084 -0.71034 0.0306349 0
M  V30 461 H 52.3104 -1.80212 0.757891 0
M  V30 462 H 51.0144 -3.99395 0.944011 0
M  V30 463 H 50.5454 -3.86028 -0.75803 0
M  V30 464 H 52.5604 -4.6441 -1.74752 0
M  V30 465 N 51.7335 -0.305618 -1.54608 0
M  V30 466 C 52.6965 0.555591 -2.22364 0
M  V30 467 C 53.6965 1.05768 -1.21119 0
M  V30 468 O 54.8865 0.952972 -1.45822 0
M  V30 469 C 52.0185 1.76974 -2.91364 0
M  V30 470 H 53.2115 -0.0364572 -2.99878 0
M  V30 471 H 50.7645 -0.0565007 -1.56198 0
M  V30 472 H 51.4995 2.40151 -2.17941 0
M  V30 473 H 51.2845 1.41732 -3.65588 0
M  V30 474 H 52.7745 2.38148 -3.43038 0
M  V30 475 N 53.2116 1.57565 -0.0334293 0
M  V30 476 C 54.4596 1.91598 0.642999 0
M  V30 477 C 54.7806 0.910847 1.7242 0
M  V30 478 O 54.0506 -0.0469931 1.95844 0
M  V30 479 H 52.6306 0.707228 0.240496 0
M  V30 480 H 55.2926 1.94726 -0.0822488 0
M  V30 481 H 54.3886 2.92336 1.09298 0
M  V30 482 N 54.6897 -0.239769 1.55765 0
M  V30 483 C 55.9367 -0.966801 1.7793 0
M  V30 484 C 56.2647 -1.85046 0.599015 0
M  V30 485 O 55.5197 -1.91197 -0.417395 0
M  V30 486 C 55.8187 -1.852 3.05672 0
M  V30 487 C 55.4847 -1.1231 4.36689 0
M  V30 488 C 54.1467 -0.921689 4.72291 0
M  V30 489 C 56.4987 -0.607019 5.17653 0
M  V30 490 C 53.8267 -0.191996 5.86386 0
M  V30 491 C 56.1787 0.109241 6.32506 0
M  V30 492 C 54.8427 0.322073 6.66723 0
M  V30 493 H 54.1127 -0.353778 0.651093 0
M  V30 494 H 56.7597 -0.23634 1.90036 0
M  V30 495 H 55.0647 -2.64975 2.8861 0
M  V30 496 H 56.7617 -2.41635 3.20021 0
M  V30 497 H 53.3517 -1.29004 4.08725 0
M  V30 498 H 57.5357 -0.750153 4.90598 0
M  V30 499 H 52.7917 -0.0166949 6.11398 0
M  V30 500 H 56.9657 0.516737 6.9448 0
M  V30 501 H 54.5927 0.88944 7.54979 0
M  V30 502 N 56.1678 -1.49265 -0.50573 0
M  V30 503 C 57.0978 -1.68495 -1.61653 0
M  V30 504 C 58.0788 -0.53366 -1.61512 0
M  V30 505 O 59.2638 -0.76897 -1.78327 0
M  V30 506 C 56.3938 -1.74709 -3.00157 0
M  V30 507 C 55.3478 -2.89581 -3.15162 0
M  V30 508 C 54.6738 -2.80903 -4.5497 0
M  V30 509 C 55.9738 -4.30578 -2.95634 0
M  V30 510 H 57.6678 -2.61493 -1.45814 0
M  V30 511 H 55.2138 -1.25838 -0.70005 0
M  V30 512 H 57.1668 -1.86748 -3.77761 0
M  V30 513 H 55.8908 -0.783067 -3.17074 0
M  V30 514 H 54.5498 -2.77136 -2.39982 0
M  V30 515 H 54.1978 -1.82419 -4.68756 0
M  V30 516 H 53.8978 -3.57999 -4.65951 0
M  V30 517 H 55.4218 -2.94944 -5.34641 0
M  V30 518 H 56.8358 -4.4373 -3.63011 0
M  V30 519 H 55.2328 -5.0886 -3.18091 0
M  V30 520 H 56.3028 -4.45352 -1.91806 0
M  V30 521 N 57.6459 0.756429 -1.3826 0
M  V30 522 C 59.0619 1.0591 -1.19395 0
M  V30 523 C 59.2619 2.01459 -0.0406567 0
M  V30 524 O 58.3179 2.44909 0.614467 0
M  V30 525 C 59.6309 1.64191 -2.51916 0
M  V30 526 C 61.1789 1.76376 -2.58574 0
M  V30 527 C 61.6539 2.38069 -3.91264 0
M  V30 528 N 63.1449 2.45503 -3.92788 0
M  V30 529 C 63.8799 2.94126 -4.92217 0
M  V30 530 N 63.3759 3.42805 -6.02043 0
M  V30 531 N 65.1689 2.9314 -4.7961 0
M  V30 532 H 57.3199 0.122313 -2.12048 0
M  V30 533 H 59.5829 0.116892 -0.940766 0
M  V30 534 H 59.2889 1.01451 -3.3675 0
M  V30 535 H 59.1629 2.6329 -2.70108 0
M  V30 536 H 61.5499 2.38244 -1.74137 0
M  V30 537 H 61.6309 0.759894 -2.44252 0
M  V30 538 H 61.2749 1.76835 -4.76121 0
M  V30 539 H 61.2049 3.39091 -4.02895 0
M  V30 540 H 63.6959 2.1107 -3.13461 0
M  V30 541 H 64.0089 3.78354 -6.73846 0
M  V30 542 H 62.3539 3.4087 -6.05667 0
M  V30 543 H 65.5449 2.54419 -3.92923 0
M  V30 544 H 65.7179 3.30721 -5.5725 0
M  V30 545 N 59.124 1.23083 0.984299 0
M  V30 546 C 60.54 0.992637 1.24975 0
M  V30 547 C 60.74 -0.308618 1.99123 0
M  V30 548 O 59.796 -1.02905 2.30579 0
M  V30 549 C 61.109 2.19698 2.05312 0
M  V30 550 C 62.657 2.24147 2.18465 0
M  V30 551 C 63.132 3.44157 3.02192 0
M  V30 552 N 64.623 3.44372 3.09777 0
M  V30 553 C 65.358 4.33886 3.74874 0
M  V30 554 N 64.854 5.3363 4.41827 0
M  V30 555 N 66.647 4.21639 3.71721 0
M  V30 556 H 58.798 2.06731 0.487453 0
M  V30 557 H 61.061 0.906339 0.277944 0
M  V30 558 H 60.767 3.1411 1.58201 0
M  V30 559 H 60.641 2.20465 3.06064 0
M  V30 560 H 63.028 1.30277 2.64786 0
M  V30 561 H 63.109 2.27415 1.17115 0
M  V30 562 H 62.753 4.38332 2.56568 0
M  V30 563 H 62.683 3.3813 4.03702 0
M  V30 564 H 65.174 2.72201 2.62135 0
M  V30 565 H 65.487 5.98196 4.89266 0
M  V30 566 H 63.832 5.37534 4.40548 0
M  V30 567 H 67.023 3.42962 3.18582 0
M  V30 568 H 67.196 4.91604 4.22173 0
M  V30 569 N 60.6021 -1.18246 1.0419 0
M  V30 570 C 61.5341 -2.2142 0.592088 0
M  V30 571 C 62.5471 -1.59233 -0.338909 0
M  V30 572 O 63.7361 -1.78002 -0.133231 0
M  V30 573 C 60.8361 -3.38546 -0.154854 0
M  V30 574 C 60.0091 -4.3031 0.784328 0
M  V30 575 C 59.0681 -5.26138 0.0804583 0
M  V30 576 O 58.0941 -5.64738 0.711292 0
M  V30 577 N 59.2961 -5.68261 -1.18574 0
M  V30 578 H 62.0611 -2.60636 1.47949 0
M  V30 579 H 59.6221 -1.33044 0.922544 0
M  V30 580 H 61.6141 -3.99678 -0.635606 0
M  V30 581 H 60.1841 -2.98012 -0.943811 0
M  V30 582 H 59.4041 -3.66764 1.44491 0
M  V30 583 H 60.6921 -4.8852 1.42218 0
M  V30 584 H 60.0901 -5.38957 -1.71876 0
M  V30 585 H 58.6471 -6.31584 -1.61074 0
M  V30 586 N 62.0802 -0.821533 -1.34494 0
M  V30 587 C 63.0432 -0.247847 -2.27856 0
M  V30 588 C 64.0432 0.573453 -1.50227 0
M  V30 589 O 65.2332 0.389759 -1.69784 0
M  V30 590 C 62.3652 0.652698 -3.34593 0
M  V30 591 H 63.5582 -1.07146 -2.80107 0
M  V30 592 H 61.1112 -0.593291 -1.44602 0
M  V30 593 H 61.8462 1.49943 -2.87555 0
M  V30 594 H 61.6312 0.065292 -3.92046 0
M  V30 595 H 63.1212 1.04793 -4.04238 0
M  V30 596 N 63.5583 1.46682 -0.576371 0
M  V30 597 C 64.4883 2.33028 0.148397 0
M  V30 598 C 65.4693 1.44961 0.889956 0
M  V30 599 O 66.6543 1.73789 0.866662 0
M  V30 600 C 63.7843 3.27117 1.1667 0
M  V30 601 C 62.7383 4.24575 0.540386 0
M  V30 602 C 62.0643 5.08126 1.6647 0
M  V30 603 C 63.3643 5.19722 -0.518331 0
M  V30 604 H 65.0583 2.93875 -0.572509 0
M  V30 605 H 62.6043 1.41315 -0.276768 0
M  V30 606 H 64.5573 3.86374 1.68204 0
M  V30 607 H 63.2813 2.64364 1.9178 0
M  V30 608 H 61.9403 3.66571 0.0461769 0
M  V30 609 H 61.5883 4.41762 2.40531 0
M  V30 610 H 61.2883 5.74122 1.25131 0
M  V30 611 H 62.8123 5.70246 2.18293 0
M  V30 612 H 64.2263 5.73232 -0.0883058 0
M  V30 613 H 62.6233 5.94026 -0.851679 0
M  V30 614 H 63.6933 4.64037 -1.40703 0
M  V30 615 N 65.0364 0.313813 1.54444 0
M  V30 616 C 66.2824 -0.292108 2.00685 0
M  V30 617 C 66.6154 -1.52548 1.20177 0
M  V30 618 O 65.8904 -1.92452 0.281531 0
M  V30 619 C 66.1734 -0.635968 3.5444 0
M  V30 620 C 66.0264 0.607437 4.4568 0
M  V30 621 C 67.3454 -1.45747 4.15266 0
M  V30 622 H 64.4644 -0.104697 0.729526 0
M  V30 623 H 67.1064 0.428457 1.85106 0
M  V30 624 H 65.2564 -1.24986 3.67846 0
M  V30 625 H 66.9284 1.24581 4.44159 0
M  V30 626 H 65.1714 1.23822 4.15753 0
M  V30 627 H 65.8424 0.322515 5.51057 0
M  V30 628 H 68.3184 -0.938645 4.05375 0
M  V30 629 H 67.1944 -1.66683 5.2298 0
M  V30 630 H 67.4554 -2.45063 3.67963 0
M  V30 631 N 66.5145 -1.57545 0.0417849 0
M  V30 632 C 67.4445 -2.14009 -0.933929 0
M  V30 633 C 68.4255 -1.05938 -1.33083 0
M  V30 634 O 69.6105 -1.33833 -1.40721 0
M  V30 635 C 66.7405 -2.67747 -2.21199 0
M  V30 636 C 65.6945 -3.80718 -1.95544 0
M  V30 637 C 65.0205 -4.20935 -3.29724 0
M  V30 638 C 66.3205 -5.06258 -1.28452 0
M  V30 639 H 68.0145 -2.95788 -0.463645 0
M  V30 640 H 65.5605 -1.42285 -0.221573 0
M  V30 641 H 67.5135 -3.05886 -2.89848 0
M  V30 642 H 66.2375 -1.83147 -2.70416 0
M  V30 643 H 64.8965 -3.43037 -1.2931 0
M  V30 644 H 64.5445 -3.33298 -3.76724 0
M  V30 645 H 64.2445 -4.9707 -3.13361 0
M  V30 646 H 65.7685 -4.61666 -3.9962 0
M  V30 647 H 67.1825 -5.41903 -1.8712 0
M  V30 648 H 65.5795 -5.87475 -1.22445 0
M  V30 649 H 66.6495 -4.84207 -0.259219 0
M  V30 650 N 67.9926 0.231505 -1.5589 0
M  V30 651 C 68.9226 1.29022 -1.94617 0
M  V30 652 C 69.9036 1.4941 -0.813067 0
M  V30 653 O 71.0886 1.6176 -1.07459 0
M  V30 654 C 68.2186 2.64199 -2.25424 0
M  V30 655 C 67.1726 2.58484 -3.41131 0
M  V30 656 C 66.4986 3.97599 -3.57518 0
M  V30 657 C 67.7986 2.1413 -4.76388 0
M  V30 658 H 69.4926 0.968563 -2.83301 0
M  V30 659 H 67.0386 0.464479 -1.36303 0
M  V30 660 H 68.9916 3.38413 -2.51107 0
M  V30 661 H 67.7156 2.98032 -1.33583 0
M  V30 662 H 66.3746 1.86727 -3.15481 0
M  V30 663 H 66.0226 4.28723 -2.6307 0
M  V30 664 H 65.7226 3.94659 -4.35337 0
M  V30 665 H 67.2466 4.7349 -3.85538 0
M  V30 666 H 68.6606 2.78083 -5.01341 0
M  V30 667 H 67.0576 2.2227 -5.57419 0
M  V30 668 H 68.1276 1.09331 -4.72414 0
M  V30 669 N 69.4707 1.49531 0.497807 0
M  V30 670 C 70.6987 1.62893 1.27567 0
M  V30 671 C 71.1137 0.301585 1.86376 0
M  V30 672 O 70.4707 -0.713335 1.67982 0
M  V30 673 C 70.5217 2.70013 2.40364 0
M  V30 674 O 70.2427 3.976 1.83972 0
M  V30 675 C 71.7437 2.94109 3.31685 0
M  V30 676 H 68.9637 0.548298 0.386794 0
M  V30 677 H 71.5077 1.95584 0.597245 0
M  V30 678 H 69.6627 2.40092 3.04031 0
M  V30 679 H 70.0767 4.56631 2.58047 0
M  V30 680 H 71.5507 3.72788 4.07104 0
M  V30 681 H 72.0277 2.04147 3.88871 0
M  V30 682 H 72.6337 3.2546 2.73781 0
M  V30 683 N 70.9488 -0.749086 1.3866 0
M  V30 684 C 72.1948 -1.51056 1.35314 0
M  V30 685 C 72.5278 -1.94121 -0.0553751 0
M  V30 686 O 71.8028 -1.65763 -1.01749 0
M  V30 687 C 72.0858 -2.76003 2.31288 0
M  V30 688 C 71.9388 -2.39047 3.8102 0
M  V30 689 C 73.2578 -3.78046 2.2532 0
M  V30 690 H 70.3768 -0.547972 0.492844 0
M  V30 691 H 73.0188 -0.857628 1.69543 0
M  V30 692 H 71.1688 -3.31716 2.02229 0
M  V30 693 H 72.8408 -1.89074 4.20771 0
M  V30 694 H 71.0838 -1.71449 3.98482 0
M  V30 695 H 71.7548 -3.28462 4.4364 0
M  V30 696 H 74.2308 -3.31884 2.50983 0
M  V30 697 H 73.1068 -4.63159 2.94576 0
M  V30 698 H 73.3678 -4.23957 1.25352 0
M  V30 699 N 72.4269 -1.23603 -0.977757 0
M  V30 700 C 73.6519 -1.09735 -1.75991 0
M  V30 701 C 74.0769 0.346858 -1.84874 0
M  V30 702 O 73.4349 1.25093 -1.3123 0
M  V30 703 C 73.4829 -1.73051 -3.16363 0
M  V30 704 O 72.5869 -0.994452 -4.0023 0
M  V30 705 H 71.9279 -0.384476 -0.541364 0
M  V30 706 H 74.4579 -1.6371 -1.2272 0
M  V30 707 H 74.4679 -1.78398 -3.66931 0
M  V30 708 H 73.1429 -2.78137 -3.09213 0
M  V30 709 H 71.7199 -1.01812 -3.58732 0
M  V30 710 N 73.905 1.17692 -1.04816 0
M  V30 711 C 75.153 1.87488 -0.754497 0
M  V30 712 C 75.474 1.81205 0.720407 0
M  V30 713 O 74.744 1.23544 1.52032 0
M  V30 714 H 73.324 0.694101 -0.276102 0
M  V30 715 H 75.986 1.42793 -1.32651 0
M  V30 716 H 75.082 2.93328 -1.06606 0
M  V30 717 N 75.3831 0.828654 1.34056 0
M  V30 718 C 76.6291 0.42008 1.98402 0
M  V30 719 C 76.9621 -1.01564 1.65525 0
M  V30 720 O 76.2371 -1.70834 0.929831 0
M  V30 721 C 76.5201 0.62927 3.54559 0
M  V30 722 C 76.3731 2.11152 3.97159 0
M  V30 723 C 77.6921 0.0688756 4.40046 0
M  V30 724 H 74.8111 0.154104 0.720709 0
M  V30 725 H 77.4531 1.04228 1.5886 0
M  V30 726 H 75.6031 0.0996418 3.88372 0
M  V30 727 H 77.2751 2.70522 3.73651 0
M  V30 728 H 75.5181 2.59985 3.47261 0
M  V30 729 H 76.1891 2.20868 5.05887 0
M  V30 730 H 78.6651 0.521458 4.1282 0
M  V30 731 H 77.5411 0.245006 5.48353 0
M  V30 732 H 77.8021 -1.0266 4.30015 0
M  V30 733 N 76.8612 -1.46375 0.584142 0
M  V30 734 C 77.7912 -2.33103 -0.136037 0
M  V30 735 C 78.7722 -1.45431 -0.882255 0
M  V30 736 O 79.9572 -1.74246 -0.857434 0
M  V30 737 C 77.0872 -3.27731 -1.14933 0
M  V30 738 C 76.0412 -4.24855 -0.517862 0
M  V30 739 C 75.3672 -5.09001 -1.63773 0
M  V30 740 C 76.6672 -5.19439 0.545886 0
M  V30 741 H 78.3612 -2.93568 0.588086 0
M  V30 742 H 75.9072 -1.41166 0.284259 0
M  V30 743 H 77.8602 -3.87261 -1.66153 0
M  V30 744 H 76.5842 -2.65377 -1.90375 0
M  V30 745 H 75.2432 -3.6659 -0.0267361 0
M  V30 746 H 74.8912 -4.43031 -2.38185 0
M  V30 747 H 74.5912 -5.74777 -1.22085 0
M  V30 748 H 76.1152 -5.71396 -2.15266 0
M  V30 749 H 77.5292 -5.73177 0.118704 0
M  V30 750 H 75.9262 -5.93566 0.88317 0
M  V30 751 H 76.9962 -4.63285 1.43162 0
M  V30 752 N 78.3393 -0.321999 -1.54275 0
M  V30 753 C 79.3023 0.531975 -2.22941 0
M  V30 754 C 80.3023 1.04478 -1.22234 0
M  V30 755 O 81.4923 0.937452 -1.46825 0
M  V30 756 C 78.6243 1.73874 -2.93224 0
M  V30 757 H 79.8173 -0.0682612 -2.99822 0
M  V30 758 H 77.3703 -0.0730644 -1.56129 0
M  V30 759 H 78.1053 2.37825 -2.20476 0
M  V30 760 H 77.8903 1.37847 -3.6707 0
M  V30 761 H 79.3803 2.34496 -3.45545 0
M  V30 762 N 79.8174 1.5752 -0.0501392 0
M  V30 763 C 81.0654 1.9227 0.622642 0
M  V30 764 C 81.3864 0.929083 1.71444 0
M  V30 765 O 80.6564 -0.0262186 1.95882 0
M  V30 766 H 79.2364 0.709739 0.232981 0
M  V30 767 H 81.8984 1.94628 -0.102898 0
M  V30 768 H 80.9944 2.93479 1.06191 0
M  V30 769 N 81.2955 -0.223234 1.56011 0
M  V30 770 C 82.2585 -1.26014 1.9145 0
M  V30 771 C 83.2585 -1.3989 0.792937 0
M  V30 772 O 84.4485 -1.38184 1.0607 0
M  V30 773 C 81.5805 -2.63422 2.16383 0
M  V30 774 H 82.7735 -0.95796 2.84189 0
M  V30 775 H 80.3265 -0.463576 1.49267 0
M  V30 776 H 81.0615 -2.98741 1.2619 0
M  V30 777 H 80.8465 -2.54728 2.98088 0
M  V30 778 H 82.3365 -3.38249 2.44903 0
M  V30 779 N 82.7736 -1.49793 -0.48987 0
M  V30 780 C 84.0216 -1.59525 -1.24081 0
M  V30 781 C 84.3426 -0.288953 -1.92847 0
M  V30 782 O 83.6126 0.692436 -1.83254 0
M  V30 783 H 82.1926 -0.587796 -0.460983 0
M  V30 784 H 84.8546 -1.86477 -0.566778 0
M  V30 785 H 83.9506 -2.39696 -1.99881 0
M  V30 786 N 84.2517 0.741722 -1.39055 0
M  V30 787 C 85.1817 1.869 -1.39966 0
M  V30 788 C 86.1627 1.6804 -0.26392 0
M  V30 789 O 87.3477 1.88458 -0.468755 0
M  V30 790 C 84.4777 3.24572 -1.23574 0
M  V30 791 C 83.4317 3.58056 -2.34477 0
M  V30 792 C 82.7577 4.94593 -2.0318 0
M  V30 793 C 84.0577 3.61716 -3.76774 0
M  V30 794 H 85.7517 1.86395 -2.34302 0
M  V30 795 H 83.2977 0.895361 -1.1278 0
M  V30 796 H 85.2507 4.031 -1.22834 0
M  V30 797 H 83.9747 3.25587 -0.257045 0
M  V30 798 H 82.6337 2.81854 -2.34423 0
M  V30 799 H 82.2817 4.92181 -1.03765 0
M  V30 800 H 81.9817 5.17964 -2.77465 0
M  V30 801 H 83.5057 5.75486 -2.04079 0
M  V30 802 H 84.9197 4.30335 -3.78794 0
M  V30 803 H 83.3167 3.96603 -4.50362 0
M  V30 804 H 84.3867 2.61672 -4.08235 0
M  V30 805 N 85.7298 1.2412 0.971189 0
M  V30 806 C 86.9778 1.07668 1.71032 0
M  V30 807 C 87.2988 -0.385797 1.91146 0
M  V30 808 O 86.5688 -1.27569 1.4867 0
M  V30 809 H 85.1488 0.395429 0.633755 0
M  V30 810 H 87.8108 1.55984 1.16855 0
M  V30 811 H 86.9068 1.57195 2.69622 0
M  V30 812 N 87.2079 -1.17134 1.05439 0
M  V30 813 C 88.1709 -2.19439 0.661764 0
M  V30 814 C 89.1709 -1.58199 -0.288042 0
M  V30 815 O 90.3609 -1.74053 -0.0715803 0
M  V30 816 C 87.4929 -3.40889 -0.0276209 0
M  V30 817 H 88.6859 -2.55688 1.56728 0
M  V30 818 H 86.2389 -1.31259 0.848567 0
M  V30 819 H 86.9739 -3.10187 -0.94629 0
M  V30 820 H 86.7589 -3.86586 0.655238 0
M  V30 821 H 88.2489 -4.16603 -0.288342 0
M  V30 822 N 88.686 -0.835752 -1.33615 0
M  V30 823 C 89.649 -0.272 -2.2758 0
M  V30 824 C 90.649 0.557487 -1.50827 0
M  V30 825 O 91.839 0.37173 -1.70188 0
M  V30 826 C 88.971 0.617173 -3.35267 0
M  V30 827 H 90.164 -1.10111 -2.78954 0
M  V30 828 H 87.717 -0.608594 -1.43965 0
M  V30 829 H 88.452 1.46884 -2.89129 0
M  V30 830 H 88.237 0.0237066 -3.92093 0
M  V30 831 H 89.727 1.005 -4.05326 0
M  V30 832 N 90.1641 1.46063 -0.591896 0
M  V30 833 C 91.0941 2.33172 0.123673 0
M  V30 834 C 92.0751 1.45897 0.87453 0
M  V30 835 O 93.2601 1.74698 0.848181 0
M  V30 836 C 90.3901 3.28336 1.13194 0
M  V30 837 C 89.3441 4.25124 0.495324 0
M  V30 838 C 88.6701 5.09863 1.61071 0
M  V30 839 C 89.9701 5.19143 -0.573425 0
M  V30 840 H 91.6641 2.93252 -0.603646 0
M  V30 841 H 89.2101 1.41014 -0.291741 0
M  V30 842 H 91.1631 3.88137 1.64097 0
M  V30 843 H 89.8871 2.66383 1.88965 0
M  V30 844 H 88.5461 3.66599 0.00729452 0
M  V30 845 H 88.1941 4.44288 2.35832 0
M  V30 846 H 87.8941 5.75417 1.19035 0
M  V30 847 H 89.4181 5.72529 2.12233 0
M  V30 848 H 90.8321 5.73106 -0.1491 0
M  V30 849 H 89.2291 5.93089 -0.914636 0
M  V30 850 H 90.2991 4.62519 -1.45617 0
M  V30 851 N 91.6422 0.330177 1.54103 0
M  V30 852 C 93.0582 -0.0222371 1.59585 0
M  V30 853 C 93.2582 -1.49902 1.34654 0
M  V30 854 O 92.3142 -2.25592 1.13421 0
M  V30 855 C 93.6272 0.401932 2.98002 0
M  V30 856 C 95.1752 0.353145 3.11001 0
M  V30 857 C 95.6502 0.752576 4.51775 0
M  V30 858 N 97.1412 0.706239 4.57784 0
M  V30 859 C 97.8762 0.987417 5.64834 0
M  V30 860 N 97.3722 1.33607 6.79795 0
M  V30 861 N 99.1652 0.91254 5.54643 0
M  V30 862 H 91.3162 1.29228 1.68564 0
M  V30 863 H 93.5792 0.525906 0.78875 0
M  V30 864 H 93.2852 1.4311 3.21267 0
M  V30 865 H 93.1592 -0.229699 3.765 0
M  V30 866 H 95.5462 -0.666822 2.87467 0
M  V30 867 H 95.6272 1.0198 2.34593 0
M  V30 868 H 95.2712 1.77049 4.76042 0
M  V30 869 H 95.2012 0.0635409 5.26562 0
M  V30 870 H 97.6922 0.44889 3.75224 0
M  V30 871 H 98.0052 1.53582 7.57385 0
M  V30 872 H 96.3502 1.37439 6.81275 0
M  V30 873 H 99.5412 0.639601 4.6371 0
M  V30 874 H 99.7142 1.13503 6.37982 0
M  V30 875 N 93.1203 -1.57491 0.0584922 0
M  V30 876 C 94.3683 -1.92597 -0.612436 0
M  V30 877 C 94.6893 -0.938162 -1.70949 0
M  V30 878 O 93.9593 0.0158301 -1.95894 0
M  V30 879 H 92.5393 -0.710964 -0.229214 0
M  V30 880 H 95.2013 -1.94571 0.113218 0
M  V30 881 H 94.2973 -2.94038 -1.04633 0
M  V30 882 N 94.5984 0.214957 -1.56127 0
M  V30 883 C 95.5284 1.2695 -1.95974 0
M  V30 884 C 96.5094 1.48539 -0.828868 0
M  V30 885 O 97.6944 1.60611 -1.09168 0
M  V30 886 C 94.8244 2.61794 -2.28214 0
M  V30 887 C 93.7784 2.54851 -3.43853 0
M  V30 888 C 93.1044 3.93785 -3.61715 0
M  V30 889 C 94.4044 2.09065 -4.78632 0
M  V30 890 H 96.0984 0.93846 -2.84312 0
M  V30 891 H 93.6444 0.449996 -1.36788 0
M  V30 892 H 95.5974 3.35731 -2.54682 0
M  V30 893 H 94.3214 2.96599 -1.36736 0
M  V30 894 H 92.9804 1.8337 -3.17444 0
M  V30 895 H 92.6284 4.25908 -2.67602 0
M  V30 896 H 92.3284 3.90019 -4.39498 0
M  V30 897 H 93.8524 4.69374 -3.90539 0
M  V30 898 H 95.2664 2.7275 -5.04262 0
M  V30 899 H 93.6634 2.16346 -5.59745 0
M  V30 900 H 94.7334 1.04315 -4.73547 0
M  V30 901 N 96.0765 1.50051 0.48192 0
M  V30 902 C 97.3015 1.64508 1.26301 0
M  V30 903 C 97.7265 0.323851 1.85291 0
M  V30 904 O 97.0845 -0.710969 1.66778 0
M  V30 905 C 97.1325 2.7305 2.35533 0
M  V30 906 O 96.2365 2.3355 3.39895 0
M  V30 907 H 95.5775 0.549978 0.372048 0
M  V30 908 H 98.1075 1.9636 0.574786 0
M  V30 909 H 98.1175 2.95799 2.8101 0
M  V30 910 H 96.7925 3.68946 1.91967 0
M  V30 911 H 95.3695 2.21205 3.00204 0
M  V30 912 N 97.5546 -0.734337 1.39446 0
M  V30 913 C 98.4846 -1.86155 1.40955 0
M  V30 914 C 99.4656 -1.67898 0.272827 0
M  V30 915 O 100.651 -1.88207 0.478743 0
M  V30 916 C 97.7806 -3.23912 1.25294 0
M  V30 917 C 96.7346 -3.56808 2.36373 0
M  V30 918 C 96.0606 -4.93508 2.058 0
M  V30 919 C 97.3606 -3.59713 3.78687 0
M  V30 920 H 99.0546 -1.8515 2.35287 0
M  V30 921 H 96.6006 -0.889367 1.13253 0
M  V30 922 H 98.5536 -4.02443 1.2497 0
M  V30 923 H 97.2776 -3.25446 0.274308 0
M  V30 924 H 95.9366 -2.80606 2.35914 0
M  V30 925 H 95.5846 -4.91623 1.06374 0
M  V30 926 H 95.2846 -5.16486 2.80208 0
M  V30 927 H 96.8086 -5.74396 2.07128 0
M  V30 928 H 98.2226 -4.2832 3.81071 0
M  V30 929 H 96.6196 -3.94209 4.52459 0
M  V30 930 H 97.6896 -2.59504 4.09617 0
M  V30 931 N 99.0327 -1.24633 -0.964593 0
M  V30 932 C 100.258 -1.11596 -1.74818 0
M  V30 933 C 100.683 0.32723 -1.85232 0
M  V30 934 O 100.041 1.23695 -1.32549 0
M  V30 935 C 100.089 -1.76397 -3.1451 0
M  V30 936 O 99.1927 -1.03685 -3.99153 0
M  V30 937 H 98.5337 -0.390196 -0.537255 0
M  V30 938 H 101.064 -1.65002 -1.20977 0
M  V30 939 H 101.074 -1.8228 -3.65018 0
M  V30 940 H 99.7487 -2.81401 -3.06246 0
M  V30 941 H 98.3257 -1.05611 -3.57632 0
M  V30 942 N 100.511 1.16574 -1.06058 0
M  V30 943 C 101.927 1.3904 -0.783585 0
M  V30 944 C 102.127 1.91784 0.618145 0
M  V30 945 O 101.183 2.11511 1.37911 0
M  V30 946 C 102.496 2.37329 -1.84649 0
M  V30 947 C 104.044 2.51018 -1.86973 0
M  V30 948 C 104.519 3.52588 -2.92311 0
M  V30 949 N 106.01 3.60113 -2.91329 0
M  V30 950 C 106.745 4.38486 -3.69482 0
M  V30 951 N 106.241 5.20302 -4.57447 0
M  V30 952 N 108.034 4.33446 -3.57885 0
M  V30 953 H 100.185 0.806725 -1.96483 0
M  V30 954 H 102.448 0.417117 -0.851303 0
M  V30 955 H 102.154 2.05663 -2.85299 0
M  V30 956 H 102.028 3.36946 -1.6955 0
M  V30 957 H 104.415 2.81989 -0.869827 0
M  V30 958 H 104.496 1.51445 -2.0615 0
M  V30 959 H 104.14 3.22354 -3.92492 0
M  V30 960 H 104.07 4.51886 -2.70383 0
M  V30 961 H 106.561 3.01707 -2.27555 0
M  V30 962 H 106.874 5.77311 -5.13743 0
M  V30 963 H 105.219 5.19653 -4.61503 0
M  V30 964 H 108.41 3.68586 -2.88551 0
M  V30 965 H 108.583 4.94279 -4.19037 0
M  V30 966 N 101.989 0.842826 1.3317 0
M  V30 967 C 103.217 0.454055 2.01856 0
M  V30 968 C 103.632 -0.94587 1.63397 0
M  V30 969 O 102.989 -1.61534 0.849302 0
M  V30 970 C 103.04 0.569715 3.56982 0
M  V30 971 O 102.761 1.91448 3.94055 0
M  V30 972 C 104.262 0.178412 4.42941 0
M  V30 973 H 101.482 0.17979 0.646465 0
M  V30 974 H 104.026 1.1365 1.70012 0
M  V30 975 H 102.181 -0.0648587 3.87346 0
M  V30 976 H 102.595 1.90282 4.88767 0
M  V30 977 H 104.069 0.310376 5.51127 0
M  V30 978 H 104.546 -0.880056 4.30293 0
M  V30 979 H 105.152 0.787579 4.17944 0
M  V30 980 N 103.467 -1.45747 0.599634 0
M  V30 981 C 104.399 -2.28628 -0.161879 0
M  V30 982 C 105.412 -1.39494 -0.839367 0
M  V30 983 O 106.601 -1.63941 -0.706089 0
M  V30 984 C 103.701 -3.15014 -1.24976 0
M  V30 985 C 102.874 -4.32378 -0.660935 0
M  V30 986 C 101.933 -5.00033 -1.63869 0
M  V30 987 O 100.959 -5.57085 -1.1681 0
M  V30 988 N 102.161 -4.98589 -2.97303 0
M  V30 989 H 104.926 -2.94624 0.549265 0
M  V30 990 H 102.487 -1.55847 0.438565 0
M  V30 991 H 104.479 -3.5714 -1.9035 0
M  V30 992 H 103.049 -2.5098 -1.86354 0
M  V30 993 H 102.269 -3.9383 0.170688 0
M  V30 994 H 103.557 -5.08197 -0.247619 0
M  V30 995 H 102.955 -4.53514 -3.38145 0
M  V30 996 H 101.512 -5.44603 -3.58121 0
M  V30 997 N 104.945 -0.338344 -1.53925 0
M  V30 998 C 106.191 0.260143 -2.01125 0
M  V30 999 C 106.524 1.50617 -1.22589 0
M  V30 1000 O 105.799 1.91979 -0.312113 0
M  V30 1001 C 106.082 0.579499 -3.55407 0
M  V30 1002 C 105.935 -0.678264 -4.44657 0
M  V30 1003 C 107.254 1.39122 -4.17532 0
M  V30 1004 H 104.373 0.0930772 -0.731099 0
M  V30 1005 H 107.015 -0.457852 -1.84401 0
M  V30 1006 H 105.165 1.19118 -3.69788 0
M  V30 1007 H 106.837 -1.31631 -4.42121 0
M  V30 1008 H 105.08 -1.3042 -4.13731 0
M  V30 1009 H 105.751 -0.410143 -5.50474 0
M  V30 1010 H 108.227 0.874035 -4.06817 0
M  V30 1011 H 107.103 1.58342 -5.25565 0
M  V30 1012 H 107.364 2.39178 -3.71815 0
M  V30 1013 N 106.423 1.57458 -0.0668435 0
M  V30 1014 C 107.651 1.97624 0.612565 0
M  V30 1015 C 108.066 0.94502 1.63447 0
M  V30 1016 O 107.423 -0.0689276 1.8237 0
M  V30 1017 C 107.474 3.37869 1.28555 0
M  V30 1018 O 107.195 4.3704 0.304557 0
M  V30 1019 C 108.696 3.92882 2.05325 0
M  V30 1020 H 105.916 0.650045 0.166381 0
M  V30 1021 H 108.46 2.04035 -0.137782 0
M  V30 1022 H 106.615 3.3256 1.98702 0
M  V30 1023 H 107.029 5.18565 0.786779 0
M  V30 1024 H 108.503 4.93247 2.47812 0
M  V30 1025 H 108.98 3.29156 2.9078 0
M  V30 1026 H 109.586 4.01577 1.40056 0
M  V30 1027 N 107.901 -0.206675 1.56239 0
M  V30 1028 C 109.131 -0.943975 1.83773 0
M  V30 1029 C 109.539 -1.77841 0.645703 0
M  V30 1030 O 108.882 -1.79403 -0.395008 0
M  V30 1031 C 108.944 -1.899 3.05251 0
M  V30 1032 C 108.608 -1.24764 4.39639 0
M  V30 1033 C 109.605 -0.630216 5.16066 0
M  V30 1034 C 107.29 -1.25496 4.8637 0
M  V30 1035 C 109.284 -0.0287946 6.37393 0
M  V30 1036 C 106.971 -0.649698 6.07637 0
M  V30 1037 C 107.969 -0.0376845 6.8299 0
M  V30 1038 O 107.657 0.55812 8.0196 0
M  V30 1039 H 107.389 -0.281508 0.614597 0
M  V30 1040 H 109.943 -0.222458 2.04192 0
M  V30 1041 H 108.173 -2.6599 2.80689 0
M  V30 1042 H 109.862 -2.5031 3.1953 0
M  V30 1043 H 110.628 -0.616785 4.81062 0
M  V30 1044 H 106.507 -1.72072 4.27683 0
M  V30 1045 H 110.051 0.449518 6.9615 0
M  V30 1046 H 105.948 -0.660592 6.42111 0
M  V30 1047 H 106.716 0.453891 8.17241 0
M  V30 1048 N 109.379 -1.50304 -0.473955 0
M  V30 1049 C 110.309 -1.71886 -1.58042 0
M  V30 1050 C 111.29 -0.567799 -1.60344 0
M  V30 1051 O 112.475 -0.806623 -1.76656 0
M  V30 1052 C 109.605 -1.81036 -2.96384 0
M  V30 1053 C 108.559 -2.962 -3.08949 0
M  V30 1054 C 107.885 -2.9049 -4.48909 0
M  V30 1055 C 109.185 -4.36752 -2.86434 0
M  V30 1056 H 110.879 -2.64527 -1.40234 0
M  V30 1057 H 108.425 -1.27295 -0.673201 0
M  V30 1058 H 110.378 -1.94719 -3.73714 0
M  V30 1059 H 109.102 -0.850147 -3.15341 0
M  V30 1060 H 107.761 -2.82164 -2.3405 0
M  V30 1061 H 107.409 -1.92321 -4.64781 0
M  V30 1062 H 107.109 -3.67802 -4.58253 0
M  V30 1063 H 108.633 -3.06218 -5.28264 0
M  V30 1064 H 110.047 -4.5133 -3.53517 0
M  V30 1065 H 108.444 -5.15493 -3.07225 0
M  V30 1066 H 109.514 -4.49321 -1.82316 0
M  V30 1067 N 110.857 0.726932 -1.39834 0
M  V30 1068 C 111.82 1.82269 -1.38962 0
M  V30 1069 C 112.82 1.58248 -0.285334 0
M  V30 1070 O 114.01 1.65499 -0.54366 0
M  V30 1071 C 111.142 3.20186 -1.17019 0
M  V30 1072 H 112.335 1.84443 -2.36476 0
M  V30 1073 H 109.888 0.931416 -1.25516 0
M  V30 1074 H 110.623 3.23669 -0.202204 0
M  V30 1075 H 110.408 3.3902 -1.96998 0
M  V30 1076 H 111.898 4.00235 -1.1917 0
M  V30 1077 N 112.336 1.25143 0.95797 0
M  V30 1078 C 113.583 1.09692 1.70217 0
M  V30 1079 C 113.911 -0.362654 1.91089 0
M  V30 1080 O 113.166 -1.28386 1.47701 0
M  V30 1081 C 113.465 1.79272 3.09187 0
M  V30 1082 C 113.131 3.29196 3.08125 0
M  V30 1083 C 111.793 3.70096 3.07543 0
M  V30 1084 C 114.145 4.24995 3.0171 0
M  V30 1085 C 111.473 5.05213 2.9829 0
M  V30 1086 C 113.825 5.60132 2.93999 0
M  V30 1087 C 112.489 6.00365 2.9175 0
M  V30 1088 H 111.759 0.401393 0.622868 0
M  V30 1089 H 114.406 1.55372 1.11945 0
M  V30 1090 H 112.711 1.26014 3.70982 0
M  V30 1091 H 114.408 1.64773 3.65583 0
M  V30 1092 H 110.998 2.96651 3.09348 0
M  V30 1093 H 115.182 3.9439 3.01281 0
M  V30 1094 H 110.438 5.35569 2.94916 0
M  V30 1095 H 114.612 6.3406 2.87996 0
M  V30 1096 H 112.239 7.05023 2.84336 0
M  V30 1097 N 113.814 -1.1601 1.06675 0
M  V30 1098 C 115.225 -1.68235 0.809565 0
M  V30 1099 C 115.576 -1.8454 -0.666303 0
M  V30 1100 O 114.701 -1.54374 -1.5165 0
M  V30 1101 C 115.296 -3.05585 1.46299 0
M  V30 1102 C 113.855 -3.54915 1.25349 0
M  V30 1103 C 113.002 -2.30804 1.53703 0
M  V30 1104 H 115.953 -1.00318 1.22971 0
M  V30 1105 H 115.974 -3.70174 0.880431 0
M  V30 1106 H 115.486 -2.93686 2.53713 0
M  V30 1107 H 113.587 -3.72067 0.199261 0
M  V30 1108 H 113.7 -4.36774 1.9689 0
M  V30 1109 H 112.064 -2.36007 0.957739 0
M  V30 1110 H 112.847 -2.21499 2.62284 0
M  V30 1111 N 115.292 -0.849877 -1.32721 0
M  V30 1112 C 116.54 -0.450032 -1.97026 0
M  V30 1113 C 116.861 0.996604 -1.67609 0
M  V30 1114 O 116.131 1.6958 -0.980786 0
M  V30 1115 H 114.711 -0.163426 -0.728904 0
M  V30 1116 H 117.373 -1.08526 -1.6189 0
M  V30 1117 H 116.469 -0.591146 -3.0645 0
M  V30 1118 N 116.77 1.45427 -0.607355 0
M  V30 1119 C 117.68 2.34325 0.113463 0
M  V30 1120 C 118.696 1.51226 0.860617 0
M  V30 1121 O 119.872 1.84029 0.818255 0
M  V30 1122 C 116.937 3.28839 1.09844 0
M  V30 1123 C 115.998 4.27844 0.353271 0
M  V30 1124 C 115.231 5.17842 1.29133 0
M  V30 1125 O 115.454 5.11264 2.52913 0
M  V30 1126 O 114.388 5.96713 0.788523 0
M  V30 1127 H 118.214 2.97364 -0.617094 0
M  V30 1128 H 115.799 1.44807 -0.367619 0
M  V30 1129 H 117.681 3.8708 1.66575 0
M  V30 1130 H 116.356 2.68365 1.81003 0
M  V30 1131 H 115.263 3.7322 -0.256494 0
M  V30 1132 H 116.596 4.91173 -0.317822 0
M  V30 1133 N 118.248 0.346503 1.53744 0
M  V30 1134 C 119.181 -0.552023 2.21423 0
M  V30 1135 C 120.159 -1.09798 1.19929 0
M  V30 1136 O 121.343 -1.1577 1.4876 0
M  V30 1137 C 118.47 -1.75972 2.89398 0
M  V30 1138 C 117.516 -1.34295 4.04805 0
M  V30 1139 S 118.349 -0.360263 5.34287 0
M  V30 1140 C 119.505 -1.57473 6.05767 0
M  V30 1141 H 119.738 0.0228119 2.97291 0
M  V30 1142 H 117.271 0.130579 1.53847 0
M  V30 1143 H 119.229 -2.45256 3.2918 0
M  V30 1144 H 117.89 -2.30578 2.1329 0
M  V30 1145 H 117.083 -2.24349 4.51313 0
M  V30 1146 H 116.685 -0.729555 3.66815 0
M  V30 1147 H 118.977 -2.50875 6.29339 0
M  V30 1148 H 119.92 -1.15138 6.98676 0
M  V30 1149 H 120.328 -1.77212 5.35963 0
M  V30 1150 N 119.726 -1.57421 0.075193 0
M  V30 1151 C 120.656 -2.15942 -0.888324 0
M  V30 1152 C 121.637 -1.08737 -1.30806 0
M  V30 1153 O 122.822 -1.36787 -1.37851 0
M  V30 1154 C 119.952 -2.72379 -2.1547 0
M  V30 1155 C 118.906 -3.8478 -1.87425 0
M  V30 1156 C 118.232 -4.27834 -3.20721 0
M  V30 1157 C 119.532 -5.08869 -1.17684 0
M  V30 1158 H 121.226 -2.96705 -0.400799 0
M  V30 1159 H 118.772 -1.42723 -0.191342 0
M  V30 1160 H 120.725 -3.11965 -2.83295 0
M  V30 1161 H 119.449 -1.88841 -2.6647 0
M  V30 1162 H 118.108 -3.45703 -1.22004 0
M  V30 1163 H 117.756 -3.41214 -3.6957 0
M  V30 1164 H 117.456 -5.03605 -3.02746 0
M  V30 1165 H 118.98 -4.70039 -3.89738 0
M  V30 1166 H 120.394 -5.4575 -1.75584 0
M  V30 1167 H 118.791 -5.8994 -1.09956 0
M  V30 1168 H 119.861 -4.84648 -0.156453 0
M  V30 1169 N 121.204 0.198386 -1.56346 0
M  V30 1170 C 122.134 1.24865 -1.9731 0
M  V30 1171 C 123.115 1.47651 -0.844576 0
M  V30 1172 O 124.3 1.59444 -1.10866 0
M  V30 1173 C 121.43 2.59358 -2.30977 0
M  V30 1174 C 120.384 2.5119 -3.46537 0
M  V30 1175 C 119.71 3.89926 -3.65871 0
M  V30 1176 C 121.01 2.03977 -4.80823 0
M  V30 1177 H 122.704 0.908252 -2.85291 0
M  V30 1178 H 120.25 0.435462 -1.37258 0
M  V30 1179 H 122.203 3.33011 -2.58228 0
M  V30 1180 H 120.927 2.95132 -1.39874 0
M  V30 1181 H 119.586 1.79993 -3.19371 0
M  V30 1182 H 119.234 4.23046 -2.72105 0
M  V30 1183 H 118.934 3.85336 -4.4361 0
M  V30 1184 H 120.458 4.65205 -3.95495 0
M  V30 1185 H 121.872 2.67386 -5.07127 0
M  V30 1186 H 120.269 2.10397 -5.62008 0
M  V30 1187 H 121.339 0.992861 -4.74626 0
M  V30 1188 N 122.682 1.50554 0.465978 0
M  V30 1189 C 124.098 1.38093 0.800154 0
M  V30 1190 C 124.298 0.440988 1.96615 0
M  V30 1191 O 123.354 -0.114499 2.5224 0
M  V30 1192 C 124.667 2.79565 1.10742 0
M  V30 1193 C 126.215 2.88516 1.21357 0
M  V30 1194 C 126.69 4.30833 1.55393 0
M  V30 1195 N 128.181 4.33807 1.62375 0
M  V30 1196 C 128.916 5.40927 1.90225 0
M  V30 1197 N 128.412 6.58247 2.16062 0
M  V30 1198 N 130.205 5.28376 1.9177 0
M  V30 1199 H 122.356 2.10237 -0.302366 0
M  V30 1200 H 124.619 0.945203 -0.0727746 0
M  V30 1201 H 124.325 3.50208 0.323661 0
M  V30 1202 H 124.199 3.17125 2.04234 0
M  V30 1203 H 126.586 2.1809 1.98799 0
M  V30 1204 H 126.667 2.54492 0.258321 0
M  V30 1205 H 126.311 5.01799 0.784889 0
M  V30 1206 H 126.241 4.62347 2.52076 0
M  V30 1207 H 128.732 3.49212 1.44427 0
M  V30 1208 H 129.045 7.3569 2.36601 0
M  V30 1209 H 127.39 6.61413 2.13444 0
M  V30 1210 H 130.581 4.35715 1.71085 0
M  V30 1211 H 130.754 6.11944 2.13139 0
M  V30 1212 N 124.16 -0.719506 1.40217 0
M  V30 1213 C 125.093 -1.84298 1.34571 0
M  V30 1214 C 126.071 -1.61149 0.216741 0
M  V30 1215 O 127.255 -1.84212 0.399756 0
M  V30 1216 C 124.382 -3.20568 1.09335 0
M  V30 1217 C 123.428 -3.62551 2.24631 0
M  V30 1218 S 124.261 -3.7012 3.87004 0
M  V30 1219 C 125.417 -5.09154 3.64024 0
M  V30 1220 H 125.65 -1.88807 2.2965 0
M  V30 1221 H 123.183 -0.885901 1.26456 0
M  V30 1222 H 125.141 -3.99246 0.954602 0
M  V30 1223 H 123.802 -3.13696 0.159164 0
M  V30 1224 H 122.995 -4.61483 2.02606 0
M  V30 1225 H 122.597 -2.91119 2.34789 0
M  V30 1226 H 124.889 -5.95955 3.22248 0
M  V30 1227 H 125.832 -5.36213 4.62473 0
M  V30 1228 H 126.24 -4.79562 2.97793 0
M  V30 1229 N 125.638 -1.25649 -0.95132 0
M  V30 1230 C 126.568 -1.08808 -2.06599 0
M  V30 1231 C 127.549 0.00382547 -1.701 0
M  V30 1232 O 128.734 -0.166325 -1.93486 0
M  V30 1233 C 125.864 -0.709542 -3.39975 0
M  V30 1234 C 124.818 -1.75206 -3.90496 0
M  V30 1235 C 124.144 -1.22811 -5.20405 0
M  V30 1236 C 125.444 -3.15153 -4.16504 0
M  V30 1237 H 127.138 -2.02048 -2.20946 0
M  V30 1238 H 124.684 -0.972835 -1.06169 0
M  V30 1239 H 126.637 -0.578649 -4.17408 0
M  V30 1240 H 125.361 0.258556 -3.25575 0
M  V30 1241 H 124.02 -1.87145 -3.15234 0
M  V30 1242 H 123.668 -0.250145 -5.02378 0
M  V30 1243 H 123.368 -1.92492 -5.55176 0
M  V30 1244 H 124.892 -1.10968 -6.00432 0
M  V30 1245 H 126.306 -3.06349 -4.84586 0
M  V30 1246 H 124.703 -3.82333 -4.62538 0
M  V30 1247 H 125.773 -3.61966 -3.22658 0
M  V30 1248 N 127.117 1.15442 -1.07289 0
M  V30 1249 C 128.533 1.38201 -0.798288 0
M  V30 1250 C 128.733 1.92429 0.597769 0
M  V30 1251 O 127.789 2.12962 1.3566 0
M  V30 1252 C 129.102 2.35357 -1.87156 0
M  V30 1253 C 130.65 2.49021 -1.89624 0
M  V30 1254 C 131.125 3.49468 -2.96034 0
M  V30 1255 N 132.616 3.57003 -2.95132 0
M  V30 1256 C 133.351 4.34543 -3.74112 0
M  V30 1257 N 132.847 5.15421 -4.6294 0
M  V30 1258 N 134.64 4.29625 -3.62462 0
M  V30 1259 H 126.791 0.78584 -1.97328 0
M  V30 1260 H 129.054 0.408065 -0.855679 0
M  V30 1261 H 128.76 2.02626 -2.87464 0
M  V30 1262 H 128.634 3.35129 -1.73114 0
M  V30 1263 H 131.021 2.81051 -0.899687 0
M  V30 1264 H 131.102 1.4925 -2.07745 0
M  V30 1265 H 130.746 3.18173 -3.95889 0
M  V30 1266 H 130.676 4.48992 -2.75161 0
M  V30 1267 H 133.167 2.99276 -2.30743 0
M  V30 1268 H 133.48 5.7183 -5.19837 0
M  V30 1269 H 131.825 5.14729 -4.66989 0
M  V30 1270 H 135.016 3.65505 -2.92444 0
M  V30 1271 H 135.189 4.89807 -4.24256 0
M  V30 1272 N 128.595 0.856903 1.32268 0
M  V30 1273 C 129.528 0.247937 2.26849 0
M  V30 1274 C 130.506 -0.615382 1.50505 0
M  V30 1275 O 131.69 -0.571689 1.79622 0
M  V30 1276 C 128.817 -0.650093 3.32403 0
M  V30 1277 C 127.863 0.140138 4.2627 0
M  V30 1278 S 128.696 1.51004 5.13769 0
M  V30 1279 C 129.852 0.61778 6.22844 0
M  V30 1280 H 130.085 1.04971 2.78152 0
M  V30 1281 H 127.618 0.654665 1.39834 0
M  V30 1282 H 129.576 -1.16256 3.93694 0
M  V30 1283 H 128.237 -1.4257 2.7988 0
M  V30 1284 H 127.43 -0.543945 5.01056 0
M  V30 1285 H 127.032 0.584267 3.69408 0
M  V30 1286 H 129.324 -0.177053 6.77269 0
M  V30 1287 H 130.267 1.33636 6.95375 0
M  V30 1288 H 130.675 0.191124 5.64176 0
M  V30 1289 N 130.073 -1.45103 0.615059 0
M  V30 1290 C 131.322 -2.01396 0.110718 0
M  V30 1291 C 131.635 -1.48834 -1.26916 0
M  V30 1292 O 132.841 -1.97152 -1.86664 0
M  V30 1293 C 131.297 -3.59599 0.14723 0
M  V30 1294 C 130.905 -4.21158 1.52743 0
M  V30 1295 C 132.649 -4.23428 -0.30148 0
M  V30 1296 C 130.556 -5.71535 1.51992 0
M  V30 1297 H 129.486 -0.753061 0.0376241 0
M  V30 1298 H 132.137 -1.66494 0.77149 0
M  V30 1299 H 130.519 -3.91724 -0.580339 0
M  V30 1300 H 131.693 -4.00594 2.2773 0
M  V30 1301 H 130.008 -3.69552 1.91886 0
M  V30 1302 H 132.605 -5.33703 -0.326392 0
M  V30 1303 H 132.948 -3.94629 -1.32565 0
M  V30 1304 H 133.481 -3.96047 0.373065 0
M  V30 1305 H 130.22 -6.05044 2.52193 0
M  V30 1306 H 129.74 -5.94268 0.81274 0
M  V30 1307 H 131.419 -6.34873 1.24681 0
M  V30 1308 N 131.551 -0.354651 -1.53558 0
M  V30 1309 C 132.8 0.239504 -2.00273 0
M  V30 1310 C 133.113 1.50759 -1.24623 0
M  V30 1311 O 134.319 2.17968 -1.61871 0
M  V30 1312 C 132.775 0.477341 -3.5672 0
M  V30 1313 C 132.383 -0.775488 -4.41237 0
M  V30 1314 C 134.127 1.02975 -4.11821 0
M  V30 1315 C 132.034 -0.507838 -5.89216 0
M  V30 1316 H 130.964 0.0932743 -0.748208 0
M  V30 1317 H 133.615 -0.471701 -1.77334 0
M  V30 1318 H 131.997 1.24953 -3.7577 0
M  V30 1319 H 133.171 -1.54963 -4.33962 0
M  V30 1320 H 131.486 -1.25033 -3.97185 0
M  V30 1321 H 134.083 1.24513 -5.2 0
M  V30 1322 H 134.426 1.98862 -3.65731 0
M  V30 1323 H 134.959 0.317994 -3.96527 0
M  V30 1324 H 131.698 -1.43674 -6.39561 0
M  V30 1325 H 131.218 0.228011 -5.99366 0
M  V30 1326 H 132.897 -0.129238 -6.46871 0
M  V30 1327 N 133.029 1.57378 -0.0835403 0
M  V30 1328 C 133.959 2.1641 0.87686 0
M  V30 1329 C 134.94 1.09429 1.30228 0
M  V30 1330 O 136.125 1.37516 1.37124 0
M  V30 1331 C 133.255 2.73517 2.14022 0
M  V30 1332 C 132.209 3.85769 1.85381 0
M  V30 1333 C 131.535 4.29529 3.18448 0
M  V30 1334 C 132.835 5.09486 1.14984 0
M  V30 1335 H 134.529 2.96914 0.385059 0
M  V30 1336 H 132.075 1.42823 0.18377 0
M  V30 1337 H 134.028 3.13463 2.81636 0
M  V30 1338 H 132.752 1.90252 2.65465 0
M  V30 1339 H 131.411 3.46345 1.20169 0
M  V30 1340 H 131.059 3.43169 3.67755 0
M  V30 1341 H 130.759 5.05204 3.00071 0
M  V30 1342 H 132.283 4.72099 3.8724 0
M  V30 1343 H 133.697 5.46674 1.72687 0
M  V30 1344 H 132.094 5.90515 1.06826 0
M  V30 1345 H 133.164 4.84724 0.130749 0
M  V30 1346 N 134.507 -0.190092 1.56449 0
M  V30 1347 C 135.918 -0.754312 1.70784 0
M  V30 1348 C 136.269 -1.83631 0.690951 0
M  V30 1349 O 135.394 -2.15868 -0.151604 0
M  V30 1350 C 135.989 -1.37503 3.09642 0
M  V30 1351 C 134.548 -1.88628 3.25725 0
M  V30 1352 C 133.695 -0.758098 2.66736 0
M  V30 1353 H 136.646 0.0350524 1.58661 0
M  V30 1354 H 136.667 -2.2445 3.0725 0
M  V30 1355 H 136.179 -0.587302 3.83631 0
M  V30 1356 H 134.28 -2.70103 2.56661 0
M  V30 1357 H 134.393 -2.04462 4.3328 0
M  V30 1358 H 132.757 -1.17369 2.26046 0
M  V30 1359 H 133.54 0.0174705 3.43296 0
M  V30 1360 N 135.985 -1.50799 -0.457987 0
M  V30 1361 C 136.915 -1.73553 -1.5621 0
M  V30 1362 C 137.896 -0.584774 -1.59732 0
M  V30 1363 O 139.081 -0.825314 -1.7579 0
M  V30 1364 C 136.211 -1.84169 -2.94447 0
M  V30 1365 C 135.165 -2.99461 -3.0579 0
M  V30 1366 C 134.491 -2.95235 -4.45803 0
M  V30 1367 C 135.791 -4.39766 -2.81786 0
M  V30 1368 H 137.485 -2.66 -1.37421 0
M  V30 1369 H 135.031 -1.28002 -0.659662 0
M  V30 1370 H 136.984 -1.98672 -3.71628 0
M  V30 1371 H 135.708 -0.883545 -3.14422 0
M  V30 1372 H 134.367 -2.8463 -2.31044 0
M  V30 1373 H 134.015 -1.97239 -4.62715 0
M  V30 1374 H 133.715 -3.72642 -4.54326 0
M  V30 1375 H 135.239 -3.11803 -5.24987 0
M  V30 1376 H 136.653 -4.55054 -3.4871 0
M  V30 1377 H 135.05 -5.18722 -3.0174 0
M  V30 1378 H 136.12 -4.51229 -1.7754 0
M  V30 1379 N 137.463 0.71206 -1.40597 0
M  V30 1380 C 138.709 1.47416 -1.39271 0
M  V30 1381 C 139.042 1.942 0.00388791 0
M  V30 1382 O 138.317 1.68403 0.973179 0
M  V30 1383 C 138.6 2.69774 -2.38525 0
M  V30 1384 C 138.453 2.28861 -3.87224 0
M  V30 1385 C 139.772 3.71939 -2.35264 0
M  V30 1386 H 136.891 0.534713 -0.5072 0
M  V30 1387 H 139.533 0.812375 -1.71757 0
M  V30 1388 H 137.683 3.26238 -2.10953 0
M  V30 1389 H 139.355 1.77852 -4.25636 0
M  V30 1390 H 137.598 1.60824 -4.02887 0
M  V30 1391 H 138.269 3.16584 -4.52193 0
M  V30 1392 H 140.745 3.25113 -2.59694 0
M  V30 1393 H 139.621 4.55186 -3.06753 0
M  V30 1394 H 139.882 4.20484 -1.36549 0
M  V30 1395 N 138.941 1.26152 0.944643 0
M  V30 1396 C 140.187 1.11657 1.69294 0
M  V30 1397 C 140.52 -0.339926 1.91202 0
M  V30 1398 O 139.795 -1.24994 1.49019 0
M  V30 1399 C 140.078 1.88236 3.06984 0
M  V30 1400 C 139.931 3.41772 2.92424 0
M  V30 1401 C 141.25 1.67343 4.07043 0
M  V30 1402 H 138.369 0.407004 0.614424 0
M  V30 1403 H 141.011 1.55106 1.09737 0
M  V30 1404 H 139.161 1.51308 3.57824 0
M  V30 1405 H 140.833 3.88433 2.48832 0
M  V30 1406 H 139.076 3.68974 2.28124 0
M  V30 1407 H 139.747 3.90579 3.90067 0
M  V30 1408 H 142.223 1.99509 3.65151 0
M  V30 1409 H 141.099 2.23346 5.01406 0
M  V30 1410 H 141.36 0.617158 4.37771 0
M  V30 1411 N 140.419 -1.14872 1.07899 0
M  V30 1412 C 141.659 -1.8745 0.814965 0
M  V30 1413 C 142.023 -1.80758 -0.64733 0
M  V30 1414 O 143.224 -2.48422 -1.02664 0
M  V30 1415 C 141.495 -3.32286 1.31607 0
M  V30 1416 S 143.054 -4.22537 1.18357 0
M  V30 1417 H 139.872 -0.646833 0.295174 0
M  V30 1418 H 142.474 -1.38555 1.37923 0
M  V30 1419 H 141.178 -3.34703 2.37491 0
M  V30 1420 H 140.709 -3.86238 0.747261 0
M  V30 1421 H 142.724 -4.96044 0.124586 0
M  V30 1422 N 141.898 -0.863906 -1.31812 0
M  V30 1423 C 143.123 -0.48527 -2.01643 0
M  V30 1424 C 143.548 0.913058 -1.64453 0
M  V30 1425 O 142.906 1.6014 -0.849985 0
M  V30 1426 C 142.954 -0.642625 -3.54828 0
M  V30 1427 O 142.058 0.320659 -4.11151 0
M  V30 1428 H 141.399 -0.193793 -0.635091 0
M  V30 1429 H 143.929 -1.16565 -1.68148 0
M  V30 1430 H 143.939 -0.533628 -4.04495 0
M  V30 1431 H 142.614 -1.66227 -3.81237 0
M  V30 1432 H 141.191 0.167126 -3.72525 0
M  V30 1433 N 143.376 1.44774 -0.622745 0
M  V30 1434 C 144.306 2.33382 0.0741861 0
M  V30 1435 C 145.287 1.47719 0.843387 0
M  V30 1436 O 146.472 1.76458 0.810934 0
M  V30 1437 C 143.602 3.30663 1.06204 0
M  V30 1438 C 142.556 4.26079 0.405037 0
M  V30 1439 C 141.882 5.13165 1.5022 0
M  V30 1440 C 143.182 5.1781 -0.683414 0
M  V30 1441 H 144.876 2.91905 -0.665713 0
M  V30 1442 H 142.422 1.40363 -0.321587 0
M  V30 1443 H 144.375 3.9153 1.55827 0
M  V30 1444 H 143.099 2.70331 1.83272 0
M  V30 1445 H 141.758 3.66532 -0.0704683 0
M  V30 1446 H 141.406 4.49191 2.26355 0
M  V30 1447 H 141.106 5.77812 1.06803 0
M  V30 1448 H 142.63 5.76902 2.00041 0
M  V30 1449 H 144.044 5.72661 -0.270631 0
M  V30 1450 H 142.441 5.91015 -1.04023 0
M  V30 1451 H 143.511 4.59326 -1.55395 0
M  V30 1452 N 144.854 0.36279 1.53368 0
M  V30 1453 C 146.1 -0.228113 2.01513 0
M  V30 1454 C 146.433 -1.48648 1.2497 0
M  V30 1455 O 145.708 -1.91459 0.342616 0
M  V30 1456 C 145.991 -0.522884 3.56284 0
M  V30 1457 C 145.844 0.74892 4.43521 0
M  V30 1458 C 147.163 -1.32461 4.19693 0
M  V30 1459 H 144.282 -0.0814343 0.732487 0
M  V30 1460 H 146.924 0.48713 1.83649 0
M  V30 1461 H 145.074 -1.1322 3.71636 0
M  V30 1462 H 146.746 1.38648 4.39971 0
M  V30 1463 H 144.989 1.36986 4.11603 0
M  V30 1464 H 145.66 0.497667 5.49752 0
M  V30 1465 H 148.136 -0.809203 4.08156 0
M  V30 1466 H 147.012 -1.49961 5.28018 0
M  V30 1467 H 147.273 -2.33232 3.75573 0
M  V30 1468 N 146.332 -1.57332 0.0918853 0
M  V30 1469 C 147.557 -1.98995 -0.584442 0
M  V30 1470 C 147.982 -0.970528 -1.61128 0
M  V30 1471 O 147.34 0.0613904 -1.81196 0
M  V30 1472 C 147.388 -3.39636 -1.21161 0
M  V30 1473 O 146.492 -3.40447 -2.32744 0
M  V30 1474 H 145.833 -0.647165 -0.148572 0
M  V30 1475 H 148.363 -2.03873 0.172347 0
M  V30 1476 H 148.373 -3.7726 -1.55367 0
M  V30 1477 H 147.048 -4.13356 -0.459313 0
M  V30 1478 H 145.625 -3.14614 -2.0018 0
M  V30 1479 N 147.81 0.181792 -1.56548 0
M  V30 1480 C 149.058 0.89832 -1.81038 0
M  V30 1481 C 149.379 1.83232 -0.667164 0
M  V30 1482 O 148.649 1.93372 0.313673 0
M  V30 1483 H 147.229 0.33471 -0.667816 0
M  V30 1484 H 149.891 0.184116 -1.94028 0
M  V30 1485 H 148.987 1.4815 -2.74696 0
M  V30 1486 N 149.288 1.51039 0.449983 0
M  V30 1487 C 150.251 1.70863 1.5277 0
M  V30 1488 C 151.251 0.578846 1.5002 0
M  V30 1489 O 152.441 0.846213 1.52266 0
M  V30 1490 C 149.573 1.75341 2.9235 0
M  V30 1491 H 150.766 2.67034 1.36502 0
M  V30 1492 H 148.319 1.40838 0.677812 0
M  V30 1493 H 149.054 0.809383 3.14037 0
M  V30 1494 H 148.839 2.57436 2.95752 0
M  V30 1495 H 150.329 1.92559 3.70555 0
M  V30 1496 N 150.766 -0.704594 1.40972 0
M  V30 1497 C 151.729 -1.80035 1.41845 0
M  V30 1498 C 152.729 -1.57774 0.310474 0
M  V30 1499 O 153.919 -1.64613 0.56992 0
M  V30 1500 C 151.051 -3.18284 1.22098 0
M  V30 1501 H 152.244 -1.80658 2.3938 0
M  V30 1502 H 149.797 -0.911329 1.26982 0
M  V30 1503 H 150.532 -3.23306 0.253672 0
M  V30 1504 H 150.317 -3.35843 2.02366 0
M  V30 1505 H 151.807 -3.98289 1.25522 0
M  V30 1506 N 152.244 -1.26651 -0.937939 0
M  V30 1507 C 153.469 -1.15279 -1.72411 0
M  V30 1508 C 153.894 0.287866 -1.85884 0
M  V30 1509 O 153.252 1.20855 -1.35143 0
M  V30 1510 C 153.3 -1.83028 -3.10698 0
M  V30 1511 O 152.404 -1.12128 -3.96864 0
M  V30 1512 H 151.745 -0.401504 -0.528858 0
M  V30 1513 H 154.275 -1.67531 -1.1745 0
M  V30 1514 H 154.285 -1.89981 -3.6107 0
M  V30 1515 H 152.96 -2.87833 -3.00208 0
M  V30 1516 H 151.537 -1.13173 -3.55312 0
M  V30 1517 N 153.722 1.14298 -1.08507 0
M  V30 1518 C 154.652 2.21542 -0.737646 0
M  V30 1519 C 155.633 1.67773 0.280377 0
M  V30 1520 O 156.818 1.93616 0.150521 0
M  V30 1521 C 153.948 3.46988 -0.147259 0
M  V30 1522 C 152.902 4.13789 -1.09374 0
M  V30 1523 C 152.228 5.33449 -0.365524 0
M  V30 1524 C 153.528 4.62208 -2.4323 0
M  V30 1525 H 155.222 2.5086 -1.6343 0
M  V30 1526 H 152.768 1.20576 -0.787243 0
M  V30 1527 H 154.721 4.21262 0.107808 0
M  V30 1528 H 153.445 3.17037 0.784538 0
M  V30 1529 H 152.104 3.4147 -1.33393 0
M  V30 1530 H 151.752 4.99759 0.57011 0
M  V30 1531 H 151.452 5.79088 -0.996512 0
M  V30 1532 H 152.976 6.10485 -0.118534 0
M  V30 1533 H 154.39 5.27952 -2.23472 0
M  V30 1534 H 152.787 5.18553 -3.02031 0
M  V30 1535 H 153.857 3.77224 -3.04681 0
M  V30 1536 N 155.201 0.870884 1.31352 0
M  V30 1537 C 156.478 0.402907 1.91405 0
M  V30 1538 C 156.858 -1.11512 1.79244 0
M  V30 1539 O 156.206 -1.94411 1.2007 0
M  V30 1540 C 156.416 0.885301 3.37585 0
M  V30 1541 C 157.764 0.911971 4.14691 0
M  V30 1542 O 158.788 0.831016 3.46371 0
M  V30 1543 O 157.647 1.02927 5.3672 0
M  V30 1544 H 154.741 0.120698 0.818145 0
M  V30 1545 H 157.287 0.958857 1.40014 0
M  V30 1546 H 156.059 1.92889 3.40455 0
M  V30 1547 H 155.682 0.307714 3.96407 0
M  V30 1548 N 156.679 -1.44442 0.630414 0
M  V30 1549 C 157.642 -2.29107 -0.0652523 0
M  V30 1550 C 158.642 -1.41002 -0.772995 0
M  V30 1551 O 159.832 -1.62881 -0.617692 0
M  V30 1552 C 156.964 -3.22564 -1.10296 0
M  V30 1553 H 158.157 -2.92103 0.679401 0
M  V30 1554 H 155.71 -1.51343 0.390517 0
M  V30 1555 H 156.445 -2.64416 -1.87762 0
M  V30 1556 H 156.23 -3.87491 -0.59941 0
M  V30 1557 H 157.72 -3.86167 -1.5895 0
M  V30 1558 N 158.157 -0.370918 -1.53173 0
M  V30 1559 C 159.382 0.220293 -2.06227 0
M  V30 1560 C 159.807 1.41243 -1.24225 0
M  V30 1561 O 159.165 1.79387 -0.262645 0
M  V30 1562 C 159.213 0.586663 -3.55796 0
M  V30 1563 O 158.317 1.68317 -3.76488 0
M  V30 1564 H 157.658 0.0308099 -0.663285 0
M  V30 1565 H 160.188 -0.533068 -1.97534 0
M  V30 1566 H 160.198 0.85617 -3.98916 0
M  V30 1567 H 158.873 -0.285013 -4.14922 0
M  V30 1568 H 157.45 1.40881 -3.45264 0
M  V30 1569 N 159.635 1.57281 -0.100228 0
M  V30 1570 C 160.875 1.96419 0.56558 0
M  V30 1571 C 161.239 0.981265 1.65031 0
M  V30 1572 O 162.44 1.26133 2.37369 0
M  V30 1573 C 160.711 3.39996 1.10171 0
M  V30 1574 S 162.27 4.01134 1.77867 0
M  V30 1575 H 159.088 0.68667 0.184406 0
M  V30 1576 H 161.69 1.94662 -0.180851 0
M  V30 1577 H 160.394 4.09296 0.300803 0
M  V30 1578 H 159.925 3.45361 1.88385 0
M  V30 1579 H 161.94 3.90358 3.06326 0
M  V30 1580 N 161.113 -0.173488 1.56642 0
M  V30 1581 C 162.043 -1.2171 1.99271 0
M  V30 1582 C 163.024 -1.46289 0.867959 0
M  V30 1583 O 164.209 -1.5766 1.13388 0
M  V30 1584 C 161.339 -2.55651 2.35074 0
M  V30 1585 C 160.293 -2.45645 3.50489 0
M  V30 1586 C 159.619 -3.84056 3.72028 0
M  V30 1587 C 160.919 -1.96302 4.84007 0
M  V30 1588 H 162.613 -0.86275 2.867 0
M  V30 1589 H 160.159 -0.413571 1.37933 0
M  V30 1590 H 162.112 -3.2886 2.63494 0
M  V30 1591 H 160.836 -2.92869 1.44552 0
M  V30 1592 H 159.495 -1.7489 3.22194 0
M  V30 1593 H 159.143 -4.18664 2.788 0
M  V30 1594 H 158.843 -3.7823 4.49684 0
M  V30 1595 H 160.367 -4.58854 4.02846 0
M  V30 1596 H 161.781 -2.59284 5.11317 0
M  V30 1597 H 160.178 -2.01429 5.65284 0
M  V30 1598 H 161.248 -0.917226 4.76146 0
M  V30 1599 N 162.591 -1.51276 -0.441967 0
M  V30 1600 C 163.839 -1.63392 -1.18943 0
M  V30 1601 C 164.16 -0.350159 -1.9183 0
M  V30 1602 O 163.43 0.633784 -1.85364 0
M  V30 1603 H 162.01 -0.602164 -0.442049 0
M  V30 1604 H 164.672 -1.88186 -0.507165 0
M  V30 1605 H 163.768 -2.45934 -1.92154 0
M  V30 1606 N 164.069 0.697108 -1.41344 0
M  V30 1607 C 165.485 1.00751 -1.2378 0
M  V30 1608 C 165.685 2.01105 -0.126066 0
M  V30 1609 O 164.741 2.47295 0.51004 0
M  V30 1610 C 166.054 1.53359 -2.58653 0
M  V30 1611 C 167.602 1.6525 -2.65822 0
M  V30 1612 C 168.077 2.2126 -4.01009 0
M  V30 1613 N 169.568 2.28622 -4.02847 0
M  V30 1614 C 170.303 2.72984 -5.04249 0
M  V30 1615 N 169.799 3.16962 -6.16041 0
M  V30 1616 N 171.592 2.72534 -4.91611 0
M  V30 1617 H 163.743 0.0322662 -2.12375 0
M  V30 1618 H 166.006 0.0768853 -0.944877 0
M  V30 1619 H 165.712 0.870773 -3.4075 0
M  V30 1620 H 165.586 2.51597 -2.81032 0
M  V30 1621 H 167.973 2.30644 -1.84086 0
M  V30 1622 H 168.054 0.655614 -2.47256 0
M  V30 1623 H 167.698 1.56482 -4.83193 0
M  V30 1624 H 167.628 3.21698 -4.16915 0
M  V30 1625 H 170.119 1.97585 -3.22131 0
M  V30 1626 H 170.432 3.49434 -6.89287 0
M  V30 1627 H 168.777 3.14875 -6.1958 0
M  V30 1628 H 171.968 2.37525 -4.0336 0
M  V30 1629 H 172.141 3.06789 -5.70775 0
M  V30 1630 N 165.547 1.27147 0.931209 0
M  V30 1631 C 166.477 1.12081 2.04842 0
M  V30 1632 C 167.458 0.0232364 1.70084 0
M  V30 1633 O 168.643 0.197085 1.93197 0
M  V30 1634 C 165.773 0.76354 3.38803 0
M  V30 1635 C 164.727 1.81396 3.87659 0
M  V30 1636 C 164.053 1.31075 5.18385 0
M  V30 1637 C 165.353 3.21739 4.11438 0
M  V30 1638 H 167.047 2.05537 2.17703 0
M  V30 1639 H 164.593 0.989603 1.04608 0
M  V30 1640 H 166.546 0.644982 4.16435 0
M  V30 1641 H 165.27 -0.206727 3.25945 0
M  V30 1642 H 163.929 1.92136 3.12217 0
M  V30 1643 H 163.577 0.330037 5.01916 0
M  V30 1644 H 163.277 2.013 5.52044 0
M  V30 1645 H 164.801 1.20506 5.98591 0
M  V30 1646 H 166.215 3.14019 4.79651 0
M  V30 1647 H 164.612 3.89644 4.56397 0
M  V30 1648 H 165.682 3.67054 3.16859 0
M  V30 1649 N 167.025 -1.13721 1.09112 0
M  V30 1650 C 168.273 -1.84559 0.823562 0
M  V30 1651 C 168.594 -1.83754 -0.652658 0
M  V30 1652 O 167.864 -1.29102 -1.47342 0
M  V30 1653 H 166.444 -0.683376 0.301673 0
M  V30 1654 H 169.106 -1.37771 1.37859 0
M  V30 1655 H 168.202 -2.8917 1.17419 0
M  V30 1656 N 168.503 -0.877838 -1.30888 0
M  V30 1657 C 169.751 -0.491723 -1.96027 0
M  V30 1658 C 170.072 0.960827 -1.69685 0
M  V30 1659 O 169.342 1.67462 -1.01654 0
M  V30 1660 H 167.922 -0.17885 -0.725273 0
M  V30 1661 H 170.584 -1.11935 -1.59551 0
M  V30 1662 H 169.68 -0.656016 -3.05128 0
M  V30 1663 N 169.982 1.44106 -0.638065 0
M  V30 1664 C 171.231 2.01194 -0.142744 0
M  V30 1665 C 171.544 1.50835 1.24532 0
M  V30 1666 O 172.75 2.00096 1.83504 0
M  V30 1667 C 171.206 3.59319 -0.20442 0
M  V30 1668 C 170.814 4.18674 -1.59423 0
M  V30 1669 C 172.558 4.23854 0.234079 0
M  V30 1670 C 170.465 5.69045 -1.61065 0
M  V30 1671 H 169.395 0.752367 -0.0495998 0
M  V30 1672 H 172.046 1.65246 -0.797881 0
M  V30 1673 H 170.428 3.92598 0.517946 0
M  V30 1674 H 171.602 3.96921 -2.34074 0
M  V30 1675 H 169.917 3.66453 -1.97741 0
M  V30 1676 H 172.514 5.34155 0.241443 0
M  V30 1677 H 172.857 3.96688 1.2627 0
M  V30 1678 H 173.39 3.95403 -0.436025 0
M  V30 1679 H 170.129 6.00956 -2.61787 0
M  V30 1680 H 169.649 5.929 -0.90718 0
M  V30 1681 H 171.328 6.32809 -1.34766 0
M  V30 1682 N 171.46 0.379036 1.52974 0
M  V30 1683 C 172.423 -0.448865 2.24762 0
M  V30 1684 C 173.423 -0.998689 1.26027 0
M  V30 1685 O 174.613 -0.882313 1.50203 0
M  V30 1686 C 171.745 -1.62872 2.99476 0
M  V30 1687 H 172.938 0.179491 2.99362 0
M  V30 1688 H 170.491 0.13096 1.5575 0
M  V30 1689 H 171.226 -2.29479 2.29151 0
M  V30 1690 H 171.011 -1.24128 3.71934 0
M  V30 1691 H 172.501 -2.2151 3.5401 0
M  V30 1692 N 172.938 -1.57226 0.108567 0
M  V30 1693 C 174.184 -1.95121 -0.552761 0
M  V30 1694 C 174.517 -0.991345 -1.66991 0
M  V30 1695 O 173.792 -0.0267211 -1.94482 0
M  V30 1696 C 174.075 -3.43039 -1.09528 0
M  V30 1697 C 173.928 -4.49797 0.0177332 0
M  V30 1698 C 175.247 -3.92567 -1.98945 0
M  V30 1699 H 172.366 -0.709496 -0.199461 0
M  V30 1700 H 175.008 -1.89126 0.182011 0
M  V30 1701 H 173.158 -3.48279 -1.72146 0
M  V30 1702 H 174.83 -4.56661 0.652584 0
M  V30 1703 H 173.073 -4.284 0.682309 0
M  V30 1704 H 173.744 -5.50528 -0.402919 0
M  V30 1705 H 176.22 -3.89565 -1.46214 0
M  V30 1706 H 175.096 -4.96605 -2.33827 0
M  V30 1707 H 175.357 -3.32648 -2.91201 0
M  V30 1708 N 174.416 0.165178 -1.56732 0
M  V30 1709 C 175.379 1.18822 -1.95995 0
M  V30 1710 C 176.379 1.3685 -0.84431 0
M  V30 1711 O 177.569 1.34152 -1.11126 0
M  V30 1712 C 174.701 2.5521 -2.26011 0
M  V30 1713 H 175.894 0.851825 -2.87548 0
M  V30 1714 H 173.447 0.407857 -1.50885 0
M  V30 1715 H 174.182 2.93852 -1.37191 0
M  V30 1716 H 173.967 2.43489 -3.07336 0
M  V30 1717 H 175.457 3.28927 -2.57288 0
M  V30 1718 N 175.894 1.51508 0.433938 0
M  V30 1719 C 177.124 1.67914 1.20369 0
M  V30 1720 C 177.532 0.377461 1.85397 0
M  V30 1721 O 176.875 -0.654255 1.71654 0
M  V30 1722 C 176.937 2.74045 2.32679 0
M  V30 1723 C 176.601 4.16543 1.87991 0
M  V30 1724 C 177.598 5.01211 1.38145 0
M  V30 1725 C 175.283 4.6266 1.95579 0
M  V30 1726 C 177.277 6.30056 0.964774 0
M  V30 1727 C 174.964 5.91501 1.53523 0
M  V30 1728 C 175.962 6.75027 1.04055 0
M  V30 1729 O 175.65 8.01459 0.625964 0
M  V30 1730 H 175.382 0.566578 0.368735 0
M  V30 1731 H 177.936 1.98709 0.51999 0
M  V30 1732 H 176.166 2.38572 3.04336 0
M  V30 1733 H 177.855 2.79295 2.94532 0
M  V30 1734 H 178.621 4.66783 1.31675 0
M  V30 1735 H 174.5 3.97767 2.33029 0
M  V30 1736 H 178.044 6.95202 0.57796 0
M  V30 1737 H 173.941 6.25442 1.59665 0
M  V30 1738 H 174.709 8.15043 0.751509 0
M  V30 1739 N 177.372 -0.689602 1.41712 0
M  V30 1740 C 178.619 -1.44966 1.4139 0
M  V30 1741 C 178.947 -1.94484 0.025105 0
M  V30 1742 O 178.202 -1.70307 -0.964048 0
M  V30 1743 C 178.501 -2.67298 2.37247 0
M  V30 1744 C 178.167 -2.36405 3.83958 0
M  V30 1745 C 176.829 -2.27691 4.23923 0
M  V30 1746 C 179.181 -2.11043 4.76561 0
M  V30 1747 C 176.509 -1.91719 5.54492 0
M  V30 1748 C 178.861 -1.76578 6.07456 0
M  V30 1749 C 177.525 -1.66363 6.46436 0
M  V30 1750 H 176.795 -0.53047 0.517381 0
M  V30 1751 H 179.442 -0.787655 1.74552 0
M  V30 1752 H 177.747 -3.38461 1.9736 0
M  V30 1753 H 179.444 -3.25452 2.34269 0
M  V30 1754 H 176.034 -2.44085 3.52308 0
M  V30 1755 H 180.218 -2.16717 4.46483 0
M  V30 1756 H 175.474 -1.82367 5.83568 0
M  V30 1757 H 179.648 -1.55974 6.78708 0
M  V30 1758 H 177.275 -1.38258 7.47522 0
M  V30 1759 N 178.85 -1.27639 -0.924453 0
M  V30 1760 C 180.098 -1.13941 -1.66918 0
M  V30 1761 C 180.419 0.314589 -1.92446 0
M  V30 1762 O 179.689 1.21964 -1.53303 0
M  V30 1763 H 178.269 -0.418678 -0.618642 0
M  V30 1764 H 180.931 -1.60213 -1.10985 0
M  V30 1765 H 180.027 -1.67094 -2.63602 0
M  V30 1766 N 180.328 1.1314 -1.09713 0
M  V30 1767 C 181.258 2.20748 -0.761102 0
M  V30 1768 C 182.239 1.68061 0.262566 0
M  V30 1769 O 183.424 1.93765 0.129977 0
M  V30 1770 C 180.554 3.46812 -0.184054 0
M  V30 1771 C 179.508 4.12606 -1.13757 0
M  V30 1772 C 178.834 5.33031 -0.422083 0
M  V30 1773 C 180.134 4.59603 -2.48118 0
M  V30 1774 H 181.828 2.49113 -1.66082 0
M  V30 1775 H 179.374 1.19734 -0.799987 0
M  V30 1776 H 181.327 4.21353 0.0631215 0
M  V30 1777 H 180.051 3.17851 0.750868 0
M  V30 1778 H 178.71 3.40036 -1.37007 0
M  V30 1779 H 178.358 5.00335 0.517072 0
M  V30 1780 H 178.058 5.77999 -1.05788 0
M  V30 1781 H 179.582 6.10325 -0.183277 0
M  V30 1782 H 180.996 5.25552 -2.29059 0
M  V30 1783 H 179.393 5.15321 -3.07514 0
M  V30 1784 H 180.463 3.73971 -3.08665 0
M  V30 1785 N 181.806 0.884767 1.30421 0
M  V30 1786 C 183.034 0.518044 2.0031 0
M  V30 1787 C 183.449 -0.893408 1.66324 0
M  V30 1788 O 182.806 -1.5875 0.900262 0
M  V30 1789 C 182.857 0.682997 3.54989 0
M  V30 1790 O 182.578 2.03888 3.87764 0
M  V30 1791 C 184.079 0.31924 4.42149 0
M  V30 1792 H 181.299 0.200265 0.640418 0
M  V30 1793 H 183.843 1.19001 1.6631 0
M  V30 1794 H 181.998 0.0584052 3.87356 0
M  V30 1795 H 182.412 2.05735 4.82466 0
M  V30 1796 H 183.886 0.485555 5.4986 0
M  V30 1797 H 184.363 -0.742717 4.32875 0
M  V30 1798 H 184.969 0.920147 4.15227 0
M  V30 1799 N 183.284 -1.43765 0.645699 0
M  V30 1800 C 184.512 -2.06253 0.163556 0
M  V30 1801 C 184.927 -1.48352 -1.16778 0
M  V30 1802 O 184.284 -0.611932 -1.71935 0
M  V30 1803 C 184.335 -3.61453 0.0583186 0
M  V30 1804 O 184.056 -4.172 1.33702 0
M  V30 1805 C 185.557 -4.41002 -0.450795 0
M  V30 1806 H 182.777 -0.665413 0.0864077 0
M  V30 1807 H 185.321 -1.84396 0.884222 0
M  V30 1808 H 183.476 -3.82522 -0.612865 0
M  V30 1809 H 183.89 -5.10791 1.19131 0
M  V30 1810 H 185.364 -5.49966 -0.473403 0
M  V30 1811 H 185.841 -4.13488 -1.48068 0
M  V30 1812 H 186.447 -4.24886 0.187637 0
M  V30 1813 N 184.763 -0.387143 -1.52771 0
M  V30 1814 C 185.693 0.440551 -2.29306 0
M  V30 1815 C 186.674 1.06535 -1.32606 0
M  V30 1816 O 187.859 1.07853 -1.61497 0
M  V30 1817 C 184.989 1.56919 -3.09829 0
M  V30 1818 C 183.943 1.07054 -4.14395 0
M  V30 1819 C 183.269 2.29109 -4.83129 0
M  V30 1820 C 184.569 0.140015 -5.22112 0
M  V30 1821 H 186.263 -0.198026 -2.98744 0
M  V30 1822 H 183.809 -0.09668 -1.43675 0
M  V30 1823 H 185.762 2.15503 -3.62128 0
M  V30 1824 H 184.486 2.23532 -2.3812 0
M  V30 1825 H 183.145 0.507247 -3.63074 0
M  V30 1826 H 182.793 2.94227 -4.0797 0
M  V30 1827 H 182.493 1.96406 -5.53804 0
M  V30 1828 H 184.017 2.88339 -5.38231 0
M  V30 1829 H 185.431 0.633978 -5.69784 0
M  V30 1830 H 183.828 -0.0971485 -6.00021 0
M  V30 1831 H 184.898 -0.811711 -4.78058 0
M  V30 1832 N 186.241 1.57166 -0.116904 0
M  V30 1833 C 187.466 1.999 0.55271 0
M  V30 1834 C 187.891 0.996039 1.59564 0
M  V30 1835 O 187.249 -0.032556 1.81271 0
M  V30 1836 C 187.297 3.4152 1.15742 0
M  V30 1837 O 186.401 3.44106 2.27299 0
M  V30 1838 H 185.742 0.649447 0.138258 0
M  V30 1839 H 188.272 2.03573 -0.204759 0
M  V30 1840 H 188.282 3.79684 1.49346 0
M  V30 1841 H 186.957 4.14034 0.393493 0
M  V30 1842 H 185.534 3.17759 1.9515 0
M  V30 1843 N 187.719 -0.156864 1.56817 0
M  V30 1844 C 188.682 -1.17781 1.96622 0
M  V30 1845 C 189.682 -1.36401 0.851555 0
M  V30 1846 O 190.872 -1.33561 1.11836 0
M  V30 1847 C 188.004 -2.54008 2.27361 0
M  V30 1848 H 189.197 -0.836564 2.87996 0
M  V30 1849 H 186.75 -0.39985 1.51099 0
M  V30 1850 H 187.485 -2.9312 1.38748 0
M  V30 1851 H 187.27 -2.41856 3.08623 0
M  V30 1852 H 188.76 -3.27558 2.59029 0
M  V30 1853 N 189.197 -1.51736 -0.425897 0
M  V30 1854 C 190.422 -1.69082 -1.20108 0
M  V30 1855 C 190.847 -0.392398 -1.83962 0
M  V30 1856 O 190.205 0.64858 -1.69302 0
M  V30 1857 C 190.253 -2.81604 -2.25237 0
M  V30 1858 O 189.357 -2.46004 -3.30992 0
M  V30 1859 H 188.698 -0.563408 -0.35138 0
M  V30 1860 H 191.228 -1.98358 -0.501512 0
M  V30 1861 H 191.238 -3.06025 -2.69838 0
M  V30 1862 H 189.913 -3.75817 -1.78142 0
M  V30 1863 H 188.49 -2.32195 -2.91787 0
M  V30 1864 N 190.675 0.682077 -1.42076 0
M  V30 1865 C 191.638 1.77756 -1.44691 0
M  V30 1866 C 192.638 1.5726 -0.335535 0
M  V30 1867 O 193.828 1.63686 -0.596037 0
M  V30 1868 C 190.96 3.16301 -1.27146 0
M  V30 1869 H 192.153 1.76826 -2.42224 0
M  V30 1870 H 189.706 0.891012 -1.28416 0
M  V30 1871 H 190.441 3.22862 -0.305075 0
M  V30 1872 H 190.226 3.32581 -2.07683 0
M  V30 1873 H 191.716 3.96241 -1.31843 0
M  V30 1874 N 192.153 1.28127 0.917671 0
M  V30 1875 C 193.083 1.14248 2.03641 0
M  V30 1876 C 194.064 0.0412748 1.7005 0
M  V30 1877 O 195.249 0.217566 1.92977 0
M  V30 1878 C 192.379 0.799431 3.37974 0
M  V30 1879 C 191.333 1.85497 3.85713 0
M  V30 1880 C 190.659 1.36565 5.16966 0
M  V30 1881 C 191.959 3.26085 4.08002 0
M  V30 1882 H 193.653 2.07835 2.15511 0
M  V30 1883 H 191.199 1.00064 1.03553 0
M  V30 1884 H 193.152 0.689114 4.15727 0
M  V30 1885 H 191.876 -0.172145 3.26146 0
M  V30 1886 H 190.535 1.95437 3.10161 0
M  V30 1887 H 190.183 0.383253 5.01538 0
M  V30 1888 H 189.883 2.07143 5.49878 0
M  V30 1889 H 191.407 1.26848 5.97279 0
M  V30 1890 H 192.821 3.19089 4.76293 0
M  V30 1891 H 191.218 3.94462 4.52238 0
M  V30 1892 H 192.288 3.70394 3.12948 0
M  V30 1893 N 193.631 -1.12557 1.10312 0
M  V30 1894 C 194.594 -2.16434 0.75424 0
M  V30 1895 C 195.594 -1.59278 -0.220685 0
M  V30 1896 O 196.784 -1.742 0.00230591 0
M  V30 1897 C 193.916 -3.40699 0.116987 0
M  V30 1898 H 195.109 -2.48811 1.67431 0
M  V30 1899 H 192.662 -1.27542 0.903475 0
M  V30 1900 H 193.397 -3.13921 -0.813877 0
M  V30 1901 H 193.182 -3.83459 0.818613 0
M  V30 1902 H 194.672 -4.17451 -0.111387 0
M  V30 1903 N 195.109 -0.891671 -1.2995 0
M  V30 1904 C 196.355 -0.514261 -1.96171 0
M  V30 1905 C 196.688 0.935506 -1.70182 0
M  V30 1906 O 195.963 1.66204 -1.01028 0
M  V30 1907 C 196.246 -0.797719 -3.51153 0
M  V30 1908 C 196.099 -2.2986 -3.86632 0
M  V30 1909 C 197.418 -0.278749 -4.39216 0
M  V30 1910 H 194.537 -0.188314 -0.712535 0
M  V30 1911 H 197.179 -1.11689 -1.53706 0
M  V30 1912 H 195.329 -0.284826 -3.87455 0
M  V30 1913 H 197.001 -2.88042 -3.60319 0
M  V30 1914 H 195.244 -2.76257 -3.34462 0
M  V30 1915 H 195.915 -2.44753 -4.94773 0
M  V30 1916 H 198.391 -0.717825 -4.09862 0
M  V30 1917 H 197.267 -0.506353 -5.46559 0
M  V30 1918 H 197.528 0.820266 -4.34424 0
M  V30 1919 N 196.587 1.43421 -0.653314 0
M  V30 1920 C 197.55 2.29182 0.0287951 0
M  V30 1921 C 198.55 1.42213 0.750465 0
M  V30 1922 O 199.74 1.63843 0.591701 0
M  V30 1923 C 196.872 3.24278 1.05151 0
M  V30 1924 H 198.065 2.90985 -0.725786 0
M  V30 1925 H 195.618 1.50702 -0.414545 0
M  V30 1926 H 196.353 2.6737 1.83532 0
M  V30 1927 H 196.138 3.88396 0.537687 0
M  V30 1928 H 197.628 3.88647 1.52786 0
M  V30 1929 N 198.065 0.39524 1.52563 0
M  V30 1930 C 198.995 -0.428384 2.29537 0
M  V30 1931 C 199.976 -1.05831 1.33169 0
M  V30 1932 O 201.161 -1.06995 1.62067 0
M  V30 1933 C 198.291 -1.55274 3.10656 0
M  V30 1934 C 197.245 -1.04855 4.14957 0
M  V30 1935 C 196.571 -2.26543 4.84337 0
M  V30 1936 C 197.871 -0.112324 5.22179 0
M  V30 1937 H 199.565 0.213867 2.98635 0
M  V30 1938 H 197.111 0.104298 1.43622 0
M  V30 1939 H 199.064 -2.1358 3.63265 0
M  V30 1940 H 197.788 -2.22266 2.39302 0
M  V30 1941 H 196.447 -0.487985 3.63338 0
M  V30 1942 H 196.095 -2.92059 4.09525 0
M  V30 1943 H 195.795 -1.93466 5.54837 0
M  V30 1944 H 197.319 -2.85481 5.39753 0
M  V30 1945 H 198.733 -0.603752 5.70112 0
M  V30 1946 H 197.13 0.128968 5.99961 0
M  V30 1947 H 198.2 0.837052 4.77621 0
M  V30 1948 N 199.544 -1.57102 0.125237 0
M  V30 1949 C 200.507 -2.14471 -0.80838 0
M  V30 1950 C 201.507 -1.0811 -1.19033 0
M  V30 1951 O 202.697 -1.33856 -1.11482 0
M  V30 1952 C 199.829 -2.69005 -2.09402 0
M  V30 1953 H 201.022 -2.98297 -0.309696 0
M  V30 1954 H 198.575 -1.55807 -0.124051 0
M  V30 1955 H 199.31 -1.88785 -2.63687 0
M  V30 1956 H 199.095 -3.46799 -1.82957 0
M  V30 1957 H 200.585 -3.13278 -2.76128 0
M  V30 1958 N 201.022 0.148545 -1.56898 0
M  V30 1959 C 202.269 0.861418 -1.83264 0
M  V30 1960 C 202.597 1.81239 -0.705883 0
M  V30 1961 O 201.852 1.93305 0.305212 0
M  V30 1962 C 202.151 1.67064 -3.1595 0
M  V30 1963 C 201.817 0.866591 -4.42494 0
M  V30 1964 C 200.479 0.644762 -4.76861 0
M  V30 1965 C 202.831 0.30418 -5.20312 0
M  V30 1966 C 200.159 -0.15021 -5.86508 0
M  V30 1967 C 202.511 -0.477824 -6.30793 0
M  V30 1968 C 201.175 -0.710244 -6.63711 0
M  V30 1969 H 200.445 0.315215 -0.670612 0
M  V30 1970 H 203.092 0.125142 -1.91091 0
M  V30 1971 H 201.397 2.47698 -3.03567 0
M  V30 1972 H 203.094 2.22566 -3.33565 0
M  V30 1973 H 199.684 1.04955 -4.15551 0
M  V30 1974 H 203.868 0.462844 -4.94137 0
M  V30 1975 H 199.124 -0.339796 -6.10455 0
M  V30 1976 H 203.298 -0.92076 -6.90286 0
M  V30 1977 H 200.925 -1.3281 -7.48509 0
M  V30 1978 N 202.5 1.5196 0.417844 0
M  V30 1979 C 203.749 1.6482 1.16264 0
M  V30 1980 C 204.062 0.379886 1.91876 0
M  V30 1981 O 205.268 0.388154 2.68711 0
M  V30 1982 C 203.724 2.91161 2.1155 0
M  V30 1983 C 203.332 4.25068 1.41495 0
M  V30 1984 C 205.076 3.13383 2.86341 0
M  V30 1985 C 202.983 5.42541 2.35379 0
M  V30 1986 H 201.913 0.613954 0.437694 0
M  V30 1987 H 204.564 1.78442 0.427871 0
M  V30 1988 H 202.946 2.71218 2.88543 0
M  V30 1989 H 204.12 4.55463 0.699263 0
M  V30 1990 H 202.435 4.0888 0.787792 0
M  V30 1991 H 205.032 3.98324 3.5671 0
M  V30 1992 H 205.375 2.27256 3.48798 0
M  V30 1993 H 205.908 3.33757 2.1645 0
M  V30 1994 H 202.647 6.30987 1.77582 0
M  V30 1995 H 202.167 5.16497 3.04945 0
M  V30 1996 H 203.846 5.75272 2.96093 0
M  V30 1997 N 203.978 -0.674533 1.42435 0
M  V30 1998 C 205.227 -1.43034 1.42212 0
M  V30 1999 C 205.54 -1.95555 0.0420788 0
M  V30 2000 O 206.746 -2.71374 -0.0827558 0
M  V30 2001 C 205.202 -2.58748 2.50155 0
M  V30 2002 C 204.81 -2.12925 3.94166 0
M  V30 2003 C 206.554 -3.36257 2.59098 0
M  V30 2004 C 204.461 -3.25723 4.93618 0
M  V30 2005 H 203.391 -0.537345 0.528939 0
M  V30 2006 H 206.042 -0.73024 1.68344 0
M  V30 2007 H 204.424 -3.31128 2.17188 0
M  V30 2008 H 205.598 -1.47697 4.36488 0
M  V30 2009 H 203.913 -1.48354 3.89076 0
M  V30 2010 H 206.51 -4.20264 3.30578 0
M  V30 2011 H 206.853 -3.82866 1.63461 0
M  V30 2012 H 207.386 -2.70947 2.9126 0
M  V30 2013 H 204.125 -2.84105 5.90732 0
M  V30 2014 H 203.645 -3.89732 4.55926 0
M  V30 2015 H 205.324 -3.91186 5.15347 0
M  V30 2016 N 205.456 -1.28612 -0.910864 0
M  V30 2017 C 206.403 -1.12786 -2.01365 0
M  V30 2018 C 207.373 -0.024201 -1.66082 0
M  V30 2019 O 208.558 -0.189667 -1.89855 0
M  V30 2020 C 205.698 -0.798743 -3.35729 0
M  V30 2021 C 204.811 -1.98173 -3.83864 0
M  V30 2022 C 203.946 -1.59298 -5.06752 0
M  V30 2023 C 202.985 -2.74245 -5.47226 0
M  V30 2024 N 202.122 -2.35842 -6.61304 0
M  V30 2025 H 206.962 -2.07142 -2.14234 0
M  V30 2026 H 204.499 -1.03093 -1.0493 0
M  V30 2027 H 206.457 -0.588662 -4.13026 0
M  V30 2028 H 205.087 0.10789 -3.2262 0
M  V30 2029 H 204.139 -2.30386 -3.02699 0
M  V30 2030 H 205.451 -2.84343 -4.09818 0
M  V30 2031 H 204.605 -1.34513 -5.916 0
M  V30 2032 H 203.344 -0.702618 -4.82612 0
M  V30 2033 H 202.349 -2.99725 -4.60918 0
M  V30 2034 H 203.574 -3.63928 -5.73353 0
M  V30 2035 H 201.52 -1.49279 -6.38789 0
M  V30 2036 H 201.437 -3.15546 -6.86998 0
M  V30 2037 H 202.705 -2.14348 -7.4945 0
M  V30 2038 N 206.934 1.1197 -1.10907 0
M  V30 2039 C 208.345 1.65114 -0.871446 0
M  V30 2040 C 208.696 1.86885 0.597353 0
M  V30 2041 O 207.821 1.59896 1.45816 0
M  V30 2042 C 208.416 2.99944 -1.5754 0
M  V30 2043 C 206.975 3.50018 -1.38435 0
M  V30 2044 C 206.122 2.24941 -1.62164 0
M  V30 2045 H 209.073 0.956851 -1.2661 0
M  V30 2046 H 209.094 3.66651 -1.01721 0
M  V30 2047 H 208.606 2.84067 -2.64438 0
M  V30 2048 H 206.707 3.71071 -0.337214 0
M  V30 2049 H 206.82 4.29165 -2.12965 0
M  V30 2050 H 205.184 2.3229 -1.04467 0
M  V30 2051 H 205.967 2.11612 -2.70324 0
M  V30 2052 N 208.412 0.89855 1.29475 0
M  V30 2053 C 209.66 0.522847 1.9522 0
M  V30 2054 C 209.981 -0.93371 1.71192 0
M  V30 2055 O 209.251 -1.65823 1.04305 0
M  V30 2056 H 207.831 0.190366 0.722336 0
M  V30 2057 H 210.493 1.14459 1.5775 0
M  V30 2058 H 209.589 0.704476 3.04045 0
M  V30 2059 N 209.89 -1.43072 0.660911 0
M  V30 2060 C 211.115 -2.06584 0.183805 0
M  V30 2061 C 211.54 -1.49257 -1.14472 0
M  V30 2062 O 210.898 -0.605528 -1.70889 0
M  V30 2063 C 210.946 -3.60418 0.114434 0
M  V30 2064 O 210.05 -4.01981 -0.921137 0
M  V30 2065 H 209.391 -0.656669 0.0983994 0
M  V30 2066 H 211.921 -1.83447 0.906006 0
M  V30 2067 H 211.931 -4.07946 -0.0663394 0
M  V30 2068 H 210.606 -4.01519 1.08422 0
M  V30 2069 H 209.183 -3.66029 -0.71253 0
M  V30 2070 N 211.368 -0.403325 -1.52352 0
M  V30 2071 C 212.616 0.174003 -2.0135 0
M  V30 2072 C 212.937 1.46139 -1.29106 0
M  V30 2073 O 212.207 1.91448 -0.415253 0
M  V30 2074 H 210.787 0.0672911 -0.743963 0
M  V30 2075 H 213.449 -0.538235 -1.87321 0
M  V30 2076 H 212.545 0.374254 -3.09848 0
M  V30 2077 N 212.846 1.57033 -0.133567 0
M  V30 2078 C 213.809 2.14897 0.796995 0
M  V30 2079 C 214.809 1.0874 1.18458 0
M  V30 2080 O 215.999 1.34446 1.1077 0
M  V30 2081 C 213.131 2.70112 2.07973 0
M  V30 2082 H 214.324 2.98457 0.293873 0
M  V30 2083 H 211.877 1.55871 0.115787 0
M  V30 2084 H 212.612 1.9018 2.62682 0
M  V30 2085 H 212.397 3.47764 1.81115 0
M  V30 2086 H 213.887 3.14738 2.74462 0
M  V30 2087 N 214.325 -0.140222 1.56975 0
M  V30 2088 C 215.257 -1.19818 1.95388 0
M  V30 2089 C 216.27 -1.38816 0.850525 0
M  V30 2090 O 217.459 -1.38267 1.12891 0
M  V30 2091 C 214.559 -2.56189 2.21857 0
M  V30 2092 C 213.732 -2.58077 3.5315 0
M  V30 2093 C 212.791 -3.76037 3.6808 0
M  V30 2094 O 211.817 -3.60598 4.40406 0
M  V30 2095 N 213.019 -4.93763 3.05251 0
M  V30 2096 H 215.784 -0.871609 2.86746 0
M  V30 2097 H 213.345 -0.32972 1.58507 0
M  V30 2098 H 215.337 -3.33623 2.2908 0
M  V30 2099 H 213.907 -2.81111 1.36731 0
M  V30 2100 H 213.127 -1.6651 3.57307 0
M  V30 2101 H 214.415 -2.56377 4.39486 0
M  V30 2102 H 213.813 -5.09209 2.46419 0
M  V30 2103 H 212.37 -5.68949 3.18026 0
M  V30 2104 N 215.803 -1.52179 -0.40978 0
M  V30 2105 C 217.031 -1.70054 -1.17853 0
M  V30 2106 C 217.446 -0.409735 -1.843 0
M  V30 2107 O 216.803 0.614183 -1.71855 0
M  V30 2108 C 216.854 -2.83568 -2.24213 0
M  V30 2109 O 216.575 -4.0765 -1.60478 0
M  V30 2110 C 218.076 -3.12947 -3.13973 0
M  V30 2111 H 215.296 -0.569917 -0.354169 0
M  V30 2112 H 217.84 -1.98734 -0.482198 0
M  V30 2113 H 215.995 -2.57409 -2.89516 0
M  V30 2114 H 216.409 -4.70899 -2.30986 0
M  V30 2115 H 217.883 -3.95889 -3.84677 0
M  V30 2116 H 218.36 -2.26472 -3.76307 0
M  V30 2117 H 218.966 -3.40868 -2.5434 0
M  V30 2118 N 217.281 0.66697 -1.42791 0
M  V30 2119 C 218.211 1.79218 -1.49677 0
M  V30 2120 C 219.192 1.66405 -0.352623 0
M  V30 2121 O 220.377 1.85708 -0.567993 0
M  V30 2122 C 217.507 3.17565 -1.40605 0
M  V30 2123 C 216.461 3.45124 -2.53127 0
M  V30 2124 C 215.787 4.83127 -2.29112 0
M  V30 2125 C 217.087 3.41236 -3.95418 0
M  V30 2126 H 218.781 1.73713 -2.43853 0
M  V30 2127 H 216.327 0.83432 -1.17367 0
M  V30 2128 H 218.28 3.96022 -1.44029 0
M  V30 2129 H 217.004 3.23767 -0.429271 0
M  V30 2130 H 215.663 2.69031 -2.49034 0
M  V30 2131 H 215.311 4.85988 -1.29709 0
M  V30 2132 H 215.011 5.02528 -3.04531 0
M  V30 2133 H 216.535 5.63859 -2.34297 0
M  V30 2134 H 217.949 4.09651 -4.01073 0
M  V30 2135 H 216.346 3.72173 -4.70752 0
M  V30 2136 H 217.416 2.39665 -4.21532 0
M  V30 2137 N 218.759 1.29093 0.90403 0
M  V30 2138 C 219.691 1.09658 2.01266 0
M  V30 2139 C 220.704 0.0453729 1.62737 0
M  V30 2140 O 221.893 0.289446 1.76138 0
M  V30 2141 C 218.993 0.646278 3.32681 0
M  V30 2142 C 218.166 1.77505 3.99763 0
M  V30 2143 C 217.225 1.31649 5.09465 0
M  V30 2144 O 216.251 2.02045 5.32134 0
M  V30 2145 N 217.453 0.184997 5.80205 0
M  V30 2146 H 220.218 2.05135 2.18494 0
M  V30 2147 H 217.779 1.20975 1.07594 0
M  V30 2148 H 219.771 0.322906 4.0341 0
M  V30 2149 H 218.341 -0.215916 3.11853 0
M  V30 2150 H 217.561 2.26752 3.22455 0
M  V30 2151 H 218.849 2.53198 4.41325 0
M  V30 2152 H 218.247 -0.402021 5.6427 0
M  V30 2153 H 216.804 -0.0790358 6.51752 0
M  V30 2154 N 220.237 -1.11381 1.11499 0
M  V30 2155 C 221.462 -1.87475 0.887019 0
M  V30 2156 C 221.887 -1.79639 -0.557796 0
M  V30 2157 O 221.245 -1.15924 -1.39396 0
M  V30 2158 C 221.293 -3.34213 1.35403 0
M  V30 2159 O 220.397 -4.0903 0.526146 0
M  V30 2160 H 219.738 -0.582099 0.319463 0
M  V30 2161 H 222.268 -1.40785 1.48461 0
M  V30 2162 H 222.278 -3.8506 1.34881 0
M  V30 2163 H 220.953 -3.39232 2.40612 0
M  V30 2164 H 219.53 -3.68082 0.597522 0
M  V30 2165 N 221.715 -0.905404 -1.28997 0
M  V30 2166 C 222.94 -0.549175 -1.99997 0
M  V30 2167 C 223.365 0.860276 -1.67275 0
M  V30 2168 O 222.723 1.57355 -0.900502 0
M  V30 2169 C 222.771 -0.755185 -3.52604 0
M  V30 2170 O 221.875 0.189692 -4.11964 0
M  V30 2171 H 221.216 -0.213899 -0.628604 0
M  V30 2172 H 223.746 -1.21856 -1.64354 0
M  V30 2173 H 223.756 -0.662045 -4.02593 0
M  V30 2174 H 222.431 -1.78271 -3.75755 0
M  V30 2175 H 221.008 0.0485257 -3.72868 0
M  V30 2176 N 223.193 1.4272 -0.668489 0
M  V30 2177 C 224.47 1.95248 -0.117373 0
M  V30 2178 C 224.85 1.60919 1.36632 0
M  V30 2179 O 224.198 0.902095 2.09939 0
M  V30 2180 C 224.408 3.46927 -0.379806 0
M  V30 2181 C 225.756 4.23588 -0.292923 0
M  V30 2182 O 226.78 3.5482 -0.313204 0
M  V30 2183 O 225.639 5.46017 -0.229697 0
M  V30 2184 H 222.733 0.827 0.00079152 0
M  V30 2185 H 225.279 1.52581 -0.742783 0
M  V30 2186 H 224.051 3.65096 -1.40786 0
M  V30 2187 H 223.674 3.96627 0.277923 0
M  V30 2188 N 224.671 0.411399 1.52136 0
M  V30 2189 C 225.601 -0.404015 2.29978 0
M  V30 2190 C 226.582 -1.04412 1.34284 0
M  V30 2191 O 227.767 -1.0527 1.63192 0
M  V30 2192 C 224.897 -1.5197 3.12286 0
M  V30 2193 C 223.851 -1.00448 4.16046 0
M  V30 2194 C 223.177 -2.21393 4.86712 0
M  V30 2195 C 224.477 -0.0569336 5.22269 0
M  V30 2196 H 226.171 0.245529 2.98392 0
M  V30 2197 H 223.717 0.119525 1.43503 0
M  V30 2198 H 225.67 -2.09715 3.6551 0
M  V30 2199 H 224.394 -2.19716 2.41646 0
M  V30 2200 H 223.053 -0.449421 3.63835 0
M  V30 2201 H 222.701 -2.87699 4.12599 0
M  V30 2202 H 222.401 -1.87571 5.56858 0
M  V30 2203 H 223.925 -2.7974 5.4275 0
M  V30 2204 H 225.339 -0.54325 5.7072 0
M  V30 2205 H 223.736 0.192594 5.99791 0
M  V30 2206 H 224.806 0.887663 4.76706 0
M  V30 2207 N 226.149 -1.5696 0.141893 0
M  V30 2208 C 227.397 -1.95573 -0.509484 0
M  V30 2209 C 227.718 -1.02746 -1.65736 0
M  V30 2210 O 226.988 -0.0880311 -1.95702 0
M  V30 2211 H 225.568 -0.722115 -0.191205 0
M  V30 2212 H 228.23 -1.93697 0.216196 0
M  V30 2213 H 227.326 -2.99171 -0.889 0
M  V30 2214 N 227.627 0.131896 -1.57047 0
M  V30 2215 C 228.557 1.16384 -2.02428 0
M  V30 2216 C 229.538 1.43936 -0.90644 0
M  V30 2217 O 230.723 1.54599 -1.17528 0
M  V30 2218 C 227.853 2.49328 -2.4177 0
M  V30 2219 C 226.807 2.36266 -3.56879 0
M  V30 2220 C 226.133 3.74057 -3.8208 0
M  V30 2221 C 227.433 1.834 -4.89042 0
M  V30 2222 H 229.127 0.786433 -2.88887 0
M  V30 2223 H 226.673 0.376855 -1.38981 0
M  V30 2224 H 228.626 3.21759 -2.7212 0
M  V30 2225 H 227.35 2.88934 -1.52266 0
M  V30 2226 H 226.009 1.66286 -3.26718 0
M  V30 2227 H 225.657 4.11125 -2.89803 0
M  V30 2228 H 225.357 3.66174 -4.59554 0
M  V30 2229 H 226.881 4.48012 -4.1487 0
M  V30 2230 H 228.295 2.45636 -5.18011 0
M  V30 2231 H 226.692 1.8637 -5.70426 0
M  V30 2232 H 227.762 0.790662 -4.7841 0
M  V30 2233 N 229.106 1.52395 0.401703 0
M  V30 2234 C 230.016 1.7917 1.51444 0
M  V30 2235 C 231.032 0.677691 1.6026 0
M  V30 2236 O 232.208 0.963909 1.76835 0
M  V30 2237 C 229.273 1.94347 2.87107 0
M  V30 2238 C 228.334 3.18257 2.88116 0
M  V30 2239 C 227.567 3.32701 4.17308 0
M  V30 2240 O 227.79 2.52238 5.11598 0
M  V30 2241 O 226.724 4.25891 4.25324 0
M  V30 2242 H 230.55 2.73633 1.31752 0
M  V30 2243 H 228.135 1.3733 0.588296 0
M  V30 2244 H 230.017 2.06109 3.67555 0
M  V30 2245 H 228.692 1.03073 3.06851 0
M  V30 2246 H 227.599 3.11947 2.06494 0
M  V30 2247 H 228.932 4.09336 2.73322 0
M  V30 2248 N 230.584 -0.659388 1.43143 0
M  V30 2249 C 231.861 -1.41627 1.34912 0
M  V30 2250 C 232.241 -2.11099 -0.00607785 0
M  V30 2251 O 231.589 -2.04353 -1.02236 0
M  V30 2252 C 231.799 -2.40604 2.52805 0
M  V30 2253 C 233.147 -3.04789 2.95616 0
M  V30 2254 O 234.171 -2.50932 2.52807 0
M  V30 2255 O 233.03 -4.02421 3.69756 0
M  V30 2256 H 230.124 -0.63246 0.532844 0
M  V30 2257 H 232.67 -0.686814 1.5518 0
M  V30 2258 H 231.442 -1.88174 3.43083 0
M  V30 2259 H 231.065 -3.21009 2.34604 0
M  V30 2260 N 232.062 -1.29571 -0.897171 0
M  V30 2261 C 233.287 -1.20705 -1.68656 0
M  V30 2262 C 233.712 0.228582 -1.86706 0
M  V30 2263 O 233.07 1.16494 -1.3892 0
M  V30 2264 C 233.118 -1.9282 -3.04717 0
M  V30 2265 O 232.222 -1.24697 -3.93096 0
M  V30 2266 H 231.563 -0.418126 -0.515816 0
M  V30 2267 H 234.093 -1.71183 -1.12061 0
M  V30 2268 H 234.103 -2.01372 -3.54843 0
M  V30 2269 H 232.778 -2.97239 -2.90899 0
M  V30 2270 H 231.355 -1.2442 -3.51531 0
M  V30 2271 N 233.54 1.10788 -1.12088 0
M  V30 2272 C 234.788 1.8231 -0.872205 0
M  V30 2273 C 235.109 1.85419 0.603709 0
M  V30 2274 O 234.379 1.32963 1.43867 0
M  V30 2275 H 232.959 0.675137 -0.319686 0
M  V30 2276 H 235.621 1.34068 -1.41463 0
M  V30 2277 H 234.717 2.85955 -1.25045 0
M  V30 2278 N 235.018 0.912232 1.28515 0
M  V30 2279 C 236.429 0.591352 1.77087 0
M  V30 2280 C 236.78 -0.8933 1.74684 0
M  V30 2281 O 235.905 -1.69876 1.34056 0
M  V30 2282 C 236.5 1.06668 3.2157 0
M  V30 2283 C 235.059 0.79675 3.67871 0
M  V30 2284 C 234.206 1.23427 2.48316 0
M  V30 2285 H 237.157 1.09365 1.15 0
M  V30 2286 H 237.178 0.407455 3.78312 0
M  V30 2287 H 236.69 2.14726 3.23287 0
M  V30 2288 H 234.791 -0.270679 3.71616 0
M  V30 2289 H 234.904 1.40343 4.58084 0
M  V30 2290 H 233.268 0.653036 2.46186 0
M  V30 2291 H 234.051 2.32316 2.52753 0
M  V30 2292 N 236.496 -1.42363 0.676048 0
M  V30 2293 C 237.907 -1.84649 0.275948 0
M  V30 2294 C 238.258 -1.56588 -1.18214 0
M  V30 2295 O 237.383 -1.02634 -1.90513 0
M  V30 2296 C 237.978 -3.35178 0.494053 0
M  V30 2297 C 236.537 -3.76109 0.148061 0
M  V30 2298 C 235.684 -2.65931 0.785891 0
M  V30 2299 H 238.635 -1.32192 0.878121 0
M  V30 2300 H 238.656 -3.79655 -0.25343 0
M  V30 2301 H 238.168 -3.55571 1.55535 0
M  V30 2302 H 236.269 -3.61323 -0.909742 0
M  V30 2303 H 236.382 -4.7546 0.589454 0
M  V30 2304 H 234.746 -2.53773 0.217113 0
M  V30 2305 H 235.529 -2.89146 1.85067 0
M  V30 2306 N 237.974 -0.419461 -1.51915 0
M  V30 2307 C 239.385 0.0477853 -1.86639 0
M  V30 2308 C 239.736 1.43531 -1.33766 0
M  V30 2309 O 238.861 2.05401 -0.68113 0
M  V30 2310 C 239.456 0.0934885 -3.38671 0
M  V30 2311 C 238.015 0.505097 -3.72996 0
M  V30 2312 C 237.162 -0.313792 -2.75519 0
M  V30 2313 H 240.113 -0.636088 -1.45395 0
M  V30 2314 H 240.134 0.906667 -3.6954 0
M  V30 2315 H 239.646 -0.916501 -3.77123 0
M  V30 2316 H 237.747 1.52135 -3.40126 0
M  V30 2317 H 237.86 0.242309 -4.78487 0
M  V30 2318 H 236.224 0.225363 -2.53701 0
M  V30 2319 H 237.007 -1.32232 -3.16812 0
M  V30 2320 N 239.452 1.56882 -0.150215 0
M  V30 2321 C 240.698 1.96518 0.500834 0
M  V30 2322 C 241.031 1.03527 1.64304 0
M  V30 2323 O 240.306 0.0782751 1.94342 0
M  V30 2324 C 240.589 3.45822 1.00395 0
M  V30 2325 C 240.442 4.49591 -0.136983 0
M  V30 2326 C 241.761 3.97704 1.88467 0
M  V30 2327 H 238.88 0.714535 0.18058 0
M  V30 2328 H 241.522 1.88577 -0.232091 0
M  V30 2329 H 239.672 3.5272 1.62851 0
M  V30 2330 H 241.344 4.5477 -0.77343 0
M  V30 2331 H 239.587 4.26441 -0.795652 0
M  V30 2332 H 240.258 5.51402 0.256815 0
M  V30 2333 H 242.734 3.93304 1.35834 0
M  V30 2334 H 241.61 5.0263 2.20578 0
M  V30 2335 H 241.871 3.40252 2.82279 0
M  V30 2336 N 240.93 -0.123565 1.57115 0
M  V30 2337 C 242.341 -0.681198 1.73829 0
M  V30 2338 C 242.692 -1.80535 0.768214 0
M  V30 2339 O 241.817 -2.16317 -0.0599103 0
M  V30 2340 C 242.412 -1.24246 3.15196 0
M  V30 2341 C 240.971 -1.74643 3.33432 0
M  V30 2342 C 240.118 -0.644284 2.69711 0
M  V30 2343 H 243.069 0.102315 1.5837 0
M  V30 2344 H 243.09 -2.11216 3.16493 0
M  V30 2345 H 242.602 -0.424062 3.85776 0
M  V30 2346 H 240.703 -2.58974 2.67886 0
M  V30 2347 H 240.816 -1.85902 4.41562 0
M  V30 2348 H 239.18 -1.07676 2.3082 0
M  V30 2349 H 239.963 0.163058 3.42913 0
M  V30 2350 N 242.408 -1.52605 -0.393616 0
M  V30 2351 C 243.355 -1.77055 -1.48054 0
M  V30 2352 C 244.325 -0.61358 -1.54352 0
M  V30 2353 O 245.51 -0.852806 -1.70681 0
M  V30 2354 C 242.65 -1.94108 -2.85335 0
M  V30 2355 C 241.763 -3.21792 -2.88226 0
M  V30 2356 C 240.898 -3.29188 -4.16904 0
M  V30 2357 C 239.937 -4.51013 -4.13828 0
M  V30 2358 N 239.074 -4.55716 -5.34105 0
M  V30 2359 H 243.914 -2.69815 -1.26506 0
M  V30 2360 H 241.451 -1.33683 -0.61379 0
M  V30 2361 H 243.409 -2.01979 -3.65049 0
M  V30 2362 H 242.039 -1.04713 -3.05344 0
M  V30 2363 H 241.091 -3.23015 -2.00911 0
M  V30 2364 H 242.403 -4.11557 -2.8182 0
M  V30 2365 H 241.557 -3.36216 -5.05018 0
M  V30 2366 H 240.296 -2.37389 -4.26026 0
M  V30 2367 H 239.301 -4.44115 -3.24102 0
M  V30 2368 H 240.526 -5.44123 -4.06333 0
M  V30 2369 H 238.472 -3.66807 -5.43865 0
M  V30 2370 H 238.389 -5.39346 -5.29756 0
M  V30 2371 H 239.657 -4.66993 -6.2413 0
M  V30 2372 N 243.887 0.651787 -1.4349 0
M  V30 2373 C 244.797 1.79368 -1.5121 0
M  V30 2374 C 245.813 1.69361 -0.399093 0
M  V30 2375 O 246.989 1.90505 -0.653431 0
M  V30 2376 C 244.054 3.15653 -1.43401 0
M  V30 2377 C 243.115 3.37446 -2.65384 0
M  V30 2378 C 242.348 4.67229 -2.57939 0
M  V30 2379 O 242.571 5.46676 -1.62792 0
M  V30 2380 O 241.505 4.90773 -3.48462 0
M  V30 2381 H 245.331 1.7581 -2.47638 0
M  V30 2382 H 242.916 0.810447 -1.25507 0
M  V30 2383 H 244.798 3.96935 -1.41494 0
M  V30 2384 H 243.473 3.19798 -0.501085 0
M  V30 2385 H 242.38 2.55923 -2.72863 0
M  V30 2386 H 243.713 3.38148 -3.57654 0
M  V30 2387 N 245.365 1.30045 0.890287 0
M  V30 2388 C 246.593 1.21472 1.67487 0
M  V30 2389 C 247.008 -0.223241 1.87476 0
M  V30 2390 O 246.365 -1.14828 1.41847 0
M  V30 2391 C 246.416 1.93394 3.05419 0
M  V30 2392 O 246.137 3.31576 2.86337 0
M  V30 2393 C 247.638 1.91414 3.99844 0
M  V30 2394 H 244.858 0.420604 0.522813 0
M  V30 2395 H 247.402 1.7158 1.11268 0
M  V30 2396 H 245.557 1.47099 3.58386 0
M  V30 2397 H 245.971 3.67929 3.73802 0
M  V30 2398 H 247.445 2.46285 4.94012 0
M  V30 2399 H 247.922 0.891833 4.3005 0
M  V30 2400 H 248.528 2.37496 3.52811 0
M  V30 2401 N 246.843 -1.10192 1.12674 0
M  V30 2402 C 248.089 -1.82475 0.884915 0
M  V30 2403 C 248.422 -1.85093 -0.58773 0
M  V30 2404 O 247.697 -1.3134 -1.43457 0
M  V30 2405 C 247.98 -3.29018 1.46353 0
M  V30 2406 C 247.833 -3.34718 3.00473 0
M  V30 2407 C 249.152 -4.25473 1.12519 0
M  V30 2408 H 246.271 -0.662492 0.322915 0
M  V30 2409 H 248.913 -1.2913 1.39375 0
M  V30 2410 H 247.063 -3.74576 1.03077 0
M  V30 2411 H 248.735 -2.97622 3.52447 0
M  V30 2412 H 246.978 -2.74541 3.35872 0
M  V30 2413 H 247.649 -4.37918 3.36053 0
M  V30 2414 H 250.125 -3.88161 1.499 0
M  V30 2415 H 249.001 -5.26365 1.55663 0
M  V30 2416 H 249.262 -4.42084 0.0377407 0
M  V30 2417 N 248.321 -0.919034 -1.28029 0
M  V30 2418 C 249.598 -0.473668 -1.89778 0
M  V30 2419 C 249.978 1.04783 -1.83259 0
M  V30 2420 O 249.326 1.8982 -1.27202 0
M  V30 2421 C 249.536 -1.00998 -3.34066 0
M  V30 2422 C 250.884 -1.06525 -4.1102 0
M  V30 2423 O 251.908 -0.958996 -3.43048 0
M  V30 2424 O 250.767 -1.22776 -5.3253 0
M  V30 2425 H 247.861 -0.15098 -0.813101 0
M  V30 2426 H 250.407 -1.01016 -1.36359 0
M  V30 2427 H 249.179 -2.05392 -3.33061 0
M  V30 2428 H 248.802 -0.454626 -3.94992 0
M  V30 2429 N 249.799 1.42003 -0.683588 0
M  V30 2430 C 251.024 2.06265 -0.216647 0
M  V30 2431 C 251.449 1.51059 1.12083 0
M  V30 2432 O 250.807 0.632638 1.69904 0
M  V30 2433 C 250.855 3.60191 -0.171759 0
M  V30 2434 O 249.959 4.03396 0.857069 0
M  V30 2435 H 249.3 0.65502 -0.108834 0
M  V30 2436 H 251.83 1.81982 -0.935077 0
M  V30 2437 H 251.84 4.08 0.0014303 0
M  V30 2438 H 250.515 3.99743 -1.14796 0
M  V30 2439 H 249.092 3.67117 0.654208 0
M  V30 2440 N 251.277 0.427512 1.51691 0
M  V30 2441 C 252.524 -0.142229 2.02 0
M  V30 2442 C 252.852 -1.43566 1.31221 0
M  V30 2443 O 252.107 -1.91298 0.412744 0
M  V30 2444 C 252.406 -0.418249 3.54944 0
M  V30 2445 C 252.072 0.788187 4.43958 0
M  V30 2446 C 250.734 1.11906 4.68007 0
M  V30 2447 C 253.086 1.59347 4.96244 0
M  V30 2448 C 250.414 2.25608 5.41588 0
M  V30 2449 C 252.766 2.7214 5.71072 0
M  V30 2450 C 251.43 3.05692 5.93387 0
M  V30 2451 H 250.7 -0.0520451 0.73917 0
M  V30 2452 H 253.347 0.572697 1.82736 0
M  V30 2453 H 251.652 -1.21496 3.72486 0
M  V30 2454 H 253.349 -0.872339 3.91397 0
M  V30 2455 H 249.939 0.520344 4.2543 0
M  V30 2456 H 254.123 1.35106 4.77556 0
M  V30 2457 H 249.379 2.51929 5.57083 0
M  V30 2458 H 253.553 3.34914 6.10578 0
M  V30 2459 H 251.18 3.9391 6.50184 0
M  V30 2460 N 252.755 -1.56801 0.158532 0
M  V30 2461 C 253.685 -2.20347 -0.772609 0
M  V30 2462 C 254.666 -1.15518 -1.24859 0
M  V30 2463 O 255.851 -1.43902 -1.30406 0
M  V30 2464 C 252.981 -2.83417 -2.00729 0
M  V30 2465 C 251.935 -3.94174 -1.66765 0
M  V30 2466 C 251.261 -4.44233 -2.97592 0
M  V30 2467 C 252.561 -5.14392 -0.905447 0
M  V30 2468 H 254.255 -2.98413 -0.242959 0
M  V30 2469 H 251.801 -1.43537 -0.115419 0
M  V30 2470 H 253.754 -3.26543 -2.6636 0
M  V30 2471 H 252.478 -2.02701 -2.56086 0
M  V30 2472 H 251.137 -3.51684 -1.03508 0
M  V30 2473 H 250.785 -3.60325 -3.50963 0
M  V30 2474 H 250.485 -5.18945 -2.75626 0
M  V30 2475 H 252.009 -4.90037 -3.64274 0
M  V30 2476 H 253.423 -5.5429 -1.46408 0
M  V30 2477 H 251.82 -5.9494 -0.7853 0
M  V30 2478 H 252.89 -4.84795 0.100668 0
M  V30 2479 N 254.233 0.115231 -1.57178 0
M  V30 2480 C 255.51 0.852873 -1.76027 0
M  V30 2481 C 255.89 1.97892 -0.73498 0
M  V30 2482 O 255.238 2.27232 0.24036 0
M  V30 2483 C 255.448 1.36608 -3.21153 0
M  V30 2484 C 256.796 1.81692 -3.83762 0
M  V30 2485 O 257.82 1.46278 -3.24779 0
M  V30 2486 O 256.679 2.47104 -4.87444 0
M  V30 2487 H 253.773 0.405296 -0.720877 0
M  V30 2488 H 256.319 0.0986785 -1.69413 0
M  V30 2489 H 255.091 0.558357 -3.87296 0
M  V30 2490 H 254.714 2.18287 -3.3232 0
M  V30 2491 N 255.711 1.52812 0.385517 0
M  V30 2492 C 256.641 1.80808 1.47752 0
M  V30 2493 C 257.622 0.660318 1.5676 0
M  V30 2494 O 258.807 0.908246 1.71652 0
M  V30 2495 C 255.937 1.98008 2.85324 0
M  V30 2496 C 254.891 3.13709 2.91154 0
M  V30 2497 C 254.217 3.16169 4.31209 0
M  V30 2498 C 255.517 4.52709 2.60483 0
M  V30 2499 H 257.211 2.72253 1.24573 0
M  V30 2500 H 254.757 1.31003 0.597839 0
M  V30 2501 H 256.71 2.16176 3.61726 0
M  V30 2502 H 255.434 1.03255 3.09848 0
M  V30 2503 H 254.093 2.95329 2.17201 0
M  V30 2504 H 253.741 2.19092 4.52778 0
M  V30 2505 H 253.441 3.93894 4.36029 0
M  V30 2506 H 254.965 3.36496 5.09512 0
M  V30 2507 H 256.379 4.71173 3.26602 0
M  V30 2508 H 254.776 5.32528 2.76648 0
M  V30 2509 H 255.846 4.59186 1.55809 0
M  V30 2510 N 257.189 -0.644168 1.43834 0
M  V30 2511 C 258.152 -1.73857 1.49353 0
M  V30 2512 C 259.152 -1.56315 0.377112 0
M  V30 2513 O 260.342 -1.62048 0.639226 0
M  V30 2514 C 257.474 -3.12819 1.35488 0
M  V30 2515 H 258.667 -1.70342 2.46827 0
M  V30 2516 H 256.22 -0.856652 1.30733 0
M  V30 2517 H 256.955 -3.2194 0.390569 0
M  V30 2518 H 256.74 -3.26958 2.16428 0
M  V30 2519 H 258.23 -3.92606 1.42302 0
M  V30 2520 N 258.668 -1.30515 -0.883378 0
M  V30 2521 C 260.084 -1.08881 -1.16692 0
M  V30 2522 C 260.284 0.149409 -2.00945 0
M  V30 2523 O 259.34 0.84257 -2.38027 0
M  V30 2524 C 260.653 -2.35319 -1.87204 0
M  V30 2525 C 262.201 -2.40799 -1.99962 0
M  V30 2526 C 262.676 -3.67083 -2.73887 0
M  V30 2527 N 264.167 -3.679 -2.81432 0
M  V30 2528 C 264.902 -4.62303 -3.3921 0
M  V30 2529 N 264.398 -5.67052 -3.98025 0
M  V30 2530 N 266.191 -4.49845 -3.3704 0
M  V30 2531 H 258.342 -2.09951 -0.321633 0
M  V30 2532 H 260.605 -0.92556 -0.205043 0
M  V30 2533 H 260.311 -3.25689 -1.3274 0
M  V30 2534 H 260.185 -2.44089 -2.87577 0
M  V30 2535 H 262.572 -1.50907 -2.53597 0
M  V30 2536 H 262.653 -2.36003 -0.98673 0
M  V30 2537 H 262.297 -4.57334 -2.20925 0
M  V30 2538 H 262.227 -3.69141 -3.75556 0
M  V30 2539 H 264.718 -2.92171 -2.39676 0
M  V30 2540 H 265.031 -6.35184 -4.40183 0
M  V30 2541 H 263.376 -5.70842 -3.96439 0
M  V30 2542 H 266.567 -3.67194 -2.90321 0
M  V30 2543 H 266.74 -5.23597 -3.81772 0
M  V30 2544 N 260.146 1.09593 -1.13257 0
M  V30 2545 C 261.094 2.18271 -0.803783 0
M  V30 2546 C 262.088 1.68054 0.213148 0
M  V30 2547 O 263.294 1.79862 0.0704699 0
M  V30 2548 H 259.669 0.711949 -0.242143 0
M  V30 2549 H 261.64 2.43235 -1.72856 0
M  V30 2550 C 260.389 3.46536 -0.28424 0
M  V30 2551 H 259.712 3.85545 -1.05807 0
M  V30 2552 H 261.152 4.23899 -0.0925945 0
M  V30 2553 C 259.611 3.22036 0.989684 0
M  V30 2554 O 260.141 3.44509 2.06584 0
M  V30 2555 N 258.347 2.7565 0.920086 0
M  V30 2556 H 257.894 2.57562 0.0442019 0
M  V30 2557 H 257.852 2.59635 1.77306 0
M  V30 2558 N 261.624 0.925811 1.2754 0
M  V30 2559 C 262.554 0.440748 2.29303 0
M  V30 2560 C 263.535 -0.497971 1.62648 0
M  V30 2561 O 264.72 -0.403126 1.8997 0
M  V30 2562 C 261.85 -0.309048 3.45922 0
M  V30 2563 C 260.804 0.54166 4.24559 0
M  V30 2564 C 260.13 -0.337191 5.33636 0
M  V30 2565 C 261.43 1.80516 4.90114 0
M  V30 2566 H 263.124 1.29121 2.70126 0
M  V30 2567 H 260.67 0.622323 1.29858 0
M  V30 2568 H 262.623 -0.659315 4.1621 0
M  V30 2569 H 261.347 -1.19352 3.04011 0
M  V30 2570 H 260.006 0.874609 3.56014 0
M  V30 2571 H 259.654 -1.22056 4.87966 0
M  V30 2572 H 259.354 0.228497 5.87156 0
M  V30 2573 H 260.878 -0.683072 6.06767 0
M  V30 2574 H 262.292 1.52307 5.52698 0
M  V30 2575 H 260.689 2.3142 5.53683 0
M  V30 2576 H 261.759 2.52581 4.13921 0
M  V30 2577 N 263.102 -1.41638 0.69111 0
M  V30 2578 C 264.349 -2.01299 0.220193 0
M  V30 2579 C 264.677 -1.54715 -1.17871 0
M  V30 2580 O 263.932 -0.747193 -1.80874 0
M  V30 2581 C 264.231 -3.56714 0.221277 0
M  V30 2582 C 263.897 -4.22792 1.56709 0
M  V30 2583 C 262.559 -4.40557 1.93554 0
M  V30 2584 C 264.911 -4.59883 2.45268 0
M  V30 2585 C 262.239 -4.92688 3.18552 0
M  V30 2586 C 264.591 -5.13403 3.69595 0
M  V30 2587 C 263.255 -5.29379 4.06589 0
M  V30 2588 H 262.525 -0.736606 0.0805743 0
M  V30 2589 H 265.172 -1.69598 0.889319 0
M  V30 2590 H 263.477 -3.8818 -0.531391 0
M  V30 2591 H 265.174 -4.00678 -0.160547 0
M  V30 2592 H 261.764 -4.09336 1.2705 0
M  V30 2593 H 265.948 -4.45817 2.18084 0
M  V30 2594 H 261.204 -5.03242 3.47214 0
M  V30 2595 H 265.378 -5.41084 4.38407 0
M  V30 2596 H 263.005 -5.69537 5.03519 0
M  V30 2597 N 264.58 -0.43555 -1.51462 0
M  V30 2598 C 265.991 0.0279871 -1.86679 0
M  V30 2599 C 266.342 1.42104 -1.35281 0
M  V30 2600 O 265.467 2.04667 -0.702878 0
M  V30 2601 C 266.062 0.0575626 -3.38751 0
M  V30 2602 C 264.621 0.465507 -3.7351 0
M  V30 2603 C 263.768 -0.342996 -2.75171 0
M  V30 2604 H 266.719 -0.651473 -1.44712 0
M  V30 2605 H 266.74 0.867421 -3.70481 0
M  V30 2606 H 266.252 -0.956448 -3.7613 0
M  V30 2607 H 264.353 1.48519 -3.41721 0
M  V30 2608 H 264.466 0.191546 -4.78717 0
M  V30 2609 H 262.83 0.198442 -2.53926 0
M  V30 2610 H 263.613 -1.35585 -3.15391 0
M  V30 2611 N 266.058 1.56714 -0.166846 0
M  V30 2612 C 267.283 2.01557 0.488833 0
M  V30 2613 C 267.708 1.0463 1.56314 0
M  V30 2614 O 267.066 0.0251304 1.81283 0
M  V30 2615 C 267.114 3.4503 1.04818 0
M  V30 2616 O 266.218 3.51163 2.16236 0
M  V30 2617 H 265.559 0.653516 0.117526 0
M  V30 2618 H 268.089 2.02818 -0.269421 0
M  V30 2619 H 268.099 3.84243 1.37191 0
M  V30 2620 H 266.774 4.15077 0.261572 0
M  V30 2621 H 265.351 3.23807 1.84942 0
M  V30 2622 N 267.536 -0.106894 1.57237 0
M  V30 2623 C 268.484 -1.14944 2.02215 0
M  V30 2624 C 269.478 -1.42167 0.92114 0
M  V30 2625 O 270.684 -1.41987 1.10634 0
M  V30 2626 H 267.059 -0.387841 0.64427 0
M  V30 2627 H 269.03 -0.743683 2.88984 0
M  V30 2628 C 267.779 -2.4647 2.4525 0
M  V30 2629 H 267.102 -2.26363 3.29545 0
M  V30 2630 H 268.542 -3.17948 2.80508 0
M  V30 2631 C 267.001 -3.09921 1.321 0
M  V30 2632 O 267.531 -3.9651 0.643622 0
M  V30 2633 N 265.737 -2.69986 1.07497 0
M  V30 2634 H 265.284 -1.99667 1.62761 0
M  V30 2635 H 265.242 -3.12769 0.319876 0
M  V30 2636 N 269.014 -1.53014 -0.377408 0
M  V30 2637 C 269.944 -1.81589 -1.46791 0
M  V30 2638 C 270.925 -0.668622 -1.56408 0
M  V30 2639 O 272.11 -0.917337 -1.71168 0
M  V30 2640 C 269.24 -1.99519 -2.8427 0
M  V30 2641 C 268.194 -3.15249 -2.89486 0
M  V30 2642 C 267.52 -3.18451 -4.29527 0
M  V30 2643 C 268.82 -4.54084 -2.58079 0
M  V30 2644 H 270.514 -2.7291 -1.23127 0
M  V30 2645 H 268.06 -1.31319 -0.590883 0
M  V30 2646 H 270.013 -2.18092 -3.60575 0
M  V30 2647 H 268.737 -1.04897 -3.09296 0
M  V30 2648 H 267.396 -2.96477 -2.15631 0
M  V30 2649 H 267.044 -2.2149 -4.5161 0
M  V30 2650 H 266.744 -3.962 -4.33934 0
M  V30 2651 H 268.268 -3.39193 -5.07721 0
M  V30 2652 H 269.682 -4.72899 -3.24098 0
M  V30 2653 H 268.079 -5.33987 -2.7382 0
M  V30 2654 H 269.149 -4.60006 -1.53372 0
M  V30 2655 N 270.492 0.636531 -1.44174 0
M  V30 2656 C 271.738 1.39826 -1.4689 0
M  V30 2657 C 272.071 1.93947 -0.0990585 0
M  V30 2658 O 271.346 1.73325 0.882544 0
M  V30 2659 C 271.629 2.56751 -2.5249 0
M  V30 2660 C 271.482 2.08014 -3.98811 0
M  V30 2661 C 272.801 3.58946 -2.54649 0
M  V30 2662 H 269.92 0.507075 -0.53483 0
M  V30 2663 H 272.562 0.720188 -1.75822 0
M  V30 2664 H 270.712 3.14597 -2.2795 0
M  V30 2665 H 272.384 1.5504 -4.34466 0
M  V30 2666 H 270.627 1.39242 -4.10846 0
M  V30 2667 H 271.298 2.92169 -4.68339 0
M  V30 2668 H 273.774 3.1089 -2.76563 0
M  V30 2669 H 272.65 4.38286 -3.3045 0
M  V30 2670 H 272.911 4.12655 -1.58646 0
M  V30 2671 N 271.97 1.30982 0.876444 0
M  V30 2672 C 273.216 1.20474 1.63138 0
M  V30 2673 C 273.549 -0.238096 1.92735 0
M  V30 2674 O 272.824 -1.1692 1.55435 0
M  V30 2675 C 273.107 2.04244 2.96574 0
M  V30 2676 C 272.96 3.56793 2.73896 0
M  V30 2677 C 274.279 1.88684 3.97601 0
M  V30 2678 H 271.398 0.439001 0.591985 0
M  V30 2679 H 274.04 1.60704 1.01361 0
M  V30 2680 H 272.19 1.70063 3.493 0
M  V30 2681 H 273.862 4.01077 2.27892 0
M  V30 2682 H 272.105 3.80548 2.08245 0
M  V30 2683 H 272.776 4.10706 3.68815 0
M  V30 2684 H 275.252 2.18584 3.54062 0
M  V30 2685 H 274.128 2.4961 4.88862 0
M  V30 2686 H 274.389 0.848343 4.33884 0
M  V30 2687 N 273.449 -1.08991 1.13837 0
M  V30 2688 C 274.412 -2.13925 0.822715 0
M  V30 2689 C 275.412 -1.599 -0.1699 0
M  V30 2690 O 276.602 -1.74104 0.0577251 0
M  V30 2691 C 273.734 -3.40155 0.225318 0
M  V30 2692 H 274.927 -2.43358 1.75262 0
M  V30 2693 H 272.48 -1.24603 0.943594 0
M  V30 2694 H 273.215 -3.16352 -0.713594 0
M  V30 2695 H 273 -3.80661 0.940193 0
M  V30 2696 H 274.49 -4.17594 0.0214784 0
M  V30 2697 N 274.927 -0.932562 -1.27047 0
M  V30 2698 C 275.89 -0.440064 -2.24936 0
M  V30 2699 C 276.89 0.444071 -1.54547 0
M  V30 2700 O 278.08 0.244465 -1.72476 0
M  V30 2701 C 275.212 0.36678 -3.38921 0
M  V30 2702 H 276.405 -1.305 -2.70018 0
M  V30 2703 H 273.958 -0.713707 -1.39054 0
M  V30 2704 H 274.693 1.25033 -2.99228 0
M  V30 2705 H 274.478 -0.267204 -3.91188 0
M  V30 2706 H 275.968 0.701567 -4.11665 0
M  V30 2707 N 276.405 1.4127 -0.698611 0
M  V30 2708 C 277.652 2.0118 -0.230865 0
M  V30 2709 C 277.98 1.55338 1.17049 0
M  V30 2710 O 277.235 0.756775 1.80475 0
M  V30 2711 C 277.534 3.56592 -0.240192 0
M  V30 2712 C 277.2 4.21955 -1.58948 0
M  V30 2713 C 275.862 4.39524 -1.95887 0
M  V30 2714 C 278.214 4.58576 -2.47704 0
M  V30 2715 C 275.542 4.90992 -3.2116 0
M  V30 2716 C 277.894 5.11435 -3.72313 0
M  V30 2717 C 276.558 5.27215 -4.0939 0
M  V30 2718 H 275.828 0.736169 -0.0844796 0
M  V30 2719 H 278.475 1.69124 -0.8983 0
M  V30 2720 H 276.78 3.88456 0.510797 0
M  V30 2721 H 278.477 4.00758 0.139296 0
M  V30 2722 H 275.067 4.08657 -1.29219 0
M  V30 2723 H 279.251 4.44654 -2.20445 0
M  V30 2724 H 274.507 5.01393 -3.49878 0
M  V30 2725 H 278.681 5.38752 -4.4127 0
M  V30 2726 H 276.308 5.66859 -5.06533 0
M  V30 2727 N 277.883 0.443576 1.51229 0
M  V30 2728 C 279.299 0.0962001 1.5931 0
M  V30 2729 C 279.499 -1.39501 1.45402 0
M  V30 2730 O 278.555 -2.16557 1.29843 0
M  V30 2731 C 279.868 0.621875 2.94199 0
M  V30 2732 C 281.416 0.582865 3.07525 0
M  V30 2733 C 281.891 1.08562 4.44948 0
M  V30 2734 N 283.382 1.04387 4.51284 0
M  V30 2735 C 284.117 1.40368 5.55954 0
M  V30 2736 N 283.613 1.83664 6.68011 0
M  V30 2737 N 285.406 1.32145 5.46346 0
M  V30 2738 H 277.557 1.41376 1.58514 0
M  V30 2739 H 279.82 0.582965 0.747567 0
M  V30 2740 H 279.526 1.66546 3.09767 0
M  V30 2741 H 279.4 0.0502125 3.77167 0
M  V30 2742 H 281.787 -0.451749 2.91622 0
M  V30 2743 H 281.868 1.191 2.26382 0
M  V30 2744 H 281.512 2.11873 4.61598 0
M  V30 2745 H 281.442 0.453956 5.2464 0
M  V30 2746 H 283.933 0.725986 3.70861 0
M  V30 2747 H 284.246 2.0934 7.43906 0
M  V30 2748 H 282.591 1.87596 6.69203 0
M  V30 2749 H 285.782 0.981808 4.57688 0
M  V30 2750 H 285.955 1.60514 6.27805 0
M  V30 2751 N 279.361 -1.56624 0.175154 0
M  V30 2752 C 280.589 -2.01374 -0.474971 0
M  V30 2753 C 281.004 -1.05537 -1.56548 0
M  V30 2754 O 280.361 -0.0568668 -1.82411 0
M  V30 2755 C 280.412 -3.45923 -1.04975 0
M  V30 2756 O 280.133 -4.381 -0.00276605 0
M  V30 2757 C 281.634 -4.06093 -1.77773 0
M  V30 2758 H 278.854 -0.659962 -0.121206 0
M  V30 2759 H 281.398 -2.02601 0.27801 0
M  V30 2760 H 279.553 -3.45458 -1.75321 0
M  V30 2761 H 279.967 -5.22753 -0.427681 0
M  V30 2762 H 281.441 -5.09147 -2.13245 0
M  V30 2763 H 281.918 -3.48405 -2.67414 0
M  V30 2764 H 282.524 -4.10272 -1.12059 0
M  V30 2765 N 280.839 0.0985539 -1.57292 0
M  V30 2766 C 282.069 0.815135 -1.8984 0
M  V30 2767 C 282.477 1.7297 -0.766679 0
M  V30 2768 O 281.82 1.81698 0.270483 0
M  V30 2769 C 281.882 1.6842 -3.17608 0
M  V30 2770 C 281.546 0.94182 -4.4719 0
M  V30 2771 C 282.543 0.273212 -5.19182 0
M  V30 2772 C 280.228 0.916927 -4.9386 0
M  V30 2773 C 282.222 -0.410361 -6.36078 0
M  V30 2774 C 279.909 0.229567 -6.10669 0
M  V30 2775 C 280.907 -0.432902 -6.81627 0
M  V30 2776 O 280.595 -1.10925 -7.9621 0
M  V30 2777 H 280.327 0.238501 -0.632529 0
M  V30 2778 H 282.881 0.0812659 -2.05239 0
M  V30 2779 H 281.111 2.46022 -2.98345 0
M  V30 2780 H 282.8 2.27704 -3.36015 0
M  V30 2781 H 283.566 0.283927 -4.84168 0
M  V30 2782 H 279.445 1.42201 -4.3852 0
M  V30 2783 H 282.989 -0.928013 -6.914 0
M  V30 2784 H 278.886 0.216686 -6.45136 0
M  V30 2785 H 279.654 -1.01579 -8.12172 0
M  V30 2786 N 282.317 1.53212 0.369288 0
M  V30 2787 C 283.28 1.7872 1.43498 0
M  V30 2788 C 284.28 0.657554 1.46741 0
M  V30 2789 O 285.47 0.925736 1.47566 0
M  V30 2790 C 282.602 1.90591 2.82645 0
M  V30 2791 H 283.795 2.73894 1.22156 0
M  V30 2792 H 281.348 1.44233 0.602203 0
M  V30 2793 H 282.083 0.974709 3.09306 0
M  V30 2794 H 281.868 2.72751 2.8169 0
M  V30 2795 H 283.358 2.11931 3.59826 0
M  V30 2796 N 283.795 -0.628877 1.44509 0
M  V30 2797 C 285.023 -1.41554 1.50897 0
M  V30 2798 C 285.438 -1.8832 0.134564 0
M  V30 2799 O 284.795 -1.60969 -0.859965 0
M  V30 2800 C 284.846 -2.63435 2.47556 0
M  V30 2801 O 284.567 -2.18619 3.79654 0
M  V30 2802 C 286.068 -3.56537 2.63431 0
M  V30 2803 H 283.288 -0.434044 0.511709 0
M  V30 2804 H 285.832 -0.768895 1.89495 0
M  V30 2805 H 283.987 -3.24187 2.12089 0
M  V30 2806 H 284.401 -2.97652 4.31861 0
M  V30 2807 H 285.875 -4.38657 3.35088 0
M  V30 2808 H 286.352 -4.05493 1.68738 0
M  V30 2809 H 286.958 -3.01653 2.9981 0
M  V30 2810 N 285.273 -1.31445 -0.869486 0
M  V30 2811 C 286.55 -1.11795 -1.60503 0
M  V30 2812 C 286.93 0.327168 -2.08549 0
M  V30 2813 O 286.278 1.32135 -1.8642 0
M  V30 2814 C 286.488 -2.13258 -2.76265 0
M  V30 2815 C 287.836 -2.45805 -3.46215 0
M  V30 2816 O 288.86 -2.11688 -2.86473 0
M  V30 2817 O 287.719 -3.04228 -4.5399 0
M  V30 2818 H 284.813 -0.430421 -0.706163 0
M  V30 2819 H 287.359 -1.42925 -0.914907 0
M  V30 2820 H 286.131 -3.10461 -2.3818 0
M  V30 2821 H 285.754 -1.83035 -3.52964 0
M  V30 2822 N 286.751 1.08385 -1.14413 0
M  V30 2823 C 287.981 1.8425 -0.934644 0
M  V30 2824 C 288.389 1.81907 0.520234 0
M  V30 2825 O 287.732 1.22126 1.37226 0
M  V30 2826 C 287.794 3.32853 -1.35828 0
M  V30 2827 C 287.458 3.5893 -2.82875 0
M  V30 2828 C 288.455 3.53756 -3.80989 0
M  V30 2829 C 286.14 3.86934 -3.20293 0
M  V30 2830 C 288.134 3.76216 -5.14529 0
M  V30 2831 C 285.821 4.09047 -4.54008 0
M  V30 2832 C 286.819 4.03682 -5.50936 0
M  V30 2833 O 286.507 4.25214 -6.82238 0
M  V30 2834 H 286.239 0.588502 -0.332628 0
M  V30 2835 H 288.793 1.37792 -1.52324 0
M  V30 2836 H 287.023 3.8007 -0.713019 0
M  V30 2837 H 288.712 3.90154 -1.11957 0
M  V30 2838 H 289.478 3.32135 -3.53428 0
M  V30 2839 H 285.357 3.9023 -2.45442 0
M  V30 2840 H 288.901 3.71943 -5.90173 0
M  V30 2841 H 284.798 4.30151 -4.8129 0
M  V30 2842 H 285.566 4.42619 -6.88499 0
M  V30 2843 N 288.23 0.939286 1.26551 0
M  V30 2844 C 289.177 0.446088 2.26448 0
M  V30 2845 C 290.147 -0.493234 1.58608 0
M  V30 2846 O 291.332 -0.409857 1.86346 0
M  V30 2847 C 288.472 -0.284375 3.43926 0
M  V30 2848 C 287.585 0.690399 4.26448 0
M  V30 2849 C 286.72 -0.0610712 5.31165 0
M  V30 2850 C 285.759 0.905649 6.05363 0
M  V30 2851 N 284.896 0.186055 7.01853 0
M  V30 2852 H 289.736 1.30291 2.68008 0
M  V30 2853 H 287.273 0.65371 1.31776 0
M  V30 2854 H 289.231 -0.724313 4.10864 0
M  V30 2855 H 287.861 -1.10535 3.03285 0
M  V30 2856 H 286.913 1.24885 3.59316 0
M  V30 2857 H 288.225 1.42873 4.779 0
M  V30 2858 H 287.379 -0.56038 6.04106 0
M  V30 2859 H 286.118 -0.832297 4.80546 0
M  V30 2860 H 285.123 1.4161 5.3125 0
M  V30 2861 H 286.348 1.67685 6.58072 0
M  V30 2862 H 284.294 -0.566714 6.53548 0
M  V30 2863 H 284.211 0.863752 7.51049 0
M  V30 2864 H 285.479 -0.292221 7.78952 0
M  V30 2865 N 289.708 -1.40897 0.706093 0
M  V30 2866 C 290.954 -2.01352 0.241889 0
M  V30 2867 C 291.287 -1.55832 -1.15888 0
M  V30 2868 O 290.562 -0.774145 -1.7843 0
M  V30 2869 C 290.845 -3.58752 0.311311 0
M  V30 2870 C 290.698 -4.1437 1.74978 0
M  V30 2871 C 292.017 -4.38914 -0.322922 0
M  V30 2872 H 289.136 -0.731562 0.0893687 0
M  V30 2873 H 291.778 -1.67504 0.896802 0
M  V30 2874 H 289.928 -3.87718 -0.246302 0
M  V30 2875 H 291.6 -3.96239 2.36205 0
M  V30 2876 H 289.843 -3.69016 2.28057 0
M  V30 2877 H 290.514 -5.23532 1.74981 0
M  V30 2878 H 292.99 -4.15822 0.152089 0
M  V30 2879 H 291.866 -5.48358 -0.243855 0
M  V30 2880 H 292.127 -4.19176 -1.40513 0
M  V30 2881 N 291.186 -0.45159 -1.50991 0
M  V30 2882 C 292.432 0.110237 -2.025 0
M  V30 2883 C 292.765 1.41109 -1.33424 0
M  V30 2884 O 292.04 1.89135 -0.453659 0
M  V30 2885 C 292.323 0.314271 -3.58726 0
M  V30 2886 C 292.176 -1.00623 -4.38401 0
M  V30 2887 C 293.495 1.07767 -4.26702 0
M  V30 2888 H 290.614 0.0385897 -0.735989 0
M  V30 2889 H 293.256 -0.593374 -1.80497 0
M  V30 2890 H 291.406 0.913601 -3.77605 0
M  V30 2891 H 293.078 -1.64064 -4.31139 0
M  V30 2892 H 291.321 -1.6075 -4.02917 0
M  V30 2893 H 291.992 -0.817341 -5.45915 0
M  V30 2894 H 294.468 0.56986 -4.12179 0
M  V30 2895 H 293.344 1.18921 -5.35863 0
M  V30 2896 H 293.605 2.10939 -3.88532 0
M  V30 2897 N 292.664 1.56529 -0.183458 0
M  V30 2898 C 293.892 2.01623 0.464285 0
M  V30 2899 C 294.307 1.06366 1.55986 0
M  V30 2900 O 293.664 0.0665398 1.82379 0
M  V30 2901 C 293.715 3.46475 1.03139 0
M  V30 2902 O 293.436 4.38095 -0.0204675 0
M  V30 2903 C 294.937 4.0703 1.75617 0
M  V30 2904 H 292.157 0.660596 0.117704 0
M  V30 2905 H 294.701 2.02451 -0.288751 0
M  V30 2906 H 292.856 3.46383 1.73486 0
M  V30 2907 H 293.27 5.22973 0.399952 0
M  V30 2908 H 294.744 5.10271 2.10542 0
M  V30 2909 H 295.221 3.49819 2.65563 0
M  V30 2910 H 295.827 4.1086 1.09882 0
M  V30 2911 N 294.142 -0.090211 1.57342 0
M  V30 2912 C 295.074 -1.13541 1.99101 0
M  V30 2913 C 296.087 -1.3604 0.894258 0
M  V30 2914 O 297.276 -1.34606 1.17233 0
M  V30 2915 C 294.376 -2.49001 2.29895 0
M  V30 2916 C 293.549 -2.46712 3.61182 0
M  V30 2917 C 292.608 -3.64136 3.79857 0
M  V30 2918 O 291.634 -3.46405 4.51655 0
M  V30 2919 N 292.836 -4.83802 3.20806 0
M  V30 2920 H 295.601 -0.779942 2.89373 0
M  V30 2921 H 293.162 -0.279125 1.59476 0
M  V30 2922 H 295.154 -3.26166 2.39578 0
M  V30 2923 H 293.724 -2.76619 1.45605 0
M  V30 2924 H 292.944 -1.55058 3.62423 0
M  V30 2925 H 294.232 -2.42265 4.4742 0
M  V30 2926 H 293.63 -5.01112 2.62494 0
M  V30 2927 H 292.187 -5.58543 3.35966 0
M  V30 2928 N 295.62 -1.53406 -0.361157 0
M  V30 2929 C 296.568 -1.80832 -1.46296 0
M  V30 2930 C 297.562 -0.677699 -1.55253 0
M  V30 2931 O 298.768 -0.860723 -1.58087 0
M  V30 2932 H 295.143 -0.572627 -0.487445 0
M  V30 2933 H 297.114 -2.73045 -1.20371 0
M  V30 2934 C 295.863 -2.01907 -2.8307 0
M  V30 2935 H 295.186 -2.88349 -2.76938 0
M  V30 2936 H 296.626 -2.25072 -3.59331 0
M  V30 2937 C 295.085 -0.799449 -3.27277 0
M  V30 2938 O 295.615 0.00971761 -4.01699 0
M  V30 2939 N 293.821 -0.621637 -2.83873 0
M  V30 2940 H 293.368 -1.28126 -2.23476 0
M  V30 2941 H 293.326 0.19298 -3.13807 0
M  V30 2942 N 297.098 0.621204 -1.44841 0
M  V30 2943 C 298.323 1.41244 -1.51871 0
M  V30 2944 C 298.748 1.87519 -0.147764 0
M  V30 2945 O 298.106 1.59334 0.865 0
M  V30 2946 C 298.154 2.60221 -2.49634 0
M  V30 2947 O 297.258 3.60395 -2.00473 0
M  V30 2948 H 296.599 0.42223 -0.512463 0
M  V30 2949 H 299.129 0.757305 -1.90069 0
M  V30 2950 H 299.139 3.0764 -2.67996 0
M  V30 2951 H 297.814 2.25887 -3.4921 0
M  V30 2952 H 296.391 3.19717 -1.91925 0
M  V30 2953 N 298.576 1.31904 0.862503 0
M  V30 2954 C 299.801 1.25135 1.65397 0
M  V30 2955 C 300.226 -0.179 1.87246 0
M  V30 2956 O 299.584 -1.1277 1.4196 0
M  V30 2957 C 299.632 2.00832 2.99498 0
M  V30 2958 O 298.736 1.35075 3.89652 0
M  V30 2959 H 298.077 0.431655 0.504549 0
M  V30 2960 H 300.607 1.74094 1.07483 0
M  V30 2961 H 300.617 2.10709 3.49379 0
M  V30 2962 H 299.292 3.04847 2.82916 0
M  V30 2963 H 297.869 1.33696 3.48109 0
M  V30 2964 N 300.054 -1.07777 1.14986 0
M  V30 2965 C 301.279 -1.84558 0.946213 0
M  V30 2966 C 301.704 -1.81323 -0.500362 0
M  V30 2967 O 301.062 -1.20301 -1.35637 0
M  V30 2968 C 301.11 -3.29736 1.45968 0
M  V30 2969 O 300.214 -4.07149 0.65601 0
M  V30 2970 H 299.555 -0.571641 0.33782 0
M  V30 2971 H 302.085 -1.35991 1.52865 0
M  V30 2972 H 302.095 -3.80574 1.47063 0
M  V30 2973 H 300.77 -3.31406 2.51283 0
M  V30 2974 H 299.347 -3.65994 0.714322 0
M  V30 2975 N 301.532 -0.945985 -1.26051 0
M  V30 2976 C 302.78 -0.594941 -1.93145 0
M  V30 2977 C 303.101 0.86953 -1.7454 0
M  V30 2978 O 302.371 1.61838 -1.10387 0
M  V30 2979 H 300.951 -0.217044 -0.714773 0
M  V30 2980 H 303.613 -1.20235 -1.53393 0
M  V30 2981 H 302.709 -0.816835 -3.01221 0
M  V30 2982 N 303.011 1.40521 -0.713556 0
M  V30 2983 C 303.959 2.32549 -0.0485227 0
M  V30 2984 C 304.953 1.51931 0.74922 0
M  V30 2985 O 306.159 1.67745 0.652816 0
M  V30 2986 H 302.534 0.751994 0.00311138 0
M  V30 2987 H 304.505 2.86291 -0.841443 0
M  V30 2988 C 303.254 3.36879 0.860687 0
M  V30 2989 H 302.577 3.98978 0.256246 0
M  V30 2990 H 304.017 4.03772 1.294 0
M  V30 2991 C 302.476 2.72197 1.9852 0
M  V30 2992 O 303.006 2.5837 3.07584 0
M  V30 2993 N 301.212 2.30612 1.76823 0
M  V30 2994 H 300.759 2.42059 0.881217 0
M  V30 2995 H 300.717 1.87672 2.52243 0
M  V30 2996 N 304.489 0.459591 1.5075 0
M  V30 2997 C 305.735 -0.0994966 2.02556 0
M  V30 2998 C 306.068 -1.40399 1.3417 0
M  V30 2999 O 305.343 -1.88892 0.463683 0
M  V30 3000 C 305.626 -0.295242 3.58888 0
M  V30 3001 C 305.479 1.02947 4.37861 0
M  V30 3002 C 306.798 -1.05502 4.27267 0
M  V30 3003 H 303.917 -0.034686 0.736183 0
M  V30 3004 H 306.559 0.602938 1.8018 0
M  V30 3005 H 304.709 -0.893563 3.78084 0
M  V30 3006 H 306.381 1.66348 4.30263 0
M  V30 3007 H 304.624 1.62885 4.02058 0
M  V30 3008 H 305.295 0.846281 5.45474 0
M  V30 3009 H 307.771 -0.547993 4.12476 0
M  V30 3010 H 306.647 -1.16077 5.36486 0
M  V30 3011 H 306.908 -2.08875 3.89645 0
M  V30 3012 N 305.967 -1.56429 0.191757 0
M  V30 3013 C 307.195 -2.01867 -0.453586 0
M  V30 3014 C 307.61 -1.07191 -1.5542 0
M  V30 3015 O 306.967 -0.0762108 -1.82341 0
M  V30 3016 C 307.018 -3.47017 -1.013 0
M  V30 3017 O 306.739 -4.38078 0.0437005 0
M  V30 3018 C 308.24 -4.07956 -1.73456 0
M  V30 3019 H 305.46 -0.661211 -0.114199 0
M  V30 3020 H 308.004 -2.02295 0.299483 0
M  V30 3021 H 306.159 -3.47298 -1.71647 0
M  V30 3022 H 306.573 -5.23178 -0.372212 0
M  V30 3023 H 308.047 -5.1138 -2.07833 0
M  V30 3024 H 308.524 -3.51222 -2.63704 0
M  V30 3025 H 309.13 -4.11437 -1.07702 0
M  V30 3026 N 307.445 0.0818655 -1.57387 0
M  V30 3027 C 308.395 1.10501 -1.99433 0
M  V30 3028 C 309.379 1.35041 -0.874798 0
M  V30 3029 O 310.571 1.35511 -1.13868 0
M  V30 3030 C 307.7 2.42159 -2.43339 0
M  V30 3031 C 306.786 2.20937 -3.62005 0
M  V30 3032 N 307.177 1.69616 -4.76512 0
M  V30 3033 C 305.475 2.51451 -3.68359 0
M  V30 3034 C 306.176 1.62973 -5.58404 0
M  V30 3035 N 305.152 2.08664 -5.01956 0
M  V30 3036 H 308.954 0.701373 -2.85408 0
M  V30 3037 H 306.468 0.289096 -1.59806 0
M  V30 3038 H 308.465 3.16208 -2.71695 0
M  V30 3039 H 307.125 2.83249 -1.58746 0
M  V30 3040 H 308.136 1.38624 -4.99003 0
M  V30 3041 H 304.813 2.95975 -2.94457 0
M  V30 3042 H 306.203 1.24233 -6.60315 0
M  V30 3043 N 308.923 1.53595 0.353017 0
M  V30 3044 C 309.833 1.83897 1.45667 0
M  V30 3045 C 310.849 0.728334 1.58023 0
M  V30 3046 O 312.025 1.01968 1.73679 0
M  V30 3047 C 309.09 2.03383 2.80778 0
M  V30 3048 C 308.151 3.27262 2.77845 0
M  V30 3049 C 307.384 3.45809 4.06512 0
M  V30 3050 O 307.607 2.68387 5.03314 0
M  V30 3051 O 306.541 4.39207 4.11559 0
M  V30 3052 H 310.367 2.77686 1.2298 0
M  V30 3053 H 307.952 1.39132 0.544308 0
M  V30 3054 H 309.834 2.17698 3.60812 0
M  V30 3055 H 308.509 1.12783 3.03417 0
M  V30 3056 H 307.416 3.18359 1.96465 0
M  V30 3057 H 308.749 4.17824 2.60161 0
M  V30 3058 N 310.401 -0.613514 1.45168 0
M  V30 3059 C 311.348 -1.72456 1.53387 0
M  V30 3060 C 312.318 -1.6169 0.380191 0
M  V30 3061 O 313.503 -1.81356 0.592836 0
M  V30 3062 C 310.643 -3.10753 1.50088 0
M  V30 3063 C 309.756 -3.32368 2.75963 0
M  V30 3064 C 308.891 -4.60737 2.64376 0
M  V30 3065 C 307.93 -4.7559 3.85332 0
M  V30 3066 N 307.067 -5.95253 3.72315 0
M  V30 3067 H 311.907 -1.64768 2.48305 0
M  V30 3068 H 309.444 -0.803503 1.23216 0
M  V30 3069 H 311.402 -3.90758 1.46164 0
M  V30 3070 H 310.032 -3.17413 0.587243 0
M  V30 3071 H 309.084 -2.4618 2.89999 0
M  V30 3072 H 310.396 -3.39218 3.65695 0
M  V30 3073 H 309.55 -5.48928 2.58385 0
M  V30 3074 H 308.289 -4.56275 1.72233 0
M  V30 3075 H 307.294 -3.85824 3.91688 0
M  V30 3076 H 308.519 -4.81854 4.78533 0
M  V30 3077 H 306.465 -5.91847 2.82937 0
M  V30 3078 H 306.382 -6.03236 4.55677 0
M  V30 3079 H 307.65 -6.85958 3.70246 0
M  V30 3080 N 311.879 -1.3236 -0.855495 0
M  V30 3081 C 313.128 -1.22226 -1.60448 0
M  V30 3082 C 313.441 0.214733 -1.94418 0
M  V30 3083 O 314.647 0.437917 -2.67945 0
M  V30 3084 C 313.103 -2.14063 -2.89318 0
M  V30 3085 C 312.711 -3.62839 -2.62777 0
M  V30 3086 C 314.455 -2.12764 -3.67331 0
M  V30 3087 C 312.362 -4.4664 -3.87643 0
M  V30 3088 H 311.292 -0.453904 -0.602069 0
M  V30 3089 H 313.943 -1.57314 -0.944698 0
M  V30 3090 H 312.325 -1.71889 -3.5675 0
M  V30 3091 H 313.499 -4.1335 -2.03662 0
M  V30 3092 H 311.814 -3.66261 -1.98096 0
M  V30 3093 H 314.411 -2.72611 -4.59987 0
M  V30 3094 H 314.754 -1.11841 -4.00995 0
M  V30 3095 H 315.287 -2.53214 -3.06802 0
M  V30 3096 H 312.026 -5.48373 -3.5912 0
M  V30 3097 H 311.546 -4.0088 -4.46156 0
M  V30 3098 H 313.225 -4.59597 -4.55389 0
M  V30 3099 N 313.357 1.07166 -1.15556 0
M  V30 3100 C 314.768 1.6127 -0.940693 0
M  V30 3101 C 315.119 1.89251 0.517551 0
M  V30 3102 O 314.244 1.65937 1.38903 0
M  V30 3103 C 314.839 2.92993 -1.7012 0
M  V30 3104 C 313.398 3.43832 -1.53156 0
M  V30 3105 C 312.545 2.1786 -1.71558 0
M  V30 3106 H 315.496 0.90229 -1.30554 0
M  V30 3107 H 315.517 3.62007 -1.17181 0
M  V30 3108 H 315.029 2.72596 -2.76248 0
M  V30 3109 H 313.13 3.69307 -0.494294 0
M  V30 3110 H 313.243 4.19747 -2.30975 0
M  V30 3111 H 311.607 2.2765 -1.14225 0
M  V30 3112 H 312.39 1.99956 -2.79056 0
M  V30 3113 N 314.835 0.952656 1.25548 0
M  V30 3114 C 316.084 0.602053 1.92505 0
M  V30 3115 C 316.397 -0.864663 1.75451 0
M  V30 3116 O 317.603 -1.32514 2.36965 0
M  V30 3117 C 316.059 1.02607 3.44963 0
M  V30 3118 C 315.667 2.51519 3.70732 0
M  V30 3119 C 317.411 0.747905 4.1786 0
M  V30 3120 C 315.318 2.87732 5.16686 0
M  V30 3121 H 314.248 0.22146 0.720744 0
M  V30 3122 H 316.899 1.15684 1.42441 0
M  V30 3123 H 315.281 0.399712 3.93978 0
M  V30 3124 H 316.455 3.19157 3.32378 0
M  V30 3125 H 314.77 2.76786 3.11092 0
M  V30 3126 H 317.367 0.994647 5.25367 0
M  V30 3127 H 317.71 -0.315629 4.15102 0
M  V30 3128 H 318.243 1.33452 3.74747 0
M  V30 3129 H 314.982 3.93095 5.24554 0
M  V30 3130 H 314.502 2.24765 5.56094 0
M  V30 3131 H 316.181 2.76817 5.84792 0
M  V30 3132 N 316.313 -1.40141 0.720998 0
M  V30 3133 C 317.561 -2.0039 0.262323 0
M  V30 3134 C 317.882 -1.57469 -1.15015 0
M  V30 3135 O 317.152 -0.816582 -1.78069 0
M  V30 3136 H 315.732 -0.741063 0.093996 0
M  V30 3137 H 318.394 -1.71398 0.927835 0
M  V30 3138 H 317.49 -3.10658 0.299671 0
M  V30 3139 N 317.792 -0.46758 -1.50504 0
M  V30 3140 C 319.02 0.0864133 -2.06719 0
M  V30 3141 C 319.435 1.33819 -1.33184 0
M  V30 3142 O 318.792 1.78061 -0.400083 0
M  V30 3143 C 318.843 0.378079 -3.59517 0
M  V30 3144 O 318.564 -0.824044 -4.3028 0
M  V30 3145 C 320.065 0.979426 -4.32345 0
M  V30 3146 H 317.285 -0.00551697 -0.670977 0
M  V30 3147 H 319.829 -0.655354 -1.93715 0
M  V30 3148 H 317.984 1.06977 -3.72337 0
M  V30 3149 H 318.398 -0.566518 -5.21432 0
M  V30 3150 H 319.872 1.1333 -5.40241 0
M  V30 3151 H 320.349 1.9686 -3.9261 0
M  V30 3152 H 320.955 0.326216 -4.24047 0
M  V30 3153 N 319.27 1.56325 -0.20005 0
M  V30 3154 C 320.18 2.22931 0.730668 0
M  V30 3155 C 321.196 1.22997 1.23076 0
M  V30 3156 O 322.372 1.55748 1.27689 0
M  V30 3157 C 319.437 2.87948 1.93098 0
M  V30 3158 C 318.498 4.03166 1.47497 0
M  V30 3159 C 317.731 4.65073 2.61807 0
M  V30 3160 O 317.954 4.25913 3.79413 0
M  V30 3161 O 316.888 5.54452 2.34237 0
M  V30 3162 H 320.714 3.03084 0.193391 0
M  V30 3163 H 318.299 1.49371 0.0294621 0
M  V30 3164 H 320.181 3.29063 2.6324 0
M  V30 3165 H 318.856 2.10771 2.45677 0
M  V30 3166 H 317.763 3.66664 0.742201 0
M  V30 3167 H 319.096 4.82022 0.995796 0
M  V30 3168 N 320.748 -0.0735177 1.57428 0
M  V30 3169 C 321.997 -0.771809 1.86349 0
M  V30 3170 C 322.31 -1.78828 0.792452 0
M  V30 3171 O 323.516 -2.53602 0.96945 0
M  V30 3172 C 321.972 -1.42358 3.30548 0
M  V30 3173 C 321.58 -0.445761 4.45777 0
M  V30 3174 C 323.324 -2.10434 3.6867 0
M  V30 3175 C 321.231 -1.10335 5.81016 0
M  V30 3176 H 320.161 -0.291999 0.695164 0
M  V30 3177 H 322.812 -0.0250749 1.83483 0
M  V30 3178 H 321.194 -2.21852 3.28021 0
M  V30 3179 H 322.368 0.319239 4.59693 0
M  V30 3180 H 320.683 0.130457 4.16196 0
M  V30 3181 H 323.28 -2.60405 4.67004 0
M  V30 3182 H 323.623 -2.90298 2.98383 0
M  V30 3183 H 324.156 -1.37773 3.7318 0
M  V30 3184 H 320.895 -0.345061 6.54591 0
M  V30 3185 H 320.415 -1.83925 5.70904 0
M  V30 3186 H 322.094 -1.62367 6.26295 0
M  V30 3187 N 322.226 -1.5378 -0.344866 0
M  V30 3188 C 323.136 -1.84667 -1.4469 0
M  V30 3189 C 324.152 -0.736704 -1.57635 0
M  V30 3190 O 325.328 -1.02888 -1.73136 0
M  V30 3191 C 322.393 -2.04869 -2.79696 0
M  V30 3192 C 321.454 -3.28731 -2.76106 0
M  V30 3193 C 320.687 -3.4796 -4.04673 0
M  V30 3194 O 320.91 -2.71052 -5.01883 0
M  V30 3195 O 319.844 -4.41383 -4.09224 0
M  V30 3196 H 323.67 -2.78334 -1.21506 0
M  V30 3197 H 321.255 -1.39418 -0.536921 0
M  V30 3198 H 323.137 -2.19609 -3.59652 0
M  V30 3199 H 321.812 -1.14391 -3.02814 0
M  V30 3200 H 320.719 -3.19396 -1.94774 0
M  V30 3201 H 322.052 -4.19198 -2.57941 0
M  V30 3202 N 323.704 0.605807 -1.45491 0
M  V30 3203 C 324.952 1.36207 -1.49305 0
M  V30 3204 C 325.273 1.94519 -0.136863 0
M  V30 3205 O 324.543 1.77261 0.833983 0
M  V30 3206 H 323.123 0.50565 -0.549843 0
M  V30 3207 H 325.785 0.711239 -1.81459 0
M  V30 3208 H 324.881 2.18058 -2.23287 0
M  V30 3209 N 325.182 1.32811 0.848464 0
M  V30 3210 C 326.115 1.16601 1.96162 0
M  V30 3211 C 327.093 0.0638855 1.62474 0
M  V30 3212 O 328.277 0.224348 1.8716 0
M  V30 3213 C 325.404 0.786333 3.29446 0
M  V30 3214 C 324.45 1.89459 3.8211 0
M  V30 3215 S 325.283 3.50395 4.04949 0
M  V30 3216 C 326.439 3.14413 5.41198 0
M  V30 3217 H 326.672 2.10832 2.09612 0
M  V30 3218 H 324.205 1.17543 1.00115 0
M  V30 3219 H 326.163 0.574044 4.06466 0
M  V30 3220 H 324.824 -0.137218 3.138 0
M  V30 3221 H 324.017 1.58207 4.78526 0
M  V30 3222 H 323.619 2.06304 3.11953 0
M  V30 3223 H 325.911 2.64642 6.23675 0
M  V30 3224 H 326.854 4.09874 5.77416 0
M  V30 3225 H 327.262 2.51266 5.05495 0
M  V30 3226 N 326.66 -1.06551 1.16123 0
M  V30 3227 C 327.608 -2.16063 0.861371 0
M  V30 3228 C 328.602 -1.6856 -0.168517 0
M  V30 3229 O 329.808 -1.79986 -0.0227579 0
M  V30 3230 H 326.183 -0.705278 0.260934 0
M  V30 3231 H 328.154 -2.38567 1.79244 0
M  V30 3232 C 326.903 -3.45661 0.376018 0
M  V30 3233 H 326.226 -3.82604 1.15992 0
M  V30 3234 H 327.666 -4.23504 0.204951 0
M  V30 3235 C 326.125 -3.24546 -0.903954 0
M  V30 3236 O 326.655 -3.49865 -1.97377 0
M  V30 3237 N 324.861 -2.77992 -0.846679 0
M  V30 3238 H 324.408 -2.57589 0.0241017 0
M  V30 3239 H 324.366 -2.64244 -1.70359 0
M  V30 3240 N 328.138 -0.959301 -1.25041 0
M  V30 3241 C 329.387 -0.612254 -1.92183 0
M  V30 3242 C 329.7 0.855347 -1.75907 0
M  V30 3243 O 330.906 1.31256 -2.37664 0
M  V30 3244 C 329.362 -1.04435 -3.44414 0
M  V30 3245 C 328.97 -2.53482 -3.69393 0
M  V30 3246 C 330.714 -0.770055 -4.17457 0
M  V30 3247 C 328.621 -2.90468 -5.15153 0
M  V30 3248 H 327.551 -0.225279 -0.719559 0
M  V30 3249 H 330.202 -1.16438 -1.41825 0
M  V30 3250 H 328.584 -0.4206 -3.9376 0
M  V30 3251 H 329.758 -3.20916 -3.30681 0
M  V30 3252 H 328.073 -2.78432 -3.0962 0
M  V30 3253 H 330.67 -1.02249 -5.24832 0
M  V30 3254 H 331.013 0.293611 -4.15263 0
M  V30 3255 H 331.546 -1.35437 -3.74034 0
M  V30 3256 H 328.285 -3.95871 -5.22462 0
M  V30 3257 H 327.805 -2.27711 -5.54894 0
M  V30 3258 H 329.484 -2.79914 -5.83315 0
M  V30 3259 N 329.616 1.39756 -0.72842 0
M  V30 3260 C 330.546 2.33289 -0.0991354 0
M  V30 3261 C 331.527 1.53568 0.731489 0
M  V30 3262 O 332.712 1.81987 0.677807 0
M  V30 3263 C 329.842 3.3763 0.813834 0
M  V30 3264 C 328.796 4.2791 0.0878663 0
M  V30 3265 C 328.122 5.22894 1.11741 0
M  V30 3266 C 329.422 5.11314 -1.06563 0
M  V30 3267 H 331.116 2.86163 -0.880408 0
M  V30 3268 H 328.662 1.37591 -0.424819 0
M  V30 3269 H 330.615 4.0201 1.26355 0
M  V30 3270 H 329.339 2.83181 1.62715 0
M  V30 3271 H 327.998 3.65 -0.342159 0
M  V30 3272 H 327.646 4.64744 1.92412 0
M  V30 3273 H 327.346 5.84143 0.636477 0
M  V30 3274 H 328.87 5.90151 1.56697 0
M  V30 3275 H 330.284 5.69076 -0.694671 0
M  V30 3276 H 328.681 5.81671 -1.47577 0
M  V30 3277 H 329.751 4.46534 -1.89038 0
M  V30 3278 N 331.094 0.475555 1.50254 0
M  V30 3279 C 332.342 -0.077738 2.0195 0
M  V30 3280 C 332.663 -1.39813 1.35931 0
M  V30 3281 O 331.933 -1.89249 0.506123 0
M  V30 3282 H 330.513 -0.031719 0.746326 0
M  V30 3283 H 333.175 0.626995 1.84539 0
M  V30 3284 H 332.271 -0.225995 3.11281 0
M  V30 3285 N 332.573 -1.56217 0.208337 0
M  V30 3286 C 333.503 -2.22694 -0.702116 0
M  V30 3287 C 334.484 -1.19432 -1.2112 0
M  V30 3288 O 335.669 -1.47978 -1.25762 0
M  V30 3289 C 332.799 -2.8966 -1.9161 0
M  V30 3290 C 331.753 -3.9928 -1.5414 0
M  V30 3291 C 331.079 -4.53476 -2.83308 0
M  V30 3292 C 332.379 -5.17012 -0.741339 0
M  V30 3293 H 334.073 -2.99034 -0.147898 0
M  V30 3294 H 331.619 -1.43831 -0.0696951 0
M  V30 3295 H 333.572 -3.34852 -2.55836 0
M  V30 3296 H 332.296 -2.10746 -2.49507 0
M  V30 3297 H 330.955 -3.54799 -0.922668 0
M  V30 3298 H 330.603 -3.71308 -3.39322 0
M  V30 3299 H 330.303 -5.27451 -2.58976 0
M  V30 3300 H 331.827 -5.01378 -3.485 0
M  V30 3301 H 333.241 -5.58667 -1.28699 0
M  V30 3302 H 331.638 -5.97137 -0.595627 0
M  V30 3303 H 332.708 -4.8423 0.254851 0
M  V30 3304 N 334.051 0.0651679 -1.57465 0
M  V30 3305 C 335.297 0.764193 -1.87851 0
M  V30 3306 C 335.63 1.76889 -0.801495 0
M  V30 3307 O 334.905 1.93594 0.187528 0
M  V30 3308 C 335.188 1.46625 -3.28897 0
M  V30 3309 C 335.041 0.477515 -4.47258 0
M  V30 3310 C 336.36 2.4095 -3.68281 0
M  V30 3311 H 333.479 0.276351 -0.683227 0
M  V30 3312 H 336.121 0.0272868 -1.8998 0
M  V30 3313 H 334.271 2.09438 -3.27212 0
M  V30 3314 H 335.943 -0.145922 -4.61069 0
M  V30 3315 H 334.186 -0.206576 -4.33308 0
M  V30 3316 H 334.857 1.0065 -5.42746 0
M  V30 3317 H 337.333 1.88209 -3.71102 0
M  V30 3318 H 336.209 2.87072 -4.67847 0
M  V30 3319 H 336.47 3.26049 -2.98571 0
M  V30 3320 N 335.529 1.53961 0.336706 0
M  V30 3321 C 336.459 1.85417 1.41925 0
M  V30 3322 C 337.44 0.709856 1.5458 0
M  V30 3323 O 338.625 0.962396 1.68676 0
M  V30 3324 C 335.755 2.06985 2.78881 0
M  V30 3325 C 334.709 3.22813 2.81026 0
M  V30 3326 C 334.035 3.29727 4.20932 0
M  V30 3327 C 335.335 4.60767 2.45949 0
M  V30 3328 H 337.029 2.76079 1.15848 0
M  V30 3329 H 334.575 1.32839 0.555859 0
M  V30 3330 H 336.528 2.27575 3.54665 0
M  V30 3331 H 335.252 1.13061 3.06406 0
M  V30 3332 H 333.911 3.0209 2.07695 0
M  V30 3333 H 333.559 2.33385 4.45579 0
M  V30 3334 H 333.259 4.07566 4.23277 0
M  V30 3335 H 334.783 3.52536 4.98549 0
M  V30 3336 H 336.197 4.81325 3.11446 0
M  V30 3337 H 334.594 5.4106 2.59566 0
M  V30 3338 H 335.664 4.6391 1.41122 0
M  V30 3339 N 337.007 -0.598083 1.45811 0
M  V30 3340 C 338.254 -1.35681 1.50323 0
M  V30 3341 C 338.582 -1.9393 0.148739 0
M  V30 3342 O 337.837 -1.76094 -0.853787 0
M  V30 3343 C 338.136 -2.51669 2.53766 0
M  V30 3344 C 337.802 -2.11508 3.98215 0
M  V30 3345 C 336.464 -2.0027 4.37545 0
M  V30 3346 C 338.816 -1.80308 4.89018 0
M  V30 3347 C 336.144 -1.56067 5.65562 0
M  V30 3348 C 338.496 -1.37589 6.17456 0
M  V30 3349 C 337.16 -1.24916 6.55708 0
M  V30 3350 H 336.43 -0.496492 0.550069 0
M  V30 3351 H 339.077 -0.675052 1.79207 0
M  V30 3352 H 337.382 -3.25225 2.18486 0
M  V30 3353 H 339.079 -3.09895 2.54492 0
M  V30 3354 H 335.669 -2.21185 3.67117 0
M  V30 3355 H 339.853 -1.87884 4.59362 0
M  V30 3356 H 335.109 -1.44886 5.93985 0
M  V30 3357 H 339.283 -1.12495 6.87254 0
M  V30 3358 H 336.91 -0.904386 7.54801 0
M  V30 3359 N 338.485 -1.33259 -0.841409 0
M  V30 3360 C 339.448 -1.23221 -1.9326 0
M  V30 3361 C 340.448 -0.151895 -1.60081 0
M  V30 3362 O 341.638 -0.403246 -1.69468 0
M  V30 3363 C 338.77 -0.898123 -3.28856 0
M  V30 3364 H 339.963 -2.2021 -2.03587 0
M  V30 3365 H 337.516 -1.17281 -1.03319 0
M  V30 3366 H 338.251 0.0693841 -3.24226 0
M  V30 3367 H 338.036 -1.67934 -3.54317 0
M  V30 3368 H 339.526 -0.852563 -4.08805 0
M  V30 3369 N 339.963 1.05934 -1.16686 0
M  V30 3370 C 340.893 2.1546 -0.899949 0
M  V30 3371 C 341.874 1.69391 0.155154 0
M  V30 3372 O 343.059 1.94199 0.00648693 0
M  V30 3373 C 340.189 3.44939 -0.404241 0
M  V30 3374 C 339.143 4.04536 -1.39767 0
M  V30 3375 C 338.469 5.29268 -0.760216 0
M  V30 3376 C 339.769 4.42893 -2.76845 0
M  V30 3377 H 341.463 2.38046 -1.81588 0
M  V30 3378 H 339.009 1.14404 -0.874514 0
M  V30 3379 H 340.962 4.20901 -0.204971 0
M  V30 3380 H 339.686 3.21983 0.547206 0
M  V30 3381 H 338.345 3.30635 -1.58355 0
M  V30 3382 H 337.993 5.02611 0.197831 0
M  V30 3383 H 337.693 5.70101 -1.42332 0
M  V30 3384 H 339.217 6.07924 -0.57105 0
M  V30 3385 H 340.631 5.09921 -2.62019 0
M  V30 3386 H 339.028 4.94721 -3.39663 0
M  V30 3387 H 340.098 3.53584 -3.31823 0
M  V30 3388 N 341.441 0.965919 1.2453 0
M  V30 3389 C 342.687 0.62776 1.92839 0
M  V30 3390 C 343.02 -0.834694 1.75347 0
M  V30 3391 O 342.295 -1.60031 1.10546 0
M  V30 3392 C 342.578 1.00109 3.45905 0
M  V30 3393 C 342.431 2.52011 3.72573 0
M  V30 3394 C 343.75 0.53435 4.36844 0
M  V30 3395 H 340.869 0.229537 0.700344 0
M  V30 3396 H 343.511 1.2046 1.46933 0
M  V30 3397 H 341.661 0.510238 3.85135 0
M  V30 3398 H 343.333 3.08559 3.42912 0
M  V30 3399 H 341.576 2.95287 3.17786 0
M  V30 3400 H 342.247 2.73183 4.79661 0
M  V30 3401 H 344.723 0.955565 4.04979 0
M  V30 3402 H 343.599 0.824152 5.42678 0
M  V30 3403 H 343.86 -0.565589 4.38467 0
M  V30 3404 N 342.919 -1.39368 0.735821 0
M  V30 3405 C 343.849 -2.33234 0.111506 0
M  V30 3406 C 344.83 -1.53954 -0.723334 0
M  V30 3407 O 346.015 -1.82344 -0.668147 0
M  V30 3408 C 343.145 -3.38057 -0.795917 0
M  V30 3409 C 342.099 -4.2795 -0.065172 0
M  V30 3410 C 341.425 -5.23479 -1.08967 0
M  V30 3411 C 342.725 -5.10741 1.09273 0
M  V30 3412 H 344.419 -2.85692 0.895571 0
M  V30 3413 H 341.965 -1.37364 0.432109 0
M  V30 3414 H 343.918 -4.02675 -1.24221 0
M  V30 3415 H 342.642 -2.8404 -1.61211 0
M  V30 3416 H 341.301 -3.64813 0.361511 0
M  V30 3417 H 340.949 -4.65758 -1.89944 0
M  V30 3418 H 340.649 -5.84472 -0.605489 0
M  V30 3419 H 342.173 -5.90974 -1.53565 0
M  V30 3420 H 343.587 -5.68699 0.724841 0
M  V30 3421 H 341.984 -5.8088 1.50659 0
M  V30 3422 H 343.054 -4.45525 1.91404 0
M  V30 3423 N 344.397 -0.483516 -1.5 0
M  V30 3424 C 345.645 0.067027 -2.01989 0
M  V30 3425 C 345.966 1.3909 -1.36671 0
M  V30 3426 O 345.236 1.88978 -0.516152 0
M  V30 3427 H 343.816 0.0277606 -0.746484 0
M  V30 3428 H 346.478 -0.636773 -1.84204 0
M  V30 3429 H 345.574 0.209484 -3.11396 0
M  V30 3430 N 345.875 1.56104 -0.216619 0
M  V30 3431 C 347.121 1.98466 0.417033 0
M  V30 3432 C 347.454 1.10403 1.59765 0
M  V30 3433 O 346.729 0.160632 1.93836 0
M  V30 3434 C 347.012 3.49769 0.85637 0
M  V30 3435 C 346.865 4.48606 -0.327546 0
M  V30 3436 C 348.184 4.05339 1.7143 0
M  V30 3437 H 345.303 0.721551 0.150112 0
M  V30 3438 H 347.945 1.87423 -0.311864 0
M  V30 3439 H 346.095 3.5931 1.47745 0
M  V30 3440 H 347.767 4.5108 -0.965618 0
M  V30 3441 H 346.01 4.22682 -0.975805 0
M  V30 3442 H 346.681 5.51995 0.0227149 0
M  V30 3443 H 349.157 3.98712 1.19031 0
M  V30 3444 H 348.033 5.11533 1.99061 0
M  V30 3445 H 348.294 3.51918 2.67593 0
M  V30 3446 N 347.353 -0.0568162 1.57498 0
M  V30 3447 C 348.316 -1.05038 2.03715 0
M  V30 3448 C 349.316 -1.30709 0.936577 0
M  V30 3449 O 350.506 -1.26178 1.20103 0
M  V30 3450 C 347.638 -2.39034 2.43055 0
M  V30 3451 H 348.831 -0.651715 2.92733 0
M  V30 3452 H 346.384 -0.302947 1.53336 0
M  V30 3453 H 347.119 -2.83703 1.57108 0
M  V30 3454 H 346.904 -2.21739 3.2338 0
M  V30 3455 H 348.394 -3.10421 2.79336 0
M  V30 3456 N 348.832 -1.54138 -0.328536 0
M  V30 3457 C 349.762 -1.86167 -1.40939 0
M  V30 3458 C 350.743 -0.718044 -1.54202 0
M  V30 3459 O 351.928 -0.971328 -1.68163 0
M  V30 3460 C 349.058 -2.08461 -2.77779 0
M  V30 3461 C 348.012 -3.24299 -2.7931 0
M  V30 3462 C 347.338 -3.31955 -4.19178 0
M  V30 3463 C 348.638 -4.62065 -2.43502 0
M  V30 3464 H 350.332 -2.76689 -1.14383 0
M  V30 3465 H 347.878 -1.33132 -0.548806 0
M  V30 3466 H 349.831 -2.29453 -3.53454 0
M  V30 3467 H 348.555 -1.14684 -3.05802 0
M  V30 3468 H 347.214 -3.03187 -2.0609 0
M  V30 3469 H 346.862 -2.35745 -4.44335 0
M  V30 3470 H 346.562 -4.09805 -4.2111 0
M  V30 3471 H 348.086 -3.55175 -4.96672 0
M  V30 3472 H 349.5 -4.8297 -3.08889 0
M  V30 3473 H 347.897 -5.42429 -2.56693 0
M  V30 3474 H 348.967 -4.64652 -1.38659 0
M  V30 3475 N 350.31 0.590341 -1.46126 0
M  V30 3476 C 351.257 1.69994 -1.56111 0
M  V30 3477 C 352.227 1.61065 -0.405867 0
M  V30 3478 O 353.412 1.8039 -0.621613 0
M  V30 3479 C 350.552 3.08326 -1.55013 0
M  V30 3480 C 349.665 3.27936 -2.81215 0
M  V30 3481 C 348.8 4.56473 -2.71673 0
M  V30 3482 C 347.839 4.694 -3.92849 0
M  V30 3483 N 346.976 5.89254 -3.81738 0
M  V30 3484 H 351.816 1.60797 -2.50895 0
M  V30 3485 H 349.353 0.783799 -1.24479 0
M  V30 3486 H 351.311 3.88383 -1.52362 0
M  V30 3487 H 349.941 3.16439 -0.637667 0
M  V30 3488 H 348.993 2.41536 -2.93879 0
M  V30 3489 H 350.305 3.33357 -3.71045 0
M  V30 3490 H 349.459 5.44748 -2.67085 0
M  V30 3491 H 348.198 4.53477 -1.7947 0
M  V30 3492 H 347.203 3.79544 -3.97777 0
M  V30 3493 H 348.428 4.7418 -4.86138 0
M  V30 3494 H 346.374 5.87271 -2.92317 0
M  V30 3495 H 346.291 5.95911 -4.65217 0
M  V30 3496 H 347.559 6.79981 -3.81112 0
M  V30 3497 N 351.788 1.33704 0.83433 0
M  V30 3498 C 352.735 1.24335 1.94447 0
M  V30 3499 C 353.705 0.120991 1.65659 0
M  V30 3500 O 354.89 0.300035 1.88426 0
M  V30 3501 C 352.03 0.993124 3.30501 0
M  V30 3502 C 351.143 2.20217 3.71657 0
M  V30 3503 C 350.278 1.88572 4.96602 0
M  V30 3504 C 349.317 3.05683 5.30306 0
M  V30 3505 N 348.454 2.73997 6.46429 0
M  V30 3506 H 353.294 2.1928 2.01792 0
M  V30 3507 H 350.831 1.09035 0.987404 0
M  V30 3508 H 352.789 0.828467 4.08892 0
M  V30 3509 H 351.419 0.0803902 3.227 0
M  V30 3510 H 350.471 2.47642 2.88752 0
M  V30 3511 H 351.783 3.07752 3.92543 0
M  V30 3512 H 350.937 1.68776 5.82752 0
M  V30 3513 H 349.676 0.982799 4.77695 0
M  V30 3514 H 348.681 3.26088 4.42659 0
M  V30 3515 H 349.906 3.96737 5.51159 0
M  V30 3516 H 347.852 1.86268 6.28999 0
M  V30 3517 H 347.769 3.55064 6.67432 0
M  V30 3518 H 349.037 2.57679 7.35678 0
M  V30 3519 N 353.266 -1.05314 1.17247 0
M  V30 3520 C 354.196 -2.1498 0.911362 0
M  V30 3521 C 355.177 -1.69471 -0.146169 0
M  V30 3522 O 356.362 -1.942 0.003812 0
M  V30 3523 C 353.492 -3.4472 0.422528 0
M  V30 3524 C 352.446 -4.03789 1.4191 0
M  V30 3525 C 351.772 -5.28858 0.788274 0
M  V30 3526 C 353.072 -4.41418 2.7919 0
M  V30 3527 H 354.766 -2.3708 1.82848 0
M  V30 3528 H 352.312 -1.13938 0.880569 0
M  V30 3529 H 354.265 -4.20787 0.227289 0
M  V30 3530 H 352.989 -3.22269 -0.530123 0
M  V30 3531 H 351.648 -3.2979 1.60106 0
M  V30 3532 H 351.296 -5.02709 -0.171173 0
M  V30 3533 H 350.996 -5.69338 1.45353 0
M  V30 3534 H 352.52 -6.07612 0.603282 0
M  V30 3535 H 353.934 -5.08524 2.64719 0
M  V30 3536 H 352.331 -4.92913 3.42282 0
M  V30 3537 H 353.401 -3.51819 3.33693 0
M  V30 3538 N 354.744 -0.972509 -1.24016 0
M  V30 3539 C 355.992 -0.635776 -1.91839 0
M  V30 3540 C 356.313 0.832312 -1.76345 0
M  V30 3541 O 355.583 1.5946 -1.13795 0
M  V30 3542 H 354.163 -0.232157 -0.710009 0
M  V30 3543 H 356.825 -1.23462 -1.50809 0
M  V30 3544 H 355.921 -0.880545 -2.99421 0
M  V30 3545 N 356.222 1.38976 -0.743202 0
M  V30 3546 C 357.447 2.05161 -0.303936 0
M  V30 3547 C 357.872 1.55677 1.05576 0
M  V30 3548 O 357.23 0.704131 1.67068 0
M  V30 3549 C 357.278 3.59138 -0.324373 0
M  V30 3550 O 356.382 4.06668 0.685204 0
M  V30 3551 H 355.723 0.649815 -0.136518 0
M  V30 3552 H 358.253 1.77852 -1.01142 0
M  V30 3553 H 358.263 4.07639 -0.171618 0
M  V30 3554 H 356.938 3.94515 -1.31647 0
M  V30 3555 H 355.515 3.69561 0.497913 0
M  V30 3556 N 357.7 0.491464 1.49741 0
M  V30 3557 C 358.61 -0.296835 2.32715 0
M  V30 3558 C 359.626 -0.976536 1.44013 0
M  V30 3559 O 360.802 -0.960023 1.77047 0
M  V30 3560 C 357.867 -1.35288 3.19215 0
M  V30 3561 C 356.928 -0.687632 4.23757 0
M  V30 3562 C 356.161 -1.69336 5.06123 0
M  V30 3563 O 356.384 -2.92219 4.89861 0
M  V30 3564 O 355.318 -1.25394 5.88693 0
M  V30 3565 H 359.144 0.382048 3.01287 0
M  V30 3566 H 356.729 0.252953 1.47243 0
M  V30 3567 H 358.611 -1.96411 3.72828 0
M  V30 3568 H 357.286 -2.01487 2.53347 0
M  V30 3569 H 356.193 -0.0369159 3.74082 0
M  V30 3570 H 357.526 -0.0682566 4.92153 0
M  V30 3571 N 359.178 -1.55987 0.224894 0
M  V30 3572 C 360.426 -1.97998 -0.405099 0
M  V30 3573 C 360.747 -1.11387 -1.60056 0
M  V30 3574 O 360.017 -0.191645 -1.9496 0
M  V30 3575 H 358.597 -0.731235 -0.152658 0
M  V30 3576 H 361.259 -1.92279 0.318567 0
M  V30 3577 H 360.355 -3.03463 -0.729167 0
M  V30 3578 N 360.656 0.0484629 -1.57525 0
M  V30 3579 C 361.566 1.07241 -2.08654 0
M  V30 3580 C 362.582 1.409 -1.02095 0
M  V30 3581 O 363.758 1.50609 -1.33712 0
M  V30 3582 C 360.823 2.36008 -2.5397 0
M  V30 3583 C 359.884 2.09108 -3.7493 0
M  V30 3584 C 359.117 3.31736 -4.18075 0
M  V30 3585 O 359.34 4.41714 -3.60895 0
M  V30 3586 O 358.274 3.18576 -5.10679 0
M  V30 3587 H 362.1 0.667965 -2.96263 0
M  V30 3588 H 359.685 0.26417 -1.47046 0
M  V30 3589 H 361.567 3.11747 -2.83535 0
M  V30 3590 H 360.242 2.75786 -1.69481 0
M  V30 3591 H 359.149 1.31 -3.50414 0
M  V30 3592 H 360.482 1.74198 -4.60343 0
M  V30 3593 N 362.134 1.5431 0.320358 0
M  V30 3594 C 363.411 1.63322 1.07635 0
M  V30 3595 C 363.791 0.46912 2.05821 0
M  V30 3596 O 363.139 -0.536274 2.22118 0
M  V30 3597 C 363.349 3.00465 1.77544 0
M  V30 3598 C 364.697 3.56621 2.30449 0
M  V30 3599 O 365.721 3.02791 1.87606 0
M  V30 3600 O 364.58 4.5083 3.08892 0
M  V30 3601 H 361.674 0.661502 0.496331 0
M  V30 3602 H 364.22 1.66656 0.319992 0
M  V30 3603 H 362.992 3.76629 1.06143 0
M  V30 3604 H 362.615 3.00824 2.59982 0
M  V30 3605 N 363.613 -0.582584 1.46437 0
M  V30 3606 C 364.543 -1.70187 1.59871 0
M  V30 3607 C 365.524 -1.64066 0.449042 0
M  V30 3608 O 366.709 -1.82081 0.6753 0
M  V30 3609 C 363.839 -3.08827 1.58881 0
M  V30 3610 C 362.793 -3.29779 2.72819 0
M  V30 3611 C 362.119 -4.68947 2.5689 0
M  V30 3612 C 363.419 -3.17601 4.1464 0
M  V30 3613 H 365.113 -1.592 2.53566 0
M  V30 3614 H 362.659 -0.764472 1.22032 0
M  V30 3615 H 364.612 -3.86951 1.66873 0
M  V30 3616 H 363.336 -3.20713 0.617306 0
M  V30 3617 H 361.995 -2.54054 2.64296 0
M  V30 3618 H 361.643 -4.77599 1.57823 0
M  V30 3619 H 361.343 -4.83919 3.33312 0
M  V30 3620 H 362.867 -5.4924 2.66773 0
M  V30 3621 H 364.281 -3.8557 4.24274 0
M  V30 3622 H 362.678 -3.44094 4.9165 0
M  V30 3623 H 363.748 -2.14681 4.34788 0
M  V30 3624 N 365.091 -1.34144 -0.827227 0
M  V30 3625 C 366.34 -1.25602 -1.5782 0
M  V30 3626 C 366.653 0.173445 -1.94829 0
M  V30 3627 O 367.859 0.380984 -2.68814 0
M  V30 3628 C 366.315 -2.20151 -2.84713 0
M  V30 3629 C 365.923 -3.68331 -2.55021 0
M  V30 3630 C 367.667 -2.20508 -3.62735 0
M  V30 3631 C 365.574 -4.54762 -3.78082 0
M  V30 3632 H 364.504 -0.466573 -0.592306 0
M  V30 3633 H 367.155 -1.59283 -0.911116 0
M  V30 3634 H 365.537 -1.79417 -3.53023 0
M  V30 3635 H 366.711 -4.17577 -1.94849 0
M  V30 3636 H 365.026 -3.7038 -1.90283 0
M  V30 3637 H 367.623 -2.82306 -4.54101 0
M  V30 3638 H 367.966 -1.20322 -3.98533 0
M  V30 3639 H 368.499 -2.59664 -3.01362 0
M  V30 3640 H 365.238 -5.55867 -3.47407 0
M  V30 3641 H 364.758 -4.10254 -4.37552 0
M  V30 3642 H 366.437 -4.69153 -4.45538 0
M  V30 3643 N 366.569 1.04691 -1.17803 0
M  V30 3644 C 367.985 1.29963 -0.926379 0
M  V30 3645 C 368.185 1.97251 0.411635 0
M  V30 3646 O 367.241 2.24922 1.14744 0
M  V30 3647 C 368.554 2.16447 -2.08737 0
M  V30 3648 C 370.102 2.29814 -2.12496 0
M  V30 3649 C 370.577 3.19661 -3.27995 0
M  V30 3650 N 372.068 3.27247 -3.27816 0
M  V30 3651 C 372.803 3.96906 -4.13827 0
M  V30 3652 N 372.299 4.6895 -5.09959 0
M  V30 3653 N 374.092 3.93122 -4.01761 0
M  V30 3654 H 366.243 0.594182 -2.0392 0
M  V30 3655 H 368.506 0.324649 -0.890678 0
M  V30 3656 H 368.212 1.74304 -3.05469 0
M  V30 3657 H 368.086 3.17103 -2.04268 0
M  V30 3658 H 370.473 2.71196 -1.16347 0
M  V30 3659 H 370.554 1.2877 -2.21025 0
M  V30 3660 H 370.198 2.78991 -4.24413 0
M  V30 3661 H 370.128 4.20722 -3.16703 0
M  V30 3662 H 372.619 2.75921 -2.58217 0
M  V30 3663 H 372.932 5.19679 -5.71974 0
M  V30 3664 H 371.277 4.67875 -5.13924 0
M  V30 3665 H 374.468 3.35967 -3.2595 0
M  V30 3666 H 374.641 4.47139 -4.6901 0
M  V30 3667 N 368.047 0.979072 1.23499 0
M  V30 3668 C 369.294 0.647219 1.91878 0
M  V30 3669 C 369.622 -0.819074 1.76413 0
M  V30 3670 O 368.877 -1.60616 1.11808 0
M  V30 3671 C 369.176 0.981932 3.43646 0
M  V30 3672 C 368.842 2.43822 3.79291 0
M  V30 3673 C 367.504 2.83622 3.88731 0
M  V30 3674 C 369.856 3.3828 3.96505 0
M  V30 3675 C 367.184 4.16897 4.12812 0
M  V30 3676 C 369.536 4.71197 4.22085 0
M  V30 3677 C 368.2 5.10758 4.29747 0
M  V30 3678 H 367.47 0.236834 0.702133 0
M  V30 3679 H 370.117 1.23268 1.46551 0
M  V30 3680 H 368.422 0.314365 3.90537 0
M  V30 3681 H 370.119 0.703395 3.94783 0
M  V30 3682 H 366.709 2.11966 3.72516 0
M  V30 3683 H 370.893 3.0871 3.88603 0
M  V30 3684 H 366.149 4.47157 4.16966 0
M  V30 3685 H 370.323 5.44348 4.34348 0
M  V30 3686 H 367.95 6.1405 4.48159 0
M  V30 3687 N 369.525 -1.3858 0.750561 0
M  V30 3688 C 370.772 -2.00184 0.305373 0
M  V30 3689 C 371.1 -1.59575 -1.11203 0
M  V30 3690 O 370.355 -0.823236 -1.77542 0
M  V30 3691 C 370.654 -3.55455 0.372373 0
M  V30 3692 C 370.32 -4.15765 1.745 0
M  V30 3693 C 368.982 -4.31951 2.12065 0
M  V30 3694 C 371.334 -4.49067 2.64553 0
M  V30 3695 C 368.662 -4.78734 3.39162 0
M  V30 3696 C 371.014 -4.97265 3.91038 0
M  V30 3697 C 369.678 -5.11658 4.28676 0
M  V30 3698 H 368.948 -0.732526 0.111744 0
M  V30 3699 H 371.595 -1.65673 0.960451 0
M  V30 3700 H 369.9 -3.90084 -0.366272 0
M  V30 3701 H 371.597 -4.00999 0.00953918 0
M  V30 3702 H 368.187 -4.03579 1.44297 0
M  V30 3703 H 372.371 -4.36166 2.36796 0
M  V30 3704 H 367.627 -4.88062 3.68246 0
M  V30 3705 H 371.801 -5.22003 4.60962 0
M  V30 3706 H 369.428 -5.47668 5.27222 0
M  V30 3707 N 371.003 -0.499398 -1.49478 0
M  V30 3708 C 371.951 0.293604 -2.3074 0
M  V30 3709 C 372.945 0.96427 -1.39277 0
M  V30 3710 O 374.151 0.892141 -1.56336 0
M  V30 3711 H 370.526 0.113541 -0.743379 0
M  V30 3712 H 372.497 -0.411772 -2.95545 0
M  V30 3713 C 371.246 1.3462 -3.20582 0
M  V30 3714 H 370.569 0.83954 -3.90886 0
M  V30 3715 H 372.009 1.87308 -3.80384 0
M  V30 3716 C 370.468 2.36351 -2.40083 0
M  V30 3717 O 370.998 3.422 -2.10385 0
M  V30 3718 N 369.204 2.0878 -2.02137 0
M  V30 3719 H 368.751 1.22723 -2.26488 0
M  V30 3720 H 368.709 2.77075 -1.48583 0
M  V30 3721 N 372.481 1.55866 -0.233164 0
M  V30 3722 C 373.706 2.03449 0.402906 0
M  V30 3723 C 374.131 1.11166 1.51736 0
M  V30 3724 O 373.489 0.101996 1.81013 0
M  V30 3725 C 373.537 3.49165 0.9009 0
M  V30 3726 O 372.641 3.60019 2.01147 0
M  V30 3727 H 371.982 0.657913 0.0897025 0
M  V30 3728 H 374.512 2.01493 -0.355201 0
M  V30 3729 H 374.522 3.89716 1.2077 0
M  V30 3730 H 373.197 4.15813 0.0852889 0
M  V30 3731 H 371.774 3.3136 1.71042 0
M  V30 3732 N 373.959 -0.0401083 1.57549 0
M  V30 3733 C 374.889 -1.04384 2.08869 0
M  V30 3734 C 375.87 -1.38407 0.988817 0
M  V30 3735 O 377.055 -1.47483 1.26342 0
M  V30 3736 C 374.185 -2.34808 2.55895 0
M  V30 3737 C 373.139 -2.15057 3.70047 0
M  V30 3738 C 372.465 -3.51145 4.03239 0
M  V30 3739 C 373.765 -1.54576 4.98902 0
M  V30 3740 H 375.459 -0.616666 2.92981 0
M  V30 3741 H 373.005 -0.295184 1.40942 0
M  V30 3742 H 374.958 -3.05346 2.90417 0
M  V30 3743 H 373.682 -2.79565 1.68853 0
M  V30 3744 H 372.341 -1.46954 3.35857 0
M  V30 3745 H 371.989 -3.93529 3.13279 0
M  V30 3746 H 371.689 -3.38758 4.80122 0
M  V30 3747 H 373.213 -4.23062 4.40285 0
M  V30 3748 H 374.627 -2.15017 5.31451 0
M  V30 3749 H 373.024 -1.52796 5.80322 0
M  V30 3750 H 374.094 -0.51039 4.82206 0
M  V30 3751 N 375.437 -1.54477 -0.31217 0
M  V30 3752 C 376.385 -1.85395 -1.40469 0
M  V30 3753 C 377.379 -0.726749 -1.53019 0
M  V30 3754 O 378.585 -0.910582 -1.55269 0
M  V30 3755 H 374.96 -0.587845 -0.46898 0
M  V30 3756 H 376.931 -2.76736 -1.11623 0
M  V30 3757 C 375.68 -2.10811 -2.76503 0
M  V30 3758 H 375.003 -2.97014 -2.67625 0
M  V30 3759 H 376.443 -2.3639 -3.51988 0
M  V30 3760 C 374.902 -0.903165 -3.24568 0
M  V30 3761 O 375.432 -0.118085 -4.01526 0
M  V30 3762 N 373.638 -0.711634 -2.81752 0
M  V30 3763 H 373.185 -1.35171 -2.19286 0
M  V30 3764 H 373.143 0.0930473 -3.14262 0
M  V30 3765 N 376.915 0.57481 -1.46744 0
M  V30 3766 C 377.825 1.711 -1.60505 0
M  V30 3767 C 378.841 1.67008 -0.488307 0
M  V30 3768 O 380.017 1.86774 -0.753495 0
M  V30 3769 C 377.082 3.07608 -1.59932 0
M  V30 3770 C 376.143 3.22904 -2.82898 0
M  V30 3771 C 375.376 4.529 -2.82343 0
M  V30 3772 O 375.599 5.37278 -1.91542 0
M  V30 3773 O 374.533 4.71611 -3.73987 0
M  V30 3774 H 378.359 1.62436 -2.56609 0
M  V30 3775 H 375.944 0.742779 -1.29627 0
M  V30 3776 H 377.826 3.88877 -1.62336 0
M  V30 3777 H 376.501 3.16692 -0.669898 0
M  V30 3778 H 375.408 2.41099 -2.86046 0
M  V30 3779 H 376.741 3.18715 -3.75076 0
M  V30 3780 N 378.394 1.34581 0.820102 0
M  V30 3781 C 379.357 1.2628 1.91275 0
M  V30 3782 C 380.357 0.177344 1.59819 0
M  V30 3783 O 381.547 0.430156 1.68806 0
M  V30 3784 C 378.679 0.950327 3.27386 0
M  V30 3785 H 379.872 2.23421 2.00057 0
M  V30 3786 H 377.425 1.1891 1.0144 0
M  V30 3787 H 378.16 -0.0177938 3.24295 0
M  V30 3788 H 377.945 1.73549 3.51601 0
M  V30 3789 H 379.435 0.917492 4.07396 0
M  V30 3790 N 379.872 -1.04064 1.18357 0
M  V30 3791 C 381.1 -1.80916 1.00384 0
M  V30 3792 C 381.515 -1.83414 -0.447738 0
M  V30 3793 O 380.872 -1.26962 -1.31099 0
M  V30 3794 C 380.923 -3.26516 1.55144 0
M  V30 3795 O 380.644 -3.2424 2.94618 0
M  V30 3796 C 382.145 -4.20013 1.41789 0
M  V30 3797 H 379.365 -0.569728 0.354474 0
M  V30 3798 H 381.909 -1.31151 1.56906 0
M  V30 3799 H 380.064 -3.73512 1.02798 0
M  V30 3800 H 380.478 -4.15452 3.20156 0
M  V30 3801 H 381.952 -5.20111 1.84901 0
M  V30 3802 H 382.429 -4.37667 0.36661 0
M  V30 3803 H 383.035 -3.78881 1.93207 0
M  V30 3804 N 381.35 -0.985608 -1.22978 0
M  V30 3805 C 382.283 -0.47487 -2.23204 0
M  V30 3806 C 383.261 0.460865 -1.55932 0
M  V30 3807 O 384.445 0.388105 -1.84461 0
M  V30 3808 C 381.572 0.312427 -3.37256 0
M  V30 3809 C 380.618 -0.568219 -4.22698 0
M  V30 3810 S 381.451 -2.01919 -4.95973 0
M  V30 3811 C 382.607 -1.24118 -6.1347 0
M  V30 3812 H 382.84 -1.32419 -2.66181 0
M  V30 3813 H 380.373 -0.792005 -1.32539 0
M  V30 3814 H 382.331 0.760645 -4.03391 0
M  V30 3815 H 380.992 1.13693 -2.92801 0
M  V30 3816 H 380.185 0.0371657 -5.03986 0
M  V30 3817 H 379.787 -0.952897 -3.61657 0
M  V30 3818 H 382.079 -0.505121 -6.75614 0
M  V30 3819 H 383.022 -2.02907 -6.78406 0
M  V30 3820 H 383.43 -0.757669 -5.59392 0
M  V30 3821 N 382.828 1.3818 -0.7579 0
M  V30 3822 C 384.074 2.00316 -0.316453 0
M  V30 3823 C 384.407 1.60026 1.10025 0
M  V30 3824 O 383.682 0.839835 1.75434 0
M  V30 3825 C 383.965 3.57349 -0.444245 0
M  V30 3826 C 383.818 4.07591 -1.90236 0
M  V30 3827 C 385.137 4.3981 0.1598 0
M  V30 3828 H 382.256 0.727741 -0.116459 0
M  V30 3829 H 384.898 1.6406 -0.958352 0
M  V30 3830 H 383.048 3.88365 0.102233 0
M  V30 3831 H 384.72 3.87199 -2.50748 0
M  V30 3832 H 382.963 3.60297 -2.41595 0
M  V30 3833 H 383.634 5.16677 -1.94291 0
M  V30 3834 H 386.11 4.14971 -0.306314 0
M  V30 3835 H 384.986 5.48885 0.0401675 0
M  V30 3836 H 385.247 4.24102 1.24859 0
M  V30 3837 N 384.306 0.507319 1.49211 0
M  V30 3838 C 385.236 -0.256939 2.32082 0
M  V30 3839 C 386.217 -0.956609 1.40652 0
M  V30 3840 O 387.402 -0.946788 1.69557 0
M  V30 3841 C 384.532 -1.31802 3.21318 0
M  V30 3842 C 383.486 -0.737855 4.21592 0
M  V30 3843 C 382.812 -1.89992 4.99807 0
M  V30 3844 C 384.112 0.275325 5.21574 0
M  V30 3845 H 385.806 0.434798 2.96226 0
M  V30 3846 H 383.352 0.210546 1.42452 0
M  V30 3847 H 385.305 -1.86045 3.78107 0
M  V30 3848 H 384.029 -2.03903 2.5513 0
M  V30 3849 H 382.688 -0.217126 3.65956 0
M  V30 3850 H 382.336 -2.60877 4.30061 0
M  V30 3851 H 382.036 -1.51777 5.6766 0
M  V30 3852 H 383.56 -2.44657 5.59442 0
M  V30 3853 H 384.974 -0.179193 5.7302 0
M  V30 3854 H 383.371 0.573649 5.97352 0
M  V30 3855 H 384.441 1.18903 4.70096 0
M  V30 3856 N 385.784 -1.5574 0.241426 0
M  V30 3857 C 387.03 -1.99104 -0.385406 0
M  V30 3858 C 387.363 -1.1293 -1.57988 0
M  V30 3859 O 386.638 -0.191449 -1.93555 0
M  V30 3860 C 386.921 -3.51087 -0.800616 0
M  V30 3861 C 386.774 -4.48028 0.398874 0
M  V30 3862 C 388.093 -4.08015 -1.64959 0
M  V30 3863 H 385.212 -0.723848 -0.138614 0
M  V30 3864 H 387.854 -1.86903 0.341642 0
M  V30 3865 H 386.004 -3.61615 -1.4201 0
M  V30 3866 H 387.676 -4.49487 1.03726 0
M  V30 3867 H 385.919 -4.21077 1.04293 0
M  V30 3868 H 386.59 -5.51962 0.0651056 0
M  V30 3869 H 389.066 -4.00555 -1.12672 0
M  V30 3870 H 387.942 -5.14635 -1.90898 0
M  V30 3871 H 388.203 -3.56131 -2.61961 0
M  V30 3872 N 387.262 0.0317525 -1.57568 0
M  V30 3873 C 388.487 0.738664 -1.938 0
M  V30 3874 C 388.912 1.68242 -0.841208 0
M  V30 3875 O 388.27 1.80157 0.203267 0
M  V30 3876 C 388.318 1.47417 -3.29091 0
M  V30 3877 O 387.422 2.5872 -3.2115 0
M  V30 3878 H 386.763 0.198856 -0.633524 0
M  V30 3879 H 389.293 -0.0119713 -2.04596 0
M  V30 3880 H 389.303 1.84468 -3.63917 0
M  V30 3881 H 387.978 0.781988 -4.08482 0
M  V30 3882 H 386.555 2.24231 -2.97951 0
M  V30 3883 N 388.74 1.54641 0.303973 0
M  V30 3884 C 389.986 1.74969 1.03718 0
M  V30 3885 C 390.341 0.527461 1.85029 0
M  V30 3886 O 389.634 -0.480143 1.85486 0
M  V30 3887 C 389.828 2.97753 1.97681 0
M  V30 3888 C 389.657 4.318 1.25613 0
M  V30 3889 C 388.427 4.95616 0.984518 0
M  V30 3890 C 390.625 5.10021 0.662081 0
M  V30 3891 N 388.607 6.13455 0.233794 0
M  V30 3892 C 389.978 6.19984 0.0439736 0
M  V30 3893 C 392.033 4.94663 0.566835 0
M  V30 3894 C 390.736 7.16264 -0.66016 0
M  V30 3895 C 392.762 5.91271 -0.123637 0
M  V30 3896 C 392.124 7.00601 -0.730608 0
M  V30 3897 H 388.223 0.692873 0.362562 0
M  V30 3898 H 390.807 1.92116 0.316135 0
M  V30 3899 H 388.978 2.82036 2.6704 0
M  V30 3900 H 390.71 3.06621 2.64132 0
M  V30 3901 H 387.465 4.55921 1.28191 0
M  V30 3902 H 387.889 6.76879 -0.127996 0
M  V30 3903 H 392.531 4.10267 1.02181 0
M  V30 3904 H 390.249 8.00204 -1.12691 0
M  V30 3905 H 393.835 5.81466 -0.197236 0
M  V30 3906 H 392.715 7.7407 -1.2564 0
M  V30 3907 N 390.218 -0.567019 1.47046 0
M  V30 3908 C 391.467 -1.32091 1.5243 0
M  V30 3909 C 391.78 -1.94704 0.187021 0
M  V30 3910 O 392.986 -2.7124 0.118771 0
M  V30 3911 C 391.442 -2.39479 2.68659 0
M  V30 3912 C 391.05 -1.831 4.08874 0
M  V30 3913 C 392.794 -3.16111 2.83327 0
M  V30 3914 C 390.701 -2.8821 5.16419 0
M  V30 3915 H 389.631 -0.496629 0.56734 0
M  V30 3916 H 392.282 -0.603354 1.73297 0
M  V30 3917 H 390.664 -3.14105 2.41152 0
M  V30 3918 H 391.838 -1.14913 4.46242 0
M  V30 3919 H 390.153 -1.19085 3.99008 0
M  V30 3920 H 392.75 -3.94585 3.60842 0
M  V30 3921 H 393.093 -3.69686 1.91411 0
M  V30 3922 H 393.626 -2.48595 3.10556 0
M  V30 3923 H 390.365 -2.39504 6.10179 0
M  V30 3924 H 389.885 -3.54839 4.8358 0
M  V30 3925 H 391.564 -3.51881 5.42945 0
M  V30 3926 N 391.696 -1.35014 -0.812953 0
M  V30 3927 C 392.629 -1.21761 -1.93001 0
M  V30 3928 C 393.607 -0.10694 -1.62248 0
M  V30 3929 O 394.791 -0.273891 -1.865 0
M  V30 3930 C 391.918 -0.873404 -3.27245 0
M  V30 3931 C 390.964 -1.99523 -3.76952 0
M  V30 3932 S 391.797 -3.61009 -3.95516 0
M  V30 3933 C 392.953 -3.28651 -5.32672 0
M  V30 3934 H 393.186 -2.16315 -2.03948 0
M  V30 3935 H 390.719 -1.20156 -0.969631 0
M  V30 3936 H 392.677 -0.68161 -4.04802 0
M  V30 3937 H 391.338 0.053971 -3.14054 0
M  V30 3938 H 390.531 -1.70838 -4.74163 0
M  V30 3939 H 390.133 -2.14503 -3.06373 0
M  V30 3940 H 392.425 -2.81085 -6.1644 0
M  V30 3941 H 393.368 -4.25039 -5.66346 0
M  V30 3942 H 393.776 -2.6458 -4.98656 0
M  V30 3943 N 393.175 1.03435 -1.18907 0
M  V30 3944 C 394.421 1.7713 -0.99982 0
M  V30 3945 C 394.776 1.86695 0.465049 0
M  V30 3946 O 394.069 1.36866 1.34083 0
M  V30 3947 C 394.263 3.19792 -1.59586 0
M  V30 3948 C 394.092 3.24134 -3.11717 0
M  V30 3949 C 392.862 3.32398 -3.80578 0
M  V30 3950 C 395.06 3.11625 -4.09138 0
M  V30 3951 N 393.042 3.26055 -5.20155 0
M  V30 3952 C 394.413 3.12855 -5.35277 0
M  V30 3953 C 396.468 2.95713 -4.00572 0
M  V30 3954 C 395.171 2.99805 -6.53842 0
M  V30 3955 C 397.197 2.84011 -5.1874 0
M  V30 3956 C 396.559 2.8589 -6.43775 0
M  V30 3957 H 392.658 0.659683 -0.419931 0
M  V30 3958 H 395.242 1.2317 -1.50789 0
M  V30 3959 H 393.413 3.72085 -1.11389 0
M  V30 3960 H 395.145 3.81819 -1.3415 0
M  V30 3961 H 391.9 3.38392 -3.31342 0
M  V30 3962 H 392.324 3.26307 -5.93172 0
M  V30 3963 H 396.966 2.93086 -3.0473 0
M  V30 3964 H 394.684 3.01184 -7.49876 0
M  V30 3965 H 398.27 2.72744 -5.13909 0
M  V30 3966 H 397.15 2.76931 -7.33675 0
M  V30 3967 N 394.653 0.992116 1.22453 0
M  V30 3968 C 395.883 0.684949 1.94915 0
M  V30 3969 C 396.291 -0.754292 1.73514 0
M  V30 3970 O 395.634 -1.52056 1.03076 0
M  V30 3971 C 395.696 0.910054 3.47791 0
M  V30 3972 C 395.36 2.33363 3.92926 0
M  V30 3973 C 396.357 3.31308 4.00663 0
M  V30 3974 C 394.042 2.66785 4.25595 0
M  V30 3975 C 396.036 4.6075 4.40441 0
M  V30 3976 C 393.723 3.96446 4.65053 0
M  V30 3977 C 394.721 4.9324 4.72444 0
M  V30 3978 O 394.409 6.20584 5.1101 0
M  V30 3979 H 394.141 0.25258 0.62704 0
M  V30 3980 H 396.695 1.32939 1.56577 0
M  V30 3981 H 394.925 0.208443 3.86138 0
M  V30 3982 H 396.614 0.598257 4.01467 0
M  V30 3983 H 397.38 3.0682 3.75615 0
M  V30 3984 H 393.259 1.92148 4.19047 0
M  V30 3985 H 396.803 5.363 4.46126 0
M  V30 3986 H 392.7 4.20724 4.89552 0
M  V30 3987 H 393.468 6.24509 5.29085 0
M  V30 3988 N 396.131 -1.37776 0.765217 0
M  V30 3989 C 397.377 -2.00145 0.327072 0
M  V30 3990 C 397.71 -1.60607 -1.09175 0
M  V30 3991 O 396.985 -0.849127 -1.74986 0
M  V30 3992 C 397.268 -3.57109 0.46319 0
M  V30 3993 C 397.121 -4.06576 1.92395 0
M  V30 3994 C 398.44 -4.39888 -0.136473 0
M  V30 3995 H 395.559 -0.727113 0.120316 0
M  V30 3996 H 398.201 -1.63549 0.967039 0
M  V30 3997 H 396.351 -3.88414 -0.0816358 0
M  V30 3998 H 398.023 -3.85864 2.52798 0
M  V30 3999 H 396.266 -3.59011 2.43503 0
M  V30 4000 H 396.937 -5.15639 1.97028 0
M  V30 4001 H 399.413 -4.14803 0.328317 0
M  V30 4002 H 398.289 -5.48899 -0.0110582 0
M  V30 4003 H 398.55 -4.24758 -1.22608 0
M  V30 4004 N 397.609 -0.515225 -1.4894 0
M  V30 4005 C 399.02 -0.0710067 -1.86565 0
M  V30 4006 C 399.371 1.34733 -1.42623 0
M  V30 4007 O 398.496 2.00653 -0.810379 0
M  V30 4008 C 399.091 -0.122083 -3.3858 0
M  V30 4009 C 397.65 0.266863 -3.75453 0
M  V30 4010 C 396.797 -0.488376 -2.72966 0
M  V30 4011 H 399.748 -0.727266 -1.41055 0
M  V30 4012 H 399.769 0.669818 -3.74558 0
M  V30 4013 H 399.281 -1.15448 -3.70531 0
M  V30 4014 H 397.382 1.30196 -3.49113 0
M  V30 4015 H 397.495 -0.0624811 -4.79059 0
M  V30 4016 H 395.859 0.0635622 -2.54621 0
M  V30 4017 H 396.642 -1.52113 -3.07761 0
M  V30 4018 N 399.087 1.5561 -0.249682 0
M  V30 4019 C 400.333 1.99306 0.374841 0
M  V30 4020 C 400.666 1.13767 1.57387 0
M  V30 4021 O 399.941 0.201711 1.93451 0
M  V30 4022 C 400.224 3.51507 0.781986 0
M  V30 4023 C 400.077 4.4781 -0.422629 0
M  V30 4024 C 401.396 4.08884 1.62793 0
M  V30 4025 H 398.515 0.724572 0.134773 0
M  V30 4026 H 401.157 1.86719 -0.351549 0
M  V30 4027 H 399.307 3.62363 1.4009 0
M  V30 4028 H 400.979 4.48931 -1.06108 0
M  V30 4029 H 399.222 4.20518 -1.06524 0
M  V30 4030 H 399.893 5.51919 -0.0943766 0
M  V30 4031 H 402.369 4.01147 1.10547 0
M  V30 4032 H 401.245 5.1564 1.88166 0
M  V30 4033 H 401.506 3.57515 2.60068 0
M  V30 4034 N 400.565 -0.0233959 1.57583 0
M  V30 4035 C 401.813 -0.711654 1.89156 0
M  V30 4036 C 402.134 -1.75591 0.848096 0
M  V30 4037 O 401.404 -1.95547 -0.117566 0
M  V30 4038 H 399.984 -0.265835 0.698098 0
M  V30 4039 H 402.646 0.0119948 1.94896 0
M  V30 4040 H 401.742 -1.19766 2.88206 0
M  V30 4041 N 402.043 -1.548 -0.295768 0
M  V30 4042 C 403.292 -1.73538 -1.02798 0
M  V30 4043 C 403.605 -0.531159 -1.8825 0
M  V30 4044 O 404.811 -0.600458 -2.64777 0
M  V30 4045 C 403.267 -3.07051 -1.87744 0
M  V30 4046 C 402.875 -4.34968 -1.07269 0
M  V30 4047 C 404.619 -3.35146 -2.60533 0
M  V30 4048 C 402.526 -5.5953 -1.91521 0
M  V30 4049 H 401.456 -0.646794 -0.387522 0
M  V30 4050 H 404.107 -1.81278 -0.284718 0
M  V30 4051 H 402.489 -2.93289 -2.66078 0
M  V30 4052 H 403.663 -4.5958 -0.335117 0
M  V30 4053 H 401.978 -4.13847 -0.460384 0
M  V30 4054 H 404.575 -4.2541 -3.23929 0
M  V30 4055 H 404.918 -2.54255 -3.29636 0
M  V30 4056 H 405.451 -3.49902 -1.89244 0
M  V30 4057 H 402.19 -6.43103 -1.26878 0
M  V30 4058 H 401.71 -5.39096 -2.62937 0
M  V30 4059 H 403.389 -5.96982 -2.49442 0
M  V30 4060 N 403.521 0.559213 -1.47345 0
M  V30 4061 C 404.454 1.68201 -1.5422 0
M  V30 4062 C 405.432 1.57742 -0.394497 0
M  V30 4063 O 406.616 1.78628 -0.60201 0
M  V30 4064 C 403.743 3.0643 -1.44285 0
M  V30 4065 C 402.789 3.3534 -2.63532 0
M  V30 4066 S 403.622 3.24816 -4.25741 0
M  V30 4067 C 404.778 4.65542 -4.18355 0
M  V30 4068 H 405.011 1.62114 -2.49211 0
M  V30 4069 H 402.544 0.739871 -1.35519 0
M  V30 4070 H 404.502 3.86164 -1.3924 0
M  V30 4071 H 403.163 3.09984 -0.506816 0
M  V30 4072 H 402.356 4.36107 -2.52639 0
M  V30 4073 H 401.958 2.63221 -2.65689 0
M  V30 4074 H 404.25 5.56449 -3.86485 0
M  V30 4075 H 405.193 4.81493 -5.19202 0
M  V30 4076 H 405.601 4.43495 -3.49246 0
M  V30 4077 N 404.999 1.35443 0.805782 0
M  V30 4078 C 406.246 1.28761 1.56291 0
M  V30 4079 C 406.574 -0.137747 1.94012 0
M  V30 4080 O 405.829 -1.1032 1.61642 0
M  V30 4081 C 406.128 2.14045 2.86216 0
M  V30 4082 C 405.794 3.62826 2.67709 0
M  V30 4083 C 404.456 4.0338 2.6237 0
M  V30 4084 C 406.808 4.57227 2.50186 0
M  V30 4085 C 404.136 5.36501 2.37451 0
M  V30 4086 C 406.488 5.90547 2.26797 0
M  V30 4087 C 405.152 6.30245 2.1988 0
M  V30 4088 H 404.422 0.471171 0.571908 0
M  V30 4089 H 407.069 1.67347 0.930974 0
M  V30 4090 H 405.374 1.68342 3.53791 0
M  V30 4091 H 407.071 2.0621 3.43917 0
M  V30 4092 H 403.661 3.30644 2.72713 0
M  V30 4093 H 407.845 4.2678 2.53323 0
M  V30 4094 H 403.101 5.66259 2.30567 0
M  V30 4095 H 407.275 6.63274 2.12228 0
M  V30 4096 H 404.902 7.33328 2.00333 0
M  V30 4097 N 406.477 -1.02803 1.19454 0
M  V30 4098 C 407.407 -2.12999 0.956758 0
M  V30 4099 C 408.388 -1.69743 -0.110188 0
M  V30 4100 O 409.573 -1.94148 0.0450038 0
M  V30 4101 C 406.703 -3.43746 0.495553 0
M  V30 4102 C 405.657 -4.00688 1.50443 0
M  V30 4103 C 404.983 -5.27067 0.900275 0
M  V30 4104 C 406.283 -4.35397 2.8849 0
M  V30 4105 H 407.977 -2.33148 1.87836 0
M  V30 4106 H 405.523 -1.12045 0.904539 0
M  V30 4107 H 407.476 -4.2021 0.316493 0
M  V30 4108 H 406.2 -3.23321 -0.461646 0
M  V30 4109 H 404.859 -3.2632 1.67065 0
M  V30 4110 H 404.507 -5.02959 -0.064503 0
M  V30 4111 H 404.207 -5.66127 1.57397 0
M  V30 4112 H 405.731 -6.06196 0.73203 0
M  V30 4113 H 407.145 -5.02795 2.75446 0
M  V30 4114 H 405.542 -4.85541 3.52661 0
M  V30 4115 H 406.612 -3.44662 3.41081 0
M  V30 4116 N 407.956 -0.998596 -1.21925 0
M  V30 4117 C 409.202 -0.678667 -1.91107 0
M  V30 4118 C 409.535 0.78791 -1.77498 0
M  V30 4119 O 408.81 1.57043 -1.1475 0
M  V30 4120 C 409.093 -1.09245 -3.43129 0
M  V30 4121 C 408.946 -2.61801 -3.6576 0
M  V30 4122 C 410.265 -0.649984 -4.35274 0
M  V30 4123 H 407.384 -0.248025 -0.694012 0
M  V30 4124 H 410.026 -1.24314 -1.43688 0
M  V30 4125 H 408.176 -0.612171 -3.83647 0
M  V30 4126 H 409.848 -3.17543 -3.34611 0
M  V30 4127 H 408.091 -3.03609 -3.09845 0
M  V30 4128 H 408.762 -2.85804 -4.7225 0
M  V30 4129 H 411.238 -1.0626 -4.02303 0
M  V30 4130 H 410.114 -0.967743 -5.40302 0
M  V30 4131 H 410.375 0.449139 -4.39813 0
M  V30 4132 N 409.434 1.37368 -0.772513 0
M  V30 4133 C 410.682 1.99279 -0.336516 0
M  V30 4134 C 411.003 1.6163 1.09091 0
M  V30 4135 O 410.273 0.882109 1.74916 0
M  V30 4136 H 408.853 0.737063 -0.121435 0
M  V30 4137 H 411.515 1.67836 -0.990809 0
M  V30 4138 H 410.611 3.09332 -0.414763 0
M  V30 4139 N 410.912 0.523116 1.48665 0
M  V30 4140 C 412.137 -0.0117284 2.07397 0
M  V30 4141 C 412.562 -1.28031 1.37803 0
M  V30 4142 O 411.92 -1.75836 0.441762 0
M  V30 4143 C 411.968 -0.225786 3.59892 0
M  V30 4144 O 411.072 -1.29592 3.91509 0
M  V30 4145 H 410.413 0.0360673 0.66302 0
M  V30 4146 H 412.943 0.729066 1.9117 0
M  V30 4147 H 412.953 -0.450552 4.05505 0
M  V30 4148 H 411.628 0.700944 4.09951 0
M  V30 4149 H 410.205 -1.05436 3.57684 0
M  V30 4150 N 412.39 -1.55475 0.257931 0
M  V30 4151 C 413.337 -2.21837 -0.636939 0
M  V30 4152 C 414.307 -1.18596 -1.16294 0
M  V30 4153 O 415.492 -1.47081 -1.21539 0
M  V30 4154 C 412.632 -2.9301 -1.82317 0
M  V30 4155 C 411.745 -4.10931 -1.33265 0
M  V30 4156 C 410.88 -4.69791 -2.47931 0
M  V30 4157 C 409.919 -5.7994 -1.95796 0
M  V30 4158 N 409.056 -6.32935 -3.0387 0
M  V30 4159 H 413.896 -2.9793 -0.0643591 0
M  V30 4160 H 411.433 -1.47086 -0.0200031 0
M  V30 4161 H 413.391 -3.3248 -2.52018 0
M  V30 4162 H 412.021 -2.1937 -2.36805 0
M  V30 4163 H 411.073 -3.76699 -0.52931 0
M  V30 4164 H 412.385 -4.90417 -0.910654 0
M  V30 4165 H 411.539 -5.11892 -3.25656 0
M  V30 4166 H 410.278 -3.89545 -2.93438 0
M  V30 4167 H 409.283 -5.37305 -1.16546 0
M  V30 4168 H 410.508 -6.62043 -1.51246 0
M  V30 4169 H 408.454 -5.55591 -3.48791 0
M  V30 4170 H 408.371 -7.07645 -2.66035 0
M  V30 4171 H 409.639 -6.79695 -3.81621 0
M  V30 4172 N 413.868 0.0150385 -1.57593 0
M  V30 4173 C 415.117 0.702115 -1.89085 0
M  V30 4174 C 415.43 1.75764 -0.858277 0
M  V30 4175 O 416.636 2.49829 -1.0629 0
M  V30 4176 C 415.092 1.29992 -3.35604 0
M  V30 4177 C 414.7 0.280007 -4.47124 0
M  V30 4178 C 416.444 1.96606 -3.76227 0
M  V30 4179 C 414.351 0.886949 -5.84711 0
M  V30 4180 H 413.281 0.265997 -0.705522 0
M  V30 4181 H 415.932 -0.0430408 -1.8345 0
M  V30 4182 H 414.314 2.09525 -3.36029 0
M  V30 4183 H 415.488 -0.489631 -4.58191 0
M  V30 4184 H 413.803 -0.284835 -4.15425 0
M  V30 4185 H 416.4 2.42893 -4.76347 0
M  V30 4186 H 416.743 2.79024 -3.08952 0
M  V30 4187 H 417.276 1.23828 -3.78036 0
M  V30 4188 H 414.015 0.101876 -6.55421 0
M  V30 4189 H 413.535 1.6261 -5.77337 0
M  V30 4190 H 415.214 1.39011 -6.3189 0
M  V30 4191 N 415.346 1.54954 0.287554 0
M  V30 4192 C 416.592 1.75132 1.02257 0
M  V30 4193 C 416.925 0.542858 1.86458 0
M  V30 4194 O 416.2 -0.459856 1.88986 0
M  V30 4195 C 416.483 3.04812 1.91733 0
M  V30 4196 C 416.336 4.35985 1.10622 0
M  V30 4197 C 417.655 3.30438 2.90687 0
M  V30 4198 H 414.774 0.637194 0.370341 0
M  V30 4199 H 417.416 1.87678 0.296111 0
M  V30 4200 H 415.566 2.94247 2.53675 0
M  V30 4201 H 417.238 4.58487 0.508636 0
M  V30 4202 H 415.481 4.31865 0.409271 0
M  V30 4203 H 416.152 5.23017 1.76513 0
M  V30 4204 H 418.628 3.40701 2.38877 0
M  V30 4205 H 417.504 4.22467 3.50447 0
M  V30 4206 H 417.765 2.49377 3.65053 0
M  V30 4207 N 416.824 -0.551391 1.4764 0
M  V30 4208 C 417.734 -1.68525 1.63207 0
M  V30 4209 C 418.75 -1.6621 0.514815 0
M  V30 4210 O 419.926 -1.85551 0.783113 0
M  V30 4211 C 416.991 -3.05025 1.64805 0
M  V30 4212 C 416.052 -3.18362 2.88 0
M  V30 4213 C 415.285 -4.4835 2.89513 0
M  V30 4214 O 415.508 -5.34163 2.00065 0
M  V30 4215 O 414.442 -4.65602 3.81443 0
M  V30 4216 H 418.268 -1.58333 2.59161 0
M  V30 4217 H 415.853 -0.722063 1.30792 0
M  V30 4218 H 417.735 -3.86245 1.68502 0
M  V30 4219 H 416.41 -3.15587 0.720197 0
M  V30 4220 H 415.317 -2.36518 2.89845 0
M  V30 4221 H 416.65 -3.12707 3.80099 0
M  V30 4222 N 418.302 -1.35869 -0.798587 0
M  V30 4223 C 419.235 -1.23801 -1.91699 0
M  V30 4224 C 420.213 -0.124143 -1.62125 0
M  V30 4225 O 421.397 -0.293656 -1.86199 0
M  V30 4226 C 418.524 -0.908063 -3.263 0
M  V30 4227 C 417.57 -2.0351 -3.74815 0
M  V30 4228 S 418.403 -3.65183 -3.91665 0
M  V30 4229 C 419.559 -3.34283 -5.29156 0
M  V30 4230 H 419.792 -2.18466 -2.01643 0
M  V30 4231 H 417.325 -1.21178 -0.956833 0
M  V30 4232 H 419.283 -0.724506 -4.04056 0
M  V30 4233 H 417.944 0.0206584 -3.14093 0
M  V30 4234 H 417.137 -1.75858 -4.72324 0
M  V30 4235 H 416.739 -2.1774 -3.04081 0
M  V30 4236 H 419.031 -2.87607 -6.13424 0
M  V30 4237 H 419.974 -4.31022 -5.61806 0
M  V30 4238 H 420.382 -2.69854 -4.95822 0
M  V30 4239 N 419.78 1.02168 -1.19998 0
M  V30 4240 C 420.727 2.10601 -0.944228 0
M  V30 4241 C 421.697 1.65639 0.123664 0
M  V30 4242 O 422.882 1.9079 -0.0199941 0
M  V30 4243 C 420.022 3.41504 -0.496865 0
M  V30 4244 C 419.135 3.99973 -1.63234 0
M  V30 4245 C 418.27 5.18915 -1.13579 0
M  V30 4246 C 417.309 5.69456 -2.24468 0
M  V30 4247 N 416.446 6.79665 -1.76068 0
M  V30 4248 H 421.286 2.31814 -1.8726 0
M  V30 4249 H 418.823 1.13686 -0.933483 0
M  V30 4250 H 420.781 4.16626 -0.218843 0
M  V30 4251 H 419.411 3.2038 0.394508 0
M  V30 4252 H 418.463 3.21997 -2.0254 0
M  V30 4253 H 419.775 4.33492 -2.46752 0
M  V30 4254 H 418.929 6.01222 -0.813429 0
M  V30 4255 H 417.668 4.8695 -0.270434 0
M  V30 4256 H 416.673 4.85757 -2.57526 0
M  V30 4257 H 417.898 6.03459 -3.11472 0
M  V30 4258 H 415.844 6.49538 -0.918516 0
M  V30 4259 H 415.761 7.12349 -2.5317 0
M  V30 4260 H 417.029 7.65549 -1.46817 0
M  V30 4261 N 421.258 1.00505 1.21394 0
M  V30 4262 C 422.535 0.603277 1.86064 0
M  V30 4263 C 422.915 -0.919095 1.90042 0
M  V30 4264 O 422.263 -1.80607 1.39977 0
M  V30 4265 C 422.473 1.23772 3.26315 0
M  V30 4266 C 423.821 1.34586 4.02705 0
M  V30 4267 O 424.845 1.19304 3.35626 0
M  V30 4268 O 423.704 1.59169 5.22807 0
M  V30 4269 H 420.798 0.206634 0.800769 0
M  V30 4270 H 423.344 1.1017 1.29076 0
M  V30 4271 H 422.116 2.27848 3.18121 0
M  V30 4272 H 421.739 0.725648 3.90922 0
M  V30 4273 N 422.737 -1.36956 0.779787 0
M  V30 4274 C 423.986 -1.98738 0.344405 0
M  V30 4275 C 424.299 -1.62596 -1.08728 0
M  V30 4276 O 425.505 -2.1754 -1.62445 0
M  V30 4277 C 423.961 -3.5544 0.564829 0
M  V30 4278 C 423.569 -4.00514 2.0073 0
M  V30 4279 C 425.313 -4.24059 0.193471 0
M  V30 4280 C 423.22 -5.49957 2.17489 0
M  V30 4281 H 422.15 -0.743561 0.12503 0
M  V30 4282 H 424.801 -1.56381 0.960057 0
M  V30 4283 H 423.183 -3.95817 -0.120397 0
M  V30 4284 H 424.357 -3.71362 2.72814 0
M  V30 4285 H 422.672 -3.44703 2.336 0
M  V30 4286 H 425.269 -5.33874 0.297097 0
M  V30 4287 H 425.612 -4.07378 -0.857263 0
M  V30 4288 H 426.145 -3.89012 0.831556 0
M  V30 4289 H 422.884 -5.71574 3.2091 0
M  V30 4290 H 422.404 -5.80767 1.49899 0
M  V30 4291 H 424.083 -6.16043 1.97738 0
M  V30 4292 N 424.215 -0.530993 -1.48385 0
M  V30 4293 C 425.464 0.00474348 -2.01699 0
M  V30 4294 C 425.777 1.35227 -1.41325 0
M  V30 4295 O 426.983 1.97643 -1.86144 0
M  V30 4296 C 425.439 0.0588473 -3.59852 0
M  V30 4297 C 425.047 -1.28385 -4.2921 0
M  V30 4298 C 426.791 0.543358 -4.21008 0
M  V30 4299 C 424.698 -1.19028 -5.79298 0
M  V30 4300 H 423.628 0.00554317 -0.75398 0
M  V30 4301 H 426.279 -0.674924 -1.70637 0
M  V30 4302 H 424.661 0.803612 -3.8776 0
M  V30 4303 H 425.835 -2.04426 -4.12973 0
M  V30 4304 H 424.15 -1.70418 -3.7993 0
M  V30 4305 H 426.747 0.631351 -5.3096 0
M  V30 4306 H 427.09 1.54937 -3.86394 0
M  V30 4307 H 427.623 -0.145754 -3.97533 0
M  V30 4308 H 424.362 -2.17147 -6.18488 0
M  V30 4309 H 423.882 -0.471246 -5.97946 0
M  V30 4310 H 425.561 -0.881365 -6.40969 0
M  V30 4311 N 425.693 1.55336 -0.266172 0
M  V30 4312 C 426.939 1.99692 0.353681 0
M  V30 4313 C 427.272 1.1543 1.56172 0
M  V30 4314 O 426.547 0.222218 1.93226 0
M  V30 4315 C 426.83 3.52316 0.74466 0
M  V30 4316 C 426.683 4.47337 -0.470101 0
M  V30 4317 C 428.002 4.10588 1.58447 0
M  V30 4318 H 425.121 0.725961 0.12708 0
M  V30 4319 H 427.763 1.86336 -0.371333 0
M  V30 4320 H 425.913 3.63829 1.36239 0
M  V30 4321 H 427.585 4.4778 -1.10864 0
M  V30 4322 H 425.828 4.19364 -1.10978 0
M  V30 4323 H 426.499 5.51788 -0.15291 0
M  V30 4324 H 428.975 4.02297 1.06286 0
M  V30 4325 H 427.851 5.17607 1.82686 0
M  V30 4326 H 428.112 3.60253 2.56262 0
M  V30 4327 N 427.171 -0.0066808 1.57599 0
M  V30 4328 C 428.101 -0.999296 2.11036 0
M  V30 4329 C 429.082 -1.36278 1.01795 0
M  V30 4330 O 430.267 -1.4477 1.29442 0
M  V30 4331 C 427.397 -2.29328 2.60818 0
M  V30 4332 C 426.351 -2.07159 3.74525 0
M  V30 4333 C 425.677 -3.42512 4.10596 0
M  V30 4334 C 426.977 -1.43959 5.02069 0
M  V30 4335 H 428.671 -0.554382 2.94223 0
M  V30 4336 H 426.217 -0.265221 1.41536 0
M  V30 4337 H 428.17 -2.99117 2.96828 0
M  V30 4338 H 426.894 -2.7592 1.74745 0
M  V30 4339 H 425.553 -1.39797 3.38899 0
M  V30 4340 H 425.201 -3.86795 3.21556 0
M  V30 4341 H 424.901 -3.28498 4.87199 0
M  V30 4342 H 426.425 -4.13628 4.4916 0
M  V30 4343 H 427.839 -2.03696 5.35893 0
M  V30 4344 H 426.236 -1.40452 5.83432 0
M  V30 4345 H 427.306 -0.407992 4.83181 0
M  V30 4346 N 428.649 -1.55105 -0.279332 0
M  V30 4347 C 429.895 -1.75672 -1.01327 0
M  V30 4348 C 430.228 -0.552739 -1.86168 0
M  V30 4349 O 429.503 0.449827 -1.89227 0
M  V30 4350 C 429.786 -3.05825 -1.90114 0
M  V30 4351 C 429.639 -4.36565 -1.08309 0
M  V30 4352 C 430.958 -3.31975 -2.8893 0
M  V30 4353 H 428.077 -0.639149 -0.366957 0
M  V30 4354 H 430.719 -1.87833 -0.286154 0
M  V30 4355 H 428.869 -2.95588 -2.52111 0
M  V30 4356 H 430.541 -4.58751 -0.484314 0
M  V30 4357 H 428.784 -4.32076 -0.386362 0
M  V30 4358 H 429.455 -5.23946 -1.73737 0
M  V30 4359 H 431.931 -3.41963 -2.37067 0
M  V30 4360 H 430.807 -4.2432 -3.48201 0
M  V30 4361 H 431.068 -2.51309 -3.63725 0
M  V30 4362 N 430.127 0.543554 -1.4793 0
M  V30 4363 C 431.355 1.32516 -1.58894 0
M  V30 4364 C 431.77 1.87215 -0.244131 0
M  V30 4365 O 431.127 1.65709 0.764652 0
M  V30 4366 C 431.178 2.48554 -2.62494 0
M  V30 4367 O 430.899 1.96112 -3.91755 0
M  V30 4368 C 432.4 3.40572 -2.8377 0
M  V30 4369 H 429.62 0.403472 -0.536145 0
M  V30 4370 H 432.164 0.657106 -1.93655 0
M  V30 4371 H 430.319 3.1127 -2.30629 0
M  V30 4372 H 430.733 2.71967 -4.4848 0
M  V30 4373 H 432.207 4.18375 -3.60093 0
M  V30 4374 H 432.684 3.94965 -1.92092 0
M  V30 4375 H 433.29 2.8366 -3.16887 0
M  V30 4376 N 431.605 1.3629 0.791371 0
M  V30 4377 C 432.83 1.33726 1.58531 0
M  V30 4378 C 433.255 -0.0794933 1.87932 0
M  V30 4379 O 432.613 -1.05087 1.47738 0
M  V30 4380 C 432.661 2.16425 2.88431 0
M  V30 4381 O 431.765 1.5554 3.81944 0
M  V30 4382 H 431.106 0.457793 0.480959 0
M  V30 4383 H 433.636 1.79547 0.981031 0
M  V30 4384 H 433.646 2.28933 3.37718 0
M  V30 4385 H 432.321 3.19415 2.66359 0
M  V30 4386 H 430.898 1.51961 3.40532 0
M  V30 4387 N 433.083 -1.0153 1.20538 0
M  V30 4388 C 434.013 -2.11972 0.979295 0
M  V30 4389 C 434.994 -1.6985 -0.0921787 0
M  V30 4390 O 436.179 -1.94089 0.0655932 0
M  V30 4391 C 433.309 -3.43201 0.531984 0
M  V30 4392 C 432.263 -3.9907 1.54685 0
M  V30 4393 C 431.589 -5.26082 0.956127 0
M  V30 4394 C 432.889 -4.32313 2.93092 0
M  V30 4395 H 434.583 -2.31143 1.90298 0
M  V30 4396 H 432.129 -1.11079 0.916372 0
M  V30 4397 H 434.082 -4.1985 0.361044 0
M  V30 4398 H 432.806 -3.23792 -0.427327 0
M  V30 4399 H 431.465 -3.2453 1.70517 0
M  V30 4400 H 431.113 -5.02999 -0.0111538 0
M  V30 4401 H 430.813 -5.64426 1.63393 0
M  V30 4402 H 432.337 -6.05386 0.796284 0
M  V30 4403 H 433.751 -4.99845 2.80763 0
M  V30 4404 H 432.148 -4.81774 3.57791 0
M  V30 4405 H 433.218 -3.41025 3.44717 0
M  V30 4406 N 434.561 -1.01147 -1.20859 0
M  V30 4407 C 435.809 -0.696486 -1.89719 0
M  V30 4408 C 436.13 0.775788 -1.78904 0
M  V30 4409 O 435.4 1.55759 -1.18811 0
M  V30 4410 H 433.98 -0.254628 -0.702263 0
M  V30 4411 H 436.642 -1.28197 -1.46804 0
M  V30 4412 H 435.738 -0.975357 -2.96468 0
M  V30 4413 N 436.039 1.36541 -0.78704 0
M  V30 4414 C 436.986 2.30082 -0.181901 0
M  V30 4415 C 437.956 1.5186 0.672896 0
M  V30 4416 O 439.141 1.80374 0.622072 0
M  V30 4417 C 436.281 3.3835 0.679197 0
M  V30 4418 C 435.394 4.31565 -0.193882 0
M  V30 4419 C 434.529 5.26915 0.673364 0
M  V30 4420 C 433.568 6.11769 -0.201315 0
M  V30 4421 N 432.705 6.99315 0.624777 0
M  V30 4422 H 437.545 2.81248 -0.985064 0
M  V30 4423 H 435.082 1.38437 -0.497342 0
M  V30 4424 H 437.04 3.99767 1.19341 0
M  V30 4425 H 435.67 2.8851 1.44781 0
M  V30 4426 H 434.722 3.71323 -0.826044 0
M  V30 4427 H 436.034 4.91191 -0.867937 0
M  V30 4428 H 435.188 5.9361 1.25348 0
M  V30 4429 H 433.927 4.67737 1.38105 0
M  V30 4430 H 432.932 5.44039 -0.793849 0
M  V30 4431 H 434.157 6.73022 -0.906568 0
M  V30 4432 H 432.103 6.42648 1.3168 0
M  V30 4433 H 432.02 7.56 0.00835237 0
M  V30 4434 H 433.288 7.70382 1.18879 0
M  V30 4435 N 437.518 0.538854 1.48102 0
M  V30 4436 C 438.748 0.0122958 2.06596 0
M  V30 4437 C 439.156 -1.27861 1.39457 0
M  V30 4438 O 438.499 -1.77348 0.478907 0
M  V30 4439 C 438.561 -0.273131 3.58461 0
M  V30 4440 C 438.225 0.92561 4.47528 0
M  V30 4441 C 439.222 1.82637 4.86765 0
M  V30 4442 C 436.907 1.13511 4.89306 0
M  V30 4443 C 438.901 2.92047 5.66558 0
M  V30 4444 C 436.588 2.23233 5.68868 0
M  V30 4445 C 437.586 3.12333 6.07402 0
M  V30 4446 O 437.274 4.20155 6.85365 0
M  V30 4447 H 437.006 0.0344283 0.675123 0
M  V30 4448 H 439.56 0.746494 1.91355 0
M  V30 4449 H 437.79 -1.06141 3.71848 0
M  V30 4450 H 439.479 -0.742842 3.99045 0
M  V30 4451 H 440.245 1.67649 4.55103 0
M  V30 4452 H 436.124 0.450835 4.5879 0
M  V30 4453 H 439.668 3.6162 5.96554 0
M  V30 4454 H 435.565 2.38201 5.99942 0
M  V30 4455 H 436.333 4.17975 7.03732 0
M  V30 4456 N 438.996 -1.55193 0.274407 0
M  V30 4457 C 440.245 -1.98758 -0.343213 0
M  V30 4458 C 440.558 -1.16624 -1.5703 0
M  V30 4459 O 441.764 -1.5033 -2.26082 0
M  V30 4460 C 440.22 -3.53759 -0.661996 0
M  V30 4461 C 439.828 -4.4467 0.54524 0
M  V30 4462 C 441.572 -4.05916 -1.24228 0
M  V30 4463 C 439.479 -5.91058 0.201084 0
M  V30 4464 H 438.409 -0.742353 -0.132014 0
M  V30 4465 H 441.06 -1.79545 0.378948 0
M  V30 4466 H 439.442 -3.68772 -1.44304 0
M  V30 4467 H 440.616 -4.41426 1.32212 0
M  V30 4468 H 438.931 -4.03143 1.04232 0
M  V30 4469 H 441.528 -5.12831 -1.51357 0
M  V30 4470 H 441.871 -3.54908 -2.17592 0
M  V30 4471 H 442.404 -3.9434 -0.523542 0
M  V30 4472 H 439.143 -6.46161 1.10258 0
M  V30 4473 H 438.663 -5.97373 -0.539045 0
M  V30 4474 H 440.342 -6.46669 -0.206954 0
M  V30 4475 N 440.474 -0.00167713 -1.576 0
M  V30 4476 C 441.721 0.68282 -1.90641 0
M  V30 4477 C 442.049 1.73686 -0.875415 0
M  V30 4478 O 441.304 1.95334 0.119575 0
M  V30 4479 C 441.603 1.36189 -3.30435 0
M  V30 4480 C 441.269 0.440887 -4.48739 0
M  V30 4481 C 439.931 0.187312 -4.80835 0
M  V30 4482 C 442.283 -0.193134 -5.20842 0
M  V30 4483 C 439.611 -0.70855 -5.82406 0
M  V30 4484 C 441.963 -1.07688 -6.23367 0
M  V30 4485 C 440.627 -1.33962 -6.53919 0
M  V30 4486 H 439.897 0.249862 -0.697603 0
M  V30 4487 H 442.544 -0.0575642 -1.91413 0
M  V30 4488 H 440.849 2.17636 -3.25794 0
M  V30 4489 H 442.546 1.89759 -3.5326 0
M  V30 4490 H 439.136 0.648694 -4.23663 0
M  V30 4491 H 443.32 -0.0102445 -4.96299 0
M  V30 4492 H 438.576 -0.920097 -6.04437 0
M  V30 4493 H 442.75 -1.57451 -6.78367 0
M  V30 4494 H 440.377 -2.03549 -7.32442 0
M  V30 4495 N 441.952 1.55251 0.271103 0
M  V30 4496 C 442.915 1.87484 1.31842 0
M  V30 4497 C 443.915 0.749545 1.42262 0
M  V30 4498 O 445.105 1.01771 1.4138 0
M  V30 4499 C 442.237 2.0818 2.69951 0
M  V30 4500 H 443.43 2.81108 1.0449 0
M  V30 4501 H 440.983 1.47771 0.509258 0
M  V30 4502 H 441.718 1.16944 3.02481 0
M  V30 4503 H 441.503 2.90114 2.63774 0
M  V30 4504 H 442.993 2.34385 3.4562 0
M  V30 4505 N 443.43 -0.535701 1.48216 0
M  V30 4506 C 444.655 -1.32149 1.59848 0
M  V30 4507 C 445.08 -1.86338 0.256842 0
M  V30 4508 O 444.438 -1.64107 -0.770632 0
M  V30 4509 C 444.486 -2.45224 2.64381 0
M  V30 4510 O 443.59 -3.48093 2.21144 0
M  V30 4511 H 442.931 -0.391634 0.536208 0
M  V30 4512 H 445.461 -0.645202 1.94161 0
M  V30 4513 H 445.471 -2.91491 2.85476 0
M  V30 4514 H 444.146 -2.05143 3.61786 0
M  V30 4515 H 442.723 -3.07984 2.10239 0
M  V30 4516 N 444.908 -1.36708 -0.784132 0
M  V30 4517 C 446.157 -1.30559 -1.53744 0
M  V30 4518 C 446.47 0.111374 -1.95283 0
M  V30 4519 O 447.676 0.29527 -2.6989 0
M  V30 4520 C 446.132 -2.29098 -2.77565 0
M  V30 4521 C 445.74 -3.76258 -2.43174 0
M  V30 4522 C 447.484 -2.31936 -3.55536 0
M  V30 4523 C 445.391 -4.6656 -3.63422 0
M  V30 4524 H 444.321 -0.48518 -0.577162 0
M  V30 4525 H 446.972 -1.62101 -0.859981 0
M  V30 4526 H 445.354 -1.90557 -3.47137 0
M  V30 4527 H 446.528 -4.23565 -1.81465 0
M  V30 4528 H 444.843 -3.76246 -1.78403 0
M  V30 4529 H 447.44 -2.9661 -4.44889 0
M  V30 4530 H 447.783 -1.3294 -3.94503 0
M  V30 4531 H 448.316 -2.6912 -2.92949 0
M  V30 4532 H 445.055 -5.66638 -3.29547 0
M  V30 4533 H 444.575 -4.23966 -4.24279 0
M  V30 4534 H 446.254 -4.8309 -4.30387 0
M  V30 4535 N 446.386 1.0089 -1.21074 0
M  V30 4536 C 447.316 2.1145 -0.990523 0
M  V30 4537 C 448.297 1.69897 0.0831699 0
M  V30 4538 O 449.482 1.94052 -0.0758853 0
M  V30 4539 C 446.612 3.42914 -0.550177 0
M  V30 4540 C 445.566 3.98244 -1.56799 0
M  V30 4541 C 444.892 5.25568 -0.984013 0
M  V30 4542 C 446.192 4.30752 -2.95381 0
M  V30 4543 H 447.886 2.3013 -1.91521 0
M  V30 4544 H 445.432 1.10592 -0.92225 0
M  V30 4545 H 447.385 4.19653 -0.383305 0
M  V30 4546 H 446.109 3.24014 0.41015 0
M  V30 4547 H 444.768 3.23621 -1.72236 0
M  V30 4548 H 444.416 5.02998 -0.0155216 0
M  V30 4549 H 444.116 5.63551 -1.66384 0
M  V30 4550 H 445.64 6.04955 -0.828378 0
M  V30 4551 H 447.054 4.98349 -2.8341 0
M  V30 4552 H 445.451 4.79869 -3.60341 0
M  V30 4553 H 446.521 3.39192 -3.46521 0
M  V30 4554 N 447.864 1.01787 1.20321 0
M  V30 4555 C 449.112 0.706538 1.89347 0
M  V30 4556 C 449.433 -0.766289 1.79313 0
M  V30 4557 O 448.703 -1.55126 1.19635 0
M  V30 4558 H 447.283 0.258348 0.700903 0
M  V30 4559 H 449.945 1.28974 1.46122 0
M  V30 4560 H 449.041 0.991066 2.95946 0
M  V30 4561 N 449.342 -1.36122 0.79427 0
M  V30 4562 C 450.292 -2.27373 0.169017 0
M  V30 4563 C 451.276 -1.4719 -0.649913 0
M  V30 4564 O 452.468 -1.69518 -0.50919 0
M  V30 4565 C 449.597 -3.36264 -0.691455 0
M  V30 4566 C 448.683 -4.2388 0.13653 0
M  V30 4567 N 449.074 -4.91519 1.19345 0
M  V30 4568 C 447.372 -4.45921 -0.0838499 0
M  V30 4569 C 448.073 -5.56369 1.6979 0
M  V30 4570 N 447.049 -5.34204 1.00634 0
M  V30 4571 H 450.851 -2.77154 0.977897 0
M  V30 4572 H 448.365 -1.49504 0.634208 0
M  V30 4573 H 450.362 -4.00572 -1.15534 0
M  V30 4574 H 449.022 -2.88037 -1.49883 0
M  V30 4575 H 450.033 -4.9334 1.57594 0
M  V30 4576 H 446.71 -4.08518 -0.861341 0
M  V30 4577 H 448.1 -6.20368 2.58055 0
M  V30 4578 N 450.82 -0.546701 -1.47814 0
M  V30 4579 C 452.066 -0.0187684 -2.02791 0
M  V30 4580 C 452.399 1.32338 -1.42128 0
M  V30 4581 O 451.674 1.85867 -0.573023 0
M  V30 4582 C 451.957 0.0854985 -3.59998 0
M  V30 4583 C 451.81 -1.283 -4.31114 0
M  V30 4584 C 453.129 0.80412 -4.32691 0
M  V30 4585 H 450.248 -0.0082946 -0.736953 0
M  V30 4586 H 452.89 -0.706962 -1.76358 0
M  V30 4587 H 451.04 0.671609 -3.82651 0
M  V30 4588 H 452.712 -1.91151 -4.19832 0
M  V30 4589 H 450.955 -1.86049 -3.91878 0
M  V30 4590 H 451.626 -1.16287 -5.39612 0
M  V30 4591 H 454.102 0.306576 -4.14969 0
M  V30 4592 H 452.978 0.846011 -5.42341 0
M  V30 4593 H 453.239 1.85802 -4.01161 0
M  V30 4594 N 452.299 1.55045 -0.282633 0
M  V30 4595 C 453.548 1.98938 0.332667 0
M  V30 4596 C 453.861 1.17455 1.56409 0
M  V30 4597 O 455.067 1.51527 2.25282 0
M  V30 4598 C 453.523 3.54105 0.643226 0
M  V30 4599 C 453.131 4.44374 -0.568814 0
M  V30 4600 C 454.875 4.06569 1.22074 0
M  V30 4601 C 452.782 5.90943 -0.232426 0
M  V30 4602 H 451.712 0.743043 0.128075 0
M  V30 4603 H 454.363 1.79341 -0.388464 0
M  V30 4604 H 452.745 3.69532 1.42346 0
M  V30 4605 H 453.919 4.40718 -1.34551 0
M  V30 4606 H 452.234 4.02585 -1.06369 0
M  V30 4607 H 454.831 5.13626 1.48635 0
M  V30 4608 H 455.174 3.56057 2.15707 0
M  V30 4609 H 455.707 3.94612 0.502621 0
M  V30 4610 H 452.446 6.45567 -1.13683 0
M  V30 4611 H 451.966 5.9765 0.507357 0
M  V30 4612 H 453.645 6.4677 0.172657 0
M  V30 4613 N 453.777 0.010035 1.57597 0
M  V30 4614 C 454.727 -0.986858 2.05536 0
M  V30 4615 C 455.711 -1.29711 0.952042 0
M  V30 4616 O 456.903 -1.28641 1.21575 0
M  V30 4617 C 454.032 -2.2756 2.57043 0
M  V30 4618 C 453.118 -1.99455 3.74271 0
M  V30 4619 N 453.509 -1.41546 4.85591 0
M  V30 4620 C 451.807 -2.29547 3.82393 0
M  V30 4621 C 452.508 -1.3014 5.66956 0
M  V30 4622 N 451.484 -1.79044 5.13268 0
M  V30 4623 H 455.286 -0.533778 2.89012 0
M  V30 4624 H 452.8 -0.195432 1.6122 0
M  V30 4625 H 454.797 -2.99829 2.89669 0
M  V30 4626 H 453.457 -2.73512 1.7499 0
M  V30 4627 H 454.468 -1.09294 5.06236 0
M  V30 4628 H 451.145 -2.78304 3.11213 0
M  V30 4629 H 452.535 -0.855237 6.66435 0
M  V30 4630 N 455.255 -1.55392 -0.262866 0
M  V30 4631 C 456.503 -1.76127 -0.991147 0
M  V30 4632 C 456.824 -0.571083 -1.8645 0
M  V30 4633 O 456.094 0.413698 -1.91482 0
M  V30 4634 H 454.674 -0.649528 -0.368948 0
M  V30 4635 H 457.336 -1.9281 -0.284655 0
M  V30 4636 H 456.432 -2.6663 -1.62219 0
M  V30 4637 N 456.733 0.527833 -1.48498 0
M  V30 4638 C 457.981 1.28101 -1.56316 0
M  V30 4639 C 458.302 1.9352 -0.239781 0
M  V30 4640 O 457.572 1.81433 0.738849 0
M  V30 4641 H 456.152 0.475793 -0.575873 0
M  V30 4642 H 458.814 0.614052 -1.84974 0
M  V30 4643 H 457.91 2.05916 -2.34532 0
M  V30 4644 N 458.211 1.37122 0.776871 0
M  V30 4645 C 459.46 1.31373 1.53049 0
M  V30 4646 C 459.773 -0.101016 1.95339 0
M  V30 4647 O 460.979 -0.280953 2.70042 0
M  V30 4648 C 459.435 2.30567 2.76346 0
M  V30 4649 C 459.043 3.77543 2.41175 0
M  V30 4650 C 460.787 2.33818 3.54301 0
M  V30 4651 C 458.694 4.68481 3.60943 0
M  V30 4652 H 457.624 0.488234 0.574581 0
M  V30 4653 H 460.275 1.62554 0.851372 0
M  V30 4654 H 458.657 1.92396 3.46121 0
M  V30 4655 H 459.831 4.24521 1.79216 0
M  V30 4656 H 458.146 3.77187 1.76405 0
M  V30 4657 H 460.743 2.98965 4.4331 0
M  V30 4658 H 461.086 1.3503 3.93793 0
M  V30 4659 H 461.619 2.7067 2.91518 0
M  V30 4660 H 458.358 5.68378 3.26537 0
M  V30 4661 H 457.878 4.2621 4.22025 0
M  V30 4662 H 459.557 4.85366 4.27819 0
M  V30 4663 N 459.689 -1.00246 1.21608 0
M  V30 4664 C 460.935 -1.74319 1.03638 0
M  V30 4665 C 461.268 -1.89408 -0.428749 0
M  V30 4666 O 460.543 -1.43026 -1.3181 0
M  V30 4667 C 460.826 -3.15431 1.73711 0
M  V30 4668 C 460.679 -3.08049 3.27759 0
M  V30 4669 C 461.998 -4.14407 1.48173 0
M  V30 4670 H 459.117 -0.632741 0.377899 0
M  V30 4671 H 461.759 -1.16853 1.49818 0
M  V30 4672 H 459.909 -3.64493 1.34452 0
M  V30 4673 H 461.581 -2.66681 3.76403 0
M  V30 4674 H 459.824 -2.45088 3.57931 0
M  V30 4675 H 460.495 -4.07862 3.71958 0
M  V30 4676 H 462.971 -3.74061 1.82258 0
M  V30 4677 H 461.847 -5.11279 1.99713 0
M  V30 4678 H 462.108 -4.40174 0.412273 0
M  V30 4679 N 461.167 -1.02423 -1.1978 0
M  V30 4680 C 462.097 -0.62157 -2.25075 0
M  V30 4681 C 463.078 0.367148 -1.6609 0
M  V30 4682 O 464.263 0.250892 -1.92573 0
M  V30 4683 C 461.393 0.0331826 -3.47284 0
M  V30 4684 C 460.347 -0.877323 -4.18912 0
M  V30 4685 C 459.673 -0.0879296 -5.34628 0
M  V30 4686 C 460.973 -2.18892 -4.74219 0
M  V30 4687 H 462.667 -1.50179 -2.59011 0
M  V30 4688 H 460.213 -0.723547 -1.24502 0
M  V30 4689 H 462.166 0.326488 -4.20133 0
M  V30 4690 H 460.89 0.948164 -3.12534 0
M  V30 4691 H 459.549 -1.15475 -3.47938 0
M  V30 4692 H 459.197 0.828941 -4.96123 0
M  V30 4693 H 458.897 -0.694359 -5.83483 0
M  V30 4694 H 460.421 0.198743 -6.10276 0
M  V30 4695 H 461.835 -1.95746 -5.38847 0
M  V30 4696 H 460.232 -2.74686 -5.33542 0
M  V30 4697 H 461.302 -2.84674 -3.92541 0
M  V30 4698 N 462.645 1.35699 -0.801477 0
M  V30 4699 C 464.056 1.81415 -0.441073 0
M  V30 4700 C 464.407 1.66595 1.03636 0
M  V30 4701 O 463.532 1.19369 1.80499 0
M  V30 4702 C 464.127 3.29369 -0.793819 0
M  V30 4703 C 462.686 3.73248 -0.486083 0
M  V30 4704 C 461.833 2.57775 -1.02213 0
M  V30 4705 H 464.784 1.23749 -0.993572 0
M  V30 4706 H 464.805 3.80395 -0.0894158 0
M  V30 4707 H 464.317 3.40123 -1.86917 0
M  V30 4708 H 462.418 3.68046 0.580735 0
M  V30 4709 H 462.531 4.68222 -1.01513 0
M  V30 4710 H 460.895 2.50788 -0.444712 0
M  V30 4711 H 461.678 2.71309 -2.10348 0
M  V30 4712 N 464.123 0.554532 1.47522 0
M  V30 4713 C 465.053 -0.182974 2.32782 0
M  V30 4714 C 466.034 -0.911377 1.43624 0
M  V30 4715 O 467.219 -0.892366 1.72483 0
M  V30 4716 C 464.349 -1.21513 3.25349 0
M  V30 4717 C 463.303 -0.603355 4.23726 0
M  V30 4718 C 462.629 -1.73995 5.05598 0
M  V30 4719 C 463.929 0.441121 5.20434 0
M  V30 4720 H 465.623 0.52882 2.94693 0
M  V30 4721 H 463.169 0.255759 1.41711 0
M  V30 4722 H 465.122 -1.73922 3.83835 0
M  V30 4723 H 463.846 -1.95683 2.61487 0
M  V30 4724 H 462.505 -0.10059 3.66462 0
M  V30 4725 H 462.153 -2.47063 4.38143 0
M  V30 4726 H 461.853 -1.3364 5.72201 0
M  V30 4727 H 463.377 -2.26735 5.66942 0
M  V30 4728 H 464.791 0.00319931 5.733 0
M  V30 4729 H 463.188 0.763402 5.95224 0
M  V30 4730 H 464.258 1.33799 4.66075 0
M  V30 4731 N 465.601 -1.54893 0.290851 0
M  V30 4732 C 466.85 -1.99111 -0.322113 0
M  V30 4733 C 467.163 -1.18283 -1.55784 0
M  V30 4734 O 468.369 -1.5272 -2.24475 0
M  V30 4735 C 466.825 -3.54442 -0.624438 0
M  V30 4736 C 466.433 -4.44066 0.592373 0
M  V30 4737 C 468.177 -4.07211 -1.19916 0
M  V30 4738 C 466.084 -5.90812 0.263762 0
M  V30 4739 H 465.014 -0.743712 -0.124133 0
M  V30 4740 H 467.665 -1.79132 0.39797 0
M  V30 4741 H 466.047 -3.70281 -1.40384 0
M  V30 4742 H 467.221 -4.39999 1.36886 0
M  V30 4743 H 465.536 -4.02015 1.08502 0
M  V30 4744 H 468.133 -5.14407 -1.45909 0
M  V30 4745 H 468.476 -3.57196 -2.13815 0
M  V30 4746 H 469.009 -3.94873 -0.481687 0
M  V30 4747 H 465.748 -6.44955 1.17105 0
M  V30 4748 H 465.268 -5.97911 -0.475655 0
M  V30 4749 H 466.947 -6.46852 -0.138354 0
M  V30 4750 N 467.08 -0.0183926 -1.57589 0
M  V30 4751 C 468.31 0.67207 -1.95363 0
M  V30 4752 C 468.718 1.66807 -0.892872 0
M  V30 4753 O 468.061 1.83204 0.134958 0
M  V30 4754 C 468.123 1.44397 -3.29226 0
M  V30 4755 C 467.787 0.607511 -4.52944 0
M  V30 4756 C 468.784 -0.112657 -5.19778 0
M  V30 4757 C 466.469 0.548068 -4.99301 0
M  V30 4758 C 468.463 -0.881057 -6.31281 0
M  V30 4759 C 466.15 -0.224044 -6.10689 0
M  V30 4760 C 467.148 -0.937323 -6.76538 0
M  V30 4761 O 466.836 -1.6968 -7.85789 0
M  V30 4762 H 466.568 0.190925 -0.648478 0
M  V30 4763 H 469.122 -0.0711994 -2.05277 0
M  V30 4764 H 467.352 2.23214 -3.15773 0
M  V30 4765 H 469.041 2.02152 -3.51979 0
M  V30 4766 H 469.807 -0.0759998 -4.8494 0
M  V30 4767 H 465.686 1.09281 -4.4786 0
M  V30 4768 H 469.23 -1.43832 -6.82611 0
M  V30 4769 H 465.127 -0.262457 -6.44966 0
M  V30 4770 H 465.895 -1.61544 -8.024 0
M  V30 4771 N 468.558 1.5553 0.254621 0
M  V30 4772 C 469.805 1.77 0.983736 0
M  V30 4773 C 470.133 0.58133 1.85609 0
M  V30 4774 O 469.388 -0.435621 1.9079 0
M  V30 4775 C 469.687 3.03891 1.88109 0
M  V30 4776 C 469.353 4.35597 1.16472 0
M  V30 4777 C 468.015 4.7139 0.966714 0
M  V30 4778 C 470.367 5.1705 0.656387 0
M  V30 4779 C 467.695 5.86176 0.247942 0
M  V30 4780 C 470.047 6.32581 -0.0488807 0
M  V30 4781 C 468.711 6.67 -0.258438 0
M  V30 4782 H 467.981 0.647688 0.359974 0
M  V30 4783 H 470.628 1.89802 0.254463 0
M  V30 4784 H 468.933 2.86068 2.67717 0
M  V30 4785 H 470.63 3.17701 2.44677 0
M  V30 4786 H 467.22 4.07475 1.32899 0
M  V30 4787 H 471.404 4.8986 0.796933 0
M  V30 4788 H 466.66 6.11354 0.075035 0
M  V30 4789 H 470.834 6.94942 -0.450444 0
M  V30 4790 H 468.461 7.55793 -0.817358 0
M  V30 4791 N 470.036 -0.519951 1.48776 0
M  V30 4792 C 471.282 -1.27711 1.57536 0
M  V30 4793 C 471.615 -1.92547 0.252866 0
M  V30 4794 O 470.89 -1.7979 -0.742021 0
M  V30 4795 C 471.173 -2.35875 2.72094 0
M  V30 4796 C 471.026 -1.75664 4.1408 0
M  V30 4797 C 472.345 -3.37575 2.82367 0
M  V30 4798 H 469.464 -0.462971 0.573434 0
M  V30 4799 H 472.106 -0.578194 1.80989 0
M  V30 4800 H 470.256 -2.95488 2.52228 0
M  V30 4801 H 471.928 -1.20025 4.45412 0
M  V30 4802 H 470.171 -1.06154 4.20611 0
M  V30 4803 H 470.842 -2.54029 4.90075 0
M  V30 4804 H 473.318 -2.87929 3.00393 0
M  V30 4805 H 472.194 -4.1064 3.64233 0
M  V30 4806 H 472.455 -3.98743 1.90936 0
M  V30 4807 N 471.514 -1.37532 -0.769588 0
M  V30 4808 C 472.761 -1.3286 -1.52822 0
M  V30 4809 C 473.089 0.0862597 -1.94309 0
M  V30 4810 O 472.344 1.05995 -1.6451 0
M  V30 4811 C 472.643 -2.21558 -2.8044 0
M  V30 4812 C 472.309 -3.69796 -2.57996 0
M  V30 4813 C 470.971 -4.10194 -2.51583 0
M  V30 4814 C 473.323 -4.63699 -2.37976 0
M  V30 4815 C 470.651 -5.42608 -2.23144 0
M  V30 4816 C 473.003 -5.96353 -2.1106 0
M  V30 4817 C 471.667 -6.35853 -2.03093 0
M  V30 4818 H 470.937 -0.486168 -0.559215 0
M  V30 4819 H 473.584 -1.69757 -0.886277 0
M  V30 4820 H 471.889 -1.77663 -3.49204 0
M  V30 4821 H 473.586 -2.15256 -3.38328 0
M  V30 4822 H 470.176 -3.37759 -2.63851 0
M  V30 4823 H 474.36 -4.33346 -2.41919 0
M  V30 4824 H 469.616 -5.72173 -2.15472 0
M  V30 4825 H 473.79 -6.68667 -1.94568 0
M  V30 4826 H 471.417 -7.38382 -1.8082 0
M  V30 4827 N 472.992 0.995999 -1.22138 0
M  V30 4828 C 474.22 1.77066 -1.07029 0
M  V30 4829 C 474.635 1.8495 0.379357 0
M  V30 4830 O 473.992 1.3174 1.26297 0
M  V30 4831 C 474.043 3.20533 -1.67155 0
M  V30 4832 O 473.764 3.13082 -3.06449 0
M  V30 4833 C 475.265 4.14461 -1.5728 0
M  V30 4834 H 472.485 0.556179 -0.375374 0
M  V30 4835 H 475.029 1.25238 -1.61666 0
M  V30 4836 H 473.184 3.6944 -1.16589 0
M  V30 4837 H 473.598 4.03283 -3.35355 0
M  V30 4838 H 475.072 5.1289 -2.04078 0
M  V30 4839 H 475.549 4.36005 -0.528795 0
M  V30 4840 H 476.155 3.71449 -2.07136 0
M  V30 4841 N 474.47 1.03057 1.19235 0
M  V30 4842 C 475.886 0.747947 1.40989 0
M  V30 4843 C 476.086 -0.666752 1.90149 0
M  V30 4844 O 475.142 -1.43249 2.07933 0
M  V30 4845 C 476.455 1.7855 2.41951 0
M  V30 4846 C 478.003 1.80524 2.55695 0
M  V30 4847 C 478.478 2.83243 3.59913 0
M  V30 4848 N 479.969 2.8207 3.67411 0
M  V30 4849 C 480.704 3.58204 4.47747 0
M  V30 4850 N 480.2 4.44057 5.31775 0
M  V30 4851 N 481.993 3.46738 4.42413 0
M  V30 4852 H 474.144 1.94367 0.856468 0
M  V30 4853 H 476.407 0.840412 0.438647 0
M  V30 4854 H 476.113 2.79973 2.12857 0
M  V30 4855 H 475.987 1.6092 3.41152 0
M  V30 4856 H 478.374 0.79778 2.84112 0
M  V30 4857 H 478.455 2.02229 1.56643 0
M  V30 4858 H 478.099 3.84161 3.32239 0
M  V30 4859 H 478.029 2.58795 4.5862 0
M  V30 4860 H 480.52 2.19803 3.074 0
M  V30 4861 H 480.833 4.98884 5.90199 0
M  V30 4862 H 479.178 4.48129 5.3123 0
M  V30 4863 H 482.369 2.79077 3.75811 0
M  V30 4864 H 482.542 4.06322 5.04783 0
M  V30 4865 N 475.948 -1.35272 0.808662 0
M  V30 4866 C 476.895 -2.29764 0.218482 0
M  V30 4867 C 477.865 -1.52911 -0.648652 0
M  V30 4868 O 479.05 -1.81341 -0.593297 0
M  V30 4869 C 476.19 -3.39388 -0.625282 0
M  V30 4870 C 475.303 -4.31202 0.262516 0
M  V30 4871 C 474.438 -5.27919 -0.589451 0
M  V30 4872 C 473.477 -6.11371 0.298617 0
M  V30 4873 N 472.614 -7.0022 -0.513443 0
M  V30 4874 H 477.454 -2.79645 1.02968 0
M  V30 4875 H 474.991 -1.37629 0.519303 0
M  V30 4876 H 476.949 -4.01615 -1.12966 0
M  V30 4877 H 475.579 -2.90777 -1.40173 0
M  V30 4878 H 474.631 -3.69962 0.885013 0
M  V30 4879 H 475.943 -4.89748 0.945971 0
M  V30 4880 H 475.097 -5.95529 -1.15888 0
M  V30 4881 H 473.836 -4.69875 -1.30647 0
M  V30 4882 H 472.841 -5.42707 0.880301 0
M  V30 4883 H 474.066 -6.71494 1.01352 0
M  V30 4884 H 472.012 -6.44662 -1.21439 0
M  V30 4885 H 471.929 -7.55917 0.111922 0
M  V30 4886 H 473.197 -7.72175 -1.06608 0
M  V30 4887 N 477.426 -0.562348 -1.47226 0
M  V30 4888 C 478.374 0.195476 -2.31777 0
M  V30 4889 C 479.368 0.90433 -1.43242 0
M  V30 4890 O 480.574 0.825031 -1.59979 0
M  V30 4891 H 476.949 0.0819095 -0.747526 0
M  V30 4892 H 478.92 -0.536753 -2.93533 0
M  V30 4893 C 477.669 1.20902 -3.26003 0
M  V30 4894 H 476.992 0.672997 -3.94095 0
M  V30 4895 H 478.432 1.71006 -3.87986 0
M  V30 4896 C 476.891 2.25955 -2.49891 0
M  V30 4897 O 477.421 3.32969 -2.2471 0
M  V30 4898 N 475.627 2.00019 -2.1081 0
M  V30 4899 H 475.174 1.13006 -2.31489 0
M  V30 4900 H 475.132 2.70523 -1.60201 0
M  V30 4901 N 478.904 1.54736 -0.299062 0
M  V30 4902 C 480.315 1.8569 0.193971 0
M  V30 4903 C 480.666 1.22101 1.53577 0
M  V30 4904 O 479.791 0.51799 2.10109 0
M  V30 4905 C 480.386 3.36895 0.358733 0
M  V30 4906 C 478.945 3.67887 0.795986 0
M  V30 4907 C 478.092 2.77131 -0.096807 0
M  V30 4908 H 481.043 1.49934 -0.520134 0
M  V30 4909 H 481.064 3.61294 1.19361 0
M  V30 4910 H 480.576 3.83148 -0.617998 0
M  V30 4911 H 478.677 3.27151 1.78334 0
M  V30 4912 H 478.79 4.75114 0.616718 0
M  V30 4913 H 477.154 2.51153 0.423581 0
M  V30 4914 H 477.937 3.26204 -1.06986 0
M  V30 4915 N 480.382 0.0267497 1.57577 0
M  V30 4916 C 481.629 -0.652404 1.91703 0
M  V30 4917 C 481.957 -1.72271 0.902936 0
M  V30 4918 O 481.212 -1.955 -0.0884843 0
M  V30 4919 C 481.511 -1.30914 3.3256 0
M  V30 4920 C 481.177 -0.369441 4.49384 0
M  V30 4921 C 479.839 -0.110791 4.81072 0
M  V30 4922 C 482.191 0.275971 5.20469 0
M  V30 4923 C 479.519 0.801116 5.81205 0
M  V30 4924 C 481.871 1.17592 6.21575 0
M  V30 4925 C 480.535 1.44348 6.51705 0
M  V30 4926 H 479.805 -0.238732 0.70149 0
M  V30 4927 H 482.452 0.0880091 1.91298 0
M  V30 4928 H 480.757 -2.12425 3.29216 0
M  V30 4929 H 482.454 -1.84115 3.56234 0
M  V30 4930 H 479.044 -0.581211 4.24641 0
M  V30 4931 H 483.228 0.0892 4.9622 0
M  V30 4932 H 478.484 1.01614 6.02897 0
M  V30 4933 H 482.658 1.68223 6.75777 0
M  V30 4934 H 480.285 2.15176 7.29111 0
M  V30 4935 N 481.861 -1.55662 -0.24637 0
M  V30 4936 C 483.277 -1.48098 -0.594907 0
M  V30 4937 C 483.477 -0.717044 -1.8831 0
M  V30 4938 O 482.533 -0.246618 -2.51293 0
M  V30 4939 C 483.846 -2.92507 -0.697146 0
M  V30 4940 C 485.394 -3.02881 -0.789436 0
M  V30 4941 C 485.869 -4.48598 -0.923232 0
M  V30 4942 N 487.36 -4.52538 -0.988088 0
M  V30 4943 C 488.095 -5.62536 -1.11089 0
M  V30 4944 N 487.591 -6.82342 -1.19919 0
M  V30 4945 N 489.384 -5.50334 -1.14408 0
M  V30 4946 H 481.535 -2.0377 0.599278 0
M  V30 4947 H 483.798 -0.925145 0.20691 0
M  V30 4948 H 483.504 -3.51242 0.179396 0
M  V30 4949 H 483.378 -3.43024 -1.5689 0
M  V30 4950 H 485.765 -2.44226 -1.65643 0
M  V30 4951 H 485.846 -2.55574 0.107482 0
M  V30 4952 H 485.49 -5.07864 -0.0607927 0
M  V30 4953 H 485.42 -4.93587 -1.8352 0
M  V30 4954 H 487.911 -3.66248 -0.931167 0
M  V30 4955 H 488.224 -7.61924 -1.29197 0
M  V30 4956 H 486.569 -6.85102 -1.16876 0
M  V30 4957 H 489.76 -4.5567 -1.07158 0
M  V30 4958 H 489.933 -6.36096 -1.23634 0
M  V30 4959 N 483.339 0.512053 -1.4905 0
M  V30 4960 C 484.586 1.26686 -1.57978 0
M  V30 4961 C 484.914 1.92733 -0.261553 0
M  V30 4962 O 484.169 1.80772 0.749667 0
M  V30 4963 C 484.468 2.36446 -2.68008 0
M  V30 4964 C 484.134 1.87932 -4.09869 0
M  V30 4965 C 482.796 1.74419 -4.48477 0
M  V30 4966 C 485.148 1.5149 -4.98698 0
M  V30 4967 C 482.476 1.22827 -5.73699 0
M  V30 4968 C 484.828 1.01355 -6.24428 0
M  V30 4969 C 483.492 0.864735 -6.61875 0
M  V30 4970 H 482.762 0.463577 -0.578081 0
M  V30 4971 H 485.409 0.569421 -1.82838 0
M  V30 4972 H 483.714 3.11933 -2.37076 0
M  V30 4973 H 485.411 2.9453 -2.72127 0
M  V30 4974 H 482.001 1.99405 -3.79389 0
M  V30 4975 H 486.185 1.60782 -4.69535 0
M  V30 4976 H 481.441 1.10008 -6.01422 0
M  V30 4977 H 485.615 0.722351 -6.92644 0
M  V30 4978 H 483.242 0.462777 -7.5879 0
M  V30 4979 N 484.817 1.37938 0.762283 0
M  V30 4980 C 485.747 1.37176 1.88958 0
M  V30 4981 C 486.728 0.238945 1.68413 0
M  V30 4982 O 487.913 0.440726 1.89133 0
M  V30 4983 C 485.043 1.18742 3.2637 0
M  V30 4984 C 483.997 2.29136 3.61498 0
M  V30 4985 C 483.323 1.95816 4.97554 0
M  V30 4986 C 484.623 3.71363 3.6727 0
M  V30 4987 H 486.317 2.31509 1.89853 0
M  V30 4988 H 483.863 1.11438 0.912005 0
M  V30 4989 H 485.816 1.16837 4.04879 0
M  V30 4990 H 484.54 0.208683 3.25933 0
M  V30 4991 H 483.199 2.30213 2.85303 0
M  V30 4992 H 482.847 0.964475 4.93667 0
M  V30 4993 H 482.547 2.69745 5.22026 0
M  V30 4994 H 484.071 1.95513 5.78452 0
M  V30 4995 H 485.485 3.72364 4.35911 0
M  V30 4996 H 483.882 4.44425 4.03245 0
M  V30 4997 H 484.952 4.04305 2.67704 0
M  V30 4998 N 486.295 -0.989507 1.22664 0
M  V30 4999 C 487.225 -2.09847 1.02404 0
M  V30 5000 C 488.206 -1.70007 -0.0561303 0
M  V30 5001 O 489.391 -1.93906 0.106748 0
M  V30 5002 C 486.521 -3.41996 0.604663 0
M  V30 5003 C 485.475 -3.95699 1.63115 0
M  V30 5004 C 484.801 -5.23936 1.0675 0
M  V30 5005 C 486.101 -4.25999 3.02196 0
M  V30 5006 H 487.795 -2.27054 1.95158 0
M  V30 5007 H 485.341 -1.09111 0.939727 0
M  V30 5008 H 487.294 -4.1899 0.45002 0
M  V30 5009 H 486.018 -3.24626 -0.35855 0
M  V30 5010 H 484.677 -3.2084 1.77362 0
M  V30 5011 H 484.325 -5.02909 0.0955422 0
M  V30 5012 H 484.025 -5.60833 1.75328 0
M  V30 5013 H 485.549 -6.0356 0.924516 0
M  V30 5014 H 486.963 -4.93777 2.91303 0
M  V30 5015 H 485.36 -4.74076 3.67929 0
M  V30 5016 H 486.43 -3.33636 3.51873 0
M  V30 5017 N 487.773 -1.03688 -1.18687 0
M  V30 5018 C 489.021 -0.736572 -1.88199 0
M  V30 5019 C 489.342 0.737665 -1.80509 0
M  V30 5020 O 488.612 1.53204 -1.22088 0
M  V30 5021 H 487.192 -0.269466 -0.696704 0
M  V30 5022 H 489.854 -1.31282 -1.44052 0
M  V30 5023 H 488.95 -1.03802 -2.94332 0
M  V30 5024 N 489.251 1.34841 -0.815825 0
M  V30 5025 C 490.181 2.32187 -0.247298 0
M  V30 5026 C 491.162 1.5791 0.632344 0
M  V30 5027 O 492.347 1.8593 0.560698 0
M  V30 5028 C 489.477 3.42122 0.597466 0
M  V30 5029 C 488.431 4.27602 -0.184446 0
M  V30 5030 C 487.757 5.28942 0.782609 0
M  V30 5031 C 489.057 5.03502 -1.38865 0
M  V30 5032 H 490.751 2.79985 -1.06061 0
M  V30 5033 H 488.297 1.34611 -0.511461 0
M  V30 5034 H 490.25 4.09232 1.00533 0
M  V30 5035 H 488.974 2.92956 1.44376 0
M  V30 5036 H 487.633 3.62085 -0.573592 0
M  V30 5037 H 487.281 4.7604 1.62466 0
M  V30 5038 H 486.981 5.87008 0.263695 0
M  V30 5039 H 488.505 5.98922 1.18848 0
M  V30 5040 H 489.919 5.63506 -1.05518 0
M  V30 5041 H 488.316 5.71108 -1.8427 0
M  V30 5042 H 489.386 4.33608 -2.17054 0
M  V30 5043 N 490.729 0.570148 1.46925 0
M  V30 5044 C 491.659 -0.158274 2.32963 0
M  V30 5045 C 492.64 -0.896093 1.44583 0
M  V30 5046 O 493.825 -0.874022 1.7342 0
M  V30 5047 C 490.955 -1.18055 3.26619 0
M  V30 5048 C 489.909 -0.558379 4.24342 0
M  V30 5049 C 489.235 -1.68623 5.07415 0
M  V30 5050 C 490.535 0.496295 5.19937 0
M  V30 5051 H 492.229 0.560046 2.94115 0
M  V30 5052 H 489.775 0.270775 1.41431 0
M  V30 5053 H 491.728 -1.69841 3.85658 0
M  V30 5054 H 490.452 -1.92899 2.63548 0
M  V30 5055 H 489.111 -0.0617157 3.66548 0
M  V30 5056 H 488.759 -2.42402 4.40738 0
M  V30 5057 H 488.459 -1.27564 5.73586 0
M  V30 5058 H 489.983 -2.20709 5.69315 0
M  V30 5059 H 491.397 0.0640052 5.73264 0
M  V30 5060 H 489.794 0.82649 5.94381 0
M  V30 5061 H 490.864 1.38735 4.6463 0
M  V30 5062 N 492.207 -1.54576 0.307264 0
M  V30 5063 C 493.17 -2.22423 -0.553224 0
M  V30 5064 C 494.17 -1.21231 -1.05639 0
M  V30 5065 O 495.36 -1.45923 -0.951419 0
M  V30 5066 C 492.492 -2.91552 -1.76664 0
M  V30 5067 H 493.685 -2.99874 0.0396484 0
M  V30 5068 H 491.238 -1.56192 0.0581629 0
M  V30 5069 H 491.973 -2.18196 -2.39918 0
M  V30 5070 H 491.758 -3.65738 -1.41343 0
M  V30 5071 H 493.248 -3.43292 -2.37783 0
M  V30 5072 N 493.685 -0.035106 -1.57561 0
M  V30 5073 C 495.096 0.502885 -1.798 0
M  V30 5074 C 495.447 1.71892 -0.945921 0
M  V30 5075 O 494.572 2.15822 -0.157991 0
M  V30 5076 C 495.167 0.919097 -3.26095 0
M  V30 5077 C 493.726 1.40216 -3.49308 0
M  V30 5078 C 492.873 0.369709 -2.74824 0
M  V30 5079 H 495.824 -0.261102 -1.56537 0
M  V30 5080 H 495.845 1.78308 -3.36135 0
M  V30 5081 H 495.357 0.0338526 -3.88085 0
M  V30 5082 H 493.458 2.30714 -2.92578 0
M  V30 5083 H 493.571 1.40541 -4.58023 0
M  V30 5084 H 491.935 0.839113 -2.40481 0
M  V30 5085 H 492.718 -0.507173 -3.39533 0
M  V30 5086 N 495.163 1.55791 0.238111 0
M  V30 5087 C 496.41 1.78033 0.964907 0
M  V30 5088 C 496.738 0.600984 1.84982 0
M  V30 5089 O 495.993 -0.41536 1.91241 0
M  V30 5090 C 496.292 3.05869 1.84875 0
M  V30 5091 C 495.958 4.36808 1.11846 0
M  V30 5092 C 494.62 4.72388 0.916662 0
M  V30 5093 C 496.972 5.17717 0.60151 0
M  V30 5094 C 494.3 5.86406 0.185756 0
M  V30 5095 C 496.652 6.32494 -0.115972 0
M  V30 5096 C 495.316 6.66688 -0.329168 0
M  V30 5097 H 494.586 0.651469 0.353085 0
M  V30 5098 H 497.233 1.90061 0.234318 0
M  V30 5099 H 495.538 2.88891 2.64668 0
M  V30 5100 H 497.235 3.20278 2.41294 0
M  V30 5101 H 493.825 4.08862 1.28569 0
M  V30 5102 H 498.009 4.90678 0.744932 0
M  V30 5103 H 493.265 6.11399 0.0101886 0
M  V30 5104 H 497.439 6.94425 -0.524127 0
M  V30 5105 H 495.066 7.54884 -0.897474 0
M  V30 5106 N 496.642 -0.504142 1.49319 0
M  V30 5107 C 497.605 -1.5883 1.65244 0
M  V30 5108 C 498.605 -1.52009 0.524386 0
M  V30 5109 O 499.795 -1.55218 0.79077 0
M  V30 5110 C 496.927 -2.98481 1.64687 0
M  V30 5111 H 498.12 -1.4604 2.61939 0
M  V30 5112 H 495.673 -0.728144 1.38303 0
M  V30 5113 H 496.408 -3.16751 0.695644 0
M  V30 5114 H 496.193 -3.0484 2.46607 0
M  V30 5115 H 497.683 -3.77256 1.79075 0
M  V30 5116 N 498.12 -1.38341 -0.754957 0
M  V30 5117 C 499.348 -1.37704 -1.54419 0
M  V30 5118 C 499.763 0.0335243 -1.8877 0
M  V30 5119 O 499.12 0.999773 -1.52679 0
M  V30 5120 C 499.171 -2.23136 -2.84416 0
M  V30 5121 O 498.892 -3.58697 -2.51531 0
M  V30 5122 C 500.393 -2.30664 -3.78562 0
M  V30 5123 H 497.613 -0.471061 -0.477852 0
M  V30 5124 H 500.157 -1.81902 -0.934446 0
M  V30 5125 H 498.312 -1.82403 -3.41772 0
M  V30 5126 H 498.726 -4.03665 -3.34896 0
M  V30 5127 H 500.2 -2.9473 -4.66732 0
M  V30 5128 H 500.677 -1.3199 -4.18898 0
M  V30 5129 H 501.283 -2.71781 -3.27131 0
M  V30 5130 N 499.598 0.982988 -1.23187 0
M  V30 5131 C 500.561 2.05649 -1.01198 0
M  V30 5132 C 501.561 1.6078 0.0252464 0
M  V30 5133 O 502.751 1.72878 -0.214243 0
M  V30 5134 C 499.883 3.36744 -0.530656 0
M  V30 5135 H 501.076 2.2659 -1.96461 0
M  V30 5136 H 498.629 1.15602 -1.05195 0
M  V30 5137 H 499.364 3.21492 0.425873 0
M  V30 5138 H 499.149 3.7065 -1.2791 0
M  V30 5139 H 500.639 4.15705 -0.397366 0
M  V30 5140 N 501.076 1.04316 1.18135 0
M  V30 5141 C 502.323 0.74802 1.88178 0
M  V30 5142 C 502.651 -0.72441 1.80506 0
M  V30 5143 O 501.906 -1.54463 1.20165 0
M  V30 5144 C 502.205 1.16271 3.37958 0
M  V30 5145 C 501.871 2.63585 3.65833 0
M  V30 5146 C 500.533 3.03829 3.73151 0
M  V30 5147 C 502.885 3.58822 3.78016 0
M  V30 5148 C 500.213 4.38194 3.90132 0
M  V30 5149 C 502.565 4.92909 3.96514 0
M  V30 5150 C 501.229 5.3282 4.02068 0
M  V30 5151 H 500.499 0.27372 0.688592 0
M  V30 5152 H 503.146 1.30863 1.39811 0
M  V30 5153 H 501.451 0.520938 3.88321 0
M  V30 5154 H 503.148 0.911672 3.90499 0
M  V30 5155 H 499.738 2.31414 3.60757 0
M  V30 5156 H 503.922 3.28875 3.71692 0
M  V30 5157 H 499.178 4.68631 3.92677 0
M  V30 5158 H 503.352 5.66606 4.04883 0
M  V30 5159 H 500.979 6.36943 4.14979 0
M  V30 5160 N 502.554 -1.34406 0.822964 0
M  V30 5161 C 503.517 -2.2783 0.250271 0
M  V30 5162 C 504.517 -1.50288 -0.571854 0
M  V30 5163 O 505.707 -1.69825 -0.387952 0
M  V30 5164 C 502.839 -3.34663 -0.649137 0
M  V30 5165 H 504.032 -2.79992 1.07444 0
M  V30 5166 H 501.585 -1.44539 0.594829 0
M  V30 5167 H 502.32 -2.87714 -1.49637 0
M  V30 5168 H 502.105 -3.92052 -0.0611199 0
M  V30 5169 H 503.595 -4.04349 -1.04363 0
M  V30 5170 N 504.032 -0.577932 -1.46621 0
M  V30 5171 C 505.26 -0.0671642 -2.06791 0
M  V30 5172 C 505.675 1.23571 -1.42743 0
M  V30 5173 O 505.032 1.74602 -0.531062 0
M  V30 5174 C 505.083 0.110357 -3.61332 0
M  V30 5175 O 504.804 -1.14095 -4.22982 0
M  V30 5176 C 506.305 0.656025 -4.38419 0
M  V30 5177 H 503.525 -0.0552732 -0.66872 0
M  V30 5178 H 506.069 -0.797242 -1.8832 0
M  V30 5179 H 504.224 0.790637 -3.79246 0
M  V30 5180 H 504.638 -0.951742 -5.15793 0
M  V30 5181 H 506.112 0.729438 -5.47159 0
M  V30 5182 H 506.589 1.67195 -4.06131 0
M  V30 5183 H 507.195 0.0107692 -4.25299 0
M  V30 5184 N 505.51 1.54411 -0.315457 0
M  V30 5185 C 506.75 2.02329 0.290236 0
M  V30 5186 C 507.114 1.19878 1.49977 0
M  V30 5187 O 508.315 1.57562 2.17779 0
M  V30 5188 C 506.586 3.51912 0.623937 0
M  V30 5189 S 508.145 4.21775 1.21044 0
M  V30 5190 H 504.963 0.705499 0.0882739 0
M  V30 5191 H 507.565 1.90328 -0.446694 0
M  V30 5192 H 506.269 4.09546 -0.264624 0
M  V30 5193 H 505.8 3.67977 1.39128 0
M  V30 5194 H 507.815 4.28757 2.49764 0
M  V30 5195 N 506.988 0.0434614 1.5754 0
M  V30 5196 C 508.213 -0.645358 1.97104 0
M  V30 5197 C 508.638 -1.64037 0.920521 0
M  V30 5198 O 507.996 -1.80922 -0.11708 0
M  V30 5199 C 508.044 -1.31547 3.35749 0
M  V30 5200 O 507.148 -2.43103 3.33129 0
M  V30 5201 H 506.489 -0.168403 0.64229 0
M  V30 5202 H 509.019 0.109573 2.04306 0
M  V30 5203 H 509.029 -1.66895 3.72304 0
M  V30 5204 H 507.704 -0.586205 4.11748 0
M  V30 5205 H 506.281 -2.0976 3.0831 0
M  V30 5206 N 508.466 -1.55915 -0.229846 0
M  V30 5207 C 509.691 -1.8296 -0.976743 0
M  V30 5208 C 510.116 -0.622735 -1.77493 0
M  V30 5209 O 509.474 0.428431 -1.76165 0
M  V30 5210 C 509.522 -3.07916 -1.8767 0
M  V30 5211 O 508.626 -2.86028 -2.97088 0
M  V30 5212 H 507.967 -0.603453 -0.277021 0
M  V30 5213 H 510.497 -2.0312 -0.245669 0
M  V30 5214 H 510.507 -3.37802 -2.2881 0
M  V30 5215 H 509.182 -3.95389 -1.28996 0
M  V30 5216 H 507.759 -2.67355 -2.59954 0
M  V30 5217 N 509.944 0.496216 -1.49584 0
M  V30 5218 C 511.169 1.27865 -1.63295 0
M  V30 5219 C 511.594 1.85592 -0.306156 0
M  V30 5220 O 510.952 1.66092 0.726851 0
M  V30 5221 C 511 2.38128 -2.7079 0
M  V30 5222 O 510.104 3.42108 -2.30296 0
M  V30 5223 H 509.445 0.377279 -0.546403 0
M  V30 5224 H 511.975 0.593497 -1.95803 0
M  V30 5225 H 511.985 2.8382 -2.93104 0
M  V30 5226 H 510.66 1.95479 -3.67098 0
M  V30 5227 H 509.237 3.02301 -2.18331 0
M  V30 5228 N 511.423 1.38739 0.74761 0
M  V30 5229 C 512.386 1.36241 1.84312 0
M  V30 5230 C 513.386 0.261811 1.58654 0
M  V30 5231 O 514.576 0.519031 1.66288 0
M  V30 5232 C 511.708 1.12253 3.21888 0
M  V30 5233 H 512.901 2.33712 1.87933 0
M  V30 5234 H 510.454 1.2412 0.949946 0
M  V30 5235 H 511.189 0.154133 3.23934 0
M  V30 5236 H 510.974 1.91943 3.41907 0
M  V30 5237 H 512.464 1.13215 4.0196 0
M  V30 5238 N 512.901 -0.976442 1.23707 0
M  V30 5239 C 514.129 -1.75341 1.09833 0
M  V30 5240 C 514.544 -1.8553 -0.349885 0
M  V30 5241 O 513.901 -1.33732 -1.24185 0
M  V30 5242 C 513.952 -3.17833 1.72233 0
M  V30 5243 O 513.673 -3.08167 3.11391 0
M  V30 5244 C 515.174 -4.11906 1.63853 0
M  V30 5245 H 512.394 -0.550137 0.384175 0
M  V30 5246 H 514.938 -1.2265 1.63638 0
M  V30 5247 H 513.093 -3.67538 1.22452 0
M  V30 5248 H 513.507 -3.97897 3.41729 0
M  V30 5249 H 514.981 -5.09579 2.12211 0
M  V30 5250 H 515.458 -4.35109 0.598092 0
M  V30 5251 H 516.064 -3.68107 2.13019 0
M  V30 5252 N 514.379 -1.04941 -1.1758 0
M  V30 5253 C 515.309 -0.669172 -2.23706 0
M  V30 5254 C 516.29 0.331835 -1.66832 0
M  V30 5255 O 517.475 0.209988 -1.93061 0
M  V30 5256 C 514.605 -0.0404889 -3.47276 0
M  V30 5257 C 513.559 -0.965983 -4.16957 0
M  V30 5258 C 512.885 -0.201312 -5.34321 0
M  V30 5259 C 514.185 -2.28902 -4.69469 0
M  V30 5260 H 515.879 -1.55639 -2.55767 0
M  V30 5261 H 513.425 -0.749793 -1.22939 0
M  V30 5262 H 515.378 0.237298 -4.20731 0
M  V30 5263 H 514.102 0.881658 -3.14475 0
M  V30 5264 H 512.761 -1.22829 -3.45411 0
M  V30 5265 H 512.409 0.723519 -4.97769 0
M  V30 5266 H 512.109 -0.817968 -5.81879 0
M  V30 5267 H 513.633 0.0692499 -6.10561 0
M  V30 5268 H 515.047 -2.07132 -5.34574 0
M  V30 5269 H 513.444 -2.85942 -5.27596 0
M  V30 5270 H 514.514 -2.92937 -3.86414 0
M  V30 5271 N 515.857 1.33968 -0.830081 0
M  V30 5272 C 517.268 1.80439 -0.479455 0
M  V30 5273 C 517.619 1.68756 1.00079 0
M  V30 5274 O 516.744 1.23171 1.77927 0
M  V30 5275 C 517.339 3.27611 -0.863505 0
M  V30 5276 C 515.898 3.72133 -0.565145 0
M  V30 5277 C 515.045 2.55549 -1.07657 0
M  V30 5278 H 517.996 1.21614 -1.0196 0
M  V30 5279 H 518.017 3.8012 -0.170083 0
M  V30 5280 H 517.529 3.36082 -1.94089 0
M  V30 5281 H 515.63 3.69196 0.502536 0
M  V30 5282 H 515.743 4.65963 -1.11422 0
M  V30 5283 H 514.107 2.49788 -0.497807 0
M  V30 5284 H 514.89 2.66786 -2.16055 0
M  V30 5285 N 517.335 0.585699 1.46312 0
M  V30 5286 C 518.56 0.0762461 2.0726 0
M  V30 5287 C 518.985 -1.22071 1.43109 0
M  V30 5288 O 518.343 -1.73804 0.515942 0
M  V30 5289 C 518.391 -0.0729404 3.60526 0
M  V30 5290 O 517.495 -1.1287 3.96654 0
M  V30 5291 H 516.836 0.0641558 0.660893 0
M  V30 5292 H 519.366 0.809492 1.87905 0
M  V30 5293 H 519.376 -0.278158 4.07051 0
M  V30 5294 H 518.051 0.874188 4.06609 0
M  V30 5295 H 516.628 -0.901703 3.61834 0
M  V30 5296 N 518.813 -1.54241 0.323641 0
M  V30 5297 C 519.746 -2.20579 -0.584833 0
M  V30 5298 C 520.724 -1.18286 -1.11567 0
M  V30 5299 O 521.908 -1.47025 -1.17966 0
M  V30 5300 C 519.035 -2.86754 -1.80249 0
M  V30 5301 C 518.081 -4.02767 -1.4029 0
M  V30 5302 S 518.914 -5.33693 -0.439539 0
M  V30 5303 C 520.07 -6.03362 -1.66448 0
M  V30 5304 H 520.303 -2.97292 -0.0213238 0
M  V30 5305 H 517.836 -1.54024 0.107726 0
M  V30 5306 H 519.794 -3.25503 -2.50116 0
M  V30 5307 H 518.455 -2.09844 -2.33719 0
M  V30 5308 H 517.648 -4.47933 -2.31024 0
M  V30 5309 H 517.25 -3.65692 -0.783928 0
M  V30 5310 H 519.542 -6.25546 -2.6019 0
M  V30 5311 H 520.485 -6.9689 -1.25498 0
M  V30 5312 H 520.893 -5.33273 -1.85149 0
M  V30 5313 N 520.291 -0.0518155 -1.57515 0
M  V30 5314 C 521.224 0.957758 -2.07129 0
M  V30 5315 C 522.202 1.30355 -0.971927 0
M  V30 5316 O 523.386 1.41631 -1.2439 0
M  V30 5317 C 520.513 2.27157 -2.51232 0
M  V30 5318 C 519.559 2.07879 -3.72409 0
M  V30 5319 S 520.392 1.35656 -5.18033 0
M  V30 5320 C 521.548 2.68359 -5.65451 0
M  V30 5321 H 521.781 0.53552 -2.92437 0
M  V30 5322 H 519.314 0.160465 -1.53564 0
M  V30 5323 H 521.272 3.02676 -2.77304 0
M  V30 5324 H 519.933 2.66509 -1.66228 0
M  V30 5325 H 519.126 3.05061 -4.01191 0
M  V30 5326 H 518.728 1.40499 -3.46606 0
M  V30 5327 H 521.02 3.64526 -5.71076 0
M  V30 5328 H 521.963 2.44213 -6.64654 0
M  V30 5329 H 522.371 2.74647 -4.93183 0
M  V30 5330 N 521.769 1.56035 0.221574 0
M  V30 5331 C 522.716 1.92413 1.27459 0
M  V30 5332 C 523.686 0.781323 1.46576 0
M  V30 5333 O 524.871 1.03721 1.60145 0
M  V30 5334 C 522.011 2.24617 2.61995 0
M  V30 5335 C 521.124 3.51831 2.50677 0
M  V30 5336 C 520.259 3.73482 3.77736 0
M  V30 5337 C 519.298 4.94211 3.6114 0
M  V30 5338 N 518.435 5.12252 4.80148 0
M  V30 5339 H 523.275 2.82203 0.957355 0
M  V30 5340 H 520.812 1.39676 0.461415 0
M  V30 5341 H 522.77 2.41298 3.40339 0
M  V30 5342 H 521.4 1.38 2.91815 0
M  V30 5343 H 520.452 3.43343 1.63767 0
M  V30 5344 H 521.764 4.40328 2.34334 0
M  V30 5345 H 520.918 3.9026 4.64523 0
M  V30 5346 H 519.657 2.83266 3.97003 0
M  V30 5347 H 518.662 4.77384 2.72736 0
M  V30 5348 H 519.887 5.85912 3.43343 0
M  V30 5349 H 517.833 4.24978 4.99729 0
M  V30 5350 H 517.75 5.94881 4.66532 0
M  V30 5351 H 519.018 5.33465 5.68362 0
M  V30 5352 N 523.247 -0.488276 1.49845 0
M  V30 5353 C 524.487 -1.2516 1.61599 0
M  V30 5354 C 524.851 -1.89615 0.301706 0
M  V30 5355 O 526.052 -2.67182 0.29453 0
M  V30 5356 C 524.323 -2.2805 2.75187 0
M  V30 5357 S 525.882 -3.13552 3.0697 0
M  V30 5358 H 522.7 -0.425178 0.569864 0
M  V30 5359 H 525.302 -0.551545 1.87559 0
M  V30 5360 H 524.006 -1.7925 3.69185 0
M  V30 5361 H 523.537 -3.02708 2.5126 0
M  V30 5362 H 525.552 -4.28927 2.49471 0
M  V30 5363 N 524.725 -1.39134 -0.740242 0
M  V30 5364 C 525.974 -1.35384 -1.49512 0
M  V30 5365 C 526.287 0.04919 -1.95538 0
M  V30 5366 O 527.493 0.209257 -2.70692 0
M  V30 5367 C 525.949 -2.37812 -2.70136 0
M  V30 5368 C 525.557 -3.83804 -2.31081 0
M  V30 5369 C 527.301 -2.4313 -3.47977 0
M  V30 5370 C 525.208 -4.77886 -3.48395 0
M  V30 5371 H 524.138 -0.503297 -0.561434 0
M  V30 5372 H 526.789 -1.64754 -0.807974 0
M  V30 5373 H 525.171 -2.01505 -3.40899 0
M  V30 5374 H 526.345 -4.29123 -1.67898 0
M  V30 5375 H 524.66 -3.81732 -1.66343 0
M  V30 5376 H 527.257 -3.10614 -4.35228 0
M  V30 5377 H 527.6 -1.45423 -3.90074 0
M  V30 5378 H 528.133 -2.78304 -2.84239 0
M  V30 5379 H 524.872 -5.76836 -3.11353 0
M  V30 5380 H 524.392 -4.3725 -4.10576 0
M  V30 5381 H 526.071 -4.96538 -4.148 0
M  V30 5382 N 526.204 0.969867 -1.24223 0
M  V30 5383 C 527.114 2.09806 -1.0497 0
M  V30 5384 C 528.13 1.73998 0.00886455 0
M  V30 5385 O 529.306 2.00513 -0.188848 0
M  V30 5386 C 526.371 3.40467 -0.654452 0
M  V30 5387 C 525.432 3.90236 -1.78926 0
M  V30 5388 C 524.665 5.14662 -1.41277 0
M  V30 5389 O 524.888 5.69602 -0.301632 0
M  V30 5390 O 523.822 5.58761 -2.23763 0
M  V30 5391 H 527.648 2.28942 -1.99548 0
M  V30 5392 H 525.233 1.08197 -1.03023 0
M  V30 5393 H 527.115 4.19039 -0.445452 0
M  V30 5394 H 525.79 3.22636 0.262216 0
M  V30 5395 H 524.697 3.12735 -2.05299 0
M  V30 5396 H 526.03 4.1254 -2.68462 0
M  V30 5397 N 527.682 1.05563 1.17022 0
M  V30 5398 C 528.592 0.670758 2.24807 0
M  V30 5399 C 529.608 -0.309865 1.71219 0
M  V30 5400 O 530.784 -0.161025 2.00755 0
M  V30 5401 C 527.849 0.055337 3.46656 0
M  V30 5402 C 526.91 1.08688 4.15314 0
M  V30 5403 C 526.143 0.500736 5.31346 0
M  V30 5404 O 526.366 -0.688718 5.66227 0
M  V30 5405 O 525.3 1.23683 5.89055 0
M  V30 5406 H 529.126 1.56914 2.60023 0
M  V30 5407 H 526.711 0.827428 1.24395 0
M  V30 5408 H 528.593 -0.286492 4.20425 0
M  V30 5409 H 527.268 -0.816638 3.13229 0
M  V30 5410 H 526.175 1.48077 3.43546 0
M  V30 5411 H 527.508 1.93014 4.52777 0
M  V30 5412 N 529.16 -1.33526 0.837174 0
M  V30 5413 C 530.108 -2.31168 0.257698 0
M  V30 5414 C 531.102 -1.5806 -0.609388 0
M  V30 5415 O 532.308 -1.72941 -0.499139 0
M  V30 5416 H 528.683 -0.74922 0.0646058 0
M  V30 5417 H 530.654 -2.77552 1.09578 0
M  V30 5418 C 529.403 -3.4326 -0.553887 0
M  V30 5419 H 528.726 -3.99665 0.104008 0
M  V30 5420 H 530.166 -4.13782 -0.925219 0
M  V30 5421 C 528.625 -2.88965 -1.73207 0
M  V30 5422 O 529.155 -2.85013 -2.83073 0
M  V30 5423 N 527.361 -2.45596 -1.55342 0
M  V30 5424 H 526.908 -2.49009 -0.659705 0
M  V30 5425 H 526.866 -2.0962 -2.34322 0
M  V30 5426 N 530.638 -0.59345 -1.46 0
M  V30 5427 C 531.586 0.146268 -2.3214 0
M  V30 5428 C 532.58 0.873743 -1.45128 0
M  V30 5429 O 533.786 0.790912 -1.61693 0
M  V30 5430 H 530.161 0.0660349 -0.749095 0
M  V30 5431 H 532.132 -0.598895 -2.92328 0
M  V30 5432 C 530.881 1.1396 -3.28494 0
M  V30 5433 H 530.204 0.589252 -3.95434 0
M  V30 5434 H 531.644 1.62738 -3.91526 0
M  V30 5435 C 530.103 2.20604 -2.54628 0
M  V30 5436 O 530.633 3.28128 -2.31722 0
M  V30 5437 N 528.839 1.95502 -2.15005 0
M  V30 5438 H 528.386 1.0807 -2.33834 0
M  V30 5439 H 528.344 2.67064 -1.65904 0
M  V30 5440 N 532.116 1.54067 -0.331816 0
M  V30 5441 C 533.364 2.00319 0.267739 0
M  V30 5442 C 533.685 1.22148 1.52003 0
M  V30 5443 O 532.955 0.325494 1.93177 0
M  V30 5444 H 531.535 0.740014 0.101922 0
M  V30 5445 H 534.197 1.89628 -0.450267 0
M  V30 5446 H 533.293 3.07765 0.518385 0
M  V30 5447 N 533.594 0.0601682 1.57485 0
M  V30 5448 C 534.84 -0.612501 1.93329 0
M  V30 5449 C 535.173 -1.6996 0.939526 0
M  V30 5450 O 534.448 -1.94472 -0.0330957 0
M  V30 5451 C 534.731 -1.20025 3.39508 0
M  V30 5452 C 534.584 -0.12059 4.49638 0
M  V30 5453 C 535.903 -2.10923 3.86264 0
M  V30 5454 H 533.022 -0.221185 0.703027 0
M  V30 5455 H 535.664 0.123768 1.89596 0
M  V30 5456 H 533.814 -1.82774 3.42821 0
M  V30 5457 H 535.486 0.51185 4.58452 0
M  V30 5458 H 533.729 0.550251 4.30296 0
M  V30 5459 H 534.4 -0.572019 5.49028 0
M  V30 5460 H 536.876 -1.58124 3.84884 0
M  V30 5461 H 535.752 -2.48987 4.8918 0
M  V30 5462 H 536.013 -3.01292 3.23536 0
M  V30 5463 N 535.072 -1.5615 -0.213296 0
M  V30 5464 C 536.349 -1.70349 -0.961281 0
M  V30 5465 C 536.729 -0.609791 -2.02101 0
M  V30 5466 O 536.077 0.381987 -2.25285 0
M  V30 5467 C 536.287 -3.11982 -1.56424 0
M  V30 5468 C 537.635 -3.71649 -2.05334 0
M  V30 5469 O 538.659 -3.14995 -1.66302 0
M  V30 5470 O 537.518 -4.71038 -2.77102 0
M  V30 5471 H 534.612 -0.694121 -0.449582 0
M  V30 5472 H 537.158 -1.68464 -0.204426 0
M  V30 5473 H 535.93 -3.83046 -0.799457 0
M  V30 5474 H 535.553 -3.18019 -2.38641 0
M  V30 5475 N 536.55 0.480323 -1.50102 0
M  V30 5476 C 537.497 1.57946 -1.6829 0
M  V30 5477 C 538.467 1.57611 -0.524223 0
M  V30 5478 O 539.652 1.75282 -0.753709 0
M  V30 5479 C 536.792 2.95978 -1.77457 0
M  V30 5480 C 535.905 3.06173 -3.04766 0
M  V30 5481 C 535.04 4.35063 -3.04784 0
M  V30 5482 C 534.079 4.38966 -4.26586 0
M  V30 5483 N 533.216 5.59314 -4.24396 0
M  V30 5484 H 538.056 1.41743 -2.62131 0
M  V30 5485 H 535.593 0.689304 -1.2995 0
M  V30 5486 H 537.551 3.76011 -1.80752 0
M  V30 5487 H 536.181 3.10837 -0.870637 0
M  V30 5488 H 535.233 2.19071 -3.10986 0
M  V30 5489 H 536.545 3.04916 -3.9475 0
M  V30 5490 H 535.699 5.23436 -3.06757 0
M  V30 5491 H 534.438 4.38915 -2.12614 0
M  V30 5492 H 533.443 3.48992 -4.24835 0
M  V30 5493 H 534.668 4.36813 -5.19972 0
M  V30 5494 H 532.614 5.63969 -3.35074 0
M  V30 5495 H 532.531 5.5976 -5.08138 0
M  V30 5496 H 533.799 6.49837 -4.30502 0
M  V30 5497 N 538.028 1.39524 0.732853 0
M  V30 5498 C 539.444 1.21176 1.03868 0
M  V30 5499 C 539.644 0.0748448 2.01361 0
M  V30 5500 O 538.7 -0.57281 2.45917 0
M  V30 5501 C 540.013 2.54667 1.59892 0
M  V30 5502 C 541.561 2.6153 1.71962 0
M  V30 5503 C 542.036 3.95248 2.31394 0
M  V30 5504 N 543.527 3.96899 2.38801 0
M  V30 5505 C 544.262 4.97138 2.85729 0
M  V30 5506 N 543.758 6.07775 3.32537 0
M  V30 5507 N 545.551 4.84516 2.84957 0
M  V30 5508 H 537.702 2.12225 0.086304 0
M  V30 5509 H 539.965 0.942614 0.100907 0
M  V30 5510 H 539.671 3.38423 0.95721 0
M  V30 5511 H 539.545 2.74538 2.58668 0
M  V30 5512 H 541.932 1.78156 2.35254 0
M  V30 5513 H 542.013 2.45507 0.718327 0
M  V30 5514 H 541.657 4.79054 1.68729 0
M  V30 5515 H 541.587 4.08593 3.32204 0
M  V30 5516 H 544.078 3.16998 2.05719 0
M  V30 5517 H 544.391 6.8017 3.66862 0
M  V30 5518 H 542.736 6.11366 3.30541 0
M  V30 5519 H 545.927 3.97185 2.47713 0
M  V30 5520 H 546.1 5.62783 3.21215 0
M  V30 5521 N 539.506 -0.963266 1.24736 0
M  V30 5522 C 540.755 -1.70115 1.08369 0
M  V30 5523 C 541.068 -1.91939 -0.376688 0
M  V30 5524 O 542.274 -2.6334 -0.660624 0
M  V30 5525 C 540.73 -3.06218 1.89099 0
M  V30 5526 C 540.338 -2.92221 3.39574 0
M  V30 5527 C 542.082 -3.83848 1.81275 0
M  V30 5528 C 539.989 -4.23662 4.12631 0
M  V30 5529 H 538.919 -0.637944 0.401924 0
M  V30 5530 H 541.57 -1.07304 1.48856 0
M  V30 5531 H 539.952 -3.69884 1.41429 0
M  V30 5532 H 541.126 -2.37541 3.94856 0
M  V30 5533 H 539.441 -2.28054 3.48397 0
M  V30 5534 H 542.038 -4.81188 2.33158 0
M  V30 5535 H 542.381 -4.08949 0.778895 0
M  V30 5536 H 542.914 -3.26918 2.26649 0
M  V30 5537 H 539.653 -4.03753 5.16395 0
M  V30 5538 H 539.173 -4.78141 3.62135 0
M  V30 5539 H 540.852 -4.92256 4.19873 0
M  V30 5540 N 540.985 -1.06182 -1.16461 0
M  V30 5541 C 542.21 -0.798599 -1.91408 0
M  V30 5542 C 542.635 0.640987 -1.76842 0
M  V30 5543 O 541.993 1.44652 -1.09296 0
M  V30 5544 C 542.041 -1.19665 -3.40165 0
M  V30 5545 O 541.145 -0.334768 -4.11039 0
M  V30 5546 H 540.486 -0.291961 -0.596368 0
M  V30 5547 H 543.016 -1.41732 -1.47557 0
M  V30 5548 H 543.026 -1.16772 -3.90933 0
M  V30 5549 H 541.701 -2.24526 -3.50087 0
M  V30 5550 H 540.278 -0.425168 -3.70468 0
M  V30 5551 N 542.463 1.3308 -0.844243 0
M  V30 5552 C 543.879 1.50447 -0.532729 0
M  V30 5553 C 544.079 1.78292 0.938837 0
M  V30 5554 O 543.135 1.84635 1.72239 0
M  V30 5555 C 544.448 2.65555 -1.41072 0
M  V30 5556 C 545.996 2.7944 -1.41005 0
M  V30 5557 C 546.471 3.97616 -2.27301 0
M  V30 5558 N 547.962 4.0486 -2.2504 0
M  V30 5559 C 548.697 4.95508 -2.88547 0
M  V30 5560 N 548.193 5.91236 -3.61126 0
M  V30 5561 N 549.986 4.88548 -2.77989 0
M  V30 5562 H 542.137 1.13269 -1.79677 0
M  V30 5563 H 544.4 0.55734 -0.766861 0
M  V30 5564 H 544.106 2.51675 -2.45668 0
M  V30 5565 H 543.98 3.61089 -1.09061 0
M  V30 5566 H 546.367 2.92749 -0.371784 0
M  V30 5567 H 546.448 1.8465 -1.77026 0
M  V30 5568 H 546.092 3.85066 -3.3119 0
M  V30 5569 H 546.022 4.91661 -1.88619 0
M  V30 5570 H 548.513 3.36353 -1.72264 0
M  V30 5571 H 548.826 6.57079 -4.06776 0
M  V30 5572 H 547.171 5.91295 -3.65234 0
M  V30 5573 H 550.362 4.12729 -2.20846 0
M  V30 5574 H 550.535 5.58994 -3.27765 0
M  V30 5575 N 543.941 0.601185 1.45683 0
M  V30 5576 C 545.188 0.0938811 2.02282 0
M  V30 5577 C 545.516 -1.27315 1.47041 0
M  V30 5578 O 544.771 -1.85193 0.632623 0
M  V30 5579 C 545.07 -0.00222425 3.574 0
M  V30 5580 C 544.736 1.29963 4.31764 0
M  V30 5581 C 543.398 1.65625 4.51798 0
M  V30 5582 C 545.75 2.1603 4.74321 0
M  V30 5583 C 543.078 2.87119 5.11644 0
M  V30 5584 C 545.43 3.36766 5.3551 0
M  V30 5585 C 544.094 3.72689 5.53768 0
M  V30 5586 H 543.364 0.0343535 0.740203 0
M  V30 5587 H 546.011 0.781522 1.74827 0
M  V30 5588 H 544.316 -0.773096 3.84097 0
M  V30 5589 H 546.013 -0.410794 3.9889 0
M  V30 5590 H 542.603 1.01204 4.1648 0
M  V30 5591 H 546.787 1.89778 4.58582 0
M  V30 5592 H 542.043 3.15065 5.2397 0
M  V30 5593 H 546.217 4.03713 5.67441 0
M  V30 5594 H 543.844 4.66918 5.99909 0
M  V30 5595 N 545.419 -1.53889 0.339982 0
M  V30 5596 C 546.668 -2.00035 -0.258604 0
M  V30 5597 C 546.981 -1.23179 -1.51942 0
M  V30 5598 O 548.187 -1.59784 -2.19503 0
M  V30 5599 C 546.643 -3.56249 -0.511359 0
M  V30 5600 C 546.251 -4.41957 0.733349 0
M  V30 5601 C 547.995 -4.1082 -1.069 0
M  V30 5602 C 545.902 -5.89673 0.451591 0
M  V30 5603 H 544.832 -0.747284 -0.10041 0
M  V30 5604 H 547.483 -1.77776 0.454758 0
M  V30 5605 H 545.865 -3.7456 -1.28533 0
M  V30 5606 H 547.039 -4.35421 1.50815 0
M  V30 5607 H 545.354 -3.9836 1.21237 0
M  V30 5608 H 547.951 -5.18789 -1.2947 0
M  V30 5609 H 548.294 -3.63817 -2.02343 0
M  V30 5610 H 548.827 -3.96205 -0.355817 0
M  V30 5611 H 545.566 -6.40903 1.37565 0
M  V30 5612 H 545.086 -5.99122 -0.285193 0
M  V30 5613 H 546.765 -6.46965 0.0675067 0
M  V30 5614 N 546.897 -0.0685191 -1.57451 0
M  V30 5615 C 547.827 0.89747 -2.15564 0
M  V30 5616 C 548.808 1.31266 -1.08181 0
M  V30 5617 O 549.993 1.38429 -1.36202 0
M  V30 5618 C 547.123 2.16623 -2.71463 0
M  V30 5619 C 546.077 1.89054 -3.83982 0
M  V30 5620 C 545.403 3.22532 -4.26471 0
M  V30 5621 C 546.703 1.1984 -5.08366 0
M  V30 5622 H 548.397 0.413373 -2.96533 0
M  V30 5623 H 545.943 0.197391 -1.42641 0
M  V30 5624 H 547.896 2.84614 -3.10761 0
M  V30 5625 H 546.62 2.67269 -1.8771 0
M  V30 5626 H 545.279 1.23469 -3.45183 0
M  V30 5627 H 544.927 3.71013 -3.39644 0
M  V30 5628 H 544.627 3.04879 -5.02317 0
M  V30 5629 H 546.151 3.91727 -4.68383 0
M  V30 5630 H 547.565 1.77896 -5.45001 0
M  V30 5631 H 545.962 1.12456 -5.89469 0
M  V30 5632 H 547.032 0.176996 -4.84577 0
M  V30 5633 N 548.375 1.56261 0.205012 0
M  V30 5634 C 549.786 1.70056 0.770574 0
M  V30 5635 C 550.137 0.673398 1.84282 0
M  V30 5636 O 549.262 -0.172196 2.15714 0
M  V30 5637 C 549.857 3.08316 1.40451 0
M  V30 5638 C 548.416 3.2391 1.91727 0
M  V30 5639 C 547.563 2.66001 0.783516 0
M  V30 5640 H 550.514 1.58688 -0.019911 0
M  V30 5641 H 550.535 3.05094 2.27371 0
M  V30 5642 H 550.047 3.83053 0.623882 0
M  V30 5643 H 548.148 2.54072 2.7254 0
M  V30 5644 H 548.261 4.3131 2.08588 0
M  V30 5645 H 546.625 2.24915 1.19521 0
M  V30 5646 H 547.408 3.43297 0.0152883 0
M  V30 5647 N 549.853 -0.472356 1.50355 0
M  V30 5648 C 551.102 -1.2213 1.60522 0
M  V30 5649 C 551.415 -1.9312 0.310466 0
M  V30 5650 O 552.621 -2.69936 0.291029 0
M  V30 5651 C 551.077 -2.21909 2.83345 0
M  V30 5652 C 550.685 -1.56727 4.19691 0
M  V30 5653 C 552.429 -2.97453 3.02856 0
M  V30 5654 C 550.336 -2.54785 5.33703 0
M  V30 5655 H 549.266 -0.459543 0.597776 0
M  V30 5656 H 551.917 -0.491922 1.76783 0
M  V30 5657 H 550.299 -2.98133 2.60639 0
M  V30 5658 H 551.473 -0.863007 4.52646 0
M  V30 5659 H 549.788 -0.934685 4.05774 0
M  V30 5660 H 552.385 -3.70838 3.85205 0
M  V30 5661 H 552.728 -3.56764 2.14534 0
M  V30 5662 H 553.261 -2.28342 3.25737 0
M  V30 5663 H 550 -2.00214 6.24175 0
M  V30 5664 H 549.52 -3.23367 5.05167 0
M  V30 5665 H 551.199 -3.16639 5.64224 0
M  V30 5666 N 551.331 -1.39911 -0.725443 0
M  V30 5667 C 552.579 -1.37382 -1.48224 0
M  V30 5668 C 552.9 0.0264107 -1.94982 0
M  V30 5669 O 552.17 0.979408 -1.6966 0
M  V30 5670 H 550.75 -0.505596 -0.549892 0
M  V30 5671 H 553.412 -1.7487 -0.860608 0
M  V30 5672 H 552.508 -2.04254 -2.3598 0
M  V30 5673 N 552.809 0.956637 -1.25245 0
M  V30 5674 C 553.772 2.03457 -1.05537 0
M  V30 5675 C 554.772 1.60798 -0.00886317 0
M  V30 5676 O 555.962 1.72384 -0.250865 0
M  V30 5677 C 553.094 3.35543 -0.601965 0
M  V30 5678 H 554.287 2.22372 -2.01223 0
M  V30 5679 H 551.84 1.13344 -1.07623 0
M  V30 5680 H 552.575 3.22323 0.357584 0
M  V30 5681 H 552.36 3.67854 -1.35743 0
M  V30 5682 H 553.85 4.14769 -0.485454 0
M  V30 5683 N 554.287 1.06798 1.15896 0
M  V30 5684 C 555.515 0.808694 1.90441 0
M  V30 5685 C 555.93 -0.637506 1.77711 0
M  V30 5686 O 555.287 -1.43684 1.12522 0
M  V30 5687 C 555.338 1.20068 3.40978 0
M  V30 5688 O 555.059 2.59013 3.53333 0
M  V30 5689 C 556.56 0.96987 4.3256 0
M  V30 5690 H 553.78 0.292809 0.603742 0
M  V30 5691 H 556.324 1.42296 1.46874 0
M  V30 5692 H 554.479 0.630842 3.82229 0
M  V30 5693 H 554.893 2.7485 4.46719 0
M  V30 5694 H 556.367 1.29371 5.36626 0
M  V30 5695 H 556.844 -0.0941209 4.39099 0
M  V30 5696 H 557.45 1.52433 3.97044 0
M  V30 5697 N 555.766 -1.3263 0.851289 0
M  V30 5698 C 557.012 -1.9766 0.453694 0
M  V30 5699 C 557.345 -1.67225 -0.987396 0
M  V30 5700 O 556.62 -0.958693 -1.69232 0
M  V30 5701 C 556.903 -3.5344 0.68936 0
M  V30 5702 C 556.756 -3.93517 2.17862 0
M  V30 5703 C 558.075 -4.39866 0.143555 0
M  V30 5704 H 555.194 -0.717989 0.166314 0
M  V30 5705 H 557.836 -1.57068 1.06909 0
M  V30 5706 H 555.986 -3.88147 0.165546 0
M  V30 5707 H 557.658 -3.69006 2.76826 0
M  V30 5708 H 555.901 -3.42798 2.65841 0
M  V30 5709 H 556.572 -5.02065 2.29422 0
M  V30 5710 H 559.048 -4.11875 0.591451 0
M  V30 5711 H 557.924 -5.47858 0.338043 0
M  V30 5712 H 558.185 -4.31696 -0.953466 0
M  V30 5713 N 557.244 -0.608902 -1.45362 0
M  V30 5714 C 558.192 0.121639 -2.32282 0
M  V30 5715 C 559.186 0.858301 -1.46046 0
M  V30 5716 O 560.392 0.773718 -1.62523 0
M  V30 5717 H 556.767 0.058086 -0.749753 0
M  V30 5718 H 558.738 -0.629866 -2.91677 0
M  V30 5719 C 557.487 1.1047 -3.29684 0
M  V30 5720 H 556.81 0.547278 -3.96036 0
M  V30 5721 H 558.25 1.58576 -3.9323 0
M  V30 5722 C 556.709 2.17891 -2.56954 0
M  V30 5723 O 557.239 3.25652 -2.35189 0
M  V30 5724 N 555.445 1.93211 -2.17066 0
M  V30 5725 H 554.992 1.05584 -2.34967 0
M  V30 5726 H 554.95 2.6529 -1.68727 0
M  V30 5727 N 558.722 1.53707 -0.348139 0
M  V30 5728 C 559.655 2.21481 0.549667 0
M  V30 5729 C 560.633 1.20046 1.09671 0
M  V30 5730 O 561.817 1.48883 1.15612 0
M  V30 5731 C 558.944 2.89585 1.75664 0
M  V30 5732 C 557.99 4.04948 1.33864 0
M  V30 5733 S 558.823 5.34325 0.354577 0
M  V30 5734 C 559.979 6.05934 1.56828 0
M  V30 5735 H 560.212 2.97289 -0.0259755 0
M  V30 5736 H 557.745 1.53833 -0.132216 0
M  V30 5737 H 559.703 3.29441 2.44906 0
M  V30 5738 H 558.364 2.13535 2.30351 0
M  V30 5739 H 557.557 4.51552 2.23868 0
M  V30 5740 H 557.159 3.66893 0.725651 0
M  V30 5741 H 559.451 6.29606 2.50205 0
M  V30 5742 H 560.394 6.98799 1.14395 0
M  V30 5743 H 560.802 5.36151 1.76642 0
M  V30 5744 N 560.2 0.0768682 1.57412 0
M  V30 5745 C 561.477 -0.632359 1.85096 0
M  V30 5746 C 561.857 -1.87479 0.9703 0
M  V30 5747 O 561.205 -2.28469 0.0379062 0
M  V30 5748 C 561.415 -0.965174 3.35388 0
M  V30 5749 C 562.763 -1.33648 4.03018 0
M  V30 5750 O 563.787 -1.05675 3.40164 0
M  V30 5751 O 562.646 -1.85959 5.13889 0
M  V30 5752 H 559.74 -0.314574 0.764835 0
M  V30 5753 H 562.286 0.108184 1.69355 0
M  V30 5754 H 561.058 -0.0829745 3.91212 0
M  V30 5755 H 560.681 -1.76231 3.5641 0
M  V30 5756 N 561.678 -1.56367 -0.196722 0
M  V30 5757 C 562.926 -1.80172 -0.915554 0
M  V30 5758 C 563.247 -0.649649 -1.8386 0
M  V30 5759 O 562.517 0.332111 -1.93064 0
M  V30 5760 H 561.097 -0.664592 -0.341067 0
M  V30 5761 H 563.759 -1.93844 -0.202622 0
M  V30 5762 H 562.855 -2.7327 -1.50764 0
M  V30 5763 N 563.156 0.464375 -1.50603 0
M  V30 5764 C 564.119 1.54393 -1.69397 0
M  V30 5765 C 565.119 1.50566 -0.564504 0
M  V30 5766 O 566.309 1.53066 -0.831645 0
M  V30 5767 C 563.441 2.9401 -1.72543 0
M  V30 5768 H 564.634 1.39044 -2.65719 0
M  V30 5769 H 562.187 0.69122 -1.40185 0
M  V30 5770 H 562.922 3.14795 -0.77938 0
M  V30 5771 H 562.707 2.98195 -2.54602 0
M  V30 5772 H 564.197 3.72375 -1.89015 0
M  V30 5773 N 564.634 1.40294 0.718013 0
M  V30 5774 C 565.597 1.4012 1.81381 0
M  V30 5775 C 566.597 0.295405 1.58063 0
M  V30 5776 O 567.787 0.554187 1.6515 0
M  V30 5777 C 564.919 1.19056 3.19435 0
M  V30 5778 H 566.112 2.37645 1.82933 0
M  V30 5779 H 563.665 1.26107 0.923405 0
M  V30 5780 H 564.4 0.222809 3.23534 0
M  V30 5781 H 564.185 1.99152 3.37758 0
M  V30 5782 H 565.675 1.21716 3.99468 0
M  V30 5783 N 566.112 -0.949982 1.2575 0
M  V30 5784 C 567.361 -1.68956 1.10168 0
M  V30 5785 C 567.674 -1.92327 -0.356309 0
M  V30 5786 O 568.88 -2.64026 -0.632657 0
M  V30 5787 C 567.336 -3.04196 1.92336 0
M  V30 5788 C 566.944 -2.88603 3.42655 0
M  V30 5789 C 568.688 -3.81904 1.85336 0
M  V30 5790 C 566.595 -4.19262 4.17101 0
M  V30 5791 H 565.525 -0.633645 0.408668 0
M  V30 5792 H 568.176 -1.05719 1.49986 0
M  V30 5793 H 566.558 -3.68363 1.45344 0
M  V30 5794 H 567.732 -2.3334 3.97353 0
M  V30 5795 H 566.047 -2.24345 3.50796 0
M  V30 5796 H 568.644 -4.78688 2.38248 0
M  V30 5797 H 568.987 -4.08099 0.822226 0
M  V30 5798 H 569.52 -3.24495 2.30104 0
M  V30 5799 H 566.259 -3.98254 5.20648 0
M  V30 5800 H 565.779 -4.74273 3.67186 0
M  V30 5801 H 567.458 -4.87775 4.25071 0
M  V30 5802 N 567.59 -1.07411 -1.15328 0
M  V30 5803 C 568.837 -0.797649 -1.86128 0
M  V30 5804 C 569.165 0.676298 -1.82364 0
M  V30 5805 O 568.42 1.51223 -1.24218 0
M  V30 5806 C 568.719 -1.25191 -3.34757 0
M  V30 5807 C 568.385 -2.73191 -3.58716 0
M  V30 5808 C 567.047 -3.13616 -3.64964 0
M  V30 5809 C 569.399 -3.68718 -3.6837 0
M  V30 5810 C 566.727 -4.48383 -3.78377 0
M  V30 5811 C 569.079 -5.03248 -3.83306 0
M  V30 5812 C 567.743 -5.43293 -3.878 0
M  V30 5813 H 567.013 -0.29188 -0.681092 0
M  V30 5814 H 569.66 -1.34524 -1.36292 0
M  V30 5815 H 567.965 -0.623712 -3.86804 0
M  V30 5816 H 569.662 -1.01489 -3.87945 0
M  V30 5817 H 566.252 -2.40898 -3.54494 0
M  V30 5818 H 570.436 -3.38614 -3.62842 0
M  V30 5819 H 565.692 -4.78877 -3.80114 0
M  V30 5820 H 569.866 -5.77142 -3.89718 0
M  V30 5821 H 567.493 -6.47721 -3.97946 0
M  V30 5822 N 569.068 1.32177 -0.85831 0
M  V30 5823 C 570 2.27688 -0.262835 0
M  V30 5824 C 571.013 1.52588 0.567513 0
M  V30 5825 O 572.202 1.74156 0.391407 0
M  V30 5826 C 569.302 3.32668 0.646937 0
M  V30 5827 C 568.475 4.37148 -0.148372 0
M  V30 5828 C 567.534 5.21686 0.687728 0
M  V30 5829 O 566.56 5.69074 0.119934 0
M  V30 5830 N 567.762 5.44892 2.00182 0
M  V30 5831 H 570.527 2.79426 -1.08356 0
M  V30 5832 H 568.088 1.45076 -0.718647 0
M  V30 5833 H 570.08 3.86134 1.2117 0
M  V30 5834 H 568.65 2.81061 1.36834 0
M  V30 5835 H 567.87 3.83915 -0.894572 0
M  V30 5836 H 569.158 5.04038 -0.694514 0
M  V30 5837 H 568.556 5.08128 2.4864 0
M  V30 5838 H 567.113 6.0134 2.51463 0
M  V30 5839 N 570.547 0.616602 1.45037 0
M  V30 5840 C 571.787 0.118453 2.04056 0
M  V30 5841 C 572.151 -1.23104 1.47341 0
M  V30 5842 O 573.352 -1.82044 1.97771 0
M  V30 5843 C 571.623 0.0892842 3.57288 0
M  V30 5844 S 573.182 -0.346361 4.37431 0
M  V30 5845 H 570 0.0539728 0.708948 0
M  V30 5846 H 572.602 0.816731 1.77623 0
M  V30 5847 H 571.306 1.07481 3.96076 0
M  V30 5848 H 570.837 -0.630703 3.88311 0
M  V30 5849 H 572.852 -1.59389 4.69904 0
M  V30 5850 N 572.025 -1.5352 0.356285 0
M  V30 5851 C 573.271 -2.01414 -0.236653 0
M  V30 5852 C 573.604 -1.24339 -1.49176 0
M  V30 5853 O 572.879 -0.334496 -1.91602 0
M  V30 5854 C 573.162 -3.56059 -0.537982 0
M  V30 5855 C 573.015 -4.43835 0.730112 0
M  V30 5856 C 574.334 -4.19127 -1.34239 0
M  V30 5857 H 571.453 -0.732135 -0.0845386 0
M  V30 5858 H 574.095 -1.83854 0.479341 0
M  V30 5859 H 572.245 -3.71153 -1.14795 0
M  V30 5860 H 573.917 -4.40555 1.36782 0
M  V30 5861 H 572.16 -4.1218 1.3524 0
M  V30 5862 H 572.831 -5.49958 0.474358 0
M  V30 5863 H 575.307 -4.07809 -0.826498 0
M  V30 5864 H 574.183 -5.27378 -1.52198 0
M  V30 5865 H 574.444 -3.74581 -2.34822 0
M  V30 5866 N 573.503 -0.0852151 -1.57369 0
M  V30 5867 C 574.466 0.8627 -2.12344 0
M  V30 5868 C 575.466 1.21746 -1.05046 0
M  V30 5869 O 576.656 1.14852 -1.30976 0
M  V30 5870 C 573.788 2.1618 -2.63589 0
M  V30 5871 H 574.981 0.385511 -2.97412 0
M  V30 5872 H 572.534 0.163663 -1.55441 0
M  V30 5873 H 573.269 2.68406 -1.82013 0
M  V30 5874 H 573.054 1.91723 -3.4203 0
M  V30 5875 H 574.544 2.84011 -3.06149 0
M  V30 5876 N 574.981 1.5647 0.188427 0
M  V30 5877 C 575.944 1.9421 1.21718 0
M  V30 5878 C 576.944 0.823901 1.38089 0
M  V30 5879 O 578.134 1.09122 1.35787 0
M  V30 5880 C 575.266 2.22197 2.58537 0
M  V30 5881 H 576.459 2.86252 0.894418 0
M  V30 5882 H 574.012 1.50263 0.430211 0
M  V30 5883 H 574.747 1.32814 2.95856 0
M  V30 5884 H 574.532 3.03688 2.48025 0
M  V30 5885 H 576.022 2.52376 3.3271 0
M  V30 5886 N 576.459 -0.456382 1.50847 0
M  V30 5887 C 577.705 -1.20914 1.62811 0
M  V30 5888 C 578.038 -1.91301 0.334304 0
M  V30 5889 O 577.313 -1.82775 -0.665098 0
M  V30 5890 C 577.596 -2.24122 2.81853 0
M  V30 5891 C 577.449 -1.57944 4.21158 0
M  V30 5892 C 578.768 -3.25295 2.96431 0
M  V30 5893 H 575.887 -0.438233 0.592554 0
M  V30 5894 H 578.529 -0.50091 1.83278 0
M  V30 5895 H 576.679 -2.84524 2.64534 0
M  V30 5896 H 578.351 -1.01025 4.50102 0
M  V30 5897 H 576.594 -0.882185 4.24735 0
M  V30 5898 H 577.265 -2.33014 5.00408 0
M  V30 5899 H 579.741 -2.7493 3.12335 0
M  V30 5900 H 578.617 -3.94822 3.81322 0
M  V30 5901 H 578.878 -3.90286 2.07676 0
M  V30 5902 N 577.937 -1.40673 -0.710563 0
M  V30 5903 C 579.184 -1.39222 -1.47049 0
M  V30 5904 C 579.512 0.0037691 -1.945 0
M  V30 5905 O 578.767 0.989224 -1.68857 0
M  V30 5906 C 579.066 -2.33253 -2.70791 0
M  V30 5907 C 578.732 -3.80406 -2.42079 0
M  V30 5908 C 577.394 -4.20496 -2.33959 0
M  V30 5909 C 579.746 -4.73375 -2.18094 0
M  V30 5910 C 577.074 -5.51584 -1.99929 0
M  V30 5911 C 579.426 -6.04768 -1.85576 0
M  V30 5912 C 578.09 -6.43895 -1.75941 0
M  V30 5913 H 577.36 -0.509449 -0.538092 0
M  V30 5914 H 580.007 -1.73363 -0.81348 0
M  V30 5915 H 578.312 -1.92314 -3.41354 0
M  V30 5916 H 580.009 -2.29412 -3.28894 0
M  V30 5917 H 576.599 -3.48645 -2.49288 0
M  V30 5918 H 580.783 -4.43217 -2.23321 0
M  V30 5919 H 576.039 -5.80797 -1.91011 0
M  V30 5920 H 580.213 -6.76318 -1.66033 0
M  V30 5921 H 577.84 -7.45387 -1.4934 0
M  V30 5922 N 579.415 0.9433 -1.26252 0
M  V30 5923 C 580.664 1.68369 -1.11062 0
M  V30 5924 C 580.977 1.92514 0.346104 0
M  V30 5925 O 582.183 2.64358 0.618646 0
M  V30 5926 C 580.639 3.03171 -1.93946 0
M  V30 5927 C 580.247 2.86782 -3.4418 0
M  V30 5928 C 581.991 3.80916 -1.87359 0
M  V30 5929 C 579.898 4.17044 -4.19319 0
M  V30 5930 H 578.828 0.631469 -0.412023 0
M  V30 5931 H 581.479 1.04922 -1.50544 0
M  V30 5932 H 579.861 3.67587 -1.47296 0
M  V30 5933 H 581.035 2.31229 -3.98585 0
M  V30 5934 H 579.35 2.22482 -3.51981 0
M  V30 5935 H 581.947 4.77417 -2.40784 0
M  V30 5936 H 582.29 4.07658 -0.843857 0
M  V30 5937 H 582.823 3.2327 -2.31821 0
M  V30 5938 H 579.562 3.95487 -5.22753 0
M  V30 5939 H 579.082 4.72319 -3.69696 0
M  V30 5940 H 580.761 4.85513 -4.27651 0
M  V30 5941 N 580.893 1.08022 1.14757 0
M  V30 5942 C 581.856 0.71048 2.1791 0
M  V30 5943 C 582.856 -0.252731 1.58801 0
M  V30 5944 O 584.046 -0.0327915 1.74169 0
M  V30 5945 C 581.178 0.0483203 3.40866 0
M  V30 5946 H 582.371 1.62384 2.52134 0
M  V30 5947 H 579.924 0.877595 1.29337 0
M  V30 5948 H 580.659 -0.876959 3.12218 0
M  V30 5949 H 580.444 0.741189 3.85031 0
M  V30 5950 H 581.934 -0.195471 4.17142 0
M  V30 5951 N 582.371 -1.3172 0.865308 0
M  V30 5952 C 583.303 -2.27545 0.274906 0
M  V30 5953 C 584.316 -1.52887 -0.559413 0
M  V30 5954 O 585.505 -1.74361 -0.382166 0
M  V30 5955 C 582.605 -3.33006 -0.629286 0
M  V30 5956 C 581.778 -4.37063 0.171553 0
M  V30 5957 C 580.837 -5.22044 -0.660052 0
M  V30 5958 O 579.863 -5.69129 -0.0897527 0
M  V30 5959 N 581.065 -5.45946 -1.97289 0
M  V30 5960 H 583.83 -2.78848 1.09836 0
M  V30 5961 H 581.391 -1.44693 0.726331 0
M  V30 5962 H 583.383 -3.86772 -1.19121 0
M  V30 5963 H 581.953 -2.81782 -1.35342 0
M  V30 5964 H 581.173 -3.83436 0.914919 0
M  V30 5965 H 582.461 -5.03662 0.721235 0
M  V30 5966 H 581.859 -5.0944 -2.45942 0
M  V30 5967 H 580.416 -6.02665 -2.4827 0
M  V30 5968 N 583.85 -0.624285 -1.44708 0
M  V30 5969 C 584.779 0.0717025 -2.3339 0
M  V30 5970 C 585.76 0.841814 -1.47809 0
M  V30 5971 O 586.946 0.809056 -1.76544 0
M  V30 5972 C 584.076 1.05852 -3.30776 0
M  V30 5973 C 583.029 0.400503 -4.26122 0
M  V30 5974 C 582.356 1.49674 -5.13324 0
M  V30 5975 C 583.656 -0.688924 -5.17737 0
M  V30 5976 H 585.35 -0.668819 -2.91834 0
M  V30 5977 H 582.896 -0.32308 -1.40329 0
M  V30 5978 H 584.849 1.5541 -3.91696 0
M  V30 5979 H 583.572 1.82984 -2.70526 0
M  V30 5980 H 582.231 -0.0743687 -3.66525 0
M  V30 5981 H 581.88 2.25877 -4.49431 0
M  V30 5982 H 581.58 1.06188 -5.77926 0
M  V30 5983 H 583.104 1.99427 -5.77115 0
M  V30 5984 H 584.518 -0.276724 -5.72632 0
M  V30 5985 H 582.915 -1.04652 -5.90904 0
M  V30 5986 H 583.985 -1.55884 -4.5916 0
M  V30 5987 N 585.328 1.53329 -0.364422 0
M  V30 5988 C 586.276 2.27212 0.497737 0
M  V30 5989 C 587.27 1.30146 1.08437 0
M  V30 5990 O 588.476 1.47778 1.0277 0
M  V30 5991 H 584.851 0.730329 0.179232 0
M  V30 5992 H 586.822 2.98037 -0.147182 0
M  V30 5993 C 585.571 3.07333 1.6261 0
M  V30 5994 H 584.894 3.81866 1.184 0
M  V30 5995 H 586.334 3.62209 2.20409 0
M  V30 5996 C 584.793 2.18102 2.56775 0
M  V30 5997 O 585.323 1.79104 3.59562 0
M  V30 5998 N 583.529 1.82759 2.25937 0
M  V30 5999 H 583.076 2.14671 1.42387 0
M  V30 6000 H 583.034 1.23342 2.89196 0
M  V30 6001 N 586.806 0.0935595 1.57322 0
M  V30 6002 C 587.754 -0.883457 2.15169 0
M  V30 6003 C 588.748 -1.29324 1.09415 0
M  V30 6004 O 589.954 -1.26795 1.27762 0
M  V30 6005 H 586.329 -0.302923 0.688289 0
M  V30 6006 H 588.3 -0.370845 2.96087 0
M  V30 6007 C 587.049 -2.13345 2.74552 0
M  V30 6008 H 586.372 -1.82702 3.55612 0
M  V30 6009 H 587.812 -2.7977 3.18598 0
M  V30 6010 C 586.271 -2.90646 1.70371 0
M  V30 6011 O 586.801 -3.85133 1.14173 0
M  V30 6012 N 585.007 -2.54157 1.40899 0
M  V30 6013 H 584.554 -1.77391 1.86789 0
M  V30 6014 H 584.512 -3.06178 0.714301 0
M  V30 6015 N 588.284 -1.56567 -0.180126 0
M  V30 6016 C 589.53 -1.81761 -0.899497 0
M  V30 6017 C 589.863 -0.670015 -1.82276 0
M  V30 6018 O 589.138 0.328575 -1.91705 0
M  V30 6019 C 589.421 -3.17296 -1.7028 0
M  V30 6020 C 589.274 -4.4257 -0.803255 0
M  V30 6021 C 590.593 -3.49678 -2.67233 0
M  V30 6022 H 587.712 -0.661192 -0.325567 0
M  V30 6023 H 590.354 -1.89272 -0.16612 0
M  V30 6024 H 588.504 -3.11023 -2.32802 0
M  V30 6025 H 590.176 -4.60902 -0.191585 0
M  V30 6026 H 588.419 -4.33658 -0.110796 0
M  V30 6027 H 589.09 -5.33935 -1.40064 0
M  V30 6028 H 591.566 -3.56347 -2.14839 0
M  V30 6029 H 590.442 -4.45605 -3.20511 0
M  V30 6030 H 590.703 -2.73932 -3.47007 0
M  V30 6031 N 589.762 0.448376 -1.51087 0
M  V30 6032 C 590.672 1.56882 -1.74428 0
M  V30 6033 C 591.688 1.62268 -0.62809 0
M  V30 6034 O 592.864 1.79716 -0.909075 0
M  V30 6035 C 589.929 2.92947 -1.85426 0
M  V30 6036 C 588.99 2.97766 -3.09247 0
M  V30 6037 C 588.223 4.27341 -3.19711 0
M  V30 6038 O 588.446 5.19112 -2.36387 0
M  V30 6039 O 587.38 4.38219 -4.12611 0
M  V30 6040 H 591.206 1.40104 -2.69452 0
M  V30 6041 H 588.791 0.630247 -1.35456 0
M  V30 6042 H 590.673 3.73719 -1.94709 0
M  V30 6043 H 589.348 3.09876 -0.935887 0
M  V30 6044 H 588.255 2.15989 -3.0545 0
M  V30 6045 H 589.588 2.8578 -4.00738 0
M  V30 6046 N 591.24 1.41047 0.703093 0
M  V30 6047 C 592.17 1.45067 1.82969 0
M  V30 6048 C 593.151 0.31016 1.67248 0
M  V30 6049 O 594.336 0.520548 1.87093 0
M  V30 6050 C 591.466 1.32478 3.2104 0
M  V30 6051 C 590.42 2.44262 3.51454 0
M  V30 6052 C 589.746 2.16742 4.88801 0
M  V30 6053 C 591.046 3.86606 3.51189 0
M  V30 6054 H 592.74 2.39353 1.79863 0
M  V30 6055 H 590.286 1.15206 0.863919 0
M  V30 6056 H 592.239 1.33904 3.99559 0
M  V30 6057 H 590.963 0.346735 3.24754 0
M  V30 6058 H 589.622 2.42107 2.75282 0
M  V30 6059 H 589.27 1.17299 4.89132 0
M  V30 6060 H 588.97 2.91643 5.10116 0
M  V30 6061 H 590.494 2.19872 5.69639 0
M  V30 6062 H 591.908 3.90517 4.19725 0
M  V30 6063 H 590.305 4.61128 3.84033 0
M  V30 6064 H 591.375 4.15296 2.50315 0
M  V30 6065 N 592.718 -0.936591 1.26751 0
M  V30 6066 C 593.666 -2.0573 1.08527 0
M  V30 6067 C 594.66 -1.69397 0.0108784 0
M  V30 6068 O 595.866 -1.79215 0.167915 0
M  V30 6069 H 592.241 -0.673691 0.334133 0
M  V30 6070 H 594.212 -2.1825 2.03493 0
M  V30 6071 C 592.961 -3.39738 0.739845 0
M  V30 6072 H 592.284 -3.68174 1.55845 0
M  V30 6073 H 593.724 -4.18955 0.652149 0
M  V30 6074 C 592.183 -3.32292 -0.555288 0
M  V30 6075 O 592.713 -3.68794 -1.59229 0
M  V30 6076 N 590.919 -2.85394 -0.54762 0
M  V30 6077 H 590.466 -2.55886 0.296667 0
M  V30 6078 H 590.424 -2.80795 -1.41427 0
M  V30 6079 N 594.196 -1.08629 -1.14182 0
M  V30 6080 C 595.159 -0.722027 -2.1753 0
M  V30 6081 C 596.159 0.244305 -1.58933 0
M  V30 6082 O 597.349 0.0235545 -1.74184 0
M  V30 6083 C 594.481 -0.0663966 -3.40835 0
M  V30 6084 H 595.674 -1.63719 -2.51269 0
M  V30 6085 H 593.227 -0.884442 -1.28869 0
M  V30 6086 H 593.962 0.860389 -3.12678 0
M  V30 6087 H 593.747 -0.761598 -3.84632 0
M  V30 6088 H 595.237 0.173346 -4.1724 0
M  V30 6089 N 595.674 1.31259 -0.872281 0
M  V30 6090 C 596.922 1.96233 -0.483409 0
M  V30 6091 C 597.243 1.69276 0.968012 0
M  V30 6092 O 596.513 1.00943 1.67891 0
M  V30 6093 H 595.093 0.726025 -0.175774 0
M  V30 6094 H 597.755 1.60024 -1.11258 0
M  V30 6095 H 596.851 3.05403 -0.643075 0
M  V30 6096 N 597.152 0.631951 1.44375 0
M  V30 6097 C 598.084 -0.110911 2.28931 0
M  V30 6098 C 599.097 -0.808086 1.41329 0
M  V30 6099 O 600.286 -0.669396 1.65473 0
M  V30 6100 C 597.386 -1.17928 3.1772 0
M  V30 6101 C 596.559 -0.564458 4.33743 0
M  V30 6102 C 595.618 -1.5269 5.0356 0
M  V30 6103 O 594.644 -1.04372 5.59549 0
M  V30 6104 N 595.846 -2.86123 5.05088 0
M  V30 6105 H 598.611 0.614758 2.93327 0
M  V30 6106 H 596.172 0.473171 1.54831 0
M  V30 6107 H 598.164 -1.82348 3.61291 0
M  V30 6108 H 596.734 -1.80717 2.55069 0
M  V30 6109 H 595.954 0.258373 3.93352 0
M  V30 6110 H 597.242 -0.134355 5.08623 0
M  V30 6111 H 596.64 -3.27959 4.60933 0
M  V30 6112 H 595.197 -3.45901 5.52445 0
M  V30 6113 N 598.631 -1.53133 0.372548 0
M  V30 6114 C 599.88 -2.00539 -0.216115 0
M  V30 6115 C 600.193 -1.26374 -1.49295 0
M  V30 6116 O 601.399 -1.64404 -2.16064 0
M  V30 6117 C 599.855 -3.57253 -0.435678 0
M  V30 6118 C 599.463 -4.40302 0.82693 0
M  V30 6119 C 601.207 -4.12995 -0.981618 0
M  V30 6120 C 599.114 -5.88583 0.576567 0
M  V30 6121 H 598.044 -0.749246 -0.084536 0
M  V30 6122 H 600.695 -1.76771 0.492364 0
M  V30 6123 H 599.077 -3.77202 -1.20559 0
M  V30 6124 H 600.251 -4.32124 1.60017 0
M  V30 6125 H 598.566 -3.95699 1.29659 0
M  V30 6126 H 601.163 -5.21418 -1.18436 0
M  V30 6127 H 601.506 -3.68027 -1.94581 0
M  V30 6128 H 602.039 -3.96871 -0.271696 0
M  V30 6129 H 598.778 -6.37841 1.51128 0
M  V30 6130 H 598.298 -5.99592 -0.158047 0
M  V30 6131 H 599.977 -6.46676 0.204722 0
M  V30 6132 N 600.109 -0.101901 -1.5727 0
M  V30 6133 C 601.356 0.560197 -1.94597 0
M  V30 6134 C 601.684 1.67767 -0.984101 0
M  V30 6135 O 600.939 1.95699 -0.00489193 0
M  V30 6136 C 601.238 1.14898 -3.38427 0
M  V30 6137 C 600.904 0.154613 -4.50635 0
M  V30 6138 C 599.566 -0.118861 -4.81053 0
M  V30 6139 C 601.918 -0.523979 -5.18559 0
M  V30 6140 C 599.246 -1.0775 -5.76721 0
M  V30 6141 C 601.598 -1.47114 -6.15256 0
M  V30 6142 C 600.262 -1.75278 -6.44076 0
M  V30 6143 H 599.532 0.204991 -0.712081 0
M  V30 6144 H 602.179 -0.17918 -1.9066 0
M  V30 6145 H 600.484 1.96476 -3.38976 0
M  V30 6146 H 602.181 1.66909 -3.64613 0
M  V30 6147 H 598.771 0.377948 -4.2693 0
M  V30 6148 H 602.955 -0.325851 -4.95229 0
M  V30 6149 H 598.211 -1.30263 -5.97362 0
M  V30 6150 H 602.385 -2.00274 -6.66981 0
M  V30 6151 H 600.012 -2.49717 -7.18015 0
M  V30 6152 N 601.587 1.56661 0.17182 0
M  V30 6153 C 602.815 1.861 0.904115 0
M  V30 6154 C 603.23 0.687227 1.75848 0
M  V30 6155 O 602.587 -0.343671 1.79235 0
M  V30 6156 C 602.638 3.14568 1.78127 0
M  V30 6157 O 602.359 4.27422 0.961366 0
M  V30 6158 C 603.86 3.5735 2.62327 0
M  V30 6159 H 601.08 0.617445 0.262684 0
M  V30 6160 H 603.624 2.03775 0.172068 0
M  V30 6161 H 601.779 2.98721 2.46666 0
M  V30 6162 H 602.193 5.00725 1.56123 0
M  V30 6163 H 603.667 4.50144 3.1949 0
M  V30 6164 H 604.144 2.81445 3.37173 0
M  V30 6165 H 604.75 3.75807 1.99121 0
M  V30 6166 N 603.065 -0.440357 1.51323 0
M  V30 6167 C 604.314 -1.18697 1.63076 0
M  V30 6168 C 604.627 -1.92418 0.35136 0
M  V30 6169 O 605.833 -2.69258 0.348221 0
M  V30 6170 C 604.289 -2.15849 2.87988 0
M  V30 6171 C 603.897 -1.47789 4.22921 0
M  V30 6172 C 605.641 -2.90962 3.09098 0
M  V30 6173 C 603.548 -2.43407 5.38987 0
M  V30 6174 H 602.478 -0.44676 0.607389 0
M  V30 6175 H 605.129 -0.454313 1.77787 0
M  V30 6176 H 603.511 -2.92537 2.66905 0
M  V30 6177 H 604.685 -0.7668 4.54375 0
M  V30 6178 H 603 -0.848404 4.07665 0
M  V30 6179 H 605.597 -3.62584 3.92985 0
M  V30 6180 H 605.94 -3.52133 2.22053 0
M  V30 6181 H 606.473 -2.21381 3.30507 0
M  V30 6182 H 603.212 -1.86929 6.28282 0
M  V30 6183 H 602.732 -3.12579 5.11913 0
M  V30 6184 H 604.411 -3.046 5.70813 0
M  V30 6185 N 604.543 -1.41418 -0.695603 0
M  V30 6186 C 605.473 -1.46035 -1.82197 0
M  V30 6187 C 606.454 -0.319025 -1.67082 0
M  V30 6188 O 607.639 -0.530462 -1.86815 0
M  V30 6189 C 604.769 -1.34179 -3.20333 0
M  V30 6190 C 603.723 -2.46123 -3.50154 0
M  V30 6191 C 603.049 -2.19332 -4.87645 0
M  V30 6192 C 604.349 -3.88463 -3.49133 0
M  V30 6193 H 606.043 -2.40303 -1.78591 0
M  V30 6194 H 603.589 -1.15663 -0.857797 0
M  V30 6195 H 605.542 -1.36021 -3.98844 0
M  V30 6196 H 604.266 -0.363952 -3.24566 0
M  V30 6197 H 602.925 -2.43563 -2.73994 0
M  V30 6198 H 602.573 -1.19891 -4.88503 0
M  V30 6199 H 602.273 -2.94344 -5.08562 0
M  V30 6200 H 603.797 -2.22889 -5.68465 0
M  V30 6201 H 605.211 -3.92738 -4.17648 0
M  V30 6202 H 603.608 -4.63158 -3.81582 0
M  V30 6203 H 604.678 -4.16617 -2.48109 0
M  V30 6204 N 606.021 0.929856 -1.27246 0
M  V30 6205 C 607.267 1.6798 -1.13625 0
M  V30 6206 C 607.6 1.91586 0.317589 0
M  V30 6207 O 606.875 1.50467 1.23247 0
M  V30 6208 C 607.158 3.04766 -1.91806 0
M  V30 6209 C 607.011 2.88415 -3.45162 0
M  V30 6210 C 608.33 4.05063 -1.72082 0
M  V30 6211 H 605.449 0.609632 -0.414147 0
M  V30 6212 H 608.091 1.0792 -1.56376 0
M  V30 6213 H 606.241 3.56034 -1.55474 0
M  V30 6214 H 607.913 2.44282 -3.91311 0
M  V30 6215 H 606.156 2.23802 -3.71611 0
M  V30 6216 H 606.827 3.85482 -3.95105 0
M  V30 6217 H 609.303 3.62798 -2.03757 0
M  V30 6218 H 608.179 4.98765 -2.29182 0
M  V30 6219 H 608.44 4.37021 -0.668206 0
M  V30 6220 N 607.499 1.09233 1.13605 0
M  V30 6221 C 608.727 0.848908 1.88683 0
M  V30 6222 C 609.142 -0.599667 1.79024 0
M  V30 6223 O 608.499 -1.41265 1.15544 0
M  V30 6224 C 608.55 1.27273 3.38355 0
M  V30 6225 O 608.271 2.66449 3.47759 0
M  V30 6226 C 609.772 1.0614 4.30406 0
M  V30 6227 H 606.992 0.305549 0.597395 0
M  V30 6228 H 609.536 1.4538 1.43823 0
M  V30 6229 H 607.691 0.711776 3.80805 0
M  V30 6230 H 608.105 2.84264 4.40788 0
M  V30 6231 H 609.579 1.40725 5.33761 0
M  V30 6232 H 610.056 -0.000960332 4.392 0
M  V30 6233 H 610.662 1.60821 3.93722 0
M  V30 6234 N 608.977 -1.30795 0.87923 0
M  V30 6235 C 609.94 -2.26563 0.346676 0
M  V30 6236 C 610.94 -1.52578 -0.507597 0
M  V30 6237 O 612.13 -1.71318 -0.315575 0
M  V30 6238 C 609.262 -3.37115 -0.506611 0
M  V30 6239 H 610.455 -2.75183 1.19223 0
M  V30 6240 H 608.008 -1.41886 0.655598 0
M  V30 6241 H 608.743 -2.93802 -1.37299 0
M  V30 6242 H 608.528 -3.91959 0.105218 0
M  V30 6243 H 610.018 -4.08412 -0.871192 0
M  V30 6244 N 610.455 -0.639598 -1.44038 0
M  V30 6245 C 611.683 -0.154811 -2.0632 0
M  V30 6246 C 612.098 1.17406 -1.47856 0
M  V30 6247 O 611.455 1.72193 -0.604638 0
M  V30 6248 C 611.506 -0.0429958 -3.61474 0
M  V30 6249 O 611.227 -1.31932 -4.17763 0
M  V30 6250 C 612.728 0.469486 -4.40807 0
M  V30 6251 H 609.948 -0.0835862 -0.665773 0
M  V30 6252 H 612.492 -0.876397 -1.84769 0
M  V30 6253 H 610.647 0.629075 -3.82258 0
M  V30 6254 H 611.061 -1.16965 -5.11292 0
M  V30 6255 H 612.535 0.496712 -5.49761 0
M  V30 6256 H 613.012 1.49819 -4.12857 0
M  V30 6257 H 613.618 -0.169624 -4.24962 0
M  V30 6258 N 611.933 1.52934 -0.380664 0
M  V30 6259 C 612.896 2.24809 0.446473 0
M  V30 6260 C 613.896 1.26133 0.997347 0
M  V30 6261 O 615.086 1.50297 0.880714 0
M  V30 6262 C 612.218 2.99649 1.62553 0
M  V30 6263 H 613.411 2.99343 -0.182677 0
M  V30 6264 H 610.964 1.55736 -0.132618 0
M  V30 6265 H 611.699 2.29395 2.29235 0
M  V30 6266 H 611.484 3.72066 1.23732 0
M  V30 6267 H 612.974 3.54246 2.21133 0
M  V30 6268 N 613.412 0.11024 1.57214 0
M  V30 6269 C 614.637 -0.561179 1.99664 0
M  V30 6270 C 615.062 -1.59985 0.989266 0
M  V30 6271 O 614.42 -1.81255 -0.0402399 0
M  V30 6272 C 614.468 -1.17189 3.41027 0
M  V30 6273 O 613.572 -2.28755 3.4314 0
M  V30 6274 H 612.913 -0.14101 0.648855 0
M  V30 6275 H 615.443 0.196128 2.03658 0
M  V30 6276 H 615.453 -1.50954 3.79047 0
M  V30 6277 H 614.128 -0.411041 4.13864 0
M  V30 6278 H 612.705 -1.96495 3.16929 0
M  V30 6279 N 614.89 -1.56749 -0.16351 0
M  V30 6280 C 616.115 -1.86938 -0.898264 0
M  V30 6281 C 616.54 -0.697456 -1.74692 0
M  V30 6282 O 615.898 0.353327 -1.77824 0
M  V30 6283 C 615.946 -3.15599 -1.74441 0
M  V30 6284 O 615.05 -2.98371 -2.8469 0
M  V30 6285 H 614.391 -0.614659 -0.251178 0
M  V30 6286 H 616.921 -2.03979 -0.159298 0
M  V30 6287 H 616.931 -3.47202 -2.14277 0
M  V30 6288 H 615.606 -4.00505 -1.1211 0
M  V30 6289 H 614.183 -2.7814 -2.4838 0
M  V30 6290 N 616.368 0.432326 -1.51554 0
M  V30 6291 C 617.614 1.18309 -1.64714 0
M  V30 6292 C 617.947 1.90745 -0.364696 0
M  V30 6293 O 617.222 1.8381 0.635936 0
M  V30 6294 C 617.505 2.1961 -2.85383 0
M  V30 6295 C 617.358 1.51223 -4.23617 0
M  V30 6296 C 618.677 3.20538 -3.01569 0
M  V30 6297 H 615.796 0.428751 -0.599451 0
M  V30 6298 H 618.438 0.471689 -1.84052 0
M  V30 6299 H 616.588 2.8028 -2.69027 0
M  V30 6300 H 618.26 0.938516 -4.51652 0
M  V30 6301 H 616.503 0.814501 -4.26085 0
M  V30 6302 H 617.174 2.25024 -5.04052 0
M  V30 6303 H 619.65 2.69926 -3.16669 0
M  V30 6304 H 618.526 3.88706 -3.87555 0
M  V30 6305 H 618.787 3.86933 -2.13859 0
M  V30 6306 N 617.846 1.41785 0.688094 0
M  V30 6307 C 619.094 1.41264 1.4453 0
M  V30 6308 C 619.415 0.0252946 1.94984 0
M  V30 6309 O 618.685 -0.934081 1.72197 0
M  V30 6310 H 617.265 0.519998 0.536294 0
M  V30 6311 H 619.927 1.7709 0.813941 0
M  V30 6312 H 619.023 2.10439 2.30482 0
M  V30 6313 N 619.324 -0.923095 1.27737 0
M  V30 6314 C 620.287 -2.00587 1.10894 0
M  V30 6315 C 621.287 -1.60718 0.0514927 0
M  V30 6316 O 622.477 -1.71658 0.296481 0
M  V30 6317 C 619.609 -3.33829 0.690717 0
M  V30 6318 H 620.802 -2.16959 2.07048 0
M  V30 6319 H 618.355 -1.10451 1.1059 0
M  V30 6320 H 619.09 -3.23157 -0.272 0
M  V30 6321 H 618.875 -3.64125 1.45448 0
M  V30 6322 H 620.365 -4.13336 0.595252 0
M  V30 6323 N 620.802 -1.09834 -1.13024 0
M  V30 6324 C 621.765 -0.745058 -2.16752 0
M  V30 6325 C 622.765 0.227435 -1.59183 0
M  V30 6326 O 623.955 0.0050786 -1.74199 0
M  V30 6327 C 621.087 -0.102543 -3.40746 0
M  V30 6328 H 622.28 -1.66375 -2.49518 0
M  V30 6329 H 619.833 -0.898061 -1.27924 0
M  V30 6330 H 620.568 0.827177 -3.13573 0
M  V30 6331 H 620.353 -0.80235 -3.83803 0
M  V30 6332 H 621.843 0.129082 -4.174 0
M  V30 6333 N 622.28 1.30327 -0.886154 0
M  V30 6334 C 623.528 1.9571 -0.504195 0
M  V30 6335 C 623.849 1.70294 0.950003 0
M  V30 6336 O 623.119 1.02718 1.66811 0
M  V30 6337 H 621.699 0.72412 -0.183465 0
M  V30 6338 H 624.361 1.58835 -1.12949 0
M  V30 6339 H 623.457 3.04704 -0.675431 0
M  V30 6340 N 623.758 0.647228 1.43697 0
M  V30 6341 C 625.004 0.158422 2.0218 0
M  V30 6342 C 625.337 -1.22233 1.50907 0
M  V30 6343 O 624.612 -1.81478 0.699702 0
M  V30 6344 C 624.895 0.1627 3.59732 0
M  V30 6345 C 624.748 1.57694 4.21251 0
M  V30 6346 C 626.067 -0.504138 4.37203 0
M  V30 6347 H 623.186 0.059042 0.734631 0
M  V30 6348 H 625.828 0.826772 1.71069 0
M  V30 6349 H 623.978 -0.406414 3.86368 0
M  V30 6350 H 625.65 2.19618 4.05667 0
M  V30 6351 H 623.893 2.12603 3.7813 0
M  V30 6352 H 624.564 1.53183 5.3032 0
M  V30 6353 H 627.04 -0.0199841 4.16095 0
M  V30 6354 H 625.916 -0.470394 5.46881 0
M  V30 6355 H 626.177 -1.57726 4.13007 0
M  V30 6356 N 625.236 -1.5273 0.388769 0
M  V30 6357 C 626.647 -1.86505 -0.0853788 0
M  V30 6358 C 626.998 -1.30847 -1.46197 0
M  V30 6359 O 626.123 -0.639609 -2.06732 0
M  V30 6360 C 626.718 -3.38414 -0.161703 0
M  V30 6361 C 625.277 -3.71902 -0.580144 0
M  V30 6362 C 624.424 -2.76095 0.258218 0
M  V30 6363 H 627.375 -1.46647 0.606665 0
M  V30 6364 H 627.396 -3.67638 -0.980936 0
M  V30 6365 H 626.908 -3.78893 0.840333 0
M  V30 6366 H 625.009 -3.36992 -1.58957 0
M  V30 6367 H 625.122 -4.77902 -0.338663 0
M  V30 6368 H 623.486 -2.53195 -0.276432 0
M  V30 6369 H 624.269 -3.19411 1.25822 0
M  V30 6370 N 626.714 -0.118576 -1.57153 0
M  V30 6371 C 627.677 0.817464 -2.14127 0
M  V30 6372 C 628.677 1.1949 -1.07604 0
M  V30 6373 O 629.867 1.12048 -1.33382 0
M  V30 6374 C 626.999 2.10541 -2.68115 0
M  V30 6375 H 628.192 0.322339 -2.98163 0
M  V30 6376 H 625.745 0.130655 -1.55753 0
M  V30 6377 H 626.48 2.64485 -1.87665 0
M  V30 6378 H 626.265 1.84425 -3.4602 0
M  V30 6379 H 627.755 2.77453 -3.12105 0
M  V30 6380 N 628.193 1.56834 0.155195 0
M  V30 6381 C 629.441 1.82536 0.867462 0
M  V30 6382 C 629.762 0.698168 1.82073 0
M  V30 6383 O 629.032 -0.280807 1.93877 0
M  V30 6384 H 627.612 0.673401 0.323327 0
M  V30 6385 H 630.274 1.94313 0.151156 0
M  V30 6386 H 629.37 2.77171 1.43466 0
M  V30 6387 N 629.671 -0.424282 1.51781 0
M  V30 6388 C 630.919 -1.17028 1.64769 0
M  V30 6389 C 631.24 -1.91409 0.372523 0
M  V30 6390 O 630.51 -1.86091 -0.612108 0
M  V30 6391 H 629.09 -0.434992 0.607282 0
M  V30 6392 H 631.752 -0.485169 1.88765 0
M  V30 6393 H 630.848 -1.8927 2.4816 0
M  V30 6394 N 631.149 -1.42148 -0.680565 0
M  V30 6395 C 632.395 -1.42521 -1.44277 0
M  V30 6396 C 632.728 -0.0393718 -1.9416 0
M  V30 6397 O 632.003 0.935425 -1.70529 0
M  V30 6398 C 632.286 -2.44475 -2.64394 0
M  V30 6399 C 632.139 -3.92226 -2.20179 0
M  V30 6400 C 633.458 -2.43491 -3.66606 0
M  V30 6401 H 630.577 -0.518985 -0.523282 0
M  V30 6402 H 633.219 -1.73524 -0.773914 0
M  V30 6403 H 631.369 -2.18168 -3.21458 0
M  V30 6404 H 633.041 -4.29493 -1.68327 0
M  V30 6405 H 631.284 -4.0637 -1.5181 0
M  V30 6406 H 631.955 -4.59133 -3.06433 0
M  V30 6407 H 634.431 -2.66872 -3.19247 0
M  V30 6408 H 633.307 -3.16816 -4.4824 0
M  V30 6409 H 633.568 -1.45881 -4.17338 0
M  V30 6410 N 632.627 0.916307 -1.28225 0
M  V30 6411 C 633.557 2.0352 -1.14464 0
M  V30 6412 C 634.538 1.70045 -0.0430844 0
M  V30 6413 O 635.723 1.92954 -0.219619 0
M  V30 6414 C 632.853 3.37889 -0.803027 0
M  V30 6415 C 631.807 3.85516 -1.85908 0
M  V30 6416 C 631.133 5.1682 -1.37116 0
M  V30 6417 C 632.433 4.07655 -3.26519 0
M  V30 6418 H 634.127 2.1529 -2.08064 0
M  V30 6419 H 631.673 1.03446 -1.00174 0
M  V30 6420 H 633.626 4.15654 -0.693537 0
M  V30 6421 H 632.35 3.26164 0.168674 0
M  V30 6422 H 631.009 3.09953 -1.95767 0
M  V30 6423 H 630.657 5.01497 -0.38859 0
M  V30 6424 H 630.357 5.49657 -2.07728 0
M  V30 6425 H 631.881 5.97143 -1.27484 0
M  V30 6426 H 633.295 4.75953 -3.19596 0
M  V30 6427 H 631.692 4.51818 -3.94943 0
M  V30 6428 H 632.762 3.12553 -3.70727 0
M  V30 6429 N 634.105 1.10431 1.1244 0
M  V30 6430 C 635.333 0.868872 1.87772 0
M  V30 6431 C 635.748 -0.580645 1.7965 0
M  V30 6432 O 635.105 -1.40031 1.17036 0
M  V30 6433 C 635.156 1.30855 3.36986 0
M  V30 6434 O 634.877 2.70123 3.44914 0
M  V30 6435 C 636.378 1.107 4.29256 0
M  V30 6436 H 633.598 0.311868 0.59412 0
M  V30 6437 H 636.142 1.46897 1.42273 0
M  V30 6438 H 634.297 0.752126 3.80029 0
M  V30 6439 H 634.711 2.88923 4.37748 0
M  V30 6440 H 636.185 1.46378 5.32238 0
M  V30 6441 H 636.662 0.0456228 4.39176 0
M  V30 6442 H 637.268 1.64988 3.91994 0
M  V30 6443 N 635.583 -1.29855 0.893053 0
M  V30 6444 C 636.832 -1.95104 0.511597 0
M  V30 6445 C 637.145 -1.71226 -0.945567 0
M  V30 6446 O 638.351 -2.30525 -1.43424 0
M  V30 6447 C 636.807 -3.49374 0.864034 0
M  V30 6448 C 636.415 -3.82061 2.33952 0
M  V30 6449 C 638.159 -4.20894 0.552167 0
M  V30 6450 C 636.066 -5.29546 2.63316 0
M  V30 6451 H 634.996 -0.73029 0.187597 0
M  V30 6452 H 637.647 -1.47682 1.08914 0
M  V30 6453 H 636.029 -3.95413 0.215493 0
M  V30 6454 H 637.203 -3.46904 3.03305 0
M  V30 6455 H 635.518 -3.23665 2.61973 0
M  V30 6456 H 638.115 -5.29435 0.748489 0
M  V30 6457 H 638.458 -4.13178 -0.508924 0
M  V30 6458 H 638.991 -3.80564 1.15825 0
M  V30 6459 H 635.73 -5.4232 3.68197 0
M  V30 6460 H 635.25 -5.65974 1.9858 0
M  V30 6461 H 636.929 -5.97068 2.49236 0
M  V30 6462 N 637.061 -0.65484 -1.43351 0
M  V30 6463 C 638.024 0.0263562 -2.29185 0
M  V30 6464 C 639.024 0.748951 -1.42293 0
M  V30 6465 O 640.214 0.589957 -1.63906 0
M  V30 6466 C 637.346 1.04806 -3.2439 0
M  V30 6467 H 638.539 -0.728883 -2.90908 0
M  V30 6468 H 636.092 -0.416149 -1.50658 0
M  V30 6469 H 636.827 1.83247 -2.67565 0
M  V30 6470 H 636.612 0.533554 -3.88453 0
M  V30 6471 H 638.102 1.52372 -3.88809 0
M  V30 6472 N 638.539 1.52521 -0.396863 0
M  V30 6473 C 639.788 2.00857 0.184184 0
M  V30 6474 C 640.101 1.28733 1.47265 0
M  V30 6475 O 641.307 1.67821 2.13421 0
M  V30 6476 C 639.763 3.57901 0.378787 0
M  V30 6477 C 639.371 4.38931 -0.896873 0
M  V30 6478 C 641.115 4.14504 0.915789 0
M  V30 6479 C 639.022 5.87591 -0.670133 0
M  V30 6480 H 637.952 0.750496 0.0726055 0
M  V30 6481 H 640.603 1.75965 -0.520425 0
M  V30 6482 H 638.985 3.79072 1.14543 0
M  V30 6483 H 640.159 4.29524 -1.66872 0
M  V30 6484 H 638.474 3.93586 -1.35938 0
M  V30 6485 H 641.071 5.23236 1.10126 0
M  V30 6486 H 641.414 3.71076 1.88701 0
M  V30 6487 H 641.947 3.97253 0.208523 0
M  V30 6488 H 638.686 6.35355 -1.61257 0
M  V30 6489 H 638.206 5.99767 0.0626368 0
M  V30 6490 H 639.885 6.46268 -0.307577 0
M  V30 6491 N 640.017 0.126909 1.57088 0
M  V30 6492 C 641.266 -0.529024 1.94639 0
M  V30 6493 C 641.579 -1.67323 1.01304 0
M  V30 6494 O 642.785 -2.39245 1.28352 0
M  V30 6495 C 641.241 -0.992483 3.45945 0
M  V30 6496 C 640.849 0.123691 4.47829 0
M  V30 6497 C 642.593 -1.61934 3.924 0
M  V30 6498 C 640.5 -0.356911 5.90322 0
M  V30 6499 H 639.43 -0.201397 0.726605 0
M  V30 6500 H 642.081 0.208032 1.82317 0
M  V30 6501 H 640.463 -1.7842 3.53528 0
M  V30 6502 H 641.637 0.900168 4.51922 0
M  V30 6503 H 639.952 0.657699 4.11173 0
M  V30 6504 H 642.549 -1.9902 4.96281 0
M  V30 6505 H 642.892 -2.50075 3.32819 0
M  V30 6506 H 643.425 -0.892894 3.8765 0
M  V30 6507 H 640.164 0.488636 6.53676 0
M  V30 6508 H 639.684 -1.0997 5.89633 0
M  V30 6509 H 641.363 -0.815547 6.41839 0
M  V30 6510 N 641.495 -1.56914 -0.146875 0
M  V30 6511 C 642.425 -2.01308 -1.1831 0
M  V30 6512 C 643.406 -0.892664 -1.44795 0
M  V30 6513 O 644.591 -1.16048 -1.55713 0
M  V30 6514 C 641.721 -2.3938 -2.51624 0
M  V30 6515 C 640.675 -3.54608 -2.3966 0
M  V30 6516 C 640.001 -3.78493 -3.77686 0
M  V30 6517 C 641.301 -4.87269 -1.88058 0
M  V30 6518 H 642.995 -2.88123 -0.813964 0
M  V30 6519 H 640.541 -1.38615 -0.3901 0
M  V30 6520 H 642.494 -2.69037 -3.24341 0
M  V30 6521 H 641.218 -1.49502 -2.90373 0
M  V30 6522 H 639.877 -3.25116 -1.69396 0
M  V30 6523 H 639.525 -2.85866 -4.13871 0
M  V30 6524 H 639.225 -4.56039 -3.70543 0
M  V30 6525 H 640.749 -4.10576 -4.51951 0
M  V30 6526 H 642.163 -5.15644 -2.50568 0
M  V30 6527 H 640.56 -5.68622 -1.91805 0
M  V30 6528 H 641.63 -4.77634 -0.836277 0
M  V30 6529 N 642.974 0.416227 -1.52004 0
M  V30 6530 C 643.884 1.53147 -1.77717 0
M  V30 6531 C 644.9 1.609 -0.662368 0
M  V30 6532 O 646.076 1.77747 -0.946991 0
M  V30 6533 C 643.141 2.88948 -1.91598 0
M  V30 6534 C 642.202 2.9114 -3.15493 0
M  V30 6535 C 641.435 4.20464 -3.28703 0
M  V30 6536 O 641.658 5.13981 -2.47345 0
M  V30 6537 O 640.592 4.29368 -4.21813 0
M  V30 6538 H 644.418 1.34357 -2.72363 0
M  V30 6539 H 642.003 0.601373 -1.36762 0
M  V30 6540 H 643.885 3.69505 -2.02593 0
M  V30 6541 H 642.56 3.07821 -1.00141 0
M  V30 6542 H 641.467 2.09461 -3.09962 0
M  V30 6543 H 642.8 2.77216 -4.06709 0
M  V30 6544 N 644.452 1.42507 0.673017 0
M  V30 6545 C 645.415 1.4582 1.76831 0
M  V30 6546 C 646.415 0.345542 1.57043 0
M  V30 6547 O 647.605 0.606447 1.63303 0
M  V30 6548 C 644.737 1.29158 3.15485 0
M  V30 6549 H 645.93 2.43345 1.7528 0
M  V30 6550 H 643.483 1.28981 0.882817 0
M  V30 6551 H 644.218 0.325626 3.22661 0
M  V30 6552 H 644.003 2.09797 3.31252 0
M  V30 6553 H 645.493 1.34363 3.95394 0
M  V30 6554 N 645.93 -0.909495 1.28709 0
M  V30 6555 C 647.179 -1.65365 1.15487 0
M  V30 6556 C 647.492 -1.93364 -0.294941 0
M  V30 6557 O 648.698 -2.65905 -0.548338 0
M  V30 6558 C 647.154 -2.97923 2.01916 0
M  V30 6559 C 646.762 -2.77556 3.51663 0
M  V30 6560 C 648.506 -3.75814 1.97393 0
M  V30 6561 C 646.413 -4.0578 4.30229 0
M  V30 6562 H 645.343 -0.620323 0.42862 0
M  V30 6563 H 647.994 -1.00894 1.53273 0
M  V30 6564 H 646.376 -3.63552 1.5699 0
M  V30 6565 H 647.55 -2.2058 4.04575 0
M  V30 6566 H 645.865 -2.13072 3.57756 0
M  V30 6567 H 648.462 -4.70866 2.53357 0
M  V30 6568 H 648.805 -4.05277 0.951643 0
M  V30 6569 H 649.338 -3.1701 2.40311 0
M  V30 6570 H 646.077 -3.81488 5.33055 0
M  V30 6571 H 645.597 -4.62351 3.82089 0
M  V30 6572 H 647.276 -4.74004 4.40374 0
M  V30 6573 N 647.408 -1.11026 -1.11852 0
M  V30 6574 C 648.656 -0.854769 -1.83134 0
M  V30 6575 C 648.977 0.621375 -1.84835 0
M  V30 6576 O 648.247 1.45129 -1.31584 0
M  V30 6577 H 646.827 -0.313229 -0.678157 0
M  V30 6578 H 649.489 -1.40178 -1.35411 0
M  V30 6579 H 648.585 -1.22311 -2.87135 0
M  V30 6580 N 648.886 1.2938 -0.899927 0
M  V30 6581 C 649.816 2.30144 -0.39446 0
M  V30 6582 C 650.797 1.61611 0.530639 0
M  V30 6583 O 651.982 1.89119 0.441319 0
M  V30 6584 C 649.112 3.45229 0.37868 0
M  V30 6585 C 648.066 4.25564 -0.456012 0
M  V30 6586 C 647.392 5.32848 0.444637 0
M  V30 6587 C 648.692 4.93651 -1.70605 0
M  V30 6588 H 650.386 2.72673 -1.23653 0
M  V30 6589 H 647.932 1.31086 -0.596034 0
M  V30 6590 H 649.885 4.14797 0.743037 0
M  V30 6591 H 648.609 3.01545 1.25453 0
M  V30 6592 H 647.268 3.57704 -0.802704 0
M  V30 6593 H 646.916 4.85408 1.31863 0
M  V30 6594 H 646.616 5.87497 -0.110154 0
M  V30 6595 H 648.14 6.05268 0.805182 0
M  V30 6596 H 649.554 5.55655 -1.41141 0
M  V30 6597 H 647.951 5.58233 -2.20217 0
M  V30 6598 H 649.021 4.18926 -2.4419 0
M  V30 6599 N 650.364 0.662433 1.43002 0
M  V30 6600 C 651.775 0.258315 1.84904 0
M  V30 6601 C 652.126 -1.19703 1.55453 0
M  V30 6602 O 651.251 -1.91484 1.00811 0
M  V30 6603 C 651.846 0.462047 3.35635 0
M  V30 6604 C 650.405 0.112165 3.76233 0
M  V30 6605 C 649.552 0.760479 2.66668 0
M  V30 6606 H 652.503 0.865467 1.33024 0
M  V30 6607 H 652.524 -0.289646 3.79396 0
M  V30 6608 H 652.036 1.52135 3.57039 0
M  V30 6609 H 650.137 -0.944179 3.60439 0
M  V30 6610 H 650.25 0.544058 4.76001 0
M  V30 6611 H 648.614 0.192887 2.53969 0
M  V30 6612 H 649.397 1.82299 2.90898 0
M  V30 6613 N 651.842 -1.52309 0.404946 0
M  V30 6614 C 653.07 -2.06185 -0.171818 0
M  V30 6615 C 653.485 -1.27536 -1.39212 0
M  V30 6616 O 652.842 -0.326112 -1.79563 0
M  V30 6617 C 652.893 -3.57647 -0.526417 0
M  V30 6618 O 652.614 -4.3332 0.645417 0
M  V30 6619 C 654.115 -4.27925 -1.15736 0
M  V30 6620 H 651.335 -0.670632 -0.0222328 0
M  V30 6621 H 653.879 -1.96259 0.574692 0
M  V30 6622 H 652.034 -3.67595 -1.22282 0
M  V30 6623 H 652.448 -5.23328 0.35042 0
M  V30 6624 H 653.922 -5.35093 -1.35572 0
M  V30 6625 H 654.399 -3.84134 -2.12926 0
M  V30 6626 H 655.005 -4.22335 -0.501281 0
M  V30 6627 N 653.32 -0.135238 -1.57019 0
M  V30 6628 C 654.27 0.820408 -2.12728 0
M  V30 6629 C 655.254 1.21735 -1.05211 0
M  V30 6630 O 656.446 1.18574 -1.31413 0
M  V30 6631 C 653.575 2.06414 -2.74314 0
M  V30 6632 C 652.661 1.69083 -3.88937 0
M  V30 6633 N 653.052 1.0251 -4.95303 0
M  V30 6634 C 651.35 1.98434 -3.99425 0
M  V30 6635 C 652.051 0.846749 -5.75504 0
M  V30 6636 N 651.027 1.3769 -5.25873 0
M  V30 6637 H 654.829 0.302426 -2.9234 0
M  V30 6638 H 652.343 0.0667009 -1.62263 0
M  V30 6639 H 654.34 2.75863 -3.12579 0
M  V30 6640 H 653 2.58741 -1.96171 0
M  V30 6641 H 654.011 0.687207 -5.1332 0
M  V30 6642 H 650.688 2.52693 -3.32344 0
M  V30 6643 H 652.078 0.322949 -6.71123 0
M  V30 6644 N 654.798 1.5699 0.138552 0
M  V30 6645 C 656.075 1.74741 0.87891 0
M  V30 6646 C 656.455 0.705522 1.98961 0
M  V30 6647 O 655.803 -0.274066 2.2685 0
M  V30 6648 C 656.013 3.1909 1.4136 0
M  V30 6649 C 657.361 3.81023 1.87368 0
M  V30 6650 O 658.385 3.22571 1.51084 0
M  V30 6651 O 657.244 4.83722 2.54312 0
M  V30 6652 H 654.338 0.714781 0.415953 0
M  V30 6653 H 656.884 1.69248 0.123817 0
M  V30 6654 H 655.656 3.86424 0.61579 0
M  V30 6655 H 655.279 3.29043 2.23196 0
M  V30 6656 N 656.276 -0.40816 1.52223 0
M  V30 6657 C 657.206 -1.5042 1.78595 0
M  V30 6658 C 658.187 -1.57723 0.636974 0
M  V30 6659 O 659.372 -1.72982 0.882664 0
M  V30 6660 C 656.502 -2.88232 1.93751 0
M  V30 6661 C 655.456 -2.95779 3.09352 0
M  V30 6662 C 654.782 -4.35855 3.09732 0
M  V30 6663 C 656.082 -2.67175 4.48793 0
M  V30 6664 H 657.776 -1.28601 2.70374 0
M  V30 6665 H 655.322 -0.617221 1.30101 0
M  V30 6666 H 657.275 -3.64895 2.10783 0
M  V30 6667 H 655.999 -3.11347 0.986443 0
M  V30 6668 H 654.658 -2.21561 2.92072 0
M  V30 6669 H 654.306 -4.55981 2.12346 0
M  V30 6670 H 654.006 -4.41829 3.87377 0
M  V30 6671 H 655.53 -5.14451 3.28895 0
M  V30 6672 H 656.944 -3.3356 4.66273 0
M  V30 6673 H 655.341 -2.84523 5.28362 0
M  V30 6674 H 656.411 -1.62609 4.56822 0
M  V30 6675 N 657.755 -1.42862 -0.66545 0
M  V30 6676 C 659.166 -1.3901 -1.24632 0
M  V30 6677 C 659.517 -0.0880285 -1.96002 0
M  V30 6678 O 658.642 0.812947 -2.0055 0
M  V30 6679 C 659.237 -2.51806 -2.2667 0
M  V30 6680 C 657.796 -2.51257 -2.80262 0
M  V30 6681 C 656.943 -2.30124 -1.5472 0
M  V30 6682 H 659.894 -1.5194 -0.458237 0
M  V30 6683 H 659.915 -2.22593 -3.08598 0
M  V30 6684 H 659.427 -3.46558 -1.74697 0
M  V30 6685 H 657.528 -1.60349 -3.36332 0
M  V30 6686 H 657.641 -3.48614 -3.28641 0
M  V30 6687 H 656.005 -1.7856 -1.81627 0
M  V30 6688 H 656.788 -3.26945 -1.04699 0
M  V30 6689 N 659.233 0.902656 -1.29189 0
M  V30 6690 C 660.163 2.02294 -1.16616 0
M  V30 6691 C 661.144 1.6999 -0.0611175 0
M  V30 6692 O 662.329 1.9271 -0.240072 0
M  V30 6693 C 659.459 3.37018 -0.83882 0
M  V30 6694 C 658.413 3.83522 -1.89986 0
M  V30 6695 C 657.739 5.15337 -1.42589 0
M  V30 6696 C 659.039 4.04169 -3.30824 0
M  V30 6697 H 660.733 2.13071 -2.10336 0
M  V30 6698 H 658.279 1.02378 -1.01266 0
M  V30 6699 H 660.232 4.14895 -0.737584 0
M  V30 6700 H 658.956 3.26325 0.134071 0
M  V30 6701 H 657.615 3.07859 -1.99043 0
M  V30 6702 H 657.263 5.01056 -0.441759 0
M  V30 6703 H 656.963 5.47423 -2.13547 0
M  V30 6704 H 658.487 5.95758 -1.3381 0
M  V30 6705 H 659.901 4.72537 -3.24626 0
M  V30 6706 H 658.298 4.47604 -3.99713 0
M  V30 6707 H 659.368 3.08604 -3.74021 0
M  V30 6708 N 660.711 1.11618 1.11262 0
M  V30 6709 C 661.96 0.860934 1.82403 0
M  V30 6710 C 662.273 -0.615303 1.8567 0
M  V30 6711 O 663.479 -0.986861 2.52929 0
M  V30 6712 C 661.935 1.49048 3.27586 0
M  V30 6713 C 661.543 3.00089 3.32642 0
M  V30 6714 C 663.287 1.31515 4.03614 0
M  V30 6715 C 661.194 3.56019 4.72234 0
M  V30 6716 H 660.124 0.318423 0.683464 0
M  V30 6717 H 662.775 1.34165 1.25188 0
M  V30 6718 H 661.157 0.937434 3.84744 0
M  V30 6719 H 662.331 3.61813 2.85356 0
M  V30 6720 H 660.646 3.16919 2.70096 0
M  V30 6721 H 663.243 1.70732 5.0671 0
M  V30 6722 H 663.586 0.257917 4.155 0
M  V30 6723 H 664.119 1.83694 3.52848 0
M  V30 6724 H 660.858 4.61463 4.65545 0
M  V30 6725 H 660.378 2.99066 5.19923 0
M  V30 6726 H 662.057 3.54568 5.41193 0
M  V30 6727 N 662.189 -1.289 0.906776 0
M  V30 6728 C 663.119 -2.29932 0.406659 0
M  V30 6729 C 664.1 -1.6189 -0.522061 0
M  V30 6730 O 665.285 -1.8935 -0.431283 0
M  V30 6731 C 662.415 -3.45425 -0.360366 0
M  V30 6732 C 661.369 -4.25316 0.478574 0
M  V30 6733 C 660.695 -5.33076 -0.416373 0
M  V30 6734 C 661.995 -4.92739 1.7322 0
M  V30 6735 H 663.689 -2.72013 1.25097 0
M  V30 6736 H 661.235 -1.30768 0.602977 0
M  V30 6737 H 663.188 -4.15186 -0.721029 0
M  V30 6738 H 661.912 -3.02206 -1.23852 0
M  V30 6739 H 660.571 -3.57273 0.821662 0
M  V30 6740 H 660.219 -4.86101 -1.29287 0
M  V30 6741 H 659.919 -5.8743 0.141309 0
M  V30 6742 H 661.443 -6.05686 -0.773072 0
M  V30 6743 H 662.857 -5.54898 1.44086 0
M  V30 6744 H 661.254 -5.57057 2.23175 0
M  V30 6745 H 662.324 -4.17625 2.46408 0
M  V30 6746 N 663.667 -0.670007 -1.42649 0
M  V30 6747 C 664.63 0.00204659 -2.292 0
M  V30 6748 C 665.63 0.733817 -1.4308 0
M  V30 6749 O 666.82 0.57254 -1.64522 0
M  V30 6750 C 663.952 1.01359 -3.25483 0
M  V30 6751 H 665.145 -0.759696 -2.90118 0
M  V30 6752 H 662.698 -0.432105 -1.50208 0
M  V30 6753 H 663.433 1.80399 -2.69493 0
M  V30 6754 H 663.218 0.492323 -3.88997 0
M  V30 6755 H 664.708 1.4824 -3.90403 0
M  V30 6756 N 665.145 1.52092 -0.413018 0
M  V30 6757 C 666.391 2.02154 0.161737 0
M  V30 6758 C 666.724 1.29789 1.44459 0
M  V30 6759 O 665.999 0.405378 1.90229 0
M  V30 6760 C 666.282 3.5781 0.405463 0
M  V30 6761 C 666.135 4.40819 -0.894335 0
M  V30 6762 C 667.454 4.23821 1.18591 0
M  V30 6763 H 664.573 0.734769 0.0573077 0
M  V30 6764 H 667.215 1.81948 -0.547247 0
M  V30 6765 H 665.365 3.75158 1.0094 0
M  V30 6766 H 667.037 4.35175 -1.53039 0
M  V30 6767 H 665.28 4.06877 -1.50444 0
M  V30 6768 H 665.951 5.47819 -0.678144 0
M  V30 6769 H 668.427 4.10596 0.674573 0
M  V30 6770 H 667.303 5.32663 1.3252 0
M  V30 6771 H 667.564 3.83038 2.20758 0
M  V30 6772 N 666.623 0.143563 1.56945 0
M  V30 6773 C 667.9 -0.553285 1.87612 0
M  V30 6774 C 668.28 -1.83195 1.04894 0
M  V30 6775 O 667.628 -2.28102 0.134773 0
M  V30 6776 C 667.838 -0.822055 3.3918 0
M  V30 6777 C 669.186 -1.16435 4.08324 0
M  V30 6778 O 670.21 -0.911522 3.4434 0
M  V30 6779 O 669.069 -1.63996 5.21313 0
M  V30 6780 H 666.163 -0.281851 0.777489 0
M  V30 6781 H 668.709 0.179916 1.68744 0
M  V30 6782 H 667.481 0.0830265 3.91212 0
M  V30 6783 H 667.104 -1.60956 3.63564 0
M  V30 6784 N 668.101 -1.57061 -0.130224 0
M  V30 6785 C 669.347 -1.85412 -0.836295 0
M  V30 6786 C 669.702 -0.729831 -1.7802 0
M  V30 6787 O 668.995 0.271021 -1.89673 0
M  V30 6788 C 669.189 -3.17878 -1.63365 0
M  V30 6789 C 669.018 -4.43086 -0.768453 0
M  V30 6790 C 667.788 -5.03488 -0.427598 0
M  V30 6791 C 669.986 -5.14219 -0.0911495 0
M  V30 6792 N 667.968 -6.12253 0.449439 0
M  V30 6793 C 669.339 -6.16632 0.645341 0
M  V30 6794 C 671.394 -4.97898 -0.0135625 0
M  V30 6795 C 670.097 -7.0449 1.45212 0
M  V30 6796 C 672.123 -5.86234 0.780001 0
M  V30 6797 C 671.485 -6.88141 1.50472 0
M  V30 6798 H 667.584 -0.728875 -0.283311 0
M  V30 6799 H 670.168 -1.9444 -0.100662 0
M  V30 6800 H 668.339 -3.09967 -2.3404 0
M  V30 6801 H 670.071 -3.34076 -2.28419 0
M  V30 6802 H 666.826 -4.67344 -0.767264 0
M  V30 6803 H 667.25 -6.71263 0.879476 0
M  V30 6804 H 671.892 -4.19082 -0.559511 0
M  V30 6805 H 669.61 -7.82722 2.00926 0
M  V30 6806 H 673.196 -5.75671 0.842246 0
M  V30 6807 H 672.076 -7.55311 2.1089 0
M  V30 6808 N 669.579 0.400081 -1.52437 0
M  V30 6809 C 670.828 1.14332 -1.66166 0
M  V30 6810 C 671.141 1.91419 -0.402253 0
M  V30 6811 O 672.347 2.6824 -0.419487 0
M  V30 6812 C 670.803 2.08137 -2.9361 0
M  V30 6813 C 670.411 1.36524 -4.26691 0
M  V30 6814 C 672.155 2.82664 -3.16703 0
M  V30 6815 C 670.062 2.29031 -5.45251 0
M  V30 6816 H 668.992 0.430499 -0.61902 0
M  V30 6817 H 671.643 0.407017 -1.78929 0
M  V30 6818 H 670.025 2.85358 -2.74567 0
M  V30 6819 H 671.199 0.646061 -4.56249 0
M  V30 6820 H 669.514 0.74002 -4.09771 0
M  V30 6821 H 672.111 3.52037 -4.0246 0
M  V30 6822 H 672.454 3.46122 -2.31312 0
M  V30 6823 H 672.987 2.12541 -3.36261 0
M  V30 6824 H 669.726 1.70206 -6.33017 0
M  V30 6825 H 669.246 2.98896 -5.2002 0
M  V30 6826 H 670.925 2.89359 -5.78689 0
M  V30 6827 N 671.057 1.43213 0.657864 0
M  V30 6828 C 672.303 1.44798 1.41991 0
M  V30 6829 C 672.636 0.070256 1.94073 0
M  V30 6830 O 671.911 -0.908177 1.71995 0
M  V30 6831 C 672.194 2.4865 2.60471 0
M  V30 6832 C 672.047 3.95679 2.13911 0
M  V30 6833 C 673.366 2.49292 3.62686 0
M  V30 6834 H 670.485 0.527244 0.514959 0
M  V30 6835 H 673.127 1.74733 0.74621 0
M  V30 6836 H 671.277 2.23254 3.17946 0
M  V30 6837 H 672.949 4.32116 1.61472 0
M  V30 6838 H 671.192 4.08733 1.45325 0
M  V30 6839 H 671.863 4.6395 2.99089 0
M  V30 6840 H 674.339 2.71917 3.14961 0
M  V30 6841 H 673.215 3.23907 4.43143 0
M  V30 6842 H 673.476 1.52502 4.14964 0
M  V30 6843 N 672.536 -0.895792 1.29666 0
M  V30 6844 C 673.813 -1.62723 1.08538 0
M  V30 6845 C 674.193 -2.07848 -0.369119 0
M  V30 6846 O 673.541 -1.8372 -1.35864 0
M  V30 6847 C 673.751 -2.80505 2.07648 0
M  V30 6848 C 675.099 -3.51098 2.3878 0
M  V30 6849 O 676.123 -2.90679 2.05874 0
M  V30 6850 O 674.982 -4.60028 2.9502 0
M  V30 6851 H 672.076 -0.714692 0.416106 0
M  V30 6852 H 674.622 -0.943517 1.41053 0
M  V30 6853 H 673.394 -2.44386 3.05599 0
M  V30 6854 H 673.017 -3.5658 1.75887 0
M  V30 6855 N 674.014 -1.12206 -1.10668 0
M  V30 6856 C 675.43 -0.857619 -1.346 0
M  V30 6857 C 675.63 0.513542 -1.94846 0
M  V30 6858 O 674.686 1.26273 -2.18658 0
M  V30 6859 C 675.999 -1.97212 -2.26998 0
M  V30 6860 C 677.547 -2.00272 -2.40542 0
M  V30 6861 C 678.022 -3.10948 -3.36267 0
M  V30 6862 N 679.513 -3.10375 -3.43834 0
M  V30 6863 C 680.248 -3.92651 -4.17867 0
M  V30 6864 N 679.744 -4.84911 -4.94807 0
M  V30 6865 N 681.537 -3.80798 -4.1346 0
M  V30 6866 H 673.688 -2.00558 -0.699306 0
M  V30 6867 H 675.951 -0.872612 -0.370477 0
M  V30 6868 H 675.657 -2.96002 -1.89936 0
M  V30 6869 H 675.531 -1.87521 -3.27286 0
M  V30 6870 H 677.918 -1.02103 -2.76874 0
M  V30 6871 H 677.999 -2.14037 -1.40077 0
M  V30 6872 H 677.643 -4.09348 -3.00661 0
M  V30 6873 H 677.573 -2.94421 -4.36605 0
M  V30 6874 H 680.064 -2.43536 -2.88961 0
M  V30 6875 H 680.377 -5.44207 -5.48688 0
M  V30 6876 H 678.722 -4.88926 -4.93939 0
M  V30 6877 H 681.913 -3.08058 -3.52445 0
M  V30 6878 H 682.086 -4.4515 -4.70898 0
M  V30 6879 N 675.492 1.28418 -0.913599 0
M  V30 6880 C 676.72 1.99106 -0.562536 0
M  V30 6881 C 677.135 1.68273 0.856137 0
M  V30 6882 O 676.492 0.935401 1.56705 0
M  V30 6883 C 676.543 3.5338 -0.761903 0
M  V30 6884 O 676.264 3.83127 -2.12475 0
M  V30 6885 C 677.765 4.41328 -0.417651 0
M  V30 6886 H 674.985 0.635798 -0.214481 0
M  V30 6887 H 677.529 1.63618 -1.22676 0
M  V30 6888 H 675.684 3.8713 -0.144676 0
M  V30 6889 H 676.098 4.77763 -2.16431 0
M  V30 6890 H 677.572 5.48642 -0.607919 0
M  V30 6891 H 678.049 4.34422 0.646108 0
M  V30 6892 H 678.655 4.13074 -1.01241 0
M  V30 6893 N 676.97 0.677563 1.42291 0
M  V30 6894 C 678.198 0.209459 2.05837 0
M  V30 6895 C 678.613 -1.13444 1.50917 0
M  V30 6896 O 677.97 -1.70529 0.65008 0
M  V30 6897 C 678.021 0.138819 3.61233 0
M  V30 6898 O 677.742 1.42962 4.14118 0
M  V30 6899 C 679.243 -0.352449 4.41897 0
M  V30 6900 H 676.463 0.101209 0.663323 0
M  V30 6901 H 679.007 0.925077 1.8238 0
M  V30 6902 H 677.162 -0.527505 3.83792 0
M  V30 6903 H 677.576 1.3048 5.08011 0
M  V30 6904 H 679.05 -0.350778 5.50884 0
M  V30 6905 H 679.527 -1.3882 4.16684 0
M  V30 6906 H 680.133 0.282236 4.24362 0
M  V30 6907 N 678.448 -1.51871 0.421078 0
M  V30 6908 C 679.676 -2.06356 -0.14994 0
M  V30 6909 C 680.091 -1.29006 -1.37851 0
M  V30 6910 O 679.448 -0.345139 -1.79207 0
M  V30 6911 C 679.499 -3.58185 -0.488454 0
M  V30 6912 O 679.22 -4.32611 0.691341 0
M  V30 6913 C 680.721 -4.29129 -1.11191 0
M  V30 6914 H 677.941 -0.67083 -0.0151186 0
M  V30 6915 H 680.485 -1.95638 0.595476 0
M  V30 6916 H 678.64 -3.68871 -1.18376 0
M  V30 6917 H 679.054 -5.22927 0.405906 0
M  V30 6918 H 680.528 -5.36501 -1.29889 0
M  V30 6919 H 681.005 -3.86371 -2.0884 0
M  V30 6920 H 681.611 -4.22843 -0.456458 0
M  V30 6921 N 679.926 -0.151884 -1.56866 0
M  V30 6922 C 681.172 0.498742 -1.96572 0
M  V30 6923 C 681.505 1.64194 -1.03702 0
M  V30 6924 O 680.78 1.94334 -0.0803432 0
M  V30 6925 C 681.063 1.00027 -3.45929 0
M  V30 6926 C 680.916 -0.141767 -4.49577 0
M  V30 6927 C 682.235 1.88044 -3.97904 0
M  V30 6928 H 679.354 0.17982 -0.714726 0
M  V30 6929 H 681.996 -0.234097 -1.88552 0
M  V30 6930 H 680.146 1.62476 -3.52894 0
M  V30 6931 H 681.818 -0.778269 -4.54687 0
M  V30 6932 H 680.061 -0.80019 -4.26356 0
M  V30 6933 H 680.732 0.250947 -5.51429 0
M  V30 6934 H 683.208 1.35416 -3.93449 0
M  V30 6935 H 682.084 2.20043 -5.02864 0
M  V30 6936 H 682.345 2.81916 -3.40552 0
M  V30 6937 N 681.404 1.57128 0.121893 0
M  V30 6938 C 682.65 1.84974 0.831418 0
M  V30 6939 C 682.983 0.737204 1.79663 0
M  V30 6940 O 682.258 -0.257199 1.92792 0
M  V30 6941 C 682.541 3.23397 1.58386 0
M  V30 6942 C 682.394 4.45246 0.638445 0
M  V30 6943 C 683.713 3.59355 2.54071 0
M  V30 6944 H 680.832 0.67282 0.300803 0
M  V30 6945 H 683.474 1.89759 0.0957587 0
M  V30 6946 H 681.624 3.19449 2.21098 0
M  V30 6947 H 683.296 4.61295 0.0203925 0
M  V30 6948 H 681.539 4.33771 -0.05023 0
M  V30 6949 H 682.21 5.38765 1.20151 0
M  V30 6950 H 684.686 3.64075 2.01465 0
M  V30 6951 H 683.562 4.57193 3.03752 0
M  V30 6952 H 683.823 2.86622 3.36601 0
M  V30 6953 N 682.882 -0.391992 1.52647 0
M  V30 6954 C 683.83 -1.4991 1.77848 0
M  V30 6955 C 684.824 -1.56587 0.646282 0
M  V30 6956 O 686.03 -1.59789 0.828698 0
M  V30 6957 H 682.405 -0.498883 0.56269 0
M  V30 6958 H 684.376 -1.25847 2.70564 0
M  V30 6959 C 683.125 -2.87081 1.96163 0
M  V30 6960 H 682.448 -2.82692 2.82711 0
M  V30 6961 H 683.888 -3.63792 2.17787 0
M  V30 6962 C 682.347 -3.28822 0.733348 0
M  V30 6963 O 682.877 -4.01598 -0.0906481 0
M  V30 6964 N 681.083 -2.85068 0.564317 0
M  V30 6965 H 680.63 -2.26012 1.23598 0
M  V30 6966 H 680.588 -3.13355 -0.256166 0
M  V30 6967 N 684.36 -1.4356 -0.65026 0
M  V30 6968 C 685.606 -1.45549 -1.41221 0
M  V30 6969 C 685.939 -0.0805472 -1.94033 0
M  V30 6970 O 685.214 0.899043 -1.72475 0
M  V30 6971 C 685.497 -2.50028 -2.59148 0
M  V30 6972 C 685.35 -3.96808 -2.1181 0
M  V30 6973 C 686.669 -2.51212 -3.61359 0
M  V30 6974 H 683.788 -0.529967 -0.512156 0
M  V30 6975 H 686.43 -1.75127 -0.736933 0
M  V30 6976 H 684.58 -2.24937 -3.16758 0
M  V30 6977 H 686.252 -4.32966 -1.59178 0
M  V30 6978 H 684.495 -4.09498 -1.43156 0
M  V30 6979 H 685.166 -4.6553 -2.96625 0
M  V30 6980 H 687.642 -2.73583 -3.13515 0
M  V30 6981 H 686.518 -3.26252 -4.41419 0
M  V30 6982 H 686.779 -1.54701 -4.1415 0
M  V30 6983 N 685.838 0.888903 -1.30139 0
M  V30 6984 C 686.748 2.02705 -1.18101 0
M  V30 6985 C 687.764 1.73702 -0.101809 0
M  V30 6986 O 688.94 1.98906 -0.315984 0
M  V30 6987 C 686.005 3.35616 -0.869651 0
M  V30 6988 C 685.066 3.78067 -2.03381 0
M  V30 6989 C 684.299 5.04635 -1.73721 0
M  V30 6990 O 684.522 5.66531 -0.663267 0
M  V30 6991 O 683.456 5.43399 -2.58845 0
M  V30 6992 H 687.282 2.15788 -2.13704 0
M  V30 6993 H 684.867 1.01426 -1.09695 0
M  V30 6994 H 686.749 4.15358 -0.711043 0
M  V30 6995 H 685.424 3.23651 0.0565002 0
M  V30 6996 H 684.331 2.99046 -2.24772 0
M  V30 6997 H 685.664 3.94631 -2.94155 0
M  V30 6998 N 687.317 1.12792 1.10072 0
M  V30 6999 C 688.565 0.883796 1.81751 0
M  V30 7000 C 688.886 -0.591891 1.858 0
M  V30 7001 O 688.156 -1.43017 1.33876 0
M  V30 7002 H 686.736 0.323978 0.673088 0
M  V30 7003 H 689.398 1.42314 1.33164 0
M  V30 7004 H 688.494 1.26863 2.85153 0
M  V30 7005 N 688.795 -1.27931 0.920396 0
M  V30 7006 C 690.072 -1.89728 0.475687 0
M  V30 7007 C 690.452 -1.8337 -1.04588 0
M  V30 7008 O 689.8 -1.27404 -1.89685 0
M  V30 7009 C 690.01 -3.33959 1.01354 0
M  V30 7010 C 691.358 -4.10907 1.06963 0
M  V30 7011 O 692.382 -3.42945 0.962646 0
M  V30 7012 O 691.241 -5.32399 1.23343 0
M  V30 7013 H 688.335 -0.81294 0.151845 0
M  V30 7014 H 690.881 -1.36252 1.01161 0
M  V30 7015 H 689.653 -3.32843 2.05746 0
M  V30 7016 H 689.276 -3.94944 0.458829 0
M  V30 7017 N 690.273 -0.685099 -1.4193 0
M  V30 7018 C 691.236 -0.0222632 -2.29189 0
M  V30 7019 C 692.236 0.7186 -1.4385 0
M  V30 7020 O 693.426 0.555058 -1.6512 0
M  V30 7021 C 690.558 0.979013 -3.2654 0
M  V30 7022 H 691.751 -0.790424 -2.89296 0
M  V30 7023 H 689.304 -0.448012 -1.49742 0
M  V30 7024 H 690.039 1.77531 -2.71392 0
M  V30 7025 H 689.824 0.451037 -3.89497 0
M  V30 7026 H 691.314 1.44091 -3.91954 0
M  V30 7027 N 691.751 1.51645 -0.429126 0
M  V30 7028 C 692.681 2.30434 0.377148 0
M  V30 7029 C 693.662 1.35493 1.02838 0
M  V30 7030 O 694.847 1.6441 1.03359 0
M  V30 7031 C 691.977 3.14038 1.48315 0
M  V30 7032 C 690.931 4.1719 0.955855 0
M  V30 7033 C 690.257 4.89263 2.15698 0
M  V30 7034 C 691.557 5.223 -0.00402136 0
M  V30 7035 H 693.251 2.98085 -0.280336 0
M  V30 7036 H 690.797 1.43354 -0.136265 0
M  V30 7037 H 692.75 3.67933 2.05435 0
M  V30 7038 H 691.474 2.44193 2.16881 0
M  V30 7039 H 690.133 3.64335 0.406929 0
M  V30 7040 H 689.781 4.15929 2.82864 0
M  V30 7041 H 689.481 5.59009 1.81059 0
M  V30 7042 H 691.005 5.45978 2.73387 0
M  V30 7043 H 692.419 5.71315 0.476607 0
M  V30 7044 H 690.816 5.99525 -0.26258 0
M  V30 7045 H 691.886 4.75638 -0.943236 0
M  V30 7046 N 693.229 0.160201 1.56784 0
M  V30 7047 C 694.477 -0.486625 1.96154 0
M  V30 7048 C 694.798 -1.64525 1.04673 0
M  V30 7049 O 694.068 -1.95586 0.110864 0
M  V30 7050 H 692.648 -0.182764 0.724297 0
M  V30 7051 H 695.31 0.238787 1.93432 0
M  V30 7052 H 694.406 -0.854025 3.00188 0
M  V30 7053 N 694.707 -1.5719 -0.113559 0
M  V30 7054 C 695.67 -1.99796 -1.12314 0
M  V30 7055 C 696.67 -0.888847 -1.34001 0
M  V30 7056 O 697.86 -1.15476 -1.30426 0
M  V30 7057 C 694.992 -2.34279 -2.47641 0
M  V30 7058 H 696.185 -2.90193 -0.756825 0
M  V30 7059 H 693.738 -1.52144 -0.358029 0
M  V30 7060 H 694.473 -1.46778 -2.89183 0
M  V30 7061 H 694.258 -3.15175 -2.33253 0
M  V30 7062 H 695.748 -2.67963 -3.2029 0
M  V30 7063 N 696.185 0.383891 -1.52853 0
M  V30 7064 C 697.433 1.12619 -1.67814 0
M  V30 7065 C 697.754 1.90354 -0.423141 0
M  V30 7066 O 697.024 1.87649 0.562554 0
M  V30 7067 H 695.604 0.418738 -0.618601 0
M  V30 7068 H 698.266 0.43495 -1.89985 0
M  V30 7069 H 697.362 1.82624 -2.5309 0
M  V30 7070 N 697.663 1.43903 0.642637 0
M  V30 7071 C 698.912 1.45362 1.39831 0
M  V30 7072 C 699.225 0.0856289 1.95412 0
M  V30 7073 O 700.431 -0.0222856 2.71491 0
M  V30 7074 C 698.887 2.55857 2.53111 0
M  V30 7075 C 698.495 3.98811 2.04092 0
M  V30 7076 C 700.239 2.66524 3.30402 0
M  V30 7077 C 698.146 5.00751 3.14647 0
M  V30 7078 H 697.076 0.540777 0.52543 0
M  V30 7079 H 699.727 1.69929 0.692559 0
M  V30 7080 H 698.109 2.2451 3.26207 0
M  V30 7081 H 699.283 4.3967 1.37938 0
M  V30 7082 H 697.598 3.92284 1.39651 0
M  V30 7083 H 700.195 3.39858 4.12796 0
M  V30 7084 H 700.538 1.71949 3.79129 0
M  V30 7085 H 701.071 2.97224 2.64392 0
M  V30 7086 H 697.81 5.96914 2.70876 0
M  V30 7087 H 697.33 4.64495 3.79479 0
M  V30 7088 H 699.009 5.23933 3.79609 0
M  V30 7089 N 699.141 -0.881989 1.30609 0
M  V30 7090 C 700.071 -2.00413 1.1982 0
M  V30 7091 C 701.052 -1.69871 0.0881538 0
M  V30 7092 O 702.237 -1.92304 0.2707 0
M  V30 7093 C 699.367 -3.35641 0.89233 0
M  V30 7094 C 698.321 -3.80451 1.96064 0
M  V30 7095 C 697.647 -5.13003 1.5077 0
M  V30 7096 C 698.947 -3.98855 3.37213 0
M  V30 7097 H 700.641 -2.09698 2.13699 0
M  V30 7098 H 698.187 -1.00754 1.02882 0
M  V30 7099 H 700.14 -4.13669 0.803497 0
M  V30 7100 H 698.864 -3.26497 -0.0821381 0
M  V30 7101 H 697.523 -3.04654 2.03916 0
M  V30 7102 H 697.171 -5.0029 0.521417 0
M  V30 7103 H 696.871 -5.43956 2.22229 0
M  V30 7104 H 698.395 -5.93554 1.43271 0
M  V30 7105 H 699.809 -4.67312 3.32103 0
M  V30 7106 H 698.206 -4.41188 4.06784 0
M  V30 7107 H 699.276 -3.02614 3.78883 0
M  V30 7108 N 700.619 -1.13374 -1.09472 0
M  V30 7109 C 701.569 -0.77946 -2.14263 0
M  V30 7110 C 702.553 0.226271 -1.59301 0
M  V30 7111 O 703.745 0.0302581 -1.76974 0
M  V30 7112 C 700.874 -0.246635 -3.42413 0
M  V30 7113 C 699.96 -1.28124 -4.04283 0
M  V30 7114 N 700.351 -2.48201 -4.40715 0
M  V30 7115 C 698.649 -1.12892 -4.31476 0
M  V30 7116 C 699.35 -3.14347 -4.8945 0
M  V30 7117 N 698.326 -2.41771 -4.86876 0
M  V30 7118 H 702.128 -1.69305 -2.40235 0
M  V30 7119 H 699.642 -1.01598 -1.26695 0
M  V30 7120 H 701.639 0.0254131 -4.16892 0
M  V30 7121 H 700.299 0.661287 -3.17895 0
M  V30 7122 H 701.31 -2.85511 -4.32093 0
M  V30 7123 H 697.987 -0.279117 -4.16566 0
M  V30 7124 H 699.377 -4.16663 -5.27107 0
M  V30 7125 N 702.098 1.27442 -0.927168 0
M  V30 7126 C 703.048 2.24519 -0.396878 0
M  V30 7127 C 704.032 1.52981 0.498555 0
M  V30 7128 O 705.224 1.7378 0.336087 0
M  V30 7129 C 702.353 3.41514 0.349694 0
M  V30 7130 C 701.439 4.20357 -0.562226 0
M  V30 7131 N 701.83 4.7702 -1.68182 0
M  V30 7132 C 700.128 4.44503 -0.365135 0
M  V30 7133 C 700.829 5.36467 -2.24895 0
M  V30 7134 N 699.805 5.21371 -1.5386 0
M  V30 7135 H 703.607 2.65911 -1.25173 0
M  V30 7136 H 701.121 1.42366 -0.78138 0
M  V30 7137 H 703.118 4.10161 0.746536 0
M  V30 7138 H 701.778 3.01653 1.20148 0
M  V30 7139 H 702.789 4.74985 -2.06421 0
M  V30 7140 H 699.466 4.15111 0.446037 0
M  V30 7141 H 700.856 5.91264 -3.1915 0
M  V30 7142 N 703.576 0.692616 1.41565 0
M  V30 7143 C 704.506 0.0397325 2.33466 0
M  V30 7144 C 705.487 -0.770334 1.51657 0
M  V30 7145 O 706.672 -0.723903 1.80203 0
M  V30 7146 C 703.802 -0.899495 3.3545 0
M  V30 7147 C 702.756 -0.196738 4.27548 0
M  V30 7148 C 702.082 -1.25012 5.19881 0
M  V30 7149 C 703.382 0.935158 5.1386 0
M  V30 7150 H 705.076 0.807296 2.88311 0
M  V30 7151 H 702.622 0.389665 1.38628 0
M  V30 7152 H 704.575 -1.36545 3.98665 0
M  V30 7153 H 703.299 -1.69869 2.78948 0
M  V30 7154 H 701.958 0.249158 3.65752 0
M  V30 7155 H 701.606 -2.04177 4.59696 0
M  V30 7156 H 701.306 -0.784931 5.82334 0
M  V30 7157 H 702.83 -1.71665 5.85972 0
M  V30 7158 H 704.244 0.549619 5.70659 0
M  V30 7159 H 702.641 1.32726 5.85238 0
M  V30 7160 H 703.711 1.77613 4.512 0
M  V30 7161 N 705.054 -1.51416 0.437162 0
M  V30 7162 C 706.002 -2.29328 -0.388765 0
M  V30 7163 C 706.996 -1.35171 -1.02104 0
M  V30 7164 O 708.202 -1.52513 -0.956024 0
M  V30 7165 H 704.577 -0.738048 -0.144183 0
M  V30 7166 H 706.548 -2.96995 0.289212 0
M  V30 7167 C 705.297 -3.14741 -1.47761 0
M  V30 7168 H 704.62 -3.8708 -1.00045 0
M  V30 7169 H 706.06 -3.72313 -2.02877 0
M  V30 7170 C 704.519 -2.30105 -2.46076 0
M  V30 7171 O 705.049 -1.96055 -3.50607 0
M  V30 7172 N 703.255 -1.93331 -2.1696 0
M  V30 7173 H 702.802 -2.2122 -1.31983 0
M  V30 7174 H 702.76 -1.36999 -2.82982 0
M  V30 7175 N 706.532 -0.168513 -1.56696 0
M  V30 7176 C 707.464 0.794249 -2.14998 0
M  V30 7177 C 708.477 1.1957 -1.10485 0
M  V30 7178 O 709.666 1.13604 -1.37682 0
M  V30 7179 C 706.766 2.08018 -2.67547 0
M  V30 7180 C 705.939 1.84274 -3.96689 0
M  V30 7181 C 704.998 2.97059 -4.3433 0
M  V30 7182 O 704.024 2.67815 -5.02259 0
M  V30 7183 N 705.226 4.24775 -3.9566 0
M  V30 7184 H 707.991 0.295832 -2.98236 0
M  V30 7185 H 705.552 0.0143611 -1.61894 0
M  V30 7186 H 707.544 2.82559 -2.89729 0
M  V30 7187 H 706.114 2.49059 -1.88914 0
M  V30 7188 H 705.334 0.936528 -3.82914 0
M  V30 7189 H 706.622 1.65773 -4.81037 0
M  V30 7190 H 706.02 4.51395 -3.40968 0
M  V30 7191 H 704.577 4.96027 -4.22848 0
M  V30 7192 N 708.01 1.57248 0.105221 0
M  V30 7193 C 708.957 2.01338 1.12835 0
M  V30 7194 C 709.927 0.887897 1.40377 0
M  V30 7195 O 711.112 1.15315 1.5201 0
M  V30 7196 C 708.252 2.43432 2.44611 0
M  V30 7197 C 707.365 3.69457 2.23888 0
M  V30 7198 C 706.5 4.00473 3.48991 0
M  V30 7199 C 705.539 5.19638 3.23485 0
M  V30 7200 N 704.676 5.46457 4.40828 0
M  V30 7201 H 709.516 2.88527 0.745386 0
M  V30 7202 H 707.053 1.42714 0.356535 0
M  V30 7203 H 709.011 2.65879 3.21503 0
M  V30 7204 H 707.641 1.59266 2.80774 0
M  V30 7205 H 706.693 3.54545 1.37847 0
M  V30 7206 H 708.005 4.56497 2.01026 0
M  V30 7207 H 707.159 4.23642 4.34295 0
M  V30 7208 H 705.898 3.11935 3.74897 0
M  V30 7209 H 704.903 4.96299 2.36574 0
M  V30 7210 H 706.128 6.09766 2.98935 0
M  V30 7211 H 704.074 4.60876 4.66829 0
M  V30 7212 H 703.991 6.27849 4.2112 0
M  V30 7213 H 705.259 5.74155 5.27225 0
M  V30 7214 N 709.488 -0.375779 1.53054 0
M  V30 7215 C 710.451 -1.44254 1.7811 0
M  V30 7216 C 711.451 -1.47018 0.651328 0
M  V30 7217 O 712.641 -1.47957 0.919472 0
M  V30 7218 C 709.773 -2.8345 1.89391 0
M  V30 7219 H 710.966 -1.23316 2.73374 0
M  V30 7220 H 708.519 -0.608312 1.43977 0
M  V30 7221 H 709.254 -3.09716 0.961589 0
M  V30 7222 H 709.039 -2.82844 2.71555 0
M  V30 7223 H 710.529 -3.60722 2.10404 0
M  V30 7224 N 710.966 -1.44241 -0.634997 0
M  V30 7225 C 712.194 -1.50296 -1.42193 0
M  V30 7226 C 712.609 -0.12658 -1.88375 0
M  V30 7227 O 711.966 0.86678 -1.60603 0
M  V30 7228 C 712.017 -2.46437 -2.64482 0
M  V30 7229 O 711.738 -3.78724 -2.20226 0
M  V30 7230 C 713.239 -2.61918 -3.57651 0
M  V30 7231 H 710.459 -0.509865 -0.43621 0
M  V30 7232 H 713.003 -1.89167 -0.776921 0
M  V30 7233 H 711.158 -2.10712 -3.25083 0
M  V30 7234 H 711.572 -4.30595 -2.9948 0
M  V30 7235 H 713.046 -3.33225 -4.40074 0
M  V30 7236 H 713.523 -1.67017 -4.06204 0
M  V30 7237 H 714.129 -2.98528 -3.02921 0
M  V30 7238 N 712.444 0.87505 -1.31075 0
M  V30 7239 C 713.391 1.98178 -1.18296 0
M  V30 7240 C 714.361 1.65952 -0.0699923 0
M  V30 7241 O 715.546 1.8926 -0.241951 0
M  V30 7242 C 712.686 3.33399 -0.891024 0
M  V30 7243 C 711.799 3.78253 -2.08684 0
M  V30 7244 C 710.934 5.02166 -1.73212 0
M  V30 7245 C 709.973 5.39455 -2.89231 0
M  V30 7246 N 709.11 6.54549 -2.53989 0
M  V30 7247 H 713.95 2.0844 -2.12971 0
M  V30 7248 H 711.487 1.02047 -1.05948 0
M  V30 7249 H 713.445 4.11246 -0.702338 0
M  V30 7250 H 712.075 3.22794 0.0188799 0
M  V30 7251 H 711.127 2.9623 -2.38646 0
M  V30 7252 H 712.439 4.01821 -2.95536 0
M  V30 7253 H 711.593 5.87666 -1.50777 0
M  V30 7254 H 710.332 4.80491 -0.83544 0
M  V30 7255 H 709.337 4.52477 -3.12321 0
M  V30 7256 H 710.562 5.63098 -3.79601 0
M  V30 7257 H 708.508 6.3443 -1.66838 0
M  V30 7258 H 708.425 6.78035 -3.34372 0
M  V30 7259 H 709.693 7.43254 -2.34934 0
M  V30 7260 N 713.922 1.13953 1.08869 0
M  V30 7261 C 714.869 0.82213 2.15661 0
M  V30 7262 C 715.839 -0.218274 1.6466 0
M  V30 7263 O 717.024 -0.0892475 1.90591 0
M  V30 7264 C 714.164 0.300572 3.43789 0
M  V30 7265 C 713.277 1.40071 4.08661 0
M  V30 7266 C 712.412 0.836897 5.24566 0
M  V30 7267 C 711.451 1.91504 5.81371 0
M  V30 7268 N 710.588 1.36875 6.88629 0
M  V30 7269 H 715.428 1.73683 2.42153 0
M  V30 7270 H 712.965 0.866879 1.18843 0
M  V30 7271 H 714.923 -0.0199943 4.17195 0
M  V30 7272 H 713.553 -0.577248 3.17597 0
M  V30 7273 H 712.605 1.83776 3.33062 0
M  V30 7274 H 713.917 2.21534 4.46905 0
M  V30 7275 H 713.071 0.467953 6.04893 0
M  V30 7276 H 711.81 -0.00874207 4.87699 0
M  V30 7277 H 710.815 2.29299 4.99702 0
M  V30 7278 H 712.04 2.76419 6.20298 0
M  V30 7279 H 709.986 0.545211 6.5373 0
M  V30 7280 H 709.903 2.1198 7.25672 0
M  V30 7281 H 711.171 1.02756 7.72698 0
M  V30 7282 N 715.4 -1.26948 0.933913 0
M  V30 7283 C 716.648 -1.93704 0.576484 0
M  V30 7284 C 716.969 -1.73702 -0.886145 0
M  V30 7285 O 716.239 -1.08838 -1.62884 0
M  V30 7286 H 714.819 -0.716812 0.210214 0
M  V30 7287 H 717.481 -1.54534 1.18766 0
M  V30 7288 H 716.577 -3.01987 0.788055 0
M  V30 7289 N 716.879 -0.700114 -1.41195 0
M  V30 7290 C 717.789 -0.0382854 -2.34569 0
M  V30 7291 C 718.805 0.761036 -1.56474 0
M  V30 7292 O 719.981 0.697553 -1.88934 0
M  V30 7293 C 717.046 0.883522 -3.35253 0
M  V30 7294 C 716.107 0.0758957 -4.29233 0
M  V30 7295 C 715.34 0.9538 -5.25108 0
M  V30 7296 O 715.563 2.19326 -5.26547 0
M  V30 7297 O 714.497 0.401049 -6.00562 0
M  V30 7298 H 718.323 -0.808073 -2.92752 0
M  V30 7299 H 715.908 -0.460479 -1.42127 0
M  V30 7300 H 717.79 1.41199 -3.9704 0
M  V30 7301 H 716.465 1.63272 -2.79506 0
M  V30 7302 H 715.372 -0.497274 -3.7078 0
M  V30 7303 H 716.705 -0.634741 -4.8809 0
M  V30 7304 N 718.357 1.51182 -0.445186 0
M  V30 7305 C 719.289 2.25714 0.398206 0
M  V30 7306 C 720.302 1.30032 0.979562 0
M  V30 7307 O 721.491 1.55731 0.872368 0
M  V30 7308 C 718.591 3.00348 1.56985 0
M  V30 7309 C 717.764 4.23187 1.10596 0
M  V30 7310 C 716.823 4.80334 2.14863 0
M  V30 7311 O 715.849 5.4196 1.73977 0
M  V30 7312 N 717.051 4.65053 3.47427 0
M  V30 7313 H 719.816 2.98732 -0.240629 0
M  V30 7314 H 717.377 1.59556 -0.274507 0
M  V30 7315 H 719.369 3.35464 2.26376 0
M  V30 7316 H 717.939 2.30291 2.11387 0
M  V30 7317 H 717.159 3.93476 0.238832 0
M  V30 7318 H 718.447 5.02886 0.773537 0
M  V30 7319 H 717.845 4.15984 3.83372 0
M  V30 7320 H 716.402 5.04509 4.12691 0
M  V30 7321 N 719.835 0.176821 1.56605 0
M  V30 7322 C 720.745 -0.763682 2.21822 0
M  V30 7323 C 721.761 -1.24889 1.21156 0
M  V30 7324 O 722.937 -1.29987 1.53836 0
M  V30 7325 C 720.002 -1.97352 2.8505 0
M  V30 7326 C 719.063 -1.53466 4.00932 0
M  V30 7327 C 718.296 -2.68682 4.61135 0
M  V30 7328 O 718.519 -3.85694 4.20234 0
M  V30 7329 O 717.453 -2.42442 5.50913 0
M  V30 7330 H 721.279 -0.238363 3.02763 0
M  V30 7331 H 718.864 -0.0516331 1.49311 0
M  V30 7332 H 720.746 -2.68096 3.25119 0
M  V30 7333 H 719.421 -2.48779 2.07101 0
M  V30 7334 H 718.328 -0.796551 3.65521 0
M  V30 7335 H 719.661 -1.06724 4.8049 0
M  V30 7336 N 721.313 -1.57302 -0.09688 0
M  V30 7337 C 722.243 -2.0497 -1.11846 0
M  V30 7338 C 723.224 -0.938278 -1.41882 0
M  V30 7339 O 724.409 -1.20943 -1.51942 0
M  V30 7340 C 721.539 -2.47264 -2.43881 0
M  V30 7341 C 720.493 -3.62053 -2.28257 0
M  V30 7342 C 719.819 -3.90318 -3.65453 0
M  V30 7343 C 721.119 -4.93005 -1.72461 0
M  V30 7344 H 722.813 -2.90567 -0.721888 0
M  V30 7345 H 720.359 -1.39786 -0.345803 0
M  V30 7346 H 722.312 -2.7922 -3.15617 0
M  V30 7347 H 721.036 -1.58664 -2.8547 0
M  V30 7348 H 719.695 -3.30341 -1.58967 0
M  V30 7349 H 719.343 -2.98889 -4.04567 0
M  V30 7350 H 719.043 -4.67597 -3.55846 0
M  V30 7351 H 720.567 -4.24747 -4.3866 0
M  V30 7352 H 721.981 -5.23354 -2.34036 0
M  V30 7353 H 720.378 -5.74436 -1.73618 0
M  V30 7354 H 721.448 -4.80053 -0.683898 0
M  V30 7355 N 722.791 0.367657 -1.53252 0
M  V30 7356 C 723.754 1.43308 -1.78873 0
M  V30 7357 C 724.754 1.46671 -0.659115 0
M  V30 7358 O 725.944 1.47468 -0.927306 0
M  V30 7359 C 723.076 2.82442 -1.90892 0
M  V30 7360 H 724.269 1.21864 -2.74024 0
M  V30 7361 H 721.822 0.600668 -1.44297 0
M  V30 7362 H 722.557 3.09202 -0.978 0
M  V30 7363 H 722.342 2.81399 -2.73051 0
M  V30 7364 H 723.832 3.59601 -2.12314 0
M  V30 7365 N 724.269 1.44576 0.627338 0
M  V30 7366 C 725.179 1.54232 1.76776 0
M  V30 7367 C 726.195 0.427782 1.6866 0
M  V30 7368 O 727.371 0.685671 1.89369 0
M  V30 7369 C 724.436 1.48738 3.13174 0
M  V30 7370 C 723.497 2.71074 3.32893 0
M  V30 7371 C 722.73 2.65832 4.62784 0
M  V30 7372 O 722.953 1.72048 5.43834 0
M  V30 7373 O 721.887 3.56742 4.84787 0
M  V30 7374 H 725.713 2.50586 1.71582 0
M  V30 7375 H 723.298 1.26865 0.789028 0
M  V30 7376 H 725.18 1.48211 3.94476 0
M  V30 7377 H 723.855 0.555292 3.18902 0
M  V30 7378 H 722.762 2.77168 2.51254 0
M  V30 7379 H 724.095 3.63342 3.32029 0
M  V30 7380 N 725.747 -0.868086 1.31537 0
M  V30 7381 C 726.993 -1.62367 1.2151 0
M  V30 7382 C 727.326 -1.92883 -0.225819 0
M  V30 7383 O 726.601 -1.56176 -1.15927 0
M  V30 7384 C 726.884 -2.95268 2.06129 0
M  V30 7385 C 726.737 -2.71619 3.58529 0
M  V30 7386 C 728.056 -3.96391 1.91212 0
M  V30 7387 H 725.175 -0.589178 0.442762 0
M  V30 7388 H 727.817 -1.00336 1.61347 0
M  V30 7389 H 725.967 -3.4821 1.72284 0
M  V30 7390 H 727.639 -2.25334 4.0252 0
M  V30 7391 H 725.882 -2.05817 3.81866 0
M  V30 7392 H 726.553 -3.66192 4.13047 0
M  V30 7393 H 729.029 -3.52663 2.20834 0
M  V30 7394 H 727.905 -4.87263 2.52718 0
M  V30 7395 H 728.166 -4.33335 0.875953 0
M  V30 7396 N 727.225 -1.14528 -1.08264 0
M  V30 7397 C 728.172 -0.833556 -2.15222 0
M  V30 7398 C 729.142 0.209539 -1.64773 0
M  V30 7399 O 730.327 0.0791388 -1.90636 0
M  V30 7400 C 727.467 -0.318799 -3.43624 0
M  V30 7401 C 726.58 -1.42237 -4.07913 0
M  V30 7402 C 725.715 -0.864704 -5.24115 0
M  V30 7403 C 724.754 -1.94585 -5.80347 0
M  V30 7404 N 723.891 -1.40525 -6.87893 0
M  V30 7405 H 728.731 -1.74965 -2.41228 0
M  V30 7406 H 726.268 -0.873169 -1.18381 0
M  V30 7407 H 728.226 -0.00213088 -4.172 0
M  V30 7408 H 726.856 0.560397 -3.17898 0
M  V30 7409 H 725.908 -1.8554 -3.32083 0
M  V30 7410 H 727.22 -2.23901 -4.45724 0
M  V30 7411 H 726.374 -0.500025 -6.04636 0
M  V30 7412 H 725.113 -0.0171219 -4.87697 0
M  V30 7413 H 724.118 -2.31946 -4.98479 0
M  V30 7414 H 725.343 -2.79704 -6.18823 0
M  V30 7415 H 723.289 -0.579873 -6.53432 0
M  V30 7416 H 723.206 -2.15825 -7.24538 0
M  V30 7417 H 724.474 -1.06852 -7.72142 0
M  V30 7418 N 728.703 1.26451 -0.940633 0
M  V30 7419 C 729.949 1.94065 -0.58878 0
M  V30 7420 C 730.282 1.7363 0.869853 0
M  V30 7421 O 729.557 1.073 1.62225 0
M  V30 7422 C 729.84 3.47852 -0.931199 0
M  V30 7423 C 729.693 3.77575 -2.44453 0
M  V30 7424 C 731.012 4.37832 -0.446229 0
M  V30 7425 H 728.131 0.704827 -0.21538 0
M  V30 7426 H 730.773 1.4933 -1.17475 0
M  V30 7427 H 728.923 3.86085 -0.432539 0
M  V30 7428 H 730.595 3.49059 -3.01588 0
M  V30 7429 H 728.838 3.23671 -2.88825 0
M  V30 7430 H 729.509 4.85068 -2.63464 0
M  V30 7431 H 731.985 4.06822 -0.873778 0
M  V30 7432 H 730.861 5.44228 -0.714648 0
M  V30 7433 H 731.122 4.37239 0.653815 0
M  V30 7434 N 730.181 0.707592 1.40822 0
M  V30 7435 C 731.091 0.0507246 2.34545 0
M  V30 7436 C 732.107 -0.752727 1.56876 0
M  V30 7437 O 733.283 -0.687524 1.89302 0
M  V30 7438 C 730.348 -0.865731 3.35717 0
M  V30 7439 C 729.409 -0.0531313 4.29267 0
M  V30 7440 C 728.642 -0.925939 5.25606 0
M  V30 7441 O 728.865 -2.16531 5.27703 0
M  V30 7442 O 727.799 -0.369194 6.00767 0
M  V30 7443 H 731.625 0.823587 2.9232 0
M  V30 7444 H 729.21 0.46801 1.4188 0
M  V30 7445 H 731.092 -1.39091 3.97783 0
M  V30 7446 H 729.767 -1.61788 2.80368 0
M  V30 7447 H 728.674 0.516931 3.70511 0
M  V30 7448 H 730.007 0.660617 4.87747 0
M  V30 7449 N 731.66 -1.50943 0.453197 0
M  V30 7450 C 732.623 -2.26684 -0.338705 0
M  V30 7451 C 733.623 -1.30748 -0.936032 0
M  V30 7452 O 734.813 -1.54327 -0.808002 0
M  V30 7453 C 731.945 -3.07063 -1.48071 0
M  V30 7454 H 733.138 -2.98131 0.325289 0
M  V30 7455 H 730.691 -1.54926 0.206771 0
M  V30 7456 H 731.426 -2.4007 -2.18029 0
M  V30 7457 H 731.211 -3.77545 -1.0584 0
M  V30 7458 H 732.701 -3.64393 -2.0398 0
M  V30 7459 N 733.138 -0.185124 -1.56509 0
M  V30 7460 C 734.387 0.456421 -1.96468 0
M  V30 7461 C 734.7 1.63448 -1.07444 0
M  V30 7462 O 735.906 2.34316 -1.37143 0
M  V30 7463 C 734.362 0.863404 -3.4939 0
M  V30 7464 C 733.97 -0.289815 -4.47062 0
M  V30 7465 C 735.714 1.47259 -3.98139 0
M  V30 7466 C 733.621 0.137571 -5.9124 0
M  V30 7467 H 732.551 0.17429 -0.733579 0
M  V30 7468 H 735.202 -0.275554 -1.81419 0
M  V30 7469 H 733.584 1.65176 -3.59907 0
M  V30 7470 H 734.758 -1.06728 -4.4827 0
M  V30 7471 H 733.073 -0.809851 -4.08449 0
M  V30 7472 H 735.67 1.80463 -5.03326 0
M  V30 7473 H 736.013 2.3755 -3.41871 0
M  V30 7474 H 736.546 0.748405 -3.90696 0
M  V30 7475 H 733.285 -0.730907 -6.51412 0
M  V30 7476 H 732.805 0.8801 -5.93308 0
M  V30 7477 H 734.484 0.576771 -6.44424 0
M  V30 7478 N 734.616 1.57351 0.0885366 0
M  V30 7479 C 736.027 1.75303 0.642308 0
M  V30 7480 C 736.378 0.808238 1.78779 0
M  V30 7481 O 735.503 -0.01171 2.16397 0
M  V30 7482 C 736.098 3.17885 1.17194 0
M  V30 7483 C 734.657 3.37239 1.67172 0
M  V30 7484 C 733.804 2.7108 0.584045 0
M  V30 7485 H 736.755 1.58103 -0.137567 0
M  V30 7486 H 736.776 3.2112 2.04114 0
M  V30 7487 H 736.288 3.86625 0.338024 0
M  V30 7488 H 734.389 2.73588 2.52943 0
M  V30 7489 H 734.502 4.45594 1.76019 0
M  V30 7490 H 732.866 2.33161 1.02508 0
M  V30 7491 H 733.649 3.42464 -0.239403 0
M  V30 7492 N 736.094 -0.359525 1.53444 0
M  V30 7493 C 737.042 -1.46104 1.80987 0
M  V30 7494 C 738.036 -1.55181 0.679351 0
M  V30 7495 O 739.242 -1.57995 0.862405 0
M  V30 7496 H 735.617 -0.486835 0.573145 0
M  V30 7497 H 737.588 -1.2008 2.73173 0
M  V30 7498 C 736.337 -2.82855 2.02208 0
M  V30 7499 H 735.66 -2.76631 2.88644 0
M  V30 7500 H 737.1 -3.59091 2.25455 0
M  V30 7501 C 735.559 -3.27192 0.802931 0
M  V30 7502 O 736.089 -4.017 -0.00544286 0
M  V30 7503 N 734.295 -2.83807 0.624657 0
M  V30 7504 H 733.842 -2.23339 1.28364 0
M  V30 7505 H 733.8 -3.13828 -0.189641 0
M  V30 7506 N 737.572 -1.44907 -0.619662 0
M  V30 7507 C 738.812 -1.49822 -1.39042 0
M  V30 7508 C 739.176 -0.131803 -1.91547 0
M  V30 7509 O 740.377 -0.0556413 -2.68742 0
M  V30 7510 C 738.648 -2.53805 -2.5163 0
M  V30 7511 S 740.207 -2.77855 -3.3962 0
M  V30 7512 H 737.025 -0.529774 -0.474195 0
M  V30 7513 H 739.627 -1.81907 -0.716236 0
M  V30 7514 H 738.331 -3.51772 -2.11387 0
M  V30 7515 H 737.862 -2.23331 -3.23863 0
M  V30 7516 H 739.877 -2.10319 -4.49422 0
M  V30 7517 N 739.05 0.861098 -1.31996 0
M  V30 7518 C 739.997 1.96912 -1.20392 0
M  V30 7519 C 740.967 1.65869 -0.0875899 0
M  V30 7520 O 742.152 1.88992 -0.262011 0
M  V30 7521 C 739.292 3.32435 -0.926335 0
M  V30 7522 C 738.405 3.76018 -2.12684 0
M  V30 7523 C 737.54 5.00301 -1.78529 0
M  V30 7524 C 736.579 5.36357 -2.94937 0
M  V30 7525 N 735.716 6.51818 -2.60917 0
M  V30 7526 H 740.556 2.06169 -2.1517 0
M  V30 7527 H 738.093 1.00917 -1.07024 0
M  V30 7528 H 740.051 4.10478 -0.745917 0
M  V30 7529 H 738.681 3.22796 -0.0153578 0
M  V30 7530 H 737.733 2.93683 -2.41774 0
M  V30 7531 H 739.045 3.98664 -2.99781 0
M  V30 7532 H 738.199 5.86034 -1.57001 0
M  V30 7533 H 736.938 4.79578 -0.886356 0
M  V30 7534 H 735.943 4.49139 -3.17103 0
M  V30 7535 H 737.168 5.59041 -3.85552 0
M  V30 7536 H 735.114 6.32624 -1.73558 0
M  V30 7537 H 735.031 6.7445 -3.41544 0
M  V30 7538 H 736.299 7.4072 -2.42804 0
M  V30 7539 N 740.528 1.15101 1.07655 0
M  V30 7540 C 741.753 0.948177 1.84457 0
M  V30 7541 C 742.178 -0.498432 1.81376 0
M  V30 7542 O 741.536 -1.35509 1.20445 0
M  V30 7543 C 741.584 1.46318 3.29581 0
M  V30 7544 O 740.688 0.660342 4.07079 0
M  V30 7545 H 740.029 0.338428 0.571281 0
M  V30 7546 H 742.559 1.5301 1.35828 0
M  V30 7547 H 742.569 1.47468 3.80417 0
M  V30 7548 H 741.244 2.51635 3.31138 0
M  V30 7549 H 739.821 0.718216 3.65918 0
M  V30 7550 N 742.006 -1.2595 0.947325 0
M  V30 7551 C 742.916 -2.29883 0.468079 0
M  V30 7552 C 743.932 -1.67783 -0.460975 0
M  V30 7553 O 745.108 -1.98526 -0.339006 0
M  V30 7554 C 742.173 -3.45773 -0.253315 0
M  V30 7555 C 741.234 -4.23337 0.713054 0
M  V30 7556 C 740.467 -5.33694 0.025993 0
M  V30 7557 O 740.69 -5.57853 -1.18978 0
M  V30 7558 O 739.624 -5.97724 0.70782 0
M  V30 7559 H 743.45 -2.72952 1.33156 0
M  V30 7560 H 741.035 -1.31263 0.713468 0
M  V30 7561 H 742.917 -4.16209 -0.659423 0
M  V30 7562 H 741.592 -3.04721 -1.09209 0
M  V30 7563 H 740.499 -3.55359 1.16923 0
M  V30 7564 H 741.832 -4.68154 1.51963 0
M  V30 7565 N 743.484 -0.715051 -1.40445 0
M  V30 7566 C 744.394 -0.0631624 -2.34515 0
M  V30 7567 C 745.41 0.744397 -1.57273 0
M  V30 7568 O 746.586 0.677475 -1.89663 0
M  V30 7569 C 743.651 0.847915 -3.36172 0
M  V30 7570 C 742.712 0.0303655 -4.29289 0
M  V30 7571 C 741.945 0.898051 -5.2609 0
M  V30 7572 O 742.168 2.13729 -5.28844 0
M  V30 7573 O 741.102 0.337328 -6.00954 0
M  V30 7574 H 744.928 -0.839078 -2.91879 0
M  V30 7575 H 742.513 -0.475527 -1.4163 0
M  V30 7576 H 744.395 1.3698 -3.98515 0
M  V30 7577 H 743.07 1.60299 -2.81222 0
M  V30 7578 H 741.977 -0.536573 -3.70232 0
M  V30 7579 H 743.31 -0.686474 -4.87389 0
M  V30 7580 N 744.962 1.50701 -0.461195 0
M  V30 7581 C 745.872 2.32069 0.343661 0
M  V30 7582 C 746.888 1.42016 1.00535 0
M  V30 7583 O 748.064 1.75077 0.995498 0
M  V30 7584 C 745.129 3.16424 1.41692 0
M  V30 7585 C 744.19 4.22286 0.772869 0
M  V30 7586 C 743.423 5.02609 1.79499 0
M  V30 7587 O 743.646 4.83874 3.0203 0
M  V30 7588 O 742.58 5.86047 1.3723 0
M  V30 7589 H 746.406 3.01996 -0.321268 0
M  V30 7590 H 743.991 1.47723 -0.223235 0
M  V30 7591 H 745.873 3.68795 2.03883 0
M  V30 7592 H 744.548 2.49236 2.0655 0
M  V30 7593 H 743.455 3.73931 0.112277 0
M  V30 7594 H 744.788 4.91915 0.167399 0
M  V30 7595 N 746.441 0.193421 1.56409 0
M  V30 7596 C 747.669 -0.451438 2.01915 0
M  V30 7597 C 748.084 -1.55306 1.07357 0
M  V30 7598 O 747.441 -1.82333 0.0781512 0
M  V30 7599 C 747.492 -1.00931 3.47124 0
M  V30 7600 O 747.213 0.0483623 4.38073 0
M  V30 7601 C 748.714 -1.73021 4.0814 0
M  V30 7602 H 745.934 -0.113495 0.661332 0
M  V30 7603 H 748.478 0.301636 2.02263 0
M  V30 7604 H 746.633 -1.71277 3.47481 0
M  V30 7605 H 747.047 -0.366644 5.23217 0
M  V30 7606 H 748.521 -2.07289 5.11601 0
M  V30 7607 H 748.998 -2.6333 3.51502 0
M  V30 7608 H 749.604 -1.07264 4.11551 0
M  V30 7609 N 747.919 -1.57396 -0.0801906 0
M  V30 7610 C 749.144 -1.91437 -0.797909 0
M  V30 7611 C 749.569 -0.789075 -1.70749 0
M  V30 7612 O 748.927 0.25857 -1.79447 0
M  V30 7613 C 748.975 -3.24402 -1.57467 0
M  V30 7614 O 748.079 -3.13043 -2.68473 0
M  V30 7615 H 747.42 -0.627109 -0.218243 0
M  V30 7616 H 749.95 -2.04537 -0.050949 0
M  V30 7617 H 749.96 -3.58072 -1.95571 0
M  V30 7618 H 748.635 -4.05884 -0.907229 0
M  V30 7619 H 747.212 -2.90915 -2.33287 0
M  V30 7620 N 749.397 0.351382 -1.53633 0
M  V30 7621 C 750.808 0.927429 -1.62036 0
M  V30 7622 C 751.159 1.89809 -0.496706 0
M  V30 7623 O 750.284 2.1313 0.374749 0
M  V30 7624 C 750.879 1.68886 -2.93706 0
M  V30 7625 C 749.438 2.21404 -3.04397 0
M  V30 7626 C 748.585 1.03075 -2.57431 0
M  V30 7627 H 751.536 0.129748 -1.58169 0
M  V30 7628 H 751.557 2.55116 -2.82305 0
M  V30 7629 H 751.069 0.982149 -3.75467 0
M  V30 7630 H 749.17 2.95274 -2.27253 0
M  V30 7631 H 749.283 2.48312 -4.09729 0
M  V30 7632 H 747.647 1.40188 -2.12649 0
M  V30 7633 H 748.43 0.338793 -3.41624 0
M  V30 7634 N 750.875 1.45233 0.611969 0
M  V30 7635 C 751.805 1.5641 1.73373 0
M  V30 7636 C 752.786 0.415896 1.64937 0
M  V30 7637 O 753.971 0.638478 1.83404 0
M  V30 7638 C 751.101 1.52627 3.11965 0
M  V30 7639 C 750.055 2.66119 3.35208 0
M  V30 7640 C 749.381 2.4739 4.74028 0
M  V30 7641 C 750.681 4.08157 3.25891 0
M  V30 7642 H 752.375 2.50307 1.64277 0
M  V30 7643 H 749.921 1.20467 0.788904 0
M  V30 7644 H 751.874 1.59043 3.90235 0
M  V30 7645 H 750.598 0.552564 3.21892 0
M  V30 7646 H 749.257 2.59123 2.59327 0
M  V30 7647 H 748.905 1.48168 4.80682 0
M  V30 7648 H 748.605 3.23494 4.90536 0
M  V30 7649 H 750.129 2.55653 5.54503 0
M  V30 7650 H 751.543 4.1642 3.9404 0
M  V30 7651 H 749.94 4.84617 3.5393 0
M  V30 7652 H 751.01 4.30374 2.23397 0
M  V30 7653 N 752.353 -0.854086 1.3245 0
M  V30 7654 C 753.599 -1.61069 1.23225 0
M  V30 7655 C 753.932 -1.93111 -0.205349 0
M  V30 7656 O 753.207 -1.57397 -1.14265 0
M  V30 7657 C 753.49 -2.93065 2.09249 0
M  V30 7658 C 753.343 -2.67801 3.6139 0
M  V30 7659 C 754.662 -3.94341 1.95406 0
M  V30 7660 H 751.781 -0.584449 0.448986 0
M  V30 7661 H 754.423 -0.986189 1.62402 0
M  V30 7662 H 752.573 -3.46364 1.75967 0
M  V30 7663 H 754.245 -2.21052 4.04887 0
M  V30 7664 H 752.488 -2.01756 3.84027 0
M  V30 7665 H 753.159 -3.6179 4.16907 0
M  V30 7666 H 755.635 -3.50301 2.24562 0
M  V30 7667 H 754.511 -4.84555 2.57872 0
M  V30 7668 H 754.772 -4.32382 0.921865 0
M  V30 7669 N 753.831 -1.1567 -1.07043 0
M  V30 7670 C 755.059 -0.957471 -1.83412 0
M  V30 7671 C 755.474 0.494271 -1.82215 0
M  V30 7672 O 754.831 1.34288 -1.23584 0
M  V30 7673 C 754.882 -1.46784 -3.30359 0
M  V30 7674 O 754.603 -2.86271 -3.31633 0
M  V30 7675 C 756.104 -1.31054 -4.23485 0
M  V30 7676 H 753.324 -0.33986 -0.578564 0
M  V30 7677 H 755.868 -1.53518 -1.35102 0
M  V30 7678 H 754.023 -0.932586 -3.76007 0
M  V30 7679 H 754.437 -3.0948 -4.23465 0
M  V30 7680 H 755.911 -1.71605 -5.24648 0
M  V30 7681 H 756.388 -0.255107 -4.38458 0
M  V30 7682 H 756.994 -1.83503 -3.83676 0
M  V30 7683 N 755.309 1.25446 -0.953992 0
M  V30 7684 C 756.259 2.23627 -0.444413 0
M  V30 7685 C 757.243 1.54004 0.465993 0
M  V30 7686 O 758.435 1.74454 0.29915 0
M  V30 7687 C 755.564 3.42179 0.277175 0
M  V30 7688 C 754.65 4.1907 -0.651263 0
M  V30 7689 N 755.041 4.73346 -1.78262 0
M  V30 7690 C 753.339 4.43628 -0.459338 0
M  V30 7691 C 754.04 5.31576 -2.36224 0
M  V30 7692 N 753.016 5.17991 -1.64884 0
M  V30 7693 H 756.818 2.63197 -1.30785 0
M  V30 7694 H 754.332 1.40677 -0.811402 0
M  V30 7695 H 756.329 4.11653 0.659367 0
M  V30 7696 H 754.989 3.04134 1.13723 0
M  V30 7697 H 756 4.705 -2.1645 0
M  V30 7698 H 752.677 4.15963 0.357885 0
M  V30 7699 H 754.067 5.84361 -3.3162 0
M  V30 7700 N 756.787 0.722489 1.40064 0
M  V30 7701 C 757.719 0.0349057 2.29173 0
M  V30 7702 C 758.732 -0.716571 1.46182 0
M  V30 7703 O 759.921 -0.562806 1.69395 0
M  V30 7704 C 757.021 -0.974839 3.24577 0
M  V30 7705 C 756.194 -0.287471 4.36454 0
M  V30 7706 C 755.253 -1.20356 5.12251 0
M  V30 7707 O 754.279 -0.685753 5.65054 0
M  V30 7708 N 755.481 -2.53422 5.22262 0
M  V30 7709 H 758.246 0.800058 2.88824 0
M  V30 7710 H 755.807 0.57068 1.51509 0
M  V30 7711 H 757.799 -1.59002 3.72157 0
M  V30 7712 H 756.369 -1.6413 2.66046 0
M  V30 7713 H 755.589 0.508008 3.90913 0
M  V30 7714 H 756.877 0.189382 5.08447 0
M  V30 7715 H 756.275 -2.97981 4.80857 0
M  V30 7716 H 754.832 -3.10067 5.73325 0
M  V30 7717 N 758.265 -1.50454 0.469181 0
M  V30 7718 C 759.213 -2.30101 -0.340033 0
M  V30 7719 C 760.207 -1.37306 -0.992135 0
M  V30 7720 O 761.413 -1.54506 -0.923458 0
M  V30 7721 H 757.788 -0.740941 -0.128495 0
M  V30 7722 H 759.759 -2.96315 0.352144 0
M  V30 7723 C 758.508 -3.17804 -1.41052 0
M  V30 7724 H 757.831 -3.89115 -0.918124 0
M  V30 7725 H 759.271 -3.76533 -1.94934 0
M  V30 7726 C 757.73 -2.35272 -2.4114 0
M  V30 7727 O 758.26 -2.03448 -3.4637 0
M  V30 7728 N 756.466 -1.97889 -2.1281 0
M  V30 7729 H 756.013 -2.2397 -1.27261 0
M  V30 7730 H 755.971 -1.42971 -2.80012 0
M  V30 7731 N 759.743 -0.201713 -1.56304 0
M  V30 7732 C 761.154 0.309711 -1.84113 0
M  V30 7733 C 761.505 1.60912 -1.12258 0
M  V30 7734 O 760.63 2.12937 -0.385587 0
M  V30 7735 C 761.225 0.568706 -3.33993 0
M  V30 7736 C 759.784 1.02448 -3.6219 0
M  V30 7737 C 758.931 0.0766842 -2.77194 0
M  V30 7738 H 761.882 -0.425356 -1.52893 0
M  V30 7739 H 761.903 1.41721 -3.53122 0
M  V30 7740 H 761.415 -0.37719 -3.86263 0
M  V30 7741 H 759.516 1.98443 -3.15359 0
M  V30 7742 H 759.629 0.912619 -4.70328 0
M  V30 7743 H 757.993 0.579809 -2.48013 0
M  V30 7744 H 758.776 -0.863774 -3.32256 0
M  V30 7745 N 761.222 1.57436 0.0718424 0
M  V30 7746 C 762.185 2.02703 1.06977 0
M  V30 7747 C 763.185 0.924062 1.31597 0
M  V30 7748 O 764.375 1.18894 1.27318 0
M  V30 7749 C 761.507 2.40763 2.41342 0
M  V30 7750 H 762.7 2.92098 0.679619 0
M  V30 7751 H 760.253 1.5304 0.317565 0
M  V30 7752 H 760.988 1.54394 2.8519 0
M  V30 7753 H 760.773 3.21249 2.24814 0
M  V30 7754 H 762.263 2.76361 3.13073 0
M  V30 7755 N 762.7 -0.34323 1.53817 0
M  V30 7756 C 763.948 -1.0813 1.70741 0
M  V30 7757 C 764.269 -1.89165 0.473461 0
M  V30 7758 O 763.539 -1.89075 -0.512605 0
M  V30 7759 H 762.119 -0.40219 0.629486 0
M  V30 7760 H 764.781 -0.384426 1.91071 0
M  V30 7761 H 763.877 -1.7585 2.57843 0
M  V30 7762 N 764.178 -1.45556 -0.604258 0
M  V30 7763 C 765.589 -1.44171 -1.18624 0
M  V30 7764 C 765.94 -0.171081 -1.95453 0
M  V30 7765 O 765.065 0.727156 -2.03817 0
M  V30 7766 C 765.66 -2.61193 -2.15786 0
M  V30 7767 C 764.219 -2.62918 -2.69353 0
M  V30 7768 C 763.366 -2.36479 -1.4482 0
M  V30 7769 H 766.317 -1.53747 -0.393381 0
M  V30 7770 H 766.338 -2.35481 -2.98879 0
M  V30 7771 H 765.85 -3.53656 -1.59841 0
M  V30 7772 H 763.951 -1.7447 -3.29228 0
M  V30 7773 H 764.064 -3.6224 -3.13559 0
M  V30 7774 H 762.428 -1.86103 -1.73891 0
M  V30 7775 H 763.211 -3.31091 -0.907376 0
M  V30 7776 N 765.656 0.84705 -1.32902 0
M  V30 7777 C 766.902 1.60414 -1.24078 0
M  V30 7778 C 767.235 1.93217 0.195105 0
M  V30 7779 O 766.51 1.58001 1.13428 0
M  V30 7780 C 766.793 2.91951 -2.108 0
M  V30 7781 C 766.646 2.6588 -3.62805 0
M  V30 7782 C 767.965 3.93299 -1.97494 0
M  V30 7783 H 765.084 0.58206 -0.452079 0
M  V30 7784 H 767.726 0.977562 -1.62922 0
M  V30 7785 H 765.876 3.45425 -1.77802 0
M  V30 7786 H 767.548 2.18902 -4.06054 0
M  V30 7787 H 765.791 1.99716 -3.85092 0
M  V30 7788 H 766.462 3.59574 -4.1882 0
M  V30 7789 H 768.938 3.49105 -2.26417 0
M  V30 7790 H 767.814 4.8318 -2.60438 0
M  V30 7791 H 768.075 4.31887 -0.944782 0
M  V30 7792 N 767.134 1.16236 1.06428 0
M  V30 7793 C 768.097 0.870163 2.1204 0
M  V30 7794 C 769.097 -0.134239 1.60239 0
M  V30 7795 O 770.287 0.0964932 1.73933 0
M  V30 7796 C 767.419 0.301033 3.39568 0
M  V30 7797 H 768.612 1.8064 2.39394 0
M  V30 7798 H 766.165 0.971116 1.2247 0
M  V30 7799 H 766.9 -0.642948 3.17863 0
M  V30 7800 H 766.685 1.02475 3.78472 0
M  V30 7801 H 768.175 0.114494 4.17443 0
M  V30 7802 N 768.612 -1.24939 0.960631 0
M  V30 7803 C 769.837 -1.9742 0.635608 0
M  V30 7804 C 770.262 -1.70857 -0.786737 0
M  V30 7805 O 769.62 -0.968063 -1.53291 0
M  V30 7806 C 769.668 -3.48987 0.907771 0
M  V30 7807 O 768.772 -4.12399 -0.0104053 0
M  V30 7808 H 768.113 -0.61871 0.241027 0
M  V30 7809 H 770.643 -1.58901 1.28886 0
M  V30 7810 H 770.653 -3.99334 0.836453 0
M  V30 7811 H 769.328 -3.6765 1.94439 0
M  V30 7812 H 767.905 -3.72727 0.113631 0
M  V30 7813 N 770.09 -0.729906 -1.39679 0
M  V30 7814 C 771.053 -0.0951668 -2.29002 0
M  V30 7815 C 772.053 0.672471 -1.46063 0
M  V30 7816 O 773.243 0.502245 -1.66803 0
M  V30 7817 C 770.375 0.874631 -3.29489 0
M  V30 7818 H 771.568 -0.882062 -2.86635 0
M  V30 7819 H 769.121 -0.495424 -1.4824 0
M  V30 7820 H 769.856 1.68807 -2.76902 0
M  V30 7821 H 769.641 0.326893 -3.90735 0
M  V30 7822 H 771.131 1.31548 -3.96339 0
M  V30 7823 N 771.568 1.50203 -0.477153 0
M  V30 7824 C 772.979 1.86685 -0.0235041 0
M  V30 7825 C 773.33 1.39148 1.38319 0
M  V30 7826 O 772.455 0.759051 2.02651 0
M  V30 7827 C 773.05 3.38781 -0.0358767 0
M  V30 7828 C 771.609 3.74652 0.362327 0
M  V30 7829 C 770.756 2.7412 -0.41875 0
M  V30 7830 H 773.707 1.4286 -0.691133 0
M  V30 7831 H 773.728 3.72732 0.764924 0
M  V30 7832 H 773.24 3.73349 -1.05981 0
M  V30 7833 H 771.341 3.45686 1.39039 0
M  V30 7834 H 771.454 4.79063 0.059457 0
M  V30 7835 H 769.818 2.54376 0.128341 0
M  V30 7836 H 770.601 3.11532 -1.44231 0
M  V30 7837 N 773.046 0.209999 1.56195 0
M  V30 7838 C 773.956 -0.716459 2.23392 0
M  V30 7839 C 774.972 -1.22291 1.23778 0
M  V30 7840 O 776.148 -1.26694 1.56558 0
M  V30 7841 C 773.213 -1.91261 2.89172 0
M  V30 7842 C 772.274 -1.44927 4.04097 0
M  V30 7843 C 771.507 -2.5884 4.66731 0
M  V30 7844 O 771.73 -3.76693 4.2832 0
M  V30 7845 O 770.664 -2.30701 5.55932 0
M  V30 7846 H 774.49 -0.174089 3.03201 0
M  V30 7847 H 772.075 -0.0199505 1.49387 0
M  V30 7848 H 773.957 -2.6114 3.30733 0
M  V30 7849 H 772.632 -2.4433 2.12331 0
M  V30 7850 H 771.539 -0.718839 3.67129 0
M  V30 7851 H 772.872 -0.965084 4.82646 0
M  V30 7852 N 774.524 -1.57472 -0.0634922 0
M  V30 7853 C 775.454 -2.07297 -1.07473 0
M  V30 7854 C 776.435 -0.968162 -1.39859 0
M  V30 7855 O 777.62 -1.24139 -1.49343 0
M  V30 7856 C 774.75 -2.52381 -2.38581 0
M  V30 7857 C 773.704 -3.66813 -2.20526 0
M  V30 7858 C 773.03 -3.97982 -3.57092 0
M  V30 7859 C 774.33 -4.96553 -1.61965 0
M  V30 7860 H 776.024 -2.92033 -0.660092 0
M  V30 7861 H 773.57 -1.40488 -0.316074 0
M  V30 7862 H 775.523 -2.85852 -3.09624 0
M  V30 7863 H 774.247 -1.64684 -2.8204 0
M  V30 7864 H 772.906 -3.33639 -1.51924 0
M  V30 7865 H 772.554 -3.07403 -3.98136 0
M  V30 7866 H 772.254 -4.7504 -3.45848 0
M  V30 7867 H 773.778 -4.33956 -4.29552 0
M  V30 7868 H 775.192 -5.28201 -2.22883 0
M  V30 7869 H 773.589 -5.7799 -1.61394 0
M  V30 7870 H 774.659 -4.81396 -0.581918 0
M  V30 7871 N 776.003 0.335068 -1.53997 0
M  V30 7872 C 776.913 1.43511 -1.85585 0
M  V30 7873 C 777.929 1.57162 -0.746726 0
M  V30 7874 O 779.105 1.72477 -1.03988 0
M  V30 7875 C 776.17 2.78386 -2.06646 0
M  V30 7876 C 775.231 2.74007 -3.30483 0
M  V30 7877 C 774.464 4.02449 -3.50529 0
M  V30 7878 O 774.687 5.00147 -2.74242 0
M  V30 7879 O 773.621 4.06405 -4.4398 0
M  V30 7880 H 777.447 1.19731 -2.79102 0
M  V30 7881 H 775.032 0.528033 -1.39758 0
M  V30 7882 H 776.914 3.58247 -2.21894 0
M  V30 7883 H 775.589 3.0208 -1.16317 0
M  V30 7884 H 774.496 1.92736 -3.2063 0
M  V30 7885 H 775.829 2.55267 -4.20832 0
M  V30 7886 N 777.481 1.45874 0.596531 0
M  V30 7887 C 778.706 1.54247 1.38646 0
M  V30 7888 C 779.131 0.179571 1.87241 0
M  V30 7889 O 778.489 -0.837831 1.6078 0
M  V30 7890 C 778.537 2.54015 2.55946 0
M  V30 7891 O 777.641 2.06561 3.5694 0
M  V30 7892 H 776.982 0.519555 0.413471 0
M  V30 7893 H 779.512 1.91327 0.724936 0
M  V30 7894 H 779.522 2.73179 3.03047 0
M  V30 7895 H 778.197 3.52994 2.19928 0
M  V30 7896 H 776.774 1.97324 3.16414 0
M  V30 7897 N 778.959 -0.83999 1.33349 0
M  V30 7898 C 779.906 -1.94972 1.23509 0
M  V30 7899 C 780.876 -1.65709 0.113967 0
M  V30 7900 O 782.061 -1.88552 0.292045 0
M  V30 7901 C 779.201 -3.30919 0.979105 0
M  V30 7902 C 778.314 -3.72587 2.18639 0
M  V30 7903 C 777.449 -4.97397 1.86465 0
M  V30 7904 C 776.488 -5.31597 3.03432 0
M  V30 7905 N 775.625 -6.47584 2.71254 0
M  V30 7906 H 780.465 -2.0272 2.18423 0
M  V30 7907 H 778.002 -0.992017 1.08616 0
M  V30 7908 H 779.96 -4.09239 0.811126 0
M  V30 7909 H 778.59 -3.22731 0.0667099 0
M  V30 7910 H 777.642 -2.89799 2.46416 0
M  V30 7911 H 778.954 -3.93844 3.06086 0
M  V30 7912 H 778.108 -5.83462 1.66305 0
M  V30 7913 H 776.847 -4.78107 0.96254 0
M  V30 7914 H 775.852 -4.44037 3.24208 0
M  V30 7915 H 777.077 -5.52836 3.94397 0
M  V30 7916 H 775.023 -6.29783 1.836 0
M  V30 7917 H 774.94 -6.68931 3.52231 0
M  V30 7918 H 776.208 -7.36764 2.54558 0
M  V30 7919 N 780.437 -1.16799 -1.0581 0
M  V30 7920 C 781.347 -0.893492 -2.16919 0
M  V30 7921 C 782.363 0.136061 -1.73467 0
M  V30 7922 O 783.539 -0.0417348 -2.01357 0
M  V30 7923 C 780.604 -0.403763 -3.44341 0
M  V30 7924 C 779.665 -1.49914 -4.02274 0
M  V30 7925 C 778.898 -1.03269 -5.23614 0
M  V30 7926 O 779.121 0.115647 -5.70283 0
M  V30 7927 O 778.055 -1.8231 -5.73626 0
M  V30 7928 H 781.881 -1.82274 -2.42919 0
M  V30 7929 H 779.466 -0.948361 -1.1544 0
M  V30 7930 H 781.348 -0.137874 -4.21174 0
M  V30 7931 H 780.023 0.497413 -3.19855 0
M  V30 7932 H 778.93 -1.81883 -3.26909 0
M  V30 7933 H 780.263 -2.3758 -4.31064 0
M  V30 7934 N 781.915 1.24427 -0.967243 0
M  V30 7935 C 783.14 1.9708 -0.646069 0
M  V30 7936 C 783.565 1.71272 0.777665 0
M  V30 7937 O 782.923 0.976179 1.52776 0
M  V30 7938 C 782.971 3.48501 -0.926266 0
M  V30 7939 O 782.075 4.12398 -0.0114653 0
M  V30 7940 H 781.416 0.617423 -0.244304 0
M  V30 7941 H 783.946 1.58215 -1.29727 0
M  V30 7942 H 783.956 3.98885 -0.857619 0
M  V30 7943 H 782.631 3.66613 -1.96386 0
M  V30 7944 H 781.208 3.72661 -0.133396 0
M  V30 7945 N 783.393 0.737304 1.3929 0
M  V30 7946 C 784.639 0.286681 2.00763 0
M  V30 7947 C 784.972 -1.12388 1.58375 0
M  V30 7948 O 784.247 -1.76661 0.813699 0
M  V30 7949 C 784.53 0.391147 3.57969 0
M  V30 7950 C 784.383 1.84165 4.1037 0
M  V30 7951 C 785.702 -0.225072 4.39524 0
M  V30 7952 H 782.821 0.105642 0.729389 0
M  V30 7953 H 785.463 0.933892 1.65464 0
M  V30 7954 H 783.613 -0.159875 3.88171 0
M  V30 7955 H 785.285 2.44972 3.90879 0
M  V30 7956 H 783.528 2.3622 3.63844 0
M  V30 7957 H 784.199 1.866 5.19504 0
M  V30 7958 H 786.675 0.244677 4.1538 0
M  V30 7959 H 785.551 -0.121646 5.48765 0
M  V30 7960 H 785.812 -1.31141 4.22202 0
M  V30 7961 N 784.871 -1.49948 0.485112 0
M  V30 7962 C 785.801 -2.31675 -0.291364 0
M  V30 7963 C 786.782 -1.39216 -0.977383 0
M  V30 7964 O 787.967 -1.68133 -0.971855 0
M  V30 7965 C 785.097 -3.19326 -1.36558 0
M  V30 7966 C 784.051 -4.2045 -0.800359 0
M  V30 7967 C 783.377 -4.96931 -1.97391 0
M  V30 7968 C 784.677 -5.21925 0.197867 0
M  V30 7969 H 786.371 -2.96839 0.390775 0
M  V30 7970 H 783.917 -1.42749 0.189375 0
M  V30 7971 H 785.87 -3.75304 -1.91638 0
M  V30 7972 H 784.594 -2.52074 -2.07668 0
M  V30 7973 H 783.253 -3.65594 -0.271428 0
M  V30 7974 H 782.901 -4.26141 -2.67232 0
M  V30 7975 H 782.601 -5.65344 -1.60187 0
M  V30 7976 H 784.125 -5.55749 -2.52935 0
M  V30 7977 H 785.539 -5.72691 -0.264239 0
M  V30 7978 H 783.936 -5.98138 0.484908 0
M  V30 7979 H 785.006 -4.71809 1.11912 0
M  V30 7980 O 786.388 -0.359827 -1.5744 0
M  V30 7981 H 787.079 0.192049 -1.92746 0
M  V30 END ATOM
M  V30 BEGIN BOND
M  V30 END BOND
M  V30 END CTAB
M  END
$$$$
