drugbank_target|P43155 Carnitine O-acetyltransferase (DB00583; DB01992; DB02648)
 OpenBabel12092119333D

  0  0  0     0  0            999 V3000
M  V30 BEGIN CTAB
M  V30 COUNTS 9990 10111 0 0 0
M  V30 BEGIN ATOM
M  V30 1 H -0.908 1.98254 -0.117106 0
M  V30 2 N 0 1.576 0 0
M  V30 3 C 0.933 2.03868 1.02534 0
M  V30 4 C 1.911 0.928543 1.3348 0
M  V30 5 O 3.095 1.19667 1.45644 0
M  V30 6 C 0.222 2.43627 2.35294 0
M  V30 7 C -0.732 3.65373 2.2001 0
M  V30 8 S 0.101 5.13292 1.52614 0
M  V30 9 C 1.257 5.56322 2.86805 0
M  V30 10 H 1.49 2.90518 0.631377 0
M  V30 11 H -0.977 1.52953 0.210867 0
M  V30 12 H 0.981 2.67203 3.11629 0
M  V30 13 H -0.358 1.57376 2.7183 0
M  V30 14 H -1.165 3.90944 3.18086 0
M  V30 15 H -1.563 3.418 1.51819 0
M  V30 16 H 0.729 5.58782 3.83104 0
M  V30 17 H 1.672 6.56266 2.65933 0
M  V30 18 H 2.08 4.83886 2.90714 0
M  V30 19 N 1.4781 -0.272755 1.55222 0
M  V30 20 C 2.4081 -1.34136 1.91127 0
M  V30 21 C 3.3891 -1.51513 0.773168 0
M  V30 22 O 4.5741 -1.64552 1.03132 0
M  V30 23 C 1.7041 -2.70083 2.1834 0
M  V30 24 C 0.6581 -2.67437 3.34158 0
M  V30 25 C -0.0159 -4.06938 3.46851 0
M  V30 26 C 1.2841 -2.26686 4.70543 0
M  V30 27 H 2.9781 -1.04333 2.80633 0
M  V30 28 H 0.5241 -0.500454 1.35024 0
M  V30 29 H 2.4771 -3.44952 2.42046 0
M  V30 30 H 1.2011 -3.01469 1.25634 0
M  V30 31 H -0.1399 -1.95026 3.1042 0
M  V30 32 H -0.4919 -4.35547 2.51611 0
M  V30 33 H -0.7919 -4.06062 4.2472 0
M  V30 34 H 0.7321 -4.83545 3.72849 0
M  V30 35 H 2.1461 -2.91277 4.93792 0
M  V30 36 H 0.5431 -2.36971 5.5133 0
M  V30 37 H 1.6131 -1.21818 4.69349 0
M  V30 38 N 2.9562 -1.48159 -0.537278 0
M  V30 39 C 3.9192 -1.61665 -1.62472 0
M  V30 40 C 4.9192 -0.490395 -1.5314 0
M  V30 41 O 6.1092 -0.755998 -1.5694 0
M  V30 42 C 3.2412 -1.57997 -3.02076 0
M  V30 43 H 4.4342 -2.58621 -1.51839 0
M  V30 44 H 1.9872 -1.36647 -0.758771 0
M  V30 45 H 2.7222 -0.624913 -3.18222 0
M  V30 46 H 2.5072 -2.39755 -3.10258 0
M  V30 47 H 3.9972 -1.70627 -3.81151 0
M  V30 48 N 4.4343 0.785586 -1.36625 0
M  V30 49 C 5.6813 1.54362 -1.31067 0
M  V30 50 C 6.0093 1.94195 0.10893 0
M  V30 51 O 5.2643 1.63262 1.07908 0
M  V30 52 C 5.5633 2.83007 -2.1827 0
M  V30 53 C 5.2293 2.62294 -3.6676 0
M  V30 54 C 3.8913 2.56353 -4.0723 0
M  V30 55 C 6.2433 2.43371 -4.6089 0
M  V30 56 C 3.5713 2.29461 -5.39967 0
M  V30 57 C 5.9233 2.18005 -5.93849 0
M  V30 58 C 4.5873 2.105 -6.3344 0
M  V30 59 H 3.8573 0.564851 -0.479609 0
M  V30 60 H 6.5043 0.906028 -1.68711 0
M  V30 61 H 4.8093 3.51253 -1.73576 0
M  V30 62 H 6.5063 3.40817 -2.11292 0
M  V30 63 H 3.0963 2.67774 -3.34656 0
M  V30 64 H 7.2803 2.46959 -4.30494 0
M  V30 65 H 2.5363 2.22135 -5.69619 0
M  V30 66 H 6.7103 2.02359 -6.66351 0
M  V30 67 H 4.3373 1.89425 -7.36222 0
M  V30 68 N 5.9124 1.20967 1.01018 0
M  V30 69 C 6.8754 0.965918 2.07853 0
M  V30 70 C 7.8754 -0.0610545 1.60684 0
M  V30 71 O 9.0654 0.175681 1.73312 0
M  V30 72 C 6.1974 0.455513 3.37843 0
M  V30 73 H 7.3904 1.91365 2.3091 0
M  V30 74 H 4.9434 1.02594 1.17916 0
M  V30 75 H 5.6784 -0.497381 3.20463 0
M  V30 76 H 5.4634 1.19622 3.73407 0
M  V30 77 H 6.9534 0.304667 4.16487 0
M  V30 78 N 7.3905 -1.2043 1.01659 0
M  V30 79 C 8.3535 -2.21433 0.591616 0
M  V30 80 C 9.3535 -1.57203 -0.338226 0
M  V30 81 O 10.5435 -1.73737 -0.126918 0
M  V30 82 C 7.6755 -3.40628 -0.136058 0
M  V30 83 H 8.8685 -2.60545 1.48514 0
M  V30 84 H 6.4215 -1.33893 0.806379 0
M  V30 85 H 7.1565 -3.07019 -1.04449 0
M  V30 86 H 6.9415 -3.88475 0.531917 0
M  V30 87 H 8.4315 -4.15475 -0.420735 0
M  V30 88 N 8.8686 -0.792821 -1.36206 0
M  V30 89 C 10.2846 -0.474903 -1.52371 0
M  V30 90 C 10.4846 1.00622 -1.74578 0
M  V30 91 O 9.5406 1.79162 -1.77924 0
M  V30 92 C 10.8536 -1.3083 -2.70747 0
M  V30 93 C 12.4016 -1.30234 -2.84619 0
M  V30 94 C 12.8766 -2.11956 -4.06004 0
M  V30 95 N 14.3676 -2.09419 -4.13156 0
M  V30 96 C 15.1026 -2.69419 -5.06163 0
M  V30 97 N 14.5986 -3.3829 -6.04592 0
M  V30 98 N 16.3916 -2.59134 -4.98804 0
M  V30 99 H 8.5426 -1.75222 -1.20046 0
M  V30 100 H 10.8056 -0.745024 -0.586211 0
M  V30 101 H 10.5116 -2.35881 -2.6087 0
M  V30 102 H 10.3856 -0.95196 -3.6499 0
M  V30 103 H 12.7726 -0.259748 -2.93955 0
M  V30 104 H 12.8536 -1.69847 -1.91274 0
M  V30 105 H 12.4976 -3.16248 -3.97429 0
M  V30 106 H 12.4276 -1.69711 -4.98503 0
M  V30 107 H 14.9186 -1.59297 -3.42685 0
M  V30 108 H 15.2316 -3.81394 -6.7213 0
M  V30 109 H 13.5766 -3.42393 -6.04807 0
M  V30 110 H 16.7676 -2.04927 -4.20859 0
M  V30 111 H 16.9406 -3.06185 -5.711 0
M  V30 112 N 10.3467 1.47872 -0.545128 0
M  V30 113 C 11.5747 2.06889 -0.021084 0
M  V30 114 C 11.9897 1.39955 1.2672 0
M  V30 115 O 11.3467 0.492036 1.75742 0
M  V30 116 C 11.3977 3.60996 0.190817 0
M  V30 117 O 11.1187 4.25419 -1.04644 0
M  V30 118 C 12.6197 4.36849 0.753521 0
M  V30 119 H 9.8397 0.669785 -0.0403635 0
M  V30 120 H 12.3837 1.90049 -0.755095 0
M  V30 121 H 10.5387 3.77391 0.87492 0
M  V30 122 H 10.9527 5.17785 -0.836611 0
M  V30 123 H 12.4267 5.45399 0.851139 0
M  V30 124 H 12.9037 4.02306 1.762 0
M  V30 125 H 13.5097 4.25169 0.105503 0
M  V30 126 N 11.8248 0.280983 1.55075 0
M  V30 127 C 13.0708 -0.33461 2.00021 0
M  V30 128 C 13.4038 -1.55063 1.16915 0
M  V30 129 O 12.6788 -1.93006 0.240646 0
M  V30 130 C 12.9618 -0.711007 3.53011 0
M  V30 131 C 12.8148 0.512766 4.46868 0
M  V30 132 C 14.1338 -1.54522 4.12081 0
M  V30 133 H 11.2528 -0.120147 0.727141 0
M  V30 134 H 13.8948 0.389097 1.85973 0
M  V30 135 H 12.0448 -1.32761 3.65112 0
M  V30 136 H 13.7168 1.15131 4.46702 0
M  V30 137 H 11.9598 1.14975 4.18286 0
M  V30 138 H 12.6308 0.205556 5.51617 0
M  V30 139 H 15.1068 -1.02442 4.03293 0
M  V30 140 H 13.9828 -1.77739 5.19327 0
M  V30 141 H 14.2438 -2.52813 3.62682 0
M  V30 142 N 13.3029 -1.57598 0.00835791 0
M  V30 143 C 14.5489 -1.91211 -0.675732 0
M  V30 144 C 14.8819 -0.883139 -1.72958 0
M  V30 145 O 14.1569 0.097016 -1.94258 0
M  V30 146 C 14.4399 -3.35379 -1.31123 0
M  V30 147 C 14.2929 -4.48999 -0.268356 0
M  V30 148 C 15.6119 -3.7912 -2.23508 0
M  V30 149 H 12.7309 -0.695374 -0.244179 0
M  V30 150 H 15.3729 -1.89901 0.0613655 0
M  V30 151 H 13.5229 -3.36626 -1.93946 0
M  V30 152 H 15.1949 -4.59887 0.360844 0
M  V30 153 H 13.4379 -4.31873 0.408482 0
M  V30 154 H 14.1089 -5.46851 -0.752218 0
M  V30 155 H 16.5849 -3.79477 -1.70693 0
M  V30 156 H 15.4609 -4.80729 -2.64936 0
M  V30 157 H 15.7219 -3.13455 -3.11766 0
M  V30 158 N 14.781 0.264519 -1.55364 0
M  V30 159 C 15.728 1.32717 -1.88825 0
M  V30 160 C 16.698 1.48675 -0.740605 0
M  V30 161 O 17.883 1.62945 -0.992657 0
M  V30 162 C 15.023 2.68089 -2.17307 0
M  V30 163 C 14.136 2.60284 -3.44785 0
M  V30 164 C 13.271 3.87892 -3.62924 0
M  V30 165 C 12.31 3.74631 -4.84064 0
M  V30 166 N 11.447 4.94092 -4.98816 0
M  V30 167 H 16.287 1.03481 -2.79456 0
M  V30 168 H 13.824 0.499757 -1.3835 0
M  V30 169 H 15.782 3.46864 -2.31821 0
M  V30 170 H 14.412 2.95509 -1.299 0
M  V30 171 H 13.464 1.73173 -3.38697 0
M  V30 172 H 14.776 2.46388 -4.33698 0
M  V30 173 H 13.93 4.75109 -3.77302 0
M  V30 174 H 12.669 4.04664 -2.7221 0
M  V30 175 H 11.674 2.85797 -4.69681 0
M  V30 176 H 12.899 3.5937 -5.76221 0
M  V30 177 H 10.845 5.11259 -4.11036 0
M  V30 178 H 10.762 4.8276 -5.81789 0
M  V30 179 H 12.03 5.82857 -5.17588 0
M  V30 180 N 16.2591 1.48442 0.529413 0
M  V30 181 C 17.6701 1.5002 1.11134 0
M  V30 182 C 18.0211 0.27031 1.94329 0
M  V30 183 O 17.1461 -0.622507 2.07253 0
M  V30 184 C 17.7411 2.71834 2.02217 0
M  V30 185 C 16.3001 2.76283 2.55627 0
M  V30 186 C 15.4471 2.43542 1.326 0
M  V30 187 H 18.3981 1.5555 0.314641 0
M  V30 188 H 18.4191 2.50384 2.8651 0
M  V30 189 H 17.9311 3.61331 1.41639 0
M  V30 190 H 16.0321 1.90995 3.19924 0
M  V30 191 H 16.1451 3.77725 2.94721 0
M  V30 192 H 14.5091 1.94709 1.64196 0
M  V30 193 H 15.2921 3.3528 0.737734 0
M  V30 194 N 17.7372 -0.778329 1.37039 0
M  V30 195 C 18.6672 -1.90546 1.34962 0
M  V30 196 C 19.6482 -1.68681 0.219274 0
M  V30 197 O 20.8332 -1.89634 0.418624 0
M  V30 198 C 17.9632 -3.27734 1.14925 0
M  V30 199 C 16.9172 -3.64147 2.24902 0
M  V30 200 C 16.2432 -4.99806 1.89996 0
M  V30 201 C 17.5432 -3.71579 3.67051 0
M  V30 202 H 19.2372 -1.92541 2.29277 0
M  V30 203 H 16.7832 -0.924948 1.10366 0
M  V30 204 H 18.7362 -4.06215 1.12104 0
M  V30 205 H 17.4602 -3.26154 0.170631 0
M  V30 206 H 16.1192 -2.8797 2.26868 0
M  V30 207 H 15.7672 -4.94759 0.906796 0
M  V30 208 H 15.4672 -5.25139 2.63634 0
M  V30 209 H 16.9912 -5.80694 1.88749 0
M  V30 210 H 18.4052 -4.40227 3.67251 0
M  V30 211 H 16.8022 -4.08405 4.39688 0
M  V30 212 H 17.8722 -2.72404 4.01154 0
M  V30 213 N 19.2153 -1.21501 -1.00376 0
M  V30 214 C 20.4633 -1.03095 -1.73827 0
M  V30 215 C 20.7843 0.436341 -1.90055 0
M  V30 216 O 20.0543 1.31466 -1.45236 0
M  V30 217 H 18.6343 -0.378487 -0.644016 0
M  V30 218 H 21.2963 -1.52831 -1.20949 0
M  V30 219 H 20.3923 -1.49991 -2.73695 0
M  V30 220 N 20.6934 1.19889 -1.02296 0
M  V30 221 C 21.9404 1.8942 -0.715972 0
M  V30 222 C 22.2684 1.79251 0.754944 0
M  V30 223 O 21.5234 1.17526 1.56481 0
M  V30 224 C 21.8224 3.39883 -1.10518 0
M  V30 225 C 21.4884 3.70254 -2.57337 0
M  V30 226 C 20.1504 3.78254 -2.97452 0
M  V30 227 C 22.5024 3.84052 -3.52354 0
M  V30 228 C 19.8304 3.97514 -4.31509 0
M  V30 229 C 22.1824 4.04824 -4.86108 0
M  V30 230 C 20.8464 4.11054 -5.25919 0
M  V30 231 H 20.1164 0.693138 -0.261993 0
M  V30 232 H 22.7634 1.42012 -1.28472 0
M  V30 233 H 21.0684 3.8915 -0.454953 0
M  V30 234 H 22.7654 3.9199 -0.845261 0
M  V30 235 H 19.3554 3.64632 -2.25258 0
M  V30 236 H 23.5394 3.77221 -3.22518 0
M  V30 237 H 18.7954 4.00574 -4.61898 0
M  V30 238 H 22.9694 4.14442 -5.59653 0
M  V30 239 H 20.5964 4.2573 -6.29808 0
M  V30 240 N 22.1715 0.800033 1.35784 0
M  V30 241 C 23.1015 0.220184 2.3246 0
M  V30 242 C 24.0825 -0.65073 1.57161 0
M  V30 243 O 25.2675 -0.582359 1.85263 0
M  V30 244 C 22.3975 -0.637353 3.41402 0
M  V30 245 C 21.3515 0.134531 4.27789 0
M  V30 246 C 20.6775 -0.844285 5.27992 0
M  V30 247 C 21.9775 1.32979 5.05088 0
M  V30 248 H 23.6715 1.02787 2.81203 0
M  V30 249 H 21.2175 0.495717 1.35199 0
M  V30 250 H 23.1705 -1.05302 4.08031 0
M  V30 251 H 21.8945 -1.47785 2.91251 0
M  V30 252 H 20.5535 0.531296 3.6273 0
M  V30 253 H 20.2015 -1.68011 4.74111 0
M  V30 254 H 19.9015 -0.332184 5.8666 0
M  V30 255 H 21.4255 -1.2583 5.97494 0
M  V30 256 H 22.8395 0.98934 5.64699 0
M  V30 257 H 21.2365 1.77593 5.7322 0
M  V30 258 H 22.3065 2.11978 4.36111 0
M  V30 259 N 23.6496 -1.47581 0.552962 0
M  V30 260 C 24.5966 -2.29957 -0.197108 0
M  V30 261 C 25.5666 -1.38799 -0.912359 0
M  V30 262 O 26.7516 -1.67761 -0.908888 0
M  V30 263 C 23.8916 -3.22672 -1.22379 0
M  V30 264 C 23.0046 -4.28919 -0.515038 0
M  V30 265 C 22.1396 -5.0879 -1.52664 0
M  V30 266 C 21.1786 -6.06815 -0.802631 0
M  V30 267 N 20.3156 -6.7966 -1.76086 0
M  V30 268 H 25.1556 -2.93578 0.511486 0
M  V30 269 H 22.6926 -1.4471 0.264067 0
M  V30 270 H 24.6506 -3.74845 -1.83159 0
M  V30 271 H 23.2806 -2.60925 -1.90047 0
M  V30 272 H 22.3326 -3.79835 0.207192 0
M  V30 273 H 23.6446 -4.98773 0.0523425 0
M  V30 274 H 22.7986 -5.65091 -2.20809 0
M  V30 275 H 21.5376 -4.38828 -2.12794 0
M  V30 276 H 20.5426 -5.49695 -0.107238 0
M  V30 277 H 21.7676 -6.78784 -0.207135 0
M  V30 278 H 19.7136 -6.12432 -2.35081 0
M  V30 279 H 19.6306 -7.45669 -1.24552 0
M  V30 280 H 20.8986 -7.40538 -2.43359 0
M  V30 281 N 25.1277 -0.289203 -1.54924 0
M  V30 282 C 26.5387 0.205791 -1.85562 0
M  V30 283 C 26.8897 1.54351 -1.2112 0
M  V30 284 O 26.0147 2.10435 -0.504601 0
M  V30 285 C 26.6097 0.380177 -3.3666 0
M  V30 286 C 25.1687 0.819395 -3.67373 0
M  V30 287 C 24.3157 -0.079159 -2.77187 0
M  V30 288 H 27.2667 -0.510577 -1.50262 0
M  V30 289 H 27.2877 1.21659 -3.60526 0
M  V30 290 H 26.7997 -0.593589 -3.83534 0
M  V30 291 H 24.9007 1.80413 -3.26009 0
M  V30 292 H 25.0137 0.646957 -4.74712 0
M  V30 293 H 23.3777 0.439565 -2.50878 0
M  V30 294 H 24.1607 -1.04906 -3.26878 0
M  V30 295 N 26.6058 1.57591 -0.0167156 0
M  V30 296 C 27.8528 1.91283 0.664597 0
M  V30 297 C 28.1808 0.891949 1.72842 0
M  V30 298 O 27.4358 -0.100931 1.9544 0
M  V30 299 C 27.7348 3.3172 1.33029 0
M  V30 300 C 27.4008 4.4914 0.398047 0
M  V30 301 C 26.0628 4.80992 0.141421 0
M  V30 302 C 28.4148 5.20634 -0.242825 0
M  V30 303 C 25.7428 5.81703 -0.764092 0
M  V30 304 C 28.0948 6.22311 -1.13632 0
M  V30 305 C 26.7588 6.52611 -1.40196 0
M  V30 306 H 26.0288 0.699956 0.243193 0
M  V30 307 H 28.6758 1.9135 -0.0758267 0
M  V30 308 H 26.9808 3.27856 2.14517 0
M  V30 309 H 28.6778 3.55055 1.86379 0
M  V30 310 H 25.2678 4.24262 0.608238 0
M  V30 311 H 29.4518 4.96267 -0.0576019 0
M  V30 312 H 24.7078 6.03532 -0.977732 0
M  V30 313 H 28.8818 6.76834 -1.63917 0
M  V30 314 H 26.5088 7.30467 -2.10529 0
M  V30 315 N 28.0839 -0.256276 1.55502 0
M  V30 316 C 29.3089 -1.00766 1.81276 0
M  V30 317 C 29.7339 -1.78524 0.59252 0
M  V30 318 O 29.0919 -1.75413 -0.45827 0
M  V30 319 C 29.1399 -1.92869 3.04687 0
M  V30 320 O 28.2439 -3.019 2.80945 0
M  V30 321 H 27.5849 -0.287224 0.598664 0
M  V30 322 H 30.1149 -0.280109 2.02674 0
M  V30 323 H 30.1249 -2.34511 3.33869 0
M  V30 324 H 28.7999 -1.35689 3.93143 0
M  V30 325 H 27.3769 -2.64454 2.62904 0
M  V30 326 N 29.562 -1.4872 -0.521534 0
M  V30 327 C 30.492 -1.66771 -1.63431 0
M  V30 328 C 31.473 -0.516499 -1.62069 0
M  V30 329 O 32.658 -0.750013 -1.79132 0
M  V30 330 C 29.788 -1.71515 -3.01993 0
M  V30 331 C 28.742 -2.86222 -3.18216 0
M  V30 332 C 28.068 -2.76061 -4.57924 0
M  V30 333 C 29.368 -4.27419 -3.00184 0
M  V30 334 H 31.062 -2.59932 -1.48579 0
M  V30 335 H 28.608 -1.25089 -0.713358 0
M  V30 336 H 30.561 -1.82731 -3.7972 0
M  V30 337 H 29.285 -0.749393 -3.17886 0
M  V30 338 H 27.944 -2.74575 -2.42908 0
M  V30 339 H 27.592 -1.77437 -4.70665 0
M  V30 340 H 27.292 -3.53037 -4.69722 0
M  V30 341 H 28.816 -2.89256 -5.37739 0
M  V30 342 H 30.23 -4.39855 -3.67697 0
M  V30 343 H 28.627 -5.05458 -3.2347 0
M  V30 344 H 29.697 -4.43293 -1.96518 0
M  V30 345 N 31.0401 0.771051 -1.3745 0
M  V30 346 C 31.9731 1.89166 -1.27638 0
M  V30 347 C 32.9511 1.61842 -0.156782 0
M  V30 348 O 34.1351 1.85569 -0.331111 0
M  V30 349 C 31.2621 3.24405 -0.973621 0
M  V30 350 C 30.3081 3.70638 -2.1102 0
M  V30 351 S 31.1411 3.84228 -3.73 0
M  V30 352 C 32.2971 5.22313 -3.44876 0
M  V30 353 H 32.5301 1.972 -2.22485 0
M  V30 354 H 30.0631 0.932224 -1.23081 0
M  V30 355 H 32.0211 4.02514 -0.805766 0
M  V30 356 H 30.6821 3.14071 -0.0426279 0
M  V30 357 H 29.8751 4.68685 -1.85338 0
M  V30 358 H 29.4771 2.99632 -2.23822 0
M  V30 359 H 31.7691 6.07505 -2.99908 0
M  V30 360 H 32.7121 5.53008 -4.42253 0
M  V30 361 H 33.1201 4.90284 -2.79789 0
M  V30 362 N 32.5182 1.22032 0.997298 0
M  V30 363 C 33.4652 0.986467 2.08656 0
M  V30 364 C 34.4352 -0.0902671 1.65855 0
M  V30 365 O 35.6202 0.0584294 1.90711 0
M  V30 366 C 32.7602 0.565569 3.40434 0
M  V30 367 C 31.8732 1.71259 3.96604 0
M  V30 368 C 31.0082 1.24011 5.16522 0
M  V30 369 C 30.0472 2.35896 5.64818 0
M  V30 370 N 29.1842 1.89726 6.7598 0
M  V30 371 H 34.0242 1.91892 2.27994 0
M  V30 372 H 31.5612 0.956199 1.11782 0
M  V30 373 H 33.5192 0.302738 4.161 0
M  V30 374 H 32.1492 -0.329879 3.2111 0
M  V30 375 H 31.2012 2.08986 3.17851 0
M  V30 376 H 32.5132 2.55436 4.28432 0
M  V30 377 H 31.6672 0.934395 5.99461 0
M  V30 378 H 30.4062 0.368487 4.86306 0
M  V30 379 H 29.4112 2.67261 4.8047 0
M  V30 380 H 30.6362 3.23567 5.97061 0
M  V30 381 H 28.5822 1.0492 6.47555 0
M  V30 382 H 28.4992 2.67471 7.07103 0
M  V30 383 H 29.7672 1.62211 7.62435 0
M  V30 384 N 33.9963 -1.19345 1.0293 0
M  V30 385 C 34.9593 -2.20793 0.615069 0
M  V30 386 C 35.9593 -1.57553 -0.321533 0
M  V30 387 O 37.1493 -1.73862 -0.108483 0
M  V30 388 C 34.2813 -3.40754 -0.0999222 0
M  V30 389 H 35.4743 -2.58955 1.51269 0
M  V30 390 H 33.0273 -1.3303 0.820534 0
M  V30 391 H 33.7623 -3.0811 -1.01187 0
M  V30 392 H 33.5473 -3.87889 0.57309 0
M  V30 393 H 35.0373 -4.15898 -0.376645 0
M  V30 394 N 35.4744 -0.807222 -1.35358 0
M  V30 395 C 36.6994 -0.399309 -2.0352 0
M  V30 396 C 37.1244 0.981986 -1.60433 0
M  V30 397 O 36.4824 1.63601 -0.781299 0
M  V30 398 C 36.5304 -0.491552 -3.57234 0
M  V30 399 O 35.6344 0.494754 -4.09421 0
M  V30 400 H 34.9754 -0.166682 -0.642739 0
M  V30 401 H 37.5054 -1.09328 -1.72941 0
M  V30 402 H 37.5154 -0.361588 -4.06395 0
M  V30 403 H 36.1904 -1.49907 -3.87944 0
M  V30 404 H 34.7674 0.324977 -3.71481 0
M  V30 405 N 36.9525 1.47285 -0.560781 0
M  V30 406 C 38.1775 2.07359 -0.0410566 0
M  V30 407 C 38.6025 1.41017 1.24483 0
M  V30 408 O 37.9605 0.486368 1.74654 0
M  V30 409 C 38.0085 3.6035 0.134123 0
M  V30 410 O 37.1125 3.94681 1.19587 0
M  V30 411 H 36.4535 0.661887 -0.0529291 0
M  V30 412 H 38.9835 1.89252 -0.777482 0
M  V30 413 H 38.9935 4.0652 0.347207 0
M  V30 414 H 37.6685 4.08034 -0.805047 0
M  V30 415 H 36.2455 3.60251 0.962987 0
M  V30 416 N 38.4306 0.297415 1.54768 0
M  V30 417 C 39.8466 -0.0560823 1.59501 0
M  V30 418 C 40.0466 -1.52725 1.31444 0
M  V30 419 O 39.1026 -2.27947 1.08611 0
M  V30 420 C 40.4156 0.338631 2.98787 0
M  V30 421 C 41.9636 0.287097 3.11681 0
M  V30 422 C 42.4386 0.656579 4.53269 0
M  V30 423 N 43.9296 0.608977 4.59179 0
M  V30 424 C 44.6646 0.867385 5.66802 0
M  V30 425 N 44.1606 1.19157 6.82476 0
M  V30 426 N 45.9536 0.794687 5.56454 0
M  V30 427 H 38.1046 1.25624 1.71267 0
M  V30 428 H 40.3676 0.509057 0.799728 0
M  V30 429 H 40.0736 1.36263 3.2423 0
M  V30 430 H 39.9476 -0.309508 3.75928 0
M  V30 431 H 42.3346 -0.727649 2.85988 0
M  V30 432 H 42.4156 0.969809 2.36703 0
M  V30 433 H 42.0596 1.66912 4.7969 0
M  V30 434 H 41.9896 -0.0481649 5.26578 0
M  V30 435 H 44.4806 0.369198 3.76092 0
M  V30 436 H 44.7936 1.37482 7.60473 0
M  V30 437 H 43.1386 1.22958 6.84037 0
M  V30 438 H 46.3296 0.541098 4.64962 0
M  V30 439 H 46.5026 0.999445 6.40246 0
M  V30 440 N 39.9087 -1.5758 0.0250728 0
M  V30 441 C 41.1557 -1.91633 -0.654444 0
M  V30 442 C 41.4837 -0.901103 -1.72367 0
M  V30 443 O 40.7387 0.0905647 -1.9549 0
M  V30 444 C 41.0377 -3.32421 -1.31268 0
M  V30 445 C 40.7037 -4.49344 -0.374223 0
M  V30 446 C 39.3657 -4.8106 -0.115911 0
M  V30 447 C 41.7177 -5.20498 0.270432 0
M  V30 448 C 39.0457 -5.8129 0.79493 0
M  V30 449 C 41.3977 -6.21699 1.1693 0
M  V30 450 C 40.0617 -6.51859 1.43655 0
M  V30 451 H 39.3317 -0.701236 -0.239478 0
M  V30 452 H 41.9787 -1.91307 0.0859734 0
M  V30 453 H 40.2837 -3.28989 -2.12775 0
M  V30 454 H 41.9807 -3.56038 -1.84494 0
M  V30 455 H 38.5707 -4.24579 -0.58573 0
M  V30 456 H 42.7547 -4.96229 0.0839194 0
M  V30 457 H 38.0107 -6.03005 1.00973 0
M  V30 458 H 42.1847 -6.75955 1.67504 0
M  V30 459 H 39.8117 -7.2934 2.144 0
M  V30 460 N 41.3868 0.248026 -1.55636 0
M  V30 461 C 42.3338 1.30707 -1.90222 0
M  V30 462 C 43.3038 1.47881 -0.756332 0
M  V30 463 O 44.4888 1.61883 -1.00988 0
M  V30 464 C 41.6288 2.65769 -2.20138 0
M  V30 465 C 40.7418 2.56612 -3.47526 0
M  V30 466 C 39.8768 3.8402 -3.67017 0
M  V30 467 C 38.9158 3.69476 -4.8801 0
M  V30 468 N 38.0528 4.88774 -5.04029 0
M  V30 469 H 42.8928 1.00512 -2.80538 0
M  V30 470 H 40.4298 0.485055 -1.38873 0
M  V30 471 H 42.3878 3.44386 -2.35487 0
M  V30 472 H 41.0178 2.94115 -1.33027 0
M  V30 473 H 40.0698 1.69571 -3.40514 0
M  V30 474 H 41.3818 2.41774 -4.36287 0
M  V30 475 H 40.5358 4.7108 -3.8232 0
M  V30 476 H 39.2748 4.01754 -2.76487 0
M  V30 477 H 38.2798 2.80799 -4.72686 0
M  V30 478 H 39.5048 3.53238 -5.8 0
M  V30 479 H 37.4508 5.0687 -4.16435 0
M  V30 480 H 37.3678 4.76562 -5.86877 0
M  V30 481 H 38.6358 5.77335 -5.23741 0
M  V30 482 N 42.8649 1.48995 0.513639 0
M  V30 483 C 43.8279 1.64229 1.59879 0
M  V30 484 C 44.8279 0.514696 1.5234 0
M  V30 485 O 46.0179 0.78087 1.55718 0
M  V30 486 C 43.1499 1.62783 2.99524 0
M  V30 487 H 44.3429 2.61004 1.47705 0
M  V30 488 H 41.8959 1.37837 0.736936 0
M  V30 489 H 42.6309 0.675461 3.17188 0
M  V30 490 H 42.4159 2.4466 3.06404 0
M  V30 491 H 43.9059 1.76669 3.78388 0
M  V30 492 N 44.343 -0.763751 1.37857 0
M  V30 493 C 45.293 -1.86765 1.30777 0
M  V30 494 C 46.277 -1.59726 0.194015 0
M  V30 495 O 47.469 -1.7172 0.42911 0
M  V30 496 C 44.598 -3.24343 1.12502 0
M  V30 497 C 43.684 -3.57307 2.28456 0
M  V30 498 N 44.075 -3.61398 3.53871 0
M  V30 499 C 42.373 -3.87517 2.20786 0
M  V30 500 C 43.074 -3.91339 4.30382 0
M  V30 501 N 42.05 -4.07649 3.59615 0
M  V30 502 H 45.852 -1.88191 2.25746 0
M  V30 503 H 43.366 -0.9606 1.30944 0
M  V30 504 H 45.363 -4.03327 1.05514 0
M  V30 505 H 44.023 -3.24175 0.184574 0
M  V30 506 H 45.034 -3.43407 3.87675 0
M  V30 507 H 41.711 -3.95125 1.34844 0
M  V30 508 H 43.101 -4.01213 5.3896 0
M  V30 509 N 45.8211 -1.22559 -0.990812 0
M  V30 510 C 46.7531 -0.955325 -2.08342 0
M  V30 511 C 47.7661 0.0668408 -1.62663 0
M  V30 512 O 48.9551 -0.167421 -1.77713 0
M  V30 513 C 46.0551 -0.415566 -3.36342 0
M  V30 514 C 45.2281 -1.49544 -4.11042 0
M  V30 515 C 44.2871 -0.962399 -5.17324 0
M  V30 516 O 43.3131 -1.64907 -5.44788 0
M  V30 517 N 44.5151 0.215134 -5.80101 0
M  V30 518 H 47.2801 -1.89596 -2.32106 0
M  V30 519 H 44.8411 -1.13276 -1.15673 0
M  V30 520 H 46.8331 -0.0442386 -4.04676 0
M  V30 521 H 45.4031 0.430232 -3.09625 0
M  V30 522 H 44.6231 -2.04 -3.37309 0
M  V30 523 H 45.9111 -2.22195 -4.57719 0
M  V30 524 H 45.3091 0.789779 -5.6016 0
M  V30 525 H 43.8661 0.527826 -6.49659 0
M  V30 526 N 47.2992 1.18797 -1.03562 0
M  V30 527 C 48.5762 1.84469 -0.650434 0
M  V30 528 C 48.9562 1.92319 0.870433 0
M  V30 529 O 48.3042 1.44528 1.76986 0
M  V30 530 C 48.5142 3.2306 -1.32036 0
M  V30 531 C 49.8622 3.9915 -1.44792 0
M  V30 532 O 50.8862 3.32481 -1.27806 0
M  V30 533 O 49.7452 5.18587 -1.72423 0
M  V30 534 H 46.8392 0.795251 -0.226946 0
M  V30 535 H 49.3852 1.26231 -1.13419 0
M  V30 536 H 48.1572 3.1222 -2.3587 0
M  V30 537 H 47.7802 3.88949 -0.8249 0
M  V30 538 N 48.7773 0.814389 1.34928 0
M  V30 539 C 49.7403 0.235759 2.27984 0
M  V30 540 C 50.7403 -0.581412 1.49921 0
M  V30 541 O 51.9303 -0.398758 1.69575 0
M  V30 542 C 49.0623 -0.670433 3.34242 0
M  V30 543 H 50.2553 1.05659 2.80671 0
M  V30 544 H 47.8083 0.585614 1.44915 0
M  V30 545 H 48.5433 -1.51466 2.86755 0
M  V30 546 H 48.3283 -0.0860822 3.92005 0
M  V30 547 H 49.8183 -1.06935 4.03676 0
M  V30 548 N 50.2554 -1.46986 0.568584 0
M  V30 549 C 51.1854 -2.32946 -0.160753 0
M  V30 550 C 52.1664 -1.44487 -0.897631 0
M  V30 551 O 53.3514 -1.73327 -0.875867 0
M  V30 552 C 50.4814 -3.26494 -1.18403 0
M  V30 553 C 49.4354 -4.24282 -0.562895 0
M  V30 554 C 48.7614 -5.07236 -1.69163 0
M  V30 555 C 50.0614 -5.19989 0.490761 0
M  V30 556 H 51.7554 -2.94175 0.556916 0
M  V30 557 H 49.3014 -1.4146 0.26927 0
M  V30 558 H 51.2544 -3.85477 -1.70251 0
M  V30 559 H 49.9784 -2.63343 -1.93179 0
M  V30 560 H 48.6374 -3.66541 -0.0656164 0
M  V30 561 H 48.2854 -4.4048 -2.42871 0
M  V30 562 H 47.9854 -5.7345 -1.28174 0
M  V30 563 H 49.5094 -5.6908 -2.21314 0
M  V30 564 H 50.9234 -5.73271 0.0579047 0
M  V30 565 H 49.3204 -5.94469 0.820165 0
M  V30 566 H 50.3904 -4.64777 1.3824 0
M  V30 567 N 51.7335 -0.305618 -1.54608 0
M  V30 568 C 53.1445 0.186098 -1.8577 0
M  V30 569 C 53.4955 1.53058 -1.22751 0
M  V30 570 O 52.6205 2.09888 -0.526893 0
M  V30 571 C 53.2155 0.344449 -3.37044 0
M  V30 572 C 51.7745 0.780384 -3.68221 0
M  V30 573 C 50.9215 -0.108554 -2.77087 0
M  V30 574 H 53.8725 -0.526485 -1.49712 0
M  V30 575 H 53.8935 1.17828 -3.61796 0
M  V30 576 H 53.4055 -0.634235 -3.82883 0
M  V30 577 H 51.5065 1.76945 -3.27904 0
M  V30 578 H 51.6195 0.596572 -4.75371 0
M  V30 579 H 49.9835 0.412931 -2.5133 0
M  V30 580 H 50.7665 -1.08368 -3.25747 0
M  V30 581 N 53.2116 1.57565 -0.0334293 0
M  V30 582 C 54.6276 1.56297 0.322997 0
M  V30 583 C 54.8276 1.03945 1.7262 0
M  V30 584 O 53.8836 0.688109 2.42943 0
M  V30 585 C 55.1966 3.00232 0.167664 0
M  V30 586 C 56.7446 3.12078 0.240107 0
M  V30 587 C 57.2196 4.57859 0.113513 0
M  V30 588 N 58.7106 4.62887 0.170359 0
M  V30 589 C 59.4456 5.73319 0.0962517 0
M  V30 590 N 58.9416 6.92794 -0.0291881 0
M  V30 591 N 60.7346 5.61898 0.150551 0
M  V30 592 H 52.8856 1.89923 -0.950956 0
M  V30 593 H 55.1486 0.873824 -0.367608 0
M  V30 594 H 54.8546 3.42501 -0.799102 0
M  V30 595 H 54.7286 3.654 0.936083 0
M  V30 596 H 57.1156 2.69718 1.19733 0
M  V30 597 H 57.1966 2.49623 -0.558763 0
M  V30 598 H 56.8406 5.009 -0.840314 0
M  V30 599 H 56.7706 5.18299 0.931302 0
M  V30 600 H 59.2616 3.76954 0.26728 0
M  V30 601 H 59.5746 7.7276 -0.0789252 0
M  V30 602 H 57.9196 6.94971 -0.0640299 0
M  V30 603 H 61.1106 4.67448 0.246981 0
M  V30 604 H 61.2836 6.47938 0.0893365 0
M  V30 605 N 54.6897 -0.239769 1.55765 0
M  V30 606 C 55.6197 -1.30052 1.9393 0
M  V30 607 C 56.6007 -1.49839 0.805132 0
M  V30 608 O 57.7857 -1.62328 1.06599 0
M  V30 609 C 54.9157 -2.65391 2.2402 0
M  V30 610 C 53.8697 -2.60289 3.39755 0
M  V30 611 C 53.1957 -3.99489 3.55405 0
M  V30 612 C 54.4957 -2.16654 4.75246 0
M  V30 613 H 56.1897 -0.983573 2.82783 0
M  V30 614 H 53.7357 -0.471701 1.36055 0
M  V30 615 H 55.6887 -3.3974 2.49308 0
M  V30 616 H 54.4127 -2.98736 1.32 0
M  V30 617 H 53.0717 -1.88398 3.14487 0
M  V30 618 H 52.7197 -4.30112 2.60793 0
M  V30 619 H 52.4197 -3.96962 4.33238 0
M  V30 620 H 53.9437 -4.75528 3.83022 0
M  V30 621 H 55.3577 -2.80737 4.99859 0
M  V30 622 H 53.7547 -2.25223 5.56232 0
M  V30 623 H 54.8247 -1.11835 4.71827 0
M  V30 624 N 56.1678 -1.49265 -0.50573 0
M  V30 625 C 57.5788 -1.51769 -1.08734 0
M  V30 626 C 57.9298 -0.301192 -1.93874 0
M  V30 627 O 57.0548 0.589456 -2.08217 0
M  V30 628 C 57.6498 -2.75017 -1.97867 0
M  V30 629 C 56.2088 -2.80314 -2.51199 0
M  V30 630 C 55.3558 -2.4562 -1.28709 0
M  V30 631 H 58.3068 -1.56031 -0.289855 0
M  V30 632 H 58.3278 -2.5491 -2.82491 0
M  V30 633 H 57.8398 -3.63539 -1.35873 0
M  V30 634 H 55.9408 -1.96061 -3.16845 0
M  V30 635 H 56.0538 -3.82366 -2.88675 0
M  V30 636 H 54.4178 -1.97297 -1.61078 0
M  V30 637 H 55.2008 -3.36411 -0.6843 0
M  V30 638 N 57.6459 0.756429 -1.3826 0
M  V30 639 C 58.8919 1.51772 -1.34511 0
M  V30 640 C 59.2249 1.94089 0.0656691 0
M  V30 641 O 58.4999 1.65221 1.02626 0
M  V30 642 C 58.7829 2.77226 -2.29821 0
M  V30 643 C 58.6359 2.41065 -3.79747 0
M  V30 644 C 59.9549 3.79236 -2.23312 0
M  V30 645 H 57.0739 0.550578 -0.489931 0
M  V30 646 H 59.7159 0.866607 -1.69086 0
M  V30 647 H 57.8659 3.32784 -2.00467 0
M  V30 648 H 59.5379 1.91303 -4.19763 0
M  V30 649 H 57.7809 1.7356 -3.97567 0
M  V30 650 H 58.4519 3.3081 -4.41892 0
M  V30 651 H 60.9279 3.3321 -2.49219 0
M  V30 652 H 59.8039 4.64714 -2.92116 0
M  V30 653 H 60.0649 4.24615 -1.23102 0
M  V30 654 N 59.124 1.23083 0.984299 0
M  V30 655 C 60.535 1.05609 1.5396 0
M  V30 656 C 60.886 -0.377793 1.92528 0
M  V30 657 O 60.011 -1.26398 1.75649 0
M  V30 658 C 60.606 1.91087 2.7977 0
M  V30 659 C 59.165 1.77885 3.31713 0
M  V30 660 C 58.312 1.87028 2.04733 0
M  V30 661 H 61.263 1.36802 0.804419 0
M  V30 662 H 61.284 1.43336 3.5247 0
M  V30 663 H 60.796 2.9544 2.51668 0
M  V30 664 H 58.897 0.762995 3.64704 0
M  V30 665 H 59.01 2.61047 4.01735 0
M  V30 666 H 57.374 1.30565 2.18689 0
M  V30 667 H 58.157 2.92929 1.79017 0
M  V30 668 N 60.6021 -1.18246 1.0419 0
M  V30 669 C 62.0131 -1.69914 0.773698 0
M  V30 670 C 62.3641 -1.83085 -0.705297 0
M  V30 671 O 61.4891 -1.51123 -1.5489 0
M  V30 672 C 62.0841 -3.08619 1.39784 0
M  V30 673 C 60.6431 -3.57494 1.17792 0
M  V30 674 C 59.7901 -2.34013 1.48773 0
M  V30 675 H 62.7411 -1.02904 1.20816 0
M  V30 676 H 62.7621 -3.71958 0.801714 0
M  V30 677 H 62.2741 -2.99001 2.47426 0
M  V30 678 H 60.3751 -3.72406 0.120295 0
M  V30 679 H 60.4881 -4.40852 1.87581 0
M  V30 680 H 58.8521 -2.37986 0.907463 0
M  V30 681 H 59.6351 -2.27013 2.57527 0
M  V30 682 N 62.0802 -0.821533 -1.34494 0
M  V30 683 C 63.0102 -0.257138 -2.3208 0
M  V30 684 C 63.9912 0.625645 -1.58176 0
M  V30 685 O 65.1762 0.552811 -1.86166 0
M  V30 686 C 62.3062 0.582958 -3.42372 0
M  V30 687 C 61.2602 -0.202571 -4.2752 0
M  V30 688 C 60.5862 0.760179 -5.29269 0
M  V30 689 C 61.8862 -1.40998 -5.02908 0
M  V30 690 H 63.5802 -1.07247 -2.79532 0
M  V30 691 H 61.1262 -0.517163 -1.34393 0
M  V30 692 H 63.0792 0.987972 -4.09655 0
M  V30 693 H 61.8032 1.43133 -2.93565 0
M  V30 694 H 60.4622 -0.588936 -3.61838 0
M  V30 695 H 60.1102 1.60447 -4.76724 0
M  V30 696 H 59.8102 0.238809 -5.87115 0
M  V30 697 H 61.3342 1.16308 -5.9942 0
M  V30 698 H 62.7482 -1.07905 -5.63054 0
M  V30 699 H 61.1452 -1.86689 -5.70322 0
M  V30 700 H 62.2152 -2.1889 -4.32684 0
M  V30 701 N 63.5583 1.46682 -0.576371 0
M  V30 702 C 64.4903 2.28341 0.198231 0
M  V30 703 C 65.5033 1.38141 0.861453 0
M  V30 704 O 66.6923 1.62797 0.732082 0
M  V30 705 C 63.7923 3.12986 1.29972 0
M  V30 706 C 62.9653 4.31271 0.729639 0
M  V30 707 C 62.0243 4.97363 1.71803 0
M  V30 708 O 61.0503 5.55156 1.25658 0
M  V30 709 N 62.2523 4.93796 3.05198 0
M  V30 710 H 65.0173 2.9546 -0.502324 0
M  V30 711 H 62.5783 1.56525 -0.413715 0
M  V30 712 H 64.5703 3.54066 1.96008 0
M  V30 713 H 63.1403 2.47984 1.90323 0
M  V30 714 H 62.3603 3.94052 -0.108012 0
M  V30 715 H 63.6483 5.07739 0.328438 0
M  V30 716 H 63.0463 4.48077 3.45317 0
M  V30 717 H 61.6033 5.38837 3.6674 0
M  V30 718 N 65.0364 0.313813 1.54444 0
M  V30 719 C 65.9684 -0.590425 2.21465 0
M  V30 720 C 66.9814 -1.08753 1.21147 0
M  V30 721 O 68.1704 -1.00278 1.4767 0
M  V30 722 C 65.2704 -1.82179 2.85769 0
M  V30 723 C 64.4434 -1.46502 4.12136 0
M  V30 724 C 63.5024 -2.55288 4.60124 0
M  V30 725 O 62.5284 -2.19842 5.25032 0
M  V30 726 N 63.7304 -3.86053 4.33525 0
M  V30 727 H 66.4954 -0.0166033 2.99695 0
M  V30 728 H 64.0564 0.136578 1.61323 0
M  V30 729 H 66.0484 -2.54328 3.14801 0
M  V30 730 H 64.6184 -2.30369 2.11303 0
M  V30 731 H 63.8384 -0.575595 3.89975 0
M  V30 732 H 65.1264 -1.20221 4.94393 0
M  V30 733 H 64.5244 -4.17654 3.81552 0
M  V30 734 H 63.0814 -4.54461 4.67235 0
M  V30 735 N 66.5145 -1.57545 0.0417849 0
M  V30 736 C 67.7395 -1.97035 -0.647455 0
M  V30 737 C 68.1645 -0.918775 -1.64135 0
M  V30 738 O 67.5225 0.119006 -1.80909 0
M  V30 739 C 67.5705 -3.35609 -1.31905 0
M  V30 740 O 66.6745 -3.3287 -2.43457 0
M  V30 741 H 66.0155 -0.64211 -0.169086 0
M  V30 742 H 68.5455 -2.04318 0.107399 0
M  V30 743 H 68.5555 -3.72126 -1.67291 0
M  V30 744 H 67.2305 -4.11685 -0.590586 0
M  V30 745 H 65.8075 -3.08087 -2.10088 0
M  V30 746 N 67.9926 0.231505 -1.5589 0
M  V30 747 C 68.9226 1.29022 -1.94617 0
M  V30 748 C 69.9036 1.4941 -0.813067 0
M  V30 749 O 71.0886 1.6176 -1.07459 0
M  V30 750 C 68.2186 2.64199 -2.25424 0
M  V30 751 C 67.1726 2.58484 -3.41131 0
M  V30 752 C 66.4986 3.97599 -3.57518 0
M  V30 753 C 67.7986 2.1413 -4.76388 0
M  V30 754 H 69.4926 0.968563 -2.83301 0
M  V30 755 H 67.0386 0.464479 -1.36303 0
M  V30 756 H 68.9916 3.38413 -2.51107 0
M  V30 757 H 67.7156 2.98032 -1.33583 0
M  V30 758 H 66.3746 1.86727 -3.15481 0
M  V30 759 H 66.0226 4.28723 -2.6307 0
M  V30 760 H 65.7226 3.94659 -4.35337 0
M  V30 761 H 67.2466 4.7349 -3.85538 0
M  V30 762 H 68.6606 2.78083 -5.01341 0
M  V30 763 H 67.0576 2.2227 -5.57419 0
M  V30 764 H 68.1276 1.09331 -4.72414 0
M  V30 765 N 69.4707 1.49531 0.497807 0
M  V30 766 C 70.7477 1.49682 1.25915 0
M  V30 767 C 71.1277 0.226339 2.09883 0
M  V30 768 O 70.4757 -0.791189 2.14365 0
M  V30 769 C 70.6857 2.77755 2.11313 0
M  V30 770 C 72.0337 3.27371 2.70395 0
M  V30 771 O 73.0577 2.78894 2.21578 0
M  V30 772 O 71.9167 4.11808 3.59272 0
M  V30 773 H 69.0107 0.599228 0.56996 0
M  V30 774 H 71.5567 1.61798 0.511816 0
M  V30 775 H 70.3287 3.61713 1.49264 0
M  V30 776 H 69.9517 2.68515 2.93233 0
M  V30 777 N 70.9488 -0.749086 1.3866 0
M  V30 778 C 71.8988 -1.85368 1.32751 0
M  V30 779 C 72.8828 -1.59511 0.210945 0
M  V30 780 O 74.0748 -1.71255 0.447299 0
M  V30 781 C 71.2038 -3.23131 1.15935 0
M  V30 782 C 70.2898 -3.54864 2.32233 0
M  V30 783 N 70.6808 -3.57625 3.57684 0
M  V30 784 C 68.9788 -3.85154 2.24883 0
M  V30 785 C 69.6798 -3.86753 4.34508 0
M  V30 786 N 68.6558 -4.03812 3.63918 0
M  V30 787 H 72.4578 -1.85787 2.27729 0
M  V30 788 H 69.9718 -0.946658 1.31955 0
M  V30 789 H 71.9688 -4.02185 1.09786 0
M  V30 790 H 70.6288 -3.23961 0.218947 0
M  V30 791 H 71.6398 -3.39276 3.91295 0
M  V30 792 H 68.3168 -3.93672 1.39027 0
M  V30 793 H 69.7068 -3.95474 5.43185 0
M  V30 794 N 72.4269 -1.23603 -0.977757 0
M  V30 795 C 73.6569 -1.09487 -1.75203 0
M  V30 796 C 74.0649 0.356321 -1.85814 0
M  V30 797 O 73.4079 1.25816 -1.33851 0
M  V30 798 C 73.4699 -1.64905 -3.19447 0
M  V30 799 C 73.1339 -3.13688 -3.32338 0
M  V30 800 C 74.1309 -4.10953 -3.18455 0
M  V30 801 C 71.8159 -3.53449 -3.56902 0
M  V30 802 C 73.8099 -5.45962 -3.28944 0
M  V30 803 C 71.4969 -4.88602 -3.6703 0
M  V30 804 C 72.4949 -5.84668 -3.53062 0
M  V30 805 O 72.1829 -7.17365 -3.62826 0
M  V30 806 H 71.9149 -0.38367 -0.556573 0
M  V30 807 H 74.4689 -1.6398 -1.23693 0
M  V30 808 H 72.6989 -1.04835 -3.72218 0
M  V30 809 H 74.3879 -1.46226 -3.78646 0
M  V30 810 H 75.1539 -3.81577 -2.99372 0
M  V30 811 H 71.0329 -2.79188 -3.66844 0
M  V30 812 H 74.5769 -6.20925 -3.17958 0
M  V30 813 H 70.4739 -5.17653 -3.85623 0
M  V30 814 H 71.2419 -7.2515 -3.79605 0
M  V30 815 N 73.905 1.17692 -1.04816 0
M  V30 816 C 74.835 2.23777 -0.666791 0
M  V30 817 C 75.816 1.66796 0.33361 0
M  V30 818 O 77.001 1.93039 0.212042 0
M  V30 819 C 74.131 3.47281 -0.0367933 0
M  V30 820 C 73.085 4.17059 -0.961546 0
M  V30 821 C 72.411 5.34342 -0.195626 0
M  V30 822 C 73.711 4.69713 -2.28402 0
M  V30 823 H 75.405 2.55933 -1.55367 0
M  V30 824 H 72.951 1.23019 -0.748484 0
M  V30 825 H 74.904 4.20706 0.241775 0
M  V30 826 H 73.628 3.14381 0.885004 0
M  V30 827 H 72.287 3.45541 -1.22462 0
M  V30 828 H 71.935 4.97692 0.728816 0
M  V30 829 H 71.635 5.81966 -0.811775 0
M  V30 830 H 73.159 6.10553 0.0757473 0
M  V30 831 H 74.573 5.34794 -2.06563 0
M  V30 832 H 72.97 5.279 -2.8538 0
M  V30 833 H 74.04 3.86726 -2.92525 0
M  V30 834 N 75.3831 0.828654 1.34056 0
M  V30 835 C 76.3301 0.252567 2.29414 0
M  V30 836 C 77.3001 -0.62588 1.53857 0
M  V30 837 O 78.4851 -0.566312 1.82202 0
M  V30 838 C 75.6251 -0.574831 3.40279 0
M  V30 839 C 74.7381 0.326499 4.30764 0
M  V30 840 C 73.8731 -0.511016 5.28736 0
M  V30 841 C 72.9121 0.389342 6.1086 0
M  V30 842 N 72.0491 -0.409439 7.00905 0
M  V30 843 H 76.8891 1.07108 2.78086 0
M  V30 844 H 74.4261 0.539677 1.36843 0
M  V30 845 H 76.3841 -1.06992 4.03248 0
M  V30 846 H 75.0141 -1.35841 2.92826 0
M  V30 847 H 74.0661 0.939837 3.68607 0
M  V30 848 H 75.3781 1.01857 4.88289 0
M  V30 849 H 74.5321 -1.07035 5.97184 0
M  V30 850 H 73.2711 -1.23657 4.71763 0
M  V30 851 H 72.2761 0.960769 5.4134 0
M  V30 852 H 73.5011 1.1131 6.69916 0
M  V30 853 H 71.4471 -1.11856 6.46393 0
M  V30 854 H 71.3641 0.224126 7.55668 0
M  V30 855 H 72.6321 -0.951336 7.73673 0
M  V30 856 N 76.8612 -1.46375 0.584142 0
M  V30 857 C 77.8242 -2.28784 -0.138108 0
M  V30 858 C 78.8242 -1.38471 -0.817462 0
M  V30 859 O 80.0142 -1.60833 -0.669199 0
M  V30 860 C 77.1462 -3.18892 -1.20503 0
M  V30 861 H 78.3392 -2.94117 0.586127 0
M  V30 862 H 75.8922 -1.52509 0.342171 0
M  V30 863 H 76.6272 -2.58309 -1.96079 0
M  V30 864 H 76.4122 -3.85388 -0.722384 0
M  V30 865 H 77.9022 -3.80914 -1.71155 0
M  V30 866 N 78.3393 -0.321999 -1.54275 0
M  V30 867 C 79.2693 0.537411 -2.27231 0
M  V30 868 C 80.2503 1.12064 -1.27968 0
M  V30 869 O 81.4353 1.14606 -1.56777 0
M  V30 870 C 78.5653 1.69919 -3.02894 0
M  V30 871 C 77.5193 1.24534 -4.09482 0
M  V30 872 C 76.8453 2.49394 -4.72977 0
M  V30 873 C 78.1453 0.361335 -5.21049 0
M  V30 874 H 79.8393 -0.0711406 -2.99315 0
M  V30 875 H 77.3853 -0.0356555 -1.43956 0
M  V30 876 H 79.3383 2.30668 -3.52662 0
M  V30 877 H 78.0623 2.33431 -2.28424 0
M  V30 878 H 76.7213 0.660782 -3.60596 0
M  V30 879 H 76.3693 3.11265 -3.95124 0
M  V30 880 H 76.0693 2.19718 -5.44975 0
M  V30 881 H 77.5933 3.10908 -5.25517 0
M  V30 882 H 79.0073 0.875072 -5.66582 0
M  V30 883 H 77.4043 0.157428 -5.99893 0
M  V30 884 H 78.4743 -0.60822 -4.8107 0
M  V30 885 N 79.8174 1.5752 -0.0501392 0
M  V30 886 C 80.7494 2.08413 0.95376 0
M  V30 887 C 81.7624 1.01175 1.27544 0
M  V30 888 O 82.9514 1.28744 1.23641 0
M  V30 889 C 80.0514 2.51138 2.27559 0
M  V30 890 C 79.2244 3.817 2.13598 0
M  V30 891 C 78.2834 4.10749 3.28895 0
M  V30 892 O 77.3094 4.80685 3.04845 0
M  V30 893 N 78.5114 3.62579 4.5334 0
M  V30 894 H 81.2764 2.95165 0.519383 0
M  V30 895 H 78.8374 1.61327 0.136127 0
M  V30 896 H 80.8294 2.67648 3.03557 0
M  V30 897 H 79.3994 1.6964 2.62567 0
M  V30 898 H 78.6194 3.74782 1.22197 0
M  V30 899 H 79.9074 4.67201 2.01496 0
M  V30 900 H 79.3054 3.06039 4.75769 0
M  V30 901 H 77.8624 3.84329 5.26436 0
M  V30 902 N 81.2955 -0.223234 1.56011 0
M  V30 903 C 82.7065 -0.790368 1.69145 0
M  V30 904 C 83.0575 -1.85055 0.651845 0
M  V30 905 O 82.1825 -2.15498 -0.197359 0
M  V30 906 C 82.7775 -1.4404 3.06656 0
M  V30 907 C 81.3365 -1.95494 3.2165 0
M  V30 908 C 80.4835 -0.814506 2.65068 0
M  V30 909 H 83.4345 0.00139011 1.587 0
M  V30 910 H 83.4555 -2.30916 3.0242 0
M  V30 911 H 82.9675 -0.668543 3.82298 0
M  V30 912 H 81.0685 -2.75487 2.50874 0
M  V30 913 H 81.1815 -2.13607 4.28846 0
M  V30 914 H 79.5455 -1.22137 2.23505 0
M  V30 915 H 80.3285 -0.0553515 3.43255 0
M  V30 916 N 82.7736 -1.49793 -0.48987 0
M  V30 917 C 84.0226 -1.59085 -1.23995 0
M  V30 918 C 84.3356 -0.287907 -1.9347 0
M  V30 919 O 85.5416 -0.259506 -2.70257 0
M  V30 920 C 83.9976 -2.80736 -2.252 0
M  V30 921 C 83.6056 -4.17833 -1.61614 0
M  V30 922 C 85.3496 -2.99364 -3.00967 0
M  V30 923 C 83.2566 -5.30693 -2.60996 0
M  V30 924 H 82.1866 -0.592372 -0.466488 0
M  V30 925 H 84.8376 -1.76197 -0.51252 0
M  V30 926 H 83.2196 -2.57142 -3.01154 0
M  V30 927 H 84.3936 -4.51608 -0.915774 0
M  V30 928 H 82.7086 -4.04656 -0.981977 0
M  V30 929 H 85.3056 -3.80851 -3.75308 0
M  V30 930 H 85.6486 -2.10356 -3.59244 0
M  V30 931 H 86.1816 -3.2305 -2.32128 0
M  V30 932 H 82.9206 -6.21796 -2.07485 0
M  V30 933 H 82.4406 -5.01359 -3.2924 0
M  V30 934 H 84.1196 -5.6049 -3.23202 0
M  V30 935 N 84.2517 0.741722 -1.39055 0
M  V30 936 C 85.4977 1.50336 -1.36113 0
M  V30 937 C 85.8307 1.94148 0.0450796 0
M  V30 938 O 85.1057 1.66301 1.00868 0
M  V30 939 C 85.3887 2.74773 -2.32749 0
M  V30 940 C 85.2417 2.37023 -3.82283 0
M  V30 941 C 86.5607 3.76846 -2.27322 0
M  V30 942 H 83.6797 0.545351 -0.495743 0
M  V30 943 H 86.3217 0.848624 -1.69995 0
M  V30 944 H 84.4717 3.30639 -2.03986 0
M  V30 945 H 86.1437 1.8684 -4.21768 0
M  V30 946 H 84.3867 1.69334 -3.99385 0
M  V30 947 H 85.0577 3.26104 -4.45376 0
M  V30 948 H 87.5337 3.30548 -2.5274 0
M  V30 949 H 86.4097 4.6159 -2.97028 0
M  V30 950 H 86.6707 4.23286 -1.27599 0
M  V30 951 N 85.7298 1.2412 0.971189 0
M  V30 952 C 86.9548 1.10667 1.75407 0
M  V30 953 C 87.3798 -0.337048 1.85056 0
M  V30 954 O 86.7378 -1.24396 1.31892 0
M  V30 955 C 86.7858 1.74726 3.15441 0
M  V30 956 O 85.8898 1.01566 3.99697 0
M  V30 957 H 85.2308 0.387341 0.539317 0
M  V30 958 H 87.7608 1.64358 1.2185 0
M  V30 959 H 87.7708 1.80341 3.6598 0
M  V30 960 H 86.4458 2.79773 3.07734 0
M  V30 961 H 85.0228 1.03713 3.58187 0
M  V30 962 N 87.2079 -1.17134 1.05439 0
M  V30 963 C 88.1179 -2.24878 0.668365 0
M  V30 964 C 89.1339 -1.71186 -0.311687 0
M  V30 965 O 90.3099 -2.00738 -0.163161 0
M  V30 966 C 87.3749 -3.46662 0.051648 0
M  V30 967 C 86.4359 -4.15429 1.08246 0
M  V30 968 C 85.6689 -5.31399 0.495082 0
M  V30 969 O 85.8919 -5.66153 -0.694743 0
M  V30 970 O 84.8259 -5.89187 1.23056 0
M  V30 971 H 88.6519 -2.60189 1.56637 0
M  V30 972 H 86.2369 -1.24482 0.826104 0
M  V30 973 H 88.1189 -4.20394 -0.290966 0
M  V30 974 H 86.7939 -3.13142 -0.819971 0
M  V30 975 H 85.7009 -3.43704 1.47711 0
M  V30 976 H 87.0339 -4.52982 1.92532 0
M  V30 977 N 88.686 -0.835752 -1.33615 0
M  V30 978 C 89.596 -0.269088 -2.33052 0
M  V30 979 C 90.612 0.603251 -1.63208 0
M  V30 980 O 91.788 0.508112 -1.94885 0
M  V30 981 C 88.853 0.549091 -3.42324 0
M  V30 982 C 87.914 -0.347156 -4.27894 0
M  V30 983 C 87.147 0.43207 -5.31948 0
M  V30 984 O 87.37 1.66409 -5.45586 0
M  V30 985 O 86.304 -0.192298 -6.01593 0
M  V30 986 H 90.13 -1.09243 -2.83372 0
M  V30 987 H 87.715 -0.598198 -1.36901 0
M  V30 988 H 89.597 1.01414 -4.09015 0
M  V30 989 H 88.272 1.34955 -2.94226 0
M  V30 990 H 87.179 -0.859979 -3.64081 0
M  V30 991 H 88.512 -1.1123 -4.79467 0
M  V30 992 N 90.1641 1.46063 -0.591896 0
M  V30 993 C 91.0741 2.34192 0.13831 0
M  V30 994 C 92.0901 1.50305 0.876608 0
M  V30 995 O 93.2661 1.8315 0.837728 0
M  V30 996 C 90.3311 3.27656 1.13326 0
M  V30 997 C 89.3921 4.27445 0.39863 0
M  V30 998 C 88.6251 5.16443 1.34618 0
M  V30 999 O 88.8481 5.08553 2.58321 0
M  V30 1000 O 87.7821 5.95843 0.851768 0
M  V30 1001 H 91.6081 2.98002 -0.58552 0
M  V30 1002 H 89.1931 1.45188 -0.352239 0
M  V30 1003 H 91.0751 3.85291 1.70671 0
M  V30 1004 H 89.7501 2.6643 1.83839 0
M  V30 1005 H 88.6571 3.73471 -0.216895 0
M  V30 1006 H 89.9901 4.91482 -0.265709 0
M  V30 1007 N 91.6422 0.330177 1.54103 0
M  V30 1008 C 92.8882 -0.263542 2.01685 0
M  V30 1009 C 93.2432 -1.49258 1.21408 0
M  V30 1010 O 92.5362 -1.89395 0.289852 0
M  V30 1011 C 92.7302 -0.643134 3.51566 0
M  V30 1012 C 92.5592 0.547571 4.46354 0
M  V30 1013 C 91.3292 1.04873 4.94297 0
M  V30 1014 C 93.5272 1.40184 4.94826 0
M  V30 1015 N 91.5092 2.20316 5.73005 0
M  V30 1016 C 92.8802 2.40335 5.71524 0
M  V30 1017 C 94.9352 1.42884 4.76958 0
M  V30 1018 C 93.6382 3.42998 6.32254 0
M  V30 1019 C 95.6642 2.44421 5.38528 0
M  V30 1020 C 95.0262 3.43298 6.15082 0
M  V30 1021 H 91.1252 -0.0601026 0.779687 0
M  V30 1022 H 93.7092 0.466714 1.89023 0
M  V30 1023 H 91.8802 -1.34251 3.6446 0
M  V30 1024 H 93.6122 -1.21889 3.85908 0
M  V30 1025 H 90.3672 0.618956 4.69538 0
M  V30 1026 H 90.7912 2.78565 6.17034 0
M  V30 1027 H 95.4332 0.678049 4.17328 0
M  V30 1028 H 93.1512 4.1898 6.91 0
M  V30 1029 H 96.7372 2.4732 5.26616 0
M  V30 1030 H 95.6172 4.20579 6.61878 0
M  V30 1031 N 93.1203 -1.57491 0.0584922 0
M  V30 1032 C 94.0833 -2.1085 -0.898617 0
M  V30 1033 C 95.0833 -1.02964 -1.23511 0
M  V30 1034 O 96.2733 -1.29007 -1.17059 0
M  V30 1035 C 93.4053 -2.59881 -2.20623 0
M  V30 1036 H 94.5983 -2.96715 -0.435936 0
M  V30 1037 H 92.1513 -1.55141 -0.190023 0
M  V30 1038 H 92.8863 -1.77431 -2.71457 0
M  V30 1039 H 92.6713 -3.38727 -1.97501 0
M  V30 1040 H 94.1613 -3.01285 -2.89166 0
M  V30 1041 N 94.5984 0.214957 -1.56127 0
M  V30 1042 C 95.5484 1.27006 -1.8935 0
M  V30 1043 C 96.5324 1.41969 -0.757202 0
M  V30 1044 O 97.7244 1.44673 -1.01973 0
M  V30 1045 C 94.8534 2.61911 -2.2194 0
M  V30 1046 C 93.9394 2.50822 -3.41978 0
M  V30 1047 N 94.3304 2.09391 -4.60423 0
M  V30 1048 C 92.6284 2.81765 -3.45723 0
M  V30 1049 C 93.3294 2.09712 -5.42582 0
M  V30 1050 N 92.3054 2.50454 -4.82466 0
M  V30 1051 H 96.1074 0.940734 -2.78437 0
M  V30 1052 H 93.6214 0.423492 -1.56781 0
M  V30 1053 H 95.6184 3.38096 -2.43919 0
M  V30 1054 H 94.2784 2.95684 -1.34169 0
M  V30 1055 H 95.2894 1.80416 -4.85459 0
M  V30 1056 H 91.9664 3.19865 -2.68314 0
M  V30 1057 H 93.3564 1.79748 -6.4741 0
M  V30 1058 N 96.0765 1.50051 0.48192 0
M  V30 1059 C 97.3045 1.64237 1.25832 0
M  V30 1060 C 97.7195 0.321336 1.86045 0
M  V30 1061 O 97.0765 -0.695478 1.68729 0
M  V30 1062 C 97.1275 2.72548 2.37487 0
M  V30 1063 O 96.8485 3.99529 1.79745 0
M  V30 1064 C 98.3495 2.9761 3.28547 0
M  V30 1065 H 95.5695 0.55237 0.380957 0
M  V30 1066 H 98.1135 1.96207 0.576467 0
M  V30 1067 H 96.2685 2.43303 3.01467 0
M  V30 1068 H 96.6825 4.59342 2.5319 0
M  V30 1069 H 98.1565 3.77084 4.03127 0
M  V30 1070 H 98.6335 2.0826 3.86684 0
M  V30 1071 H 99.2395 3.28345 2.70314 0
M  V30 1072 N 97.5546 -0.734337 1.39446 0
M  V30 1073 C 98.5016 -1.84835 1.38219 0
M  V30 1074 C 99.4716 -1.64331 0.24179 0
M  V30 1075 O 100.657 -1.85728 0.437002 0
M  V30 1076 C 97.7966 -3.22355 1.23212 0
M  V30 1077 C 96.9096 -3.5456 2.46801 0
M  V30 1078 C 96.0446 -4.81485 2.24377 0
M  V30 1079 C 95.0836 -5.06536 3.43639 0
M  V30 1080 N 94.2206 -6.24665 3.20528 0
M  V30 1081 H 99.0606 -1.85219 2.33448 0
M  V30 1082 H 96.5976 -0.905039 1.15963 0
M  V30 1083 H 98.5556 -4.0174 1.12522 0
M  V30 1084 H 97.1856 -3.21248 0.316121 0
M  V30 1085 H 96.2376 -2.69872 2.68092 0
M  V30 1086 H 97.5496 -3.6899 3.3563 0
M  V30 1087 H 96.7036 -5.68852 2.10933 0
M  V30 1088 H 95.4426 -4.6923 1.32944 0
M  V30 1089 H 94.4476 -4.17632 3.5758 0
M  V30 1090 H 95.6726 -5.20676 4.35974 0
M  V30 1091 H 93.6186 -6.13696 2.3176 0
M  V30 1092 H 93.5356 -6.39685 4.02913 0
M  V30 1093 H 94.8036 -7.14868 3.10779 0
M  V30 1094 N 99.0327 -1.24633 -0.964593 0
M  V30 1095 C 99.9647 -0.999302 -2.06268 0
M  V30 1096 C 100.978 0.0323226 -1.62768 0
M  V30 1097 O 102.167 -0.205079 -1.77318 0
M  V30 1098 C 99.2667 -0.486816 -3.35385 0
M  V30 1099 C 98.4397 -1.5823 -4.07777 0
M  V30 1100 C 97.4987 -1.07191 -5.15166 0
M  V30 1101 O 96.5247 -1.76426 -5.41168 0
M  V30 1102 N 97.7267 0.0920373 -5.80427 0
M  V30 1103 H 100.492 -1.94477 -2.28033 0
M  V30 1104 H 98.0527 -1.15704 -1.13244 0
M  V30 1105 H 100.045 -0.130066 -4.04491 0
M  V30 1106 H 98.6147 0.364459 -3.10468 0
M  V30 1107 H 97.8347 -2.11109 -3.32906 0
M  V30 1108 H 99.1227 -2.31854 -4.52903 0
M  V30 1109 H 98.5207 0.670784 -5.61709 0
M  V30 1110 H 97.0777 0.389905 -6.50633 0
M  V30 1111 N 100.511 1.16574 -1.06058 0
M  V30 1112 C 101.441 2.23057 -0.690488 0
M  V30 1113 C 102.422 1.67141 0.315901 0
M  V30 1114 O 103.607 1.93253 0.191556 0
M  V30 1115 C 100.737 3.47222 -0.073625 0
M  V30 1116 C 99.6908 4.16016 -1.00573 0
M  V30 1117 C 99.0168 5.34104 -0.252289 0
M  V30 1118 C 100.317 4.67264 -2.33371 0
M  V30 1119 H 102.011 2.54271 -1.58072 0
M  V30 1120 H 99.5568 1.22218 -0.76149 0
M  V30 1121 H 101.51 4.20939 0.19714 0
M  V30 1122 H 100.234 3.15302 0.85161 0
M  V30 1123 H 98.8928 3.44223 -1.2612 0
M  V30 1124 H 98.5408 4.98437 0.675988 0
M  V30 1125 H 98.2408 5.81072 -0.873455 0
M  V30 1126 H 99.7648 6.10599 0.0109857 0
M  V30 1127 H 101.179 5.32573 -2.12223 0
M  V30 1128 H 99.5758 5.24843 -2.90963 0
M  V30 1129 H 100.646 3.83602 -2.96611 0
M  V30 1130 N 101.989 0.842826 1.3317 0
M  V30 1131 C 103.235 0.441099 1.97945 0
M  V30 1132 C 103.568 -0.998024 1.66593 0
M  V30 1133 O 102.843 -1.69839 0.947898 0
M  V30 1134 C 103.126 0.666841 3.53872 0
M  V30 1135 C 102.979 2.15352 3.94897 0
M  V30 1136 C 104.298 0.115544 4.39948 0
M  V30 1137 H 101.417 0.161739 0.719034 0
M  V30 1138 H 104.059 1.05907 1.57746 0
M  V30 1139 H 102.209 0.140828 3.88245 0
M  V30 1140 H 103.881 2.7447 3.70761 0
M  V30 1141 H 102.124 2.63653 3.44484 0
M  V30 1142 H 102.795 2.26221 5.03516 0
M  V30 1143 H 105.271 0.565213 4.12243 0
M  V30 1144 H 104.147 0.303152 5.48062 0
M  V30 1145 H 104.408 -0.980935 4.3108 0
M  V30 1146 N 103.467 -1.45747 0.599634 0
M  V30 1147 C 104.744 -1.95585 0.0240846 0
M  V30 1148 C 105.124 -1.54217 -1.44154 0
M  V30 1149 O 104.472 -0.800903 -2.14004 0
M  V30 1150 C 104.682 -3.48344 0.21385 0
M  V30 1151 C 106.03 -4.24504 0.0904902 0
M  V30 1152 O 107.054 -3.55911 0.143558 0
M  V30 1153 O 105.913 -5.46491 -0.0310766 0
M  V30 1154 H 103.007 -0.82602 -0.0402478 0
M  V30 1155 H 105.553 -1.55951 0.669139 0
M  V30 1156 H 104.325 -3.71397 1.23206 0
M  V30 1157 H 103.948 -3.9485 -0.466842 0
M  V30 1158 N 104.945 -0.338344 -1.53925 0
M  V30 1159 C 105.855 0.529421 -2.28548 0
M  V30 1160 C 106.871 1.11645 -1.3346 0
M  V30 1161 O 108.047 1.13325 -1.66492 0
M  V30 1162 C 105.112 1.66713 -3.03987 0
M  V30 1163 C 104.173 1.11041 -4.14691 0
M  V30 1164 C 103.406 2.19389 -4.86522 0
M  V30 1165 O 103.629 3.40013 -4.57982 0
M  V30 1166 O 102.563 1.83976 -5.73094 0
M  V30 1167 H 106.389 -0.0770399 -3.03602 0
M  V30 1168 H 103.974 -0.103555 -1.49041 0
M  V30 1169 H 105.856 2.32918 -3.5118 0
M  V30 1170 H 104.531 2.25949 -2.31794 0
M  V30 1171 H 103.438 0.413024 -3.71813 0
M  V30 1172 H 104.771 0.562975 -4.8897 0
M  V30 1173 N 106.423 1.57458 -0.0668435 0
M  V30 1174 C 107.67 1.93301 0.603406 0
M  V30 1175 C 107.998 0.946486 1.69917 0
M  V30 1176 O 107.253 -0.0387021 1.95662 0
M  V30 1177 C 107.552 3.35784 1.22409 0
M  V30 1178 C 107.218 4.50179 0.254955 0
M  V30 1179 C 105.88 4.81199 -0.0116746 0
M  V30 1180 C 108.232 5.19598 -0.408338 0
M  V30 1181 C 105.56 5.78978 -0.94877 0
M  V30 1182 C 107.912 6.18381 -1.33372 0
M  V30 1183 C 106.576 6.47821 -1.60887 0
M  V30 1184 H 105.846 0.707338 0.220802 0
M  V30 1185 H 108.493 1.91012 -0.136665 0
M  V30 1186 H 106.798 3.34515 2.03978 0
M  V30 1187 H 108.495 3.60804 1.74989 0
M  V30 1188 H 105.085 4.25983 0.472954 0
M  V30 1189 H 109.269 4.95832 -0.215456 0
M  V30 1190 H 104.525 6.00115 -1.16925 0
M  V30 1191 H 108.699 6.71277 -1.85367 0
M  V30 1192 H 106.326 7.23399 -2.33661 0
M  V30 1193 N 107.901 -0.206675 1.56239 0
M  V30 1194 C 108.833 -1.27997 1.9013 0
M  V30 1195 C 109.846 -1.42299 0.790883 0
M  V30 1196 O 111.035 -1.42931 1.06925 0
M  V30 1197 C 108.135 -2.65368 2.10792 0
M  V30 1198 C 107.308 -2.72824 3.41886 0
M  V30 1199 C 106.367 -3.9131 3.51799 0
M  V30 1200 O 105.393 -3.78953 4.24716 0
M  V30 1201 N 106.595 -5.06265 2.84035 0
M  V30 1202 H 109.36 -0.992444 2.82791 0
M  V30 1203 H 106.921 -0.396652 1.56966 0
M  V30 1204 H 108.913 -3.43039 2.14724 0
M  V30 1205 H 107.483 -2.86657 1.24685 0
M  V30 1206 H 106.703 -1.81515 3.49923 0
M  V30 1207 H 107.991 -2.74786 4.28217 0
M  V30 1208 H 107.389 -5.19203 2.246 0
M  V30 1209 H 105.946 -5.81925 2.93609 0
M  V30 1210 N 109.379 -1.50304 -0.473955 0
M  V30 1211 C 110.342 -1.6841 -1.55469 0
M  V30 1212 C 111.342 -0.554905 -1.50922 0
M  V30 1213 O 112.532 -0.821882 -1.53593 0
M  V30 1214 C 109.664 -1.70667 -2.95102 0
M  V30 1215 H 110.857 -2.64828 -1.40733 0
M  V30 1216 H 108.41 -1.39742 -0.700132 0
M  V30 1217 H 109.145 -0.75932 -3.15285 0
M  V30 1218 H 108.93 -2.52698 -2.9981 0
M  V30 1219 H 110.42 -1.8664 -3.73571 0
M  V30 1220 N 110.857 0.726932 -1.39834 0
M  V30 1221 C 112.082 1.52121 -1.40976 0
M  V30 1222 C 112.507 1.88098 -0.00826029 0
M  V30 1223 O 111.865 1.52479 0.980807 0
M  V30 1224 C 111.913 2.78021 -2.29644 0
M  V30 1225 O 111.017 3.74272 -1.73188 0
M  V30 1226 H 110.358 0.45908 -0.479731 0
M  V30 1227 H 112.888 0.896207 -1.83927 0
M  V30 1228 H 112.898 3.26671 -2.44438 0
M  V30 1229 H 111.573 2.51169 -3.31492 0
M  V30 1230 H 110.15 3.33073 -1.6768 0
M  V30 1231 N 112.336 1.25143 0.95797 0
M  V30 1232 C 113.584 1.09476 1.69881 0
M  V30 1233 C 113.905 -0.365502 1.91544 0
M  V30 1234 O 113.175 -1.25985 1.50015 0
M  V30 1235 H 111.755 0.402128 0.629525 0
M  V30 1236 H 114.417 1.57214 1.15194 0
M  V30 1237 H 113.513 1.60046 2.6794 0
M  V30 1238 N 113.814 -1.1601 1.06675 0
M  V30 1239 C 115.062 -1.86264 0.784229 0
M  V30 1240 C 115.383 -1.82328 -0.691488 0
M  V30 1241 O 114.653 -1.25947 -1.50047 0
M  V30 1242 H 113.233 -0.689621 0.28711 0
M  V30 1243 H 115.895 -1.40664 1.34906 0
M  V30 1244 H 114.991 -2.91595 1.11259 0
M  V30 1245 N 115.292 -0.849877 -1.32721 0
M  V30 1246 C 116.538 -0.451591 -1.97708 0
M  V30 1247 C 116.871 0.989175 -1.6712 0
M  V30 1248 O 116.146 1.69334 -0.956891 0
M  V30 1249 C 116.429 -0.685598 -3.53513 0
M  V30 1250 C 116.282 -2.17444 -3.93749 0
M  V30 1251 C 117.601 -0.138874 -4.39881 0
M  V30 1252 H 114.72 -0.16555 -0.718166 0
M  V30 1253 H 117.362 -1.06742 -1.57182 0
M  V30 1254 H 115.512 -0.161416 -3.88165 0
M  V30 1255 H 117.184 -2.76433 -3.693 0
M  V30 1256 H 115.427 -2.65476 -3.43081 0
M  V30 1257 H 116.098 -2.28888 -5.02309 0
M  V30 1258 H 118.574 -0.587068 -4.11938 0
M  V30 1259 H 117.45 -0.332213 -5.47894 0
M  V30 1260 H 117.711 0.95806 -4.31594 0
M  V30 1261 N 116.77 1.45427 -0.607355 0
M  V30 1262 C 118.018 2.01841 -0.102253 0
M  V30 1263 C 118.339 1.47832 1.27164 0
M  V30 1264 O 117.609 0.672497 1.83995 0
M  V30 1265 H 116.189 0.746188 -0.0348101 0
M  V30 1266 H 118.851 1.78229 -0.7887 0
M  V30 1267 H 117.947 3.12057 -0.0518585 0
M  V30 1268 N 118.248 0.346503 1.53744 0
M  V30 1269 C 119.158 -0.517293 2.28826 0
M  V30 1270 C 120.174 -1.10935 1.3405 0
M  V30 1271 O 121.35 -1.1244 1.6709 0
M  V30 1272 C 118.415 -1.65098 3.04866 0
M  V30 1273 C 117.476 -1.0884 4.15274 0
M  V30 1274 C 116.709 -2.16806 4.87679 0
M  V30 1275 O 116.932 -3.3758 4.59778 0
M  V30 1276 O 115.866 -1.80934 5.74061 0
M  V30 1277 H 119.692 0.0931396 3.03557 0
M  V30 1278 H 117.277 0.111458 1.48984 0
M  V30 1279 H 119.159 -2.31053 3.5241 0
M  V30 1280 H 117.834 -2.24717 2.32989 0
M  V30 1281 H 116.741 -0.3933 3.72027 0
M  V30 1282 H 118.074 -0.537036 4.89261 0
M  V30 1283 N 119.726 -1.57421 0.075193 0
M  V30 1284 C 121.142 -1.57099 -0.281444 0
M  V30 1285 C 121.342 -1.08486 -1.69803 0
M  V30 1286 O 120.398 -0.752279 -2.41033 0
M  V30 1287 C 121.711 -3.00571 -0.0880041 0
M  V30 1288 C 123.259 -3.12605 -0.157281 0
M  V30 1289 C 123.734 -4.57999 0.0079207 0
M  V30 1290 N 125.225 -4.63176 -0.0475725 0
M  V30 1291 C 125.96 -5.73373 0.0557876 0
M  V30 1292 N 125.456 -6.92473 0.21286 0
M  V30 1293 N 127.249 -5.621 -0.00152098 0
M  V30 1294 H 119.4 -1.87335 1.00098 0
M  V30 1295 H 121.663 -0.86377 0.390646 0
M  V30 1296 H 121.369 -3.40262 0.889629 0
M  V30 1297 H 121.243 -3.67754 -0.838875 0
M  V30 1298 H 123.63 -2.72798 -1.1254 0
M  V30 1299 H 123.711 -2.48053 0.62475 0
M  V30 1300 H 123.355 -4.98496 0.972824 0
M  V30 1301 H 123.285 -5.20586 -0.793556 0
M  V30 1302 H 125.776 -3.7753 -0.167244 0
M  V30 1303 H 126.089 -7.72279 0.283781 0
M  V30 1304 H 124.434 -6.94556 0.248267 0
M  V30 1305 H 127.625 -4.67938 -0.122958 0
M  V30 1306 H 127.798 -6.47948 0.0824844 0
M  V30 1307 N 121.204 0.198386 -1.56346 0
M  V30 1308 C 122.134 1.24865 -1.9731 0
M  V30 1309 C 123.115 1.47651 -0.844576 0
M  V30 1310 O 124.3 1.59444 -1.10866 0
M  V30 1311 C 121.43 2.59358 -2.30977 0
M  V30 1312 C 120.384 2.5119 -3.46537 0
M  V30 1313 C 119.71 3.89926 -3.65871 0
M  V30 1314 C 121.01 2.03977 -4.80823 0
M  V30 1315 H 122.704 0.908252 -2.85291 0
M  V30 1316 H 120.25 0.435462 -1.37258 0
M  V30 1317 H 122.203 3.33011 -2.58228 0
M  V30 1318 H 120.927 2.95132 -1.39874 0
M  V30 1319 H 119.586 1.79993 -3.19371 0
M  V30 1320 H 119.234 4.23046 -2.72105 0
M  V30 1321 H 118.934 3.85336 -4.4361 0
M  V30 1322 H 120.458 4.65205 -3.95495 0
M  V30 1323 H 121.872 2.67386 -5.07127 0
M  V30 1324 H 120.269 2.10397 -5.62008 0
M  V30 1325 H 121.339 0.992861 -4.74626 0
M  V30 1326 N 122.682 1.50554 0.465978 0
M  V30 1327 C 123.614 1.65949 1.58093 0
M  V30 1328 C 124.627 0.540827 1.53554 0
M  V30 1329 O 125.816 0.814187 1.5885 0
M  V30 1330 C 122.916 1.63261 2.96983 0
M  V30 1331 C 122.089 2.91245 3.26336 0
M  V30 1332 C 121.148 2.8113 4.44806 0
M  V30 1333 O 120.174 3.55086 4.44862 0
M  V30 1334 N 121.376 1.95032 5.46756 0
M  V30 1335 H 124.141 2.62122 1.45301 0
M  V30 1336 H 121.702 1.48082 0.65448 0
M  V30 1337 H 123.694 1.54101 3.74212 0
M  V30 1338 H 122.264 0.748032 3.03518 0
M  V30 1339 H 121.484 3.14493 2.37672 0
M  V30 1340 H 122.772 3.76022 3.42761 0
M  V30 1341 H 122.17 1.3427 5.49534 0
M  V30 1342 H 120.727 1.91772 6.2295 0
M  V30 1343 N 124.16 -0.719506 1.40217 0
M  V30 1344 C 125.107 -1.83359 1.40172 0
M  V30 1345 C 126.077 -1.64065 0.259206 0
M  V30 1346 O 127.262 -1.85254 0.456677 0
M  V30 1347 C 124.402 -3.2103 1.26624 0
M  V30 1348 C 123.515 -3.51923 2.50548 0
M  V30 1349 C 122.65 -4.79079 2.29471 0
M  V30 1350 C 121.689 -5.02863 3.48992 0
M  V30 1351 N 120.826 -6.2123 3.27135 0
M  V30 1352 H 125.666 -1.82733 2.35399 0
M  V30 1353 H 123.203 -0.892688 1.16917 0
M  V30 1354 H 125.161 -4.00524 1.16776 0
M  V30 1355 H 123.791 -3.20895 0.350176 0
M  V30 1356 H 122.843 -2.67014 2.70939 0
M  V30 1357 H 124.155 -3.6541 3.39525 0
M  V30 1358 H 123.309 -5.66582 2.16955 0
M  V30 1359 H 122.048 -4.67794 1.37913 0
M  V30 1360 H 121.053 -4.13816 3.6199 0
M  V30 1361 H 122.278 -5.16023 4.41472 0
M  V30 1362 H 120.224 -6.11204 2.38256 0
M  V30 1363 H 120.141 -6.35375 4.09675 0
M  V30 1364 H 121.409 -7.11532 3.18344 0
M  V30 1365 N 125.638 -1.25649 -0.95132 0
M  V30 1366 C 126.886 -1.10375 -1.69298 0
M  V30 1367 C 127.207 0.355339 -1.91735 0
M  V30 1368 O 126.477 1.25188 -1.50681 0
M  V30 1369 H 125.057 -0.405461 -0.627384 0
M  V30 1370 H 127.719 -1.57823 -1.14358 0
M  V30 1371 H 126.815 -1.61465 -2.67087 0
M  V30 1372 N 127.117 1.15442 -1.07289 0
M  V30 1373 C 128.047 2.22312 -0.714107 0
M  V30 1374 C 129.028 1.67467 0.298155 0
M  V30 1375 O 130.213 1.93445 0.171048 0
M  V30 1376 C 127.343 3.47124 -0.110448 0
M  V30 1377 C 126.297 4.14926 -1.04979 0
M  V30 1378 C 125.623 5.33807 -0.308924 0
M  V30 1379 C 126.923 4.64762 -2.38314 0
M  V30 1380 H 128.617 2.5258 -1.6076 0
M  V30 1381 H 126.163 1.21404 -0.77441 0
M  V30 1382 H 128.116 4.21124 0.152482 0
M  V30 1383 H 126.84 3.16187 0.81812 0
M  V30 1384 H 125.499 3.42866 -1.29764 0
M  V30 1385 H 125.147 4.99126 0.623084 0
M  V30 1386 H 124.847 5.80113 -0.935036 0
M  V30 1387 H 126.371 6.10576 -0.0537771 0
M  V30 1388 H 127.785 5.30292 -2.1786 0
M  V30 1389 H 126.182 5.21728 -2.96514 0
M  V30 1390 H 127.252 3.80434 -3.00663 0
M  V30 1391 N 128.595 0.856903 1.32268 0
M  V30 1392 C 129.505 0.306131 2.32594 0
M  V30 1393 C 130.521 -0.577209 1.64147 0
M  V30 1394 O 131.697 -0.477043 1.95669 0
M  V30 1395 C 128.762 -0.494561 3.43154 0
M  V30 1396 C 127.823 0.415186 4.27288 0
M  V30 1397 C 127.056 -0.347387 5.32568 0
M  V30 1398 O 127.279 -1.57708 5.48165 0
M  V30 1399 O 126.213 0.287982 6.01211 0
M  V30 1400 H 130.039 1.13737 2.81598 0
M  V30 1401 H 127.624 0.619902 1.35932 0
M  V30 1402 H 129.506 -0.948944 4.10576 0
M  V30 1403 H 128.181 -1.30257 2.96336 0
M  V30 1404 H 127.088 0.917793 3.62667 0
M  V30 1405 H 128.421 1.18844 4.77637 0
M  V30 1406 N 130.073 -1.45103 0.615059 0
M  V30 1407 C 131.489 -1.57137 0.279322 0
M  V30 1408 C 131.689 -1.60523 -1.21797 0
M  V30 1409 O 130.745 -1.53956 -2.00134 0
M  V30 1410 C 132.058 -2.85062 0.957083 0
M  V30 1411 C 133.606 -2.98749 0.933706 0
M  V30 1412 C 134.081 -4.29455 1.59162 0
M  V30 1413 N 135.572 -4.36231 1.55746 0
M  V30 1414 C 136.307 -5.36051 2.0356 0
M  V30 1415 N 135.803 -6.42367 2.59494 0
M  V30 1416 N 137.596 -5.27456 1.94284 0
M  V30 1417 H 129.747 -1.41148 1.58717 0
M  V30 1418 H 132.01 -0.675331 0.665306 0
M  V30 1419 H 131.716 -2.88488 2.01166 0
M  V30 1420 H 131.59 -3.7407 0.48494 0
M  V30 1421 H 133.977 -2.94886 -0.112347 0
M  V30 1422 H 134.058 -2.11132 1.44419 0
M  V30 1423 H 133.702 -4.34077 2.63704 0
M  V30 1424 H 133.632 -5.15901 1.0561 0
M  V30 1425 H 136.123 -3.60011 1.14893 0
M  V30 1426 H 136.436 -7.14793 2.93752 0
M  V30 1427 H 134.781 -6.43097 2.63537 0
M  V30 1428 H 137.972 -4.43308 1.5032 0
M  V30 1429 H 138.145 -6.05099 2.3186 0
M  V30 1430 N 131.551 -0.354651 -1.53558 0
M  V30 1431 C 132.967 -0.00315426 -1.596 0
M  V30 1432 C 133.167 1.47741 -1.37021 0
M  V30 1433 O 132.223 2.23759 -1.16996 0
M  V30 1434 C 133.536 -0.44929 -2.97325 0
M  V30 1435 C 135.084 -0.402578 -3.104 0
M  V30 1436 C 135.559 -0.824355 -4.5052 0
M  V30 1437 N 137.05 -0.778979 -4.56603 0
M  V30 1438 C 137.785 -1.07715 -5.63192 0
M  V30 1439 N 137.281 -1.44405 -6.77583 0
M  V30 1440 N 139.074 -1.00066 -5.53121 0
M  V30 1441 H 131.225 -1.31893 -1.66487 0
M  V30 1442 H 133.488 -0.538388 -0.780284 0
M  V30 1443 H 133.194 -1.48202 -3.1895 0
M  V30 1444 H 133.068 0.169772 -3.76818 0
M  V30 1445 H 135.455 0.621004 -2.88492 0
M  V30 1446 H 135.536 -1.05699 -2.32941 0
M  V30 1447 H 135.18 -1.846 -4.73165 0
M  V30 1448 H 135.11 -0.147304 -5.26394 0
M  V30 1449 H 137.601 -0.508528 -3.74463 0
M  V30 1450 H 137.914 -1.65612 -7.54846 0
M  V30 1451 H 136.259 -1.4826 -6.79002 0
M  V30 1452 H 139.45 -0.713293 -4.62633 0
M  V30 1453 H 139.623 -1.23638 -6.36096 0
M  V30 1454 N 133.029 1.57378 -0.0835403 0
M  V30 1455 C 133.992 2.12252 0.864959 0
M  V30 1456 C 134.992 1.04916 1.21858 0
M  V30 1457 O 136.182 1.30853 1.14991 0
M  V30 1458 C 133.314 2.63358 2.16461 0
M  V30 1459 H 134.507 2.97371 0.388676 0
M  V30 1460 H 132.06 1.55423 0.165317 0
M  V30 1461 H 132.795 1.81727 2.686 0
M  V30 1462 H 132.58 3.41826 1.92087 0
M  V30 1463 H 134.07 3.05847 2.84337 0
M  V30 1464 N 134.507 -0.190092 1.56449 0
M  V30 1465 C 135.923 -0.54113 1.50146 0
M  V30 1466 C 136.123 -1.85603 0.784465 0
M  V30 1467 O 135.179 -2.5024 0.337051 0
M  V30 1468 C 136.492 -0.591241 2.9483 0
M  V30 1469 C 138.04 -0.679732 3.0553 0
M  V30 1470 C 138.515 -0.760908 4.51635 0
M  V30 1471 N 140.006 -0.824302 4.55806 0
M  V30 1472 C 140.741 -0.907365 5.66175 0
M  V30 1473 N 140.237 -0.952422 6.86222 0
M  V30 1474 N 142.03 -0.94494 5.541 0
M  V30 1475 H 134.181 0.67235 2.01478 0
M  V30 1476 H 136.444 0.240127 0.917084 0
M  V30 1477 H 136.15 0.305905 3.50367 0
M  V30 1478 H 136.024 -1.44422 3.48457 0
M  V30 1479 H 138.411 -1.56731 2.50039 0
M  V30 1480 H 138.492 0.199549 2.5502 0
M  V30 1481 H 138.136 0.122336 5.07753 0
M  V30 1482 H 138.066 -1.65606 4.99882 0
M  V30 1483 H 140.557 -0.798526 3.69367 0
M  V30 1484 H 140.87 -1.01645 7.66086 0
M  V30 1485 H 139.215 -0.921014 6.8887 0
M  V30 1486 H 142.406 -0.906612 4.59236 0
M  V30 1487 H 142.579 -1.00622 6.4014 0
M  V30 1488 N 135.985 -1.50799 -0.457987 0
M  V30 1489 C 136.932 -1.70617 -1.5543 0
M  V30 1490 C 137.902 -0.547562 -1.56815 0
M  V30 1491 O 139.087 -0.779647 -1.74144 0
M  V30 1492 C 136.227 -1.81831 -2.93311 0
M  V30 1493 C 135.34 -3.09278 -3.01615 0
M  V30 1494 C 134.475 -3.11209 -4.30491 0
M  V30 1495 C 133.514 -4.33055 -4.32585 0
M  V30 1496 N 132.651 -4.32652 -5.52952 0
M  V30 1497 H 137.491 -2.64207 -1.37836 0
M  V30 1498 H 135.028 -1.30959 -0.669937 0
M  V30 1499 H 136.986 -1.86314 -3.73287 0
M  V30 1500 H 135.616 -0.916685 -3.0951 0
M  V30 1501 H 134.668 -3.14203 -2.1443 0
M  V30 1502 H 135.98 -3.99233 -2.99022 0
M  V30 1503 H 135.134 -3.14494 -5.18824 0
M  V30 1504 H 133.873 -2.19106 -4.35711 0
M  V30 1505 H 132.878 -4.29969 -3.42647 0
M  V30 1506 H 134.103 -5.264 -4.29046 0
M  V30 1507 H 132.049 -3.43409 -5.58933 0
M  V30 1508 H 131.966 -5.16392 -5.52155 0
M  V30 1509 H 133.234 -4.40101 -6.43375 0
M  V30 1510 N 137.463 0.71206 -1.40597 0
M  V30 1511 C 138.691 1.50111 -1.42388 0
M  V30 1512 C 139.106 1.88784 -0.0245395 0
M  V30 1513 O 138.463 1.55681 0.952351 0
M  V30 1514 C 138.514 2.7742 -2.31776 0
M  V30 1515 O 138.235 2.40382 -3.66262 0
M  V30 1516 C 139.736 3.7129 -2.42196 0
M  V30 1517 H 136.956 0.46314 -0.485533 0
M  V30 1518 H 139.5 0.878068 -1.8469 0
M  V30 1519 H 137.655 3.36001 -1.92827 0
M  V30 1520 H 138.069 3.22324 -4.13772 0
M  V30 1521 H 139.543 4.57448 -3.08943 0
M  V30 1522 H 140.02 4.14641 -1.44809 0
M  V30 1523 H 140.626 3.18619 -2.81712 0
M  V30 1524 N 138.941 1.26152 0.944643 0
M  V30 1525 C 139.851 1.09176 2.07648 0
M  V30 1526 C 140.867 0.0261935 1.7398 0
M  V30 1527 O 142.043 0.229208 2.00091 0
M  V30 1528 C 139.108 0.722915 3.39079 0
M  V30 1529 C 138.169 1.86752 3.86552 0
M  V30 1530 C 137.402 1.51617 5.11711 0
M  V30 1531 O 137.625 0.416331 5.68879 0
M  V30 1532 O 136.559 2.34975 5.54139 0
M  V30 1533 H 140.385 2.0412 2.24875 0
M  V30 1534 H 137.97 1.05182 1.061 0
M  V30 1535 H 139.852 0.529787 4.18056 0
M  V30 1536 H 138.527 -0.197159 3.23099 0
M  V30 1537 H 137.434 2.11558 3.08535 0
M  V30 1538 H 138.767 2.76719 4.07047 0
M  V30 1539 N 140.419 -1.14872 1.07899 0
M  V30 1540 C 141.367 -2.21857 0.698727 0
M  V30 1541 C 142.361 -1.66845 -0.293086 0
M  V30 1542 O 143.567 -1.79321 -0.156204 0
M  V30 1543 H 139.942 -0.722691 0.207899 0
M  V30 1544 H 141.913 -2.51205 1.61054 0
M  V30 1545 C 140.662 -3.47498 0.11858 0
M  V30 1546 H 139.985 -3.90154 0.872914 0
M  V30 1547 H 141.425 -4.23858 -0.109759 0
M  V30 1548 C 139.884 -3.16947 -1.1422 0
M  V30 1549 O 140.414 -3.3426 -2.22785 0
M  V30 1550 N 138.62 -2.70946 -1.05055 0
M  V30 1551 H 138.167 -2.57058 -0.167038 0
M  V30 1552 H 138.125 -2.50879 -1.89491 0
M  V30 1553 N 141.898 -0.863906 -1.31812 0
M  V30 1554 C 143.144 -0.481841 -1.9761 0
M  V30 1555 C 143.499 0.954048 -1.6708 0
M  V30 1556 O 142.792 1.66182 -0.953624 0
M  V30 1557 C 142.986 -0.668547 -3.51091 0
M  V30 1558 C 142.815 -2.12103 -3.96538 0
M  V30 1559 C 141.585 -2.76141 -4.23171 0
M  V30 1560 C 143.783 -3.09265 -4.10925 0
M  V30 1561 N 141.765 -4.12205 -4.54929 0
M  V30 1562 C 143.136 -4.30341 -4.46326 0
M  V30 1563 C 145.191 -3.05337 -3.93286 0
M  V30 1564 C 143.894 -5.48 -4.65928 0
M  V30 1565 C 145.92 -4.22248 -4.14078 0
M  V30 1566 C 145.282 -5.42085 -4.49804 0
M  V30 1567 H 141.381 -0.225238 -0.74886 0
M  V30 1568 H 143.965 -1.11723 -1.59455 0
M  V30 1569 H 142.136 -0.0627898 -3.88349 0
M  V30 1570 H 143.868 -0.255467 -4.03893 0
M  V30 1571 H 140.623 -2.27125 -4.15585 0
M  V30 1572 H 141.047 -4.82416 -4.74978 0
M  V30 1573 H 145.689 -2.138 -3.64759 0
M  V30 1574 H 143.407 -6.40059 -4.93305 0
M  V30 1575 H 146.993 -4.20654 -4.01922 0
M  V30 1576 H 145.873 -6.31044 -4.65567 0
M  V30 1577 N 143.376 1.44774 -0.622745 0
M  V30 1578 C 144.306 2.33382 0.0741861 0
M  V30 1579 C 145.287 1.47719 0.843387 0
M  V30 1580 O 146.472 1.76458 0.810934 0
M  V30 1581 C 143.602 3.30663 1.06204 0
M  V30 1582 C 142.556 4.26079 0.405037 0
M  V30 1583 C 141.882 5.13165 1.5022 0
M  V30 1584 C 143.182 5.1781 -0.683414 0
M  V30 1585 H 144.876 2.91905 -0.665713 0
M  V30 1586 H 142.422 1.40363 -0.321587 0
M  V30 1587 H 144.375 3.9153 1.55827 0
M  V30 1588 H 143.099 2.70331 1.83272 0
M  V30 1589 H 141.758 3.66532 -0.0704683 0
M  V30 1590 H 141.406 4.49191 2.26355 0
M  V30 1591 H 141.106 5.77812 1.06803 0
M  V30 1592 H 142.63 5.76902 2.00041 0
M  V30 1593 H 144.044 5.72661 -0.270631 0
M  V30 1594 H 142.441 5.91015 -1.04023 0
M  V30 1595 H 143.511 4.59326 -1.55395 0
M  V30 1596 N 144.854 0.36279 1.53368 0
M  V30 1597 C 146.079 -0.231226 2.06107 0
M  V30 1598 C 146.504 -1.419 1.23474 0
M  V30 1599 O 145.862 -1.79524 0.253128 0
M  V30 1600 C 145.91 -0.605523 3.5548 0
M  V30 1601 O 145.014 -1.70312 3.7559 0
M  V30 1602 H 144.355 -0.034327 0.663112 0
M  V30 1603 H 146.885 0.522584 1.97814 0
M  V30 1604 H 146.895 -0.877314 3.98456 0
M  V30 1605 H 145.57 0.263004 4.15068 0
M  V30 1606 H 144.147 -1.4271 3.44512 0
M  V30 1607 N 146.332 -1.57332 0.0918853 0
M  V30 1608 C 147.242 -2.17368 -0.882505 0
M  V30 1609 C 148.258 -1.14226 -1.31257 0
M  V30 1610 O 149.434 -1.46582 -1.38115 0
M  V30 1611 C 146.499 -2.73962 -2.12476 0
M  V30 1612 C 145.56 -3.92048 -1.7492 0
M  V30 1613 C 144.793 -4.45933 -2.93223 0
M  V30 1614 O 145.016 -3.98764 -4.07852 0
M  V30 1615 O 143.95 -5.36999 -2.71875 0
M  V30 1616 H 147.776 -3.01031 -0.40172 0
M  V30 1617 H 145.361 -1.48813 -0.132291 0
M  V30 1618 H 147.243 -3.10147 -2.85283 0
M  V30 1619 H 145.918 -1.93347 -2.59613 0
M  V30 1620 H 144.825 -3.6068 -0.993025 0
M  V30 1621 H 146.158 -4.74017 -1.32548 0
M  V30 1622 N 147.81 0.181792 -1.56548 0
M  V30 1623 C 149.056 0.896803 -1.82562 0
M  V30 1624 C 149.411 1.80324 -0.670908 0
M  V30 1625 O 148.704 1.8868 0.333235 0
M  V30 1626 C 148.898 1.73728 -3.12335 0
M  V30 1627 C 148.727 0.913714 -4.4032 0
M  V30 1628 C 147.497 0.592903 -5.01809 0
M  V30 1629 C 149.695 0.260164 -5.13642 0
M  V30 1630 N 147.677 -0.247901 -6.13399 0
M  V30 1631 C 149.048 -0.442256 -6.18421 0
M  V30 1632 C 151.103 0.177253 -4.97584 0
M  V30 1633 C 149.806 -1.21971 -7.08883 0
M  V30 1634 C 151.832 -0.586839 -5.88481 0
M  V30 1635 C 151.194 -1.27766 -6.92716 0
M  V30 1636 H 147.293 0.307122 -0.719166 0
M  V30 1637 H 149.877 0.164535 -1.94004 0
M  V30 1638 H 148.048 2.44105 -3.02105 0
M  V30 1639 H 149.78 2.39279 -3.26386 0
M  V30 1640 H 146.535 0.920502 -4.64568 0
M  V30 1641 H 146.959 -0.658304 -6.73792 0
M  V30 1642 H 151.601 0.696993 -4.17015 0
M  V30 1643 H 149.319 -1.75083 -7.88905 0
M  V30 1644 H 152.905 -0.652522 -5.78129 0
M  V30 1645 H 151.785 -1.85943 -7.61836 0
M  V30 1646 N 149.288 1.51039 0.449983 0
M  V30 1647 C 150.534 1.64287 1.19923 0
M  V30 1648 C 150.889 0.348701 1.89214 0
M  V30 1649 O 150.182 -0.654751 1.80065 0
M  V30 1650 C 150.376 2.77556 2.25161 0
M  V30 1651 C 150.205 4.17862 1.66198 0
M  V30 1652 C 148.975 4.83976 1.45243 0
M  V30 1653 C 151.173 5.01388 1.14519 0
M  V30 1654 N 149.155 6.08433 0.817437 0
M  V30 1655 C 150.526 6.16743 0.634705 0
M  V30 1656 C 152.581 4.87008 1.03574 0
M  V30 1657 C 151.284 7.19295 0.0255452 0
M  V30 1658 C 153.31 5.89757 0.440489 0
M  V30 1659 C 152.672 7.04375 -0.0595112 0
M  V30 1660 H 148.771 0.655161 0.426952 0
M  V30 1661 H 151.355 1.88228 0.49781 0
M  V30 1662 H 149.526 2.553 2.92706 0
M  V30 1663 H 151.258 2.80049 2.92155 0
M  V30 1664 H 148.013 4.41627 1.71063 0
M  V30 1665 H 148.437 6.75017 0.517747 0
M  V30 1666 H 153.079 3.9866 1.4082 0
M  V30 1667 H 150.797 8.07302 -0.359071 0
M  V30 1668 H 154.383 5.80698 0.35788 0
M  V30 1669 H 153.263 7.82521 -0.512882 0
M  V30 1670 N 150.766 -0.704594 1.40972 0
M  V30 1671 C 151.696 -1.83124 1.44872 0
M  V30 1672 C 152.677 -1.67281 0.30838 0
M  V30 1673 O 153.862 -1.87149 0.518556 0
M  V30 1674 C 150.992 -3.21181 1.32136 0
M  V30 1675 C 149.946 -3.51714 2.43888 0
M  V30 1676 C 149.272 -4.89032 2.16222 0
M  V30 1677 C 150.572 -3.516 3.86232 0
M  V30 1678 H 152.266 -1.80117 2.39161 0
M  V30 1679 H 149.812 -0.865145 1.15114 0
M  V30 1680 H 151.765 -3.99702 1.33479 0
M  V30 1681 H 150.489 -3.24791 0.343279 0
M  V30 1682 H 149.148 -2.75539 2.41813 0
M  V30 1683 H 148.796 -4.89256 1.16778 0
M  V30 1684 H 148.496 -5.10426 2.911 0
M  V30 1685 H 150.02 -5.69873 2.19265 0
M  V30 1686 H 151.434 -4.2014 3.9007 0
M  V30 1687 H 149.831 -3.84523 4.60719 0
M  V30 1688 H 150.901 -2.50757 4.15029 0
M  V30 1689 N 152.244 -1.26651 -0.937939 0
M  V30 1690 C 153.191 -1.0849 -2.03712 0
M  V30 1691 C 154.161 0.011033 -1.66096 0
M  V30 1692 O 155.346 -0.149353 -1.90215 0
M  V30 1693 C 152.486 -0.72735 -3.37348 0
M  V30 1694 C 151.599 -1.89986 -3.87981 0
M  V30 1695 C 150.734 -1.48513 -5.10017 0
M  V30 1696 C 149.773 -2.62575 -5.5292 0
M  V30 1697 N 148.91 -2.21762 -6.66158 0
M  V30 1698 H 153.75 -2.02551 -2.18579 0
M  V30 1699 H 151.287 -1.00844 -1.07093 0
M  V30 1700 H 153.245 -0.50092 -4.14182 0
M  V30 1701 H 151.875 0.176298 -3.22318 0
M  V30 1702 H 150.927 -2.23913 -3.07518 0
M  V30 1703 H 152.239 -2.75586 -4.15757 0
M  V30 1704 H 151.393 -1.21934 -5.94321 0
M  V30 1705 H 150.132 -0.60009 -4.83994 0
M  V30 1706 H 149.137 -2.8988 -4.67172 0
M  V30 1707 H 150.362 -3.51685 -5.80943 0
M  V30 1708 H 148.308 -1.35696 -6.41812 0
M  V30 1709 H 148.225 -3.00903 -6.93537 0
M  V30 1710 H 149.493 -1.98403 -7.53828 0
M  V30 1711 N 153.722 1.14298 -1.08507 0
M  V30 1712 C 154.95 1.89219 -0.836876 0
M  V30 1713 C 155.365 1.78638 0.611054 0
M  V30 1714 O 154.722 1.14643 1.41998 0
M  V30 1715 C 154.773 3.39158 -1.25116 0
M  V30 1716 O 154.494 3.49449 -2.64229 0
M  V30 1717 C 155.995 4.31073 -1.03398 0
M  V30 1718 H 153.215 0.599328 -0.301739 0
M  V30 1719 H 155.759 1.44746 -1.44461 0
M  V30 1720 H 153.914 3.81251 -0.687514 0
M  V30 1721 H 154.328 4.42589 -2.81452 0
M  V30 1722 H 155.802 5.34646 -1.37323 0
M  V30 1723 H 156.279 4.3919 0.0289259 0
M  V30 1724 H 156.885 3.94738 -1.58311 0
M  V30 1725 N 155.201 0.870884 1.31352 0
M  V30 1726 C 156.164 0.332243 2.26779 0
M  V30 1727 C 157.164 -0.517302 1.52252 0
M  V30 1728 O 158.354 -0.326477 1.71113 0
M  V30 1729 C 155.486 -0.528066 3.36785 0
M  V30 1730 H 156.679 1.17469 2.75937 0
M  V30 1731 H 154.232 0.64655 1.423 0
M  V30 1732 H 154.967 -1.39167 2.92922 0
M  V30 1733 H 154.752 0.0802582 3.92018 0
M  V30 1734 H 156.242 -0.897179 4.07849 0
M  V30 1735 N 156.679 -1.44442 0.630414 0
M  V30 1736 C 157.909 -2.06115 0.141465 0
M  V30 1737 C 158.317 -1.47179 -1.1889 0
M  V30 1738 O 157.66 -0.588873 -1.74006 0
M  V30 1739 C 157.722 -3.59467 -0.0484355 0
M  V30 1740 C 157.386 -4.40864 1.20366 0
M  V30 1741 C 158.383 -4.74391 2.12719 0
M  V30 1742 C 156.068 -4.8125 1.43887 0
M  V30 1743 C 158.062 -5.47186 3.26904 0
M  V30 1744 C 155.749 -5.53795 2.5837 0
M  V30 1745 C 156.747 -5.86682 3.49705 0
M  V30 1746 O 156.435 -6.57749 4.62191 0
M  V30 1747 H 156.167 -0.671648 0.0765792 0
M  V30 1748 H 158.721 -1.86312 0.864695 0
M  V30 1749 H 156.951 -3.77758 -0.826803 0
M  V30 1750 H 158.64 -4.02909 -0.491849 0
M  V30 1751 H 159.406 -4.43728 1.95781 0
M  V30 1752 H 155.285 -4.55073 0.736853 0
M  V30 1753 H 158.829 -5.72773 3.98217 0
M  V30 1754 H 154.726 -5.83872 2.75251 0
M  V30 1755 H 155.494 -6.76217 4.61164 0
M  V30 1756 N 158.157 -0.370918 -1.53173 0
M  V30 1757 C 159.087 0.464847 -2.28826 0
M  V30 1758 C 160.068 1.07936 -1.31468 0
M  V30 1759 O 161.253 1.0956 -1.60344 0
M  V30 1760 C 158.383 1.60196 -3.08147 0
M  V30 1761 C 157.337 1.11443 -4.13237 0
M  V30 1762 C 156.663 2.3422 -4.80672 0
M  V30 1763 C 157.963 0.195384 -5.21934 0
M  V30 1764 H 159.657 -0.166329 -2.98938 0
M  V30 1765 H 157.203 -0.0814359 -1.4377 0
M  V30 1766 H 159.156 2.19332 -3.59822 0
M  V30 1767 H 157.88 2.26045 -2.35735 0
M  V30 1768 H 156.539 0.545727 -3.62515 0
M  V30 1769 H 156.187 2.98537 -4.04827 0
M  V30 1770 H 155.887 2.02269 -5.51689 0
M  V30 1771 H 157.411 2.94032 -5.35143 0
M  V30 1772 H 158.825 0.694375 -5.69079 0
M  V30 1773 H 157.222 -0.0335027 -6.00091 0
M  V30 1774 H 158.292 -0.760961 -4.78892 0
M  V30 1775 N 159.635 1.57281 -0.100228 0
M  V30 1776 C 160.567 2.11342 0.886972 0
M  V30 1777 C 161.58 1.05182 1.24261 0
M  V30 1778 O 162.769 1.32613 1.19483 0
M  V30 1779 C 159.869 2.5825 2.19454 0
M  V30 1780 C 159.042 3.88302 2.01346 0
M  V30 1781 C 158.101 4.21004 3.15661 0
M  V30 1782 O 157.127 4.9014 2.89398 0
M  V30 1783 N 158.329 3.76818 4.41575 0
M  V30 1784 H 161.094 2.96668 0.425216 0
M  V30 1785 H 158.655 1.61678 0.0847334 0
M  V30 1786 H 160.647 2.7717 2.94888 0
M  V30 1787 H 159.217 1.77907 2.57037 0
M  V30 1788 H 158.437 3.7848 1.10212 0
M  V30 1789 H 159.725 4.73375 1.8653 0
M  V30 1790 H 159.123 3.2102 4.65792 0
M  V30 1791 H 157.68 4.00882 5.13942 0
M  V30 1792 N 161.113 -0.173488 1.56642 0
M  V30 1793 C 162.343 -0.904781 1.85734 0
M  V30 1794 C 162.751 -1.76431 0.68328 0
M  V30 1795 O 162.094 -1.802 -0.356865 0
M  V30 1796 C 162.156 -1.83382 3.09211 0
M  V30 1797 C 161.82 -1.15411 4.42187 0
M  V30 1798 C 162.817 -0.520609 5.17287 0
M  V30 1799 C 160.502 -1.15151 4.88923 0
M  V30 1800 C 162.496 0.106412 6.37311 0
M  V30 1801 C 160.183 -0.520664 6.08878 0
M  V30 1802 C 161.181 0.107196 6.82916 0
M  V30 1803 O 160.869 0.728102 8.00596 0
M  V30 1804 H 160.601 -0.268408 0.62043 0
M  V30 1805 H 163.155 -0.179096 2.04618 0
M  V30 1806 H 161.385 -2.59976 2.86268 0
M  V30 1807 H 163.074 -2.43476 3.24768 0
M  V30 1808 H 163.84 -0.514606 4.82262 0
M  V30 1809 H 159.719 -1.62961 4.31236 0
M  V30 1810 H 163.263 0.597081 6.9504 0
M  V30 1811 H 159.16 -0.524242 6.43368 0
M  V30 1812 H 159.928 0.627138 8.16094 0
M  V30 1813 N 162.591 -1.51276 -0.441967 0
M  V30 1814 C 164.007 -1.39349 -0.778083 0
M  V30 1815 C 164.207 -0.472212 -1.95889 0
M  V30 1816 O 163.263 0.0743551 -2.5239 0
M  V30 1817 C 164.576 -2.81292 -1.0628 0
M  V30 1818 C 166.124 -2.9041 -1.16751 0
M  V30 1819 C 166.599 -4.33251 -1.48519 0
M  V30 1820 N 168.09 -4.36336 -1.55453 0
M  V30 1821 C 168.825 -5.43885 -1.81596 0
M  V30 1822 N 168.321 -6.61601 -2.05562 0
M  V30 1823 N 170.114 -5.3136 -1.8334 0
M  V30 1824 H 162.265 -2.09729 0.335774 0
M  V30 1825 H 164.528 -0.943925 0.0878028 0
M  V30 1826 H 164.234 -3.50678 -0.267905 0
M  V30 1827 H 164.108 -3.20334 -1.99163 0
M  V30 1828 H 166.495 -2.21225 -1.95304 0
M  V30 1829 H 166.576 -2.54871 -0.217801 0
M  V30 1830 H 166.22 -5.02984 -0.704958 0
M  V30 1831 H 166.15 -4.66299 -2.44689 0
M  V30 1832 H 168.641 -3.51466 -1.38853 0
M  V30 1833 H 168.954 -7.39361 -2.24867 0
M  V30 1834 H 167.299 -6.64725 -2.02894 0
M  V30 1835 H 170.49 -4.38382 -1.64132 0
M  V30 1836 H 170.663 -6.15258 -2.03377 0
M  V30 1837 N 164.069 0.697108 -1.41344 0
M  V30 1838 C 165.001 1.8224 -1.39001 0
M  V30 1839 C 166.014 1.60152 -0.292428 0
M  V30 1840 O 167.203 1.69684 -0.554048 0
M  V30 1841 C 164.303 3.18976 -1.14489 0
M  V30 1842 C 163.476 3.68105 -2.36258 0
M  V30 1843 C 162.535 4.83506 -2.07625 0
M  V30 1844 O 161.561 4.95201 -2.8065 0
M  V30 1845 N 162.763 5.70637 -1.06555 0
M  V30 1846 H 165.528 1.84742 -2.35988 0
M  V30 1847 H 163.089 0.87937 -1.35936 0
M  V30 1848 H 165.081 3.93801 -0.932885 0
M  V30 1849 H 163.651 3.11508 -0.261043 0
M  V30 1850 H 162.871 2.84204 -2.7317 0
M  V30 1851 H 164.159 3.97667 -3.17393 0
M  V30 1852 H 163.557 5.63817 -0.461125 0
M  V30 1853 H 162.114 6.45368 -0.913444 0
M  V30 1854 N 165.547 1.27147 0.931209 0
M  V30 1855 C 166.958 1.12044 1.49342 0
M  V30 1856 C 167.309 -0.295795 1.93957 0
M  V30 1857 O 166.434 -1.18835 1.80852 0
M  V30 1858 C 167.029 2.02781 2.71414 0
M  V30 1859 C 165.588 1.91794 3.2387 0
M  V30 1860 C 164.735 1.95543 1.96617 0
M  V30 1861 H 167.686 1.40091 0.745672 0
M  V30 1862 H 167.707 1.58156 3.46074 0
M  V30 1863 H 167.219 3.05848 2.38911 0
M  V30 1864 H 165.32 0.916992 3.6114 0
M  V30 1865 H 165.433 2.77852 3.90302 0
M  V30 1866 H 163.797 1.39722 2.12955 0
M  V30 1867 H 164.58 3.00259 1.66432 0
M  V30 1868 N 167.025 -1.13721 1.09112 0
M  V30 1869 C 168.271 -1.85198 0.826414 0
M  V30 1870 C 168.604 -1.83129 -0.646319 0
M  V30 1871 O 167.879 -1.2671 -1.47563 0
M  V30 1872 C 168.162 -3.33507 1.35812 0
M  V30 1873 C 168.015 -3.44108 2.89672 0
M  V30 1874 C 169.334 -4.28838 0.989256 0
M  V30 1875 H 166.453 -0.67243 0.301675 0
M  V30 1876 H 169.095 -1.33499 1.35197 0
M  V30 1877 H 167.245 -3.77666 0.911082 0
M  V30 1878 H 168.917 -3.08684 3.428 0
M  V30 1879 H 167.16 -2.85087 3.26967 0
M  V30 1880 H 167.831 -4.48388 3.21951 0
M  V30 1881 H 170.307 -3.92734 1.37475 0
M  V30 1882 H 169.183 -5.31051 1.38838 0
M  V30 1883 H 169.444 -4.4198 -0.102924 0
M  V30 1884 N 168.503 -0.877838 -1.30888 0
M  V30 1885 C 169.749 -0.493426 -1.96706 0
M  V30 1886 C 170.082 0.953504 -1.6918 0
M  V30 1887 O 169.357 1.67266 -0.992594 0
M  V30 1888 C 169.64 -0.760429 -3.51979 0
M  V30 1889 C 169.493 -2.25747 -3.89048 0
M  V30 1890 C 170.812 -0.232148 -4.39487 0
M  V30 1891 H 167.931 -0.180746 -0.714493 0
M  V30 1892 H 170.573 -1.10052 -1.54882 0
M  V30 1893 H 168.723 -0.243715 -3.87735 0
M  V30 1894 H 170.395 -2.84204 -3.63354 0
M  V30 1895 H 168.638 -2.72694 -3.37373 0
M  V30 1896 H 169.309 -2.39491 -4.97341 0
M  V30 1897 H 171.785 -0.674314 -4.106 0
M  V30 1898 H 170.661 -0.448355 -5.47066 0
M  V30 1899 H 170.922 0.866297 -4.33529 0
M  V30 1900 N 169.982 1.44106 -0.638065 0
M  V30 1901 C 171.231 2.01194 -0.142744 0
M  V30 1902 C 171.544 1.50835 1.24532 0
M  V30 1903 O 172.75 2.00096 1.83504 0
M  V30 1904 C 171.206 3.59319 -0.20442 0
M  V30 1905 C 170.814 4.18674 -1.59423 0
M  V30 1906 C 172.558 4.23854 0.234079 0
M  V30 1907 C 170.465 5.69045 -1.61065 0
M  V30 1908 H 169.395 0.752367 -0.0495998 0
M  V30 1909 H 172.046 1.65246 -0.797881 0
M  V30 1910 H 170.428 3.92598 0.517946 0
M  V30 1911 H 171.602 3.96921 -2.34074 0
M  V30 1912 H 169.917 3.66453 -1.97741 0
M  V30 1913 H 172.514 5.34155 0.241443 0
M  V30 1914 H 172.857 3.96688 1.2627 0
M  V30 1915 H 173.39 3.95403 -0.436025 0
M  V30 1916 H 170.129 6.00956 -2.61787 0
M  V30 1917 H 169.649 5.929 -0.90718 0
M  V30 1918 H 171.328 6.32809 -1.34766 0
M  V30 1919 N 171.46 0.379036 1.52974 0
M  V30 1920 C 172.69 -0.20649 2.05566 0
M  V30 1921 C 173.098 -1.41906 1.25137 0
M  V30 1922 O 172.441 -1.81421 0.288464 0
M  V30 1923 C 172.503 -0.651086 3.53555 0
M  V30 1924 C 172.167 0.446626 4.54812 0
M  V30 1925 C 173.164 1.30079 5.03364 0
M  V30 1926 C 170.849 0.610719 4.98573 0
M  V30 1927 C 172.843 2.30426 5.94292 0
M  V30 1928 C 170.53 1.61754 5.89304 0
M  V30 1929 C 171.528 2.46274 6.37054 0
M  V30 1930 O 171.216 3.45237 7.25994 0
M  V30 1931 H 170.948 -0.0372381 0.674974 0
M  V30 1932 H 173.502 0.539718 1.98182 0
M  V30 1933 H 171.732 -1.44911 3.58522 0
M  V30 1934 H 173.421 -1.16112 3.88938 0
M  V30 1935 H 174.187 1.18527 4.70294 0
M  V30 1936 H 170.066 -0.0374044 4.60985 0
M  V30 1937 H 173.61 2.96432 6.31485 0
M  V30 1938 H 169.507 1.73348 6.21788 0
M  V30 1939 H 170.275 3.41124 7.44027 0
M  V30 1940 N 172.938 -1.57226 0.108567 0
M  V30 1941 C 174.163 -1.99604 -0.563303 0
M  V30 1942 C 174.588 -0.987563 -1.6009 0
M  V30 1943 O 173.946 0.0421687 -1.81251 0
M  V30 1944 C 173.994 -3.40902 -1.17552 0
M  V30 1945 O 173.098 -3.42896 -2.2912 0
M  V30 1946 H 172.439 -0.648704 -0.1417 0
M  V30 1947 H 174.969 -2.03679 0.193961 0
M  V30 1948 H 174.979 -3.78886 -1.51357 0
M  V30 1949 H 173.654 -4.1382 -0.415445 0
M  V30 1950 H 172.231 -3.1672 -1.96832 0
M  V30 1951 N 174.416 0.165178 -1.56732 0
M  V30 1952 C 175.641 0.900253 -1.86843 0
M  V30 1953 C 176.066 1.74766 -0.695596 0
M  V30 1954 O 175.424 1.77786 0.35522 0
M  V30 1955 C 175.472 1.74777 -3.15413 0
M  V30 1956 O 174.576 2.85007 -2.98068 0
M  V30 1957 H 173.917 0.251832 -0.614391 0
M  V30 1958 H 176.447 0.161468 -2.03962 0
M  V30 1959 H 176.457 2.14646 -3.46974 0
M  V30 1960 H 175.132 1.12537 -4.00385 0
M  V30 1961 H 173.709 2.48676 -2.77875 0
M  V30 1962 N 175.894 1.51508 0.433938 0
M  V30 1963 C 177.305 1.56784 1.01369 0
M  V30 1964 C 177.656 0.393349 1.92217 0
M  V30 1965 O 176.781 -0.489441 2.10792 0
M  V30 1966 C 177.376 2.84144 1.8452 0
M  V30 1967 C 175.935 2.9198 2.37539 0
M  V30 1968 C 175.082 2.51482 1.16843 0
M  V30 1969 H 178.033 1.57236 0.215081 0
M  V30 1970 H 178.054 2.68098 2.70007 0
M  V30 1971 H 177.566 3.69607 1.18373 0
M  V30 1972 H 175.667 2.10955 3.0713 0
M  V30 1973 H 175.78 3.95704 2.70103 0
M  V30 1974 H 174.144 2.04758 1.51481 0
M  V30 1975 H 174.927 3.39293 0.523015 0
M  V30 1976 N 177.372 -0.689602 1.41712 0
M  V30 1977 C 178.62 -1.4468 1.4111 0
M  V30 1978 C 178.941 -1.94986 0.0232196 0
M  V30 1979 O 178.211 -1.72097 -0.935913 0
M  V30 1980 H 176.791 -0.536847 0.519427 0
M  V30 1981 H 179.453 -0.815825 1.77004 0
M  V30 1982 H 178.549 -2.30706 2.10193 0
M  V30 1983 N 178.85 -1.27639 -0.924453 0
M  V30 1984 C 180.096 -1.14336 -1.67497 0
M  V30 1985 C 180.429 0.309465 -1.91718 0
M  V30 1986 O 179.704 1.22608 -1.50989 0
M  V30 1987 C 179.987 -1.93096 -3.0395 0
M  V30 1988 C 179.84 -3.46381 -2.8695 0
M  V30 1989 C 181.159 -1.73798 -4.0433 0
M  V30 1990 H 178.278 -0.416728 -0.607871 0
M  V30 1991 H 180.92 -1.56832 -1.07256 0
M  V30 1992 H 179.07 -1.56982 -3.55372 0
M  V30 1993 H 180.742 -3.92343 -2.42621 0
M  V30 1994 H 178.985 -3.72557 -2.22225 0
M  V30 1995 H 179.656 -3.96735 -3.83804 0
M  V30 1996 H 182.132 -2.05293 -3.61931 0
M  V30 1997 H 181.008 -2.31294 -4.97789 0
M  V30 1998 H 181.269 -0.686725 -4.36734 0
M  V30 1999 N 180.328 1.1314 -1.09713 0
M  V30 2000 C 181.261 2.17735 -0.683137 0
M  V30 2001 C 182.239 1.59582 0.311841 0
M  V30 2002 O 183.423 1.87298 0.212514 0
M  V30 2003 C 180.55 3.38699 -0.00684324 0
M  V30 2004 C 179.596 4.1546 -0.964102 0
M  V30 2005 S 180.429 4.74733 -2.47767 0
M  V30 2006 C 181.585 5.9904 -1.81387 0
M  V30 2007 H 181.818 2.52515 -1.56918 0
M  V30 2008 H 179.351 1.24484 -0.913404 0
M  V30 2009 H 181.309 4.08765 0.377044 0
M  V30 2010 H 179.97 3.02214 0.85589 0
M  V30 2011 H 179.163 5.02093 -0.43803 0
M  V30 2012 H 178.765 3.51066 -1.28953 0
M  V30 2013 H 181.057 6.67846 -1.13967 0
M  V30 2014 H 182 6.56261 -2.65947 0
M  V30 2015 H 182.408 5.4976 -1.28155 0
M  V30 2016 N 181.806 0.884767 1.30421 0
M  V30 2017 C 182.736 0.367574 2.30589 0
M  V30 2018 C 183.717 -0.549464 1.60981 0
M  V30 2019 O 184.902 -0.46336 1.88591 0
M  V30 2020 C 182.032 -0.418944 3.44764 0
M  V30 2021 C 180.986 0.406316 4.26067 0
M  V30 2022 C 180.312 -0.506793 5.32293 0
M  V30 2023 C 181.612 1.64832 4.95608 0
M  V30 2024 H 183.306 1.20462 2.74097 0
M  V30 2025 H 180.852 0.580695 1.31772 0
M  V30 2026 H 182.805 -0.791395 4.13902 0
M  V30 2027 H 181.529 -1.28964 3.0006 0
M  V30 2028 H 180.188 0.760903 3.58617 0
M  V30 2029 H 179.836 -1.37519 4.83836 0
M  V30 2030 H 179.536 0.0415828 5.87585 0
M  V30 2031 H 181.06 -0.875764 6.04287 0
M  V30 2032 H 182.474 1.34646 5.57264 0
M  V30 2033 H 180.871 2.13688 5.60765 0
M  V30 2034 H 181.941 2.39284 4.21748 0
M  V30 2035 N 183.284 -1.43765 0.645699 0
M  V30 2036 C 184.695 -1.85193 0.236719 0
M  V30 2037 C 185.046 -1.54045 -1.21509 0
M  V30 2038 O 184.171 -0.985694 -1.92647 0
M  V30 2039 C 184.766 -3.36151 0.422845 0
M  V30 2040 C 183.325 -3.76338 0.0682492 0
M  V30 2041 C 182.472 -2.67538 0.729306 0
M  V30 2042 H 185.423 -1.34025 0.849883 0
M  V30 2043 H 185.444 -3.79032 -0.333904 0
M  V30 2044 H 184.956 -3.5879 1.47958 0
M  V30 2045 H 183.057 -3.59312 -0.986179 0
M  V30 2046 H 183.17 -4.76603 0.488469 0
M  V30 2047 H 181.534 -2.54176 0.163235 0
M  V30 2048 H 182.317 -2.93006 1.78892 0
M  V30 2049 N 184.763 -0.387143 -1.52771 0
M  V30 2050 C 185.71 0.449048 -2.26389 0
M  V30 2051 C 186.68 1.05961 -1.27912 0
M  V30 2052 O 187.865 1.08804 -1.56737 0
M  V30 2053 C 185.005 1.57155 -3.0724 0
M  V30 2054 C 184.118 0.984066 -4.20643 0
M  V30 2055 C 183.253 2.07745 -4.88892 0
M  V30 2056 C 182.292 1.46574 -5.94292 0
M  V30 2057 N 181.429 2.49834 -6.56146 0
M  V30 2058 H 186.269 -0.185205 -2.97424 0
M  V30 2059 H 183.806 -0.103164 -1.46738 0
M  V30 2060 H 185.764 2.23309 -3.52405 0
M  V30 2061 H 184.394 2.17615 -2.38419 0
M  V30 2062 H 183.446 0.212193 -3.79808 0
M  V30 2063 H 184.758 0.497029 -4.96318 0
M  V30 2064 H 183.912 2.81673 -5.3735 0
M  V30 2065 H 182.651 2.59807 -4.12737 0
M  V30 2066 H 181.656 0.711696 -5.45174 0
M  V30 2067 H 182.881 0.953088 -6.72379 0
M  V30 2068 H 180.827 3.0107 -5.82832 0
M  V30 2069 H 180.744 2.05879 -7.27427 0
M  V30 2070 H 182.012 3.23399 -7.09249 0
M  V30 2071 N 186.241 1.57166 -0.116904 0
M  V30 2072 C 187.173 2.12271 0.864507 0
M  V30 2073 C 188.186 1.06494 1.23138 0
M  V30 2074 O 189.375 1.33873 1.18069 0
M  V30 2075 C 186.475 2.60564 2.16702 0
M  V30 2076 C 185.648 3.90416 1.97216 0
M  V30 2077 C 184.707 4.24329 3.11178 0
M  V30 2078 O 183.733 4.93182 2.84184 0
M  V30 2079 N 184.935 3.8148 4.37554 0
M  V30 2080 H 187.7 2.97102 0.393726 0
M  V30 2081 H 185.261 1.61759 0.0675805 0
M  V30 2082 H 187.253 2.80282 2.91932 0
M  V30 2083 H 185.823 1.80623 2.55135 0
M  V30 2084 H 185.043 3.79627 1.06192 0
M  V30 2085 H 186.331 4.75327 1.81499 0
M  V30 2086 H 185.729 3.25943 4.62361 0
M  V30 2087 H 184.286 4.06311 5.09661 0
M  V30 2088 N 187.719 -0.156864 1.56817 0
M  V30 2089 C 188.996 -0.899244 1.73704 0
M  V30 2090 C 189.376 -1.99771 0.682254 0
M  V30 2091 O 188.724 -2.26515 -0.300522 0
M  V30 2092 C 188.934 -1.45075 3.17418 0
M  V30 2093 C 190.282 -1.91802 3.7881 0
M  V30 2094 O 191.306 -1.54838 3.20786 0
M  V30 2095 O 190.165 -2.5994 4.80722 0
M  V30 2096 H 187.259 -0.424267 0.709878 0
M  V30 2097 H 189.805 -0.143561 1.69092 0
M  V30 2098 H 188.577 -0.660846 3.85679 0
M  V30 2099 H 188.2 -2.27021 3.26416 0
M  V30 2100 N 189.197 -1.51736 -0.425897 0
M  V30 2101 C 190.444 -1.6497 -1.17436 0
M  V30 2102 C 190.772 -0.371445 -1.9092 0
M  V30 2103 O 190.027 0.644963 -1.84767 0
M  V30 2104 C 190.326 -2.81103 -2.20717 0
M  V30 2105 C 189.992 -4.19954 -1.64162 0
M  V30 2106 C 188.654 -4.57725 -1.48462 0
M  V30 2107 C 191.006 -5.06552 -1.22696 0
M  V30 2108 C 188.334 -5.79789 -0.897873 0
M  V30 2109 C 190.686 -6.29205 -0.654464 0
M  V30 2110 C 189.35 -6.6574 -0.484456 0
M  V30 2111 H 188.62 -0.603668 -0.429727 0
M  V30 2112 H 191.267 -1.85798 -0.463829 0
M  V30 2113 H 189.572 -2.54542 -2.97852 0
M  V30 2114 H 191.269 -2.8854 -2.78471 0
M  V30 2115 H 187.859 -3.90181 -1.77361 0
M  V30 2116 H 192.043 -4.77968 -1.33642 0
M  V30 2117 H 187.299 -6.06733 -0.75402 0
M  V30 2118 H 191.473 -6.95643 -0.324694 0
M  V30 2119 H 189.1 -7.60195 -0.0276833 0
M  V30 2120 N 190.675 0.682077 -1.42076 0
M  V30 2121 C 191.921 1.44428 -1.42367 0
M  V30 2122 C 192.254 1.94164 -0.0373056 0
M  V30 2123 O 191.529 1.70429 0.937239 0
M  V30 2124 C 191.812 2.64654 -2.44194 0
M  V30 2125 C 191.665 2.20596 -3.91991 0
M  V30 2126 C 192.984 3.66865 -2.431 0
M  V30 2127 H 190.103 0.523834 -0.518428 0
M  V30 2128 H 192.745 0.77576 -1.73442 0
M  V30 2129 H 190.895 3.2169 -2.17826 0
M  V30 2130 H 192.567 1.68783 -4.29313 0
M  V30 2131 H 190.81 1.52242 -4.06208 0
M  V30 2132 H 191.481 3.06921 -4.58807 0
M  V30 2133 H 193.957 3.19531 -2.66532 0
M  V30 2134 H 192.833 4.48577 -3.16339 0
M  V30 2135 H 193.094 4.17493 -1.45437 0
M  V30 2136 N 192.153 1.28127 0.917671 0
M  V30 2137 C 193.43 1.05761 1.64542 0
M  V30 2138 C 193.81 -0.404344 2.07191 0
M  V30 2139 O 193.158 -1.38963 1.81388 0
M  V30 2140 C 193.368 2.02857 2.83989 0
M  V30 2141 C 194.716 2.32786 3.551 0
M  V30 2142 O 195.74 2.0091 2.94132 0
M  V30 2143 O 194.599 2.87169 4.64969 0
M  V30 2144 H 191.693 0.403916 0.721652 0
M  V30 2145 H 194.239 1.39431 0.967322 0
M  V30 2146 H 193.011 3.01407 2.49538 0
M  V30 2147 H 192.634 1.69809 3.59514 0
M  V30 2148 N 193.631 -1.12557 1.10312 0
M  V30 2149 C 194.561 -2.20341 0.772798 0
M  V30 2150 C 195.542 -1.68198 -0.25365 0
M  V30 2151 O 196.727 -1.93831 -0.119699 0
M  V30 2152 C 193.857 -3.46709 0.202443 0
M  V30 2153 C 192.811 -4.11996 1.15943 0
M  V30 2154 C 192.137 -5.328 0.450345 0
M  V30 2155 C 193.437 -4.5828 2.50552 0
M  V30 2156 H 195.131 -2.48229 1.674 0
M  V30 2157 H 192.677 -1.19308 0.806326 0
M  V30 2158 H 194.63 -4.2138 -0.0407752 0
M  V30 2159 H 193.354 -3.18245 -0.734001 0
M  V30 2160 H 192.013 -3.39305 1.38808 0
M  V30 2161 H 191.661 -5.00602 -0.490531 0
M  V30 2162 H 191.361 -5.7743 1.08851 0
M  V30 2163 H 192.885 -6.10219 0.215642 0
M  V30 2164 H 194.299 -5.2433 2.31843 0
M  V30 2165 H 192.696 -5.13683 3.10242 0
M  V30 2166 H 193.766 -3.72329 3.10643 0
M  V30 2167 N 195.109 -0.891671 -1.2995 0
M  V30 2168 C 196.041 -0.320695 -2.26945 0
M  V30 2169 C 197.054 0.528497 -1.53983 0
M  V30 2170 O 198.243 0.346959 -1.75096 0
M  V30 2171 C 195.343 0.562066 -3.34207 0
M  V30 2172 C 194.516 -0.259576 -4.36629 0
M  V30 2173 C 193.575 0.554739 -5.23268 0
M  V30 2174 O 192.601 -0.0249311 -5.69195 0
M  V30 2175 N 193.803 1.8625 -5.4981 0
M  V30 2176 H 196.568 -1.15432 -2.76578 0
M  V30 2177 H 194.129 -0.755336 -1.432 0
M  V30 2178 H 196.121 1.11304 -3.89093 0
M  V30 2179 H 194.691 1.29637 -2.84452 0
M  V30 2180 H 193.911 -0.991986 -3.81514 0
M  V30 2181 H 195.199 -0.822564 -5.02107 0
M  V30 2182 H 194.597 2.35628 -5.14292 0
M  V30 2183 H 193.154 2.36078 -6.07545 0
M  V30 2184 N 196.587 1.43421 -0.653314 0
M  V30 2185 C 197.835 2.01414 -0.166415 0
M  V30 2186 C 198.156 1.51803 1.22397 0
M  V30 2187 O 197.426 0.730693 1.81763 0
M  V30 2188 H 196.006 0.744703 -0.0585319 0
M  V30 2189 H 198.668 1.75629 -0.845003 0
M  V30 2190 H 197.764 3.11734 -0.151111 0
M  V30 2191 N 198.065 0.39524 1.52563 0
M  V30 2192 C 198.997 -0.472201 2.24283 0
M  V30 2193 C 200.01 -1.02178 1.26742 0
M  V30 2194 O 201.199 -0.923097 1.52778 0
M  V30 2195 C 198.299 -1.66775 2.95024 0
M  V30 2196 C 197.472 -1.2445 4.19322 0
M  V30 2197 C 196.531 -2.30539 4.7301 0
M  V30 2198 O 195.557 -1.91702 5.35947 0
M  V30 2199 N 196.759 -3.6253 4.53379 0
M  V30 2200 H 199.524 0.142282 2.99362 0
M  V30 2201 H 197.085 0.2219 1.60372 0
M  V30 2202 H 199.077 -2.37283 3.27839 0
M  V30 2203 H 197.647 -2.18845 2.23217 0
M  V30 2204 H 196.867 -0.368069 3.92478 0
M  V30 2205 H 198.155 -0.938457 5.0007 0
M  V30 2206 H 197.553 -3.96841 4.03154 0
M  V30 2207 H 196.11 -4.29055 4.90668 0
M  V30 2208 N 199.544 -1.57102 0.125237 0
M  V30 2209 C 200.474 -2.18659 -0.819174 0
M  V30 2210 C 201.455 -1.12843 -1.27281 0
M  V30 2211 O 202.64 -1.41104 -1.33429 0
M  V30 2212 C 199.77 -2.79096 -2.06695 0
M  V30 2213 C 198.724 -3.90548 -1.75088 0
M  V30 2214 C 198.05 -4.37821 -3.06948 0
M  V30 2215 C 199.35 -5.12356 -1.01435 0
M  V30 2216 H 201.044 -2.9783 -0.306202 0
M  V30 2217 H 198.59 -1.4326 -0.145839 0
M  V30 2218 H 200.543 -3.2082 -2.73226 0
M  V30 2219 H 199.267 -1.97223 -2.60328 0
M  V30 2220 H 197.926 -3.49409 -1.10944 0
M  V30 2221 H 197.574 -3.52799 -3.58527 0
M  V30 2222 H 197.274 -5.12982 -2.86571 0
M  V30 2223 H 198.798 -4.822 -3.74587 0
M  V30 2224 H 200.212 -5.5106 -1.58132 0
M  V30 2225 H 198.609 -5.9314 -0.911319 0
M  V30 2226 H 199.679 -4.849 -0.00218681 0
M  V30 2227 N 201.022 0.148545 -1.56898 0
M  V30 2228 C 202.438 0.501131 -1.51528 0
M  V30 2229 C 202.638 1.83458 -0.833399 0
M  V30 2230 O 201.694 2.49259 -0.40328 0
M  V30 2231 C 203.007 0.512864 -2.96294 0
M  V30 2232 C 204.555 0.598487 -3.07225 0
M  V30 2233 C 205.03 0.640897 -4.53494 0
M  V30 2234 N 206.521 0.703163 -4.57832 0
M  V30 2235 C 207.256 0.756935 -5.68382 0
M  V30 2236 N 206.752 0.770147 -6.88506 0
M  V30 2237 N 208.545 0.797698 -5.56411 0
M  V30 2238 H 200.696 -0.725532 -1.99624 0
M  V30 2239 H 202.959 -0.264358 -0.910395 0
M  V30 2240 H 202.665 -0.398691 -3.49433 0
M  V30 2241 H 202.539 1.35133 -3.52163 0
M  V30 2242 H 204.926 1.50046 -2.54106 0
M  V30 2243 H 205.007 -0.267093 -2.54402 0
M  V30 2244 H 204.651 -0.256915 -5.0725 0
M  V30 2245 H 204.581 1.52295 -5.04097 0
M  V30 2246 H 207.072 0.700314 -3.71354 0
M  V30 2247 H 207.385 0.812983 -7.68512 0
M  V30 2248 H 205.73 0.738049 -6.9107 0
M  V30 2249 H 208.921 0.784535 -4.61479 0
M  V30 2250 H 209.094 0.83614 -6.42583 0
M  V30 2251 N 202.5 1.5196 0.417844 0
M  V30 2252 C 203.747 1.65591 1.16559 0
M  V30 2253 C 204.075 0.381565 1.90721 0
M  V30 2254 O 203.33 -0.635156 1.85106 0
M  V30 2255 C 203.629 2.82269 2.19223 0
M  V30 2256 C 203.295 4.20819 1.61933 0
M  V30 2257 C 201.957 4.58506 1.46033 0
M  V30 2258 C 204.309 5.07196 1.20008 0
M  V30 2259 C 201.637 5.80257 0.867113 0
M  V30 2260 C 203.989 6.29544 0.621086 0
M  V30 2261 C 202.653 6.65987 0.449144 0
M  V30 2262 H 201.923 0.605939 0.42652 0
M  V30 2263 H 204.57 1.86041 0.45397 0
M  V30 2264 H 202.875 2.56118 2.96498 0
M  V30 2265 H 204.572 2.90012 2.76936 0
M  V30 2266 H 201.162 3.91116 1.7529 0
M  V30 2267 H 205.346 4.7867 1.31105 0
M  V30 2268 H 200.602 6.07124 0.721833 0
M  V30 2269 H 204.776 6.95805 0.287798 0
M  V30 2270 H 202.403 7.60199 -0.012632 0
M  V30 2271 N 203.978 -0.674533 1.42435 0
M  V30 2272 C 204.941 -1.76986 1.45632 0
M  V30 2273 C 205.941 -1.5708 0.343871 0
M  V30 2274 O 207.131 -1.63367 0.604709 0
M  V30 2275 C 204.263 -3.15623 1.28822 0
M  V30 2276 H 205.456 -1.75539 2.43158 0
M  V30 2277 H 203.009 -0.884189 1.28887 0
M  V30 2278 H 203.744 -3.22696 0.322193 0
M  V30 2279 H 203.529 -3.31475 2.09444 0
M  V30 2280 H 205.019 -3.95537 1.33942 0
M  V30 2281 N 205.456 -1.28612 -0.910864 0
M  V30 2282 C 206.419 -1.12803 -1.9952 0
M  V30 2283 C 207.419 -0.0668264 -1.60661 0
M  V30 2284 O 208.609 -0.312847 -1.71368 0
M  V30 2285 C 205.741 -0.72254 -3.33155 0
M  V30 2286 H 206.934 -2.09109 -2.14973 0
M  V30 2287 H 204.487 -1.11639 -1.09391 0
M  V30 2288 H 205.222 0.241152 -3.23402 0
M  V30 2289 H 205.007 -1.48916 -3.62721 0
M  V30 2290 H 206.497 -0.634666 -4.12749 0
M  V30 2291 N 206.934 1.1197 -1.10907 0
M  V30 2292 C 207.881 2.17846 -0.762345 0
M  V30 2293 C 208.851 1.63995 0.263599 0
M  V30 2294 O 210.036 1.90273 0.141773 0
M  V30 2295 C 207.176 3.44487 -0.205651 0
M  V30 2296 C 206.289 4.12369 -1.28748 0
M  V30 2297 C 205.424 5.26674 -0.691919 0
M  V30 2298 C 204.463 5.86431 -1.75399 0
M  V30 2299 N 203.6 6.92142 -1.17833 0
M  V30 2300 H 208.44 2.46851 -1.6694 0
M  V30 2301 H 205.977 1.21188 -0.833776 0
M  V30 2302 H 207.935 4.16981 0.135037 0
M  V30 2303 H 206.565 3.15884 0.664613 0
M  V30 2304 H 205.617 3.38003 -1.74522 0
M  V30 2305 H 206.929 4.52844 -2.09125 0
M  V30 2306 H 206.083 6.05953 -0.300963 0
M  V30 2307 H 204.822 4.8749 0.143232 0
M  V30 2308 H 203.827 5.05835 -2.15432 0
M  V30 2309 H 205.052 6.27685 -2.59208 0
M  V30 2310 H 202.998 6.54985 -0.364725 0
M  V30 2311 H 202.915 7.31242 -1.91887 0
M  V30 2312 H 204.183 7.75237 -0.81408 0
M  V30 2313 N 208.412 0.89855 1.29475 0
M  V30 2314 C 209.342 0.39201 2.30186 0
M  V30 2315 C 210.323 -0.532359 1.61555 0
M  V30 2316 O 211.508 -0.443331 1.89072 0
M  V30 2317 C 208.638 -0.382353 3.45189 0
M  V30 2318 C 207.592 0.451483 4.25612 0
M  V30 2319 C 206.918 -0.450307 5.328 0
M  V30 2320 C 208.218 1.70079 4.93832 0
M  V30 2321 H 209.912 1.23362 2.72804 0
M  V30 2322 H 207.458 0.594638 1.31149 0
M  V30 2323 H 209.411 -0.747451 4.14718 0
M  V30 2324 H 208.135 -1.25774 3.01411 0
M  V30 2325 H 206.794 0.798897 3.57789 0
M  V30 2326 H 206.442 -1.32379 4.85268 0
M  V30 2327 H 206.142 0.103902 5.87508 0
M  V30 2328 H 207.666 -0.811623 6.05182 0
M  V30 2329 H 209.08 1.40549 5.55805 0
M  V30 2330 H 207.477 2.19623 5.58467 0
M  V30 2331 H 208.547 2.43744 4.19186 0
M  V30 2332 N 209.89 -1.43072 0.660911 0
M  V30 2333 C 211.139 -2.00942 0.174735 0
M  V30 2334 C 211.452 -1.52797 -1.22117 0
M  V30 2335 O 212.658 -2.02991 -1.80297 0
M  V30 2336 C 211.114 -3.58948 0.261559 0
M  V30 2337 C 210.722 -4.16085 1.66064 0
M  V30 2338 C 212.466 -4.24173 -0.166617 0
M  V30 2339 C 210.373 -5.6641 1.70098 0
M  V30 2340 H 209.303 -0.751483 0.0615631 0
M  V30 2341 H 211.954 -1.63955 0.824069 0
M  V30 2342 H 210.336 -3.93372 -0.455421 0
M  V30 2343 H 211.51 -3.93147 2.40359 0
M  V30 2344 H 209.825 -3.6326 2.03546 0
M  V30 2345 H 212.422 -5.34471 -0.156433 0
M  V30 2346 H 212.765 -3.98647 -1.19943 0
M  V30 2347 H 213.298 -3.94659 0.498875 0
M  V30 2348 H 210.037 -5.96715 2.71315 0
M  V30 2349 H 209.557 -5.91382 1.00139 0
M  V30 2350 H 211.236 -6.30585 1.44816 0
M  V30 2351 N 211.368 -0.403325 -1.52352 0
M  V30 2352 C 212.278 0.432009 -2.30588 0
M  V30 2353 C 213.294 1.05884 -1.38075 0
M  V30 2354 O 214.47 1.06161 -1.71148 0
M  V30 2355 C 211.535 1.53669 -3.10784 0
M  V30 2356 C 210.596 0.933525 -4.19027 0
M  V30 2357 C 209.829 1.98557 -4.9539 0
M  V30 2358 O 210.052 3.20283 -4.71991 0
M  V30 2359 O 208.986 1.59504 -5.80381 0
M  V30 2360 H 212.812 -0.205739 -3.03002 0
M  V30 2361 H 210.397 -0.166675 -1.48467 0
M  V30 2362 H 212.279 2.17814 -3.60742 0
M  V30 2363 H 210.954 2.15915 -2.41169 0
M  V30 2364 H 209.861 0.254954 -3.7323 0
M  V30 2365 H 211.194 0.35508 -4.90918 0
M  V30 2366 N 212.846 1.57033 -0.133567 0
M  V30 2367 C 214.094 1.953 0.519848 0
M  V30 2368 C 214.415 1.01866 1.66278 0
M  V30 2369 O 213.685 0.0776513 1.95746 0
M  V30 2370 H 212.265 0.721091 0.195032 0
M  V30 2371 H 214.927 1.93809 -0.205921 0
M  V30 2372 H 214.023 2.98695 0.904854 0
M  V30 2373 N 214.325 -0.140222 1.56975 0
M  V30 2374 C 215.571 -0.852949 1.83991 0
M  V30 2375 C 215.904 -1.80512 0.716187 0
M  V30 2376 O 215.179 -1.92479 -0.279681 0
M  V30 2377 C 215.462 -1.6215 3.21527 0
M  V30 2378 C 215.315 -0.690363 4.4447 0
M  V30 2379 C 216.634 -2.58247 3.56366 0
M  V30 2380 H 213.753 -0.308634 0.669264 0
M  V30 2381 H 216.395 -0.117898 1.89634 0
M  V30 2382 H 214.545 -2.24812 3.16847 0
M  V30 2383 H 216.217 -0.0742264 4.6124 0
M  V30 2384 H 214.46 -0.000396433 4.338 0
M  V30 2385 H 215.131 -1.2643 5.37326 0
M  V30 2386 H 217.607 -2.05701 3.61699 0
M  V30 2387 H 216.483 -3.09067 4.53617 0
M  V30 2388 H 216.744 -3.39923 2.82674 0
M  V30 2389 N 215.803 -1.52179 -0.40978 0
M  V30 2390 C 216.733 -1.78435 -1.5061 0
M  V30 2391 C 217.714 -0.635295 -1.57791 0
M  V30 2392 O 218.899 -0.880823 -1.73076 0
M  V30 2393 C 216.029 -1.93444 -2.88439 0
M  V30 2394 C 214.983 -3.09038 -2.96108 0
M  V30 2395 C 214.309 -3.09268 -4.36185 0
M  V30 2396 C 215.609 -4.48508 -2.67652 0
M  V30 2397 H 217.303 -2.70237 -1.28889 0
M  V30 2398 H 214.849 -1.30036 -0.618605 0
M  V30 2399 H 216.802 -2.10394 -3.65119 0
M  V30 2400 H 215.526 -0.983129 -3.11452 0
M  V30 2401 H 214.185 -2.91837 -2.21872 0
M  V30 2402 H 213.833 -2.11861 -4.56206 0
M  V30 2403 H 213.533 -3.86907 -4.42241 0
M  V30 2404 H 215.057 -3.28348 -5.14801 0
M  V30 2405 H 216.471 -4.65918 -3.34056 0
M  V30 2406 H 214.868 -5.28059 -2.85085 0
M  V30 2407 H 215.938 -4.56649 -1.63095 0
M  V30 2408 N 217.281 0.66697 -1.42791 0
M  V30 2409 C 218.558 1.4234 -1.34159 0
M  V30 2410 C 218.938 2.11093 0.0172729 0
M  V30 2411 O 218.286 2.03808 1.03318 0
M  V30 2412 C 218.496 2.41942 -2.51526 0
M  V30 2413 C 219.844 3.06353 -2.93995 0
M  V30 2414 O 220.868 2.52269 -2.51473 0
M  V30 2415 O 219.727 4.04376 -3.67617 0
M  V30 2416 H 216.821 0.635277 -0.529483 0
M  V30 2417 H 219.367 0.695034 -1.54814 0
M  V30 2418 H 218.139 1.89991 -3.42081 0
M  V30 2419 H 217.762 3.22249 -2.32898 0
M  V30 2420 N 218.759 1.29093 0.90403 0
M  V30 2421 C 220.006 1.16813 1.65411 0
M  V30 2422 C 220.334 -0.28128 1.92455 0
M  V30 2423 O 219.589 -1.22006 1.53013 0
M  V30 2424 C 219.888 1.92224 3.01305 0
M  V30 2425 C 219.554 3.41968 2.93885 0
M  V30 2426 C 218.216 3.82807 2.91569 0
M  V30 2427 C 220.568 4.37409 2.83413 0
M  V30 2428 C 217.896 5.1741 2.76594 0
M  V30 2429 C 220.248 5.72097 2.69977 0
M  V30 2430 C 218.912 6.12199 2.66024 0
M  V30 2431 H 218.182 0.42745 0.605283 0
M  V30 2432 H 220.829 1.59981 1.05254 0
M  V30 2433 H 219.134 1.41635 3.65304 0
M  V30 2434 H 220.831 1.80131 3.58265 0
M  V30 2435 H 217.421 3.09504 2.96488 0
M  V30 2436 H 221.605 4.06813 2.84283 0
M  V30 2437 H 216.861 5.47596 2.71935 0
M  V30 2438 H 221.035 6.45704 2.60844 0
M  V30 2439 H 218.662 7.16448 2.54178 0
M  V30 2440 N 220.237 -1.11381 1.11499 0
M  V30 2441 C 221.184 -2.17439 0.773887 0
M  V30 2442 C 222.154 -1.64132 -0.254899 0
M  V30 2443 O 223.339 -1.90345 -0.13168 0
M  V30 2444 C 220.479 -3.44373 0.223917 0
M  V30 2445 C 219.592 -4.1168 1.30934 0
M  V30 2446 C 218.727 -5.263 0.71984 0
M  V30 2447 C 217.766 -5.85493 1.78507 0
M  V30 2448 N 216.903 -6.91507 1.21502 0
M  V30 2449 H 221.743 -2.45962 1.68246 0
M  V30 2450 H 219.28 -1.20744 0.840191 0
M  V30 2451 H 221.238 -4.17047 -0.112921 0
M  V30 2452 H 219.868 -3.16232 -0.647851 0
M  V30 2453 H 218.92 -3.37073 1.76312 0
M  V30 2454 H 220.232 -4.51729 2.11524 0
M  V30 2455 H 219.386 -6.05785 0.333094 0
M  V30 2456 H 218.125 -4.87559 -0.117377 0
M  V30 2457 H 217.13 -5.04686 2.18111 0
M  V30 2458 H 218.355 -6.26301 2.62533 0
M  V30 2459 H 216.301 -6.54783 0.399455 0
M  V30 2460 H 216.218 -7.30214 1.95763 0
M  V30 2461 H 217.486 -7.74795 0.855181 0
M  V30 2462 N 221.715 -0.905404 -1.28997 0
M  V30 2463 C 222.961 -0.535039 -1.95615 0
M  V30 2464 C 223.294 0.917404 -1.71165 0
M  V30 2465 O 222.569 1.65123 -1.02785 0
M  V30 2466 C 222.852 -0.834918 -3.50287 0
M  V30 2467 C 222.705 -2.33948 -3.84172 0
M  V30 2468 C 224.024 -0.325318 -4.38896 0
M  V30 2469 H 221.143 -0.195861 -0.710498 0
M  V30 2470 H 223.785 -1.13313 -1.52513 0
M  V30 2471 H 221.935 -0.325904 -3.87131 0
M  V30 2472 H 223.607 -2.91847 -3.57243 0
M  V30 2473 H 221.85 -2.79789 -3.31513 0
M  V30 2474 H 222.521 -2.49987 -4.92149 0
M  V30 2475 H 224.997 -0.761256 -4.09077 0
M  V30 2476 H 223.873 -0.564295 -5.45992 0
M  V30 2477 H 224.134 0.774144 -4.35269 0
M  V30 2478 N 223.193 1.4272 -0.668489 0
M  V30 2479 C 224.126 2.28111 0.0637898 0
M  V30 2480 C 225.104 1.40705 0.814912 0
M  V30 2481 O 226.288 1.70146 0.81134 0
M  V30 2482 C 223.415 3.20429 1.0974 0
M  V30 2483 C 222.461 4.24197 0.442579 0
M  V30 2484 S 223.294 5.29563 -0.795173 0
M  V30 2485 C 224.45 6.25449 0.237516 0
M  V30 2486 H 224.683 2.8987 -0.660521 0
M  V30 2487 H 222.216 1.47456 -0.457821 0
M  V30 2488 H 224.174 3.74158 1.68868 0
M  V30 2489 H 222.835 2.57818 1.79411 0
M  V30 2490 H 222.028 4.88954 1.22227 0
M  V30 2491 H 221.63 3.73925 -0.0749554 0
M  V30 2492 H 223.922 6.68524 1.09915 0
M  V30 2493 H 224.865 7.07104 -0.375421 0
M  V30 2494 H 225.273 5.61511 0.580167 0
M  V30 2495 N 224.671 0.411399 1.52136 0
M  V30 2496 C 225.92 -0.165009 2.01024 0
M  V30 2497 C 226.233 -1.4603 1.30133 0
M  V30 2498 O 227.439 -2.1181 1.69849 0
M  V30 2499 C 225.895 -0.344618 3.58246 0
M  V30 2500 C 225.503 0.938716 4.38055 0
M  V30 2501 C 227.247 -0.876195 4.15359 0
M  V30 2502 C 225.154 0.726172 5.86925 0
M  V30 2503 H 224.084 -0.0654407 0.751155 0
M  V30 2504 H 226.735 0.537192 1.75461 0
M  V30 2505 H 225.117 -1.10921 3.80148 0
M  V30 2506 H 226.291 1.70963 4.27912 0
M  V30 2507 H 224.606 1.39688 3.92271 0
M  V30 2508 H 227.203 -1.05128 5.24263 0
M  V30 2509 H 227.546 -1.85152 3.7286 0
M  V30 2510 H 228.079 -0.170607 3.97434 0
M  V30 2511 H 224.818 1.67312 6.33788 0
M  V30 2512 H 224.338 -0.00540283 5.998 0
M  V30 2513 H 226.017 0.369231 6.45946 0
M  V30 2514 N 226.149 -1.5696 0.141893 0
M  V30 2515 C 227.426 -1.87553 -0.555281 0
M  V30 2516 C 227.806 -1.04699 -1.83306 0
M  V30 2517 O 227.154 -0.132346 -2.28116 0
M  V30 2518 C 227.364 -3.39093 -0.825664 0
M  V30 2519 C 228.712 -4.08199 -1.16869 0
M  V30 2520 O 229.736 -3.44242 -0.915185 0
M  V30 2521 O 228.595 -5.21139 -1.6455 0
M  V30 2522 H 225.689 -0.777188 -0.282679 0
M  V30 2523 H 228.235 -1.68763 0.17812 0
M  V30 2524 H 227.007 -3.91221 0.0788633 0
M  V30 2525 H 226.63 -3.63393 -1.61343 0
M  V30 2526 N 227.627 0.131896 -1.57047 0
M  V30 2527 C 228.575 1.18146 -2.0036 0
M  V30 2528 C 229.569 1.43614 -0.898406 0
M  V30 2529 O 230.775 1.43729 -1.08361 0
M  V30 2530 H 227.15 0.398042 -0.638018 0
M  V30 2531 H 229.121 0.789564 -2.87765 0
M  V30 2532 C 227.87 2.50341 -2.41298 0
M  V30 2533 H 227.193 2.31578 -3.25902 0
M  V30 2534 H 228.633 3.22371 -2.75414 0
M  V30 2535 C 227.092 3.11984 -1.27153 0
M  V30 2536 O 227.622 3.97484 -0.580459 0
M  V30 2537 N 225.828 2.71662 -1.03189 0
M  V30 2538 H 225.375 2.02231 -1.59564 0
M  V30 2539 H 225.333 3.13238 -0.270077 0
M  V30 2540 N 229.106 1.52395 0.401703 0
M  V30 2541 C 230.016 1.7917 1.51444 0
M  V30 2542 C 231.032 0.677691 1.6026 0
M  V30 2543 O 232.208 0.963909 1.76835 0
M  V30 2544 C 229.273 1.94347 2.87107 0
M  V30 2545 C 228.334 3.18257 2.88116 0
M  V30 2546 C 227.567 3.32701 4.17308 0
M  V30 2547 O 227.79 2.52238 5.11598 0
M  V30 2548 O 226.724 4.25891 4.25324 0
M  V30 2549 H 230.55 2.73633 1.31752 0
M  V30 2550 H 228.135 1.3733 0.588296 0
M  V30 2551 H 230.017 2.06109 3.67555 0
M  V30 2552 H 228.692 1.03073 3.06851 0
M  V30 2553 H 227.599 3.11947 2.06494 0
M  V30 2554 H 228.932 4.09336 2.73322 0
M  V30 2555 N 230.584 -0.659388 1.43143 0
M  V30 2556 C 231.812 -1.44723 1.47861 0
M  V30 2557 C 232.227 -1.88563 0.0945886 0
M  V30 2558 O 231.584 -1.59108 -0.893915 0
M  V30 2559 C 231.635 -2.68627 2.41913 0
M  V30 2560 O 231.356 -2.26623 3.74932 0
M  V30 2561 C 232.857 -3.62045 2.55809 0
M  V30 2562 H 230.077 -0.444801 0.502387 0
M  V30 2563 H 232.621 -0.808916 1.87821 0
M  V30 2564 H 230.776 -3.28613 2.05164 0
M  V30 2565 H 231.19 -3.06745 4.2545 0
M  V30 2566 H 232.664 -4.45666 3.25708 0
M  V30 2567 H 233.141 -4.08981 1.60099 0
M  V30 2568 H 233.747 -3.07944 2.93344 0
M  V30 2569 N 232.062 -1.29571 -0.897171 0
M  V30 2570 C 232.992 -1.17473 -2.01798 0
M  V30 2571 C 233.973 -0.068323 -1.69963 0
M  V30 2572 O 235.158 -0.248239 -1.92607 0
M  V30 2573 C 232.288 -0.853099 -3.36659 0
M  V30 2574 C 231.242 -1.9161 -3.82713 0
M  V30 2575 C 230.568 -1.44773 -5.14728 0
M  V30 2576 C 231.868 -3.32535 -4.02763 0
M  V30 2577 H 233.562 -2.11237 -2.12177 0
M  V30 2578 H 231.108 -1.01699 -1.01948 0
M  V30 2579 H 233.061 -0.755165 -4.14578 0
M  V30 2580 H 231.785 0.120236 -3.26379 0
M  V30 2581 H 230.444 -2.00346 -3.07013 0
M  V30 2582 H 230.092 -0.462995 -5.00865 0
M  V30 2583 H 229.792 -2.15865 -5.46513 0
M  V30 2584 H 231.316 -1.36334 -5.95185 0
M  V30 2585 H 232.73 -3.26626 -4.71156 0
M  V30 2586 H 231.127 -4.01607 -4.45905 0
M  V30 2587 H 232.197 -3.75326 -3.07016 0
M  V30 2588 N 233.54 1.10788 -1.12088 0
M  V30 2589 C 234.951 1.64181 -0.88891 0
M  V30 2590 C 235.302 1.87508 0.577498 0
M  V30 2591 O 234.427 1.61434 1.44112 0
M  V30 2592 C 235.022 2.98257 -1.60712 0
M  V30 2593 C 233.581 3.4853 -1.42139 0
M  V30 2594 C 232.728 2.23208 -1.6454 0
M  V30 2595 H 235.679 0.943368 -1.27618 0
M  V30 2596 H 235.7 3.65552 -1.05604 0
M  V30 2597 H 235.212 2.81246 -2.67436 0
M  V30 2598 H 233.313 3.70692 -0.376552 0
M  V30 2599 H 233.426 4.26882 -2.17505 0
M  V30 2600 H 231.79 2.31169 -1.06925 0
M  V30 2601 H 232.573 2.08733 -2.72554 0
M  V30 2602 N 235.018 0.912232 1.28515 0
M  V30 2603 C 236.264 0.545405 1.95328 0
M  V30 2604 C 236.597 -0.908313 1.71649 0
M  V30 2605 O 235.872 -1.64575 1.03659 0
M  V30 2606 C 236.155 0.853483 3.4984 0
M  V30 2607 C 236.008 2.35982 3.82926 0
M  V30 2608 C 237.327 0.348589 4.38717 0
M  V30 2609 H 234.446 0.199626 0.709449 0
M  V30 2610 H 237.088 1.1412 1.5191 0
M  V30 2611 H 235.238 0.34643 3.86952 0
M  V30 2612 H 236.91 2.93738 3.55691 0
M  V30 2613 H 235.153 2.81543 3.30024 0
M  V30 2614 H 235.824 2.52593 4.90816 0
M  V30 2615 H 238.3 0.78294 4.08668 0
M  V30 2616 H 237.176 0.593242 5.45685 0
M  V30 2617 H 237.437 -0.751049 4.35674 0
M  V30 2618 N 236.496 -1.42363 0.676048 0
M  V30 2619 C 237.406 -2.346 -0.00153389 0
M  V30 2620 C 238.422 -1.5516 -0.787485 0
M  V30 2621 O 239.598 -1.87723 -0.729521 0
M  V30 2622 C 236.663 -3.33705 -0.940298 0
M  V30 2623 C 235.724 -4.29042 -0.148739 0
M  V30 2624 C 234.957 -5.23413 -1.04279 0
M  V30 2625 O 235.18 -5.22749 -2.28232 0
M  V30 2626 O 234.114 -5.99795 -0.502925 0
M  V30 2627 H 237.94 -2.94082 0.758268 0
M  V30 2628 H 235.525 -1.42888 0.436289 0
M  V30 2629 H 237.407 -3.94586 -1.47917 0
M  V30 2630 H 236.082 -2.76695 -1.67993 0
M  V30 2631 H 234.989 -3.71571 0.43427 0
M  V30 2632 H 236.322 -4.89097 0.551805 0
M  V30 2633 N 237.974 -0.419461 -1.51915 0
M  V30 2634 C 239.204 0.151915 -2.06041 0
M  V30 2635 C 239.612 1.38539 -1.28855 0
M  V30 2636 O 238.955 1.80592 -0.336463 0
M  V30 2637 C 239.017 0.557119 -3.55157 0
M  V30 2638 C 238.681 -0.567054 -4.53468 0
M  V30 2639 C 239.678 -1.43379 -4.99738 0
M  V30 2640 C 237.363 -0.742693 -4.96779 0
M  V30 2641 C 239.357 -2.46102 -5.87973 0
M  V30 2642 C 237.044 -1.77322 -5.84808 0
M  V30 2643 C 238.042 -2.63078 -6.30301 0
M  V30 2644 O 237.73 -3.64364 -7.16585 0
M  V30 2645 H 237.462 0.0193293 -0.675724 0
M  V30 2646 H 240.016 -0.592073 -1.96682 0
M  V30 2647 H 238.246 1.35355 -3.62238 0
M  V30 2648 H 239.935 1.05759 -3.9188 0
M  V30 2649 H 240.701 -1.30954 -4.66986 0
M  V30 2650 H 236.58 -0.0848307 -4.60922 0
M  V30 2651 H 240.124 -3.13071 -6.23404 0
M  V30 2652 H 236.021 -1.89773 -6.16974 0
M  V30 2653 H 236.789 -3.60731 -7.34721 0
M  V30 2654 N 239.452 1.56882 -0.150215 0
M  V30 2655 C 240.382 2.19935 0.784284 0
M  V30 2656 C 241.363 1.14854 1.25469 0
M  V30 2657 O 242.548 1.43209 1.31168 0
M  V30 2658 C 239.678 2.82349 2.02229 0
M  V30 2659 C 238.632 3.93285 1.68853 0
M  V30 2660 C 237.958 4.42649 2.99944 0
M  V30 2661 C 239.258 5.13904 0.932714 0
M  V30 2662 H 240.952 2.9828 0.258781 0
M  V30 2663 H 238.498 1.43473 0.123029 0
M  V30 2664 H 240.451 3.25126 2.68088 0
M  V30 2665 H 239.175 2.0134 2.57157 0
M  V30 2666 H 237.834 3.5113 1.05371 0
M  V30 2667 H 237.482 3.58458 3.52869 0
M  V30 2668 H 237.182 5.17476 2.78374 0
M  V30 2669 H 238.706 4.88099 3.66868 0
M  V30 2670 H 240.12 5.53506 1.49345 0
M  V30 2671 H 238.517 5.94515 0.81684 0
M  V30 2672 H 239.587 4.84842 -0.0749568 0
M  V30 2673 N 240.93 -0.123565 1.57115 0
M  V30 2674 C 242.178 -0.83051 1.84247 0
M  V30 2675 C 242.499 -1.80629 0.73471 0
M  V30 2676 O 241.769 -1.94403 -0.241688 0
M  V30 2677 H 240.349 -0.309694 0.679778 0
M  V30 2678 H 243.011 -0.111976 1.94578 0
M  V30 2679 H 242.107 -1.37852 2.80006 0
M  V30 2680 N 242.408 -1.52605 -0.393616 0
M  V30 2681 C 243.656 -1.67093 -1.13685 0
M  V30 2682 C 243.977 -0.411011 -1.90619 0
M  V30 2683 O 243.247 0.574491 -1.87287 0
M  V30 2684 H 241.827 -0.615923 -0.422668 0
M  V30 2685 H 244.489 -1.89704 -0.447039 0
M  V30 2686 H 243.585 -2.51922 -1.84232 0
M  V30 2687 N 243.887 0.651787 -1.4349 0
M  V30 2688 C 244.834 1.76462 -1.4876 0
M  V30 2689 C 245.804 1.62641 -0.337189 0
M  V30 2690 O 246.989 1.82864 -0.544544 0
M  V30 2691 C 244.129 3.14623 -1.41796 0
M  V30 2692 C 243.242 3.39568 -2.67053 0
M  V30 2693 C 242.377 4.67585 -2.52068 0
M  V30 2694 C 241.416 4.85639 -3.72587 0
M  V30 2695 N 240.553 6.04915 -3.56402 0
M  V30 2696 H 245.393 1.71293 -2.43849 0
M  V30 2697 H 242.93 0.835889 -1.21043 0
M  V30 2698 H 244.888 3.94496 -1.35753 0
M  V30 2699 H 243.518 3.18859 -0.50288 0
M  V30 2700 H 242.57 2.53783 -2.8337 0
M  V30 2701 H 243.882 3.48795 -3.56572 0
M  V30 2702 H 243.036 5.55586 -2.4374 0
M  V30 2703 H 241.775 4.60681 -1.60075 0
M  V30 2704 H 240.78 3.96073 -3.81321 0
M  V30 2705 H 242.005 4.94372 -4.65589 0
M  V30 2706 H 239.951 5.9914 -2.67146 0
M  V30 2707 H 239.868 6.15106 -4.39524 0
M  V30 2708 H 241.136 6.95533 -3.51929 0
M  V30 2709 N 245.365 1.30045 0.890287 0
M  V30 2710 C 246.776 1.16738 1.45702 0
M  V30 2711 C 247.127 -0.233939 1.948 0
M  V30 2712 O 246.252 -1.13021 1.84541 0
M  V30 2713 C 246.847 2.11313 2.64825 0
M  V30 2714 C 245.406 2.02001 3.17604 0
M  V30 2715 C 244.553 2.01699 1.90296 0
M  V30 2716 H 247.504 1.42392 0.700726 0
M  V30 2717 H 247.525 1.69086 3.40867 0
M  V30 2718 H 247.037 3.13294 2.2906 0
M  V30 2719 H 245.138 1.03142 3.5804 0
M  V30 2720 H 245.251 2.90128 3.81264 0
M  V30 2721 H 243.615 1.46427 2.08402 0
M  V30 2722 H 244.398 3.05402 1.56795 0
M  V30 2723 N 246.843 -1.10192 1.12674 0
M  V30 2724 C 247.773 -2.18652 0.819362 0
M  V30 2725 C 248.754 -1.68698 -0.217915 0
M  V30 2726 O 249.939 -1.94041 -0.0785581 0
M  V30 2727 C 247.069 -3.46202 0.27594 0
M  V30 2728 C 246.023 -4.09444 1.24656 0
M  V30 2729 C 245.349 -5.31725 0.563258 0
M  V30 2730 C 246.649 -4.52863 2.60217 0
M  V30 2731 H 248.343 -2.44622 1.72628 0
M  V30 2732 H 245.889 -1.17571 0.831451 0
M  V30 2733 H 247.842 -4.21372 0.0486149 0
M  V30 2734 H 246.566 -3.1973 -0.666331 0
M  V30 2735 H 245.225 -3.36284 1.45974 0
M  V30 2736 H 244.873 -5.0153 -0.384235 0
M  V30 2737 H 244.573 -5.74991 1.21075 0
M  V30 2738 H 246.097 -6.09624 0.34503 0
M  V30 2739 H 247.511 -5.19294 2.42913 0
M  V30 2740 H 245.908 -5.06986 3.21068 0
M  V30 2741 H 246.978 -3.65656 3.18471 0
M  V30 2742 N 248.321 -0.919034 -1.28029 0
M  V30 2743 C 249.561 -0.562107 -1.96519 0
M  V30 2744 C 249.925 0.878784 -1.70708 0
M  V30 2745 O 251.126 1.34355 -2.32813 0
M  V30 2746 C 249.397 -0.868953 -3.46676 0
M  V30 2747 S 250.956 -0.619237 -4.34409 0
M  V30 2748 H 247.774 -0.2078 -0.679956 0
M  V30 2749 H 250.376 -1.18562 -1.55446 0
M  V30 2750 H 249.08 -1.91547 -3.62957 0
M  V30 2751 H 248.611 -0.234301 -3.92702 0
M  V30 2752 H 250.626 0.526995 -4.93394 0
M  V30 2753 N 249.799 1.42003 -0.683588 0
M  V30 2754 C 250.732 2.28166 0.039592 0
M  V30 2755 C 251.71 1.41562 0.799942 0
M  V30 2756 O 252.894 1.70997 0.793248 0
M  V30 2757 C 250.021 3.21575 1.06335 0
M  V30 2758 C 249.067 4.24643 0.397562 0
M  V30 2759 S 249.9 5.2869 -0.851296 0
M  V30 2760 C 251.056 6.25666 0.171166 0
M  V30 2761 H 251.289 2.89153 -0.691229 0
M  V30 2762 H 248.822 1.46962 -0.473435 0
M  V30 2763 H 250.78 3.75928 1.6489 0
M  V30 2764 H 249.441 2.59707 1.76667 0
M  V30 2765 H 248.634 4.90223 1.17035 0
M  V30 2766 H 248.236 3.73824 -0.114611 0
M  V30 2767 H 250.528 6.69653 1.02819 0
M  V30 2768 H 251.471 7.06666 -0.450397 0
M  V30 2769 H 251.879 5.62095 0.520578 0
M  V30 2770 N 251.277 0.427512 1.51691 0
M  V30 2771 C 252.225 -0.403359 2.29076 0
M  V30 2772 C 253.219 -1.02962 1.34518 0
M  V30 2773 O 254.425 -0.965715 1.51901 0
M  V30 2774 H 250.8 -0.148879 0.737115 0
M  V30 2775 H 252.771 0.270295 2.97173 0
M  V30 2776 C 251.52 -1.49763 3.13794 0
M  V30 2777 H 250.843 -1.02508 3.86435 0
M  V30 2778 H 252.283 -2.05244 3.71014 0
M  V30 2779 C 250.742 -2.47536 2.28533 0
M  V30 2780 O 251.272 -3.51848 1.93819 0
M  V30 2781 N 249.478 -2.18187 1.91945 0
M  V30 2782 H 249.025 -1.33389 2.20375 0
M  V30 2783 H 248.983 -2.83848 1.35195 0
M  V30 2784 N 252.755 -1.56801 0.158532 0
M  V30 2785 C 253.687 -2.14488 -0.807923 0
M  V30 2786 C 254.7 -1.09721 -1.20271 0
M  V30 2787 O 255.889 -1.36956 -1.14478 0
M  V30 2788 C 252.989 -2.66217 -2.09718 0
M  V30 2789 C 252.162 -3.95507 -1.86796 0
M  V30 2790 C 251.221 -4.3243 -2.99818 0
M  V30 2791 O 250.247 -5.00543 -2.71008 0
M  V30 2792 N 251.449 -3.92947 -4.27285 0
M  V30 2793 H 254.214 -2.98042 -0.314816 0
M  V30 2794 H 251.775 -1.61881 -0.0246692 0
M  V30 2795 H 253.767 -2.87924 -2.84398 0
M  V30 2796 H 252.337 -1.87324 -2.50257 0
M  V30 2797 H 251.557 -3.82309 -0.96089 0
M  V30 2798 H 252.845 -4.79972 -1.68833 0
M  V30 2799 H 252.243 -3.38087 -4.53557 0
M  V30 2800 H 250.8 -4.19681 -4.9871 0
M  V30 2801 N 254.233 0.115231 -1.57178 0
M  V30 2802 C 255.463 0.835224 -1.88964 0
M  V30 2803 C 255.871 1.73774 -0.74829 0
M  V30 2804 O 255.214 1.81401 0.289739 0
M  V30 2805 C 255.276 1.7178 -3.15804 0
M  V30 2806 C 254.94 0.989198 -4.46166 0
M  V30 2807 C 255.937 0.328263 -5.18863 0
M  V30 2808 C 253.622 0.969256 -4.9286 0
M  V30 2809 C 255.616 -0.342873 -6.36477 0
M  V30 2810 C 253.303 0.294324 -6.10391 0
M  V30 2811 C 254.301 -0.360582 -6.82048 0
M  V30 2812 O 253.989 -1.02474 -7.97342 0
M  V30 2813 H 253.721 0.245197 -0.629964 0
M  V30 2814 H 256.275 0.10303 -2.05141 0
M  V30 2815 H 254.505 2.49173 -2.95719 0
M  V30 2816 H 256.194 2.31255 -3.33581 0
M  V30 2817 H 256.96 0.335263 -4.8384 0
M  V30 2818 H 252.839 1.46844 -4.36987 0
M  V30 2819 H 256.383 -0.854629 -6.92345 0
M  V30 2820 H 252.28 0.285099 -6.4487 0
M  V30 2821 H 253.048 -0.929594 -8.13204 0
M  V30 2822 N 255.711 1.52812 0.385517 0
M  V30 2823 C 256.941 1.71658 1.14966 0
M  V30 2824 C 257.349 0.436253 1.84102 0
M  V30 2825 O 256.692 -0.599313 1.73649 0
M  V30 2826 C 256.754 2.81309 2.23843 0
M  V30 2827 C 256.418 4.22313 1.74644 0
M  V30 2828 C 257.415 5.05352 1.22129 0
M  V30 2829 C 255.1 4.68648 1.80761 0
M  V30 2830 C 257.094 6.32807 0.763838 0
M  V30 2831 C 254.781 5.96086 1.34627 0
M  V30 2832 C 255.779 6.77996 0.825264 0
M  V30 2833 O 255.467 8.03045 0.370669 0
M  V30 2834 H 255.199 0.578022 0.350523 0
M  V30 2835 H 257.753 2.00263 0.456509 0
M  V30 2836 H 255.983 2.48133 2.96592 0
M  V30 2837 H 257.672 2.88524 2.85497 0
M  V30 2838 H 258.438 4.70736 1.16758 0
M  V30 2839 H 254.317 4.04979 2.20256 0
M  V30 2840 H 257.861 6.96689 0.356494 0
M  V30 2841 H 253.758 6.30205 1.39686 0
M  V30 2842 H 254.526 8.17021 0.491829 0
M  V30 2843 N 257.189 -0.644168 1.43834 0
M  V30 2844 C 258.121 -1.76955 1.45669 0
M  V30 2845 C 259.134 -1.58956 0.351666 0
M  V30 2846 O 260.323 -1.6751 0.616644 0
M  V30 2847 C 257.423 -3.14507 1.26248 0
M  V30 2848 C 256.596 -3.59083 2.49757 0
M  V30 2849 C 255.655 -4.75467 2.25427 0
M  V30 2850 O 254.681 -4.84444 2.98836 0
M  V30 2851 N 255.883 -5.66289 1.27661 0
M  V30 2852 H 258.648 -1.75856 2.42682 0
M  V30 2853 H 256.209 -0.828312 1.39106 0
M  V30 2854 H 258.201 -3.90067 1.0784 0
M  V30 2855 H 256.771 -3.10325 0.376478 0
M  V30 2856 H 255.991 -2.7387 2.8353 0
M  V30 2857 H 257.279 -3.85613 3.31934 0
M  V30 2858 H 256.677 -5.61718 0.670064 0
M  V30 2859 H 255.234 -6.41533 1.15234 0
M  V30 2860 N 258.668 -1.30515 -0.883378 0
M  V30 2861 C 259.917 -1.18795 -1.63005 0
M  V30 2862 C 260.23 0.255923 -1.93919 0
M  V30 2863 O 261.436 0.494654 -2.66956 0
M  V30 2864 C 259.892 -2.07878 -2.93794 0
M  V30 2865 C 259.5 -3.57184 -2.70414 0
M  V30 2866 C 261.244 -2.04924 -3.71761 0
M  V30 2867 C 259.151 -4.38317 -3.97029 0
M  V30 2868 H 258.081 -0.441031 -0.611562 0
M  V30 2869 H 260.732 -1.55275 -0.977854 0
M  V30 2870 H 259.114 -1.64283 -3.60315 0
M  V30 2871 H 260.288 -4.08937 -2.12384 0
M  V30 2872 H 258.603 -3.61976 -2.0582 0
M  V30 2873 H 261.2 -2.62792 -4.65665 0
M  V30 2874 H 261.543 -1.0331 -4.03277 0
M  V30 2875 H 262.076 -2.46649 -3.12104 0
M  V30 2876 H 258.815 -5.40632 -3.70671 0
M  V30 2877 H 258.335 -3.91326 -4.54559 0
M  V30 2878 H 260.014 -4.49834 -4.65036 0
M  V30 2879 N 260.146 1.09593 -1.13257 0
M  V30 2880 C 261.076 2.18214 -0.830946 0
M  V30 2881 C 262.057 1.68812 0.208966 0
M  V30 2882 O 263.242 1.9408 0.0682666 0
M  V30 2883 C 260.372 3.46051 -0.294296 0
M  V30 2884 C 259.326 4.08778 -1.26826 0
M  V30 2885 C 258.652 5.31419 -0.591449 0
M  V30 2886 C 259.952 4.51476 -2.62615 0
M  V30 2887 H 261.646 2.43703 -1.73923 0
M  V30 2888 H 259.192 1.17128 -0.837675 0
M  V30 2889 H 261.145 4.2134 -0.0709606 0
M  V30 2890 H 259.869 3.20079 0.649366 0
M  V30 2891 H 258.528 3.35505 -1.47756 0
M  V30 2892 H 258.176 5.01727 0.357633 0
M  V30 2893 H 257.876 5.74341 -1.24123 0
M  V30 2894 H 259.4 6.09433 -0.377355 0
M  V30 2895 H 260.814 5.17999 -2.45663 0
M  V30 2896 H 259.211 5.05277 -3.23752 0
M  V30 2897 H 260.281 3.63962 -3.20406 0
M  V30 2898 N 261.624 0.925811 1.2754 0
M  V30 2899 C 262.849 0.580924 1.99098 0
M  V30 2900 C 263.274 -0.833555 1.68622 0
M  V30 2901 O 262.632 -1.55903 0.925422 0
M  V30 2902 C 262.68 0.811186 3.51358 0
M  V30 2903 O 261.784 -0.124129 4.12213 0
M  V30 2904 H 261.125 0.223873 0.625122 0
M  V30 2905 H 263.655 1.24455 1.62395 0
M  V30 2906 H 263.665 0.72601 4.01489 0
M  V30 2907 H 262.34 1.84227 3.72872 0
M  V30 2908 H 260.917 0.0108006 3.72898 0
M  V30 2909 N 263.102 -1.41638 0.69111 0
M  V30 2910 C 264.327 -2.06148 0.227583 0
M  V30 2911 C 264.752 -1.51652 -1.11281 0
M  V30 2912 O 264.11 -0.64164 -1.69566 0
M  V30 2913 C 264.158 -3.60095 0.190858 0
M  V30 2914 O 263.262 -4.03845 -0.835664 0
M  V30 2915 H 262.603 -0.654434 0.112306 0
M  V30 2916 H 265.133 -1.81484 0.944714 0
M  V30 2917 H 265.143 -4.07995 0.020207 0
M  V30 2918 H 263.818 -3.99129 1.16915 0
M  V30 2919 H 262.395 -3.67458 -0.63473 0
M  V30 2920 N 264.58 -0.43555 -1.51462 0
M  V30 2921 C 265.82 0.130708 -2.03982 0
M  V30 2922 C 266.184 1.40117 -1.31268 0
M  V30 2923 O 267.385 2.04755 -1.74152 0
M  V30 2924 C 265.656 0.346102 -3.5572 0
M  V30 2925 S 267.215 0.876022 -4.29967 0
M  V30 2926 H 264.033 0.0326881 -0.710248 0
M  V30 2927 H 266.635 -0.594544 -1.8624 0
M  V30 2928 H 265.339 -0.584911 -4.0621 0
M  V30 2929 H 264.87 1.09849 -3.77752 0
M  V30 2930 H 266.885 2.15379 -4.47019 0
M  V30 2931 N 266.058 1.56714 -0.166846 0
M  V30 2932 C 267.474 1.58473 0.189372 0
M  V30 2933 C 267.674 1.18201 1.63189 0
M  V30 2934 O 266.73 0.891528 2.36237 0
M  V30 2935 C 268.043 3.00573 -0.0873872 0
M  V30 2936 C 269.591 3.1299 -0.0252443 0
M  V30 2937 C 270.066 4.57174 -0.274934 0
M  V30 2938 N 271.557 4.62665 -0.222553 0
M  V30 2939 C 272.292 5.72072 -0.389985 0
M  V30 2940 N 271.788 6.90054 -0.616229 0
M  V30 2941 N 273.581 5.61153 -0.326202 0
M  V30 2942 H 265.732 1.8118 -1.10849 0
M  V30 2943 H 267.995 0.839525 -0.440342 0
M  V30 2944 H 267.701 3.34497 -1.0865 0
M  V30 2945 H 267.575 3.72019 0.623037 0
M  V30 2946 H 269.962 2.78895 0.96444 0
M  V30 2947 H 270.043 2.43989 -0.768309 0
M  V30 2948 H 269.687 4.91976 -1.26181 0
M  V30 2949 H 269.617 5.24328 0.48869 0
M  V30 2950 H 272.108 3.77863 -0.0531512 0
M  V30 2951 H 272.421 7.69311 -0.733559 0
M  V30 2952 H 270.766 6.91927 -0.652791 0
M  V30 2953 H 273.957 4.67859 -0.150072 0
M  V30 2954 H 274.13 6.46364 -0.460116 0
M  V30 2955 N 267.536 -0.106894 1.57237 0
M  V30 2956 C 268.782 -0.81373 1.85759 0
M  V30 2957 C 269.115 -1.78952 0.754315 0
M  V30 2958 O 268.39 -1.93029 -0.23879 0
M  V30 2959 C 268.673 -1.55293 3.24894 0
M  V30 2960 C 268.526 -0.595929 4.45835 0
M  V30 2961 C 269.845 -2.5063 3.61763 0
M  V30 2962 H 266.964 -0.294369 0.67566 0
M  V30 2963 H 269.606 -0.0776472 1.89841 0
M  V30 2964 H 267.756 -2.1804 3.21544 0
M  V30 2965 H 269.428 0.0236262 4.61294 0
M  V30 2966 H 267.671 0.0916191 4.33703 0
M  V30 2967 H 268.342 -1.15004 5.39887 0
M  V30 2968 H 270.818 -1.97982 3.65981 0
M  V30 2969 H 269.694 -2.99376 4.60071 0
M  V30 2970 H 269.955 -3.3385 2.89821 0
M  V30 2971 N 269.014 -1.53014 -0.377408 0
M  V30 2972 C 270.425 -1.60438 -0.954798 0
M  V30 2973 C 270.776 -0.464418 -1.90624 0
M  V30 2974 O 269.901 0.41087 -2.12464 0
M  V30 2975 C 270.496 -2.90797 -1.73847 0
M  V30 2976 C 269.055 -3.00595 -2.26538 0
M  V30 2977 C 268.202 -2.55645 -1.07429 0
M  V30 2978 H 271.153 -1.57926 -0.156575 0
M  V30 2979 H 271.174 -2.77935 -2.5987 0
M  V30 2980 H 270.686 -3.73746 -1.04574 0
M  V30 2981 H 268.787 -2.22208 -2.99089 0
M  V30 2982 H 268.9 -4.05456 -2.5523 0
M  V30 2983 H 267.264 -2.10239 -1.43777 0
M  V30 2984 H 268.047 -3.41 -0.396728 0
M  V30 2985 N 270.492 0.636531 -1.44174 0
M  V30 2986 C 271.74 1.39343 -1.46383 0
M  V30 2987 C 272.061 1.94766 -0.0955715 0
M  V30 2988 O 271.331 1.75452 0.871395 0
M  V30 2989 H 269.911 0.517199 -0.538994 0
M  V30 2990 H 272.573 0.74957 -1.7991 0
M  V30 2991 H 271.669 2.22746 -2.18611 0
M  V30 2992 N 271.97 1.30982 0.876444 0
M  V30 2993 C 273.381 1.18277 1.44456 0
M  V30 2994 C 273.732 -0.213265 1.95037 0
M  V30 2995 O 272.857 -1.11057 1.85729 0
M  V30 2996 C 273.452 2.1411 2.62569 0
M  V30 2997 C 272.011 2.05358 3.15444 0
M  V30 2998 C 271.158 2.03706 1.88146 0
M  V30 2999 H 274.109 1.43127 0.685584 0
M  V30 3000 H 274.13 1.72692 3.39054 0
M  V30 3001 H 273.642 3.15706 2.25724 0
M  V30 3002 H 271.743 1.06934 3.56926 0
M  V30 3003 H 271.856 2.94156 3.78166 0
M  V30 3004 H 270.22 1.48629 2.06837 0
M  V30 3005 H 271.003 3.07047 1.53547 0
M  V30 3006 N 273.449 -1.08991 1.13837 0
M  V30 3007 C 274.396 -2.15748 0.819835 0
M  V30 3008 C 275.366 -1.64636 -0.220026 0
M  V30 3009 O 276.551 -1.90582 -0.0912757 0
M  V30 3010 C 273.691 -3.4382 0.296913 0
M  V30 3011 C 272.804 -4.0881 1.39636 0
M  V30 3012 C 271.939 -5.24655 0.831314 0
M  V30 3013 C 270.978 -5.81575 1.90886 0
M  V30 3014 N 270.115 -6.88774 1.36142 0
M  V30 3015 H 274.955 -2.42338 1.73426 0
M  V30 3016 H 272.492 -1.18935 0.865613 0
M  V30 3017 H 274.45 -4.17193 -0.0244339 0
M  V30 3018 H 273.08 -3.17535 -0.580628 0
M  V30 3019 H 272.132 -3.33258 1.83422 0
M  V30 3020 H 273.444 -4.47141 2.21058 0
M  V30 3021 H 272.598 -6.04942 0.461515 0
M  V30 3022 H 271.337 -4.87698 -0.013932 0
M  V30 3023 H 270.342 -4.99946 2.28767 0
M  V30 3024 H 271.567 -6.20592 2.75758 0
M  V30 3025 H 269.513 -6.53788 0.538254 0
M  V30 3026 H 269.43 -7.25898 2.11208 0
M  V30 3027 H 270.698 -7.72806 1.01933 0
M  V30 3028 N 274.927 -0.932562 -1.27047 0
M  V30 3029 C 275.859 -0.392734 -2.2581 0
M  V30 3030 C 276.872 0.479241 -1.55586 0
M  V30 3031 O 278.061 0.291078 -1.76111 0
M  V30 3032 C 275.161 0.455456 -3.35826 0
M  V30 3033 C 274.334 -0.398355 -4.35582 0
M  V30 3034 C 273.393 0.387985 -5.24768 0
M  V30 3035 O 272.419 -0.206003 -5.68827 0
M  V30 3036 N 273.621 1.68664 -5.55457 0
M  V30 3037 H 276.386 -1.24173 -2.72766 0
M  V30 3038 H 273.947 -0.800511 -1.40725 0
M  V30 3039 H 275.939 0.988692 -3.92437 0
M  V30 3040 H 274.509 1.20522 -2.88432 0
M  V30 3041 H 273.729 -1.11286 -3.78165 0
M  V30 3042 H 275.017 -0.981889 -4.99236 0
M  V30 3043 H 274.415 2.19147 -5.21528 0
M  V30 3044 H 272.972 2.1663 -6.14748 0
M  V30 3045 N 276.405 1.4127 -0.698611 0
M  V30 3046 C 277.682 1.94955 -0.158762 0
M  V30 3047 C 278.062 1.63781 1.33188 0
M  V30 3048 O 277.41 0.946423 2.07979 0
M  V30 3049 C 277.62 3.46044 -0.453309 0
M  V30 3050 C 278.968 4.22872 -0.382707 0
M  V30 3051 O 279.992 3.54076 -0.388396 0
M  V30 3052 O 278.851 5.45407 -0.345463 0
M  V30 3053 H 275.945 0.82683 -0.0167505 0
M  V30 3054 H 278.491 1.50971 -0.77498 0
M  V30 3055 H 277.263 3.62028 -1.48498 0
M  V30 3056 H 276.886 3.97128 0.19373 0
M  V30 3057 N 277.883 0.443576 1.51229 0
M  V30 3058 C 279.111 -0.11929 2.06556 0
M  V30 3059 C 279.526 -1.35921 1.31038 0
M  V30 3060 O 278.883 -1.78675 0.371704 0
M  V30 3061 C 278.934 -0.435228 3.5887 0
M  V30 3062 O 278.655 0.755486 4.31537 0
M  V30 3063 C 280.156 -1.04808 4.30732 0
M  V30 3064 H 277.376 -0.0051584 0.67098 0
M  V30 3065 H 279.92 0.624453 1.94733 0
M  V30 3066 H 278.075 -1.12887 3.70588 0
M  V30 3067 H 278.489 0.483491 5.22267 0
M  V30 3068 H 279.963 -1.2191 5.3837 0
M  V30 3069 H 280.44 -2.03081 3.89429 0
M  V30 3070 H 281.046 -0.393637 4.23474 0
M  V30 3071 N 279.361 -1.56624 0.175154 0
M  V30 3072 C 280.607 -1.9729 -0.469506 0
M  V30 3073 C 280.94 -1.06128 -1.62636 0
M  V30 3074 O 280.215 -0.109183 -1.94193 0
M  V30 3075 C 280.498 -3.47375 -0.948804 0
M  V30 3076 C 280.351 -4.49317 0.208491 0
M  V30 3077 C 281.67 -4.00652 -1.82116 0
M  V30 3078 H 278.789 -0.717317 -0.16919 0
M  V30 3079 H 281.431 -1.88184 0.262062 0
M  V30 3080 H 279.581 -3.55267 -1.57219 0
M  V30 3081 H 281.253 -4.53482 0.845682 0
M  V30 3082 H 279.496 -4.25121 0.863395 0
M  V30 3083 H 280.167 -5.51741 -0.169059 0
M  V30 3084 H 282.643 -3.95416 -1.2956 0
M  V30 3085 H 281.519 -5.06075 -2.12554 0
M  V30 3086 H 281.78 -3.44699 -2.7683 0
M  V30 3087 N 280.839 0.0985539 -1.57292 0
M  V30 3088 C 282.064 0.820196 -1.90493 0
M  V30 3089 C 282.489 1.71658 -0.769094 0
M  V30 3090 O 281.847 1.79133 0.279495 0
M  V30 3091 C 281.895 1.61242 -3.22542 0
M  V30 3092 O 280.999 2.72108 -3.09888 0
M  V30 3093 H 280.34 0.225547 -0.62452 0
M  V30 3094 H 282.87 0.0748159 -2.04463 0
M  V30 3095 H 282.88 1.99737 -3.55766 0
M  V30 3096 H 281.555 0.954535 -4.04798 0
M  V30 3097 H 280.132 2.36667 -2.88172 0
M  V30 3098 N 282.317 1.53212 0.369288 0
M  V30 3099 C 283.265 1.80054 1.47253 0
M  V30 3100 C 284.259 0.669456 1.55611 0
M  V30 3101 O 285.465 0.852328 1.58541 0
M  V30 3102 H 281.84 0.570034 0.490475 0
M  V30 3103 H 283.811 2.72403 1.21817 0
M  V30 3104 C 282.56 2.00403 2.84137 0
M  V30 3105 H 281.883 2.86876 2.78464 0
M  V30 3106 H 283.323 2.23164 3.60519 0
M  V30 3107 C 281.782 0.782081 3.27697 0
M  V30 3108 O 282.312 -0.0310205 4.01688 0
M  V30 3109 N 280.518 0.606573 2.84199 0
M  V30 3110 H 280.065 1.26939 2.24152 0
M  V30 3111 H 280.023 -0.20962 3.137 0
M  V30 3112 N 283.795 -0.628877 1.44509 0
M  V30 3113 C 285.042 -1.38839 1.47411 0
M  V30 3114 C 285.37 -1.94202 0.10757 0
M  V30 3115 O 284.625 -1.74243 -0.890947 0
M  V30 3116 C 284.924 -2.56995 2.48371 0
M  V30 3117 C 284.59 -2.19908 3.93639 0
M  V30 3118 C 283.252 -2.09506 4.33198 0
M  V30 3119 C 285.604 -1.9064 4.85083 0
M  V30 3120 C 282.932 -1.68028 5.62124 0
M  V30 3121 C 285.284 -1.50655 6.14399 0
M  V30 3122 C 283.948 -1.38796 6.5291 0
M  V30 3123 H 283.218 -0.508048 0.539414 0
M  V30 3124 H 285.865 -0.712913 1.77735 0
M  V30 3125 H 284.17 -3.29786 2.11538 0
M  V30 3126 H 285.867 -3.15223 2.47861 0
M  V30 3127 H 282.457 -2.28922 3.62343 0
M  V30 3128 H 286.641 -1.97585 4.55273 0
M  V30 3129 H 281.897 -1.57452 5.90778 0
M  V30 3130 H 286.071 -1.27048 6.84713 0
M  V30 3131 H 283.698 -1.06429 7.52713 0
M  V30 3132 N 285.273 -1.31445 -0.869486 0
M  V30 3133 C 286.498 -1.24256 -1.66058 0
M  V30 3134 C 286.923 0.188928 -1.87149 0
M  V30 3135 O 286.281 1.13522 -1.4136 0
M  V30 3136 C 286.329 -1.9924 -3.00559 0
M  V30 3137 O 285.433 -1.33007 -3.90362 0
M  V30 3138 H 284.774 -0.428973 -0.506831 0
M  V30 3139 H 287.304 -1.73521 -1.08404 0
M  V30 3140 H 287.314 -2.08854 -3.50491 0
M  V30 3141 H 285.989 -3.03342 -2.84528 0
M  V30 3142 H 284.566 -1.31848 -3.48813 0
M  V30 3143 N 286.751 1.08385 -1.14413 0
M  V30 3144 C 287.698 2.15311 -0.831265 0
M  V30 3145 C 288.668 1.64751 0.211292 0
M  V30 3146 O 289.853 1.90627 0.0811674 0
M  V30 3147 C 286.993 3.43658 -0.315143 0
M  V30 3148 C 286.106 4.08064 -1.41802 0
M  V30 3149 C 285.241 5.24207 -0.859126 0
M  V30 3150 C 284.28 5.80554 -1.93967 0
M  V30 3151 N 283.417 6.88042 -1.39793 0
M  V30 3152 H 288.257 2.41415 -1.74708 0
M  V30 3153 H 285.794 1.18474 -0.871909 0
M  V30 3154 H 287.752 4.172 0.00230884 0
M  V30 3155 H 286.382 3.17839 0.56378 0
M  V30 3156 H 285.434 3.3228 -1.85187 0
M  V30 3157 H 286.746 4.45962 -2.23427 0
M  V30 3158 H 285.9 6.04689 -0.49359 0
M  V30 3159 H 284.639 4.87699 -0.011932 0
M  V30 3160 H 283.644 4.98725 -2.31415 0
M  V30 3161 H 284.869 6.19121 -2.79046 0
M  V30 3162 H 282.815 6.53493 -0.572919 0
M  V30 3163 H 282.732 7.24767 -2.15054 0
M  V30 3164 H 284 7.72255 -1.0603 0
M  V30 3165 N 288.23 0.939286 1.26551 0
M  V30 3166 C 289.458 0.602536 1.97932 0
M  V30 3167 C 289.873 -0.82206 1.69964 0
M  V30 3168 O 289.23 -1.54789 0.966784 0
M  V30 3169 C 289.281 0.832946 3.51773 0
M  V30 3170 O 289.002 2.20151 3.78768 0
M  V30 3171 C 290.503 0.506483 4.40397 0
M  V30 3172 H 287.723 0.227248 0.631347 0
M  V30 3173 H 290.267 1.25948 1.61113 0
M  V30 3174 H 288.422 0.222644 3.8676 0
M  V30 3175 H 288.836 2.26013 4.73306 0
M  V30 3176 H 290.31 0.718333 5.47306 0
M  V30 3177 H 290.787 -0.558451 4.35635 0
M  V30 3178 H 291.393 1.09543 4.10951 0
M  V30 3179 N 289.708 -1.40897 0.706093 0
M  V30 3180 C 290.655 -2.30751 0.0474474 0
M  V30 3181 C 291.625 -1.47678 -0.76029 0
M  V30 3182 O 292.81 -1.76441 -0.726177 0
M  V30 3183 C 289.95 -3.33815 -0.875309 0
M  V30 3184 C 289.063 -4.31961 -0.0580623 0
M  V30 3185 C 288.198 -5.22093 -0.979425 0
M  V30 3186 C 287.237 -6.11902 -0.155706 0
M  V30 3187 N 286.374 -6.94482 -1.03144 0
M  V30 3188 H 291.214 -2.86513 0.819413 0
M  V30 3189 H 288.751 -1.41102 0.415783 0
M  V30 3190 H 290.709 -3.92129 -1.42446 0
M  V30 3191 H 289.339 -2.79579 -1.61356 0
M  V30 3192 H 288.391 -3.75507 0.608147 0
M  V30 3193 H 289.703 -4.95415 0.580082 0
M  V30 3194 H 288.857 -5.85292 -1.59744 0
M  V30 3195 H 287.596 -4.5889 -1.65141 0
M  V30 3196 H 286.601 -5.47742 0.475309 0
M  V30 3197 H 287.826 -6.77162 0.512635 0
M  V30 3198 H 285.772 -6.33877 -1.68924 0
M  V30 3199 H 285.689 -7.54665 -0.449108 0
M  V30 3200 H 286.957 -7.6214 -1.63593 0
M  V30 3201 N 291.186 -0.45159 -1.50991 0
M  V30 3202 C 292.133 0.352625 -2.2809 0
M  V30 3203 C 293.103 1.0044 -1.32291 0
M  V30 3204 O 294.288 1.02058 -1.6121 0
M  V30 3205 C 291.428 1.43983 -3.13629 0
M  V30 3206 C 290.541 0.804772 -4.24438 0
M  V30 3207 C 289.676 1.86822 -4.97263 0
M  V30 3208 C 288.715 1.21236 -5.99973 0
M  V30 3209 N 287.852 2.2178 -6.66152 0
M  V30 3210 H 292.692 -0.311186 -2.96371 0
M  V30 3211 H 290.229 -0.165308 -1.46168 0
M  V30 3212 H 292.187 2.08161 -3.61559 0
M  V30 3213 H 290.817 2.07307 -2.47434 0
M  V30 3214 H 289.869 0.0509129 -3.80366 0
M  V30 3215 H 291.181 0.286076 -4.97979 0
M  V30 3216 H 290.335 2.58628 -5.48813 0
M  V30 3217 H 289.074 2.42068 -4.23385 0
M  V30 3218 H 288.079 0.479828 -5.47702 0
M  V30 3219 H 289.304 0.667051 -6.75816 0
M  V30 3220 H 287.25 2.76079 -5.95077 0
M  V30 3221 H 287.167 1.74841 -7.35504 0
M  V30 3222 H 288.435 2.93026 -7.22327 0
M  V30 3223 N 292.664 1.56529 -0.183458 0
M  V30 3224 C 294.075 1.83739 0.331177 0
M  V30 3225 C 294.426 1.10373 1.62211 0
M  V30 3226 O 293.551 0.36071 2.13373 0
M  V30 3227 C 294.146 3.33306 0.607646 0
M  V30 3228 C 292.705 3.60969 1.06668 0
M  V30 3229 C 291.852 2.77086 0.109029 0
M  V30 3230 H 294.803 1.53379 -0.407484 0
M  V30 3231 H 294.824 3.51444 1.45832 0
M  V30 3232 H 294.336 3.86677 -0.332086 0
M  V30 3233 H 292.437 3.13021 2.0211 0
M  V30 3234 H 292.55 4.69231 0.967447 0
M  V30 3235 H 290.914 2.47319 0.608714 0
M  V30 3236 H 291.697 3.33241 -0.82494 0
M  V30 3237 N 294.142 -0.090211 1.57342 0
M  V30 3238 C 295.553 -0.644173 1.75235 0
M  V30 3239 C 295.904 -1.78865 0.806335 0
M  V30 3240 O 295.029 -2.16395 -0.0140128 0
M  V30 3241 C 295.624 -1.17532 3.1776 0
M  V30 3242 C 294.183 -1.67531 3.37061 0
M  V30 3243 C 293.33 -0.58693 2.71017 0
M  V30 3244 H 296.281 0.135884 1.58117 0
M  V30 3245 H 296.302 -2.04455 3.20902 0
M  V30 3246 H 295.814 -0.342138 3.86589 0
M  V30 3247 H 293.915 -2.53234 2.73319 0
M  V30 3248 H 294.028 -1.76493 4.45406 0
M  V30 3249 H 292.392 -1.02756 2.33052 0
M  V30 3250 H 293.175 0.235758 3.4249 0
M  V30 3251 N 295.62 -1.53406 -0.361157 0
M  V30 3252 C 296.848 -1.73717 -1.12383 0
M  V30 3253 C 297.263 -0.468161 -1.82904 0
M  V30 3254 O 296.62 0.559198 -1.73722 0
M  V30 3255 C 296.671 -2.90558 -2.15078 0
M  V30 3256 O 296.392 -4.12549 -1.47428 0
M  V30 3257 C 297.893 -3.22777 -3.03858 0
M  V30 3258 H 295.113 -0.580896 -0.335858 0
M  V30 3259 H 297.657 -2.00167 -0.418728 0
M  V30 3260 H 295.812 -2.66489 -2.8118 0
M  V30 3261 H 296.226 -4.78009 -2.15887 0
M  V30 3262 H 297.7 -4.07927 -3.71887 0
M  V30 3263 H 298.177 -2.38329 -3.68912 0
M  V30 3264 H 298.783 -3.48787 -2.43367 0
M  V30 3265 N 297.098 0.621204 -1.44841 0
M  V30 3266 C 298.048 1.72663 -1.48901 0
M  V30 3267 C 299.032 1.56964 -0.353702 0
M  V30 3268 O 300.224 1.66532 -0.599669 0
M  V30 3269 C 297.353 3.11381 -1.44557 0
M  V30 3270 C 296.439 3.32514 -2.6324 0
M  V30 3271 N 296.83 3.23969 -3.8843 0
M  V30 3272 C 295.128 3.63343 -2.58647 0
M  V30 3273 C 295.829 3.46062 -4.67564 0
M  V30 3274 N 294.805 3.69407 -3.98797 0
M  V30 3275 H 298.607 1.64529 -2.43531 0
M  V30 3276 H 296.121 0.82401 -1.39942 0
M  V30 3277 H 298.118 3.90667 -1.4555 0
M  V30 3278 H 296.778 3.20674 -0.509731 0
M  V30 3279 H 297.789 3.02669 -4.20252 0
M  V30 3280 H 294.466 3.79556 -1.73906 0
M  V30 3281 H 295.856 3.44963 -5.76585 0
M  V30 3282 N 298.576 1.31904 0.862503 0
M  V30 3283 C 299.825 1.21373 1.61094 0
M  V30 3284 C 300.138 -0.22504 1.94301 0
M  V30 3285 O 301.344 -0.452121 2.67709 0
M  V30 3286 C 299.8 2.12525 2.9045 0
M  V30 3287 C 299.408 3.61441 2.64697 0
M  V30 3288 C 301.152 2.10813 3.68454 0
M  V30 3289 C 299.059 4.44578 3.90006 0
M  V30 3290 H 297.989 0.450705 0.604468 0
M  V30 3291 H 300.64 1.56811 0.953027 0
M  V30 3292 H 299.022 1.69994 3.57656 0
M  V30 3293 H 300.196 4.12264 2.05851 0
M  V30 3294 H 298.511 3.65205 2.00036 0
M  V30 3295 H 301.108 2.70167 4.61426 0
M  V30 3296 H 301.451 1.09713 4.01583 0
M  V30 3297 H 301.984 2.51583 3.08141 0
M  V30 3298 H 298.723 5.46461 3.62023 0
M  V30 3299 H 298.243 3.98508 4.48276 0
M  V30 3300 H 299.922 4.57176 4.5782 0
M  V30 3301 N 300.054 -1.07777 1.14986 0
M  V30 3302 C 301.282 -1.84018 0.945773 0
M  V30 3303 C 301.697 -1.81897 -0.505863 0
M  V30 3304 O 301.054 -1.22726 -1.35072 0
M  V30 3305 C 301.105 -3.31287 1.44677 0
M  V30 3306 O 300.826 -3.33449 2.84154 0
M  V30 3307 C 302.327 -4.24311 1.28355 0
M  V30 3308 H 299.547 -0.580716 0.336169 0
M  V30 3309 H 302.091 -1.36077 1.52654 0
M  V30 3310 H 300.246 -3.76594 0.908625 0
M  V30 3311 H 300.66 -4.25427 3.06777 0
M  V30 3312 H 302.134 -5.2573 1.68261 0
M  V30 3313 H 302.611 -4.38612 0.227184 0
M  V30 3314 H 303.217 -3.84836 1.81056 0
M  V30 3315 N 301.532 -0.945985 -1.26051 0
M  V30 3316 C 302.778 -0.597002 -1.93814 0
M  V30 3317 C 303.111 0.862484 -1.73997 0
M  V30 3318 O 302.386 1.61769 -1.07986 0
M  V30 3319 C 302.669 -0.945937 -3.47454 0
M  V30 3320 C 302.522 -2.46052 -3.76535 0
M  V30 3321 C 303.841 -0.464785 -4.37639 0
M  V30 3322 H 300.96 -0.218366 -0.703907 0
M  V30 3323 H 303.602 -1.18107 -1.48831 0
M  V30 3324 H 301.752 -0.448902 -3.85898 0
M  V30 3325 H 303.424 -3.03065 -3.47778 0
M  V30 3326 H 301.667 -2.90194 -3.22444 0
M  V30 3327 H 302.338 -2.65517 -4.83947 0
M  V30 3328 H 304.814 -0.891016 -4.06448 0
M  V30 3329 H 303.69 -0.737712 -5.4392 0
M  V30 3330 H 303.951 0.635274 -4.37512 0
M  V30 3331 N 303.011 1.40521 -0.713556 0
M  V30 3332 C 304.257 2.01221 -0.252564 0
M  V30 3333 C 304.59 1.56444 1.1506 0
M  V30 3334 O 303.865 0.783597 1.78017 0
M  V30 3335 C 304.148 3.58582 -0.330332 0
M  V30 3336 C 304.001 4.13437 -1.77173 0
M  V30 3337 C 305.32 4.39079 0.299641 0
M  V30 3338 H 302.439 0.731077 -0.0932471 0
M  V30 3339 H 305.081 1.67026 -0.905673 0
M  V30 3340 H 303.231 3.87844 0.225737 0
M  V30 3341 H 304.903 3.9498 -2.38303 0
M  V30 3342 H 303.146 3.67801 -2.3001 0
M  V30 3343 H 303.817 5.22597 -1.77755 0
M  V30 3344 H 306.293 4.15735 -0.174139 0
M  V30 3345 H 305.169 5.4848 0.214771 0
M  V30 3346 H 305.43 4.19915 1.38288 0
M  V30 3347 N 304.489 0.459591 1.5075 0
M  V30 3348 C 305.439 -0.358926 2.25157 0
M  V30 3349 C 306.423 -0.971285 1.28276 0
M  V30 3350 O 307.615 -0.885739 1.53244 0
M  V30 3351 C 304.744 -1.44695 3.11317 0
M  V30 3352 C 303.83 -0.842894 4.15639 0
M  V30 3353 N 304.221 0.0299373 5.05791 0
M  V30 3354 C 302.519 -1.10809 4.32015 0
M  V30 3355 C 303.22 0.371563 5.80512 0
M  V30 3356 N 302.196 -0.250409 5.43023 0
M  V30 3357 H 305.998 0.313636 2.92222 0
M  V30 3358 H 303.512 0.273021 1.60089 0
M  V30 3359 H 305.509 -2.04641 3.63218 0
M  V30 3360 H 304.169 -2.12162 2.45799 0
M  V30 3361 H 305.18 0.39797 5.16369 0
M  V30 3362 H 301.857 -1.7786 3.77719 0
M  V30 3363 H 303.247 1.08319 6.63111 0
M  V30 3364 N 305.967 -1.56429 0.191757 0
M  V30 3365 C 306.915 -2.20273 -0.747174 0
M  V30 3366 C 307.909 -1.17288 -1.22229 0
M  V30 3367 O 309.115 -1.35441 -1.18557 0
M  V30 3368 H 305.49 -0.705885 -0.259289 0
M  V30 3369 H 307.461 -2.97826 -0.184963 0
M  V30 3370 C 306.21 -2.87356 -1.95759 0
M  V30 3371 H 305.533 -3.66341 -1.60106 0
M  V30 3372 H 306.973 -3.3547 -2.59299 0
M  V30 3373 C 305.432 -1.88213 -2.79423 0
M  V30 3374 O 305.962 -1.38033 -3.7724 0
M  V30 3375 N 304.168 -1.56516 -2.44849 0
M  V30 3376 H 303.715 -1.97516 -1.65364 0
M  V30 3377 H 303.673 -0.904369 -3.01112 0
M  V30 3378 N 307.445 0.0818655 -1.57387 0
M  V30 3379 C 308.675 0.794954 -1.90694 0
M  V30 3380 C 309.083 1.72147 -0.784982 0
M  V30 3381 O 308.426 1.81974 0.251196 0
M  V30 3382 C 308.488 1.65042 -3.19376 0
M  V30 3383 C 308.152 0.894337 -4.48164 0
M  V30 3384 C 309.149 0.21813 -5.19442 0
M  V30 3385 C 306.834 0.864495 -4.94805 0
M  V30 3386 C 308.828 -0.477802 -6.35607 0
M  V30 3387 C 306.515 0.164785 -6.10878 0
M  V30 3388 C 307.513 -0.505173 -6.81129 0
M  V30 3389 O 307.201 -1.19363 -7.94989 0
M  V30 3390 H 306.933 0.231779 -0.635023 0
M  V30 3391 H 309.487 0.059493 -2.05314 0
M  V30 3392 H 307.717 2.42844 -3.00938 0
M  V30 3393 H 309.406 2.24127 -3.38411 0
M  V30 3394 H 310.172 0.232558 -4.84442 0
M  V30 3395 H 306.051 1.37542 -4.40004 0
M  V30 3396 H 309.595 -1.00129 -6.90377 0
M  V30 3397 H 305.492 0.148249 -6.4533 0
M  V30 3398 H 306.26 -1.10188 -8.11049 0
M  V30 3399 N 308.923 1.53595 0.353017 0
M  V30 3400 C 309.855 1.77219 1.45348 0
M  V30 3401 C 310.868 0.65324 1.49119 0
M  V30 3402 O 312.057 0.929775 1.52373 0
M  V30 3403 C 309.157 1.84841 2.84055 0
M  V30 3404 C 308.33 3.14649 3.03833 0
M  V30 3405 C 307.389 3.13351 4.22727 0
M  V30 3406 O 306.415 3.87107 4.17297 0
M  V30 3407 N 307.617 2.35052 5.30783 0
M  V30 3408 H 310.382 2.72178 1.25457 0
M  V30 3409 H 307.943 1.52528 0.542833 0
M  V30 3410 H 309.935 1.81435 3.61751 0
M  V30 3411 H 308.505 0.971114 2.97133 0
M  V30 3412 H 307.725 3.31256 2.13689 0
M  V30 3413 H 309.013 4.00411 3.13925 0
M  V30 3414 H 308.411 1.74663 5.38061 0
M  V30 3415 H 306.968 2.37453 6.07009 0
M  V30 3416 N 310.401 -0.613514 1.45168 0
M  V30 3417 C 311.648 -1.37268 1.48875 0
M  V30 3418 C 311.976 -1.94077 0.128161 0
M  V30 3419 O 311.231 -1.75178 -0.872416 0
M  V30 3420 C 311.53 -2.54347 2.51083 0
M  V30 3421 C 311.196 -2.1572 3.95949 0
M  V30 3422 C 309.858 -2.04899 4.35396 0
M  V30 3423 C 312.21 -1.85485 4.87078 0
M  V30 3424 C 309.538 -1.62057 5.63875 0
M  V30 3425 C 311.89 -1.4413 6.15962 0
M  V30 3426 C 310.554 -1.31863 6.54346 0
M  V30 3427 H 309.824 -0.502299 0.544773 0
M  V30 3428 H 312.471 -0.694021 1.78481 0
M  V30 3429 H 310.776 -3.27524 2.15024 0
M  V30 3430 H 312.473 -3.12577 2.51191 0
M  V30 3431 H 309.063 -2.25066 3.64751 0
M  V30 3432 H 313.247 -1.92745 4.57343 0
M  V30 3433 H 308.503 -1.51177 5.92415 0
M  V30 3434 H 312.677 -1.19778 6.86022 0
M  V30 3435 H 310.304 -0.984392 7.538 0
M  V30 3436 N 311.879 -1.3236 -0.855495 0
M  V30 3437 C 313.126 -1.22872 -1.60962 0
M  V30 3438 C 313.454 0.209658 -1.93367 0
M  V30 3439 O 312.709 1.16243 -1.57436 0
M  V30 3440 C 313.008 -2.03275 -2.93963 0
M  V30 3441 C 312.674 -3.5264 -2.80991 0
M  V30 3442 C 311.336 -3.93364 -2.7716 0
M  V30 3443 C 313.688 -4.47626 -2.66983 0
M  V30 3444 C 311.016 -5.27319 -2.572 0
M  V30 3445 C 313.368 -5.81723 -2.48558 0
M  V30 3446 C 312.032 -6.2165 -2.4312 0
M  V30 3447 H 311.302 -0.44962 -0.589001 0
M  V30 3448 H 313.949 -1.63777 -0.992442 0
M  V30 3449 H 312.254 -1.55095 -3.59795 0
M  V30 3450 H 313.951 -1.93303 -3.51333 0
M  V30 3451 H 310.541 -3.20295 -2.84797 0
M  V30 3452 H 314.725 -4.17084 -2.68988 0
M  V30 3453 H 309.981 -5.57311 -2.51424 0
M  V30 3454 H 314.155 -6.5494 -2.36699 0
M  V30 3455 H 311.782 -7.25388 -2.27412 0
M  V30 3456 N 313.357 1.07166 -1.15556 0
M  V30 3457 C 314.267 2.17947 -0.868116 0
M  V30 3458 C 315.283 1.73297 0.156297 0
M  V30 3459 O 316.459 2.01392 -0.0182327 0
M  V30 3460 C 313.524 3.44789 -0.36355 0
M  V30 3461 C 312.585 4.03996 -1.45209 0
M  V30 3462 C 311.818 5.24783 -0.971508 0
M  V30 3463 O 312.041 5.70109 0.182194 0
M  V30 3464 O 310.975 5.75715 -1.75603 0
M  V30 3465 H 314.801 2.4503 -1.79427 0
M  V30 3466 H 312.386 1.16539 -0.934824 0
M  V30 3467 H 314.268 4.21307 -0.0887113 0
M  V30 3468 H 312.943 3.19253 0.534708 0
M  V30 3469 H 311.85 3.29009 -1.78056 0
M  V30 3470 H 313.183 4.33808 -2.32533 0
M  V30 3471 N 314.835 0.952656 1.25548 0
M  V30 3472 C 315.765 0.489287 2.28316 0
M  V30 3473 C 316.746 -0.463359 1.63667 0
M  V30 3474 O 317.931 -0.36274 1.90782 0
M  V30 3475 C 315.061 -0.235603 3.465 0
M  V30 3476 C 314.015 0.631593 4.23314 0
M  V30 3477 C 313.341 -0.223923 5.34231 0
M  V30 3478 C 314.641 1.90871 4.86174 0
M  V30 3479 H 316.335 1.34822 2.67326 0
M  V30 3480 H 313.881 0.649728 1.28509 0
M  V30 3481 H 315.834 -0.570882 4.17515 0
M  V30 3482 H 314.558 -1.12877 3.06474 0
M  V30 3483 H 313.217 0.949929 3.54079 0
M  V30 3484 H 312.865 -1.11678 4.90446 0
M  V30 3485 H 312.565 0.35299 5.86539 0
M  V30 3486 H 314.089 -0.554214 6.0808 0
M  V30 3487 H 315.503 1.63997 5.49343 0
M  V30 3488 H 313.9 2.43112 5.4865 0
M  V30 3489 H 314.97 2.61304 4.08471 0
M  V30 3490 N 316.313 -1.40141 0.720998 0
M  V30 3491 C 317.59 -1.94677 0.189757 0
M  V30 3492 C 317.97 -1.65879 -1.30566 0
M  V30 3493 O 317.318 -0.979391 -2.06447 0
M  V30 3494 C 317.528 -3.45279 0.508304 0
M  V30 3495 C 318.876 -4.22209 0.449934 0
M  V30 3496 O 319.9 -3.53413 0.444677 0
M  V30 3497 O 318.759 -5.44788 0.432189 0
M  V30 3498 H 315.853 -0.826459 0.0299026 0
M  V30 3499 H 318.399 -1.49719 0.7989 0
M  V30 3500 H 317.171 -3.59619 1.54239 0
M  V30 3501 H 316.794 -3.97386 -0.130525 0
M  V30 3502 N 317.792 -0.46758 -1.50504 0
M  V30 3503 C 319.038 0.0887532 -2.02606 0
M  V30 3504 C 319.371 1.39686 -1.34913 0
M  V30 3505 O 318.646 1.88644 -0.473694 0
M  V30 3506 C 318.929 0.276206 -3.59039 0
M  V30 3507 C 318.782 -1.05267 -4.37309 0
M  V30 3508 C 320.101 1.03235 -4.27821 0
M  V30 3509 H 317.22 0.0307814 -0.736357 0
M  V30 3510 H 319.862 -0.612485 -1.79857 0
M  V30 3511 H 318.012 0.8735 -3.78553 0
M  V30 3512 H 319.684 -1.68628 -4.29374 0
M  V30 3513 H 317.927 -1.65015 -4.01189 0
M  V30 3514 H 318.598 -0.875197 -5.45018 0
M  V30 3515 H 321.074 0.526111 -4.12761 0
M  V30 3516 H 319.95 1.1323 -5.37094 0
M  V30 3517 H 320.211 2.06806 -3.90748 0
M  V30 3518 N 319.27 1.56325 -0.20005 0
M  V30 3519 C 320.5 2.01811 0.442232 0
M  V30 3520 C 320.908 1.07932 1.55394 0
M  V30 3521 O 320.251 0.0772685 1.83537 0
M  V30 3522 C 320.313 3.43685 1.05457 0
M  V30 3523 C 319.977 4.56928 0.0809833 0
M  V30 3524 C 320.974 5.15009 -0.711471 0
M  V30 3525 C 318.659 5.0229 -0.0315364 0
M  V30 3526 C 320.653 6.16904 -1.60336 0
M  V30 3527 C 318.34 6.04028 -0.926981 0
M  V30 3528 C 319.338 6.6121 -1.71146 0
M  V30 3529 O 319.026 7.60971 -2.59189 0
M  V30 3530 H 318.758 0.666173 0.114848 0
M  V30 3531 H 321.312 2.03085 -0.307511 0
M  V30 3532 H 319.542 3.39413 1.85299 0
M  V30 3533 H 321.231 3.72948 1.60201 0
M  V30 3534 H 321.997 4.80827 -0.634873 0
M  V30 3535 H 317.876 4.57476 0.568902 0
M  V30 3536 H 321.42 6.61464 -2.21611 0
M  V30 3537 H 317.317 6.37634 -1.00468 0
M  V30 3538 H 318.085 7.7841 -2.53023 0
M  V30 3539 N 320.748 -0.0735177 1.57428 0
M  V30 3540 C 321.698 -1.09442 2.00016 0
M  V30 3541 C 322.682 -1.34575 0.881947 0
M  V30 3542 O 323.874 -1.34905 1.14585 0
M  V30 3543 C 321.003 -2.40865 2.4462 0
M  V30 3544 C 320.089 -2.19014 3.63172 0
M  V30 3545 N 320.48 -1.67087 4.77405 0
M  V30 3546 C 318.778 -2.49494 3.69688 0
M  V30 3547 C 319.479 -1.6001 5.5926 0
M  V30 3548 N 318.455 -2.05999 5.03056 0
M  V30 3549 H 322.257 -0.686227 2.85776 0
M  V30 3550 H 319.771 -0.280617 1.59957 0
M  V30 3551 H 321.768 -3.14763 2.73368 0
M  V30 3552 H 320.428 -2.82403 1.60246 0
M  V30 3553 H 321.439 -1.35975 4.99731 0
M  V30 3554 H 318.116 -2.94409 2.96023 0
M  V30 3555 H 319.506 -1.2073 6.60964 0
M  V30 3556 N 322.226 -1.5378 -0.344866 0
M  V30 3557 C 323.451 -1.75211 -1.10977 0
M  V30 3558 C 323.876 -0.48936 -1.81623 0
M  V30 3559 O 323.234 0.557925 -1.72502 0
M  V30 3560 C 323.282 -2.93147 -2.09993 0
M  V30 3561 O 322.386 -2.63203 -3.17487 0
M  V30 3562 H 321.727 -0.581241 -0.321021 0
M  V30 3563 H 324.257 -2.00738 -0.395661 0
M  V30 3564 H 324.267 -3.19898 -2.53237 0
M  V30 3565 H 322.942 -3.84731 -1.5797 0
M  V30 3566 H 321.519 -2.47336 -2.79069 0
M  V30 3567 N 323.704 0.605807 -1.45491 0
M  V30 3568 C 324.981 1.36522 -1.40075 0
M  V30 3569 C 325.361 2.10976 -0.0722744 0
M  V30 3570 O 324.709 2.08007 0.945808 0
M  V30 3571 C 324.919 2.31056 -2.61561 0
M  V30 3572 C 326.267 2.93608 -3.06724 0
M  V30 3573 O 327.291 2.41376 -2.61946 0
M  V30 3574 O 326.15 3.88421 -3.84437 0
M  V30 3575 H 323.244 0.612248 -0.555951 0
M  V30 3576 H 325.79 0.628747 -1.57623 0
M  V30 3577 H 324.562 1.75311 -3.49831 0
M  V30 3578 H 324.185 3.12081 -2.46356 0
M  V30 3579 N 325.182 1.32811 0.848464 0
M  V30 3580 C 326.43 1.23479 1.59991 0
M  V30 3581 C 326.751 -0.201853 1.93952 0
M  V30 3582 O 326.021 -1.12818 1.60153 0
M  V30 3583 H 324.601 0.454034 0.593179 0
M  V30 3584 H 327.263 1.66412 1.01455 0
M  V30 3585 H 326.359 1.82178 2.53412 0
M  V30 3586 N 326.66 -1.06551 1.16123 0
M  V30 3587 C 327.888 -1.83005 0.965237 0
M  V30 3588 C 328.303 -1.82423 -0.486542 0
M  V30 3589 O 327.66 -1.24152 -1.33763 0
M  V30 3590 C 327.711 -3.29733 1.48183 0
M  V30 3591 O 327.432 -3.30416 2.87674 0
M  V30 3592 C 328.933 -4.22926 1.32848 0
M  V30 3593 H 326.153 -0.577118 0.342309 0
M  V30 3594 H 328.697 -1.3445 1.54089 0
M  V30 3595 H 326.852 -3.75609 0.948517 0
M  V30 3596 H 327.266 -4.22149 3.11272 0
M  V30 3597 H 328.74 -5.23916 1.73827 0
M  V30 3598 H 329.217 -4.38346 0.273692 0
M  V30 3599 H 329.823 -3.82894 1.85127 0
M  V30 3600 N 328.138 -0.959301 -1.25041 0
M  V30 3601 C 329.549 -0.65667 -1.74771 0
M  V30 3602 C 329.9 0.827852 -1.77879 0
M  V30 3603 O 329.025 1.64783 -1.40269 0
M  V30 3604 C 329.62 -1.1853 -3.1739 0
M  V30 3605 C 328.179 -0.932734 -3.6466 0
M  V30 3606 C 327.326 -1.32558 -2.43564 0
M  V30 3607 H 330.277 -1.13558 -1.10862 0
M  V30 3608 H 330.298 -0.547582 -3.76539 0
M  V30 3609 H 329.81 -2.26576 -3.15095 0
M  V30 3610 H 327.911 0.13257 -3.72364 0
M  V30 3611 H 328.024 -1.57248 -4.52559 0
M  V30 3612 H 326.388 -0.743956 -2.43593 0
M  V30 3613 H 327.171 -2.41537 -2.43957 0
M  V30 3614 N 329.616 1.39756 -0.72842 0
M  V30 3615 C 330.546 2.33289 -0.0991354 0
M  V30 3616 C 331.527 1.53568 0.731489 0
M  V30 3617 O 332.712 1.81987 0.677807 0
M  V30 3618 C 329.842 3.3763 0.813834 0
M  V30 3619 C 328.796 4.2791 0.0878663 0
M  V30 3620 C 328.122 5.22894 1.11741 0
M  V30 3621 C 329.422 5.11314 -1.06563 0
M  V30 3622 H 331.116 2.86163 -0.880408 0
M  V30 3623 H 328.662 1.37591 -0.424819 0
M  V30 3624 H 330.615 4.0201 1.26355 0
M  V30 3625 H 329.339 2.83181 1.62715 0
M  V30 3626 H 327.998 3.65 -0.342159 0
M  V30 3627 H 327.646 4.64744 1.92412 0
M  V30 3628 H 327.346 5.84143 0.636477 0
M  V30 3629 H 328.87 5.90151 1.56697 0
M  V30 3630 H 330.284 5.69076 -0.694671 0
M  V30 3631 H 328.681 5.81671 -1.47577 0
M  V30 3632 H 329.751 4.46534 -1.89038 0
M  V30 3633 N 331.094 0.475555 1.50254 0
M  V30 3634 C 332.322 -0.0754493 2.06762 0
M  V30 3635 C 332.737 -1.33111 1.33891 0
M  V30 3636 O 332.094 -1.77846 0.40952 0
M  V30 3637 C 332.145 -0.359008 3.59713 0
M  V30 3638 O 331.866 0.846851 4.29837 0
M  V30 3639 C 333.367 -0.956484 4.32858 0
M  V30 3640 H 330.587 0.00907525 0.670939 0
M  V30 3641 H 333.131 0.665618 1.93364 0
M  V30 3642 H 331.286 -1.05001 3.72899 0
M  V30 3643 H 331.7 0.594162 5.21124 0
M  V30 3644 H 333.174 -1.10463 5.40834 0
M  V30 3645 H 333.651 -1.94775 3.93649 0
M  V30 3646 H 334.257 -0.303723 4.24214 0
M  V30 3647 N 332.573 -1.56217 0.208337 0
M  V30 3648 C 333.536 -2.18455 -0.693557 0
M  V30 3649 C 334.536 -1.14268 -1.13135 0
M  V30 3650 O 335.726 -1.39577 -1.0423 0
M  V30 3651 C 332.858 -2.79727 -1.94848 0
M  V30 3652 H 334.051 -2.99519 -0.15114 0
M  V30 3653 H 331.604 -1.56245 -0.041287 0
M  V30 3654 H 332.339 -2.02497 -2.53309 0
M  V30 3655 H 332.124 -3.56009 -1.64316 0
M  V30 3656 H 333.614 -3.27475 -2.59133 0
M  V30 3657 N 334.051 0.0651679 -1.57465 0
M  V30 3658 C 335.328 0.79644 -1.78651 0
M  V30 3659 C 335.708 1.95454 -0.797566 0
M  V30 3660 O 335.056 2.27882 0.167946 0
M  V30 3661 C 335.266 1.26322 -3.25337 0
M  V30 3662 C 336.614 1.6939 -3.89348 0
M  V30 3663 O 337.638 1.35872 -3.29268 0
M  V30 3664 O 336.497 2.31471 -4.95059 0
M  V30 3665 H 333.591 0.382157 -0.733407 0
M  V30 3666 H 336.137 0.0447311 -1.69641 0
M  V30 3667 H 334.909 0.434859 -3.88876 0
M  V30 3668 H 334.532 2.07604 -3.39096 0
M  V30 3669 N 335.529 1.53961 0.336706 0
M  V30 3670 C 336.461 1.78751 1.4346 0
M  V30 3671 C 337.474 0.669019 1.48418 0
M  V30 3672 O 338.663 0.945884 1.51378 0
M  V30 3673 C 335.763 1.87844 2.82078 0
M  V30 3674 C 334.936 3.17854 3.00479 0
M  V30 3675 C 333.995 3.17816 4.19379 0
M  V30 3676 O 333.021 3.91511 4.13168 0
M  V30 3677 N 334.223 2.40669 5.2826 0
M  V30 3678 H 336.988 2.73493 1.22563 0
M  V30 3679 H 334.549 1.53096 0.526625 0
M  V30 3680 H 336.541 1.85261 3.59806 0
M  V30 3681 H 335.111 1.00257 2.96086 0
M  V30 3682 H 334.331 3.33504 2.10163 0
M  V30 3683 H 335.619 4.03718 3.0966 0
M  V30 3684 H 335.017 1.8036 5.36178 0
M  V30 3685 H 333.574 2.43877 6.04456 0
M  V30 3686 N 337.007 -0.598083 1.45811 0
M  V30 3687 C 338.256 -1.35295 1.49594 0
M  V30 3688 C 338.569 -1.95057 0.145679 0
M  V30 3689 O 339.775 -2.71431 0.0612099 0
M  V30 3690 C 338.231 -2.45124 2.63519 0
M  V30 3691 C 337.839 -1.91732 4.04899 0
M  V30 3692 C 339.583 -3.2205 2.76558 0
M  V30 3693 C 337.49 -2.991 5.1019 0
M  V30 3694 H 336.42 -0.508552 0.556679 0
M  V30 3695 H 339.071 -0.639977 1.71978 0
M  V30 3696 H 337.453 -3.19149 2.34435 0
M  V30 3697 H 338.627 -1.24352 4.43704 0
M  V30 3698 H 336.942 -1.27522 3.96393 0
M  V30 3699 H 339.539 -4.0215 3.52391 0
M  V30 3700 H 339.882 -3.73663 1.83526 0
M  V30 3701 H 340.415 -2.55127 3.05213 0
M  V30 3702 H 337.154 -2.52393 6.04961 0
M  V30 3703 H 336.674 -3.65017 4.75944 0
M  V30 3704 H 338.353 -3.63318 5.35359 0
M  V30 3705 N 338.485 -1.33259 -0.841409 0
M  V30 3706 C 339.732 -1.24572 -1.5965 0
M  V30 3707 C 340.06 0.189137 -1.93578 0
M  V30 3708 O 339.315 1.14566 -1.5866 0
M  V30 3709 C 339.614 -2.06381 -2.9179 0
M  V30 3710 C 339.28 -3.556 -2.77235 0
M  V30 3711 C 337.942 -3.96282 -2.72973 0
M  V30 3712 C 340.294 -4.50433 -2.62221 0
M  V30 3713 C 337.622 -5.30017 -2.51592 0
M  V30 3714 C 339.974 -5.84327 -2.42374 0
M  V30 3715 C 338.638 -6.24194 -2.36512 0
M  V30 3716 H 337.908 -0.455842 -0.5842 0
M  V30 3717 H 340.555 -1.6482 -0.975016 0
M  V30 3718 H 338.86 -1.58903 -3.5813 0
M  V30 3719 H 340.557 -1.97019 -3.49263 0
M  V30 3720 H 337.147 -3.23298 -2.81384 0
M  V30 3721 H 341.331 -4.19914 -2.64549 0
M  V30 3722 H 336.587 -5.59947 -2.45499 0
M  V30 3723 H 340.761 -6.57414 -2.29739 0
M  V30 3724 H 338.388 -7.27759 -2.19706 0
M  V30 3725 N 339.963 1.05934 -1.16686 0
M  V30 3726 C 341.209 1.79065 -0.95203 0
M  V30 3727 C 341.542 1.87147 0.518629 0
M  V30 3728 O 340.817 1.36574 1.38484 0
M  V30 3729 C 341.1 3.23359 -1.58464 0
M  V30 3730 C 340.953 3.23336 -3.12689 0
M  V30 3731 C 342.272 4.21004 -1.28232 0
M  V30 3732 H 339.391 0.65005 -0.34728 0
M  V30 3733 H 342.033 1.23868 -1.44072 0
M  V30 3734 H 340.183 3.70493 -1.16908 0
M  V30 3735 H 341.855 2.84336 -3.6325 0
M  V30 3736 H 340.098 2.61886 -3.4583 0
M  V30 3737 H 340.769 4.25144 -3.52075 0
M  V30 3738 H 343.245 3.8233 -1.64203 0
M  V30 3739 H 342.121 5.20225 -1.75092 0
M  V30 3740 H 342.382 4.41639 -0.201791 0
M  V30 3741 N 341.441 0.965919 1.2453 0
M  V30 3742 C 342.373 0.452465 2.2469 0
M  V30 3743 C 343.386 -0.437821 1.56802 0
M  V30 3744 O 344.575 -0.244283 1.76821 0
M  V30 3745 C 341.675 -0.366258 3.36915 0
M  V30 3746 C 340.848 0.513701 4.34373 0
M  V30 3747 C 339.907 -0.248716 5.25612 0
M  V30 3748 O 338.933 0.356745 5.68081 0
M  V30 3749 N 340.135 -1.53877 5.59734 0
M  V30 3750 H 342.9 1.31361 2.69378 0
M  V30 3751 H 340.461 0.837541 1.38553 0
M  V30 3752 H 342.453 -0.884297 3.94921 0
M  V30 3753 H 341.023 -1.12832 2.91526 0
M  V30 3754 H 340.243 1.21273 3.75082 0
M  V30 3755 H 341.531 1.11391 4.96457 0
M  V30 3756 H 340.929 -2.05243 5.27154 0
M  V30 3757 H 339.486 -2.00254 6.20275 0
M  V30 3758 N 342.919 -1.39368 0.735821 0
M  V30 3759 C 343.849 -2.33234 0.111506 0
M  V30 3760 C 344.83 -1.53954 -0.723334 0
M  V30 3761 O 346.015 -1.82344 -0.668147 0
M  V30 3762 C 343.145 -3.38057 -0.795917 0
M  V30 3763 C 342.099 -4.2795 -0.065172 0
M  V30 3764 C 341.425 -5.23479 -1.08967 0
M  V30 3765 C 342.725 -5.10741 1.09273 0
M  V30 3766 H 344.419 -2.85692 0.895571 0
M  V30 3767 H 341.965 -1.37364 0.432109 0
M  V30 3768 H 343.918 -4.02675 -1.24221 0
M  V30 3769 H 342.642 -2.8404 -1.61211 0
M  V30 3770 H 341.301 -3.64813 0.361511 0
M  V30 3771 H 340.949 -4.65758 -1.89944 0
M  V30 3772 H 340.649 -5.84472 -0.605489 0
M  V30 3773 H 342.173 -5.90974 -1.53565 0
M  V30 3774 H 343.587 -5.68699 0.724841 0
M  V30 3775 H 341.984 -5.8088 1.50659 0
M  V30 3776 H 343.054 -4.45525 1.91404 0
M  V30 3777 N 344.397 -0.483516 -1.5 0
M  V30 3778 C 345.307 0.309172 -2.32554 0
M  V30 3779 C 346.323 0.984159 -1.43493 0
M  V30 3780 O 347.499 0.969399 -1.76535 0
M  V30 3781 C 344.564 1.36979 -3.18493 0
M  V30 3782 C 343.625 0.710095 -4.23387 0
M  V30 3783 C 342.858 1.72018 -5.05218 0
M  V30 3784 O 343.081 2.94813 -4.88305 0
M  V30 3785 O 342.015 1.28515 -5.8802 0
M  V30 3786 H 345.841 -0.366064 -3.01486 0
M  V30 3787 H 343.426 -0.24514 -1.47375 0
M  V30 3788 H 345.308 1.98385 -3.71781 0
M  V30 3789 H 343.983 2.02828 -2.52275 0
M  V30 3790 H 342.89 0.0567539 -3.74057 0
M  V30 3791 H 344.223 0.0943557 -4.9211 0
M  V30 3792 N 345.875 1.56104 -0.216619 0
M  V30 3793 C 346.822 2.2007 0.695531 0
M  V30 3794 C 347.792 1.15471 1.19397 0
M  V30 3795 O 348.977 1.43807 1.25396 0
M  V30 3796 C 346.117 2.88073 1.90021 0
M  V30 3797 C 345.23 4.07253 1.44113 0
M  V30 3798 C 344.365 4.63052 2.603 0
M  V30 3799 C 343.404 5.74545 2.11103 0
M  V30 3800 N 342.541 6.24656 3.20545 0
M  V30 3801 H 347.381 2.97655 0.143327 0
M  V30 3802 H 344.918 1.46982 0.0589934 0
M  V30 3803 H 346.876 3.25681 2.60745 0
M  V30 3804 H 345.506 2.13015 2.42538 0
M  V30 3805 H 344.558 3.75164 0.628999 0
M  V30 3806 H 345.87 4.8783 1.04036 0
M  V30 3807 H 345.024 5.03078 3.39113 0
M  V30 3808 H 343.763 3.81628 3.03663 0
M  V30 3809 H 342.768 5.34027 1.3075 0
M  V30 3810 H 343.993 6.57801 1.68746 0
M  V30 3811 H 341.939 5.46148 3.63399 0
M  V30 3812 H 341.856 7.00343 2.84704 0
M  V30 3813 H 343.124 6.69338 3.99508 0
M  V30 3814 N 347.353 -0.0568162 1.57498 0
M  V30 3815 C 348.602 -0.752001 1.87157 0
M  V30 3816 C 348.915 -1.77978 0.811375 0
M  V30 3817 O 350.121 -2.52559 0.996293 0
M  V30 3818 C 348.577 -1.38844 3.3204 0
M  V30 3819 C 348.185 -0.398456 4.46225 0
M  V30 3820 C 349.929 -2.06512 3.70882 0
M  V30 3821 C 347.836 -1.04166 5.82154 0
M  V30 3822 H 346.766 -0.28461 0.698222 0
M  V30 3823 H 349.417 -0.00561272 1.83499 0
M  V30 3824 H 347.799 -2.1836 3.30356 0
M  V30 3825 H 348.973 0.367977 4.59328 0
M  V30 3826 H 347.288 0.174592 4.16034 0
M  V30 3827 H 349.885 -2.55437 4.6974 0
M  V30 3828 H 350.228 -2.87117 3.01445 0
M  V30 3829 H 350.761 -1.33808 3.7462 0
M  V30 3830 H 347.5 -0.275614 6.5492 0
M  V30 3831 H 347.02 -1.7786 5.72823 0
M  V30 3832 H 348.699 -1.55715 6.27982 0
M  V30 3833 N 348.832 -1.54138 -0.328536 0
M  V30 3834 C 350.078 -1.73297 -1.06488 0
M  V30 3835 C 350.433 -0.497958 -1.85844 0
M  V30 3836 O 349.726 0.509591 -1.84699 0
M  V30 3837 C 349.92 -2.9457 -2.02393 0
M  V30 3838 C 349.749 -4.29747 -1.32467 0
M  V30 3839 C 348.519 -4.93987 -1.06324 0
M  V30 3840 C 350.717 -5.08903 -0.743137 0
M  V30 3841 N 348.699 -6.13005 -0.331359 0
M  V30 3842 C 350.07 -6.19836 -0.142602 0
M  V30 3843 C 352.125 -4.93699 -0.64546 0
M  V30 3844 C 350.828 -7.17224 0.546125 0
M  V30 3845 C 352.854 -5.91393 0.0295558 0
M  V30 3846 C 352.216 -7.01674 0.619056 0
M  V30 3847 H 348.315 -0.687017 -0.373539 0
M  V30 3848 H 350.899 -1.91589 -0.346659 0
M  V30 3849 H 349.07 -2.77752 -2.71493 0
M  V30 3850 H 350.802 -3.0238 -2.68977 0
M  V30 3851 H 347.557 -4.53824 -1.35428 0
M  V30 3852 H 347.981 -6.76997 0.0202939 0
M  V30 3853 H 352.623 -4.08589 -1.08695 0
M  V30 3854 H 350.341 -8.01896 0.999459 0
M  V30 3855 H 353.927 -5.81706 0.104705 0
M  V30 3856 H 352.807 -7.75971 1.13309 0
M  V30 3857 N 350.31 0.590341 -1.46126 0
M  V30 3858 C 351.258 1.72105 -1.5647 0
M  V30 3859 C 352.252 1.63756 -0.433612 0
M  V30 3860 O 353.458 1.69342 -0.610194 0
M  V30 3861 H 349.833 0.568889 -0.491802 0
M  V30 3862 H 351.804 1.6051 -2.51553 0
M  V30 3863 C 350.553 3.10493 -1.56491 0
M  V30 3864 H 349.876 3.17583 -2.4286 0
M  V30 3865 H 351.316 3.8939 -1.67785 0
M  V30 3866 C 349.775 3.3563 -0.292231 0
M  V30 3867 O 350.305 3.96875 0.620739 0
M  V30 3868 N 348.511 2.90026 -0.182523 0
M  V30 3869 H 348.058 2.40367 -0.926356 0
M  V30 3870 H 348.016 3.07218 0.668152 0
M  V30 3871 N 351.788 1.33704 0.83433 0
M  V30 3872 C 353.013 1.28615 1.62705 0
M  V30 3873 C 353.438 -0.139242 1.87584 0
M  V30 3874 O 352.796 -1.09734 1.4432 0
M  V30 3875 C 352.844 2.07139 2.95171 0
M  V30 3876 O 351.948 1.4331 3.86699 0
M  V30 3877 H 351.289 0.44226 0.49528 0
M  V30 3878 H 353.819 1.76335 1.03766 0
M  V30 3879 H 353.829 2.18073 3.44831 0
M  V30 3880 H 352.504 3.10779 2.76386 0
M  V30 3881 H 351.081 1.4105 3.45195 0
M  V30 3882 N 353.266 -1.05314 1.17247 0
M  V30 3883 C 354.491 -1.82509 0.985148 0
M  V30 3884 C 354.916 -1.82343 -0.461788 0
M  V30 3885 O 354.274 -1.23151 -1.33055 0
M  V30 3886 C 354.322 -3.26566 1.52929 0
M  V30 3887 O 353.426 -4.05666 0.742225 0
M  V30 3888 H 352.767 -0.564347 0.349869 0
M  V30 3889 H 355.297 -1.32718 1.55715 0
M  V30 3890 H 355.307 -3.77369 1.55103 0
M  V30 3891 H 353.982 -3.26001 2.58256 0
M  V30 3892 H 352.559 -3.64397 0.791794 0
M  V30 3893 N 354.744 -0.972509 -1.24016 0
M  V30 3894 C 355.674 -0.525548 -2.27509 0
M  V30 3895 C 356.655 0.437262 -1.64384 0
M  V30 3896 O 357.84 0.332343 -1.91335 0
M  V30 3897 C 354.97 0.180448 -3.46831 0
M  V30 3898 C 353.924 -0.698859 -4.22256 0
M  V30 3899 C 353.25 0.138903 -5.3452 0
M  V30 3900 C 354.55 -1.98582 -4.83076 0
M  V30 3901 H 356.244 -1.39058 -2.65148 0
M  V30 3902 H 353.79 -0.67009 -1.27459 0
M  V30 3903 H 355.743 0.504387 -4.18371 0
M  V30 3904 H 354.467 1.07987 -3.08231 0
M  V30 3905 H 353.126 -1.00614 -3.52523 0
M  V30 3906 H 352.774 1.03862 -4.9216 0
M  V30 3907 H 352.474 -0.446259 -5.85903 0
M  V30 3908 H 353.998 0.457404 -6.08884 0
M  V30 3909 H 355.412 -1.72715 -5.46665 0
M  V30 3910 H 353.809 -2.5181 -5.44713 0
M  V30 3911 H 354.879 -2.67769 -4.04262 0
M  V30 3912 N 356.222 1.38976 -0.743202 0
M  V30 3913 C 357.154 2.29096 -0.0689228 0
M  V30 3914 C 358.167 1.47229 0.694791 0
M  V30 3915 O 359.356 1.70212 0.537597 0
M  V30 3916 C 356.456 3.25988 0.926548 0
M  V30 3917 C 355.629 4.36833 0.222647 0
M  V30 3918 C 354.688 5.13981 1.12739 0
M  V30 3919 O 353.714 5.6601 0.601795 0
M  V30 3920 N 354.916 5.25966 2.45641 0
M  V30 3921 H 357.681 2.87604 -0.842846 0
M  V30 3922 H 355.242 1.50645 -0.593109 0
M  V30 3923 H 357.234 3.74476 1.5346 0
M  V30 3924 H 355.804 2.68453 1.60162 0
M  V30 3925 H 355.024 3.90116 -0.565983 0
M  V30 3926 H 356.312 5.0811 -0.264841 0
M  V30 3927 H 355.71 4.85228 2.9081 0
M  V30 3928 H 354.267 5.77865 3.01522 0
M  V30 3929 N 357.7 0.491464 1.49741 0
M  V30 3930 C 358.928 -0.0535151 2.06831 0
M  V30 3931 C 359.343 -1.31683 1.35296 0
M  V30 3932 O 358.7 -1.77402 0.42836 0
M  V30 3933 C 358.751 -0.320835 3.60073 0
M  V30 3934 O 358.472 0.892394 4.28915 0
M  V30 3935 C 359.973 -0.910519 4.33848 0
M  V30 3936 H 357.193 0.0161909 0.670805 0
M  V30 3937 H 359.737 0.68609 1.92647 0
M  V30 3938 H 357.892 -1.0104 3.73991 0
M  V30 3939 H 358.306 0.649401 5.20464 0
M  V30 3940 H 359.78 -1.04721 5.41976 0
M  V30 3941 H 360.257 -1.90589 3.95692 0
M  V30 3942 H 360.863 -0.258712 4.24512 0
M  V30 3943 N 359.178 -1.55987 0.224894 0
M  V30 3944 C 360.126 -2.21808 -0.700283 0
M  V30 3945 C 361.12 -1.19854 -1.19714 0
M  V30 3946 O 362.326 -1.37925 -1.15658 0
M  V30 3947 H 358.701 -0.711226 -0.244258 0
M  V30 3948 H 360.672 -2.98152 -0.121749 0
M  V30 3949 C 359.421 -2.91444 -1.8962 0
M  V30 3950 H 358.744 -3.69655 -1.52299 0
M  V30 3951 H 360.184 -3.40894 -2.52125 0
M  V30 3952 C 358.643 -1.94098 -2.75368 0
M  V30 3953 O 359.173 -1.46004 -3.74227 0
M  V30 3954 N 357.379 -1.61675 -2.41474 0
M  V30 3955 H 356.926 -2.00979 -1.61137 0
M  V30 3956 H 356.884 -0.968036 -2.99126 0
M  V30 3957 N 360.656 0.0484629 -1.57525 0
M  V30 3958 C 361.603 1.05504 -2.05275 0
M  V30 3959 C 362.573 1.37084 -0.937927 0
M  V30 3960 O 363.758 1.47754 -1.2072 0
M  V30 3961 C 360.898 2.35676 -2.52093 0
M  V30 3962 C 360.011 2.10423 -3.77288 0
M  V30 3963 C 359.146 3.34327 -4.12794 0
M  V30 3964 C 358.185 3.04542 -5.30962 0
M  V30 3965 N 357.322 4.20841 -5.61994 0
M  V30 3966 H 362.162 0.640885 -2.91027 0
M  V30 3967 H 359.699 0.304854 -1.43906 0
M  V30 3968 H 361.657 3.11709 -2.77297 0
M  V30 3969 H 360.287 2.7485 -1.69285 0
M  V30 3970 H 359.339 1.24976 -3.59284 0
M  V30 3971 H 360.651 1.84438 -4.63448 0
M  V30 3972 H 359.805 4.1874 -4.39024 0
M  V30 3973 H 358.544 3.63408 -3.25247 0
M  V30 3974 H 357.549 2.18528 -5.04505 0
M  V30 3975 H 358.774 2.76758 -6.20146 0
M  V30 3976 H 356.72 4.4991 -4.77406 0
M  V30 3977 H 356.637 3.98212 -6.42622 0
M  V30 3978 H 357.905 5.06184 -5.92789 0
M  V30 3979 N 362.134 1.5431 0.320358 0
M  V30 3980 C 363.044 1.86946 1.41734 0
M  V30 3981 C 364.06 0.761689 1.56443 0
M  V30 3982 O 365.236 1.05629 1.71477 0
M  V30 3983 C 362.301 2.09293 2.76401 0
M  V30 3984 C 361.362 3.33082 2.70841 0
M  V30 3985 C 360.595 3.54353 3.99086 0
M  V30 3986 O 360.818 2.79002 4.97508 0
M  V30 3987 O 359.752 4.47838 4.0215 0
M  V30 3988 H 363.578 2.80232 1.17062 0
M  V30 3989 H 361.163 1.40255 0.514673 0
M  V30 3990 H 363.045 2.25303 3.56113 0
M  V30 3991 H 361.72 1.19194 3.00956 0
M  V30 3992 H 360.627 3.22454 1.89668 0
M  V30 3993 H 361.96 4.23249 2.5124 0
M  V30 3994 N 363.613 -0.582584 1.46437 0
M  V30 3995 C 365.024 -1.1647 1.45916 0
M  V30 3996 C 365.375 -1.95177 0.200077 0
M  V30 3997 O 364.5 -2.04874 -0.696819 0
M  V30 3998 C 365.095 -2.11885 2.64367 0
M  V30 3999 C 363.654 -2.65421 2.66887 0
M  V30 4000 C 362.801 -1.41294 2.38603 0
M  V30 4001 H 365.752 -0.370514 1.54314 0
M  V30 4002 H 365.773 -2.9535 2.39892 0
M  V30 4003 H 365.285 -1.54573 3.5599 0
M  V30 4004 H 363.386 -3.26602 1.79338 0
M  V30 4005 H 363.499 -3.08147 3.66854 0
M  V30 4006 H 361.863 -1.71109 1.88663 0
M  V30 4007 H 362.646 -0.858125 3.32402 0
M  V30 4008 N 365.091 -1.34144 -0.827227 0
M  V30 4009 C 366.337 -1.26446 -1.58554 0
M  V30 4010 C 366.67 0.1664 -1.93486 0
M  V30 4011 O 365.945 1.1107 -1.59667 0
M  V30 4012 C 366.228 -2.15111 -2.8879 0
M  V30 4013 C 366.081 -3.66712 -2.60465 0
M  V30 4014 C 367.4 -2.03311 -3.90324 0
M  V30 4015 H 364.519 -0.46067 -0.575284 0
M  V30 4016 H 367.161 -1.64356 -0.953269 0
M  V30 4017 H 365.311 -1.8291 -3.42748 0
M  V30 4018 H 366.983 -4.09259 -2.1285 0
M  V30 4019 H 365.226 -3.88014 -1.93978 0
M  V30 4020 H 365.897 -4.24112 -3.53317 0
M  V30 4021 H 368.373 -2.31574 -3.45706 0
M  V30 4022 H 367.249 -2.67582 -4.79261 0
M  V30 4023 H 367.51 -1.00879 -4.30437 0
M  V30 4024 N 366.569 1.04691 -1.17803 0
M  V30 4025 C 367.817 1.7743 -0.967617 0
M  V30 4026 C 368.138 1.88359 0.504574 0
M  V30 4027 O 367.408 1.40402 1.36617 0
M  V30 4028 H 365.988 0.657242 -0.355024 0
M  V30 4029 H 368.65 1.2638 -1.48371 0
M  V30 4030 H 367.746 2.78924 -1.40027 0
M  V30 4031 N 368.047 0.979072 1.23499 0
M  V30 4032 C 369.296 0.642751 1.91185 0
M  V30 4033 C 369.609 -0.827253 1.77245 0
M  V30 4034 O 370.815 -1.27458 2.39722 0
M  V30 4035 C 369.271 1.09901 3.42709 0
M  V30 4036 C 368.879 2.59327 3.65313 0
M  V30 4037 C 370.623 0.836371 4.16179 0
M  V30 4038 C 368.53 2.98627 5.10467 0
M  V30 4039 H 367.46 0.236698 0.715884 0
M  V30 4040 H 370.111 1.1868 1.39955 0
M  V30 4041 H 368.493 0.48319 3.93041 0
M  V30 4042 H 369.667 3.26136 3.25533 0
M  V30 4043 H 367.982 2.83323 3.05151 0
M  V30 4044 H 370.579 1.10586 5.23139 0
M  V30 4045 H 370.922 -0.227509 4.15678 0
M  V30 4046 H 371.455 1.41371 3.71832 0
M  V30 4047 H 368.194 4.04133 5.16098 0
M  V30 4048 H 367.714 2.3651 5.51201 0
M  V30 4049 H 369.393 2.89159 5.78788 0
M  V30 4050 N 369.525 -1.3858 0.750561 0
M  V30 4051 C 370.455 -2.33102 0.136237 0
M  V30 4052 C 371.436 -1.54713 -0.706965 0
M  V30 4053 O 372.621 -1.83043 -0.648769 0
M  V30 4054 C 369.751 -3.38882 -0.760017 0
M  V30 4055 C 368.705 -4.27995 -0.0197785 0
M  V30 4056 C 368.031 -5.24605 -1.03408 0
M  V30 4057 C 369.331 -5.09554 1.14684 0
M  V30 4058 H 371.025 -2.84726 0.925822 0
M  V30 4059 H 368.571 -1.36898 0.446654 0
M  V30 4060 H 370.524 -4.0397 -1.19943 0
M  V30 4061 H 369.248 -2.85734 -1.58189 0
M  V30 4062 H 367.907 -3.64409 0.400184 0
M  V30 4063 H 367.555 -4.67746 -1.84994 0
M  V30 4064 H 367.255 -5.85081 -0.543464 0
M  V30 4065 H 368.779 -5.9257 -1.47288 0
M  V30 4066 H 370.193 -5.67899 0.785118 0
M  V30 4067 H 368.59 -5.7925 1.56812 0
M  V30 4068 H 369.66 -4.4347 1.96118 0
M  V30 4069 N 371.003 -0.499398 -1.49478 0
M  V30 4070 C 372.231 0.0425456 -2.06856 0
M  V30 4071 C 372.646 1.30964 -1.35992 0
M  V30 4072 O 372.003 1.77172 -0.437762 0
M  V30 4073 C 372.054 0.301735 -3.60239 0
M  V30 4074 O 371.775 -0.915127 -4.28436 0
M  V30 4075 C 373.276 0.887499 -4.34325 0
M  V30 4076 H 370.496 -0.0197482 -0.670709 0
M  V30 4077 H 373.04 -0.696297 -1.92281 0
M  V30 4078 H 371.195 0.990556 -3.74522 0
M  V30 4079 H 371.609 -0.676993 -5.20113 0
M  V30 4080 H 373.083 1.01845 -5.42523 0
M  V30 4081 H 373.56 1.88488 -3.96698 0
M  V30 4082 H 374.166 0.236196 -4.24644 0
M  V30 4083 N 372.481 1.55866 -0.233164 0
M  V30 4084 C 373.706 2.03449 0.402906 0
M  V30 4085 C 374.131 1.11166 1.51736 0
M  V30 4086 O 373.489 0.101996 1.81013 0
M  V30 4087 C 373.537 3.49165 0.9009 0
M  V30 4088 O 372.641 3.60019 2.01147 0
M  V30 4089 H 371.982 0.657913 0.0897025 0
M  V30 4090 H 374.512 2.01493 -0.355201 0
M  V30 4091 H 374.522 3.89716 1.2077 0
M  V30 4092 H 373.197 4.15813 0.0852889 0
M  V30 4093 H 371.774 3.3136 1.71042 0
M  V30 4094 N 373.959 -0.0401083 1.57549 0
M  V30 4095 C 374.907 -1.06264 2.06908 0
M  V30 4096 C 375.901 -1.38132 0.980608 0
M  V30 4097 O 377.107 -1.37167 1.16556 0
M  V30 4098 H 373.482 -0.360166 0.660139 0
M  V30 4099 H 375.453 -0.620445 2.91878 0
M  V30 4100 C 374.202 -2.35846 2.55483 0
M  V30 4101 H 373.525 -2.12183 3.38849 0
M  V30 4102 H 374.965 -3.05765 2.93741 0
M  V30 4103 C 373.424 -3.0404 1.45126 0
M  V30 4104 O 373.954 -3.93424 0.811216 0
M  V30 4105 N 372.16 -2.65184 1.18852 0
M  V30 4106 H 371.707 -1.92584 1.71083 0
M  V30 4107 H 371.665 -3.1113 0.452244 0
M  V30 4108 N 375.437 -1.54477 -0.31217 0
M  V30 4109 C 376.387 -1.81037 -1.38598 0
M  V30 4110 C 377.371 -0.666941 -1.46426 0
M  V30 4111 O 378.563 -0.927269 -1.50767 0
M  V30 4112 C 375.692 -2.05127 -2.75277 0
M  V30 4113 C 374.778 -3.25624 -2.71716 0
M  V30 4114 N 375.169 -4.46428 -2.37773 0
M  V30 4115 C 373.467 -3.27427 -3.02833 0
M  V30 4116 C 374.168 -5.28406 -2.43232 0
M  V30 4117 N 373.144 -4.6586 -2.80135 0
M  V30 4118 H 376.946 -2.7201 -1.11301 0
M  V30 4119 H 374.46 -1.53826 -0.520705 0
M  V30 4120 H 376.457 -2.22299 -3.52688 0
M  V30 4121 H 375.117 -1.15416 -3.03495 0
M  V30 4122 H 376.128 -4.73227 -2.1042 0
M  V30 4123 H 372.805 -2.47786 -3.36018 0
M  V30 4124 H 374.195 -6.34903 -2.19882 0
M  V30 4125 N 376.915 0.57481 -1.46744 0
M  V30 4126 C 378.331 0.898981 -1.31873 0
M  V30 4127 C 378.531 1.99313 -0.29605 0
M  V30 4128 O 377.587 2.50728 0.298621 0
M  V30 4129 C 378.9 1.30886 -2.7072 0
M  V30 4130 C 380.448 1.42127 -2.78871 0
M  V30 4131 C 380.923 1.86478 -4.18318 0
M  V30 4132 N 382.414 1.93658 -4.20774 0
M  V30 4133 C 383.149 2.29267 -5.2557 0
M  V30 4134 N 382.645 2.63612 -6.40688 0
M  V30 4135 N 384.438 2.29889 -5.1294 0
M  V30 4136 H 376.589 -0.147839 -2.11885 0
M  V30 4137 H 378.852 -0.00347013 -0.947994 0
M  V30 4138 H 378.558 0.578853 -3.46904 0
M  V30 4139 H 378.432 2.26874 -3.01343 0
M  V30 4140 H 380.819 2.14213 -2.0297 0
M  V30 4141 H 380.9 0.443705 -2.51922 0
M  V30 4142 H 380.544 1.14968 -4.94717 0
M  V30 4143 H 380.474 2.85207 -4.42679 0
M  V30 4144 H 382.965 1.69574 -3.37718 0
M  V30 4145 H 383.278 2.89759 -7.16421 0
M  V30 4146 H 381.623 2.61232 -6.44036 0
M  V30 4147 H 384.814 2.02485 -4.22039 0
M  V30 4148 H 384.987 2.57312 -5.94722 0
M  V30 4149 N 378.394 1.34581 0.820102 0
M  V30 4150 C 379.342 1.26401 1.95258 0
M  V30 4151 C 380.336 0.161553 1.68628 0
M  V30 4152 O 381.542 0.326703 1.7701 0
M  V30 4153 H 377.917 0.392749 0.64129 0
M  V30 4154 H 379.888 2.22105 1.99279 0
M  V30 4155 C 378.637 1.03919 3.31807 0
M  V30 4156 H 377.96 1.87984 3.52848 0
M  V30 4157 H 379.4 1.02232 4.11491 0
M  V30 4158 C 377.859 -0.257433 3.35915 0
M  V30 4159 O 378.389 -1.25784 3.81499 0
M  V30 4160 N 376.595 -0.291524 2.89134 0
M  V30 4161 H 376.142 0.523161 2.52232 0
M  V30 4162 H 376.1 -1.15883 2.92264 0
M  V30 4163 N 379.872 -1.04064 1.18357 0
M  V30 4164 C 381.097 -1.81454 1.00445 0
M  V30 4165 C 381.522 -1.82823 -0.442423 0
M  V30 4166 O 380.88 -1.24555 -1.31741 0
M  V30 4167 C 380.928 -3.24925 1.56384 0
M  V30 4168 O 380.032 -4.04856 0.785209 0
M  V30 4169 H 379.373 -0.560604 0.355835 0
M  V30 4170 H 381.903 -1.31059 1.57114 0
M  V30 4171 H 381.913 -3.75702 1.59097 0
M  V30 4172 H 380.588 -3.23244 2.61699 0
M  V30 4173 H 379.165 -3.63537 0.830399 0
M  V30 4174 N 381.35 -0.985608 -1.22978 0
M  V30 4175 C 382.596 -0.667998 -1.92118 0
M  V30 4176 C 382.951 0.790454 -1.75413 0
M  V30 4177 O 382.244 1.56336 -1.10768 0
M  V30 4178 C 382.438 -1.00014 -3.43121 0
M  V30 4179 C 382.267 -2.48933 -3.74516 0
M  V30 4180 C 381.037 -3.15218 -3.94925 0
M  V30 4181 C 383.235 -3.47024 -3.79577 0
M  V30 4182 N 381.217 -4.53689 -4.13569 0
M  V30 4183 C 382.588 -4.70923 -4.03276 0
M  V30 4184 C 384.643 -3.41432 -3.62393 0
M  V30 4185 C 383.346 -5.89914 -4.11574 0
M  V30 4186 C 385.372 -4.59793 -3.71947 0
M  V30 4187 C 384.734 -5.82489 -3.96088 0
M  V30 4188 H 380.833 -0.295589 -0.723983 0
M  V30 4189 H 383.417 -1.26413 -1.4808 0
M  V30 4190 H 381.588 -0.432655 -3.85983 0
M  V30 4191 H 383.32 -0.63927 -3.99619 0
M  V30 4192 H 380.075 -2.65702 -3.92045 0
M  V30 4193 H 380.499 -5.25492 -4.26834 0
M  V30 4194 H 385.141 -2.47594 -3.4272 0
M  V30 4195 H 382.859 -6.84164 -4.30053 0
M  V30 4196 H 386.445 -4.57048 -3.59998 0
M  V30 4197 H 385.325 -6.72546 -4.033 0
M  V30 4198 N 382.828 1.3818 -0.7579 0
M  V30 4199 C 383.791 2.28764 -0.141286 0
M  V30 4200 C 384.791 1.47388 0.642907 0
M  V30 4201 O 385.981 1.67781 0.468536 0
M  V30 4202 C 383.113 3.31184 0.808069 0
M  V30 4203 H 384.306 2.848 -0.939633 0
M  V30 4204 H 381.859 1.47212 -0.525191 0
M  V30 4205 H 382.594 2.80247 1.63193 0
M  V30 4206 H 382.379 3.91314 0.248104 0
M  V30 4207 H 383.869 3.98909 1.23536 0
M  V30 4208 N 384.306 0.507319 1.49211 0
M  V30 4209 C 385.253 -0.267728 2.29242 0
M  V30 4210 C 386.223 -0.954609 1.35928 0
M  V30 4211 O 387.408 -0.960046 1.64887 0
M  V30 4212 C 384.548 -1.32243 3.18756 0
M  V30 4213 C 383.661 -0.64669 4.27132 0
M  V30 4214 C 382.796 -1.68238 5.03855 0
M  V30 4215 C 381.835 -0.98885 6.0406 0
M  V30 4216 N 380.972 -1.96903 6.73924 0
M  V30 4217 H 385.812 0.420968 2.95012 0
M  V30 4218 H 383.349 0.219443 1.45454 0
M  V30 4219 H 385.307 -1.94599 3.69036 0
M  V30 4220 H 383.937 -1.97981 2.54958 0
M  V30 4221 H 382.989 0.0902926 3.80293 0
M  V30 4222 H 384.301 -0.101058 4.98698 0
M  V30 4223 H 383.455 -2.38081 5.58034 0
M  V30 4224 H 382.194 -2.26187 4.32077 0
M  V30 4225 H 381.199 -0.276222 5.49106 0
M  V30 4226 H 382.424 -0.415767 6.77826 0
M  V30 4227 H 380.37 -2.53803 6.04913 0
M  V30 4228 H 380.287 -1.47423 7.41487 0
M  V30 4229 H 381.555 -2.66015 7.32705 0
M  V30 4230 N 385.784 -1.5574 0.241426 0
M  V30 4231 C 386.747 -2.19877 -0.647063 0
M  V30 4232 C 387.747 -1.16642 -1.10686 0
M  V30 4233 O 388.937 -1.41757 -1.01245 0
M  V30 4234 C 386.069 -2.83797 -1.88871 0
M  V30 4235 H 387.262 -2.99772 -0.087574 0
M  V30 4236 H 384.815 -1.56298 -0.00813574 0
M  V30 4237 H 385.55 -2.07824 -2.48957 0
M  V30 4238 H 385.335 -3.59414 -1.56728 0
M  V30 4239 H 386.825 -3.32898 -2.52129 0
M  V30 4240 N 387.262 0.0317525 -1.57568 0
M  V30 4241 C 388.492 0.733884 -1.93126 0
M  V30 4242 C 388.9 1.69563 -0.839352 0
M  V30 4243 O 388.243 1.82681 0.193175 0
M  V30 4244 C 388.305 1.54798 -3.24465 0
M  V30 4245 C 387.969 0.751304 -4.50782 0
M  V30 4246 C 388.966 0.0527632 -5.19873 0
M  V30 4247 C 386.651 0.706639 -4.97305 0
M  V30 4248 C 388.645 -0.679774 -6.33765 0
M  V30 4249 C 386.332 -0.0296449 -6.11093 0
M  V30 4250 C 387.33 -0.721614 -6.79177 0
M  V30 4251 O 387.018 -1.44595 -7.90789 0
M  V30 4252 H 386.75 0.211459 -0.642076 0
M  V30 4253 H 389.304 -0.00585615 -2.05399 0
M  V30 4254 H 387.534 2.33147 -3.08512 0
M  V30 4255 H 389.223 2.13247 -3.4537 0
M  V30 4256 H 389.989 0.0783188 -4.84937 0
M  V30 4257 H 385.868 1.23474 -4.44157 0
M  V30 4258 H 389.412 -1.22042 -6.86842 0
M  V30 4259 H 385.309 -0.0571331 -6.45475 0
M  V30 4260 H 386.077 -1.35935 -8.07133 0
M  V30 4261 N 388.74 1.54641 0.303973 0
M  V30 4262 C 389.688 1.86137 1.39484 0
M  V30 4263 C 390.682 0.734854 1.52631 0
M  V30 4264 O 391.888 0.918803 1.54784 0
M  V30 4265 H 388.263 0.590324 0.465856 0
M  V30 4266 H 390.234 2.77324 1.10154 0
M  V30 4267 C 388.983 2.12274 2.75382 0
M  V30 4268 H 388.306 2.98429 2.66046 0
M  V30 4269 H 389.746 2.38254 3.5073 0
M  V30 4270 C 388.205 0.920365 3.24085 0
M  V30 4271 O 388.735 0.139377 4.01458 0
M  V30 4272 N 386.941 0.726566 2.81371 0
M  V30 4273 H 386.488 1.36332 2.18567 0
M  V30 4274 H 386.446 -0.0763799 3.14307 0
M  V30 4275 N 390.218 -0.567019 1.47046 0
M  V30 4276 C 391.446 -1.35027 1.56765 0
M  V30 4277 C 391.861 -1.8758 0.214316 0
M  V30 4278 O 391.218 -1.64471 -0.790919 0
M  V30 4279 C 391.269 -2.52698 2.58507 0
M  V30 4280 O 390.99 -2.0232 3.88585 0
M  V30 4281 C 392.491 -3.45043 2.78316 0
M  V30 4282 H 389.711 -0.41195 0.529658 0
M  V30 4283 H 392.255 -0.687832 1.92585 0
M  V30 4284 H 390.41 -3.149 2.25648 0
M  V30 4285 H 390.824 -2.79068 4.44096 0
M  V30 4286 H 392.298 -4.2405 3.53391 0
M  V30 4287 H 392.775 -3.97971 1.85784 0
M  V30 4288 H 393.381 -2.88665 3.12334 0
M  V30 4289 N 391.696 -1.35014 -0.812953 0
M  V30 4290 C 392.626 -1.30069 -1.93919 0
M  V30 4291 C 393.607 -0.176275 -1.69184 0
M  V30 4292 O 394.792 -0.370227 -1.90638 0
M  V30 4293 C 391.922 -1.06547 -3.30552 0
M  V30 4294 C 390.876 -2.15561 -3.69753 0
M  V30 4295 C 390.202 -1.77214 -5.04479 0
M  V30 4296 C 391.502 -3.57476 -3.808 0
M  V30 4297 H 393.196 -2.24303 -1.98314 0
M  V30 4298 H 390.742 -1.07977 -0.952736 0
M  V30 4299 H 392.695 -1.01729 -4.08937 0
M  V30 4300 H 391.419 -0.0875719 -3.26483 0
M  V30 4301 H 390.078 -2.19466 -2.9365 0
M  V30 4302 H 389.726 -0.780589 -4.96906 0
M  V30 4303 H 389.426 -2.50184 -5.31678 0
M  V30 4304 H 390.95 -1.7391 -5.8531 0
M  V30 4305 H 392.364 -3.55929 -4.4943 0
M  V30 4306 H 390.761 -4.29152 -4.19462 0
M  V30 4307 H 391.831 -3.94091 -2.82525 0
M  V30 4308 N 393.175 1.03435 -1.18907 0
M  V30 4309 C 394.424 1.76143 -0.982669 0
M  V30 4310 C 394.737 1.89416 0.487953 0
M  V30 4311 O 395.943 2.59041 0.813036 0
M  V30 4312 C 394.399 3.16722 -1.70924 0
M  V30 4313 C 394.007 3.11522 -3.21959 0
M  V30 4314 C 395.751 3.93764 -1.58588 0
M  V30 4315 C 393.658 4.46999 -3.87228 0
M  V30 4316 H 392.588 0.660292 -0.364047 0
M  V30 4317 H 395.239 1.158 -1.42347 0
M  V30 4318 H 393.621 3.775 -1.19623 0
M  V30 4319 H 394.795 2.60158 -3.80335 0
M  V30 4320 H 393.11 2.47978 -3.34508 0
M  V30 4321 H 395.707 4.93963 -2.04707 0
M  V30 4322 H 396.05 4.12794 -0.539142 0
M  V30 4323 H 396.583 3.39576 -2.07203 0
M  V30 4324 H 393.322 4.33174 -4.91976 0
M  V30 4325 H 392.842 4.98441 -3.33642 0
M  V30 4326 H 394.521 5.15898 -3.90459 0
M  V30 4327 N 394.653 0.992116 1.22453 0
M  V30 4328 C 395.6 0.541731 2.24352 0
M  V30 4329 C 396.57 -0.425519 1.60557 0
M  V30 4330 O 397.755 -0.330453 1.87917 0
M  V30 4331 C 394.895 -0.138248 3.44823 0
M  V30 4332 C 394.008 0.870649 4.23136 0
M  V30 4333 C 393.143 0.164269 5.30946 0
M  V30 4334 C 392.182 1.16159 6.00977 0
M  V30 4335 N 391.319 0.483568 7.00433 0
M  V30 4336 H 396.159 1.41541 2.62241 0
M  V30 4337 H 393.696 0.709013 1.28885 0
M  V30 4338 H 395.654 -0.5494 4.13567 0
M  V30 4339 H 394.284 -0.975721 3.077 0
M  V30 4340 H 393.336 1.40013 3.53696 0
M  V30 4341 H 394.648 1.63014 4.7141 0
M  V30 4342 H 393.802 -0.303653 6.0594 0
M  V30 4343 H 392.541 -0.627733 4.83643 0
M  V30 4344 H 391.546 1.64015 5.24766 0
M  V30 4345 H 392.771 1.95445 6.50368 0
M  V30 4346 H 390.717 -0.289012 6.55363 0
M  V30 4347 H 390.634 1.18152 7.4671 0
M  V30 4348 H 391.902 0.0384219 7.79491 0
M  V30 4349 N 396.131 -1.37776 0.765217 0
M  V30 4350 C 397.408 -1.93975 0.251596 0
M  V30 4351 C 397.788 -1.69949 -1.25222 0
M  V30 4352 O 397.136 -1.04457 -2.03226 0
M  V30 4353 C 397.346 -3.43487 0.617895 0
M  V30 4354 C 398.694 -4.20564 0.584029 0
M  V30 4355 O 399.718 -3.5182 0.556888 0
M  V30 4356 O 398.577 -5.43138 0.605291 0
M  V30 4357 H 395.671 -0.82509 0.0561806 0
M  V30 4358 H 398.217 -1.47101 0.846128 0
M  V30 4359 H 396.989 -3.5453 1.65602 0
M  V30 4360 H 396.612 -3.976 -0.00403411 0
M  V30 4361 N 397.609 -0.515225 -1.4894 0
M  V30 4362 C 398.556 0.255567 -2.29381 0
M  V30 4363 C 399.526 0.947387 -1.36432 0
M  V30 4364 O 400.711 0.951288 -1.65394 0
M  V30 4365 C 397.851 1.30551 -3.19453 0
M  V30 4366 C 396.964 0.624029 -4.27469 0
M  V30 4367 C 396.099 1.65563 -5.0474 0
M  V30 4368 C 395.138 0.956802 -6.04576 0
M  V30 4369 N 394.275 1.93326 -6.74959 0
M  V30 4370 H 399.115 -0.436607 -2.94784 0
M  V30 4371 H 396.652 -0.227154 -1.45336 0
M  V30 4372 H 398.61 1.92639 -3.70062 0
M  V30 4373 H 397.24 1.96626 -2.56004 0
M  V30 4374 H 396.292 -0.110459 -3.8024 0
M  V30 4375 H 397.604 0.0746092 -4.98744 0
M  V30 4376 H 396.758 2.35119 -5.59289 0
M  V30 4377 H 395.497 2.23893 -4.3327 0
M  V30 4378 H 394.502 0.247097 -5.49244 0
M  V30 4379 H 395.727 0.379814 -6.78037 0
M  V30 4380 H 393.673 2.50591 -6.06251 0
M  V30 4381 H 393.59 1.43489 -7.42258 0
M  V30 4382 H 394.858 2.62126 -7.34105 0
M  V30 4383 N 399.087 1.5561 -0.249682 0
M  V30 4384 C 400.333 1.99306 0.374841 0
M  V30 4385 C 400.666 1.13767 1.57387 0
M  V30 4386 O 399.941 0.201711 1.93451 0
M  V30 4387 C 400.224 3.51507 0.781986 0
M  V30 4388 C 400.077 4.4781 -0.422629 0
M  V30 4389 C 401.396 4.08884 1.62793 0
M  V30 4390 H 398.515 0.724572 0.134773 0
M  V30 4391 H 401.157 1.86719 -0.351549 0
M  V30 4392 H 399.307 3.62363 1.4009 0
M  V30 4393 H 400.979 4.48931 -1.06108 0
M  V30 4394 H 399.222 4.20518 -1.06524 0
M  V30 4395 H 399.893 5.51919 -0.0943766 0
M  V30 4396 H 402.369 4.01147 1.10547 0
M  V30 4397 H 401.245 5.1564 1.88166 0
M  V30 4398 H 401.506 3.57515 2.60068 0
M  V30 4399 N 400.565 -0.0233959 1.57583 0
M  V30 4400 C 401.513 -1.04063 2.08023 0
M  V30 4401 C 402.507 -1.37084 0.995204 0
M  V30 4402 O 403.713 -1.35923 1.18004 0
M  V30 4403 H 400.088 -0.353144 0.663922 0
M  V30 4404 H 402.059 -0.589453 2.9252 0
M  V30 4405 C 400.808 -2.33123 2.57971 0
M  V30 4406 H 400.131 -2.08577 3.4108 0
M  V30 4407 H 401.571 -3.02632 2.96967 0
M  V30 4408 C 400.03 -3.02483 1.48342 0
M  V30 4409 O 400.56 -3.92541 0.852898 0
M  V30 4410 N 398.766 -2.63909 1.21658 0
M  V30 4411 H 398.313 -1.90758 1.73116 0
M  V30 4412 H 398.271 -3.10633 0.485218 0
M  V30 4413 N 402.043 -1.548 -0.295768 0
M  V30 4414 C 403.459 -1.4613 -0.641722 0
M  V30 4415 C 403.659 -0.656771 -1.90496 0
M  V30 4416 O 402.715 -0.166547 -2.5195 0
M  V30 4417 C 404.028 -2.90141 -0.789852 0
M  V30 4418 C 405.576 -3.00216 -0.885396 0
M  V30 4419 C 406.051 -4.45434 -1.06548 0
M  V30 4420 N 407.542 -4.49166 -1.13156 0
M  V30 4421 C 408.277 -5.58717 -1.28929 0
M  V30 4422 N 407.773 -6.78182 -1.41567 0
M  V30 4423 N 409.566 -5.46415 -1.31859 0
M  V30 4424 H 401.717 -2.05574 0.534147 0
M  V30 4425 H 403.98 -0.931259 0.177372 0
M  V30 4426 H 403.686 -3.51635 0.0675598 0
M  V30 4427 H 403.56 -3.37859 -1.67724 0
M  V30 4428 H 405.947 -2.38833 -1.73329 0
M  V30 4429 H 406.028 -2.55787 0.0261185 0
M  V30 4430 H 405.672 -5.07413 -0.222335 0
M  V30 4431 H 405.602 -4.87499 -1.9913 0
M  V30 4432 H 408.093 -3.631 -1.04721 0
M  V30 4433 H 408.406 -7.57428 -1.53372 0
M  V30 4434 H 406.751 -6.81037 -1.38613 0
M  V30 4435 H 409.942 -4.5203 -1.21601 0
M  V30 4436 H 410.115 -6.31841 -1.43808 0
M  V30 4437 N 403.521 0.559213 -1.47345 0
M  V30 4438 C 404.798 1.31997 -1.44348 0
M  V30 4439 C 405.178 2.1064 -0.139358 0
M  V30 4440 O 404.526 2.1091 0.879153 0
M  V30 4441 C 404.736 2.22618 -2.68779 0
M  V30 4442 C 406.084 2.83701 -3.1591 0
M  V30 4443 O 407.108 2.32921 -2.69493 0
M  V30 4444 O 405.967 3.75993 -3.966 0
M  V30 4445 H 403.061 0.594251 -0.575147 0
M  V30 4446 H 405.607 0.578282 -1.59543 0
M  V30 4447 H 404.379 1.64093 -3.55231 0
M  V30 4448 H 404.002 3.04085 -2.5616 0
M  V30 4449 N 404.999 1.35443 0.805782 0
M  V30 4450 C 406.224 1.32037 1.59941 0
M  V30 4451 C 406.649 -0.0994215 1.87837 0
M  V30 4452 O 406.007 -1.06648 1.46615 0
M  V30 4453 C 406.055 2.13354 2.90711 0
M  V30 4454 O 405.159 1.5148 3.83572 0
M  V30 4455 H 404.5 0.452666 0.485787 0
M  V30 4456 H 407.03 1.78496 1.00002 0
M  V30 4457 H 407.04 2.25338 3.40128 0
M  V30 4458 H 405.715 3.16572 2.69732 0
M  V30 4459 H 404.292 1.4834 3.42125 0
M  V30 4460 N 406.477 -1.02803 1.19454 0
M  V30 4461 C 407.723 -1.76478 0.999171 0
M  V30 4462 C 408.056 -1.88456 -0.468828 0
M  V30 4463 O 407.331 -1.40198 -1.34814 0
M  V30 4464 C 407.614 -3.19044 1.66981 0
M  V30 4465 C 407.467 -3.14932 3.21151 0
M  V30 4466 C 408.786 -4.17456 1.39349 0
M  V30 4467 H 405.905 -0.640614 0.364393 0
M  V30 4468 H 408.547 -1.20005 1.47305 0
M  V30 4469 H 406.697 -3.67263 1.2669 0
M  V30 4470 H 408.369 -2.74605 3.70661 0
M  V30 4471 H 406.612 -2.52625 3.52652 0
M  V30 4472 H 407.283 -4.1566 3.63223 0
M  V30 4473 H 409.759 -3.77842 1.74283 0
M  V30 4474 H 408.635 -5.154 1.88823 0
M  V30 4475 H 408.896 -4.40949 0.318813 0
M  V30 4476 N 407.956 -0.998596 -1.21925 0
M  V30 4477 C 409.372 -0.710303 -1.42923 0
M  V30 4478 C 409.572 0.716933 -1.88314 0
M  V30 4479 O 408.628 1.48712 -2.04062 0
M  V30 4480 C 409.941 -1.72072 -2.466 0
M  V30 4481 C 411.489 -1.73681 -2.60392 0
M  V30 4482 C 411.964 -2.73601 -3.67296 0
M  V30 4483 N 413.455 -2.7223 -3.7476 0
M  V30 4484 C 414.19 -3.46206 -4.57087 0
M  V30 4485 N 413.686 -4.29802 -5.43362 0
M  V30 4486 N 415.479 -3.34886 -4.51451 0
M  V30 4487 H 407.63 -1.92028 -0.9077 0
M  V30 4488 H 409.893 -0.828487 -0.460775 0
M  V30 4489 H 409.599 -2.74231 -2.20206 0
M  V30 4490 H 409.473 -1.51818 -3.45299 0
M  V30 4491 H 411.86 -0.722173 -2.86127 0
M  V30 4492 H 411.941 -1.98005 -1.61949 0
M  V30 4493 H 411.585 -3.75217 -3.42307 0
M  V30 4494 H 411.515 -2.46545 -4.65321 0
M  V30 4495 H 414.006 -2.11576 -3.1312 0
M  V30 4496 H 414.319 -4.83061 -6.03218 0
M  V30 4497 H 412.664 -4.33887 -5.42925 0
M  V30 4498 H 415.855 -2.69015 -3.83078 0
M  V30 4499 H 416.028 -3.92796 -5.15379 0
M  V30 4500 N 409.434 1.37368 -0.772513 0
M  V30 4501 C 410.659 2.0447 -0.347386 0
M  V30 4502 C 411.084 1.57882 1.0225 0
M  V30 4503 O 410.442 0.73941 1.65537 0
M  V30 4504 C 410.49 3.58369 -0.400479 0
M  V30 4505 O 409.594 4.0803 0.598789 0
M  V30 4506 H 408.935 0.646773 -0.15027 0
M  V30 4507 H 411.465 1.75667 -1.04892 0
M  V30 4508 H 411.475 4.07183 -0.258045 0
M  V30 4509 H 410.15 3.91633 -1.39986 0
M  V30 4510 H 408.727 3.70534 0.419411 0
M  V30 4511 N 410.912 0.523116 1.48665 0
M  V30 4512 C 412.161 -0.01544 2.01694 0
M  V30 4513 C 412.474 -1.35975 1.40606 0
M  V30 4514 O 413.68 -1.98627 1.85093 0
M  V30 4515 C 412.136 -0.0779303 3.59816 0
M  V30 4516 C 411.744 1.26107 4.29885 0
M  V30 4517 C 413.488 -0.565678 4.20714 0
M  V30 4518 C 411.395 1.15954 5.79921 0
M  V30 4519 H 410.325 -0.00954163 0.75394 0
M  V30 4520 H 412.976 0.665865 1.70993 0
M  V30 4521 H 411.358 -0.824165 3.87329 0
M  V30 4522 H 412.532 2.02233 4.14051 0
M  V30 4523 H 410.847 1.68401 3.80828 0
M  V30 4524 H 413.444 -0.6595 5.30617 0
M  V30 4525 H 413.787 -1.56984 3.85567 0
M  V30 4526 H 414.32 0.12467 3.97605 0
M  V30 4527 H 411.059 2.13864 6.19631 0
M  V30 4528 H 410.579 0.439529 5.98187 0
M  V30 4529 H 412.258 0.847361 6.41427 0
M  V30 4530 N 412.39 -1.55475 0.257931 0
M  V30 4531 C 413.322 -2.19192 -0.669881 0
M  V30 4532 C 414.335 -1.17148 -1.1305 0
M  V30 4533 O 415.524 -1.43959 -1.05537 0
M  V30 4534 C 412.624 -2.79016 -1.92363 0
M  V30 4535 C 411.797 -4.06586 -1.61265 0
M  V30 4536 C 410.856 -4.50622 -2.7171 0
M  V30 4537 O 409.882 -5.16765 -2.38627 0
M  V30 4538 N 411.084 -4.19325 -4.01431 0
M  V30 4539 H 413.849 -2.99441 -0.124635 0
M  V30 4540 H 411.41 -1.6171 0.0783311 0
M  V30 4541 H 413.402 -3.05427 -2.65511 0
M  V30 4542 H 411.972 -2.0286 -2.37837 0
M  V30 4543 H 411.192 -3.87646 -0.715811 0
M  V30 4544 H 412.48 -4.89737 -1.37967 0
M  V30 4545 H 411.878 -3.66247 -4.31138 0
M  V30 4546 H 410.435 -4.50547 -4.7101 0
M  V30 4547 N 413.868 0.0150385 -1.57593 0
M  V30 4548 C 414.815 1.01126 -2.07466 0
M  V30 4549 C 415.785 1.35064 -0.966794 0
M  V30 4550 O 416.97 1.4516 -1.23827 0
M  V30 4551 C 414.11 2.30276 -2.57035 0
M  V30 4552 C 413.223 2.02373 -3.81666 0
M  V30 4553 C 412.358 3.25496 -4.19793 0
M  V30 4554 C 411.397 2.93211 -5.37303 0
M  V30 4555 N 410.534 4.08826 -5.70794 0
M  V30 4556 H 415.374 0.57901 -2.92321 0
M  V30 4557 H 412.911 0.27426 -1.44521 0
M  V30 4558 H 414.869 3.05757 -2.83846 0
M  V30 4559 H 413.499 2.71197 -1.75077 0
M  V30 4560 H 412.551 1.17327 -3.61854 0
M  V30 4561 H 413.863 1.74567 -4.67256 0
M  V30 4562 H 413.017 4.09333 -4.47807 0
M  V30 4563 H 411.756 3.56428 -3.32882 0
M  V30 4564 H 410.761 2.07777 -5.09027 0
M  V30 4565 H 411.986 2.63542 -6.25877 0
M  V30 4566 H 409.932 4.39682 -4.86842 0
M  V30 4567 H 409.849 3.84491 -6.50924 0
M  V30 4568 H 411.117 4.93496 -6.03392 0
M  V30 4569 N 415.346 1.54954 0.287554 0
M  V30 4570 C 416.571 1.79209 1.04397 0
M  V30 4571 C 416.996 0.556431 1.79682 0
M  V30 4572 O 416.354 -0.493518 1.74454 0
M  V30 4573 C 416.402 3.00739 1.98969 0
M  V30 4574 O 415.506 2.74805 3.075 0
M  V30 4575 H 414.847 0.592755 0.299227 0
M  V30 4576 H 417.377 2.02068 0.320886 0
M  V30 4577 H 417.387 3.29077 2.4119 0
M  V30 4578 H 416.062 3.90329 1.43582 0
M  V30 4579 H 414.639 2.57523 2.69697 0
M  V30 4580 N 416.824 -0.551391 1.4764 0
M  V30 4581 C 418.073 -1.30467 1.53822 0
M  V30 4582 C 418.386 -1.94495 0.207661 0
M  V30 4583 O 419.592 -2.71099 0.147533 0
M  V30 4584 C 418.048 -2.36616 2.71184 0
M  V30 4585 C 417.656 -1.78754 4.10793 0
M  V30 4586 C 419.4 -3.13088 2.86663 0
M  V30 4587 C 417.307 -2.82717 5.19447 0
M  V30 4588 H 416.237 -0.490584 0.572576 0
M  V30 4589 H 418.888 -0.58494 1.73927 0
M  V30 4590 H 417.27 -3.11529 2.4447 0
M  V30 4591 H 418.444 -1.10173 4.47435 0
M  V30 4592 H 416.759 -1.14846 4.00249 0
M  V30 4593 H 419.356 -3.90736 3.65007 0
M  V30 4594 H 419.699 -3.67635 1.95321 0
M  V30 4595 H 420.232 -2.45288 3.13175 0
M  V30 4596 H 416.971 -2.33018 6.12685 0
M  V30 4597 H 416.491 -3.4969 4.87316 0
M  V30 4598 H 418.17 -3.46102 5.46646 0
M  V30 4599 N 418.302 -1.35869 -0.798587 0
M  V30 4600 C 419.549 -1.29588 -1.55606 0
M  V30 4601 C 419.877 0.127456 -1.94082 0
M  V30 4602 O 419.132 1.09461 -1.62225 0
M  V30 4603 C 419.431 -2.1556 -2.85077 0
M  V30 4604 C 419.097 -3.6424 -2.65781 0
M  V30 4605 C 417.759 -4.04766 -2.60227 0
M  V30 4606 C 420.111 -4.58547 -2.47758 0
M  V30 4607 C 417.439 -5.37753 -2.34603 0
M  V30 4608 C 419.791 -5.91742 -2.23662 0
M  V30 4609 C 418.455 -6.31402 -2.16534 0
M  V30 4610 H 417.725 -0.474197 -0.569402 0
M  V30 4611 H 420.372 -1.67839 -0.922086 0
M  V30 4612 H 418.677 -1.70216 -3.52893 0
M  V30 4613 H 420.374 -2.08031 -3.42818 0
M  V30 4614 H 416.964 -3.32086 -2.70956 0
M  V30 4615 H 421.148 -4.28117 -2.51056 0
M  V30 4616 H 416.404 -5.67474 -2.2756 0
M  V30 4617 H 420.578 -6.6439 -2.08708 0
M  V30 4618 H 418.205 -7.34381 -1.96441 0
M  V30 4619 N 419.78 1.02168 -1.19998 0
M  V30 4620 C 421.008 1.79296 -1.03249 0
M  V30 4621 C 421.423 1.84103 0.418502 0
M  V30 4622 O 420.78 1.29031 1.29063 0
M  V30 4623 C 420.831 3.24007 -1.60319 0
M  V30 4624 O 420.552 3.19512 -2.99739 0
M  V30 4625 C 422.053 4.17704 -1.48453 0
M  V30 4626 H 419.273 0.564016 -0.363493 0
M  V30 4627 H 421.817 1.28639 -1.58973 0
M  V30 4628 H 419.972 3.7183 -1.08727 0
M  V30 4629 H 420.386 4.10306 -3.26725 0
M  V30 4630 H 421.86 5.17104 -1.93153 0
M  V30 4631 H 422.337 4.37029 -0.436193 0
M  V30 4632 H 422.943 3.7576 -1.99211 0
M  V30 4633 N 421.258 1.00505 1.21394 0
M  V30 4634 C 422.504 0.688793 1.90745 0
M  V30 4635 C 422.837 -0.778486 1.77914 0
M  V30 4636 O 422.112 -1.56433 1.15581 0
M  V30 4637 C 422.395 1.11063 3.42545 0
M  V30 4638 C 422.248 2.63737 3.64367 0
M  V30 4639 C 423.567 0.673059 4.34923 0
M  V30 4640 H 420.686 0.251702 0.692687 0
M  V30 4641 H 423.328 1.25074 1.43026 0
M  V30 4642 H 421.478 0.632508 3.83317 0
M  V30 4643 H 423.15 3.19313 3.32922 0
M  V30 4644 H 421.393 3.05248 3.08231 0
M  V30 4645 H 422.064 2.88305 4.70727 0
M  V30 4646 H 424.54 1.08392 4.01734 0
M  V30 4647 H 423.416 0.996383 5.39781 0
M  V30 4648 H 423.677 -0.425808 4.40045 0
M  V30 4649 N 422.737 -1.36956 0.779787 0
M  V30 4650 C 423.977 -2.01328 0.353043 0
M  V30 4651 C 424.341 -1.60558 -1.05286 0
M  V30 4652 O 425.542 -2.1745 -1.58016 0
M  V30 4653 C 423.813 -3.53874 0.500822 0
M  V30 4654 S 425.372 -4.38506 0.16053 0
M  V30 4655 H 422.19 -0.69799 0.13539 0
M  V30 4656 H 424.792 -1.67016 1.01617 0
M  V30 4657 H 423.496 -3.81034 1.52451 0
M  V30 4658 H 423.027 -3.92994 -0.178574 0
M  V30 4659 H 425.042 -4.85153 -1.04121 0
M  V30 4660 N 424.215 -0.530993 -1.48385 0
M  V30 4661 C 425.145 0.219985 -2.32461 0
M  V30 4662 C 426.126 0.934111 -1.42156 0
M  V30 4663 O 427.311 0.919694 -1.71042 0
M  V30 4664 C 424.441 1.26674 -3.23375 0
M  V30 4665 C 423.395 0.67069 -4.22712 0
M  V30 4666 C 422.721 1.82017 -5.02766 0
M  V30 4667 C 424.021 -0.358268 -5.2107 0
M  V30 4668 H 425.715 -0.48187 -2.95497 0
M  V30 4669 H 423.261 -0.233182 -1.42099 0
M  V30 4670 H 425.214 1.80006 -3.81019 0
M  V30 4671 H 423.938 1.99818 -2.58341 0
M  V30 4672 H 422.597 0.158878 -3.66256 0
M  V30 4673 H 422.245 2.54002 -4.34157 0
M  V30 4674 H 421.945 1.42727 -5.70003 0
M  V30 4675 H 423.469 2.35725 -5.63264 0
M  V30 4676 H 424.883 0.0880081 -5.73232 0
M  V30 4677 H 423.28 -0.66861 -5.96364 0
M  V30 4678 H 424.35 -1.26367 -4.68145 0
M  V30 4679 N 425.693 1.55336 -0.266172 0
M  V30 4680 C 426.97 1.91372 0.404486 0
M  V30 4681 C 427.35 1.18935 1.74407 0
M  V30 4682 O 426.698 0.3132 2.26343 0
M  V30 4683 C 426.908 3.44581 0.553593 0
M  V30 4684 C 428.256 4.16196 0.840618 0
M  V30 4685 O 429.28 3.50426 0.638739 0
M  V30 4686 O 428.139 5.32567 1.22618 0
M  V30 4687 H 425.233 0.797194 0.220025 0
M  V30 4688 H 427.779 1.66813 -0.311664 0
M  V30 4689 H 426.551 3.89357 -0.389498 0
M  V30 4690 H 426.174 3.75065 1.31955 0
M  V30 4691 N 427.171 -0.0066808 1.57599 0
M  V30 4692 C 428.134 -0.985035 2.06953 0
M  V30 4693 C 429.134 -1.27663 0.977687 0
M  V30 4694 O 430.324 -1.22293 1.24057 0
M  V30 4695 C 427.456 -2.3118 2.50536 0
M  V30 4696 H 428.649 -0.558255 2.94658 0
M  V30 4697 H 426.202 -0.254011 1.54222 0
M  V30 4698 H 426.937 -2.78561 1.66054 0
M  V30 4699 H 426.722 -2.11338 3.3027 0
M  V30 4700 H 428.212 -3.01377 2.8907 0
M  V30 4701 N 428.649 -1.55105 -0.279332 0
M  V30 4702 C 429.877 -1.7943 -1.03017 0
M  V30 4703 C 430.292 -0.564456 -1.80165 0
M  V30 4704 O 429.649 0.466326 -1.76442 0
M  V30 4705 C 429.7 -3.0155 -1.99374 0
M  V30 4706 O 429.421 -4.19784 -1.25352 0
M  V30 4707 C 430.922 -3.3843 -2.86321 0
M  V30 4708 H 428.142 -0.597882 -0.304594 0
M  V30 4709 H 430.686 -2.02105 -0.312035 0
M  V30 4710 H 428.841 -2.81019 -2.66659 0
M  V30 4711 H 429.255 -4.88781 -1.90246 0
M  V30 4712 H 430.729 -4.27066 -3.49741 0
M  V30 4713 H 431.206 -2.57549 -3.5576 0
M  V30 4714 H 431.812 -3.61197 -2.24536 0
M  V30 4715 N 430.127 0.543554 -1.4793 0
M  V30 4716 C 431.06 1.66556 -1.55995 0
M  V30 4717 C 432.038 1.57315 -0.411205 0
M  V30 4718 O 433.222 1.7798 -0.620922 0
M  V30 4719 C 430.349 3.04883 -1.47527 0
M  V30 4720 C 429.395 3.32526 -2.67074 0
M  V30 4721 S 430.228 3.20282 -4.29162 0
M  V30 4722 C 431.384 4.61079 -4.23269 0
M  V30 4723 H 431.617 1.59462 -2.50917 0
M  V30 4724 H 429.15 0.725456 -1.36296 0
M  V30 4725 H 431.108 3.84665 -1.43328 0
M  V30 4726 H 429.769 3.09429 -0.539665 0
M  V30 4727 H 428.962 4.33403 -2.5725 0
M  V30 4728 H 428.564 2.60389 -2.68466 0
M  V30 4729 H 430.856 5.52318 -3.92365 0
M  V30 4730 H 431.799 4.75959 -5.24279 0
M  V30 4731 H 432.207 4.39766 -3.5393 0
M  V30 4732 N 431.605 1.3629 0.791371 0
M  V30 4733 C 433.016 1.27225 1.36641 0
M  V30 4734 C 433.367 -0.0887968 1.95999 0
M  V30 4735 O 432.492 -0.990207 1.92416 0
M  V30 4736 C 433.087 2.30375 2.48421 0
M  V30 4737 C 431.646 2.25004 3.01746 0
M  V30 4738 C 430.793 2.15259 1.7481 0
M  V30 4739 H 433.744 1.47198 0.593173 0
M  V30 4740 H 433.765 1.93905 3.27385 0
M  V30 4741 H 433.277 3.29422 2.05189 0
M  V30 4742 H 431.378 1.29417 3.49403 0
M  V30 4743 H 431.491 3.1761 3.58693 0
M  V30 4744 H 429.855 1.61482 1.96966 0
M  V30 4745 H 430.638 3.16191 1.33709 0
M  V30 4746 N 433.083 -1.0153 1.20538 0
M  V30 4747 C 434.499 -1.27461 0.96051 0
M  V30 4748 C 434.699 -1.98273 -0.359193 0
M  V30 4749 O 433.755 -2.27886 -1.0874 0
M  V30 4750 C 435.068 -2.10837 2.14402 0
M  V30 4751 C 436.616 -2.24099 2.18515 0
M  V30 4752 C 437.091 -3.10852 3.36355 0
M  V30 4753 N 438.582 -3.18441 3.36377 0
M  V30 4754 C 439.317 -3.85795 4.24205 0
M  V30 4755 N 438.813 -4.55264 5.22213 0
M  V30 4756 N 440.606 -3.82331 4.12043 0
M  V30 4757 H 432.757 -0.539907 2.05423 0
M  V30 4758 H 435.02 -0.30092 0.898972 0
M  V30 4759 H 434.726 -1.66144 3.09983 0
M  V30 4760 H 434.6 -3.11576 2.12604 0
M  V30 4761 H 436.987 -2.68016 1.23497 0
M  V30 4762 H 437.068 -1.22865 2.24361 0
M  V30 4763 H 436.712 -2.6764 4.31661 0
M  V30 4764 H 436.642 -4.12177 3.27746 0
M  V30 4765 H 439.133 -2.68978 2.65442 0
M  V30 4766 H 439.446 -5.04331 5.85551 0
M  V30 4767 H 437.791 -4.54085 5.26148 0
M  V30 4768 H 440.982 -3.27207 3.34743 0
M  V30 4769 H 441.155 -4.34547 4.807 0
M  V30 4770 N 434.561 -1.01147 -1.20859 0
M  V30 4771 C 435.807 -0.698899 -1.90377 0
M  V30 4772 C 436.14 0.76904 -1.78324 0
M  V30 4773 O 435.415 1.55817 -1.16409 0
M  V30 4774 C 435.698 -1.12878 -3.41951 0
M  V30 4775 C 435.551 -2.65665 -3.62963 0
M  V30 4776 C 436.87 -0.696114 -4.3456 0
M  V30 4777 H 433.989 -0.255372 -0.691342 0
M  V30 4778 H 436.631 -1.25831 -1.42361 0
M  V30 4779 H 434.781 -0.652827 -3.82976 0
M  V30 4780 H 436.453 -3.21074 -3.31224 0
M  V30 4781 H 434.696 -3.06878 -3.06608 0
M  V30 4782 H 435.367 -2.90797 -4.69192 0
M  V30 4783 H 437.843 -1.10521 -4.01154 0
M  V30 4784 H 436.719 -1.025 -5.39245 0
M  V30 4785 H 436.98 0.402465 -4.40264 0
M  V30 4786 N 436.039 1.36541 -0.78704 0
M  V30 4787 C 437.264 2.0409 -0.369053 0
M  V30 4788 C 437.689 1.58957 1.00569 0
M  V30 4789 O 437.047 0.756926 1.64743 0
M  V30 4790 C 437.095 3.57924 -0.438466 0
M  V30 4791 O 436.199 4.08642 0.555479 0
M  V30 4792 H 435.54 0.645142 -0.157122 0
M  V30 4793 H 438.07 1.74545 -1.06749 0
M  V30 4794 H 438.08 4.06887 -0.301218 0
M  V30 4795 H 436.755 3.90127 -1.44132 0
M  V30 4796 H 435.332 3.70958 0.380088 0
M  V30 4797 N 437.518 0.538854 1.48102 0
M  V30 4798 C 438.428 -0.222648 2.33541 0
M  V30 4799 C 439.444 -0.930225 1.47047 0
M  V30 4800 O 440.62 -0.903211 1.80011 0
M  V30 4801 C 437.685 -1.25064 3.23357 0
M  V30 4802 C 436.746 -0.552469 4.2573 0
M  V30 4803 C 435.979 -1.53149 5.11254 0
M  V30 4804 O 436.202 -2.76487 4.9891 0
M  V30 4805 O 435.136 -1.06602 5.92385 0
M  V30 4806 H 438.962 0.477707 2.99919 0
M  V30 4807 H 436.547 0.299669 1.46364 0
M  V30 4808 H 438.429 -1.8445 3.78888 0
M  V30 4809 H 437.104 -1.93325 2.59629 0
M  V30 4810 H 436.011 0.082114 3.7401 0
M  V30 4811 H 437.344 0.0883526 4.92121 0
M  V30 4812 N 438.996 -1.55193 0.274407 0
M  V30 4813 C 440.273 -1.91584 -0.394331 0
M  V30 4814 C 440.653 -1.19858 -1.73774 0
M  V30 4815 O 440.001 -0.3252 -2.26174 0
M  V30 4816 C 440.211 -3.4487 -0.535311 0
M  V30 4817 C 441.559 -4.16636 -0.818534 0
M  V30 4818 O 442.583 -3.5076 -0.620146 0
M  V30 4819 O 441.442 -5.33209 -1.19792 0
M  V30 4820 H 438.536 -0.798349 -0.215794 0
M  V30 4821 H 441.082 -1.66646 0.320507 0
M  V30 4822 H 439.854 -3.89145 0.410141 0
M  V30 4823 H 439.477 -3.75759 -1.29964 0
M  V30 4824 N 440.474 -0.00167713 -1.576 0
M  V30 4825 C 441.72 0.683832 -1.90923 0
M  V30 4826 C 442.053 1.7333 -0.875799 0
M  V30 4827 O 441.328 1.94215 0.10525 0
M  V30 4828 C 441.611 1.32543 -3.3482 0
M  V30 4829 C 441.464 0.287387 -4.48881 0
M  V30 4830 C 442.783 2.25114 -3.78169 0
M  V30 4831 H 439.902 0.247125 -0.694333 0
M  V30 4832 H 442.544 -0.0533149 -1.89925 0
M  V30 4833 H 440.694 1.95372 -3.35801 0
M  V30 4834 H 442.366 -0.341346 -4.60035 0
M  V30 4835 H 440.609 -0.39017 -4.32042 0
M  V30 4836 H 441.28 0.775393 -5.46527 0
M  V30 4837 H 443.756 1.723 -3.7875 0
M  V30 4838 H 442.632 2.66971 -4.79602 0
M  V30 4839 H 442.893 3.13092 -3.12131 0
M  V30 4840 N 441.952 1.55251 0.271103 0
M  V30 4841 C 443.182 1.79713 1.01916 0
M  V30 4842 C 443.59 0.571613 1.80359 0
M  V30 4843 O 442.933 -0.468853 1.77616 0
M  V30 4844 C 442.995 2.97138 2.02359 0
M  V30 4845 C 442.659 4.34104 1.42837 0
M  V30 4846 C 443.656 5.13019 0.843071 0
M  V30 4847 C 441.341 4.80765 1.455 0
M  V30 4848 C 443.335 6.36729 0.292333 0
M  V30 4849 C 441.022 6.0443 0.900402 0
M  V30 4850 C 442.02 6.8225 0.32007 0
M  V30 4851 O 441.708 8.03582 -0.226031 0
M  V30 4852 H 441.44 0.602431 0.306681 0
M  V30 4853 H 443.994 2.03097 0.306701 0
M  V30 4854 H 442.224 2.6945 2.77369 0
M  V30 4855 H 443.913 3.08907 2.63309 0
M  V30 4856 H 444.679 4.781 0.815178 0
M  V30 4857 H 440.558 4.20202 1.89609 0
M  V30 4858 H 444.102 6.97414 -0.161274 0
M  V30 4859 H 439.999 6.3883 0.925541 0
M  V30 4860 H 440.767 8.18418 -0.115572 0
M  V30 4861 N 443.43 -0.535701 1.48216 0
M  V30 4862 C 444.846 -0.863701 1.3421 0
M  V30 4863 C 445.046 -1.98458 0.34879 0
M  V30 4864 O 444.102 -2.51432 -0.23204 0
M  V30 4865 C 445.415 -1.23662 2.74095 0
M  V30 4866 C 446.963 -1.34683 2.82541 0
M  V30 4867 C 447.438 -1.75322 4.23115 0
M  V30 4868 N 448.929 -1.82434 4.2576 0
M  V30 4869 C 449.664 -2.15252 5.31464 0
M  V30 4870 N 449.16 -2.46533 6.47452 0
M  V30 4871 N 450.953 -2.16209 5.18855 0
M  V30 4872 H 443.104 0.203965 2.11418 0
M  V30 4873 H 445.367 0.0286033 0.947568 0
M  V30 4874 H 445.073 -0.486674 3.48316 0
M  V30 4875 H 444.947 -2.18805 3.07253 0
M  V30 4876 H 447.334 -2.08756 2.08579 0
M  V30 4877 H 447.415 -0.376756 2.5301 0
M  V30 4878 H 447.059 -1.01812 4.97591 0
M  V30 4879 H 446.989 -2.7337 4.50085 0
M  V30 4880 H 449.48 -1.6056 3.42095 0
M  V30 4881 H 449.793 -2.70662 7.23852 0
M  V30 4882 H 448.138 -2.44065 6.50736 0
M  V30 4883 H 451.329 -1.91224 4.2726 0
M  V30 4884 H 451.502 -2.41453 6.01335 0
M  V30 4885 N 444.908 -1.36708 -0.784132 0
M  V30 4886 C 446.133 -1.34565 -1.5782 0
M  V30 4887 C 446.558 0.0695257 -1.87971 0
M  V30 4888 O 445.916 1.04302 -1.48293 0
M  V30 4889 C 445.964 -2.17952 -2.87279 0
M  V30 4890 O 445.068 -1.57563 -3.81114 0
M  V30 4891 H 444.409 -0.460337 -0.478524 0
M  V30 4892 H 446.939 -1.80064 -0.971495 0
M  V30 4893 H 446.949 -2.30721 -3.365 0
M  V30 4894 H 445.624 -3.20823 -2.64661 0
M  V30 4895 H 444.201 -1.53764 -3.39722 0
M  V30 4896 N 446.386 1.0089 -1.21074 0
M  V30 4897 C 447.336 2.0799 -0.934034 0
M  V30 4898 C 448.32 1.60529 0.10919 0
M  V30 4899 O 449.512 1.76722 -0.0992198 0
M  V30 4900 C 446.641 3.39693 -0.496334 0
M  V30 4901 C 445.727 3.93833 -1.57341 0
M  V30 4902 N 446.118 4.21388 -2.7976 0
M  V30 4903 C 444.416 4.22067 -1.44137 0
M  V30 4904 C 445.117 4.65156 -3.49292 0
M  V30 4905 N 444.093 4.67895 -2.76722 0
M  V30 4906 H 447.895 2.27213 -1.86417 0
M  V30 4907 H 445.409 1.18927 -1.10589 0
M  V30 4908 H 447.406 4.15962 -0.279471 0
M  V30 4909 H 446.066 3.21879 0.427084 0
M  V30 4910 H 447.077 4.10061 -3.1634 0
M  V30 4911 H 443.754 4.1341 -0.582947 0
M  V30 4912 H 445.144 4.95231 -4.54088 0
M  V30 4913 N 447.864 1.01787 1.20321 0
M  V30 4914 C 449.11 0.708985 1.90003 0
M  V30 4915 C 449.443 -0.759572 1.78729 0
M  V30 4916 O 448.718 -1.55198 1.17234 0
M  V30 4917 C 449.001 1.1469 3.41348 0
M  V30 4918 C 448.854 2.67586 3.61549 0
M  V30 4919 C 450.173 0.71915 4.34185 0
M  V30 4920 H 447.292 0.259034 0.689978 0
M  V30 4921 H 449.934 1.26584 1.41692 0
M  V30 4922 H 448.084 0.673128 3.82624 0
M  V30 4923 H 449.756 3.22826 3.29517 0
M  V30 4924 H 447.999 3.085 3.04976 0
M  V30 4925 H 448.67 2.93281 4.67643 0
M  V30 4926 H 451.146 1.12647 4.00562 0
M  V30 4927 H 450.022 1.05358 5.38694 0
M  V30 4928 H 450.283 -0.379111 4.40472 0
M  V30 4929 N 449.342 -1.36122 0.79427 0
M  V30 4930 C 450.305 -2.28309 0.201889 0
M  V30 4931 C 451.305 -1.49041 -0.603603 0
M  V30 4932 O 452.495 -1.68964 -0.423888 0
M  V30 4933 C 449.627 -3.3321 -0.719978 0
M  V30 4934 H 450.82 -2.82208 1.01481 0
M  V30 4935 H 448.373 -1.45768 0.564037 0
M  V30 4936 H 449.108 -2.84475 -1.55706 0
M  V30 4937 H 448.893 -3.91835 -0.144266 0
M  V30 4938 H 450.383 -4.02044 -1.12916 0
M  V30 4939 N 450.82 -0.546701 -1.47814 0
M  V30 4940 C 452.068 -0.0187037 -2.02091 0
M  V30 4941 C 452.389 1.33168 -1.42447 0
M  V30 4942 O 451.659 1.86619 -0.595839 0
M  V30 4943 H 450.239 -0.00392531 -0.74699 0
M  V30 4944 H 452.901 -0.714327 -1.81338 0
M  V30 4945 H 451.997 0.0772219 -3.12004 0
M  V30 4946 N 452.299 1.55045 -0.282633 0
M  V30 4947 C 453.231 2.2023 0.634924 0
M  V30 4948 C 454.244 1.18931 1.11172 0
M  V30 4949 O 455.433 1.4562 1.03233 0
M  V30 4950 C 452.533 2.82041 1.87899 0
M  V30 4951 C 451.706 4.091 1.54776 0
M  V30 4952 C 450.765 4.54887 2.64507 0
M  V30 4953 O 449.791 5.20496 2.30375 0
M  V30 4954 N 450.993 4.25659 3.94709 0
M  V30 4955 H 453.758 2.99601 0.0769811 0
M  V30 4956 H 451.319 1.61565 -0.104048 0
M  V30 4957 H 453.311 3.09613 2.60619 0
M  V30 4958 H 451.881 2.06618 2.3458 0
M  V30 4959 H 451.101 3.88736 0.654049 0
M  V30 4960 H 452.389 4.9187 1.30158 0
M  V30 4961 H 451.787 3.7306 4.25256 0
M  V30 4962 H 450.344 4.57984 4.63782 0
M  V30 4963 N 453.777 0.010035 1.57597 0
M  V30 4964 C 454.71 -1.01234 2.04516 0
M  V30 4965 C 455.688 -1.32886 0.937024 0
M  V30 4966 O 456.872 -1.44879 1.20592 0
M  V30 4967 C 453.999 -2.33738 2.45121 0
M  V30 4968 C 453.045 -2.17679 3.66767 0
M  V30 4969 S 453.878 -1.49343 5.14254 0
M  V30 4970 C 455.034 -2.83256 5.58137 0
M  V30 4971 H 455.267 -0.612866 2.90914 0
M  V30 4972 H 452.8 -0.201124 1.53084 0
M  V30 4973 H 454.758 -3.09922 2.69182 0
M  V30 4974 H 453.419 -2.70823 1.59103 0
M  V30 4975 H 452.612 -3.1559 3.92962 0
M  V30 4976 H 452.214 -1.4964 3.42759 0
M  V30 4977 H 454.506 -3.79538 5.6121 0
M  V30 4978 H 455.449 -2.61749 6.57946 0
M  V30 4979 H 455.857 -2.87627 4.85727 0
M  V30 4980 N 455.255 -1.55392 -0.262866 0
M  V30 4981 C 456.185 -1.91978 -1.32917 0
M  V30 4982 C 457.166 -0.7828 -1.51017 0
M  V30 4983 O 458.351 -1.04178 -1.63892 0
M  V30 4984 C 455.481 -2.20055 -2.68687 0
M  V30 4985 C 454.435 -3.35854 -2.65304 0
M  V30 4986 C 453.761 -3.49435 -4.04721 0
M  V30 4987 C 455.061 -4.71977 -2.23685 0
M  V30 4988 H 456.755 -2.81292 -1.02544 0
M  V30 4989 H 454.301 -1.3534 -0.491846 0
M  V30 4990 H 456.254 -2.44237 -3.43404 0
M  V30 4991 H 454.978 -1.27551 -3.00663 0
M  V30 4992 H 453.637 -3.11655 -1.93045 0
M  V30 4993 H 453.285 -2.54379 -4.33936 0
M  V30 4994 H 452.985 -4.27297 -4.0335 0
M  V30 4995 H 454.509 -3.7592 -4.81161 0
M  V30 4996 H 455.923 -4.95637 -2.88127 0
M  V30 4997 H 454.32 -5.52828 -2.33456 0
M  V30 4998 H 455.39 -4.70115 -1.18827 0
M  V30 4999 N 456.733 0.527833 -1.48498 0
M  V30 5000 C 457.683 1.62844 -1.5958 0
M  V30 5001 C 458.667 1.54397 -0.452809 0
M  V30 5002 O 459.859 1.62381 -0.704364 0
M  V30 5003 C 456.988 3.01557 -1.64067 0
M  V30 5004 C 456.074 3.151 -2.83853 0
M  V30 5005 N 456.465 2.9861 -4.08247 0
M  V30 5006 C 454.763 3.46158 -2.8123 0
M  V30 5007 C 455.464 3.15626 -4.88626 0
M  V30 5008 N 454.44 3.43298 -4.21483 0
M  V30 5009 H 458.242 1.48708 -2.53502 0
M  V30 5010 H 455.756 0.733343 -1.44899 0
M  V30 5011 H 457.753 3.8062 -1.70101 0
M  V30 5012 H 456.413 3.16783 -0.712636 0
M  V30 5013 H 457.424 2.75329 -4.3865 0
M  V30 5014 H 454.101 3.67728 -1.97692 0
M  V30 5015 H 455.491 3.07596 -5.97356 0
M  V30 5016 N 458.211 1.37122 0.776871 0
M  V30 5017 C 459.459 1.31787 1.53221 0
M  V30 5018 C 459.78 -0.0987589 1.9475 0
M  V30 5019 O 459.05 -1.0417 1.65908 0
M  V30 5020 H 457.63 0.484839 0.568278 0
M  V30 5021 H 460.292 1.71556 0.924917 0
M  V30 5022 H 459.388 1.95355 2.43398 0
M  V30 5023 N 459.689 -1.00246 1.21608 0
M  V30 5024 C 460.937 -1.73717 1.0328 0
M  V30 5025 C 461.258 -1.90102 -0.434318 0
M  V30 5026 O 460.528 -1.45376 -1.31311 0
M  V30 5027 H 459.108 -0.643613 0.379172 0
M  V30 5028 H 461.77 -1.20787 1.52959 0
M  V30 5029 H 460.866 -2.73535 1.50283 0
M  V30 5030 N 461.167 -1.02423 -1.1978 0
M  V30 5031 C 462.415 -0.716569 -1.8897 0
M  V30 5032 C 462.736 0.756769 -1.79716 0
M  V30 5033 O 462.006 1.5449 -1.20456 0
M  V30 5034 H 460.586 -0.262062 -0.699523 0
M  V30 5035 H 463.248 -1.29747 -1.45436 0
M  V30 5036 H 462.344 -1.00675 -2.95417 0
M  V30 5037 N 462.645 1.35699 -0.801477 0
M  V30 5038 C 463.87 2.03687 -0.390678 0
M  V30 5039 C 464.295 1.60015 0.988778 0
M  V30 5040 O 463.653 0.774357 1.63931 0
M  V30 5041 C 463.701 3.57439 -0.476404 0
M  V30 5042 O 462.805 4.09208 0.512106 0
M  V30 5043 H 462.146 0.64344 -0.163956 0
M  V30 5044 H 464.676 1.73403 -1.08594 0
M  V30 5045 H 464.686 4.06544 -0.344357 0
M  V30 5046 H 463.361 3.88576 -1.48262 0
M  V30 5047 H 461.938 3.7134 0.340721 0
M  V30 5048 N 464.123 0.554532 1.47522 0
M  V30 5049 C 465.539 0.214107 1.58157 0
M  V30 5050 C 465.739 -1.28331 1.55349 0
M  V30 5051 O 464.795 -2.06329 1.45549 0
M  V30 5052 C 466.108 0.838391 2.88776 0
M  V30 5053 C 467.656 0.809374 3.02354 0
M  V30 5054 C 468.131 1.41268 4.35669 0
M  V30 5055 N 469.622 1.37574 4.42298 0
M  V30 5056 C 470.357 1.8122 5.4401 0
M  V30 5057 N 469.853 2.3271 6.52547 0
M  V30 5058 N 471.646 1.72307 5.35039 0
M  V30 5059 H 463.797 1.52744 1.4759 0
M  V30 5060 H 466.06 0.636812 0.702264 0
M  V30 5061 H 465.766 1.89065 2.96559 0
M  V30 5062 H 465.64 0.329847 3.75755 0
M  V30 5063 H 468.027 -0.234187 2.94169 0
M  V30 5064 H 468.108 1.35565 2.16924 0
M  V30 5065 H 467.752 2.45529 4.4461 0
M  V30 5066 H 467.682 0.841871 5.19827 0
M  V30 5067 H 470.173 0.999081 3.64454 0
M  V30 5068 H 470.486 2.63944 7.26329 0
M  V30 5069 H 468.831 2.36719 6.53444 0
M  V30 5070 H 472.022 1.3186 4.49144 0
M  V30 5071 H 472.195 2.06641 6.14169 0
M  V30 5072 N 465.601 -1.54893 0.290851 0
M  V30 5073 C 466.531 -2.26103 -0.583084 0
M  V30 5074 C 467.512 -1.25684 -1.14619 0
M  V30 5075 O 468.697 -1.54436 -1.17741 0
M  V30 5076 C 465.827 -2.99409 -1.75987 0
M  V30 5077 C 464.781 -4.0689 -1.32758 0
M  V30 5078 C 464.107 -4.67856 -2.58872 0
M  V30 5079 C 465.407 -5.20215 -0.46624 0
M  V30 5080 H 467.101 -2.99398 0.0108214 0
M  V30 5081 H 464.647 -1.43998 0.00664468 0
M  V30 5082 H 466.6 -3.47943 -2.37727 0
M  V30 5083 H 465.324 -2.23675 -2.37985 0
M  V30 5084 H 463.983 -3.59191 -0.733299 0
M  V30 5085 H 463.631 -3.88772 -3.19163 0
M  V30 5086 H 463.331 -5.40438 -2.30653 0
M  V30 5087 H 464.855 -5.19147 -3.21433 0
M  V30 5088 H 466.269 -5.64704 -0.989047 0
M  V30 5089 H 464.666 -5.99455 -0.27826 0
M  V30 5090 H 465.736 -4.82198 0.511173 0
M  V30 5091 N 467.08 -0.0183926 -1.57589 0
M  V30 5092 C 468.028 0.985111 -2.10709 0
M  V30 5093 C 469.022 1.34397 -1.0312 0
M  V30 5094 O 470.228 1.32746 -1.21567 0
M  V30 5095 H 466.603 0.335418 -0.673052 0
M  V30 5096 H 468.574 0.511689 -2.9398 0
M  V30 5097 C 467.323 2.26202 -2.64061 0
M  V30 5098 H 466.646 1.9946 -3.4649 0
M  V30 5099 H 468.086 2.94652 -3.04887 0
M  V30 5100 C 466.545 2.98444 -1.5631 0
M  V30 5101 O 467.075 3.90142 -0.956674 0
M  V30 5102 N 465.281 2.6059 -1.28612 0
M  V30 5103 H 464.828 1.86101 -1.78112 0
M  V30 5104 H 464.786 3.09238 -0.567406 0
M  V30 5105 N 468.558 1.5553 0.254621 0
M  V30 5106 C 469.783 1.81383 1.00573 0
M  V30 5107 C 470.208 0.594419 1.78461 0
M  V30 5108 O 469.566 -0.456403 1.75461 0
M  V30 5109 C 469.614 3.04892 1.92545 0
M  V30 5110 O 468.718 2.81266 3.01601 0
M  V30 5111 H 468.059 0.598969 0.286587 0
M  V30 5112 H 470.589 2.02703 0.277952 0
M  V30 5113 H 470.599 3.34119 2.34155 0
M  V30 5114 H 469.274 3.93287 1.3527 0
M  V30 5115 H 467.851 2.63185 2.64174 0
M  V30 5116 N 470.036 -0.519951 1.48776 0
M  V30 5117 C 471.284 -1.2727 1.56993 0
M  V30 5118 C 471.605 -1.9339 0.25004 0
M  V30 5119 O 470.875 -1.81822 -0.729216 0
M  V30 5120 H 469.455 -0.472732 0.578389 0
M  V30 5121 H 472.117 -0.604234 1.85297 0
M  V30 5122 H 471.213 -2.04669 2.3562 0
M  V30 5123 N 471.514 -1.37532 -0.769588 0
M  V30 5124 C 472.462 -1.33561 -1.90432 0
M  V30 5125 C 473.456 -0.224027 -1.67912 0
M  V30 5126 O 474.662 -0.392174 -1.75676 0
M  V30 5127 H 471.037 -0.416279 -0.626271 0
M  V30 5128 H 473.008 -2.29348 -1.90899 0
M  V30 5129 C 471.757 -1.16162 -3.27722 0
M  V30 5130 H 471.08 -2.00951 -3.45628 0
M  V30 5131 H 472.52 -1.17434 -4.07413 0
M  V30 5132 C 470.979 0.132583 -3.36639 0
M  V30 5133 O 471.509 1.11539 -3.85904 0
M  V30 5134 N 469.715 0.184013 -2.90017 0
M  V30 5135 H 469.262 -0.616415 -2.50116 0
M  V30 5136 H 469.22 1.04956 -2.96364 0
M  V30 5137 N 472.992 0.995999 -1.22138 0
M  V30 5138 C 474.408 1.25917 -0.980667 0
M  V30 5139 C 474.608 1.98819 0.327604 0
M  V30 5140 O 473.664 2.29587 1.05101 0
M  V30 5141 C 474.977 2.07399 -2.17729 0
M  V30 5142 C 476.525 2.20594 -2.22052 0
M  V30 5143 C 477 3.05462 -3.41258 0
M  V30 5144 N 478.491 3.13049 -3.41401 0
M  V30 5145 C 479.226 3.78997 -4.30289 0
M  V30 5146 N 478.722 4.46899 -5.2939 0
M  V30 5147 N 480.515 3.75728 -4.18073 0
M  V30 5148 H 472.666 0.507158 -2.06256 0
M  V30 5149 H 474.929 0.28658 -0.903646 0
M  V30 5150 H 474.635 1.61191 -3.12586 0
M  V30 5151 H 474.509 3.08154 -2.17534 0
M  V30 5152 H 476.896 2.66017 -1.27745 0
M  V30 5153 H 476.977 1.1928 -2.26287 0
M  V30 5154 H 476.621 2.60739 -4.35864 0
M  V30 5155 H 476.551 4.06911 -3.34262 0
M  V30 5156 H 479.042 2.64721 -2.69688 0
M  V30 5157 H 479.355 4.94952 -5.935 0
M  V30 5158 H 477.7 4.45657 -5.33306 0
M  V30 5159 H 480.891 3.2184 -3.39907 0
M  V30 5160 H 481.064 4.26845 -4.87553 0
M  V30 5161 N 474.47 1.03057 1.19235 0
M  V30 5162 C 475.716 0.738841 1.89506 0
M  V30 5163 C 476.071 -0.724807 1.78225 0
M  V30 5164 O 475.364 -1.52118 1.16494 0
M  V30 5165 C 475.558 1.1268 3.39172 0
M  V30 5166 C 475.387 2.62662 3.65019 0
M  V30 5167 C 474.157 3.29658 3.82954 0
M  V30 5168 C 476.355 3.60873 3.66436 0
M  V30 5169 N 474.337 4.68726 3.96446 0
M  V30 5170 C 475.708 4.85566 3.8552 0
M  V30 5171 C 477.763 3.54647 3.49471 0
M  V30 5172 C 476.466 6.04783 3.89397 0
M  V30 5173 C 478.492 4.73281 3.54625 0
M  V30 5174 C 477.854 5.96789 3.74196 0
M  V30 5175 H 473.953 0.322256 0.712513 0
M  V30 5176 H 476.537 1.31822 1.43287 0
M  V30 5177 H 474.708 0.575612 3.84111 0
M  V30 5178 H 476.44 0.787145 3.96971 0
M  V30 5179 H 473.195 2.8007 3.81913 0
M  V30 5180 H 473.619 5.40971 4.07037 0
M  V30 5181 H 478.261 2.60143 3.33295 0
M  V30 5182 H 475.979 6.99654 4.04364 0
M  V30 5183 H 479.565 4.70094 3.42787 0
M  V30 5184 H 478.445 6.87051 3.78061 0
M  V30 5185 N 475.948 -1.35272 0.808662 0
M  V30 5186 C 477.195 -1.98709 0.390003 0
M  V30 5187 C 477.523 -1.64148 -1.04335 0
M  V30 5188 O 476.778 -0.897797 -1.73891 0
M  V30 5189 C 477.077 -3.53556 0.522798 0
M  V30 5190 C 476.743 -4.0799 1.91977 0
M  V30 5191 C 475.405 -4.22568 2.30195 0
M  V30 5192 C 477.757 -4.37442 2.83361 0
M  V30 5193 C 475.085 -4.63918 3.59162 0
M  V30 5194 C 477.437 -4.80232 4.11776 0
M  V30 5195 C 476.101 -4.93016 4.49991 0
M  V30 5196 H 475.371 -0.727127 0.142712 0
M  V30 5197 H 478.018 -1.6145 1.02985 0
M  V30 5198 H 476.323 -3.91287 -0.200494 0
M  V30 5199 H 478.02 -4.00598 0.179608 0
M  V30 5200 H 474.61 -3.97096 1.61284 0
M  V30 5201 H 478.794 -4.25731 2.55083 0
M  V30 5202 H 474.05 -4.72005 3.88615 0
M  V30 5203 H 478.224 -5.01982 4.82687 0
M  V30 5204 H 475.851 -5.24814 5.49976 0
M  V30 5205 N 477.426 -0.562348 -1.47226 0
M  V30 5206 C 478.703 0.0256985 -1.95583 0
M  V30 5207 C 479.083 1.48032 -1.50498 0
M  V30 5208 O 478.431 2.15973 -0.746181 0
M  V30 5209 C 478.641 -0.125129 -3.48776 0
M  V30 5210 C 479.989 0.0175728 -4.24596 0
M  V30 5211 O 481.013 -0.0529341 -3.56161 0
M  V30 5212 O 479.872 0.170145 -5.46235 0
M  V30 5213 H 476.966 0.0612565 -0.824728 0
M  V30 5214 H 479.512 -0.629233 -1.57603 0
M  V30 5215 H 478.284 -1.13715 -3.74412 0
M  V30 5216 H 477.907 0.567178 -3.93534 0
M  V30 5217 N 478.904 1.54736 -0.299062 0
M  V30 5218 C 479.851 2.23448 0.577899 0
M  V30 5219 C 480.821 1.21637 1.13109 0
M  V30 5220 O 482.006 1.50252 1.17597 0
M  V30 5221 C 479.146 2.9774 1.74484 0
M  V30 5222 C 478.259 4.1432 1.22323 0
M  V30 5223 C 477.394 4.76199 2.35388 0
M  V30 5224 C 476.433 5.84927 1.80351 0
M  V30 5225 N 475.57 6.4077 2.86982 0
M  V30 5226 H 480.41 2.97996 -0.0146545 0
M  V30 5227 H 477.947 1.47088 -0.0190013 0
M  V30 5228 H 479.905 3.39045 2.43114 0
M  V30 5229 H 478.535 2.25572 2.30905 0
M  V30 5230 H 477.587 3.7797 0.429249 0
M  V30 5231 H 478.899 4.92659 0.780309 0
M  V30 5232 H 478.053 5.20346 3.11969 0
M  V30 5233 H 476.792 3.97188 2.83006 0
M  V30 5234 H 475.797 5.40207 1.02259 0
M  V30 5235 H 477.022 6.65821 1.3364 0
M  V30 5236 H 474.968 5.64643 3.33938 0
M  V30 5237 H 474.885 7.1445 2.4718 0
M  V30 5238 H 476.153 6.89574 3.63466 0
M  V30 5239 N 480.382 0.0267497 1.57577 0
M  V30 5240 C 481.61 -0.662661 1.96001 0
M  V30 5241 C 482.025 -1.65799 0.903117 0
M  V30 5242 O 481.382 -1.82135 -0.115317 0
M  V30 5243 C 481.433 -1.37112 3.34488 0
M  V30 5244 O 481.154 -0.415683 4.36123 0
M  V30 5245 C 482.655 -2.15257 3.8753 0
M  V30 5246 H 479.875 -0.18287 0.6456 0
M  V30 5247 H 482.419 0.0858116 2.0432 0
M  V30 5248 H 480.574 -2.07101 3.27395 0
M  V30 5249 H 480.988 -0.918496 5.16395 0
M  V30 5250 H 482.462 -2.60285 4.86781 0
M  V30 5251 H 482.939 -2.99063 3.21649 0
M  V30 5252 H 483.545 -1.50231 3.97883 0
M  V30 5253 N 481.861 -1.55662 -0.24637 0
M  V30 5254 C 482.791 -1.93377 -1.30873 0
M  V30 5255 C 483.772 -0.798773 -1.50179 0
M  V30 5256 O 484.957 -1.0591 -1.62778 0
M  V30 5257 C 482.087 -2.22893 -2.66338 0
M  V30 5258 C 481.041 -3.38649 -2.61727 0
M  V30 5259 C 480.367 -3.53708 -4.00992 0
M  V30 5260 C 481.667 -4.74323 -2.18666 0
M  V30 5261 H 483.361 -2.82363 -0.995552 0
M  V30 5262 H 480.907 -1.35854 -0.477464 0
M  V30 5263 H 482.86 -2.47866 -3.40794 0
M  V30 5264 H 481.584 -1.30733 -2.99293 0
M  V30 5265 H 480.243 -3.13685 -1.89729 0
M  V30 5266 H 479.891 -2.58967 -4.31214 0
M  V30 5267 H 479.591 -4.31551 -3.98795 0
M  V30 5268 H 481.115 -3.81003 -4.77147 0
M  V30 5269 H 482.529 -4.98665 -2.82854 0
M  V30 5270 H 480.926 -5.55273 -2.27579 0
M  V30 5271 H 481.996 -4.71349 -1.13834 0
M  V30 5272 N 483.339 0.512053 -1.4905 0
M  V30 5273 C 484.271 1.63121 -1.6101 0
M  V30 5274 C 485.284 1.55145 -0.493352 0
M  V30 5275 O 486.473 1.61278 -0.764955 0
M  V30 5276 C 483.573 3.01863 -1.54052 0
M  V30 5277 C 482.746 3.35138 -2.81072 0
M  V30 5278 C 481.805 4.5324 -2.67319 0
M  V30 5279 O 480.831 4.55571 -3.41238 0
M  V30 5280 N 482.033 5.52495 -1.78127 0
M  V30 5281 H 484.798 1.53292 -2.5753 0
M  V30 5282 H 482.359 0.699706 -1.45999 0
M  V30 5283 H 484.351 3.78774 -1.42521 0
M  V30 5284 H 482.921 3.05675 -0.654345 0
M  V30 5285 H 482.141 2.4723 -3.07036 0
M  V30 5286 H 483.429 3.54162 -3.65304 0
M  V30 5287 H 482.827 5.53403 -1.17308 0
M  V30 5288 H 481.384 6.28553 -1.72525 0
M  V30 5289 N 484.817 1.37938 0.762283 0
M  V30 5290 C 486.064 1.33668 1.52115 0
M  V30 5291 C 486.392 -0.0759538 1.94352 0
M  V30 5292 O 485.647 -1.05121 1.6507 0
M  V30 5293 C 485.946 2.23042 2.79261 0
M  V30 5294 C 485.612 3.71159 2.56031 0
M  V30 5295 C 484.274 4.11523 2.49404 0
M  V30 5296 C 486.626 4.64955 2.35513 0
M  V30 5297 C 483.954 5.43784 2.20263 0
M  V30 5298 C 486.306 5.97464 2.07894 0
M  V30 5299 C 484.97 6.36922 1.99718 0
M  V30 5300 H 484.24 0.489127 0.556629 0
M  V30 5301 H 486.887 1.70224 0.877262 0
M  V30 5302 H 485.192 1.79512 3.48256 0
M  V30 5303 H 486.889 2.17047 3.37182 0
M  V30 5304 H 483.479 3.39153 2.62056 0
M  V30 5305 H 487.663 4.34623 2.39617 0
M  V30 5306 H 482.919 5.73307 2.12435 0
M  V30 5307 H 487.093 6.6969 1.91019 0
M  V30 5308 H 484.72 7.39331 1.76902 0
M  V30 5309 N 486.295 -0.989507 1.22664 0
M  V30 5310 C 487.544 -1.72375 1.04737 0
M  V30 5311 C 487.857 -1.91096 -0.417316 0
M  V30 5312 O 489.063 -2.6188 -0.716334 0
M  V30 5313 C 487.519 -3.10161 1.82561 0
M  V30 5314 C 487.127 -2.99358 3.333 0
M  V30 5315 C 488.871 -3.87607 1.73093 0
M  V30 5316 C 486.778 -4.32319 4.03552 0
M  V30 5317 H 485.708 -0.646326 0.388302 0
M  V30 5318 H 488.359 -1.10437 1.46546 0
M  V30 5319 H 486.741 -3.728 1.33552 0
M  V30 5320 H 487.915 -2.45863 3.89728 0
M  V30 5321 H 486.23 -2.35392 3.43481 0
M  V30 5322 H 488.827 -4.86025 2.22899 0
M  V30 5323 H 489.17 -4.10509 0.691976 0
M  V30 5324 H 489.703 -3.31652 2.19663 0
M  V30 5325 H 486.442 -4.14616 5.07714 0
M  V30 5326 H 485.962 -4.85714 3.51911 0
M  V30 5327 H 487.641 -5.01051 4.09337 0
M  V30 5328 N 487.773 -1.03688 -1.18687 0
M  V30 5329 C 489.019 -0.739123 -1.88851 0
M  V30 5330 C 489.352 0.731042 -1.79915 0
M  V30 5331 O 488.627 1.53313 -1.19688 0
M  V30 5332 C 488.91 -1.20106 -3.3948 0
M  V30 5333 C 488.763 -2.73304 -3.57246 0
M  V30 5334 C 490.082 -0.788134 -4.32986 0
M  V30 5335 H 487.201 -0.269978 -0.68577 0
M  V30 5336 H 489.843 -1.28822 -1.3966 0
M  V30 5337 H 487.993 -0.733915 -3.81505 0
M  V30 5338 H 489.665 -3.28027 -3.24339 0
M  V30 5339 H 487.908 -3.13313 -3.00029 0
M  V30 5340 H 488.579 -3.00684 -4.62918 0
M  V30 5341 H 491.055 -1.19005 -3.98719 0
M  V30 5342 H 489.931 -1.13915 -5.36949 0
M  V30 5343 H 490.192 0.308988 -4.41019 0
M  V30 5344 N 489.251 1.34841 -0.815825 0
M  V30 5345 C 490.214 2.27959 -0.238185 0
M  V30 5346 C 491.214 1.49983 0.579816 0
M  V30 5347 O 492.404 1.69617 0.396953 0
M  V30 5348 C 489.536 3.34314 0.666876 0
M  V30 5349 H 490.729 2.80558 -1.05958 0
M  V30 5350 H 488.282 1.44852 -0.587156 0
M  V30 5351 H 489.017 2.86916 1.5116 0
M  V30 5352 H 488.802 3.92014 0.0819106 0
M  V30 5353 H 490.292 4.0379 1.06506 0
M  V30 5354 N 490.729 0.570148 1.46925 0
M  V30 5355 C 491.639 -0.173061 2.33961 0
M  V30 5356 C 492.655 -0.898825 1.48987 0
M  V30 5357 O 493.831 -0.864825 1.81887 0
M  V30 5358 C 490.896 -1.18177 3.25937 0
M  V30 5359 C 489.957 -0.462041 4.26806 0
M  V30 5360 C 489.19 -1.4227 5.14388 0
M  V30 5361 O 489.413 -2.65842 5.04662 0
M  V30 5362 O 488.347 -0.940127 5.94513 0
M  V30 5363 H 492.173 0.541216 2.98839 0
M  V30 5364 H 489.758 0.330647 1.45695 0
M  V30 5365 H 491.64 -1.76372 3.82715 0
M  V30 5366 H 490.315 -1.87774 2.63671 0
M  V30 5367 H 489.222 0.161429 3.73752 0
M  V30 5368 H 490.555 0.192719 4.91823 0
M  V30 5369 N 492.207 -1.54576 0.307264 0
M  V30 5370 C 493.484 -1.92377 -0.353605 0
M  V30 5371 C 493.864 -1.23517 -1.71192 0
M  V30 5372 O 493.212 -0.373101 -2.25433 0
M  V30 5373 C 493.422 -3.45928 -0.462039 0
M  V30 5374 C 494.77 -4.18278 -0.729975 0
M  V30 5375 O 495.794 -3.51997 -0.545605 0
M  V30 5376 O 494.653 -5.3563 -1.08454 0
M  V30 5377 H 491.747 -0.802747 -0.198812 0
M  V30 5378 H 494.293 -1.65929 0.355783 0
M  V30 5379 H 493.065 -3.88187 0.492592 0
M  V30 5380 H 492.688 -3.78431 -1.21965 0
M  V30 5381 N 493.685 -0.035106 -1.57561 0
M  V30 5382 C 494.933 0.64096 -1.91667 0
M  V30 5383 C 495.254 1.72323 -0.912681 0
M  V30 5384 O 494.524 1.95849 0.0449089 0
M  V30 5385 H 493.104 0.239743 -0.707483 0
M  V30 5386 H 495.766 -0.084321 -1.94718 0
M  V30 5387 H 494.862 1.08987 -2.92452 0
M  V30 5388 N 495.163 1.55791 0.238111 0
M  V30 5389 C 496.388 1.8244 0.986432 0
M  V30 5390 C 496.813 0.613314 1.7782 0
M  V30 5391 O 496.171 -0.437767 1.75935 0
M  V30 5392 C 496.219 3.06917 1.893 0
M  V30 5393 O 495.323 2.84449 2.98601 0
M  V30 5394 H 494.664 0.601975 0.280218 0
M  V30 5395 H 497.194 2.02987 0.256437 0
M  V30 5396 H 497.204 3.36583 2.30598 0
M  V30 5397 H 495.879 3.947 1.31091 0
M  V30 5398 H 494.456 2.65972 2.61368 0
M  V30 5399 N 496.642 -0.504142 1.49319 0
M  V30 5400 C 497.882 -1.26867 1.60263 0
M  V30 5401 C 498.246 -1.89924 0.281578 0
M  V30 5402 O 499.447 -2.67479 0.266176 0
M  V30 5403 C 497.718 -2.30956 2.72753 0
M  V30 5404 S 499.277 -3.1679 3.03628 0
M  V30 5405 H 496.095 -0.431198 0.565322 0
M  V30 5406 H 498.697 -0.571407 1.86963 0
M  V30 5407 H 497.401 -1.83156 3.67263 0
M  V30 5408 H 496.932 -3.05356 2.48035 0
M  V30 5409 H 498.947 -4.31549 2.44908 0
M  V30 5410 N 498.12 -1.38341 -0.754957 0
M  V30 5411 C 499.368 -1.34208 -1.51105 0
M  V30 5412 C 499.689 0.0677634 -1.94882 0
M  V30 5413 O 498.959 1.01517 -1.67544 0
M  V30 5414 H 497.539 -0.493819 -0.560493 0
M  V30 5415 H 500.201 -1.73005 -0.897507 0
M  V30 5416 H 499.297 -1.99203 -2.4026 0
M  V30 5417 N 499.598 0.982988 -1.23187 0
M  V30 5418 C 500.528 2.09301 -1.03515 0
M  V30 5419 C 501.509 1.70035 0.0471136 0
M  V30 5420 O 502.694 1.93847 -0.117029 0
M  V30 5421 C 499.824 3.4167 -0.622791 0
M  V30 5422 C 498.778 3.94828 -1.65211 0
M  V30 5423 C 498.104 5.23362 -1.09527 0
M  V30 5424 C 499.404 4.2439 -3.04451 0
M  V30 5425 H 501.098 2.26016 -1.96359 0
M  V30 5426 H 498.644 1.08611 -0.945501 0
M  V30 5427 H 500.597 4.18746 -0.472233 0
M  V30 5428 H 499.321 3.24811 0.341329 0
M  V30 5429 H 497.98 3.19895 -1.79061 0
M  V30 5430 H 497.628 5.02852 -0.122211 0
M  V30 5431 H 497.328 5.59895 -1.783 0
M  V30 5432 H 498.852 6.03062 -0.956511 0
M  V30 5433 H 500.266 4.92225 -2.93917 0
M  V30 5434 H 498.663 4.72118 -3.70438 0
M  V30 5435 H 499.733 3.31765 -3.53638 0
M  V30 5436 N 501.076 1.04316 1.18135 0
M  V30 5437 C 502.322 0.749128 1.88457 0
M  V30 5438 C 502.655 -0.72149 1.803 0
M  V30 5439 O 501.93 -1.52676 1.205 0
M  V30 5440 C 502.213 1.21905 3.38838 0
M  V30 5441 C 502.066 2.75195 3.55792 0
M  V30 5442 C 503.385 0.811085 4.32561 0
M  V30 5443 H 500.504 0.273611 0.684329 0
M  V30 5444 H 503.146 1.29561 1.38975 0
M  V30 5445 H 501.296 0.754137 3.8111 0
M  V30 5446 H 502.968 3.29743 3.22595 0
M  V30 5447 H 501.211 3.14899 2.98364 0
M  V30 5448 H 501.882 3.03135 4.61317 0
M  V30 5449 H 504.358 1.21118 3.98082 0
M  V30 5450 H 503.234 1.16761 5.36338 0
M  V30 5451 H 503.495 -0.285596 4.41177 0
M  V30 5452 N 502.554 -1.34406 0.822964 0
M  V30 5453 C 503.784 -2.02214 0.423424 0
M  V30 5454 C 504.192 -1.62124 -0.975322 0
M  V30 5455 O 503.535 -0.822452 -1.6426 0
M  V30 5456 C 503.597 -3.56721 0.446107 0
M  V30 5457 C 503.261 -4.20136 1.79819 0
M  V30 5458 C 504.258 -4.4065 2.75904 0
M  V30 5459 C 501.943 -4.56906 2.08669 0
M  V30 5460 C 503.937 -4.9706 3.99012 0
M  V30 5461 C 501.624 -5.13026 3.32036 0
M  V30 5462 C 502.622 -5.33047 4.27024 0
M  V30 5463 O 502.31 -5.87979 5.48211 0
M  V30 5464 H 502.042 -0.654748 0.168169 0
M  V30 5465 H 504.596 -1.72659 1.11257 0
M  V30 5466 H 502.826 -3.85537 -0.299734 0
M  V30 5467 H 504.515 -4.05845 0.0666114 0
M  V30 5468 H 505.281 -4.12607 2.54912 0
M  V30 5469 H 501.16 -4.40626 1.35535 0
M  V30 5470 H 504.704 -5.12603 4.73164 0
M  V30 5471 H 500.601 -5.40498 3.52891 0
M  V30 5472 H 501.369 -6.06413 5.49732 0
M  V30 5473 N 504.032 -0.577932 -1.46621 0
M  V30 5474 C 504.942 0.160651 -2.34049 0
M  V30 5475 C 505.958 0.890911 -1.49462 0
M  V30 5476 O 507.134 0.855166 -1.82343 0
M  V30 5477 C 504.199 1.16447 -3.26559 0
M  V30 5478 C 503.26 0.4394 -4.27045 0
M  V30 5479 C 502.493 1.3954 -5.15135 0
M  V30 5480 O 502.716 2.63162 -5.06065 0
M  V30 5481 O 501.65 0.908585 -5.95003 0
M  V30 5482 H 505.476 -0.557057 -2.98547 0
M  V30 5483 H 503.061 -0.338369 -1.45518 0
M  V30 5484 H 504.943 1.7434 -3.83645 0
M  V30 5485 H 503.618 1.86373 -2.64663 0
M  V30 5486 H 502.525 -0.181247 -3.73661 0
M  V30 5487 H 503.858 -0.218799 -4.91713 0
M  V30 5488 N 505.51 1.54411 -0.315457 0
M  V30 5489 C 506.46 2.20772 0.569549 0
M  V30 5490 C 507.444 1.18551 1.08787 0
M  V30 5491 O 508.636 1.44213 1.02624 0
M  V30 5492 C 505.765 2.96293 1.73394 0
M  V30 5493 C 504.851 4.05844 1.2309 0
M  V30 5494 N 505.242 5.03822 0.446927 0
M  V30 5495 C 503.54 4.19648 1.51035 0
M  V30 5496 C 504.241 5.8143 0.17725 0
M  V30 5497 N 503.217 5.38245 0.761118 0
M  V30 5498 H 507.019 2.93877 -0.0368076 0
M  V30 5499 H 504.533 1.61949 -0.120915 0
M  V30 5500 H 506.53 3.42313 2.37965 0
M  V30 5501 H 505.19 2.24708 2.34386 0
M  V30 5502 H 506.201 5.17821 0.0905027 0
M  V30 5503 H 502.878 3.59274 2.1267 0
M  V30 5504 H 504.268 6.70369 -0.45335 0
M  V30 5505 N 506.988 0.0434614 1.5754 0
M  V30 5506 C 507.951 -0.918696 2.09982 0
M  V30 5507 C 508.951 -1.24488 1.01781 0
M  V30 5508 O 510.141 -1.18284 1.27885 0
M  V30 5509 C 507.273 -2.23093 2.57764 0
M  V30 5510 H 508.466 -0.464229 2.96285 0
M  V30 5511 H 506.019 -0.204818 1.54952 0
M  V30 5512 H 506.754 -2.73137 1.74832 0
M  V30 5513 H 506.539 -2.00724 3.36827 0
M  V30 5514 H 508.029 -2.92028 2.98512 0
M  V30 5515 N 508.466 -1.55915 -0.229846 0
M  V30 5516 C 509.429 -1.90914 -1.26824 0
M  V30 5517 C 510.429 -0.786999 -1.40225 0
M  V30 5518 O 511.619 -1.05484 -1.38632 0
M  V30 5519 C 508.751 -2.15264 -2.64337 0
M  V30 5520 H 509.944 -2.8378 -0.969998 0
M  V30 5521 H 507.497 -1.49069 -0.4699 0
M  V30 5522 H 508.232 -1.24923 -2.99274 0
M  V30 5523 H 508.017 -2.97005 -2.55989 0
M  V30 5524 H 509.507 -2.43467 -3.39284 0
M  V30 5525 N 509.944 0.496216 -1.49584 0
M  V30 5526 C 510.907 1.57952 -1.66084 0
M  V30 5527 C 511.907 1.51729 -0.53244 0
M  V30 5528 O 513.097 1.54796 -0.79899 0
M  V30 5529 C 510.229 2.97604 -1.66268 0
M  V30 5530 H 511.422 1.44649 -2.6271 0
M  V30 5531 H 508.975 0.7208 -1.38687 0
M  V30 5532 H 509.71 3.16378 -0.712432 0
M  V30 5533 H 509.495 3.03528 -2.4822 0
M  V30 5534 H 510.985 3.76301 -1.81073 0
M  V30 5535 N 511.423 1.38739 0.74761 0
M  V30 5536 C 512.333 1.38696 1.89211 0
M  V30 5537 C 513.349 0.283303 1.71678 0
M  V30 5538 O 514.525 0.522713 1.94498 0
M  V30 5539 C 511.59 1.21662 3.24653 0
M  V30 5540 C 510.651 2.41886 3.54669 0
M  V30 5541 C 509.884 2.25655 4.83648 0
M  V30 5542 O 510.107 1.25339 5.56459 0
M  V30 5543 O 509.041 3.14372 5.13277 0
M  V30 5544 H 512.867 2.35143 1.92202 0
M  V30 5545 H 510.452 1.19721 0.893708 0
M  V30 5546 H 512.334 1.14246 4.05618 0
M  V30 5547 H 511.009 0.283024 3.2246 0
M  V30 5548 H 509.916 2.54877 2.73841 0
M  V30 5549 H 511.249 3.33895 3.61628 0
M  V30 5550 N 512.901 -0.976442 1.23707 0
M  V30 5551 C 514.149 -1.71487 1.06942 0
M  V30 5552 C 514.47 -1.9098 -0.393897 0
M  V30 5553 O 513.74 -1.48128 -1.28198 0
M  V30 5554 H 512.32 -0.635425 0.392739 0
M  V30 5555 H 514.982 -1.17515 1.55487 0
M  V30 5556 H 514.078 -2.70286 1.56051 0
M  V30 5557 N 514.379 -1.04941 -1.1758 0
M  V30 5558 C 515.79 -0.784501 -1.69418 0
M  V30 5559 C 516.141 0.693625 -1.8353 0
M  V30 5560 O 515.266 1.53925 -1.52106 0
M  V30 5561 C 515.861 -1.41746 -3.07723 0
M  V30 5562 C 514.42 -1.20066 -3.56737 0
M  V30 5563 C 513.567 -1.5026 -2.33061 0
M  V30 5564 H 516.518 -1.21469 -1.02133 0
M  V30 5565 H 516.539 -0.825381 -3.7144 0
M  V30 5566 H 516.051 -2.49325 -2.9742 0
M  V30 5567 H 514.152 -0.144006 -3.72322 0
M  V30 5568 H 514.265 -1.90384 -4.39648 0
M  V30 5569 H 512.629 -0.922598 -2.37403 0
M  V30 5570 H 513.412 -2.58967 -2.25368 0
M  V30 5571 N 515.857 1.33968 -0.830081 0
M  V30 5572 C 517.268 1.80439 -0.479455 0
M  V30 5573 C 517.619 1.68756 1.00079 0
M  V30 5574 O 516.744 1.23171 1.77927 0
M  V30 5575 C 517.339 3.27611 -0.863505 0
M  V30 5576 C 515.898 3.72133 -0.565145 0
M  V30 5577 C 515.045 2.55549 -1.07657 0
M  V30 5578 H 517.996 1.21614 -1.0196 0
M  V30 5579 H 518.017 3.8012 -0.170083 0
M  V30 5580 H 517.529 3.36082 -1.94089 0
M  V30 5581 H 515.63 3.69196 0.502536 0
M  V30 5582 H 515.743 4.65963 -1.11422 0
M  V30 5583 H 514.107 2.49788 -0.497807 0
M  V30 5584 H 514.89 2.66786 -2.16055 0
M  V30 5585 N 517.335 0.585699 1.46312 0
M  V30 5586 C 518.584 0.0701192 2.01578 0
M  V30 5587 C 518.897 -1.29889 1.46247 0
M  V30 5588 O 520.103 -1.90598 1.93351 0
M  V30 5589 C 518.559 0.0747499 3.59822 0
M  V30 5590 C 518.167 1.44226 4.24149 0
M  V30 5591 C 519.911 -0.38673 4.22735 0
M  V30 5592 C 517.818 1.40446 5.74481 0
M  V30 5593 H 516.748 0.0224441 0.753666 0
M  V30 5594 H 519.399 0.737789 1.68015 0
M  V30 5595 H 517.781 -0.659144 3.90476 0
M  V30 5596 H 518.955 2.19612 4.05101 0
M  V30 5597 H 517.27 1.84401 3.73343 0
M  V30 5598 H 519.867 -0.433853 5.32937 0
M  V30 5599 H 520.21 -1.40489 3.91878 0
M  V30 5600 H 520.743 0.293195 3.96718 0
M  V30 5601 H 517.482 2.39952 6.10003 0
M  V30 5602 H 517.002 0.692845 5.95785 0
M  V30 5603 H 518.681 1.11865 6.37256 0
M  V30 5604 N 518.813 -1.54241 0.323641 0
M  V30 5605 C 520.059 -2.00867 -0.279323 0
M  V30 5606 C 520.392 -1.21146 -1.5178 0
M  V30 5607 O 519.667 -0.29378 -1.92269 0
M  V30 5608 C 519.95 -3.54837 -0.613387 0
M  V30 5609 C 519.803 -4.45284 0.635803 0
M  V30 5610 C 521.122 -4.16186 -1.43099 0
M  V30 5611 H 518.241 -0.730177 -0.100049 0
M  V30 5612 H 520.883 -1.84829 0.440235 0
M  V30 5613 H 519.033 -3.68634 -1.22641 0
M  V30 5614 H 520.705 -4.43357 1.27406 0
M  V30 5615 H 518.948 -4.14956 1.26466 0
M  V30 5616 H 519.619 -5.5084 0.357597 0
M  V30 5617 H 522.095 -4.05964 -0.912814 0
M  V30 5618 H 520.971 -5.24031 -1.6335 0
M  V30 5619 H 521.232 -3.69516 -2.42715 0
M  V30 5620 N 520.291 -0.0518155 -1.57515 0
M  V30 5621 C 521.519 0.631395 -1.9703 0
M  V30 5622 C 521.934 1.64341 -0.92938 0
M  V30 5623 O 521.291 1.82296 0.0863266 0
M  V30 5624 C 521.342 1.31774 -3.36627 0
M  V30 5625 O 521.063 0.346247 -4.3673 0
M  V30 5626 C 522.564 2.09065 -3.90905 0
M  V30 5627 H 519.784 0.172576 -0.648428 0
M  V30 5628 H 522.328 -0.118306 -2.04158 0
M  V30 5629 H 520.483 2.01867 -3.30649 0
M  V30 5630 H 520.897 0.836226 -5.17791 0
M  V30 5631 H 522.371 2.52508 -4.9086 0
M  V30 5632 H 522.848 2.93908 -3.26366 0
M  V30 5633 H 523.454 1.43882 -4.00223 0
M  V30 5634 N 521.769 1.56035 0.221574 0
M  V30 5635 C 522.699 1.95434 1.2778 0
M  V30 5636 C 523.68 0.822564 1.48889 0
M  V30 5637 O 524.865 1.08486 1.61072 0
M  V30 5638 C 521.995 2.27102 2.62759 0
M  V30 5639 C 520.949 3.4277 2.56306 0
M  V30 5640 C 520.275 3.60043 3.95314 0
M  V30 5641 C 521.575 4.77742 2.11093 0
M  V30 5642 H 523.269 2.83912 0.950504 0
M  V30 5643 H 520.815 1.36596 0.455791 0
M  V30 5644 H 522.768 2.53256 3.36807 0
M  V30 5645 H 521.492 1.35478 2.97176 0
M  V30 5646 H 520.151 3.16664 1.84715 0
M  V30 5647 H 519.799 2.65794 4.27039 0
M  V30 5648 H 519.499 4.37841 3.91879 0
M  V30 5649 H 521.023 3.88545 4.71025 0
M  V30 5650 H 522.437 5.03102 2.74885 0
M  V30 5651 H 520.834 5.58823 2.18716 0
M  V30 5652 H 521.904 4.731 1.06321 0
M  V30 5653 N 523.247 -0.488276 1.49845 0
M  V30 5654 C 524.177 -1.59675 1.70371 0
M  V30 5655 C 525.158 -1.60878 0.552473 0
M  V30 5656 O 526.343 -1.77417 0.78973 0
M  V30 5657 C 523.473 -2.98098 1.782 0
M  V30 5658 C 522.427 -3.11761 2.93239 0
M  V30 5659 C 521.753 -4.51661 2.86193 0
M  V30 5660 C 523.053 -2.90589 4.33999 0
M  V30 5661 H 524.747 -1.42752 2.63177 0
M  V30 5662 H 522.293 -0.685317 1.26647 0
M  V30 5663 H 524.246 -3.75555 1.91144 0
M  V30 5664 H 522.97 -3.16138 0.820018 0
M  V30 5665 H 521.629 -2.36732 2.79917 0
M  V30 5666 H 521.277 -4.66595 1.87877 0
M  V30 5667 H 520.977 -4.61742 3.63412 0
M  V30 5668 H 522.501 -5.31162 3.01163 0
M  V30 5669 H 523.915 -3.57807 4.47936 0
M  V30 5670 H 522.312 -3.1213 5.12538 0
M  V30 5671 H 523.382 -1.86595 4.4756 0
M  V30 5672 N 524.725 -1.39134 -0.740242 0
M  V30 5673 C 526.002 -1.26584 -1.49117 0
M  V30 5674 C 526.382 0.126902 -2.10718 0
M  V30 5675 O 525.73 1.13765 -1.98166 0
M  V30 5676 C 525.94 -2.38619 -2.54681 0
M  V30 5677 C 527.288 -2.77685 -3.21211 0
M  V30 5678 O 528.312 -2.38029 -2.64991 0
M  V30 5679 O 527.171 -3.46115 -4.22926 0
M  V30 5680 H 524.265 -0.495769 -0.661923 0
M  V30 5681 H 526.811 -1.50995 -0.774514 0
M  V30 5682 H 525.583 -3.3175 -2.07504 0
M  V30 5683 H 525.206 -2.15845 -3.33911 0
M  V30 5684 N 526.204 0.969867 -1.24223 0
M  V30 5685 C 527.434 1.74502 -1.106 0
M  V30 5686 C 527.842 1.86038 0.344483 0
M  V30 5687 O 527.185 1.3465 1.24961 0
M  V30 5688 C 527.247 3.18391 -1.66935 0
M  V30 5689 C 526.911 3.30334 -3.15798 0
M  V30 5690 C 527.908 3.15832 -4.12973 0
M  V30 5691 C 525.593 3.54644 -3.55715 0
M  V30 5692 C 527.587 3.25461 -5.48045 0
M  V30 5693 C 525.274 3.63912 -4.90929 0
M  V30 5694 C 526.272 3.49332 -5.86904 0
M  V30 5695 O 525.96 3.58251 -7.1966 0
M  V30 5696 H 525.692 0.554119 -0.387206 0
M  V30 5697 H 528.246 1.22646 -1.64764 0
M  V30 5698 H 526.476 3.71543 -1.07203 0
M  V30 5699 H 528.165 3.77707 -1.48634 0
M  V30 5700 H 528.931 2.96937 -3.83476 0
M  V30 5701 H 524.81 3.65059 -2.81519 0
M  V30 5702 H 528.354 3.13998 -6.22937 0
M  V30 5703 H 524.251 3.82319 -5.20098 0
M  V30 5704 H 525.019 3.7498 -7.27552 0
M  V30 5705 N 527.682 1.05563 1.17022 0
M  V30 5706 C 528.928 0.769074 1.87652 0
M  V30 5707 C 529.261 -0.702326 1.81055 0
M  V30 5708 O 528.536 -1.5139 1.22112 0
M  V30 5709 C 528.819 1.25492 3.37526 0
M  V30 5710 C 528.672 2.78953 3.52853 0
M  V30 5711 C 529.991 0.856919 4.31677 0
M  V30 5712 H 527.11 0.280854 0.681388 0
M  V30 5713 H 529.752 1.31027 1.37593 0
M  V30 5714 H 527.902 0.794516 3.80289 0
M  V30 5715 H 529.574 3.33146 3.19079 0
M  V30 5716 H 527.817 3.18046 2.95007 0
M  V30 5717 H 528.488 3.08011 4.58076 0
M  V30 5718 H 530.964 1.25334 3.96775 0
M  V30 5719 H 529.84 1.22443 5.35069 0
M  V30 5720 H 530.101 -0.238787 4.41455 0
M  V30 5721 N 529.16 -1.33526 0.837174 0
M  V30 5722 C 530.409 -1.97098 0.428387 0
M  V30 5723 C 530.722 -1.67062 -1.01734 0
M  V30 5724 O 531.928 -2.24235 -1.53072 0
M  V30 5725 C 530.384 -3.52725 0.715075 0
M  V30 5726 C 529.992 -3.9164 2.17537 0
M  V30 5727 C 531.736 -4.22857 0.373154 0
M  V30 5728 C 529.643 -5.40237 2.40619 0
M  V30 5729 H 528.573 -0.737589 0.156455 0
M  V30 5730 H 531.224 -1.52169 1.02552 0
M  V30 5731 H 529.606 -3.95971 0.0475904 0
M  V30 5732 H 530.78 -3.59456 2.88319 0
M  V30 5733 H 529.095 -3.34485 2.4801 0
M  V30 5734 H 531.692 -5.32133 0.523264 0
M  V30 5735 H 532.035 -4.10647 -0.683708 0
M  V30 5736 H 532.568 -3.85135 0.995801 0
M  V30 5737 H 529.307 -5.57449 3.44864 0
M  V30 5738 H 528.827 -5.73887 1.74396 0
M  V30 5739 H 530.506 -6.07102 2.23688 0
M  V30 5740 N 530.638 -0.59345 -1.46 0
M  V30 5741 C 531.548 0.135817 -2.34207 0
M  V30 5742 C 532.564 0.875008 -1.50398 0
M  V30 5743 O 533.74 0.835778 -1.83239 0
M  V30 5744 C 530.805 1.12977 -3.27776 0
M  V30 5745 C 529.866 0.394081 -4.27487 0
M  V30 5746 C 529.099 1.34068 -5.16586 0
M  V30 5747 O 529.322 2.5778 -5.08828 0
M  V30 5748 O 528.256 0.845426 -5.95933 0
M  V30 5749 H 532.082 -0.588691 -2.9794 0
M  V30 5750 H 529.667 -0.353784 -1.45151 0
M  V30 5751 H 531.549 1.70261 -3.85473 0
M  V30 5752 H 530.224 1.83556 -2.66625 0
M  V30 5753 H 529.131 -0.220869 -3.73447 0
M  V30 5754 H 530.464 -0.270939 -4.91454 0
M  V30 5755 N 532.116 1.54067 -0.331816 0
M  V30 5756 C 533.346 2.04833 0.269605 0
M  V30 5757 C 533.754 1.20714 1.45687 0
M  V30 5758 O 533.097 0.232539 1.82222 0
M  V30 5759 C 533.159 3.51386 0.759499 0
M  V30 5760 C 532.823 4.55971 -0.306557 0
M  V30 5761 C 533.82 5.07126 -1.14538 0
M  V30 5762 C 531.505 5.00216 -0.457116 0
M  V30 5763 C 533.499 6.01096 -2.12042 0
M  V30 5764 C 531.186 5.93999 -1.43556 0
M  V30 5765 C 532.184 6.44326 -2.26568 0
M  V30 5766 O 531.872 7.36267 -3.22749 0
M  V30 5767 H 531.604 0.673509 0.0579763 0
M  V30 5768 H 534.158 1.99748 -0.478521 0
M  V30 5769 H 532.388 3.53896 1.55867 0
M  V30 5770 H 534.077 3.85184 1.28017 0
M  V30 5771 H 534.843 4.73716 -1.04009 0
M  V30 5772 H 530.722 4.60652 0.179142 0
M  V30 5773 H 534.266 6.40302 -2.76873 0
M  V30 5774 H 530.163 6.26825 -1.54146 0
M  V30 5775 H 530.931 7.54165 -3.18083 0
M  V30 5776 N 533.594 0.0601682 1.57485 0
M  V30 5777 C 534.822 -0.620937 1.97363 0
M  V30 5778 C 535.237 -1.63846 0.938082 0
M  V30 5779 O 534.594 -1.82339 -0.0766578 0
M  V30 5780 C 534.645 -1.29987 3.37321 0
M  V30 5781 O 534.366 -0.323081 4.36907 0
M  V30 5782 C 535.867 -2.06989 3.92008 0
M  V30 5783 H 533.087 -0.169135 0.649334 0
M  V30 5784 H 535.631 0.129132 2.04092 0
M  V30 5785 H 533.786 -2.0011 3.31715 0
M  V30 5786 H 534.2 -0.808754 5.18227 0
M  V30 5787 H 535.674 -2.49901 4.92192 0
M  V30 5788 H 536.151 -2.92173 3.2792 0
M  V30 5789 H 536.757 -1.41757 4.0098 0
M  V30 5790 N 535.072 -1.5615 -0.213296 0
M  V30 5791 C 536.019 -1.93086 -1.26437 0
M  V30 5792 C 536.989 -0.789086 -1.4616 0
M  V30 5793 O 538.174 -1.04569 -1.59593 0
M  V30 5794 C 535.314 -2.26003 -2.608 0
M  V30 5795 C 534.427 -3.53156 -2.48807 0
M  V30 5796 C 533.562 -3.7548 -3.7575 0
M  V30 5797 C 532.601 -4.96119 -3.58514 0
M  V30 5798 N 531.738 -5.14791 -4.77425 0
M  V30 5799 H 536.578 -2.82707 -0.942376 0
M  V30 5800 H 534.115 -1.39919 -0.454001 0
M  V30 5801 H 536.073 -2.431 -3.39055 0
M  V30 5802 H 534.703 -1.39546 -2.91079 0
M  V30 5803 H 533.755 -3.44207 -1.61944 0
M  V30 5804 H 535.067 -4.41565 -2.31996 0
M  V30 5805 H 534.221 -3.92718 -4.62447 0
M  V30 5806 H 532.96 -2.85368 -3.95495 0
M  V30 5807 H 531.965 -4.78823 -2.70201 0
M  V30 5808 H 533.19 -5.87724 -3.40231 0
M  V30 5809 H 531.136 -4.27623 -4.97468 0
M  V30 5810 H 531.053 -5.97347 -4.63371 0
M  V30 5811 H 532.321 -5.36471 -5.65525 0
M  V30 5812 N 536.55 0.480323 -1.50102 0
M  V30 5813 C 537.497 1.57946 -1.6829 0
M  V30 5814 C 538.467 1.57611 -0.524223 0
M  V30 5815 O 539.652 1.75282 -0.753709 0
M  V30 5816 C 536.792 2.95978 -1.77457 0
M  V30 5817 C 535.905 3.06173 -3.04766 0
M  V30 5818 C 535.04 4.35063 -3.04784 0
M  V30 5819 C 534.079 4.38966 -4.26586 0
M  V30 5820 N 533.216 5.59314 -4.24396 0
M  V30 5821 H 538.056 1.41743 -2.62131 0
M  V30 5822 H 535.593 0.689304 -1.2995 0
M  V30 5823 H 537.551 3.76011 -1.80752 0
M  V30 5824 H 536.181 3.10837 -0.870637 0
M  V30 5825 H 535.233 2.19071 -3.10986 0
M  V30 5826 H 536.545 3.04916 -3.9475 0
M  V30 5827 H 535.699 5.23436 -3.06757 0
M  V30 5828 H 534.438 4.38915 -2.12614 0
M  V30 5829 H 533.443 3.48992 -4.24835 0
M  V30 5830 H 534.668 4.36813 -5.19972 0
M  V30 5831 H 532.614 5.63969 -3.35074 0
M  V30 5832 H 532.531 5.5976 -5.08138 0
M  V30 5833 H 533.799 6.49837 -4.30502 0
M  V30 5834 N 538.028 1.39524 0.732853 0
M  V30 5835 C 539.439 1.32905 1.31122 0
M  V30 5836 C 539.79 -0.00558708 1.96199 0
M  V30 5837 O 538.915 -0.907706 1.96443 0
M  V30 5838 C 539.51 2.40704 2.38426 0
M  V30 5839 C 538.069 2.37599 2.91931 0
M  V30 5840 C 537.216 2.2248 1.65523 0
M  V30 5841 H 540.167 1.49581 0.530207 0
M  V30 5842 H 540.188 2.07616 3.18867 0
M  V30 5843 H 539.7 3.37829 1.91033 0
M  V30 5844 H 537.801 1.44119 3.43599 0
M  V30 5845 H 537.914 3.32538 3.44899 0
M  V30 5846 H 536.278 1.69691 1.8994 0
M  V30 5847 H 537.061 3.21577 1.20178 0
M  V30 5848 N 539.506 -0.963266 1.24736 0
M  V30 5849 C 540.416 -2.09246 1.06082 0
M  V30 5850 C 541.432 -1.74 0.000363101 0
M  V30 5851 O 542.608 -2.0041 0.199479 0
M  V30 5852 C 539.673 -3.40115 0.672498 0
M  V30 5853 C 538.734 -3.89282 1.80993 0
M  V30 5854 C 537.967 -5.13905 1.44004 0
M  V30 5855 O 538.19 -5.69434 0.331835 0
M  V30 5856 O 537.124 -5.57566 2.26723 0
M  V30 5857 H 540.95 -2.27881 2.00759 0
M  V30 5858 H 538.535 -1.07649 1.03595 0
M  V30 5859 H 540.417 -4.18797 0.467668 0
M  V30 5860 H 539.092 -3.22771 -0.245102 0
M  V30 5861 H 537.999 -3.11642 2.06955 0
M  V30 5862 H 539.332 -4.1111 2.70646 0
M  V30 5863 N 540.985 -1.06182 -1.16461 0
M  V30 5864 C 541.915 -0.692861 -2.22984 0
M  V30 5865 C 542.896 0.314122 -1.67174 0
M  V30 5866 O 544.081 0.189499 -1.93273 0
M  V30 5867 C 541.211 -0.07732 -3.47214 0
M  V30 5868 C 540.165 -1.01015 -4.15909 0
M  V30 5869 C 539.491 -0.257973 -5.34077 0
M  V30 5870 C 540.791 -2.33868 -4.67015 0
M  V30 5871 H 542.485 -1.58343 -2.54102 0
M  V30 5872 H 540.031 -0.76279 -1.22137 0
M  V30 5873 H 541.984 0.19266 -4.20959 0
M  V30 5874 H 540.708 0.848254 -3.15392 0
M  V30 5875 H 539.367 -1.26486 -3.44088 0
M  V30 5876 H 539.015 0.670684 -4.98509 0
M  V30 5877 H 538.715 -0.879638 -5.80979 0
M  V30 5878 H 540.239 0.00448788 -6.106 0
M  V30 5879 H 541.653 -2.1279 -5.32347 0
M  V30 5880 H 540.05 -2.91522 -5.24533 0
M  V30 5881 H 541.12 -2.97019 -3.83286 0
M  V30 5882 N 542.463 1.3308 -0.844243 0
M  V30 5883 C 543.709 1.97898 -0.443206 0
M  V30 5884 C 544.042 1.66699 0.99625 0
M  V30 5885 O 543.317 0.949704 1.69738 0
M  V30 5886 C 543.6 3.53801 -0.670606 0
M  V30 5887 C 543.453 3.94667 -2.15772 0
M  V30 5888 C 544.772 4.39936 -0.120226 0
M  V30 5889 H 541.891 0.718861 -0.162504 0
M  V30 5890 H 544.533 1.57633 -1.06075 0
M  V30 5891 H 542.683 3.88229 -0.14496 0
M  V30 5892 H 544.355 3.70469 -2.74865 0
M  V30 5893 H 542.598 3.44203 -2.6402 0
M  V30 5894 H 543.269 5.03275 -2.26757 0
M  V30 5895 H 545.745 4.12183 -0.5696 0
M  V30 5896 H 544.621 5.4803 -0.308984 0
M  V30 5897 H 544.882 4.31184 0.976347 0
M  V30 5898 N 543.941 0.601185 1.45683 0
M  V30 5899 C 545.357 0.264315 1.57396 0
M  V30 5900 C 545.557 -1.23324 1.59353 0
M  V30 5901 O 544.613 -2.01594 1.52039 0
M  V30 5902 C 545.926 0.929839 2.85962 0
M  V30 5903 C 547.474 0.905156 2.99626 0
M  V30 5904 C 547.949 1.55057 4.30954 0
M  V30 5905 N 549.44 1.51576 4.37697 0
M  V30 5906 C 550.175 1.98436 5.37969 0
M  V30 5907 N 549.671 2.53352 6.44813 0
M  V30 5908 N 551.464 1.89242 5.29286 0
M  V30 5909 H 543.615 1.57363 1.42656 0
M  V30 5910 H 545.878 0.658831 0.681649 0
M  V30 5911 H 545.584 1.98404 2.90394 0
M  V30 5912 H 545.458 0.449224 3.74515 0
M  V30 5913 H 547.845 -0.14048 2.94765 0
M  V30 5914 H 547.926 1.42397 2.12501 0
M  V30 5915 H 547.57 2.5955 4.36573 0
M  V30 5916 H 547.5 1.00682 5.16886 0
M  V30 5917 H 549.991 1.11452 3.61091 0
M  V30 5918 H 550.304 2.86918 7.17564 0
M  V30 5919 H 548.649 2.57388 6.45582 0
M  V30 5920 H 551.84 1.46083 4.44722 0
M  V30 5921 H 552.013 2.26075 6.07284 0
M  V30 5922 N 545.419 -1.53889 0.339982 0
M  V30 5923 C 546.644 -2.05741 -0.261798 0
M  V30 5924 C 547.069 -1.21354 -1.43718 0
M  V30 5925 O 546.427 -0.22645 -1.7988 0
M  V30 5926 C 546.475 -3.54542 -0.658228 0
M  V30 5927 O 545.579 -3.7302 -1.75869 0
M  V30 5928 H 544.92 -0.662529 -0.0441672 0
M  V30 5929 H 547.45 -1.98568 0.493161 0
M  V30 5930 H 547.46 -3.9711 -0.936368 0
M  V30 5931 H 546.135 -4.15412 0.201358 0
M  V30 5932 H 544.712 -3.42355 -1.47809 0
M  V30 5933 N 546.897 -0.0685191 -1.57451 0
M  V30 5934 C 548.308 0.464634 -1.80826 0
M  V30 5935 C 548.659 1.69847 -0.982169 0
M  V30 5936 O 547.784 2.15439 -0.203734 0
M  V30 5937 C 548.379 0.849721 -3.27971 0
M  V30 5938 C 546.938 1.32776 -3.52204 0
M  V30 5939 C 546.085 0.311332 -2.75547 0
M  V30 5940 H 549.036 -0.294248 -1.55948 0
M  V30 5941 H 549.057 1.71138 -3.39841 0
M  V30 5942 H 548.569 -0.0484736 -3.8807 0
M  V30 5943 H 546.67 2.24456 -2.97406 0
M  V30 5944 H 546.783 1.30794 -4.60901 0
M  V30 5945 H 545.147 0.787915 -2.42206 0
M  V30 5946 H 545.93 -0.579078 -3.38381 0
M  V30 5947 N 548.375 1.56261 0.205012 0
M  V30 5948 C 549.305 1.96779 1.257 0
M  V30 5949 C 550.286 0.838309 1.48008 0
M  V30 5950 O 551.471 1.10189 1.59913 0
M  V30 5951 C 548.601 2.29876 2.60335 0
M  V30 5952 C 547.555 3.45469 2.52656 0
M  V30 5953 C 546.881 3.64215 3.91473 0
M  V30 5954 C 548.181 4.79954 2.06014 0
M  V30 5955 H 549.875 2.84904 0.920338 0
M  V30 5956 H 547.421 1.37072 0.441277 0
M  V30 5957 H 549.374 2.56814 3.34102 0
M  V30 5958 H 548.098 1.38622 2.95722 0
M  V30 5959 H 546.757 3.18605 1.81345 0
M  V30 5960 H 546.405 2.70309 4.24196 0
M  V30 5961 H 546.105 4.41973 3.87213 0
M  V30 5962 H 547.629 3.93519 4.66878 0
M  V30 5963 H 549.043 5.05989 2.69533 0
M  V30 5964 H 547.44 5.61111 2.12777 0
M  V30 5965 H 548.51 4.74201 1.01297 0
M  V30 5966 N 549.853 -0.472356 1.50355 0
M  V30 5967 C 551.099 -1.22634 1.6152 0
M  V30 5968 C 551.432 -1.91645 0.313995 0
M  V30 5969 O 550.707 -1.82059 -0.684446 0
M  V30 5970 C 550.99 -2.27099 2.7946 0
M  V30 5971 C 550.843 -1.62402 4.19459 0
M  V30 5972 C 552.162 -3.28421 2.92964 0
M  V30 5973 H 549.281 -0.444494 0.587873 0
M  V30 5974 H 551.923 -0.520321 1.82737 0
M  V30 5975 H 550.073 -2.87314 2.61501 0
M  V30 5976 H 551.745 -1.05793 4.49005 0
M  V30 5977 H 549.988 -0.927184 4.23776 0
M  V30 5978 H 550.659 -2.38309 4.97909 0
M  V30 5979 H 553.135 -2.78227 3.09401 0
M  V30 5980 H 552.011 -3.98845 3.77113 0
M  V30 5981 H 552.272 -3.92467 2.03525 0
M  V30 5982 N 551.331 -1.39911 -0.725443 0
M  V30 5983 C 552.742 -1.33599 -1.30415 0
M  V30 5984 C 553.093 -0.00481792 -1.96199 0
M  V30 5985 O 552.218 0.897275 -1.96921 0
M  V30 5986 C 552.813 -2.41965 -2.37146 0
M  V30 5987 C 551.372 -2.39144 -2.90667 0
M  V30 5988 C 550.519 -2.23355 -1.64341 0
M  V30 5989 H 553.47 -1.4986 -0.522267 0
M  V30 5990 H 553.491 -2.09304 -3.17761 0
M  V30 5991 H 553.003 -3.38837 -1.89238 0
M  V30 5992 H 551.104 -1.4594 -3.4283 0
M  V30 5993 H 551.217 -3.34362 -3.43131 0
M  V30 5994 H 549.581 -1.70696 -1.89037 0
M  V30 5995 H 550.364 -3.2221 -1.18471 0
M  V30 5996 N 552.809 0.956637 -1.25245 0
M  V30 5997 C 553.739 2.07058 -1.07931 0
M  V30 5998 C 554.72 1.70096 0.0110361 0
M  V30 5999 O 555.905 1.93555 -0.158121 0
M  V30 6000 C 553.035 3.40272 -0.695124 0
M  V30 6001 C 551.989 3.91235 -1.73549 0
M  V30 6002 C 551.315 5.20921 -1.20604 0
M  V30 6003 C 552.615 4.17837 -3.13385 0
M  V30 6004 H 554.309 2.218 -2.01109 0
M  V30 6005 H 551.855 1.06581 -0.968326 0
M  V30 6006 H 553.808 4.1765 -0.560949 0
M  V30 6007 H 552.532 3.25462 0.272355 0
M  V30 6008 H 551.191 3.16025 -1.85807 0
M  V30 6009 H 550.839 5.02479 -0.228846 0
M  V30 6010 H 550.539 5.55987 -1.90136 0
M  V30 6011 H 552.063 6.00897 -1.08421 0
M  V30 6012 H 553.477 4.8588 -3.04292 0
M  V30 6013 H 551.874 4.64154 -3.80369 0
M  V30 6014 H 552.944 3.2419 -3.60595 0
M  V30 6015 N 554.287 1.06798 1.15896 0
M  V30 6016 C 555.698 0.811355 1.68149 0
M  V30 6017 C 556.049 -0.664339 1.8461 0
M  V30 6018 O 555.174 -1.51485 1.54535 0
M  V30 6019 C 555.769 1.46624 3.05429 0
M  V30 6020 C 554.328 1.25726 3.54781 0
M  V30 6021 C 553.475 1.53949 2.3064 0
M  V30 6022 H 556.426 1.23078 1.00187 0
M  V30 6023 H 556.447 0.88437 3.7008 0
M  V30 6024 H 555.959 2.54025 2.93416 0
M  V30 6025 H 554.06 0.20322 3.72045 0
M  V30 6026 H 554.173 1.97354 4.36564 0
M  V30 6027 H 552.537 0.96025 2.35905 0
M  V30 6028 H 553.32 2.6252 2.2122 0
M  V30 6029 N 555.766 -1.3263 0.851289 0
M  V30 6030 C 556.699 -2.26952 0.238318 0
M  V30 6031 C 557.677 -1.50243 -0.621757 0
M  V30 6032 O 558.861 -1.79378 -0.579298 0
M  V30 6033 C 555.988 -3.32124 -0.664178 0
M  V30 6034 C 555.034 -4.26325 0.122067 0
M  V30 6035 S 555.867 -5.14404 1.48824 0
M  V30 6036 C 557.023 -6.231 0.591372 0
M  V30 6037 H 557.256 -2.78594 1.03791 0
M  V30 6038 H 554.789 -1.4011 0.648731 0
M  V30 6039 H 556.747 -3.93197 -1.17924 0
M  V30 6040 H 555.408 -2.79273 -1.43755 0
M  V30 6041 H 554.601 -5.00821 -0.565181 0
M  V30 6042 H 554.203 -3.69652 0.568602 0
M  V30 6043 H 556.495 -6.77187 -0.205762 0
M  V30 6044 H 557.438 -6.95936 1.30687 0
M  V30 6045 H 557.846 -5.64252 0.167206 0
M  V30 6046 N 557.244 -0.608902 -1.45362 0
M  V30 6047 C 558.655 -0.189511 -1.85736 0
M  V30 6048 C 559.006 1.2539 -1.50903 0
M  V30 6049 O 558.131 1.95094 -0.936347 0
M  V30 6050 C 558.726 -0.33716 -3.37118 0
M  V30 6051 C 557.285 0.0275487 -3.7639 0
M  V30 6052 C 556.432 -0.660983 -2.69307 0
M  V30 6053 H 559.383 -0.815499 -1.36144 0
M  V30 6054 H 559.404 0.430257 -3.7806 0
M  V30 6055 H 558.916 -1.38779 -3.62439 0
M  V30 6056 H 557.017 1.0773 -3.56686 0
M  V30 6057 H 557.13 -0.367018 -4.77692 0
M  V30 6058 H 555.494 -0.0984958 -2.54509 0
M  V30 6059 H 556.277 -1.71377 -2.97464 0
M  V30 6060 N 558.722 1.53707 -0.348139 0
M  V30 6061 C 559.669 2.25173 0.506518 0
M  V30 6062 C 560.639 1.25174 1.09182 0
M  V30 6063 O 561.824 1.53917 1.12757 0
M  V30 6064 C 558.964 3.03141 1.64923 0
M  V30 6065 C 558.077 4.18002 1.0908 0
M  V30 6066 C 557.212 4.83447 2.20119 0
M  V30 6067 C 556.251 5.90369 1.61651 0
M  V30 6068 N 555.388 6.49575 2.66451 0
M  V30 6069 H 560.228 2.97799 -0.109452 0
M  V30 6070 H 557.765 1.46953 -0.0657866 0
M  V30 6071 H 559.723 3.46607 2.32205 0
M  V30 6072 H 558.353 2.32803 2.23612 0
M  V30 6073 H 557.405 3.79145 0.308783 0
M  V30 6074 H 558.717 4.94892 0.623178 0
M  V30 6075 H 557.871 5.30008 2.95257 0
M  V30 6076 H 556.61 4.05991 2.70227 0
M  V30 6077 H 555.615 5.43186 0.850209 0
M  V30 6078 H 556.84 6.69735 1.1239 0
M  V30 6079 H 554.786 5.74981 3.15805 0
M  V30 6080 H 554.703 7.21952 2.24325 0
M  V30 6081 H 555.971 7.00789 3.41344 0
M  V30 6082 N 560.2 0.0768682 1.57412 0
M  V30 6083 C 561.147 -0.888577 2.13009 0
M  V30 6084 C 562.117 -1.29198 1.0439 0
M  V30 6085 O 563.302 -1.37694 1.3208 0
M  V30 6086 C 560.442 -2.14899 2.70023 0
M  V30 6087 C 559.555 -1.79777 3.92816 0
M  V30 6088 C 558.69 -3.00467 4.38056 0
M  V30 6089 C 557.729 -2.61385 5.53484 0
M  V30 6090 N 556.866 -3.74851 5.93659 0
M  V30 6091 H 561.706 -0.407593 2.95199 0
M  V30 6092 H 559.243 -0.189534 1.45874 0
M  V30 6093 H 561.201 -2.88688 3.0119 0
M  V30 6094 H 559.831 -2.60529 1.9059 0
M  V30 6095 H 558.883 -0.960301 3.68079 0
M  V30 6096 H 560.195 -1.47027 4.76639 0
M  V30 6097 H 559.349 -3.82529 4.7091 0
M  V30 6098 H 558.088 -3.36413 3.53097 0
M  V30 6099 H 557.093 -1.77746 5.20275 0
M  V30 6100 H 558.318 -2.26603 6.40178 0
M  V30 6101 H 556.264 -4.1055 5.11649 0
M  V30 6102 H 556.181 -3.45887 6.72234 0
M  V30 6103 H 557.449 -4.57477 6.31138 0
M  V30 6104 N 561.678 -1.56367 -0.196722 0
M  V30 6105 C 562.608 -1.97442 -1.24655 0
M  V30 6106 C 563.589 -0.846147 -1.47561 0
M  V30 6107 O 564.774 -1.11035 -1.59326 0
M  V30 6108 C 561.904 -2.31253 -2.59112 0
M  V30 6109 C 560.858 -3.46804 -2.50821 0
M  V30 6110 C 560.184 -3.66286 -3.89536 0
M  V30 6111 C 561.484 -4.8104 -2.03465 0
M  V30 6112 H 563.178 -2.85388 -0.905216 0
M  V30 6113 H 560.724 -1.37304 -0.434002 0
M  V30 6114 H 562.677 -2.58583 -3.32736 0
M  V30 6115 H 561.401 -1.40188 -2.94983 0
M  V30 6116 H 560.06 -3.19563 -1.79653 0
M  V30 6117 H 559.708 -2.72555 -4.22756 0
M  V30 6118 H 559.408 -4.4402 -3.84864 0
M  V30 6119 H 560.932 -3.9599 -4.64784 0
M  V30 6120 H 562.346 -5.07411 -2.66846 0
M  V30 6121 H 560.743 -5.62232 -2.09798 0
M  V30 6122 H 561.813 -4.74732 -0.98781 0
M  V30 6123 N 563.156 0.464375 -1.50603 0
M  V30 6124 C 564.572 0.798684 -1.38178 0
M  V30 6125 C 564.772 1.96568 -0.44308 0
M  V30 6126 O 563.828 2.52252 0.111814 0
M  V30 6127 C 565.141 1.10444 -2.79683 0
M  V30 6128 C 566.689 1.2105 -2.88645 0
M  V30 6129 C 567.164 1.54934 -4.30998 0
M  V30 6130 N 568.655 1.61913 -4.3398 0
M  V30 6131 C 569.39 1.8965 -5.41129 0
M  V30 6132 N 568.886 2.15361 -6.58477 0
M  V30 6133 N 570.679 1.91207 -5.28579 0
M  V30 6134 H 562.83 -0.304603 -2.10204 0
M  V30 6135 H 565.093 -0.0737804 -0.945125 0
M  V30 6136 H 564.799 0.319934 -3.50242 0
M  V30 6137 H 564.673 2.03896 -3.17342 0
M  V30 6138 H 567.06 1.98567 -2.18301 0
M  V30 6139 H 567.141 0.255613 -2.5452 0
M  V30 6140 H 566.785 0.779549 -5.01882 0
M  V30 6141 H 566.715 2.51584 -4.62615 0
M  V30 6142 H 569.206 1.44055 -3.49366 0
M  V30 6143 H 569.519 2.35818 -7.35941 0
M  V30 6144 H 567.864 2.1274 -6.6164 0
M  V30 6145 H 571.055 1.70622 -4.35897 0
M  V30 6146 H 571.228 2.12488 -6.12171 0
M  V30 6147 N 564.634 1.40294 0.718013 0
M  V30 6148 C 565.881 1.3844 1.47786 0
M  V30 6149 C 566.209 -0.0140838 1.94495 0
M  V30 6150 O 565.464 -0.998165 1.68331 0
M  V30 6151 C 565.763 2.31814 2.72024 0
M  V30 6152 C 565.429 3.79117 2.44093 0
M  V30 6153 C 564.091 4.19249 2.36185 0
M  V30 6154 C 566.443 4.72212 2.20602 0
M  V30 6155 C 563.771 5.50516 2.02851 0
M  V30 6156 C 566.123 6.03775 1.88781 0
M  V30 6157 C 564.787 6.42953 1.79354 0
M  V30 6158 H 564.057 0.506588 0.540786 0
M  V30 6159 H 566.704 1.72929 0.822663 0
M  V30 6160 H 565.009 1.90501 3.42369 0
M  V30 6161 H 566.706 2.27664 3.30106 0
M  V30 6162 H 563.296 3.47318 2.51133 0
M  V30 6163 H 567.48 4.42026 2.25669 0
M  V30 6164 H 562.736 5.79776 1.94088 0
M  V30 6165 H 566.91 6.75428 1.69617 0
M  V30 6166 H 564.537 7.44584 1.53291 0
M  V30 6167 N 566.112 -0.949982 1.2575 0
M  V30 6168 C 567.06 -2.06869 1.06339 0
M  V30 6169 C 568.054 -1.69399 -0.00708901 0
M  V30 6170 O 569.26 -1.79383 0.148897 0
M  V30 6171 H 565.635 -0.677197 0.326969 0
M  V30 6172 H 567.606 -2.20396 2.01167 0
M  V30 6173 C 566.355 -3.40503 0.703769 0
M  V30 6174 H 565.678 -3.69807 1.51931 0
M  V30 6175 H 567.118 -4.19623 0.607677 0
M  V30 6176 C 565.577 -3.31685 -0.5905 0
M  V30 6177 O 566.107 -3.67085 -1.63131 0
M  V30 6178 N 564.313 -2.84797 -0.577859 0
M  V30 6179 H 563.86 -2.56186 0.26951 0
M  V30 6180 H 563.818 -2.79279 -1.44398 0
M  V30 6181 N 567.59 -1.07411 -1.15328 0
M  V30 6182 C 568.839 -0.792643 -1.85473 0
M  V30 6183 C 569.152 0.683789 -1.83259 0
M  V30 6184 O 570.358 1.08005 -2.49093 0
M  V30 6185 C 568.814 -1.36787 -3.32892 0
M  V30 6186 C 568.422 -2.87536 -3.43551 0
M  V30 6187 C 570.166 -1.16444 -4.08217 0
M  V30 6188 C 568.073 -3.38247 -4.85122 0
M  V30 6189 H 567.003 -0.292838 -0.694811 0
M  V30 6190 H 569.654 -1.29426 -1.30082 0
M  V30 6191 H 568.036 -0.793993 -3.87958 0
M  V30 6192 H 569.21 -3.50973 -2.98588 0
M  V30 6193 H 567.525 -3.06676 -2.81672 0
M  V30 6194 H 570.122 -1.51808 -5.12697 0
M  V30 6195 H 570.465 -0.10353 -4.16171 0
M  V30 6196 H 570.998 -1.70472 -3.59422 0
M  V30 6197 H 567.737 -4.43866 -4.82351 0
M  V30 6198 H 567.257 -2.79564 -5.30664 0
M  V30 6199 H 568.936 -3.34238 -5.5398 0
M  V30 6200 N 569.068 1.32177 -0.85831 0
M  V30 6201 C 570.296 2.01313 -0.477582 0
M  V30 6202 C 570.711 1.6449 0.926736 0
M  V30 6203 O 570.068 0.868096 1.60531 0
M  V30 6204 C 570.119 3.56293 -0.611337 0
M  V30 6205 O 569.84 3.91794 -1.96034 0
M  V30 6206 C 571.341 4.42702 -0.230093 0
M  V30 6207 H 568.561 0.644323 -0.187322 0
M  V30 6208 H 571.105 1.68674 -1.15626 0
M  V30 6209 H 569.26 3.87395 0.0196494 0
M  V30 6210 H 569.674 4.86513 -1.95973 0
M  V30 6211 H 571.148 5.50727 -0.374674 0
M  V30 6212 H 571.625 4.3129 0.829779 0
M  V30 6213 H 572.231 4.16997 -0.836302 0
M  V30 6214 N 570.547 0.616602 1.45037 0
M  V30 6215 C 571.958 0.199359 1.85633 0
M  V30 6216 C 572.309 -1.24588 1.51566 0
M  V30 6217 O 571.434 -1.94594 0.94668 0
M  V30 6218 C 572.029 0.355033 3.36935 0
M  V30 6219 C 570.588 -0.00758748 3.76399 0
M  V30 6220 C 569.735 0.675256 2.68953 0
M  V30 6221 H 572.686 0.822708 1.3571 0
M  V30 6222 H 572.707 -0.410201 3.78282 0
M  V30 6223 H 572.219 1.40699 3.61698 0
M  V30 6224 H 570.32 -1.05837 3.57252 0
M  V30 6225 H 570.433 0.392346 4.77491 0
M  V30 6226 H 568.797 0.111992 2.54454 0
M  V30 6227 H 569.58 1.72952 2.96551 0
M  V30 6228 N 572.025 -1.5352 0.356285 0
M  V30 6229 C 572.935 -2.29151 -0.502712 0
M  V30 6230 C 573.951 -1.34753 -1.1008 0
M  V30 6231 O 575.127 -1.67803 -1.11374 0
M  V30 6232 C 572.192 -3.05911 -1.63154 0
M  V30 6233 C 571.253 -4.15958 -1.06194 0
M  V30 6234 C 570.486 -4.8905 -2.13696 0
M  V30 6235 O 570.709 -4.61919 -3.34645 0
M  V30 6236 O 569.643 -5.75202 -1.77275 0
M  V30 6237 H 573.469 -3.03492 0.112466 0
M  V30 6238 H 571.054 -1.4891 0.120942 0
M  V30 6239 H 572.936 -3.53874 -2.28804 0
M  V30 6240 H 571.611 -2.34415 -2.23229 0
M  V30 6241 H 570.518 -3.7227 -0.369603 0
M  V30 6242 H 571.851 -4.89593 -0.505872 0
M  V30 6243 N 573.503 -0.0852151 -1.57369 0
M  V30 6244 C 574.752 0.580443 -1.93168 0
M  V30 6245 C 575.065 1.6995 -0.968319 0
M  V30 6246 O 576.271 2.42564 -1.21963 0
M  V30 6247 C 574.727 1.08386 -3.43192 0
M  V30 6248 C 574.335 -0.00491388 -4.48 0
M  V30 6249 C 576.079 1.72281 -3.87968 0
M  V30 6250 C 573.986 0.513299 -5.89168 0
M  V30 6251 H 572.916 0.22059 -0.72101 0
M  V30 6252 H 575.567 -0.159621 -1.82804 0
M  V30 6253 H 573.949 1.8773 -3.48674 0
M  V30 6254 H 575.123 -0.780032 -4.5415 0
M  V30 6255 H 573.438 -0.548453 -4.12772 0
M  V30 6256 H 576.035 2.12108 -4.9083 0
M  V30 6257 H 576.378 2.58811 -3.26071 0
M  V30 6258 H 576.911 0.995359 -3.85146 0
M  V30 6259 H 573.65 -0.315153 -6.54742 0
M  V30 6260 H 573.17 1.25564 -5.8651 0
M  V30 6261 H 574.849 0.985433 -6.39451 0
M  V30 6262 N 574.981 1.5647 0.188427 0
M  V30 6263 C 575.928 1.95073 1.23349 0
M  V30 6264 C 576.898 0.812238 1.44886 0
M  V30 6265 O 578.083 1.07095 1.57909 0
M  V30 6266 C 575.223 2.30124 2.57171 0
M  V30 6267 C 574.336 3.57069 2.43157 0
M  V30 6268 C 573.471 3.81411 3.69729 0
M  V30 6269 C 572.51 5.0176 3.50575 0
M  V30 6270 N 571.647 5.22321 4.69175 0
M  V30 6271 H 576.487 2.84171 0.89728 0
M  V30 6272 H 574.024 1.40623 0.431683 0
M  V30 6273 H 575.982 2.48463 3.35145 0
M  V30 6274 H 574.612 1.44159 2.88822 0
M  V30 6275 H 573.664 3.4674 1.56447 0
M  V30 6276 H 574.976 4.452 2.24942 0
M  V30 6277 H 574.13 4.00026 4.56141 0
M  V30 6278 H 572.869 2.91624 3.90905 0
M  V30 6279 H 571.874 4.83061 2.62549 0
M  V30 6280 H 573.099 5.93063 3.30837 0
M  V30 6281 H 571.045 4.35483 4.90602 0
M  V30 6282 H 570.962 6.04643 4.53809 0
M  V30 6283 H 572.23 5.45401 5.56919 0
M  V30 6284 N 576.459 -0.456382 1.50847 0
M  V30 6285 C 577.684 -1.2349 1.66628 0
M  V30 6286 C 578.109 -1.84715 0.355254 0
M  V30 6287 O 577.467 -1.67961 -0.682559 0
M  V30 6288 C 577.515 -2.30865 2.77009 0
M  V30 6289 O 576.619 -3.35882 2.39285 0
M  V30 6290 H 575.96 -0.36266 0.556214 0
M  V30 6291 H 578.49 -0.541374 1.97308 0
M  V30 6292 H 578.5 -2.75949 3.00526 0
M  V30 6293 H 577.175 -1.85677 3.72152 0
M  V30 6294 H 575.752 -2.96406 2.26269 0
M  V30 6295 N 577.937 -1.40673 -0.710563 0
M  V30 6296 C 579.214 -1.29718 -1.46398 0
M  V30 6297 C 579.594 0.082177 -2.1094 0
M  V30 6298 O 578.942 1.09536 -2.00534 0
M  V30 6299 C 579.152 -2.43967 -2.49562 0
M  V30 6300 C 580.5 -2.84436 -3.15248 0
M  V30 6301 O 581.524 -2.43597 -2.59883 0
M  V30 6302 O 580.383 -3.55008 -4.1549 0
M  V30 6303 H 577.477 -0.509697 -0.651258 0
M  V30 6304 H 580.023 -1.52603 -0.742312 0
M  V30 6305 H 578.795 -3.36076 -2.0042 0
M  V30 6306 H 578.418 -2.22879 -3.29258 0
M  V30 6307 N 579.415 0.9433 -1.26252 0
M  V30 6308 C 580.664 1.68369 -1.11062 0
M  V30 6309 C 580.977 1.92514 0.346104 0
M  V30 6310 O 582.183 2.64358 0.618646 0
M  V30 6311 C 580.639 3.03171 -1.93946 0
M  V30 6312 C 580.247 2.86782 -3.4418 0
M  V30 6313 C 581.991 3.80916 -1.87359 0
M  V30 6314 C 579.898 4.17044 -4.19319 0
M  V30 6315 H 578.828 0.631469 -0.412023 0
M  V30 6316 H 581.479 1.04922 -1.50544 0
M  V30 6317 H 579.861 3.67587 -1.47296 0
M  V30 6318 H 581.035 2.31229 -3.98585 0
M  V30 6319 H 579.35 2.22482 -3.51981 0
M  V30 6320 H 581.947 4.77417 -2.40784 0
M  V30 6321 H 582.29 4.07658 -0.843857 0
M  V30 6322 H 582.823 3.2327 -2.31821 0
M  V30 6323 H 579.562 3.95487 -5.22753 0
M  V30 6324 H 579.082 4.72319 -3.69696 0
M  V30 6325 H 580.761 4.85513 -4.27651 0
M  V30 6326 N 580.893 1.08022 1.14757 0
M  V30 6327 C 581.803 0.718292 2.23333 0
M  V30 6328 C 582.819 -0.273477 1.71837 0
M  V30 6329 O 583.995 -0.118406 2.01052 0
M  V30 6330 C 581.06 0.128855 3.4646 0
M  V30 6331 C 580.121 1.17473 4.12915 0
M  V30 6332 C 579.354 0.61333 5.30164 0
M  V30 6333 O 579.577 -0.568458 5.6756 0
M  V30 6334 O 578.511 1.3615 5.86299 0
M  V30 6335 H 582.337 1.62394 2.56636 0
M  V30 6336 H 579.922 0.853628 1.22611 0
M  V30 6337 H 581.804 -0.197249 4.20938 0
M  V30 6338 H 580.479 -0.750014 3.14891 0
M  V30 6339 H 579.386 1.5533 3.40328 0
M  V30 6340 H 580.719 2.02574 4.48581 0
M  V30 6341 N 582.371 -1.3172 0.865308 0
M  V30 6342 C 583.318 -2.2863 0.315736 0
M  V30 6343 C 584.288 -1.55524 -0.583213 0
M  V30 6344 O 585.473 -1.83694 -0.51585 0
M  V30 6345 C 582.613 -3.41735 -0.480773 0
M  V30 6346 C 581.726 -4.297 0.445167 0
M  V30 6347 C 580.861 -5.29944 -0.365012 0
M  V30 6348 C 579.9 -6.09554 0.557651 0
M  V30 6349 N 579.037 -7.01768 -0.215994 0
M  V30 6350 H 583.877 -2.75026 1.14736 0
M  V30 6351 H 581.414 -1.35302 0.577209 0
M  V30 6352 H 583.372 -4.06045 -0.958306 0
M  V30 6353 H 582.002 -2.96461 -1.27714 0
M  V30 6354 H 581.054 -3.65875 1.04113 0
M  V30 6355 H 582.366 -4.85295 1.15284 0
M  V30 6356 H 581.52 -5.99908 -0.905255 0
M  V30 6357 H 580.259 -4.74994 -1.106 0
M  V30 6358 H 579.264 -5.38485 1.10969 0
M  V30 6359 H 580.489 -6.66591 1.29742 0
M  V30 6360 H 578.435 -6.49232 -0.939878 0
M  V30 6361 H 578.352 -7.54762 0.432431 0
M  V30 6362 H 579.62 -7.76002 -0.737618 0
M  V30 6363 N 583.85 -0.624285 -1.44708 0
M  V30 6364 C 584.812 0.0749638 -2.29077 0
M  V30 6365 C 585.812 0.778965 -1.40673 0
M  V30 6366 O 587.003 0.624591 -1.62618 0
M  V30 6367 C 584.135 1.11663 -3.22094 0
M  V30 6368 H 585.327 -0.667013 -2.92388 0
M  V30 6369 H 582.88 -0.384098 -1.51507 0
M  V30 6370 H 583.615 1.88881 -2.63618 0
M  V30 6371 H 583.401 0.61583 -3.87234 0
M  V30 6372 H 584.891 1.60585 -3.8549 0
M  V30 6373 N 585.328 1.53329 -0.364422 0
M  V30 6374 C 586.275 2.25698 0.482607 0
M  V30 6375 C 587.245 1.26325 1.07848 0
M  V30 6376 O 588.43 1.55104 1.11119 0
M  V30 6377 C 585.57 3.04873 1.61699 0
M  V30 6378 C 584.683 4.19135 1.0464 0
M  V30 6379 C 583.818 4.85754 2.14979 0
M  V30 6380 C 582.857 5.9205 1.5538 0
M  V30 6381 N 581.994 6.52365 2.59547 0
M  V30 6382 H 586.834 2.97666 -0.141032 0
M  V30 6383 H 584.371 1.46875 -0.0813692 0
M  V30 6384 H 586.329 3.49051 2.28516 0
M  V30 6385 H 584.959 2.35162 2.2113 0
M  V30 6386 H 584.011 3.79451 0.268553 0
M  V30 6387 H 585.323 4.95525 0.570653 0
M  V30 6388 H 584.477 5.3311 2.89619 0
M  V30 6389 H 583.216 4.08834 2.65906 0
M  V30 6390 H 582.221 5.44058 0.792549 0
M  V30 6391 H 583.446 6.7089 1.0528 0
M  V30 6392 H 581.392 5.78298 3.09689 0
M  V30 6393 H 581.309 7.2429 2.16655 0
M  V30 6394 H 582.577 7.0437 3.33892 0
M  V30 6395 N 586.806 0.0935595 1.57322 0
M  V30 6396 C 587.738 -0.895923 2.10964 0
M  V30 6397 C 588.751 -1.24705 1.04654 0
M  V30 6398 O 589.94 -1.20044 1.32105 0
M  V30 6399 C 587.04 -2.20546 2.57318 0
M  V30 6400 C 586.213 -2.0299 3.87445 0
M  V30 6401 C 585.272 -3.17443 4.19662 0
M  V30 6402 O 584.298 -2.91474 4.88909 0
M  V30 6403 N 585.5 -4.43168 3.74943 0
M  V30 6404 H 588.265 -0.437788 2.96485 0
M  V30 6405 H 585.826 -0.0915863 1.61641 0
M  V30 6406 H 587.818 -2.9606 2.75917 0
M  V30 6407 H 586.388 -2.57789 1.76816 0
M  V30 6408 H 585.608 -1.11815 3.78009 0
M  V30 6409 H 586.896 -1.88535 4.7258 0
M  V30 6410 H 586.294 -4.67149 3.19043 0
M  V30 6411 H 584.851 -5.15637 3.987 0
M  V30 6412 N 588.284 -1.56567 -0.180126 0
M  V30 6413 C 589.232 -1.96632 -1.24251 0
M  V30 6414 C 590.226 -0.853818 -1.46309 0
M  V30 6415 O 591.432 -1.0389 -1.46993 0
M  V30 6416 H 587.807 -0.625476 -0.417473 0
M  V30 6417 H 589.778 -2.85201 -0.877679 0
M  V30 6418 C 588.527 -2.33486 -2.57642 0
M  V30 6419 H 587.85 -3.18626 -2.4149 0
M  V30 6420 H 589.29 -2.65371 -3.30688 0
M  V30 6421 C 587.749 -1.17499 -3.15746 0
M  V30 6422 O 588.279 -0.457956 -3.99081 0
M  V30 6423 N 586.485 -0.94786 -2.74707 0
M  V30 6424 H 586.032 -1.53269 -2.07042 0
M  V30 6425 H 585.99 -0.173626 -3.1392 0
M  V30 6426 N 589.762 0.448376 -1.51087 0
M  V30 6427 C 590.692 1.55102 -1.74544 0
M  V30 6428 C 591.673 1.59357 -0.594932 0
M  V30 6429 O 592.858 1.75261 -0.836491 0
M  V30 6430 C 589.988 2.93268 -1.86041 0
M  V30 6431 C 588.942 3.03877 -3.01402 0
M  V30 6432 C 588.268 4.43914 -2.98068 0
M  V30 6433 C 589.568 2.7898 -4.41551 0
M  V30 6434 H 591.262 1.35724 -2.66869 0
M  V30 6435 H 588.808 0.651498 -1.28419 0
M  V30 6436 H 590.761 3.70356 -2.01034 0
M  V30 6437 H 589.485 3.13853 -0.903548 0
M  V30 6438 H 588.144 2.29227 -2.86096 0
M  V30 6439 H 587.792 4.6145 -2.00182 0
M  V30 6440 H 587.492 4.51944 -3.75527 0
M  V30 6441 H 589.016 5.22991 -3.1514 0
M  V30 6442 H 590.43 3.45805 -4.57265 0
M  V30 6443 H 588.827 2.98431 -5.20633 0
M  V30 6444 H 589.897 1.74663 -4.5235 0
M  V30 6445 N 591.24 1.41047 0.703093 0
M  V30 6446 C 592.465 1.43537 1.49706 0
M  V30 6447 C 592.89 0.0401853 1.88057 0
M  V30 6448 O 592.248 -0.954785 1.54122 0
M  V30 6449 C 592.296 2.3433 2.74084 0
M  V30 6450 O 591.4 1.79515 3.71279 0
M  V30 6451 H 590.741 0.487454 0.450871 0
M  V30 6452 H 593.271 1.85422 0.86486 0
M  V30 6453 H 593.281 2.49947 3.22476 0
M  V30 6454 H 591.956 3.35708 2.45506 0
M  V30 6455 H 590.533 1.7331 3.30179 0
M  V30 6456 N 592.718 -0.936591 1.26751 0
M  V30 6457 C 593.967 -1.67778 1.11953 0
M  V30 6458 C 594.28 -1.92694 -0.33589 0
M  V30 6459 O 595.486 -2.64682 -0.604618 0
M  V30 6460 C 593.942 -3.02138 1.95551 0
M  V30 6461 C 593.55 -2.84953 3.45696 0
M  V30 6462 C 595.294 -3.79917 1.89377 0
M  V30 6463 C 593.201 -4.14814 4.21525 0
M  V30 6464 H 592.131 -0.629275 0.415366 0
M  V30 6465 H 594.782 -1.04122 1.51099 0
M  V30 6466 H 593.164 -3.668 1.49243 0
M  V30 6467 H 594.338 -2.29112 3.99805 0
M  V30 6468 H 592.653 -2.20612 3.53156 0
M  V30 6469 H 595.25 -4.76134 2.43312 0
M  V30 6470 H 595.593 -4.07204 0.865464 0
M  V30 6471 H 596.126 -3.22037 2.33532 0
M  V30 6472 H 592.865 -3.92709 5.24843 0
M  V30 6473 H 592.385 -4.70352 3.72195 0
M  V30 6474 H 594.064 -4.83239 4.3022 0
M  V30 6475 N 594.196 -1.08629 -1.14182 0
M  V30 6476 C 595.129 -0.662329 -2.18377 0
M  V30 6477 C 596.107 0.327054 -1.59277 0
M  V30 6478 O 597.291 0.230376 -1.87087 0
M  V30 6479 C 594.418 0.0254765 -3.3869 0
M  V30 6480 C 593.464 -0.924414 -4.16361 0
M  V30 6481 S 594.297 -2.43226 -4.77076 0
M  V30 6482 C 595.453 -1.75663 -6.00744 0
M  V30 6483 H 595.686 -1.54501 -2.54001 0
M  V30 6484 H 593.219 -0.901484 -1.2535 0
M  V30 6485 H 595.177 0.416032 -4.08386 0
M  V30 6486 H 593.838 0.884689 -3.01384 0
M  V30 6487 H 593.031 -0.390099 -5.02488 0
M  V30 6488 H 592.633 -1.25598 -3.5228 0
M  V30 6489 H 594.925 -1.07589 -6.68903 0
M  V30 6490 H 595.868 -2.59673 -6.58768 0
M  V30 6491 H 596.276 -1.22903 -5.50958 0
M  V30 6492 N 595.674 1.31259 -0.872281 0
M  V30 6493 C 596.923 1.95893 -0.480493 0
M  V30 6494 C 597.236 1.697 0.972688 0
M  V30 6495 O 598.442 2.28214 1.47073 0
M  V30 6496 C 596.898 3.50705 -0.808342 0
M  V30 6497 C 596.506 3.85735 -2.27844 0
M  V30 6498 C 598.25 4.21719 -0.485136 0
M  V30 6499 C 596.157 5.33668 -2.54858 0
M  V30 6500 H 595.087 0.733182 -0.175955 0
M  V30 6501 H 597.738 1.49396 -1.0655 0
M  V30 6502 H 596.12 3.95706 -0.152558 0
M  V30 6503 H 597.294 3.51686 -2.97748 0
M  V30 6504 H 595.609 3.27792 -2.56791 0
M  V30 6505 H 598.206 5.30559 -0.664166 0
M  V30 6506 H 598.549 4.12316 0.574592 0
M  V30 6507 H 599.082 3.82359 -1.09756 0
M  V30 6508 H 595.821 5.48109 -3.59523 0
M  V30 6509 H 595.341 5.69061 -1.8955 0
M  V30 6510 H 597.02 6.00958 -2.39706 0
M  V30 6511 N 597.152 0.631951 1.44375 0
M  V30 6512 C 598.084 -0.110911 2.28931 0
M  V30 6513 C 599.097 -0.808086 1.41329 0
M  V30 6514 O 600.286 -0.669396 1.65473 0
M  V30 6515 C 597.386 -1.17928 3.1772 0
M  V30 6516 C 596.559 -0.564458 4.33743 0
M  V30 6517 C 595.618 -1.5269 5.0356 0
M  V30 6518 O 594.644 -1.04372 5.59549 0
M  V30 6519 N 595.846 -2.86123 5.05088 0
M  V30 6520 H 598.611 0.614758 2.93327 0
M  V30 6521 H 596.172 0.473171 1.54831 0
M  V30 6522 H 598.164 -1.82348 3.61291 0
M  V30 6523 H 596.734 -1.80717 2.55069 0
M  V30 6524 H 595.954 0.258373 3.93352 0
M  V30 6525 H 597.242 -0.134355 5.08623 0
M  V30 6526 H 596.64 -3.27959 4.60933 0
M  V30 6527 H 595.197 -3.45901 5.52445 0
M  V30 6528 N 598.631 -1.53133 0.372548 0
M  V30 6529 C 599.908 -1.93704 -0.271693 0
M  V30 6530 C 600.288 -1.30667 -1.65799 0
M  V30 6531 O 599.636 -0.46838 -2.23648 0
M  V30 6532 C 599.846 -3.47576 -0.314903 0
M  V30 6533 C 601.194 -4.20998 -0.551912 0
M  V30 6534 O 602.218 -3.53994 -0.39582 0
M  V30 6535 O 601.077 -5.39748 -0.85639 0
M  V30 6536 H 598.171 -0.810457 -0.164586 0
M  V30 6537 H 600.717 -1.6427 0.425838 0
M  V30 6538 H 599.489 -3.85749 0.656792 0
M  V30 6539 H 599.112 -3.83264 -1.05804 0
M  V30 6540 N 600.109 -0.101901 -1.5727 0
M  V30 6541 C 601.039 0.851544 -2.17419 0
M  V30 6542 C 602.02 1.28942 -1.10941 0
M  V30 6543 O 603.205 1.35509 -1.39107 0
M  V30 6544 C 600.335 2.10816 -2.75996 0
M  V30 6545 C 599.289 1.80867 -3.87906 0
M  V30 6546 C 598.615 3.13413 -4.33216 0
M  V30 6547 C 599.915 1.0903 -5.10793 0
M  V30 6548 H 601.609 0.350381 -2.97343 0
M  V30 6549 H 599.155 0.16709 -1.43027 0
M  V30 6550 H 601.108 2.77959 -3.16729 0
M  V30 6551 H 599.832 2.63227 -1.93337 0
M  V30 6552 H 598.491 1.16119 -3.47724 0
M  V30 6553 H 598.139 3.63725 -3.47438 0
M  V30 6554 H 597.839 2.94155 -5.08671 0
M  V30 6555 H 599.363 3.81704 -4.76586 0
M  V30 6556 H 600.777 1.66295 -5.48652 0
M  V30 6557 H 599.174 0.99927 -5.91722 0
M  V30 6558 H 600.244 0.0741704 -4.84843 0
M  V30 6559 N 601.587 1.56661 0.17182 0
M  V30 6560 C 602.864 1.72838 0.915778 0
M  V30 6561 C 603.244 0.66316 2.00413 0
M  V30 6562 O 602.592 -0.322123 2.26218 0
M  V30 6563 C 602.802 3.16019 1.48097 0
M  V30 6564 C 604.15 3.76962 1.95408 0
M  V30 6565 O 605.174 3.19294 1.57892 0
M  V30 6566 O 604.033 4.78219 2.64516 0
M  V30 6567 H 601.127 0.705797 0.431021 0
M  V30 6568 H 603.673 1.68947 0.159689 0
M  V30 6569 H 602.445 3.85031 0.697618 0
M  V30 6570 H 602.068 3.24234 2.30126 0
M  V30 6571 N 603.065 -0.440357 1.51323 0
M  V30 6572 C 604.314 -1.18697 1.63076 0
M  V30 6573 C 604.627 -1.92418 0.35136 0
M  V30 6574 O 605.833 -2.69258 0.348221 0
M  V30 6575 C 604.289 -2.15849 2.87988 0
M  V30 6576 C 603.897 -1.47789 4.22921 0
M  V30 6577 C 605.641 -2.90962 3.09098 0
M  V30 6578 C 603.548 -2.43407 5.38987 0
M  V30 6579 H 602.478 -0.44676 0.607389 0
M  V30 6580 H 605.129 -0.454313 1.77787 0
M  V30 6581 H 603.511 -2.92537 2.66905 0
M  V30 6582 H 604.685 -0.7668 4.54375 0
M  V30 6583 H 603 -0.848404 4.07665 0
M  V30 6584 H 605.597 -3.62584 3.92985 0
M  V30 6585 H 605.94 -3.52133 2.22053 0
M  V30 6586 H 606.473 -2.21381 3.30507 0
M  V30 6587 H 603.212 -1.86929 6.28282 0
M  V30 6588 H 602.732 -3.12579 5.11913 0
M  V30 6589 H 604.411 -3.046 5.70813 0
M  V30 6590 N 604.543 -1.41418 -0.695603 0
M  V30 6591 C 605.771 -1.4413 -1.48439 0
M  V30 6592 C 606.186 -0.0465698 -1.88743 0
M  V30 6593 O 605.543 0.934117 -1.56782 0
M  V30 6594 C 605.594 -2.34998 -2.74696 0
M  V30 6595 O 605.315 -3.69043 -2.36091 0
M  V30 6596 C 606.816 -2.46513 -3.68438 0
M  V30 6597 H 604.036 -0.490905 -0.457442 0
M  V30 6598 H 606.58 -1.85702 -0.856454 0
M  V30 6599 H 604.735 -1.96735 -3.33728 0
M  V30 6600 H 605.149 -4.17505 -3.17474 0
M  V30 6601 H 606.623 -3.1426 -4.53811 0
M  V30 6602 H 607.1 -1.49638 -4.12922 0
M  V30 6603 H 607.706 -2.85412 -3.1531 0
M  V30 6604 N 606.021 0.929856 -1.27246 0
M  V30 6605 C 607.267 1.6798 -1.13625 0
M  V30 6606 C 607.6 1.91586 0.317589 0
M  V30 6607 O 606.875 1.50467 1.23247 0
M  V30 6608 C 607.158 3.04766 -1.91806 0
M  V30 6609 C 607.011 2.88415 -3.45162 0
M  V30 6610 C 608.33 4.05063 -1.72082 0
M  V30 6611 H 605.449 0.609632 -0.414147 0
M  V30 6612 H 608.091 1.0792 -1.56376 0
M  V30 6613 H 606.241 3.56034 -1.55474 0
M  V30 6614 H 607.913 2.44282 -3.91311 0
M  V30 6615 H 606.156 2.23802 -3.71611 0
M  V30 6616 H 606.827 3.85482 -3.95105 0
M  V30 6617 H 609.303 3.62798 -2.03757 0
M  V30 6618 H 608.179 4.98765 -2.29182 0
M  V30 6619 H 608.44 4.37021 -0.668206 0
M  V30 6620 N 607.499 1.09233 1.13605 0
M  V30 6621 C 608.432 0.6739 2.18023 0
M  V30 6622 C 609.41 -0.318603 1.59448 0
M  V30 6623 O 610.594 -0.220452 1.87206 0
M  V30 6624 C 607.721 -0.00751458 3.38699 0
M  V30 6625 C 606.767 0.946481 4.15865 0
M  V30 6626 S 607.6 2.45753 4.75779 0
M  V30 6627 C 608.756 1.78846 5.99804 0
M  V30 6628 H 608.989 1.55846 2.53178 0
M  V30 6629 H 606.522 0.908118 1.2487 0
M  V30 6630 H 608.48 -0.394368 4.08601 0
M  V30 6631 H 607.141 -0.868693 3.01849 0
M  V30 6632 H 606.334 0.416742 5.02274 0
M  V30 6633 H 605.936 1.27464 3.51609 0
M  V30 6634 H 608.228 1.11135 6.68323 0
M  V30 6635 H 609.171 2.63163 6.57382 0
M  V30 6636 H 609.579 1.25823 5.50299 0
M  V30 6637 N 608.977 -1.30795 0.87923 0
M  V30 6638 C 610.223 -1.96653 0.495519 0
M  V30 6639 C 610.556 -1.69282 -0.951703 0
M  V30 6640 O 609.831 -0.994374 -1.6716 0
M  V30 6641 C 610.114 -3.51898 0.764174 0
M  V30 6642 C 609.967 -3.88808 2.2616 0
M  V30 6643 C 611.286 -4.39462 0.236825 0
M  V30 6644 H 608.405 -0.7143 0.181507 0
M  V30 6645 H 611.047 -1.54765 1.10217 0
M  V30 6646 H 609.197 -3.87709 0.247841 0
M  V30 6647 H 610.869 -3.63051 2.8459 0
M  V30 6648 H 609.112 -3.37082 2.73053 0
M  V30 6649 H 609.783 -4.97086 2.4002 0
M  V30 6650 H 612.259 -4.10528 0.678683 0
M  V30 6651 H 611.135 -5.47018 0.454176 0
M  V30 6652 H 611.396 -4.33621 -0.861683 0
M  V30 6653 N 610.455 -0.639598 -1.44038 0
M  V30 6654 C 611.702 -0.14748 -2.01962 0
M  V30 6655 C 612.03 1.23372 -1.50365 0
M  V30 6656 O 611.285 1.8345 -0.681501 0
M  V30 6657 C 611.584 -0.0925348 -3.5728 0
M  V30 6658 C 611.25 -1.41365 -4.28167 0
M  V30 6659 C 609.912 -1.77545 -4.47248 0
M  V30 6660 C 612.264 -2.2853 -4.68427 0
M  V30 6661 C 609.592 -3.00583 -5.03852 0
M  V30 6662 C 611.944 -3.50846 -5.26393 0
M  V30 6663 C 610.608 -3.8724 -5.43692 0
M  V30 6664 H 609.878 -0.0539666 -0.739032 0
M  V30 6665 H 612.525 -0.827599 -1.72694 0
M  V30 6666 H 610.83 0.670987 -3.86012 0
M  V30 6667 H 612.527 0.304891 -3.99839 0
M  V30 6668 H 609.117 -1.1221 -4.13651 0
M  V30 6669 H 613.301 -2.0187 -4.5339 0
M  V30 6670 H 608.557 -3.28846 -5.15432 0
M  V30 6671 H 612.731 -4.18616 -5.56537 0
M  V30 6672 H 610.358 -4.8266 -5.87319 0
M  V30 6673 N 611.933 1.52934 -0.380664 0
M  V30 6674 C 612.883 2.22989 0.475399 0
M  V30 6675 C 613.867 1.23058 1.03661 0
M  V30 6676 O 615.059 1.48436 0.964146 0
M  V30 6677 C 612.188 3.0338 1.60671 0
M  V30 6678 C 611.274 4.107 1.05766 0
M  V30 6679 N 611.665 5.05264 0.232837 0
M  V30 6680 C 609.963 4.25676 1.33101 0
M  V30 6681 C 610.664 5.81658 -0.0695134 0
M  V30 6682 N 609.64 5.40989 0.532144 0
M  V30 6683 H 613.442 2.93456 -0.161418 0
M  V30 6684 H 610.956 1.61291 -0.189495 0
M  V30 6685 H 612.953 3.52098 2.23232 0
M  V30 6686 H 611.613 2.34446 2.24644 0
M  V30 6687 H 612.624 5.17739 -0.129204 0
M  V30 6688 H 609.301 3.6797 1.97241 0
M  V30 6689 H 610.691 6.67843 -0.737269 0
M  V30 6690 N 613.412 0.11024 1.57214 0
M  V30 6691 C 614.362 -0.854147 2.11396 0
M  V30 6692 C 615.346 -1.23394 1.03261 0
M  V30 6693 O 616.538 -1.20649 1.2951 0
M  V30 6694 C 613.667 -2.10752 2.70995 0
M  V30 6695 C 612.753 -1.75249 3.86198 0
M  V30 6696 N 613.144 -1.10377 4.9361 0
M  V30 6697 C 611.442 -2.04763 3.96217 0
M  V30 6698 C 612.143 -0.938199 5.74084 0
M  V30 6699 N 611.119 -1.46039 5.23616 0
M  V30 6700 H 614.921 -0.348897 2.91822 0
M  V30 6701 H 612.435 -0.0925071 1.62136 0
M  V30 6702 H 614.432 -2.80801 3.0815 0
M  V30 6703 H 613.092 -2.61829 1.9203 0
M  V30 6704 H 614.103 -0.768785 5.12162 0
M  V30 6705 H 610.78 -2.57948 3.28282 0
M  V30 6706 H 612.17 -0.429678 6.70525 0
M  V30 6707 N 614.89 -1.56749 -0.16351 0
M  V30 6708 C 616.137 -1.82434 -0.878866 0
M  V30 6709 C 616.465 -0.688557 -1.81904 0
M  V30 6710 O 615.72 0.323644 -1.93005 0
M  V30 6711 C 616.019 -3.14342 -1.70071 0
M  V30 6712 C 615.685 -4.41647 -0.908775 0
M  V30 6713 C 614.347 -4.76224 -0.690236 0
M  V30 6714 C 616.699 -5.19998 -0.353815 0
M  V30 6715 C 614.027 -5.86624 0.0942374 0
M  V30 6716 C 616.379 -6.3122 0.41761 0
M  V30 6717 C 615.043 -6.64358 0.646879 0
M  V30 6718 H 614.313 -0.667574 -0.3216 0
M  V30 6719 H 616.96 -1.90963 -0.14337 0
M  V30 6720 H 615.265 -3.0119 -2.50583 0
M  V30 6721 H 616.962 -3.31426 -2.25738 0
M  V30 6722 H 613.552 -4.1453 -1.08916 0
M  V30 6723 H 617.736 -4.93673 -0.509975 0
M  V30 6724 H 612.992 -6.10751 0.281529 0
M  V30 6725 H 617.166 -6.91133 0.854849 0
M  V30 6726 H 614.793 -7.49742 1.25662 0
M  V30 6727 N 616.368 0.432326 -1.51554 0
M  V30 6728 C 617.616 1.17901 -1.64146 0
M  V30 6729 C 617.937 1.91604 -0.362367 0
M  V30 6730 O 617.207 1.85764 0.621968 0
M  V30 6731 H 615.787 0.438206 -0.604966 0
M  V30 6732 H 618.449 0.495172 -1.88505 0
M  V30 6733 H 617.545 1.90584 -2.47152 0
M  V30 6734 N 617.846 1.41785 0.688094 0
M  V30 6735 C 618.793 1.44221 1.80191 0
M  V30 6736 C 619.763 0.295688 1.63447 0
M  V30 6737 O 620.948 0.49783 1.84191 0
M  V30 6738 C 618.088 1.33743 3.1813 0
M  V30 6739 C 617.201 2.58325 3.46254 0
M  V30 6740 C 616.336 2.40086 4.73848 0
M  V30 6741 C 615.375 3.60107 4.94964 0
M  V30 6742 N 614.512 3.40892 6.13789 0
M  V30 6743 H 619.352 2.39411 1.77444 0
M  V30 6744 H 616.889 1.18876 0.866423 0
M  V30 6745 H 618.847 1.25669 3.97823 0
M  V30 6746 H 617.477 0.42157 3.20035 0
M  V30 6747 H 616.529 2.7682 2.60912 0
M  V30 6748 H 617.841 3.4758 3.57756 0
M  V30 6749 H 616.995 2.29522 5.61609 0
M  V30 6750 H 615.734 1.483 4.64606 0
M  V30 6751 H 614.739 3.71118 4.05649 0
M  V30 6752 H 615.964 4.52857 5.06061 0
M  V30 6753 H 613.91 2.51812 6.05745 0
M  V30 6754 H 613.827 4.23727 6.26092 0
M  V30 6755 H 615.095 3.34114 7.04264 0
M  V30 6756 N 619.324 -0.923095 1.27737 0
M  V30 6757 C 620.601 -1.64989 1.05062 0
M  V30 6758 C 620.981 -2.07018 -0.413124 0
M  V30 6759 O 620.329 -1.80797 -1.39731 0
M  V30 6760 C 620.539 -2.84847 2.01652 0
M  V30 6761 C 621.887 -3.56083 2.31279 0
M  V30 6762 O 622.911 -2.94981 1.99662 0
M  V30 6763 O 621.77 -4.66182 2.85196 0
M  V30 6764 H 618.864 -0.723357 0.400853 0
M  V30 6765 H 621.41 -0.973224 1.3902 0
M  V30 6766 H 620.182 -2.50814 3.00347 0
M  V30 6767 H 619.805 -3.60231 1.68284 0
M  V30 6768 N 620.802 -1.09834 -1.13024 0
M  V30 6769 C 622.049 -0.83695 -1.84395 0
M  V30 6770 C 622.377 0.637463 -1.83757 0
M  V30 6771 O 621.632 1.48554 -1.27398 0
M  V30 6772 C 621.931 -1.32263 -3.32026 0
M  V30 6773 C 621.597 -2.80739 -3.52841 0
M  V30 6774 C 620.259 -3.21286 -3.5823 0
M  V30 6775 C 622.611 -3.76449 -3.60466 0
M  V30 6776 C 619.939 -4.56308 -3.68781 0
M  V30 6777 C 622.291 -5.11266 -3.72546 0
M  V30 6778 C 620.955 -5.51397 -3.76189 0
M  V30 6779 H 620.225 -0.306262 -0.674748 0
M  V30 6780 H 622.872 -1.37385 -1.33408 0
M  V30 6781 H 621.177 -0.705618 -3.85394 0
M  V30 6782 H 622.874 -1.09695 -3.85705 0
M  V30 6783 H 619.464 -2.48363 -3.49305 0
M  V30 6784 H 623.648 -3.46234 -3.55578 0
M  V30 6785 H 618.904 -4.86832 -3.69871 0
M  V30 6786 H 623.078 -5.85279 -3.77388 0
M  V30 6787 H 620.705 -6.56017 -3.84117 0
M  V30 6788 N 622.28 1.30327 -0.886154 0
M  V30 6789 C 623.691 1.78243 -0.555554 0
M  V30 6790 C 624.042 1.72849 0.928314 0
M  V30 6791 O 623.167 1.30607 1.72542 0
M  V30 6792 C 623.762 3.23654 -1.00168 0
M  V30 6793 C 622.321 3.69401 -0.722471 0
M  V30 6794 C 621.468 2.50753 -1.18399 0
M  V30 6795 H 624.419 1.1718 -1.07026 0
M  V30 6796 H 624.44 3.79056 -0.331152 0
M  V30 6797 H 623.952 3.27548 -2.08169 0
M  V30 6798 H 622.053 3.70995 0.345496 0
M  V30 6799 H 622.166 4.60818 -1.31085 0
M  V30 6800 H 620.53 2.47452 -0.603303 0
M  V30 6801 H 621.313 2.57383 -2.27176 0
M  V30 6802 N 623.758 0.647228 1.43697 0
M  V30 6803 C 624.705 -0.0480092 2.3075 0
M  V30 6804 C 625.675 -0.820705 1.44408 0
M  V30 6805 O 626.86 -0.798515 1.73287 0
M  V30 6806 C 624 -1.01259 3.2991 0
M  V30 6807 C 623.113 -0.236629 4.31351 0
M  V30 6808 C 622.248 -1.19447 5.17596 0
M  V30 6809 C 621.287 -0.408595 6.10735 0
M  V30 6810 N 620.424 -1.31772 6.89623 0
M  V30 6811 H 625.264 0.700238 2.89656 0
M  V30 6812 H 622.801 0.357082 1.427 0
M  V30 6813 H 624.759 -1.58538 3.85903 0
M  V30 6814 H 623.389 -1.72778 2.72667 0
M  V30 6815 H 622.441 0.452353 3.77701 0
M  V30 6816 H 623.753 0.374731 4.9739 0
M  V30 6817 H 622.907 -1.83809 5.78186 0
M  V30 6818 H 621.646 -1.83975 4.51669 0
M  V30 6819 H 620.651 0.24841 5.49239 0
M  V30 6820 H 621.876 0.232188 6.78703 0
M  V30 6821 H 619.822 -1.94991 6.2635 0
M  V30 6822 H 619.739 -0.760779 7.52162 0
M  V30 6823 H 621.007 -1.94967 7.54724 0
M  V30 6824 N 625.236 -1.5273 0.388769 0
M  V30 6825 C 626.461 -2.0647 -0.19621 0
M  V30 6826 C 626.886 -1.25865 -1.39784 0
M  V30 6827 O 626.244 -0.283562 -1.79069 0
M  V30 6828 C 626.292 -3.56456 -0.5451 0
M  V30 6829 O 625.396 -3.78426 -1.63912 0
M  V30 6830 H 624.737 -0.663599 -0.023067 0
M  V30 6831 H 627.267 -1.96898 0.556084 0
M  V30 6832 H 627.277 -3.99888 -0.809557 0
M  V30 6833 H 625.952 -4.14561 0.333417 0
M  V30 6834 H 624.529 -3.46884 -1.36842 0
M  V30 6835 N 626.714 -0.118576 -1.57153 0
M  V30 6836 C 627.624 0.845484 -2.18835 0
M  V30 6837 C 628.64 1.29299 -1.16438 0
M  V30 6838 O 629.816 1.35607 -1.48905 0
M  V30 6839 C 626.881 2.07795 -2.77529 0
M  V30 6840 C 625.942 1.6824 -3.9496 0
M  V30 6841 C 625.175 2.85612 -4.50845 0
M  V30 6842 O 625.398 4.01025 -4.05629 0
M  V30 6843 O 624.332 2.62721 -5.41536 0
M  V30 6844 H 628.158 0.350568 -3.0167 0
M  V30 6845 H 625.743 0.107013 -1.49016 0
M  V30 6846 H 627.625 2.79978 -3.14945 0
M  V30 6847 H 626.3 2.56294 -1.97725 0
M  V30 6848 H 625.207 0.931663 -3.62313 0
M  V30 6849 H 626.54 1.24484 -4.76198 0
M  V30 6850 N 628.193 1.56834 0.155195 0
M  V30 6851 C 629.14 1.97646 1.19184 0
M  V30 6852 C 630.11 0.842788 1.4313 0
M  V30 6853 O 631.295 1.1042 1.55602 0
M  V30 6854 C 628.435 2.35527 2.52232 0
M  V30 6855 C 627.548 3.62147 2.35529 0
M  V30 6856 C 626.683 3.89167 3.61555 0
M  V30 6857 C 625.722 5.09084 3.39853 0
M  V30 6858 N 624.859 5.32156 4.5799 0
M  V30 6859 H 629.699 2.8601 0.836802 0
M  V30 6860 H 627.236 1.41507 0.401758 0
M  V30 6861 H 629.194 2.55516 3.29799 0
M  V30 6862 H 627.824 1.50253 2.85699 0
M  V30 6863 H 626.876 3.4998 1.49057 0
M  V30 6864 H 628.188 4.49871 2.15448 0
M  V30 6865 H 627.342 4.09611 4.47553 0
M  V30 6866 H 626.081 2.9985 3.84632 0
M  V30 6867 H 625.086 4.88522 2.52243 0
M  V30 6868 H 626.311 5.99947 3.18183 0
M  V30 6869 H 624.257 4.45791 4.81255 0
M  V30 6870 H 624.174 6.14133 4.40882 0
M  V30 6871 H 625.442 5.57091 5.45225 0
M  V30 6872 N 629.671 -0.424282 1.51781 0
M  V30 6873 C 630.601 -1.52305 1.7699 0
M  V30 6874 C 631.582 -1.5839 0.620209 0
M  V30 6875 O 632.767 -1.73908 0.864268 0
M  V30 6876 C 629.897 -2.90271 1.90683 0
M  V30 6877 C 628.851 -2.99043 3.06198 0
M  V30 6878 C 628.177 -4.39116 3.05092 0
M  V30 6879 C 629.477 -2.7192 4.45934 0
M  V30 6880 H 631.171 -1.31461 2.68995 0
M  V30 6881 H 628.717 -0.630985 1.29439 0
M  V30 6882 H 630.67 -3.6711 2.06901 0
M  V30 6883 H 629.394 -3.12376 0.953365 0
M  V30 6884 H 628.053 -2.24646 2.89706 0
M  V30 6885 H 627.701 -4.58207 2.07498 0
M  V30 6886 H 627.401 -4.45912 3.82669 0
M  V30 6887 H 628.925 -5.17911 3.2342 0
M  V30 6888 H 630.339 -3.38487 4.62709 0
M  V30 6889 H 628.736 -2.90111 5.25315 0
M  V30 6890 H 629.806 -1.67445 4.55072 0
M  V30 6891 N 631.149 -1.42148 -0.680565 0
M  V30 6892 C 632.374 -1.45901 -1.47403 0
M  V30 6893 C 632.799 -0.0700985 -1.87969 0
M  V30 6894 O 632.157 0.930145 -1.55621 0
M  V30 6895 C 632.205 -2.38661 -2.70321 0
M  V30 6896 O 631.309 -1.85399 -3.68376 0
M  V30 6897 H 630.65 -0.494565 -0.443059 0
M  V30 6898 H 633.18 -1.86774 -0.835251 0
M  V30 6899 H 633.19 -2.55046 -3.18458 0
M  V30 6900 H 631.865 -3.39571 -2.40134 0
M  V30 6901 H 630.442 -1.78541 -3.2738 0
M  V30 6902 N 632.627 0.916307 -1.28225 0
M  V30 6903 C 634.038 1.48024 -1.13779 0
M  V30 6904 C 634.389 1.94289 0.273139 0
M  V30 6905 O 633.514 1.82226 1.16716 0
M  V30 6906 C 634.109 2.69029 -2.05935 0
M  V30 6907 C 632.668 3.2161 -1.95561 0
M  V30 6908 C 631.815 1.94321 -1.97825 0
M  V30 6909 H 634.766 0.729272 -1.40951 0
M  V30 6910 H 634.787 3.44204 -1.62184 0
M  V30 6911 H 634.299 2.35325 -3.08616 0
M  V30 6912 H 632.4 3.60045 -0.959076 0
M  V30 6913 H 632.513 3.87032 -2.82388 0
M  V30 6914 H 630.877 2.1131 -1.42198 0
M  V30 6915 H 631.66 1.62917 -3.0218 0
M  V30 6916 N 634.105 1.10431 1.1244 0
M  V30 6917 C 635.382 0.758797 1.80282 0
M  V30 6918 C 635.762 -0.754727 1.97147 0
M  V30 6919 O 635.11 -1.68094 1.54779 0
M  V30 6920 C 635.32 1.50982 3.14651 0
M  V30 6921 C 636.668 1.68232 3.8985 0
M  V30 6922 O 637.692 1.47319 3.24308 0
M  V30 6923 O 636.551 2.02905 5.07437 0
M  V30 6924 H 633.645 0.273756 0.780376 0
M  V30 6925 H 636.191 1.20713 1.19275 0
M  V30 6926 H 634.963 2.53989 2.97666 0
M  V30 6927 H 634.586 1.05435 3.83366 0
M  V30 6928 N 635.583 -1.29855 0.893053 0
M  V30 6929 C 636.546 -2.26183 0.370687 0
M  V30 6930 C 637.546 -1.53108 -0.491385 0
M  V30 6931 O 638.736 -1.71643 -0.297386 0
M  V30 6932 C 635.868 -3.37633 -0.470827 0
M  V30 6933 H 637.061 -2.73903 1.22135 0
M  V30 6934 H 634.614 -1.41183 0.67061 0
M  V30 6935 H 635.349 -2.95241 -1.34175 0
M  V30 6936 H 635.134 -3.91825 0.146784 0
M  V30 6937 H 636.624 -4.09313 -0.827825 0
M  V30 6938 N 637.061 -0.65484 -1.43351 0
M  V30 6939 C 638.308 -0.168892 -2.01794 0
M  V30 6940 C 638.636 1.2177 -1.51665 0
M  V30 6941 O 637.891 1.82717 -0.70092 0
M  V30 6942 C 638.19 -0.130424 -3.57162 0
M  V30 6943 C 637.856 -1.45898 -4.26643 0
M  V30 6944 C 636.518 -1.82279 -4.4534 0
M  V30 6945 C 638.87 -2.33485 -4.65976 0
M  V30 6946 C 636.198 -3.0591 -5.00635 0
M  V30 6947 C 638.55 -3.5641 -5.22642 0
M  V30 6948 C 637.214 -3.92985 -5.39555 0
M  V30 6949 H 636.484 -0.061802 -0.738418 0
M  V30 6950 H 639.131 -0.845869 -1.71806 0
M  V30 6951 H 637.436 0.630008 -3.86702 0
M  V30 6952 H 639.133 0.262465 -4.0014 0
M  V30 6953 H 635.723 -1.16591 -4.12437 0
M  V30 6954 H 639.907 -2.06668 -4.51223 0
M  V30 6955 H 635.163 -3.34295 -5.11915 0
M  V30 6956 H 639.337 -4.24495 -5.52066 0
M  V30 6957 H 636.964 -4.88862 -5.82167 0
M  V30 6958 N 638.539 1.52521 -0.396863 0
M  V30 6959 C 639.788 2.00857 0.184184 0
M  V30 6960 C 640.101 1.28733 1.47265 0
M  V30 6961 O 641.307 1.67821 2.13421 0
M  V30 6962 C 639.763 3.57901 0.378787 0
M  V30 6963 C 639.371 4.38931 -0.896873 0
M  V30 6964 C 641.115 4.14504 0.915789 0
M  V30 6965 C 639.022 5.87591 -0.670133 0
M  V30 6966 H 637.952 0.750496 0.0726055 0
M  V30 6967 H 640.603 1.75965 -0.520425 0
M  V30 6968 H 638.985 3.79072 1.14543 0
M  V30 6969 H 640.159 4.29524 -1.66872 0
M  V30 6970 H 638.474 3.93586 -1.35938 0
M  V30 6971 H 641.071 5.23236 1.10126 0
M  V30 6972 H 641.414 3.71076 1.88701 0
M  V30 6973 H 641.947 3.97253 0.208523 0
M  V30 6974 H 638.686 6.35355 -1.61257 0
M  V30 6975 H 638.206 5.99767 0.0626368 0
M  V30 6976 H 639.885 6.46268 -0.307577 0
M  V30 6977 N 640.017 0.126909 1.57088 0
M  V30 6978 C 640.949 -0.850973 2.12817 0
M  V30 6979 C 641.962 -1.22457 1.07276 0
M  V30 6980 O 643.151 -1.17215 1.34622 0
M  V30 6981 C 640.251 -2.15039 2.61938 0
M  V30 6982 C 639.424 -1.94726 3.91664 0
M  V30 6983 C 638.483 -3.0847 4.26301 0
M  V30 6984 O 637.509 -2.81038 4.94981 0
M  V30 6985 N 638.711 -4.35116 3.84259 0
M  V30 6986 H 641.476 -0.3748 2.97347 0
M  V30 6987 H 639.037 -0.0572793 1.61799 0
M  V30 6988 H 641.029 -2.90141 2.82135 0
M  V30 6989 H 639.599 -2.5398 1.82244 0
M  V30 6990 H 638.819 -1.03772 3.80296 0
M  V30 6991 H 640.107 -1.78469 4.76473 0
M  V30 6992 H 639.505 -4.60276 3.2888 0
M  V30 6993 H 638.062 -5.07064 4.09548 0
M  V30 6994 N 641.495 -1.56914 -0.146875 0
M  V30 6995 C 642.428 -1.93425 -1.21087 0
M  V30 6996 C 643.406 -0.800106 -1.41552 0
M  V30 6997 O 644.59 -1.05572 -1.56162 0
M  V30 6998 C 641.717 -2.20639 -2.56975 0
M  V30 6999 C 640.763 -3.43279 -2.53104 0
M  V30 7000 S 641.596 -4.96836 -1.99786 0
M  V30 7001 C 642.752 -5.27172 -3.37403 0
M  V30 7002 H 642.985 -2.8337 -0.899378 0
M  V30 7003 H 640.518 -1.50322 -0.352494 0
M  V30 7004 H 642.476 -2.36998 -3.35175 0
M  V30 7005 H 641.137 -1.31357 -2.85314 0
M  V30 7006 H 640.33 -3.59599 -3.53136 0
M  V30 7007 H 639.932 -3.26163 -1.83012 0
M  V30 7008 H 642.224 -5.20647 -4.33513 0
M  V30 7009 H 643.167 -6.28626 -3.25937 0
M  V30 7010 H 643.575 -4.54687 -3.34544 0
M  V30 7011 N 642.974 0.416227 -1.52004 0
M  V30 7012 C 643.937 1.48926 -1.74223 0
M  V30 7013 C 644.937 1.48693 -0.612119 0
M  V30 7014 O 646.127 1.50343 -0.879921 0
M  V30 7015 C 643.259 2.88372 -1.81809 0
M  V30 7016 H 644.452 1.3052 -2.70008 0
M  V30 7017 H 642.005 0.646271 -1.42313 0
M  V30 7018 H 642.74 3.12157 -0.879135 0
M  V30 7019 H 642.525 2.89944 -2.6396 0
M  V30 7020 H 644.015 3.66173 -2.00766 0
M  V30 7021 N 644.452 1.42507 0.673017 0
M  V30 7022 C 645.382 1.48916 1.79851 0
M  V30 7023 C 646.363 0.345566 1.66553 0
M  V30 7024 O 647.548 0.560116 1.85947 0
M  V30 7025 C 644.678 1.39258 3.18158 0
M  V30 7026 C 643.632 2.51662 3.46194 0
M  V30 7027 C 642.958 2.27062 4.84094 0
M  V30 7028 C 644.258 3.93968 3.42909 0
M  V30 7029 H 645.952 2.43114 1.74745 0
M  V30 7030 H 643.498 1.17013 0.839288 0
M  V30 7031 H 645.451 1.42349 3.96629 0
M  V30 7032 H 644.175 0.415542 3.23946 0
M  V30 7033 H 642.834 2.47891 2.70084 0
M  V30 7034 H 642.482 1.27648 4.86534 0
M  V30 7035 H 642.182 3.02398 5.03815 0
M  V30 7036 H 643.706 2.31905 5.64847 0
M  V30 7037 H 645.12 3.99332 4.11347 0
M  V30 7038 H 643.517 4.6917 3.74165 0
M  V30 7039 H 644.587 4.20512 2.41449 0
M  V30 7040 N 645.93 -0.909495 1.28709 0
M  V30 7041 C 646.862 -2.01729 1.08804 0
M  V30 7042 C 647.875 -1.62755 0.0384739 0
M  V30 7043 O 649.064 -1.76259 0.281977 0
M  V30 7044 C 646.164 -3.32952 0.63217 0
M  V30 7045 C 645.337 -4.00512 1.75809 0
M  V30 7046 C 644.396 -5.10019 1.29488 0
M  V30 7047 O 643.422 -5.32986 1.99787 0
M  V30 7048 N 644.624 -5.80278 0.1604 0
M  V30 7049 H 647.389 -2.19362 2.04207 0
M  V30 7050 H 644.95 -1.08106 1.20518 0
M  V30 7051 H 646.942 -4.03543 0.305802 0
M  V30 7052 H 645.512 -3.11759 -0.229134 0
M  V30 7053 H 644.732 -3.23413 2.25383 0
M  V30 7054 H 646.02 -4.42395 2.51325 0
M  V30 7055 H 645.418 -5.64094 -0.425937 0
M  V30 7056 H 643.975 -6.51713 -0.106663 0
M  V30 7057 N 647.408 -1.11026 -1.11852 0
M  V30 7058 C 648.338 -0.786812 -2.19844 0
M  V30 7059 C 649.319 0.242935 -1.68356 0
M  V30 7060 O 650.504 0.107355 -1.93903 0
M  V30 7061 C 647.634 -0.224516 -3.46574 0
M  V30 7062 C 646.588 -1.18564 -4.1125 0
M  V30 7063 C 645.914 -0.484261 -5.32503 0
M  V30 7064 C 647.214 -2.53465 -4.56676 0
M  V30 7065 H 648.908 -1.68978 -2.47158 0
M  V30 7066 H 646.454 -0.813906 -1.18792 0
M  V30 7067 H 648.407 0.0139435 -4.21398 0
M  V30 7068 H 647.131 0.713722 -3.18706 0
M  V30 7069 H 645.79 -1.40966 -3.38414 0
M  V30 7070 H 645.438 0.458646 -5.00905 0
M  V30 7071 H 645.138 -1.12526 -5.76725 0
M  V30 7072 H 646.662 -0.254492 -6.10069 0
M  V30 7073 H 648.076 -2.35177 -5.22843 0
M  V30 7074 H 646.473 -3.13507 -5.11697 0
M  V30 7075 H 647.543 -3.13008 -3.70343 0
M  V30 7076 N 648.886 1.2938 -0.899927 0
M  V30 7077 C 649.849 2.25983 -0.382677 0
M  V30 7078 C 650.849 1.53366 0.483259 0
M  V30 7079 O 652.039 1.71798 0.28828 0
M  V30 7080 C 649.171 3.37878 0.452915 0
M  V30 7081 H 650.364 2.73252 -1.23586 0
M  V30 7082 H 647.917 1.40825 -0.678088 0
M  V30 7083 H 648.652 2.95949 1.32608 0
M  V30 7084 H 648.437 3.91742 -0.167562 0
M  V30 7085 H 649.927 4.09746 0.806107 0
M  V30 7086 N 650.364 0.662433 1.43002 0
M  V30 7087 C 651.594 0.187343 2.05749 0
M  V30 7088 C 652.002 -1.15582 1.49791 0
M  V30 7089 O 651.345 -1.72651 0.627487 0
M  V30 7090 C 651.407 0.0316493 3.59486 0
M  V30 7091 C 651.071 1.30156 4.38073 0
M  V30 7092 C 652.068 2.23234 4.69535 0
M  V30 7093 C 649.753 1.54572 4.77926 0
M  V30 7094 C 651.747 3.39012 5.39768 0
M  V30 7095 C 649.434 2.70641 5.47902 0
M  V30 7096 C 650.432 3.62687 5.78746 0
M  V30 7097 O 650.12 4.76728 6.47291 0
M  V30 7098 H 649.852 0.0915214 0.669776 0
M  V30 7099 H 652.406 0.905982 1.8434 0
M  V30 7100 H 650.636 -0.742451 3.79506 0
M  V30 7101 H 652.325 -0.401977 4.03905 0
M  V30 7102 H 653.091 2.05616 4.39257 0
M  V30 7103 H 648.97 0.83804 4.53319 0
M  V30 7104 H 652.514 4.10877 5.63761 0
M  V30 7105 H 648.411 2.88189 5.77596 0
M  V30 7106 H 649.179 4.76113 6.65777 0
M  V30 7107 N 651.842 -1.52309 0.404946 0
M  V30 7108 C 653.072 -2.05886 -0.171569 0
M  V30 7109 C 653.48 -1.27527 -1.39762 0
M  V30 7110 O 652.823 -0.319215 -1.80905 0
M  V30 7111 C 652.885 -3.54609 -0.590983 0
M  V30 7112 C 652.549 -4.53989 0.523757 0
M  V30 7113 C 653.546 -5.01084 1.38604 0
M  V30 7114 C 651.231 -4.97465 0.695255 0
M  V30 7115 C 653.225 -5.90295 2.4048 0
M  V30 7116 C 650.912 -5.86473 1.71733 0
M  V30 7117 C 651.91 -6.32782 2.57051 0
M  V30 7118 O 651.598 -7.20029 3.57509 0
M  V30 7119 H 651.33 -0.675508 -0.0257763 0
M  V30 7120 H 653.884 -1.97238 0.573278 0
M  V30 7121 H 652.114 -3.60929 -1.38805 0
M  V30 7122 H 653.803 -3.90853 -1.09494 0
M  V30 7123 H 654.569 -4.68214 1.26492 0
M  V30 7124 H 650.448 -4.60982 0.0408447 0
M  V30 7125 H 653.992 -6.26363 3.07108 0
M  V30 7126 H 649.889 -6.18756 1.83877 0
M  V30 7127 H 650.657 -7.3813 3.53703 0
M  V30 7128 N 653.32 -0.135238 -1.57019 0
M  V30 7129 C 654.736 0.221262 -1.58059 0
M  V30 7130 C 654.936 1.65538 -1.14889 0
M  V30 7131 O 653.992 2.37985 -0.843751 0
M  V30 7132 C 655.305 -0.0268114 -3.00688 0
M  V30 7133 C 656.853 0.0378206 -3.12977 0
M  V30 7134 C 657.328 -0.182769 -4.57635 0
M  V30 7135 N 658.819 -0.129292 -4.6302 0
M  V30 7136 C 659.554 -0.274648 -5.72742 0
M  V30 7137 N 659.05 -0.477075 -6.91155 0
M  V30 7138 N 660.843 -0.213077 -5.61696 0
M  V30 7139 H 652.994 -1.07177 -1.83376 0
M  V30 7140 H 655.257 -0.423338 -0.848227 0
M  V30 7141 H 654.963 -1.01889 -3.36618 0
M  V30 7142 H 654.837 0.697863 -3.70688 0
M  V30 7143 H 657.224 1.02043 -2.76896 0
M  V30 7144 H 657.305 -0.718996 -2.45487 0
M  V30 7145 H 656.949 -1.16243 -4.94419 0
M  V30 7146 H 656.879 0.59423 -5.23237 0
M  V30 7147 H 659.37 0.0229896 -3.77893 0
M  V30 7148 H 659.683 -0.578413 -7.70632 0
M  V30 7149 H 658.028 -0.513252 -6.93102 0
M  V30 7150 H 661.219 -0.0557796 -4.68067 0
M  V30 7151 H 661.392 -0.329796 -6.4716 0
M  V30 7152 N 654.798 1.5699 0.138552 0
M  V30 7153 C 656.047 1.82998 0.848205 0
M  V30 7154 C 656.36 0.717829 1.81952 0
M  V30 7155 O 657.566 0.863756 2.57394 0
M  V30 7156 C 656.022 3.24379 1.55904 0
M  V30 7157 C 655.63 4.43552 0.62971 0
M  V30 7158 C 657.374 3.59654 2.25498 0
M  V30 7159 C 655.281 5.75957 1.34266 0
M  V30 7160 H 654.211 0.682495 0.320495 0
M  V30 7161 H 656.862 1.83222 0.100924 0
M  V30 7162 H 655.244 3.18567 2.35226 0
M  V30 7163 H 656.418 4.6062 -0.128882 0
M  V30 7164 H 654.733 4.16379 0.0417526 0
M  V30 7165 H 657.33 4.55837 2.79493 0
M  V30 7166 H 657.673 2.86124 3.02388 0
M  V30 7167 H 658.206 3.67164 1.53087 0
M  V30 7168 H 654.945 6.52604 0.615441 0
M  V30 7169 H 654.465 5.62811 2.07375 0
M  V30 7170 H 656.144 6.19046 1.88126 0
M  V30 7171 N 656.276 -0.40816 1.52223 0
M  V30 7172 C 657.506 -1.17501 1.69932 0
M  V30 7173 C 657.914 -1.84729 0.408874 0
M  V30 7174 O 657.257 -1.7274 -0.625025 0
M  V30 7175 C 657.319 -2.27994 2.77955 0
M  V30 7176 C 656.983 -1.80894 4.19674 0
M  V30 7177 C 657.98 -1.29618 5.03483 0
M  V30 7178 C 655.665 -1.87698 4.65913 0
M  V30 7179 C 657.659 -0.857695 6.31603 0
M  V30 7180 C 655.346 -1.43461 5.94022 0
M  V30 7181 C 656.344 -0.925822 6.76696 0
M  V30 7182 O 656.032 -0.489841 8.02406 0
M  V30 7183 H 655.764 -0.359065 0.572755 0
M  V30 7184 H 658.318 -0.486188 1.99563 0
M  V30 7185 H 656.548 -3.00243 2.43703 0
M  V30 7186 H 658.237 -2.89749 2.84254 0
M  V30 7187 H 659.003 -1.23733 4.68951 0
M  V30 7188 H 654.882 -2.26244 4.01665 0
M  V30 7189 H 658.426 -0.459879 6.96083 0
M  V30 7190 H 654.323 -1.49026 6.28062 0
M  V30 7191 H 655.091 -0.613062 8.16201 0
M  V30 7192 N 657.755 -1.42862 -0.66545 0
M  V30 7193 C 659.003 -1.43546 -1.42264 0
M  V30 7194 C 659.324 -0.0563116 -1.94919 0
M  V30 7195 O 658.594 0.906568 -1.73661 0
M  V30 7196 H 657.174 -0.528464 -0.527953 0
M  V30 7197 H 659.836 -1.78363 -0.785665 0
M  V30 7198 H 658.932 -2.14079 -2.27105 0
M  V30 7199 N 659.233 0.902656 -1.29189 0
M  V30 7200 C 660.165 2.01149 -1.09872 0
M  V30 7201 C 661.178 1.62732 -0.0471046 0
M  V30 7202 O 662.367 1.76107 -0.29132 0
M  V30 7203 C 659.467 3.32612 -0.649818 0
M  V30 7204 C 658.64 3.99574 -1.7793 0
M  V30 7205 C 657.699 5.09325 -1.32191 0
M  V30 7206 O 656.725 5.31919 -2.02611 0
M  V30 7207 N 657.927 5.80185 -0.191171 0
M  V30 7208 H 660.692 2.18276 -2.05368 0
M  V30 7209 H 658.253 1.07466 -1.2109 0
M  V30 7210 H 660.245 4.03375 -0.327199 0
M  V30 7211 H 658.815 3.11876 0.212597 0
M  V30 7212 H 658.035 3.22213 -2.27095 0
M  V30 7213 H 659.323 4.41056 -2.53668 0
M  V30 7214 H 658.721 5.64312 0.396016 0
M  V30 7215 H 657.278 6.5176 0.0721001 0
M  V30 7216 N 660.711 1.11618 1.11262 0
M  V30 7217 C 661.674 0.779447 2.15539 0
M  V30 7218 C 662.674 -0.202081 1.59525 0
M  V30 7219 O 663.864 0.0226356 1.74185 0
M  V30 7220 C 660.996 0.15674 3.40539 0
M  V30 7221 H 662.189 1.70324 2.4684 0
M  V30 7222 H 659.742 0.918298 1.26479 0
M  V30 7223 H 660.477 -0.777186 3.1485 0
M  V30 7224 H 660.262 0.863308 3.82478 0
M  V30 7225 H 661.752 -0.062661 4.17553 0
M  V30 7226 N 662.189 -1.289 0.906776 0
M  V30 7227 C 663.429 -1.97046 0.543329 0
M  V30 7228 C 663.793 -1.69862 -0.895034 0
M  V30 7229 O 664.994 -2.31521 -1.36571 0
M  V30 7230 C 663.265 -3.47489 0.835833 0
M  V30 7231 S 664.824 -4.3498 0.577756 0
M  V30 7232 H 661.642 -0.681908 0.201302 0
M  V30 7233 H 664.244 -1.5657 1.17073 0
M  V30 7234 H 662.948 -3.64768 1.88075 0
M  V30 7235 H 662.479 -3.92907 0.196817 0
M  V30 7236 H 664.494 -4.92868 -0.574052 0
M  V30 7237 N 663.667 -0.670007 -1.42649 0
M  V30 7238 C 664.63 0.00204659 -2.292 0
M  V30 7239 C 665.63 0.733817 -1.4308 0
M  V30 7240 O 666.82 0.57254 -1.64522 0
M  V30 7241 C 663.952 1.01359 -3.25483 0
M  V30 7242 H 665.145 -0.759696 -2.90118 0
M  V30 7243 H 662.698 -0.432105 -1.50208 0
M  V30 7244 H 663.433 1.80399 -2.69493 0
M  V30 7245 H 663.218 0.492323 -3.88997 0
M  V30 7246 H 664.708 1.4824 -3.90403 0
M  V30 7247 N 665.145 1.52092 -0.413018 0
M  V30 7248 C 666.373 2.06274 0.160881 0
M  V30 7249 C 666.788 1.28273 1.38533 0
M  V30 7250 O 666.145 0.33563 1.79387 0
M  V30 7251 C 666.196 3.57921 0.507443 0
M  V30 7252 O 665.917 4.32971 -0.668388 0
M  V30 7253 C 667.418 4.28533 1.13465 0
M  V30 7254 H 664.638 0.67074 0.0186759 0
M  V30 7255 H 667.182 1.95951 -0.585092 0
M  V30 7256 H 665.337 3.68238 1.20331 0
M  V30 7257 H 665.751 5.23135 -0.378169 0
M  V30 7258 H 667.225 5.35804 1.32732 0
M  V30 7259 H 667.702 3.85258 2.10886 0
M  V30 7260 H 668.308 4.22595 0.478876 0
M  V30 7261 N 666.623 0.143563 1.56945 0
M  V30 7262 C 667.853 -0.514699 2.00086 0
M  V30 7263 C 668.261 -1.59184 1.0226 0
M  V30 7264 O 667.604 -1.83697 0.0110514 0
M  V30 7265 C 667.666 -1.17778 3.39659 0
M  V30 7266 C 667.33 -0.245657 4.56339 0
M  V30 7267 C 668.327 0.525343 5.17239 0
M  V30 7268 C 666.012 -0.149564 5.02077 0
M  V30 7269 C 668.006 1.37992 6.22284 0
M  V30 7270 C 665.693 0.708621 6.06978 0
M  V30 7271 C 666.691 1.47197 6.6695 0
M  V30 7272 O 666.379 2.31586 7.6982 0
M  V30 7273 H 666.111 -0.138789 0.661599 0
M  V30 7274 H 668.665 0.234098 2.04062 0
M  V30 7275 H 666.895 -1.97415 3.32512 0
M  V30 7276 H 668.584 -1.73542 3.6693 0
M  V30 7277 H 669.35 0.461118 4.82803 0
M  V30 7278 H 665.229 -0.733457 4.55128 0
M  V30 7279 H 668.773 1.97621 6.69023 0
M  V30 7280 H 664.67 0.77415 6.40841 0
M  V30 7281 H 665.438 2.24796 7.87025 0
M  V30 7282 N 668.101 -1.57061 -0.130224 0
M  V30 7283 C 669.011 -2.02802 -1.17934 0
M  V30 7284 C 670.027 -0.946378 -1.46013 0
M  V30 7285 O 671.203 -1.25708 -1.57351 0
M  V30 7286 C 668.268 -2.41368 -2.48882 0
M  V30 7287 C 667.329 -3.63561 -2.28301 0
M  V30 7288 C 666.562 -4.00279 -3.53005 0
M  V30 7289 O 666.785 -3.37463 -4.59864 0
M  V30 7290 O 665.719 -4.93441 -3.44673 0
M  V30 7291 H 669.545 -2.92394 -0.820958 0
M  V30 7292 H 667.13 -1.45475 -0.340197 0
M  V30 7293 H 669.012 -2.66958 -3.26054 0
M  V30 7294 H 667.687 -1.54926 -2.84217 0
M  V30 7295 H 666.594 -3.43136 -1.49025 0
M  V30 7296 H 667.927 -4.50673 -1.97875 0
M  V30 7297 N 669.579 0.400081 -1.52437 0
M  V30 7298 C 670.804 1.17221 -1.71096 0
M  V30 7299 C 671.229 1.83269 -0.423565 0
M  V30 7300 O 670.587 1.70378 0.619751 0
M  V30 7301 C 670.635 2.20425 -2.85386 0
M  V30 7302 O 669.739 3.26769 -2.51586 0
M  V30 7303 H 669.08 0.341766 -0.569291 0
M  V30 7304 H 671.61 0.467772 -1.99181 0
M  V30 7305 H 671.62 2.64605 -3.10561 0
M  V30 7306 H 670.295 1.71737 -3.78786 0
M  V30 7307 H 668.872 2.87804 -2.37114 0
M  V30 7308 N 671.057 1.43213 0.657864 0
M  V30 7309 C 672.02 1.47687 1.75275 0
M  V30 7310 C 673.02 0.362179 1.56668 0
M  V30 7311 O 674.21 0.623734 1.62651 0
M  V30 7312 C 671.342 1.32497 3.14098 0
M  V30 7313 H 672.535 2.4519 1.7269 0
M  V30 7314 H 670.088 1.2991 0.869087 0
M  V30 7315 H 670.823 0.359831 3.22298 0
M  V30 7316 H 670.608 2.13299 3.29008 0
M  V30 7317 H 672.098 1.38549 3.93946 0
M  V30 7318 N 672.536 -0.895792 1.29666 0
M  V30 7319 C 673.761 -1.68528 1.20885 0
M  V30 7320 C 674.186 -1.8673 -0.226595 0
M  V30 7321 O 673.544 -1.39044 -1.16347 0
M  V30 7322 C 673.592 -3.04512 1.93144 0
M  V30 7323 O 672.696 -3.92963 1.25115 0
M  V30 7324 H 672.037 -0.515371 0.418675 0
M  V30 7325 H 674.567 -1.11878 1.71302 0
M  V30 7326 H 674.577 -3.54628 2.0175 0
M  V30 7327 H 673.252 -2.90582 2.97548 0
M  V30 7328 H 671.829 -3.51399 1.24794 0
M  V30 7329 N 674.014 -1.12206 -1.10668 0
M  V30 7330 C 674.944 -0.810086 -2.18997 0
M  V30 7331 C 675.925 0.225065 -1.68604 0
M  V30 7332 O 677.11 0.086783 -1.94006 0
M  V30 7333 C 674.24 -0.261262 -3.46316 0
M  V30 7334 C 673.194 -1.2292 -4.09969 0
M  V30 7335 C 672.52 -0.540713 -5.31959 0
M  V30 7336 C 673.82 -2.58295 -4.53962 0
M  V30 7337 H 675.514 -1.7159 -2.45352 0
M  V30 7338 H 673.06 -0.82646 -1.17922 0
M  V30 7339 H 675.013 -0.0307522 -4.21389 0
M  V30 7340 H 673.737 0.679879 -3.19445 0
M  V30 7341 H 672.396 -1.44548 -3.369 0
M  V30 7342 H 672.044 0.405492 -5.01363 0
M  V30 7343 H 671.744 -1.18637 -5.75499 0
M  V30 7344 H 673.268 -0.319184 -6.09765 0
M  V30 7345 H 674.682 -2.40709 -5.20319 0
M  V30 7346 H 673.079 -3.18916 -5.08343 0
M  V30 7347 H 674.149 -3.16918 -3.67002 0
M  V30 7348 N 675.492 1.28418 -0.913599 0
M  V30 7349 C 676.908 1.47411 -0.611728 0
M  V30 7350 C 677.108 1.83018 0.843008 0
M  V30 7351 O 676.164 1.93505 1.6221 0
M  V30 7352 C 677.477 2.57703 -1.5495 0
M  V30 7353 C 679.025 2.71572 -1.5562 0
M  V30 7354 C 679.5 3.85008 -2.48058 0
M  V30 7355 N 680.991 3.92361 -2.46184 0
M  V30 7356 C 681.726 4.79516 -3.14407 0
M  V30 7357 N 681.222 5.71262 -3.91958 0
M  V30 7358 N 683.015 4.73125 -3.03495 0
M  V30 7359 H 675.166 1.03585 -1.85429 0
M  V30 7360 H 677.429 0.515907 -0.795326 0
M  V30 7361 H 677.135 2.38298 -2.58663 0
M  V30 7362 H 677.009 3.54801 -1.28048 0
M  V30 7363 H 679.396 2.90366 -0.526441 0
M  V30 7364 H 679.477 1.75006 -1.86565 0
M  V30 7365 H 679.121 3.66969 -3.51136 0
M  V30 7366 H 679.051 4.80971 -2.14416 0
M  V30 7367 H 681.542 3.26749 -1.89851 0
M  V30 7368 H 681.855 6.34593 -4.41034 0
M  V30 7369 H 680.2 5.71103 -3.96063 0
M  V30 7370 H 683.391 4.00442 -2.42413 0
M  V30 7371 H 683.564 5.40834 -3.56935 0
M  V30 7372 N 676.97 0.677563 1.42291 0
M  V30 7373 C 677.903 -0.0492638 2.28147 0
M  V30 7374 C 678.881 -0.805936 1.41221 0
M  V30 7375 O 680.065 -0.80049 1.70659 0
M  V30 7376 C 677.192 -1.07697 3.21122 0
M  V30 7377 C 676.238 -0.41556 4.24471 0
M  V30 7378 S 677.071 0.828876 5.29046 0
M  V30 7379 C 678.227 -0.197687 6.25588 0
M  V30 7380 H 678.46 0.678965 2.89443 0
M  V30 7381 H 675.993 0.467201 1.47162 0
M  V30 7382 H 677.951 -1.66482 3.75225 0
M  V30 7383 H 676.612 -1.77766 2.58956 0
M  V30 7384 H 675.805 -1.19112 4.89723 0
M  V30 7385 H 675.407 0.0987632 3.7387 0
M  V30 7386 H 677.699 -1.05656 6.69211 0
M  V30 7387 H 678.642 0.420437 7.06851 0
M  V30 7388 H 679.05 -0.544401 5.61869 0
M  V30 7389 N 678.448 -1.51871 0.421078 0
M  V30 7390 C 679.695 -2.01938 -0.15079 0
M  V30 7391 C 680.023 -1.30611 -1.44121 0
M  V30 7392 O 679.278 -0.404631 -1.91471 0
M  V30 7393 C 679.577 -3.54764 -0.433292 0
M  V30 7394 C 679.243 -4.44288 0.76936 0
M  V30 7395 C 677.905 -4.68477 1.09921 0
M  V30 7396 C 680.257 -4.96915 1.57242 0
M  V30 7397 C 677.585 -5.4254 2.2331 0
M  V30 7398 C 679.937 -5.7222 2.69716 0
M  V30 7399 C 678.601 -5.94678 3.03174 0
M  V30 7400 H 677.871 -0.738943 -0.0551781 0
M  V30 7401 H 680.518 -1.82977 0.564945 0
M  V30 7402 H 678.823 -3.71968 -1.23074 0
M  V30 7403 H 680.52 -3.91023 -0.888922 0
M  V30 7404 H 677.11 -4.25646 0.502305 0
M  V30 7405 H 681.294 -4.78125 1.3308 0
M  V30 7406 H 676.55 -5.58146 2.49565 0
M  V30 7407 H 680.724 -6.11992 3.32323 0
M  V30 7408 H 678.351 -6.51848 3.9115 0
M  V30 7409 N 679.926 -0.151884 -1.56866 0
M  V30 7410 C 680.876 0.797799 -2.13586 0
M  V30 7411 C 681.86 1.20613 -1.06496 0
M  V30 7412 O 683.052 1.17173 -1.32663 0
M  V30 7413 C 680.181 2.03493 -2.76488 0
M  V30 7414 C 679.267 1.64948 -3.90708 0
M  V30 7415 N 679.658 0.972513 -4.96363 0
M  V30 7416 C 677.956 1.94186 -4.01507 0
M  V30 7417 C 678.657 0.785661 -5.7637 0
M  V30 7418 N 677.633 1.32105 -5.27304 0
M  V30 7419 H 681.435 0.271403 -2.92644 0
M  V30 7420 H 678.949 0.049487 -1.62325 0
M  V30 7421 H 680.946 2.72532 -3.15487 0
M  V30 7422 H 679.606 2.56646 -1.98904 0
M  V30 7423 H 680.617 0.632724 -5.1402 0
M  V30 7424 H 677.294 2.49154 -3.35005 0
M  V30 7425 H 678.684 0.251749 -6.71428 0
M  V30 7426 N 681.404 1.57128 0.121893 0
M  V30 7427 C 682.334 2.03165 1.15092 0
M  V30 7428 C 683.315 0.915587 1.43356 0
M  V30 7429 O 684.5 1.1851 1.53847 0
M  V30 7430 C 681.63 2.43352 2.47784 0
M  V30 7431 C 680.584 3.58376 2.33989 0
M  V30 7432 C 679.91 3.84454 3.71617 0
M  V30 7433 C 681.21 4.90199 1.80283 0
M  V30 7434 H 682.904 2.89382 0.768023 0
M  V30 7435 H 680.45 1.39218 0.367998 0
M  V30 7436 H 682.403 2.74163 3.20019 0
M  V30 7437 H 681.127 1.54103 2.87958 0
M  V30 7438 H 679.786 3.2777 1.64202 0
M  V30 7439 H 679.434 2.92414 4.09271 0
M  V30 7440 H 679.134 4.61877 3.6324 0
M  V30 7441 H 680.658 4.17714 4.45362 0
M  V30 7442 H 682.072 5.19565 2.42333 0
M  V30 7443 H 680.469 5.71601 1.82735 0
M  V30 7444 H 681.539 4.78904 0.760184 0
M  V30 7445 N 682.882 -0.391992 1.52647 0
M  V30 7446 C 684.13 -1.13507 1.67214 0
M  V30 7447 C 684.451 -1.90575 0.41304 0
M  V30 7448 O 683.721 -1.87348 -0.572498 0
M  V30 7449 H 682.301 -0.422013 0.616372 0
M  V30 7450 H 684.963 -0.44502 1.89751 0
M  V30 7451 H 684.059 -1.83964 2.52118 0
M  V30 7452 N 684.36 -1.4356 -0.65026 0
M  V30 7453 C 685.776 -1.27025 -0.966269 0
M  V30 7454 C 685.976 -0.192117 -2.00582 0
M  V30 7455 O 685.032 0.428459 -2.48838 0
M  V30 7456 C 686.345 -2.63556 -1.44772 0
M  V30 7457 C 687.893 -2.71111 -1.56421 0
M  V30 7458 C 688.368 -4.08067 -2.07956 0
M  V30 7459 N 689.859 -4.10146 -2.15254 0
M  V30 7460 C 690.594 -5.12952 -2.56258 0
M  V30 7461 N 690.09 -6.26129 -2.96537 0
M  V30 7462 N 691.883 -5.00306 -2.56224 0
M  V30 7463 H 684.034 -2.12367 0.0375758 0
M  V30 7464 H 686.297 -0.946894 -0.0457782 0
M  V30 7465 H 686.003 -3.43429 -0.758271 0
M  V30 7466 H 685.877 -2.89152 -2.42221 0
M  V30 7467 H 688.264 -1.91569 -2.24467 0
M  V30 7468 H 688.345 -2.49277 -0.573967 0
M  V30 7469 H 687.989 -4.88077 -1.40511 0
M  V30 7470 H 687.919 -4.27266 -3.07817 0
M  V30 7471 H 690.41 -3.28453 -1.86887 0
M  V30 7472 H 690.723 -7.00403 -3.26582 0
M  V30 7473 H 689.068 -6.29597 -2.94334 0
M  V30 7474 H 692.259 -4.10952 -2.24135 0
M  V30 7475 H 692.432 -5.80553 -2.87857 0
M  V30 7476 N 685.838 0.888903 -1.30139 0
M  V30 7477 C 687.066 1.67358 -1.21651 0
M  V30 7478 C 687.481 1.87499 0.221246 0
M  V30 7479 O 686.838 1.41969 1.14677 0
M  V30 7480 C 686.889 3.05213 -1.93719 0
M  V30 7481 O 686.61 2.85984 -3.31881 0
M  V30 7482 C 688.111 3.9964 -1.9184 0
M  V30 7483 H 685.331 0.522365 -0.42116 0
M  V30 7484 H 687.875 1.11086 -1.71698 0
M  V30 7485 H 686.03 3.5823 -1.4748 0
M  V30 7486 H 686.444 3.73411 -3.68327 0
M  V30 7487 H 687.918 4.93749 -2.46811 0
M  V30 7488 H 688.395 4.29955 -0.896409 0
M  V30 7489 H 689.001 3.52558 -2.37872 0
M  V30 7490 N 687.317 1.12792 1.10072 0
M  V30 7491 C 688.594 0.796867 1.78632 0
M  V30 7492 C 688.974 -0.712739 1.98704 0
M  V30 7493 O 688.322 -1.64773 1.5831 0
M  V30 7494 C 688.532 1.57622 3.11378 0
M  V30 7495 C 689.88 1.76463 3.86194 0
M  V30 7496 O 690.904 1.54165 3.2111 0
M  V30 7497 O 689.763 2.13623 5.03018 0
M  V30 7498 H 686.857 0.290248 0.774394 0
M  V30 7499 H 689.403 1.23215 1.16688 0
M  V30 7500 H 688.175 2.60246 2.92212 0
M  V30 7501 H 687.798 1.13543 3.81043 0
M  V30 7502 N 688.795 -1.27931 0.920396 0
M  V30 7503 C 690.023 -1.98805 0.573087 0
M  V30 7504 C 690.438 -1.68724 -0.847201 0
M  V30 7505 O 689.795 -0.943699 -1.56207 0
M  V30 7506 C 689.846 -3.52971 0.780633 0
M  V30 7507 O 689.567 -3.81994 2.14504 0
M  V30 7508 C 691.068 -4.411 0.44105 0
M  V30 7509 H 688.288 -0.634651 0.21785 0
M  V30 7510 H 690.832 -1.62965 1.23542 0
M  V30 7511 H 688.987 -3.87048 0.165204 0
M  V30 7512 H 689.401 -4.76609 2.18962 0
M  V30 7513 H 690.875 -5.48312 0.637006 0
M  V30 7514 H 691.352 -4.34758 -0.62306 0
M  V30 7515 H 691.958 -4.12532 1.0343 0
M  V30 7516 N 690.273 -0.685099 -1.4193 0
M  V30 7517 C 691.522 -0.208816 -2.00616 0
M  V30 7518 C 691.835 1.19506 -1.54847 0
M  V30 7519 O 693.041 1.76826 -2.06021 0
M  V30 7520 C 691.497 -0.322446 -3.58453 0
M  V30 7521 C 691.105 -1.73102 -4.13206 0
M  V30 7522 C 692.849 0.0945979 -4.24395 0
M  V30 7523 C 690.756 -1.79687 -5.63442 0
M  V30 7524 H 689.686 -0.0743092 -0.750329 0
M  V30 7525 H 692.337 -0.851778 -1.62533 0
M  V30 7526 H 690.719 0.388588 -3.94089 0
M  V30 7527 H 691.893 -2.46997 -3.8901 0
M  V30 7528 H 690.208 -2.09682 -3.59753 0
M  V30 7529 H 692.805 0.0656937 -5.3466 0
M  V30 7530 H 693.148 1.1316 -4.00625 0
M  V30 7531 H 693.681 -0.56579 -3.93756 0
M  V30 7532 H 690.42 -2.81404 -5.92024 0
M  V30 7533 H 689.94 -1.10162 -5.89597 0
M  V30 7534 H 691.619 -1.55498 -6.28036 0
M  V30 7535 N 691.751 1.51645 -0.429126 0
M  V30 7536 C 693.167 1.59394 -0.080994 0
M  V30 7537 C 693.367 1.44064 1.40882 0
M  V30 7538 O 692.423 1.27771 2.17786 0
M  V30 7539 C 693.736 2.94779 -0.593773 0
M  V30 7540 C 695.284 3.08067 -0.553494 0
M  V30 7541 C 695.759 4.45963 -1.04311 0
M  V30 7542 N 697.25 4.5226 -1.00076 0
M  V30 7543 C 697.985 5.57268 -1.35056 0
M  V30 7544 N 697.481 6.69734 -1.77282 0
M  V30 7545 N 699.274 5.47582 -1.26925 0
M  V30 7546 H 691.425 1.59856 -1.39857 0
M  V30 7547 H 693.688 0.753095 -0.575805 0
M  V30 7548 H 693.394 3.11342 -1.63583 0
M  V30 7549 H 693.268 3.77197 -0.0142202 0
M  V30 7550 H 695.655 2.91177 0.479556 0
M  V30 7551 H 695.736 2.27508 -1.16935 0
M  V30 7552 H 695.38 4.63598 -2.07459 0
M  V30 7553 H 695.31 5.25049 -0.403873 0
M  V30 7554 H 697.801 3.71537 -0.690564 0
M  V30 7555 H 698.114 7.4587 -2.02232 0
M  V30 7556 H 696.459 6.70963 -1.81202 0
M  V30 7557 H 699.65 4.58604 -0.93809 0
M  V30 7558 H 699.823 6.29308 -1.54516 0
M  V30 7559 N 693.229 0.160201 1.56784 0
M  V30 7560 C 694.454 -0.497373 2.01348 0
M  V30 7561 C 694.879 -1.56757 1.03966 0
M  V30 7562 O 694.237 -1.81292 0.0174455 0
M  V30 7563 C 694.285 -1.0628 3.44582 0
M  V30 7564 O 693.389 -2.17723 3.50244 0
M  V30 7565 H 692.73 -0.120295 0.653012 0
M  V30 7566 H 695.26 0.260821 2.02931 0
M  V30 7567 H 695.27 -1.38819 3.83658 0
M  V30 7568 H 693.945 -0.279166 4.14962 0
M  V30 7569 H 692.522 -1.86313 3.2302 0
M  V30 7570 N 694.707 -1.5719 -0.113559 0
M  V30 7571 C 695.67 -1.99796 -1.12314 0
M  V30 7572 C 696.67 -0.888847 -1.34001 0
M  V30 7573 O 697.86 -1.15476 -1.30426 0
M  V30 7574 C 694.992 -2.34279 -2.47641 0
M  V30 7575 H 696.185 -2.90193 -0.756825 0
M  V30 7576 H 693.738 -1.52144 -0.358029 0
M  V30 7577 H 694.473 -1.46778 -2.89183 0
M  V30 7578 H 694.258 -3.15175 -2.33253 0
M  V30 7579 H 695.748 -2.67963 -3.2029 0
M  V30 7580 N 696.185 0.383891 -1.52853 0
M  V30 7581 C 697.41 1.154 -1.7233 0
M  V30 7582 C 697.835 1.82809 -0.44298 0
M  V30 7583 O 697.193 1.71026 0.601645 0
M  V30 7584 C 697.241 2.17386 -2.87708 0
M  V30 7585 O 696.345 3.24082 -2.55038 0
M  V30 7586 H 695.686 0.335709 -0.572883 0
M  V30 7587 H 698.216 0.44662 -1.99666 0
M  V30 7588 H 698.226 2.61296 -3.1335 0
M  V30 7589 H 696.901 1.6771 -3.80587 0
M  V30 7590 H 695.478 2.85273 -2.40153 0
M  V30 7591 N 697.663 1.43903 0.642637 0
M  V30 7592 C 698.596 1.44339 1.76753 0
M  V30 7593 C 699.574 0.303558 1.59741 0
M  V30 7594 O 700.758 0.498775 1.81781 0
M  V30 7595 C 697.885 1.26508 3.14187 0
M  V30 7596 C 696.931 2.43905 3.49875 0
M  V30 7597 S 697.764 4.0645 3.48653 0
M  V30 7598 C 698.92 3.91021 4.88726 0
M  V30 7599 H 699.153 2.39523 1.76113 0
M  V30 7600 H 696.686 1.31061 0.81623 0
M  V30 7601 H 698.644 1.16908 3.93501 0
M  V30 7602 H 697.305 0.328548 3.12377 0
M  V30 7603 H 696.498 2.27262 4.49853 0
M  V30 7604 H 696.1 2.50186 2.77998 0
M  V30 7605 H 698.392 3.54 5.77659 0
M  V30 7606 H 699.335 4.9079 5.10423 0
M  V30 7607 H 699.743 3.23287 4.62759 0
M  V30 7608 N 699.141 -0.881989 1.30609 0
M  V30 7609 C 700.418 -1.61563 1.10258 0
M  V30 7610 C 700.798 -2.08228 -0.347053 0
M  V30 7611 O 700.146 -1.85151 -1.33908 0
M  V30 7612 C 700.356 -2.78287 2.10612 0
M  V30 7613 C 701.704 -3.48545 2.4249 0
M  V30 7614 O 702.728 -2.88479 2.08945 0
M  V30 7615 O 701.587 -4.56873 2.99883 0
M  V30 7616 H 698.681 -0.710238 0.423663 0
M  V30 7617 H 701.227 -0.928503 1.42045 0
M  V30 7618 H 699.999 -2.41131 3.08174 0
M  V30 7619 H 699.622 -3.54695 1.79659 0
M  V30 7620 N 700.619 -1.13374 -1.09472 0
M  V30 7621 C 701.844 -0.918711 -1.85942 0
M  V30 7622 C 702.269 0.527225 -1.8056 0
M  V30 7623 O 701.627 1.37408 -1.18274 0
M  V30 7624 C 701.675 -1.41056 -3.31867 0
M  V30 7625 O 700.779 -0.595496 -4.08078 0
M  V30 7626 H 700.12 -0.329297 -0.576593 0
M  V30 7627 H 702.65 -1.50829 -1.38245 0
M  V30 7628 H 702.66 -1.41398 -3.82715 0
M  V30 7629 H 701.335 -2.46335 -3.35099 0
M  V30 7630 H 699.912 -0.659911 -3.67014 0
M  V30 7631 N 702.098 1.27442 -0.927168 0
M  V30 7632 C 703.028 2.29256 -0.443188 0
M  V30 7633 C 704.009 1.62701 0.49624 0
M  V30 7634 O 705.194 1.90013 0.401105 0
M  V30 7635 C 702.324 3.45955 0.305366 0
M  V30 7636 C 701.278 4.24501 -0.546178 0
M  V30 7637 C 700.604 5.33671 0.331512 0
M  V30 7638 C 701.904 4.89921 -1.81037 0
M  V30 7639 H 703.598 2.69988 -1.29409 0
M  V30 7640 H 701.144 1.29792 -0.623705 0
M  V30 7641 H 703.097 4.1628 0.654885 0
M  V30 7642 H 701.821 3.04138 1.19029 0
M  V30 7643 H 700.48 3.55921 -0.878398 0
M  V30 7644 H 700.128 4.88096 1.21537 0
M  V30 7645 H 699.828 5.87131 -0.234746 0
M  V30 7646 H 701.352 6.0684 0.676614 0
M  V30 7647 H 702.766 5.52536 -1.52895 0
M  V30 7648 H 701.163 5.53436 -2.32009 0
M  V30 7649 H 702.233 4.13652 -2.53021 0
M  V30 7650 N 703.576 0.692616 1.41565 0
M  V30 7651 C 704.804 0.231279 2.05603 0
M  V30 7652 C 705.219 -1.11837 1.52111 0
M  V30 7653 O 704.576 -1.6983 0.66813 0
M  V30 7654 C 704.627 0.177125 3.61066 0
M  V30 7655 O 704.348 1.47346 4.12578 0
M  V30 7656 C 705.849 -0.30556 4.42246 0
M  V30 7657 H 703.069 0.108238 0.662213 0
M  V30 7658 H 705.613 0.944369 1.81389 0
M  V30 7659 H 703.768 -0.486769 3.8433 0
M  V30 7660 H 704.182 1.35861 5.06599 0
M  V30 7661 H 705.656 -0.29233 5.51225 0
M  V30 7662 H 706.133 -1.34393 4.18133 0
M  V30 7663 H 706.739 0.327229 4.24039 0
M  V30 7664 N 705.054 -1.51416 0.437162 0
M  V30 7665 C 706.301 -2.02086 -0.129364 0
M  V30 7666 C 706.629 -1.32133 -1.42728 0
M  V30 7667 O 705.884 -0.424916 -1.91031 0
M  V30 7668 C 706.183 -3.55203 -0.39564 0
M  V30 7669 C 705.849 -4.43447 0.81644 0
M  V30 7670 C 704.511 -4.67285 1.14884 0
M  V30 7671 C 706.863 -4.95219 1.62503 0
M  V30 7672 C 704.191 -5.40141 2.29052 0
M  V30 7673 C 706.543 -5.69327 2.7577 0
M  V30 7674 C 705.207 -5.91429 3.09464 0
M  V30 7675 H 704.477 -0.739486 -0.0473375 0
M  V30 7676 H 707.124 -1.82368 0.584321 0
M  V30 7677 H 705.429 -3.73252 -1.19121 0
M  V30 7678 H 707.126 -3.91944 -0.847399 0
M  V30 7679 H 703.716 -4.2509 0.547422 0
M  V30 7680 H 707.9 -4.76686 1.38144 0
M  V30 7681 H 703.156 -5.55468 2.55471 0
M  V30 7682 H 707.33 -6.08433 3.38795 0
M  V30 7683 H 704.957 -6.47662 3.98042 0
M  V30 7684 N 706.532 -0.168513 -1.56696 0
M  V30 7685 C 707.778 0.477865 -1.9709 0
M  V30 7686 C 708.111 1.63084 -1.05438 0
M  V30 7687 O 707.386 1.94238 -0.10095 0
M  V30 7688 C 707.669 0.963521 -3.4697 0
M  V30 7689 C 707.522 -0.189443 -4.49401 0
M  V30 7690 C 708.841 1.83813 -3.99876 0
M  V30 7691 H 705.96 0.172229 -0.716593 0
M  V30 7692 H 708.602 -0.254083 -1.88293 0
M  V30 7693 H 706.752 1.58724 -3.54597 0
M  V30 7694 H 708.424 -0.826451 -4.53836 0
M  V30 7695 H 706.667 -0.845366 -4.25483 0
M  V30 7696 H 707.338 0.192446 -5.51664 0
M  V30 7697 H 709.814 1.31235 -3.94863 0
M  V30 7698 H 708.69 2.14697 -5.0517 0
M  V30 7699 H 708.951 2.78289 -3.43523 0
M  V30 7700 N 708.01 1.57248 0.105221 0
M  V30 7701 C 708.957 2.01338 1.12835 0
M  V30 7702 C 709.927 0.887897 1.40377 0
M  V30 7703 O 711.112 1.15315 1.5201 0
M  V30 7704 C 708.252 2.43432 2.44611 0
M  V30 7705 C 707.365 3.69457 2.23888 0
M  V30 7706 C 706.5 4.00473 3.48991 0
M  V30 7707 C 705.539 5.19638 3.23485 0
M  V30 7708 N 704.676 5.46457 4.40828 0
M  V30 7709 H 709.516 2.88527 0.745386 0
M  V30 7710 H 707.053 1.42714 0.356535 0
M  V30 7711 H 709.011 2.65879 3.21503 0
M  V30 7712 H 707.641 1.59266 2.80774 0
M  V30 7713 H 706.693 3.54545 1.37847 0
M  V30 7714 H 708.005 4.56497 2.01026 0
M  V30 7715 H 707.159 4.23642 4.34295 0
M  V30 7716 H 705.898 3.11935 3.74897 0
M  V30 7717 H 704.903 4.96299 2.36574 0
M  V30 7718 H 706.128 6.09766 2.98935 0
M  V30 7719 H 704.074 4.60876 4.66829 0
M  V30 7720 H 703.991 6.27849 4.2112 0
M  V30 7721 H 705.259 5.74155 5.27225 0
M  V30 7722 N 709.488 -0.375779 1.53054 0
M  V30 7723 C 710.451 -1.44254 1.7811 0
M  V30 7724 C 711.451 -1.47018 0.651328 0
M  V30 7725 O 712.641 -1.47957 0.919472 0
M  V30 7726 C 709.773 -2.8345 1.89391 0
M  V30 7727 H 710.966 -1.23316 2.73374 0
M  V30 7728 H 708.519 -0.608312 1.43977 0
M  V30 7729 H 709.254 -3.09716 0.961589 0
M  V30 7730 H 709.039 -2.82844 2.71555 0
M  V30 7731 H 710.529 -3.60722 2.10404 0
M  V30 7732 N 710.966 -1.44241 -0.634997 0
M  V30 7733 C 711.899 -1.45274 -1.75985 0
M  V30 7734 C 712.877 -0.312025 -1.59578 0
M  V30 7735 O 714.061 -0.508409 -1.81514 0
M  V30 7736 C 711.188 -1.28173 -3.13511 0
M  V30 7737 C 710.234 -2.45757 -3.48576 0
M  V30 7738 S 711.067 -4.08293 -3.46492 0
M  V30 7739 C 712.223 -3.93608 -4.86645 0
M  V30 7740 H 712.456 -2.40454 -1.74841 0
M  V30 7741 H 709.989 -1.31492 -0.809268 0
M  V30 7742 H 711.947 -1.18993 -3.92875 0
M  V30 7743 H 710.608 -0.34511 -3.12198 0
M  V30 7744 H 709.801 -2.29644 -4.48642 0
M  V30 7745 H 709.403 -2.51657 -2.76667 0
M  V30 7746 H 711.695 -3.57059 -5.75774 0
M  V30 7747 H 712.638 -4.9349 -5.07813 0
M  V30 7748 H 713.046 -3.25737 -4.61038 0
M  V30 7749 N 712.444 0.87505 -1.31075 0
M  V30 7750 C 713.721 1.60976 -1.11113 0
M  V30 7751 C 714.101 2.08409 0.336006 0
M  V30 7752 O 713.449 1.85858 1.32924 0
M  V30 7753 C 713.659 2.77166 -2.12085 0
M  V30 7754 C 715.007 3.47254 -2.44335 0
M  V30 7755 O 716.031 2.87367 -2.10472 0
M  V30 7756 O 714.89 4.55276 -3.02301 0
M  V30 7757 H 711.984 0.707982 -0.427424 0
M  V30 7758 H 714.53 0.920957 -1.42536 0
M  V30 7759 H 713.302 2.39494 -3.09449 0
M  V30 7760 H 712.925 3.53737 -1.81538 0
M  V30 7761 N 713.922 1.13953 1.08869 0
M  V30 7762 C 715.199 0.815768 1.77777 0
M  V30 7763 C 715.579 -0.691624 1.99449 0
M  V30 7764 O 714.927 -1.63085 1.60049 0
M  V30 7765 C 715.137 1.60916 3.09689 0
M  V30 7766 C 716.485 1.80549 3.84301 0
M  V30 7767 O 717.509 1.57562 3.19457 0
M  V30 7768 O 716.368 2.18946 5.00724 0
M  V30 7769 H 713.462 0.298445 0.771271 0
M  V30 7770 H 716.008 1.24446 1.15374 0
M  V30 7771 H 714.78 2.6333 2.89435 0
M  V30 7772 H 714.403 1.17578 3.79817 0
M  V30 7773 N 715.4 -1.26948 0.933913 0
M  V30 7774 C 716.625 -1.98724 0.593589 0
M  V30 7775 C 717.05 -1.6915 -0.822801 0
M  V30 7776 O 716.408 -0.93533 -1.5531 0
M  V30 7777 C 716.456 -3.50834 0.833542 0
M  V30 7778 O 715.56 -4.12284 -0.0978788 0
M  V30 7779 H 714.901 -0.623683 0.227849 0
M  V30 7780 H 717.431 -1.61599 1.25486 0
M  V30 7781 H 717.441 -4.01018 0.75156 0
M  V30 7782 H 716.116 -3.71691 1.86597 0
M  V30 7783 H 714.693 -3.72884 0.0345443 0
M  V30 7784 N 716.879 -0.700114 -1.41195 0
M  V30 7785 C 718.104 -0.240704 -2.05998 0
M  V30 7786 C 718.529 1.10313 -1.52357 0
M  V30 7787 O 717.887 1.69154 -0.652424 0
M  V30 7788 C 717.935 -0.213783 -3.59966 0
M  V30 7789 O 717.039 0.809933 -4.04368 0
M  V30 7790 H 716.38 -0.116471 -0.653705 0
M  V30 7791 H 718.91 -0.956251 -1.80878 0
M  V30 7792 H 718.92 -0.0461852 -4.07974 0
M  V30 7793 H 717.595 -1.19454 -3.98376 0
M  V30 7794 H 716.172 0.611319 -3.67855 0
M  V30 7795 N 718.357 1.51182 -0.445186 0
M  V30 7796 C 719.603 2.02452 0.11882 0
M  V30 7797 C 719.936 1.32824 1.41673 0
M  V30 7798 O 719.211 0.445637 1.89326 0
M  V30 7799 C 719.494 3.5859 0.329475 0
M  V30 7800 C 719.347 4.38823 -0.987638 0
M  V30 7801 C 720.666 4.26241 1.09575 0
M  V30 7802 H 717.785 0.735819 0.0417092 0
M  V30 7803 H 720.427 1.80747 -0.585718 0
M  V30 7804 H 718.577 3.77214 0.9296 0
M  V30 7805 H 720.249 4.3183 -1.62235 0
M  V30 7806 H 718.492 4.03594 -1.59041 0
M  V30 7807 H 719.163 5.46257 -0.794192 0
M  V30 7808 H 721.639 4.11934 0.587328 0
M  V30 7809 H 720.515 5.35354 1.21191 0
M  V30 7810 H 720.776 3.87635 2.12584 0
M  V30 7811 N 719.835 0.176821 1.56605 0
M  V30 7812 C 721.063 -0.472828 2.01425 0
M  V30 7813 C 721.478 -1.56436 1.05703 0
M  V30 7814 O 720.835 -1.82405 0.058808 0
M  V30 7815 C 720.886 -1.04607 3.46034 0
M  V30 7816 O 720.607 0.00189608 4.381 0
M  V30 7817 C 722.108 -1.7734 4.06282 0
M  V30 7818 H 719.328 -0.120503 0.660091 0
M  V30 7819 H 721.872 0.280166 2.02572 0
M  V30 7820 H 720.027 -1.74953 3.45645 0
M  V30 7821 H 720.441 -0.422118 5.22799 0
M  V30 7822 H 721.915 -2.12703 5.09374 0
M  V30 7823 H 722.392 -2.67043 3.4869 0
M  V30 7824 H 722.998 -1.11623 4.10391 0
M  V30 7825 N 721.313 -1.57302 -0.09688 0
M  V30 7826 C 722.223 -2.05258 -1.13606 0
M  V30 7827 C 723.239 -0.977137 -1.43972 0
M  V30 7828 O 724.415 -1.29018 -1.54649 0
M  V30 7829 C 721.48 -2.46593 -2.43706 0
M  V30 7830 C 720.541 -3.68322 -2.20538 0
M  V30 7831 C 719.774 -4.07676 -3.44435 0
M  V30 7832 O 719.997 -3.47141 -4.52603 0
M  V30 7833 O 718.931 -5.00641 -3.34129 0
M  V30 7834 H 722.757 -2.94069 -0.758752 0
M  V30 7835 H 720.342 -1.46164 -0.309263 0
M  V30 7836 H 722.224 -2.73814 -3.20318 0
M  V30 7837 H 720.899 -1.6092 -2.80867 0
M  V30 7838 H 719.806 -3.4622 -1.41713 0
M  V30 7839 H 721.139 -4.54769 -1.88271 0
M  V30 7840 N 722.791 0.367657 -1.53252 0
M  V30 7841 C 723.741 1.45035 -1.75923 0
M  V30 7842 C 724.725 1.48736 -0.613719 0
M  V30 7843 O 725.917 1.54012 -0.872313 0
M  V30 7844 C 723.046 2.82493 -1.9507 0
M  V30 7845 C 722.132 2.83279 -3.15617 0
M  V30 7846 N 722.523 2.53712 -4.37566 0
M  V30 7847 C 720.821 3.1444 -3.16297 0
M  V30 7848 C 721.522 2.62123 -5.19294 0
M  V30 7849 N 720.498 2.96747 -4.55458 0
M  V30 7850 H 724.3 1.21035 -2.6782 0
M  V30 7851 H 721.814 0.575822 -1.51849 0
M  V30 7852 H 723.811 3.60473 -2.0944 0
M  V30 7853 H 722.471 3.07459 -1.044 0
M  V30 7854 H 723.482 2.27344 -4.65333 0
M  V30 7855 H 720.159 3.44733 -2.35511 0
M  V30 7856 H 721.549 2.42628 -6.26563 0
M  V30 7857 N 724.269 1.44576 0.627338 0
M  V30 7858 C 725.201 1.47724 1.75243 0
M  V30 7859 C 726.214 0.370193 1.58535 0
M  V30 7860 O 727.403 0.636151 1.66779 0
M  V30 7861 C 724.503 1.2991 3.13012 0
M  V30 7862 C 723.676 2.5393 3.56143 0
M  V30 7863 C 722.735 2.30961 4.72804 0
M  V30 7864 O 721.761 3.04469 4.80923 0
M  V30 7865 N 722.963 1.34261 5.6476 0
M  V30 7866 H 725.728 2.44718 1.73012 0
M  V30 7867 H 723.289 1.40064 0.812022 0
M  V30 7868 H 725.281 1.12385 3.88782 0
M  V30 7869 H 723.851 0.412668 3.09864 0
M  V30 7870 H 723.071 2.86707 2.70542 0
M  V30 7871 H 724.359 3.36411 3.81713 0
M  V30 7872 H 723.757 0.735573 5.60897 0
M  V30 7873 H 722.314 1.22713 6.40144 0
M  V30 7874 N 725.747 -0.868086 1.31537 0
M  V30 7875 C 726.694 -1.97548 1.19346 0
M  V30 7876 C 727.664 -1.65913 0.0787922 0
M  V30 7877 O 728.849 -1.89129 0.251985 0
M  V30 7878 C 725.989 -3.32922 0.908692 0
M  V30 7879 C 725.102 -3.77141 2.10687 0
M  V30 7880 C 724.237 -5.01241 1.75873 0
M  V30 7881 C 723.276 -5.37914 2.92088 0
M  V30 7882 N 722.413 -6.53192 2.57457 0
M  V30 7883 H 727.253 -2.07307 2.14074 0
M  V30 7884 H 724.79 -1.01483 1.06487 0
M  V30 7885 H 726.748 -4.10867 0.724138 0
M  V30 7886 H 725.378 -3.228 -0.0017611 0
M  V30 7887 H 724.43 -2.94961 2.40213 0
M  V30 7888 H 725.742 -4.00248 2.97663 0
M  V30 7889 H 724.896 -5.86858 1.53891 0
M  V30 7890 H 723.635 -4.80041 0.86091 0
M  V30 7891 H 722.64 -4.50814 3.14717 0
M  V30 7892 H 723.865 -5.61077 3.82582 0
M  V30 7893 H 721.811 -6.33536 1.702 0
M  V30 7894 H 721.728 -6.76252 3.37963 0
M  V30 7895 H 722.996 -7.41997 2.38873 0
M  V30 7896 N 727.225 -1.14528 -1.08264 0
M  V30 7897 C 728.471 -0.91576 -1.80947 0
M  V30 7898 C 728.804 0.55623 -1.86064 0
M  V30 7899 O 728.079 1.41207 -1.33756 0
M  V30 7900 C 728.362 -1.51917 -3.26486 0
M  V30 7901 C 728.215 -3.06111 -3.2957 0
M  V30 7902 C 729.534 -1.19724 -4.23502 0
M  V30 7903 H 726.653 -0.334113 -0.656915 0
M  V30 7904 H 729.295 -1.41547 -1.26746 0
M  V30 7905 H 727.445 -1.0942 -3.72773 0
M  V30 7906 H 729.117 -3.57448 -2.91597 0
M  V30 7907 H 727.36 -3.40483 -2.688 0
M  V30 7908 H 728.031 -3.43438 -4.32151 0
M  V30 7909 H 730.507 -1.56467 -3.85561 0
M  V30 7910 H 729.383 -1.64575 -5.23647 0
M  V30 7911 H 729.644 -0.112771 -4.41956 0
M  V30 7912 N 728.703 1.26451 -0.940633 0
M  V30 7913 C 729.613 2.30128 -0.455881 0
M  V30 7914 C 730.629 1.67536 0.469867 0
M  V30 7915 O 731.805 1.98344 0.349529 0
M  V30 7916 C 728.87 3.45634 0.271648 0
M  V30 7917 C 727.931 4.23709 -0.690594 0
M  V30 7918 C 727.164 5.337 0.00231047 0
M  V30 7919 O 727.387 5.57215 1.21935 0
M  V30 7920 O 726.321 5.98091 -0.676111 0
M  V30 7921 H 730.147 2.73655 -1.31707 0
M  V30 7922 H 727.732 1.3164 -0.706497 0
M  V30 7923 H 729.614 4.15853 0.681486 0
M  V30 7924 H 728.289 3.04138 1.10824 0
M  V30 7925 H 727.196 3.55974 -1.15037 0
M  V30 7926 H 728.529 4.68953 -1.49478 0
M  V30 7927 N 730.181 0.707592 1.40822 0
M  V30 7928 C 731.111 0.0644925 2.33411 0
M  V30 7929 C 732.092 -0.754205 1.52466 0
M  V30 7930 O 733.277 -0.704749 1.80961 0
M  V30 7931 C 730.407 -0.863865 3.36385 0
M  V30 7932 C 729.361 -0.15138 4.27732 0
M  V30 7933 C 728.687 -1.19491 5.21177 0
M  V30 7934 C 729.987 0.989607 5.12839 0
M  V30 7935 H 731.681 0.837829 2.87438 0
M  V30 7936 H 729.227 0.404346 1.38207 0
M  V30 7937 H 731.18 -1.32309 4.0009 0
M  V30 7938 H 729.904 -1.66901 2.80734 0
M  V30 7939 H 728.563 0.287937 3.65467 0
M  V30 7940 H 728.211 -1.9929 4.61836 0
M  V30 7941 H 727.911 -0.723123 5.83134 0
M  V30 7942 H 729.435 -1.6544 5.8776 0
M  V30 7943 H 730.849 0.610114 5.70044 0
M  V30 7944 H 729.246 1.38926 5.83798 0
M  V30 7945 H 730.316 1.82389 4.49291 0
M  V30 7946 N 731.66 -1.50943 0.453197 0
M  V30 7947 C 732.59 -2.31005 -0.34044 0
M  V30 7948 C 733.571 -1.37112 -1.00669 0
M  V30 7949 O 734.756 -1.66033 -1.0073 0
M  V30 7950 C 731.886 -3.16358 -1.433 0
M  V30 7951 C 730.84 -4.18658 -0.889363 0
M  V30 7952 C 730.166 -4.92633 -2.07887 0
M  V30 7953 C 731.466 -5.22227 0.0871142 0
M  V30 7954 H 733.16 -2.97601 0.327723 0
M  V30 7955 H 730.706 -1.43119 0.159054 0
M  V30 7956 H 732.659 -3.71155 -1.99555 0
M  V30 7957 H 731.383 -2.47613 -2.12968 0
M  V30 7958 H 730.042 -3.64936 -0.348915 0
M  V30 7959 H 729.69 -4.20376 -2.76211 0
M  V30 7960 H 729.39 -5.61819 -1.72143 0
M  V30 7961 H 730.914 -5.50258 -2.64666 0
M  V30 7962 H 732.328 -5.72001 -0.385656 0
M  V30 7963 H 730.725 -5.99032 0.357926 0
M  V30 7964 H 731.795 -4.74077 1.01879 0
M  V30 7965 N 733.138 -0.185124 -1.56509 0
M  V30 7966 C 734.554 0.170865 -1.58683 0
M  V30 7967 C 734.754 1.61799 -1.20098 0
M  V30 7968 O 733.81 2.35181 -0.919038 0
M  V30 7969 C 735.123 -0.122459 -3.00451 0
M  V30 7970 C 736.671 -0.0617699 -3.12939 0
M  V30 7971 C 737.146 -0.328269 -4.56822 0
M  V30 7972 N 738.637 -0.276533 -4.62374 0
M  V30 7973 C 739.372 -0.456722 -5.71578 0
M  V30 7974 N 738.868 -0.69672 -6.89288 0
M  V30 7975 N 740.661 -0.391669 -5.60734 0
M  V30 7976 H 732.812 -1.12956 -1.79874 0
M  V30 7977 H 735.075 -0.45011 -0.834329 0
M  V30 7978 H 734.781 -1.12546 -3.33206 0
M  V30 7979 H 734.655 0.579578 -3.72721 0
M  V30 7980 H 737.042 0.931826 -2.80002 0
M  V30 7981 H 737.123 -0.796732 -2.43076 0
M  V30 7982 H 736.767 -1.31914 -4.9047 0
M  V30 7983 H 736.697 0.427465 -5.24862 0
M  V30 7984 H 739.188 -0.0972458 -3.77775 0
M  V30 7985 H 739.501 -0.823291 -7.68402 0
M  V30 7986 H 737.846 -0.733497 -6.91119 0
M  V30 7987 H 741.037 -0.204663 -4.67652 0
M  V30 7988 H 741.21 -0.535518 -6.45783 0
M  V30 7989 N 734.616 1.57351 0.0885366 0
M  V30 7990 C 735.563 2.02523 1.10693 0
M  V30 7991 C 736.533 0.902736 1.39427 0
M  V30 7992 O 737.718 1.16921 1.50779 0
M  V30 7993 C 734.858 2.46013 2.42016 0
M  V30 7994 C 733.971 3.7181 2.19957 0
M  V30 7995 C 733.106 4.04152 3.44724 0
M  V30 7996 C 732.145 5.2304 3.17956 0
M  V30 7997 N 731.282 5.51102 4.35007 0
M  V30 7998 H 736.122 2.89302 0.714742 0
M  V30 7999 H 733.659 1.43084 0.341378 0
M  V30 8000 H 735.617 2.69274 3.18665 0
M  V30 8001 H 734.247 1.62235 2.79069 0
M  V30 8002 H 733.299 3.55987 1.34079 0
M  V30 8003 H 734.611 4.58604 1.96173 0
M  V30 8004 H 733.765 4.28225 4.29777 0
M  V30 8005 H 732.504 3.15893 3.71568 0
M  V30 8006 H 731.509 4.98781 2.31296 0
M  V30 8007 H 732.734 6.12902 2.92451 0
M  V30 8008 H 730.68 4.65802 4.61914 0
M  V30 8009 H 730.597 6.3228 4.14437 0
M  V30 8010 H 731.865 5.79714 5.21106 0
M  V30 8011 N 736.094 -0.359525 1.53444 0
M  V30 8012 C 737.057 -1.42357 1.7963 0
M  V30 8013 C 738.057 -1.46319 0.666884 0
M  V30 8014 O 739.247 -1.46974 0.935113 0
M  V30 8015 C 736.379 -2.81425 1.92387 0
M  V30 8016 H 737.572 -1.20409 2.74666 0
M  V30 8017 H 735.125 -0.593007 1.44614 0
M  V30 8018 H 735.86 -3.08679 0.994384 0
M  V30 8019 H 735.645 -2.79947 2.74539 0
M  V30 8020 H 737.135 -3.5847 2.14218 0
M  V30 8021 N 737.572 -1.44907 -0.619662 0
M  V30 8022 C 738.818 -1.48512 -1.38102 0
M  V30 8023 C 739.151 -0.121686 -1.93818 0
M  V30 8024 O 738.426 0.862256 -1.74343 0
M  V30 8025 C 738.709 -2.55469 -2.53787 0
M  V30 8026 C 738.562 -4.01212 -2.03345 0
M  V30 8027 C 739.881 -2.58821 -3.55949 0
M  V30 8028 H 737 -0.540712 -0.500799 0
M  V30 8029 H 739.642 -1.7665 -0.69962 0
M  V30 8030 H 737.792 -2.31606 -3.11915 0
M  V30 8031 H 739.464 -4.36245 -1.49959 0
M  V30 8032 H 737.707 -4.12443 -1.34438 0
M  V30 8033 H 738.378 -4.71717 -2.86683 0
M  V30 8034 H 740.854 -2.80172 -3.07641 0
M  V30 8035 H 739.73 -3.35542 -4.34399 0
M  V30 8036 H 739.991 -1.63451 -4.10775 0
M  V30 8037 N 739.05 0.861098 -1.31996 0
M  V30 8038 C 739.982 1.97551 -1.16216 0
M  V30 8039 C 740.995 1.625 -0.0988527 0
M  V30 8040 O 742.184 1.75091 -0.3472 0
M  V30 8041 C 739.284 3.30376 -0.755307 0
M  V30 8042 C 738.457 3.93711 -1.90552 0
M  V30 8043 C 737.516 5.04862 -1.48328 0
M  V30 8044 O 736.542 5.25204 -2.19431 0
M  V30 8045 N 737.744 5.79283 -0.375656 0
M  V30 8046 H 740.509 2.11632 -2.12208 0
M  V30 8047 H 738.07 1.03559 -1.24448 0
M  V30 8048 H 740.062 4.0213 -0.455364 0
M  V30 8049 H 738.632 3.12395 0.113269 0
M  V30 8050 H 737.852 3.14825 -2.37231 0
M  V30 8051 H 739.14 4.32762 -2.67571 0
M  V30 8052 H 738.538 5.65286 0.216284 0
M  V30 8053 H 737.095 6.5166 -0.135289 0
M  V30 8054 N 740.528 1.15101 1.07655 0
M  V30 8055 C 741.491 0.847625 2.12951 0
M  V30 8056 C 742.491 -0.151227 1.60087 0
M  V30 8057 O 743.681 0.0780399 1.74025 0
M  V30 8058 C 740.813 0.265 3.39868 0
M  V30 8059 H 742.006 1.7809 2.41296 0
M  V30 8060 H 739.559 0.958072 1.23494 0
M  V30 8061 H 740.294 -0.676625 3.17163 0
M  V30 8062 H 740.079 0.984554 3.79538 0
M  V30 8063 H 741.569 0.0702121 4.17541 0
M  V30 8064 N 742.006 -1.2595 0.947325 0
M  V30 8065 C 742.956 -2.23859 0.432547 0
M  V30 8066 C 743.94 -1.53755 -0.474154 0
M  V30 8067 O 745.132 -1.74293 -0.308397 0
M  V30 8068 C 742.261 -3.42027 -0.295318 0
M  V30 8069 C 741.347 -4.19409 0.62903 0
M  V30 8070 N 741.738 -4.74284 1.7575 0
M  V30 8071 C 740.036 -4.43866 0.435805 0
M  V30 8072 C 740.737 -5.32821 2.33401 0
M  V30 8073 N 739.713 -5.18858 1.62135 0
M  V30 8074 H 743.515 -2.63886 1.29388 0
M  V30 8075 H 741.029 -1.41105 0.80393 0
M  V30 8076 H 743.026 -4.11297 -0.681188 0
M  V30 8077 H 741.686 -3.03526 -1.15334 0
M  V30 8078 H 742.697 -4.71641 2.13952 0
M  V30 8079 H 739.374 -4.15768 -0.37994 0
M  V30 8080 H 740.764 -5.86111 3.28517 0
M  V30 8081 N 743.484 -0.715051 -1.40445 0
M  V30 8082 C 744.9 -0.388555 -1.54798 0
M  V30 8083 C 745.1 1.10271 -1.68649 0
M  V30 8084 O 744.156 1.88875 -1.67578 0
M  V30 8085 C 745.469 -1.15414 -2.77669 0
M  V30 8086 C 747.017 -1.14039 -2.91486 0
M  V30 8087 C 747.492 -1.88812 -4.1727 0
M  V30 8088 N 748.983 -1.85878 -4.24268 0
M  V30 8089 C 749.718 -2.40558 -5.20499 0
M  V30 8090 N 749.214 -3.03791 -6.22642 0
M  V30 8091 N 751.007 -2.30703 -5.12574 0
M  V30 8092 H 743.158 -1.68201 -1.297 0
M  V30 8093 H 745.421 -0.710915 -0.627139 0
M  V30 8094 H 745.127 -2.20853 -2.7371 0
M  V30 8095 H 745.001 -0.745412 -3.69761 0
M  V30 8096 H 747.388 -0.0941996 -2.9495 0
M  V30 8097 H 747.469 -1.58834 -2.00513 0
M  V30 8098 H 747.113 -2.93422 -4.14568 0
M  V30 8099 H 747.043 -1.41438 -5.0725 0
M  V30 8100 H 749.534 -1.39794 -3.51093 0
M  V30 8101 H 749.847 -3.43032 -6.92495 0
M  V30 8102 H 748.192 -3.07875 -6.23087 0
M  V30 8103 H 751.383 -1.80961 -4.31707 0
M  V30 8104 H 751.556 -2.73618 -5.87398 0
M  V30 8105 N 744.962 1.50701 -0.461195 0
M  V30 8106 C 746.21 2.01867 0.0970051 0
M  V30 8107 C 746.531 1.34591 1.41104 0
M  V30 8108 O 745.801 0.488041 1.89723 0
M  V30 8109 H 744.381 0.74599 0.0388392 0
M  V30 8110 H 747.043 1.85129 -0.609357 0
M  V30 8111 H 746.139 3.11051 0.255688 0
M  V30 8112 N 746.441 0.193421 1.56409 0
M  V30 8113 C 747.671 -0.450783 2.01622 0
M  V30 8114 C 748.079 -1.5585 1.07273 0
M  V30 8115 O 747.422 -1.83569 0.0694875 0
M  V30 8116 C 747.484 -1.06913 3.43235 0
M  V30 8117 C 747.148 -0.100352 4.5689 0
M  V30 8118 C 748.145 0.689633 5.15306 0
M  V30 8119 C 745.83 0.0102436 5.02299 0
M  V30 8120 C 747.824 1.5772 6.17579 0
M  V30 8121 C 745.511 0.901368 6.04416 0
M  V30 8122 C 746.509 1.68341 6.61929 0
M  V30 8123 O 746.197 2.5596 7.62063 0
M  V30 8124 H 745.929 -0.117671 0.66568 0
M  V30 8125 H 748.483 0.2989 2.03214 0
M  V30 8126 H 746.713 -1.86736 3.38624 0
M  V30 8127 H 748.402 -1.61781 3.72266 0
M  V30 8128 H 749.168 0.614485 4.81092 0
M  V30 8129 H 745.047 -0.58829 4.57231 0
M  V30 8130 H 748.591 2.18805 6.62397 0
M  V30 8131 H 744.488 0.977637 6.38054 0
M  V30 8132 H 745.256 2.49721 7.79475 0
M  V30 8133 N 747.919 -1.57396 -0.0801906 0
M  V30 8134 C 749.147 -1.91055 -0.794075 0
M  V30 8135 C 749.562 -0.788583 -1.71542 0
M  V30 8136 O 748.919 0.238587 -1.80934 0
M  V30 8137 C 748.97 -3.24418 -1.59484 0
M  V30 8138 O 748.691 -4.323 -0.710532 0
M  V30 8139 C 750.192 -3.72037 -2.41046 0
M  V30 8140 H 747.412 -0.63171 -0.226238 0
M  V30 8141 H 749.956 -2.04431 -0.0529685 0
M  V30 8142 H 748.111 -3.12595 -2.2883 0
M  V30 8143 H 748.525 -5.08976 -1.26663 0
M  V30 8144 H 749.999 -4.68006 -2.92702 0
M  V30 8145 H 750.476 -3.00624 -3.2019 0
M  V30 8146 H 751.082 -3.86777 -1.76871 0
M  V30 8147 N 749.397 0.351382 -1.53633 0
M  V30 8148 C 750.674 1.10903 -1.6112 0
M  V30 8149 C 751.054 2.06725 -0.427556 0
M  V30 8150 O 750.402 2.20992 0.580916 0
M  V30 8151 C 750.612 1.83561 -2.96827 0
M  V30 8152 C 751.96 2.37587 -3.51906 0
M  V30 8153 O 752.984 1.93669 -2.9895 0
M  V30 8154 O 751.843 3.17913 -4.44515 0
M  V30 8155 H 748.937 0.509558 -0.651368 0
M  V30 8156 H 751.483 0.353504 -1.65977 0
M  V30 8157 H 750.255 1.1371 -3.74414 0
M  V30 8158 H 749.878 2.6599 -2.95525 0
M  V30 8159 N 750.875 1.45233 0.611969 0
M  V30 8160 C 752.291 1.29542 0.932251 0
M  V30 8161 C 752.491 0.24523 2.00002 0
M  V30 8162 O 751.547 -0.362333 2.49887 0
M  V30 8163 C 752.86 2.67301 1.37733 0
M  V30 8164 C 754.408 2.75163 1.49178 0
M  V30 8165 C 754.883 4.13437 1.97064 0
M  V30 8166 N 756.374 4.15709 2.04304 0
M  V30 8167 C 757.109 5.19566 2.42568 0
M  V30 8168 N 756.605 6.33771 2.79832 0
M  V30 8169 N 758.398 5.06923 2.42869 0
M  V30 8170 H 750.549 2.12192 -0.0938679 0
M  V30 8171 H 752.812 0.947775 0.0206569 0
M  V30 8172 H 752.518 3.45318 0.666951 0
M  V30 8173 H 752.392 2.95472 2.3447 0
M  V30 8174 H 754.779 1.97453 2.19309 0
M  V30 8175 H 754.86 2.50712 0.507674 0
M  V30 8176 H 754.504 4.91631 1.27521 0
M  V30 8177 H 754.434 4.35277 2.9638 0
M  V30 8178 H 756.925 3.33293 1.78113 0
M  V30 8179 H 757.238 7.08815 3.07898 0
M  V30 8180 H 755.583 6.37179 2.77538 0
M  V30 8181 H 758.774 4.1675 2.1316 0
M  V30 8182 H 758.947 5.87981 2.72364 0
M  V30 8183 N 752.353 -0.854086 1.3245 0
M  V30 8184 C 753.316 -1.94427 1.21371 0
M  V30 8185 C 754.316 -1.60219 0.136613 0
M  V30 8186 O 755.506 -1.69846 0.387057 0
M  V30 8187 C 752.638 -3.29698 0.866701 0
M  V30 8188 H 753.831 -2.05679 2.18257 0
M  V30 8189 H 751.384 -1.04434 1.1629 0
M  V30 8190 H 752.119 -3.24145 -0.100319 0
M  V30 8191 H 751.904 -3.55903 1.64545 0
M  V30 8192 H 753.394 -4.09599 0.813515 0
M  V30 8193 N 753.831 -1.1567 -1.07043 0
M  V30 8194 C 755.08 -0.928039 -1.79082 0
M  V30 8195 C 755.393 0.545968 -1.87826 0
M  V30 8196 O 756.599 0.892308 -2.56418 0
M  V30 8197 C 755.055 -1.61103 -3.21829 0
M  V30 8198 C 754.663 -3.12228 -3.21275 0
M  V30 8199 C 756.407 -1.46404 -3.98455 0
M  V30 8200 C 754.314 -3.733 -4.58695 0
M  V30 8201 H 753.244 -0.34357 -0.671175 0
M  V30 8202 H 755.895 -1.38718 -1.20123 0
M  V30 8203 H 754.277 -1.07958 -3.81 0
M  V30 8204 H 755.451 -3.72155 -2.71731 0
M  V30 8205 H 753.766 -3.26725 -2.58147 0
M  V30 8206 H 756.363 -1.8942 -5.00024 0
M  V30 8207 H 756.706 -0.41195 -4.14257 0
M  V30 8208 H 757.239 -1.96663 -3.45787 0
M  V30 8209 H 753.978 -4.78423 -4.48098 0
M  V30 8210 H 753.498 -3.18157 -5.08465 0
M  V30 8211 H 755.177 -3.7441 -5.27661 0
M  V30 8212 N 755.309 1.25446 -0.953992 0
M  V30 8213 C 756.725 1.4539 -0.658316 0
M  V30 8214 C 756.925 1.85607 0.784356 0
M  V30 8215 O 755.981 1.98568 1.55972 0
M  V30 8216 C 757.294 2.52643 -1.6307 0
M  V30 8217 C 758.842 2.66484 -1.64181 0
M  V30 8218 C 759.317 3.76921 -2.60182 0
M  V30 8219 N 760.808 3.84331 -2.58542 0
M  V30 8220 C 761.543 4.69271 -3.29503 0
M  V30 8221 N 761.039 5.58503 -4.09934 0
M  V30 8222 N 762.832 4.6323 -3.18393 0
M  V30 8223 H 754.983 0.976337 -1.8863 0
M  V30 8224 H 757.246 0.490343 -0.811337 0
M  V30 8225 H 756.952 2.29949 -2.66114 0
M  V30 8226 H 756.826 3.50547 -1.39271 0
M  V30 8227 H 759.213 2.88545 -0.618552 0
M  V30 8228 H 759.294 1.68982 -1.92038 0
M  V30 8229 H 758.938 3.55612 -3.62633 0
M  V30 8230 H 758.868 4.73906 -2.29609 0
M  V30 8231 H 761.359 3.20544 -2.0015 0
M  V30 8232 H 761.672 6.20241 -4.61 0
M  V30 8233 H 760.017 5.58214 -4.14032 0
M  V30 8234 H 763.208 3.92527 -2.5503 0
M  V30 8235 H 763.381 5.29204 -3.73961 0
M  V30 8236 N 756.787 0.722489 1.40064 0
M  V30 8237 C 758.035 0.264455 2.00362 0
M  V30 8238 C 758.356 -1.14847 1.57592 0
M  V30 8239 O 757.626 -1.77982 0.818477 0
M  V30 8240 H 756.206 0.0947846 0.740962 0
M  V30 8241 H 758.868 0.929659 1.71299 0
M  V30 8242 H 757.964 0.302977 3.10626 0
M  V30 8243 N 758.265 -1.50454 0.469181 0
M  V30 8244 C 759.175 -2.32248 -0.331349 0
M  V30 8245 C 760.191 -1.42548 -0.997807 0
M  V30 8246 O 761.367 -1.75602 -0.9862 0
M  V30 8247 C 758.432 -3.17171 -1.40012 0
M  V30 8248 C 757.493 -4.2269 -0.750463 0
M  V30 8249 C 756.726 -5.03554 -1.76831 0
M  V30 8250 O 756.949 -4.85469 -2.99459 0
M  V30 8251 O 755.883 -5.86767 -1.3412 0
M  V30 8252 H 759.709 -3.01821 0.337279 0
M  V30 8253 H 757.294 -1.47602 0.231066 0
M  V30 8254 H 759.176 -3.69871 -2.01924 0
M  V30 8255 H 757.851 -2.50328 -2.05226 0
M  V30 8256 H 756.758 -3.73986 -0.0924446 0
M  V30 8257 H 758.091 -4.91997 -0.14131 0
M  V30 8258 N 759.743 -0.201713 -1.56304 0
M  V30 8259 C 760.706 0.702811 -2.18159 0
M  V30 8260 C 761.706 1.13619 -1.13787 0
M  V30 8261 O 762.896 1.0482 -1.39134 0
M  V30 8262 C 760.028 1.96032 -2.78898 0
M  V30 8263 H 761.221 0.163836 -2.99452 0
M  V30 8264 H 758.774 0.04791 -1.56227 0
M  V30 8265 H 759.509 2.54165 -2.01421 0
M  V30 8266 H 759.294 1.65824 -3.55309 0
M  V30 8267 H 760.784 2.60519 -3.26373 0
M  V30 8268 N 761.222 1.57436 0.0718424 0
M  V30 8269 C 762.469 1.87248 0.771007 0
M  V30 8270 C 762.797 0.793441 1.7758 0
M  V30 8271 O 762.052 -0.210565 1.94564 0
M  V30 8272 C 762.351 3.23723 1.51455 0
M  V30 8273 C 762.017 4.46194 0.649736 0
M  V30 8274 C 760.679 4.79438 0.411409 0
M  V30 8275 C 763.031 5.21176 0.05004 0
M  V30 8276 C 760.359 5.85077 -0.436096 0
M  V30 8277 C 762.711 6.27712 -0.784919 0
M  V30 8278 C 761.375 6.59457 -1.03312 0
M  V30 8279 H 760.645 0.685188 0.282132 0
M  V30 8280 H 763.292 1.91474 0.0317896 0
M  V30 8281 H 761.597 3.15287 2.32597 0
M  V30 8282 H 763.294 3.44023 2.06031 0
M  V30 8283 H 759.884 4.20175 0.84562 0
M  V30 8284 H 764.068 4.95806 0.221282 0
M  V30 8285 H 759.324 6.08071 -0.637136 0
M  V30 8286 H 763.498 6.84974 -1.25635 0
M  V30 8287 H 761.125 7.4114 -1.6916 0
M  V30 8288 N 762.7 -0.34323 1.53817 0
M  V30 8289 C 763.977 -1.10047 1.61706 0
M  V30 8290 C 764.357 -2.06495 0.438514 0
M  V30 8291 O 763.705 -2.21297 -0.569188 0
M  V30 8292 C 763.915 -1.81985 2.97796 0
M  V30 8293 C 765.263 -2.35717 3.53161 0
M  V30 8294 O 766.287 -1.9208 2.99973 0
M  V30 8295 O 765.146 -3.15551 4.46195 0
M  V30 8296 H 762.24 -0.506096 0.654061 0
M  V30 8297 H 764.786 -0.344697 1.66162 0
M  V30 8298 H 763.558 -1.11722 3.75012 0
M  V30 8299 H 763.181 -2.64419 2.96931 0
M  V30 8300 N 764.178 -1.45556 -0.604258 0
M  V30 8301 C 765.594 -1.30035 -0.925368 0
M  V30 8302 C 765.794 -0.255833 -1.99869 0
M  V30 8303 O 764.85 0.349076 -2.50075 0
M  V30 8304 C 766.163 -2.68028 -1.36314 0
M  V30 8305 C 767.711 -2.75951 -1.47717 0
M  V30 8306 C 768.186 -4.14476 -1.94868 0
M  V30 8307 N 769.677 -4.16787 -2.02097 0
M  V30 8308 C 770.412 -5.20845 -2.39809 0
M  V30 8309 N 769.908 -6.35246 -2.76467 0
M  V30 8310 N 771.701 -5.08204 -2.40177 0
M  V30 8311 H 763.852 -2.1214 0.10512 0
M  V30 8312 H 766.115 -0.947871 -0.0156303 0
M  V30 8313 H 765.821 -3.45667 -0.648628 0
M  V30 8314 H 765.695 -2.96711 -2.329 0
M  V30 8315 H 768.082 -1.98613 -2.18258 0
M  V30 8316 H 768.163 -2.50977 -0.494371 0
M  V30 8317 H 767.807 -4.923 -1.24912 0
M  V30 8318 H 767.737 -4.36843 -2.94068 0
M  V30 8319 H 770.228 -3.34233 -1.76343 0
M  V30 8320 H 770.541 -7.10438 -3.04134 0
M  V30 8321 H 768.886 -6.38642 -2.74155 0
M  V30 8322 H 772.077 -4.17874 -2.10947 0
M  V30 8323 H 772.25 -5.89417 -2.69242 0
M  V30 8324 N 765.656 0.84705 -1.32902 0
M  V30 8325 C 766.606 1.94451 -1.19049 0
M  V30 8326 C 767.59 1.60617 -0.095461 0
M  V30 8327 O 768.782 1.74033 -0.322739 0
M  V30 8328 C 765.911 3.30645 -0.923509 0
M  V30 8329 C 764.997 3.70675 -2.0606 0
M  V30 8330 N 765.388 3.82468 -3.30986 0
M  V30 8331 C 763.686 4.00357 -1.96547 0
M  V30 8332 C 764.387 4.17056 -4.05511 0
M  V30 8333 N 763.363 4.28985 -3.33876 0
M  V30 8334 H 767.165 2.01713 -2.1375 0
M  V30 8335 H 764.679 1.03928 -1.24791 0
M  V30 8336 H 766.676 4.0905 -0.805212 0
M  V30 8337 H 765.336 3.24697 0.0150523 0
M  V30 8338 H 766.347 3.66589 -3.65832 0
M  V30 8339 H 763.024 4.02666 -1.10299 0
M  V30 8340 H 764.414 4.33585 -5.13277 0
M  V30 8341 N 767.134 1.16236 1.06428 0
M  V30 8342 C 768.064 0.890807 2.1584 0
M  V30 8343 C 769.045 -0.162333 1.69324 0
M  V30 8344 O 770.23 -0.0147191 1.94194 0
M  V30 8345 C 767.36 0.389615 3.45108 0
M  V30 8346 C 766.314 1.38051 4.05125 0
M  V30 8347 C 765.64 0.737773 5.29586 0
M  V30 8348 C 766.94 2.74965 4.44062 0
M  V30 8349 H 768.634 1.80577 2.38814 0
M  V30 8350 H 766.18 0.869657 1.14774 0
M  V30 8351 H 768.133 0.187127 4.20984 0
M  V30 8352 H 766.857 -0.560851 3.21748 0
M  V30 8353 H 765.516 1.56952 3.31303 0
M  V30 8354 H 765.164 -0.219135 5.02522 0
M  V30 8355 H 764.864 1.39914 5.70699 0
M  V30 8356 H 766.388 0.545275 6.0816 0
M  V30 8357 H 767.802 2.59855 5.11027 0
M  V30 8358 H 766.199 3.37563 4.96156 0
M  V30 8359 H 767.269 3.30321 3.54987 0
M  V30 8360 N 768.612 -1.24939 0.960631 0
M  V30 8361 C 769.542 -2.28 0.503815 0
M  V30 8362 C 770.523 -1.63959 -0.452928 0
M  V30 8363 O 771.708 -1.91009 -0.350585 0
M  V30 8364 C 768.838 -3.46643 -0.213535 0
M  V30 8365 C 767.792 -4.22903 0.658535 0
M  V30 8366 C 767.118 -5.34363 -0.189902 0
M  V30 8367 C 768.418 -4.84949 1.93963 0
M  V30 8368 H 770.112 -2.66462 1.36521 0
M  V30 8369 H 767.658 -1.28093 0.657897 0
M  V30 8370 H 769.611 -4.1787 -0.544286 0
M  V30 8371 H 768.335 -3.07187 -1.10923 0
M  V30 8372 H 766.994 -3.53467 0.972455 0
M  V30 8373 H 766.642 -4.91147 -1.08553 0
M  V30 8374 H 766.342 -5.86302 0.390331 0
M  V30 8375 H 767.866 -6.0842 -0.515484 0
M  V30 8376 H 769.28 -5.48288 1.67491 0
M  V30 8377 H 767.677 -5.47091 2.46601 0
M  V30 8378 H 768.747 -4.06799 2.639 0
M  V30 8379 N 770.09 -0.729906 -1.39679 0
M  V30 8380 C 771.338 -0.275077 -2.00219 0
M  V30 8381 C 771.659 1.1401 -1.58199 0
M  V30 8382 O 770.929 1.77546 -0.827904 0
M  V30 8383 H 769.509 -0.0987127 -0.740449 0
M  V30 8384 H 772.171 -0.93873 -1.70804 0
M  V30 8385 H 771.267 -0.319446 -3.10461 0
M  V30 8386 N 771.568 1.50203 -0.477153 0
M  V30 8387 C 772.498 2.31517 0.303646 0
M  V30 8388 C 773.479 1.38696 0.984753 0
M  V30 8389 O 774.664 1.67615 0.980758 0
M  V30 8390 C 771.794 3.18598 1.38249 0
M  V30 8391 C 770.748 4.2002 0.822645 0
M  V30 8392 C 770.074 4.95878 2.00024 0
M  V30 8393 C 771.374 5.22023 -0.170185 0
M  V30 8394 H 773.068 2.97042 -0.375027 0
M  V30 8395 H 770.614 1.42848 -0.181802 0
M  V30 8396 H 772.567 3.74282 1.93625 0
M  V30 8397 H 771.291 2.5097 2.09002 0
M  V30 8398 H 769.95 3.65445 0.290813 0
M  V30 8399 H 769.598 4.24717 2.69489 0
M  V30 8400 H 769.298 5.64487 1.63183 0
M  V30 8401 H 770.822 5.54399 2.55878 0
M  V30 8402 H 772.236 5.72543 0.294606 0
M  V30 8403 H 770.633 5.98386 -0.453181 0
M  V30 8404 H 771.703 4.72396 -1.09408 0
M  V30 8405 N 773.046 0.209999 1.56195 0
M  V30 8406 C 773.993 -0.704854 2.19774 0
M  V30 8407 C 774.963 -1.19886 1.14964 0
M  V30 8408 O 776.148 -1.26005 1.43274 0
M  V30 8409 C 773.288 -1.91241 2.87265 0
M  V30 8410 C 772.401 -1.45838 4.06639 0
M  V30 8411 C 771.536 -2.6226 4.61945 0
M  V30 8412 C 770.575 -2.13537 5.73645 0
M  V30 8413 N 769.712 -3.2319 6.23292 0
M  V30 8414 H 774.552 -0.155944 2.97592 0
M  V30 8415 H 772.089 -0.0652235 1.46955 0
M  V30 8416 H 774.047 -2.62123 3.24573 0
M  V30 8417 H 772.677 -2.43439 2.11985 0
M  V30 8418 H 771.729 -0.644897 3.74894 0
M  V30 8419 H 773.041 -1.06103 4.87384 0
M  V30 8420 H 772.195 -3.41243 5.01636 0
M  V30 8421 H 770.934 -3.05278 3.80338 0
M  V30 8422 H 769.939 -1.33013 5.33468 0
M  V30 8423 H 771.164 -1.71533 6.57079 0
M  V30 8424 H 769.11 -3.65711 5.44602 0
M  V30 8425 H 769.027 -2.8767 6.99129 0
M  V30 8426 H 770.295 -4.02342 6.67639 0
M  V30 8427 N 774.524 -1.57472 -0.0634922 0
M  V30 8428 C 775.454 -2.07297 -1.07473 0
M  V30 8429 C 776.435 -0.968162 -1.39859 0
M  V30 8430 O 777.62 -1.24139 -1.49343 0
M  V30 8431 C 774.75 -2.52381 -2.38581 0
M  V30 8432 C 773.704 -3.66813 -2.20526 0
M  V30 8433 C 773.03 -3.97982 -3.57092 0
M  V30 8434 C 774.33 -4.96553 -1.61965 0
M  V30 8435 H 776.024 -2.92033 -0.660092 0
M  V30 8436 H 773.57 -1.40488 -0.316074 0
M  V30 8437 H 775.523 -2.85852 -3.09624 0
M  V30 8438 H 774.247 -1.64684 -2.8204 0
M  V30 8439 H 772.906 -3.33639 -1.51924 0
M  V30 8440 H 772.554 -3.07403 -3.98136 0
M  V30 8441 H 772.254 -4.7504 -3.45848 0
M  V30 8442 H 773.778 -4.33956 -4.29552 0
M  V30 8443 H 775.192 -5.28201 -2.22883 0
M  V30 8444 H 773.589 -5.7799 -1.61394 0
M  V30 8445 H 774.659 -4.81396 -0.581918 0
M  V30 8446 N 776.003 0.335068 -1.53997 0
M  V30 8447 C 776.935 1.4327 -1.78903 0
M  V30 8448 C 777.948 1.48347 -0.670598 0
M  V30 8449 O 779.137 1.51277 -0.947494 0
M  V30 8450 C 776.237 2.81878 -1.88144 0
M  V30 8451 C 775.41 3.00141 -3.18174 0
M  V30 8452 C 774.469 4.19041 -3.18263 0
M  V30 8453 O 773.495 4.12751 -3.9195 0
M  V30 8454 N 774.697 5.28004 -2.41231 0
M  V30 8455 H 777.462 1.22272 -2.73623 0
M  V30 8456 H 775.023 0.524996 -1.53152 0
M  V30 8457 H 777.015 3.59609 -1.85644 0
M  V30 8458 H 775.585 2.9598 -1.00572 0
M  V30 8459 H 774.805 2.09808 -3.33728 0
M  V30 8460 H 776.093 3.0923 -4.04047 0
M  V30 8461 H 775.491 5.35986 -1.8093 0
M  V30 8462 H 774.048 6.04196 -2.44521 0
M  V30 8463 N 777.481 1.45874 0.596531 0
M  V30 8464 C 778.444 1.54988 1.68853 0
M  V30 8465 C 779.444 0.428302 1.54991 0
M  V30 8466 O 780.634 0.692158 1.59859 0
M  V30 8467 C 777.766 1.457 3.08195 0
M  V30 8468 H 778.959 2.52294 1.62135 0
M  V30 8469 H 776.512 1.33479 0.813206 0
M  V30 8470 H 777.247 0.496204 3.20481 0
M  V30 8471 H 777.032 2.27061 3.19665 0
M  V30 8472 H 778.522 1.55133 3.87716 0
M  V30 8473 N 778.959 -0.83999 1.33349 0
M  V30 8474 C 780.208 -1.59011 1.2409 0
M  V30 8475 C 780.521 -1.94655 -0.192029 0
M  V30 8476 O 781.727 -2.68438 -0.406617 0
M  V30 8477 C 780.183 -2.86801 2.17425 0
M  V30 8478 C 779.791 -2.58525 3.65881 0
M  V30 8479 C 781.535 -3.64823 2.17036 0
M  V30 8480 C 779.442 -3.82404 4.51133 0
M  V30 8481 H 778.372 -0.596731 0.460899 0
M  V30 8482 H 781.023 -0.926274 1.58406 0
M  V30 8483 H 779.405 -3.54719 1.7604 0
M  V30 8484 H 780.579 -1.98824 4.15699 0
M  V30 8485 H 778.894 -1.93808 3.68548 0
M  V30 8486 H 781.491 -4.56774 2.7796 0
M  V30 8487 H 781.834 -3.99663 1.16513 0
M  V30 8488 H 782.367 -3.03826 2.56777 0
M  V30 8489 H 779.106 -3.52696 5.52527 0
M  V30 8490 H 778.626 -4.41447 4.0606 0
M  V30 8491 H 780.305 -4.49995 4.6488 0
M  V30 8492 N 780.437 -1.16799 -1.0581 0
M  V30 8493 C 781.347 -0.893492 -2.16919 0
M  V30 8494 C 782.363 0.136061 -1.73467 0
M  V30 8495 O 783.539 -0.0417348 -2.01357 0
M  V30 8496 C 780.604 -0.403763 -3.44341 0
M  V30 8497 C 779.665 -1.49914 -4.02274 0
M  V30 8498 C 778.898 -1.03269 -5.23614 0
M  V30 8499 O 779.121 0.115647 -5.70283 0
M  V30 8500 O 778.055 -1.8231 -5.73626 0
M  V30 8501 H 781.881 -1.82274 -2.42919 0
M  V30 8502 H 779.466 -0.948361 -1.1544 0
M  V30 8503 H 781.348 -0.137874 -4.21174 0
M  V30 8504 H 780.023 0.497413 -3.19855 0
M  V30 8505 H 778.93 -1.81883 -3.26909 0
M  V30 8506 H 780.263 -2.3758 -4.31064 0
M  V30 8507 N 781.915 1.24427 -0.967243 0
M  V30 8508 C 783.192 1.87831 -0.545776 0
M  V30 8509 C 783.572 1.87126 0.977099 0
M  V30 8510 O 782.92 1.34357 1.84826 0
M  V30 8511 C 783.13 3.29967 -1.13679 0
M  V30 8512 C 784.478 4.06654 -1.22139 0
M  V30 8513 O 785.502 3.39136 -1.08926 0
M  V30 8514 O 784.361 5.27455 -1.43017 0
M  V30 8515 H 781.455 0.806745 -0.181912 0
M  V30 8516 H 784.001 1.32403 -1.06148 0
M  V30 8517 H 782.773 3.24977 -2.17958 0
M  V30 8518 H 782.396 3.92969 -0.605093 0
M  V30 8519 N 783.393 0.737304 1.3929 0
M  V30 8520 C 784.323 0.113988 2.33222 0
M  V30 8521 C 785.304 -0.721695 1.54031 0
M  V30 8522 O 786.489 -0.666206 1.82415 0
M  V30 8523 C 783.619 -0.792319 3.38141 0
M  V30 8524 C 782.573 -0.0606178 4.27957 0
M  V30 8525 C 781.899 -1.08409 5.23595 0
M  V30 8526 C 783.199 1.09817 5.10625 0
M  V30 8527 H 784.893 0.898611 2.85596 0
M  V30 8528 H 782.439 0.433571 1.37318 0
M  V30 8529 H 784.392 -1.23793 4.02807 0
M  V30 8530 H 783.116 -1.60908 2.84211 0
M  V30 8531 H 781.775 0.365393 3.64775 0
M  V30 8532 H 781.423 -1.89449 4.6596 0
M  V30 8533 H 781.123 -0.599269 5.84536 0
M  V30 8534 H 782.647 -1.52936 5.91137 0
M  V30 8535 H 784.061 0.730892 5.68622 0
M  V30 8536 H 782.458 1.51278 5.80719 0
M  V30 8537 H 783.528 1.91878 4.45321 0
M  V30 8538 N 784.871 -1.49948 0.485112 0
M  V30 8539 C 786.117 -2.02695 -0.0651022 0
M  V30 8540 C 786.45 -1.36534 -1.38102 0
M  V30 8541 O 785.725 -0.495677 -1.88078 0
M  V30 8542 C 786.008 -3.59337 -0.234285 0
M  V30 8543 C 785.861 -4.3605 1.10364 0
M  V30 8544 C 787.18 -4.28996 -0.982351 0
M  V30 8545 H 784.299 -0.736666 -0.0221856 0
M  V30 8546 H 786.941 -1.7913 0.633433 0
M  V30 8547 H 785.091 -3.79546 -0.829262 0
M  V30 8548 H 786.763 -4.27377 1.73627 0
M  V30 8549 H 785.006 -3.99236 1.69686 0
M  V30 8550 H 785.677 -5.43959 0.938743 0
M  V30 8551 H 788.153 -4.13346 -0.477904 0
M  V30 8552 H 787.029 -5.38379 -1.06955 0
M  V30 8553 H 787.29 -3.93135 -2.02231 0
M  V30 8554 N 786.349 -0.21828 -1.56081 0
M  V30 8555 C 787.574 0.422302 -2.03055 0
M  V30 8556 C 787.999 1.5279 -1.09713 0
M  V30 8557 O 787.357 1.81102 -0.0847187 0
M  V30 8558 C 787.405 0.934177 -3.48289 0
M  V30 8559 O 786.509 2.04574 -3.58083 0
M  V30 8560 H 785.85 0.0959764 -0.657027 0
M  V30 8561 H 788.38 -0.335958 -2.01823 0
M  V30 8562 H 788.39 1.24484 -3.88546 0
M  V30 8563 H 787.065 0.124963 -4.15712 0
M  V30 8564 H 785.642 1.74196 -3.29712 0
M  V30 8565 N 787.827 1.57504 0.0551401 0
M  V30 8566 C 788.76 2.00155 1.09604 0
M  V30 8567 C 789.738 0.881274 1.36647 0
M  V30 8568 O 790.922 1.14498 1.49742 0
M  V30 8569 C 788.049 2.35246 2.43674 0
M  V30 8570 C 787.095 3.57452 2.32659 0
M  V30 8571 S 787.928 5.07639 1.7048 0
M  V30 8572 C 789.084 5.45947 3.06093 0
M  V30 8573 H 789.317 2.88131 0.732635 0
M  V30 8574 H 786.85 1.52122 0.264252 0
M  V30 8575 H 788.808 2.56136 3.20787 0
M  V30 8576 H 787.469 1.47769 2.7717 0
M  V30 8577 H 786.662 3.79576 3.31569 0
M  V30 8578 H 786.264 3.36279 1.63685 0
M  V30 8579 H 788.556 5.45036 4.0242 0
M  V30 8580 H 789.499 6.4656 2.88732 0
M  V30 8581 H 789.907 4.73419 3.07466 0
M  V30 8582 N 789.305 -0.326896 1.54172 0
M  V30 8583 C 790.716 -0.901533 1.63491 0
M  V30 8584 C 791.067 -1.88994 0.52684 0
M  V30 8585 O 790.192 -2.137 -0.340794 0
M  V30 8586 C 790.787 -1.64192 2.96355 0
M  V30 8587 C 789.346 -2.16533 3.07881 0
M  V30 8588 C 788.493 -0.98966 2.59039 0
M  V30 8589 H 791.444 -0.104568 1.58355 0
M  V30 8590 H 791.465 -2.50592 2.86328 0
M  V30 8591 H 790.977 -0.922291 3.76982 0
M  V30 8592 H 789.078 -2.91622 2.31922 0
M  V30 8593 H 789.191 -2.41762 4.13628 0
M  V30 8594 H 787.555 -1.36787 2.14852 0
M  V30 8595 H 788.338 -0.284401 3.4212 0
M  V30 8596 N 790.784 -1.46188 -0.588786 0
M  V30 8597 C 792.061 -1.41659 -1.34878 0
M  V30 8598 C 792.441 -0.0968913 -2.10878 0
M  V30 8599 O 791.789 0.921468 -2.09096 0
M  V30 8600 C 791.999 -2.6424 -2.27988 0
M  V30 8601 C 793.347 -3.1013 -2.90008 0
M  V30 8602 O 794.371 -2.64745 -2.38303 0
M  V30 8603 O 793.23 -3.88944 -3.83908 0
M  V30 8604 H 790.324 -0.563058 -0.605718 0
M  V30 8605 H 792.87 -1.58346 -0.610309 0
M  V30 8606 H 791.642 -3.51853 -1.71217 0
M  V30 8607 H 791.265 -2.49982 -3.09184 0
M  V30 8608 N 792.262 0.832906 -1.33792 0
M  V30 8609 C 793.511 1.58351 -1.24932 0
M  V30 8610 C 793.824 1.94754 0.181703 0
M  V30 8611 O 795.03 2.6865 0.392375 0
M  V30 8612 C 793.486 2.85643 -2.18943 0
M  V30 8613 C 793.094 2.56581 -3.67247 0
M  V30 8614 C 794.838 3.63667 -2.18968 0
M  V30 8615 C 792.745 3.80006 -4.53155 0
M  V30 8616 H 791.675 0.594278 -0.464058 0
M  V30 8617 H 794.326 0.91786 -1.58895 0
M  V30 8618 H 792.708 3.53781 -1.77919 0
M  V30 8619 H 793.882 1.96617 -4.16747 0
M  V30 8620 H 792.197 1.91851 -3.6957 0
M  V30 8621 H 794.794 4.55293 -2.80379 0
M  V30 8622 H 795.137 3.99039 -1.18631 0
M  V30 8623 H 795.67 3.0246 -2.58384 0
M  V30 8624 H 792.409 3.4976 -5.5439 0
M  V30 8625 H 791.929 4.39288 -4.08395 0
M  V30 8626 H 793.608 4.47523 -4.6726 0
M  V30 8627 N 793.74 1.17359 1.05189 0
M  V30 8628 C 794.987 0.961987 1.78191 0
M  V30 8629 C 795.315 -0.509363 1.87712 0
M  V30 8630 O 794.57 -1.39425 1.37329 0
M  V30 8631 C 794.869 1.54821 3.22126 0
M  V30 8632 C 794.535 3.04378 3.32663 0
M  V30 8633 C 793.197 3.45201 3.35246 0
M  V30 8634 C 795.549 4.00387 3.33677 0
M  V30 8635 C 792.877 4.80629 3.36471 0
M  V30 8636 C 795.229 5.35715 3.36441 0
M  V30 8637 C 793.893 5.76002 3.37311 0
M  V30 8638 H 793.163 0.352016 0.652047 0
M  V30 8639 H 795.81 1.46249 1.23627 0
M  V30 8640 H 794.115 0.969432 3.79617 0
M  V30 8641 H 795.812 1.36004 3.77232 0
M  V30 8642 H 792.402 2.71836 3.31366 0
M  V30 8643 H 796.586 3.69906 3.30882 0
M  V30 8644 H 791.842 5.11155 3.35455 0
M  V30 8645 H 796.016 6.09886 3.36173 0
M  V30 8646 H 793.643 6.80919 3.38013 0
M  V30 8647 N 795.218 -1.23913 0.973828 0
M  V30 8648 C 796.151 -2.23647 0.45355 0
M  V30 8649 C 797.129 -1.55485 -0.475724 0
M  V30 8650 O 798.313 -1.84083 -0.405689 0
M  V30 8651 C 795.44 -3.36942 -0.344594 0
M  V30 8652 C 794.486 -4.23221 0.527859 0
M  V30 8653 S 795.319 -4.97877 1.97177 0
M  V30 8654 C 796.475 -6.14627 1.18258 0
M  V30 8655 H 796.708 -2.67433 1.29873 0
M  V30 8656 H 794.241 -1.33289 0.779322 0
M  V30 8657 H 796.199 -4.02647 -0.799103 0
M  V30 8658 H 794.86 -2.91703 -1.16482 0
M  V30 8659 H 794.053 -5.03928 -0.0852555 0
M  V30 8660 H 793.655 -3.6255 0.918344 0
M  V30 8661 H 795.947 -6.76066 0.440629 0
M  V30 8662 H 796.89 -6.80311 1.96425 0
M  V30 8663 H 797.298 -5.6009 0.704256 0
M  V30 8664 N 796.696 -0.74468 -1.38897 0
M  V30 8665 C 797.973 -0.222773 -1.94327 0
M  V30 8666 C 798.353 1.27731 -1.68071 0
M  V30 8667 O 797.701 2.04754 -1.01429 0
M  V30 8668 C 797.911 -0.566836 -3.44366 0
M  V30 8669 C 799.259 -0.521531 -4.21385 0
M  V30 8670 O 800.283 -0.504599 -3.52608 0
M  V30 8671 O 799.142 -0.524595 -5.43976 0
M  V30 8672 H 796.236 -0.0439259 -0.825833 0
M  V30 8673 H 798.782 -0.824197 -1.48341 0
M  V30 8674 H 797.554 -1.60321 -3.56949 0
M  V30 8675 H 797.177 0.0630577 -3.9755 0
M  V30 8676 N 798.174 1.49689 -0.493057 0
M  V30 8677 C 799.402 2.06836 0.0513141 0
M  V30 8678 C 799.817 1.35436 1.31539 0
M  V30 8679 O 799.174 0.430248 1.77356 0
M  V30 8680 C 799.225 3.60107 0.317003 0
M  V30 8681 O 798.946 4.2882 -0.896957 0
M  V30 8682 C 800.447 4.33945 0.905902 0
M  V30 8683 H 797.667 0.670787 -0.0169048 0
M  V30 8684 H 800.211 1.92574 -0.688139 0
M  V30 8685 H 798.366 3.74099 1.00642 0
M  V30 8686 H 798.78 5.20395 -0.654939 0
M  V30 8687 H 800.254 5.42087 1.04144 0
M  V30 8688 H 800.731 3.95895 1.90168 0
M  V30 8689 H 801.337 4.2454 0.254195 0
M  V30 8690 N 799.652 0.226554 1.55963 0
M  V30 8691 C 800.877 -0.411527 2.03276 0
M  V30 8692 C 801.302 -1.52206 1.10521 0
M  V30 8693 O 800.66 -1.81054 0.0943217 0
M  V30 8694 C 800.708 -0.915694 3.4878 0
M  V30 8695 O 799.812 -2.02672 3.59163 0
M  V30 8696 H 799.153 -0.0924907 0.657527 0
M  V30 8697 H 801.683 0.346656 2.01642 0
M  V30 8698 H 801.693 -1.22421 3.892 0
M  V30 8699 H 800.368 -0.102915 4.15773 0
M  V30 8700 H 798.945 -1.72445 3.30632 0
M  V30 8701 N 801.13 -1.57531 -0.0467866 0
M  V30 8702 C 802.36 -1.92417 -0.752279 0
M  V30 8703 C 802.768 -0.823134 -1.70356 0
M  V30 8704 O 802.111 0.210598 -1.82489 0
M  V30 8705 C 802.173 -3.22974 -1.57887 0
M  V30 8706 C 801.837 -4.50045 -0.794285 0
M  V30 8707 C 802.834 -5.19799 -0.102368 0
M  V30 8708 C 800.519 -4.96608 -0.754061 0
M  V30 8709 C 802.513 -6.34385 0.619267 0
M  V30 8710 C 800.2 -6.11093 -0.0286682 0
M  V30 8711 C 801.198 -6.79835 0.656772 0
M  V30 8712 O 800.886 -7.92133 1.37042 0
M  V30 8713 H 800.618 -0.640029 -0.217576 0
M  V30 8714 H 803.172 -2.05395 -0.0137438 0
M  V30 8715 H 801.402 -3.06273 -2.3608 0
M  V30 8716 H 803.091 -3.43319 -2.16533 0
M  V30 8717 H 803.857 -4.8484 -0.124589 0
M  V30 8718 H 799.736 -4.42958 -1.27706 0
M  V30 8719 H 803.28 -6.87975 1.15483 0
M  V30 8720 H 799.177 -6.455 -0.00446214 0
M  V30 8721 H 799.945 -8.08394 1.28227 0
M  V30 8722 N 802.608 0.318715 -1.54344 0
M  V30 8723 C 803.571 1.37545 -1.83342 0
M  V30 8724 C 804.571 1.445 -0.705444 0
M  V30 8725 O 805.761 1.44443 -0.973752 0
M  V30 8726 C 802.893 2.76225 -1.99781 0
M  V30 8727 H 804.086 1.13084 -2.77762 0
M  V30 8728 H 801.639 0.554457 -1.46135 0
M  V30 8729 H 802.374 3.05934 -1.07588 0
M  V30 8730 H 802.159 2.7257 -2.81865 0
M  V30 8731 H 803.649 3.52664 -2.23647 0
M  V30 8732 N 804.086 1.46499 0.581025 0
M  V30 8733 C 805.335 1.51162 1.3354 0
M  V30 8734 C 805.648 0.168433 1.94873 0
M  V30 8735 O 806.854 0.092883 2.71341 0
M  V30 8736 C 805.31 2.66362 2.42032 0
M  V30 8737 C 804.918 4.07109 1.86994 0
M  V30 8738 C 806.662 2.80297 3.188 0
M  V30 8739 C 804.569 5.13645 2.93125 0
M  V30 8740 H 803.499 0.562576 0.502021 0
M  V30 8741 H 806.15 1.72713 0.619863 0
M  V30 8742 H 804.532 2.38143 3.16392 0
M  V30 8743 H 805.706 4.45125 1.19166 0
M  V30 8744 H 804.021 3.97854 1.22887 0
M  V30 8745 H 806.618 3.5706 3.9801 0
M  V30 8746 H 806.961 1.87875 3.71495 0
M  V30 8747 H 807.494 3.0817 2.51547 0
M  V30 8748 H 804.233 6.07866 2.45315 0
M  V30 8749 H 803.753 4.80172 3.59437 0
M  V30 8750 H 805.432 5.39562 3.57046 0
M  V30 8751 N 805.565 -0.825799 1.34232 0
M  V30 8752 C 806.528 -1.91808 1.25468 0
M  V30 8753 C 807.528 -1.59893 0.170567 0
M  V30 8754 O 808.718 -1.68986 0.422996 0
M  V30 8755 C 805.85 -3.27786 0.93644 0
M  V30 8756 H 807.043 -2.01003 2.22571 0
M  V30 8757 H 804.596 -1.01944 1.18479 0
M  V30 8758 H 805.331 -3.24285 -0.0315408 0
M  V30 8759 H 805.116 -3.52333 1.72057 0
M  V30 8760 H 806.606 -4.07782 0.900214 0
M  V30 8761 N 807.043 -1.17915 -1.04565 0
M  V30 8762 C 807.976 -0.845021 -2.11978 0
M  V30 8763 C 808.954 0.19089 -1.61476 0
M  V30 8764 O 810.138 0.0709905 -1.88366 0
M  V30 8765 C 807.265 -0.261657 -3.37688 0
M  V30 8766 C 806.311 -1.27396 -4.07029 0
M  V30 8767 S 807.144 -2.82783 -4.54746 0
M  V30 8768 C 808.3 -2.25944 -5.83695 0
M  V30 8769 H 808.533 -1.75472 -2.39993 0
M  V30 8770 H 806.066 -1.00447 -1.17259 0
M  V30 8771 H 808.024 0.0684257 -4.10443 0
M  V30 8772 H 806.685 0.626082 -3.07797 0
M  V30 8773 H 805.878 -0.814557 -4.97374 0
M  V30 8774 H 805.48 -1.55002 -3.40368 0
M  V30 8775 H 807.772 -1.63892 -6.57378 0
M  V30 8776 H 808.715 -3.14569 -6.34391 0
M  V30 8777 H 809.123 -1.69155 -5.3856 0
M  V30 8778 N 808.521 1.23394 -0.980386 0
M  V30 8779 C 809.471 2.22634 -0.491747 0
M  V30 8780 C 810.455 1.54958 0.433222 0
M  V30 8781 O 811.647 1.75049 0.262078 0
M  V30 8782 C 808.776 3.4269 0.204531 0
M  V30 8783 C 807.862 4.17594 -0.740007 0
M  V30 8784 N 808.253 4.69458 -1.88263 0
M  V30 8785 C 806.551 4.42554 -0.553335 0
M  V30 8786 C 807.252 5.26446 -2.47446 0
M  V30 8787 N 806.228 5.14377 -1.75834 0
M  V30 8788 H 810.03 2.60363 -1.36339 0
M  V30 8789 H 807.544 1.38924 -0.841059 0
M  V30 8790 H 809.541 4.12959 0.571901 0
M  V30 8791 H 808.201 3.06477 1.07246 0
M  V30 8792 H 809.212 4.65803 -2.26381 0
M  V30 8793 H 805.889 4.16629 0.269573 0
M  V30 8794 H 807.279 5.77195 -3.43941 0
M  V30 8795 N 809.999 0.752036 1.385 0
M  V30 8796 C 811.246 0.307503 2.00152 0
M  V30 8797 C 811.574 -1.11033 1.59693 0
M  V30 8798 O 810.829 -1.77455 0.825125 0
M  V30 8799 C 811.128 0.376155 3.55415 0
M  V30 8800 C 810.794 1.74942 4.15579 0
M  V30 8801 C 809.456 2.12525 4.31725 0
M  V30 8802 C 811.808 2.65031 4.48785 0
M  V30 8803 C 809.136 3.39671 4.78373 0
M  V30 8804 C 811.488 3.91567 4.96848 0
M  V30 8805 C 810.152 4.2922 5.11201 0
M  V30 8806 H 809.422 0.112523 0.732407 0
M  V30 8807 H 812.069 0.962213 1.65571 0
M  V30 8808 H 810.374 -0.362121 3.90123 0
M  V30 8809 H 812.071 0.0138065 4.00998 0
M  V30 8810 H 808.661 1.44726 4.03426 0
M  V30 8811 H 812.845 2.3726 4.35914 0
M  V30 8812 H 808.101 3.68765 4.8767 0
M  V30 8813 H 812.275 4.61517 5.21512 0
M  V30 8814 H 809.902 5.27805 5.47107 0
M  V30 8815 N 811.477 -1.49425 0.500989 0
M  V30 8816 C 812.427 -2.26061 -0.296698 0
M  V30 8817 C 813.411 -1.30906 -0.935541 0
M  V30 8818 O 814.603 -1.55628 -0.843142 0
M  V30 8819 C 811.732 -3.15189 -1.36055 0
M  V30 8820 C 810.818 -4.17806 -0.727952 0
M  V30 8821 N 811.209 -5.05516 0.169408 0
M  V30 8822 C 809.507 -4.34907 -0.988535 0
M  V30 8823 C 810.208 -5.79267 0.531509 0
M  V30 8824 N 809.184 -5.43507 -0.100564 0
M  V30 8825 H 812.986 -2.91246 0.394103 0
M  V30 8826 H 810.5 -1.59275 0.317065 0
M  V30 8827 H 812.497 -3.68724 -1.94547 0
M  V30 8828 H 811.157 -2.51556 -2.05303 0
M  V30 8829 H 812.168 -5.15075 0.540218 0
M  V30 8830 H 808.845 -3.82481 -1.67376 0
M  V30 8831 H 810.235 -6.59872 1.26564 0
M  V30 8832 N 812.955 -0.234822 -1.55841 0
M  V30 8833 C 813.885 0.664217 -2.23854 0
M  V30 8834 C 814.866 1.19076 -1.2147 0
M  V30 8835 O 816.051 1.23232 -1.50091 0
M  V30 8836 C 813.181 1.86666 -2.9287 0
M  V30 8837 C 812.135 1.47341 -4.01839 0
M  V30 8838 C 811.461 2.75571 -4.58219 0
M  V30 8839 C 812.761 0.653479 -5.18196 0
M  V30 8840 H 814.455 0.0971213 -2.99242 0
M  V30 8841 H 812.001 0.0452724 -1.43929 0
M  V30 8842 H 813.954 2.50116 -3.39146 0
M  V30 8843 H 812.678 2.45894 -2.1495 0
M  V30 8844 H 811.337 0.862314 -3.56314 0
M  V30 8845 H 810.985 3.32971 -3.77014 0
M  V30 8846 H 810.685 2.49987 -5.31771 0
M  V30 8847 H 812.209 3.39939 -5.07221 0
M  V30 8848 H 813.623 1.19198 -5.60771 0
M  V30 8849 H 812.02 0.494188 -5.98062 0
M  V30 8850 H 813.09 -0.337004 -4.83728 0
M  V30 8851 N 814.433 1.57553 0.0384317 0
M  V30 8852 C 815.658 1.93485 0.746872 0
M  V30 8853 C 816.083 0.834069 1.68597 0
M  V30 8854 O 815.441 -0.210902 1.80069 0
M  V30 8855 C 815.489 3.28463 1.4881 0
M  V30 8856 O 814.593 3.20051 2.60079 0
M  V30 8857 H 813.934 0.632675 0.201539 0
M  V30 8858 H 816.464 2.046 -0.00329815 0
M  V30 8859 H 816.474 3.63132 1.86009 0
M  V30 8860 H 815.149 4.08147 0.799297 0
M  V30 8861 H 813.726 2.96998 2.25492 0
M  V30 8862 N 815.911 -0.310526 1.54511 0
M  V30 8863 C 817.139 -1.06611 1.77318 0
M  V30 8864 C 817.554 -1.81265 0.528043 0
M  V30 8865 O 816.911 -1.75466 -0.50178 0
M  V30 8866 C 816.962 -2.05409 2.97472 0
M  V30 8867 O 816.683 -1.33785 4.17173 0
M  V30 8868 C 818.184 -2.93082 3.32593 0
M  V30 8869 H 815.404 -0.316578 0.591624 0
M  V30 8870 H 817.948 -0.352691 2.01436 0
M  V30 8871 H 816.103 -2.72266 2.7559 0
M  V30 8872 H 816.517 -2.00055 4.84849 0
M  V30 8873 H 817.991 -3.58274 4.19933 0
M  V30 8874 H 818.468 -3.60877 2.50329 0
M  V30 8875 H 819.074 -2.31768 3.566 0
M  V30 8876 N 817.389 -1.46805 -0.573248 0
M  V30 8877 C 818.614 -1.56433 -1.36175 0
M  V30 8878 C 819.039 -0.209336 -1.86932 0
M  V30 8879 O 818.397 0.812146 -1.62092 0
M  V30 8880 C 818.445 -2.58055 -2.51873 0
M  V30 8881 O 817.549 -2.12214 -3.53609 0
M  V30 8882 H 816.89 -0.526068 -0.405153 0
M  V30 8883 H 819.42 -1.92456 -0.694405 0
M  V30 8884 H 819.43 -2.77966 -2.98662 0
M  V30 8885 H 818.105 -3.56448 -2.14284 0
M  V30 8886 H 816.682 -2.02333 -3.13234 0
M  V30 8887 N 818.867 0.818669 -1.34668 0
M  V30 8888 C 819.799 1.93754 -1.22442 0
M  V30 8889 C 820.812 1.62103 -0.150501 0
M  V30 8890 O 822.001 1.73898 -0.402728 0
M  V30 8891 C 819.101 3.27806 -0.860031 0
M  V30 8892 C 818.274 3.8745 -2.02981 0
M  V30 8893 C 817.333 4.99887 -1.64314 0
M  V30 8894 O 816.359 5.17957 -2.36029 0
M  V30 8895 N 817.561 5.77795 -0.55976 0
M  V30 8896 H 820.326 2.04773 -2.18833 0
M  V30 8897 H 817.887 0.995472 -1.27679 0
M  V30 8898 H 819.879 4.00478 -0.583068 0
M  V30 8899 H 818.449 3.12597 0.0138253 0
M  V30 8900 H 817.669 3.07119 -2.47127 0
M  V30 8901 H 818.957 4.2403 -2.81204 0
M  V30 8902 H 818.355 5.65688 0.0363329 0
M  V30 8903 H 816.912 6.50899 -0.342541 0
M  V30 8904 N 820.346 1.18468 1.03938 0
M  V30 8905 C 821.592 0.982286 1.77423 0
M  V30 8906 C 821.925 -0.48679 1.88 0
M  V30 8907 O 821.2 -1.36146 1.38905 0
M  V30 8908 C 821.483 1.63929 3.20623 0
M  V30 8909 C 821.336 3.18132 3.17982 0
M  V30 8910 C 822.655 1.3536 4.18767 0
M  V30 8911 H 819.774 0.358264 0.644062 0
M  V30 8912 H 822.416 1.46154 1.21405 0
M  V30 8913 H 820.566 1.2318 3.68455 0
M  V30 8914 H 822.238 3.68024 2.78129 0
M  V30 8915 H 820.481 3.50225 2.55978 0
M  V30 8916 H 821.152 3.5924 4.19107 0
M  V30 8917 H 823.628 1.70669 3.79488 0
M  V30 8918 H 822.504 1.83896 5.17178 0
M  V30 8919 H 822.765 0.276722 4.41233 0
M  V30 8920 N 821.824 -1.22873 0.986916 0
M  V30 8921 C 823.235 -1.73264 0.695438 0
M  V30 8922 C 823.586 -1.79679 -0.788023 0
M  V30 8923 O 822.711 -1.43905 -1.61618 0
M  V30 8924 C 823.306 -3.14671 1.2557 0
M  V30 8925 C 821.865 -3.62492 1.01373 0
M  V30 8926 C 821.012 -2.40551 1.37951 0
M  V30 8927 H 823.963 -1.08304 1.15999 0
M  V30 8928 H 823.984 -3.75226 0.631322 0
M  V30 8929 H 823.496 -3.0997 2.33539 0
M  V30 8930 H 821.597 -3.72567 -0.0495917 0
M  V30 8931 H 821.71 -4.48944 1.67289 0
M  V30 8932 H 820.074 -2.41875 0.798033 0
M  V30 8933 H 820.857 -2.38516 2.46911 0
M  V30 8934 N 823.302 -0.75937 -1.38099 0
M  V30 8935 C 824.265 -0.14372 -2.28749 0
M  V30 8936 C 825.265 0.641338 -1.47457 0
M  V30 8937 O 826.455 0.466751 -1.67831 0
M  V30 8938 C 823.587 0.804545 -3.3127 0
M  V30 8939 H 824.78 -0.942663 -2.847 0
M  V30 8940 H 822.333 -0.526757 -1.47156 0
M  V30 8941 H 823.068 1.62895 -2.80421 0
M  V30 8942 H 822.853 0.243939 -3.9134 0
M  V30 8943 H 824.343 1.23111 -3.99041 0
M  V30 8944 N 824.78 1.49157 -0.508906 0
M  V30 8945 C 825.727 2.2927 0.265288 0
M  V30 8946 C 826.697 1.3603 0.953162 0
M  V30 8947 O 827.882 1.64989 0.958291 0
M  V30 8948 C 825.022 3.18897 1.31904 0
M  V30 8949 C 824.135 4.27201 0.642144 0
M  V30 8950 C 823.27 5.04033 1.67701 0
M  V30 8951 C 822.309 6.04165 0.982422 0
M  V30 8952 N 821.446 6.74133 1.96186 0
M  V30 8953 H 826.286 2.94967 -0.424107 0
M  V30 8954 H 823.823 1.45431 -0.220991 0
M  V30 8955 H 825.781 3.69242 1.94206 0
M  V30 8956 H 824.411 2.55168 1.97709 0
M  V30 8957 H 823.463 3.80283 -0.0943395 0
M  V30 8958 H 824.775 4.98708 0.0957507 0
M  V30 8959 H 823.929 5.58287 2.37487 0
M  V30 8960 H 822.668 4.32317 2.25728 0
M  V30 8961 H 821.673 5.49135 0.270378 0
M  V30 8962 H 822.898 6.7787 0.408554 0
M  V30 8963 H 820.844 6.05183 2.53159 0
M  V30 8964 H 820.761 7.41643 1.46634 0
M  V30 8965 H 822.029 7.32987 2.65236 0
M  V30 8966 N 826.258 0.243083 1.55714 0
M  V30 8967 C 827.486 -0.386971 2.03249 0
M  V30 8968 C 827.901 -1.51812 1.12243 0
M  V30 8969 O 827.258 -1.81992 0.136119 0
M  V30 8970 C 827.309 -0.898361 3.5016 0
M  V30 8971 O 827.03 0.187708 4.37698 0
M  V30 8972 C 828.531 -1.59949 4.13438 0
M  V30 8973 H 825.751 -0.0923981 0.664608 0
M  V30 8974 H 828.295 0.365832 2.01201 0
M  V30 8975 H 826.45 -1.60136 3.52754 0
M  V30 8976 H 826.864 -0.200001 5.24119 0
M  V30 8977 H 828.338 -1.90907 5.17937 0
M  V30 8978 H 828.815 -2.52014 3.59702 0
M  V30 8979 H 829.421 -0.941163 4.14756 0
M  V30 8980 N 827.736 -1.57571 -0.0300757 0
M  V30 8981 C 829.013 -1.80381 -0.756447 0
M  V30 8982 C 829.393 -0.840906 -1.93628 0
M  V30 8983 O 828.741 0.117143 -2.282 0
M  V30 8984 C 828.951 -3.2807 -1.19043 0
M  V30 8985 C 830.299 -3.93025 -1.60676 0
M  V30 8986 O 831.323 -3.32213 -1.28503 0
M  V30 8987 O 830.182 -5.00092 -2.20386 0
M  V30 8988 H 827.276 -0.741737 -0.365725 0
M  V30 8989 H 829.822 -1.69699 -0.00693177 0
M  V30 8990 H 828.594 -3.89748 -0.348128 0
M  V30 8991 H 828.217 -3.43637 -1.99999 0
M  V30 8992 N 829.214 0.302327 -1.54673 0
M  V30 8993 C 830.454 1.04568 -1.75627 0
M  V30 8994 C 830.818 1.84535 -0.530175 0
M  V30 8995 O 832.019 2.61613 -0.61743 0
M  V30 8996 C 830.29 1.92873 -3.0089 0
M  V30 8997 S 831.849 2.73872 -3.4284 0
M  V30 8998 H 828.667 0.352682 -0.617362 0
M  V30 8999 H 831.269 0.319239 -1.92876 0
M  V30 9000 H 829.973 1.32998 -3.88252 0
M  V30 9001 H 829.504 2.69887 -2.86225 0
M  V30 9002 H 831.519 3.95386 -2.99807 0
M  V30 9003 N 830.692 1.47107 0.565454 0
M  V30 9004 C 831.938 1.53535 1.32495 0
M  V30 9005 C 832.271 0.193537 1.93233 0
M  V30 9006 O 831.546 -0.796956 1.77423 0
M  V30 9007 C 831.829 2.64712 2.4413 0
M  V30 9008 C 831.682 4.08482 1.88314 0
M  V30 9009 C 833.001 2.71853 3.46098 0
M  V30 9010 H 830.12 0.558926 0.480386 0
M  V30 9011 H 832.762 1.79125 0.633575 0
M  V30 9012 H 830.912 2.43023 3.03104 0
M  V30 9013 H 832.584 4.4151 1.33665 0
M  V30 9014 H 830.827 4.17148 1.19037 0
M  V30 9015 H 831.498 4.82032 2.68978 0
M  V30 9016 H 833.974 2.91397 2.97031 0
M  V30 9017 H 832.85 3.51433 4.21646 0
M  V30 9018 H 833.111 1.78584 4.04426 0
M  V30 9019 N 832.17 -0.811516 1.35101 0
M  V30 9020 C 833.103 -1.92872 1.21966 0
M  V30 9021 C 834.081 -1.62236 0.108667 0
M  V30 9022 O 835.265 -1.8647 0.275875 0
M  V30 9023 C 832.392 -3.27152 0.876886 0
M  V30 9024 C 831.438 -3.7674 1.99924 0
M  V30 9025 S 832.271 -3.95132 3.61429 0
M  V30 9026 C 833.427 -5.32322 3.29218 0
M  V30 9027 H 833.66 -2.03718 2.16532 0
M  V30 9028 H 831.193 -0.968352 1.20259 0
M  V30 9029 H 833.151 -4.04729 0.685917 0
M  V30 9030 H 831.812 -3.14059 -0.0506289 0
M  V30 9031 H 831.005 -4.73981 1.71343 0
M  V30 9032 H 830.607 -3.06145 2.14829 0
M  V30 9033 H 832.899 -6.1614 2.8174 0
M  V30 9034 H 833.842 -5.65893 4.25641 0
M  V30 9035 H 834.25 -4.98374 2.65111 0
M  V30 9036 N 833.648 -1.19017 -1.03309 0
M  V30 9037 C 834.895 -0.990214 -1.76638 0
M  V30 9038 C 835.223 0.479435 -1.88498 0
M  V30 9039 O 834.478 1.37223 -1.39529 0
M  V30 9040 C 834.777 -1.59927 -3.19622 0
M  V30 9041 C 834.443 -3.09632 -3.27779 0
M  V30 9042 C 833.105 -3.50491 -3.29712 0
M  V30 9043 C 835.457 -4.05644 -3.27264 0
M  V30 9044 C 832.785 -4.85921 -3.28782 0
M  V30 9045 C 835.137 -5.41 -3.27875 0
M  V30 9046 C 833.801 -5.81295 -3.28104 0
M  V30 9047 H 833.071 -0.362345 -0.646364 0
M  V30 9048 H 835.718 -1.48197 -1.21284 0
M  V30 9049 H 834.023 -1.0297 -3.78027 0
M  V30 9050 H 835.72 -1.41989 -3.7502 0
M  V30 9051 H 832.31 -2.77073 -3.26999 0
M  V30 9052 H 836.494 -3.75124 -3.24955 0
M  V30 9053 H 831.75 -5.16427 -3.27281 0
M  V30 9054 H 835.924 -6.15157 -3.26428 0
M  V30 9055 H 833.551 -6.86211 -3.27138 0
M  V30 9056 N 835.127 1.22348 -0.993418 0
M  V30 9057 C 836.374 1.9111 -0.669568 0
M  V30 9058 C 836.702 1.77357 0.79843 0
M  V30 9059 O 835.957 1.13675 1.593 0
M  V30 9060 C 836.256 3.42477 -1.02197 0
M  V30 9061 C 835.922 3.7642 -2.48232 0
M  V30 9062 C 834.584 3.85395 -2.88139 0
M  V30 9063 C 836.936 3.9253 -3.42884 0
M  V30 9064 C 834.264 4.07918 -4.21687 0
M  V30 9065 C 836.616 4.16557 -4.76091 0
M  V30 9066 C 835.28 4.23757 -5.15739 0
M  V30 9067 H 834.55 0.699321 -0.245012 0
M  V30 9068 H 837.197 1.45102 -1.2497 0
M  V30 9069 H 835.502 3.90143 -0.359921 0
M  V30 9070 H 837.199 3.93935 -0.74942 0
M  V30 9071 H 833.789 3.70017 -2.16299 0
M  V30 9072 H 837.973 3.84974 -3.13224 0
M  V30 9073 H 833.229 4.11719 -4.51993 0
M  V30 9074 H 837.403 4.27966 -5.4938 0
M  V30 9075 H 835.03 4.40962 -6.19239 0
M  V30 9076 N 836.605 0.766683 1.37694 0
M  V30 9077 C 837.853 0.328065 1.9942 0
M  V30 9078 C 838.174 -1.09775 1.61166 0
M  V30 9079 O 837.444 -1.75288 0.874686 0
M  V30 9080 H 836.024 0.11831 0.737572 0
M  V30 9081 H 838.686 0.983686 1.68255 0
M  V30 9082 H 837.782 0.401647 3.09505 0
M  V30 9083 N 838.083 -1.48885 0.516809 0
M  V30 9084 C 839.494 -1.86557 0.0729921 0
M  V30 9085 C 839.845 -1.42767 -1.34581 0
M  V30 9086 O 838.97 -0.812514 -2.00567 0
M  V30 9087 C 839.565 -3.38567 0.125686 0
M  V30 9088 C 838.124 -3.75481 -0.262867 0
M  V30 9089 C 837.271 -2.72913 0.491281 0
M  V30 9090 H 840.222 -1.40978 0.728767 0
M  V30 9091 H 840.243 -3.74629 -0.665831 0
M  V30 9092 H 839.755 -3.70408 1.15842 0
M  V30 9093 H 837.856 -3.49251 -1.29824 0
M  V30 9094 H 837.969 -4.79052 0.067579 0
M  V30 9095 H 836.333 -2.54627 -0.0608525 0
M  V30 9096 H 837.116 -3.07599 1.5244 0
M  V30 9097 N 839.561 -0.251338 -1.55583 0
M  V30 9098 C 840.807 0.37272 -1.99346 0
M  V30 9099 C 841.14 1.57266 -1.13934 0
M  V30 9100 O 840.415 1.9343 -0.20377 0
M  V30 9101 C 840.698 0.778245 -3.5159 0
M  V30 9102 C 840.551 -0.427394 -4.47765 0
M  V30 9103 C 841.87 1.62358 -4.09057 0
M  V30 9104 H 838.989 0.134002 -0.724715 0
M  V30 9105 H 841.631 -0.353536 -1.86682 0
M  V30 9106 H 839.781 1.39704 -3.62512 0
M  V30 9107 H 841.453 -1.06586 -4.48818 0
M  V30 9108 H 839.696 -1.06972 -4.20404 0
M  V30 9109 H 840.367 -0.10025 -5.51909 0
M  V30 9110 H 842.843 1.1012 -4.01264 0
M  V30 9111 H 841.719 1.87617 -5.1584 0
M  V30 9112 H 841.98 2.59688 -3.57791 0
M  V30 9113 N 841.039 1.57585 0.0217189 0
M  V30 9114 C 842.285 1.89887 0.712099 0
M  V30 9115 C 842.618 0.849971 1.74611 0
M  V30 9116 O 841.893 -0.13407 1.94037 0
M  V30 9117 C 842.176 3.32815 1.37499 0
M  V30 9118 C 842.029 4.48405 0.353993 0
M  V30 9119 C 843.348 3.74786 2.30703 0
M  V30 9120 H 840.467 0.690588 0.257405 0
M  V30 9121 H 843.109 1.89983 -0.0251145 0
M  V30 9122 H 841.259 3.32863 2.00335 0
M  V30 9123 H 842.931 4.60491 -0.273015 0
M  V30 9124 H 841.174 4.32573 -0.32599 0
M  V30 9125 H 841.845 5.45316 0.85644 0
M  V30 9126 H 844.321 3.76151 1.77904 0
M  V30 9127 H 843.197 4.75585 2.74061 0
M  V30 9128 H 843.458 3.07449 3.17691 0
M  V30 9129 N 842.517 -0.29412 1.54831 0
M  V30 9130 C 843.928 -0.866651 1.65366 0
M  V30 9131 C 844.279 -1.87834 0.56681 0
M  V30 9132 O 843.404 -2.14374 -0.295389 0
M  V30 9133 C 843.999 -1.57869 2.99771 0
M  V30 9134 C 842.558 -2.09954 3.12404 0
M  V30 9135 C 841.705 -0.934492 2.6108 0
M  V30 9136 H 844.656 -0.0709551 1.58541 0
M  V30 9137 H 844.677 -2.44462 2.91579 0
M  V30 9138 H 844.189 -0.84212 3.78853 0
M  V30 9139 H 842.29 -2.86637 2.38055 0
M  V30 9140 H 842.403 -2.32934 4.18663 0
M  V30 9141 H 840.767 -1.32199 2.17705 0
M  V30 9142 H 841.55 -0.211768 3.42646 0
M  V30 9143 N 843.995 -1.47404 -0.557645 0
M  V30 9144 C 845.272 -1.44488 -1.31843 0
M  V30 9145 C 845.652 -0.1416 -2.10625 0
M  V30 9146 O 845 0.876908 -2.11004 0
M  V30 9147 C 845.21 -2.69016 -2.22331 0
M  V30 9148 C 846.558 -3.16212 -2.83364 0
M  V30 9149 O 847.582 -2.69741 -2.32634 0
M  V30 9150 O 846.441 -3.96999 -3.75571 0
M  V30 9151 H 843.535 -0.57578 -0.593639 0
M  V30 9152 H 846.081 -1.59605 -0.576584 0
M  V30 9153 H 844.853 -3.55406 -1.63715 0
M  V30 9154 H 844.476 -2.56484 -3.03812 0
M  V30 9155 N 845.473 0.80434 -1.35529 0
M  V30 9156 C 846.721 1.55845 -1.28673 0
M  V30 9157 C 847.042 1.94511 0.137976 0
M  V30 9158 O 846.312 1.63775 1.07492 0
M  V30 9159 H 844.892 0.577931 -0.473291 0
M  V30 9160 H 847.554 0.959293 -1.69657 0
M  V30 9161 H 846.65 2.47285 -1.90411 0
M  V30 9162 N 846.951 1.19563 1.02676 0
M  V30 9163 C 848.181 1.0234 1.79472 0
M  V30 9164 C 848.589 -0.430891 1.84228 0
M  V30 9165 O 847.932 -1.31106 1.28674 0
M  V30 9166 C 847.994 1.51901 3.25832 0
M  V30 9167 C 847.658 3.00045 3.44706 0
M  V30 9168 C 848.655 3.9779 3.34752 0
M  V30 9169 C 846.34 3.38784 3.70851 0
M  V30 9170 C 848.334 5.32267 3.50672 0
M  V30 9171 C 846.021 4.73419 3.86416 0
M  V30 9172 C 847.019 5.69969 3.7633 0
M  V30 9173 O 846.707 7.02165 3.91432 0
M  V30 9174 H 846.439 0.360936 0.571578 0
M  V30 9175 H 848.993 1.58863 1.30198 0
M  V30 9176 H 847.223 0.897546 3.7614 0
M  V30 9177 H 848.912 1.30853 3.84229 0
M  V30 9178 H 849.678 3.69207 3.14502 0
M  V30 9179 H 845.557 2.64183 3.77794 0
M  V30 9180 H 849.101 6.07612 3.42715 0
M  V30 9181 H 844.998 5.01697 4.06165 0
M  V30 9182 H 845.766 7.09268 4.08511 0
M  V30 9183 N 848.429 -1.21819 0.999893 0
M  V30 9184 C 849.677 -1.90375 0.678351 0
M  V30 9185 C 849.998 -1.78155 -0.792824 0
M  V30 9186 O 849.268 -1.17319 -1.56885 0
M  V30 9187 H 847.848 -0.704661 0.247915 0
M  V30 9188 H 850.51 -1.48021 1.2679 0
M  V30 9189 H 849.606 -2.97385 0.947023 0
M  V30 9190 N 849.908 -0.773975 -1.37286 0
M  V30 9191 C 851.154 -0.339809 -1.99933 0
M  V30 9192 C 851.487 1.0815 -1.61299 0
M  V30 9193 O 850.762 1.74442 -0.860252 0
M  V30 9194 C 851.045 -0.485919 -3.56806 0
M  V30 9195 C 850.898 -1.9498 -4.05343 0
M  V30 9196 C 852.217 0.108461 -4.39966 0
M  V30 9197 H 849.336 -0.124944 -0.726332 0
M  V30 9198 H 851.978 -0.977433 -1.6293 0
M  V30 9199 H 850.128 0.0569023 -3.88458 0
M  V30 9200 H 851.8 -2.5525 -3.84246 0
M  V30 9201 H 850.043 -2.45784 -3.57453 0
M  V30 9202 H 850.714 -2.00308 -5.14374 0
M  V30 9203 H 853.19 -0.354722 -4.14585 0
M  V30 9204 H 852.066 -0.0238926 -5.48895 0
M  V30 9205 H 852.327 1.19901 -4.25531 0
M  V30 9206 N 851.386 1.48609 -0.524698 0
M  V30 9207 C 852.626 2.04398 0.00938367 0
M  V30 9208 C 852.99 1.39355 1.32077 0
M  V30 9209 O 854.191 1.86 1.94055 0
M  V30 9210 C 852.462 3.57148 0.134318 0
M  V30 9211 S 854.021 4.34409 0.619227 0
M  V30 9212 H 850.839 0.710936 -0.00953362 0
M  V30 9213 H 853.441 1.82382 -0.704058 0
M  V30 9214 H 852.145 4.02022 -0.825027 0
M  V30 9215 H 851.676 3.83607 0.872296 0
M  V30 9216 H 853.691 4.59017 1.88462 0
M  V30 9217 N 852.864 0.259585 1.55447 0
M  V30 9218 C 854.094 -0.364863 2.03353 0
M  V30 9219 C 854.502 -1.5116 1.13786 0
M  V30 9220 O 853.845 -1.83109 0.147283 0
M  V30 9221 C 853.907 -0.922587 3.4746 0
M  V30 9222 C 853.571 0.0935207 4.56904 0
M  V30 9223 C 854.568 0.907571 5.11917 0
M  V30 9224 C 852.253 0.223276 5.01804 0
M  V30 9225 C 854.247 1.83771 6.10333 0
M  V30 9226 C 851.934 1.15691 6.00049 0
M  V30 9227 C 852.932 1.96264 6.54194 0
M  V30 9228 O 852.62 2.88052 7.50521 0
M  V30 9229 H 852.352 -0.0893313 0.670072 0
M  V30 9230 H 854.906 0.384821 2.01763 0
M  V30 9231 H 853.136 -1.72206 3.4624 0
M  V30 9232 H 854.825 -1.45846 3.78792 0
M  V30 9233 H 855.591 0.817979 4.78052 0
M  V30 9234 H 851.47 -0.393834 4.59315 0
M  V30 9235 H 855.014 2.46703 6.52521 0
M  V30 9236 H 850.911 1.24738 6.33333 0
M  V30 9237 H 851.679 2.82557 7.68182 0
M  V30 9238 N 854.342 -1.57594 -0.0133615 0
M  V30 9239 C 855.29 -2.08682 -1.02736 0
M  V30 9240 C 856.284 -1.00391 -1.36448 0
M  V30 9241 O 857.49 -1.18868 -1.35168 0
M  V30 9242 H 853.865 -0.666158 -0.34891 0
M  V30 9243 H 855.836 -2.9289 -0.570815 0
M  V30 9244 C 854.585 -2.5945 -2.31476 0
M  V30 9245 H 853.908 -3.42401 -2.06401 0
M  V30 9246 H 855.348 -2.98888 -3.00735 0
M  V30 9247 C 853.807 -1.50266 -3.01533 0
M  V30 9248 O 854.337 -0.877875 -3.9199 0
M  V30 9249 N 852.543 -1.23336 -2.63129 0
M  V30 9250 H 852.09 -1.74327 -1.89652 0
M  V30 9251 H 852.048 -0.504987 -3.10318 0
M  V30 9252 N 855.82 0.285905 -1.54985 0
M  V30 9253 C 857.231 0.857869 -1.65824 0
M  V30 9254 C 857.582 1.87531 -0.576763 0
M  V30 9255 O 856.707 2.14528 0.284016 0
M  V30 9256 C 857.302 1.56277 -3.00604 0
M  V30 9257 C 855.861 2.08294 -3.13513 0
M  V30 9258 C 855.008 0.920633 -2.61571 0
M  V30 9259 H 857.959 0.0625463 -1.58577 0
M  V30 9260 H 857.98 2.42912 -2.92872 0
M  V30 9261 H 857.492 0.822017 -3.79295 0
M  V30 9262 H 855.593 2.8537 -2.39572 0
M  V30 9263 H 855.706 2.3071 -4.19892 0
M  V30 9264 H 854.07 1.31043 -2.18403 0
M  V30 9265 H 854.853 0.193594 -3.42754 0
M  V30 9266 N 857.298 1.47698 0.54982 0
M  V30 9267 C 858.231 1.55288 1.67215 0
M  V30 9268 C 859.209 0.404533 1.57487 0
M  V30 9269 O 860.393 0.613372 1.78241 0
M  V30 9270 C 857.52 1.46233 3.05505 0
M  V30 9271 C 856.566 2.65662 3.33655 0
M  V30 9272 S 857.399 4.278 3.22098 0
M  V30 9273 C 858.555 4.21311 4.62869 0
M  V30 9274 H 858.788 2.50238 1.60524 0
M  V30 9275 H 856.321 1.35987 0.731227 0
M  V30 9276 H 858.279 1.41696 3.85269 0
M  V30 9277 H 856.94 0.526543 3.09655 0
M  V30 9278 H 856.133 2.55411 4.3449 0
M  V30 9279 H 855.735 2.67359 2.61524 0
M  V30 9280 H 858.027 3.90021 5.53977 0
M  V30 9281 H 858.97 5.22257 4.78177 0
M  V30 9282 H 859.378 3.52063 4.41262 0
M  V30 9283 N 858.776 -0.797141 1.35954 0
M  V30 9284 C 859.686 -1.94088 1.31784 0
M  V30 9285 C 860.702 -1.72588 0.221227 0
M  V30 9286 O 861.878 -1.96256 0.452255 0
M  V30 9287 C 858.943 -3.28828 1.09878 0
M  V30 9288 C 858.004 -3.63158 2.28942 0
M  V30 9289 C 857.237 -4.91469 2.08072 0
M  V30 9290 O 857.46 -5.60616 1.05196 0
M  V30 9291 O 856.394 -5.24277 2.95664 0
M  V30 9292 H 860.22 -2.00554 2.28061 0
M  V30 9293 H 857.805 -0.936288 1.16422 0
M  V30 9294 H 859.687 -4.09473 0.995485 0
M  V30 9295 H 858.362 -3.23271 0.16659 0
M  V30 9296 H 857.269 -2.82851 2.44839 0
M  V30 9297 H 858.602 -3.7343 3.20641 0
M  V30 9298 N 860.254 -1.20106 -1.0204 0
M  V30 9299 C 861.217 -0.948261 -2.08664 0
M  V30 9300 C 862.217 0.0746753 -1.60627 0
M  V30 9301 O 863.407 -0.160981 -1.73455 0
M  V30 9302 C 860.539 -0.426854 -3.38217 0
M  V30 9303 H 861.732 -1.894 -2.32524 0
M  V30 9304 H 859.285 -1.0159 -1.18782 0
M  V30 9305 H 860.02 0.524532 -3.2003 0
M  V30 9306 H 859.805 -1.16451 -3.74408 0
M  V30 9307 H 861.295 -0.269346 -4.1673 0
M  V30 9308 N 861.732 1.21287 -1.00634 0
M  V30 9309 C 862.682 2.21541 -0.53886 0
M  V30 9310 C 863.666 1.55842 0.400256 0
M  V30 9311 O 864.858 1.75566 0.224889 0
M  V30 9312 C 861.987 3.43047 0.131796 0
M  V30 9313 C 861.073 4.1593 -0.828419 0
M  V30 9314 N 861.464 4.65359 -1.98178 0
M  V30 9315 C 859.762 4.41281 -0.647083 0
M  V30 9316 C 860.463 5.21079 -2.58557 0
M  V30 9317 N 859.439 5.10531 -1.86705 0
M  V30 9318 H 863.241 2.57413 -1.41831 0
M  V30 9319 H 860.755 1.37109 -0.870338 0
M  V30 9320 H 862.752 4.14079 0.484178 0
M  V30 9321 H 861.412 3.08683 1.00721 0
M  V30 9322 H 862.423 4.60896 -2.3621 0
M  V30 9323 H 859.1 4.17107 0.181139 0
M  V30 9324 H 860.49 5.6977 -3.56107 0
M  V30 9325 N 863.21 0.781244 1.36873 0
M  V30 9326 C 864.459 0.34652 1.98701 0
M  V30 9327 C 864.772 -1.08555 1.62712 0
M  V30 9328 O 865.978 -1.62213 2.17713 0
M  V30 9329 C 864.434 0.568611 3.5538 0
M  V30 9330 C 864.042 2.01156 4.003 0
M  V30 9331 C 865.786 0.197983 4.24038 0
M  V30 9332 C 863.693 2.18074 5.49725 0
M  V30 9333 H 862.623 0.125821 0.743428 0
M  V30 9334 H 865.274 0.961721 1.56279 0
M  V30 9335 H 863.656 -0.116185 3.9583 0
M  V30 9336 H 864.83 2.73209 3.71071 0
M  V30 9337 H 863.145 2.33967 3.44454 0
M  V30 9338 H 865.742 0.302778 5.33842 0
M  V30 9339 H 866.085 -0.852927 4.07469 0
M  V30 9340 H 866.618 0.835696 3.88923 0
M  V30 9341 H 863.357 3.21519 5.71232 0
M  V30 9342 H 862.877 1.50517 5.80607 0
M  V30 9343 H 864.556 1.98393 6.15832 0
M  V30 9344 N 864.689 -1.48329 0.532571 0
M  V30 9345 C 865.637 -2.31336 -0.242133 0
M  V30 9346 C 866.631 -1.41391 -0.933006 0
M  V30 9347 O 867.837 -1.58284 -0.857096 0
M  V30 9348 H 864.212 -0.745724 -0.0969536 0
M  V30 9349 H 866.183 -2.94555 0.477504 0
M  V30 9350 C 864.932 -3.23501 -1.27446 0
M  V30 9351 H 864.255 -3.92659 -0.752261 0
M  V30 9352 H 865.695 -3.84461 -1.78789 0
M  V30 9353 C 864.154 -2.45288 -2.30944 0
M  V30 9354 O 864.684 -2.17955 -3.37429 0
M  V30 9355 N 862.89 -2.06737 -2.04226 0
M  V30 9356 H 862.437 -2.29166 -1.17647 0
M  V30 9357 H 862.395 -1.54719 -2.73696 0
M  V30 9358 N 866.167 -0.267825 -1.55308 0
M  V30 9359 C 867.414 0.351036 -1.99434 0
M  V30 9360 C 867.742 1.56406 -1.15618 0
M  V30 9361 O 866.997 1.94548 -0.212045 0
M  V30 9362 C 867.296 0.784247 -3.48689 0
M  V30 9363 C 866.962 -0.323328 -4.49739 0
M  V30 9364 C 865.624 -0.627467 -4.77091 0
M  V30 9365 C 867.976 -1.07002 -5.10098 0
M  V30 9366 C 865.304 -1.682 -5.62073 0
M  V30 9367 C 867.656 -2.11422 -5.96224 0
M  V30 9368 C 866.32 -2.42479 -6.21901 0
M  V30 9369 H 865.59 0.128453 -0.729781 0
M  V30 9370 H 868.237 -0.380018 -1.87692 0
M  V30 9371 H 866.542 1.59485 -3.57871 0
M  V30 9372 H 868.239 1.2737 -3.80234 0
M  V30 9373 H 864.829 -0.0761528 -4.28532 0
M  V30 9374 H 869.013 -0.848302 -4.88996 0
M  V30 9375 H 864.269 -1.92772 -5.80215 0
M  V30 9376 H 868.443 -2.69759 -6.4203 0
M  V30 9377 H 866.07 -3.24328 -6.87543 0
M  V30 9378 N 867.645 1.57599 0.00500368 0
M  V30 9379 C 868.87 1.95026 0.705663 0
M  V30 9380 C 869.295 0.869643 1.6679 0
M  V30 9381 O 868.653 -0.172659 1.80476 0
M  V30 9382 C 868.701 3.31545 1.4181 0
M  V30 9383 O 867.805 3.25495 2.53232 0
M  V30 9384 H 867.146 0.636808 0.188074 0
M  V30 9385 H 869.676 2.04547 -0.046696 0
M  V30 9386 H 869.686 3.66996 1.78265 0
M  V30 9387 H 868.361 4.09751 0.712543 0
M  V30 9388 H 866.938 3.01714 2.19142 0
M  V30 9389 N 869.123 -0.277682 1.55134 0
M  V30 9390 C 870.053 -1.34742 1.90701 0
M  V30 9391 C 871.034 -1.51757 0.768354 0
M  V30 9392 O 872.219 -1.64879 1.02609 0
M  V30 9393 C 869.349 -2.70775 2.17481 0
M  V30 9394 C 868.303 -2.68497 3.33307 0
M  V30 9395 C 867.629 -4.08037 3.45557 0
M  V30 9396 C 868.929 -2.28178 4.69821 0
M  V30 9397 H 870.623 -1.05224 2.803 0
M  V30 9398 H 868.169 -0.504738 1.34864 0
M  V30 9399 H 870.122 -3.45719 2.40949 0
M  V30 9400 H 868.846 -3.01867 1.24676 0
M  V30 9401 H 867.505 -1.9601 3.09799 0
M  V30 9402 H 867.153 -4.36344 2.50226 0
M  V30 9403 H 866.853 -4.07409 4.23429 0
M  V30 9404 H 868.377 -4.84726 3.71312 0
M  V30 9405 H 869.791 -2.92843 4.92865 0
M  V30 9406 H 868.188 -2.3872 5.50575 0
M  V30 9407 H 869.258 -1.23308 4.6896 0
M  V30 9408 N 870.601 -1.47988 -0.541979 0
M  V30 9409 C 871.826 -1.59286 -1.32826 0
M  V30 9410 C 872.251 -0.24894 -1.86445 0
M  V30 9411 O 871.609 0.777581 -1.63778 0
M  V30 9412 C 871.657 -2.6334 -2.46343 0
M  V30 9413 O 870.761 -2.19667 -3.49028 0
M  V30 9414 H 870.102 -0.534543 -0.393903 0
M  V30 9415 H 872.632 -1.93885 -0.653427 0
M  V30 9416 H 872.642 -2.84238 -2.92699 0
M  V30 9417 H 871.317 -3.60913 -2.06675 0
M  V30 9418 H 869.894 -2.08932 -3.08872 0
M  V30 9419 N 872.079 0.78992 -1.36375 0
M  V30 9420 C 873.042 1.88414 -1.30509 0
M  V30 9421 C 874.042 1.59384 -0.2129 0
M  V30 9422 O 875.232 1.67805 -0.467651 0
M  V30 9423 C 872.364 3.25188 -1.02302 0
M  V30 9424 H 873.557 1.95031 -2.27822 0
M  V30 9425 H 871.11 0.987664 -1.2114 0
M  V30 9426 H 871.845 3.24254 -0.0544486 0
M  V30 9427 H 871.63 3.47647 -1.81338 0
M  V30 9428 H 873.12 4.05252 -1.00801 0
M  V30 9429 N 873.557 1.20646 1.01402 0
M  V30 9430 C 874.787 1.04238 1.78376 0
M  V30 9431 C 875.195 -0.411327 1.84675 0
M  V30 9432 O 874.538 -1.29734 1.30057 0
M  V30 9433 C 874.6 1.55349 3.24202 0
M  V30 9434 C 874.264 3.03684 3.41504 0
M  V30 9435 C 875.261 4.01318 3.30514 0
M  V30 9436 C 872.946 3.42698 3.67237 0
M  V30 9437 C 874.94 5.35956 3.45007 0
M  V30 9438 C 872.627 4.77491 3.81373 0
M  V30 9439 C 873.625 5.73929 3.70263 0
M  V30 9440 O 873.313 7.06277 3.83963 0
M  V30 9441 H 873.045 0.366978 0.567718 0
M  V30 9442 H 875.599 1.60235 1.28506 0
M  V30 9443 H 873.829 0.93739 3.75166 0
M  V30 9444 H 875.518 1.34921 3.8282 0
M  V30 9445 H 876.284 3.72522 3.10568 0
M  V30 9446 H 872.163 2.68175 3.74971 0
M  V30 9447 H 875.707 6.11212 3.36252 0
M  V30 9448 H 871.604 5.05977 4.00821 0
M  V30 9449 H 872.372 7.13561 4.00965 0
M  V30 9450 N 875.035 -1.20752 1.01276 0
M  V30 9451 C 875.983 -2.25432 0.572989 0
M  V30 9452 C 876.977 -1.64935 -0.386354 0
M  V30 9453 O 878.183 -1.7816 -0.256696 0
M  V30 9454 H 874.558 -0.733229 0.166972 0
M  V30 9455 H 876.529 -2.59856 1.46687 0
M  V30 9456 C 875.278 -3.47615 -0.0768249 0
M  V30 9457 H 874.601 -3.94442 0.652354 0
M  V30 9458 H 876.041 -4.22572 -0.3477 0
M  V30 9459 C 874.5 -3.1003 -1.31845 0
M  V30 9460 O 875.03 -3.21216 -2.41211 0
M  V30 9461 N 873.236 -2.64616 -1.20111 0
M  V30 9462 H 872.783 -2.55714 -0.311184 0
M  V30 9463 H 872.741 -2.39838 -2.03286 0
M  V30 9464 N 876.513 -0.788492 -1.36457 0
M  V30 9465 C 877.738 -0.371224 -2.04051 0
M  V30 9466 C 878.163 1.004 -1.59064 0
M  V30 9467 O 877.521 1.64663 -0.758679 0
M  V30 9468 C 877.569 -0.442275 -3.57877 0
M  V30 9469 O 876.673 0.55113 -4.08701 0
M  V30 9470 H 876.014 -0.157808 -0.644975 0
M  V30 9471 H 878.544 -1.06935 -1.74431 0
M  V30 9472 H 878.554 -0.305548 -4.06854 0
M  V30 9473 H 877.229 -1.44547 -3.89973 0
M  V30 9474 H 875.806 0.37614 -3.70998 0
M  V30 9475 N 877.991 1.48044 -0.54043 0
M  V30 9476 C 879.231 2.04396 -0.012296 0
M  V30 9477 C 879.595 1.40748 1.30591 0
M  V30 9478 O 880.796 1.88048 1.92072 0
M  V30 9479 C 879.067 3.5727 0.0964302 0
M  V30 9480 S 880.626 4.35041 0.573117 0
M  V30 9481 H 877.444 0.710795 -0.0170735 0
M  V30 9482 H 880.046 1.81625 -0.723362 0
M  V30 9483 H 878.75 4.01124 -0.86762 0
M  V30 9484 H 878.281 3.84511 0.83156 0
M  V30 9485 H 880.296 4.6099 1.83583 0
M  V30 9486 N 879.47 0.276058 1.55163 0
M  V30 9487 C 880.433 -0.597924 2.21263 0
M  V30 9488 C 881.433 -1.0806 1.19078 0
M  V30 9489 O 882.623 -0.980626 1.43977 0
M  V30 9490 C 879.755 -1.82503 2.87933 0
M  V30 9491 H 880.948 -0.0207769 2.99893 0
M  V30 9492 H 878.501 0.0266823 1.56277 0
M  V30 9493 H 879.236 -2.44266 2.13318 0
M  V30 9494 H 879.021 -1.48683 3.62816 0
M  V30 9495 H 880.511 -2.44651 3.38431 0
M  V30 9496 N 880.948 -1.576 0.00335426 0
M  V30 9497 C 881.858 -2.12067 -1.00322 0
M  V30 9498 C 882.874 -1.06672 -1.37467 0
M  V30 9499 O 884.05 -1.38592 -1.46131 0
M  V30 9500 C 881.115 -2.61593 -2.27531 0
M  V30 9501 C 880.176 -3.81602 -1.96668 0
M  V30 9502 C 879.409 -4.28756 -3.17811 0
M  V30 9503 O 879.632 -3.75222 -4.2961 0
M  V30 9504 O 878.566 -5.20877 -3.01613 0
M  V30 9505 H 882.392 -2.98299 -0.570199 0
M  V30 9506 H 879.977 -1.47835 -0.215682 0
M  V30 9507 H 881.859 -2.93631 -3.02256 0
M  V30 9508 H 880.534 -1.78457 -2.70065 0
M  V30 9509 H 879.441 -3.54531 -1.19408 0
M  V30 9510 H 880.774 -4.65822 -1.58968 0
M  V30 9511 N 882.426 0.269451 -1.5528 0
M  V30 9512 C 883.654 1.01872 -1.80082 0
M  V30 9513 C 884.069 1.79802 -0.575917 0
M  V30 9514 O 883.426 1.76735 0.455081 0
M  V30 9515 C 883.477 1.9745 -3.02813 0
M  V30 9516 O 883.198 1.22677 -4.20573 0
M  V30 9517 C 884.699 2.8416 -3.40247 0
M  V30 9518 H 881.919 0.300781 -0.59981 0
M  V30 9519 H 884.463 0.29916 -2.023 0
M  V30 9520 H 882.618 2.64864 -2.82712 0
M  V30 9521 H 883.032 1.87129 -4.89982 0
M  V30 9522 H 884.506 3.47014 -4.29284 0
M  V30 9523 H 884.983 3.54113 -2.59809 0
M  V30 9524 H 885.589 2.22232 -3.6262 0
M  V30 9525 N 883.904 1.48273 0.534124 0
M  V30 9526 C 884.852 1.62926 1.66005 0
M  V30 9527 C 885.846 0.495814 1.61982 0
M  V30 9528 O 887.052 0.6744 1.66889 0
M  V30 9529 H 883.427 0.513163 0.549698 0
M  V30 9530 H 885.398 2.57498 1.50789 0
M  V30 9531 C 884.147 1.68231 3.04292 0
M  V30 9532 H 883.47 2.54807 3.0808 0
M  V30 9533 H 884.91 1.82528 3.827 0
M  V30 9534 C 883.369 0.420154 3.3427 0
M  V30 9535 O 883.899 -0.468769 3.98955 0
M  V30 9536 N 882.105 0.293115 2.89118 0
M  V30 9537 H 881.652 1.01745 2.36655 0
M  V30 9538 H 881.61 -0.550376 3.09545 0
M  V30 9539 N 885.382 -0.782676 1.36792 0
M  V30 9540 C 886.345 -1.8772 1.31507 0
M  V30 9541 C 887.345 -1.59269 0.221349 0
M  V30 9542 O 888.535 -1.67555 0.476544 0
M  V30 9543 C 885.667 -3.24641 1.04025 0
M  V30 9544 H 886.86 -1.9382 2.28853 0
M  V30 9545 H 884.413 -0.981226 1.21662 0
M  V30 9546 H 885.148 -3.24221 0.0716439 0
M  V30 9547 H 884.933 -3.46681 1.8318 0
M  V30 9548 H 886.423 -4.04711 1.02949 0
M  V30 9549 N 886.86 -1.21182 -1.00761 0
M  V30 9550 C 887.823 -0.970339 -2.07646 0
M  V30 9551 C 888.823 0.0576345 -1.60697 0
M  V30 9552 O 890.013 -0.179369 -1.73274 0
M  V30 9553 C 887.145 -0.462703 -3.37745 0
M  V30 9554 H 888.338 -1.91856 -2.30502 0
M  V30 9555 H 885.891 -1.02844 -1.17698 0
M  V30 9556 H 886.626 0.490559 -3.20568 0
M  V30 9557 H 886.411 -1.20416 -3.73152 0
M  V30 9558 H 887.901 -0.313531 -4.16421 0
M  V30 9559 N 888.338 1.20213 -1.01915 0
M  V30 9560 C 889.754 1.41696 -0.734459 0
M  V30 9561 C 889.954 1.89504 0.684867 0
M  V30 9562 O 889.01 2.06556 1.45227 0
M  V30 9563 C 890.323 2.43644 -1.76233 0
M  V30 9564 C 891.871 2.57406 -1.78076 0
M  V30 9565 C 892.346 3.626 -2.79796 0
M  V30 9566 N 893.837 3.70086 -2.78551 0
M  V30 9567 C 894.572 4.51145 -3.53915 0
M  V30 9568 N 894.068 5.35988 -4.38963 0
M  V30 9569 N 895.861 4.45702 -3.425 0
M  V30 9570 H 888.012 0.874976 -1.93541 0
M  V30 9571 H 890.275 0.446647 -0.836188 0
M  V30 9572 H 889.981 2.15519 -2.77929 0
M  V30 9573 H 889.855 3.42672 -1.57657 0
M  V30 9574 H 892.242 2.8486 -0.770634 0
M  V30 9575 H 892.323 1.58565 -2.00725 0
M  V30 9576 H 891.967 3.35889 -3.80973 0
M  V30 9577 H 891.897 4.61069 -2.54407 0
M  V30 9578 H 894.388 3.09484 -2.1686 0
M  V30 9579 H 894.701 5.94932 -4.9323 0
M  V30 9580 H 893.046 5.35482 -4.4304 0
M  V30 9581 H 896.237 3.78456 -2.75478 0
M  V30 9582 H 896.41 5.08637 -4.01487 0
M  V30 9583 N 889.816 0.795718 1.36037 0
M  V30 9584 C 890.746 0.212803 2.32528 0
M  V30 9585 C 891.727 -0.655716 1.56953 0
M  V30 9586 O 892.912 -0.588238 1.85077 0
M  V30 9587 C 890.042 -0.648189 3.41198 0
M  V30 9588 C 888.996 0.120948 4.27829 0
M  V30 9589 C 888.322 -0.861044 5.27722 0
M  V30 9590 C 889.622 1.31375 5.05508 0
M  V30 9591 H 891.316 1.01893 2.81528 0
M  V30 9592 H 888.862 0.491422 1.35355 0
M  V30 9593 H 890.815 -1.06597 4.07695 0
M  V30 9594 H 889.539 -1.48709 2.9078 0
M  V30 9595 H 888.198 0.519777 3.62897 0
M  V30 9596 H 887.846 -1.69515 4.73575 0
M  V30 9597 H 887.546 -0.350808 5.86552 0
M  V30 9598 H 889.07 -1.27726 5.97092 0
M  V30 9599 H 890.484 0.971406 5.6501 0
M  V30 9600 H 888.881 1.75772 5.73781 0
M  V30 9601 H 889.951 2.10593 4.36782 0
M  V30 9602 N 891.294 -1.47756 0.548274 0
M  V30 9603 C 892.257 -2.28379 -0.193857 0
M  V30 9604 C 893.257 -1.36436 -0.850986 0
M  V30 9605 O 894.447 -1.59154 -0.70822 0
M  V30 9606 C 891.579 -3.15858 -1.28243 0
M  V30 9607 H 892.772 -2.95458 0.514231 0
M  V30 9608 H 890.325 -1.53298 0.304879 0
M  V30 9609 H 891.06 -2.5345 -2.0232 0
M  V30 9610 H 890.845 -3.83512 -0.816148 0
M  V30 9611 H 892.335 -3.76627 -1.80393 0
M  V30 9612 N 892.772 -0.284283 -1.55015 0
M  V30 9613 C 893.722 0.613913 -2.19579 0
M  V30 9614 C 894.706 1.11153 -1.16335 0
M  V30 9615 O 895.898 1.05508 -1.42116 0
M  V30 9616 C 893.027 1.79329 -2.92739 0
M  V30 9617 C 892.113 1.31242 -4.03282 0
M  V30 9618 N 892.504 0.548344 -5.02819 0
M  V30 9619 C 890.802 1.5946 -4.1652 0
M  V30 9620 C 891.503 0.294358 -5.80955 0
M  V30 9621 N 890.479 0.869406 -5.36603 0
M  V30 9622 H 894.281 0.0224088 -2.93891 0
M  V30 9623 H 891.795 -0.0882619 -1.6216 0
M  V30 9624 H 893.792 2.44814 -3.37449 0
M  V30 9625 H 892.452 2.38865 -2.1994 0
M  V30 9626 H 893.463 0.194812 -5.17533 0
M  V30 9627 H 890.14 2.19866 -3.54916 0
M  V30 9628 H 891.53 -0.318195 -6.71146 0
M  V30 9629 N 894.251 1.57596 -0.0117121 0
M  V30 9630 C 895.481 1.95077 0.680346 0
M  V30 9631 C 895.889 0.885793 1.67184 0
M  V30 9632 O 895.232 -0.142723 1.83145 0
M  V30 9633 C 895.294 3.28611 1.45791 0
M  V30 9634 C 894.958 4.52682 0.626706 0
M  V30 9635 C 895.955 5.19821 -0.0906223 0
M  V30 9636 C 893.64 4.99064 0.569229 0
M  V30 9637 C 895.634 6.31649 -0.854289 0
M  V30 9638 C 893.321 6.10779 -0.198155 0
M  V30 9639 C 894.319 6.76929 -0.908636 0
M  V30 9640 O 894.007 7.86501 -1.66348 0
M  V30 9641 H 893.739 0.647663 0.193672 0
M  V30 9642 H 896.293 2.05305 -0.0624969 0
M  V30 9643 H 894.523 3.14824 2.2455 0
M  V30 9644 H 896.212 3.51119 2.03642 0
M  V30 9645 H 896.978 4.84968 -0.0554421 0
M  V30 9646 H 892.857 4.47393 1.11178 0
M  V30 9647 H 896.401 6.83215 -1.40937 0
M  V30 9648 H 892.298 6.45072 -0.235114 0
M  V30 9649 H 893.066 8.03078 -1.58141 0
M  V30 9650 N 895.729 -0.261212 1.5542 0
M  V30 9651 C 896.659 -1.32712 1.92119 0
M  V30 9652 C 897.64 -1.50934 0.784406 0
M  V30 9653 O 898.825 -1.63781 1.04352 0
M  V30 9654 C 895.955 -2.68453 2.20341 0
M  V30 9655 C 894.909 -2.64947 3.36136 0
M  V30 9656 C 894.235 -4.04349 3.49865 0
M  V30 9657 C 895.535 -2.23182 4.72215 0
M  V30 9658 H 897.229 -1.02245 2.81401 0
M  V30 9659 H 894.775 -0.490406 1.35392 0
M  V30 9660 H 896.728 -3.43144 2.44603 0
M  V30 9661 H 895.452 -3.00527 1.27871 0
M  V30 9662 H 894.111 -1.92714 3.11861 0
M  V30 9663 H 893.759 -4.33665 2.5484 0
M  V30 9664 H 893.459 -4.02895 4.27726 0
M  V30 9665 H 894.983 -4.80761 3.76432 0
M  V30 9666 H 896.397 -2.87599 4.95943 0
M  V30 9667 H 894.794 -2.32867 5.53076 0
M  V30 9668 H 895.864 -1.18327 4.70241 0
M  V30 9669 N 897.207 -1.48554 -0.526253 0
M  V30 9670 C 898.117 -1.66044 -1.65731 0
M  V30 9671 C 899.133 -0.542951 -1.65312 0
M  V30 9672 O 900.309 -0.814495 -1.84195 0
M  V30 9673 C 897.374 -1.69959 -3.02184 0
M  V30 9674 C 896.435 -2.93362 -3.13428 0
M  V30 9675 C 895.668 -2.97081 -4.43372 0
M  V30 9676 O 895.891 -2.09103 -5.3069 0
M  V30 9677 O 894.825 -3.8929 -4.59061 0
M  V30 9678 H 898.651 -2.61811 -1.53912 0
M  V30 9679 H 896.236 -1.31999 -0.699759 0
M  V30 9680 H 898.118 -1.75033 -3.83329 0
M  V30 9681 H 896.793 -0.773658 -3.14319 0
M  V30 9682 H 895.7 -2.93818 -2.31564 0
M  V30 9683 H 897.033 -3.85352 -3.06211 0
M  V30 9684 N 898.685 0.775411 -1.37205 0
M  V30 9685 C 899.632 1.88857 -1.32671 0
M  V30 9686 C 900.602 1.64976 -0.192899 0
M  V30 9687 O 901.787 1.86944 -0.381673 0
M  V30 9688 C 898.927 3.25871 -1.13588 0
M  V30 9689 C 898.04 3.61731 -2.36167 0
M  V30 9690 C 897.175 4.87934 -2.09985 0
M  V30 9691 C 896.214 5.16514 -3.2845 0
M  V30 9692 N 895.351 6.33905 -3.01842 0
M  V30 9693 H 900.191 1.92068 -2.27846 0
M  V30 9694 H 897.728 0.939066 -1.13225 0
M  V30 9695 H 899.686 4.04903 -1.00546 0
M  V30 9696 H 898.316 3.22045 -0.220613 0
M  V30 9697 H 897.368 2.77712 -2.59962 0
M  V30 9698 H 898.68 3.78792 -3.24528 0
M  V30 9699 H 897.834 5.74863 -1.93953 0
M  V30 9700 H 896.573 4.7297 -1.18956 0
M  V30 9701 H 895.578 4.28063 -3.45025 0
M  V30 9702 H 896.803 5.33389 -4.20325 0
M  V30 9703 H 894.749 6.20306 -2.13439 0
M  V30 9704 H 894.666 6.51364 -3.83746 0
M  V30 9705 H 895.934 7.23779 -2.8942 0
M  V30 9706 N 900.163 1.21714 1.00117 0
M  V30 9707 C 901.126 0.981338 2.07129 0
M  V30 9708 C 902.126 -0.0491116 1.60725 0
M  V30 9709 O 903.316 0.188555 1.73177 0
M  V30 9710 C 900.448 0.480608 3.37495 0
M  V30 9711 H 901.641 1.93075 2.29482 0
M  V30 9712 H 899.194 1.03467 1.17151 0
M  V30 9713 H 899.929 -0.473552 3.20824 0
M  V30 9714 H 899.714 1.22393 3.72508 0
M  V30 9715 H 901.204 0.33561 4.16249 0
M  V30 9716 N 901.641 -1.19671 1.02551 0
M  V30 9717 C 902.571 -2.25009 0.623965 0
M  V30 9718 C 903.552 -1.66129 -0.36538 0
M  V30 9719 O 904.737 -1.92599 -0.248842 0
M  V30 9720 C 901.867 -3.47287 -0.0294869 0
M  V30 9721 C 900.821 -4.18818 0.881781 0
M  V30 9722 C 900.147 -5.34618 0.0936189 0
M  V30 9723 C 901.447 -4.73986 2.19396 0
M  V30 9724 H 903.141 -2.58851 1.50454 0
M  V30 9725 H 900.687 -1.24425 0.724872 0
M  V30 9726 H 902.64 -4.20168 -0.322016 0
M  V30 9727 H 901.364 -3.12635 -0.944838 0
M  V30 9728 H 900.023 -3.47815 1.15845 0
M  V30 9729 H 899.671 -4.9621 -0.823661 0
M  V30 9730 H 899.371 -5.83409 0.700568 0
M  V30 9731 H 900.895 -6.10297 -0.192249 0
M  V30 9732 H 902.309 -5.38639 1.96319 0
M  V30 9733 H 900.706 -5.3325 2.75254 0
M  V30 9734 H 901.776 -3.92238 2.85092 0
M  V30 9735 N 903.119 -0.802921 -1.35613 0
M  V30 9736 C 904.049 -0.225131 -2.32412 0
M  V30 9737 C 905.03 0.647383 -1.57299 0
M  V30 9738 O 906.215 0.578414 -1.85386 0
M  V30 9739 C 903.345 0.630085 -3.41537 0
M  V30 9740 C 902.299 -0.143635 -4.27759 0
M  V30 9741 C 901.625 0.833046 -5.28171 0
M  V30 9742 C 902.925 -1.34054 -5.04804 0
M  V30 9743 H 904.619 -1.03385 -2.80984 0
M  V30 9744 H 902.165 -0.498593 -1.35093 0
M  V30 9745 H 904.118 1.04433 -4.08254 0
M  V30 9746 H 902.842 1.47165 -2.91565 0
M  V30 9747 H 901.501 -0.539015 -3.62616 0
M  V30 9748 H 901.149 1.67001 -4.74468 0
M  V30 9749 H 900.849 0.319697 -5.8673 0
M  V30 9750 H 902.373 1.24558 -5.97761 0
M  V30 9751 H 903.787 -1.00136 -5.64487 0
M  V30 9752 H 902.184 -1.78812 -5.72841 0
M  V30 9753 H 903.254 -2.12906 -4.35659 0
M  V30 9754 N 904.597 1.47463 -0.556102 0
M  V30 9755 C 905.874 1.9557 0.0339892 0
M  V30 9756 C 906.254 1.49869 1.48669 0
M  V30 9757 O 905.602 0.737019 2.16288 0
M  V30 9758 C 905.812 3.48826 -0.110343 0
M  V30 9759 C 907.16 4.24585 0.0355716 0
M  V30 9760 O 908.184 3.5618 -0.0378356 0
M  V30 9761 O 907.043 5.46158 0.193299 0
M  V30 9762 H 904.137 0.824461 0.0647521 0
M  V30 9763 H 906.683 1.57868 -0.622547 0
M  V30 9764 H 905.455 3.74891 -1.12126 0
M  V30 9765 H 905.078 3.9329 0.583855 0
M  V30 9766 N 906.075 0.2925 1.54862 0
M  V30 9767 C 907.008 -0.629155 2.19356 0
M  V30 9768 C 907.986 -1.13927 1.16014 0
M  V30 9769 O 909.17 -1.20904 1.44618 0
M  V30 9770 C 906.297 -1.8599 2.83064 0
M  V30 9771 C 905.343 -1.48376 3.99859 0
M  V30 9772 S 906.176 -0.546976 5.32699 0
M  V30 9773 C 907.332 -1.7857 5.99886 0
M  V30 9774 H 907.565 -0.0812166 2.97189 0
M  V30 9775 H 905.098 0.0766721 1.5421 0
M  V30 9776 H 907.056 -2.56623 3.20398 0
M  V30 9777 H 905.717 -2.37899 2.05092 0
M  V30 9778 H 904.91 -2.40002 4.43187 0
M  V30 9779 H 904.512 -0.857447 3.64038 0
M  V30 9780 H 906.804 -2.7274 6.20177 0
M  V30 9781 H 907.747 -1.39513 6.9422 0
M  V30 9782 H 908.155 -1.95856 5.29434 0
M  V30 9783 N 907.553 -1.57587 0.0200696 0
M  V30 9784 C 908.969 -1.56018 -0.336237 0
M  V30 9785 C 909.169 -1.02478 -1.73495 0
M  V30 9786 O 908.225 -0.667487 -2.43518 0
M  V30 9787 C 909.538 -3.00079 -0.193112 0
M  V30 9788 C 911.086 -3.11863 -0.266557 0
M  V30 9789 C 911.561 -4.57747 -0.152326 0
M  V30 9790 N 913.052 -4.62726 -0.209596 0
M  V30 9791 C 913.787 -5.73217 -0.144855 0
M  V30 9792 N 913.283 -6.92794 -0.0295487 0
M  V30 9793 N 915.076 -5.61751 -0.198184 0
M  V30 9794 H 907.227 -1.90722 0.93482 0
M  V30 9795 H 909.49 -0.876909 0.360186 0
M  V30 9796 H 909.196 -3.43167 0.770036 0
M  V30 9797 H 909.07 -3.64593 -0.967029 0
M  V30 9798 H 911.457 -2.68693 -1.22016 0
M  V30 9799 H 911.538 -2.50087 0.53758 0
M  V30 9800 H 911.182 -5.01595 0.797817 0
M  V30 9801 H 911.112 -5.17491 -0.97521 0
M  V30 9802 H 913.603 -3.76713 -0.299229 0
M  V30 9803 H 913.916 -7.72799 0.0134071 0
M  V30 9804 H 912.261 -6.95 0.00510737 0
M  V30 9805 H 915.452 -4.67222 -0.286603 0
M  V30 9806 H 915.625 -6.47839 -0.144266 0
M  V30 9807 N 909.032 0.252966 -1.55557 0
M  V30 9808 C 909.995 1.29645 -1.8901 0
M  V30 9809 C 910.995 1.41378 -0.766096 0
M  V30 9810 O 912.185 1.40183 -1.03414 0
M  V30 9811 C 909.317 2.67504 -2.11316 0
M  V30 9812 H 910.51 1.01202 -2.82309 0
M  V30 9813 H 908.063 0.491977 -1.48355 0
M  V30 9814 H 908.798 3.01095 -1.20466 0
M  V30 9815 H 908.583 2.6037 -2.93172 0
M  V30 9816 H 910.073 3.42861 -2.38403 0
M  V30 9817 N 910.51 1.48831 0.518367 0
M  V30 9818 C 911.44 1.67119 1.63075 0
M  V30 9819 C 912.421 0.519948 1.61958 0
M  V30 9820 O 913.606 0.753824 1.78972 0
M  V30 9821 C 910.736 1.72158 3.01627 0
M  V30 9822 C 909.69 2.86898 3.17606 0
M  V30 9823 C 909.016 2.77035 4.57335 0
M  V30 9824 C 910.316 4.28057 2.99274 0
M  V30 9825 H 912.01 2.60248 1.48025 0
M  V30 9826 H 909.556 1.2524 0.710694 0
M  V30 9827 H 911.509 1.83539 3.7933 0
M  V30 9828 H 910.233 0.756157 3.17726 0
M  V30 9829 H 908.892 2.75091 2.42323 0
M  V30 9830 H 908.54 1.78438 4.70286 0
M  V30 9831 H 908.24 3.54036 4.6897 0
M  V30 9832 H 909.764 2.904 5.37122 0
M  V30 9833 H 911.178 4.40636 3.6676 0
M  V30 9834 H 909.575 5.06145 3.22393 0
M  V30 9835 H 910.645 4.4371 1.95574 0
M  V30 9836 N 911.988 -0.768124 1.37614 0
M  V30 9837 C 912.918 -1.89537 1.36374 0
M  V30 9838 C 913.899 -1.68513 0.231803 0
M  V30 9839 O 915.084 -1.89318 0.432705 0
M  V30 9840 C 912.214 -3.26871 1.17358 0
M  V30 9841 C 911.168 -3.62466 2.27602 0
M  V30 9842 C 910.494 -4.9838 1.93705 0
M  V30 9843 C 911.794 -3.68841 3.69802 0
M  V30 9844 H 913.488 -1.90832 2.30702 0
M  V30 9845 H 911.034 -0.91672 1.11051 0
M  V30 9846 H 912.987 -4.05371 1.15119 0
M  V30 9847 H 911.711 -3.26018 0.194865 0
M  V30 9848 H 910.37 -2.86276 2.29002 0
M  V30 9849 H 910.018 -4.94071 0.943539 0
M  V30 9850 H 909.718 -5.23165 2.6753 0
M  V30 9851 H 911.242 -5.79276 1.93059 0
M  V30 9852 H 912.656 -4.37485 3.70513 0
M  V30 9853 H 911.053 -4.05126 4.42711 0
M  V30 9854 H 912.123 -2.69415 4.03167 0
M  V30 9855 N 913.466 -1.22244 -0.994698 0
M  V30 9856 C 914.398 -0.948706 -2.08644 0
M  V30 9857 C 915.411 0.0720049 -1.62641 0
M  V30 9858 O 916.6 -0.161778 -1.77765 0
M  V30 9859 C 913.7 -0.404885 -3.36473 0
M  V30 9860 C 912.873 -1.48239 -4.11514 0
M  V30 9861 C 911.932 -0.94597 -5.17627 0
M  V30 9862 O 910.958 -1.63177 -5.45309 0
M  V30 9863 N 912.16 0.23355 -5.8003 0
M  V30 9864 H 914.925 -1.88858 -2.32707 0
M  V30 9865 H 912.486 -1.12908 -1.16032 0
M  V30 9866 H 914.478 -0.0313903 -4.04688 0
M  V30 9867 H 913.048 0.440061 -3.09487 0
M  V30 9868 H 912.268 -2.02928 -3.37955 0
M  V30 9869 H 913.556 -2.20741 -4.58422 0
M  V30 9870 H 912.954 0.80756 -5.59906 0
M  V30 9871 H 911.511 0.54845 -6.49488 0
M  V30 9872 N 914.944 1.19125 -1.03184 0
M  V30 9873 C 916.169 1.93379 -0.749628 0
M  V30 9874 C 916.594 1.75153 0.685785 0
M  V30 9875 O 915.952 1.05579 1.47386 0
M  V30 9876 C 916 3.43101 -1.1097 0
M  V30 9877 O 915.104 4.11758 -0.230053 0
M  V30 9878 H 914.445 0.603605 -0.276689 0
M  V30 9879 H 916.975 1.51116 -1.37931 0
M  V30 9880 H 916.985 3.93778 -1.06785 0
M  V30 9881 H 915.66 3.55688 -2.15544 0
M  V30 9882 H 914.237 3.7143 -0.330748 0
M  V30 9883 N 916.422 0.810101 1.35185 0
M  V30 9884 C 917.372 0.195541 2.2716 0
M  V30 9885 C 918.356 -0.632691 1.47939 0
M  V30 9886 O 919.548 -0.489372 1.701 0
M  V30 9887 C 916.677 -0.652164 3.37049 0
M  V30 9888 C 915.763 0.185989 4.23692 0
M  V30 9889 N 916.154 1.25073 4.90092 0
M  V30 9890 C 914.452 -0.0318033 4.45989 0
M  V30 9891 C 915.153 1.76272 5.54349 0
M  V30 9892 N 914.129 1.06861 5.32993 0
M  V30 9893 H 917.931 1.01018 2.75994 0
M  V30 9894 H 915.445 0.651612 1.48754 0
M  V30 9895 H 917.442 -1.10851 4.01893 0
M  V30 9896 H 916.102 -1.46511 2.89767 0
M  V30 9897 H 917.113 1.63341 4.91467 0
M  V30 9898 H 913.79 -0.813607 4.09496 0
M  V30 9899 H 915.18 2.65278 6.17315 0
M  V30 9900 N 917.9 -1.47166 0.563914 0
M  V30 9901 C 919.311 -1.86231 0.132307 0
M  V30 9902 C 919.662 -1.46976 -1.29971 0
M  V30 9903 O 918.787 -0.875911 -1.97881 0
M  V30 9904 C 919.382 -3.37996 0.233335 0
M  V30 9905 C 917.941 -3.76127 -0.143278 0
M  V30 9906 C 917.088 -2.71212 0.577857 0
M  V30 9907 H 920.039 -1.38588 0.773249 0
M  V30 9908 H 920.06 -3.76558 -0.546309 0
M  V30 9909 H 919.572 -3.66535 1.27568 0
M  V30 9910 H 917.673 -3.53205 -1.18648 0
M  V30 9911 H 917.786 -4.78595 0.219952 0
M  V30 9912 H 916.15 -2.54692 0.020186 0
M  V30 9913 H 916.933 -3.02593 1.62149 0
M  V30 9914 N 919.378 -0.300708 -1.54705 0
M  V30 9915 C 920.794 0.0526874 -1.59513 0
M  V30 9916 C 920.994 1.52444 -1.31769 0
M  V30 9917 O 920.05 2.27716 -1.09096 0
M  V30 9918 C 921.363 -0.344989 -2.98714 0
M  V30 9919 C 922.911 -0.29373 -3.11619 0
M  V30 9920 C 923.386 -0.666225 -4.53129 0
M  V30 9921 N 924.877 -0.618749 -4.59049 0
M  V30 9922 C 925.612 -0.879447 -5.66616 0
M  V30 9923 N 925.108 -1.2061 -6.82221 0
M  V30 9924 N 926.901 -0.806528 -5.56284 0
M  V30 9925 H 919.052 -1.25988 -1.71 0
M  V30 9926 H 921.315 -0.510758 -0.798643 0
M  V30 9927 H 921.021 -1.36953 -3.2394 0
M  V30 9928 H 920.895 0.301507 -3.75993 0
M  V30 9929 H 923.282 0.72156 -2.86142 0
M  V30 9930 H 923.363 -0.974844 -2.36496 0
M  V30 9931 H 923.007 -1.67932 -4.79334 0
M  V30 9932 H 922.937 0.0369575 -5.26587 0
M  V30 9933 H 925.428 -0.377202 -3.76013 0
M  V30 9934 H 925.741 -1.391 -7.60178 0
M  V30 9935 H 924.086 -1.24413 -6.83774 0
M  V30 9936 H 927.277 -0.550993 -4.64846 0
M  V30 9937 H 927.45 -1.01307 -6.40032 0
M  V30 9938 N 920.856 1.57574 -0.0284266 0
M  V30 9939 C 921.819 2.09096 0.938691 0
M  V30 9940 C 922.819 1.00588 1.25454 0
M  V30 9941 O 924.009 1.2675 1.19499 0
M  V30 9942 C 921.141 2.55624 2.25542 0
M  V30 9943 H 922.334 2.95829 0.49248 0
M  V30 9944 H 919.887 1.5475 0.219594 0
M  V30 9945 H 920.622 1.72218 2.74793 0
M  V30 9946 H 920.407 3.34896 2.03929 0
M  V30 9947 H 921.897 2.95712 2.94863 0
M  V30 9948 N 922.334 -0.244713 1.55689 0
M  V30 9949 C 923.281 -1.30301 1.905 0
M  V30 9950 C 924.251 -1.4772 0.759478 0
M  V30 9951 O 925.436 -1.61667 1.01333 0
M  V30 9952 C 922.576 -2.653 2.20703 0
M  V30 9953 C 921.689 -2.55872 3.48071 0
M  V30 9954 C 920.824 -3.83238 3.67834 0
M  V30 9955 C 919.863 -3.68436 4.88796 0
M  V30 9956 N 919 -4.877 5.05068 0
M  V30 9957 H 923.84 -0.999143 2.80751 0
M  V30 9958 H 921.377 -0.482099 1.38976 0
M  V30 9959 H 923.335 -3.43884 2.36219 0
M  V30 9960 H 921.965 -2.93831 1.33653 0
M  V30 9961 H 921.017 -1.68846 3.40874 0
M  V30 9962 H 922.329 -2.40845 4.36801 0
M  V30 9963 H 921.483 -4.70266 3.83321 0
M  V30 9964 H 920.222 -4.01165 2.77341 0
M  V30 9965 H 919.227 -2.79793 4.73282 0
M  V30 9966 H 920.452 -3.52003 5.8075 0
M  V30 9967 H 918.398 -5.05983 4.17513 0
M  V30 9968 H 918.315 -4.75312 5.8789 0
M  V30 9969 H 919.583 -5.76219 5.24969 0
M  V30 9970 N 923.813 -1.49104 -0.510467 0
M  V30 9971 C 924.743 -1.67981 -1.62187 0
M  V30 9972 C 925.724 -0.528529 -1.6168 0
M  V30 9973 O 926.909 -0.763305 -1.7857 0
M  V30 9974 C 924.039 -1.73755 -3.0071 0
M  V30 9975 C 922.993 -2.88579 -3.1608 0
M  V30 9976 C 922.319 -2.79457 -4.5586 0
M  V30 9977 C 923.619 -4.29638 -2.97 0
M  V30 9978 H 925.313 -2.61029 -1.46643 0
M  V30 9979 H 922.859 -1.25615 -0.704042 0
M  V30 9980 H 924.812 -1.85548 -3.78352 0
M  V30 9981 H 923.536 -0.772996 -3.17321 0
M  V30 9982 H 922.195 -2.76372 -2.40861 0
M  V30 9983 H 921.843 -1.80929 -4.69333 0
M  V30 9984 H 921.543 -3.56518 -4.67086 0
M  V30 9985 H 923.067 -2.93245 -5.35574 0
M  V30 9986 H 924.481 -4.42575 -3.64418 0
M  V30 9987 H 922.878 -5.07847 -3.19704 0
M  V30 9988 H 923.948 -4.44741 -1.93219 0
M  V30 9989 O 925.33 0.655661 -1.47592 0
M  V30 9990 H 926.021 1.30903 -1.42773 0
M  V30 END ATOM
M  V30 BEGIN BOND
M  V30 END BOND
M  V30 END CTAB
M  END
$$$$
