drugbank_target|P43487 Ran-specific GTPase-activating protein (DB09130; DB12695)
 OpenBabel12092121063D

  0  0  0     0  0            999 V3000
M  V30 BEGIN CTAB
M  V30 COUNTS 3232 3261 0 0 0
M  V30 BEGIN ATOM
M  V30 1 H -0.908 1.98254 -0.117106 0
M  V30 2 N 0 1.576 0 0
M  V30 3 C 0.933 2.03868 1.02534 0
M  V30 4 C 1.911 0.928543 1.3348 0
M  V30 5 O 3.095 1.19667 1.45644 0
M  V30 6 C 0.222 2.43627 2.35294 0
M  V30 7 C -0.732 3.65373 2.2001 0
M  V30 8 S 0.101 5.13292 1.52614 0
M  V30 9 C 1.257 5.56322 2.86805 0
M  V30 10 H 1.49 2.90518 0.631377 0
M  V30 11 H -0.977 1.52953 0.210867 0
M  V30 12 H 0.981 2.67203 3.11629 0
M  V30 13 H -0.358 1.57376 2.7183 0
M  V30 14 H -1.165 3.90944 3.18086 0
M  V30 15 H -1.563 3.418 1.51819 0
M  V30 16 H 0.729 5.58782 3.83104 0
M  V30 17 H 1.672 6.56266 2.65933 0
M  V30 18 H 2.08 4.83886 2.90714 0
M  V30 19 N 1.4781 -0.272755 1.55222 0
M  V30 20 C 2.4411 -1.32041 1.87344 0
M  V30 21 C 3.4411 -1.42342 0.74803 0
M  V30 22 O 4.6311 -1.41488 1.0162 0
M  V30 23 C 1.7631 -2.70173 2.07893 0
M  V30 24 H 2.9561 -1.04789 2.80997 0
M  V30 25 H 0.5091 -0.51083 1.47717 0
M  V30 26 H 1.2441 -3.02605 1.16622 0
M  V30 27 H 1.0291 -2.64082 2.89833 0
M  V30 28 H 2.5191 -3.45869 2.34017 0
M  V30 29 N 2.9562 -1.48159 -0.537278 0
M  V30 30 C 3.9192 -1.61665 -1.62472 0
M  V30 31 C 4.9192 -0.490395 -1.5314 0
M  V30 32 O 6.1092 -0.755998 -1.5694 0
M  V30 33 C 3.2412 -1.57997 -3.02076 0
M  V30 34 H 4.4342 -2.58621 -1.51839 0
M  V30 35 H 1.9872 -1.36647 -0.758771 0
M  V30 36 H 2.7222 -0.624913 -3.18222 0
M  V30 37 H 2.5072 -2.39755 -3.10258 0
M  V30 38 H 3.9972 -1.70627 -3.81151 0
M  V30 39 N 4.4343 0.785586 -1.36625 0
M  V30 40 C 5.3973 1.87999 -1.31107 0
M  V30 41 C 6.3973 1.59316 -0.217959 0
M  V30 42 O 7.5873 1.67656 -0.472977 0
M  V30 43 C 4.7193 3.24861 -1.03334 0
M  V30 44 H 5.9123 1.94307 -2.2844 0
M  V30 45 H 3.4653 0.983813 -1.21453 0
M  V30 46 H 4.2003 3.24235 -0.0647432 0
M  V30 47 H 3.9853 3.4707 -1.82441 0
M  V30 48 H 5.4753 4.04929 -1.02088 0
M  V30 49 N 5.9124 1.20967 1.01018 0
M  V30 50 C 6.8594 0.964281 2.09691 0
M  V30 51 C 7.8294 -0.107853 1.65749 0
M  V30 52 O 9.0144 0.0381987 1.90762 0
M  V30 53 C 6.1544 0.52943 3.41015 0
M  V30 54 C 5.2674 1.67043 3.98398 0
M  V30 55 C 4.4024 1.18525 5.17808 0
M  V30 56 C 3.4414 2.29892 5.67288 0
M  V30 57 N 2.5784 1.82546 6.77954 0
M  V30 58 H 7.4184 1.89463 2.30017 0
M  V30 59 H 4.9554 0.944289 1.1279 0
M  V30 60 H 6.9134 0.258588 4.16398 0
M  V30 61 H 5.5434 -0.363919 3.20742 0
M  V30 62 H 4.5954 2.05603 3.20049 0
M  V30 63 H 5.9074 2.50877 4.31117 0
M  V30 64 H 5.0614 0.870762 6.00419 0
M  V30 65 H 3.8004 0.316887 4.86669 0
M  V30 66 H 2.8054 2.6215 4.83278 0
M  V30 67 H 4.0304 3.17216 6.00459 0
M  V30 68 H 1.9764 0.980454 6.48632 0
M  V30 69 H 1.8934 2.59956 7.09901 0
M  V30 70 H 3.1614 1.54115 7.64113 0
M  V30 71 N 7.3905 -1.2043 1.01659 0
M  V30 72 C 8.6675 -1.8548 0.621004 0
M  V30 73 C 9.0475 -1.9091 -0.900919 0
M  V30 74 O 8.3955 -1.41694 -1.79263 0
M  V30 75 C 8.6055 -3.25119 1.2688 0
M  V30 76 C 9.9535 -4.01403 1.38423 0
M  V30 77 O 10.9775 -3.34473 1.22501 0
M  V30 78 O 9.8365 -5.21265 1.64151 0
M  V30 79 H 6.9305 -0.798761 0.214266 0
M  V30 80 H 9.4765 -1.28019 1.11396 0
M  V30 81 H 8.2485 -3.15932 2.30873 0
M  V30 82 H 7.8715 -3.90212 0.762917 0
M  V30 83 N 8.8686 -0.792821 -1.36206 0
M  V30 84 C 10.0966 -0.378825 -2.03402 0
M  V30 85 C 10.5116 1.00586 -1.59774 0
M  V30 86 O 9.8686 1.64574 -0.788764 0
M  V30 87 C 9.9196 -0.43683 -3.58851 0
M  V30 88 O 9.6406 -1.76691 -4.00889 0
M  V30 89 C 11.1416 -0.0138943 -4.43298 0
M  V30 90 H 8.3616 -0.155673 -0.652692 0
M  V30 91 H 10.9056 -1.07261 -1.74113 0
M  V30 92 H 9.0606 0.208575 -3.86838 0
M  V30 93 H 9.4746 -1.72011 -4.95492 0
M  V30 94 H 10.9486 -0.105615 -5.51899 0
M  V30 95 H 11.4256 1.03915 -4.2673 0
M  V30 96 H 12.0316 -0.63192 -4.20579 0
M  V30 97 N 10.3467 1.47872 -0.545128 0
M  V30 98 C 11.2967 2.26842 0.229456 0
M  V30 99 C 12.2807 1.33626 0.896267 0
M  V30 100 O 13.4727 1.58063 0.79657 0
M  V30 101 C 10.6017 3.19089 1.26638 0
M  V30 102 C 9.6877 4.19783 0.603598 0
M  V30 103 N 10.0787 5.0479 -0.319405 0
M  V30 104 C 8.3767 4.3765 0.858989 0
M  V30 105 C 9.0777 5.77433 -0.703241 0
M  V30 106 N 8.0537 5.43566 -0.0608309 0
M  V30 107 H 11.8557 2.89947 -0.480391 0
M  V30 108 H 9.3697 1.58263 -0.364209 0
M  V30 109 H 11.3667 3.74337 1.83515 0
M  V30 110 H 10.0267 2.5754 1.97745 0
M  V30 111 H 11.0377 5.13244 -0.692889 0
M  V30 112 H 7.7147 3.87281 1.55948 0
M  V30 113 H 9.1047 6.55824 -1.46098 0
M  V30 114 N 11.8248 0.280983 1.55075 0
M  V30 115 C 12.7348 -0.61388 2.26426 0
M  V30 116 C 13.7508 -1.16521 1.29224 0
M  V30 117 O 14.9268 -1.19426 1.62171 0
M  V30 118 C 11.9918 -1.7788 2.9759 0
M  V30 119 C 11.0528 -1.26355 4.10284 0
M  V30 120 C 10.2858 -2.37295 4.78045 0
M  V30 121 O 10.5088 -3.56777 4.45047 0
M  V30 122 O 9.4428 -2.05119 5.65871 0
M  V30 123 H 13.2688 -0.0356932 3.03679 0
M  V30 124 H 10.8538 0.0481686 1.49322 0
M  V30 125 H 12.7358 -2.45791 3.42293 0
M  V30 126 H 11.4108 -2.34397 2.23249 0
M  V30 127 H 10.3178 -0.550735 3.70024 0
M  V30 128 H 11.6508 -0.744065 4.86543 0
M  V30 129 N 13.3029 -1.57598 0.00835791 0
M  V30 130 C 14.5799 -1.82172 -0.712235 0
M  V30 131 C 14.9599 -0.887873 -1.9152 0
M  V30 132 O 14.3079 0.06146 -2.28417 0
M  V30 133 C 14.5179 -3.30875 -1.11008 0
M  V30 134 C 15.8659 -3.96826 -1.51044 0
M  V30 135 O 16.8899 -3.35248 -1.20364 0
M  V30 136 O 15.7489 -5.05318 -2.08125 0
M  V30 137 H 12.8429 -0.750435 -0.347529 0
M  V30 138 H 15.3889 -1.69665 0.0344523 0
M  V30 139 H 14.1609 -3.90481 -0.252982 0
M  V30 140 H 13.7839 -3.48412 -1.9156 0
M  V30 141 N 14.781 0.264519 -1.55364 0
M  V30 142 C 15.731 1.32966 -1.85214 0
M  V30 143 C 16.715 1.44306 -0.711653 0
M  V30 144 O 17.907 1.47844 -0.973192 0
M  V30 145 C 15.036 2.68839 -2.13495 0
M  V30 146 C 14.122 2.61575 -3.33825 0
M  V30 147 N 14.513 2.23933 -4.53528 0
M  V30 148 C 12.811 2.92621 -3.36584 0
M  V30 149 C 13.512 2.26868 -5.35636 0
M  V30 150 N 12.488 2.65677 -4.74254 0
M  V30 151 H 16.29 1.02884 -2.75304 0
M  V30 152 H 13.804 0.473157 -1.55354 0
M  V30 153 H 15.801 3.45685 -2.33039 0
M  V30 154 H 14.461 2.99802 -1.24694 0
M  V30 155 H 15.472 1.95769 -4.79474 0
M  V30 156 H 12.149 3.2824 -2.58002 0
M  V30 157 H 13.539 2.00254 -6.41364 0
M  V30 158 N 16.2591 1.48442 0.529413 0
M  V30 159 C 17.5361 1.46978 1.29062 0
M  V30 160 C 17.9161 0.181769 2.10316 0
M  V30 161 O 17.2641 -0.836481 2.12639 0
M  V30 162 C 17.4741 2.7321 2.17157 0
M  V30 163 C 18.8221 3.21562 2.77278 0
M  V30 164 O 19.8461 2.74131 2.27444 0
M  V30 165 O 18.7051 4.04094 3.67927 0
M  V30 166 H 15.7991 0.587003 0.582543 0
M  V30 167 H 18.3451 1.60676 0.546021 0
M  V30 168 H 17.1171 3.58465 1.56903 0
M  V30 169 H 16.7401 2.62235 2.98862 0
M  V30 170 N 17.7372 -0.778329 1.37039 0
M  V30 171 C 18.9652 -1.56734 1.35063 0
M  V30 172 C 19.3802 -1.88686 -0.0655597 0
M  V30 173 O 18.7372 -1.5096 -1.02554 0
M  V30 174 C 18.7882 -2.88163 2.18276 0
M  V30 175 O 18.5092 -2.57583 3.54376 0
M  V30 176 C 20.0102 -3.82422 2.24206 0
M  V30 177 H 17.2302 -0.485778 0.462883 0
M  V30 178 H 19.7742 -0.965185 1.8029 0
M  V30 179 H 17.9292 -3.44818 1.76576 0
M  V30 180 H 18.3432 -3.41699 3.97922 0
M  V30 181 H 19.8172 -4.71667 2.86765 0
M  V30 182 H 20.2942 -4.21078 1.24861 0
M  V30 183 H 20.9002 -3.31697 2.6619 0
M  V30 184 N 19.2153 -1.21501 -1.00376 0
M  V30 185 C 20.4403 -1.05977 -1.78279 0
M  V30 186 C 20.8653 0.385994 -1.84097 0
M  V30 187 O 20.2233 1.27849 -1.28547 0
M  V30 188 C 20.2713 -1.66302 -3.19963 0
M  V30 189 O 19.3753 -0.909333 -4.0225 0
M  V30 190 H 18.7163 -0.372906 -0.549397 0
M  V30 191 H 21.2463 -1.6107 -1.26165 0
M  V30 192 H 21.2563 -1.70574 -3.70632 0
M  V30 193 H 19.9313 -2.71515 -3.15043 0
M  V30 194 H 18.5083 -0.941795 -3.60811 0
M  V30 195 N 20.6934 1.19889 -1.02296 0
M  V30 196 C 21.9214 1.9339 -0.735399 0
M  V30 197 C 22.3364 1.75148 0.704887 0
M  V30 198 O 21.6934 1.06954 1.47875 0
M  V30 199 C 21.7444 3.45313 -1.06962 0
M  V30 200 O 21.4654 3.62964 -2.45334 0
M  V30 201 C 22.9664 4.35948 -0.804021 0
M  V30 202 H 20.1864 0.61448 -0.269546 0
M  V30 203 H 22.7304 1.522 -1.36585 0
M  V30 204 H 20.8854 3.84359 -0.484455 0
M  V30 205 H 21.2994 4.56886 -2.57595 0
M  V30 206 H 22.7734 5.41174 -1.0879 0
M  V30 207 H 23.2504 4.3842 0.261691 0
M  V30 208 H 23.8564 4.02574 -1.37164 0
M  V30 209 N 22.1715 0.800033 1.35784 0
M  V30 210 C 23.0815 0.207204 2.33683 0
M  V30 211 C 24.0975 -0.64631 1.61551 0
M  V30 212 O 25.2735 -0.559604 1.93469 0
M  V30 213 C 22.3385 -0.639659 3.40748 0
M  V30 214 C 21.3995 0.233585 4.28664 0
M  V30 215 C 20.6325 -0.572954 5.30616 0
M  V30 216 O 20.8555 -1.80816 5.40982 0
M  V30 217 O 19.7895 0.0327285 6.01891 0
M  V30 218 H 23.6155 1.01692 2.86169 0
M  V30 219 H 21.2005 0.561691 1.38439 0
M  V30 220 H 23.0825 -1.12223 4.06182 0
M  V30 221 H 21.7575 -1.42708 2.90544 0
M  V30 222 H 20.6645 0.763147 3.66233 0
M  V30 223 H 21.9975 0.984784 4.82248 0
M  V30 224 N 23.6496 -1.47581 0.552962 0
M  V30 225 C 24.5976 -2.31648 -0.21023 0
M  V30 226 C 25.5916 -1.42663 -0.913432 0
M  V30 227 O 26.7976 -1.5945 -0.835201 0
M  V30 228 H 23.1726 -0.746989 -0.0866676 0
M  V30 229 H 25.1436 -2.93869 0.518051 0
M  V30 230 C 23.8926 -3.25226 -1.22976 0
M  V30 231 H 23.2156 -3.93658 -0.698077 0
M  V30 232 H 24.6556 -3.86889 -1.73473 0
M  V30 233 C 23.1146 -2.48448 -2.27542 0
M  V30 234 O 23.6446 -2.22585 -3.34393 0
M  V30 235 N 21.8506 -2.09532 -2.01357 0
M  V30 236 H 21.3976 -2.30765 -1.14478 0
M  V30 237 H 21.3556 -1.58476 -2.71538 0
M  V30 238 N 25.1277 -0.289203 -1.54924 0
M  V30 239 C 26.3557 0.326463 -2.04308 0
M  V30 240 C 26.7707 1.48413 -1.16701 0
M  V30 241 O 26.1277 1.81507 -0.190087 0
M  V30 242 C 26.1787 0.794014 -3.52672 0
M  V30 243 O 25.8997 -0.317564 -4.36948 0
M  V30 244 C 27.4007 1.47605 -4.18004 0
M  V30 245 H 24.6207 0.0726272 -0.667058 0
M  V30 246 H 27.1647 -0.425401 -2.00026 0
M  V30 247 H 25.3197 1.49593 -3.57352 0
M  V30 248 H 25.7337 0.0443186 -5.24481 0
M  V30 249 H 27.2077 1.75447 -5.23376 0
M  V30 250 H 27.6847 2.41224 -3.67025 0
M  V30 251 H 28.2907 0.81762 -4.17367 0
M  V30 252 N 26.6058 1.57591 -0.0167156 0
M  V30 253 C 27.8828 1.82547 0.702564 0
M  V30 254 C 28.2628 0.898018 1.91047 0
M  V30 255 O 27.6108 -0.0493456 2.28447 0
M  V30 256 C 27.8208 3.31459 1.09251 0
M  V30 257 C 29.1688 3.97622 1.48937 0
M  V30 258 O 30.1928 3.35881 1.18584 0
M  V30 259 O 29.0518 5.06415 2.05442 0
M  V30 260 H 26.1458 0.752268 0.343544 0
M  V30 261 H 28.6918 1.69644 -0.0434495 0
M  V30 262 H 27.4638 3.9061 0.23227 0
M  V30 263 H 27.0868 3.49422 1.89709 0
M  V30 264 N 28.0839 -0.256276 1.55502 0
M  V30 265 C 28.9939 -1.33882 1.92647 0
M  V30 266 C 30.0099 -1.53159 0.825727 0
M  V30 267 O 31.1859 -1.66963 1.12629 0
M  V30 268 C 28.2509 -2.6751 2.20543 0
M  V30 269 C 27.3119 -2.56836 3.43997 0
M  V30 270 C 26.5449 -3.84092 3.70553 0
M  V30 271 O 26.7679 -4.85545 2.99336 0
M  V30 272 O 25.7019 -3.83288 4.64084 0
M  V30 273 H 29.5279 -1.05374 2.84833 0
M  V30 274 H 27.1129 -0.456237 1.42263 0
M  V30 275 H 28.9949 -3.46492 2.39835 0
M  V30 276 H 27.6699 -2.9577 1.31536 0
M  V30 277 H 26.5769 -1.76172 3.30021 0
M  V30 278 H 27.9099 -2.33523 4.33275 0
M  V30 279 N 29.562 -1.4872 -0.521534 0
M  V30 280 C 30.787 -1.61101 -1.30618 0
M  V30 281 C 31.212 -0.274611 -1.86085 0
M  V30 282 O 30.57 0.754937 -1.64834 0
M  V30 283 C 30.618 -2.66709 -2.4269 0
M  V30 284 O 29.722 -2.24456 -3.45967 0
M  V30 285 H 29.063 -0.539921 -0.386499 0
M  V30 286 H 31.593 -1.94767 -0.626645 0
M  V30 287 H 31.603 -2.88245 -2.88754 0
M  V30 288 H 30.278 -3.63727 -2.01682 0
M  V30 289 H 28.855 -2.13168 -3.05964 0
M  V30 290 N 31.0401 0.771051 -1.3745 0
M  V30 291 C 31.9881 1.90574 -1.33358 0
M  V30 292 C 32.9821 1.67936 -0.22224 0
M  V30 293 O 34.1881 1.75717 -0.390304 0
M  V30 294 H 30.5631 0.626714 -0.415612 0
M  V30 295 H 32.5341 1.91142 -2.29144 0
M  V30 296 C 31.2831 3.27845 -1.15813 0
M  V30 297 H 30.6061 3.45842 -2.00583 0
M  V30 298 H 32.0461 4.07538 -1.17 0
M  V30 299 C 30.5051 3.36625 0.136165 0
M  V30 300 O 31.0351 3.85785 1.11949 0
M  V30 301 N 29.2411 2.89997 0.187099 0
M  V30 302 H 28.7881 2.50182 -0.613753 0
M  V30 303 H 28.7461 2.96252 1.05272 0
M  V30 304 N 32.5182 1.22032 0.997298 0
M  V30 305 C 33.4682 0.953838 2.07089 0
M  V30 306 C 34.4522 -0.0938669 1.60626 0
M  V30 307 O 35.6442 0.116078 1.76619 0
M  V30 308 C 32.7732 0.528726 3.39204 0
M  V30 309 C 31.8592 1.61092 3.92314 0
M  V30 310 N 32.2502 2.83768 4.18699 0
M  V30 311 C 30.5482 1.48158 4.20672 0
M  V30 312 C 31.2492 3.53715 4.61802 0
M  V30 313 N 30.2252 2.81174 4.65233 0
M  V30 314 H 34.0272 1.88577 2.25424 0
M  V30 315 H 31.5412 1.11719 1.17867 0
M  V30 316 H 33.5382 0.31915 4.15677 0
M  V30 317 H 32.1982 -0.39635 3.22272 0
M  V30 318 H 33.2092 3.20238 4.07023 0
M  V30 319 H 29.8862 0.622369 4.12835 0
M  V30 320 H 31.2762 4.58793 4.90875 0
M  V30 321 N 33.9963 -1.19345 1.0293 0
M  V30 322 C 35.2733 -1.84811 0.640642 0
M  V30 323 C 35.6533 -1.91855 -0.88062 0
M  V30 324 O 35.0013 -1.43587 -1.7775 0
M  V30 325 C 35.2113 -3.23755 1.30321 0
M  V30 326 C 36.5593 -3.99912 1.42673 0
M  V30 327 O 37.5833 -3.33155 1.26041 0
M  V30 328 O 36.4423 -5.19494 1.6967 0
M  V30 329 H 33.5363 -0.796443 0.222726 0
M  V30 330 H 36.0823 -1.26831 1.12748 0
M  V30 331 H 34.8543 -3.13466 2.34211 0
M  V30 332 H 34.4773 -3.89381 0.804261 0
M  V30 333 N 35.4744 -0.807222 -1.35358 0
M  V30 334 C 36.8854 -0.44876 -1.81226 0
M  V30 335 C 37.2364 1.02929 -1.67033 0
M  V30 336 O 36.3614 1.79991 -1.20133 0
M  V30 337 C 36.9564 -0.807774 -3.2903 0
M  V30 338 C 35.5154 -0.501901 -3.73039 0
M  V30 339 C 34.6624 -1.03304 -2.57339 0
M  V30 340 H 37.6134 -0.998808 -1.23327 0
M  V30 341 H 37.6344 -0.10554 -3.80354 0
M  V30 342 H 37.1464 -1.88357 -3.39328 0
M  V30 343 H 35.2474 0.565128 -3.68289 0
M  V30 344 H 35.3604 -1.03497 -4.67787 0
M  V30 345 H 33.7244 -0.455339 -2.50597 0
M  V30 346 H 34.5074 -2.11496 -2.70415 0
M  V30 347 N 36.9525 1.47285 -0.560781 0
M  V30 348 C 37.8845 2.28118 0.222438 0
M  V30 349 C 38.8975 1.37219 0.876056 0
M  V30 350 O 40.0865 1.62011 0.749307 0
M  V30 351 C 37.1865 3.1159 1.33285 0
M  V30 352 C 36.3595 4.30473 0.77534 0
M  V30 353 C 35.4185 4.95513 1.77069 0
M  V30 354 O 34.4445 5.53792 1.31539 0
M  V30 355 N 35.6465 4.90531 3.10418 0
M  V30 356 H 38.4115 2.95976 -0.470958 0
M  V30 357 H 35.9725 1.56955 -0.39709 0
M  V30 358 H 37.9645 3.51967 1.99752 0
M  V30 359 H 36.5345 2.45951 1.92943 0
M  V30 360 H 35.7545 3.94144 -0.0662113 0
M  V30 361 H 37.0425 5.07362 0.382272 0
M  V30 362 H 36.4405 4.44389 3.5005 0
M  V30 363 H 34.9975 5.34917 3.72434 0
M  V30 364 N 38.4306 0.297415 1.54768 0
M  V30 365 C 39.6776 -0.312913 2.00068 0
M  V30 366 C 40.0056 -1.54171 1.18582 0
M  V30 367 O 39.2606 -1.94108 0.249133 0
M  V30 368 C 39.5596 -0.717561 3.50123 0
M  V30 369 C 39.2256 0.409095 4.4904 0
M  V30 370 C 37.8876 0.718399 4.75807 0
M  V30 371 C 40.2396 1.16717 5.07963 0
M  V30 372 C 37.5676 1.78896 5.5876 0
M  V30 373 C 39.9196 2.22762 5.92081 0
M  V30 374 C 38.5836 2.54303 6.1716 0
M  V30 375 H 37.8536 -0.114503 0.7321 0
M  V30 376 H 40.5006 0.415767 1.86932 0
M  V30 377 H 38.8056 -1.52627 3.60849 0
M  V30 378 H 40.5026 -1.20091 3.82595 0
M  V30 379 H 37.0926 0.157918 4.28309 0
M  V30 380 H 41.2766 0.941466 4.87289 0
M  V30 381 H 36.5326 2.0381 5.7643 0
M  V30 382 H 40.7066 2.81962 6.36765 0
M  V30 383 H 38.3336 3.3739 6.81229 0
M  V30 384 N 39.9087 -1.5758 0.0250728 0
M  V30 385 C 40.8187 -2.1343 -0.973905 0
M  V30 386 C 41.8347 -1.08556 -1.35984 0
M  V30 387 O 43.0107 -1.40592 -1.44207 0
M  V30 388 C 40.0757 -2.64703 -2.23904 0
M  V30 389 C 39.1367 -3.84276 -1.91391 0
M  V30 390 C 38.3697 -4.33095 -3.11873 0
M  V30 391 O 38.5927 -3.81107 -4.24398 0
M  V30 392 O 37.5267 -5.24984 -2.94406 0
M  V30 393 H 41.3527 -2.99057 -0.529036 0
M  V30 394 H 38.9377 -1.48118 -0.195288 0
M  V30 395 H 40.8197 -2.97769 -2.98181 0
M  V30 396 H 39.4947 -1.82161 -2.6758 0
M  V30 397 H 38.4017 -3.56143 -1.14511 0
M  V30 398 H 39.7347 -4.67968 -1.52534 0
M  V30 399 N 41.3868 0.248026 -1.55636 0
M  V30 400 C 42.7978 0.817177 -1.67866 0
M  V30 401 C 43.1488 1.86069 -0.622322 0
M  V30 402 O 42.2738 2.15157 0.231618 0
M  V30 403 C 42.8688 1.489 -3.04326 0
M  V30 404 C 41.4278 2.00587 -3.185 0
M  V30 405 C 40.5748 0.856573 -2.63739 0
M  V30 406 H 43.5258 0.0238579 -1.58682 0
M  V30 407 H 43.5468 2.35698 -2.98708 0
M  V30 408 H 43.0588 0.729279 -3.81186 0
M  V30 409 H 41.1598 2.79443 -2.4646 0
M  V30 410 H 41.2728 2.20402 -4.25393 0
M  V30 411 H 39.6368 1.25678 -2.21534 0
M  V30 412 H 40.4198 0.109953 -3.43124 0
M  V30 413 N 42.8649 1.48995 0.513639 0
M  V30 414 C 44.1139 1.57093 1.2651 0
M  V30 415 C 44.4269 0.257091 1.93903 0
M  V30 416 O 45.6329 0.216478 2.70636 0
M  V30 417 C 44.0889 2.77118 2.29638 0
M  V30 418 C 43.6969 4.15209 1.68241 0
M  V30 419 C 45.4409 2.94538 3.05692 0
M  V30 420 C 43.3479 5.26474 2.69406 0
M  V30 421 H 42.2779 0.584876 0.475854 0
M  V30 422 H 44.9289 1.7536 0.540487 0
M  V30 423 H 43.3109 2.52319 3.05207 0
M  V30 424 H 44.4849 4.50094 0.987505 0
M  V30 425 H 42.7999 4.03042 1.04623 0
M  V30 426 H 45.3969 3.74832 3.8132 0
M  V30 427 H 45.7399 2.04614 3.62545 0
M  V30 428 H 46.2729 3.19316 2.37238 0
M  V30 429 H 43.0119 6.18417 2.17351 0
M  V30 430 H 42.5319 4.96058 3.37175 0
M  V30 431 H 44.2109 5.55277 3.32078 0
M  V30 432 N 44.343 -0.763751 1.37857 0
M  V30 433 C 45.589 -1.52483 1.33704 0
M  V30 434 C 45.922 -1.94051 -0.0759612 0
M  V30 435 O 45.197 -1.64675 -1.03501 0
M  V30 436 C 45.48 -2.78441 2.28348 0
M  V30 437 C 45.333 -2.43075 3.78463 0
M  V30 438 C 46.652 -3.80415 2.21298 0
M  V30 439 H 43.771 -0.553169 0.487005 0
M  V30 440 H 46.413 -0.875562 1.68624 0
M  V30 441 H 44.563 -3.33842 1.987 0
M  V30 442 H 46.235 -1.93527 4.18742 0
M  V30 443 H 44.478 -1.75666 3.96641 0
M  V30 444 H 45.149 -3.33149 4.40132 0
M  V30 445 H 47.625 -3.34527 2.47449 0
M  V30 446 H 46.501 -4.66257 2.89647 0
M  V30 447 H 46.762 -4.25262 1.20849 0
M  V30 448 N 45.8211 -1.22559 -0.990812 0
M  V30 449 C 47.0461 -1.07862 -1.77145 0
M  V30 450 C 47.4711 0.366447 -1.84496 0
M  V30 451 O 46.8291 1.26478 -1.29896 0
M  V30 452 C 46.8771 -1.69686 -3.18181 0
M  V30 453 O 45.9811 -0.951946 -4.01263 0
M  V30 454 H 45.3221 -0.378712 -0.545411 0
M  V30 455 H 47.8521 -1.62399 -1.2445 0
M  V30 456 H 47.8621 -1.74496 -3.68802 0
M  V30 457 H 46.5371 -2.74841 -3.12146 0
M  V30 458 H 45.1141 -0.980011 -3.59792 0
M  V30 459 N 47.2992 1.18797 -1.03562 0
M  V30 460 C 48.2292 2.24472 -0.643019 0
M  V30 461 C 49.2102 1.66433 0.351283 0
M  V30 462 O 50.3952 1.92803 0.232505 0
M  V30 463 C 47.5252 3.473 4.24935e-05 0
M  V30 464 C 46.4792 4.18055 -0.917257 0
M  V30 465 C 45.8052 5.34519 -0.138941 0
M  V30 466 C 47.1052 4.72109 -2.23407 0
M  V30 467 H 48.7992 2.57566 -1.52643 0
M  V30 468 H 46.3452 1.23806 -0.735394 0
M  V30 469 H 48.2982 4.20426 0.286383 0
M  V30 470 H 47.0222 3.13424 0.918299 0
M  V30 471 H 45.6812 3.46821 -1.1879 0
M  V30 472 H 45.3292 4.96891 0.781562 0
M  V30 473 H 45.0292 5.82794 -0.750005 0
M  V30 474 H 46.5532 6.10438 0.1405 0
M  V30 475 H 47.9672 5.36955 -2.00879 0
M  V30 476 H 46.3642 5.30897 -2.79765 0
M  V30 477 H 47.4342 3.89807 -2.88407 0
M  V30 478 N 48.7773 0.814389 1.34928 0
M  V30 479 C 50.1883 0.458364 1.80986 0
M  V30 480 C 50.5393 -1.02042 1.67577 0
M  V30 481 O 49.6643 -1.79352 1.21086 0
M  V30 482 C 50.2593 0.825212 3.28597 0
M  V30 483 C 48.8183 0.521677 3.72767 0
M  V30 484 C 47.9653 1.04668 2.56788 0
M  V30 485 H 50.9163 1.00533 1.22795 0
M  V30 486 H 50.9373 0.12571 3.80292 0
M  V30 487 H 50.4493 1.90154 3.38324 0
M  V30 488 H 48.5503 -0.545589 3.68584 0
M  V30 489 H 48.6633 1.05977 4.67232 0
M  V30 490 H 47.0273 0.468622 2.50352 0
M  V30 491 H 47.8103 2.12927 2.6929 0
M  V30 492 N 50.2554 -1.46986 0.568584 0
M  V30 493 C 51.1654 -2.33942 -0.17555 0
M  V30 494 C 52.1814 -1.48891 -0.90041 0
M  V30 495 O 53.3574 -1.81794 -0.86676 0
M  V30 496 C 50.4224 -3.25811 -1.18524 0
M  V30 497 C 49.4834 -4.26757 -0.466582 0
M  V30 498 C 48.7164 -5.14236 -1.42817 0
M  V30 499 O 48.9394 -5.04379 -2.66379 0
M  V30 500 O 47.8734 -5.94412 -0.946453 0
M  V30 501 H 51.6994 -2.98896 0.538036 0
M  V30 502 H 49.2844 -1.4573 0.329097 0
M  V30 503 H 51.1664 -3.82527 -1.76779 0
M  V30 504 H 49.8414 -2.63471 -1.88055 0
M  V30 505 H 48.7484 -3.73769 0.157451 0
M  V30 506 H 50.0814 -4.91843 0.187485 0
M  V30 507 N 51.7335 -0.305618 -1.54608 0
M  V30 508 C 52.6655 0.602161 -2.21149 0
M  V30 509 C 53.6785 1.09394 -1.20569 0
M  V30 510 O 54.8675 1.0106 -1.47136 0
M  V30 511 C 51.9675 1.83692 -2.84799 0
M  V30 512 C 51.1405 1.48686 -4.11353 0
M  V30 513 C 50.1995 2.57725 -4.58764 0
M  V30 514 O 49.2255 2.22623 -5.23858 0
M  V30 515 N 50.4275 3.88346 -4.31471 0
M  V30 516 H 53.1925 0.0324966 -2.99682 0
M  V30 517 H 50.7535 -0.128021 -1.61393 0
M  V30 518 H 52.7455 2.55994 -3.13448 0
M  V30 519 H 51.3155 2.31486 -2.10078 0
M  V30 520 H 50.5355 0.596269 -3.89664 0
M  V30 521 H 51.8235 1.22842 -4.93748 0
M  V30 522 H 51.2215 4.19671 -3.79331 0
M  V30 523 H 49.7785 4.56932 -4.64818 0
M  V30 524 N 53.2116 1.57565 -0.0334293 0
M  V30 525 C 54.1216 2.13943 0.962572 0
M  V30 526 C 55.1376 1.09276 1.35406 0
M  V30 527 O 56.3136 1.41355 1.4346 0
M  V30 528 C 53.3786 2.65887 2.22497 0
M  V30 529 C 52.4396 3.85286 1.8935 0
M  V30 530 C 51.6726 4.34743 3.09571 0
M  V30 531 O 51.8956 3.83352 4.22371 0
M  V30 532 O 50.8296 5.26538 2.91618 0
M  V30 533 H 54.6556 2.99333 0.513169 0
M  V30 534 H 52.2406 1.4822 0.18743 0
M  V30 535 H 54.1226 2.99346 2.96598 0
M  V30 536 H 52.7976 1.83578 2.6661 0
M  V30 537 H 51.7046 3.56746 1.1262 0
M  V30 538 H 53.0376 4.68771 1.5005 0
M  V30 539 N 54.6897 -0.239769 1.55765 0
M  V30 540 C 55.9387 -0.964754 1.77131 0
M  V30 541 C 56.2517 -1.86213 0.59868 0
M  V30 542 O 57.4577 -2.6244 0.695522 0
M  V30 543 C 55.9137 -1.76552 3.1362 0
M  V30 544 C 55.5217 -0.915185 4.38553 0
M  V30 545 C 57.2657 -2.48281 3.44321 0
M  V30 546 C 55.1727 -1.71225 5.66071 0
M  V30 547 H 54.1027 -0.363953 0.660344 0
M  V30 548 H 56.7537 -0.219181 1.82186 0
M  V30 549 H 55.1357 -2.55331 3.02691 0
M  V30 550 H 56.3097 -0.169217 4.60489 0
M  V30 551 H 54.6247 -0.310889 4.15238 0
M  V30 552 H 57.2217 -3.08382 4.36812 0
M  V30 553 H 57.5647 -3.20256 2.65973 0
M  V30 554 H 58.0977 -1.76507 3.56497 0
M  V30 555 H 54.8367 -1.03612 6.4726 0
M  V30 556 H 54.3567 -2.43331 5.48224 0
M  V30 557 H 56.0357 -2.27758 6.05587 0
M  V30 558 N 56.1678 -1.49265 -0.50573 0
M  V30 559 C 57.1148 -1.65585 -1.6078 0
M  V30 560 C 58.0848 -0.497396 -1.58478 0
M  V30 561 O 59.2698 -0.72385 -1.76536 0
M  V30 562 C 56.4098 -1.72408 -2.98948 0
M  V30 563 C 55.5228 -2.99525 -3.11301 0
M  V30 564 C 54.6578 -2.97356 -4.40174 0
M  V30 565 C 53.6968 -4.19074 -4.46143 0
M  V30 566 N 52.8338 -4.14841 -5.66437 0
M  V30 567 H 57.6738 -2.59688 -1.46172 0
M  V30 568 H 55.2108 -1.28761 -0.711261 0
M  V30 569 H 57.1688 -1.74344 -3.79025 0
M  V30 570 H 55.7988 -0.817753 -3.1227 0
M  V30 571 H 54.8508 -3.07222 -2.24318 0
M  V30 572 H 56.1628 -3.89518 -3.11572 0
M  V30 573 H 55.3168 -2.97829 -5.28567 0
M  V30 574 H 54.0558 -2.05133 -4.42461 0
M  V30 575 H 53.0608 -4.1885 -3.56153 0
M  V30 576 H 54.2858 -5.12483 -4.45575 0
M  V30 577 H 52.2318 -3.25453 -5.69575 0
M  V30 578 H 52.1488 -4.98564 -5.68304 0
M  V30 579 H 53.4168 -4.1941 -6.57051 0
M  V30 580 N 57.6459 0.756429 -1.3826 0
M  V30 581 C 58.8739 1.54565 -1.3754 0
M  V30 582 C 59.2889 1.88767 0.0355331 0
M  V30 583 O 58.6459 1.52572 1.0014 0
M  V30 584 C 58.6969 2.84654 -2.22833 0
M  V30 585 O 58.4179 2.51912 -3.5843 0
M  V30 586 C 59.9189 3.78807 -2.30261 0
M  V30 587 H 57.1389 0.478353 -0.470553 0
M  V30 588 H 59.6829 0.936381 -1.81803 0
M  V30 589 H 57.8379 3.41965 -1.8204 0
M  V30 590 H 58.2519 3.35325 -4.03308 0
M  V30 591 H 59.7259 4.67045 -2.94233 0
M  V30 592 H 60.2029 4.19038 -1.31545 0
M  V30 593 H 60.8089 3.2742 -2.71433 0
M  V30 594 N 59.124 1.23083 0.984299 0
M  V30 595 C 60.054 1.03292 2.09411 0
M  V30 596 C 61.035 -0.048923 1.7003 0
M  V30 597 O 62.22 0.114967 1.93859 0
M  V30 598 C 59.35 0.619155 3.41736 0
M  V30 599 C 58.304 1.64791 3.95004 0
M  V30 600 C 57.63 1.0897 5.23478 0
M  V30 601 C 58.93 3.03999 4.24714 0
M  V30 602 H 60.624 1.96119 2.26225 0
M  V30 603 H 58.17 0.944344 1.08711 0
M  V30 604 H 60.123 0.467777 4.18796 0
M  V30 605 H 58.847 -0.344786 3.24775 0
M  V30 606 H 57.506 1.78721 3.20085 0
M  V30 607 H 57.154 0.11686 5.02864 0
M  V30 608 H 56.854 1.77704 5.60085 0
M  V30 609 H 58.378 0.950093 6.03163 0
M  V30 610 H 59.792 2.93393 4.92538 0
M  V30 611 H 58.189 3.69936 4.72512 0
M  V30 612 H 59.259 3.53285 3.32142 0
M  V30 613 N 60.6021 -1.18246 1.0419 0
M  V30 614 C 61.5121 -2.25574 0.644476 0
M  V30 615 C 62.5281 -1.70845 -0.329826 0
M  V30 616 O 63.7041 -2.00554 -0.184443 0
M  V30 617 C 60.7691 -3.46697 0.014877 0
M  V30 618 C 59.8301 -4.16554 1.03834 0
M  V30 619 C 59.0631 -5.31894 0.438692 0
M  V30 620 O 59.2861 -5.65385 -0.754752 0
M  V30 621 O 58.2201 -5.90459 1.168 0
M  V30 622 H 62.0461 -2.61836 1.53869 0
M  V30 623 H 59.6311 -1.25352 0.812854 0
M  V30 624 H 61.5131 -4.20062 -0.335538 0
M  V30 625 H 60.1881 -3.12255 -0.853138 0
M  V30 626 H 59.0951 -3.45251 1.44057 0
M  V30 627 H 60.4281 -4.54998 1.87716 0
M  V30 628 N 62.0802 -0.821533 -1.34494 0
M  V30 629 C 62.9902 -0.244355 -2.33324 0
M  V30 630 C 64.0062 0.620527 -1.62559 0
M  V30 631 O 65.1822 0.528754 -1.94335 0
M  V30 632 C 62.2472 0.585368 -3.41723 0
M  V30 633 C 61.3082 -0.301752 -4.28238 0
M  V30 634 C 60.5412 0.488466 -5.3146 0
M  V30 635 O 60.7642 1.72186 -5.4379 0
M  V30 636 O 59.6982 -0.12848 -6.01763 0
M  V30 637 H 63.5242 -1.06231 -2.84515 0
M  V30 638 H 61.1092 -0.583645 -1.37528 0
M  V30 639 H 62.9912 1.05747 -4.07916 0
M  V30 640 H 61.6662 1.38068 -2.92778 0
M  V30 641 H 60.5732 -0.821315 -3.64973 0
M  V30 642 H 61.9062 -1.06138 -4.8062 0
M  V30 643 N 63.5583 1.46682 -0.576371 0
M  V30 644 C 64.8353 1.95599 0.00703437 0
M  V30 645 C 65.2153 1.51904 1.46589 0
M  V30 646 O 64.5633 0.766755 2.15251 0
M  V30 647 C 64.7733 3.4864 -0.158404 0
M  V30 648 C 66.1213 4.24594 -0.0229439 0
M  V30 649 O 67.1453 3.56094 -0.0869173 0
M  V30 650 O 66.0043 5.46373 0.118015 0
M  V30 651 H 63.0983 0.825275 0.053384 0
M  V30 652 H 65.6443 1.56996 -0.644244 0
M  V30 653 H 64.4163 3.7331 -1.17282 0
M  V30 654 H 64.0393 3.94057 0.5296 0
M  V30 655 N 65.0364 0.313813 1.54444 0
M  V30 656 C 65.9464 -0.565714 2.27677 0
M  V30 657 C 66.9624 -1.13754 1.31666 0
M  V30 658 O 68.1384 -1.15959 1.64668 0
M  V30 659 C 65.2034 -1.71528 3.01296 0
M  V30 660 C 64.2644 -1.17624 4.12872 0
M  V30 661 C 63.4974 -2.27102 4.8297 0
M  V30 662 O 63.7204 -3.47256 4.52514 0
M  V30 663 O 62.6544 -1.9307 5.70094 0
M  V30 664 H 66.4804 0.0287296 3.03686 0
M  V30 665 H 64.0654 0.0798312 1.49187 0
M  V30 666 H 65.9474 -2.38476 3.4743 0
M  V30 667 H 64.6224 -2.29608 2.2817 0
M  V30 668 H 63.5294 -0.472124 3.71109 0
M  V30 669 H 64.8624 -0.640695 4.88012 0
M  V30 670 N 66.5145 -1.57545 0.0417849 0
M  V30 671 C 67.4245 -2.14451 -0.951213 0
M  V30 672 C 68.4405 -1.09992 -1.34825 0
M  V30 673 O 69.6165 -1.42114 -1.42708 0
M  V30 674 C 66.6815 -2.67063 -2.21084 0
M  V30 675 C 65.7425 -3.86284 -1.87304 0
M  V30 676 C 64.9755 -4.36378 -3.07261 0
M  V30 677 O 65.1985 -3.85587 -4.20332 0
M  V30 678 O 64.1325 -5.28077 -2.88822 0
M  V30 679 H 67.9585 -2.99601 -0.497287 0
M  V30 680 H 65.5435 -1.48317 -0.179567 0
M  V30 681 H 67.4255 -3.00914 -2.95006 0
M  V30 682 H 66.1005 -1.84989 -2.65633 0
M  V30 683 H 65.0075 -3.57338 -1.10727 0
M  V30 684 H 66.3405 -4.6956 -1.47562 0
M  V30 685 N 67.9926 0.231505 -1.5589 0
M  V30 686 C 68.9026 1.308 -1.94752 0
M  V30 687 C 69.9186 1.51826 -0.849989 0
M  V30 688 O 71.0946 1.6515 -1.15271 0
M  V30 689 C 68.1596 2.63968 -2.24771 0
M  V30 690 C 67.2206 2.51331 -3.48039 0
M  V30 691 C 66.4536 3.78148 -3.76616 0
M  V30 692 O 66.6766 4.80722 -3.07022 0
M  V30 693 O 65.6106 3.75857 -4.70123 0
M  V30 694 H 69.4366 1.0083 -2.86474 0
M  V30 695 H 67.0216 0.433547 -1.42971 0
M  V30 696 H 68.9036 3.42633 -2.45318 0
M  V30 697 H 67.5786 2.9364 -1.36225 0
M  V30 698 H 66.4856 1.709 -3.32782 0
M  V30 699 H 67.8186 2.26601 -4.36936 0
M  V30 700 N 69.4707 1.49531 0.497807 0
M  V30 701 C 70.4007 1.6935 1.60757 0
M  V30 702 C 71.3817 0.542218 1.61227 0
M  V30 703 O 72.5667 0.778417 1.77917 0
M  V30 704 C 69.6967 1.76298 2.99226 0
M  V30 705 C 68.6507 2.91248 3.13622 0
M  V30 706 C 67.9767 2.83312 4.53474 0
M  V30 707 C 69.2767 4.3214 2.93346 0
M  V30 708 H 70.9707 2.62263 1.44425 0
M  V30 709 H 68.5167 1.26208 0.693367 0
M  V30 710 H 70.4697 1.88749 3.76765 0
M  V30 711 H 69.1937 0.799871 3.16654 0
M  V30 712 H 67.8527 2.78404 2.38509 0
M  V30 713 H 67.5007 1.84902 4.67782 0
M  V30 714 H 67.2007 3.60465 4.64046 0
M  V30 715 H 68.7247 2.97775 5.33069 0
M  V30 716 H 70.1387 4.45649 3.60652 0
M  V30 717 H 68.5357 5.1054 3.15387 0
M  V30 718 H 69.6057 4.46363 1.89441 0
M  V30 719 N 70.9488 -0.749086 1.3866 0
M  V30 720 C 72.1958 -1.50833 1.35114 0
M  V30 721 C 72.5238 -1.94415 -0.0574049 0
M  V30 722 O 71.7788 -1.66065 -1.03541 0
M  V30 723 C 72.0778 -2.7712 2.25697 0
M  V30 724 C 71.7438 -2.52477 3.73585 0
M  V30 725 C 70.4058 -2.45466 4.13884 0
M  V30 726 C 72.7578 -2.31066 4.67181 0
M  V30 727 C 70.0858 -2.15064 5.45861 0
M  V30 728 C 72.4378 -2.02183 5.9942 0
M  V30 729 C 71.1018 -1.93631 6.38798 0
M  V30 730 H 70.3718 -0.551936 0.494416 0
M  V30 731 H 73.0188 -0.860979 1.71054 0
M  V30 732 H 71.3238 -3.46528 1.82827 0
M  V30 733 H 73.0208 -3.35096 2.20254 0
M  V30 734 H 69.6108 -2.58807 3.41638 0
M  V30 735 H 73.7948 -2.35459 4.3689 0
M  V30 736 H 69.0508 -2.06954 5.75308 0
M  V30 737 H 73.2248 -1.8462 6.71482 0
M  V30 738 H 70.8518 -1.69839 7.40985 0
M  V30 739 N 72.4269 -1.23603 -0.977757 0
M  V30 740 C 73.3739 -1.01954 -2.07061 0
M  V30 741 C 74.3439 0.0638697 -1.65977 0
M  V30 742 O 75.5289 -0.0887624 -1.90593 0
M  V30 743 C 72.6689 -0.619658 -3.39491 0
M  V30 744 C 71.7819 -1.77547 -3.93829 0
M  V30 745 C 70.9169 -1.32212 -5.14484 0
M  V30 746 C 69.9559 -2.44852 -5.60994 0
M  V30 747 N 69.0929 -2.00456 -6.72876 0
M  V30 748 H 73.9329 -1.95495 -2.24913 0
M  V30 749 H 71.4699 -0.973861 -1.10247 0
M  V30 750 H 73.4279 -0.368898 -4.15566 0
M  V30 751 H 72.0579 0.278752 -3.21594 0
M  V30 752 H 71.1099 -2.14016 -3.14486 0
M  V30 753 H 72.4219 -2.62219 -4.24314 0
M  V30 754 H 71.5759 -1.02965 -5.97899 0
M  V30 755 H 70.3149 -0.445808 -4.85658 0
M  V30 756 H 69.3199 -2.74871 -4.76157 0
M  V30 757 H 70.5449 -3.33024 -5.91837 0
M  V30 758 H 68.4909 -1.15208 -6.45804 0
M  V30 759 H 68.4079 -2.78687 -7.02759 0
M  V30 760 H 69.6759 -1.7432 -7.59758 0
M  V30 761 N 73.905 1.17692 -1.04816 0
M  V30 762 C 74.838 2.20436 -0.590173 0
M  V30 763 C 75.816 1.58115 0.379244 0
M  V30 764 O 77 1.86228 0.291762 0
M  V30 765 C 74.127 3.38424 0.136817 0
M  V30 766 C 73.173 4.19176 -0.787023 0
M  V30 767 S 74.006 4.84815 -2.27409 0
M  V30 768 C 75.162 6.06195 -1.55817 0
M  V30 769 H 75.395 2.58944 -1.46067 0
M  V30 770 H 72.928 1.28246 -0.859784 0
M  V30 771 H 74.886 4.06798 0.550076 0
M  V30 772 H 73.547 2.98312 0.983299 0
M  V30 773 H 72.74 5.03499 -0.224681 0
M  V30 774 H 72.342 3.56219 -1.13947 0
M  V30 775 H 74.634 6.72078 -0.855387 0
M  V30 776 H 75.577 6.6695 -2.37873 0
M  V30 777 H 75.985 5.54701 -1.04722 0
M  V30 778 N 75.3831 0.828654 1.34056 0
M  V30 779 C 76.7991 0.515135 1.51058 0
M  V30 780 C 76.9991 -0.959581 1.77184 0
M  V30 781 O 76.0551 -1.74382 1.82612 0
M  V30 782 C 77.3681 1.37963 2.67183 0
M  V30 783 C 78.9161 1.37735 2.81066 0
M  V30 784 C 79.3911 2.22645 4.00241 0
M  V30 785 N 80.8821 2.203 4.07458 0
M  V30 786 C 81.6171 2.82744 4.98842 0
M  V30 787 N 81.1131 3.54201 5.9541 0
M  V30 788 N 82.9061 2.72268 4.91759 0
M  V30 789 H 75.0571 1.78343 1.15358 0
M  V30 790 H 77.3201 0.760304 0.566252 0
M  V30 791 H 77.0261 2.42714 2.54525 0
M  V30 792 H 76.9001 1.0484 3.62338 0
M  V30 793 H 79.2871 0.337593 2.93163 0
M  V30 794 H 79.3681 1.74859 1.86703 0
M  V30 795 H 79.0121 3.26674 3.88905 0
M  V30 796 H 78.9421 1.82869 4.93829 0
M  V30 797 H 81.4331 1.68327 3.38341 0
M  V30 798 H 81.7461 3.9908 6.61782 0
M  V30 799 H 80.0911 3.58308 5.95517 0
M  V30 800 H 83.2821 2.16014 4.15278 0
M  V30 801 H 83.4551 3.21219 5.62781 0
M  V30 802 N 76.8612 -1.46375 0.584142 0
M  V30 803 C 77.8242 -2.28784 -0.138108 0
M  V30 804 C 78.8242 -1.38471 -0.817462 0
M  V30 805 O 80.0142 -1.60833 -0.669199 0
M  V30 806 C 77.1462 -3.18892 -1.20503 0
M  V30 807 H 78.3392 -2.94117 0.586127 0
M  V30 808 H 75.8922 -1.52509 0.342171 0
M  V30 809 H 76.6272 -2.58309 -1.96079 0
M  V30 810 H 76.4122 -3.85388 -0.722384 0
M  V30 811 H 77.9022 -3.80914 -1.71155 0
M  V30 812 N 78.3393 -0.321999 -1.54275 0
M  V30 813 C 79.2863 0.544664 -2.24281 0
M  V30 814 C 80.2563 1.1129 -1.23303 0
M  V30 815 O 81.4413 1.15354 -1.51981 0
M  V30 816 C 78.5813 1.70045 -3.00298 0
M  V30 817 C 77.6943 1.16159 -4.1609 0
M  V30 818 C 76.8293 2.28293 -4.79641 0
M  V30 819 C 75.8683 1.71648 -5.8754 0
M  V30 820 N 75.0053 2.77438 -6.44959 0
M  V30 821 H 79.8453 -0.0588907 -2.97942 0
M  V30 822 H 77.3823 -0.0408345 -1.47043 0
M  V30 823 H 79.3403 2.38054 -3.42616 0
M  V30 824 H 77.9703 2.27531 -2.28975 0
M  V30 825 H 77.0223 0.373092 -3.78566 0
M  V30 826 H 78.3343 0.707087 -4.93763 0
M  V30 827 H 77.4883 3.0421 -5.2492 0
M  V30 828 H 76.2273 2.77079 -4.01346 0
M  V30 829 H 75.2323 0.942282 -5.41665 0
M  V30 830 H 76.4573 1.23741 -6.67731 0
M  V30 831 H 74.4033 3.25519 -5.69538 0
M  V30 832 H 74.3203 2.36547 -7.1804 0
M  V30 833 H 75.5883 3.53189 -6.94894 0
M  V30 834 N 79.8174 1.5752 -0.0501392 0
M  V30 835 C 80.7474 2.14502 0.922566 0
M  V30 836 C 81.7284 1.06642 1.3252 0
M  V30 837 O 82.9134 1.34577 1.4001 0
M  V30 838 C 80.0434 2.68916 2.19776 0
M  V30 839 C 78.9974 3.8175 1.93523 0
M  V30 840 C 78.3234 4.22677 3.27487 0
M  V30 841 C 79.6234 5.06932 1.25765 0
M  V30 842 H 81.3174 2.9603 0.447952 0
M  V30 843 H 78.8634 1.42401 0.214024 0
M  V30 844 H 80.8164 3.07419 2.88222 0
M  V30 845 H 79.5404 1.84578 2.69441 0
M  V30 846 H 78.1994 3.43718 1.27489 0
M  V30 847 H 77.8474 3.35291 3.74952 0
M  V30 848 H 77.5474 4.98725 3.1072 0
M  V30 849 H 79.0714 4.63779 3.97166 0
M  V30 850 H 80.4854 5.42888 1.84244 0
M  V30 851 H 78.8824 5.88116 1.19328 0
M  V30 852 H 79.9524 4.84337 0.233536 0
M  V30 853 N 81.2955 -0.223234 1.56011 0
M  V30 854 C 82.5425 -0.947875 1.78946 0
M  V30 855 C 82.8705 -1.844 0.618608 0
M  V30 856 O 82.1255 -1.91629 -0.397093 0
M  V30 857 C 82.4245 -1.81948 3.0762 0
M  V30 858 C 82.0905 -1.07672 4.37856 0
M  V30 859 C 80.7525 -0.871544 4.73242 0
M  V30 860 C 83.1045 -0.552081 5.18268 0
M  V30 861 C 80.4325 -0.129791 5.86556 0
M  V30 862 C 82.7845 0.17632 6.32354 0
M  V30 863 C 81.4485 0.39277 6.66343 0
M  V30 864 H 80.7185 -0.346852 0.654809 0
M  V30 865 H 83.3655 -0.216171 1.90276 0
M  V30 866 H 81.6705 -2.61899 2.91404 0
M  V30 867 H 83.3675 -2.38227 3.22566 0
M  V30 868 H 79.9575 -1.24662 4.1007 0
M  V30 869 H 84.1415 -0.698076 4.91366 0
M  V30 870 H 79.3975 0.048153 6.11381 0
M  V30 871 H 83.5715 0.590367 6.93893 0
M  V30 872 H 81.1985 0.969466 7.53993 0
M  V30 873 N 82.7736 -1.49793 -0.48987 0
M  V30 874 C 84.1896 -1.36803 -0.822022 0
M  V30 875 C 84.3896 -0.409652 -1.97292 0
M  V30 876 O 83.4456 0.154614 -2.52026 0
M  V30 877 C 84.7586 -2.77768 -1.15175 0
M  V30 878 C 86.3066 -2.86549 -1.25931 0
M  V30 879 C 86.7816 -4.28306 -1.62228 0
M  V30 880 N 88.2726 -4.31169 -1.69256 0
M  V30 881 C 89.0076 -5.37832 -1.98807 0
M  V30 882 N 88.5036 -6.54726 -2.26507 0
M  V30 883 N 90.2966 -5.25258 -2.00152 0
M  V30 884 H 82.4476 -2.10691 0.268881 0
M  V30 885 H 84.7106 -0.946241 0.057728 0
M  V30 886 H 84.4166 -3.49648 -0.379335 0
M  V30 887 H 84.2906 -3.13836 -2.09253 0
M  V30 888 H 86.6776 -2.14899 -2.02243 0
M  V30 889 H 86.7586 -2.54049 -0.298776 0
M  V30 890 H 86.4026 -5.00486 -0.864622 0
M  V30 891 H 86.3326 -4.58279 -2.594 0
M  V30 892 H 88.8236 -3.4687 -1.49965 0
M  V30 893 H 89.1366 -7.31833 -2.48276 0
M  V30 894 H 87.4816 -6.57933 -2.23939 0
M  V30 895 H 90.6726 -4.32938 -1.77996 0
M  V30 896 H 90.8456 -6.08476 -2.22848 0
M  V30 897 N 84.2517 0.741722 -1.39055 0
M  V30 898 C 85.4987 1.50114 -1.35912 0
M  V30 899 C 85.8267 1.94443 0.0470937 0
M  V30 900 O 85.0817 1.66612 1.02659 0
M  V30 901 C 85.3807 2.7592 -2.27163 0
M  V30 902 C 85.0467 2.50493 -3.74919 0
M  V30 903 C 83.7087 2.43267 -4.1518 0
M  V30 904 C 86.0607 2.28585 -4.684 0
M  V30 905 C 83.3887 2.12166 -5.46994 0
M  V30 906 C 85.7407 1.99002 -6.00484 0
M  V30 907 C 84.4047 1.90241 -6.39816 0
M  V30 908 H 83.6747 0.549306 -0.497336 0
M  V30 909 H 86.3217 0.851896 -1.71508 0
M  V30 910 H 84.6267 3.45553 -1.84663 0
M  V30 911 H 86.3237 3.33923 -2.22028 0
M  V30 912 H 82.9137 2.56992 -3.43006 0
M  V30 913 H 87.0977 2.33139 -4.38132 0
M  V30 914 H 82.3537 2.03901 -5.76398 0
M  V30 915 H 86.5277 1.81057 -6.72452 0
M  V30 916 H 84.1547 1.65907 -7.41875 0
M  V30 917 N 85.7298 1.2412 0.971189 0
M  V30 918 C 86.6928 1.03156 2.04674 0
M  V30 919 C 87.6928 -0.00990322 1.60797 0
M  V30 920 O 88.8828 0.230729 1.72665 0
M  V30 921 C 86.0148 0.562765 3.36223 0
M  V30 922 H 87.2078 1.98614 2.24705 0
M  V30 923 H 84.7608 1.06293 1.14593 0
M  V30 924 H 85.4958 -0.395176 3.21883 0
M  V30 925 H 85.2808 1.31441 3.69413 0
M  V30 926 H 86.7708 0.437015 4.15307 0
M  V30 927 N 87.2079 -1.17134 1.05439 0
M  V30 928 C 88.4329 -1.91913 0.786396 0
M  V30 929 C 88.8579 -1.7643 -0.652234 0
M  V30 930 O 88.2159 -1.08372 -1.45345 0
M  V30 931 C 88.2639 -3.40921 1.17497 0
M  V30 932 O 87.3679 -4.11244 0.308589 0
M  V30 933 H 86.7089 -0.598215 0.288158 0
M  V30 934 H 89.2389 -1.48457 1.4079 0
M  V30 935 H 89.2489 -3.91668 1.14281 0
M  V30 936 H 87.9239 -3.5151 2.22292 0
M  V30 937 H 86.5009 -3.70731 0.40157 0
M  V30 938 N 88.686 -0.835752 -1.33615 0
M  V30 939 C 89.596 -0.269088 -2.33052 0
M  V30 940 C 90.612 0.603251 -1.63208 0
M  V30 941 O 91.788 0.508112 -1.94885 0
M  V30 942 C 88.853 0.549091 -3.42324 0
M  V30 943 C 87.914 -0.347156 -4.27894 0
M  V30 944 C 87.147 0.43207 -5.31948 0
M  V30 945 O 87.37 1.66409 -5.45586 0
M  V30 946 O 86.304 -0.192298 -6.01593 0
M  V30 947 H 90.13 -1.09243 -2.83372 0
M  V30 948 H 87.715 -0.598198 -1.36901 0
M  V30 949 H 89.597 1.01414 -4.09015 0
M  V30 950 H 88.272 1.34955 -2.94226 0
M  V30 951 H 87.179 -0.859979 -3.64081 0
M  V30 952 H 88.512 -1.1123 -4.79467 0
M  V30 953 N 90.1641 1.46063 -0.591896 0
M  V30 954 C 91.1121 2.32124 0.148739 0
M  V30 955 C 92.1061 1.45035 0.875286 0
M  V30 956 O 93.3121 1.61609 0.792632 0
M  V30 957 H 89.6871 0.749024 0.066832 0
M  V30 958 H 91.6581 2.92392 -0.595783 0
M  V30 959 C 90.4071 3.28373 1.1431 0
M  V30 960 H 89.7301 3.95371 0.59346 0
M  V30 961 H 91.1701 3.91352 1.63155 0
M  V30 962 C 89.6291 2.54393 2.20875 0
M  V30 963 O 90.1591 2.31373 3.28374 0
M  V30 964 N 88.3651 2.14797 1.95731 0
M  V30 965 H 87.9121 2.33719 1.08319 0
M  V30 966 H 87.8701 1.65619 2.67241 0
M  V30 967 N 91.6422 0.330177 1.54103 0
M  V30 968 C 92.9192 -0.325007 1.92881 0
M  V30 969 C 93.2992 -1.6934 1.26045 0
M  V30 970 O 92.6472 -2.24855 0.406526 0
M  V30 971 C 92.8572 -0.410634 3.46576 0
M  V30 972 C 94.2052 -0.667801 4.19316 0
M  V30 973 O 95.2292 -0.49329 3.52768 0
M  V30 974 O 94.0882 -1.00491 5.37181 0
M  V30 975 H 91.1822 -0.186873 0.80561 0
M  V30 976 H 93.7282 0.380376 1.65382 0
M  V30 977 H 92.5002 0.550164 3.87413 0
M  V30 978 H 92.1232 -1.16333 3.802 0
M  V30 979 N 93.1203 -1.57491 0.0584922 0
M  V30 980 C 94.0503 -2.14988 -0.911178 0
M  V30 981 C 95.0313 -1.07343 -1.31952 0
M  V30 982 O 96.2163 -1.35318 -1.39294 0
M  V30 983 C 93.3463 -2.70078 -2.18347 0
M  V30 984 C 92.3003 -3.82771 -1.91495 0
M  V30 985 C 91.6263 -4.24408 -3.25241 0
M  V30 986 C 92.9263 -5.07592 -1.23075 0
M  V30 987 H 94.6203 -2.96263 -0.432246 0
M  V30 988 H 92.1663 -1.42512 -0.206469 0
M  V30 989 H 94.1193 -3.08943 -2.86587 0
M  V30 990 H 92.8433 -1.86005 -2.68458 0
M  V30 991 H 91.5023 -3.44389 -1.25664 0
M  V30 992 H 91.1503 -3.37275 -3.73168 0
M  V30 993 H 90.8503 -5.00366 -3.08071 0
M  V30 994 H 92.3743 -4.65879 -3.94701 0
M  V30 995 H 93.7883 -5.43857 -1.81362 0
M  V30 996 H 92.1853 -5.88741 -1.16207 0
M  V30 997 H 93.2553 -4.84454 -0.207847 0
M  V30 998 N 94.5984 0.214957 -1.56127 0
M  V30 999 C 96.0094 0.781386 -1.69562 0
M  V30 1000 C 96.3604 1.84707 -0.66165 0
M  V30 1001 O 95.4854 2.156 0.185927 0
M  V30 1002 C 96.0804 1.42411 -3.07416 0
M  V30 1003 C 94.6394 1.93786 -3.22683 0
M  V30 1004 C 93.7864 0.800438 -2.65496 0
M  V30 1005 H 96.7374 -0.00980633 -1.58697 0
M  V30 1006 H 96.7584 2.29309 -3.0364 0
M  V30 1007 H 96.2704 0.64826 -3.82648 0
M  V30 1008 H 94.3714 2.74152 -2.52332 0
M  V30 1009 H 94.4844 2.1133 -4.29973 0
M  V30 1010 H 92.8484 1.2095 -2.2415 0
M  V30 1011 H 93.6314 0.0371471 -3.4328 0
M  V30 1012 N 96.0765 1.50051 0.48192 0
M  V30 1013 C 96.9865 1.7089 1.60728 0
M  V30 1014 C 98.0025 0.591788 1.63627 0
M  V30 1015 O 99.1785 0.868817 1.81696 0
M  V30 1016 C 96.2435 1.78855 2.97005 0
M  V30 1017 C 95.3045 3.02537 3.04581 0
M  V30 1018 C 94.5375 3.10112 4.34357 0
M  V30 1019 O 94.7605 2.24765 5.24249 0
M  V30 1020 O 93.6945 4.02747 4.47301 0
M  V30 1021 H 97.5205 2.66264 1.46072 0
M  V30 1022 H 95.1055 1.34018 0.660264 0
M  V30 1023 H 96.9875 1.86336 3.77964 0
M  V30 1024 H 95.6625 0.866628 3.11883 0
M  V30 1025 H 94.5695 3.00563 2.22739 0
M  V30 1026 H 95.9025 3.94272 2.94636 0
M  V30 1027 N 97.5546 -0.734337 1.39446 0
M  V30 1028 C 98.8006 -1.49505 1.37913 0
M  V30 1029 C 99.1556 -1.92384 -0.0248416 0
M  V30 1030 O 98.4486 -1.6395 -0.991506 0
M  V30 1031 C 98.6426 -2.74711 2.28623 0
M  V30 1032 C 98.4716 -2.44075 3.777 0
M  V30 1033 C 97.2416 -2.36338 4.46623 0
M  V30 1034 C 99.4396 -2.09574 4.69663 0
M  V30 1035 N 97.4216 -1.9818 5.81032 0
M  V30 1036 C 98.7926 -1.81865 5.92727 0
M  V30 1037 C 100.848 -1.96048 4.57678 0
M  V30 1038 C 99.5506 -1.41992 7.05146 0
M  V30 1039 C 101.577 -1.57579 5.7002 0
M  V30 1040 C 100.939 -1.30754 6.92158 0
M  V30 1041 H 97.0376 -0.545896 0.55993 0
M  V30 1042 H 99.6216 -0.853373 1.75002 0
M  V30 1043 H 97.7926 -3.36657 1.93692 0
M  V30 1044 H 99.5246 -3.40916 2.18078 0
M  V30 1045 H 96.2796 -2.53456 4.00071 0
M  V30 1046 H 96.7036 -1.81691 6.52163 0
M  V30 1047 H 101.346 -2.15455 3.63784 0
M  V30 1048 H 99.0636 -1.21327 7.9894 0
M  V30 1049 H 102.65 -1.47718 5.62735 0
M  V30 1050 H 101.53 -1.01432 7.77612 0
M  V30 1051 N 99.0327 -1.24633 -0.964593 0
M  V30 1052 C 99.9797 -1.04144 -2.05968 0
M  V30 1053 C 100.95 0.046262 -1.66036 0
M  V30 1054 O 102.135 -0.108972 -1.90489 0
M  V30 1055 C 99.2747 -0.65563 -3.38815 0
M  V30 1056 C 98.3877 -1.81714 -3.91923 0
M  V30 1057 C 97.5227 -1.37662 -5.13052 0
M  V30 1058 C 96.5617 -2.50788 -5.58365 0
M  V30 1059 N 95.6987 -2.07582 -6.70712 0
M  V30 1060 H 100.539 -1.9787 -2.22827 0
M  V30 1061 H 98.0757 -0.9855 -1.09208 0
M  V30 1062 H 100.034 -0.412954 -4.15151 0
M  V30 1063 H 98.6637 0.244627 -3.21872 0
M  V30 1064 H 97.7157 -2.1734 -3.12198 0
M  V30 1065 H 99.0277 -2.66705 -4.21509 0
M  V30 1066 H 98.1817 -1.093 -5.96773 0
M  V30 1067 H 96.9207 -0.497293 -4.85158 0
M  V30 1068 H 95.9257 -2.79906 -4.73215 0
M  V30 1069 H 97.1507 -3.39283 -5.88272 0
M  V30 1070 H 95.0967 -1.22051 -6.44546 0
M  V30 1071 H 95.0137 -2.86125 -6.99763 0
M  V30 1072 H 96.2817 -1.82369 -7.57867 0
M  V30 1073 N 100.511 1.16574 -1.06058 0
M  V30 1074 C 101.421 2.2452 -0.680282 0
M  V30 1075 C 102.437 1.71348 0.302604 0
M  V30 1076 O 103.613 2.00822 0.152513 0
M  V30 1077 C 100.678 3.46629 -0.0700315 0
M  V30 1078 C 99.7388 4.14849 -1.10448 0
M  V30 1079 C 98.9718 5.31129 -0.523256 0
M  V30 1080 O 99.1948 5.66514 0.664709 0
M  V30 1081 O 98.1288 5.88526 -1.26179 0
M  V30 1082 H 101.955 2.59355 -1.58015 0
M  V30 1083 H 99.5398 1.24043 -0.832694 0
M  V30 1084 H 101.422 4.20543 0.268667 0
M  V30 1085 H 100.097 3.13573 0.803353 0
M  V30 1086 H 99.0038 3.42916 -1.49532 0
M  V30 1087 H 100.337 4.51954 -1.94931 0
M  V30 1088 N 101.989 0.842826 1.3317 0
M  V30 1089 C 103.405 0.531128 1.50503 0
M  V30 1090 C 103.605 -0.940734 1.78192 0
M  V30 1091 O 102.661 -1.72436 1.84451 0
M  V30 1092 C 103.974 1.40789 2.65705 0
M  V30 1093 C 105.522 1.40708 2.79589 0
M  V30 1094 C 105.997 2.26878 3.97857 0
M  V30 1095 N 107.488 2.24609 4.05099 0
M  V30 1096 C 108.223 2.88019 4.95815 0
M  V30 1097 N 107.719 3.60496 5.9162 0
M  V30 1098 N 109.512 2.77469 4.88843 0
M  V30 1099 H 101.663 1.79557 1.1346 0
M  V30 1100 H 103.926 0.766267 0.558156 0
M  V30 1101 H 103.632 2.454 2.51936 0
M  V30 1102 H 103.506 1.08677 3.61205 0
M  V30 1103 H 105.893 0.368668 2.92788 0
M  V30 1104 H 105.974 1.76829 1.84838 0
M  V30 1105 H 105.618 3.3078 3.85418 0
M  V30 1106 H 105.548 1.88096 4.91861 0
M  V30 1107 H 108.039 1.71906 3.36536 0
M  V30 1108 H 108.352 4.06076 6.57512 0
M  V30 1109 H 106.697 3.64604 5.91683 0
M  V30 1110 H 109.888 2.20406 4.12963 0
M  V30 1111 H 110.061 3.2717 5.59342 0
M  V30 1112 N 103.467 -1.45747 0.599634 0
M  V30 1113 C 104.715 -2.01893 0.0915472 0
M  V30 1114 C 105.036 -1.47155 -1.27946 0
M  V30 1115 O 104.306 -0.66273 -1.84349 0
M  V30 1116 H 102.886 -0.746363 0.0308524 0
M  V30 1117 H 105.548 -1.78645 0.779237 0
M  V30 1118 H 104.644 -3.1208 0.0353086 0
M  V30 1119 N 104.945 -0.338344 -1.53925 0
M  V30 1120 C 106.173 0.261298 -2.05243 0
M  V30 1121 C 106.588 1.44625 -1.21363 0
M  V30 1122 O 105.945 1.80811 -0.247736 0
M  V30 1123 C 105.996 0.681412 -3.5502 0
M  V30 1124 O 105.717 -0.456414 -4.35716 0
M  V30 1125 C 107.218 1.34232 -4.22489 0
M  V30 1126 H 104.438 0.0513685 -0.669031 0
M  V30 1127 H 106.982 -0.488822 -1.98572 0
M  V30 1128 H 105.137 1.38148 -3.61931 0
M  V30 1129 H 105.551 -0.122564 -5.24357 0
M  V30 1130 H 107.025 1.58708 -5.28693 0
M  V30 1131 H 107.502 2.29426 -3.74514 0
M  V30 1132 H 108.108 0.684424 -4.19757 0
M  V30 1133 N 106.423 1.57458 -0.0668435 0
M  V30 1134 C 107.671 1.92919 0.602214 0
M  V30 1135 C 107.992 0.947215 1.70449 0
M  V30 1136 O 107.262 -0.00544117 1.95899 0
M  V30 1137 H 105.842 0.71217 0.22544 0
M  V30 1138 H 108.504 1.94508 -0.123535 0
M  V30 1139 H 107.6 2.94589 1.03073 0
M  V30 1140 N 107.901 -0.206675 1.56239 0
M  V30 1141 C 109.178 -0.954051 1.70755 0
M  V30 1142 C 109.558 -2.01841 0.618353 0
M  V30 1143 O 108.906 -2.25444 -0.372434 0
M  V30 1144 C 109.116 -1.551 3.12642 0
M  V30 1145 C 110.464 -2.03757 3.72516 0
M  V30 1146 O 111.488 -1.64965 3.15698 0
M  V30 1147 O 110.347 -2.75103 4.72208 0
M  V30 1148 H 107.441 -0.446636 0.696021 0
M  V30 1149 H 109.987 -0.197283 1.68549 0
M  V30 1150 H 108.759 -0.783212 3.83382 0
M  V30 1151 H 108.382 -2.37291 3.19028 0
M  V30 1152 N 109.379 -1.50304 -0.473955 0
M  V30 1153 C 110.625 -1.61389 -1.22806 0
M  V30 1154 C 110.958 -0.311955 -1.91678 0
M  V30 1155 O 110.233 0.686384 -1.81986 0
M  V30 1156 C 110.516 -2.79219 -2.27396 0
M  V30 1157 C 110.369 -4.19286 -1.62848 0
M  V30 1158 C 111.688 -2.92614 -3.28732 0
M  V30 1159 H 108.807 -0.587399 -0.445119 0
M  V30 1160 H 111.449 -1.82681 -0.522265 0
M  V30 1161 H 109.599 -2.61195 -2.87592 0
M  V30 1162 H 111.271 -4.48892 -1.06271 0
M  V30 1163 H 109.514 -4.23677 -0.931693 0
M  V30 1164 H 110.185 -4.97655 -2.38838 0
M  V30 1165 H 112.661 -3.09105 -2.78556 0
M  V30 1166 H 111.537 -3.76688 -3.99246 0
M  V30 1167 H 111.798 -2.03107 -3.92683 0
M  V30 1168 N 110.857 0.726932 -1.39834 0
M  V30 1169 C 111.804 1.841 -1.39197 0
M  V30 1170 C 112.774 1.642 -0.250502 0
M  V30 1171 O 113.959 1.85494 -0.446846 0
M  V30 1172 C 111.099 3.21697 -1.24919 0
M  V30 1173 C 110.212 3.53247 -2.48678 0
M  V30 1174 C 109.347 4.80289 -2.26928 0
M  V30 1175 C 108.386 5.04707 -3.4632 0
M  V30 1176 N 107.523 6.22956 -3.23836 0
M  V30 1177 H 112.363 1.83979 -2.34427 0
M  V30 1178 H 109.9 0.898876 -1.16442 0
M  V30 1179 H 111.858 4.01137 -1.1465 0
M  V30 1180 H 110.488 3.21076 -0.333153 0
M  V30 1181 H 109.54 2.68447 -2.69519 0
M  V30 1182 H 110.852 3.67205 -3.37582 0
M  V30 1183 H 110.006 5.67725 -2.13947 0
M  V30 1184 H 108.745 4.68519 -1.35431 0
M  V30 1185 H 107.75 4.1573 -3.5979 0
M  V30 1186 H 108.975 5.18357 -4.38729 0
M  V30 1187 H 106.921 6.12459 -2.35011 0
M  V30 1188 H 106.838 6.37539 -4.063 0
M  V30 1189 H 108.106 7.1321 -3.14566 0
M  V30 1190 N 112.336 1.25143 0.95797 0
M  V30 1191 C 113.266 1.07711 2.07173 0
M  V30 1192 C 114.247 -0.0128462 1.70095 0
M  V30 1193 O 115.432 0.156061 1.93572 0
M  V30 1194 C 112.562 0.691503 3.40346 0
M  V30 1195 C 111.516 1.73132 3.9142 0
M  V30 1196 C 110.842 1.20049 5.21049 0
M  V30 1197 C 112.142 3.1294 4.1817 0
M  V30 1198 H 113.836 2.00873 2.22014 0
M  V30 1199 H 111.382 0.967191 1.06684 0
M  V30 1200 H 113.335 0.556505 4.17709 0
M  V30 1201 H 112.059 -0.275819 3.25433 0
M  V30 1202 H 110.718 1.8547 3.16222 0
M  V30 1203 H 110.366 0.223499 5.02503 0
M  V30 1204 H 110.066 1.89545 5.56189 0
M  V30 1205 H 111.59 1.07782 6.01012 0
M  V30 1206 H 113.004 3.03775 4.86203 0
M  V30 1207 H 111.401 3.79875 4.64559 0
M  V30 1208 H 112.471 3.6025 3.24573 0
M  V30 1209 N 113.814 -1.1601 1.06675 0
M  V30 1210 C 114.744 -2.22688 0.702307 0
M  V30 1211 C 115.725 -1.67306 -0.307032 0
M  V30 1212 O 116.91 -1.93352 -0.181305 0
M  V30 1213 C 114.04 -3.47178 0.092038 0
M  V30 1214 C 112.994 -4.15477 1.02777 0
M  V30 1215 C 112.32 -5.33963 0.28061 0
M  V30 1216 C 113.62 -4.66019 2.35846 0
M  V30 1217 H 115.314 -2.53429 1.59419 0
M  V30 1218 H 112.86 -1.21813 0.767961 0
M  V30 1219 H 114.813 -4.21037 -0.174814 0
M  V30 1220 H 113.537 -3.15749 -0.834877 0
M  V30 1221 H 112.196 -3.43549 1.27944 0
M  V30 1222 H 111.844 -4.98788 -0.649545 0
M  V30 1223 H 111.544 -5.806 0.904258 0
M  V30 1224 H 113.068 -6.10596 0.021396 0
M  V30 1225 H 114.482 -5.3144 2.15045 0
M  V30 1226 H 112.879 -5.23293 2.93743 0
M  V30 1227 H 113.949 -3.82023 2.98641 0
M  V30 1228 N 115.292 -0.849877 -1.32721 0
M  V30 1229 C 116.239 -0.289033 -2.28983 0
M  V30 1230 C 117.209 0.601324 -1.54833 0
M  V30 1231 O 118.394 0.537253 -1.8308 0
M  V30 1232 C 115.534 0.520623 -3.4115 0
M  V30 1233 C 114.647 -0.394989 -4.3019 0
M  V30 1234 C 113.782 0.426834 -5.29482 0
M  V30 1235 C 112.821 -0.486476 -6.10164 0
M  V30 1236 N 111.958 0.297879 -7.01468 0
M  V30 1237 H 116.798 -1.11519 -2.76347 0
M  V30 1238 H 114.335 -0.56138 -1.35967 0
M  V30 1239 H 116.293 1.00563 -4.04899 0
M  V30 1240 H 114.923 1.31165 -2.9495 0
M  V30 1241 H 113.975 -0.99836 -3.67065 0
M  V30 1242 H 115.287 -1.09612 -4.86607 0
M  V30 1243 H 114.441 0.975205 -5.98811 0
M  V30 1244 H 113.18 1.16136 -4.73671 0
M  V30 1245 H 112.185 -1.04677 -5.39743 0
M  V30 1246 H 113.41 -1.21953 -6.6806 0
M  V30 1247 H 111.356 1.01558 -6.48091 0
M  V30 1248 H 111.273 -0.344318 -7.55216 0
M  V30 1249 H 112.541 0.828131 -7.75089 0
M  V30 1250 N 116.77 1.45427 -0.607355 0
M  V30 1251 C 117.72 2.27612 0.133038 0
M  V30 1252 C 118.704 1.37307 0.838785 0
M  V30 1253 O 119.896 1.61299 0.728813 0
M  V30 1254 C 117.025 3.24173 1.12991 0
M  V30 1255 C 116.111 4.21965 0.425011 0
M  V30 1256 N 116.502 5.02982 -0.533217 0
M  V30 1257 C 114.8 4.40899 0.672593 0
M  V30 1258 C 115.501 5.73931 -0.947518 0
M  V30 1259 N 114.477 5.42819 -0.291321 0
M  V30 1260 H 118.279 2.87649 -0.602935 0
M  V30 1261 H 115.793 1.56576 -0.431006 0
M  V30 1262 H 117.79 3.81783 1.67473 0
M  V30 1263 H 116.45 2.65696 1.86644 0
M  V30 1264 H 117.461 5.09843 -0.90995 0
M  V30 1265 H 114.138 3.93547 1.39382 0
M  V30 1266 H 115.528 6.49037 -1.73782 0
M  V30 1267 N 118.248 0.346503 1.53744 0
M  V30 1268 C 119.195 -0.508914 2.25119 0
M  V30 1269 C 120.165 -1.09315 1.25058 0
M  V30 1270 O 121.35 -1.12921 1.53797 0
M  V30 1271 C 118.49 -1.65246 3.02965 0
M  V30 1272 C 117.603 -1.09525 4.17886 0
M  V30 1273 C 116.738 -2.20634 4.83212 0
M  V30 1274 C 115.777 -1.62279 5.90196 0
M  V30 1275 N 114.914 -2.67143 6.49291 0
M  V30 1276 H 119.754 0.106283 2.9781 0
M  V30 1277 H 117.291 0.0642227 1.4696 0
M  V30 1278 H 119.249 -2.32574 3.4636 0
M  V30 1279 H 117.879 -2.2386 2.32565 0
M  V30 1280 H 116.931 -0.312818 3.79112 0
M  V30 1281 H 118.243 -0.628444 4.94825 0
M  V30 1282 H 117.397 -2.95821 5.29693 0
M  V30 1283 H 116.136 -2.70659 4.05703 0
M  V30 1284 H 115.141 -0.855989 5.43096 0
M  V30 1285 H 116.366 -1.13102 6.69615 0
M  V30 1286 H 114.312 -3.16417 5.74645 0
M  V30 1287 H 114.229 -2.25093 7.21713 0
M  V30 1288 H 115.497 -3.4209 7.00425 0
M  V30 1289 N 119.726 -1.57421 0.075193 0
M  V30 1290 C 120.636 -2.1642 -0.905511 0
M  V30 1291 C 121.652 -1.12828 -1.32461 0
M  V30 1292 O 122.828 -1.45109 -1.39661 0
M  V30 1293 C 119.893 -2.71693 -2.15369 0
M  V30 1294 C 118.954 -3.90171 -1.79068 0
M  V30 1295 C 118.187 -4.42798 -2.97936 0
M  V30 1296 O 118.41 -3.94416 -4.12058 0
M  V30 1297 O 117.344 -5.34085 -2.77555 0
M  V30 1298 H 121.17 -3.00588 -0.433626 0
M  V30 1299 H 118.755 -1.48664 -0.148067 0
M  V30 1300 H 120.637 -3.07104 -2.88557 0
M  V30 1301 H 119.312 -1.90582 -2.61649 0
M  V30 1302 H 118.219 -3.59606 -1.03122 0
M  V30 1303 H 119.552 -4.72584 -1.37569 0
M  V30 1304 N 121.204 0.198386 -1.56346 0
M  V30 1305 C 122.151 1.24589 -1.94284 0
M  V30 1306 C 123.121 1.454 -0.802997 0
M  V30 1307 O 124.306 1.58588 -1.06087 0
M  V30 1308 C 121.446 2.58631 -2.28482 0
M  V30 1309 C 120.559 2.45426 -3.55514 0
M  V30 1310 C 119.694 3.7215 -3.79049 0
M  V30 1311 C 118.733 3.53763 -4.99518 0
M  V30 1312 N 117.87 4.72491 -5.19323 0
M  V30 1313 H 122.71 0.915356 -2.83593 0
M  V30 1314 H 120.247 0.440629 -1.40346 0
M  V30 1315 H 122.205 3.3672 -2.46324 0
M  V30 1316 H 120.835 2.89734 -1.42317 0
M  V30 1317 H 119.887 1.58652 -3.45737 0
M  V30 1318 H 121.199 2.27772 -4.43758 0
M  V30 1319 H 120.353 4.58679 -3.97113 0
M  V30 1320 H 119.092 3.92754 -2.89129 0
M  V30 1321 H 118.097 2.65619 -4.8138 0
M  V30 1322 H 119.322 3.34607 -5.90944 0
M  V30 1323 H 117.268 4.93365 -4.3235 0
M  V30 1324 H 117.185 4.5765 -6.01741 0
M  V30 1325 H 118.453 5.6038 -5.41843 0
M  V30 1326 N 122.682 1.50554 0.465978 0
M  V30 1327 C 123.93 1.61479 1.21528 0
M  V30 1328 C 124.251 0.319596 1.92363 0
M  V30 1329 O 123.521 -0.663194 1.84333 0
M  V30 1330 H 122.101 0.595055 0.451573 0
M  V30 1331 H 124.763 1.87355 0.53704 0
M  V30 1332 H 123.859 2.42846 1.96042 0
M  V30 1333 N 124.16 -0.719506 1.40217 0
M  V30 1334 C 125.123 -1.8153 1.39927 0
M  V30 1335 C 126.123 -1.58095 0.293723 0
M  V30 1336 O 127.313 -1.65209 0.552429 0
M  V30 1337 C 124.445 -3.19561 1.18716 0
M  V30 1338 H 125.638 -1.83186 2.37451 0
M  V30 1339 H 123.191 -0.924746 1.26008 0
M  V30 1340 H 123.926 -3.23557 0.219366 0
M  V30 1341 H 123.711 -3.3797 1.98793 0
M  V30 1342 H 125.201 -3.99598 1.21291 0
M  V30 1343 N 125.638 -1.25649 -0.95132 0
M  V30 1344 C 126.887 -1.09988 -1.69073 0
M  V30 1345 C 127.2 0.358355 -1.92289 0
M  V30 1346 O 128.406 0.635466 -2.63958 0
M  V30 1347 C 126.862 -1.92012 -3.044 0
M  V30 1348 C 126.47 -3.42347 -2.88968 0
M  V30 1349 C 128.214 -1.8493 -3.82101 0
M  V30 1350 C 126.121 -4.16655 -4.19705 0
M  V30 1351 H 125.051 -0.407993 -0.63408 0
M  V30 1352 H 127.702 -1.49873 -1.05879 0
M  V30 1353 H 126.084 -1.44952 -3.68517 0
M  V30 1354 H 127.258 -3.97104 -2.33762 0
M  V30 1355 H 125.573 -3.50557 -2.24719 0
M  V30 1356 H 128.17 -2.37739 -4.78941 0
M  V30 1357 H 128.513 -0.817883 -4.08187 0
M  V30 1358 H 129.046 -2.29758 -3.2474 0
M  V30 1359 H 125.785 -5.20224 -3.98807 0
M  V30 1360 H 125.305 -3.66681 -4.74663 0
M  V30 1361 H 126.984 -4.24551 -4.88227 0
M  V30 1362 N 127.117 1.15442 -1.07289 0
M  V30 1363 C 128.533 1.38201 -0.798288 0
M  V30 1364 C 128.733 1.92429 0.597769 0
M  V30 1365 O 127.789 2.12962 1.3566 0
M  V30 1366 C 129.102 2.35357 -1.87156 0
M  V30 1367 C 130.65 2.49021 -1.89624 0
M  V30 1368 C 131.125 3.49468 -2.96034 0
M  V30 1369 N 132.616 3.57003 -2.95132 0
M  V30 1370 C 133.351 4.34543 -3.74112 0
M  V30 1371 N 132.847 5.15421 -4.6294 0
M  V30 1372 N 134.64 4.29625 -3.62462 0
M  V30 1373 H 126.791 0.78584 -1.97328 0
M  V30 1374 H 129.054 0.408065 -0.855679 0
M  V30 1375 H 128.76 2.02626 -2.87464 0
M  V30 1376 H 128.634 3.35129 -1.73114 0
M  V30 1377 H 131.021 2.81051 -0.899687 0
M  V30 1378 H 131.102 1.4925 -2.07745 0
M  V30 1379 H 130.746 3.18173 -3.95889 0
M  V30 1380 H 130.676 4.48992 -2.75161 0
M  V30 1381 H 133.167 2.99276 -2.30743 0
M  V30 1382 H 133.48 5.7183 -5.19837 0
M  V30 1383 H 131.825 5.14729 -4.66989 0
M  V30 1384 H 135.016 3.65505 -2.92444 0
M  V30 1385 H 135.189 4.89807 -4.24256 0
M  V30 1386 N 128.595 0.856903 1.32268 0
M  V30 1387 C 129.525 0.31858 2.31316 0
M  V30 1388 C 130.506 -0.583487 1.59779 0
M  V30 1389 O 131.691 -0.503259 1.87566 0
M  V30 1390 C 128.821 -0.491979 3.43798 0
M  V30 1391 C 127.775 0.315849 4.26833 0
M  V30 1392 C 127.101 -0.619586 5.31098 0
M  V30 1393 C 128.401 1.54282 4.98993 0
M  V30 1394 H 130.095 1.14621 2.76591 0
M  V30 1395 H 127.641 0.552613 1.32974 0
M  V30 1396 H 129.594 -0.879012 4.1213 0
M  V30 1397 H 128.318 -1.35299 2.97257 0
M  V30 1398 H 126.977 0.684664 3.6015 0
M  V30 1399 H 126.625 -1.47751 4.8081 0
M  V30 1400 H 126.325 -0.0830621 5.87541 0
M  V30 1401 H 127.849 -1.00375 6.02293 0
M  V30 1402 H 129.263 1.22796 5.59995 0
M  V30 1403 H 127.66 2.01745 5.65172 0
M  V30 1404 H 128.73 2.30285 4.26728 0
M  V30 1405 N 130.073 -1.45103 0.615059 0
M  V30 1406 C 131.003 -2.33339 -0.0865619 0
M  V30 1407 C 131.984 -1.4727 -0.851209 0
M  V30 1408 O 133.169 -1.76026 -0.820281 0
M  V30 1409 C 130.299 -3.30095 -1.07956 0
M  V30 1410 C 129.253 -4.25858 -0.427628 0
M  V30 1411 C 128.579 -5.12361 -1.5294 0
M  V30 1412 C 129.879 -5.18165 0.655944 0
M  V30 1413 H 131.573 -2.92254 0.650224 0
M  V30 1414 H 129.119 -1.40532 0.314138 0
M  V30 1415 H 131.072 -3.90698 -1.57901 0
M  V30 1416 H 129.796 -2.69355 -1.84703 0
M  V30 1417 H 128.455 -3.66564 0.0510292 0
M  V30 1418 H 128.103 -4.47984 -2.28734 0
M  V30 1419 H 127.803 -5.77238 -1.09865 0
M  V30 1420 H 129.327 -5.75833 -2.03098 0
M  V30 1421 H 130.741 -5.72796 0.240257 0
M  V30 1422 H 129.138 -5.91559 1.00888 0
M  V30 1423 H 130.208 -4.60144 1.52957 0
M  V30 1424 N 131.551 -0.354651 -1.53558 0
M  V30 1425 C 132.484 0.540273 -2.21712 0
M  V30 1426 C 133.462 1.09161 -1.2051 0
M  V30 1427 O 134.646 1.14979 -1.49372 0
M  V30 1428 C 131.773 1.74435 -2.90328 0
M  V30 1429 C 130.819 1.32146 -4.05512 0
M  V30 1430 S 131.652 0.331924 -5.3447 0
M  V30 1431 C 132.808 1.54258 -6.06593 0
M  V30 1432 H 133.041 -0.0385776 -2.97275 0
M  V30 1433 H 130.574 -0.138736 -1.53775 0
M  V30 1434 H 132.532 2.43507 -3.30476 0
M  V30 1435 H 131.193 2.29444 -2.1451 0
M  V30 1436 H 130.386 2.21952 -4.52497 0
M  V30 1437 H 129.988 0.710091 -3.67197 0
M  V30 1438 H 132.28 2.47534 -6.30661 0
M  V30 1439 H 133.223 1.11431 -6.99277 0
M  V30 1440 H 133.631 1.74367 -5.36895 0
M  V30 1441 N 133.029 1.57378 -0.0835403 0
M  V30 1442 C 134.445 1.57246 0.273109 0
M  V30 1443 C 134.645 1.09385 1.69225 0
M  V30 1444 O 133.701 0.765051 2.40631 0
M  V30 1445 C 135.014 3.00614 0.0720628 0
M  V30 1446 C 136.562 3.12684 0.1407 0
M  V30 1447 C 137.037 4.57989 -0.0322094 0
M  V30 1448 N 138.528 4.63194 0.0230085 0
M  V30 1449 C 139.263 5.73335 -0.0861941 0
M  V30 1450 N 138.759 6.9235 -0.24958 0
M  V30 1451 N 140.552 5.62093 -0.0282886 0
M  V30 1452 H 132.703 1.86801 -1.0109 0
M  V30 1453 H 134.966 0.861687 -0.395222 0
M  V30 1454 H 134.672 3.39786 -0.907662 0
M  V30 1455 H 134.546 3.68193 0.81936 0
M  V30 1456 H 136.933 2.73391 1.11092 0
M  V30 1457 H 137.014 2.47719 -0.637896 0
M  V30 1458 H 136.658 4.97973 -0.999247 0
M  V30 1459 H 136.588 5.21 0.765937 0
M  V30 1460 H 139.079 3.77613 0.14722 0
M  V30 1461 H 139.392 7.72117 -0.324733 0
M  V30 1462 H 137.737 6.94415 -0.285097 0
M  V30 1463 H 140.928 4.67997 0.0981408 0
M  V30 1464 H 141.101 6.47895 -0.116845 0
M  V30 1465 N 134.507 -0.190092 1.56449 0
M  V30 1466 C 135.923 -0.54113 1.50146 0
M  V30 1467 C 136.123 -1.85603 0.784465 0
M  V30 1468 O 135.179 -2.5024 0.337051 0
M  V30 1469 C 136.492 -0.591241 2.9483 0
M  V30 1470 C 138.04 -0.679732 3.0553 0
M  V30 1471 C 138.515 -0.760908 4.51635 0
M  V30 1472 N 140.006 -0.824302 4.55806 0
M  V30 1473 C 140.741 -0.907365 5.66175 0
M  V30 1474 N 140.237 -0.952422 6.86222 0
M  V30 1475 N 142.03 -0.94494 5.541 0
M  V30 1476 H 134.181 0.67235 2.01478 0
M  V30 1477 H 136.444 0.240127 0.917084 0
M  V30 1478 H 136.15 0.305905 3.50367 0
M  V30 1479 H 136.024 -1.44422 3.48457 0
M  V30 1480 H 138.411 -1.56731 2.50039 0
M  V30 1481 H 138.492 0.199549 2.5502 0
M  V30 1482 H 138.136 0.122336 5.07753 0
M  V30 1483 H 138.066 -1.65606 4.99882 0
M  V30 1484 H 140.557 -0.798526 3.69367 0
M  V30 1485 H 140.87 -1.01645 7.66086 0
M  V30 1486 H 139.215 -0.921014 6.8887 0
M  V30 1487 H 142.406 -0.906612 4.59236 0
M  V30 1488 H 142.579 -1.00622 6.4014 0
M  V30 1489 N 135.985 -1.50799 -0.457987 0
M  V30 1490 C 137.262 -1.52968 -1.21902 0
M  V30 1491 C 137.642 -0.281906 -2.09209 0
M  V30 1492 O 136.99 0.734076 -2.16388 0
M  V30 1493 C 137.2 -2.8326 -2.03875 0
M  V30 1494 C 138.548 -3.34425 -2.6162 0
M  V30 1495 O 139.572 -2.8467 -2.14106 0
M  V30 1496 O 138.431 -4.21188 -3.48228 0
M  V30 1497 H 135.525 -0.614129 -0.553873 0
M  V30 1498 H 138.071 -1.63098 -0.468739 0
M  V30 1499 H 136.843 -3.65543 -1.39621 0
M  V30 1500 H 136.466 -2.76195 -2.8601 0
M  V30 1501 N 137.463 0.71206 -1.40597 0
M  V30 1502 C 138.41 1.82613 -1.41142 0
M  V30 1503 C 139.38 1.63925 -0.267903 0
M  V30 1504 O 140.565 1.85009 -0.466495 0
M  V30 1505 C 137.705 3.20354 -1.28324 0
M  V30 1506 C 136.818 3.50589 -2.52411 0
M  V30 1507 C 135.953 4.77855 -2.32009 0
M  V30 1508 C 134.992 5.01005 -3.51654 0
M  V30 1509 N 134.129 6.19487 -3.30425 0
M  V30 1510 H 138.969 1.81482 -2.36365 0
M  V30 1511 H 136.506 0.886475 -1.17388 0
M  V30 1512 H 138.464 3.99899 -1.18899 0
M  V30 1513 H 137.094 3.20705 -0.367189 0
M  V30 1514 H 136.146 2.65573 -2.72351 0
M  V30 1515 H 137.458 3.63604 -3.41458 0
M  V30 1516 H 136.612 5.65424 -2.19956 0
M  V30 1517 H 135.351 4.67056 -1.40392 0
M  V30 1518 H 134.356 4.1189 -3.64179 0
M  V30 1519 H 135.581 5.13674 -4.44202 0
M  V30 1520 H 133.527 6.09932 -2.41494 0
M  V30 1521 H 133.444 6.33194 -4.13039 0
M  V30 1522 H 134.712 7.09834 -3.22113 0
M  V30 1523 N 138.941 1.26152 0.944643 0
M  V30 1524 C 140.169 1.14259 1.72489 0
M  V30 1525 C 140.584 -0.302555 1.8636 0
M  V30 1526 O 139.941 -1.20741 1.36849 0
M  V30 1527 C 139.992 1.80266 3.13347 0
M  V30 1528 O 139.713 3.19133 3.00143 0
M  V30 1529 C 141.214 1.74283 4.07603 0
M  V30 1530 H 138.434 0.398051 0.540181 0
M  V30 1531 H 140.978 1.66706 1.18446 0
M  V30 1532 H 139.133 1.31766 3.64303 0
M  V30 1533 H 139.547 3.51744 3.89071 0
M  V30 1534 H 141.021 2.25111 5.04013 0
M  V30 1535 H 141.498 0.708631 4.33446 0
M  V30 1536 H 142.104 2.22319 3.62567 0
M  V30 1537 N 140.419 -1.14872 1.07899 0
M  V30 1538 C 141.349 -2.2193 0.725887 0
M  V30 1539 C 142.33 -1.67622 -0.28927 0
M  V30 1540 O 143.515 -1.93533 -0.160787 0
M  V30 1541 C 140.645 -3.47061 0.128856 0
M  V30 1542 C 139.599 -4.14363 1.07178 0
M  V30 1543 C 138.925 -5.33636 0.337229 0
M  V30 1544 C 140.225 -4.63492 2.40775 0
M  V30 1545 H 141.919 -2.51724 1.62097 0
M  V30 1546 H 139.465 -1.20991 0.780838 0
M  V30 1547 H 141.418 -4.21199 -0.130147 0
M  V30 1548 H 140.142 -3.16617 -0.80134 0
M  V30 1549 H 138.801 -3.42173 1.3158 0
M  V30 1550 H 138.449 -4.99449 -0.596606 0
M  V30 1551 H 138.149 -5.79609 0.965788 0
M  V30 1552 H 139.673 -6.10539 0.0861567 0
M  V30 1553 H 141.087 -5.2913 2.20669 0
M  V30 1554 H 139.484 -5.20148 2.99276 0
M  V30 1555 H 140.554 -3.78834 3.02676 0
M  V30 1556 N 141.898 -0.863906 -1.31812 0
M  V30 1557 C 142.845 -0.313303 -2.28664 0
M  V30 1558 C 143.815 0.584868 -1.55462 0
M  V30 1559 O 145 0.517805 -1.83639 0
M  V30 1560 C 142.14 0.48441 -3.41683 0
M  V30 1561 C 141.253 -0.440594 -4.29747 0
M  V30 1562 C 140.388 0.370652 -5.29905 0
M  V30 1563 C 139.427 -0.551164 -6.09613 0
M  V30 1564 N 138.564 0.223462 -7.01744 0
M  V30 1565 H 143.404 -1.14444 -2.75148 0
M  V30 1566 H 140.941 -0.575769 -1.35364 0
M  V30 1567 H 142.899 0.962627 -4.05943 0
M  V30 1568 H 141.529 1.28029 -2.96325 0
M  V30 1569 H 140.581 -1.03724 -3.65986 0
M  V30 1570 H 141.893 -1.14767 -4.85417 0
M  V30 1571 H 141.047 0.911638 -5.99812 0
M  V30 1572 H 139.786 1.11105 -4.74876 0
M  V30 1573 H 138.791 -1.10396 -5.38603 0
M  V30 1574 H 140.016 -1.29032 -6.66729 0
M  V30 1575 H 137.962 0.946787 -6.49132 0
M  V30 1576 H 137.879 -0.424399 -7.54808 0
M  V30 1577 H 139.147 0.745876 -7.75923 0
M  V30 1578 N 143.376 1.44774 -0.622745 0
M  V30 1579 C 144.625 2.01334 -0.121397 0
M  V30 1580 C 144.938 1.49505 1.26125 0
M  V30 1581 O 146.144 1.98139 1.85616 0
M  V30 1582 C 144.6 3.59516 -0.166298 0
M  V30 1583 C 144.208 4.20342 -1.54974 0
M  V30 1584 C 145.952 4.23582 0.279021 0
M  V30 1585 C 143.859 5.70721 -1.55021 0
M  V30 1586 H 142.789 0.752851 -0.0416172 0
M  V30 1587 H 145.44 1.66083 -0.780309 0
M  V30 1588 H 143.822 3.92027 0.559557 0
M  V30 1589 H 144.996 3.99381 -2.29851 0
M  V30 1590 H 143.311 3.68529 -1.93843 0
M  V30 1591 H 145.908 5.33868 0.298083 0
M  V30 1592 H 146.251 3.95327 1.30471 0
M  V30 1593 H 146.784 3.95843 -0.394063 0
M  V30 1594 H 143.523 6.03698 -2.55399 0
M  V30 1595 H 143.043 5.93829 -0.844245 0
M  V30 1596 H 144.722 6.34203 -1.28047 0
M  V30 1597 N 144.854 0.36279 1.53368 0
M  V30 1598 C 146.094 -0.227882 2.03126 0
M  V30 1599 C 146.458 -1.4622 1.24434 0
M  V30 1600 O 147.659 -2.12831 1.64184 0
M  V30 1601 C 145.93 -0.515427 3.53664 0
M  V30 1602 S 147.489 -1.08017 4.25297 0
M  V30 1603 H 144.307 -0.0665377 0.70788 0
M  V30 1604 H 146.909 0.50501 1.88865 0
M  V30 1605 H 145.613 0.390436 4.08539 0
M  V30 1606 H 145.144 -1.27747 3.72081 0
M  V30 1607 H 147.159 -2.36462 4.36234 0
M  V30 1608 N 146.332 -1.57332 0.0918853 0
M  V30 1609 C 147.295 -2.12708 -0.85369 0
M  V30 1610 C 148.295 -1.05561 -1.213 0
M  V30 1611 O 149.485 -1.31461 -1.14296 0
M  V30 1612 C 146.617 -2.64503 -2.15061 0
M  V30 1613 H 147.81 -2.97573 -0.3729 0
M  V30 1614 H 145.363 -1.55509 -0.157072 0
M  V30 1615 H 146.098 -1.83149 -2.67632 0
M  V30 1616 H 145.883 -3.4284 -1.90272 0
M  V30 1617 H 147.373 -3.07351 -2.82711 0
M  V30 1618 N 147.81 0.181792 -1.56548 0
M  V30 1619 C 148.758 1.24461 -1.965 0
M  V30 1620 C 149.752 1.464 -0.852261 0
M  V30 1621 O 150.958 1.47103 -1.03733 0
M  V30 1622 H 147.333 0.418138 -0.625031 0
M  V30 1623 H 149.304 0.880714 -2.85107 0
M  V30 1624 C 148.053 2.57891 -2.33212 0
M  V30 1625 H 147.376 2.41829 -3.18369 0
M  V30 1626 H 148.816 3.3097 -2.65019 0
M  V30 1627 C 147.275 3.15871 -1.17163 0
M  V30 1628 O 147.805 3.9913 -0.453708 0
M  V30 1629 N 146.011 2.74808 -0.944936 0
M  V30 1630 H 145.558 2.07205 -1.53049 0
M  V30 1631 H 145.516 3.13939 -0.170286 0
M  V30 1632 N 149.288 1.51039 0.449983 0
M  V30 1633 C 150.238 1.67824 1.54335 0
M  V30 1634 C 151.222 0.5324 1.51836 0
M  V30 1635 O 152.414 0.787762 1.58503 0
M  V30 1636 C 149.543 1.7951 2.92628 0
M  V30 1637 C 148.629 2.99838 2.9993 0
M  V30 1638 N 149.02 4.23207 2.77001 0
M  V30 1639 C 147.318 2.98832 3.31082 0
M  V30 1640 C 148.019 5.04361 2.89818 0
M  V30 1641 N 146.995 4.38746 3.2094 0
M  V30 1642 H 150.797 2.60884 1.35339 0
M  V30 1643 H 148.311 1.48513 0.657085 0
M  V30 1644 H 150.308 1.89642 3.7127 0
M  V30 1645 H 148.968 0.876227 3.12654 0
M  V30 1646 H 149.979 4.5236 2.52172 0
M  V30 1647 H 146.656 2.16527 3.56963 0
M  V30 1648 H 148.046 6.12528 2.76151 0
M  V30 1649 N 150.766 -0.704594 1.40972 0
M  V30 1650 C 151.996 -1.49138 1.42974 0
M  V30 1651 C 152.404 -1.89175 0.0308406 0
M  V30 1652 O 151.747 -1.56734 -0.958138 0
M  V30 1653 C 151.809 -2.79016 2.26694 0
M  V30 1654 C 151.473 -2.61236 3.74973 0
M  V30 1655 C 152.47 -2.27773 4.67349 0
M  V30 1656 C 150.155 -2.77158 4.18914 0
M  V30 1657 C 152.149 -2.10457 6.01653 0
M  V30 1658 C 149.836 -2.59459 5.53285 0
M  V30 1659 C 150.834 -2.26158 6.4447 0
M  V30 1660 O 150.522 -2.08605 7.76363 0
M  V30 1661 H 150.254 -0.466443 0.489292 0
M  V30 1662 H 152.808 -0.8758 1.85793 0
M  V30 1663 H 151.038 -3.42947 1.78673 0
M  V30 1664 H 152.727 -3.40782 2.20504 0
M  V30 1665 H 153.493 -2.15095 4.34694 0
M  V30 1666 H 149.372 -3.02064 3.48251 0
M  V30 1667 H 152.916 -1.84387 6.72791 0
M  V30 1668 H 148.813 -2.71725 5.85522 0
M  V30 1669 H 149.581 -2.23439 7.87412 0
M  V30 1670 N 152.244 -1.26651 -0.937939 0
M  V30 1671 C 153.493 -1.11775 -1.67897 0
M  V30 1672 C 153.806 0.33794 -1.92659 0
M  V30 1673 O 155.012 0.607434 -2.64618 0
M  V30 1674 C 153.468 -1.9523 -3.02346 0
M  V30 1675 C 153.076 -3.45393 -2.8532 0
M  V30 1676 C 154.82 -1.88972 -3.80118 0
M  V30 1677 C 152.727 -4.21083 -4.15263 0
M  V30 1678 H 151.657 -0.414696 -0.629717 0
M  V30 1679 H 154.308 -1.50988 -1.04283 0
M  V30 1680 H 152.69 -1.48853 -3.66959 0
M  V30 1681 H 153.864 -3.99561 -2.29537 0
M  V30 1682 H 152.179 -3.52921 -2.20988 0
M  V30 1683 H 154.776 -2.42805 -4.76392 0
M  V30 1684 H 155.119 -0.86113 -4.07296 0
M  V30 1685 H 155.652 -2.33189 -3.22285 0
M  V30 1686 H 152.391 -5.24425 -3.93267 0
M  V30 1687 H 151.911 -3.71695 -4.70747 0
M  V30 1688 H 153.59 -4.29706 -4.83696 0
M  V30 1689 N 153.722 1.14298 -1.08507 0
M  V30 1690 C 154.95 1.89219 -0.836876 0
M  V30 1691 C 155.365 1.78638 0.611054 0
M  V30 1692 O 154.722 1.14643 1.41998 0
M  V30 1693 C 154.773 3.39158 -1.25116 0
M  V30 1694 O 154.494 3.49449 -2.64229 0
M  V30 1695 C 155.995 4.31073 -1.03398 0
M  V30 1696 H 153.215 0.599328 -0.301739 0
M  V30 1697 H 155.759 1.44746 -1.44461 0
M  V30 1698 H 153.914 3.81251 -0.687514 0
M  V30 1699 H 154.328 4.42589 -2.81452 0
M  V30 1700 H 155.802 5.34646 -1.37323 0
M  V30 1701 H 156.279 4.3919 0.0289259 0
M  V30 1702 H 156.885 3.94738 -1.58311 0
M  V30 1703 N 155.201 0.870884 1.31352 0
M  V30 1704 C 156.612 0.534714 1.78879 0
M  V30 1705 C 156.963 -0.948423 1.71754 0
M  V30 1706 O 156.088 -1.74055 1.28584 0
M  V30 1707 C 156.683 0.963839 3.24801 0
M  V30 1708 C 155.242 0.679311 3.70219 0
M  V30 1709 C 154.389 1.15465 2.52117 0
M  V30 1710 H 157.34 1.05651 1.18421 0
M  V30 1711 H 157.361 0.286892 3.79417 0
M  V30 1712 H 156.873 2.04332 3.29955 0
M  V30 1713 H 154.974 -0.388769 3.70566 0
M  V30 1714 H 155.087 1.25698 4.62317 0
M  V30 1715 H 153.451 0.574383 2.48139 0
M  V30 1716 H 154.234 2.24157 2.60016 0
M  V30 1717 N 156.679 -1.44442 0.630414 0
M  V30 1718 C 157.612 -2.27862 -0.124247 0
M  V30 1719 C 158.59 -1.38495 -0.851931 0
M  V30 1720 O 159.774 -1.67935 -0.856166 0
M  V30 1721 C 156.901 -3.17407 -1.18197 0
M  V30 1722 C 155.947 -4.22875 -0.554892 0
M  V30 1723 S 156.78 -5.31485 0.654489 0
M  V30 1724 C 157.936 -6.246 -0.40326 0
M  V30 1725 H 158.169 -2.91519 0.583435 0
M  V30 1726 H 155.702 -1.48618 0.418565 0
M  V30 1727 H 157.66 -3.69549 -1.78728 0
M  V30 1728 H 156.321 -2.52971 -1.86184 0
M  V30 1729 H 155.514 -4.85542 -1.35148 0
M  V30 1730 H 155.116 -3.73992 -0.0242105 0
M  V30 1731 H 157.408 -6.65375 -1.27602 0
M  V30 1732 H 158.351 -7.07851 0.187813 0
M  V30 1733 H 158.759 -5.59775 -0.728837 0
M  V30 1734 N 158.157 -0.370918 -1.53173 0
M  V30 1735 C 159.09 0.516727 -2.22273 0
M  V30 1736 C 160.068 1.07877 -1.21661 0
M  V30 1737 O 161.252 1.13389 -1.50583 0
M  V30 1738 C 158.379 1.71346 -2.92161 0
M  V30 1739 C 157.425 1.27838 -4.0689 0
M  V30 1740 S 158.258 0.275217 -5.34792 0
M  V30 1741 C 159.414 1.47816 -6.08195 0
M  V30 1742 H 159.647 -0.0701054 -2.97217 0
M  V30 1743 H 157.18 -0.155038 -1.5362 0
M  V30 1744 H 159.138 2.39988 -3.3304 0
M  V30 1745 H 157.799 2.27156 -2.16931 0
M  V30 1746 H 156.992 2.17141 -4.54825 0
M  V30 1747 H 156.594 0.671105 -3.6793 0
M  V30 1748 H 158.886 2.40831 -6.33251 0
M  V30 1749 H 159.829 1.04008 -7.0042 0
M  V30 1750 H 160.237 1.68663 -5.38714 0
M  V30 1751 N 159.635 1.57281 -0.100228 0
M  V30 1752 C 160.545 2.17833 0.870965 0
M  V30 1753 C 161.561 1.14921 1.30649 0
M  V30 1754 O 162.737 1.47313 1.37335 0
M  V30 1755 C 159.802 2.75085 2.1102 0
M  V30 1756 C 158.863 3.9297 1.72838 0
M  V30 1757 C 158.096 4.47482 2.90854 0
M  V30 1758 O 158.319 4.00922 4.05731 0
M  V30 1759 O 157.253 5.38433 2.69023 0
M  V30 1760 H 161.079 3.0124 0.38575 0
M  V30 1761 H 158.664 1.48881 0.124397 0
M  V30 1762 H 160.546 3.11656 2.83634 0
M  V30 1763 H 159.221 1.94721 2.58584 0
M  V30 1764 H 158.128 3.61201 0.973883 0
M  V30 1765 H 159.461 4.74713 1.30033 0
M  V30 1766 N 161.113 -0.173488 1.56642 0
M  V30 1767 C 162.043 -1.2171 1.99271 0
M  V30 1768 C 163.024 -1.46289 0.867959 0
M  V30 1769 O 164.209 -1.5766 1.13388 0
M  V30 1770 C 161.339 -2.55651 2.35074 0
M  V30 1771 C 160.293 -2.45645 3.50489 0
M  V30 1772 C 159.619 -3.84056 3.72028 0
M  V30 1773 C 160.919 -1.96302 4.84007 0
M  V30 1774 H 162.613 -0.86275 2.867 0
M  V30 1775 H 160.159 -0.413571 1.37933 0
M  V30 1776 H 162.112 -3.2886 2.63494 0
M  V30 1777 H 160.836 -2.92869 1.44552 0
M  V30 1778 H 159.495 -1.7489 3.22194 0
M  V30 1779 H 159.143 -4.18664 2.788 0
M  V30 1780 H 158.843 -3.7823 4.49684 0
M  V30 1781 H 160.367 -4.58854 4.02846 0
M  V30 1782 H 161.781 -2.59284 5.11317 0
M  V30 1783 H 160.178 -2.01429 5.65284 0
M  V30 1784 H 161.248 -0.917226 4.76146 0
M  V30 1785 N 162.591 -1.51276 -0.441967 0
M  V30 1786 C 163.538 -1.72256 -1.53612 0
M  V30 1787 C 164.508 -0.564164 -1.56225 0
M  V30 1788 O 165.693 -0.798074 -1.73307 0
M  V30 1789 C 162.833 -1.84932 -2.91366 0
M  V30 1790 C 161.946 -3.12459 -2.98317 0
M  V30 1791 C 161.081 -3.15758 -4.27166 0
M  V30 1792 C 160.12 -4.37619 -4.27967 0
M  V30 1793 N 159.257 -4.38493 -5.48333 0
M  V30 1794 H 164.097 -2.65654 -1.35026 0
M  V30 1795 H 161.634 -1.31662 -0.656009 0
M  V30 1796 H 163.592 -1.90263 -3.7129 0
M  V30 1797 H 162.222 -0.949461 -3.08521 0
M  V30 1798 H 161.274 -3.1646 -2.11086 0
M  V30 1799 H 162.586 -4.02382 -2.94771 0
M  V30 1800 H 161.74 -3.19979 -5.15459 0
M  V30 1801 H 160.479 -2.23715 -4.33362 0
M  V30 1802 H 159.484 -4.33579 -3.38067 0
M  V30 1803 H 160.709 -5.30921 -4.23438 0
M  V30 1804 H 158.655 -3.49318 -5.55259 0
M  V30 1805 H 158.572 -5.22219 -5.46647 0
M  V30 1806 H 159.84 -4.469 -6.38671 0
M  V30 1807 N 164.069 0.697108 -1.41344 0
M  V30 1808 C 165.48 1.27697 -1.36199 0
M  V30 1809 C 165.831 1.9615 -0.0443463 0
M  V30 1810 O 164.956 1.98689 0.857419 0
M  V30 1811 C 165.551 2.32223 -2.46694 0
M  V30 1812 C 164.11 2.8579 -2.44952 0
M  V30 1813 C 163.257 1.59807 -2.26621 0
M  V30 1814 H 166.208 0.491968 -1.50882 0
M  V30 1815 H 166.229 3.1348 -2.15664 0
M  V30 1816 H 165.741 1.82373 -3.42581 0
M  V30 1817 H 163.842 3.3982 -1.52817 0
M  V30 1818 H 163.955 3.36325 -3.41207 0
M  V30 1819 H 162.319 1.8556 -1.7447 0
M  V30 1820 H 163.102 1.11956 -3.24532 0
M  V30 1821 N 165.547 1.27147 0.931209 0
M  V30 1822 C 166.495 1.09398 2.05268 0
M  V30 1823 C 167.489 0.0180591 1.6939 0
M  V30 1824 O 168.695 0.17551 1.79142 0
M  V30 1825 H 165.07 0.336986 0.672268 0
M  V30 1826 H 167.041 2.04416 2.17386 0
M  V30 1827 C 165.79 0.75424 3.39421 0
M  V30 1828 H 165.113 1.57404 3.67511 0
M  V30 1829 H 166.553 0.669903 4.18674 0
M  V30 1830 C 165.012 -0.541197 3.32525 0
M  V30 1831 O 165.542 -1.57664 3.69466 0
M  V30 1832 N 163.748 -0.535517 2.85623 0
M  V30 1833 H 163.295 0.307511 2.55758 0
M  V30 1834 H 163.253 -1.40236 2.81392 0
M  V30 1835 N 167.025 -1.13721 1.09112 0
M  V30 1836 C 167.988 -2.17222 0.731241 0
M  V30 1837 C 168.988 -1.59035 -0.237566 0
M  V30 1838 O 170.178 -1.74192 -0.0161704 0
M  V30 1839 C 167.31 -3.40804 0.0808443 0
M  V30 1840 H 168.503 -2.50573 1.64783 0
M  V30 1841 H 166.056 -1.28493 0.889897 0
M  V30 1842 H 166.791 -3.1304 -0.847127 0
M  V30 1843 H 166.576 -3.84306 0.777896 0
M  V30 1844 H 168.066 -4.1731 -0.155657 0
M  V30 1845 N 168.503 -0.877838 -1.30888 0
M  V30 1846 C 169.751 -0.491723 -1.96027 0
M  V30 1847 C 170.072 0.960827 -1.69685 0
M  V30 1848 O 169.342 1.67462 -1.01654 0
M  V30 1849 H 167.922 -0.17885 -0.725273 0
M  V30 1850 H 170.584 -1.11935 -1.59551 0
M  V30 1851 H 169.68 -0.656016 -3.05128 0
M  V30 1852 N 169.982 1.44106 -0.638065 0
M  V30 1853 C 171.207 2.0685 -0.150916 0
M  V30 1854 C 171.632 1.47417 1.16833 0
M  V30 1855 O 170.99 0.578264 1.71831 0
M  V30 1856 C 171.038 3.60555 -0.05708 0
M  V30 1857 O 170.142 4.00465 0.984972 0
M  V30 1858 H 169.483 0.658151 -0.0879399 0
M  V30 1859 H 172.013 1.84865 -0.876707 0
M  V30 1860 H 172.023 4.07789 0.131232 0
M  V30 1861 H 170.698 4.03193 -1.02021 0
M  V30 1862 H 169.275 3.64849 0.770672 0
M  V30 1863 N 171.46 0.379036 1.52974 0
M  V30 1864 C 172.737 -0.263479 1.93817 0
M  V30 1865 C 173.117 -1.65244 1.31368 0
M  V30 1866 O 172.465 -2.23448 0.477856 0
M  V30 1867 C 172.675 -0.300166 3.47707 0
M  V30 1868 C 174.023 -0.534061 4.21228 0
M  V30 1869 O 175.047 -0.38081 3.54159 0
M  V30 1870 O 173.906 -0.833501 5.40106 0
M  V30 1871 H 171 -0.161149 0.811147 0
M  V30 1872 H 173.546 0.432798 1.64088 0
M  V30 1873 H 172.318 0.673138 3.85467 0
M  V30 1874 H 171.941 -1.04179 3.83709 0
M  V30 1875 N 172.938 -1.57226 0.108567 0
M  V30 1876 C 174.354 -1.5766 -0.248058 0
M  V30 1877 C 174.554 -1.12063 -1.67464 0
M  V30 1878 O 173.61 -0.803236 -2.39383 0
M  V30 1879 C 174.923 -3.0069 -0.0242287 0
M  V30 1880 C 176.471 -3.12868 -0.0909372 0
M  V30 1881 C 176.946 -4.57879 0.105067 0
M  V30 1882 N 178.437 -4.63172 0.0506846 0
M  V30 1883 C 179.172 -5.73126 0.177396 0
M  V30 1884 N 178.668 -6.91866 0.359696 0
M  V30 1885 N 180.461 -5.61977 0.117709 0
M  V30 1886 H 172.612 -1.85169 1.04049 0
M  V30 1887 H 174.875 -0.85529 0.40888 0
M  V30 1888 H 174.581 -3.38299 0.961604 0
M  V30 1889 H 174.455 -3.6945 -0.76068 0
M  V30 1890 H 176.842 -2.75124 -1.06729 0
M  V30 1891 H 176.923 -2.46672 0.677225 0
M  V30 1892 H 176.567 -4.96321 1.07834 0
M  V30 1893 H 176.497 -5.22153 -0.682954 0
M  V30 1894 H 178.988 -3.778 -0.0871266 0
M  V30 1895 H 179.301 -7.71503 0.447529 0
M  V30 1896 H 177.646 -6.93874 0.395536 0
M  V30 1897 H 180.837 -4.68094 -0.0236741 0
M  V30 1898 H 181.01 -6.47627 0.219905 0
M  V30 1899 N 174.416 0.165178 -1.56732 0
M  V30 1900 C 175.379 1.18822 -1.95995 0
M  V30 1901 C 176.379 1.3685 -0.84431 0
M  V30 1902 O 177.569 1.34152 -1.11126 0
M  V30 1903 C 174.701 2.5521 -2.26011 0
M  V30 1904 H 175.894 0.851825 -2.87548 0
M  V30 1905 H 173.447 0.407857 -1.50885 0
M  V30 1906 H 174.182 2.93852 -1.37191 0
M  V30 1907 H 173.967 2.43489 -3.07336 0
M  V30 1908 H 175.457 3.28927 -2.57288 0
M  V30 1909 N 175.894 1.51508 0.433938 0
M  V30 1910 C 177.14 1.65549 1.18173 0
M  V30 1911 C 177.495 0.368751 1.88833 0
M  V30 1912 O 176.788 -0.635616 1.8075 0
M  V30 1913 C 176.982 2.79928 2.22205 0
M  V30 1914 C 176.811 4.19601 1.61756 0
M  V30 1915 C 175.581 4.85489 1.40101 0
M  V30 1916 C 177.779 5.02574 1.09194 0
M  V30 1917 N 175.761 6.09266 0.752859 0
M  V30 1918 C 177.132 6.17381 0.569255 0
M  V30 1919 C 179.187 4.88079 0.984025 0
M  V30 1920 C 177.89 7.19282 -0.0507472 0
M  V30 1921 C 179.916 5.90191 0.377912 0
M  V30 1922 C 179.278 7.04272 -0.134216 0
M  V30 1923 H 175.377 0.659653 0.419979 0
M  V30 1924 H 177.961 1.88746 0.477818 0
M  V30 1925 H 176.132 2.5839 2.89982 0
M  V30 1926 H 177.864 2.83132 2.89168 0
M  V30 1927 H 174.619 4.43417 1.66369 0
M  V30 1928 H 175.043 6.75528 0.446123 0
M  V30 1929 H 179.685 4.00131 1.36583 0
M  V30 1930 H 177.403 8.06876 -0.444676 0
M  V30 1931 H 180.989 5.81045 0.296269 0
M  V30 1932 H 179.869 7.81933 -0.59585 0
M  V30 1933 N 177.372 -0.689602 1.41712 0
M  V30 1934 C 178.618 -1.45181 1.41599 0
M  V30 1935 C 178.951 -1.94181 0.0270081 0
M  V30 1936 O 178.226 -1.6993 -0.946265 0
M  V30 1937 C 178.509 -2.65945 2.42787 0
M  V30 1938 C 178.362 -2.22672 3.90816 0
M  V30 1939 C 179.681 -3.68149 2.41151 0
M  V30 1940 H 176.8 -0.526576 0.515642 0
M  V30 1941 H 179.442 -0.784947 1.73028 0
M  V30 1942 H 177.592 -3.2284 2.16116 0
M  V30 1943 H 179.264 -1.71058 4.28412 0
M  V30 1944 H 177.507 -1.54394 4.05395 0
M  V30 1945 H 178.178 -3.0935 4.57172 0
M  V30 1946 H 180.654 -3.2094 2.64834 0
M  V30 1947 H 179.53 -4.50248 3.13955 0
M  V30 1948 H 179.791 -4.18259 1.43221 0
M  V30 1949 N 178.85 -1.27639 -0.924453 0
M  V30 1950 C 180.096 -1.15345 -1.67532 0
M  V30 1951 C 180.451 0.297096 -1.90092 0
M  V30 1952 O 179.744 1.21374 -1.48253 0
M  V30 1953 C 179.938 -1.87407 -3.04325 0
M  V30 1954 C 179.767 -3.3932 -2.95114 0
M  V30 1955 C 178.537 -4.08644 -2.97218 0
M  V30 1956 C 180.735 -4.35242 -2.73987 0
M  V30 1957 N 178.717 -5.47102 -2.78482 0
M  V30 1958 C 180.088 -5.6099 -2.63988 0
M  V30 1959 C 182.143 -4.25294 -2.589 0
M  V30 1960 C 180.846 -6.77924 -2.40442 0
M  V30 1961 C 182.872 -5.41952 -2.36731 0
M  V30 1962 C 182.234 -6.66658 -2.27478 0
M  V30 1963 H 178.333 -0.47696 -0.619704 0
M  V30 1964 H 180.917 -1.6115 -1.09265 0
M  V30 1965 H 179.088 -1.44053 -3.60699 0
M  V30 1966 H 180.82 -1.6759 -3.68369 0
M  V30 1967 H 177.575 -3.60136 -3.07569 0
M  V30 1968 H 177.999 -6.19852 -2.72236 0
M  V30 1969 H 182.641 -3.29598 -2.64811 0
M  V30 1970 H 180.359 -7.73699 -2.3327 0
M  V30 1971 H 183.945 -5.36137 -2.25938 0
M  V30 1972 H 182.825 -7.55405 -2.10555 0
M  V30 1973 N 180.328 1.1314 -1.09713 0
M  V30 1974 C 181.276 2.20717 -0.733934 0
M  V30 1975 C 182.27 1.6729 0.266506 0
M  V30 1976 O 183.476 1.79547 0.127656 0
M  V30 1977 H 179.851 0.719292 -0.21937 0
M  V30 1978 H 181.822 2.48611 -1.6503 0
M  V30 1979 C 180.571 3.47265 -0.173849 0
M  V30 1980 H 179.894 3.88716 -0.934873 0
M  V30 1981 H 181.334 4.23979 0.0423126 0
M  V30 1982 C 179.793 3.18724 1.09164 0
M  V30 1983 O 180.323 3.37762 2.17439 0
M  V30 1984 N 178.529 2.72583 1.00732 0
M  V30 1985 H 178.076 2.57291 0.126121 0
M  V30 1986 H 178.034 2.53862 1.85476 0
M  V30 1987 N 181.806 0.884767 1.30421 0
M  V30 1988 C 183.034 0.518044 2.0031 0
M  V30 1989 C 183.449 -0.893408 1.66324 0
M  V30 1990 O 182.806 -1.5875 0.900262 0
M  V30 1991 C 182.857 0.682997 3.54989 0
M  V30 1992 O 182.578 2.03888 3.87764 0
M  V30 1993 C 184.079 0.31924 4.42149 0
M  V30 1994 H 181.299 0.200265 0.640418 0
M  V30 1995 H 183.843 1.19001 1.6631 0
M  V30 1996 H 181.998 0.0584052 3.87356 0
M  V30 1997 H 182.412 2.05735 4.82466 0
M  V30 1998 H 183.886 0.485555 5.4986 0
M  V30 1999 H 184.363 -0.742717 4.32875 0
M  V30 2000 H 184.969 0.920147 4.15227 0
M  V30 2001 N 183.284 -1.43765 0.645699 0
M  V30 2002 C 184.234 -2.27884 -0.0726442 0
M  V30 2003 C 185.218 -1.39483 -0.802086 0
M  V30 2004 O 186.41 -1.63174 -0.685791 0
M  V30 2005 C 183.539 -3.27055 -1.04356 0
M  V30 2006 C 182.625 -4.22944 -0.312985 0
M  V30 2007 N 183.016 -5.01391 0.666386 0
M  V30 2008 C 181.314 -4.42528 -0.55546 0
M  V30 2009 C 182.015 -5.71217 1.09935 0
M  V30 2010 N 180.991 -5.41856 0.435137 0
M  V30 2011 H 184.793 -2.85949 0.678988 0
M  V30 2012 H 182.307 -1.55378 0.472368 0
M  V30 2013 H 184.304 -3.86089 -1.57292 0
M  V30 2014 H 182.964 -2.70551 -1.79534 0
M  V30 2015 H 183.975 -5.07252 1.04481 0
M  V30 2016 H 180.652 -3.97104 -1.28899 0
M  V30 2017 H 182.042 -6.44202 1.90929 0
M  V30 2018 N 184.763 -0.387143 -1.52771 0
M  V30 2019 C 185.726 0.436939 -2.24997 0
M  V30 2020 C 186.726 0.991991 -1.26555 0
M  V30 2021 O 187.916 0.874335 -1.50669 0
M  V30 2022 C 185.048 1.61281 -3.00335 0
M  V30 2023 H 186.241 -0.195365 -2.99263 0
M  V30 2024 H 183.794 -0.139218 -1.55679 0
M  V30 2025 H 184.529 2.2826 -2.30364 0
M  V30 2026 H 184.314 1.22154 -3.72587 0
M  V30 2027 H 185.804 2.19629 -3.5518 0
M  V30 2028 N 186.241 1.57166 -0.116904 0
M  V30 2029 C 187.518 1.86645 0.585049 0
M  V30 2030 C 187.898 1.0177 1.84949 0
M  V30 2031 O 187.246 0.0960379 2.28298 0
M  V30 2032 C 187.456 3.37736 0.879507 0
M  V30 2033 C 188.804 4.06289 1.23348 0
M  V30 2034 O 189.828 3.42743 0.969836 0
M  V30 2035 O 188.687 5.18455 1.7282 0
M  V30 2036 H 185.781 0.772593 0.295007 0
M  V30 2037 H 188.327 1.69025 -0.151249 0
M  V30 2038 H 187.099 3.91296 -0.0166136 0
M  V30 2039 H 186.722 3.6078 1.67103 0
M  V30 2040 N 187.719 -0.156864 1.56817 0
M  V30 2041 C 188.966 -0.871125 1.82805 0
M  V30 2042 C 189.294 -1.81611 0.696262 0
M  V30 2043 O 188.549 -1.93141 -0.315459 0
M  V30 2044 C 188.848 -1.68737 3.1506 0
M  V30 2045 C 188.514 -0.890045 4.42028 0
M  V30 2046 C 187.176 -0.670042 4.76512 0
M  V30 2047 C 189.528 -0.331769 5.20143 0
M  V30 2048 C 186.856 0.119104 5.86579 0
M  V30 2049 C 189.208 0.444365 6.31037 0
M  V30 2050 C 187.872 0.675035 6.64078 0
M  V30 2051 H 187.142 -0.318767 0.668931 0
M  V30 2052 H 189.789 -0.135274 1.91022 0
M  V30 2053 H 188.094 -2.49304 3.0225 0
M  V30 2054 H 189.791 -2.24331 3.3238 0
M  V30 2055 H 186.381 -1.07157 4.14988 0
M  V30 2056 H 190.565 -0.489043 4.93885 0
M  V30 2057 H 185.821 0.307417 6.10627 0
M  V30 2058 H 189.995 0.884139 6.90765 0
M  V30 2059 H 187.622 1.28839 7.49203 0
M  V30 2060 N 189.197 -1.51736 -0.425897 0
M  V30 2061 C 190.16 -1.73271 -1.50032 0
M  V30 2062 C 191.16 -0.602639 -1.4908 0
M  V30 2063 O 192.35 -0.87033 -1.509 0
M  V30 2064 C 189.482 -1.79969 -2.89523 0
M  V30 2065 H 190.675 -2.69172 -1.32237 0
M  V30 2066 H 188.228 -1.41899 -0.65532 0
M  V30 2067 H 188.963 -0.859241 -3.1271 0
M  V30 2068 H 188.748 -2.62109 -2.91619 0
M  V30 2069 H 190.238 -1.9843 -3.67444 0
M  V30 2070 N 190.675 0.682077 -1.42076 0
M  V30 2071 C 191.952 1.43755 -1.32642 0
M  V30 2072 C 192.332 2.11063 0.0396611 0
M  V30 2073 O 191.68 2.02701 1.05474 0
M  V30 2074 C 191.89 2.44596 -2.48946 0
M  V30 2075 C 193.238 3.09454 -2.9073 0
M  V30 2076 O 194.262 2.54922 -2.48783 0
M  V30 2077 O 193.121 4.08253 -3.63307 0
M  V30 2078 H 190.215 0.640857 -0.522715 0
M  V30 2079 H 192.761 0.711415 -1.54068 0
M  V30 2080 H 191.533 1.93609 -3.40046 0
M  V30 2081 H 191.156 3.24701 -2.29467 0
M  V30 2082 N 192.153 1.28127 0.917671 0
M  V30 2083 C 193.063 1.13556 2.05286 0
M  V30 2084 C 194.079 0.0630914 1.73886 0
M  V30 2085 O 195.255 0.271598 1.9956 0
M  V30 2086 C 192.32 0.794676 3.3747 0
M  V30 2087 C 191.381 1.94909 3.82504 0
M  V30 2088 C 190.614 1.62437 5.0838 0
M  V30 2089 O 190.837 0.536905 5.67867 0
M  V30 2090 O 189.771 2.46677 5.4903 0
M  V30 2091 H 193.597 2.08844 2.20495 0
M  V30 2092 H 191.182 1.07409 1.03845 0
M  V30 2093 H 193.064 0.618344 4.16839 0
M  V30 2094 H 191.739 -0.128581 3.23445 0
M  V30 2095 H 190.646 2.18055 3.03978 0
M  V30 2096 H 191.979 2.85291 4.01086 0
M  V30 2097 N 193.631 -1.12557 1.10312 0
M  V30 2098 C 194.871 -1.8568 0.854543 0
M  V30 2099 C 195.235 -1.82091 -0.608843 0
M  V30 2100 O 196.436 -2.50544 -0.973717 0
M  V30 2101 C 194.707 -3.2942 1.38626 0
M  V30 2102 S 196.266 -4.19931 1.27293 0
M  V30 2103 H 193.084 -0.640427 0.308827 0
M  V30 2104 H 195.686 -1.35599 1.40831 0
M  V30 2105 H 194.39 -3.2959 2.44537 0
M  V30 2106 H 193.921 -3.84566 0.82902 0
M  V30 2107 H 195.936 -4.95668 0.229776 0
M  V30 2108 N 195.109 -0.891671 -1.2995 0
M  V30 2109 C 196.52 -0.563104 -1.78006 0
M  V30 2110 C 196.871 0.920978 -1.73241 0
M  V30 2111 O 195.996 1.71987 -1.31337 0
M  V30 2112 C 196.591 -1.01539 -3.23226 0
M  V30 2113 C 195.15 -0.738124 -3.69092 0
M  V30 2114 C 194.297 -1.19461 -2.50249 0
M  V30 2115 H 197.248 -1.07522 -1.16725 0
M  V30 2116 H 197.269 -0.347217 -3.78912 0
M  V30 2117 H 196.781 -2.09555 -3.26662 0
M  V30 2118 H 194.882 0.329766 -3.71138 0
M  V30 2119 H 194.995 -1.33037 -4.60259 0
M  V30 2120 H 193.359 -0.613787 -2.47194 0
M  V30 2121 H 194.142 -2.28265 -2.56417 0
M  V30 2122 N 196.587 1.43421 -0.653314 0
M  V30 2123 C 197.534 2.30768 0.0382271 0
M  V30 2124 C 198.504 1.44755 0.814576 0
M  V30 2125 O 199.689 1.73624 0.791162 0
M  V30 2126 C 196.829 3.30336 0.998599 0
M  V30 2127 C 195.942 4.31448 0.218342 0
M  V30 2128 C 195.077 5.18098 1.17252 0
M  V30 2129 C 194.116 6.10902 0.382702 0
M  V30 2130 N 193.253 6.90176 1.28848 0
M  V30 2131 H 198.093 2.89357 -0.712511 0
M  V30 2132 H 195.63 1.42548 -0.363128 0
M  V30 2133 H 197.588 3.86572 1.56901 0
M  V30 2134 H 196.218 2.73397 1.71621 0
M  V30 2135 H 195.27 3.77506 -0.46836 0
M  V30 2136 H 196.582 4.97227 -0.395812 0
M  V30 2137 H 195.736 5.7896 1.81356 0
M  V30 2138 H 194.475 4.52444 1.82058 0
M  V30 2139 H 193.48 5.49128 -0.27169 0
M  V30 2140 H 194.705 6.78598 -0.260957 0
M  V30 2141 H 192.651 6.27171 1.92334 0
M  V30 2142 H 192.568 7.52478 0.728887 0
M  V30 2143 H 193.836 7.55543 1.91766 0
M  V30 2144 N 198.065 0.39524 1.52563 0
M  V30 2145 C 199.476 -0.0774719 1.86539 0
M  V30 2146 C 199.827 -1.45641 1.31466 0
M  V30 2147 O 198.952 -2.06459 0.648367 0
M  V30 2148 C 199.547 -0.147356 3.38479 0
M  V30 2149 C 198.106 -0.564373 3.72145 0
M  V30 2150 C 197.253 0.269919 2.75983 0
M  V30 2151 H 200.204 0.612876 1.46388 0
M  V30 2152 H 200.225 -0.965343 3.68051 0
M  V30 2153 H 199.737 0.856387 3.78534 0
M  V30 2154 H 197.838 -1.57527 3.37663 0
M  V30 2155 H 197.951 -0.318402 4.78041 0
M  V30 2156 H 196.315 -0.265696 2.5331 0
M  V30 2157 H 197.098 1.27175 3.18875 0
M  V30 2158 N 199.544 -1.57102 0.125237 0
M  V30 2159 C 200.454 -2.19191 -0.8362 0
M  V30 2160 C 201.47 -1.16985 -1.28805 0
M  V30 2161 O 202.646 -1.49479 -1.34974 0
M  V30 2162 C 199.711 -2.78407 -2.06617 0
M  V30 2163 C 198.772 -3.9567 -1.66565 0
M  V30 2164 C 198.005 -4.52052 -2.83698 0
M  V30 2165 O 198.228 -4.07326 -3.99302 0
M  V30 2166 O 197.162 -5.42645 -2.60423 0
M  V30 2167 H 200.988 -3.01816 -0.337776 0
M  V30 2168 H 198.573 -1.4906 -0.100695 0
M  V30 2169 H 200.455 -3.16129 -2.7864 0
M  V30 2170 H 199.13 -1.9881 -2.55453 0
M  V30 2171 H 198.037 -3.62705 -0.916296 0
M  V30 2172 H 199.37 -4.76722 -1.22464 0
M  V30 2173 N 201.022 0.148545 -1.56898 0
M  V30 2174 C 201.952 1.18524 -2.01182 0
M  V30 2175 C 202.933 1.4489 -0.891123 0
M  V30 2176 O 204.118 1.55836 -1.15882 0
M  V30 2177 C 201.248 2.51879 -2.39112 0
M  V30 2178 C 200.202 2.40038 -3.54353 0
M  V30 2179 C 199.528 3.78089 -3.78091 0
M  V30 2180 C 200.828 1.88577 -4.87069 0
M  V30 2181 H 202.522 0.817029 -2.88036 0
M  V30 2182 H 200.068 0.391575 -1.38574 0
M  V30 2183 H 202.021 3.24627 -2.68692 0
M  V30 2184 H 200.745 2.90532 -1.49193 0
M  V30 2185 H 199.404 1.69742 -3.24936 0
M  V30 2186 H 199.052 4.14175 -2.85426 0
M  V30 2187 H 198.752 3.71028 -4.55645 0
M  V30 2188 H 200.276 4.52387 -4.10095 0
M  V30 2189 H 201.69 2.51117 -5.15377 0
M  V30 2190 H 200.087 1.9241 -5.68417 0
M  V30 2191 H 201.157 0.84136 -4.77545 0
M  V30 2192 N 202.5 1.5196 0.417844 0
M  V30 2193 C 203.43 1.77634 1.51554 0
M  V30 2194 C 204.411 0.626918 1.58126 0
M  V30 2195 O 205.596 0.871632 1.7354 0
M  V30 2196 C 202.726 1.91911 2.8946 0
M  V30 2197 C 201.68 3.07463 2.97743 0
M  V30 2198 C 201.006 3.06951 4.37819 0
M  V30 2199 C 202.306 4.47082 2.70027 0
M  V30 2200 H 204 2.6955 1.3032 0
M  V30 2201 H 201.546 1.29706 0.625492 0
M  V30 2202 H 203.499 2.08455 3.6623 0
M  V30 2203 H 202.223 0.966598 3.11969 0
M  V30 2204 H 200.882 2.90656 2.23416 0
M  V30 2205 H 200.53 2.09438 4.57323 0
M  V30 2206 H 200.23 3.84556 4.44286 0
M  V30 2207 H 201.754 3.25613 5.16535 0
M  V30 2208 H 203.168 4.6414 3.36522 0
M  V30 2209 H 201.565 5.2654 2.87881 0
M  V30 2210 H 202.635 4.55777 1.65514 0
M  V30 2211 N 203.978 -0.674533 1.42435 0
M  V30 2212 C 204.941 -1.76986 1.45632 0
M  V30 2213 C 205.941 -1.5708 0.343871 0
M  V30 2214 O 207.131 -1.63367 0.604709 0
M  V30 2215 C 204.263 -3.15623 1.28822 0
M  V30 2216 H 205.456 -1.75539 2.43158 0
M  V30 2217 H 203.009 -0.884189 1.28887 0
M  V30 2218 H 203.744 -3.22696 0.322193 0
M  V30 2219 H 203.529 -3.31475 2.09444 0
M  V30 2220 H 205.019 -3.95537 1.33942 0
M  V30 2221 N 205.456 -1.28612 -0.910864 0
M  V30 2222 C 206.705 -1.15311 -1.65488 0
M  V30 2223 C 207.018 0.296999 -1.93332 0
M  V30 2224 O 208.224 0.551168 -2.65847 0
M  V30 2225 C 206.68 -2.01599 -2.98137 0
M  V30 2226 C 206.288 -3.51367 -2.7793 0
M  V30 2227 C 208.032 -1.96993 -3.76024 0
M  V30 2228 C 205.939 -4.29797 -4.06237 0
M  V30 2229 H 204.869 -0.42796 -0.620779 0
M  V30 2230 H 207.52 -1.53166 -1.01057 0
M  V30 2231 H 205.902 -1.56603 -3.63719 0
M  V30 2232 H 207.076 -4.0434 -2.21011 0
M  V30 2233 H 205.391 -3.57529 -2.13452 0
M  V30 2234 H 207.988 -2.52856 -4.71135 0
M  V30 2235 H 208.331 -0.94733 -4.05378 0
M  V30 2236 H 208.864 -2.39973 -3.17266 0
M  V30 2237 H 205.603 -5.32648 -3.82055 0
M  V30 2238 H 205.123 -3.81596 -4.62757 0
M  V30 2239 H 206.802 -4.39869 -4.74473 0
M  V30 2240 N 206.934 1.1197 -1.10907 0
M  V30 2241 C 208.35 1.35591 -0.841852 0
M  V30 2242 C 208.55 1.94233 0.536246 0
M  V30 2243 O 207.606 2.1717 1.28816 0
M  V30 2244 C 208.919 2.29284 -1.94549 0
M  V30 2245 C 210.467 2.42862 -1.97451 0
M  V30 2246 C 210.942 3.39873 -3.07002 0
M  V30 2247 N 212.433 3.47433 -3.06341 0
M  V30 2248 C 213.168 4.22421 -3.87748 0
M  V30 2249 N 212.664 5.00432 -4.79103 0
M  V30 2250 N 214.457 4.17876 -3.75946 0
M  V30 2251 H 206.608 0.722664 -1.99728 0
M  V30 2252 H 208.871 0.380635 -0.868229 0
M  V30 2253 H 208.577 1.93378 -2.93765 0
M  V30 2254 H 208.451 3.29452 -1.83688 0
M  V30 2255 H 210.838 2.78046 -0.988645 0
M  V30 2256 H 210.919 1.42566 -2.12388 0
M  V30 2257 H 210.563 3.05417 -4.05811 0
M  V30 2258 H 210.493 4.40011 -2.89306 0
M  V30 2259 H 212.984 2.91784 -2.40147 0
M  V30 2260 H 213.297 5.55002 -5.37766 0
M  V30 2261 H 211.642 4.99612 -4.83128 0
M  V30 2262 H 214.833 3.56016 -3.03924 0
M  V30 2263 H 215.006 4.76061 -4.39624 0
M  V30 2264 N 208.412 0.89855 1.29475 0
M  V30 2265 C 209.659 0.523882 1.95606 0
M  V30 2266 C 209.987 -0.929608 1.70847 0
M  V30 2267 O 209.242 -1.67401 1.01367 0
M  V30 2268 C 209.541 0.761398 3.49195 0
M  V30 2269 C 209.207 2.19207 3.94029 0
M  V30 2270 C 207.869 2.58326 4.05982 0
M  V30 2271 C 210.221 3.12379 4.17216 0
M  V30 2272 C 207.549 3.898 4.38489 0
M  V30 2273 C 209.901 4.43401 4.51197 0
M  V30 2274 C 208.565 4.82394 4.61359 0
M  V30 2275 H 207.835 0.191702 0.715773 0
M  V30 2276 H 210.482 1.13699 1.54094 0
M  V30 2277 H 208.787 0.0653622 3.91745 0
M  V30 2278 H 210.484 0.450904 3.98457 0
M  V30 2279 H 207.074 1.87846 3.85242 0
M  V30 2280 H 211.258 2.83371 4.07449 0
M  V30 2281 H 206.514 4.19734 4.44559 0
M  V30 2282 H 210.688 5.15623 4.68087 0
M  V30 2283 H 208.315 5.84306 4.86303 0
M  V30 2284 N 209.89 -1.43072 0.660911 0
M  V30 2285 C 210.82 -2.33497 -0.0122829 0
M  V30 2286 C 211.801 -1.49903 -0.803925 0
M  V30 2287 O 212.986 -1.78546 -0.763864 0
M  V30 2288 C 210.116 -3.33363 -0.973994 0
M  V30 2289 C 209.07 -4.27003 -0.291928 0
M  V30 2290 C 208.396 -5.16967 -1.36562 0
M  V30 2291 C 209.696 -5.15816 0.820462 0
M  V30 2292 H 211.39 -2.90038 0.742873 0
M  V30 2293 H 208.936 -1.39461 0.358688 0
M  V30 2294 H 210.889 -3.95524 -1.45392 0
M  V30 2295 H 209.613 -2.75095 -1.7604 0
M  V30 2296 H 208.272 -3.66217 0.167623 0
M  V30 2297 H 207.92 -4.55034 -2.14366 0
M  V30 2298 H 207.62 -5.80441 -0.914454 0
M  V30 2299 H 209.144 -5.82003 -1.84675 0
M  V30 2300 H 210.558 -5.71742 0.422366 0
M  V30 2301 H 208.955 -5.8805 1.19656 0
M  V30 2302 H 210.025 -4.55045 1.67518 0
M  V30 2303 N 211.368 -0.403325 -1.52352 0
M  V30 2304 C 212.316 0.439752 -2.28405 0
M  V30 2305 C 213.31 1.05089 -1.32863 0
M  V30 2306 O 214.516 0.989759 -1.50345 0
M  V30 2307 H 210.891 0.160587 -0.734653 0
M  V30 2308 H 212.862 -0.222983 -2.97566 0
M  V30 2309 C 211.611 1.54736 -3.11371 0
M  V30 2310 H 210.934 1.08643 -3.84755 0
M  V30 2311 H 212.374 2.1112 -3.67701 0
M  V30 2312 C 210.833 2.51141 -2.24566 0
M  V30 2313 O 211.363 3.54887 -1.88196 0
M  V30 2314 N 209.569 2.21213 -1.8845 0
M  V30 2315 H 209.116 1.36878 -2.18225 0
M  V30 2316 H 209.074 2.85963 -1.30662 0
M  V30 2317 N 212.846 1.57033 -0.133567 0
M  V30 2318 C 213.809 2.14897 0.796995 0
M  V30 2319 C 214.809 1.0874 1.18458 0
M  V30 2320 O 215.999 1.34446 1.1077 0
M  V30 2321 C 213.131 2.70112 2.07973 0
M  V30 2322 H 214.324 2.98457 0.293873 0
M  V30 2323 H 211.877 1.55871 0.115787 0
M  V30 2324 H 212.612 1.9018 2.62682 0
M  V30 2325 H 212.397 3.47764 1.81115 0
M  V30 2326 H 213.887 3.14738 2.74462 0
M  V30 2327 N 214.325 -0.140222 1.56975 0
M  V30 2328 C 215.235 -1.19223 2.02047 0
M  V30 2329 C 216.251 -1.46612 0.937062 0
M  V30 2330 O 217.427 -1.58148 1.24704 0
M  V30 2331 C 214.492 -2.50414 2.39778 0
M  V30 2332 C 213.553 -2.30612 3.621 0
M  V30 2333 C 212.786 -3.55547 3.98023 0
M  V30 2334 O 213.009 -4.62004 3.34528 0
M  V30 2335 O 211.943 -3.47808 4.91237 0
M  V30 2336 H 215.769 -0.839559 2.91865 0
M  V30 2337 H 213.354 -0.349453 1.45256 0
M  V30 2338 H 215.236 -3.27747 2.64877 0
M  V30 2339 H 213.911 -2.85198 1.53114 0
M  V30 2340 H 212.818 -1.51207 3.4218 0
M  V30 2341 H 214.151 -2.00741 4.49404 0
M  V30 2342 N 215.803 -1.52179 -0.40978 0
M  V30 2343 C 216.751 -1.76086 -1.51975 0
M  V30 2344 C 217.745 -0.627964 -1.57331 0
M  V30 2345 O 218.951 -0.809993 -1.60745 0
M  V30 2346 H 215.326 -0.556829 -0.505416 0
M  V30 2347 H 217.297 -2.69077 -1.28996 0
M  V30 2348 C 216.046 -1.92799 -2.8935 0
M  V30 2349 H 215.369 -2.79392 -2.85972 0
M  V30 2350 H 216.809 -2.13527 -3.66309 0
M  V30 2351 C 215.268 -0.694923 -3.29655 0
M  V30 2352 O 215.798 0.13751 -4.01465 0
M  V30 2353 N 214.004 -0.53101 -2.85707 0
M  V30 2354 H 213.551 -1.20952 -2.27439 0
M  V30 2355 H 213.509 0.292718 -3.13034 0
M  V30 2356 N 217.281 0.66697 -1.42791 0
M  V30 2357 C 218.244 1.76211 -1.46568 0
M  V30 2358 C 219.244 1.56896 -0.352196 0
M  V30 2359 O 220.434 1.63044 -0.613364 0
M  V30 2360 C 217.566 3.14935 -1.30494 0
M  V30 2361 H 218.759 1.74247 -2.44086 0
M  V30 2362 H 216.312 0.877342 -1.29354 0
M  V30 2363 H 217.047 3.2252 -0.339301 0
M  V30 2364 H 216.832 3.30359 -2.11199 0
M  V30 2365 H 218.322 3.94821 -1.36038 0
M  V30 2366 N 218.759 1.29093 0.90403 0
M  V30 2367 C 219.691 1.09658 2.01266 0
M  V30 2368 C 220.704 0.0453729 1.62737 0
M  V30 2369 O 221.893 0.289446 1.76138 0
M  V30 2370 C 218.993 0.646278 3.32681 0
M  V30 2371 C 218.166 1.77505 3.99763 0
M  V30 2372 C 217.225 1.31649 5.09465 0
M  V30 2373 O 216.251 2.02045 5.32134 0
M  V30 2374 N 217.453 0.184997 5.80205 0
M  V30 2375 H 220.218 2.05135 2.18494 0
M  V30 2376 H 217.779 1.20975 1.07594 0
M  V30 2377 H 219.771 0.322906 4.0341 0
M  V30 2378 H 218.341 -0.215916 3.11853 0
M  V30 2379 H 217.561 2.26752 3.22455 0
M  V30 2380 H 218.849 2.53198 4.41325 0
M  V30 2381 H 218.247 -0.402021 5.6427 0
M  V30 2382 H 216.804 -0.0790358 6.51752 0
M  V30 2383 N 220.237 -1.11381 1.11499 0
M  V30 2384 C 221.184 -2.17439 0.773887 0
M  V30 2385 C 222.154 -1.64132 -0.254899 0
M  V30 2386 O 223.339 -1.90345 -0.13168 0
M  V30 2387 C 220.479 -3.44373 0.223917 0
M  V30 2388 C 219.592 -4.1168 1.30934 0
M  V30 2389 C 218.727 -5.263 0.71984 0
M  V30 2390 C 217.766 -5.85493 1.78507 0
M  V30 2391 N 216.903 -6.91507 1.21502 0
M  V30 2392 H 221.743 -2.45962 1.68246 0
M  V30 2393 H 219.28 -1.20744 0.840191 0
M  V30 2394 H 221.238 -4.17047 -0.112921 0
M  V30 2395 H 219.868 -3.16232 -0.647851 0
M  V30 2396 H 218.92 -3.37073 1.76312 0
M  V30 2397 H 220.232 -4.51729 2.11524 0
M  V30 2398 H 219.386 -6.05785 0.333094 0
M  V30 2399 H 218.125 -4.87559 -0.117377 0
M  V30 2400 H 217.13 -5.04686 2.18111 0
M  V30 2401 H 218.355 -6.26301 2.62533 0
M  V30 2402 H 216.301 -6.54783 0.399455 0
M  V30 2403 H 216.218 -7.30214 1.95763 0
M  V30 2404 H 217.486 -7.74795 0.855181 0
M  V30 2405 N 221.715 -0.905404 -1.28997 0
M  V30 2406 C 222.962 -0.534248 -1.95325 0
M  V30 2407 C 223.29 0.920535 -1.71337 0
M  V30 2408 O 222.545 1.66861 -1.02254 0
M  V30 2409 C 222.844 -0.779906 -3.48787 0
M  V30 2410 C 222.51 -2.21293 -3.92861 0
M  V30 2411 C 221.172 -2.60475 -4.04606 0
M  V30 2412 C 223.524 -3.14587 -4.15553 0
M  V30 2413 C 220.852 -3.9212 -4.36416 0
M  V30 2414 C 223.204 -4.45787 -4.48839 0
M  V30 2415 C 221.868 -4.84834 -4.58794 0
M  V30 2416 H 221.138 -0.195495 -0.714747 0
M  V30 2417 H 223.785 -1.14514 -1.53488 0
M  V30 2418 H 222.09 -0.0861365 -3.91705 0
M  V30 2419 H 223.787 -0.472029 -3.98212 0
M  V30 2420 H 220.377 -1.89887 -3.84241 0
M  V30 2421 H 224.561 -2.85528 -4.0594 0
M  V30 2422 H 219.817 -4.22086 -4.42327 0
M  V30 2423 H 223.991 -5.18098 -4.65346 0
M  V30 2424 H 221.618 -5.86877 -4.83197 0
M  V30 2425 N 223.193 1.4272 -0.668489 0
M  V30 2426 C 224.14 2.30796 0.0137489 0
M  V30 2427 C 225.11 1.4561 0.799177 0
M  V30 2428 O 226.295 1.74453 0.772702 0
M  V30 2429 C 223.435 3.31377 0.963507 0
M  V30 2430 C 222.548 4.31655 0.172569 0
M  V30 2431 C 221.683 5.19312 1.1175 0
M  V30 2432 C 220.722 6.11274 0.317886 0
M  V30 2433 N 219.859 6.91504 1.2152 0
M  V30 2434 H 224.699 2.88585 -0.743161 0
M  V30 2435 H 222.236 1.42154 -0.378226 0
M  V30 2436 H 224.194 3.88214 1.52792 0
M  V30 2437 H 222.824 2.75202 1.68712 0
M  V30 2438 H 221.876 3.76988 -0.508374 0
M  V30 2439 H 223.188 4.96779 -0.448527 0
M  V30 2440 H 222.342 5.80851 1.75206 0
M  V30 2441 H 221.081 4.5435 1.77249 0
M  V30 2442 H 220.086 5.48809 -0.329918 0
M  V30 2443 H 221.311 6.78283 -0.332917 0
M  V30 2444 H 219.257 6.29176 1.85671 0
M  V30 2445 H 219.174 7.53209 0.649036 0
M  V30 2446 H 220.442 7.57535 1.83742 0
M  V30 2447 N 224.671 0.411399 1.52136 0
M  V30 2448 C 225.899 -0.163076 2.06256 0
M  V30 2449 C 226.314 -1.3867 1.28125 0
M  V30 2450 O 225.671 -1.79423 0.333721 0
M  V30 2451 C 225.722 -0.511252 3.57867 0
M  V30 2452 O 225.443 0.66378 4.33042 0
M  V30 2453 C 226.944 -1.13921 4.28412 0
M  V30 2454 H 224.164 -0.0193897 0.67072 0
M  V30 2455 H 226.708 0.583007 1.96013 0
M  V30 2456 H 224.863 -1.20723 3.6811 0
M  V30 2457 H 225.277 0.372601 5.23175 0
M  V30 2458 H 226.751 -1.33302 5.35663 0
M  V30 2459 H 227.228 -2.11296 3.85033 0
M  V30 2460 H 227.834 -0.483373 4.22544 0
M  V30 2461 N 226.149 -1.5696 0.141893 0
M  V30 2462 C 227.096 -2.16501 -0.799737 0
M  V30 2463 C 228.066 -1.09643 -1.24771 0
M  V30 2464 O 229.251 -1.3766 -1.32115 0
M  V30 2465 C 226.391 -2.78679 -2.03549 0
M  V30 2466 C 225.504 -3.99914 -1.6338 0
M  V30 2467 C 224.639 -4.50106 -2.82096 0
M  V30 2468 C 223.678 -5.63819 -2.38275 0
M  V30 2469 N 222.815 -6.08651 -3.49983 0
M  V30 2470 H 227.655 -2.96632 -0.285179 0
M  V30 2471 H 225.192 -1.46533 -0.129053 0
M  V30 2472 H 227.15 -3.1287 -2.75986 0
M  V30 2473 H 225.78 -2.012 -2.52425 0
M  V30 2474 H 224.832 -3.71735 -0.807279 0
M  V30 2475 H 226.144 -4.82311 -1.27192 0
M  V30 2476 H 225.298 -4.86325 -3.62729 0
M  V30 2477 H 224.037 -3.66706 -3.21525 0
M  V30 2478 H 223.042 -5.2718 -1.56081 0
M  V30 2479 H 224.267 -6.49 -1.99938 0
M  V30 2480 H 222.213 -5.28188 -3.89042 0
M  V30 2481 H 222.13 -6.85961 -3.17794 0
M  V30 2482 H 223.398 -6.49515 -4.30988 0
M  V30 2483 N 227.627 0.131896 -1.57047 0
M  V30 2484 C 228.874 0.841932 -1.84168 0
M  V30 2485 C 229.202 1.8048 -0.725066 0
M  V30 2486 O 228.457 1.93618 0.284692 0
M  V30 2487 C 228.756 1.63703 -3.17704 0
M  V30 2488 C 228.422 0.81961 -4.43388 0
M  V30 2489 C 227.084 0.594148 -4.77518 0
M  V30 2490 C 229.436 0.248977 -5.20605 0
M  V30 2491 C 226.764 -0.212409 -5.86315 0
M  V30 2492 C 229.116 -0.544701 -6.30251 0
M  V30 2493 C 227.78 -0.780599 -6.6292 0
M  V30 2494 H 227.05 0.308085 -0.673917 0
M  V30 2495 H 229.697 0.104867 -1.91213 0
M  V30 2496 H 228.002 2.44464 -3.06177 0
M  V30 2497 H 229.699 2.19015 -3.35907 0
M  V30 2498 H 226.289 1.00542 -4.16641 0
M  V30 2499 H 230.473 0.410408 -4.946 0
M  V30 2500 H 225.729 -0.404524 -6.1006 0
M  V30 2501 H 229.903 -0.993922 -6.89271 0
M  V30 2502 H 227.53 -1.40742 -7.47058 0
M  V30 2503 N 229.106 1.52395 0.401703 0
M  V30 2504 C 230.016 1.7917 1.51444 0
M  V30 2505 C 231.032 0.677691 1.6026 0
M  V30 2506 O 232.208 0.963909 1.76835 0
M  V30 2507 C 229.273 1.94347 2.87107 0
M  V30 2508 C 228.334 3.18257 2.88116 0
M  V30 2509 C 227.567 3.32701 4.17308 0
M  V30 2510 O 227.79 2.52238 5.11598 0
M  V30 2511 O 226.724 4.25891 4.25324 0
M  V30 2512 H 230.55 2.73633 1.31752 0
M  V30 2513 H 228.135 1.3733 0.588296 0
M  V30 2514 H 230.017 2.06109 3.67555 0
M  V30 2515 H 228.692 1.03073 3.06851 0
M  V30 2516 H 227.599 3.11947 2.06494 0
M  V30 2517 H 228.932 4.09336 2.73322 0
M  V30 2518 N 230.584 -0.659388 1.43143 0
M  V30 2519 C 231.494 -1.80167 1.50256 0
M  V30 2520 C 232.51 -1.69571 0.390106 0
M  V30 2521 O 233.686 -1.90849 0.643319 0
M  V30 2522 C 230.751 -3.16409 1.41725 0
M  V30 2523 C 229.812 -3.38848 2.63591 0
M  V30 2524 C 229.045 -4.68591 2.55458 0
M  V30 2525 O 229.268 -5.47532 1.59891 0
M  V30 2526 O 228.202 -4.92614 3.45854 0
M  V30 2527 H 232.028 -1.77121 2.46702 0
M  V30 2528 H 229.613 -0.817092 1.25076 0
M  V30 2529 H 231.495 -3.9768 1.39387 0
M  V30 2530 H 230.17 -3.20059 0.484118 0
M  V30 2531 H 229.077 -2.57366 2.71502 0
M  V30 2532 H 230.41 -3.4004 3.55856 0
M  V30 2533 N 232.062 -1.29571 -0.897171 0
M  V30 2534 C 233.302 -1.18959 -1.66217 0
M  V30 2535 C 233.666 0.254271 -1.90309 0
M  V30 2536 O 234.867 0.483407 -2.64417 0
M  V30 2537 C 233.138 -1.98302 -2.9734 0
M  V30 2538 S 234.697 -2.04253 -3.88364 0
M  V30 2539 H 231.515 -0.424137 -0.570639 0
M  V30 2540 H 234.117 -1.6389 -1.06585 0
M  V30 2541 H 232.821 -3.02342 -2.77521 0
M  V30 2542 H 232.352 -1.53986 -3.62011 0
M  V30 2543 H 234.367 -1.16105 -4.82425 0
M  V30 2544 N 233.54 1.10788 -1.12088 0
M  V30 2545 C 234.956 1.34691 -0.856186 0
M  V30 2546 C 235.156 1.94791 0.515615 0
M  V30 2547 O 234.212 2.18524 1.26505 0
M  V30 2548 C 235.525 2.27208 -1.9697 0
M  V30 2549 C 237.073 2.40755 -2.00016 0
M  V30 2550 C 237.548 3.36598 -3.1059 0
M  V30 2551 N 239.039 3.44164 -3.10008 0
M  V30 2552 C 239.774 4.18284 -3.92206 0
M  V30 2553 N 239.27 4.95322 -4.84384 0
M  V30 2554 N 241.063 4.13865 -3.80357 0
M  V30 2555 H 233.214 0.70144 -2.00483 0
M  V30 2556 H 235.477 0.371405 -0.872217 0
M  V30 2557 H 235.183 1.90251 -2.958 0
M  V30 2558 H 235.057 3.27485 -1.87172 0
M  V30 2559 H 237.444 2.76982 -1.01808 0
M  V30 2560 H 237.525 1.40305 -2.13888 0
M  V30 2561 H 237.169 3.01096 -4.09028 0
M  V30 2562 H 237.099 4.36918 -2.93956 0
M  V30 2563 H 239.59 2.8922 -2.43228 0
M  V30 2564 H 239.903 5.49267 -5.43623 0
M  V30 2565 H 238.248 4.94459 -4.884 0
M  V30 2566 H 241.439 3.52773 -3.07683 0
M  V30 2567 H 241.612 4.71372 -4.44649 0
M  V30 2568 N 235.018 0.912232 1.28515 0
M  V30 2569 C 235.965 0.397954 2.27343 0
M  V30 2570 C 236.935 -0.526766 1.57526 0
M  V30 2571 O 238.12 -0.449292 1.85435 0
M  V30 2572 C 235.26 -0.357263 3.43246 0
M  V30 2573 C 234.373 0.599788 4.27816 0
M  V30 2574 C 233.508 -0.173725 5.30916 0
M  V30 2575 C 232.547 0.777039 6.07148 0
M  V30 2576 N 231.684 0.0371398 7.0209 0
M  V30 2577 H 236.524 1.24577 2.70711 0
M  V30 2578 H 234.061 0.625612 1.33133 0
M  V30 2579 H 236.019 -0.8113 4.09236 0
M  V30 2580 H 234.649 -1.16943 3.00872 0
M  V30 2581 H 233.701 1.17235 3.61884 0
M  V30 2582 H 235.013 1.32704 4.80823 0
M  V30 2583 H 234.167 -0.688394 6.02782 0
M  V30 2584 H 232.906 -0.934041 4.78672 0
M  V30 2585 H 231.911 1.3031 5.34134 0
M  V30 2586 H 233.136 1.53689 6.61481 0
M  V30 2587 H 231.082 -0.705213 6.52198 0
M  V30 2588 H 230.999 0.704249 7.52713 0
M  V30 2589 H 232.267 -0.457383 7.78157 0
M  V30 2590 N 236.496 -1.42363 0.676048 0
M  V30 2591 C 237.406 -2.346 -0.00153389 0
M  V30 2592 C 238.422 -1.5516 -0.787485 0
M  V30 2593 O 239.598 -1.87723 -0.729521 0
M  V30 2594 C 236.663 -3.33705 -0.940298 0
M  V30 2595 C 235.724 -4.29042 -0.148739 0
M  V30 2596 C 234.957 -5.23413 -1.04279 0
M  V30 2597 O 235.18 -5.22749 -2.28232 0
M  V30 2598 O 234.114 -5.99795 -0.502925 0
M  V30 2599 H 237.94 -2.94082 0.758268 0
M  V30 2600 H 235.525 -1.42888 0.436289 0
M  V30 2601 H 237.407 -3.94586 -1.47917 0
M  V30 2602 H 236.082 -2.76695 -1.67993 0
M  V30 2603 H 234.989 -3.71571 0.43427 0
M  V30 2604 H 236.322 -4.89097 0.551805 0
M  V30 2605 N 237.974 -0.419461 -1.51915 0
M  V30 2606 C 239.223 0.154346 -2.01109 0
M  V30 2607 C 239.536 1.45338 -1.30905 0
M  V30 2608 O 240.742 2.10906 -1.7097 0
M  V30 2609 C 239.198 0.325615 -3.58424 0
M  V30 2610 C 238.806 -0.961934 -4.37551 0
M  V30 2611 C 240.55 0.854155 -4.15818 0
M  V30 2612 C 238.457 -0.757287 -5.86531 0
M  V30 2613 H 237.387 0.0614563 -0.751491 0
M  V30 2614 H 240.038 -0.54649 -1.75173 0
M  V30 2615 H 238.42 1.08903 -3.80731 0
M  V30 2616 H 239.594 -1.7323 -4.26999 0
M  V30 2617 H 237.909 -1.41766 -3.91524 0
M  V30 2618 H 240.506 1.02346 -5.24814 0
M  V30 2619 H 240.849 1.83172 -3.73837 0
M  V30 2620 H 241.382 0.149528 -3.97519 0
M  V30 2621 H 238.121 -1.70671 -6.32892 0
M  V30 2622 H 237.641 -0.0264061 -5.99794 0
M  V30 2623 H 239.32 -0.403482 -6.45741 0
M  V30 2624 N 239.452 1.56882 -0.150215 0
M  V30 2625 C 240.362 2.20494 0.801222 0
M  V30 2626 C 241.378 1.19019 1.26927 0
M  V30 2627 O 242.554 1.51607 1.32579 0
M  V30 2628 C 239.619 2.81659 2.02161 0
M  V30 2629 C 238.68 3.9827 1.60249 0
M  V30 2630 C 237.913 4.56508 2.7647 0
M  V30 2631 O 238.136 4.13627 3.92771 0
M  V30 2632 O 237.07 5.46719 2.51757 0
M  V30 2633 H 240.896 3.02315 0.289717 0
M  V30 2634 H 238.481 1.49202 0.0769684 0
M  V30 2635 H 240.363 3.20522 2.73576 0
M  V30 2636 H 239.038 2.02849 2.52258 0
M  V30 2637 H 237.945 3.64117 0.858477 0
M  V30 2638 H 239.278 4.78609 1.14864 0
M  V30 2639 N 240.93 -0.123565 1.57115 0
M  V30 2640 C 241.84 -1.17074 2.033 0
M  V30 2641 C 242.856 -1.4561 0.952559 0
M  V30 2642 O 244.032 -1.56817 1.26374 0
M  V30 2643 C 241.097 -2.47857 2.42421 0
M  V30 2644 C 240.158 -2.26758 3.64526 0
M  V30 2645 C 239.391 -3.51305 4.01771 0
M  V30 2646 O 239.614 -4.5843 3.39409 0
M  V30 2647 O 238.548 -3.42578 4.94898 0
M  V30 2648 H 242.374 -0.808555 2.92739 0
M  V30 2649 H 239.959 -0.334027 1.45618 0
M  V30 2650 H 241.841 -3.2492 2.68338 0
M  V30 2651 H 240.516 -2.83558 1.5613 0
M  V30 2652 H 239.423 -1.47569 3.43765 0
M  V30 2653 H 240.756 -1.95963 4.51508 0
M  V30 2654 N 242.408 -1.52605 -0.393616 0
M  V30 2655 C 243.824 -1.41753 -0.733357 0
M  V30 2656 C 244.024 -0.534293 -1.94287 0
M  V30 2657 O 243.08 -0.0059787 -2.52499 0
M  V30 2658 C 244.393 -2.84531 -0.972772 0
M  V30 2659 C 245.941 -2.93978 -1.07453 0
M  V30 2660 C 246.416 -4.37756 -1.3466 0
M  V30 2661 N 247.907 -4.4106 -1.41492 0
M  V30 2662 C 248.642 -5.49387 -1.642 0
M  V30 2663 N 248.138 -6.67806 -1.8441 0
M  V30 2664 N 249.931 -5.36923 -1.66342 0
M  V30 2665 H 242.082 -2.08555 0.402328 0
M  V30 2666 H 244.345 -0.940654 0.117789 0
M  V30 2667 H 244.051 -3.51353 -0.156204 0
M  V30 2668 H 243.925 -3.26508 -1.88871 0
M  V30 2669 H 246.312 -2.27326 -1.88167 0
M  V30 2670 H 246.393 -2.55435 -0.136605 0
M  V30 2671 H 246.037 -5.04972 -0.544581 0
M  V30 2672 H 245.967 -4.73848 -2.2973 0
M  V30 2673 H 248.458 -3.55705 -1.27601 0
M  V30 2674 H 248.771 -7.46141 -2.01231 0
M  V30 2675 H 247.116 -6.70843 -1.81644 0
M  V30 2676 H 250.307 -4.43381 -1.50102 0
M  V30 2677 H 250.48 -6.21416 -1.837 0
M  V30 2678 N 243.887 0.651787 -1.4349 0
M  V30 2679 C 244.797 1.79368 -1.5121 0
M  V30 2680 C 245.813 1.69361 -0.399093 0
M  V30 2681 O 246.989 1.90505 -0.653431 0
M  V30 2682 C 244.054 3.15653 -1.43401 0
M  V30 2683 C 243.115 3.37446 -2.65384 0
M  V30 2684 C 242.348 4.67229 -2.57939 0
M  V30 2685 O 242.571 5.46676 -1.62792 0
M  V30 2686 O 241.505 4.90773 -3.48462 0
M  V30 2687 H 245.331 1.7581 -2.47638 0
M  V30 2688 H 242.916 0.810447 -1.25507 0
M  V30 2689 H 244.798 3.96935 -1.41494 0
M  V30 2690 H 243.473 3.19798 -0.501085 0
M  V30 2691 H 242.38 2.55923 -2.72863 0
M  V30 2692 H 243.713 3.38148 -3.57654 0
M  V30 2693 N 245.365 1.30045 0.890287 0
M  V30 2694 C 246.312 1.15976 1.99545 0
M  V30 2695 C 247.282 0.0506202 1.66023 0
M  V30 2696 O 248.467 0.219847 1.89529 0
M  V30 2697 C 245.607 0.852054 3.34416 0
M  V30 2698 C 244.72 2.04255 3.80662 0
M  V30 2699 C 243.855 1.6734 5.04154 0
M  V30 2700 C 242.894 2.82916 5.42794 0
M  V30 2701 N 242.031 2.46333 6.57468 0
M  V30 2702 H 246.871 2.10524 2.10911 0
M  V30 2703 H 244.408 1.04749 1.03276 0
M  V30 2704 H 246.366 0.654296 4.12037 0
M  V30 2705 H 244.996 -0.0565502 3.2275 0
M  V30 2706 H 244.048 2.35172 2.98995 0
M  V30 2707 H 245.36 2.90826 4.05242 0
M  V30 2708 H 244.514 1.43908 5.89386 0
M  V30 2709 H 243.253 0.779308 4.81433 0
M  V30 2710 H 242.258 3.0702 4.56091 0
M  V30 2711 H 243.483 3.73004 5.6749 0
M  V30 2712 H 241.429 1.59423 6.36334 0
M  V30 2713 H 241.346 3.26436 6.81891 0
M  V30 2714 H 242.614 2.26244 7.45945 0
M  V30 2715 N 246.843 -1.10192 1.12674 0
M  V30 2716 C 247.79 -2.16606 0.796906 0
M  V30 2717 C 248.76 -1.64394 -0.237476 0
M  V30 2718 O 249.945 -1.90474 -0.111484 0
M  V30 2719 C 247.085 -3.44116 0.26043 0
M  V30 2720 C 246.198 -4.10268 1.35293 0
M  V30 2721 C 245.333 -5.25507 0.775621 0
M  V30 2722 C 244.372 -5.83567 1.84706 0
M  V30 2723 N 243.509 -6.90179 1.28829 0
M  V30 2724 H 248.349 -2.44163 1.70846 0
M  V30 2725 H 245.886 -1.19846 0.85295 0
M  V30 2726 H 247.844 -4.17143 -0.0686814 0
M  V30 2727 H 246.474 -3.16901 -0.614274 0
M  V30 2728 H 245.526 -3.35184 1.79877 0
M  V30 2729 H 246.838 -4.4946 2.16303 0
M  V30 2730 H 245.992 -6.05398 0.397327 0
M  V30 2731 H 244.731 -4.87656 -0.0656581 0
M  V30 2732 H 243.736 -5.02344 2.23452 0
M  V30 2733 H 244.961 -6.23482 2.69161 0
M  V30 2734 H 242.907 -6.54322 0.468881 0
M  V30 2735 H 242.824 -7.28097 2.03497 0
M  V30 2736 H 244.092 -7.73844 0.937311 0
M  V30 2737 N 248.321 -0.919034 -1.28029 0
M  V30 2738 C 249.284 -0.416182 -2.2539 0
M  V30 2739 C 250.284 0.460438 -1.54067 0
M  V30 2740 O 251.474 0.262744 -1.72207 0
M  V30 2741 C 248.606 0.402707 -3.38513 0
M  V30 2742 H 249.799 -1.27629 -2.71387 0
M  V30 2743 H 247.352 -0.698919 -1.39803 0
M  V30 2744 H 248.087 1.282 -2.97885 0
M  V30 2745 H 247.872 -0.225698 -3.9145 0
M  V30 2746 H 249.362 0.745191 -4.10897 0
M  V30 2747 N 249.799 1.42003 -0.683588 0
M  V30 2748 C 251.047 2.01015 -0.209101 0
M  V30 2749 C 251.368 1.54365 1.19149 0
M  V30 2750 O 250.638 0.769083 1.80172 0
M  V30 2751 H 249.218 0.743294 -0.074315 0
M  V30 2752 H 251.88 1.73798 -0.882066 0
M  V30 2753 H 250.976 3.11343 -0.2172 0
M  V30 2754 N 251.277 0.427512 1.51691 0
M  V30 2755 C 252.502 -0.143601 2.06902 0
M  V30 2756 C 252.927 -1.36536 1.29382 0
M  V30 2757 O 252.285 -1.78289 0.329043 0
M  V30 2758 C 252.333 -0.454207 3.57728 0
M  V30 2759 O 251.437 -1.54228 3.82475 0
M  V30 2760 H 250.778 -0.00617128 0.663971 0
M  V30 2761 H 253.308 0.606014 1.95419 0
M  V30 2762 H 253.318 -0.707525 4.01818 0
M  V30 2763 H 251.993 0.438812 4.13579 0
M  V30 2764 H 250.57 -1.2797 3.50254 0
M  V30 2765 N 252.755 -1.56801 0.158532 0
M  V30 2766 C 254.003 -1.96102 -0.488712 0
M  V30 2767 C 254.324 -1.04498 -1.64636 0
M  V30 2768 O 253.594 -0.108783 -1.95598 0
M  V30 2769 H 252.174 -0.724102 -0.183535 0
M  V30 2770 H 254.836 -1.93457 0.236728 0
M  V30 2771 H 253.932 -3.00097 -0.857219 0
M  V30 2772 N 254.233 0.115231 -1.57178 0
M  V30 2773 C 255.18 1.14115 -2.00615 0
M  V30 2774 C 256.15 1.40939 -0.878941 0
M  V30 2775 O 257.335 1.52741 -1.14345 0
M  V30 2776 C 254.475 2.46156 -2.4187 0
M  V30 2777 C 253.588 2.26236 -3.68024 0
M  V30 2778 C 252.723 3.51534 -3.98243 0
M  V30 2779 C 251.762 3.26787 -5.17568 0
M  V30 2780 N 250.899 4.44298 -5.43639 0
M  V30 2781 H 255.739 0.763743 -2.88047 0
M  V30 2782 H 253.276 0.365615 -1.42484 0
M  V30 2783 H 255.234 3.23189 -2.63827 0
M  V30 2784 H 253.864 2.81783 -1.57475 0
M  V30 2785 H 252.916 1.40102 -3.5366 0
M  V30 2786 H 254.228 2.03929 -4.55208 0
M  V30 2787 H 253.382 4.36984 -4.20868 0
M  V30 2788 H 252.121 3.76876 -3.09541 0
M  V30 2789 H 251.126 2.39729 -4.94783 0
M  V30 2790 H 252.351 3.02812 -6.0785 0
M  V30 2791 H 250.297 4.69754 -4.57895 0
M  V30 2792 H 250.214 4.25109 -6.25154 0
M  V30 2793 H 251.482 5.3087 -5.70786 0
M  V30 2794 N 255.711 1.52812 0.385517 0
M  V30 2795 C 256.659 1.78482 1.49155 0
M  V30 2796 C 257.653 0.652914 1.56312 0
M  V30 2797 O 258.859 0.835464 1.59436 0
M  V30 2798 H 255.234 0.5648 0.496493 0
M  V30 2799 H 257.205 2.71095 1.24699 0
M  V30 2800 C 255.954 1.97378 2.86247 0
M  V30 2801 H 255.277 2.83907 2.81491 0
M  V30 2802 H 256.717 2.19327 3.62866 0
M  V30 2803 C 255.176 0.74728 3.28508 0
M  V30 2804 O 255.706 -0.0736232 4.01633 0
M  V30 2805 N 253.912 0.576396 2.84826 0
M  V30 2806 H 253.459 1.24555 2.25486 0
M  V30 2807 H 253.417 -0.24288 3.1346 0
M  V30 2808 N 257.189 -0.644168 1.43834 0
M  V30 2809 C 258.466 -1.40188 1.36406 0
M  V30 2810 C 258.846 -2.11094 0.0163124 0
M  V30 2811 O 258.194 -2.05426 -1.00062 0
M  V30 2812 C 258.404 -2.3791 2.55343 0
M  V30 2813 C 259.752 -3.01637 2.98832 0
M  V30 2814 O 260.776 -2.48237 2.55455 0
M  V30 2815 O 259.635 -3.98477 3.74003 0
M  V30 2816 H 256.729 -0.626773 0.539523 0
M  V30 2817 H 259.275 -0.670317 1.559 0
M  V30 2818 H 258.047 -1.84525 3.4506 0
M  V30 2819 H 257.67 -3.18503 2.37995 0
M  V30 2820 N 258.668 -1.30515 -0.883378 0
M  V30 2821 C 259.618 -1.13641 -1.9766 0
M  V30 2822 C 260.602 -0.0511314 -1.60819 0
M  V30 2823 O 261.794 -0.274623 -1.74857 0
M  V30 2824 C 258.923 -0.831976 -3.33066 0
M  V30 2825 C 258.009 -1.95759 -3.76217 0
M  V30 2826 N 258.4 -3.20313 -3.9145 0
M  V30 2827 C 256.698 -1.85431 -4.05625 0
M  V30 2828 C 257.399 -3.93856 -4.2808 0
M  V30 2829 N 256.375 -3.21919 -4.38029 0
M  V30 2830 H 260.177 -2.08106 -2.07531 0
M  V30 2831 H 257.691 -1.21877 -1.0733 0
M  V30 2832 H 259.688 -0.692102 -4.11115 0
M  V30 2833 H 258.348 0.104588 -3.24532 0
M  V30 2834 H 259.359 -3.55583 -3.76538 0
M  V30 2835 H 256.036 -0.991531 -4.05555 0
M  V30 2836 H 257.426 -5.01125 -4.47575 0
M  V30 2837 N 260.146 1.09593 -1.13257 0
M  V30 2838 C 261.109 2.14359 -0.811358 0
M  V30 2839 C 262.109 1.59808 0.178377 0
M  V30 2840 O 263.299 1.74132 -0.0484911 0
M  V30 2841 C 260.431 3.40269 -0.207276 0
M  V30 2842 H 261.624 2.44284 -1.73969 0
M  V30 2843 H 259.177 1.25102 -0.936973 0
M  V30 2844 H 259.912 3.15969 0.73036 0
M  V30 2845 H 259.697 3.81154 -0.919992 0
M  V30 2846 H 261.187 4.176 0.000667944 0
M  V30 2847 N 261.624 0.925811 1.2754 0
M  V30 2848 C 262.534 0.428993 2.30644 0
M  V30 2849 C 263.55 -0.489387 1.66976 0
M  V30 2850 O 264.726 -0.372653 1.97922 0
M  V30 2851 C 261.791 -0.311967 3.45294 0
M  V30 2852 C 260.852 0.641098 4.24486 0
M  V30 2853 C 260.085 -0.0645955 5.33661 0
M  V30 2854 O 260.308 -1.28429 5.55754 0
M  V30 2855 O 259.242 0.606265 5.98839 0
M  V30 2856 H 263.068 1.28504 2.75173 0
M  V30 2857 H 260.653 0.691086 1.32455 0
M  V30 2858 H 262.535 -0.729972 4.15029 0
M  V30 2859 H 261.21 -1.14365 3.02824 0
M  V30 2860 H 260.117 1.10874 3.57292 0
M  V30 2861 H 261.45 1.43995 4.70666 0
M  V30 2862 N 263.102 -1.41638 0.69111 0
M  V30 2863 C 264.049 -2.30789 0.0229705 0
M  V30 2864 C 265.019 -1.46863 -0.775911 0
M  V30 2865 O 266.204 -1.75661 -0.74485 0
M  V30 2866 C 263.344 -3.32868 -0.910666 0
M  V30 2867 C 262.457 -4.31875 -0.103874 0
M  V30 2868 C 261.592 -5.21024 -1.03475 0
M  V30 2869 C 260.631 -6.11702 -0.220598 0
M  V30 2870 N 259.768 -6.93349 -1.10504 0
M  V30 2871 H 264.608 -2.87366 0.788978 0
M  V30 2872 H 262.145 -1.41535 0.400794 0
M  V30 2873 H 264.103 -3.90596 -1.46597 0
M  V30 2874 H 262.733 -2.77851 -1.64312 0
M  V30 2875 H 261.785 -3.76131 0.568285 0
M  V30 2876 H 263.097 -4.96003 0.527504 0
M  V30 2877 H 262.251 -5.83565 -1.65943 0
M  V30 2878 H 260.99 -4.57112 -1.69999 0
M  V30 2879 H 259.995 -5.48215 0.417187 0
M  V30 2880 H 261.22 -6.77668 0.440784 0
M  V30 2881 H 259.166 -6.3205 -1.75638 0
M  V30 2882 H 259.083 -7.54146 -0.529125 0
M  V30 2883 H 260.351 -7.60362 -1.71667 0
M  V30 2884 N 264.58 -0.43555 -1.51462 0
M  V30 2885 C 265.826 0.131709 -2.02372 0
M  V30 2886 C 266.159 1.42516 -1.3192 0
M  V30 2887 O 265.434 1.89606 -0.433573 0
M  V30 2888 C 265.717 0.352301 -3.58373 0
M  V30 2889 C 265.57 -0.959676 -4.39443 0
M  V30 2890 C 266.889 1.12286 -4.25535 0
M  V30 2891 H 264.008 0.0463936 -0.735538 0
M  V30 2892 H 266.65 -0.574197 -1.81116 0
M  V30 2893 H 264.8 0.9536 -3.76615 0
M  V30 2894 H 266.472 -1.59482 -4.32855 0
M  V30 2895 H 264.715 -1.56468 -4.04599 0
M  V30 2896 H 265.386 -0.759394 -5.46752 0
M  V30 2897 H 267.862 0.613545 -4.11552 0
M  V30 2898 H 266.738 1.24598 -5.34571 0
M  V30 2899 H 266.999 2.15048 -3.86273 0
M  V30 2900 N 266.058 1.56714 -0.166846 0
M  V30 2901 C 267.021 2.16539 0.751232 0
M  V30 2902 C 268.021 1.11228 1.16125 0
M  V30 2903 O 269.211 1.36765 1.07894 0
M  V30 2904 C 266.343 2.74462 2.02196 0
M  V30 2905 H 267.536 2.99013 0.230499 0
M  V30 2906 H 265.089 1.56081 0.0826982 0
M  V30 2907 H 265.824 1.95709 2.58589 0
M  V30 2908 H 265.609 3.51527 1.73698 0
M  V30 2909 H 267.099 3.20489 2.67725 0
M  V30 2910 N 267.536 -0.106894 1.57237 0
M  V30 2911 C 268.446 -1.14911 2.0453 0
M  V30 2912 C 269.462 -1.44592 0.96795 0
M  V30 2913 O 270.638 -1.55468 1.2803 0
M  V30 2914 C 267.703 -2.45272 2.45036 0
M  V30 2915 C 266.764 -2.22879 3.66911 0
M  V30 2916 C 265.997 -3.47024 4.05475 0
M  V30 2917 O 266.22 -4.54804 3.44252 0
M  V30 2918 O 265.154 -3.3731 4.98504 0
M  V30 2919 H 268.98 -0.777461 2.9358 0
M  V30 2920 H 266.565 -0.318563 1.45964 0
M  V30 2921 H 268.447 -3.22055 2.71769 0
M  V30 2922 H 267.122 -2.81886 1.59129 0
M  V30 2923 H 266.029 -1.43915 3.45311 0
M  V30 2924 H 267.362 -1.91163 4.53561 0
M  V30 2925 N 269.014 -1.53014 -0.377408 0
M  V30 2926 C 269.961 -1.78616 -1.46168 0
M  V30 2927 C 270.931 -0.629917 -1.53692 0
M  V30 2928 O 272.116 -0.870861 -1.69766 0
M  V30 2929 C 269.256 -1.97123 -2.8326 0
M  V30 2930 C 268.369 -3.24831 -2.84796 0
M  V30 2931 C 267.504 -3.33591 -4.13389 0
M  V30 2932 C 266.543 -4.55377 -4.09021 0
M  V30 2933 N 265.68 -4.61355 -5.29241 0
M  V30 2934 H 270.52 -2.71142 -1.23637 0
M  V30 2935 H 268.057 -1.34326 -0.599577 0
M  V30 2936 H 270.015 -2.05839 -3.62886 0
M  V30 2937 H 268.645 -1.07946 -3.04216 0
M  V30 2938 H 267.697 -3.25128 -1.97474 0
M  V30 2939 H 269.009 -4.14523 -2.77439 0
M  V30 2940 H 268.163 -3.41554 -5.01424 0
M  V30 2941 H 266.902 -2.41894 -4.23484 0
M  V30 2942 H 265.907 -4.47527 -3.19373 0
M  V30 2943 H 267.132 -5.48402 -4.00539 0
M  V30 2944 H 265.078 -3.72554 -5.39944 0
M  V30 2945 H 264.995 -5.44935 -5.24006 0
M  V30 2946 H 266.263 -4.73586 -6.19141 0
M  V30 2947 N 270.492 0.636531 -1.44174 0
M  V30 2948 C 271.422 1.76003 -1.53444 0
M  V30 2949 C 272.403 1.65619 -0.387841 0
M  V30 2950 O 273.588 1.84461 -0.607257 0
M  V30 2951 C 270.718 3.14511 -1.4731 0
M  V30 2952 C 269.672 3.39677 -2.60391 0
M  V30 2953 C 268.998 4.78159 -2.39308 0
M  V30 2954 C 270.298 3.32772 -4.02567 0
M  V30 2955 H 271.992 1.68501 -2.47483 0
M  V30 2956 H 269.538 0.809237 -1.19111 0
M  V30 2957 H 271.491 3.92878 -1.52397 0
M  V30 2958 H 270.215 3.22783 -0.49785 0
M  V30 2959 H 268.874 2.63688 -2.54684 0
M  V30 2960 H 268.522 4.83128 -1.39988 0
M  V30 2961 H 268.222 4.95956 -3.15122 0
M  V30 2962 H 269.746 5.58762 -2.46205 0
M  V30 2963 H 271.16 4.01051 -4.09672 0
M  V30 2964 H 269.557 3.62104 -4.7854 0
M  V30 2965 H 270.627 2.30669 -4.2652 0
M  V30 2966 N 271.97 1.30982 0.876444 0
M  V30 2967 C 272.88 1.2003 2.01569 0
M  V30 2968 C 273.896 0.11838 1.73597 0
M  V30 2969 O 275.072 0.33495 1.98595 0
M  V30 2970 C 272.137 0.901637 3.34771 0
M  V30 2971 C 271.198 2.06979 3.76109 0
M  V30 2972 C 270.431 1.78529 5.02954 0
M  V30 2973 O 270.654 0.717296 5.65872 0
M  V30 2974 O 269.588 2.64019 5.40905 0
M  V30 2975 H 273.414 2.15753 2.13739 0
M  V30 2976 H 270.999 1.10658 1.00375 0
M  V30 2977 H 272.881 0.750645 4.1466 0
M  V30 2978 H 271.556 -0.0256141 3.2369 0
M  V30 2979 H 270.463 2.27616 2.96887 0
M  V30 2980 H 271.796 2.97907 3.91807 0
M  V30 2981 N 273.449 -1.08991 1.13837 0
M  V30 2982 C 274.412 -2.13925 0.822715 0
M  V30 2983 C 275.412 -1.599 -0.1699 0
M  V30 2984 O 276.602 -1.74104 0.0577251 0
M  V30 2985 C 273.734 -3.40155 0.225318 0
M  V30 2986 H 274.927 -2.43358 1.75262 0
M  V30 2987 H 272.48 -1.24603 0.943594 0
M  V30 2988 H 273.215 -3.16352 -0.713594 0
M  V30 2989 H 273 -3.80661 0.940193 0
M  V30 2990 H 274.49 -4.17594 0.0214784 0
M  V30 2991 N 274.927 -0.932562 -1.27047 0
M  V30 2992 C 275.857 -0.452902 -2.29066 0
M  V30 2993 C 276.838 0.489338 -1.62909 0
M  V30 2994 O 278.023 0.393046 -1.90181 0
M  V30 2995 C 275.153 0.290698 -3.46081 0
M  V30 2996 C 274.107 -0.564168 -4.24265 0
M  V30 2997 C 273.433 0.308886 -5.33807 0
M  V30 2998 C 274.733 -1.83112 -4.89149 0
M  V30 2999 H 276.427 -1.30552 -2.69437 0
M  V30 3000 H 273.973 -0.629201 -1.29526 0
M  V30 3001 H 275.926 0.637233 -4.16554 0
M  V30 3002 H 274.65 1.17738 -3.0464 0
M  V30 3003 H 273.309 -0.893477 -3.55545 0
M  V30 3004 H 272.957 1.19467 -4.88607 0
M  V30 3005 H 272.657 -0.259633 -5.87026 0
M  V30 3006 H 274.181 0.650884 -6.07121 0
M  V30 3007 H 275.595 -1.55236 -5.51883 0
M  V30 3008 H 273.992 -2.34353 -5.52448 0
M  V30 3009 H 275.062 -2.54772 -4.12576 0
M  V30 3010 N 276.405 1.4127 -0.698611 0
M  V30 3011 C 277.63 2.06024 -0.238512 0
M  V30 3012 C 278.055 1.5224 1.10475 0
M  V30 3013 O 277.413 0.650623 1.69223 0
M  V30 3014 C 277.461 3.59988 -0.209952 0
M  V30 3015 O 276.565 4.04282 0.814235 0
M  V30 3016 H 275.906 0.653829 -0.115775 0
M  V30 3017 H 278.436 1.8098 -0.954326 0
M  V30 3018 H 278.446 4.07979 -0.0418436 0
M  V30 3019 H 277.121 3.98503 -1.1903 0
M  V30 3020 H 275.698 3.6779 0.615234 0
M  V30 3021 N 277.883 0.443576 1.51229 0
M  V30 3022 C 279.129 -0.120975 2.02439 0
M  V30 3023 C 279.462 -1.41815 1.32674 0
M  V30 3024 O 278.737 -1.89373 0.443622 0
M  V30 3025 C 279.02 -0.333291 3.58554 0
M  V30 3026 C 278.873 0.982968 4.38928 0
M  V30 3027 C 280.192 -1.10028 4.26124 0
M  V30 3028 H 277.311 -0.0424923 0.735774 0
M  V30 3029 H 279.953 0.583794 1.80809 0
M  V30 3030 H 278.103 -0.933614 3.77115 0
M  V30 3031 H 279.775 1.61775 4.32003 0
M  V30 3032 H 278.018 1.58611 4.03763 0
M  V30 3033 H 278.689 0.788379 5.46341 0
M  V30 3034 H 281.165 -0.591711 4.11871 0
M  V30 3035 H 280.041 -1.21761 5.35225 0
M  V30 3036 H 280.302 -2.12996 3.87408 0
M  V30 3037 N 279.361 -1.56624 0.175154 0
M  V30 3038 C 280.308 -2.18149 -0.753634 0
M  V30 3039 C 281.278 -1.12265 -1.22417 0
M  V30 3040 O 282.463 -1.40432 -1.29165 0
M  V30 3041 C 279.603 -2.82933 -1.97592 0
M  V30 3042 C 278.716 -4.03289 -1.5486 0
M  V30 3043 C 277.851 -4.55988 -2.72485 0
M  V30 3044 C 276.89 -5.68746 -2.26262 0
M  V30 3045 N 276.027 -6.15938 -3.36994 0
M  V30 3046 H 280.867 -2.9717 -0.222195 0
M  V30 3047 H 278.404 -1.46774 -0.0979422 0
M  V30 3048 H 280.362 -3.18653 -2.69288 0
M  V30 3049 H 278.992 -2.06509 -2.481 0
M  V30 3050 H 278.044 -3.73364 -0.728246 0
M  V30 3051 H 279.356 -4.849 -1.16933 0
M  V30 3052 H 278.51 -4.9391 -3.52332 0
M  V30 3053 H 277.249 -3.73443 -3.13674 0
M  V30 3054 H 276.254 -5.30372 -1.44863 0
M  V30 3055 H 277.479 -6.53095 -1.86127 0
M  V30 3056 H 275.425 -5.36321 -3.77751 0
M  V30 3057 H 275.342 -6.92548 -3.03172 0
M  V30 3058 H 276.61 -6.58511 -4.17114 0
M  V30 3059 N 280.839 0.0985539 -1.57292 0
M  V30 3060 C 281.749 1.13824 -2.05137 0
M  V30 3061 C 282.765 1.44076 -0.975604 0
M  V30 3062 O 283.941 1.54786 -1.28853 0
M  V30 3063 C 281.006 2.43969 -2.46333 0
M  V30 3064 C 280.067 2.2093 -3.68087 0
M  V30 3065 C 279.3 3.44869 -4.0731 0
M  V30 3066 O 279.523 4.52972 -3.46659 0
M  V30 3067 O 278.457 3.34661 -5.00285 0
M  V30 3068 H 282.283 0.761881 -2.93988 0
M  V30 3069 H 279.868 0.310818 -1.46131 0
M  V30 3070 H 281.75 3.20609 -2.73473 0
M  V30 3071 H 280.425 2.81038 -1.60621 0
M  V30 3072 H 279.332 1.42081 -3.46069 0
M  V30 3073 H 280.665 1.88755 -4.54568 0
M  V30 3074 N 282.317 1.53212 0.369288 0
M  V30 3075 C 283.227 1.82342 1.47609 0
M  V30 3076 C 284.243 0.711532 1.58787 0
M  V30 3077 O 285.419 1.0012 1.74751 0
M  V30 3078 C 282.484 2.00393 2.8292 0
M  V30 3079 C 281.545 3.24297 2.81301 0
M  V30 3080 C 280.778 3.41478 4.10157 0
M  V30 3081 O 281.001 2.63033 5.06132 0
M  V30 3082 O 279.935 4.34817 4.16194 0
M  V30 3083 H 283.761 2.76366 1.25918 0
M  V30 3084 H 281.346 1.38547 0.559034 0
M  V30 3085 H 283.228 2.13859 3.63101 0
M  V30 3086 H 281.903 1.09559 3.04596 0
M  V30 3087 H 280.81 3.16257 1.99831 0
M  V30 3088 H 282.143 4.15041 2.64578 0
M  V30 3089 N 283.795 -0.628877 1.44509 0
M  V30 3090 C 285.023 -1.41554 1.50897 0
M  V30 3091 C 285.438 -1.8832 0.134564 0
M  V30 3092 O 284.795 -1.60969 -0.859965 0
M  V30 3093 C 284.846 -2.63435 2.47556 0
M  V30 3094 O 284.567 -2.18619 3.79654 0
M  V30 3095 C 286.068 -3.56537 2.63431 0
M  V30 3096 H 283.288 -0.434044 0.511709 0
M  V30 3097 H 285.832 -0.768895 1.89495 0
M  V30 3098 H 283.987 -3.24187 2.12089 0
M  V30 3099 H 284.401 -2.97652 4.31861 0
M  V30 3100 H 285.875 -4.38657 3.35088 0
M  V30 3101 H 286.352 -4.05493 1.68738 0
M  V30 3102 H 286.958 -3.01653 2.9981 0
M  V30 3103 N 285.273 -1.31445 -0.869486 0
M  V30 3104 C 286.22 -1.19135 -1.97675 0
M  V30 3105 C 287.19 -0.0770266 -1.65921 0
M  V30 3106 O 288.375 -0.249972 -1.89155 0
M  V30 3107 C 285.515 -0.905149 -3.33018 0
M  V30 3108 C 284.628 -2.10285 -3.77365 0
M  V30 3109 C 283.763 -1.75339 -5.01427 0
M  V30 3110 C 282.802 -2.91515 -5.38224 0
M  V30 3111 N 281.939 -2.56762 -6.53466 0
M  V30 3112 H 286.779 -2.13853 -2.07535 0
M  V30 3113 H 284.316 -1.06379 -1.01597 0
M  V30 3114 H 286.274 -0.719765 -4.10944 0
M  V30 3115 H 284.904 0.00519624 -3.228 0
M  V30 3116 H 283.956 -2.39899 -2.95216 0
M  V30 3117 H 285.268 -2.97237 -4.00564 0
M  V30 3118 H 284.422 -1.53266 -5.87022 0
M  V30 3119 H 283.161 -0.855801 -4.80133 0
M  V30 3120 H 282.166 -3.14237 -4.51149 0
M  V30 3121 H 283.391 -3.81985 -5.61484 0
M  V30 3122 H 281.337 -1.69526 -6.33717 0
M  V30 3123 H 281.254 -3.37243 -6.76612 0
M  V30 3124 H 282.522 -2.38083 -7.42251 0
M  V30 3125 N 286.751 1.08385 -1.14413 0
M  V30 3126 C 287.661 2.18856 -0.844951 0
M  V30 3127 C 288.677 1.73121 0.174668 0
M  V30 3128 O 289.853 2.014 0.00312857 0
M  V30 3129 C 286.918 3.45155 -0.32696 0
M  V30 3130 C 285.979 4.05513 -1.40916 0
M  V30 3131 C 285.212 5.25784 -0.915793 0
M  V30 3132 O 285.435 5.69884 0.242651 0
M  V30 3133 O 284.369 5.77545 -1.69487 0
M  V30 3134 H 288.195 2.46919 -1.76818 0
M  V30 3135 H 285.78 1.17524 -0.922411 0
M  V30 3136 H 287.662 4.21377 -0.0440211 0
M  V30 3137 H 286.337 3.18668 0.568539 0
M  V30 3138 H 285.244 3.30879 -1.74556 0
M  V30 3139 H 286.577 4.3625 -2.27919 0
M  V30 3140 N 288.23 0.939286 1.26551 0
M  V30 3141 C 289.507 0.5038 1.89001 0
M  V30 3142 C 289.887 -1.01854 1.84903 0
M  V30 3143 O 289.235 -1.87773 1.30206 0
M  V30 3144 C 289.445 1.063 3.32417 0
M  V30 3145 C 290.793 1.13051 4.09273 0
M  V30 3146 O 291.817 1.01345 3.41479 0
M  V30 3147 O 290.676 1.31233 5.30509 0
M  V30 3148 H 287.77 0.163897 0.810597 0
M  V30 3149 H 290.316 1.03173 1.34735 0
M  V30 3150 H 289.088 2.10665 3.29752 0
M  V30 3151 H 288.711 0.517408 3.94219 0
M  V30 3152 N 289.708 -1.40897 0.706093 0
M  V30 3153 C 290.671 -2.29131 0.0562841 0
M  V30 3154 C 291.671 -1.44901 -0.697166 0
M  V30 3155 O 292.861 -1.65926 -0.530484 0
M  V30 3156 C 289.993 -3.27957 -0.93043 0
M  V30 3157 H 291.186 -2.88091 0.833284 0
M  V30 3158 H 288.739 -1.4906 0.470192 0
M  V30 3159 H 289.474 -2.73997 -1.73482 0
M  V30 3160 H 289.259 -3.90124 -0.393166 0
M  V30 3161 H 290.749 -3.94049 -1.38256 0
M  V30 3162 N 291.186 -0.45159 -1.50991 0
M  V30 3163 C 292.096 0.358431 -2.31846 0
M  V30 3164 C 293.112 1.01438 -1.41373 0
M  V30 3165 O 294.288 1.00663 -1.74439 0
M  V30 3166 C 291.353 1.43704 -3.15515 0
M  V30 3167 C 290.414 0.799742 -4.21785 0
M  V30 3168 C 289.647 1.82696 -5.01456 0
M  V30 3169 O 289.87 3.05105 -4.81941 0
M  V30 3170 O 288.804 1.40958 -5.85162 0
M  V30 3171 H 292.63 -0.302032 -3.02194 0
M  V30 3172 H 290.215 -0.213825 -1.47862 0
M  V30 3173 H 292.097 2.06227 -3.67489 0
M  V30 3174 H 290.772 2.08133 -2.47916 0
M  V30 3175 H 289.679 0.136084 -3.73852 0
M  V30 3176 H 291.012 0.198718 -4.91799 0
M  V30 3177 N 292.664 1.56529 -0.183458 0
M  V30 3178 C 293.574 2.22144 0.754272 0
M  V30 3179 C 294.59 1.21684 1.24374 0
M  V30 3180 O 295.766 1.54385 1.29333 0
M  V30 3181 C 292.831 2.85884 1.96141 0
M  V30 3182 C 291.892 4.01579 1.51765 0
M  V30 3183 C 291.125 4.6227 2.66725 0
M  V30 3184 O 291.348 4.21865 3.83909 0
M  V30 3185 O 290.282 5.51936 2.40104 0
M  V30 3186 H 294.108 3.02861 0.225527 0
M  V30 3187 H 291.693 1.49331 0.0453032 0
M  V30 3188 H 293.575 3.26253 2.66715 0
M  V30 3189 H 292.25 2.08154 2.47899 0
M  V30 3190 H 291.157 3.65856 0.781049 0
M  V30 3191 H 292.49 4.80938 1.04686 0
M  V30 3192 N 294.142 -0.090211 1.57342 0
M  V30 3193 C 295.089 -1.10909 2.02405 0
M  V30 3194 C 296.059 -1.39523 0.901252 0
M  V30 3195 O 297.244 -1.50903 1.1676 0
M  V30 3196 C 294.384 -2.42277 2.45755 0
M  V30 3197 C 293.497 -2.20352 3.71576 0
M  V30 3198 C 292.632 -3.45154 4.03785 0
M  V30 3199 C 291.671 -3.18512 5.22701 0
M  V30 3200 N 290.808 -4.35593 5.50639 0
M  V30 3201 H 295.648 -0.71782 2.89225 0
M  V30 3202 H 293.185 -0.342901 1.43048 0
M  V30 3203 H 295.143 -3.18951 2.68935 0
M  V30 3204 H 293.773 -2.79242 1.61938 0
M  V30 3205 H 292.825 -1.34458 3.55844 0
M  V30 3206 H 294.137 -1.96661 4.58395 0
M  V30 3207 H 293.291 -4.30233 4.27767 0
M  V30 3208 H 292.03 -3.71904 3.15498 0
M  V30 3209 H 291.035 -2.31827 4.98534 0
M  V30 3210 H 292.26 -2.93103 6.12591 0
M  V30 3211 H 290.206 -4.6241 4.6531 0
M  V30 3212 H 290.123 -4.1511 6.31838 0
M  V30 3213 H 291.391 -5.21723 5.7916 0
M  V30 3214 N 295.62 -1.53406 -0.361157 0
M  V30 3215 C 296.552 -1.76446 -1.46286 0
M  V30 3216 C 297.565 -0.645322 -1.49464 0
M  V30 3217 O 298.754 -0.921681 -1.52864 0
M  V30 3218 C 295.854 -1.83332 -2.85031 0
M  V30 3219 C 295.027 -3.13033 -3.05498 0
M  V30 3220 C 294.086 -3.11104 -4.24383 0
M  V30 3221 O 293.112 -3.84888 -4.19344 0
M  V30 3222 N 294.314 -2.32234 -5.32022 0
M  V30 3223 H 297.079 -2.71508 -1.26899 0
M  V30 3224 H 294.64 -1.52238 -0.550915 0
M  V30 3225 H 296.632 -1.79514 -3.62708 0
M  V30 3226 H 295.202 -0.955342 -2.97644 0
M  V30 3227 H 294.422 -3.30119 -2.15442 0
M  V30 3228 H 295.71 -3.9874 -3.16044 0
M  V30 3229 H 295.108 -1.71807 -5.38979 0
M  V30 3230 H 293.665 -2.3423 -6.08259 0
M  V30 3231 O 297.137 0.507134 -1.53331 0
M  V30 3232 H 297.828 1.16207 -1.5497 0
M  V30 END ATOM
M  V30 BEGIN BOND
M  V30 END BOND
M  V30 END CTAB
M  END
$$$$
