drugbank_target|P43405 Tyrosine-protein kinase SYK (DB02010; DB06834; DB07159; DB07194; DB08361; DB08846; DB12010)
 OpenBabel12092119523D

  0  0  0     0  0            999 V3000
M  V30 BEGIN CTAB
M  V30 COUNTS 10080 10206 0 0 0
M  V30 BEGIN ATOM
M  V30 1 H -0.908 1.98254 -0.117106 0
M  V30 2 N 0 1.576 0 0
M  V30 3 C 0.933 2.03868 1.02534 0
M  V30 4 C 1.911 0.928543 1.3348 0
M  V30 5 O 3.095 1.19667 1.45644 0
M  V30 6 C 0.222 2.43627 2.35294 0
M  V30 7 C -0.732 3.65373 2.2001 0
M  V30 8 S 0.101 5.13292 1.52614 0
M  V30 9 C 1.257 5.56322 2.86805 0
M  V30 10 H 1.49 2.90518 0.631377 0
M  V30 11 H -0.977 1.52953 0.210867 0
M  V30 12 H 0.981 2.67203 3.11629 0
M  V30 13 H -0.358 1.57376 2.7183 0
M  V30 14 H -1.165 3.90944 3.18086 0
M  V30 15 H -1.563 3.418 1.51819 0
M  V30 16 H 0.729 5.58782 3.83104 0
M  V30 17 H 1.672 6.56266 2.65933 0
M  V30 18 H 2.08 4.83886 2.90714 0
M  V30 19 N 1.4781 -0.272755 1.55222 0
M  V30 20 C 2.4411 -1.32041 1.87344 0
M  V30 21 C 3.4411 -1.42342 0.74803 0
M  V30 22 O 4.6311 -1.41488 1.0162 0
M  V30 23 C 1.7631 -2.70173 2.07893 0
M  V30 24 H 2.9561 -1.04789 2.80997 0
M  V30 25 H 0.5091 -0.51083 1.47717 0
M  V30 26 H 1.2441 -3.02605 1.16622 0
M  V30 27 H 1.0291 -2.64082 2.89833 0
M  V30 28 H 2.5191 -3.45869 2.34017 0
M  V30 29 N 2.9562 -1.48159 -0.537278 0
M  V30 30 C 4.1812 -1.59707 -1.32319 0
M  V30 31 C 4.6062 -0.254859 -1.86365 0
M  V30 32 O 3.9642 0.772378 -1.64024 0
M  V30 33 C 4.0122 -2.6412 -2.45505 0
M  V30 34 O 3.1162 -2.20774 -3.48328 0
M  V30 35 H 2.4572 -0.535791 -0.392204 0
M  V30 36 H 4.9872 -1.94092 -0.647268 0
M  V30 37 H 4.9972 -2.85166 -2.91795 0
M  V30 38 H 3.6722 -3.61567 -2.05528 0
M  V30 39 H 2.2492 -2.09911 -3.08207 0
M  V30 40 N 4.4343 0.785586 -1.36625 0
M  V30 41 C 5.6593 1.57963 -1.34397 0
M  V30 42 C 6.0843 1.87964 0.071526 0
M  V30 43 O 5.4423 1.48182 1.0446 0
M  V30 44 C 5.4903 2.87511 -2.17646 0
M  V30 45 O 4.5943 3.81281 -1.57158 0
M  V30 46 H 3.9353 0.479014 -0.459828 0
M  V30 47 H 6.4653 0.973411 -1.79961 0
M  V30 48 H 6.4753 3.36745 -2.30362 0
M  V30 49 H 5.1503 2.65002 -3.20541 0
M  V30 50 H 3.7273 3.39885 -1.53403 0
M  V30 51 N 5.9124 1.20967 1.01018 0
M  V30 52 C 7.1604 1.02172 1.74371 0
M  V30 53 C 7.4814 -0.446414 1.89821 0
M  V30 54 O 6.7514 -1.32234 1.44537 0
M  V30 55 H 5.3314 0.375066 0.646014 0
M  V30 56 H 7.9934 1.52187 1.21758 0
M  V30 57 H 7.0894 1.48538 2.74487 0
M  V30 58 N 7.3905 -1.2043 1.01659 0
M  V30 59 C 8.3235 -2.21924 0.531521 0
M  V30 60 C 9.3015 -1.57054 -0.421032 0
M  V30 61 O 10.4855 -1.85389 -0.341035 0
M  V30 62 C 7.6125 -3.37942 -0.226496 0
M  V30 63 C 6.6585 -4.21115 0.67561 0
M  V30 64 S 7.4915 -4.90674 2.14475 0
M  V30 65 C 8.6475 -6.10113 1.3969 0
M  V30 66 H 8.8805 -2.62725 1.3915 0
M  V30 67 H 6.4135 -1.30481 0.825479 0
M  V30 68 H 8.3715 -4.05196 -0.657738 0
M  V30 69 H 7.0325 -2.956 -1.06205 0
M  V30 70 H 6.2255 -5.03918 0.091108 0
M  V30 71 H 5.8275 -3.59115 1.04463 0
M  V30 72 H 8.1195 -6.7411 0.676897 0
M  V30 73 H 9.0625 -6.73022 2.20107 0
M  V30 74 H 9.4705 -5.57283 0.899786 0
M  V30 75 N 8.8686 -0.792821 -1.36206 0
M  V30 76 C 9.8316 -0.199459 -2.2833 0
M  V30 77 C 10.8316 0.605189 -1.48977 0
M  V30 78 O 12.0216 0.425685 -1.68919 0
M  V30 79 C 9.1536 0.723523 -3.33134 0
M  V30 80 H 10.3466 -1.01181 -2.82316 0
M  V30 81 H 7.8996 -0.562485 -1.45828 0
M  V30 82 H 8.6346 1.56008 -2.84309 0
M  V30 83 H 8.4196 0.148436 -3.91819 0
M  V30 84 H 9.9096 1.13344 -4.01924 0
M  V30 85 N 10.3467 1.47872 -0.545128 0
M  V30 86 C 11.6237 1.9554 0.0485222 0
M  V30 87 C 12.0037 1.4876 1.49779 0
M  V30 88 O 11.3517 0.720925 2.16829 0
M  V30 89 C 11.5617 3.48898 -0.084417 0
M  V30 90 C 12.9097 4.24547 0.0671239 0
M  V30 91 O 13.9337 3.56198 -0.0113649 0
M  V30 92 O 12.7927 5.45999 0.233882 0
M  V30 93 H 9.8867 0.823957 0.0708773 0
M  V30 94 H 12.4327 1.58327 -0.610798 0
M  V30 95 H 11.2047 3.75714 -1.09337 0
M  V30 96 H 10.8277 3.92845 0.613066 0
M  V30 97 N 11.8248 0.280983 1.55075 0
M  V30 98 C 13.0498 -0.340154 2.04592 0
M  V30 99 C 13.4748 -1.48246 1.15779 0
M  V30 100 O 12.8328 -1.80614 0.15761 0
M  V30 101 C 12.8808 -0.793104 3.5177 0
M  V30 102 O 11.9848 -1.89981 3.66034 0
M  V30 103 H 11.3258 -0.0694289 0.66036 0
M  V30 104 H 13.8558 0.416993 2.00306 0
M  V30 105 H 13.8658 -1.08729 3.93245 0
M  V30 106 H 12.5408 0.0426163 4.15878 0
M  V30 107 H 11.1178 -1.60771 3.36463 0
M  V30 108 N 13.3029 -1.57598 0.00835791 0
M  V30 109 C 14.2659 -2.07884 -0.965242 0
M  V30 110 C 15.2659 -0.989825 -1.26725 0
M  V30 111 O 16.4559 -1.25218 -1.21104 0
M  V30 112 C 13.5879 -2.52731 -2.28779 0
M  V30 113 H 14.7809 -2.95178 -0.530112 0
M  V30 114 H 12.3339 -1.54458 -0.239283 0
M  V30 115 H 13.0689 -1.68705 -2.76964 0
M  V30 116 H 12.8539 -3.32272 -2.08177 0
M  V30 117 H 14.3439 -2.91933 -2.98605 0
M  V30 118 N 14.781 0.264519 -1.55364 0
M  V30 119 C 15.729 1.34702 -1.89626 0
M  V30 120 C 16.723 1.50712 -0.773459 0
M  V30 121 O 17.929 1.52395 -0.957897 0
M  V30 122 H 14.304 0.450682 -0.601988 0
M  V30 123 H 16.275 1.0306 -2.80038 0
M  V30 124 C 15.024 2.6989 -2.19214 0
M  V30 125 H 14.347 2.58365 -3.05103 0
M  V30 126 H 15.787 3.44553 -2.47102 0
M  V30 127 C 14.246 3.21637 -1.00254 0
M  V30 128 O 14.776 4.00973 -0.241501 0
M  V30 129 N 12.982 2.7943 -0.797938 0
M  V30 130 H 12.529 2.15026 -1.4185 0
M  V30 131 H 12.487 3.144 -0.00363422 0
M  V30 132 N 16.2591 1.48442 0.529413 0
M  V30 133 C 17.2091 1.59407 1.63014 0
M  V30 134 C 18.1931 0.451166 1.54445 0
M  V30 135 O 19.3851 0.702635 1.62456 0
M  V30 136 C 16.5141 1.63746 3.01732 0
M  V30 137 C 15.6001 2.83518 3.15402 0
M  V30 138 N 15.9911 4.07929 2.99045 0
M  V30 139 C 14.2891 2.80862 3.46457 0
M  V30 140 C 14.9901 4.8829 3.16146 0
M  V30 141 N 13.9661 4.21117 3.43746 0
M  V30 142 H 17.7681 2.53343 1.48978 0
M  V30 143 H 15.2821 1.44821 0.734885 0
M  V30 144 H 17.2791 1.69695 3.80801 0
M  V30 145 H 15.9391 0.709264 3.16859 0
M  V30 146 H 16.9501 4.38357 2.75796 0
M  V30 147 H 13.6271 1.97301 3.67938 0
M  V30 148 H 15.0171 5.97028 3.08232 0
M  V30 149 N 17.7372 -0.778329 1.37039 0
M  V30 150 C 18.6672 -1.90546 1.34962 0
M  V30 151 C 19.6482 -1.68681 0.219274 0
M  V30 152 O 20.8332 -1.89634 0.418624 0
M  V30 153 C 17.9632 -3.27734 1.14925 0
M  V30 154 C 16.9172 -3.64147 2.24902 0
M  V30 155 C 16.2432 -4.99806 1.89996 0
M  V30 156 C 17.5432 -3.71579 3.67051 0
M  V30 157 H 19.2372 -1.92541 2.29277 0
M  V30 158 H 16.7832 -0.924948 1.10366 0
M  V30 159 H 18.7362 -4.06215 1.12104 0
M  V30 160 H 17.4602 -3.26154 0.170631 0
M  V30 161 H 16.1192 -2.8797 2.26868 0
M  V30 162 H 15.7672 -4.94759 0.906796 0
M  V30 163 H 15.4672 -5.25139 2.63634 0
M  V30 164 H 16.9912 -5.80694 1.88749 0
M  V30 165 H 18.4052 -4.40227 3.67251 0
M  V30 166 H 16.8022 -4.08405 4.39688 0
M  V30 167 H 17.8722 -2.72404 4.01154 0
M  V30 168 N 19.2153 -1.21501 -1.00376 0
M  V30 169 C 20.6263 -1.03146 -1.55621 0
M  V30 170 C 20.9773 0.408375 -1.91903 0
M  V30 171 O 20.1023 1.29177 -1.73616 0
M  V30 172 C 20.6973 -1.86612 -2.82775 0
M  V30 173 C 19.2563 -1.72586 -3.34501 0
M  V30 174 C 18.4033 -1.83747 -2.07683 0
M  V30 175 H 21.3543 -1.35505 -0.826081 0
M  V30 176 H 21.3753 -1.3771 -3.54706 0
M  V30 177 H 20.8873 -2.91399 -2.56336 0
M  V30 178 H 18.9883 -0.704877 -3.65872 0
M  V30 179 H 19.1013 -2.54623 -4.05837 0
M  V30 180 H 17.4653 -1.27069 -2.20739 0
M  V30 181 H 18.2483 -2.90044 -1.83655 0
M  V30 182 N 20.6934 1.19889 -1.02296 0
M  V30 183 C 21.9404 1.8942 -0.715972 0
M  V30 184 C 22.2684 1.79251 0.754944 0
M  V30 185 O 21.5234 1.17526 1.56481 0
M  V30 186 C 21.8224 3.39883 -1.10518 0
M  V30 187 C 21.4884 3.70254 -2.57337 0
M  V30 188 C 20.1504 3.78254 -2.97452 0
M  V30 189 C 22.5024 3.84052 -3.52354 0
M  V30 190 C 19.8304 3.97514 -4.31509 0
M  V30 191 C 22.1824 4.04824 -4.86108 0
M  V30 192 C 20.8464 4.11054 -5.25919 0
M  V30 193 H 20.1164 0.693138 -0.261993 0
M  V30 194 H 22.7634 1.42012 -1.28472 0
M  V30 195 H 21.0684 3.8915 -0.454953 0
M  V30 196 H 22.7654 3.9199 -0.845261 0
M  V30 197 H 19.3554 3.64632 -2.25258 0
M  V30 198 H 23.5394 3.77221 -3.22518 0
M  V30 199 H 18.7954 4.00574 -4.61898 0
M  V30 200 H 22.9694 4.14442 -5.59653 0
M  V30 201 H 20.5964 4.2573 -6.29808 0
M  V30 202 N 22.1715 0.800033 1.35784 0
M  V30 203 C 23.4185 0.377342 1.98953 0
M  V30 204 C 23.7465 -1.05378 1.6348 0
M  V30 205 O 23.0015 -1.74459 0.886707 0
M  V30 206 C 23.3005 0.500276 3.53881 0
M  V30 207 C 22.9665 1.89375 4.09204 0
M  V30 208 C 21.6285 2.27499 4.24025 0
M  V30 209 C 23.9805 2.8057 4.39238 0
M  V30 210 C 21.3085 3.562 4.66195 0
M  V30 211 C 23.6605 4.0871 4.82844 0
M  V30 212 C 22.3245 4.46843 4.95871 0
M  V30 213 H 21.5945 0.138079 0.728021 0
M  V30 214 H 24.2415 1.01955 1.62103 0
M  V30 215 H 22.5465 -0.225405 3.91151 0
M  V30 216 H 24.2435 0.154097 4.00704 0
M  V30 217 H 20.8335 1.58753 3.98115 0
M  V30 218 H 25.0175 2.52367 4.27346 0
M  V30 219 H 20.2735 3.85602 4.74469 0
M  V30 220 H 24.4475 4.79481 5.05046 0
M  V30 221 H 22.0745 5.46623 5.28306 0
M  V30 222 N 23.6496 -1.47581 0.552962 0
M  V30 223 C 24.8966 -2.02482 0.0273243 0
M  V30 224 C 25.2246 -1.42776 -1.32081 0
M  V30 225 O 24.4796 -0.571393 -1.87173 0
M  V30 226 C 24.7786 -3.57199 -0.119728 0
M  V30 227 C 24.4446 -4.35804 1.15697 0
M  V30 228 C 23.1066 -4.57 1.50681 0
M  V30 229 C 25.4586 -4.81167 2.00319 0
M  V30 230 C 22.7866 -5.20807 2.70142 0
M  V30 231 C 25.1386 -5.46293 3.18978 0
M  V30 232 C 23.8026 -5.65722 3.54281 0
M  V30 233 H 23.0726 -0.740933 0.00999866 0
M  V30 234 H 25.7196 -1.77302 0.72362 0
M  V30 235 H 24.0246 -3.81348 -0.89896 0
M  V30 236 H 25.7216 -3.97324 -0.541718 0
M  V30 237 H 22.3116 -4.19582 0.874561 0
M  V30 238 H 26.4956 -4.64574 1.74599 0
M  V30 239 H 21.7516 -5.34045 2.97668 0
M  V30 240 H 25.9256 -5.80407 3.84838 0
M  V30 241 H 23.5526 -6.14936 4.46942 0
M  V30 242 N 25.1277 -0.289203 -1.54924 0
M  V30 243 C 26.3757 0.322879 -1.99504 0
M  V30 244 C 26.6967 1.55313 -1.1791 0
M  V30 245 O 25.9667 1.94001 -0.272097 0
M  V30 246 H 24.5467 0.122291 -0.736922 0
M  V30 247 H 27.2087 -0.397802 -1.90797 0
M  V30 248 H 26.3047 0.603061 -3.06218 0
M  V30 249 N 26.6058 1.57591 -0.0167156 0
M  V30 250 C 27.5538 2.10604 0.987353 0
M  V30 251 C 28.5478 1.02977 1.34507 0
M  V30 252 O 29.7538 1.21425 1.32875 0
M  V30 253 H 26.1288 0.672695 0.336134 0
M  V30 254 H 28.0998 2.93925 0.514817 0
M  V30 255 C 26.8488 2.6382 2.26483 0
M  V30 256 H 26.1718 3.46278 1.99829 0
M  V30 257 H 27.6118 3.04573 2.94977 0
M  V30 258 C 26.0708 1.55992 2.9861 0
M  V30 259 O 26.6008 0.952521 3.90243 0
M  V30 260 N 24.8068 1.28335 2.60727 0
M  V30 261 H 24.3538 1.77914 1.86291 0
M  V30 262 H 24.3118 0.564115 3.09298 0
M  V30 263 N 28.0839 -0.256276 1.55502 0
M  V30 264 C 29.3329 -0.983486 1.76098 0
M  V30 265 C 29.6459 -1.86837 0.578896 0
M  V30 266 O 30.8519 -2.63163 0.667648 0
M  V30 267 C 29.3079 -1.79868 3.1173 0
M  V30 268 C 28.9159 -0.961648 4.37557 0
M  V30 269 C 30.6599 -2.51919 3.41668 0
M  V30 270 C 28.5669 -1.77219 5.64223 0
M  V30 271 H 27.4969 -0.370936 0.656447 0
M  V30 272 H 30.1479 -0.238492 1.81944 0
M  V30 273 H 28.5299 -2.58527 2.99966 0
M  V30 274 H 29.7039 -0.218048 4.60284 0
M  V30 275 H 28.0189 -0.354913 4.14885 0
M  V30 276 H 30.6159 -3.12998 4.33516 0
M  V30 277 H 30.9589 -3.23059 2.62562 0
M  V30 278 H 31.4919 -1.80278 3.54605 0
M  V30 279 H 28.2309 -1.10471 6.46124 0
M  V30 280 H 27.7509 -2.49132 5.45613 0
M  V30 281 H 29.4299 -2.34169 6.03137 0
M  V30 282 N 29.562 -1.4872 -0.521534 0
M  V30 283 C 30.79 -1.60843 -1.30142 0
M  V30 284 C 31.205 -0.271897 -1.86832 0
M  V30 285 O 30.562 0.739969 -1.66825 0
M  V30 286 C 30.613 -2.66155 -2.4463 0
M  V30 287 O 30.334 -3.94623 -1.90275 0
M  V30 288 C 31.835 -2.88795 -3.36322 0
M  V30 289 H 29.055 -0.542075 -0.395468 0
M  V30 290 H 31.599 -1.94609 -0.628285 0
M  V30 291 H 29.754 -2.35224 -3.07812 0
M  V30 292 H 30.168 -4.52468 -2.65279 0
M  V30 293 H 31.642 -3.66264 -4.12983 0
M  V30 294 H 32.119 -1.97934 -3.9207 0
M  V30 295 H 32.725 -3.21063 -2.78924 0
M  V30 296 N 31.0401 0.771051 -1.3745 0
M  V30 297 C 32.4561 1.07171 -1.18265 0
M  V30 298 C 32.6561 2.01491 -0.019287 0
M  V30 299 O 31.7121 2.44244 0.640408 0
M  V30 300 C 33.0251 1.66854 -2.50161 0
M  V30 301 C 34.5731 1.79109 -2.56689 0
M  V30 302 C 35.0481 2.42205 -3.88717 0
M  V30 303 N 36.5391 2.49655 -3.90162 0
M  V30 304 C 37.2741 2.9933 -4.8907 0
M  V30 305 N 36.7701 3.49172 -5.98374 0
M  V30 306 N 38.5631 2.9821 -4.76474 0
M  V30 307 H 30.7141 0.144796 -2.11906 0
M  V30 308 H 32.9771 0.126863 -0.939473 0
M  V30 309 H 32.6831 1.05017 -3.35655 0
M  V30 310 H 32.5571 2.6614 -2.673 0
M  V30 311 H 34.9441 2.40077 -1.71601 0
M  V30 312 H 35.0251 0.785757 -2.43433 0
M  V30 313 H 34.6691 1.81875 -4.74219 0
M  V30 314 H 34.5991 3.43345 -3.99276 0
M  V30 315 H 37.0901 2.14383 -3.11205 0
M  V30 316 H 37.4031 3.8548 -6.69795 0
M  V30 317 H 35.7481 3.47275 -6.02018 0
M  V30 318 H 38.9391 2.58572 -3.90203 0
M  V30 319 H 39.1121 3.36613 -5.53711 0
M  V30 320 N 32.5182 1.22032 0.997298 0
M  V30 321 C 33.4282 1.00271 2.12092 0
M  V30 322 C 34.4442 -0.047621 1.73935 0
M  V30 323 O 35.6202 0.144136 2.00884 0
M  V30 324 C 32.6852 0.578449 3.4184 0
M  V30 325 C 31.7462 1.70189 3.94125 0
M  V30 326 C 30.9792 1.29778 5.17681 0
M  V30 327 O 31.2022 0.174676 5.70132 0
M  V30 328 O 30.1362 2.11261 5.63607 0
M  V30 329 H 33.9622 1.94398 2.3333 0
M  V30 330 H 31.5472 1.00587 1.10465 0
M  V30 331 H 33.4292 0.351998 4.19927 0
M  V30 332 H 32.1042 -0.334019 3.21972 0
M  V30 333 H 31.0112 1.98282 3.1723 0
M  V30 334 H 32.3442 2.59206 4.18417 0
M  V30 335 N 33.9963 -1.19345 1.0293 0
M  V30 336 C 34.9063 -2.26245 0.620515 0
M  V30 337 C 35.9223 -1.70486 -0.347928 0
M  V30 338 O 37.0983 -2.00347 -0.205704 0
M  V30 339 C 34.1633 -3.46693 -0.0218957 0
M  V30 340 C 33.2243 -4.17632 0.994102 0
M  V30 341 C 32.4573 -5.32329 0.382253 0
M  V30 342 O 32.6803 -5.64552 -0.814676 0
M  V30 343 O 31.6143 -5.91664 1.10531 0
M  V30 344 H 35.4403 -2.63453 1.51083 0
M  V30 345 H 33.0253 -1.26207 0.799513 0
M  V30 346 H 34.9073 -4.19683 -0.380072 0
M  V30 347 H 33.5823 -3.11333 -0.886209 0
M  V30 348 H 32.4893 -3.4676 1.40387 0
M  V30 349 H 33.8223 -4.56964 1.8288 0
M  V30 350 N 35.4744 -0.807222 -1.35358 0
M  V30 351 C 36.4374 -0.223665 -2.28106 0
M  V30 352 C 37.4374 0.589354 -1.4961 0
M  V30 353 O 38.6274 0.407745 -1.69361 0
M  V30 354 C 35.7594 0.688149 -3.33882 0
M  V30 355 H 36.9524 -1.04169 -2.81227 0
M  V30 356 H 34.5054 -0.577921 -1.45223 0
M  V30 357 H 35.2404 1.52984 -2.85948 0
M  V30 358 H 35.0254 0.10687 -3.91954 0
M  V30 359 H 36.5154 1.09075 -4.03104 0
M  V30 360 N 36.9525 1.47285 -0.560781 0
M  V30 361 C 37.8625 2.33846 0.187954 0
M  V30 362 C 38.8785 1.48412 0.908293 0
M  V30 363 O 40.0545 1.81332 0.876388 0
M  V30 364 C 37.1195 3.25178 1.2025 0
M  V30 365 C 36.1805 4.26504 0.489208 0
M  V30 366 C 35.4135 5.13472 1.45542 0
M  V30 367 O 35.6365 5.02959 2.6905 0
M  V30 368 O 34.5705 5.93902 0.977963 0
M  V30 369 H 38.3965 2.99177 -0.522177 0
M  V30 370 H 35.9815 1.45903 -0.321364 0
M  V30 371 H 37.8635 3.81584 1.78805 0
M  V30 372 H 36.5385 2.6247 1.89449 0
M  V30 373 H 35.4455 3.73847 -0.137627 0
M  V30 374 H 36.7785 4.91935 -0.161399 0
M  V30 375 N 38.4306 0.297415 1.54768 0
M  V30 376 C 39.7076 -0.365847 1.92148 0
M  V30 377 C 40.0876 -1.71975 1.22424 0
M  V30 378 O 39.4356 -2.25666 0.358739 0
M  V30 379 C 39.6456 -0.484056 3.45627 0
M  V30 380 C 40.9936 -0.756594 4.17805 0
M  V30 381 O 42.0176 -0.568007 3.51642 0
M  V30 382 O 40.8766 -1.11863 5.34929 0
M  V30 383 H 37.9706 -0.203919 0.801465 0
M  V30 384 H 40.5166 0.34521 1.66152 0
M  V30 385 H 39.2886 0.467865 3.88493 0
M  V30 386 H 38.9116 -1.24372 3.77647 0
M  V30 387 N 39.9087 -1.5758 0.0250728 0
M  V30 388 C 41.1387 -1.95646 -0.663783 0
M  V30 389 C 41.5467 -0.899935 -1.66427 0
M  V30 390 O 40.8897 0.127191 -1.83259 0
M  V30 391 C 40.9517 -3.29835 -1.43 0
M  V30 392 C 40.6157 -4.53197 -0.588305 0
M  V30 393 C 41.6127 -5.19726 0.13469 0
M  V30 394 C 39.2977 -4.99529 -0.526897 0
M  V30 395 C 41.2917 -6.30902 0.90781 0
M  V30 396 C 38.9787 -6.10589 0.24993 0
M  V30 397 C 39.9767 -6.76134 0.965994 0
M  V30 398 O 39.6647 -7.85062 1.7301 0
M  V30 399 H 39.3967 -0.649282 -0.188174 0
M  V30 400 H 41.9507 -2.05245 0.0799006 0
M  V30 401 H 40.1807 -3.16716 -2.21873 0
M  V30 402 H 41.8697 -3.52833 -2.00658 0
M  V30 403 H 42.6357 -4.84904 0.0965562 0
M  V30 404 H 38.5147 -4.48319 -1.07381 0
M  V30 405 H 42.0587 -6.81995 1.46724 0
M  V30 406 H 37.9557 -6.44849 0.289795 0
M  V30 407 H 38.7237 -8.01708 1.64944 0
M  V30 408 N 41.3868 0.248026 -1.55636 0
M  V30 409 C 42.3168 1.31079 -1.93237 0
M  V30 410 C 43.2978 1.50264 -0.797174 0
M  V30 411 O 44.4828 1.62891 -1.05737 0
M  V30 412 C 41.6128 2.66575 -2.22609 0
M  V30 413 C 40.5668 2.62087 -3.3837 0
M  V30 414 C 39.8928 4.01369 -3.53281 0
M  V30 415 C 41.1928 2.19171 -4.7409 0
M  V30 416 H 42.8868 0.998556 -2.82257 0
M  V30 417 H 40.4328 0.47891 -1.35803 0
M  V30 418 H 42.3858 3.41057 -2.47503 0
M  V30 419 H 41.1098 2.99432 -1.30414 0
M  V30 420 H 39.7688 1.90063 -3.13483 0
M  V30 421 H 39.4168 4.31489 -2.58508 0
M  V30 422 H 39.1168 3.99254 -4.31127 0
M  V30 423 H 40.6408 4.77552 -3.80495 0
M  V30 424 H 42.0548 2.83384 -4.98363 0
M  V30 425 H 40.4518 2.2817 -5.5503 0
M  V30 426 H 41.5218 1.14336 -4.71227 0
M  V30 427 N 42.8649 1.48995 0.513639 0
M  V30 428 C 44.1109 1.58076 1.27042 0
M  V30 429 C 44.4439 0.261026 1.92438 0
M  V30 430 O 43.7189 -0.734393 1.80103 0
M  V30 431 C 44.0019 2.73091 2.34719 0
M  V30 432 C 43.8549 4.14821 1.73907 0
M  V30 433 C 45.1739 2.83796 3.36375 0
M  V30 434 H 42.2929 0.575391 0.460536 0
M  V30 435 H 44.9349 1.81232 0.570516 0
M  V30 436 H 43.0849 2.53479 2.94416 0
M  V30 437 H 44.7569 4.45917 1.18135 0
M  V30 438 H 42.9999 4.21058 1.0437 0
M  V30 439 H 43.6709 4.91147 2.51949 0
M  V30 440 H 46.1469 3.01611 2.86653 0
M  V30 441 H 45.0229 3.65971 4.09093 0
M  V30 442 H 45.2839 1.92624 3.9793 0
M  V30 443 N 44.343 -0.763751 1.37857 0
M  V30 444 C 45.275 -1.88664 1.30148 0
M  V30 445 C 46.288 -1.61365 0.215685 0
M  V30 446 O 47.477 -1.72134 0.472459 0
M  V30 447 C 44.577 -3.24075 0.991396 0
M  V30 448 C 43.75 -3.78958 2.18426 0
M  V30 449 C 42.809 -4.92862 1.8432 0
M  V30 450 O 41.835 -5.08027 2.56704 0
M  V30 451 N 43.037 -5.75071 0.792081 0
M  V30 452 H 45.802 -1.95791 2.26905 0
M  V30 453 H 43.363 -0.943226 1.31586 0
M  V30 454 H 45.355 -3.97804 0.743935 0
M  V30 455 H 43.925 -3.12399 0.112122 0
M  V30 456 H 43.145 -2.96913 2.59299 0
M  V30 457 H 44.433 -4.12357 2.98058 0
M  V30 458 H 43.831 -5.65375 0.191595 0
M  V30 459 H 42.388 -6.48991 0.60449 0
M  V30 460 N 45.8211 -1.22559 -0.990812 0
M  V30 461 C 47.0691 -1.04933 -1.72724 0
M  V30 462 C 47.3901 0.416158 -1.90508 0
M  V30 463 O 46.6601 1.29918 -1.46622 0
M  V30 464 H 45.2401 -0.385296 -0.639965 0
M  V30 465 H 47.9021 -1.54105 -1.19322 0
M  V30 466 H 46.9981 -1.52886 -2.72089 0
M  V30 467 N 47.2992 1.18797 -1.03562 0
M  V30 468 C 48.5472 1.88278 -0.734569 0
M  V30 469 C 48.8682 1.8043 0.739586 0
M  V30 470 O 48.1382 1.21925 1.53333 0
M  V30 471 H 46.7182 0.696991 -0.268725 0
M  V30 472 H 49.3802 1.44192 -1.31129 0
M  V30 473 H 48.4762 2.94443 -1.03489 0
M  V30 474 N 48.7773 0.814389 1.34928 0
M  V30 475 C 49.7103 0.175641 2.27523 0
M  V30 476 C 50.6883 -0.662953 1.48471 0
M  V30 477 O 51.8723 -0.628545 1.77712 0
M  V30 478 C 48.9993 -0.755516 3.30166 0
M  V30 479 C 48.0453 0.00445305 4.265 0
M  V30 480 S 48.8783 1.34582 5.18313 0
M  V30 481 C 50.0343 0.419315 6.24494 0
M  V30 482 H 50.2673 0.960691 2.8135 0
M  V30 483 H 47.8003 0.609846 1.41846 0
M  V30 484 H 49.7583 -1.28723 3.89796 0
M  V30 485 H 48.4193 -1.51402 2.75202 0
M  V30 486 H 47.6123 -0.703077 4.99072 0
M  V30 487 H 47.2143 0.466447 3.7108 0
M  V30 488 H 49.5063 -0.392432 6.76362 0
M  V30 489 H 50.4493 1.11446 6.99275 0
M  V30 490 H 50.8573 0.0115389 5.64499 0
M  V30 491 N 50.2554 -1.46986 0.568584 0
M  V30 492 C 51.4804 -2.07335 0.0520528 0
M  V30 493 C 51.9054 -1.41675 -1.23733 0
M  V30 494 O 51.2634 -0.495623 -1.74394 0
M  V30 495 C 51.3114 -3.60417 -0.11501 0
M  V30 496 O 50.4154 -3.95309 -1.17492 0
M  V30 497 H 49.7564 -0.661597 0.0564385 0
M  V30 498 H 52.2864 -1.88837 0.787507 0
M  V30 499 H 52.2964 -4.06698 -0.325644 0
M  V30 500 H 50.9714 -4.07601 0.826675 0
M  V30 501 H 49.5484 -3.60757 -0.943869 0
M  V30 502 N 51.7335 -0.305618 -1.54608 0
M  V30 503 C 53.0105 0.355652 -1.92339 0
M  V30 504 C 53.3905 1.71324 -1.23335 0
M  V30 505 O 52.7385 2.25473 -0.370702 0
M  V30 506 C 52.9485 0.46572 -3.45879 0
M  V30 507 C 54.2965 0.734426 -4.182 0
M  V30 508 O 55.3205 0.54935 -3.51938 0
M  V30 509 O 54.1795 1.09024 -5.35515 0
M  V30 510 H 51.2735 0.199666 -0.802535 0
M  V30 511 H 53.8195 -0.354017 -1.65966 0
M  V30 512 H 52.5915 -0.488461 -3.88239 0
M  V30 513 H 52.2145 1.22367 -3.78301 0
M  V30 514 N 53.2116 1.57565 -0.0334293 0
M  V30 515 C 54.4596 1.91598 0.642999 0
M  V30 516 C 54.7806 0.910847 1.7242 0
M  V30 517 O 54.0506 -0.0469931 1.95844 0
M  V30 518 H 52.6306 0.707228 0.240496 0
M  V30 519 H 55.2926 1.94726 -0.0822488 0
M  V30 520 H 54.3886 2.92336 1.09298 0
M  V30 521 N 54.6897 -0.239769 1.55765 0
M  V30 522 C 55.6197 -1.30052 1.9393 0
M  V30 523 C 56.6007 -1.49839 0.805132 0
M  V30 524 O 57.7857 -1.62328 1.06599 0
M  V30 525 C 54.9157 -2.65391 2.2402 0
M  V30 526 C 53.8697 -2.60289 3.39755 0
M  V30 527 C 53.1957 -3.99489 3.55405 0
M  V30 528 C 54.4957 -2.16654 4.75246 0
M  V30 529 H 56.1897 -0.983573 2.82783 0
M  V30 530 H 53.7357 -0.471701 1.36055 0
M  V30 531 H 55.6887 -3.3974 2.49308 0
M  V30 532 H 54.4127 -2.98736 1.32 0
M  V30 533 H 53.0717 -1.88398 3.14487 0
M  V30 534 H 52.7197 -4.30112 2.60793 0
M  V30 535 H 52.4197 -3.96962 4.33238 0
M  V30 536 H 53.9437 -4.75528 3.83022 0
M  V30 537 H 55.3577 -2.80737 4.99859 0
M  V30 538 H 53.7547 -2.25223 5.56232 0
M  V30 539 H 54.8247 -1.11835 4.71827 0
M  V30 540 N 56.1678 -1.49265 -0.50573 0
M  V30 541 C 57.3978 -1.61979 -1.28243 0
M  V30 542 C 57.8058 -0.288576 -1.86986 0
M  V30 543 O 57.1488 0.735408 -1.68337 0
M  V30 544 C 57.2108 -2.62632 -2.45489 0
M  V30 545 C 56.8748 -4.071 -2.07651 0
M  V30 546 C 57.8718 -4.94049 -1.61901 0
M  V30 547 C 55.5568 -4.52801 -2.17431 0
M  V30 548 C 57.5508 -6.24736 -1.26428 0
M  V30 549 C 55.2378 -5.83503 -1.8157 0
M  V30 550 C 56.2358 -6.69294 -1.36142 0
M  V30 551 O 55.9238 -7.9756 -1.00764 0
M  V30 552 H 55.6558 -0.54834 -0.395347 0
M  V30 553 H 58.2098 -1.96002 -0.614204 0
M  V30 554 H 56.4398 -2.2378 -3.15372 0
M  V30 555 H 58.1288 -2.64925 -3.07522 0
M  V30 556 H 58.8948 -4.5997 -1.53795 0
M  V30 557 H 54.7738 -3.86196 -2.51742 0
M  V30 558 H 58.3178 -6.91652 -0.908992 0
M  V30 559 H 54.2148 -6.17112 -1.89324 0
M  V30 560 H 54.9828 -8.10529 -1.13952 0
M  V30 561 N 57.6459 0.756429 -1.3826 0
M  V30 562 C 58.5759 1.88374 -1.37976 0
M  V30 563 C 59.5569 1.68311 -0.246082 0
M  V30 564 O 60.7419 1.88944 -0.44874 0
M  V30 565 C 57.8719 3.25864 -1.20125 0
M  V30 566 C 56.8259 3.60523 -2.30666 0
M  V30 567 C 56.1519 4.9672 -1.97923 0
M  V30 568 C 57.4519 3.65692 -3.72916 0
M  V30 569 H 59.1459 1.88869 -2.32312 0
M  V30 570 H 56.6919 0.907272 -1.11824 0
M  V30 571 H 58.6449 4.0438 -1.18552 0
M  V30 572 H 57.3689 3.25841 -0.222498 0
M  V30 573 H 56.0279 2.84324 -2.3142 0
M  V30 574 H 55.6759 4.93253 -0.985393 0
M  V30 575 H 55.3759 5.20878 -2.71955 0
M  V30 576 H 56.8999 5.77618 -1.97964 0
M  V30 577 H 58.3139 4.34328 -3.74208 0
M  V30 578 H 56.7109 4.01358 -4.4613 0
M  V30 579 H 57.7809 2.65987 -4.05436 0
M  V30 580 N 59.124 1.23083 0.984299 0
M  V30 581 C 60.054 1.03292 2.09411 0
M  V30 582 C 61.035 -0.048923 1.7003 0
M  V30 583 O 62.22 0.114967 1.93859 0
M  V30 584 C 59.35 0.619155 3.41736 0
M  V30 585 C 58.304 1.64791 3.95004 0
M  V30 586 C 57.63 1.0897 5.23478 0
M  V30 587 C 58.93 3.03999 4.24714 0
M  V30 588 H 60.624 1.96119 2.26225 0
M  V30 589 H 58.17 0.944344 1.08711 0
M  V30 590 H 60.123 0.467777 4.18796 0
M  V30 591 H 58.847 -0.344786 3.24775 0
M  V30 592 H 57.506 1.78721 3.20085 0
M  V30 593 H 57.154 0.11686 5.02864 0
M  V30 594 H 56.854 1.77704 5.60085 0
M  V30 595 H 58.378 0.950093 6.03163 0
M  V30 596 H 59.792 2.93393 4.92538 0
M  V30 597 H 58.189 3.69936 4.72512 0
M  V30 598 H 59.259 3.53285 3.32142 0
M  V30 599 N 60.6021 -1.18246 1.0419 0
M  V30 600 C 62.0181 -1.40269 0.761366 0
M  V30 601 C 62.2181 -1.90777 -0.648578 0
M  V30 602 O 61.2741 -2.0929 -1.41258 0
M  V30 603 C 62.5871 -2.40237 1.8085 0
M  V30 604 C 64.1351 -2.53961 1.82955 0
M  V30 605 C 64.6101 -3.57194 2.86664 0
M  V30 606 N 66.1011 -3.64702 2.85563 0
M  V30 607 C 66.8361 -4.44309 3.6246 0
M  V30 608 N 66.3321 -5.27514 4.49111 0
M  V30 609 N 68.1251 -4.39084 3.50944 0
M  V30 610 H 60.2761 -0.837882 1.95175 0
M  V30 611 H 62.5391 -0.430608 0.84456 0
M  V30 612 H 62.2451 -2.10176 2.81991 0
M  V30 613 H 62.1191 -3.39601 1.64168 0
M  V30 614 H 64.5061 -2.83338 0.824855 0
M  V30 615 H 64.5871 -1.54706 2.03715 0
M  V30 616 H 64.2311 -3.28558 3.87314 0
M  V30 617 H 64.1611 -4.5613 2.6316 0
M  V30 618 H 66.6521 -3.05289 2.22727 0
M  V30 619 H 66.9651 -5.85411 5.04493 0
M  V30 620 H 65.3101 -5.2693 4.53178 0
M  V30 621 H 68.5011 -3.7313 2.82651 0
M  V30 622 H 68.6741 -5.00883 4.11121 0
M  V30 623 N 62.0802 -0.821533 -1.34494 0
M  V30 624 C 63.0122 -0.199946 -2.28326 0
M  V30 625 C 64.0252 0.609377 -1.50965 0
M  V30 626 O 65.2142 0.439285 -1.7301 0
M  V30 627 C 62.3142 0.738431 -3.30757 0
M  V30 628 C 61.4872 -0.0277632 -4.37391 0
M  V30 629 C 60.5462 0.831332 -5.19591 0
M  V30 630 O 59.5722 0.276822 -5.68526 0
M  V30 631 N 60.7742 2.15132 -5.39165 0
M  V30 632 H 63.5392 -1.00609 -2.82308 0
M  V30 633 H 61.1002 -0.678366 -1.47003 0
M  V30 634 H 63.0922 1.31773 -3.82646 0
M  V30 635 H 61.6622 1.44533 -2.7718 0
M  V30 636 H 60.8822 -0.788359 -3.86236 0
M  V30 637 H 62.1702 -0.555251 -5.05761 0
M  V30 638 H 61.5682 2.62559 -5.01078 0
M  V30 639 H 60.1252 2.6795 -5.94177 0
M  V30 640 N 63.5583 1.46682 -0.576371 0
M  V30 641 C 64.7833 2.07304 -0.0630475 0
M  V30 642 C 65.2083 1.42329 1.2298 0
M  V30 643 O 64.5663 0.504865 1.74129 0
M  V30 644 C 64.6143 3.60472 0.095895 0
M  V30 645 O 63.7183 3.95927 1.15394 0
M  V30 646 H 63.0593 0.661288 -0.0599463 0
M  V30 647 H 65.5893 1.88417 -0.797511 0
M  V30 648 H 65.5993 4.06865 0.304071 0
M  V30 649 H 64.2743 4.07157 -0.84828 0
M  V30 650 H 62.8513 3.61252 0.924724 0
M  V30 651 N 65.0364 0.313813 1.54444 0
M  V30 652 C 66.4524 -0.0391619 1.59552 0
M  V30 653 C 66.6524 -1.51322 1.33056 0
M  V30 654 O 65.7084 -2.26782 1.11022 0
M  V30 655 C 67.0214 0.370302 2.98411 0
M  V30 656 C 68.5694 0.320139 3.11358 0
M  V30 657 C 69.0444 0.704617 4.52547 0
M  V30 658 N 70.5354 0.657645 4.58508 0
M  V30 659 C 71.2704 0.927453 5.6585 0
M  V30 660 N 70.7664 1.26389 6.81174 0
M  V30 661 N 72.5594 0.853662 5.5558 0
M  V30 662 H 64.7104 1.27433 1.69925 0
M  V30 663 H 66.9734 0.517511 0.794284 0
M  V30 664 H 66.6794 1.39694 3.22767 0
M  V30 665 H 66.5534 -0.269619 3.76235 0
M  V30 666 H 68.9404 -0.697275 2.86744 0
M  V30 667 H 69.0214 0.99486 2.35661 0
M  V30 668 H 68.6654 1.7199 4.77893 0
M  V30 669 H 68.5954 0.00768843 5.26599 0
M  V30 670 H 71.0864 0.409067 3.75679 0
M  V30 671 H 71.3994 1.4554 7.58972 0
M  V30 672 H 69.7444 1.30206 6.82694 0
M  V30 673 H 72.9354 0.590383 4.64362 0
M  V30 674 H 73.1084 1.0673 6.3915 0
M  V30 675 N 66.5145 -1.57545 0.0417849 0
M  V30 676 C 67.4625 -2.12148 -0.953723 0
M  V30 677 C 68.4565 -1.05104 -1.32852 0
M  V30 678 O 69.6625 -1.23524 -1.30927 0
M  V30 679 H 66.0375 -0.677957 -0.325389 0
M  V30 680 H 68.0085 -2.94707 -0.467991 0
M  V30 681 C 66.7575 -2.6739 -2.22257 0
M  V30 682 H 66.0805 -3.49413 -1.94295 0
M  V30 683 H 67.5205 -3.09227 -2.90094 0
M  V30 684 C 65.9795 -1.60723 -2.96091 0
M  V30 685 O 66.5095 -1.01449 -3.88679 0
M  V30 686 N 64.7155 -1.32466 -2.58652 0
M  V30 687 H 64.2625 -1.80856 -1.83437 0
M  V30 688 H 64.2205 -0.61325 -3.08361 0
M  V30 689 N 67.9926 0.231505 -1.5589 0
M  V30 690 C 69.2226 0.973092 -1.82248 0
M  V30 691 C 69.6306 1.78845 -0.617328 0
M  V30 692 O 68.9736 1.78752 0.423499 0
M  V30 693 C 69.0356 1.94732 -3.02192 0
M  V30 694 C 68.6996 1.31743 -4.37599 0
M  V30 695 C 69.6966 0.712238 -5.14998 0
M  V30 696 C 67.3816 1.33218 -4.84312 0
M  V30 697 C 69.3756 0.130195 -6.37267 0
M  V30 698 C 67.0626 0.746286 -6.06526 0
M  V30 699 C 68.0606 0.146337 -6.82843 0
M  V30 700 O 67.7486 -0.430465 -8.02747 0
M  V30 701 H 67.4806 0.29125 -0.61004 0
M  V30 702 H 70.0346 0.254915 -2.03812 0
M  V30 703 H 68.2646 2.70422 -2.76422 0
M  V30 704 H 69.9536 2.55362 -3.15508 0
M  V30 705 H 70.7196 0.69324 -4.8002 0
M  V30 706 H 66.5986 1.78854 -4.24891 0
M  V30 707 H 70.1426 -0.33871 -6.96777 0
M  V30 708 H 66.0396 0.762663 -6.40979 0
M  V30 709 H 66.8076 -0.323818 -8.17859 0
M  V30 710 N 69.4707 1.49531 0.497807 0
M  V30 711 C 70.4007 1.6935 1.60757 0
M  V30 712 C 71.3817 0.542218 1.61227 0
M  V30 713 O 72.5667 0.778417 1.77917 0
M  V30 714 C 69.6967 1.76298 2.99226 0
M  V30 715 C 68.6507 2.91248 3.13622 0
M  V30 716 C 67.9767 2.83312 4.53474 0
M  V30 717 C 69.2767 4.3214 2.93346 0
M  V30 718 H 70.9707 2.62263 1.44425 0
M  V30 719 H 68.5167 1.26208 0.693367 0
M  V30 720 H 70.4697 1.88749 3.76765 0
M  V30 721 H 69.1937 0.799871 3.16654 0
M  V30 722 H 67.8527 2.78404 2.38509 0
M  V30 723 H 67.5007 1.84902 4.67782 0
M  V30 724 H 67.2007 3.60465 4.64046 0
M  V30 725 H 68.7247 2.97775 5.33069 0
M  V30 726 H 70.1387 4.45649 3.60652 0
M  V30 727 H 68.5357 5.1054 3.15387 0
M  V30 728 H 69.6057 4.46363 1.89441 0
M  V30 729 N 70.9488 -0.749086 1.3866 0
M  V30 730 C 72.1968 -1.50535 1.34847 0
M  V30 731 C 72.5178 -1.94909 -0.0595016 0
M  V30 732 O 71.7878 -1.67973 -1.00806 0
M  V30 733 H 70.3678 -0.558395 0.49619 0
M  V30 734 H 73.0298 -0.890165 1.73384 0
M  V30 735 H 72.1258 -2.39413 2.00219 0
M  V30 736 N 72.4269 -1.23603 -0.977757 0
M  V30 737 C 73.6749 -1.06759 -1.71601 0
M  V30 738 C 73.9959 0.395929 -1.90938 0
M  V30 739 O 73.2659 1.28356 -1.47992 0
M  V30 740 H 71.8459 -0.392062 -0.635843 0
M  V30 741 H 74.5079 -1.55362 -1.1768 0
M  V30 742 H 73.6039 -1.55763 -2.70452 0
M  V30 743 N 73.905 1.17692 -1.04816 0
M  V30 744 C 75.152 1.87859 -0.75599 0
M  V30 745 C 75.48 1.80812 0.716752 0
M  V30 746 O 74.735 1.20819 1.53952 0
M  V30 747 C 75.034 3.37462 -1.17703 0
M  V30 748 C 74.7 3.64713 -2.65133 0
M  V30 749 C 73.362 3.71859 -3.05408 0
M  V30 750 C 75.714 3.76492 -3.60421 0
M  V30 751 C 73.042 3.88271 -4.39843 0
M  V30 752 C 75.394 3.94421 -4.94585 0
M  V30 753 C 74.058 3.99806 -5.3452 0
M  V30 754 H 73.328 0.687425 -0.276636 0
M  V30 755 H 75.975 1.39255 -1.31455 0
M  V30 756 H 74.28 3.88097 -0.537395 0
M  V30 757 H 75.977 3.90109 -0.928218 0
M  V30 758 H 72.567 3.59772 -2.32942 0
M  V30 759 H 76.751 3.70295 -3.30447 0
M  V30 760 H 72.007 3.90687 -4.70291 0
M  V30 761 H 76.181 4.02477 -5.68318 0
M  V30 762 H 73.808 4.12276 -6.38696 0
M  V30 763 N 75.3831 0.828654 1.34056 0
M  V30 764 C 76.3461 0.259927 2.27721 0
M  V30 765 C 77.3461 -0.565478 1.50529 0
M  V30 766 O 78.5361 -0.38075 1.69988 0
M  V30 767 C 75.6681 -0.634944 3.34935 0
M  V30 768 H 76.8611 1.0863 2.79534 0
M  V30 769 H 74.4141 0.600951 1.44285 0
M  V30 770 H 75.1491 -1.48416 2.88346 0
M  V30 771 H 74.9341 -0.0444999 3.92075 0
M  V30 772 H 76.4241 -1.02648 4.04788 0
M  V30 773 N 76.8612 -1.46375 0.584142 0
M  V30 774 C 77.7912 -2.33103 -0.136037 0
M  V30 775 C 78.7722 -1.45431 -0.882255 0
M  V30 776 O 79.9572 -1.74246 -0.857434 0
M  V30 777 C 77.0872 -3.27731 -1.14933 0
M  V30 778 C 76.0412 -4.24855 -0.517862 0
M  V30 779 C 75.3672 -5.09001 -1.63773 0
M  V30 780 C 76.6672 -5.19439 0.545886 0
M  V30 781 H 78.3612 -2.93568 0.588086 0
M  V30 782 H 75.9072 -1.41166 0.284259 0
M  V30 783 H 77.8602 -3.87261 -1.66153 0
M  V30 784 H 76.5842 -2.65377 -1.90375 0
M  V30 785 H 75.2432 -3.6659 -0.0267361 0
M  V30 786 H 74.8912 -4.43031 -2.38185 0
M  V30 787 H 74.5912 -5.74777 -1.22085 0
M  V30 788 H 76.1152 -5.71396 -2.15266 0
M  V30 789 H 77.5292 -5.73177 0.118704 0
M  V30 790 H 75.9262 -5.93566 0.88317 0
M  V30 791 H 76.9962 -4.63285 1.43162 0
M  V30 792 N 78.3393 -0.321999 -1.54275 0
M  V30 793 C 79.5643 0.285791 -2.05422 0
M  V30 794 C 79.9893 1.45124 -1.19669 0
M  V30 795 O 79.3473 1.80132 -0.205441 0
M  V30 796 C 79.3953 0.69956 -3.53749 0
M  V30 797 O 78.4993 1.8021 -3.70942 0
M  V30 798 H 77.8403 0.0518962 -0.661969 0
M  V30 799 H 80.3703 -0.469954 -1.9913 0
M  V30 800 H 80.3803 0.982649 -3.9599 0
M  V30 801 H 79.0553 -0.152864 -4.15619 0
M  V30 802 H 77.6323 1.51794 -3.40607 0
M  V30 803 N 79.8174 1.5752 -0.0501392 0
M  V30 804 C 81.0634 1.92936 0.624798 0
M  V30 805 C 81.3964 0.928685 1.70555 0
M  V30 806 O 80.6714 -0.0454779 1.94447 0
M  V30 807 C 80.9544 3.38737 1.22185 0
M  V30 808 C 80.8074 4.49552 0.149218 0
M  V30 809 C 82.1264 3.84913 2.13378 0
M  V30 810 H 79.2454 0.701604 0.225657 0
M  V30 811 H 81.8874 1.89671 -0.111693 0
M  V30 812 H 80.0374 3.4165 1.84953 0
M  V30 813 H 81.7094 4.58768 -0.482648 0
M  V30 814 H 79.9524 4.30638 -0.522841 0
M  V30 815 H 80.6234 5.48653 0.606966 0
M  V30 816 H 83.0994 3.8387 1.60572 0
M  V30 817 H 81.9754 4.87584 2.52097 0
M  V30 818 H 82.2364 3.21611 3.03346 0
M  V30 819 N 81.2955 -0.223234 1.56011 0
M  V30 820 C 82.2585 -1.26014 1.9145 0
M  V30 821 C 83.2585 -1.3989 0.792937 0
M  V30 822 O 84.4485 -1.38184 1.0607 0
M  V30 823 C 81.5805 -2.63422 2.16383 0
M  V30 824 H 82.7735 -0.95796 2.84189 0
M  V30 825 H 80.3265 -0.463576 1.49267 0
M  V30 826 H 81.0615 -2.98741 1.2619 0
M  V30 827 H 80.8465 -2.54728 2.98088 0
M  V30 828 H 82.3365 -3.38249 2.44903 0
M  V30 829 N 82.7736 -1.49793 -0.48987 0
M  V30 830 C 83.7236 -1.63673 -1.5873 0
M  V30 831 C 84.7076 -0.491956 -1.53195 0
M  V30 832 O 85.8996 -0.745461 -1.60536 0
M  V30 833 C 83.0286 -1.71689 -2.97284 0
M  V30 834 C 82.1146 -2.91781 -3.07774 0
M  V30 835 N 82.5056 -4.15714 -2.88124 0
M  V30 836 C 80.8036 -2.89949 -3.38889 0
M  V30 837 C 81.5046 -4.965 -3.03088 0
M  V30 838 N 80.4806 -4.30083 -3.3246 0
M  V30 839 H 84.2826 -2.57204 -1.42208 0
M  V30 840 H 81.7966 -1.46719 -0.69623 0
M  V30 841 H 83.7936 -1.79732 -3.76168 0
M  V30 842 H 82.4536 -0.793024 -3.14867 0
M  V30 843 H 83.4646 -4.45515 -2.64077 0
M  V30 844 H 80.1416 -2.06987 -3.62578 0
M  V30 845 H 81.5316 -6.04991 -2.92294 0
M  V30 846 N 84.2517 0.741722 -1.39055 0
M  V30 847 C 85.4997 1.49818 -1.35643 0
M  V30 848 C 85.8207 1.94938 0.0491642 0
M  V30 849 O 85.0907 1.68505 0.999141 0
M  V30 850 H 83.6707 0.555755 -0.499144 0
M  V30 851 H 86.3327 0.880957 -1.73854 0
M  V30 852 H 85.4287 2.38348 -2.01486 0
M  V30 853 N 85.7298 1.2412 0.971189 0
M  V30 854 C 87.1458 1.00584 1.23916 0
M  V30 855 C 87.3458 -0.287481 1.99439 0
M  V30 856 O 86.4018 -1.00454 2.31658 0
M  V30 857 C 87.7148 2.21864 2.0297 0
M  V30 858 C 89.2628 2.26452 2.16076 0
M  V30 859 C 89.7378 3.47343 2.98524 0
M  V30 860 N 91.2288 3.47639 3.06107 0
M  V30 861 C 91.9638 4.37837 3.70251 0
M  V30 862 N 91.4598 5.38286 4.36142 0
M  V30 863 N 93.2528 4.25558 3.67228 0
M  V30 864 H 85.4038 2.07236 0.465499 0
M  V30 865 H 87.6668 0.909236 0.268315 0
M  V30 866 H 87.3728 3.15771 1.54861 0
M  V30 867 H 87.2468 2.23698 3.03709 0
M  V30 868 H 89.6338 1.33078 2.6339 0
M  V30 869 H 89.7148 2.28645 1.14696 0
M  V30 870 H 89.3588 4.41029 2.51905 0
M  V30 871 H 89.2888 3.42393 4.00093 0
M  V30 872 H 91.7798 2.74966 2.59233 0
M  V30 873 H 92.0928 6.03352 4.82894 0
M  V30 874 H 90.4378 5.42176 4.34822 0
M  V30 875 H 93.6288 3.46322 3.14927 0
M  V30 876 H 93.8018 4.96054 4.16935 0
M  V30 877 N 87.2079 -1.17134 1.05439 0
M  V30 878 C 88.1549 -2.21235 0.657539 0
M  V30 879 C 89.1249 -1.62551 -0.341543 0
M  V30 880 O 90.3099 -1.89379 -0.232393 0
M  V30 881 C 87.4499 -3.45076 0.0410575 0
M  V30 882 C 86.5629 -4.18042 1.08927 0
M  V30 883 C 85.6979 -5.29376 0.439848 0
M  V30 884 C 84.7369 -5.94132 1.4722 0
M  V30 885 N 83.8739 -6.96975 0.846756 0
M  V30 886 H 88.7139 -2.54534 1.54972 0
M  V30 887 H 86.2509 -1.25028 0.775006 0
M  V30 888 H 88.2089 -4.15862 -0.33383 0
M  V30 889 H 86.8389 -3.12353 -0.814568 0
M  V30 890 H 85.8909 -3.45945 1.58196 0
M  V30 891 H 87.2029 -4.62306 1.87282 0
M  V30 892 H 86.3569 -6.06699 0.0115125 0
M  V30 893 H 85.0959 -4.86251 -0.375656 0
M  V30 894 H 84.1009 -5.15538 1.91052 0
M  V30 895 H 85.3259 -6.39337 2.28965 0
M  V30 896 H 83.2719 -6.5598 0.0518075 0
M  V30 897 H 83.1889 -7.39565 1.5678 0
M  V30 898 H 84.4569 -7.78239 0.443277 0
M  V30 899 N 88.686 -0.835752 -1.33615 0
M  V30 900 C 89.649 -0.272 -2.2758 0
M  V30 901 C 90.649 0.557487 -1.50827 0
M  V30 902 O 91.839 0.37173 -1.70188 0
M  V30 903 C 88.971 0.617173 -3.35267 0
M  V30 904 H 90.164 -1.10111 -2.78954 0
M  V30 905 H 87.717 -0.608594 -1.43965 0
M  V30 906 H 88.452 1.46884 -2.89129 0
M  V30 907 H 88.237 0.0237066 -3.92093 0
M  V30 908 H 89.727 1.005 -4.05326 0
M  V30 909 N 90.1641 1.46063 -0.591896 0
M  V30 910 C 91.1141 2.27458 0.157172 0
M  V30 911 C 92.0981 1.3641 0.853301 0
M  V30 912 O 93.2901 1.60517 0.74588 0
M  V30 913 C 90.4191 3.22956 1.16423 0
M  V30 914 C 89.5051 4.2149 0.469742 0
M  V30 915 N 89.8961 5.03519 -0.479839 0
M  V30 916 C 88.1941 4.40161 0.719319 0
M  V30 917 C 88.8951 5.74904 -0.886591 0
M  V30 918 N 87.8711 5.43097 -0.233731 0
M  V30 919 H 91.6731 2.88272 -0.572392 0
M  V30 920 H 89.1871 1.57024 -0.414375 0
M  V30 921 H 91.1841 3.79986 1.71513 0
M  V30 922 H 89.8441 2.63701 1.89451 0
M  V30 923 H 90.8551 5.1078 -0.855823 0
M  V30 924 H 87.5321 3.92046 1.43548 0
M  V30 925 H 88.9221 6.50844 -1.66888 0
M  V30 926 N 91.6422 0.330177 1.54103 0
M  V30 927 C 92.5922 -0.548456 2.21305 0
M  V30 928 C 93.5762 -1.07651 1.19583 0
M  V30 929 O 94.7682 -1.01243 1.45186 0
M  V30 930 C 91.8972 -1.70559 2.97934 0
M  V30 931 C 90.9832 -1.19212 4.07 0
M  V30 932 N 91.3742 -0.398831 5.04225 0
M  V30 933 C 89.6722 -1.47024 4.2107 0
M  V30 934 C 90.3732 -0.121761 5.81573 0
M  V30 935 N 89.3492 -0.709722 5.38947 0
M  V30 936 H 93.1512 0.0648483 2.93828 0
M  V30 937 H 90.6652 0.136363 1.61826 0
M  V30 938 H 92.6622 -2.34688 3.44568 0
M  V30 939 H 91.3222 -2.32231 2.26934 0
M  V30 940 H 92.3332 -0.0410869 5.17884 0
M  V30 941 H 89.0102 -2.09232 3.61287 0
M  V30 942 H 90.4002 0.517298 6.69906 0
M  V30 943 N 93.1203 -1.57491 0.0584922 0
M  V30 944 C 94.3503 -1.9701 -0.622134 0
M  V30 945 C 94.7583 -0.935034 -1.6448 0
M  V30 946 O 94.1013 0.0882904 -1.83488 0
M  V30 947 C 94.1633 -3.32794 -1.35972 0
M  V30 948 C 93.8273 -4.54343 -0.492043 0
M  V30 949 C 94.8243 -5.19323 0.244901 0
M  V30 950 C 92.5093 -5.00534 -0.420821 0
M  V30 951 C 94.5033 -6.28835 1.04143 0
M  V30 952 C 92.1903 -6.09921 0.379389 0
M  V30 953 C 93.1883 -6.73933 1.10919 0
M  V30 954 O 92.8763 -7.81216 1.89623 0
M  V30 955 H 92.6083 -0.653127 -0.174359 0
M  V30 956 H 95.1623 -2.05029 0.123418 0
M  V30 957 H 93.3923 -3.21351 -2.15105 0
M  V30 958 H 95.0813 -3.5701 -1.93129 0
M  V30 959 H 95.8473 -4.8459 0.19939 0
M  V30 960 H 91.7263 -4.50496 -0.978474 0
M  V30 961 H 95.2703 -6.7873 1.61157 0
M  V30 962 H 91.1673 -6.44089 0.426512 0
M  V30 963 H 91.9353 -7.98029 1.81913 0
M  V30 964 N 94.5984 0.214957 -1.56127 0
M  V30 965 C 95.8264 0.955092 -1.83536 0
M  V30 966 C 96.2414 1.77677 -0.638472 0
M  V30 967 O 95.5984 1.78219 0.392968 0
M  V30 968 C 95.6494 1.86734 -3.09536 0
M  V30 969 O 95.3704 1.07887 -4.24608 0
M  V30 970 C 96.8714 2.72082 -3.4998 0
M  V30 971 H 94.0914 0.279611 -0.609966 0
M  V30 972 H 96.6354 0.228197 -2.03223 0
M  V30 973 H 94.7904 2.5481 -2.91806 0
M  V30 974 H 95.2044 1.69872 -4.9623 0
M  V30 975 H 96.6784 3.31782 -4.41163 0
M  V30 976 H 97.1554 3.44806 -2.7204 0
M  V30 977 H 97.7614 2.09409 -3.70173 0
M  V30 978 N 96.0765 1.50051 0.48192 0
M  V30 979 C 97.3255 1.59741 1.23149 0
M  V30 980 C 97.6385 0.298163 1.93314 0
M  V30 981 O 98.8445 0.273835 2.70116 0
M  V30 982 C 97.3005 2.81926 2.23708 0
M  V30 983 C 96.9085 4.18685 1.59396 0
M  V30 984 C 98.6525 3.00956 2.99375 0
M  V30 985 C 96.5595 5.3207 2.58178 0
M  V30 986 H 95.4895 0.594838 0.46334 0
M  V30 987 H 98.1405 1.76467 0.503169 0
M  V30 988 H 96.5225 2.58736 2.99786 0
M  V30 989 H 97.6965 4.52088 0.891811 0
M  V30 990 H 96.0115 4.05171 0.960503 0
M  V30 991 H 98.6085 3.82836 3.73283 0
M  V30 992 H 98.9515 2.12258 3.58123 0
M  V30 993 H 99.4845 3.24277 2.30411 0
M  V30 994 H 96.2235 6.22888 2.04184 0
M  V30 995 H 95.7435 5.03098 3.26577 0
M  V30 996 H 97.4225 5.62196 3.20225 0
M  V30 997 N 97.5546 -0.734337 1.39446 0
M  V30 998 C 98.4646 -1.87879 1.40495 0
M  V30 999 C 99.4806 -1.714 0.299672 0
M  V30 1000 O 100.657 -1.93991 0.541249 0
M  V30 1001 C 97.7216 -3.23477 1.24754 0
M  V30 1002 C 96.7826 -3.52344 2.45259 0
M  V30 1003 C 96.0156 -4.81473 2.30259 0
M  V30 1004 O 96.2386 -5.55237 1.30643 0
M  V30 1005 O 95.1726 -5.10254 3.19256 0
M  V30 1006 H 98.9986 -1.89949 2.36966 0
M  V30 1007 H 96.5836 -0.882243 1.20569 0
M  V30 1008 H 98.4656 -4.04509 1.18111 0
M  V30 1009 H 97.1406 -3.22176 0.313781 0
M  V30 1010 H 96.0476 -2.71396 2.57478 0
M  V30 1011 H 97.3806 -3.58426 3.37331 0
M  V30 1012 N 99.0327 -1.24633 -0.964593 0
M  V30 1013 C 100.449 -1.01239 -1.2338 0
M  V30 1014 C 100.649 0.2769 -1.99588 0
M  V30 1015 O 99.7047 0.992241 -2.32187 0
M  V30 1016 C 101.018 -2.22937 -2.01791 0
M  V30 1017 C 102.566 -2.27594 -2.14872 0
M  V30 1018 C 103.041 -3.48921 -2.96678 0
M  V30 1019 N 104.532 -3.49257 -3.04259 0
M  V30 1020 C 105.267 -4.39795 -3.67924 0
M  V30 1021 N 104.763 -5.40591 -4.33281 0
M  V30 1022 N 106.556 -4.275 -3.64966 0
M  V30 1023 H 98.7067 -2.0748 -0.454502 0
M  V30 1024 H 100.97 -0.910647 -0.26349 0
M  V30 1025 H 100.676 -3.16587 -1.53184 0
M  V30 1026 H 100.55 -2.25306 -3.02518 0
M  V30 1027 H 102.937 -1.34473 -2.6268 0
M  V30 1028 H 103.018 -2.2925 -1.13482 0
M  V30 1029 H 102.662 -4.42359 -2.49562 0
M  V30 1030 H 102.592 -3.4451 -3.98272 0
M  V30 1031 H 105.083 -2.76337 -2.57771 0
M  V30 1032 H 105.396 -6.05904 -4.79687 0
M  V30 1033 H 103.741 -5.44475 -4.3194 0
M  V30 1034 H 106.932 -3.47987 -3.13086 0
M  V30 1035 H 107.105 -4.98258 -4.14298 0
M  V30 1036 N 100.511 1.16574 -1.06058 0
M  V30 1037 C 101.421 2.2452 -0.680282 0
M  V30 1038 C 102.437 1.71348 0.302604 0
M  V30 1039 O 103.613 2.00822 0.152513 0
M  V30 1040 C 100.678 3.46629 -0.0700315 0
M  V30 1041 C 99.7388 4.14849 -1.10448 0
M  V30 1042 C 98.9718 5.31129 -0.523256 0
M  V30 1043 O 99.1948 5.66514 0.664709 0
M  V30 1044 O 98.1288 5.88526 -1.26179 0
M  V30 1045 H 101.955 2.59355 -1.58015 0
M  V30 1046 H 99.5398 1.24043 -0.832694 0
M  V30 1047 H 101.422 4.20543 0.268667 0
M  V30 1048 H 100.097 3.13573 0.803353 0
M  V30 1049 H 99.0038 3.42916 -1.49532 0
M  V30 1050 H 100.337 4.51954 -1.94931 0
M  V30 1051 N 101.989 0.842826 1.3317 0
M  V30 1052 C 102.919 0.294028 2.31641 0
M  V30 1053 C 103.9 -0.600401 1.59151 0
M  V30 1054 O 105.085 -0.523124 1.87022 0
M  V30 1055 C 102.215 -0.528416 3.43257 0
M  V30 1056 C 101.169 0.27056 4.27144 0
M  V30 1057 C 100.495 -0.675881 5.30411 0
M  V30 1058 C 101.795 1.48981 5.00602 0
M  V30 1059 H 103.489 1.11681 2.77791 0
M  V30 1060 H 101.035 0.538478 1.33553 0
M  V30 1061 H 102.988 -0.922674 4.11175 0
M  V30 1062 H 101.712 -1.38445 2.95805 0
M  V30 1063 H 100.371 0.646427 3.60856 0
M  V30 1064 H 100.019 -1.52842 4.79216 0
M  V30 1065 H 99.7189 -0.145374 5.8742 0
M  V30 1066 H 101.243 -1.06757 6.01195 0
M  V30 1067 H 102.657 1.16849 5.61266 0
M  V30 1068 H 101.054 1.95739 5.6728 0
M  V30 1069 H 102.124 2.25746 4.29147 0
M  V30 1070 N 103.467 -1.45747 0.599634 0
M  V30 1071 C 104.415 -2.322 -0.136426 0
M  V30 1072 C 105.409 -1.45497 -0.867583 0
M  V30 1073 O 106.615 -1.62027 -0.78405 0
M  V30 1074 H 102.99 -0.749368 -0.0628588 0
M  V30 1075 H 104.961 -2.92072 0.611281 0
M  V30 1076 C 103.71 -3.28974 -1.12567 0
M  V30 1077 H 103.033 -3.9568 -0.572484 0
M  V30 1078 H 104.473 -3.92212 -1.61077 0
M  V30 1079 C 102.932 -2.55561 -2.19523 0
M  V30 1080 O 103.462 -2.33111 -3.27143 0
M  V30 1081 N 101.668 -2.15832 -1.94589 0
M  V30 1082 H 101.215 -2.3429 -1.07078 0
M  V30 1083 H 101.173 -1.67034 -2.66359 0
M  V30 1084 N 104.945 -0.338344 -1.53925 0
M  V30 1085 C 106.193 0.259245 -2.0043 0
M  V30 1086 C 106.514 1.51484 -1.22791 0
M  V30 1087 O 105.784 1.93037 -0.33368 0
M  V30 1088 H 104.364 0.0987845 -0.740439 0
M  V30 1089 H 107.026 -0.458302 -1.89435 0
M  V30 1090 H 106.122 0.505334 -3.07982 0
M  V30 1091 N 106.423 1.57458 -0.0668435 0
M  V30 1092 C 107.651 1.97624 0.612565 0
M  V30 1093 C 108.066 0.94502 1.63447 0
M  V30 1094 O 107.423 -0.0689276 1.8237 0
M  V30 1095 C 107.474 3.37869 1.28555 0
M  V30 1096 O 107.195 4.3704 0.304557 0
M  V30 1097 C 108.696 3.92882 2.05325 0
M  V30 1098 H 105.916 0.650045 0.166381 0
M  V30 1099 H 108.46 2.04035 -0.137782 0
M  V30 1100 H 106.615 3.3256 1.98702 0
M  V30 1101 H 107.029 5.18565 0.786779 0
M  V30 1102 H 108.503 4.93247 2.47812 0
M  V30 1103 H 108.98 3.29156 2.9078 0
M  V30 1104 H 109.586 4.01577 1.40056 0
M  V30 1105 N 107.901 -0.206675 1.56239 0
M  V30 1106 C 109.131 -0.943975 1.83773 0
M  V30 1107 C 109.539 -1.77841 0.645703 0
M  V30 1108 O 108.882 -1.79403 -0.395008 0
M  V30 1109 C 108.944 -1.899 3.05251 0
M  V30 1110 C 108.608 -1.24764 4.39639 0
M  V30 1111 C 109.605 -0.630216 5.16066 0
M  V30 1112 C 107.29 -1.25496 4.8637 0
M  V30 1113 C 109.284 -0.0287946 6.37393 0
M  V30 1114 C 106.971 -0.649698 6.07637 0
M  V30 1115 C 107.969 -0.0376845 6.8299 0
M  V30 1116 O 107.657 0.55812 8.0196 0
M  V30 1117 H 107.389 -0.281508 0.614597 0
M  V30 1118 H 109.943 -0.222458 2.04192 0
M  V30 1119 H 108.173 -2.6599 2.80689 0
M  V30 1120 H 109.862 -2.5031 3.1953 0
M  V30 1121 H 110.628 -0.616785 4.81062 0
M  V30 1122 H 106.507 -1.72072 4.27683 0
M  V30 1123 H 110.051 0.449518 6.9615 0
M  V30 1124 H 105.948 -0.660592 6.42111 0
M  V30 1125 H 106.716 0.453891 8.17241 0
M  V30 1126 N 109.379 -1.50304 -0.473955 0
M  V30 1127 C 110.342 -1.6841 -1.55469 0
M  V30 1128 C 111.342 -0.554905 -1.50922 0
M  V30 1129 O 112.532 -0.821882 -1.53593 0
M  V30 1130 C 109.664 -1.70667 -2.95102 0
M  V30 1131 H 110.857 -2.64828 -1.40733 0
M  V30 1132 H 108.41 -1.39742 -0.700132 0
M  V30 1133 H 109.145 -0.75932 -3.15285 0
M  V30 1134 H 108.93 -2.52698 -2.9981 0
M  V30 1135 H 110.42 -1.8664 -3.73571 0
M  V30 1136 N 110.857 0.726932 -1.39834 0
M  V30 1137 C 112.106 1.48214 -1.36805 0
M  V30 1138 C 112.419 1.95576 0.0305291 0
M  V30 1139 O 113.625 2.7088 0.183417 0
M  V30 1140 C 112.081 2.67854 -2.40379 0
M  V30 1141 C 111.689 2.27408 -3.85992 0
M  V30 1142 C 113.433 3.45641 -2.46439 0
M  V30 1143 C 111.34 3.43819 -4.81189 0
M  V30 1144 H 110.27 0.556606 -0.508631 0
M  V30 1145 H 112.921 0.792216 -1.65518 0
M  V30 1146 H 111.303 3.3896 -2.04749 0
M  V30 1147 H 112.477 1.63795 -4.30706 0
M  V30 1148 H 110.792 1.62692 -3.83302 0
M  V30 1149 H 113.389 4.32244 -3.14753 0
M  V30 1150 H 113.732 3.88669 -1.49139 0
M  V30 1151 H 114.265 2.8157 -2.81004 0
M  V30 1152 H 111.004 3.05834 -5.79781 0
M  V30 1153 H 110.524 4.06385 -4.41148 0
M  V30 1154 H 112.203 4.10043 -5.00474 0
M  V30 1155 N 112.336 1.25143 0.95797 0
M  V30 1156 C 113.299 1.05321 2.03569 0
M  V30 1157 C 114.299 0.007152 1.60798 0
M  V30 1158 O 115.489 0.24903 1.72411 0
M  V30 1159 C 112.621 0.598394 3.35607 0
M  V30 1160 H 113.814 2.00986 2.22586 0
M  V30 1161 H 111.367 1.07502 1.13459 0
M  V30 1162 H 112.102 -0.361014 3.22284 0
M  V30 1163 H 111.887 1.35351 3.67998 0
M  V30 1164 H 113.377 0.48104 4.1482 0
M  V30 1165 N 113.814 -1.1601 1.06675 0
M  V30 1166 C 115.062 -1.86264 0.784229 0
M  V30 1167 C 115.383 -1.82328 -0.691488 0
M  V30 1168 O 114.653 -1.25947 -1.50047 0
M  V30 1169 H 113.233 -0.689621 0.28711 0
M  V30 1170 H 115.895 -1.40664 1.34906 0
M  V30 1171 H 114.991 -2.91595 1.11259 0
M  V30 1172 N 115.292 -0.849877 -1.32721 0
M  V30 1173 C 116.54 -0.450032 -1.97026 0
M  V30 1174 C 116.861 0.996604 -1.67609 0
M  V30 1175 O 116.131 1.6958 -0.980786 0
M  V30 1176 H 114.711 -0.163426 -0.728904 0
M  V30 1177 H 117.373 -1.08526 -1.6189 0
M  V30 1178 H 116.469 -0.591146 -3.0645 0
M  V30 1179 N 116.77 1.45427 -0.607355 0
M  V30 1180 C 118.186 1.57283 -0.270985 0
M  V30 1181 C 118.386 1.59875 1.22647 0
M  V30 1182 O 117.442 1.52893 2.00948 0
M  V30 1183 C 118.755 2.85566 -0.941952 0
M  V30 1184 C 120.303 2.9924 -0.917849 0
M  V30 1185 C 120.778 4.30293 -1.56882 0
M  V30 1186 N 122.269 4.37051 -1.5343 0
M  V30 1187 C 123.004 5.37123 -2.00715 0
M  V30 1188 N 122.5 6.43734 -2.56084 0
M  V30 1189 N 124.293 5.28479 -1.91484 0
M  V30 1190 H 116.444 1.41988 -1.57966 0
M  V30 1191 H 118.707 0.67885 -0.661715 0
M  V30 1192 H 118.413 2.8955 -1.99633 0
M  V30 1193 H 118.287 3.74322 -0.465096 0
M  V30 1194 H 120.674 2.94822 0.127984 0
M  V30 1195 H 120.755 2.11895 -1.43297 0
M  V30 1196 H 120.399 4.35469 -2.61398 0
M  V30 1197 H 120.329 5.16454 -1.02873 0
M  V30 1198 H 122.82 3.60615 -1.12982 0
M  V30 1199 H 123.133 7.16341 -2.89958 0
M  V30 1200 H 121.478 6.44485 -2.60122 0
M  V30 1201 H 124.669 4.44098 -1.47967 0
M  V30 1202 H 124.842 6.0632 -2.28648 0
M  V30 1203 N 118.248 0.346503 1.53744 0
M  V30 1204 C 119.476 -0.25041 2.05379 0
M  V30 1205 C 119.891 -1.43979 1.22129 0
M  V30 1206 O 119.248 -1.80677 0.257321 0
M  V30 1207 C 119.299 -0.662575 3.55376 0
M  V30 1208 O 119.02 0.479515 4.35468 0
M  V30 1209 C 120.521 -1.31989 4.23195 0
M  V30 1210 H 117.741 -0.0478198 0.669294 0
M  V30 1211 H 120.285 0.499346 1.9831 0
M  V30 1212 H 118.44 -1.36227 3.62658 0
M  V30 1213 H 118.854 0.15037 5.24284 0
M  V30 1214 H 120.328 -1.55902 5.29527 0
M  V30 1215 H 120.805 -2.27436 3.75725 0
M  V30 1216 H 121.411 -0.662154 4.20114 0
M  V30 1217 N 119.726 -1.57421 0.075193 0
M  V30 1218 C 120.676 -2.09441 -0.901025 0
M  V30 1219 C 121.66 -1.00486 -1.25663 0
M  V30 1220 O 122.852 -1.2679 -1.23504 0
M  V30 1221 C 119.981 -2.66233 -2.16737 0
M  V30 1222 C 119.067 -3.82198 -1.83808 0
M  V30 1223 N 119.458 -4.91028 -1.21345 0
M  V30 1224 C 117.756 -3.91558 -2.13538 0
M  V30 1225 C 118.457 -5.71852 -1.06585 0
M  V30 1226 N 117.433 -5.20233 -1.57667 0
M  V30 1227 H 121.235 -2.90972 -0.413815 0
M  V30 1228 H 118.749 -1.6189 -0.128601 0
M  V30 1229 H 120.746 -3.01819 -2.87595 0
M  V30 1230 H 119.406 -1.8615 -2.66042 0
M  V30 1231 H 120.417 -5.10323 -0.88268 0
M  V30 1232 H 117.094 -3.22454 -2.65197 0
M  V30 1233 H 118.484 -6.69401 -0.578933 0
M  V30 1234 N 121.204 0.198386 -1.56346 0
M  V30 1235 C 122.167 1.22952 -1.93431 0
M  V30 1236 C 123.167 1.38611 -0.815092 0
M  V30 1237 O 124.357 1.36479 -1.08255 0
M  V30 1238 C 121.489 2.59946 -2.20546 0
M  V30 1239 H 122.682 0.912626 -2.85677 0
M  V30 1240 H 120.235 0.43977 -1.49986 0
M  V30 1241 H 120.97 2.96696 -1.30927 0
M  V30 1242 H 120.755 2.49953 -3.02102 0
M  V30 1243 H 122.245 3.3431 -2.50253 0
M  V30 1244 N 122.682 1.50554 0.465978 0
M  V30 1245 C 123.907 1.65838 1.24549 0
M  V30 1246 C 124.332 0.343486 1.84937 0
M  V30 1247 O 123.69 -0.69324 1.67523 0
M  V30 1248 C 123.738 2.75533 2.32624 0
M  V30 1249 O 122.842 2.37142 3.37398 0
M  V30 1250 H 122.183 0.553893 0.366194 0
M  V30 1251 H 124.713 1.96959 0.553927 0
M  V30 1252 H 124.723 2.98763 2.77857 0
M  V30 1253 H 123.398 3.70962 1.88043 0
M  V30 1254 H 121.975 2.24377 2.97841 0
M  V30 1255 N 124.16 -0.719506 1.40217 0
M  V30 1256 C 125.571 -1.29848 1.34151 0
M  V30 1257 C 125.922 -1.96196 0.0131349 0
M  V30 1258 O 125.047 -1.973 -0.88892 0
M  V30 1259 C 125.642 -2.36118 2.42968 0
M  V30 1260 C 124.201 -2.8965 2.40374 0
M  V30 1261 C 123.348 -1.63393 2.24049 0
M  V30 1262 H 126.299 -0.51591 1.5008 0
M  V30 1263 H 126.32 -3.16871 2.10649 0
M  V30 1264 H 125.832 -1.878 3.39636 0
M  V30 1265 H 123.933 -3.42208 1.47392 0
M  V30 1266 H 124.046 -3.4171 3.35814 0
M  V30 1267 H 122.41 -1.88312 1.71495 0
M  V30 1268 H 123.193 -1.17104 3.2271 0
M  V30 1269 N 125.638 -1.25649 -0.95132 0
M  V30 1270 C 126.601 -1.06399 -2.03007 0
M  V30 1271 C 127.601 -0.0156794 -1.60792 0
M  V30 1272 O 128.791 -0.25817 -1.72276 0
M  V30 1273 C 125.923 -0.616184 -3.35285 0
M  V30 1274 H 127.116 -2.02164 -2.21517 0
M  V30 1275 H 124.669 -1.08103 -1.12887 0
M  V30 1276 H 125.404 0.343917 -3.22471 0
M  V30 1277 H 125.189 -1.37301 -3.67275 0
M  V30 1278 H 126.679 -0.503032 -4.14559 0
M  V30 1279 N 127.117 1.15442 -1.07289 0
M  V30 1280 C 128.394 1.82306 -0.708792 0
M  V30 1281 C 128.774 1.94991 0.808807 0
M  V30 1282 O 128.122 1.50085 1.72298 0
M  V30 1283 C 128.332 3.18695 -1.42247 0
M  V30 1284 C 129.68 3.94341 -1.57417 0
M  V30 1285 O 130.704 3.28247 -1.38319 0
M  V30 1286 O 129.563 5.12839 -1.88834 0
M  V30 1287 H 126.657 0.787628 -0.252132 0
M  V30 1288 H 129.203 1.22559 -1.17377 0
M  V30 1289 H 127.975 3.04557 -2.45684 0
M  V30 1290 H 127.598 3.86128 -0.948223 0
M  V30 1291 N 128.595 0.856903 1.32268 0
M  V30 1292 C 129.525 0.31858 2.31316 0
M  V30 1293 C 130.506 -0.583487 1.59779 0
M  V30 1294 O 131.691 -0.503259 1.87566 0
M  V30 1295 C 128.821 -0.491979 3.43798 0
M  V30 1296 C 127.775 0.315849 4.26833 0
M  V30 1297 C 127.101 -0.619586 5.31098 0
M  V30 1298 C 128.401 1.54282 4.98993 0
M  V30 1299 H 130.095 1.14621 2.76591 0
M  V30 1300 H 127.641 0.552613 1.32974 0
M  V30 1301 H 129.594 -0.879012 4.1213 0
M  V30 1302 H 128.318 -1.35299 2.97257 0
M  V30 1303 H 126.977 0.684664 3.6015 0
M  V30 1304 H 126.625 -1.47751 4.8081 0
M  V30 1305 H 126.325 -0.0830621 5.87541 0
M  V30 1306 H 127.849 -1.00375 6.02293 0
M  V30 1307 H 129.263 1.22796 5.59995 0
M  V30 1308 H 127.66 2.01745 5.65172 0
M  V30 1309 H 128.73 2.30285 4.26728 0
M  V30 1310 N 130.073 -1.45103 0.615059 0
M  V30 1311 C 131.313 -2.04069 0.116282 0
M  V30 1312 C 131.677 -1.4721 -1.2326 0
M  V30 1313 O 132.878 -1.97577 -1.82255 0
M  V30 1314 C 131.149 -3.57298 0.085482 0
M  V30 1315 S 132.708 -4.37394 -0.351015 0
M  V30 1316 H 129.526 -0.709006 0.0532183 0
M  V30 1317 H 132.128 -1.77709 0.81484 0
M  V30 1318 H 130.832 -3.9619 1.0706 0
M  V30 1319 H 130.363 -3.88244 -0.634835 0
M  V30 1320 H 132.378 -4.69734 -1.59889 0
M  V30 1321 N 131.551 -0.354651 -1.53558 0
M  V30 1322 C 132.501 0.513179 -2.2215 0
M  V30 1323 C 133.485 1.05734 -1.21281 0
M  V30 1324 O 134.677 0.989202 -1.46778 0
M  V30 1325 C 131.806 1.65798 -3.00609 0
M  V30 1326 C 130.892 1.12722 -4.08845 0
M  V30 1327 N 131.283 0.318563 -5.04796 0
M  V30 1328 C 129.581 1.40307 -4.23356 0
M  V30 1329 C 130.282 0.0292224 -5.81693 0
M  V30 1330 N 129.258 0.623891 -5.40008 0
M  V30 1331 H 133.06 -0.111586 -2.93688 0
M  V30 1332 H 130.574 -0.162091 -1.61589 0
M  V30 1333 H 132.571 2.29176 -3.48258 0
M  V30 1334 H 131.231 2.28591 -2.306 0
M  V30 1335 H 132.242 -0.0413091 -5.17884 0
M  V30 1336 H 128.919 2.03458 -3.6457 0
M  V30 1337 H 130.309 -0.623808 -6.68998 0
M  V30 1338 N 133.029 1.57378 -0.0835403 0
M  V30 1339 C 134.259 1.97975 0.590713 0
M  V30 1340 C 134.667 0.961083 1.62972 0
M  V30 1341 O 134.01 -0.0590879 1.83605 0
M  V30 1342 C 134.072 3.34915 1.3066 0
M  V30 1343 C 133.736 4.55069 0.419698 0
M  V30 1344 C 134.733 5.18868 -0.32749 0
M  V30 1345 C 132.418 5.0114 0.341137 0
M  V30 1346 C 134.412 6.27098 -1.14134 0
M  V30 1347 C 132.099 6.0924 -0.476374 0
M  V30 1348 C 133.097 6.72083 -1.21627 0
M  V30 1349 O 132.785 7.781 -2.02028 0
M  V30 1350 H 132.517 0.655818 0.163947 0
M  V30 1351 H 135.071 2.04807 -0.156021 0
M  V30 1352 H 133.301 3.24733 2.09966 0
M  V30 1353 H 134.99 3.60037 1.87424 0
M  V30 1354 H 135.756 4.84211 -0.276459 0
M  V30 1355 H 131.635 4.51996 0.90668 0
M  V30 1356 H 135.179 6.7608 -1.71935 0
M  V30 1357 H 131.076 6.43329 -0.528927 0
M  V30 1358 H 131.844 7.95034 -1.94586 0
M  V30 1359 N 134.507 -0.190092 1.56449 0
M  V30 1360 C 135.457 -1.23977 1.91347 0
M  V30 1361 C 136.441 -1.40747 0.779693 0
M  V30 1362 O 137.633 -1.43033 1.04262 0
M  V30 1363 C 134.762 -2.58347 2.26079 0
M  V30 1364 C 133.848 -2.4535 3.45925 0
M  V30 1365 N 134.239 -2.02039 4.63696 0
M  V30 1366 C 132.537 -2.76229 3.50162 0
M  V30 1367 C 133.238 -2.01053 5.4585 0
M  V30 1368 N 132.214 -2.42747 4.8639 0
M  V30 1369 H 136.016 -0.896318 2.79899 0
M  V30 1370 H 133.53 -0.398496 1.57435 0
M  V30 1371 H 135.527 -3.34173 2.49267 0
M  V30 1372 H 134.187 -2.93512 1.38856 0
M  V30 1373 H 135.198 -1.7267 4.88268 0
M  V30 1374 H 131.875 -3.15556 2.73369 0
M  V30 1375 H 133.265 -1.69426 6.50188 0
M  V30 1376 N 135.985 -1.50799 -0.457987 0
M  V30 1377 C 137.21 -1.66496 -1.23668 0
M  V30 1378 C 137.635 -0.353288 -1.84752 0
M  V30 1379 O 136.993 0.684346 -1.67888 0
M  V30 1380 C 137.041 -2.76763 -2.3116 0
M  V30 1381 O 136.145 -2.38928 -3.36136 0
M  V30 1382 H 135.486 -0.555828 -0.363252 0
M  V30 1383 H 138.016 -1.9725 -0.543474 0
M  V30 1384 H 138.026 -3.00232 -2.76269 0
M  V30 1385 H 136.701 -3.71954 -1.86073 0
M  V30 1386 H 135.278 -2.25953 -2.96647 0
M  V30 1387 N 137.463 0.71206 -1.40597 0
M  V30 1388 C 138.395 1.83704 -1.37061 0
M  V30 1389 C 139.408 1.60453 -0.275426 0
M  V30 1390 O 140.597 1.70262 -0.53602 0
M  V30 1391 C 137.697 3.20172 -1.11099 0
M  V30 1392 C 136.87 3.7059 -2.3234 0
M  V30 1393 C 135.929 4.85681 -2.02485 0
M  V30 1394 O 134.955 4.9815 -2.75382 0
M  V30 1395 N 136.157 5.71735 -1.00497 0
M  V30 1396 H 138.922 1.87235 -2.34016 0
M  V30 1397 H 136.483 0.893739 -1.34996 0
M  V30 1398 H 138.475 3.94768 -0.891064 0
M  V30 1399 H 137.045 3.11767 -0.227989 0
M  V30 1400 H 136.265 2.87085 -2.7014 0
M  V30 1401 H 137.553 4.01011 -3.13157 0
M  V30 1402 H 136.951 5.64275 -0.401298 0
M  V30 1403 H 135.508 6.463 -0.844942 0
M  V30 1404 N 138.941 1.26152 0.944643 0
M  V30 1405 C 139.851 1.09176 2.07648 0
M  V30 1406 C 140.867 0.0261935 1.7398 0
M  V30 1407 O 142.043 0.229208 2.00091 0
M  V30 1408 C 139.108 0.722915 3.39079 0
M  V30 1409 C 138.169 1.86752 3.86552 0
M  V30 1410 C 137.402 1.51617 5.11711 0
M  V30 1411 O 137.625 0.416331 5.68879 0
M  V30 1412 O 136.559 2.34975 5.54139 0
M  V30 1413 H 140.385 2.0412 2.24875 0
M  V30 1414 H 137.97 1.05182 1.061 0
M  V30 1415 H 139.852 0.529787 4.18056 0
M  V30 1416 H 138.527 -0.197159 3.23099 0
M  V30 1417 H 137.434 2.11558 3.08535 0
M  V30 1418 H 138.767 2.76719 4.07047 0
M  V30 1419 N 140.419 -1.14872 1.07899 0
M  V30 1420 C 141.644 -1.90202 0.826926 0
M  V30 1421 C 142.069 -1.77774 -0.614664 0
M  V30 1422 O 141.427 -1.11431 -1.43013 0
M  V30 1423 C 141.475 -3.38352 1.24702 0
M  V30 1424 O 140.579 -4.10497 0.39575 0
M  V30 1425 H 139.92 -0.591968 0.300782 0
M  V30 1426 H 142.45 -1.45437 1.43907 0
M  V30 1427 H 142.46 -3.89156 1.22563 0
M  V30 1428 H 141.135 -3.46715 2.29698 0
M  V30 1429 H 139.712 -3.69796 0.480117 0
M  V30 1430 N 141.898 -0.863906 -1.31812 0
M  V30 1431 C 143.175 -0.39275 -1.91616 0
M  V30 1432 C 143.555 1.12461 -1.7865 0
M  V30 1433 O 142.903 1.95045 -1.19037 0
M  V30 1434 C 143.113 -0.867385 -3.38049 0
M  V30 1435 C 144.461 -0.889966 -4.15168 0
M  V30 1436 O 145.485 -0.812635 -3.46806 0
M  V30 1437 O 144.344 -1.00079 -5.37258 0
M  V30 1438 H 141.438 -0.116358 -0.818773 0
M  V30 1439 H 143.984 -0.951418 -1.40521 0
M  V30 1440 H 142.756 -1.91081 -3.41473 0
M  V30 1441 H 142.379 -0.286687 -3.96565 0
M  V30 1442 N 143.376 1.44774 -0.622745 0
M  V30 1443 C 144.624 2.01721 -0.123655 0
M  V30 1444 C 144.945 1.49172 1.25589 0
M  V30 1445 O 144.215 0.691974 1.83272 0
M  V30 1446 H 142.795 0.745777 -0.0427225 0
M  V30 1447 H 145.457 1.77382 -0.807559 0
M  V30 1448 H 144.553 3.11984 -0.0849534 0
M  V30 1449 N 144.854 0.36279 1.53368 0
M  V30 1450 C 145.784 -0.476976 2.28576 0
M  V30 1451 C 146.765 -1.08631 1.30894 0
M  V30 1452 O 147.95 -1.10409 1.59761 0
M  V30 1453 C 145.08 -1.61828 3.07293 0
M  V30 1454 C 144.034 -1.13633 4.1264 0
M  V30 1455 C 143.36 -2.36766 4.79423 0
M  V30 1456 C 144.66 -0.223061 5.21823 0
M  V30 1457 H 146.354 0.150474 2.99022 0
M  V30 1458 H 143.9 0.0738103 1.43811 0
M  V30 1459 H 145.853 -2.21237 3.58653 0
M  V30 1460 H 144.577 -2.27292 2.34533 0
M  V30 1461 H 143.236 -0.564945 3.62221 0
M  V30 1462 H 142.884 -3.0068 4.03238 0
M  V30 1463 H 142.584 -2.05192 5.50609 0
M  V30 1464 H 144.108 -2.96865 5.33576 0
M  V30 1465 H 145.522 -0.724545 5.68703 0
M  V30 1466 H 143.919 0.001678 6.001 0
M  V30 1467 H 144.989 0.735553 4.79289 0
M  V30 1468 N 146.332 -1.57332 0.0918853 0
M  V30 1469 C 147.578 -1.94524 -0.573425 0
M  V30 1470 C 147.911 -0.973578 -1.68033 0
M  V30 1471 O 147.186 -0.00609226 -1.94499 0
M  V30 1472 C 147.469 -3.41858 -1.13161 0
M  V30 1473 C 147.322 -4.4979 -0.0299747 0
M  V30 1474 C 148.641 -3.90435 -2.03098 0
M  V30 1475 H 145.76 -0.70734 -0.206975 0
M  V30 1476 H 148.402 -1.89309 0.161942 0
M  V30 1477 H 146.552 -3.46433 -1.7583 0
M  V30 1478 H 148.224 -4.57327 0.604112 0
M  V30 1479 H 146.467 -4.291 0.636833 0
M  V30 1480 H 147.138 -5.50069 -0.461287 0
M  V30 1481 H 149.614 -3.87992 -1.50338 0
M  V30 1482 H 148.49 -4.94097 -2.39081 0
M  V30 1483 H 148.751 -3.29541 -2.94712 0
M  V30 1484 N 147.81 0.181792 -1.56548 0
M  V30 1485 C 149.05 0.906711 -1.83189 0
M  V30 1486 C 149.414 1.79882 -0.671312 0
M  V30 1487 O 150.615 2.56054 -0.81792 0
M  V30 1488 C 148.886 1.69023 -3.14906 0
M  V30 1489 S 150.445 2.46535 -3.62996 0
M  V30 1490 H 147.263 0.303877 -0.642791 0
M  V30 1491 H 149.865 0.169107 -1.94767 0
M  V30 1492 H 148.569 1.02571 -3.97376 0
M  V30 1493 H 148.1 2.46941 -3.06241 0
M  V30 1494 H 150.115 3.71014 -3.29489 0
M  V30 1495 N 149.288 1.51039 0.449983 0
M  V30 1496 C 150.218 1.74379 1.55288 0
M  V30 1497 C 151.199 0.593236 1.5942 0
M  V30 1498 O 152.384 0.834625 1.7535 0
M  V30 1499 C 149.514 1.85728 2.93466 0
M  V30 1500 C 148.468 3.01078 3.04197 0
M  V30 1501 C 147.794 2.97595 4.44231 0
M  V30 1502 C 149.094 4.41254 2.7945 0
M  V30 1503 H 150.788 2.66725 1.36008 0
M  V30 1504 H 148.334 1.2835 0.652864 0
M  V30 1505 H 150.287 2.0064 3.70569 0
M  V30 1506 H 149.011 0.900207 3.13949 0
M  V30 1507 H 147.67 2.85851 2.29531 0
M  V30 1508 H 147.318 1.99691 4.61663 0
M  V30 1509 H 147.018 3.75046 4.52343 0
M  V30 1510 H 148.542 3.14583 5.23326 0
M  V30 1511 H 149.956 4.56897 3.46292 0
M  V30 1512 H 148.353 5.20315 2.98985 0
M  V30 1513 H 149.423 4.52164 1.75144 0
M  V30 1514 N 150.766 -0.704594 1.40972 0
M  V30 1515 C 151.696 -1.83124 1.44872 0
M  V30 1516 C 152.677 -1.67281 0.30838 0
M  V30 1517 O 153.862 -1.87149 0.518556 0
M  V30 1518 C 150.992 -3.21181 1.32136 0
M  V30 1519 C 149.946 -3.51714 2.43888 0
M  V30 1520 C 149.272 -4.89032 2.16222 0
M  V30 1521 C 150.572 -3.516 3.86232 0
M  V30 1522 H 152.266 -1.80117 2.39161 0
M  V30 1523 H 149.812 -0.865145 1.15114 0
M  V30 1524 H 151.765 -3.99702 1.33479 0
M  V30 1525 H 150.489 -3.24791 0.343279 0
M  V30 1526 H 149.148 -2.75539 2.41813 0
M  V30 1527 H 148.796 -4.89256 1.16778 0
M  V30 1528 H 148.496 -5.10426 2.911 0
M  V30 1529 H 150.02 -5.69873 2.19265 0
M  V30 1530 H 151.434 -4.2014 3.9007 0
M  V30 1531 H 149.831 -3.84523 4.60719 0
M  V30 1532 H 150.901 -2.50757 4.15029 0
M  V30 1533 N 152.244 -1.26651 -0.937939 0
M  V30 1534 C 153.191 -1.0849 -2.03712 0
M  V30 1535 C 154.161 0.011033 -1.66096 0
M  V30 1536 O 155.346 -0.149353 -1.90215 0
M  V30 1537 C 152.486 -0.72735 -3.37348 0
M  V30 1538 C 151.599 -1.89986 -3.87981 0
M  V30 1539 C 150.734 -1.48513 -5.10017 0
M  V30 1540 C 149.773 -2.62575 -5.5292 0
M  V30 1541 N 148.91 -2.21762 -6.66158 0
M  V30 1542 H 153.75 -2.02551 -2.18579 0
M  V30 1543 H 151.287 -1.00844 -1.07093 0
M  V30 1544 H 153.245 -0.50092 -4.14182 0
M  V30 1545 H 151.875 0.176298 -3.22318 0
M  V30 1546 H 150.927 -2.23913 -3.07518 0
M  V30 1547 H 152.239 -2.75586 -4.15757 0
M  V30 1548 H 151.393 -1.21934 -5.94321 0
M  V30 1549 H 150.132 -0.60009 -4.83994 0
M  V30 1550 H 149.137 -2.8988 -4.67172 0
M  V30 1551 H 150.362 -3.51685 -5.80943 0
M  V30 1552 H 148.308 -1.35696 -6.41812 0
M  V30 1553 H 148.225 -3.00903 -6.93537 0
M  V30 1554 H 149.493 -1.98403 -7.53828 0
M  V30 1555 N 153.722 1.14298 -1.08507 0
M  V30 1556 C 154.669 2.19414 -0.715965 0
M  V30 1557 C 155.639 1.63399 0.298326 0
M  V30 1558 O 156.824 1.89929 0.182101 0
M  V30 1559 C 153.964 3.44845 -0.132534 0
M  V30 1560 C 153.077 4.15007 -1.19973 0
M  V30 1561 C 152.212 5.28024 -0.580048 0
M  V30 1562 C 151.251 5.9002 -1.62921 0
M  V30 1563 N 150.388 6.94485 -1.03125 0
M  V30 1564 H 155.228 2.50336 -1.61666 0
M  V30 1565 H 152.765 1.2293 -0.807882 0
M  V30 1566 H 154.723 4.16601 0.223454 0
M  V30 1567 H 153.353 3.14403 0.731467 0
M  V30 1568 H 152.405 3.41629 -1.67313 0
M  V30 1569 H 153.717 4.57178 -1.99473 0
M  V30 1570 H 152.871 6.06455 -0.172364 0
M  V30 1571 H 151.61 4.87076 0.246603 0
M  V30 1572 H 150.615 5.10291 -2.04654 0
M  V30 1573 H 151.84 6.33042 -2.45835 0
M  V30 1574 H 149.786 6.55612 -0.225711 0
M  V30 1575 H 149.703 7.35148 -1.76334 0
M  V30 1576 H 150.971 7.7679 -0.649458 0
M  V30 1577 N 155.201 0.870884 1.31352 0
M  V30 1578 C 156.612 0.534714 1.78879 0
M  V30 1579 C 156.963 -0.948423 1.71754 0
M  V30 1580 O 156.088 -1.74055 1.28584 0
M  V30 1581 C 156.683 0.963839 3.24801 0
M  V30 1582 C 155.242 0.679311 3.70219 0
M  V30 1583 C 154.389 1.15465 2.52117 0
M  V30 1584 H 157.34 1.05651 1.18421 0
M  V30 1585 H 157.361 0.286892 3.79417 0
M  V30 1586 H 156.873 2.04332 3.29955 0
M  V30 1587 H 154.974 -0.388769 3.70566 0
M  V30 1588 H 155.087 1.25698 4.62317 0
M  V30 1589 H 153.451 0.574383 2.48139 0
M  V30 1590 H 154.234 2.24157 2.60016 0
M  V30 1591 N 156.679 -1.44442 0.630414 0
M  V30 1592 C 157.926 -2.02052 0.134617 0
M  V30 1593 C 158.254 -1.49576 -1.24327 0
M  V30 1594 O 157.509 -0.669806 -1.83881 0
M  V30 1595 C 157.808 -3.57332 0.0697835 0
M  V30 1596 C 157.474 -4.29058 1.38635 0
M  V30 1597 C 156.136 -4.4837 1.74694 0
M  V30 1598 C 158.488 -4.69872 2.25543 0
M  V30 1599 C 155.816 -5.05756 2.97369 0
M  V30 1600 C 158.168 -5.28616 3.47487 0
M  V30 1601 C 156.832 -5.46147 3.8377 0
M  V30 1602 H 156.102 -0.739361 0.0492598 0
M  V30 1603 H 158.749 -1.73217 0.816586 0
M  V30 1604 H 157.054 -3.85577 -0.695553 0
M  V30 1605 H 158.751 -3.99637 -0.330344 0
M  V30 1606 H 155.341 -4.14357 1.09574 0
M  V30 1607 H 159.525 -4.54666 1.98979 0
M  V30 1608 H 154.781 -5.17515 3.25558 0
M  V30 1609 H 158.955 -5.59192 4.15063 0
M  V30 1610 H 156.582 -5.9038 4.7891 0
M  V30 1611 N 158.157 -0.370918 -1.53173 0
M  V30 1612 C 159.105 0.488101 -2.27421 0
M  V30 1613 C 160.099 1.07884 -1.30604 0
M  V30 1614 O 161.305 1.02143 -1.48212 0
M  V30 1615 H 157.68 0.176134 -0.731082 0
M  V30 1616 H 159.651 -0.159815 -2.97972 0
M  V30 1617 C 158.4 1.61306 -3.08019 0
M  V30 1618 H 157.723 1.1678 -3.82364 0
M  V30 1619 H 159.163 2.18872 -3.63141 0
M  V30 1620 C 157.622 2.55848 -2.19188 0
M  V30 1621 O 158.152 3.58799 -1.80626 0
M  V30 1622 N 156.358 2.2516 -1.83715 0
M  V30 1623 H 155.905 1.41476 -2.15273 0
M  V30 1624 H 155.863 2.8867 -1.24567 0
M  V30 1625 N 159.635 1.57281 -0.100228 0
M  V30 1626 C 161.051 1.57527 0.256416 0
M  V30 1627 C 161.251 1.11173 1.68056 0
M  V30 1628 O 160.307 0.79053 2.39806 0
M  V30 1629 C 161.62 3.00673 0.0401747 0
M  V30 1630 C 163.168 3.12815 0.107528 0
M  V30 1631 C 163.643 4.57929 -0.0807834 0
M  V30 1632 N 165.134 4.63193 -0.0261207 0
M  V30 1633 C 165.869 5.73212 -0.146999 0
M  V30 1634 N 165.365 6.92047 -0.322999 0
M  V30 1635 N 167.158 5.62031 -0.0879044 0
M  V30 1636 H 159.309 1.85718 -1.03065 0
M  V30 1637 H 161.572 0.857446 -0.404339 0
M  V30 1638 H 161.278 3.38804 -0.943649 0
M  V30 1639 H 161.152 3.69042 0.780262 0
M  V30 1640 H 163.539 2.74554 1.08186 0
M  V30 1641 H 163.62 2.47028 -0.664134 0
M  V30 1642 H 163.264 4.96886 -1.05201 0
M  V30 1643 H 163.194 5.21783 0.710635 0
M  V30 1644 H 165.685 3.77748 0.107161 0
M  V30 1645 H 165.998 7.7173 -0.406608 0
M  V30 1646 H 164.343 6.94074 -0.358733 0
M  V30 1647 H 167.534 4.68075 0.048498 0
M  V30 1648 H 167.707 6.47734 -0.185557 0
M  V30 1649 N 161.113 -0.173488 1.56642 0
M  V30 1650 C 162.524 -0.736155 1.71574 0
M  V30 1651 C 162.875 -1.82888 0.710389 0
M  V30 1652 O 162 -2.16017 -0.1287 0
M  V30 1653 C 162.595 -1.34211 3.11083 0
M  V30 1654 C 161.154 -1.85162 3.27707 0
M  V30 1655 C 160.301 -0.729765 2.67525 0
M  V30 1656 H 163.252 0.0518786 1.58615 0
M  V30 1657 H 163.273 -2.21178 3.09613 0
M  V30 1658 H 162.785 -0.546579 3.84232 0
M  V30 1659 H 160.886 -2.67366 2.59512 0
M  V30 1660 H 160.999 -1.99855 4.35425 0
M  V30 1661 H 159.363 -1.14965 2.27278 0
M  V30 1662 H 160.146 0.0538806 3.43258 0
M  V30 1663 N 162.591 -1.51276 -0.441967 0
M  V30 1664 C 163.523 -1.68444 -1.55433 0
M  V30 1665 C 164.536 -0.565187 -1.52674 0
M  V30 1666 O 165.725 -0.839356 -1.57534 0
M  V30 1667 C 162.825 -1.67966 -2.94348 0
M  V30 1668 C 161.998 -2.964 -3.21661 0
M  V30 1669 C 161.057 -2.88171 -4.40277 0
M  V30 1670 O 160.083 -3.62119 -4.39157 0
M  V30 1671 N 161.285 -2.03706 -5.43584 0
M  V30 1672 H 164.05 -2.644 -1.41112 0
M  V30 1673 H 161.611 -1.49104 -0.630838 0
M  V30 1674 H 163.603 -1.60035 -3.71713 0
M  V30 1675 H 162.173 -0.796225 -3.0229 0
M  V30 1676 H 161.393 -3.18234 -2.32638 0
M  V30 1677 H 162.681 -3.81427 -3.36736 0
M  V30 1678 H 162.079 -1.42995 -5.47329 0
M  V30 1679 H 160.636 -2.01658 -6.1982 0
M  V30 1680 N 164.069 0.697108 -1.41344 0
M  V30 1681 C 165.317 1.45426 -1.40341 0
M  V30 1682 C 165.638 1.94996 -0.0128787 0
M  V30 1683 O 164.908 1.71599 0.945027 0
M  V30 1684 H 163.488 0.539594 -0.516573 0
M  V30 1685 H 166.15 0.825201 -1.76569 0
M  V30 1686 H 165.246 2.31817 -2.08967 0
M  V30 1687 N 165.547 1.27147 0.931209 0
M  V30 1688 C 166.793 1.13446 1.68101 0
M  V30 1689 C 167.126 -0.319628 1.91552 0
M  V30 1690 O 166.401 -1.23407 1.50336 0
M  V30 1691 C 166.684 1.91482 3.0497 0
M  V30 1692 C 166.537 3.44855 2.88782 0
M  V30 1693 C 167.856 1.71651 4.05246 0
M  V30 1694 H 164.975 0.413498 0.610072 0
M  V30 1695 H 167.617 1.56261 1.08086 0
M  V30 1696 H 165.767 1.55095 3.56199 0
M  V30 1697 H 167.439 3.9105 2.44698 0
M  V30 1698 H 165.682 3.71373 2.24198 0
M  V30 1699 H 166.353 3.94694 3.85902 0
M  V30 1700 H 168.829 2.0337 3.63015 0
M  V30 1701 H 167.705 2.28651 4.99009 0
M  V30 1702 H 167.966 0.663555 4.37092 0
M  V30 1703 N 167.025 -1.13721 1.09112 0
M  V30 1704 C 167.957 -2.1871 0.685467 0
M  V30 1705 C 168.97 -1.60527 -0.271068 0
M  V30 1706 O 170.159 -1.78407 -0.0576148 0
M  V30 1707 C 167.259 -3.38898 -0.0111255 0
M  V30 1708 C 166.432 -4.26597 0.966131 0
M  V30 1709 C 165.491 -5.25324 0.303539 0
M  V30 1710 O 164.517 -5.61213 0.950177 0
M  V30 1711 N 165.719 -5.72779 -0.943651 0
M  V30 1712 H 168.484 -2.54126 1.58871 0
M  V30 1713 H 166.045 -1.29012 0.978143 0
M  V30 1714 H 168.037 -4.02014 -0.465517 0
M  V30 1715 H 166.607 -3.01747 -0.816565 0
M  V30 1716 H 165.827 -3.60306 1.59917 0
M  V30 1717 H 167.115 -4.82048 1.6281 0
M  V30 1718 H 166.513 -5.45762 -1.48862 0
M  V30 1719 H 165.07 -6.37847 -1.34142 0
M  V30 1720 N 168.503 -0.877838 -1.30888 0
M  V30 1721 C 169.914 -0.544193 -1.78593 0
M  V30 1722 C 170.265 0.939301 -1.72254 0
M  V30 1723 O 169.39 1.7337 -1.29505 0
M  V30 1724 C 169.985 -0.98105 -3.24285 0
M  V30 1725 C 168.544 -0.698935 -3.69854 0
M  V30 1726 C 167.691 -1.168 -2.51502 0
M  V30 1727 H 170.642 -1.06278 -1.17859 0
M  V30 1728 H 170.663 -0.307009 -3.79259 0
M  V30 1729 H 170.175 -2.06079 -3.28866 0
M  V30 1730 H 168.276 0.369112 -3.70767 0
M  V30 1731 H 168.389 -1.28148 -4.61644 0
M  V30 1732 H 166.753 -0.587535 -2.47831 0
M  V30 1733 H 167.536 -2.25533 -2.58824 0
M  V30 1734 N 169.982 1.44106 -0.638065 0
M  V30 1735 C 170.929 2.30715 0.062701 0
M  V30 1736 C 171.899 1.43882 0.829883 0
M  V30 1737 O 173.084 1.72775 0.809532 0
M  V30 1738 C 170.224 3.29258 1.03358 0
M  V30 1739 C 169.337 4.31192 0.26409 0
M  V30 1740 C 168.472 5.16825 1.22741 0
M  V30 1741 C 167.511 6.10462 0.447475 0
M  V30 1742 N 166.648 6.8877 1.36161 0
M  V30 1743 H 171.488 2.90096 -0.681781 0
M  V30 1744 H 169.025 1.42925 -0.347988 0
M  V30 1745 H 170.983 3.84886 1.60992 0
M  V30 1746 H 169.613 2.71562 1.74511 0
M  V30 1747 H 168.665 3.77981 -0.428295 0
M  V30 1748 H 169.977 4.97619 -0.343052 0
M  V30 1749 H 169.131 5.77004 1.87487 0
M  V30 1750 H 167.87 4.50488 1.86847 0
M  V30 1751 H 166.875 5.49386 -0.213433 0
M  V30 1752 H 168.1 6.78837 -0.188968 0
M  V30 1753 H 166.046 6.25096 1.98975 0
M  V30 1754 H 165.963 7.51663 0.808656 0
M  V30 1755 H 167.231 7.53467 1.99769 0
M  V30 1756 N 171.46 0.379036 1.52974 0
M  V30 1757 C 172.688 -0.20679 2.05864 0
M  V30 1758 C 173.103 -1.41356 1.25155 0
M  V30 1759 O 172.46 -1.8009 0.295588 0
M  V30 1760 C 172.511 -0.587045 3.56702 0
M  V30 1761 O 172.232 0.571776 4.34353 0
M  V30 1762 C 173.733 -1.22983 4.25899 0
M  V30 1763 H 170.953 -0.0336123 0.670158 0
M  V30 1764 H 173.497 0.541298 1.97206 0
M  V30 1765 H 171.652 -1.28504 3.65466 0
M  V30 1766 H 172.066 0.261544 5.23847 0
M  V30 1767 H 173.54 -1.44635 5.32715 0
M  V30 1768 H 174.017 -2.19416 3.80465 0
M  V30 1769 H 174.623 -0.572892 4.21424 0
M  V30 1770 N 172.938 -1.57226 0.108567 0
M  V30 1771 C 174.186 -1.94448 -0.550853 0
M  V30 1772 C 174.507 -0.992074 -1.67878 0
M  V30 1773 O 173.777 -0.0465 -1.95845 0
M  V30 1774 H 172.357 -0.717897 -0.206479 0
M  V30 1775 H 175.019 -1.94112 0.175062 0
M  V30 1776 H 174.115 -2.97218 -0.952259 0
M  V30 1777 N 174.416 0.165178 -1.56732 0
M  V30 1778 C 175.827 0.727046 -1.71962 0
M  V30 1779 C 176.178 1.82508 -0.720078 0
M  V30 1780 O 175.303 2.16082 0.117242 0
M  V30 1781 C 175.898 1.32559 -3.11791 0
M  V30 1782 C 174.457 1.83422 -3.28684 0
M  V30 1783 C 173.604 0.715567 -2.67908 0
M  V30 1784 H 176.555 -0.0602896 -1.58585 0
M  V30 1785 H 176.576 2.19533 -3.10782 0
M  V30 1786 H 176.088 0.526195 -3.84516 0
M  V30 1787 H 174.189 2.65986 -2.60926 0
M  V30 1788 H 174.302 1.97543 -4.36478 0
M  V30 1789 H 172.666 1.13758 -2.27884 0
M  V30 1790 H 173.449 -0.0720836 -3.43224 0
M  V30 1791 N 175.894 1.51508 0.433938 0
M  V30 1792 C 177.141 1.64345 1.18309 0
M  V30 1793 C 177.469 0.361315 1.91115 0
M  V30 1794 O 176.724 -0.654753 1.84422 0
M  V30 1795 C 177.023 2.79928 2.22205 0
M  V30 1796 C 176.689 4.19078 1.66387 0
M  V30 1797 C 175.351 4.56932 1.50887 0
M  V30 1798 C 177.703 5.05894 1.25381 0
M  V30 1799 C 175.031 5.79305 0.928608 0
M  V30 1800 C 177.383 6.2885 0.687823 0
M  V30 1801 C 176.047 6.65473 0.519755 0
M  V30 1802 H 175.317 0.601381 0.432923 0
M  V30 1803 H 177.964 1.85549 0.473676 0
M  V30 1804 H 176.269 2.52959 2.99197 0
M  V30 1805 H 177.966 2.87059 2.79997 0
M  V30 1806 H 174.556 3.89234 1.79428 0
M  V30 1807 H 178.74 4.77253 1.36175 0
M  V30 1808 H 173.996 6.06324 0.786186 0
M  V30 1809 H 178.17 6.95461 0.361581 0
M  V30 1810 H 175.797 7.6017 0.0679979 0
M  V30 1811 N 177.372 -0.689602 1.41712 0
M  V30 1812 C 178.282 -1.83314 1.46401 0
M  V30 1813 C 179.298 -1.7036 0.35405 0
M  V30 1814 O 180.474 -1.92171 0.602692 0
M  V30 1815 C 177.539 -3.19344 1.34982 0
M  V30 1816 C 176.6 -3.44363 2.56344 0
M  V30 1817 C 175.833 -4.73904 2.45461 0
M  V30 1818 O 176.056 -5.508 1.48241 0
M  V30 1819 O 174.99 -4.99839 3.35328 0
M  V30 1820 H 178.816 -1.82314 2.42889 0
M  V30 1821 H 176.401 -0.843438 1.23315 0
M  V30 1822 H 178.283 -4.00547 1.3092 0
M  V30 1823 H 176.958 -3.21014 0.41612 0
M  V30 1824 H 175.865 -2.63067 2.65982 0
M  V30 1825 H 177.198 -3.47512 3.48563 0
M  V30 1826 N 178.85 -1.27639 -0.924453 0
M  V30 1827 C 180.127 -1.04887 -1.651 0
M  V30 1828 C 180.507 0.415327 -2.06974 0
M  V30 1829 O 179.855 1.39923 -1.80648 0
M  V30 1830 C 180.065 -2.01348 -2.85061 0
M  V30 1831 C 181.413 -2.30899 -3.56329 0
M  V30 1832 O 182.437 -1.99348 -2.95193 0
M  V30 1833 O 181.296 -2.84699 -4.66485 0
M  V30 1834 H 178.39 -0.400083 -0.723784 0
M  V30 1835 H 180.936 -1.38916 -0.974703 0
M  V30 1836 H 179.708 -3.0008 -2.51133 0
M  V30 1837 H 179.331 -1.679 -3.6041 0
M  V30 1838 N 180.328 1.1314 -1.09713 0
M  V30 1839 C 181.258 2.20748 -0.761102 0
M  V30 1840 C 182.239 1.68061 0.262566 0
M  V30 1841 O 183.424 1.93765 0.129977 0
M  V30 1842 C 180.554 3.46812 -0.184054 0
M  V30 1843 C 179.508 4.12606 -1.13757 0
M  V30 1844 C 178.834 5.33031 -0.422083 0
M  V30 1845 C 180.134 4.59603 -2.48118 0
M  V30 1846 H 181.828 2.49113 -1.66082 0
M  V30 1847 H 179.374 1.19734 -0.799987 0
M  V30 1848 H 181.327 4.21353 0.0631215 0
M  V30 1849 H 180.051 3.17851 0.750868 0
M  V30 1850 H 178.71 3.40036 -1.37007 0
M  V30 1851 H 178.358 5.00335 0.517072 0
M  V30 1852 H 178.058 5.77999 -1.05788 0
M  V30 1853 H 179.582 6.10325 -0.183277 0
M  V30 1854 H 180.996 5.25552 -2.29059 0
M  V30 1855 H 179.393 5.15321 -3.07514 0
M  V30 1856 H 180.463 3.73971 -3.08665 0
M  V30 1857 N 181.806 0.884767 1.30421 0
M  V30 1858 C 182.753 0.349642 2.28136 0
M  V30 1859 C 183.723 -0.560061 1.56373 0
M  V30 1860 O 184.908 -0.488524 1.8444 0
M  V30 1861 C 182.048 -0.42999 3.42411 0
M  V30 1862 C 181.161 0.508907 4.28992 0
M  V30 1863 C 180.296 -0.286301 5.30428 0
M  V30 1864 C 179.335 0.648079 6.08659 0
M  V30 1865 N 178.472 -0.111792 7.02011 0
M  V30 1866 H 183.312 1.18807 2.73293 0
M  V30 1867 H 180.849 0.597231 1.3443 0
M  V30 1868 H 182.807 -0.897923 4.07423 0
M  V30 1869 H 181.437 -1.23299 2.98324 0
M  V30 1870 H 180.489 1.09533 3.64289 0
M  V30 1871 H 181.801 1.22475 4.8353 0
M  V30 1872 H 180.955 -0.816098 6.01186 0
M  V30 1873 H 179.694 -1.03536 4.76583 0
M  V30 1874 H 178.699 1.18951 5.36778 0
M  V30 1875 H 179.924 1.39623 6.64592 0
M  V30 1876 H 177.87 -0.843395 6.50556 0
M  V30 1877 H 177.787 0.544429 7.54037 0
M  V30 1878 H 179.055 -0.622339 7.77012 0
M  V30 1879 N 183.284 -1.43765 0.645699 0
M  V30 1880 C 184.194 -2.34544 -0.0512957 0
M  V30 1881 C 185.21 -1.53455 -0.82022 0
M  V30 1882 O 186.386 -1.86133 -0.769176 0
M  V30 1883 C 183.451 -3.31636 -1.01087 0
M  V30 1884 C 182.512 -4.2863 -0.239712 0
M  V30 1885 C 181.745 -5.21084 -1.15358 0
M  V30 1886 O 181.968 -5.1779 -2.39269 0
M  V30 1887 O 180.902 -5.98593 -0.630038 0
M  V30 1888 H 184.728 -2.95624 0.695718 0
M  V30 1889 H 182.313 -1.43781 0.405882 0
M  V30 1890 H 184.195 -3.9136 -1.56254 0
M  V30 1891 H 182.87 -2.73069 -1.73824 0
M  V30 1892 H 181.777 -3.72408 0.355356 0
M  V30 1893 H 183.11 -4.90157 0.447936 0
M  V30 1894 N 184.763 -0.387143 -1.52771 0
M  V30 1895 C 185.711 0.463953 -2.27926 0
M  V30 1896 C 186.705 1.06493 -1.31741 0
M  V30 1897 O 187.911 1.00565 -1.49287 0
M  V30 1898 H 184.286 0.16837 -0.732909 0
M  V30 1899 H 186.257 -0.19141 -2.97785 0
M  V30 1900 C 185.006 1.5803 -3.09713 0
M  V30 1901 H 184.329 1.12718 -3.83581 0
M  V30 1902 H 185.769 2.15008 -3.65442 0
M  V30 1903 C 184.228 2.53509 -2.2189 0
M  V30 1904 O 184.758 3.56863 -1.84422 0
M  V30 1905 N 182.964 2.23199 -1.86093 0
M  V30 1906 H 182.511 1.39185 -2.16761 0
M  V30 1907 H 182.469 2.87333 -1.27621 0
M  V30 1908 N 186.241 1.57166 -0.116904 0
M  V30 1909 C 187.171 2.18222 0.830759 0
M  V30 1910 C 188.152 1.12167 1.27877 0
M  V30 1911 O 189.337 1.40394 1.34176 0
M  V30 1912 C 186.467 2.77996 2.08172 0
M  V30 1913 C 185.421 3.89614 1.77157 0
M  V30 1914 C 184.747 4.36187 3.09265 0
M  V30 1915 C 186.047 5.1181 1.04151 0
M  V30 1916 H 187.741 2.97664 0.321992 0
M  V30 1917 H 185.287 1.4318 0.153434 0
M  V30 1918 H 187.24 3.19366 2.74924 0
M  V30 1919 H 185.964 1.9584 2.6137 0
M  V30 1920 H 184.623 3.48816 1.12796 0
M  V30 1921 H 184.271 3.50893 3.60393 0
M  V30 1922 H 183.971 5.11455 2.89288 0
M  V30 1923 H 185.495 4.80207 3.77139 0
M  V30 1924 H 186.909 5.50214 1.61052 0
M  V30 1925 H 185.306 5.92648 0.942762 0
M  V30 1926 H 186.376 4.84892 0.0279022 0
M  V30 1927 N 187.719 -0.156864 1.56817 0
M  V30 1928 C 188.968 -0.869504 1.81996 0
M  V30 1929 C 189.281 -1.82777 0.696545 0
M  V30 1930 O 190.487 -2.58384 0.833658 0
M  V30 1931 C 188.943 -1.59679 3.22538 0
M  V30 1932 C 188.551 -0.681431 4.42787 0
M  V30 1933 C 190.295 -2.2968 3.56997 0
M  V30 1934 C 188.202 -1.40978 5.74351 0
M  V30 1935 H 187.132 -0.328438 0.678708 0
M  V30 1936 H 189.783 -0.1223 1.83092 0
M  V30 1937 H 188.165 -2.38927 3.158 0
M  V30 1938 H 189.339 0.0751166 4.60739 0
M  V30 1939 H 187.654 -0.0903431 4.16302 0
M  V30 1940 H 190.251 -2.84794 4.52544 0
M  V30 1941 H 190.594 -3.05707 2.82576 0
M  V30 1942 H 191.127 -1.57361 3.65352 0
M  V30 1943 H 187.866 -0.691561 6.51842 0
M  V30 1944 H 187.386 -2.13929 5.60352 0
M  V30 1945 H 189.065 -1.95337 6.16808 0
M  V30 1946 N 189.197 -1.51736 -0.425897 0
M  V30 1947 C 190.613 -1.40166 -0.76326 0
M  V30 1948 C 190.813 -0.492962 -1.95377 0
M  V30 1949 O 189.869 0.0475815 -2.52455 0
M  V30 1950 C 191.182 -2.82403 -1.03291 0
M  V30 1951 C 192.73 -2.91632 -1.13665 0
M  V30 1952 C 193.205 -4.34801 -1.43916 0
M  V30 1953 N 194.696 -4.3796 -1.50816 0
M  V30 1954 C 195.431 -5.4578 -1.75817 0
M  V30 1955 N 194.927 -6.63744 -1.98534 0
M  V30 1956 N 196.72 -5.33274 -1.77694 0
M  V30 1957 H 188.871 -2.09361 0.358 0
M  V30 1958 H 191.134 -0.942941 0.0978094 0
M  V30 1959 H 190.84 -3.50943 -0.230696 0
M  V30 1960 H 190.714 -3.22428 -1.95754 0
M  V30 1961 H 193.101 -2.23284 -1.92947 0
M  V30 1962 H 193.182 -2.55088 -0.190756 0
M  V30 1963 H 192.826 -5.03703 -0.65157 0
M  V30 1964 H 192.756 -4.68868 -2.39729 0
M  V30 1965 H 195.247 -3.52919 -1.35118 0
M  V30 1966 H 195.56 -7.41704 -2.17013 0
M  V30 1967 H 193.905 -6.66839 -1.95832 0
M  V30 1968 H 197.096 -4.40098 -1.59473 0
M  V30 1969 H 197.269 -6.1738 -1.9684 0
M  V30 1970 N 190.675 0.682077 -1.42076 0
M  V30 1971 C 191.585 1.82535 -1.47371 0
M  V30 1972 C 192.601 1.7017 -0.363079 0
M  V30 1973 O 193.777 1.91848 -0.612875 0
M  V30 1974 C 190.842 3.18624 -1.36674 0
M  V30 1975 C 189.903 3.42999 -2.58167 0
M  V30 1976 C 189.136 4.72595 -2.4797 0
M  V30 1977 O 189.359 5.50006 -1.5116 0
M  V30 1978 O 188.293 4.98054 -3.37974 0
M  V30 1979 H 192.119 1.81023 -2.43853 0
M  V30 1980 H 189.704 0.836887 -1.2376 0
M  V30 1981 H 191.586 3.99847 -1.33043 0
M  V30 1982 H 190.261 3.20789 -0.433138 0
M  V30 1983 H 189.168 2.61653 -2.67373 0
M  V30 1984 H 190.501 3.45659 -3.50401 0
M  V30 1985 N 192.153 1.28127 0.917671 0
M  V30 1986 C 193.383 1.17722 1.6978 0
M  V30 1987 C 193.791 -0.267261 1.87303 0
M  V30 1988 O 193.134 -1.19286 1.39702 0
M  V30 1989 C 193.196 1.79958 3.11216 0
M  V30 1990 C 192.86 3.29187 3.16993 0
M  V30 1991 C 193.857 4.25679 2.98485 0
M  V30 1992 C 191.542 3.70075 3.39632 0
M  V30 1993 C 193.536 5.61035 3.02521 0
M  V30 1994 C 191.223 5.05557 3.433 0
M  V30 1995 C 192.221 6.00847 3.24764 0
M  V30 1996 O 191.909 7.33859 3.28187 0
M  V30 1997 H 191.641 0.409788 0.537634 0
M  V30 1998 H 194.195 1.69694 1.15728 0
M  V30 1999 H 192.425 1.22475 3.66793 0
M  V30 2000 H 194.114 1.64125 3.71238 0
M  V30 2001 H 194.88 3.95426 2.80826 0
M  V30 2002 H 190.759 2.96373 3.53106 0
M  V30 2003 H 194.303 6.35388 2.87971 0
M  V30 2004 H 190.2 5.35462 3.60486 0
M  V30 2005 H 190.968 7.42436 3.44575 0
M  V30 2006 N 193.631 -1.12557 1.10312 0
M  V30 2007 C 194.877 -1.84311 0.846011 0
M  V30 2008 C 195.21 -1.83805 -0.626859 0
M  V30 2009 O 194.485 -1.28268 -1.46211 0
M  V30 2010 C 194.768 -3.32048 1.39341 0
M  V30 2011 C 194.621 -3.41016 2.93305 0
M  V30 2012 C 195.94 -4.27764 1.03468 0
M  V30 2013 H 193.059 -0.669192 0.30879 0
M  V30 2014 H 195.701 -1.32057 1.36605 0
M  V30 2015 H 193.851 -3.76678 0.951087 0
M  V30 2016 H 195.523 -3.05031 3.46055 0
M  V30 2017 H 193.766 -2.81603 3.29973 0
M  V30 2018 H 194.437 -4.44948 3.26689 0
M  V30 2019 H 196.913 -3.91253 1.41633 0
M  V30 2020 H 195.789 -5.29549 1.44463 0
M  V30 2021 H 196.05 -4.42064 -0.0560404 0
M  V30 2022 N 195.109 -0.891671 -1.2995 0
M  V30 2023 C 196.056 -0.361736 -2.27948 0
M  V30 2024 C 197.026 0.551761 -1.56668 0
M  V30 2025 O 198.211 0.478736 -1.84696 0
M  V30 2026 C 195.351 0.411825 -3.42634 0
M  V30 2027 C 194.464 -0.531651 -4.28716 0
M  V30 2028 C 193.599 0.258167 -5.30572 0
M  V30 2029 C 192.638 -0.680349 -6.08307 0
M  V30 2030 N 191.775 0.0745613 -7.0206 0
M  V30 2031 H 196.615 -1.20254 -2.72659 0
M  V30 2032 H 194.152 -0.604352 -1.34112 0
M  V30 2033 H 196.11 0.876304 -4.07893 0
M  V30 2034 H 194.74 1.21715 -2.98974 0
M  V30 2035 H 193.792 -1.11463 -3.63703 0
M  V30 2036 H 195.104 -1.25038 -4.82874 0
M  V30 2037 H 194.258 0.784204 -6.0161 0
M  V30 2038 H 192.997 1.01008 -4.77126 0
M  V30 2039 H 192.002 -1.21796 -5.3614 0
M  V30 2040 H 193.227 -1.43145 -6.63842 0
M  V30 2041 H 191.173 0.808883 -6.50994 0
M  V30 2042 H 191.09 -0.584409 -7.53738 0
M  V30 2043 H 192.358 0.581123 -7.77331 0
M  V30 2044 N 196.587 1.43421 -0.653314 0
M  V30 2045 C 197.519 2.29071 0.0769134 0
M  V30 2046 C 198.532 1.42513 0.787017 0
M  V30 2047 O 199.721 1.66449 0.644757 0
M  V30 2048 C 196.821 3.19436 1.13199 0
M  V30 2049 C 195.994 4.34533 0.500006 0
M  V30 2050 C 195.053 5.05771 1.45198 0
M  V30 2051 O 194.079 5.61037 0.960538 0
M  V30 2052 N 195.281 5.0928 2.78594 0
M  V30 2053 H 198.046 2.92382 -0.658235 0
M  V30 2054 H 195.607 1.54112 -0.496104 0
M  V30 2055 H 197.599 3.63958 1.76964 0
M  V30 2056 H 196.169 2.57724 1.7691 0
M  V30 2057 H 195.389 3.92925 -0.316738 0
M  V30 2058 H 196.677 5.08766 0.0588345 0
M  V30 2059 H 196.075 4.65751 3.2108 0
M  V30 2060 H 194.632 5.57519 3.37662 0
M  V30 2061 N 198.065 0.39524 1.52563 0
M  V30 2062 C 199.293 -0.184943 2.06072 0
M  V30 2063 C 199.708 -1.40021 1.26647 0
M  V30 2064 O 199.065 -1.79767 0.314672 0
M  V30 2065 C 199.116 -0.549179 3.57304 0
M  V30 2066 O 198.837 0.617813 4.33722 0
M  V30 2067 C 200.338 -1.18459 4.2718 0
M  V30 2068 H 197.558 -0.0265025 0.670476 0
M  V30 2069 H 200.102 0.562184 1.96621 0
M  V30 2070 H 198.257 -1.2462 3.66809 0
M  V30 2071 H 198.671 0.317091 5.23541 0
M  V30 2072 H 200.145 -1.38976 5.34219 0
M  V30 2073 H 200.622 -2.15368 3.82771 0
M  V30 2074 H 201.228 -0.528163 4.22008 0
M  V30 2075 N 199.544 -1.57102 0.125237 0
M  V30 2076 C 200.79 -1.96488 -0.525753 0
M  V30 2077 C 201.145 -1.00786 -1.6389 0
M  V30 2078 O 200.438 -0.038979 -1.9156 0
M  V30 2079 C 200.632 -3.40096 -1.09862 0
M  V30 2080 C 200.461 -4.4968 -0.0425004 0
M  V30 2081 C 199.231 -5.03781 0.391463 0
M  V30 2082 C 201.429 -5.08936 0.740829 0
M  V30 2083 N 199.411 -5.96948 1.4327 0
M  V30 2084 C 200.782 -5.98105 1.6331 0
M  V30 2085 C 202.837 -4.91576 0.791029 0
M  V30 2086 C 201.54 -6.71774 2.57122 0
M  V30 2087 C 203.566 -5.6593 1.71688 0
M  V30 2088 C 202.928 -6.5479 2.59672 0
M  V30 2089 H 199.027 -0.765072 -0.161831 0
M  V30 2090 H 201.611 -1.93511 0.214801 0
M  V30 2091 H 199.782 -3.43707 -1.80887 0
M  V30 2092 H 201.514 -3.66591 -1.71444 0
M  V30 2093 H 198.269 -4.736 -0.00213584 0
M  V30 2094 H 198.693 -6.48236 1.95243 0
M  V30 2095 H 203.335 -4.22615 0.124915 0
M  V30 2096 H 201.053 -7.39977 3.24744 0
M  V30 2097 H 204.639 -5.54501 1.76125 0
M  V30 2098 H 203.519 -7.11316 3.30149 0
M  V30 2099 N 201.022 0.148545 -1.56898 0
M  V30 2100 C 201.97 1.20265 -1.99096 0
M  V30 2101 C 202.964 1.44559 -0.883123 0
M  V30 2102 O 204.17 1.4487 -1.0683 0
M  V30 2103 H 200.545 0.404786 -0.63376 0
M  V30 2104 H 202.516 0.82004 -2.86911 0
M  V30 2105 C 201.265 2.52886 -2.3863 0
M  V30 2106 H 200.588 2.35021 -3.23427 0
M  V30 2107 H 202.028 3.25274 -2.7198 0
M  V30 2108 C 200.487 3.13315 -1.23837 0
M  V30 2109 O 201.017 3.98077 -0.538268 0
M  V30 2110 N 199.223 2.72742 -1.00301 0
M  V30 2111 H 198.77 2.03912 -1.5741 0
M  V30 2112 H 198.728 3.13507 -0.236838 0
M  V30 2113 N 202.5 1.5196 0.417844 0
M  V30 2114 C 203.43 1.77634 1.51554 0
M  V30 2115 C 204.411 0.626918 1.58126 0
M  V30 2116 O 205.596 0.871632 1.7354 0
M  V30 2117 C 202.726 1.91911 2.8946 0
M  V30 2118 C 201.68 3.07463 2.97743 0
M  V30 2119 C 201.006 3.06951 4.37819 0
M  V30 2120 C 202.306 4.47082 2.70027 0
M  V30 2121 H 204 2.6955 1.3032 0
M  V30 2122 H 201.546 1.29706 0.625492 0
M  V30 2123 H 203.499 2.08455 3.6623 0
M  V30 2124 H 202.223 0.966598 3.11969 0
M  V30 2125 H 200.882 2.90656 2.23416 0
M  V30 2126 H 200.53 2.09438 4.57323 0
M  V30 2127 H 200.23 3.84556 4.44286 0
M  V30 2128 H 201.754 3.25613 5.16535 0
M  V30 2129 H 203.168 4.6414 3.36522 0
M  V30 2130 H 201.565 5.2654 2.87881 0
M  V30 2131 H 202.635 4.55777 1.65514 0
M  V30 2132 N 203.978 -0.674533 1.42435 0
M  V30 2133 C 204.91 -1.80005 1.41883 0
M  V30 2134 C 205.923 -1.59667 0.31787 0
M  V30 2135 O 207.112 -1.68781 0.580973 0
M  V30 2136 C 204.212 -3.17114 1.19549 0
M  V30 2137 C 203.385 -3.64299 2.42084 0
M  V30 2138 C 202.444 -4.80142 2.15291 0
M  V30 2139 O 201.47 -4.90673 2.88493 0
M  V30 2140 N 202.672 -5.68869 1.1562 0
M  V30 2141 H 205.437 -1.80964 2.38898 0
M  V30 2142 H 202.998 -0.857633 1.37318 0
M  V30 2143 H 204.99 -3.92267 0.995417 0
M  V30 2144 H 203.56 -3.11053 0.310569 0
M  V30 2145 H 202.78 -2.79822 2.77657 0
M  V30 2146 H 204.068 -3.92567 3.23679 0
M  V30 2147 H 203.466 -5.63012 0.550765 0
M  V30 2148 H 202.023 -6.43833 1.016 0
M  V30 2149 N 205.456 -1.28612 -0.910864 0
M  V30 2150 C 206.704 -1.15705 -1.65701 0
M  V30 2151 C 207.025 0.29416 -1.92769 0
M  V30 2152 O 206.295 1.20331 -1.54588 0
M  V30 2153 H 204.875 -0.425216 -0.614167 0
M  V30 2154 H 207.537 -1.61381 -1.0928 0
M  V30 2155 H 206.633 -1.6988 -2.61815 0
M  V30 2156 N 206.934 1.1197 -1.10907 0
M  V30 2157 C 207.866 2.17592 -0.720175 0
M  V30 2158 C 208.879 1.60938 0.245495 0
M  V30 2159 O 210.068 1.78476 0.0292245 0
M  V30 2160 C 207.168 3.38873 -0.0427917 0
M  V30 2161 C 206.341 4.25006 -1.03388 0
M  V30 2162 C 205.4 5.24774 -0.387075 0
M  V30 2163 O 204.426 5.59631 -1.03934 0
M  V30 2164 N 205.628 5.74208 0.852407 0
M  V30 2165 H 208.393 2.51567 -1.62893 0
M  V30 2166 H 205.954 1.27439 -0.998543 0
M  V30 2167 H 207.946 4.02703 0.401501 0
M  V30 2168 H 206.516 3.03007 0.768456 0
M  V30 2169 H 205.736 3.57716 -1.65629 0
M  V30 2170 H 207.024 4.79397 -1.70458 0
M  V30 2171 H 206.422 5.48062 1.40161 0
M  V30 2172 H 204.979 6.39901 1.23977 0
M  V30 2173 N 208.412 0.89855 1.29475 0
M  V30 2174 C 209.375 0.380272 2.26023 0
M  V30 2175 C 210.375 -0.484891 1.53315 0
M  V30 2176 O 211.565 -0.290108 1.71767 0
M  V30 2177 C 208.697 -0.45651 3.3783 0
M  V30 2178 H 209.89 1.23295 2.73383 0
M  V30 2179 H 207.443 0.676589 1.40897 0
M  V30 2180 H 208.178 -1.32922 2.95808 0
M  V30 2181 H 207.963 0.163393 3.91759 0
M  V30 2182 H 209.453 -0.810466 4.0966 0
M  V30 2183 N 209.89 -1.43072 0.660911 0
M  V30 2184 C 210.82 -2.33497 -0.0122829 0
M  V30 2185 C 211.801 -1.49903 -0.803925 0
M  V30 2186 O 212.986 -1.78546 -0.763864 0
M  V30 2187 C 210.116 -3.33363 -0.973994 0
M  V30 2188 C 209.07 -4.27003 -0.291928 0
M  V30 2189 C 208.396 -5.16967 -1.36562 0
M  V30 2190 C 209.696 -5.15816 0.820462 0
M  V30 2191 H 211.39 -2.90038 0.742873 0
M  V30 2192 H 208.936 -1.39461 0.358688 0
M  V30 2193 H 210.889 -3.95524 -1.45392 0
M  V30 2194 H 209.613 -2.75095 -1.7604 0
M  V30 2195 H 208.272 -3.66217 0.167623 0
M  V30 2196 H 207.92 -4.55034 -2.14366 0
M  V30 2197 H 207.62 -5.80441 -0.914454 0
M  V30 2198 H 209.144 -5.82003 -1.84675 0
M  V30 2199 H 210.558 -5.71742 0.422366 0
M  V30 2200 H 208.955 -5.8805 1.19656 0
M  V30 2201 H 210.025 -4.55045 1.67518 0
M  V30 2202 N 211.368 -0.403325 -1.52352 0
M  V30 2203 C 212.278 0.432009 -2.30588 0
M  V30 2204 C 213.294 1.05884 -1.38075 0
M  V30 2205 O 214.47 1.06161 -1.71148 0
M  V30 2206 C 211.535 1.53669 -3.10784 0
M  V30 2207 C 210.596 0.933525 -4.19027 0
M  V30 2208 C 209.829 1.98557 -4.9539 0
M  V30 2209 O 210.052 3.20283 -4.71991 0
M  V30 2210 O 208.986 1.59504 -5.80381 0
M  V30 2211 H 212.812 -0.205739 -3.03002 0
M  V30 2212 H 210.397 -0.166675 -1.48467 0
M  V30 2213 H 212.279 2.17814 -3.60742 0
M  V30 2214 H 210.954 2.15915 -2.41169 0
M  V30 2215 H 209.861 0.254954 -3.7323 0
M  V30 2216 H 211.194 0.35508 -4.90918 0
M  V30 2217 N 212.846 1.57033 -0.133567 0
M  V30 2218 C 213.778 2.13176 0.841944 0
M  V30 2219 C 214.791 1.07794 1.22001 0
M  V30 2220 O 215.98 1.35117 1.16643 0
M  V30 2221 C 213.08 2.62847 2.13926 0
M  V30 2222 C 212.253 3.92486 1.93064 0
M  V30 2223 C 211.312 4.27605 3.0666 0
M  V30 2224 O 210.338 4.96168 2.78937 0
M  V30 2225 N 211.54 3.861 4.33483 0
M  V30 2226 H 214.305 2.97503 0.362192 0
M  V30 2227 H 211.866 1.61821 0.05042 0
M  V30 2228 H 213.858 2.83363 2.88942 0
M  V30 2229 H 212.428 1.83319 2.53205 0
M  V30 2230 H 211.648 3.80732 1.02159 0
M  V30 2231 H 212.936 4.77225 1.76447 0
M  V30 2232 H 212.334 3.30828 4.58878 0
M  V30 2233 H 210.891 4.11694 5.05323 0
M  V30 2234 N 214.325 -0.140222 1.56975 0
M  V30 2235 C 215.288 -1.15689 1.97861 0
M  V30 2236 C 216.288 -1.3549 0.865974 0
M  V30 2237 O 217.478 -1.32367 1.13246 0
M  V30 2238 C 214.61 -2.51582 2.30042 0
M  V30 2239 H 215.803 -0.805971 2.88867 0
M  V30 2240 H 213.356 -0.383801 1.51515 0
M  V30 2241 H 214.091 -2.91632 1.41849 0
M  V30 2242 H 213.876 -2.38569 3.11171 0
M  V30 2243 H 215.366 -3.24792 2.62488 0
M  V30 2244 N 215.803 -1.52179 -0.40978 0
M  V30 2245 C 217.052 -1.65434 -1.15388 0
M  V30 2246 C 217.365 -0.390056 -1.91671 0
M  V30 2247 O 218.571 -0.402399 -2.68501 0
M  V30 2248 C 217.027 -2.92279 -2.10003 0
M  V30 2249 C 216.635 -4.25813 -1.39239 0
M  V30 2250 C 218.379 -3.14897 -2.84675 0
M  V30 2251 C 216.286 -5.43782 -2.32498 0
M  V30 2252 H 215.216 -0.616267 -0.434432 0
M  V30 2253 H 217.867 -1.78666 -0.418401 0
M  V30 2254 H 216.249 -2.72744 -2.871 0
M  V30 2255 H 217.423 -4.55828 -0.675099 0
M  V30 2256 H 215.738 -4.09292 -0.766097 0
M  V30 2257 H 218.335 -4.0021 -3.54593 0
M  V30 2258 H 218.678 -2.29103 -3.47588 0
M  V30 2259 H 219.211 -3.34901 -2.14677 0
M  V30 2260 H 215.95 -6.3192 -1.74233 0
M  V30 2261 H 215.47 -5.18106 -3.02201 0
M  V30 2262 H 217.149 -5.76834 -2.93038 0
M  V30 2263 N 217.281 0.66697 -1.42791 0
M  V30 2264 C 218.53 1.42278 -1.42968 0
M  V30 2265 C 218.843 1.9553 -0.0524489 0
M  V30 2266 O 220.049 2.71414 0.068363 0
M  V30 2267 C 218.505 2.57418 -2.51524 0
M  V30 2268 C 218.113 2.10832 -3.9529 0
M  V30 2269 C 219.857 3.34878 -2.60877 0
M  V30 2270 C 217.764 3.23101 -4.95338 0
M  V30 2271 H 216.694 0.534533 -0.531781 0
M  V30 2272 H 219.345 0.721302 -1.68729 0
M  V30 2273 H 217.727 3.29971 -2.18941 0
M  V30 2274 H 218.901 1.4538 -4.37266 0
M  V30 2275 H 217.216 1.46289 -3.89857 0
M  V30 2276 H 219.813 4.18505 -3.32802 0
M  V30 2277 H 220.156 3.81993 -1.6549 0
M  V30 2278 H 220.689 2.69398 -2.92693 0
M  V30 2279 H 217.428 2.80969 -5.9223 0
M  V30 2280 H 216.948 3.87309 -4.57987 0
M  V30 2281 H 218.627 3.88447 -5.17415 0
M  V30 2282 N 218.759 1.29093 0.90403 0
M  V30 2283 C 219.984 1.19809 1.69294 0
M  V30 2284 C 220.409 -0.238481 1.86582 0
M  V30 2285 O 219.767 -1.1723 1.383 0
M  V30 2286 C 219.815 1.91202 3.05736 0
M  V30 2287 O 218.919 1.22611 3.93752 0
M  V30 2288 H 218.26 0.415385 0.518027 0
M  V30 2289 H 220.79 1.70586 1.12967 0
M  V30 2290 H 220.8 1.99487 3.55906 0
M  V30 2291 H 219.475 2.95692 2.92471 0
M  V30 2292 H 218.052 1.22554 3.52186 0
M  V30 2293 N 220.237 -1.11381 1.11499 0
M  V30 2294 C 221.169 -2.17207 0.731704 0
M  V30 2295 C 222.182 -1.61066 -0.236957 0
M  V30 2296 O 223.371 -1.78489 -0.0197591 0
M  V30 2297 C 220.471 -3.38846 0.0607624 0
M  V30 2298 C 219.644 -4.24451 1.0564 0
M  V30 2299 C 218.703 -5.24562 0.4149 0
M  V30 2300 O 217.729 -5.59071 1.069 0
M  V30 2301 N 218.931 -5.74651 -0.821943 0
M  V30 2302 H 221.696 -2.50699 1.64225 0
M  V30 2303 H 219.257 -1.26908 1.00529 0
M  V30 2304 H 221.249 -4.02911 -0.380139 0
M  V30 2305 H 219.819 -3.03411 -0.752376 0
M  V30 2306 H 219.039 -3.56833 1.67524 0
M  V30 2307 H 220.327 -4.78486 1.72998 0
M  V30 2308 H 219.725 -5.48797 -1.37252 0
M  V30 2309 H 218.282 -6.40549 -1.20582 0
M  V30 2310 N 221.715 -0.905404 -1.28997 0
M  V30 2311 C 222.662 -0.385892 -2.27551 0
M  V30 2312 C 223.632 0.535113 -1.57244 0
M  V30 2313 O 224.817 0.459119 -1.85194 0
M  V30 2314 C 221.957 0.375461 -3.43051 0
M  V30 2315 C 221.07 -0.577092 -4.28128 0
M  V30 2316 C 220.205 0.201879 -5.30816 0
M  V30 2317 C 219.244 -0.744829 -6.07551 0
M  V30 2318 N 218.381 9.42587e-05 -7.021 0
M  V30 2319 H 223.221 -1.23139 -2.71368 0
M  V30 2320 H 220.758 -0.618542 -1.33463 0
M  V30 2321 H 222.716 0.832992 -4.088 0
M  V30 2322 H 221.346 1.18537 -3.00248 0
M  V30 2323 H 220.398 -1.15315 -3.62501 0
M  V30 2324 H 221.71 -1.30152 -4.8152 0
M  V30 2325 H 220.864 0.720351 -6.02408 0
M  V30 2326 H 219.603 0.959413 -4.7817 0
M  V30 2327 H 218.608 -1.27475 -5.34818 0
M  V30 2328 H 219.833 -1.50178 -6.62286 0
M  V30 2329 H 217.779 0.739791 -6.51815 0
M  V30 2330 H 217.696 -0.664321 -7.53076 0
M  V30 2331 H 218.964 0.498644 -7.77903 0
M  V30 2332 N 223.193 1.4272 -0.668489 0
M  V30 2333 C 224.604 1.84793 -0.266151 0
M  V30 2334 C 224.955 1.55959 1.19043 0
M  V30 2335 O 224.08 1.01622 1.91055 0
M  V30 2336 C 224.675 3.35436 -0.476271 0
M  V30 2337 C 223.234 3.76182 -0.128113 0
M  V30 2338 C 222.381 2.66344 -0.771777 0
M  V30 2339 H 225.332 1.32656 -0.871098 0
M  V30 2340 H 225.353 3.79515 0.273561 0
M  V30 2341 H 224.865 3.5639 -1.53647 0
M  V30 2342 H 222.966 3.60836 0.928891 0
M  V30 2343 H 223.079 4.75766 -0.564231 0
M  V30 2344 H 221.443 2.53885 -0.203652 0
M  V30 2345 H 222.226 2.90123 -1.83531 0
M  V30 2346 N 224.671 0.411399 1.52136 0
M  V30 2347 C 225.603 -0.448386 2.24771 0
M  V30 2348 C 226.616 -1.00828 1.27818 0
M  V30 2349 O 227.805 -0.906841 1.53749 0
M  V30 2350 C 224.905 -1.63636 2.96777 0
M  V30 2351 C 224.078 -1.19995 4.20618 0
M  V30 2352 C 223.137 -2.25509 4.75428 0
M  V30 2353 O 222.163 -1.86007 5.3795 0
M  V30 2354 N 223.365 -3.577 4.57199 0
M  V30 2355 H 226.13 0.174025 2.99194 0
M  V30 2356 H 223.691 0.238897 1.60128 0
M  V30 2357 H 225.683 -2.33793 3.30338 0
M  V30 2358 H 224.253 -2.16465 2.25526 0
M  V30 2359 H 223.473 -0.326421 3.92846 0
M  V30 2360 H 224.761 -0.885365 5.01038 0
M  V30 2361 H 224.159 -3.92543 4.07341 0
M  V30 2362 H 222.716 -4.23827 4.95191 0
M  V30 2363 N 226.149 -1.5696 0.141893 0
M  V30 2364 C 227.079 -2.19516 -0.795936 0
M  V30 2365 C 228.06 -1.14187 -1.26077 0
M  V30 2366 O 229.245 -1.42511 -1.31925 0
M  V30 2367 C 226.375 -2.81272 -2.03723 0
M  V30 2368 C 225.329 -3.92384 -1.70936 0
M  V30 2369 C 224.655 -4.41052 -3.02287 0
M  V30 2370 C 225.955 -5.13403 -0.959954 0
M  V30 2371 H 227.649 -2.98138 -0.274596 0
M  V30 2372 H 225.195 -1.43406 -0.130636 0
M  V30 2373 H 227.148 -3.237 -2.69808 0
M  V30 2374 H 225.872 -1.99973 -2.58221 0
M  V30 2375 H 224.531 -3.50566 -1.07232 0
M  V30 2376 H 224.179 -3.56582 -3.54765 0
M  V30 2377 H 223.879 -5.15993 -2.81114 0
M  V30 2378 H 225.403 -4.86146 -3.69451 0
M  V30 2379 H 226.817 -5.52706 -1.52279 0
M  V30 2380 H 225.214 -5.94073 -0.848357 0
M  V30 2381 H 226.284 -4.84875 0.0492434 0
M  V30 2382 N 227.627 0.131896 -1.57047 0
M  V30 2383 C 228.537 1.1815 -2.02676 0
M  V30 2384 C 229.553 1.46113 -0.944824 0
M  V30 2385 O 230.729 1.57485 -1.25541 0
M  V30 2386 C 227.794 2.49139 -2.41103 0
M  V30 2387 C 226.855 2.28688 -3.63318 0
M  V30 2388 C 226.088 3.53431 -3.99903 0
M  V30 2389 O 226.311 4.60223 -3.36973 0
M  V30 2390 O 225.245 3.45198 -4.93074 0
M  V30 2391 H 229.071 0.824069 -2.92306 0
M  V30 2392 H 226.656 0.341745 -1.45439 0
M  V30 2393 H 228.538 3.26338 -2.66611 0
M  V30 2394 H 227.213 2.84382 -1.54624 0
M  V30 2395 H 226.12 1.4939 -3.42977 0
M  V30 2396 H 227.453 1.98355 -4.50462 0
M  V30 2397 N 229.106 1.52395 0.401703 0
M  V30 2398 C 230.053 1.76268 1.48991 0
M  V30 2399 C 231.023 0.605386 1.54675 0
M  V30 2400 O 232.208 0.843742 1.7113 0
M  V30 2401 C 229.348 1.92592 2.86361 0
M  V30 2402 C 228.461 3.20259 2.89928 0
M  V30 2403 C 227.596 3.26972 4.18644 0
M  V30 2404 C 226.635 4.48812 4.16214 0
M  V30 2405 N 225.772 4.52877 5.36514 0
M  V30 2406 H 230.612 2.6914 1.27935 0
M  V30 2407 H 228.149 1.33355 0.620871 0
M  V30 2408 H 230.107 2.0004 3.66115 0
M  V30 2409 H 228.737 1.03093 3.05895 0
M  V30 2410 H 227.789 3.21945 2.02621 0
M  V30 2411 H 229.101 4.10056 2.83999 0
M  V30 2412 H 228.255 3.33533 5.06794 0
M  V30 2413 H 226.994 2.35126 4.27278 0
M  V30 2414 H 225.999 4.4239 3.26453 0
M  V30 2415 H 227.224 5.41961 4.09213 0
M  V30 2416 H 225.17 3.63917 5.45802 0
M  V30 2417 H 225.087 5.36529 5.32609 0
M  V30 2418 H 226.355 4.63676 6.26597 0
M  V30 2419 N 230.584 -0.659388 1.43143 0
M  V30 2420 C 231.514 -1.78422 1.50625 0
M  V30 2421 C 232.495 -1.66216 0.361443 0
M  V30 2422 O 233.68 -1.85404 0.577834 0
M  V30 2423 C 230.81 -3.16815 1.42287 0
M  V30 2424 C 229.764 -3.43777 2.54954 0
M  V30 2425 C 229.09 -4.81905 2.31671 0
M  V30 2426 C 230.39 -3.39134 3.97222 0
M  V30 2427 H 232.084 -1.72417 2.44771 0
M  V30 2428 H 229.63 -0.828084 1.17808 0
M  V30 2429 H 231.583 -3.95253 1.46127 0
M  V30 2430 H 230.307 -3.23534 0.446435 0
M  V30 2431 H 228.966 -2.67707 2.50457 0
M  V30 2432 H 228.614 -4.85294 1.32284 0
M  V30 2433 H 228.314 -5.00906 3.07192 0
M  V30 2434 H 229.838 -5.62609 2.37284 0
M  V30 2435 H 231.252 -4.07518 4.03239 0
M  V30 2436 H 229.649 -3.69671 4.72719 0
M  V30 2437 H 230.719 -2.37426 4.22797 0
M  V30 2438 N 232.062 -1.29571 -0.897171 0
M  V30 2439 C 233.311 -1.1706 -1.64256 0
M  V30 2440 C 233.624 0.276476 -1.93636 0
M  V30 2441 O 234.83 0.52294 -2.66416 0
M  V30 2442 C 233.286 -2.0475 -2.95982 0
M  V30 2443 C 232.894 -3.54295 -2.74187 0
M  V30 2444 C 234.638 -2.0097 -3.73914 0
M  V30 2445 C 232.545 -4.34081 -4.01656 0
M  V30 2446 H 231.475 -0.43452 -0.616205 0
M  V30 2447 H 234.126 -1.54229 -0.994268 0
M  V30 2448 H 232.508 -1.60452 -3.62038 0
M  V30 2449 H 233.682 -4.06662 -2.1671 0
M  V30 2450 H 231.997 -3.59773 -2.09648 0
M  V30 2451 H 234.594 -2.57838 -4.68427 0
M  V30 2452 H 234.937 -0.990273 -4.0435 0
M  V30 2453 H 235.47 -2.43325 -3.14703 0
M  V30 2454 H 232.209 -5.36671 -3.76384 0
M  V30 2455 H 231.729 -3.86483 -4.58684 0
M  V30 2456 H 233.408 -4.44877 -4.69781 0
M  V30 2457 N 233.54 1.10788 -1.12088 0
M  V30 2458 C 234.503 2.15207 -0.788577 0
M  V30 2459 C 235.503 1.59609 0.195317 0
M  V30 2460 O 236.693 1.74174 -0.0300193 0
M  V30 2461 C 233.825 3.4047 -0.171174 0
M  V30 2462 H 235.018 2.46116 -1.71368 0
M  V30 2463 H 232.571 1.26089 -0.923652 0
M  V30 2464 H 233.306 3.15176 0.763832 0
M  V30 2465 H 233.091 3.82109 -0.879514 0
M  V30 2466 H 234.581 4.17576 0.04496 0
M  V30 2467 N 235.018 0.912232 1.28515 0
M  V30 2468 C 236.246 0.560416 1.99166 0
M  V30 2469 C 236.661 -0.857927 1.68182 0
M  V30 2470 O 236.018 -1.56805 0.933733 0
M  V30 2471 C 236.069 0.758142 3.53461 0
M  V30 2472 O 235.79 2.12067 3.83352 0
M  V30 2473 C 237.291 0.412954 4.41372 0
M  V30 2474 H 234.511 0.213805 0.636026 0
M  V30 2475 H 237.055 1.22502 1.63749 0
M  V30 2476 H 235.21 0.140556 3.87145 0
M  V30 2477 H 235.624 2.15923 4.77993 0
M  V30 2478 H 237.098 0.60208 5.48707 0
M  V30 2479 H 237.575 -0.65073 4.34353 0
M  V30 2480 H 238.181 1.00802 4.13182 0
M  V30 2481 N 236.496 -1.42363 0.676048 0
M  V30 2482 C 237.724 -2.05859 0.207268 0
M  V30 2483 C 238.139 -1.50796 -1.13605 0
M  V30 2484 O 237.496 -0.648265 -1.70598 0
M  V30 2485 C 237.547 -3.61248 0.134975 0
M  V30 2486 O 237.268 -4.1427 1.42521 0
M  V30 2487 C 238.769 -4.41859 -0.357151 0
M  V30 2488 H 235.989 -0.663431 0.100503 0
M  V30 2489 H 238.533 -1.82479 0.923136 0
M  V30 2490 H 236.688 -3.83735 -0.531588 0
M  V30 2491 H 237.102 -5.0815 1.29939 0
M  V30 2492 H 238.576 -5.50847 -0.356641 0
M  V30 2493 H 239.053 -4.16536 -1.39264 0
M  V30 2494 H 239.659 -4.24392 0.27772 0
M  V30 2495 N 237.974 -0.419461 -1.51915 0
M  V30 2496 C 238.937 0.389116 -2.25873 0
M  V30 2497 C 239.937 0.964924 -1.28631 0
M  V30 2498 O 241.127 0.842179 -1.52489 0
M  V30 2499 C 238.259 1.54874 -3.03689 0
M  V30 2500 H 239.452 -0.258799 -2.98781 0
M  V30 2501 H 237.005 -0.172209 -1.55348 0
M  V30 2502 H 237.74 2.23323 -2.35154 0
M  V30 2503 H 237.525 1.14223 -3.75094 0
M  V30 2504 H 239.015 2.12046 -3.59759 0
M  V30 2505 N 239.452 1.56882 -0.150215 0
M  V30 2506 C 240.402 2.13501 0.800071 0
M  V30 2507 C 241.386 1.06368 1.20726 0
M  V30 2508 O 242.578 1.32538 1.17314 0
M  V30 2509 C 239.707 2.76271 2.03787 0
M  V30 2510 C 238.793 3.90533 1.65364 0
M  V30 2511 N 239.184 4.96259 0.977794 0
M  V30 2512 C 237.482 4.013 1.94613 0
M  V30 2513 C 238.183 5.76286 0.791794 0
M  V30 2514 N 237.159 5.27163 1.32666 0
M  V30 2515 H 240.961 2.92615 0.274517 0
M  V30 2516 H 238.475 1.62319 0.0512144 0
M  V30 2517 H 240.472 3.15197 2.72867 0
M  V30 2518 H 239.132 1.98631 2.56857 0
M  V30 2519 H 240.143 5.13953 0.638193 0
M  V30 2520 H 236.82 3.3474 2.4951 0
M  V30 2521 H 238.21 6.71401 0.258894 0
M  V30 2522 N 240.93 -0.123565 1.57115 0
M  V30 2523 C 241.84 -1.17074 2.033 0
M  V30 2524 C 242.856 -1.4561 0.952559 0
M  V30 2525 O 244.032 -1.56817 1.26374 0
M  V30 2526 C 241.097 -2.47857 2.42421 0
M  V30 2527 C 240.158 -2.26758 3.64526 0
M  V30 2528 C 239.391 -3.51305 4.01771 0
M  V30 2529 O 239.614 -4.5843 3.39409 0
M  V30 2530 O 238.548 -3.42578 4.94898 0
M  V30 2531 H 242.374 -0.808555 2.92739 0
M  V30 2532 H 239.959 -0.334027 1.45618 0
M  V30 2533 H 241.841 -3.2492 2.68338 0
M  V30 2534 H 240.516 -2.83558 1.5613 0
M  V30 2535 H 239.423 -1.47569 3.43765 0
M  V30 2536 H 240.756 -1.95963 4.51508 0
M  V30 2537 N 242.408 -1.52605 -0.393616 0
M  V30 2538 C 243.355 -1.77055 -1.48054 0
M  V30 2539 C 244.325 -0.61358 -1.54352 0
M  V30 2540 O 245.51 -0.852806 -1.70681 0
M  V30 2541 C 242.65 -1.94108 -2.85335 0
M  V30 2542 C 241.763 -3.21792 -2.88226 0
M  V30 2543 C 240.898 -3.29188 -4.16904 0
M  V30 2544 C 239.937 -4.51013 -4.13828 0
M  V30 2545 N 239.074 -4.55716 -5.34105 0
M  V30 2546 H 243.914 -2.69815 -1.26506 0
M  V30 2547 H 241.451 -1.33683 -0.61379 0
M  V30 2548 H 243.409 -2.01979 -3.65049 0
M  V30 2549 H 242.039 -1.04713 -3.05344 0
M  V30 2550 H 241.091 -3.23015 -2.00911 0
M  V30 2551 H 242.403 -4.11557 -2.8182 0
M  V30 2552 H 241.557 -3.36216 -5.05018 0
M  V30 2553 H 240.296 -2.37389 -4.26026 0
M  V30 2554 H 239.301 -4.44115 -3.24102 0
M  V30 2555 H 240.526 -5.44123 -4.06333 0
M  V30 2556 H 238.472 -3.66807 -5.43865 0
M  V30 2557 H 238.389 -5.39346 -5.29756 0
M  V30 2558 H 239.657 -4.66993 -6.2413 0
M  V30 2559 N 243.887 0.651787 -1.4349 0
M  V30 2560 C 244.82 1.77668 -1.43211 0
M  V30 2561 C 245.798 1.59931 -0.29338 0
M  V30 2562 O 246.982 1.82095 -0.487191 0
M  V30 2563 C 244.109 3.14986 -1.24505 0
M  V30 2564 C 243.155 3.51421 -2.41673 0
M  V30 2565 S 243.988 3.51234 -4.04222 0
M  V30 2566 C 245.144 4.91206 -3.87902 0
M  V30 2567 H 245.377 1.77635 -2.38397 0
M  V30 2568 H 242.91 0.824558 -1.30539 0
M  V30 2569 H 244.868 3.94237 -1.144 0
M  V30 2570 H 243.529 3.1258 -0.308651 0
M  V30 2571 H 242.722 4.51291 -2.24393 0
M  V30 2572 H 242.324 2.79585 -2.48411 0
M  V30 2573 H 244.616 5.79902 -3.50315 0
M  V30 2574 H 245.559 5.13537 -4.8753 0
M  V30 2575 H 245.967 4.64808 -3.20334 0
M  V30 2576 N 245.365 1.30045 0.890287 0
M  V30 2577 C 246.776 1.16738 1.45702 0
M  V30 2578 C 247.127 -0.233939 1.948 0
M  V30 2579 O 246.252 -1.13021 1.84541 0
M  V30 2580 C 246.847 2.11313 2.64825 0
M  V30 2581 C 245.406 2.02001 3.17604 0
M  V30 2582 C 244.553 2.01699 1.90296 0
M  V30 2583 H 247.504 1.42392 0.700726 0
M  V30 2584 H 247.525 1.69086 3.40867 0
M  V30 2585 H 247.037 3.13294 2.2906 0
M  V30 2586 H 245.138 1.03142 3.5804 0
M  V30 2587 H 245.251 2.90128 3.81264 0
M  V30 2588 H 243.615 1.46427 2.08402 0
M  V30 2589 H 244.398 3.05402 1.56795 0
M  V30 2590 N 246.843 -1.10192 1.12674 0
M  V30 2591 C 248.089 -1.82658 0.894847 0
M  V30 2592 C 248.444 -1.83666 -0.573107 0
M  V30 2593 O 247.737 -1.28816 -1.41835 0
M  V30 2594 C 247.931 -3.28552 1.4067 0
M  V30 2595 C 247.76 -3.41756 2.92289 0
M  V30 2596 C 246.53 -3.54021 3.60551 0
M  V30 2597 C 248.728 -3.34949 3.90274 0
M  V30 2598 N 246.71 -3.55827 5.0026 0
M  V30 2599 C 248.081 -3.43531 5.16127 0
M  V30 2600 C 250.136 -3.18565 3.8265 0
M  V30 2601 C 248.839 -3.37416 6.3525 0
M  V30 2602 C 250.865 -3.13772 5.01299 0
M  V30 2603 C 250.227 -3.22938 6.26012 0
M  V30 2604 H 246.326 -0.683044 0.380756 0
M  V30 2605 H 248.91 -1.31752 1.43351 0
M  V30 2606 H 247.081 -3.77946 0.895055 0
M  V30 2607 H 248.813 -3.88991 1.11661 0
M  V30 2608 H 245.568 -3.57135 3.1105 0
M  V30 2609 H 245.992 -3.60335 5.73138 0
M  V30 2610 H 250.634 -3.10354 2.87124 0
M  V30 2611 H 248.352 -3.44391 7.3104 0
M  V30 2612 H 251.938 -3.02242 4.97133 0
M  V30 2613 H 250.818 -3.19235 7.16281 0
M  V30 2614 N 248.321 -0.919034 -1.28029 0
M  V30 2615 C 249.568 -0.554934 -1.94748 0
M  V30 2616 C 249.896 0.90231 -1.72304 0
M  V30 2617 O 249.151 1.65767 -1.04018 0
M  V30 2618 C 249.45 -0.816855 -3.4794 0
M  V30 2619 C 249.116 -2.25448 -3.90492 0
M  V30 2620 C 247.778 -2.64752 -4.01821 0
M  V30 2621 C 250.13 -3.18977 -4.12193 0
M  V30 2622 C 247.458 -3.96727 -4.32232 0
M  V30 2623 C 249.81 -4.50523 -4.44086 0
M  V30 2624 C 248.474 -4.89673 -4.53626 0
M  V30 2625 H 247.744 -0.203065 -0.712633 0
M  V30 2626 H 250.391 -1.16136 -1.52265 0
M  V30 2627 H 248.696 -0.127677 -3.91592 0
M  V30 2628 H 250.393 -0.514238 -3.97689 0
M  V30 2629 H 246.983 -1.93952 -3.82205 0
M  V30 2630 H 251.167 -2.89817 -4.02889 0
M  V30 2631 H 246.423 -4.26754 -4.37825 0
M  V30 2632 H 250.597 -5.23005 -4.59825 0
M  V30 2633 H 248.224 -5.91969 -4.76946 0
M  V30 2634 N 249.799 1.42003 -0.683588 0
M  V30 2635 C 250.749 2.27997 0.0121992 0
M  V30 2636 C 251.733 1.4156 0.764822 0
M  V30 2637 O 252.925 1.64935 0.642287 0
M  V30 2638 C 250.054 3.29706 0.956482 0
M  V30 2639 C 249.14 4.23625 0.200739 0
M  V30 2640 N 249.531 4.99448 -0.799087 0
M  V30 2641 C 247.829 4.43845 0.437937 0
M  V30 2642 C 248.53 5.68102 -1.25041 0
M  V30 2643 N 247.506 5.40511 -0.578648 0
M  V30 2644 H 251.308 2.84048 -0.754564 0
M  V30 2645 H 248.822 1.54071 -0.513398 0
M  V30 2646 H 250.819 3.90124 1.47 0
M  V30 2647 H 249.479 2.75216 1.72297 0
M  V30 2648 H 250.49 5.04303 -1.17893 0
M  V30 2649 H 247.167 4.00382 1.18325 0
M  V30 2650 H 248.557 6.38913 -2.07942 0
M  V30 2651 N 251.277 0.427512 1.51691 0
M  V30 2652 C 252.525 -0.141948 2.01601 0
M  V30 2653 C 252.846 -1.44067 1.31414 0
M  V30 2654 O 252.116 -1.90763 0.445658 0
M  V30 2655 H 250.696 -0.0554468 0.744939 0
M  V30 2656 H 253.358 0.567968 1.86441 0
M  V30 2657 H 252.454 -0.324913 3.10404 0
M  V30 2658 N 252.755 -1.56801 0.158532 0
M  V30 2659 C 253.702 -2.17337 -0.776729 0
M  V30 2660 C 254.672 -1.1096 -1.23601 0
M  V30 2661 O 255.857 -1.39054 -1.30647 0
M  V30 2662 C 252.997 -2.80822 -2.00582 0
M  V30 2663 C 252.11 -4.01624 -1.59129 0
M  V30 2664 C 251.245 -4.53072 -2.77306 0
M  V30 2665 C 250.284 -5.66314 -2.32282 0
M  V30 2666 N 249.421 -6.12329 -3.43508 0
M  V30 2667 H 254.261 -2.96918 -0.253701 0
M  V30 2668 H 251.798 -1.46661 -0.113504 0
M  V30 2669 H 253.756 -3.15779 -2.72652 0
M  V30 2670 H 252.386 -2.03866 -2.50277 0
M  V30 2671 H 251.438 -3.72571 -0.767806 0
M  V30 2672 H 252.75 -4.83633 -1.2207 0
M  V30 2673 H 251.904 -4.90145 -3.57551 0
M  V30 2674 H 250.643 -3.70095 -3.17617 0
M  V30 2675 H 249.648 -5.28806 -1.5048 0
M  V30 2676 H 250.873 -6.51085 -1.93043 0
M  V30 2677 H 248.819 -5.32284 -3.83418 0
M  V30 2678 H 248.736 -6.89293 -3.105 0
M  V30 2679 H 250.004 -6.5405 -4.24075 0
M  V30 2680 N 254.233 0.115231 -1.57178 0
M  V30 2681 C 255.482 0.820945 -1.84237 0
M  V30 2682 C 255.795 1.80866 -0.744761 0
M  V30 2683 O 257.001 2.56083 -0.901871 0
M  V30 2684 C 255.457 1.51072 -3.26658 0
M  V30 2685 C 255.065 0.563795 -4.44438 0
M  V30 2686 C 256.809 2.20134 -3.62962 0
M  V30 2687 C 254.716 1.25701 -5.77887 0
M  V30 2688 H 253.646 0.310328 -0.687177 0
M  V30 2689 H 256.297 0.0737134 -1.83352 0
M  V30 2690 H 254.679 2.30471 -3.22024 0
M  V30 2691 H 255.853 -0.197247 -4.60378 0
M  V30 2692 H 254.168 -0.0200638 -4.16395 0
M  V30 2693 H 256.765 2.72696 -4.59936 0
M  V30 2694 H 257.108 2.98107 -2.90582 0
M  V30 2695 H 257.641 1.47619 -3.69396 0
M  V30 2696 H 254.38 0.518493 -6.53446 0
M  V30 2697 H 253.9 1.98997 -5.65827 0
M  V30 2698 H 255.579 1.78915 -6.2177 0
M  V30 2699 N 255.711 1.52812 0.385517 0
M  V30 2700 C 256.936 1.72207 1.15583 0
M  V30 2701 C 257.361 0.441034 1.82857 0
M  V30 2702 O 256.719 -0.603465 1.70962 0
M  V30 2703 C 256.767 2.87476 2.17692 0
M  V30 2704 O 255.871 2.54693 3.24354 0
M  V30 2705 H 255.212 0.572526 0.336319 0
M  V30 2706 H 257.742 1.99618 0.448744 0
M  V30 2707 H 257.752 3.13072 2.6163 0
M  V30 2708 H 256.427 3.80408 1.68115 0
M  V30 2709 H 255.004 2.3985 2.85529 0
M  V30 2710 N 257.189 -0.644168 1.43834 0
M  V30 2711 C 258.605 -0.960875 1.27434 0
M  V30 2712 C 258.805 -2.00499 0.200618 0
M  V30 2713 O 257.861 -2.49018 -0.417906 0
M  V30 2714 C 259.174 -1.43653 2.64167 0
M  V30 2715 C 260.722 -1.55271 2.71772 0
M  V30 2716 C 261.197 -2.06224 4.08944 0
M  V30 2717 N 262.688 -2.13513 4.11055 0
M  V30 2718 C 263.423 -2.54081 5.14033 0
M  V30 2719 N 262.919 -2.9388 6.27381 0
M  V30 2720 N 264.712 -2.54101 5.01387 0
M  V30 2721 H 256.863 0.0465779 2.12349 0
M  V30 2722 H 259.126 -0.0417638 0.94708 0
M  V30 2723 H 258.832 -0.743706 3.43747 0
M  V30 2724 H 258.706 -2.40993 2.90176 0
M  V30 2725 H 261.093 -2.23653 1.92519 0
M  V30 2726 H 261.174 -0.563395 2.49519 0
M  V30 2727 H 260.818 -1.38441 4.88668 0
M  V30 2728 H 260.748 -3.06003 4.28567 0
M  V30 2729 H 263.239 -1.85493 3.29242 0
M  V30 2730 H 263.552 -3.2361 7.01781 0
M  V30 2731 H 261.897 -2.91663 6.30839 0
M  V30 2732 H 265.088 -2.22391 4.11898 0
M  V30 2733 H 265.261 -2.85394 5.81768 0
M  V30 2734 N 258.668 -1.30515 -0.883378 0
M  V30 2735 C 259.578 -1.18959 -2.02203 0
M  V30 2736 C 260.594 -0.109172 -1.73657 0
M  V30 2737 O 261.77 -0.324413 -1.9877 0
M  V30 2738 C 258.835 -0.883871 -3.35244 0
M  V30 2739 C 257.896 -2.04982 -3.77201 0
M  V30 2740 C 257.129 -1.75859 -5.03894 0
M  V30 2741 O 257.352 -0.687276 -5.66244 0
M  V30 2742 O 256.286 -2.61146 -5.42297 0
M  V30 2743 H 260.112 -2.14616 -2.1488 0
M  V30 2744 H 257.697 -1.10124 -1.0096 0
M  V30 2745 H 259.579 -0.728644 -4.15053 0
M  V30 2746 H 258.254 0.0427798 -3.23672 0
M  V30 2747 H 257.161 -2.26038 -2.9809 0
M  V30 2748 H 258.494 -2.95825 -3.93381 0
M  V30 2749 N 260.146 1.09593 -1.13257 0
M  V30 2750 C 261.056 2.19739 -0.821691 0
M  V30 2751 C 262.072 1.72926 0.19302 0
M  V30 2752 O 263.248 2.01385 0.0244895 0
M  V30 2753 C 260.313 3.45482 -0.290333 0
M  V30 2754 C 259.374 4.06985 -1.36607 0
M  V30 2755 C 258.607 5.26726 -0.859975 0
M  V30 2756 O 258.83 5.69594 0.303082 0
M  V30 2757 O 257.764 5.7931 -1.63351 0
M  V30 2758 H 261.59 2.48781 -1.74189 0
M  V30 2759 H 259.175 1.18496 -0.909894 0
M  V30 2760 H 261.057 4.214 0.000674022 0
M  V30 2761 H 259.732 3.18047 0.602306 0
M  V30 2762 H 258.639 3.32712 -1.71037 0
M  V30 2763 H 259.972 4.38643 -2.23279 0
M  V30 2764 N 261.624 0.925811 1.2754 0
M  V30 2765 C 262.849 0.580924 1.99098 0
M  V30 2766 C 263.274 -0.833555 1.68622 0
M  V30 2767 O 262.632 -1.55903 0.925422 0
M  V30 2768 C 262.68 0.811186 3.51358 0
M  V30 2769 O 261.784 -0.124129 4.12213 0
M  V30 2770 H 261.125 0.223873 0.625122 0
M  V30 2771 H 263.655 1.24455 1.62395 0
M  V30 2772 H 263.665 0.72601 4.01489 0
M  V30 2773 H 262.34 1.84227 3.72872 0
M  V30 2774 H 260.917 0.0108006 3.72898 0
M  V30 2775 N 263.102 -1.41638 0.69111 0
M  V30 2776 C 264.012 -2.34588 0.0233487 0
M  V30 2777 C 265.028 -1.55987 -0.770984 0
M  V30 2778 O 266.204 -1.88486 -0.709569 0
M  V30 2779 C 263.269 -3.34684 -0.904851 0
M  V30 2780 C 262.33 -4.29176 -0.103225 0
M  V30 2781 C 261.563 -5.2449 -0.987216 0
M  V30 2782 O 261.786 -5.2514 -2.22674 0
M  V30 2783 O 260.72 -6.00295 -0.439281 0
M  V30 2784 H 264.546 -2.93261 0.789416 0
M  V30 2785 H 262.131 -1.42417 0.45142 0
M  V30 2786 H 264.013 -3.96133 -1.43724 0
M  V30 2787 H 262.688 -2.78461 -1.65049 0
M  V30 2788 H 261.595 -3.71089 0.473655 0
M  V30 2789 H 262.928 -4.88484 0.60365 0
M  V30 2790 N 264.58 -0.43555 -1.51462 0
M  V30 2791 C 265.512 0.41257 -2.25456 0
M  V30 2792 C 266.525 0.987822 -1.29406 0
M  V30 2793 O 267.714 0.882266 -1.55172 0
M  V30 2794 C 264.814 1.58894 -2.99342 0
M  V30 2795 C 263.987 1.13288 -4.22474 0
M  V30 2796 C 263.046 2.17917 -4.78956 0
M  V30 2797 O 262.072 1.77425 -5.40841 0
M  V30 2798 N 263.274 3.50382 -4.62832 0
M  V30 2799 H 266.039 -0.221603 -2.9888 0
M  V30 2800 H 263.6 -0.264342 -1.59727 0
M  V30 2801 H 265.592 2.28508 -3.34015 0
M  V30 2802 H 264.162 2.12849 -2.28941 0
M  V30 2803 H 263.382 0.263881 -3.93316 0
M  V30 2804 H 264.67 0.805542 -5.02383 0
M  V30 2805 H 264.068 3.86013 -4.13534 0
M  V30 2806 H 262.625 4.15895 -5.01871 0
M  V30 2807 N 266.058 1.56714 -0.166846 0
M  V30 2808 C 267.307 1.95922 0.479318 0
M  V30 2809 C 267.62 1.05529 1.6469 0
M  V30 2810 O 268.826 1.34399 2.35901 0
M  V30 2811 C 267.282 3.48359 0.90412 0
M  V30 2812 C 266.89 4.47369 -0.237621 0
M  V30 2813 C 268.634 3.96394 1.51896 0
M  V30 2814 C 266.541 5.91039 0.206561 0
M  V30 2815 H 265.471 0.731495 0.18284 0
M  V30 2816 H 268.122 1.81728 -0.254363 0
M  V30 2817 H 266.504 3.57955 1.69365 0
M  V30 2818 H 267.678 4.49485 -1.01489 0
M  V30 2819 H 265.993 4.09366 -0.762128 0
M  V30 2820 H 268.59 5.01186 1.86325 0
M  V30 2821 H 268.933 3.39075 2.41524 0
M  V30 2822 H 269.466 3.89796 0.79395 0
M  V30 2823 H 266.205 6.52221 -0.654834 0
M  V30 2824 H 265.725 5.9224 0.949282 0
M  V30 2825 H 267.404 6.43707 0.651939 0
M  V30 2826 N 267.536 -0.106894 1.57237 0
M  V30 2827 C 268.782 -0.81373 1.85759 0
M  V30 2828 C 269.115 -1.78952 0.754315 0
M  V30 2829 O 268.39 -1.93029 -0.23879 0
M  V30 2830 C 268.673 -1.55293 3.24894 0
M  V30 2831 C 268.526 -0.595929 4.45835 0
M  V30 2832 C 269.845 -2.5063 3.61763 0
M  V30 2833 H 266.964 -0.294369 0.67566 0
M  V30 2834 H 269.606 -0.0776472 1.89841 0
M  V30 2835 H 267.756 -2.1804 3.21544 0
M  V30 2836 H 269.428 0.0236262 4.61294 0
M  V30 2837 H 267.671 0.0916191 4.33703 0
M  V30 2838 H 268.342 -1.15004 5.39887 0
M  V30 2839 H 270.818 -1.97982 3.65981 0
M  V30 2840 H 269.694 -2.99376 4.60071 0
M  V30 2841 H 269.955 -3.3385 2.89821 0
M  V30 2842 N 269.014 -1.53014 -0.377408 0
M  V30 2843 C 269.944 -1.81589 -1.46791 0
M  V30 2844 C 270.925 -0.668622 -1.56408 0
M  V30 2845 O 272.11 -0.917337 -1.71168 0
M  V30 2846 C 269.24 -1.99519 -2.8427 0
M  V30 2847 C 268.194 -3.15249 -2.89486 0
M  V30 2848 C 267.52 -3.18451 -4.29527 0
M  V30 2849 C 268.82 -4.54084 -2.58079 0
M  V30 2850 H 270.514 -2.7291 -1.23127 0
M  V30 2851 H 268.06 -1.31319 -0.590883 0
M  V30 2852 H 270.013 -2.18092 -3.60575 0
M  V30 2853 H 268.737 -1.04897 -3.09296 0
M  V30 2854 H 267.396 -2.96477 -2.15631 0
M  V30 2855 H 267.044 -2.2149 -4.5161 0
M  V30 2856 H 266.744 -3.962 -4.33934 0
M  V30 2857 H 268.268 -3.39193 -5.07721 0
M  V30 2858 H 269.682 -4.72899 -3.24098 0
M  V30 2859 H 268.079 -5.33987 -2.7382 0
M  V30 2860 H 269.149 -4.60006 -1.53372 0
M  V30 2861 N 270.492 0.636531 -1.44174 0
M  V30 2862 C 271.741 1.39213 -1.45954 0
M  V30 2863 C 272.054 1.95374 -0.0939119 0
M  V30 2864 O 273.26 2.71498 0.0107767 0
M  V30 2865 C 271.716 2.52025 -2.56927 0
M  V30 2866 C 271.324 2.024 -3.99673 0
M  V30 2867 C 273.068 3.29269 -2.67922 0
M  V30 2868 C 270.975 3.12521 -5.0208 0
M  V30 2869 H 269.905 0.523132 -0.542999 0
M  V30 2870 H 272.556 0.685349 -1.70221 0
M  V30 2871 H 270.938 3.25253 -2.25891 0
M  V30 2872 H 272.112 1.36073 -4.40251 0
M  V30 2873 H 270.427 1.37987 -3.92872 0
M  V30 2874 H 273.024 4.11352 -3.41605 0
M  V30 2875 H 273.367 3.78397 -1.73555 0
M  V30 2876 H 273.9 2.63129 -2.98342 0
M  V30 2877 H 270.639 2.68343 -5.98057 0
M  V30 2878 H 270.159 3.77507 -4.66099 0
M  V30 2879 H 271.838 3.77385 -5.25538 0
M  V30 2880 N 271.97 1.30982 0.876444 0
M  V30 2881 C 273.218 1.20058 1.62575 0
M  V30 2882 C 273.539 -0.242947 1.93481 0
M  V30 2883 O 272.809 -1.1619 1.57724 0
M  V30 2884 H 271.389 0.44135 0.602677 0
M  V30 2885 H 274.051 1.64222 1.04962 0
M  V30 2886 H 273.147 1.76762 2.57219 0
M  V30 2887 N 273.449 -1.08991 1.13837 0
M  V30 2888 C 274.674 -1.85551 0.926585 0
M  V30 2889 C 275.099 -1.80782 -0.519566 0
M  V30 2890 O 274.457 -1.18855 -1.36906 0
M  V30 2891 C 274.505 -3.31266 1.42462 0
M  V30 2892 O 273.609 -4.07822 0.612789 0
M  V30 2893 H 272.95 -0.575192 0.331738 0
M  V30 2894 H 275.48 -1.37604 1.51414 0
M  V30 2895 H 275.49 -3.82112 1.43019 0
M  V30 2896 H 274.165 -3.34052 2.47754 0
M  V30 2897 H 272.742 -3.66731 0.675463 0
M  V30 2898 N 274.927 -0.932562 -1.27047 0
M  V30 2899 C 275.874 -0.434072 -2.26681 0
M  V30 2900 C 276.844 0.501639 -1.58344 0
M  V30 2901 O 278.029 0.419734 -1.86126 0
M  V30 2902 C 275.169 0.30261 -3.43771 0
M  V30 2903 C 274.282 -0.667774 -4.26808 0
M  V30 2904 C 273.417 0.0892393 -5.31125 0
M  V30 2905 C 272.456 -0.873532 -6.05835 0
M  V30 2906 N 271.593 -0.148832 -7.01942 0
M  V30 2907 H 276.433 -1.28868 -2.68695 0
M  V30 2908 H 273.97 -0.646713 -1.32121 0
M  V30 2909 H 275.928 0.746092 -4.10474 0
M  V30 2910 H 274.558 1.12142 -3.02695 0
M  V30 2911 H 273.61 -1.22978 -3.59973 0
M  V30 2912 H 274.922 -1.40337 -4.78651 0
M  V30 2913 H 274.076 0.592409 -6.03801 0
M  V30 2914 H 272.815 0.85777 -4.80097 0
M  V30 2915 H 271.82 -1.38791 -5.31994 0
M  V30 2916 H 273.045 -1.64193 -6.58952 0
M  V30 2917 H 270.991 0.601365 -6.53238 0
M  V30 2918 H 270.908 -0.82391 -7.51497 0
M  V30 2919 H 272.176 0.333527 -7.78786 0
M  V30 2920 N 276.405 1.4127 -0.698611 0
M  V30 2921 C 277.633 2.05503 -0.239992 0
M  V30 2922 C 278.048 1.52584 1.11191 0
M  V30 2923 O 277.405 0.675323 1.69545 0
M  V30 2924 C 277.456 3.60987 -0.192429 0
M  V30 2925 O 277.177 4.1195 -1.49094 0
M  V30 2926 C 278.678 4.42371 0.28681 0
M  V30 2927 H 275.898 0.661748 -0.111045 0
M  V30 2928 H 278.442 1.80987 -0.95205 0
M  V30 2929 H 276.597 3.84533 0.470472 0
M  V30 2930 H 277.011 5.06018 -1.38007 0
M  V30 2931 H 278.485 5.51344 0.26896 0
M  V30 2932 H 278.962 4.18699 1.32619 0
M  V30 2933 H 279.568 4.23897 -0.345201 0
M  V30 2934 N 277.883 0.443576 1.51229 0
M  V30 2935 C 278.831 -0.37904 2.29491 0
M  V30 2936 C 279.825 -1.0153 1.35603 0
M  V30 2937 O 281.031 -0.94955 1.52917 0
M  V30 2938 H 277.406 -0.141053 0.738653 0
M  V30 2939 H 279.377 0.301799 2.9687 0
M  V30 2940 C 278.126 -1.46426 3.15364 0
M  V30 2941 H 277.449 -0.984037 3.87501 0
M  V30 2942 H 278.889 -2.01297 3.7317 0
M  V30 2943 C 277.348 -2.45099 2.31146 0
M  V30 2944 O 277.878 -3.49773 1.9754 0
M  V30 2945 N 276.084 -2.16139 1.94249 0
M  V30 2946 H 275.631 -1.31044 2.21777 0
M  V30 2947 H 275.589 -2.82398 1.38198 0
M  V30 2948 N 279.361 -1.56624 0.175154 0
M  V30 2949 C 280.609 -1.96609 -0.467885 0
M  V30 2950 C 280.93 -1.06238 -1.63519 0
M  V30 2951 O 280.2 -0.129523 -1.95471 0
M  V30 2952 H 278.78 -0.726008 -0.175845 0
M  V30 2953 H 281.442 -1.93195 0.257234 0
M  V30 2954 H 280.538 -3.00989 -0.825342 0
M  V30 2955 N 280.839 0.0985539 -1.57292 0
M  V30 2956 C 281.786 1.11981 -2.01814 0
M  V30 2957 C 282.756 1.39999 -0.89384 0
M  V30 2958 O 283.941 1.5152 -1.15958 0
M  V30 2959 C 281.081 2.43577 -2.44467 0
M  V30 2960 C 280.194 2.2232 -3.70402 0
M  V30 2961 C 279.329 3.4729 -4.01949 0
M  V30 2962 C 278.368 3.2128 -5.21005 0
M  V30 2963 N 277.505 4.38507 -5.48321 0
M  V30 2964 H 282.345 0.733149 -2.88841 0
M  V30 2965 H 279.882 0.350482 -1.42864 0
M  V30 2966 H 281.84 3.20373 -2.6724 0
M  V30 2967 H 280.47 2.80097 -1.60455 0
M  V30 2968 H 279.522 1.36343 -3.55126 0
M  V30 2969 H 280.834 1.99089 -4.57345 0
M  V30 2970 H 279.988 4.32495 -4.25479 0
M  V30 2971 H 278.727 3.73572 -3.13521 0
M  V30 2972 H 277.732 2.34468 -4.97298 0
M  V30 2973 H 278.957 2.96348 -6.11028 0
M  V30 2974 H 276.903 4.64871 -4.62851 0
M  V30 2975 H 276.82 4.18455 -6.29628 0
M  V30 2976 H 278.088 5.24787 -5.76385 0
M  V30 2977 N 282.317 1.53212 0.369288 0
M  V30 2978 C 283.564 1.69215 1.11232 0
M  V30 2979 C 283.892 0.442048 1.8941 0
M  V30 2980 O 283.147 -0.575944 1.87033 0
M  V30 2981 C 283.446 2.89101 2.10132 0
M  V30 2982 C 283.112 4.25758 1.48463 0
M  V30 2983 C 281.774 4.6292 1.31372 0
M  V30 2984 C 284.126 5.10757 1.03811 0
M  V30 2985 C 281.454 5.82722 0.68207 0
M  V30 2986 C 283.806 6.31201 0.420487 0
M  V30 2987 C 282.47 6.67079 0.237038 0
M  V30 2988 H 281.74 0.619201 0.407027 0
M  V30 2989 H 284.387 1.87391 0.394552 0
M  V30 2990 H 282.692 2.65421 2.88199 0
M  V30 2991 H 284.389 2.98676 2.6757 0
M  V30 2992 H 280.979 3.96494 1.62758 0
M  V30 2993 H 285.163 4.82599 1.1581 0
M  V30 2994 H 280.419 6.09113 0.528316 0
M  V30 2995 H 284.593 6.96368 0.0662874 0
M  V30 2996 H 282.22 7.59774 -0.254477 0
M  V30 2997 N 283.795 -0.628877 1.44509 0
M  V30 2998 C 284.725 -1.75187 1.54376 0
M  V30 2999 C 285.706 -1.65411 0.396618 0
M  V30 3000 O 286.891 -1.84137 0.617031 0
M  V30 3001 C 284.021 -3.13725 1.48976 0
M  V30 3002 C 282.975 -3.38291 2.62189 0
M  V30 3003 C 282.301 -4.76883 2.41841 0
M  V30 3004 C 283.601 -3.30632 4.04326 0
M  V30 3005 H 285.295 -1.67187 2.48373 0
M  V30 3006 H 282.841 -0.802909 1.19538 0
M  V30 3007 H 284.794 -3.92064 1.54478 0
M  V30 3008 H 283.518 -3.22515 0.514961 0
M  V30 3009 H 282.177 -2.62334 2.56079 0
M  V30 3010 H 281.825 -4.82378 1.42548 0
M  V30 3011 H 281.525 -4.94278 3.17747 0
M  V30 3012 H 283.049 -5.57449 2.49165 0
M  V30 3013 H 284.463 -3.98873 4.11793 0
M  V30 3014 H 282.86 -3.59561 4.80454 0
M  V30 3015 H 283.93 -2.28404 4.27738 0
M  V30 3016 N 285.273 -1.31445 -0.869486 0
M  V30 3017 C 286.522 -1.20517 -1.61736 0
M  V30 3018 C 286.835 0.235341 -1.94179 0
M  V30 3019 O 288.041 0.466312 -2.67465 0
M  V30 3020 C 286.497 -2.10982 -2.91573 0
M  V30 3021 C 286.105 -3.60032 -2.66611 0
M  V30 3022 C 287.849 -2.08856 -3.69567 0
M  V30 3023 C 285.756 -4.42503 -3.92358 0
M  V30 3024 H 284.686 -0.447493 -0.606849 0
M  V30 3025 H 287.337 -1.56303 -0.96133 0
M  V30 3026 H 285.719 -1.68095 -3.58553 0
M  V30 3027 H 286.893 -4.11167 -2.08035 0
M  V30 3028 H 285.208 -3.64139 -2.0197 0
M  V30 3029 H 287.805 -2.67716 -4.62852 0
M  V30 3030 H 288.148 -1.07582 -4.02159 0
M  V30 3031 H 288.681 -2.49945 -3.09471 0
M  V30 3032 H 285.42 -5.44533 -3.64916 0
M  V30 3033 H 284.94 -3.96125 -4.50383 0
M  V30 3034 H 286.619 -4.54741 -4.60238 0
M  V30 3035 N 286.751 1.08385 -1.14413 0
M  V30 3036 C 288.167 1.32844 -0.884563 0
M  V30 3037 C 288.367 1.95841 0.474181 0
M  V30 3038 O 287.423 2.21158 1.21842 0
M  V30 3039 C 288.736 2.22978 -2.01745 0
M  V30 3040 C 290.284 2.36458 -2.05077 0
M  V30 3041 C 290.759 3.29934 -3.1766 0
M  V30 3042 N 292.25 3.37511 -3.17239 0
M  V30 3043 C 292.985 4.09871 -4.0099 0
M  V30 3044 N 292.481 4.84936 -4.94781 0
M  V30 3045 N 294.274 4.05704 -3.89051 0
M  V30 3046 H 286.425 0.658756 -2.01926 0
M  V30 3047 H 288.688 0.352821 -0.879899 0
M  V30 3048 H 288.394 1.83934 -2.99769 0
M  V30 3049 H 288.268 3.23441 -1.94077 0
M  V30 3050 H 290.655 2.7476 -1.0766 0
M  V30 3051 H 290.736 1.35736 -2.16816 0
M  V30 3052 H 290.38 2.92352 -4.15322 0
M  V30 3053 H 290.31 4.30584 -3.03158 0
M  V30 3054 H 292.801 2.83996 -2.49308 0
M  V30 3055 H 293.114 5.37612 -5.55151 0
M  V30 3056 H 291.459 4.83988 -4.98779 0
M  V30 3057 H 294.65 3.46167 -3.15097 0
M  V30 3058 H 294.823 4.61834 -4.54547 0
M  V30 3059 N 288.23 0.939286 1.26551 0
M  V30 3060 C 289.193 0.451987 2.24699 0
M  V30 3061 C 290.193 -0.435869 1.5478 0
M  V30 3062 O 291.383 -0.235314 1.72603 0
M  V30 3063 C 288.515 -0.348801 3.39111 0
M  V30 3064 H 289.708 1.3193 2.69322 0
M  V30 3065 H 287.261 0.721072 1.38673 0
M  V30 3066 H 287.996 -1.23444 2.99887 0
M  V30 3067 H 287.781 0.287945 3.91041 0
M  V30 3068 H 289.271 -0.679726 4.12031 0
M  V30 3069 N 289.708 -1.40897 0.706093 0
M  V30 3070 C 291.124 -1.55042 0.37869 0
M  V30 3071 C 291.324 -1.67944 -1.11342 0
M  V30 3072 O 290.38 -1.66372 -1.89938 0
M  V30 3073 C 291.693 -2.78398 1.13643 0
M  V30 3074 C 293.241 -2.92206 1.12181 0
M  V30 3075 C 293.716 -4.18463 1.86152 0
M  V30 3076 N 295.207 -4.25443 1.83173 0
M  V30 3077 C 295.942 -5.2202 2.37239 0
M  V30 3078 N 295.438 -6.24563 2.99821 0
M  V30 3079 N 297.231 -5.14033 2.27435 0
M  V30 3080 H 289.382 -1.30769 1.67372 0
M  V30 3081 H 291.645 -0.631653 0.706907 0
M  V30 3082 H 291.351 -2.7511 2.19106 0
M  V30 3083 H 291.225 -3.70228 0.721853 0
M  V30 3084 H 293.612 -2.95004 0.0754171 0
M  V30 3085 H 293.693 -2.01521 1.57554 0
M  V30 3086 H 293.337 -4.16427 2.90776 0
M  V30 3087 H 293.267 -5.08141 1.38206 0
M  V30 3088 H 295.758 -3.51976 1.37556 0
M  V30 3089 H 296.071 -6.94665 3.38616 0
M  V30 3090 H 294.416 -6.25035 3.03902 0
M  V30 3091 H 297.607 -4.3285 1.78208 0
M  V30 3092 H 297.78 -5.89129 2.69873 0
M  V30 3093 N 291.186 -0.45159 -1.50991 0
M  V30 3094 C 292.463 0.170707 -1.94854 0
M  V30 3095 C 292.843 1.58788 -1.39103 0
M  V30 3096 O 292.191 2.20913 -0.583921 0
M  V30 3097 C 292.401 0.133929 -3.48743 0
M  V30 3098 C 293.749 0.33248 -4.23296 0
M  V30 3099 O 294.773 0.211403 -3.55572 0
M  V30 3100 O 293.632 0.57486 -5.43468 0
M  V30 3101 H 290.726 0.122264 -0.817912 0
M  V30 3102 H 293.272 -0.510594 -1.61836 0
M  V30 3103 H 292.044 -0.856283 -3.81816 0
M  V30 3104 H 291.667 0.857529 -3.88242 0
M  V30 3105 N 292.664 1.56529 -0.183458 0
M  V30 3106 C 293.612 2.19873 0.758845 0
M  V30 3107 C 294.606 1.16638 1.22849 0
M  V30 3108 O 295.812 1.3481 1.19274 0
M  V30 3109 H 292.187 0.7045 0.263029 0
M  V30 3110 H 294.158 2.97724 0.200755 0
M  V30 3111 C 292.907 2.86314 1.9728 0
M  V30 3112 H 292.23 3.65487 1.62047 0
M  V30 3113 H 293.67 3.3409 2.61075 0
M  V30 3114 C 292.129 1.86729 2.80418 0
M  V30 3115 O 292.659 1.36031 3.77966 0
M  V30 3116 N 290.865 1.55216 2.45675 0
M  V30 3117 H 290.412 1.96636 1.66409 0
M  V30 3118 H 290.37 0.888388 3.01588 0
M  V30 3119 N 294.142 -0.090211 1.57342 0
M  V30 3120 C 295.09 -1.12792 2.03422 0
M  V30 3121 C 296.084 -1.41182 0.936166 0
M  V30 3122 O 297.29 -1.40805 1.12133 0
M  V30 3123 H 293.665 -0.380986 0.648347 0
M  V30 3124 H 295.636 -0.71299 2.89757 0
M  V30 3125 C 294.385 -2.43855 2.47851 0
M  V30 3126 H 293.708 -2.22855 3.31927 0
M  V30 3127 H 295.148 -3.14955 2.83865 0
M  V30 3128 C 293.607 -3.08503 1.3538 0
M  V30 3129 O 294.137 -3.95805 0.685641 0
M  V30 3130 N 292.343 -2.68831 1.10355 0
M  V30 3131 H 291.89 -1.97929 1.64869 0
M  V30 3132 H 291.848 -3.12412 0.353031 0
M  V30 3133 N 295.62 -1.53406 -0.361157 0
M  V30 3134 C 296.868 -1.69467 -1.10115 0
M  V30 3135 C 297.189 -0.451352 -1.89705 0
M  V30 3136 O 296.459 0.534636 -1.88463 0
M  V30 3137 H 295.039 -0.624749 -0.409508 0
M  V30 3138 H 297.701 -1.90609 -0.406699 0
M  V30 3139 H 296.797 -2.55774 -1.78847 0
M  V30 3140 N 297.098 0.621204 -1.44841 0
M  V30 3141 C 298.323 1.41244 -1.51871 0
M  V30 3142 C 298.748 1.87519 -0.147764 0
M  V30 3143 O 298.106 1.59334 0.865 0
M  V30 3144 C 298.154 2.60221 -2.49634 0
M  V30 3145 O 297.258 3.60395 -2.00473 0
M  V30 3146 H 296.599 0.42223 -0.512463 0
M  V30 3147 H 299.129 0.757305 -1.90069 0
M  V30 3148 H 299.139 3.0764 -2.67996 0
M  V30 3149 H 297.814 2.25887 -3.4921 0
M  V30 3150 H 296.391 3.19717 -1.91925 0
M  V30 3151 N 298.576 1.31904 0.862503 0
M  V30 3152 C 299.806 1.24817 1.64634 0
M  V30 3153 C 300.214 -0.187579 1.88268 0
M  V30 3154 O 299.557 -1.13253 1.44635 0
M  V30 3155 C 299.619 1.92996 3.03303 0
M  V30 3156 C 299.283 3.42336 3.02746 0
M  V30 3157 C 300.28 4.37956 2.80162 0
M  V30 3158 C 297.965 3.84147 3.2363 0
M  V30 3159 C 299.959 5.73361 2.78453 0
M  V30 3160 C 297.646 5.19663 3.21549 0
M  V30 3161 C 298.644 6.14081 2.98988 0
M  V30 3162 O 298.332 7.47118 2.96766 0
M  V30 3163 H 298.064 0.432222 0.519769 0
M  V30 3164 H 300.618 1.7445 1.08427 0
M  V30 3165 H 298.848 1.37922 3.61268 0
M  V30 3166 H 300.537 1.79723 3.63943 0
M  V30 3167 H 301.303 4.06981 2.63802 0
M  V30 3168 H 297.182 3.11083 3.40218 0
M  V30 3169 H 300.726 6.4703 2.60763 0
M  V30 3170 H 296.623 5.5027 3.37451 0
M  V30 3171 H 297.391 7.56382 3.12775 0
M  V30 3172 N 300.054 -1.07777 1.14986 0
M  V30 3173 C 301.017 -2.13041 0.845358 0
M  V30 3174 C 302.017 -1.60071 -0.152931 0
M  V30 3175 O 303.207 -1.74033 0.0761879 0
M  V30 3176 C 300.339 -3.39896 0.261383 0
M  V30 3177 H 301.532 -2.41485 1.77834 0
M  V30 3178 H 299.085 -1.23595 0.956757 0
M  V30 3179 H 299.82 -3.17091 -0.68 0
M  V30 3180 H 299.605 -3.79642 0.980514 0
M  V30 3181 H 301.095 -4.17548 0.0657687 0
M  V30 3182 N 301.532 -0.945985 -1.26051 0
M  V30 3183 C 302.462 -0.477172 -2.28572 0
M  V30 3184 C 303.443 0.472032 -1.63419 0
M  V30 3185 O 304.628 0.372853 -1.90587 0
M  V30 3186 C 301.758 0.253975 -3.4637 0
M  V30 3187 C 300.712 -0.609135 -4.23643 0
M  V30 3188 C 300.038 0.252252 -5.34105 0
M  V30 3189 C 301.338 -1.8829 -4.8718 0
M  V30 3190 H 303.032 -1.33402 -2.68038 0
M  V30 3191 H 300.578 -0.642904 -1.28852 0
M  V30 3192 H 302.531 0.593016 -4.17207 0
M  V30 3193 H 301.255 1.145 -3.05871 0
M  V30 3194 H 299.914 -0.931138 -3.54578 0
M  V30 3195 H 299.562 1.14278 -4.89846 0
M  V30 3196 H 299.262 -0.32188 -5.86718 0
M  V30 3197 H 300.786 0.586454 -6.07777 0
M  V30 3198 H 302.2 -1.61081 -5.50205 0
M  V30 3199 H 300.597 -2.40199 -5.49931 0
M  V30 3200 H 301.667 -2.59134 -4.09851 0
M  V30 3201 N 303.011 1.40521 -0.713556 0
M  V30 3202 C 304.251 2.02783 -0.256584 0
M  V30 3203 C 304.615 1.55352 1.12827 0
M  V30 3204 O 305.816 2.09663 1.68211 0
M  V30 3205 C 304.087 3.5586 -0.331414 0
M  V30 3206 S 305.646 4.38773 0.0488703 0
M  V30 3207 H 302.464 0.703655 -0.101934 0
M  V30 3208 H 305.066 1.71674 -0.935325 0
M  V30 3209 H 303.77 3.87874 -1.34098 0
M  V30 3210 H 303.301 3.91695 0.365873 0
M  V30 3211 H 305.316 4.79633 1.2715 0
M  V30 3212 N 304.489 0.459591 1.5075 0
M  V30 3213 C 305.419 -0.330644 2.31147 0
M  V30 3214 C 306.4 -1.00087 1.37538 0
M  V30 3215 O 307.585 -1.00025 1.66459 0
M  V30 3216 C 304.715 -1.41958 3.16962 0
M  V30 3217 C 303.669 -0.871608 4.19031 0
M  V30 3218 C 302.995 -2.05797 4.9351 0
M  V30 3219 C 304.295 0.109251 5.22186 0
M  V30 3220 H 305.989 0.340336 2.97459 0
M  V30 3221 H 303.535 0.165119 1.4305 0
M  V30 3222 H 305.488 -1.9798 3.71997 0
M  V30 3223 H 304.212 -2.11917 2.48513 0
M  V30 3224 H 302.871 -0.333442 3.6508 0
M  V30 3225 H 302.519 -2.74427 4.21544 0
M  V30 3226 H 302.219 -1.6976 5.62544 0
M  V30 3227 H 303.743 -2.62331 5.51375 0
M  V30 3228 H 305.157 -0.361405 5.7216 0
M  V30 3229 H 303.554 0.383316 5.98875 0
M  V30 3230 H 304.624 1.03887 4.73641 0
M  V30 3231 N 305.967 -1.56429 0.191757 0
M  V30 3232 C 306.897 -2.21937 -0.725696 0
M  V30 3233 C 307.878 -1.1814 -1.2238 0
M  V30 3234 O 309.063 -1.46636 -1.27325 0
M  V30 3235 C 306.193 -2.87611 -1.94672 0
M  V30 3236 C 305.147 -3.97623 -1.58366 0
M  V30 3237 C 304.473 -4.50446 -2.88102 0
M  V30 3238 C 305.773 -5.16197 -0.796133 0
M  V30 3239 H 307.467 -2.98861 -0.179606 0
M  V30 3240 H 305.013 -1.43749 -0.0849464 0
M  V30 3241 H 306.966 -3.3212 -2.59373 0
M  V30 3242 H 305.69 -2.08087 -2.51728 0
M  V30 3243 H 304.349 -3.53801 -0.960247 0
M  V30 3244 H 303.997 -3.67688 -3.43241 0
M  V30 3245 H 303.697 -5.24675 -2.64556 0
M  V30 3246 H 305.221 -4.97654 -3.53798 0
M  V30 3247 H 306.635 -5.57271 -1.34618 0
M  V30 3248 H 305.032 -5.96471 -0.658928 0
M  V30 3249 H 306.102 -4.84473 0.203478 0
M  V30 3250 N 307.445 0.0818655 -1.57387 0
M  V30 3251 C 308.395 1.10501 -1.99433 0
M  V30 3252 C 309.379 1.35041 -0.874798 0
M  V30 3253 O 310.571 1.35511 -1.13868 0
M  V30 3254 C 307.7 2.42159 -2.43339 0
M  V30 3255 C 306.786 2.20937 -3.62005 0
M  V30 3256 N 307.177 1.69616 -4.76512 0
M  V30 3257 C 305.475 2.51451 -3.68359 0
M  V30 3258 C 306.176 1.62973 -5.58404 0
M  V30 3259 N 305.152 2.08664 -5.01956 0
M  V30 3260 H 308.954 0.701373 -2.85408 0
M  V30 3261 H 306.468 0.289096 -1.59806 0
M  V30 3262 H 308.465 3.16208 -2.71695 0
M  V30 3263 H 307.125 2.83249 -1.58746 0
M  V30 3264 H 308.136 1.38624 -4.99003 0
M  V30 3265 H 304.813 2.95975 -2.94457 0
M  V30 3266 H 306.203 1.24233 -6.60315 0
M  V30 3267 N 308.923 1.53595 0.353017 0
M  V30 3268 C 309.833 1.83897 1.45667 0
M  V30 3269 C 310.849 0.728334 1.58023 0
M  V30 3270 O 312.025 1.01968 1.73679 0
M  V30 3271 C 309.09 2.03383 2.80778 0
M  V30 3272 C 308.151 3.27262 2.77845 0
M  V30 3273 C 307.384 3.45809 4.06512 0
M  V30 3274 O 307.607 2.68387 5.03314 0
M  V30 3275 O 306.541 4.39207 4.11559 0
M  V30 3276 H 310.367 2.77686 1.2298 0
M  V30 3277 H 307.952 1.39132 0.544308 0
M  V30 3278 H 309.834 2.17698 3.60812 0
M  V30 3279 H 308.509 1.12783 3.03417 0
M  V30 3280 H 307.416 3.18359 1.96465 0
M  V30 3281 H 308.749 4.17824 2.60161 0
M  V30 3282 N 310.401 -0.613514 1.45168 0
M  V30 3283 C 311.649 -1.36997 1.48581 0
M  V30 3284 C 311.97 -1.94589 0.126545 0
M  V30 3285 O 311.24 -1.76816 -0.843372 0
M  V30 3286 H 309.82 -0.508558 0.547154 0
M  V30 3287 H 312.482 -0.720853 1.81079 0
M  V30 3288 H 311.578 -2.1924 2.22127 0
M  V30 3289 N 311.879 -1.3236 -0.855495 0
M  V30 3290 C 312.826 -1.21225 -1.964 0
M  V30 3291 C 313.796 -0.0946204 -1.6583 0
M  V30 3292 O 314.981 -0.27002 -1.8888 0
M  V30 3293 C 312.121 -0.940419 -3.32039 0
M  V30 3294 C 311.234 -2.14276 -3.75113 0
M  V30 3295 C 310.369 -1.80648 -4.9954 0
M  V30 3296 C 309.408 -2.97208 -5.35102 0
M  V30 3297 N 308.545 -2.63678 -6.50706 0
M  V30 3298 H 313.385 -2.16042 -2.05255 0
M  V30 3299 H 310.922 -1.07451 -1.00463 0
M  V30 3300 H 312.88 -0.763311 -4.10158 0
M  V30 3301 H 311.51 -0.0290413 -3.22787 0
M  V30 3302 H 310.562 -2.43017 -2.92655 0
M  V30 3303 H 311.874 -3.01468 -3.97389 0
M  V30 3304 H 311.028 -1.59484 -5.85363 0
M  V30 3305 H 309.767 -0.906678 -4.79198 0
M  V30 3306 H 308.772 -3.19004 -4.47791 0
M  V30 3307 H 309.997 -3.87918 -5.57401 0
M  V30 3308 H 307.943 -1.76238 -6.31883 0
M  V30 3309 H 307.86 -3.444 -6.72997 0
M  V30 3310 H 309.128 -2.45942 -7.39684 0
M  V30 3311 N 313.357 1.07166 -1.15556 0
M  V30 3312 C 314.603 1.80065 -0.932984 0
M  V30 3313 C 314.936 1.86586 0.53845 0
M  V30 3314 O 314.211 1.35098 1.39924 0
M  V30 3315 C 314.494 3.25022 -1.55025 0
M  V30 3316 C 314.347 3.26634 -3.09242 0
M  V30 3317 C 315.666 4.22341 -1.2376 0
M  V30 3318 H 312.785 0.653697 -0.340366 0
M  V30 3319 H 315.427 1.25389 -1.4275 0
M  V30 3320 H 313.577 3.71712 -1.12972 0
M  V30 3321 H 315.249 2.88173 -3.60214 0
M  V30 3322 H 313.492 2.65539 -3.43033 0
M  V30 3323 H 314.163 4.28854 -3.47546 0
M  V30 3324 H 316.639 3.8405 -1.60139 0
M  V30 3325 H 315.515 5.22053 -1.69564 0
M  V30 3326 H 315.776 4.41828 -0.154938 0
M  V30 3327 N 314.835 0.952656 1.25548 0
M  V30 3328 C 315.765 0.489287 2.28316 0
M  V30 3329 C 316.746 -0.463359 1.63667 0
M  V30 3330 O 317.931 -0.36274 1.90782 0
M  V30 3331 C 315.061 -0.235603 3.465 0
M  V30 3332 C 314.015 0.631593 4.23314 0
M  V30 3333 C 313.341 -0.223923 5.34231 0
M  V30 3334 C 314.641 1.90871 4.86174 0
M  V30 3335 H 316.335 1.34822 2.67326 0
M  V30 3336 H 313.881 0.649728 1.28509 0
M  V30 3337 H 315.834 -0.570882 4.17515 0
M  V30 3338 H 314.558 -1.12877 3.06474 0
M  V30 3339 H 313.217 0.949929 3.54079 0
M  V30 3340 H 312.865 -1.11678 4.90446 0
M  V30 3341 H 312.565 0.35299 5.86539 0
M  V30 3342 H 314.089 -0.554214 6.0808 0
M  V30 3343 H 315.503 1.63997 5.49343 0
M  V30 3344 H 313.9 2.43112 5.4865 0
M  V30 3345 H 314.97 2.61304 4.08471 0
M  V30 3346 N 316.313 -1.40141 0.720998 0
M  V30 3347 C 317.263 -2.27949 0.0482544 0
M  V30 3348 C 318.247 -1.43538 -0.727021 0
M  V30 3349 O 319.439 -1.6658 -0.598332 0
M  V30 3350 C 316.568 -3.32126 -0.868729 0
M  V30 3351 C 315.654 -4.24008 -0.0883515 0
M  V30 3352 N 316.045 -4.97154 0.931226 0
M  V30 3353 C 314.343 -4.4485 -0.320105 0
M  V30 3354 C 315.044 -5.64587 1.4006 0
M  V30 3355 N 314.02 -5.38787 0.721752 0
M  V30 3356 H 317.822 -2.81948 0.829609 0
M  V30 3357 H 315.336 -1.52656 0.554067 0
M  V30 3358 H 317.333 -3.93884 -1.36605 0
M  V30 3359 H 315.993 -2.79687 -1.6494 0
M  V30 3360 H 317.004 -5.01 1.31222 0
M  V30 3361 H 313.681 -4.03378 -1.07668 0
M  V30 3362 H 315.071 -6.33175 2.24808 0
M  V30 3363 N 317.792 -0.46758 -1.50504 0
M  V30 3364 C 319.022 0.086288 -2.0642 0
M  V30 3365 C 319.43 1.34369 -1.33197 0
M  V30 3366 O 318.773 1.79431 -0.393747 0
M  V30 3367 C 318.835 0.443846 -3.5675 0
M  V30 3368 C 318.499 -0.711035 -4.51435 0
M  V30 3369 C 319.496 -1.59205 -4.94924 0
M  V30 3370 C 317.181 -0.900363 -4.94165 0
M  V30 3371 C 319.175 -2.64683 -5.79846 0
M  V30 3372 C 316.862 -1.95837 -5.7887 0
M  V30 3373 C 317.86 -2.82997 -6.21612 0
M  V30 3374 O 317.548 -3.86977 -7.0463 0
M  V30 3375 H 317.28 -0.00217814 -0.675996 0
M  V30 3376 H 319.834 -0.654346 -1.94698 0
M  V30 3377 H 318.064 1.23762 -3.6636 0
M  V30 3378 H 319.753 0.932386 -3.95046 0
M  V30 3379 H 320.519 -1.45745 -4.62583 0
M  V30 3380 H 316.398 -0.231427 -4.60419 0
M  V30 3381 H 319.942 -3.32745 -6.13128 0
M  V30 3382 H 315.839 -2.09305 -6.10624 0
M  V30 3383 H 316.607 -3.83923 -7.22873 0
M  V30 3384 N 319.27 1.56325 -0.20005 0
M  V30 3385 C 320.686 1.58839 0.155716 0
M  V30 3386 C 320.886 1.21636 1.60645 0
M  V30 3387 O 319.942 0.941437 2.34293 0
M  V30 3388 C 321.255 3.0032 -0.151124 0
M  V30 3389 C 322.803 3.12866 -0.0916284 0
M  V30 3390 C 323.278 4.56488 -0.371845 0
M  V30 3391 N 324.769 4.62089 -0.320641 0
M  V30 3392 C 325.504 5.71116 -0.511243 0
M  V30 3393 N 325 6.88592 -0.762461 0
M  V30 3394 N 326.793 5.60335 -0.445157 0
M  V30 3395 H 318.944 1.78788 -1.14668 0
M  V30 3396 H 321.207 0.829996 -0.458051 0
M  V30 3397 H 320.913 3.32117 -1.15721 0
M  V30 3398 H 320.787 3.73257 0.543986 0
M  V30 3399 H 323.174 2.80878 0.905065 0
M  V30 3400 H 323.255 2.42304 -0.81989 0
M  V30 3401 H 322.899 4.89189 -1.36588 0
M  V30 3402 H 322.829 5.25246 0.377362 0
M  V30 3403 H 325.32 3.77665 -0.13329 0
M  V30 3404 H 325.633 7.67581 -0.896576 0
M  V30 3405 H 323.978 6.90387 -0.799412 0
M  V30 3406 H 327.169 4.67436 -0.249278 0
M  V30 3407 H 327.342 6.45243 -0.597116 0
M  V30 3408 N 320.748 -0.0735177 1.57428 0
M  V30 3409 C 321.997 -0.771809 1.86349 0
M  V30 3410 C 322.31 -1.78828 0.792452 0
M  V30 3411 O 323.516 -2.53602 0.96945 0
M  V30 3412 C 321.972 -1.42358 3.30548 0
M  V30 3413 C 321.58 -0.445761 4.45777 0
M  V30 3414 C 323.324 -2.10434 3.6867 0
M  V30 3415 C 321.231 -1.10335 5.81016 0
M  V30 3416 H 320.161 -0.291999 0.695164 0
M  V30 3417 H 322.812 -0.0250749 1.83483 0
M  V30 3418 H 321.194 -2.21852 3.28021 0
M  V30 3419 H 322.368 0.319239 4.59693 0
M  V30 3420 H 320.683 0.130457 4.16196 0
M  V30 3421 H 323.28 -2.60405 4.67004 0
M  V30 3422 H 323.623 -2.90298 2.98383 0
M  V30 3423 H 324.156 -1.37773 3.7318 0
M  V30 3424 H 320.895 -0.345061 6.54591 0
M  V30 3425 H 320.415 -1.83925 5.70904 0
M  V30 3426 H 322.094 -1.62367 6.26295 0
M  V30 3427 N 322.226 -1.5378 -0.344866 0
M  V30 3428 C 323.503 -1.61589 -1.10219 0
M  V30 3429 C 323.883 -0.436316 -2.06542 0
M  V30 3430 O 323.231 0.571543 -2.21237 0
M  V30 3431 C 323.441 -2.97602 -1.82301 0
M  V30 3432 C 324.789 -3.5291 -2.36093 0
M  V30 3433 O 325.813 -2.99768 -1.924 0
M  V30 3434 O 324.672 -4.45859 -3.16026 0
M  V30 3435 H 321.766 -0.653522 -0.506792 0
M  V30 3436 H 324.312 -1.66126 -0.346465 0
M  V30 3437 H 323.084 -3.74893 -1.12121 0
M  V30 3438 H 322.707 -2.9665 -2.64735 0
M  V30 3439 N 323.704 0.605807 -1.45491 0
M  V30 3440 C 324.651 1.7164 -1.54299 0
M  V30 3441 C 325.621 1.61486 -0.388761 0
M  V30 3442 O 326.806 1.81039 -0.602445 0
M  V30 3443 C 323.946 3.09953 -1.51734 0
M  V30 3444 C 323.059 3.309 -2.77721 0
M  V30 3445 C 322.194 4.59329 -2.66816 0
M  V30 3446 C 321.233 4.7354 -3.87848 0
M  V30 3447 N 320.37 5.9327 -3.75467 0
M  V30 3448 H 325.21 1.63449 -2.49176 0
M  V30 3449 H 322.747 0.796957 -1.23641 0
M  V30 3450 H 324.705 3.89977 -1.48235 0
M  V30 3451 H 323.335 3.17098 -0.604068 0
M  V30 3452 H 322.387 2.44639 -2.913 0
M  V30 3453 H 323.699 3.37274 -3.67488 0
M  V30 3454 H 322.853 5.4755 -2.61292 0
M  V30 3455 H 321.592 4.55355 -1.74651 0
M  V30 3456 H 320.597 3.83741 -3.93729 0
M  V30 3457 H 321.822 4.79309 -4.81082 0
M  V30 3458 H 319.768 5.90338 -2.86072 0
M  V30 3459 H 319.685 6.00811 -4.5887 0
M  V30 3460 H 320.953 6.83984 -3.73879 0
M  V30 3461 N 325.182 1.32811 0.848464 0
M  V30 3462 C 326.459 1.14334 1.58704 0
M  V30 3463 C 326.839 -0.293948 2.09043 0
M  V30 3464 O 326.187 -1.29153 1.88499 0
M  V30 3465 C 326.397 2.17626 2.72837 0
M  V30 3466 C 327.745 2.51282 3.42261 0
M  V30 3467 O 328.769 2.16219 2.83068 0
M  V30 3468 O 327.628 3.11413 4.49093 0
M  V30 3469 H 324.722 0.441601 0.699226 0
M  V30 3470 H 327.268 1.44362 0.892053 0
M  V30 3471 H 326.04 3.14211 2.3321 0
M  V30 3472 H 325.663 1.88628 3.50008 0
M  V30 3473 N 326.66 -1.06551 1.16123 0
M  V30 3474 C 327.607 -2.13961 0.865414 0
M  V30 3475 C 328.577 -1.65066 -0.185055 0
M  V30 3476 O 329.762 -1.90732 -0.05083 0
M  V30 3477 C 326.902 -3.43113 0.369776 0
M  V30 3478 C 326.015 -4.05756 1.48276 0
M  V30 3479 C 325.15 -5.22773 0.942414 0
M  V30 3480 C 324.189 -5.77395 2.03179 0
M  V30 3481 N 323.326 -6.85731 1.50721 0
M  V30 3482 H 328.166 -2.38605 1.78527 0
M  V30 3483 H 325.703 -1.17072 0.890646 0
M  V30 3484 H 327.661 -4.17151 0.0640643 0
M  V30 3485 H 326.291 -3.18695 -0.513143 0
M  V30 3486 H 325.343 -3.29292 1.9045 0
M  V30 3487 H 326.655 -4.42351 2.30493 0
M  V30 3488 H 325.809 -6.03827 0.589729 0
M  V30 3489 H 324.548 -4.87618 0.0895191 0
M  V30 3490 H 323.553 -4.94981 2.3932 0
M  V30 3491 H 324.778 -6.14603 2.8886 0
M  V30 3492 H 322.724 -6.52499 0.676811 0
M  V30 3493 H 322.641 -7.21254 2.26557 0
M  V30 3494 H 323.909 -7.7047 1.18303 0
M  V30 3495 N 328.138 -0.959301 -1.25041 0
M  V30 3496 C 329.366 -0.633949 -1.96948 0
M  V30 3497 C 329.781 0.794916 -1.7125 0
M  V30 3498 O 329.138 1.53231 -0.991287 0
M  V30 3499 C 329.189 -0.888805 -3.50403 0
M  V30 3500 O 328.91 -2.26149 -3.75218 0
M  V30 3501 C 330.411 -0.576482 -4.39536 0
M  V30 3502 H 327.631 -0.237263 -0.627652 0
M  V30 3503 H 330.175 -1.28495 -1.59089 0
M  V30 3504 H 328.33 -0.284145 -3.86357 0
M  V30 3505 H 328.744 -2.33514 -4.6965 0
M  V30 3506 H 330.218 -0.805314 -5.46094 0
M  V30 3507 H 330.695 0.489075 -4.36468 0
M  V30 3508 H 331.301 -1.16067 -4.09156 0
M  V30 3509 N 329.616 1.39756 -0.72842 0
M  V30 3510 C 330.864 2.00248 -0.272946 0
M  V30 3511 C 331.185 1.58077 1.14178 0
M  V30 3512 O 330.455 0.826014 1.77634 0
M  V30 3513 H 329.035 0.740554 -0.0979247 0
M  V30 3514 H 331.697 1.70903 -0.936912 0
M  V30 3515 H 330.793 3.10495 -0.316142 0
M  V30 3516 N 331.094 0.475555 1.50254 0
M  V30 3517 C 332.041 -0.316293 2.28622 0
M  V30 3518 C 333.011 -0.983227 1.33873 0
M  V30 3519 O 334.196 -0.994805 1.62814 0
M  V30 3520 C 331.336 -1.38975 3.1588 0
M  V30 3521 C 330.449 -0.737146 4.25664 0
M  V30 3522 C 329.584 -1.78887 5.00173 0
M  V30 3523 C 328.623 -1.11676 6.01826 0
M  V30 3524 N 327.76 -2.11154 6.69596 0
M  V30 3525 H 332.6 0.358297 2.95838 0
M  V30 3526 H 330.137 0.188541 1.45887 0
M  V30 3527 H 332.095 -2.02383 3.64825 0
M  V30 3528 H 330.725 -2.03344 2.50701 0
M  V30 3529 H 329.777 0.0096065 3.80399 0
M  V30 3530 H 331.089 -0.206816 4.98371 0
M  V30 3531 H 330.243 -2.49865 5.52859 0
M  V30 3532 H 328.982 -2.35302 4.27182 0
M  V30 3533 H 327.987 -0.392633 5.48396 0
M  V30 3534 H 329.212 -0.55945 6.76792 0
M  V30 3535 H 327.158 -2.66577 5.99394 0
M  V30 3536 H 327.075 -1.63118 7.38193 0
M  V30 3537 H 328.343 -2.81497 7.26897 0
M  V30 3538 N 332.573 -1.56217 0.208337 0
M  V30 3539 C 333.503 -2.22694 -0.702116 0
M  V30 3540 C 334.484 -1.19432 -1.2112 0
M  V30 3541 O 335.669 -1.47978 -1.25762 0
M  V30 3542 C 332.799 -2.8966 -1.9161 0
M  V30 3543 C 331.753 -3.9928 -1.5414 0
M  V30 3544 C 331.079 -4.53476 -2.83308 0
M  V30 3545 C 332.379 -5.17012 -0.741339 0
M  V30 3546 H 334.073 -2.99034 -0.147898 0
M  V30 3547 H 331.619 -1.43831 -0.0696951 0
M  V30 3548 H 333.572 -3.34852 -2.55836 0
M  V30 3549 H 332.296 -2.10746 -2.49507 0
M  V30 3550 H 330.955 -3.54799 -0.922668 0
M  V30 3551 H 330.603 -3.71308 -3.39322 0
M  V30 3552 H 330.303 -5.27451 -2.58976 0
M  V30 3553 H 331.827 -5.01378 -3.485 0
M  V30 3554 H 333.241 -5.58667 -1.28699 0
M  V30 3555 H 331.638 -5.97137 -0.595627 0
M  V30 3556 H 332.708 -4.8423 0.254851 0
M  V30 3557 N 334.051 0.0651679 -1.57465 0
M  V30 3558 C 335.276 0.779605 -1.9219 0
M  V30 3559 C 335.701 1.69988 -0.805333 0
M  V30 3560 O 335.059 1.79685 0.241435 0
M  V30 3561 C 335.107 1.54364 -3.2589 0
M  V30 3562 O 334.211 2.65474 -3.1559 0
M  V30 3563 H 333.552 0.212249 -0.629163 0
M  V30 3564 H 336.082 0.0314294 -2.04576 0
M  V30 3565 H 336.092 1.92146 -3.59922 0
M  V30 3566 H 334.767 0.868457 -4.06732 0
M  V30 3567 H 333.344 2.30501 -2.93128 0
M  V30 3568 N 335.529 1.53961 0.336706 0
M  V30 3569 C 336.778 1.70751 1.07363 0
M  V30 3570 C 337.091 0.481061 1.89592 0
M  V30 3571 O 338.297 0.530046 2.66276 0
M  V30 3572 C 336.753 3.01965 1.95818 0
M  V30 3573 C 336.361 4.31971 1.18764 0
M  V30 3574 C 338.105 3.28121 2.69327 0
M  V30 3575 C 336.012 5.54255 2.06289 0
M  V30 3576 H 334.942 0.636292 0.404535 0
M  V30 3577 H 337.593 1.80459 0.332681 0
M  V30 3578 H 335.975 2.86132 2.7376 0
M  V30 3579 H 337.149 4.5853 0.456849 0
M  V30 3580 H 335.464 4.12481 0.569946 0
M  V30 3581 H 338.061 4.16673 3.35094 0
M  V30 3582 H 338.404 2.45426 3.36261 0
M  V30 3583 H 338.937 3.44762 1.98454 0
M  V30 3584 H 335.676 6.39513 1.43885 0
M  V30 3585 H 335.196 5.31935 2.77138 0
M  V30 3586 H 336.875 5.90159 2.65182 0
M  V30 3587 N 337.007 -0.598083 1.45811 0
M  V30 3588 C 338.418 -1.18011 1.44673 0
M  V30 3589 C 338.769 -1.95378 0.179364 0
M  V30 3590 O 337.894 -2.04124 -0.718509 0
M  V30 3591 C 338.489 -2.14677 2.62105 0
M  V30 3592 C 337.048 -2.68236 2.64057 0
M  V30 3593 C 336.195 -1.43816 2.37091 0
M  V30 3594 H 339.146 -0.38686 1.53913 0
M  V30 3595 H 339.167 -2.97878 2.36746 0
M  V30 3596 H 338.679 -1.5834 3.5433 0
M  V30 3597 H 336.78 -3.28486 1.75864 0
M  V30 3598 H 336.893 -3.12021 3.63566 0
M  V30 3599 H 335.257 -1.731 1.86838 0
M  V30 3600 H 336.04 -0.893333 3.31473 0
M  V30 3601 N 338.485 -1.33259 -0.841409 0
M  V30 3602 C 339.395 -1.25332 -1.98316 0
M  V30 3603 C 340.411 -0.164364 -1.73222 0
M  V30 3604 O 341.587 -0.387486 -1.97637 0
M  V30 3605 C 338.652 -0.990078 -3.32262 0
M  V30 3606 C 337.713 -2.16879 -3.70489 0
M  V30 3607 C 336.946 -1.91801 -4.98044 0
M  V30 3608 O 337.169 -0.867075 -5.63771 0
M  V30 3609 O 336.103 -2.78267 -5.33714 0
M  V30 3610 H 339.929 -2.21344 -2.07944 0
M  V30 3611 H 337.514 -1.1328 -0.974058 0
M  V30 3612 H 339.396 -0.860321 -4.12524 0
M  V30 3613 H 338.071 -0.0602155 -3.23644 0
M  V30 3614 H 336.978 -2.35407 -2.90748 0
M  V30 3615 H 338.311 -3.0819 -3.8377 0
M  V30 3616 N 339.963 1.05934 -1.16686 0
M  V30 3617 C 341.211 1.78447 -0.948744 0
M  V30 3618 C 341.532 1.87813 0.524523 0
M  V30 3619 O 340.802 1.38945 1.38098 0
M  V30 3620 H 339.382 0.660971 -0.348033 0
M  V30 3621 H 342.044 1.27947 -1.47022 0
M  V30 3622 H 341.14 2.80394 -1.37061 0
M  V30 3623 N 341.441 0.965919 1.2453 0
M  V30 3624 C 342.388 0.49402 2.25451 0
M  V30 3625 C 343.358 -0.45948 1.59618 0
M  V30 3626 O 344.543 -0.370238 1.87173 0
M  V30 3627 C 341.683 -0.211359 3.44452 0
M  V30 3628 C 340.796 0.7807 4.24887 0
M  V30 3629 C 339.931 0.0516105 5.31175 0
M  V30 3630 C 338.97 1.03385 6.03306 0
M  V30 3631 N 338.107 0.334887 7.01301 0
M  V30 3632 H 342.947 1.35946 2.65184 0
M  V30 3633 H 340.484 0.681515 1.3036 0
M  V30 3634 H 342.442 -0.637 4.12308 0
M  V30 3635 H 341.072 -1.04077 3.05562 0
M  V30 3636 H 340.124 1.32479 3.56586 0
M  V30 3637 H 341.436 1.52978 4.74762 0
M  V30 3638 H 340.59 -0.432114 6.05159 0
M  V30 3639 H 339.329 -0.730179 4.82203 0
M  V30 3640 H 338.334 1.52847 5.28127 0
M  V30 3641 H 339.559 1.81606 6.54367 0
M  V30 3642 H 337.505 -0.427959 6.54603 0
M  V30 3643 H 337.422 1.02287 7.49048 0
M  V30 3644 H 338.69 -0.126928 7.79397 0
M  V30 3645 N 342.919 -1.39368 0.735821 0
M  V30 3646 C 343.866 -2.30599 0.0963825 0
M  V30 3647 C 344.836 -1.49257 -0.728794 0
M  V30 3648 O 346.021 -1.77941 -0.688588 0
M  V30 3649 C 343.161 -3.35596 -0.804305 0
M  V30 3650 C 342.274 -4.31987 0.0335761 0
M  V30 3651 C 341.409 -5.24053 -0.868461 0
M  V30 3652 C 340.448 -6.12095 -0.0258776 0
M  V30 3653 N 339.585 -6.96514 -0.883893 0
M  V30 3654 H 344.425 -2.8471 0.880002 0
M  V30 3655 H 341.962 -1.40188 0.445619 0
M  V30 3656 H 343.92 -3.95062 -1.34096 0
M  V30 3657 H 342.55 -2.82938 -1.55389 0
M  V30 3658 H 341.602 -3.74133 0.68766 0
M  V30 3659 H 342.914 -4.94074 0.685036 0
M  V30 3660 H 342.068 -5.88549 -1.47293 0
M  V30 3661 H 340.807 -4.62289 -1.5537 0
M  V30 3662 H 339.812 -5.4661 0.591386 0
M  V30 3663 H 341.037 -6.75923 0.656156 0
M  V30 3664 H 338.983 -6.37318 -1.55441 0
M  V30 3665 H 338.9 -7.55448 -0.288931 0
M  V30 3666 H 340.168 -7.65439 -1.4739 0
M  V30 3667 N 344.397 -0.483516 -1.5 0
M  V30 3668 C 345.644 0.0671597 -2.02389 0
M  V30 3669 C 345.972 1.38597 -1.36459 0
M  V30 3670 O 345.227 1.89634 -0.483458 0
M  V30 3671 C 345.526 0.286226 -3.56252 0
M  V30 3672 C 345.192 -0.952416 -4.40726 0
M  V30 3673 C 343.854 -1.29199 -4.63531 0
M  V30 3674 C 346.206 -1.77655 -4.89988 0
M  V30 3675 C 343.534 -2.45553 -5.32842 0
M  V30 3676 C 345.886 -2.93147 -5.60578 0
M  V30 3677 C 344.55 -3.27505 -5.81633 0
M  V30 3678 H 343.82 0.0245755 -0.740592 0
M  V30 3679 H 346.467 -0.640124 -1.80485 0
M  V30 3680 H 344.772 1.07587 -3.76739 0
M  V30 3681 H 346.469 0.726473 -3.94365 0
M  V30 3682 H 343.059 -0.677881 -4.23205 0
M  V30 3683 H 347.243 -1.52737 -4.72213 0
M  V30 3684 H 342.499 -2.72431 -5.47349 0
M  V30 3685 H 346.673 -3.57344 -5.97727 0
M  V30 3686 H 344.3 -4.1777 -6.35116 0
M  V30 3687 N 345.875 1.56104 -0.216619 0
M  V30 3688 C 347.152 1.89988 0.465165 0
M  V30 3689 C 347.532 1.13326 1.78102 0
M  V30 3690 O 346.88 0.241033 2.27225 0
M  V30 3691 C 347.09 3.42646 0.662939 0
M  V30 3692 C 348.438 4.13311 0.972602 0
M  V30 3693 O 349.462 3.48217 0.749901 0
M  V30 3694 O 348.321 5.28396 1.39499 0
M  V30 3695 H 345.415 0.78979 0.245276 0
M  V30 3696 H 347.961 1.67721 -0.258436 0
M  V30 3697 H 346.733 3.90399 -0.26543 0
M  V30 3698 H 346.356 3.70677 1.43821 0
M  V30 3699 N 347.353 -0.0568162 1.57498 0
M  V30 3700 C 348.581 -0.765626 1.92213 0
M  V30 3701 C 348.996 -1.70353 0.813961 0
M  V30 3702 O 348.353 -1.81268 -0.211701 0
M  V30 3703 C 348.404 -1.5465 3.2675 0
M  V30 3704 O 348.125 -0.646278 4.33307 0
M  V30 3705 C 349.626 -2.35497 3.75574 0
M  V30 3706 H 346.846 -0.216835 0.634999 0
M  V30 3707 H 349.39 -0.0226146 2.04487 0
M  V30 3708 H 347.545 -2.24165 3.15957 0
M  V30 3709 H 347.959 -1.19093 5.108 0
M  V30 3710 H 349.433 -2.85722 4.72299 0
M  V30 3711 H 349.91 -3.15692 3.05344 0
M  V30 3712 H 350.516 -1.7111 3.8936 0
M  V30 3713 N 348.832 -1.54138 -0.328536 0
M  V30 3714 C 349.762 -1.86167 -1.40939 0
M  V30 3715 C 350.743 -0.718044 -1.54202 0
M  V30 3716 O 351.928 -0.971328 -1.68163 0
M  V30 3717 C 349.058 -2.08461 -2.77779 0
M  V30 3718 C 348.012 -3.24299 -2.7931 0
M  V30 3719 C 347.338 -3.31955 -4.19178 0
M  V30 3720 C 348.638 -4.62065 -2.43502 0
M  V30 3721 H 350.332 -2.76689 -1.14383 0
M  V30 3722 H 347.878 -1.33132 -0.548806 0
M  V30 3723 H 349.831 -2.29453 -3.53454 0
M  V30 3724 H 348.555 -1.14684 -3.05802 0
M  V30 3725 H 347.214 -3.03187 -2.0609 0
M  V30 3726 H 346.862 -2.35745 -4.44335 0
M  V30 3727 H 346.562 -4.09805 -4.2111 0
M  V30 3728 H 348.086 -3.55175 -4.96672 0
M  V30 3729 H 349.5 -4.8297 -3.08889 0
M  V30 3730 H 347.897 -5.42429 -2.56693 0
M  V30 3731 H 348.967 -4.64652 -1.38659 0
M  V30 3732 N 350.31 0.590341 -1.46126 0
M  V30 3733 C 351.556 1.34874 -1.52252 0
M  V30 3734 C 351.911 1.91658 -0.168807 0
M  V30 3735 O 351.204 1.73093 0.821556 0
M  V30 3736 C 351.398 2.5032 -2.55097 0
M  V30 3737 C 351.227 2.04843 -4.00337 0
M  V30 3738 C 349.997 1.90213 -4.68132 0
M  V30 3739 C 352.195 1.61267 -4.88362 0
M  V30 3740 N 350.177 1.38727 -5.9802 0
M  V30 3741 C 351.548 1.21319 -6.08015 0
M  V30 3742 C 353.603 1.49015 -4.75078 0
M  V30 3743 C 352.306 0.7034 -7.15852 0
M  V30 3744 C 354.332 0.994401 -5.8298 0
M  V30 3745 C 353.694 0.604659 -7.018 0
M  V30 3746 H 349.793 0.486803 -0.612002 0
M  V30 3747 H 352.377 0.673007 -1.82698 0
M  V30 3748 H 350.548 3.15466 -2.26574 0
M  V30 3749 H 352.28 3.1725 -2.51266 0
M  V30 3750 H 349.035 2.11927 -4.23537 0
M  V30 3751 H 349.459 1.15168 -6.67132 0
M  V30 3752 H 354.101 1.77768 -3.83612 0
M  V30 3753 H 351.819 0.403446 -8.07092 0
M  V30 3754 H 355.405 0.903621 -5.7474 0
M  V30 3755 H 354.285 0.226963 -7.83871 0
M  V30 3756 N 351.788 1.33704 0.83433 0
M  V30 3757 C 352.72 1.20172 1.9517 0
M  V30 3758 C 353.733 0.131572 1.62267 0
M  V30 3759 O 354.922 0.382406 1.74356 0
M  V30 3760 C 352.022 0.821716 3.28787 0
M  V30 3761 C 351.195 1.98446 3.89792 0
M  V30 3762 C 350.254 1.58469 5.01771 0
M  V30 3763 O 349.28 2.29968 5.20676 0
M  V30 3764 N 350.482 0.492291 5.78409 0
M  V30 3765 H 353.247 2.16429 2.07313 0
M  V30 3766 H 350.808 1.26509 1.0103 0
M  V30 3767 H 352.8 0.536291 4.01131 0
M  V30 3768 H 351.37 -0.0503058 3.1256 0
M  V30 3769 H 350.59 2.43526 3.09982 0
M  V30 3770 H 351.878 2.76236 4.27283 0
M  V30 3771 H 351.276 -0.102349 5.65607 0
M  V30 3772 H 349.833 0.266555 6.51255 0
M  V30 3773 N 353.266 -1.05314 1.17247 0
M  V30 3774 C 354.196 -2.1498 0.911362 0
M  V30 3775 C 355.177 -1.69471 -0.146169 0
M  V30 3776 O 356.362 -1.942 0.003812 0
M  V30 3777 C 353.492 -3.4472 0.422528 0
M  V30 3778 C 352.446 -4.03789 1.4191 0
M  V30 3779 C 351.772 -5.28858 0.788274 0
M  V30 3780 C 353.072 -4.41418 2.7919 0
M  V30 3781 H 354.766 -2.3708 1.82848 0
M  V30 3782 H 352.312 -1.13938 0.880569 0
M  V30 3783 H 354.265 -4.20787 0.227289 0
M  V30 3784 H 352.989 -3.22269 -0.530123 0
M  V30 3785 H 351.648 -3.2979 1.60106 0
M  V30 3786 H 351.296 -5.02709 -0.171173 0
M  V30 3787 H 350.996 -5.69338 1.45353 0
M  V30 3788 H 352.52 -6.07612 0.603282 0
M  V30 3789 H 353.934 -5.08524 2.64719 0
M  V30 3790 H 352.331 -4.92913 3.42282 0
M  V30 3791 H 353.401 -3.51819 3.33693 0
M  V30 3792 N 354.744 -0.972509 -1.24016 0
M  V30 3793 C 355.99 -0.637978 -1.92504 0
M  V30 3794 C 356.323 0.825383 -1.75787 0
M  V30 3795 O 355.598 1.59442 -1.11393 0
M  V30 3796 C 355.881 -1.01942 -3.45369 0
M  V30 3797 C 355.734 -2.53983 -3.71231 0
M  V30 3798 C 357.053 -0.55751 -4.36555 0
M  V30 3799 H 354.172 -0.233248 -0.699117 0
M  V30 3800 H 356.814 -1.21238 -1.46292 0
M  V30 3801 H 354.964 -0.530656 -3.84859 0
M  V30 3802 H 356.636 -3.10374 -3.41271 0
M  V30 3803 H 354.879 -2.96968 -3.16216 0
M  V30 3804 H 355.55 -2.75723 -4.78206 0
M  V30 3805 H 358.026 -0.977029 -4.04467 0
M  V30 3806 H 356.902 -0.85292 -5.42233 0
M  V30 3807 H 357.163 0.542328 -4.38761 0
M  V30 3808 N 356.222 1.38976 -0.743202 0
M  V30 3809 C 357.132 2.3434 -0.110399 0
M  V30 3810 C 358.148 1.58741 0.712559 0
M  V30 3811 O 359.324 1.9099 0.639125 0
M  V30 3812 C 356.389 3.37812 0.780012 0
M  V30 3813 C 355.45 4.29263 -0.0561319 0
M  V30 3814 C 354.683 5.27793 0.791875 0
M  V30 3815 O 354.906 5.33043 2.03031 0
M  V30 3816 O 353.84 6.01512 0.216183 0
M  V30 3817 H 357.666 2.90129 -0.897714 0
M  V30 3818 H 355.251 1.40643 -0.503966 0
M  V30 3819 H 357.133 4.01194 1.28923 0
M  V30 3820 H 355.808 2.84395 1.546 0
M  V30 3821 H 354.715 3.69076 -0.611056 0
M  V30 3822 H 356.048 4.85907 -0.784531 0
M  V30 3823 N 357.7 0.491464 1.49741 0
M  V30 3824 C 358.65 -0.311086 2.25868 0
M  V30 3825 C 359.634 -0.943857 1.30308 0
M  V30 3826 O 360.826 -0.853035 1.55088 0
M  V30 3827 C 357.955 -1.38059 3.14316 0
M  V30 3828 C 357.041 -0.754541 4.17334 0
M  V30 3829 N 357.432 0.137216 5.05614 0
M  V30 3830 C 355.73 -1.01621 4.34269 0
M  V30 3831 C 356.431 0.494614 5.79593 0
M  V30 3832 N 355.407 -0.135169 5.43432 0
M  V30 3833 H 359.209 0.37555 2.91491 0
M  V30 3834 H 356.723 0.306917 1.59473 0
M  V30 3835 H 358.72 -1.96891 3.67477 0
M  V30 3836 H 357.38 -2.06901 2.50244 0
M  V30 3837 H 358.391 0.50741 5.15408 0
M  V30 3838 H 355.068 -1.69808 3.81407 0
M  V30 3839 H 356.458 1.2236 6.60665 0
M  V30 3840 N 359.178 -1.55987 0.224894 0
M  V30 3841 C 360.408 -2.02489 -0.41007 0
M  V30 3842 C 360.816 -1.10391 -1.53657 0
M  V30 3843 O 360.159 -0.106458 -1.83391 0
M  V30 3844 C 360.221 -3.45319 -0.999757 0
M  V30 3845 C 359.885 -4.56999 -0.00827976 0
M  V30 3846 C 360.882 -5.13812 0.793314 0
M  V30 3847 C 358.567 -5.02176 0.111442 0
M  V30 3848 C 360.561 -6.14276 1.7013 0
M  V30 3849 C 358.248 -6.02477 1.02296 0
M  V30 3850 C 359.246 -6.58403 1.81643 0
M  V30 3851 O 358.934 -7.56751 2.71262 0
M  V30 3852 H 358.666 -0.667915 -0.104235 0
M  V30 3853 H 361.22 -2.0257 0.339782 0
M  V30 3854 H 359.45 -3.42318 -1.79876 0
M  V30 3855 H 361.139 -3.7545 -1.54248 0
M  V30 3856 H 361.905 -4.79756 0.711288 0
M  V30 3857 H 357.784 -4.58323 -0.49605 0
M  V30 3858 H 361.328 -6.57854 2.32107 0
M  V30 3859 H 357.225 -6.35954 1.10599 0
M  V30 3860 H 357.993 -7.74286 2.65375 0
M  V30 3861 N 360.656 0.0484629 -1.57525 0
M  V30 3862 C 361.881 0.759177 -1.93006 0
M  V30 3863 C 362.306 1.69125 -0.823317 0
M  V30 3864 O 361.664 1.79931 0.222364 0
M  V30 3865 C 361.712 1.50899 -3.27509 0
M  V30 3866 O 360.816 2.62112 -3.18388 0
M  V30 3867 H 360.157 0.205564 -0.631379 0
M  V30 3868 H 362.687 0.00972959 -2.04598 0
M  V30 3869 H 362.697 1.88317 -3.6194 0
M  V30 3870 H 361.372 0.825269 -4.0763 0
M  V30 3871 H 359.949 2.27379 -2.95556 0
M  V30 3872 N 362.134 1.5431 0.320358 0
M  V30 3873 C 363.364 1.7638 1.07582 0
M  V30 3874 C 363.772 0.513944 1.82086 0
M  V30 3875 O 363.115 -0.525123 1.76035 0
M  V30 3876 C 363.177 2.9055 2.1171 0
M  V30 3877 C 362.841 4.2934 1.56575 0
M  V30 3878 C 363.838 5.10077 1.00586 0
M  V30 3879 C 361.523 4.75893 1.60722 0
M  V30 3880 C 363.517 6.35477 0.494756 0
M  V30 3881 C 361.204 6.0126 1.09224 0
M  V30 3882 C 362.202 6.80886 0.53696 0
M  V30 3883 O 361.89 8.03894 0.0297371 0
M  V30 3884 H 361.622 0.592369 0.325692 0
M  V30 3885 H 364.176 2.02019 0.37116 0
M  V30 3886 H 362.406 2.60489 2.85801 0
M  V30 3887 H 364.095 3.00373 2.73003 0
M  V30 3888 H 364.861 4.75265 0.966869 0
M  V30 3889 H 360.74 4.13957 2.02882 0
M  V30 3890 H 364.284 6.97574 0.0606842 0
M  V30 3891 H 360.181 6.35562 1.12831 0
M  V30 3892 H 360.949 8.18372 0.14486 0
M  V30 3893 N 363.613 -0.582584 1.46437 0
M  V30 3894 C 364.56 -1.69164 1.5701 0
M  V30 3895 C 365.53 -1.60847 0.414403 0
M  V30 3896 O 366.715 -1.80058 0.631171 0
M  V30 3897 C 363.855 -3.075 1.56646 0
M  V30 3898 C 362.968 -3.2644 2.82951 0
M  V30 3899 C 362.103 -4.55026 2.7409 0
M  V30 3900 C 361.142 -4.6731 3.95333 0
M  V30 3901 N 360.279 -5.87221 3.84858 0
M  V30 3902 H 365.119 -1.59464 2.51744 0
M  V30 3903 H 362.656 -0.777186 1.24893 0
M  V30 3904 H 364.614 -3.8757 1.5442 0
M  V30 3905 H 363.244 -3.16096 0.654439 0
M  V30 3906 H 362.296 -2.39974 2.95155 0
M  V30 3907 H 363.608 -3.31385 3.72808 0
M  V30 3908 H 362.762 -5.43324 2.6997 0
M  V30 3909 H 361.501 -4.52519 1.81873 0
M  V30 3910 H 360.506 -3.77429 3.99784 0
M  V30 3911 H 361.731 -4.71595 4.88646 0
M  V30 3912 H 359.677 -5.85712 2.95427 0
M  V30 3913 H 359.594 -5.93435 4.6837 0
M  V30 3914 H 360.862 -6.7795 3.84713 0
M  V30 3915 N 365.091 -1.34144 -0.827227 0
M  V30 3916 C 366.054 -1.25264 -1.91942 0
M  V30 3917 C 367.054 -0.168866 -1.59911 0
M  V30 3918 O 368.244 -0.421198 -1.69031 0
M  V30 3919 C 365.376 -0.932952 -3.27885 0
M  V30 3920 H 366.569 -2.22357 -2.0124 0
M  V30 3921 H 364.122 -1.1837 -1.0207 0
M  V30 3922 H 364.857 0.0349917 -3.24281 0
M  V30 3923 H 364.642 -1.71682 -3.52516 0
M  V30 3924 H 366.132 -0.895874 -4.07877 0
M  V30 3925 N 366.569 1.04691 -1.17803 0
M  V30 3926 C 367.846 1.7472 -0.879328 0
M  V30 3927 C 368.226 2.01812 0.619271 0
M  V30 3928 O 367.574 1.65824 1.57209 0
M  V30 3929 C 367.784 3.03686 -1.71976 0
M  V30 3930 C 369.132 3.77542 -1.94286 0
M  V30 3931 O 370.156 3.13569 -1.68976 0
M  V30 3932 O 369.015 4.92506 -2.36855 0
M  V30 3933 H 366.109 0.760011 -0.326056 0
M  V30 3934 H 368.655 1.10813 -1.28525 0
M  V30 3935 H 367.427 2.79754 -2.73594 0
M  V30 3936 H 367.05 3.75332 -1.31194 0
M  V30 3937 N 368.047 0.979072 1.23499 0
M  V30 3938 C 369.295 0.645941 1.91499 0
M  V30 3939 C 369.616 -0.822948 1.76784 0
M  V30 3940 O 368.886 -1.58854 1.14639 0
M  V30 3941 H 367.466 0.235919 0.708767 0
M  V30 3942 H 370.128 1.2426 1.50152 0
M  V30 3943 H 369.224 0.896411 2.9895 0
M  V30 3944 N 369.525 -1.3858 0.750561 0
M  V30 3945 C 370.455 -2.33102 0.136237 0
M  V30 3946 C 371.436 -1.54713 -0.706965 0
M  V30 3947 O 372.621 -1.83043 -0.648769 0
M  V30 3948 C 369.751 -3.38882 -0.760017 0
M  V30 3949 C 368.705 -4.27995 -0.0197785 0
M  V30 3950 C 368.031 -5.24605 -1.03408 0
M  V30 3951 C 369.331 -5.09554 1.14684 0
M  V30 3952 H 371.025 -2.84726 0.925822 0
M  V30 3953 H 368.571 -1.36898 0.446654 0
M  V30 3954 H 370.524 -4.0397 -1.19943 0
M  V30 3955 H 369.248 -2.85734 -1.58189 0
M  V30 3956 H 367.907 -3.64409 0.400184 0
M  V30 3957 H 367.555 -4.67746 -1.84994 0
M  V30 3958 H 367.255 -5.85081 -0.543464 0
M  V30 3959 H 368.779 -5.9257 -1.47288 0
M  V30 3960 H 370.193 -5.67899 0.785118 0
M  V30 3961 H 368.59 -5.7925 1.56812 0
M  V30 3962 H 369.66 -4.4347 1.96118 0
M  V30 3963 N 371.003 -0.499398 -1.49478 0
M  V30 3964 C 371.933 0.269244 -2.31943 0
M  V30 3965 C 372.914 0.964054 -1.40143 0
M  V30 3966 O 374.099 0.955767 -1.69052 0
M  V30 3967 C 371.229 1.33504 -3.20615 0
M  V30 3968 C 370.183 0.760202 -4.21195 0
M  V30 3969 C 369.509 1.9264 -4.98792 0
M  V30 3970 C 370.809 -0.247661 -5.21712 0
M  V30 3971 H 372.503 -0.419082 -2.96452 0
M  V30 3972 H 370.049 -0.202988 -1.42562 0
M  V30 3973 H 372.002 1.88048 -3.77115 0
M  V30 3974 H 370.726 2.05253 -2.54045 0
M  V30 3975 H 369.385 0.23653 -3.65836 0
M  V30 3976 H 369.033 2.63154 -4.28671 0
M  V30 3977 H 368.733 1.54785 -5.66847 0
M  V30 3978 H 370.257 2.4762 -5.58137 0
M  V30 3979 H 371.671 0.209579 -5.72917 0
M  V30 3980 H 370.068 -0.541962 -5.97648 0
M  V30 3981 H 371.138 -1.16409 -4.7072 0
M  V30 3982 N 372.481 1.55866 -0.233164 0
M  V30 3983 C 373.897 1.59133 0.121988 0
M  V30 3984 C 374.097 1.25016 1.58029 0
M  V30 3985 O 373.153 0.990922 2.32243 0
M  V30 3986 C 374.466 2.99932 -0.214792 0
M  V30 3987 C 376.014 3.12601 -0.157971 0
M  V30 3988 C 376.489 4.55597 -0.46859 0
M  V30 3989 N 377.98 4.61305 -0.418585 0
M  V30 3990 C 378.715 5.69903 -0.63227 0
M  V30 3991 N 378.211 6.86819 -0.90835 0
M  V30 3992 N 380.004 5.59264 -0.563913 0
M  V30 3993 H 372.155 1.76315 -1.18434 0
M  V30 3994 H 374.418 0.820093 -0.475553 0
M  V30 3995 H 374.124 3.29588 -1.22739 0
M  V30 3996 H 373.998 3.74327 0.464691 0
M  V30 3997 H 376.385 2.82735 0.845283 0
M  V30 3998 H 376.466 2.40511 -0.871102 0
M  V30 3999 H 376.11 4.86182 -1.46934 0
M  V30 4000 H 376.04 5.25928 0.265865 0
M  V30 4001 H 378.531 3.77297 -0.213368 0
M  V30 4002 H 378.844 7.65507 -1.05919 0
M  V30 4003 H 377.189 6.88536 -0.945673 0
M  V30 4004 H 380.38 4.66802 -0.348372 0
M  V30 4005 H 380.553 6.43831 -0.733847 0
M  V30 4006 N 373.959 -0.0401083 1.57549 0
M  V30 4007 C 375.205 -0.734211 1.89043 0
M  V30 4008 C 375.538 -1.75591 0.829535 0
M  V30 4009 O 374.813 -1.93868 -0.156706 0
M  V30 4010 C 375.096 -1.41374 3.31188 0
M  V30 4011 C 374.949 -0.406299 4.47961 0
M  V30 4012 C 376.268 -2.35061 3.72068 0
M  V30 4013 H 373.387 -0.265447 0.687537 0
M  V30 4014 H 376.029 0.00294087 1.9 0
M  V30 4015 H 374.179 -2.04206 3.30503 0
M  V30 4016 H 375.851 0.219255 4.60779 0
M  V30 4017 H 374.094 0.275485 4.32924 0
M  V30 4018 H 374.765 -0.920022 5.44279 0
M  V30 4019 H 377.241 -1.82282 3.74049 0
M  V30 4020 H 376.117 -2.79593 4.72355 0
M  V30 4021 H 376.378 -3.21258 3.0372 0
M  V30 4022 N 375.437 -1.54477 -0.31217 0
M  V30 4023 C 376.367 -1.87652 -1.38957 0
M  V30 4024 C 377.348 -0.734358 -1.53431 0
M  V30 4025 O 378.533 -0.98911 -1.67123 0
M  V30 4026 C 375.663 -2.11396 -2.75552 0
M  V30 4027 C 374.617 -3.27243 -2.75855 0
M  V30 4028 C 373.943 -3.36382 -4.15633 0
M  V30 4029 C 375.243 -4.64622 -2.38587 0
M  V30 4030 H 376.937 -2.77887 -1.11442 0
M  V30 4031 H 374.483 -1.33707 -0.534655 0
M  V30 4032 H 376.436 -2.33189 -3.51 0
M  V30 4033 H 375.16 -1.17921 -3.04569 0
M  V30 4034 H 373.819 -3.05356 -2.02863 0
M  V30 4035 H 373.467 -2.40445 -4.41809 0
M  V30 4036 H 373.167 -4.14249 -4.1674 0
M  V30 4037 H 374.691 -3.60422 -4.92877 0
M  V30 4038 H 376.105 -4.86219 -3.03749 0
M  V30 4039 H 374.502 -5.45121 -2.50925 0
M  V30 4040 H 375.572 -4.66097 -1.33723 0
M  V30 4041 N 376.915 0.57481 -1.46744 0
M  V30 4042 C 378.143 1.35856 -1.56047 0
M  V30 4043 C 378.558 1.87691 -0.204365 0
M  V30 4044 O 377.915 1.64049 0.79963 0
M  V30 4045 C 377.966 2.54066 -2.57163 0
M  V30 4046 O 377.687 2.04377 -3.87507 0
M  V30 4047 C 379.188 3.46514 -2.76483 0
M  V30 4048 H 376.408 0.414754 -0.527466 0
M  V30 4049 H 378.952 0.698035 -1.92218 0
M  V30 4050 H 377.107 3.16092 -2.23974 0
M  V30 4051 H 377.521 2.81419 -4.4261 0
M  V30 4052 H 378.995 4.25919 -3.51137 0
M  V30 4053 H 379.472 3.98951 -1.83671 0
M  V30 4054 H 380.078 2.90318 -3.10799 0
M  V30 4055 N 378.394 1.34581 0.820102 0
M  V30 4056 C 379.64 1.27285 1.57881 0
M  V30 4057 C 379.973 -0.156137 1.93571 0
M  V30 4058 O 379.248 -1.10222 1.60254 0
M  V30 4059 C 379.531 2.16639 2.87645 0
M  V30 4060 C 379.384 3.68088 2.58517 0
M  V30 4061 C 380.703 2.05378 3.8924 0
M  V30 4062 H 377.822 0.463714 0.572833 0
M  V30 4063 H 380.464 1.64859 0.944539 0
M  V30 4064 H 378.614 1.84725 3.41773 0
M  V30 4065 H 380.286 4.10382 2.10676 0
M  V30 4066 H 378.529 3.89038 1.91917 0
M  V30 4067 H 379.2 4.2598 3.51063 0
M  V30 4068 H 381.676 2.33404 3.44473 0
M  V30 4069 H 380.552 2.7012 4.77835 0
M  V30 4070 H 380.813 1.0316 4.29896 0
M  V30 4071 N 379.872 -1.04064 1.18357 0
M  V30 4072 C 381.283 -1.58719 0.98312 0
M  V30 4073 C 381.634 -1.90556 -0.467193 0
M  V30 4074 O 380.759 -1.69561 -1.34454 0
M  V30 4075 C 381.354 -2.88379 1.77828 0
M  V30 4076 C 379.913 -3.3965 1.62218 0
M  V30 4077 C 379.06 -2.13235 1.77274 0
M  V30 4078 H 382.011 -0.867359 1.32901 0
M  V30 4079 H 382.032 -3.58773 1.26737 0
M  V30 4080 H 381.544 -2.65176 2.83379 0
M  V30 4081 H 379.645 -3.67866 0.592036 0
M  V30 4082 H 379.758 -4.13475 2.42023 0
M  V30 4083 H 378.122 -2.24542 1.20221 0
M  V30 4084 H 378.905 -1.92487 2.8426 0
M  V30 4085 N 381.35 -0.985608 -1.22978 0
M  V30 4086 C 382.59 -0.665487 -1.93263 0
M  V30 4087 C 382.954 0.78706 -1.75127 0
M  V30 4088 O 384.155 1.21826 -2.39608 0
M  V30 4089 C 382.426 -1.0515 -3.41582 0
M  V30 4090 S 383.985 -0.848637 -4.30516 0
M  V30 4091 H 380.803 -0.24355 -0.667985 0
M  V30 4092 H 383.405 -1.26635 -1.48942 0
M  V30 4093 H 382.109 -2.10517 -3.52293 0
M  V30 4094 H 381.64 -0.442134 -3.90908 0
M  V30 4095 H 383.655 0.264717 -4.95493 0
M  V30 4096 N 382.828 1.3818 -0.7579 0
M  V30 4097 C 383.76 2.2901 -0.0932177 0
M  V30 4098 C 384.773 1.47958 0.679136 0
M  V30 4099 O 385.962 1.70773 0.519514 0
M  V30 4100 C 383.062 3.26953 0.89192 0
M  V30 4101 C 382.235 4.37045 0.176303 0
M  V30 4102 C 381.294 5.15148 1.07281 0
M  V30 4103 O 380.32 5.66616 0.541728 0
M  V30 4104 N 381.522 5.28542 2.40049 0
M  V30 4105 H 384.287 2.86694 -0.873303 0
M  V30 4106 H 381.848 1.50007 -0.609054 0
M  V30 4107 H 383.84 3.76083 1.49479 0
M  V30 4108 H 382.41 2.70136 1.57306 0
M  V30 4109 H 381.63 3.89493 -0.607328 0
M  V30 4110 H 382.918 5.07801 -0.318718 0
M  V30 4111 H 382.316 4.88285 2.85647 0
M  V30 4112 H 380.873 5.8103 2.95376 0
M  V30 4113 N 384.306 0.507319 1.49211 0
M  V30 4114 C 385.253 -0.267728 2.29242 0
M  V30 4115 C 386.223 -0.954609 1.35928 0
M  V30 4116 O 387.408 -0.960046 1.64887 0
M  V30 4117 C 384.548 -1.32243 3.18756 0
M  V30 4118 C 383.661 -0.64669 4.27132 0
M  V30 4119 C 382.796 -1.68238 5.03855 0
M  V30 4120 C 381.835 -0.98885 6.0406 0
M  V30 4121 N 380.972 -1.96903 6.73924 0
M  V30 4122 H 385.812 0.420968 2.95012 0
M  V30 4123 H 383.349 0.219443 1.45454 0
M  V30 4124 H 385.307 -1.94599 3.69036 0
M  V30 4125 H 383.937 -1.97981 2.54958 0
M  V30 4126 H 382.989 0.0902926 3.80293 0
M  V30 4127 H 384.301 -0.101058 4.98698 0
M  V30 4128 H 383.455 -2.38081 5.58034 0
M  V30 4129 H 382.194 -2.26187 4.32077 0
M  V30 4130 H 381.199 -0.276222 5.49106 0
M  V30 4131 H 382.424 -0.415767 6.77826 0
M  V30 4132 H 380.37 -2.53803 6.04913 0
M  V30 4133 H 380.287 -1.47423 7.41487 0
M  V30 4134 H 381.555 -2.66015 7.32705 0
M  V30 4135 N 385.784 -1.5574 0.241426 0
M  V30 4136 C 387.033 -1.97986 -0.385295 0
M  V30 4137 C 387.346 -1.13267 -1.59468 0
M  V30 4138 O 388.552 -1.45501 -2.2922 0
M  V30 4139 C 387.008 -3.52275 -0.736884 0
M  V30 4140 C 386.616 -4.45726 0.450796 0
M  V30 4141 C 388.36 -4.03189 -1.3281 0
M  V30 4142 C 386.267 -5.91352 0.0756662 0
M  V30 4143 H 385.197 -0.739386 -0.147731 0
M  V30 4144 H 387.848 -1.80308 0.340779 0
M  V30 4145 H 386.23 -3.65628 -1.52094 0
M  V30 4146 H 387.404 -4.44131 1.22819 0
M  V30 4147 H 385.719 -4.05264 0.956573 0
M  V30 4148 H 388.316 -5.09505 -1.62201 0
M  V30 4149 H 388.659 -3.50212 -2.25071 0
M  V30 4150 H 389.192 -3.93141 -0.607069 0
M  V30 4151 H 385.931 -6.48354 0.965272 0
M  V30 4152 H 385.451 -5.96095 -0.665635 0
M  V30 4153 H 387.13 -6.46084 -0.344075 0
M  V30 4154 N 387.262 0.0317525 -1.57568 0
M  V30 4155 C 388.51 0.721676 -1.88776 0
M  V30 4156 C 388.831 1.76039 -0.838772 0
M  V30 4157 O 388.101 1.95482 0.127935 0
M  V30 4158 H 386.681 0.269534 -0.696678 0
M  V30 4159 H 389.343 -0.00165879 -1.949 0
M  V30 4160 H 388.439 1.21293 -2.87566 0
M  V30 4161 N 388.74 1.54641 0.303973 0
M  V30 4162 C 389.968 1.77768 1.05858 0
M  V30 4163 C 390.383 0.535722 1.8104 0
M  V30 4164 O 389.74 -0.494337 1.75677 0
M  V30 4165 C 389.791 2.9834 2.04146 0
M  V30 4166 O 389.512 4.17736 1.32015 0
M  V30 4167 C 391.013 3.33832 2.91669 0
M  V30 4168 H 388.233 0.592961 0.314067 0
M  V30 4169 H 390.777 2.01583 0.344149 0
M  V30 4170 H 388.932 2.76742 2.71096 0
M  V30 4171 H 389.346 4.85693 1.97998 0
M  V30 4172 H 390.82 4.21448 3.56491 0
M  V30 4173 H 391.297 2.51857 3.59812 0
M  V30 4174 H 391.903 3.57579 2.30254 0
M  V30 4175 N 390.218 -0.567019 1.47046 0
M  V30 4176 C 391.15 -1.68985 1.54844 0
M  V30 4177 C 392.163 -1.56869 0.435431 0
M  V30 4178 O 393.352 -1.64006 0.70457 0
M  V30 4179 C 390.452 -3.07373 1.42742 0
M  V30 4180 C 389.625 -3.45339 2.6844 0
M  V30 4181 C 388.684 -4.62849 2.50314 0
M  V30 4182 O 387.71 -4.67922 3.24095 0
M  V30 4183 N 388.912 -5.58726 1.57499 0
M  V30 4184 H 391.677 -1.62745 2.51663 0
M  V30 4185 H 389.238 -0.753411 1.43302 0
M  V30 4186 H 391.23 -3.83803 1.28365 0
M  V30 4187 H 389.8 -3.07893 0.540445 0
M  V30 4188 H 389.02 -2.58455 2.97648 0
M  V30 4189 H 390.308 -3.67476 3.51907 0
M  V30 4190 H 389.706 -5.57376 0.966876 0
M  V30 4191 H 388.263 -6.34523 1.49078 0
M  V30 4192 N 391.696 -1.35014 -0.812953 0
M  V30 4193 C 392.944 -1.27678 -1.56661 0
M  V30 4194 C 393.265 0.150359 -1.94419 0
M  V30 4195 O 392.535 1.08532 -1.63088 0
M  V30 4196 H 391.115 -0.469602 -0.580933 0
M  V30 4197 H 393.777 -1.69043 -0.970076 0
M  V30 4198 H 392.873 -1.88833 -2.48492 0
M  V30 4199 N 393.175 1.03435 -1.18907 0
M  V30 4200 C 394.123 2.13703 -0.918353 0
M  V30 4201 C 395.117 1.68947 0.123767 0
M  V30 4202 O 396.323 1.79983 -0.0249701 0
M  V30 4203 H 392.698 0.698112 -0.279542 0
M  V30 4204 H 394.669 2.33731 -1.85506 0
M  V30 4205 C 393.418 3.44542 -0.467532 0
M  V30 4206 H 392.741 3.79394 -1.26095 0
M  V30 4207 H 394.181 4.22812 -0.317164 0
M  V30 4208 C 392.64 3.26829 0.817588 0
M  V30 4209 O 393.17 3.54975 1.88031 0
M  V30 4210 N 391.376 2.80139 0.772677 0
M  V30 4211 H 390.923 2.57434 -0.0923883 0
M  V30 4212 H 390.881 2.68668 1.63294 0
M  V30 4213 N 394.653 0.992116 1.22453 0
M  V30 4214 C 395.899 0.668523 1.91464 0
M  V30 4215 C 396.232 -0.797313 1.77078 0
M  V30 4216 O 395.507 -1.5765 1.13916 0
M  V30 4217 C 395.79 1.07424 3.43703 0
M  V30 4218 C 395.643 2.59857 3.67143 0
M  V30 4219 C 396.962 0.626891 4.35612 0
M  V30 4220 H 394.081 0.244341 0.695318 0
M  V30 4221 H 396.723 1.2355 1.44345 0
M  V30 4222 H 394.873 0.591816 3.83966 0
M  V30 4223 H 396.545 3.15764 3.3629 0
M  V30 4224 H 394.788 3.01961 3.11451 0
M  V30 4225 H 395.459 2.83296 4.73759 0
M  V30 4226 H 397.935 1.04125 4.02861 0
M  V30 4227 H 396.811 0.939076 5.40807 0
M  V30 4228 H 397.072 -0.472457 4.39568 0
M  V30 4229 N 396.131 -1.37776 0.765217 0
M  V30 4230 C 397.079 -2.32209 0.134798 0
M  V30 4231 C 398.073 -1.54607 -0.692315 0
M  V30 4232 O 399.279 -1.70052 -0.590109 0
M  V30 4233 H 395.654 -0.751591 0.0248005 0
M  V30 4234 H 397.625 -2.8297 0.947119 0
M  V30 4235 C 396.374 -3.39841 -0.735063 0
M  V30 4236 H 395.697 -3.99654 -0.107991 0
M  V30 4237 H 397.137 -4.08296 -1.14326 0
M  V30 4238 C 395.596 -2.79378 -1.88281 0
M  V30 4239 O 396.126 -2.69608 -2.97783 0
M  V30 4240 N 394.332 -2.37016 -1.68142 0
M  V30 4241 H 393.879 -2.45162 -0.790772 0
M  V30 4242 H 393.837 -1.96905 -2.45104 0
M  V30 4243 N 397.609 -0.515225 -1.4894 0
M  V30 4244 C 398.856 0.024215 -2.02486 0
M  V30 4245 C 399.184 1.35671 -1.39368 0
M  V30 4246 O 398.439 1.88566 -0.523574 0
M  V30 4247 C 398.738 0.210595 -3.56779 0
M  V30 4248 C 398.404 -1.04569 -4.38607 0
M  V30 4249 C 397.066 -1.39002 -4.60686 0
M  V30 4250 C 399.418 -1.88008 -4.86109 0
M  V30 4251 C 396.746 -2.568 -5.27514 0
M  V30 4252 C 399.098 -3.04972 -5.54234 0
M  V30 4253 C 397.762 -3.39768 -5.74555 0
M  V30 4254 H 397.032 0.00886088 -0.740947 0
M  V30 4255 H 399.679 -0.678263 -1.79086 0
M  V30 4256 H 397.984 0.99572 -3.78936 0
M  V30 4257 H 399.681 0.642659 -3.95817 0
M  V30 4258 H 396.271 -0.767497 -4.21672 0
M  V30 4259 H 400.455 -1.62719 -4.68867 0
M  V30 4260 H 395.711 -2.8398 -5.41447 0
M  V30 4261 H 399.885 -3.69943 -5.90013 0
M  V30 4262 H 397.512 -4.31148 -6.26112 0
M  V30 4263 N 399.087 1.5561 -0.249682 0
M  V30 4264 C 400.335 1.98618 0.373548 0
M  V30 4265 C 400.656 1.13919 1.58264 0
M  V30 4266 O 399.926 0.222637 1.94631 0
M  V30 4267 H 398.506 0.733571 0.141006 0
M  V30 4268 H 401.168 1.91748 -0.349117 0
M  V30 4269 H 400.264 3.04584 0.680796 0
M  V30 4270 N 400.565 -0.0233959 1.57583 0
M  V30 4271 C 401.813 -0.711654 1.89156 0
M  V30 4272 C 402.134 -1.75591 0.848096 0
M  V30 4273 O 401.404 -1.95547 -0.117566 0
M  V30 4274 H 399.984 -0.265835 0.698098 0
M  V30 4275 H 402.646 0.0119948 1.94896 0
M  V30 4276 H 401.742 -1.19766 2.88206 0
M  V30 4277 N 402.043 -1.548 -0.295768 0
M  V30 4278 C 403.459 -1.4613 -0.641722 0
M  V30 4279 C 403.659 -0.656771 -1.90496 0
M  V30 4280 O 402.715 -0.166547 -2.5195 0
M  V30 4281 C 404.028 -2.90141 -0.789852 0
M  V30 4282 C 405.576 -3.00216 -0.885396 0
M  V30 4283 C 406.051 -4.45434 -1.06548 0
M  V30 4284 N 407.542 -4.49166 -1.13156 0
M  V30 4285 C 408.277 -5.58717 -1.28929 0
M  V30 4286 N 407.773 -6.78182 -1.41567 0
M  V30 4287 N 409.566 -5.46415 -1.31859 0
M  V30 4288 H 401.717 -2.05574 0.534147 0
M  V30 4289 H 403.98 -0.931259 0.177372 0
M  V30 4290 H 403.686 -3.51635 0.0675598 0
M  V30 4291 H 403.56 -3.37859 -1.67724 0
M  V30 4292 H 405.947 -2.38833 -1.73329 0
M  V30 4293 H 406.028 -2.55787 0.0261185 0
M  V30 4294 H 405.672 -5.07413 -0.222335 0
M  V30 4295 H 405.602 -4.87499 -1.9913 0
M  V30 4296 H 408.093 -3.631 -1.04721 0
M  V30 4297 H 408.406 -7.57428 -1.53372 0
M  V30 4298 H 406.751 -6.81037 -1.38613 0
M  V30 4299 H 409.942 -4.5203 -1.21601 0
M  V30 4300 H 410.115 -6.31841 -1.43808 0
M  V30 4301 N 403.521 0.559213 -1.47345 0
M  V30 4302 C 404.932 1.14134 -1.47751 0
M  V30 4303 C 405.283 1.94834 -0.231103 0
M  V30 4304 O 404.408 2.05957 0.664137 0
M  V30 4305 C 405.003 2.07653 -2.67705 0
M  V30 4306 C 403.562 2.61141 -2.71076 0
M  V30 4307 C 402.709 1.3748 -2.40821 0
M  V30 4308 H 405.66 0.345917 -1.54884 0
M  V30 4309 H 405.681 2.91497 -2.44561 0
M  V30 4310 H 405.193 1.4889 -3.58404 0
M  V30 4311 H 403.294 3.23707 -1.84511 0
M  V30 4312 H 403.407 3.02272 -3.7171 0
M  V30 4313 H 401.771 1.68086 -1.91362 0
M  V30 4314 H 402.554 0.805135 -3.33725 0
M  V30 4315 N 404.999 1.35443 0.805782 0
M  V30 4316 C 405.931 1.24285 1.92577 0
M  V30 4317 C 406.944 0.165962 1.61952 0
M  V30 4318 O 408.133 0.419303 1.73505 0
M  V30 4319 C 405.233 0.891272 3.2697 0
M  V30 4320 C 404.406 2.06669 3.85495 0
M  V30 4321 C 403.465 1.69077 4.98297 0
M  V30 4322 O 402.491 2.4096 5.15681 0
M  V30 4323 N 403.693 0.614869 5.77234 0
M  V30 4324 H 406.458 2.20777 2.02676 0
M  V30 4325 H 404.019 1.28623 0.983243 0
M  V30 4326 H 406.011 0.621256 3.99903 0
M  V30 4327 H 404.581 0.016004 3.12596 0
M  V30 4328 H 403.801 2.50046 3.04747 0
M  V30 4329 H 405.089 2.85237 4.21328 0
M  V30 4330 H 404.487 0.017648 5.65697 0
M  V30 4331 H 403.044 0.404636 6.50543 0
M  V30 4332 N 406.477 -1.02803 1.19454 0
M  V30 4333 C 407.407 -2.12999 0.956758 0
M  V30 4334 C 408.388 -1.69743 -0.110188 0
M  V30 4335 O 409.573 -1.94148 0.0450038 0
M  V30 4336 C 406.703 -3.43746 0.495553 0
M  V30 4337 C 405.657 -4.00688 1.50443 0
M  V30 4338 C 404.983 -5.27067 0.900275 0
M  V30 4339 C 406.283 -4.35397 2.8849 0
M  V30 4340 H 407.977 -2.33148 1.87836 0
M  V30 4341 H 405.523 -1.12045 0.904539 0
M  V30 4342 H 407.476 -4.2021 0.316493 0
M  V30 4343 H 406.2 -3.23321 -0.461646 0
M  V30 4344 H 404.859 -3.2632 1.67065 0
M  V30 4345 H 404.507 -5.02959 -0.064503 0
M  V30 4346 H 404.207 -5.66127 1.57397 0
M  V30 4347 H 405.731 -6.06196 0.73203 0
M  V30 4348 H 407.145 -5.02795 2.75446 0
M  V30 4349 H 405.542 -4.85541 3.52661 0
M  V30 4350 H 406.612 -3.44662 3.41081 0
M  V30 4351 N 407.956 -0.998596 -1.21925 0
M  V30 4352 C 409.367 -0.711939 -1.72593 0
M  V30 4353 C 409.718 0.770842 -1.80423 0
M  V30 4354 O 408.843 1.60237 -1.4544 0
M  V30 4355 C 409.438 -1.28567 -3.13458 0
M  V30 4356 C 407.997 -1.04828 -3.61508 0
M  V30 4357 C 407.144 -1.4024 -2.39224 0
M  V30 4358 H 410.095 -1.17027 -1.07193 0
M  V30 4359 H 410.116 -0.667098 -3.74607 0
M  V30 4360 H 409.628 -2.36486 -3.07727 0
M  V30 4361 H 407.729 0.0140383 -3.72597 0
M  V30 4362 H 407.842 -1.71566 -4.47328 0
M  V30 4363 H 406.206 -0.821077 -2.41103 0
M  V30 4364 H 406.989 -2.49176 -2.36149 0
M  V30 4365 N 409.434 1.37368 -0.772513 0
M  V30 4366 C 410.682 1.99279 -0.336516 0
M  V30 4367 C 411.003 1.6163 1.09091 0
M  V30 4368 O 410.273 0.882109 1.74916 0
M  V30 4369 H 408.853 0.737063 -0.121435 0
M  V30 4370 H 411.515 1.67836 -0.990809 0
M  V30 4371 H 410.611 3.09332 -0.414763 0
M  V30 4372 N 410.912 0.523116 1.48665 0
M  V30 4373 C 412.137 -0.0117284 2.07397 0
M  V30 4374 C 412.562 -1.28031 1.37803 0
M  V30 4375 O 411.92 -1.75836 0.441762 0
M  V30 4376 C 411.968 -0.225786 3.59892 0
M  V30 4377 O 411.072 -1.29592 3.91509 0
M  V30 4378 H 410.413 0.0360673 0.66302 0
M  V30 4379 H 412.943 0.729066 1.9117 0
M  V30 4380 H 412.953 -0.450552 4.05505 0
M  V30 4381 H 411.628 0.700944 4.09951 0
M  V30 4382 H 410.205 -1.05436 3.57684 0
M  V30 4383 N 412.39 -1.55475 0.257931 0
M  V30 4384 C 413.34 -2.18506 -0.651094 0
M  V30 4385 C 414.324 -1.14431 -1.13112 0
M  V30 4386 O 415.516 -1.40305 -1.07905 0
M  V30 4387 C 412.645 -2.89653 -1.84272 0
M  V30 4388 C 411.731 -4.00996 -1.38068 0
M  V30 4389 N 412.122 -5.01816 -0.633609 0
M  V30 4390 C 410.42 -4.13753 -1.66506 0
M  V30 4391 C 411.121 -5.80371 -0.392922 0
M  V30 4392 N 410.097 -5.3505 -0.960359 0
M  V30 4393 H 413.899 -2.93811 -0.0722883 0
M  V30 4394 H 411.413 -1.62286 0.0607256 0
M  V30 4395 H 413.41 -3.33245 -2.50506 0
M  V30 4396 H 412.07 -2.15854 -2.42564 0
M  V30 4397 H 413.081 -5.17128 -0.282626 0
M  V30 4398 H 409.758 -3.51133 -2.25858 0
M  V30 4399 H 411.148 -6.7159 0.204235 0
M  V30 4400 N 413.868 0.0150385 -1.57593 0
M  V30 4401 C 415.279 0.559832 -1.78109 0
M  V30 4402 C 415.63 1.74814 -0.890756 0
M  V30 4403 O 414.755 2.16216 -0.0892482 0
M  V30 4404 C 415.35 1.02238 -3.23006 0
M  V30 4405 C 413.909 1.51258 -3.44671 0
M  V30 4406 C 413.056 0.456955 -2.73509 0
M  V30 4407 H 416.007 -0.211169 -1.57289 0
M  V30 4408 H 416.028 1.88912 -3.30292 0
M  V30 4409 H 415.54 0.157302 -3.87781 0
M  V30 4410 H 413.641 2.39905 -2.8509 0
M  V30 4411 H 413.754 1.55042 -4.5332 0
M  V30 4412 H 412.118 0.915196 -2.37689 0
M  V30 4413 H 412.901 -0.398896 -3.40975 0
M  V30 4414 N 415.346 1.54954 0.287554 0
M  V30 4415 C 416.309 1.86076 1.33823 0
M  V30 4416 C 417.309 0.734414 1.43049 0
M  V30 4417 O 418.499 1.00266 1.42452 0
M  V30 4418 C 415.631 2.05305 2.72144 0
M  V30 4419 H 416.824 2.79984 1.07465 0
M  V30 4420 H 414.377 1.47223 0.524902 0
M  V30 4421 H 415.112 1.1373 3.03704 0
M  V30 4422 H 414.897 2.873 2.66836 0
M  V30 4423 H 416.387 2.30706 3.48087 0
M  V30 4424 N 416.824 -0.551391 1.4764 0
M  V30 4425 C 418.052 -1.33357 1.58189 0
M  V30 4426 C 418.467 -1.87342 0.234199 0
M  V30 4427 O 417.824 -1.65301 -0.77343 0
M  V30 4428 C 417.875 -2.49942 2.61173 0
M  V30 4429 O 417.596 -1.98187 3.90709 0
M  V30 4430 C 419.097 -3.42072 2.8196 0
M  V30 4431 H 416.317 -0.40631 0.533998 0
M  V30 4432 H 418.861 -0.667367 1.93304 0
M  V30 4433 H 417.016 -3.12489 2.28975 0
M  V30 4434 H 417.43 -2.74342 4.47031 0
M  V30 4435 H 418.904 -4.20278 3.57869 0
M  V30 4436 H 419.381 -3.95978 1.89995 0
M  V30 4437 H 419.987 -2.85336 3.15378 0
M  V30 4438 N 418.302 -1.35869 -0.798587 0
M  V30 4439 C 419.548 -1.30788 -1.55775 0
M  V30 4440 C 419.903 0.114558 -1.92059 0
M  V30 4441 O 419.196 1.06691 -1.59147 0
M  V30 4442 C 419.39 -2.1556 -2.85077 0
M  V30 4443 C 419.219 -3.65904 -2.61428 0
M  V30 4444 C 417.989 -4.35112 -2.56915 0
M  V30 4445 C 420.187 -4.59375 -2.31255 0
M  V30 4446 N 418.169 -5.71155 -2.25068 0
M  V30 4447 C 419.54 -5.83598 -2.09316 0
M  V30 4448 C 421.595 -4.48035 -2.17185 0
M  V30 4449 C 420.298 -6.97755 -1.74731 0
M  V30 4450 C 422.324 -5.62049 -1.83998 0
M  V30 4451 C 421.686 -6.85305 -1.629 0
M  V30 4452 H 417.785 -0.533855 -0.571422 0
M  V30 4453 H 420.369 -1.7083 -0.934079 0
M  V30 4454 H 418.54 -1.77776 -3.45326 0
M  V30 4455 H 420.272 -2.01938 -3.50718 0
M  V30 4456 H 417.027 -3.87812 -2.71843 0
M  V30 4457 H 417.451 -6.42978 -2.11916 0
M  V30 4458 H 422.093 -3.53338 -2.3219 0
M  V30 4459 H 419.811 -7.92411 -1.58464 0
M  V30 4460 H 423.397 -5.55232 -1.73808 0
M  V30 4461 H 422.277 -7.72034 -1.37596 0
M  V30 4462 N 419.78 1.02168 -1.19998 0
M  V30 4463 C 421.005 1.79833 -1.03319 0
M  V30 4464 C 421.43 1.83504 0.413281 0
M  V30 4465 O 420.788 1.26635 1.29743 0
M  V30 4466 C 420.836 3.22396 -1.61533 0
M  V30 4467 O 419.94 4.03555 -0.849519 0
M  V30 4468 H 419.281 0.554872 -0.364709 0
M  V30 4469 H 421.811 1.28542 -1.59179 0
M  V30 4470 H 421.821 3.73124 -1.65054 0
M  V30 4471 H 420.496 3.19039 -2.66809 0
M  V30 4472 H 419.073 3.62169 -0.888129 0
M  V30 4473 N 421.258 1.00505 1.21394 0
M  V30 4474 C 422.221 0.570459 2.21987 0
M  V30 4475 C 423.221 -0.353211 1.56873 0
M  V30 4476 O 424.411 -0.14349 1.73608 0
M  V30 4477 C 421.543 -0.168555 3.40483 0
M  V30 4478 H 422.736 1.46021 2.6195 0
M  V30 4479 H 420.289 0.793565 1.34656 0
M  V30 4480 H 421.024 -1.07374 3.06009 0
M  V30 4481 H 420.809 0.494823 3.88965 0
M  V30 4482 H 422.299 -0.460362 4.15055 0
M  V30 4483 N 422.737 -1.36956 0.779787 0
M  V30 4484 C 423.985 -1.99097 0.347079 0
M  V30 4485 C 424.306 -1.62206 -1.08232 0
M  V30 4486 O 423.576 -0.891373 -1.74446 0
M  V30 4487 H 422.156 -0.736409 0.125342 0
M  V30 4488 H 424.818 -1.67308 0.999696 0
M  V30 4489 H 423.914 -3.09107 0.431162 0
M  V30 4490 N 424.215 -0.530993 -1.48385 0
M  V30 4491 C 425.463 0.00273189 -2.021 0
M  V30 4492 C 425.784 1.34672 -1.41027 0
M  V30 4493 O 425.054 1.8724 -0.576012 0
M  V30 4494 H 423.634 0.00399774 -0.746989 0
M  V30 4495 H 426.296 -0.695054 -1.82085 0
M  V30 4496 H 425.392 0.11031 -3.11905 0
M  V30 4497 N 425.693 1.55336 -0.266172 0
M  V30 4498 C 426.942 1.98574 0.353749 0
M  V30 4499 C 427.255 1.15789 1.57646 0
M  V30 4500 O 428.461 1.49129 2.26876 0
M  V30 4501 C 426.917 3.53403 0.680747 0
M  V30 4502 C 426.525 4.44953 -0.52165 0
M  V30 4503 C 428.269 4.05251 1.26379 0
M  V30 4504 C 426.176 5.91156 -0.169736 0
M  V30 4505 H 425.106 0.741643 0.135949 0
M  V30 4506 H 427.757 1.79743 -0.369421 0
M  V30 4507 H 426.139 3.68001 1.46257 0
M  V30 4508 H 427.313 4.42121 -1.29869 0
M  V30 4509 H 425.628 4.03691 -1.02093 0
M  V30 4510 H 428.225 5.12021 1.54074 0
M  V30 4511 H 428.568 3.53749 2.19471 0
M  V30 4512 H 429.101 3.94057 0.544447 0
M  V30 4513 H 425.84 6.46736 -1.0683 0
M  V30 4514 H 425.36 5.97079 0.570717 0
M  V30 4515 H 427.039 6.4655 0.241245 0
M  V30 4516 N 427.171 -0.0066808 1.57599 0
M  V30 4517 C 428.42 -0.692078 1.89455 0
M  V30 4518 C 428.733 -1.75306 0.867586 0
M  V30 4519 O 429.939 -2.49262 1.07614 0
M  V30 4520 C 428.395 -1.2821 3.36289 0
M  V30 4521 C 428.003 -0.256291 4.47266 0
M  V30 4522 C 429.747 -1.94608 3.77264 0
M  V30 4523 C 427.654 -0.855927 5.85173 0
M  V30 4524 H 426.584 -0.262252 0.706923 0
M  V30 4525 H 429.235 0.052769 1.83424 0
M  V30 4526 H 427.617 -2.0774 3.37135 0
M  V30 4527 H 428.791 0.513923 4.57925 0
M  V30 4528 H 427.106 0.306862 4.15268 0
M  V30 4529 H 429.703 -2.40364 4.77629 0
M  V30 4530 H 430.046 -2.77382 3.10427 0
M  V30 4531 H 430.579 -1.21822 3.78688 0
M  V30 4532 H 427.318 -0.0671161 6.55466 0
M  V30 4533 H 426.838 -1.59546 5.78191 0
M  V30 4534 H 428.517 -1.35658 6.32618 0
M  V30 4535 N 428.649 -1.55105 -0.279332 0
M  V30 4536 C 429.874 -1.7976 -1.03446 0
M  V30 4537 C 430.299 -0.565952 -1.79384 0
M  V30 4538 O 429.657 0.484259 -1.74713 0
M  V30 4539 C 429.705 -3.0179 -1.97371 0
M  V30 4540 O 428.809 -2.76432 -3.06038 0
M  V30 4541 H 428.15 -0.594334 -0.29608 0
M  V30 4542 H 430.68 -2.02235 -0.310165 0
M  V30 4543 H 430.69 -3.30351 -2.39441 0
M  V30 4544 H 429.365 -3.91085 -1.4151 0
M  V30 4545 H 427.942 -2.58949 -2.68328 0
M  V30 4546 N 430.127 0.543554 -1.4793 0
M  V30 4547 C 431.543 0.870806 -1.3375 0
M  V30 4548 C 431.743 1.9864 -0.338261 0
M  V30 4549 O 430.799 2.51305 0.245371 0
M  V30 4550 C 432.112 1.25114 -2.73435 0
M  V30 4551 C 433.66 1.3618 -2.81823 0
M  V30 4552 C 434.135 1.77563 -4.22179 0
M  V30 4553 N 435.626 1.8469 -4.24787 0
M  V30 4554 C 436.361 2.18067 -5.30315 0
M  V30 4555 N 435.857 2.49963 -6.46135 0
M  V30 4556 N 437.65 2.18958 -5.17701 0
M  V30 4557 H 429.801 -0.19275 -2.11524 0
M  V30 4558 H 432.064 -0.0235777 -0.947707 0
M  V30 4559 H 431.77 0.50514 -3.48053 0
M  V30 4560 H 431.644 2.20431 -3.06088 0
M  V30 4561 H 434.031 2.09859 -2.07468 0
M  V30 4562 H 434.112 0.390169 -2.52807 0
M  V30 4563 H 433.756 1.04449 -4.97044 0
M  V30 4564 H 433.686 2.75753 -4.48629 0
M  V30 4565 H 436.177 1.62372 -3.41239 0
M  V30 4566 H 436.49 2.74497 -7.22406 0
M  V30 4567 H 434.835 2.47513 -6.49432 0
M  V30 4568 H 438.026 1.93488 -4.2624 0
M  V30 4569 H 438.199 2.44639 -6.00047 0
M  V30 4570 N 431.605 1.3629 0.791371 0
M  V30 4571 C 432.854 1.29742 1.54434 0
M  V30 4572 C 433.167 -0.121729 1.95221 0
M  V30 4573 O 434.373 -0.309579 2.69729 0
M  V30 4574 C 432.829 2.27623 2.78776 0
M  V30 4575 C 432.437 3.74963 2.45166 0
M  V30 4576 C 434.181 2.30047 3.56761 0
M  V30 4577 C 432.088 4.64626 3.65891 0
M  V30 4578 H 431.018 0.482113 0.579727 0
M  V30 4579 H 433.669 1.61642 0.868565 0
M  V30 4580 H 432.051 1.88714 3.48142 0
M  V30 4581 H 433.225 4.22596 1.83709 0
M  V30 4582 H 431.54 3.75295 1.80396 0
M  V30 4583 H 434.137 2.94247 4.46456 0
M  V30 4584 H 434.48 1.30846 3.95203 0
M  V30 4585 H 435.013 2.67563 2.94372 0
M  V30 4586 H 431.752 5.64883 3.32547 0
M  V30 4587 H 431.272 4.2171 4.26521 0
M  V30 4588 H 432.951 4.80801 4.32943 0
M  V30 4589 N 433.083 -1.0153 1.20538 0
M  V30 4590 C 434.03 -2.10098 0.955383 0
M  V30 4591 C 435 -1.65702 -0.114878 0
M  V30 4592 O 436.185 -1.90776 0.0301118 0
M  V30 4593 C 433.325 -3.41236 0.514969 0
M  V30 4594 C 432.438 -3.99102 1.65353 0
M  V30 4595 C 431.573 -5.18306 1.16329 0
M  V30 4596 C 430.612 -5.68258 2.27485 0
M  V30 4597 N 429.749 -6.78722 1.7967 0
M  V30 4598 H 434.589 -2.30818 1.88486 0
M  V30 4599 H 432.126 -1.13189 0.939499 0
M  V30 4600 H 434.084 -4.16504 0.240935 0
M  V30 4601 H 432.714 -3.20585 -0.377512 0
M  V30 4602 H 431.766 -3.20918 2.04245 0
M  V30 4603 H 433.078 -4.32177 2.49047 0
M  V30 4604 H 432.232 -6.00782 0.845302 0
M  V30 4605 H 430.971 -4.86799 0.296254 0
M  V30 4606 H 429.976 -4.84385 2.60099 0
M  V30 4607 H 431.201 -6.01798 3.14667 0
M  V30 4608 H 429.147 -6.49042 0.95295 0
M  V30 4609 H 429.064 -7.10996 2.56944 0
M  V30 4610 H 430.332 -7.64759 1.50875 0
M  V30 4611 N 434.561 -1.01147 -1.20859 0
M  V30 4612 C 435.786 -0.716698 -1.94623 0
M  V30 4613 C 436.211 0.715415 -1.73964 0
M  V30 4614 O 435.569 1.49157 -1.03062 0
M  V30 4615 C 435.617 -1.0513 -3.44935 0
M  V30 4616 O 434.721 -0.160131 -4.12089 0
M  V30 4617 H 434.062 -0.266404 -0.608214 0
M  V30 4618 H 436.592 -1.35346 -1.53436 0
M  V30 4619 H 436.602 -1.00086 -3.95533 0
M  V30 4620 H 435.277 -2.09475 -3.59295 0
M  V30 4621 H 433.854 -0.267657 -3.71938 0
M  V30 4622 N 436.039 1.36541 -0.78704 0
M  V30 4623 C 437.269 2.03266 -0.369662 0
M  V30 4624 C 437.677 1.59481 1.01796 0
M  V30 4625 O 437.02 0.778612 1.66383 0
M  V30 4626 C 437.082 3.57779 -0.351371 0
M  V30 4627 C 436.746 4.24756 -1.68617 0
M  V30 4628 C 437.743 4.47811 -2.64124 0
M  V30 4629 C 435.428 4.62277 -1.96481 0
M  V30 4630 C 437.422 5.07464 -3.85693 0
M  V30 4631 C 435.109 5.21649 -3.18317 0
M  V30 4632 C 436.107 5.44182 -4.12741 0
M  V30 4633 O 435.795 6.02307 -5.32429 0
M  V30 4634 H 435.527 0.658977 -0.150751 0
M  V30 4635 H 438.081 1.75548 -1.0664 0
M  V30 4636 H 436.311 3.84606 0.401847 0
M  V30 4637 H 438 4.05879 0.0410147 0
M  V30 4638 H 438.766 4.19221 -2.43883 0
M  V30 4639 H 434.645 4.44065 -1.23805 0
M  V30 4640 H 438.189 5.24968 -4.59407 0
M  V30 4641 H 434.086 5.49664 -3.38437 0
M  V30 4642 H 434.854 6.20775 -5.33461 0
M  V30 4643 N 437.518 0.538854 1.48102 0
M  V30 4644 C 438.743 0.0102694 2.07397 0
M  V30 4645 C 439.168 -1.26562 1.39153 0
M  V30 4646 O 438.526 -1.75357 0.460387 0
M  V30 4647 C 438.574 -0.187602 3.60112 0
M  V30 4648 O 437.678 -1.25432 3.92862 0
M  V30 4649 H 437.019 0.0430975 0.6626 0
M  V30 4650 H 439.549 0.749301 1.90385 0
M  V30 4651 H 439.559 -0.407517 4.0596 0
M  V30 4652 H 438.234 0.744386 4.09184 0
M  V30 4653 H 436.811 -1.01636 3.58782 0
M  V30 4654 N 438.996 -1.55193 0.274407 0
M  V30 4655 C 440.243 -1.99581 -0.342579 0
M  V30 4656 C 440.571 -1.1628 -1.55914 0
M  V30 4657 O 439.826 -0.22029 -1.94456 0
M  V30 4658 C 440.125 -3.49019 -0.769458 0
M  V30 4659 C 439.791 -4.49598 0.342389 0
M  V30 4660 C 438.453 -4.76821 0.647686 0
M  V30 4661 C 440.805 -5.0964 1.09163 0
M  V30 4662 C 438.133 -5.61354 1.70581 0
M  V30 4663 C 440.485 -5.95323 2.13948 0
M  V30 4664 C 439.149 -6.20867 2.45113 0
M  V30 4665 H 438.419 -0.730319 -0.125358 0
M  V30 4666 H 441.066 -1.87529 0.387971 0
M  V30 4667 H 439.371 -3.58544 -1.57967 0
M  V30 4668 H 441.068 -3.8077 -1.25757 0
M  V30 4669 H 437.658 -4.28496 0.094318 0
M  V30 4670 H 441.842 -4.88632 0.869024 0
M  V30 4671 H 437.098 -5.79392 1.9523 0
M  V30 4672 H 441.272 -6.40881 2.72478 0
M  V30 4673 H 438.899 -6.86162 3.27239 0
M  V30 4674 N 440.474 -0.00167713 -1.576 0
M  V30 4675 C 441.885 0.54091 -1.78693 0
M  V30 4676 C 442.236 1.7386 -0.909247 0
M  V30 4677 O 441.361 2.16109 -0.112176 0
M  V30 4678 C 441.956 0.98806 -3.24072 0
M  V30 4679 C 440.515 1.47594 -3.46256 0
M  V30 4680 C 439.662 0.42792 -2.73978 0
M  V30 4681 H 442.613 -0.22784 -1.57056 0
M  V30 4682 H 442.634 1.85398 -3.32277 0
M  V30 4683 H 442.146 0.116164 -3.87926 0
M  V30 4684 H 440.247 2.36868 -2.87618 0
M  V30 4685 H 440.36 1.50225 -4.54939 0
M  V30 4686 H 438.724 0.889934 -2.38647 0
M  V30 4687 H 439.507 -0.435038 -3.40532 0
M  V30 4688 N 441.952 1.55251 0.271103 0
M  V30 4689 C 442.899 1.88261 1.33516 0
M  V30 4690 C 443.869 0.734296 1.48988 0
M  V30 4691 O 445.054 0.985741 1.63364 0
M  V30 4692 C 442.194 2.16168 2.69008 0
M  V30 4693 C 441.307 3.43678 2.61743 0
M  V30 4694 C 440.442 3.61276 3.89427 0
M  V30 4695 C 439.481 4.82472 3.7668 0
M  V30 4696 N 438.618 4.96717 4.96202 0
M  V30 4697 H 443.458 2.79015 1.04665 0
M  V30 4698 H 440.995 1.38137 0.505618 0
M  V30 4699 H 442.953 2.30349 3.47844 0
M  V30 4700 H 441.583 1.28646 2.96057 0
M  V30 4701 H 440.635 3.37959 1.74607 0
M  V30 4702 H 441.947 4.3265 2.48224 0
M  V30 4703 H 441.101 3.75284 4.76704 0
M  V30 4704 H 439.84 2.70492 4.05814 0
M  V30 4705 H 438.845 4.68465 2.87786 0
M  V30 4706 H 440.07 5.74692 3.61809 0
M  V30 4707 H 438.016 4.08865 5.12997 0
M  V30 4708 H 437.933 5.79738 4.85222 0
M  V30 4709 H 439.201 5.15113 5.85046 0
M  V30 4710 N 443.43 -0.535701 1.48216 0
M  V30 4711 C 444.841 -1.11769 1.49548 0
M  V30 4712 C 445.192 -1.94442 0.26207 0
M  V30 4713 O 444.317 -2.06987 -0.631287 0
M  V30 4714 C 444.912 -2.03367 2.70975 0
M  V30 4715 C 443.471 -2.56795 2.75196 0
M  V30 4716 C 442.618 -1.33631 2.42977 0
M  V30 4717 H 445.569 -0.321232 1.55415 0
M  V30 4718 H 445.59 -2.87569 2.49167 0
M  V30 4719 H 445.102 -1.43169 3.60727 0
M  V30 4720 H 443.203 -3.20731 1.89638 0
M  V30 4721 H 443.316 -2.9632 3.76472 0
M  V30 4722 H 441.68 -1.6502 1.94012 0
M  V30 4723 H 442.463 -0.75194 3.34964 0
M  V30 4724 N 444.908 -1.36708 -0.784132 0
M  V30 4725 C 446.156 -1.30972 -1.53918 0
M  V30 4726 C 446.477 0.109086 -1.94695 0
M  V30 4727 O 445.747 1.05048 -1.65353 0
M  V30 4728 H 444.327 -0.481819 -0.570841 0
M  V30 4729 H 446.989 -1.71063 -0.934002 0
M  V30 4730 H 446.085 -1.94061 -2.44431 0
M  V30 4731 N 446.386 1.0089 -1.21074 0
M  V30 4732 C 447.336 2.0799 -0.934034 0
M  V30 4733 C 448.32 1.60529 0.10919 0
M  V30 4734 O 449.512 1.76722 -0.0992198 0
M  V30 4735 C 446.641 3.39693 -0.496334 0
M  V30 4736 C 445.727 3.93833 -1.57341 0
M  V30 4737 N 446.118 4.21388 -2.7976 0
M  V30 4738 C 444.416 4.22067 -1.44137 0
M  V30 4739 C 445.117 4.65156 -3.49292 0
M  V30 4740 N 444.093 4.67895 -2.76722 0
M  V30 4741 H 447.895 2.27213 -1.86417 0
M  V30 4742 H 445.409 1.18927 -1.10589 0
M  V30 4743 H 447.406 4.15962 -0.279471 0
M  V30 4744 H 446.066 3.21879 0.427084 0
M  V30 4745 H 447.077 4.10061 -3.1634 0
M  V30 4746 H 443.754 4.1341 -0.582947 0
M  V30 4747 H 445.144 4.95231 -4.54088 0
M  V30 4748 N 447.864 1.01787 1.20321 0
M  V30 4749 C 449.28 0.732951 1.41774 0
M  V30 4750 C 449.48 -0.686883 1.89431 0
M  V30 4751 O 448.536 -1.45446 2.06402 0
M  V30 4752 C 449.849 1.75973 2.43832 0
M  V30 4753 C 451.397 1.77802 2.57596 0
M  V30 4754 C 451.872 2.7941 3.62897 0
M  V30 4755 N 453.363 2.78157 3.70382 0
M  V30 4756 C 454.098 3.53434 4.51521 0
M  V30 4757 N 453.594 4.38392 5.36455 0
M  V30 4758 N 455.387 3.42026 4.46066 0
M  V30 4759 H 447.538 1.93447 0.877035 0
M  V30 4760 H 449.801 0.835712 0.447536 0
M  V30 4761 H 449.507 2.77699 2.15815 0
M  V30 4762 H 449.381 1.57292 3.4284 0
M  V30 4763 H 451.768 0.767602 2.84942 0
M  V30 4764 H 451.849 2.00557 1.58779 0
M  V30 4765 H 451.493 3.80616 3.36295 0
M  V30 4766 H 451.423 2.53916 4.61339 0
M  V30 4767 H 453.914 2.16531 3.09714 0
M  V30 4768 H 454.227 4.92596 5.95457 0
M  V30 4769 H 452.572 4.4247 5.35953 0
M  V30 4770 H 455.763 2.75075 3.78749 0
M  V30 4771 H 455.936 4.00946 5.09064 0
M  V30 4772 N 449.342 -1.36122 0.79427 0
M  V30 4773 C 450.289 -2.29982 0.194101 0
M  V30 4774 C 451.259 -1.52214 -0.664833 0
M  V30 4775 O 452.444 -1.80702 -0.612498 0
M  V30 4776 C 449.584 -3.38706 -0.661244 0
M  V30 4777 C 448.697 -4.31456 0.216766 0
M  V30 4778 C 447.832 -5.27265 -0.645411 0
M  V30 4779 C 446.871 -6.11653 0.233756 0
M  V30 4780 N 446.008 -6.99636 -0.587682 0
M  V30 4781 H 450.848 -2.80722 0.999965 0
M  V30 4782 H 448.385 -1.38172 0.504677 0
M  V30 4783 H 450.343 -4.00394 -1.17219 0
M  V30 4784 H 448.973 -2.89274 -1.43249 0
M  V30 4785 H 448.025 -3.7088 0.845724 0
M  V30 4786 H 449.337 -4.90724 0.893973 0
M  V30 4787 H 448.491 -5.94266 -1.22198 0
M  V30 4788 H 447.23 -4.68463 -1.35623 0
M  V30 4789 H 446.235 -5.4361 0.82269 0
M  V30 4790 H 447.46 -6.72531 0.942247 0
M  V30 4791 H 445.406 -6.43337 -1.2827 0
M  V30 4792 H 445.323 -7.55993 0.0317402 0
M  V30 4793 H 446.591 -7.71001 -1.14792 0
M  V30 4794 N 450.82 -0.546701 -1.47814 0
M  V30 4795 C 452.045 -0.021268 -2.07389 0
M  V30 4796 C 452.47 1.25822 -1.39822 0
M  V30 4797 O 451.828 1.75111 -0.46968 0
M  V30 4798 C 451.876 0.168502 -3.60206 0
M  V30 4799 O 450.98 1.23347 -3.93522 0
M  V30 4800 H 450.321 -0.0466108 -0.662362 0
M  V30 4801 H 452.851 -0.759387 -1.89985 0
M  V30 4802 H 452.861 0.385982 -4.0617 0
M  V30 4803 H 451.536 -0.766075 -4.08784 0
M  V30 4804 H 450.113 0.997319 -3.59316 0
M  V30 4805 N 452.299 1.55045 -0.282633 0
M  V30 4806 C 453.524 2.04628 0.337977 0
M  V30 4807 C 453.949 1.15937 1.48123 0
M  V30 4808 O 453.307 0.159532 1.80597 0
M  V30 4809 C 453.355 3.51854 0.78936 0
M  V30 4810 O 452.459 3.66236 1.89592 0
M  V30 4811 H 451.8 0.660434 0.0687261 0
M  V30 4812 H 454.33 2.00261 -0.419124 0
M  V30 4813 H 454.34 3.93361 1.08311 0
M  V30 4814 H 453.015 4.15873 -0.0470419 0
M  V30 4815 H 451.592 3.36633 1.60413 0
M  V30 4816 N 453.777 0.010035 1.57597 0
M  V30 4817 C 455.188 -0.531426 1.78977 0
M  V30 4818 C 455.539 -1.73375 0.918454 0
M  V30 4819 O 454.664 -2.16047 0.123635 0
M  V30 4820 C 455.259 -0.97086 3.24592 0
M  V30 4821 C 453.818 -1.45756 3.47033 0
M  V30 4822 C 452.965 -0.413384 2.74201 0
M  V30 4823 H 455.916 0.236166 1.56933 0
M  V30 4824 H 455.937 -1.83633 3.33255 0
M  V30 4825 H 455.449 -0.0955893 3.87982 0
M  V30 4826 H 453.55 -2.35339 2.88871 0
M  V30 4827 H 453.663 -1.4781 4.55729 0
M  V30 4828 H 452.027 -0.877266 2.39115 0
M  V30 4829 H 452.81 0.453092 3.40297 0
M  V30 4830 N 455.255 -1.55392 -0.262866 0
M  V30 4831 C 456.218 -1.88181 -1.30846 0
M  V30 4832 C 457.218 -0.757079 -1.41862 0
M  V30 4833 O 458.408 -1.02519 -1.40838 0
M  V30 4834 C 455.54 -2.09609 -2.68844 0
M  V30 4835 H 456.733 -2.81659 -1.02997 0
M  V30 4836 H 454.286 -1.48039 -0.501414 0
M  V30 4837 H 455.021 -1.18547 -3.01856 0
M  V30 4838 H 454.806 -2.91508 -2.62231 0
M  V30 4839 H 456.296 -2.36215 -3.44372 0
M  V30 4840 N 456.733 0.527833 -1.48498 0
M  V30 4841 C 457.665 1.6482 -1.5927 0
M  V30 4842 C 458.678 1.55659 -0.476869 0
M  V30 4843 O 459.867 1.62081 -0.747806 0
M  V30 4844 C 456.967 3.0348 -1.50842 0
M  V30 4845 C 456.14 3.381 -2.77502 0
M  V30 4846 C 455.199 4.5605 -2.62497 0
M  V30 4847 O 454.225 4.59165 -3.36387 0
M  V30 4848 N 455.427 5.54353 -1.72257 0
M  V30 4849 H 458.192 1.56015 -2.55889 0
M  V30 4850 H 455.753 0.715152 -1.45249 0
M  V30 4851 H 457.745 3.80264 -1.38496 0
M  V30 4852 H 456.315 3.06352 -0.621887 0
M  V30 4853 H 455.535 2.50473 -3.04396 0
M  V30 4854 H 456.823 3.58017 -3.61527 0
M  V30 4855 H 456.221 5.54617 -1.11431 0
M  V30 4856 H 454.778 6.30347 -1.65849 0
M  V30 4857 N 458.211 1.37122 0.776871 0
M  V30 4858 C 459.459 1.31787 1.53221 0
M  V30 4859 C 459.78 -0.0987589 1.9475 0
M  V30 4860 O 459.05 -1.0417 1.65908 0
M  V30 4861 H 457.63 0.484839 0.568278 0
M  V30 4862 H 460.292 1.71556 0.924917 0
M  V30 4863 H 459.388 1.95355 2.43398 0
M  V30 4864 N 459.689 -1.00246 1.21608 0
M  V30 4865 C 460.637 -2.11193 0.97469 0
M  V30 4866 C 461.631 -1.69216 -0.0789303 0
M  V30 4867 O 462.837 -1.79853 0.0726806 0
M  V30 4868 H 459.212 -0.690455 0.297953 0
M  V30 4869 H 461.183 -2.2873 1.91638 0
M  V30 4870 C 459.932 -3.43182 0.558717 0
M  V30 4871 H 459.255 -3.75918 1.3611 0
M  V30 4872 H 460.695 -4.21823 0.429154 0
M  V30 4873 C 459.154 -3.28882 -0.730648 0
M  V30 4874 O 459.684 -3.59835 -1.78554 0
M  V30 4875 N 457.89 -2.8209 -0.698131 0
M  V30 4876 H 457.437 -2.57099 0.16061 0
M  V30 4877 H 457.395 -2.72903 -1.56113 0
M  V30 4878 N 461.167 -1.02423 -1.1978 0
M  V30 4879 C 462.583 -0.740459 -1.41384 0
M  V30 4880 C 462.783 0.676827 -1.89793 0
M  V30 4881 O 461.839 1.4435 -2.0717 0
M  V30 4882 C 463.152 -1.77264 -2.42895 0
M  V30 4883 C 464.7 -1.79165 -2.56649 0
M  V30 4884 C 465.175 -2.8133 -3.6141 0
M  V30 4885 N 466.666 -2.80118 -3.68901 0
M  V30 4886 C 467.401 -3.55824 -4.49641 0
M  V30 4887 N 466.897 -4.41231 -5.34123 0
M  V30 4888 N 468.69 -3.44387 -4.44246 0
M  V30 4889 H 460.841 -1.9391 -0.866764 0
M  V30 4890 H 463.104 -0.838074 -0.443098 0
M  V30 4891 H 462.81 -2.7884 -2.14339 0
M  V30 4892 H 462.684 -1.59108 -3.42001 0
M  V30 4893 H 465.071 -0.782702 -2.84531 0
M  V30 4894 H 465.152 -2.01396 -1.57713 0
M  V30 4895 H 464.796 -3.82394 -3.34271 0
M  V30 4896 H 464.726 -2.56359 -4.59986 0
M  V30 4897 H 467.217 -2.1817 -3.08562 0
M  V30 4898 H 467.53 -4.95747 -5.92836 0
M  V30 4899 H 465.875 -4.45306 -5.33599 0
M  V30 4900 H 469.066 -2.7708 -3.77285 0
M  V30 4901 H 469.239 -4.0364 -5.06931 0
M  V30 4902 N 462.645 1.35699 -0.801477 0
M  V30 4903 C 463.577 2.28598 -0.166028 0
M  V30 4904 C 464.59 1.50044 0.631721 0
M  V30 4905 O 465.779 1.72339 0.464921 0
M  V30 4906 C 462.879 3.29625 0.787451 0
M  V30 4907 C 462.052 4.37384 0.037171 0
M  V30 4908 C 461.111 5.183 0.908375 0
M  V30 4909 O 460.137 5.68053 0.361189 0
M  V30 4910 N 461.339 5.35912 2.23112 0
M  V30 4911 H 464.104 2.83771 -0.964071 0
M  V30 4912 H 461.665 1.47994 -0.656469 0
M  V30 4913 H 463.657 3.80648 1.37439 0
M  V30 4914 H 462.227 2.75004 1.48632 0
M  V30 4915 H 461.447 3.87364 -0.730935 0
M  V30 4916 H 462.735 5.0653 -0.480109 0
M  V30 4917 H 462.133 4.97125 2.69968 0
M  V30 4918 H 460.69 5.90133 2.76741 0
M  V30 4919 N 464.123 0.554532 1.47522 0
M  V30 4920 C 465.033 -0.197865 2.33764 0
M  V30 4921 C 466.049 -0.914576 1.48025 0
M  V30 4922 O 467.225 -0.884067 1.80959 0
M  V30 4923 C 464.29 -1.21628 3.24665 0
M  V30 4924 C 463.351 -0.507283 4.26292 0
M  V30 4925 C 462.584 -1.47718 5.1285 0
M  V30 4926 O 462.807 -2.7118 5.01814 0
M  V30 4927 O 461.741 -1.00313 5.93482 0
M  V30 4928 H 465.567 0.50949 2.99396 0
M  V30 4929 H 463.152 0.315176 1.46038 0
M  V30 4930 H 465.034 -1.80421 3.80823 0
M  V30 4931 H 463.709 -1.9056 2.61665 0
M  V30 4932 H 462.616 0.121778 3.73902 0
M  V30 4933 H 463.949 0.140544 4.91999 0
M  V30 4934 N 465.601 -1.54893 0.290851 0
M  V30 4935 C 466.826 -2.04804 -0.32712 0
M  V30 4936 C 467.251 -1.16721 -1.47506 0
M  V30 4937 O 466.609 -0.169107 -1.8051 0
M  V30 4938 C 466.657 -3.52268 -0.770689 0
M  V30 4939 O 465.761 -3.67236 -1.87647 0
M  V30 4940 H 465.102 -0.660789 -0.0652227 0
M  V30 4941 H 467.632 -2.00036 0.429739 0
M  V30 4942 H 467.642 -3.9393 -1.06223 0
M  V30 4943 H 466.317 -4.15843 0.069096 0
M  V30 4944 H 464.894 -3.37479 -1.58626 0
M  V30 4945 N 467.08 -0.0183926 -1.57589 0
M  V30 4946 C 468.308 0.673046 -1.95647 0
M  V30 4947 C 468.723 1.66275 -0.894312 0
M  V30 4948 O 468.08 1.82072 0.124975 0
M  V30 4949 C 468.131 1.38884 -3.33756 0
M  V30 4950 O 467.852 0.438806 -4.35897 0
M  V30 4951 C 469.353 2.1731 -3.86383 0
M  V30 4952 H 466.573 0.186292 -0.644621 0
M  V30 4953 H 469.117 -0.0749748 -2.04363 0
M  V30 4954 H 467.272 2.08835 -3.26293 0
M  V30 4955 H 467.686 0.945869 -5.15901 0
M  V30 4956 H 469.16 2.62863 -4.85394 0
M  V30 4957 H 469.637 3.00764 -3.20059 0
M  V30 4958 H 470.243 1.52339 -3.97081 0
M  V30 4959 N 468.558 1.5553 0.254621 0
M  V30 4960 C 469.804 1.77262 0.985193 0
M  V30 4961 C 470.137 0.582286 1.85265 0
M  V30 4962 O 469.412 -0.419666 1.89919 0
M  V30 4963 C 469.695 3.0881 1.85225 0
M  V30 4964 C 469.548 4.38233 1.0135 0
M  V30 4965 C 470.867 3.3653 2.83612 0
M  V30 4966 H 467.986 0.644906 0.356742 0
M  V30 4967 H 470.628 1.88264 0.256236 0
M  V30 4968 H 468.778 2.99562 2.47376 0
M  V30 4969 H 470.45 4.59463 0.411269 0
M  V30 4970 H 468.693 4.32636 0.317574 0
M  V30 4971 H 469.364 5.26644 1.65379 0
M  V30 4972 H 471.84 3.45691 2.31596 0
M  V30 4973 H 470.716 4.29805 3.41407 0
M  V30 4974 H 470.977 2.57064 3.59681 0
M  V30 4975 N 470.036 -0.519951 1.48776 0
M  V30 4976 C 471.261 -1.30447 1.6124 0
M  V30 4977 C 471.686 -1.86055 0.276591 0
M  V30 4978 O 471.044 -1.64915 -0.753183 0
M  V30 4979 C 471.092 -2.42406 2.66967 0
M  V30 4980 O 470.196 -3.45728 2.24824 0
M  V30 4981 H 469.537 -0.385924 0.540332 0
M  V30 4982 H 472.067 -0.624572 1.94834 0
M  V30 4983 H 472.077 -2.88447 2.88552 0
M  V30 4984 H 470.752 -2.01294 3.63941 0
M  V30 4985 H 469.329 -3.05737 2.13494 0
M  V30 4986 N 471.514 -1.37532 -0.769588 0
M  V30 4987 C 472.761 -1.3286 -1.52822 0
M  V30 4988 C 473.089 0.0862597 -1.94309 0
M  V30 4989 O 472.344 1.05995 -1.6451 0
M  V30 4990 C 472.643 -2.21558 -2.8044 0
M  V30 4991 C 472.309 -3.69796 -2.57996 0
M  V30 4992 C 470.971 -4.10194 -2.51583 0
M  V30 4993 C 473.323 -4.63699 -2.37976 0
M  V30 4994 C 470.651 -5.42608 -2.23144 0
M  V30 4995 C 473.003 -5.96353 -2.1106 0
M  V30 4996 C 471.667 -6.35853 -2.03093 0
M  V30 4997 H 470.937 -0.486168 -0.559215 0
M  V30 4998 H 473.584 -1.69757 -0.886277 0
M  V30 4999 H 471.889 -1.77663 -3.49204 0
M  V30 5000 H 473.586 -2.15256 -3.38328 0
M  V30 5001 H 470.176 -3.37759 -2.63851 0
M  V30 5002 H 474.36 -4.33346 -2.41919 0
M  V30 5003 H 469.616 -5.72173 -2.15472 0
M  V30 5004 H 473.79 -6.68667 -1.94568 0
M  V30 5005 H 471.417 -7.38382 -1.8082 0
M  V30 5006 N 472.992 0.995999 -1.22138 0
M  V30 5007 C 473.94 2.10673 -0.985876 0
M  V30 5008 C 474.934 1.69255 0.0699553 0
M  V30 5009 O 476.14 1.79812 -0.0822176 0
M  V30 5010 H 472.515 0.688865 -0.30161 0
M  V30 5011 H 474.486 2.27711 -1.92848 0
M  V30 5012 C 473.235 3.42881 -0.576909 0
M  V30 5013 H 472.558 3.75191 -1.38101 0
M  V30 5014 H 473.998 4.21589 -0.451518 0
M  V30 5015 C 472.457 3.29265 0.713196 0
M  V30 5016 O 472.987 3.60777 1.76643 0
M  V30 5017 N 471.193 2.82456 0.683162 0
M  V30 5018 H 470.74 2.5701 -0.174242 0
M  V30 5019 H 470.698 2.73727 1.54663 0
M  V30 5020 N 474.47 1.03057 1.19235 0
M  V30 5021 C 475.881 0.757449 1.70645 0
M  V30 5022 C 476.232 -0.722735 1.82403 0
M  V30 5023 O 475.357 -1.56325 1.49638 0
M  V30 5024 C 475.952 1.36833 3.09939 0
M  V30 5025 C 474.511 1.14375 3.58602 0
M  V30 5026 C 473.658 1.46533 2.35422 0
M  V30 5027 H 476.609 1.19828 1.04052 0
M  V30 5028 H 476.63 0.766184 3.72706 0
M  V30 5029 H 476.142 2.44562 3.01349 0
M  V30 5030 H 474.243 0.0847542 3.72504 0
M  V30 5031 H 474.356 1.83366 4.42622 0
M  V30 5032 H 472.72 0.884712 2.38841 0
M  V30 5033 H 473.503 2.55349 2.2946 0
M  V30 5034 N 475.948 -1.35272 0.808662 0
M  V30 5035 C 477.178 -2.02652 0.401953 0
M  V30 5036 C 477.586 -1.6108 -0.992462 0
M  V30 5037 O 476.929 -0.804984 -1.65123 0
M  V30 5038 C 476.991 -3.57174 0.408246 0
M  V30 5039 C 476.655 -4.22019 1.75353 0
M  V30 5040 C 477.652 -4.43552 2.71215 0
M  V30 5041 C 475.337 -4.59093 2.03811 0
M  V30 5042 C 477.331 -5.01264 3.93717 0
M  V30 5043 C 475.018 -5.16519 3.26576 0
M  V30 5044 C 476.016 -5.37546 4.21347 0
M  V30 5045 O 475.704 -5.93761 5.41944 0
M  V30 5046 H 475.436 -0.656495 0.161216 0
M  V30 5047 H 477.99 -1.73829 1.0942 0
M  V30 5048 H 476.22 -3.85197 -0.340608 0
M  V30 5049 H 477.909 -4.05893 0.0235623 0
M  V30 5050 H 478.675 -4.15288 2.50522 0
M  V30 5051 H 474.554 -4.42039 1.30854 0
M  V30 5052 H 478.098 -5.17592 4.67701 0
M  V30 5053 H 473.995 -5.4421 3.47139 0
M  V30 5054 H 474.763 -6.1221 5.43269 0
M  V30 5055 N 477.426 -0.562348 -1.47226 0
M  V30 5056 C 478.336 0.185466 -2.33866 0
M  V30 5057 C 479.352 0.906713 -1.48508 0
M  V30 5058 O 480.528 0.874458 -1.81425 0
M  V30 5059 C 477.593 1.19904 -3.25306 0
M  V30 5060 C 476.654 0.484669 -4.26555 0
M  V30 5061 C 475.887 1.44996 -5.13626 0
M  V30 5062 O 476.11 2.68515 -5.03245 0
M  V30 5063 O 475.044 0.971642 -5.94006 0
M  V30 5064 H 478.87 -0.525361 -2.99121 0
M  V30 5065 H 476.455 -0.322916 -1.45868 0
M  V30 5066 H 478.337 1.78399 -3.81774 0
M  V30 5067 H 477.012 1.8917 -2.62672 0
M  V30 5068 H 475.919 -0.141605 -3.73832 0
M  V30 5069 H 477.252 -0.166634 -4.91918 0
M  V30 5070 N 478.904 1.54736 -0.299062 0
M  V30 5071 C 480.315 1.8569 0.193971 0
M  V30 5072 C 480.666 1.22101 1.53577 0
M  V30 5073 O 479.791 0.51799 2.10109 0
M  V30 5074 C 480.386 3.36895 0.358733 0
M  V30 5075 C 478.945 3.67887 0.795986 0
M  V30 5076 C 478.092 2.77131 -0.096807 0
M  V30 5077 H 481.043 1.49934 -0.520134 0
M  V30 5078 H 481.064 3.61294 1.19361 0
M  V30 5079 H 480.576 3.83148 -0.617998 0
M  V30 5080 H 478.677 3.27151 1.78334 0
M  V30 5081 H 478.79 4.75114 0.616718 0
M  V30 5082 H 477.154 2.51153 0.423581 0
M  V30 5083 H 477.937 3.26204 -1.06986 0
M  V30 5084 N 480.382 0.0267497 1.57577 0
M  V30 5085 C 481.292 -0.971633 2.13533 0
M  V30 5086 C 482.308 -1.35868 1.08701 0
M  V30 5087 O 483.484 -1.44058 1.40746 0
M  V30 5088 C 480.549 -2.23622 2.64941 0
M  V30 5089 C 479.61 -1.90982 3.8448 0
M  V30 5090 C 478.843 -3.11411 4.33427 0
M  V30 5091 O 479.066 -4.23992 3.81558 0
M  V30 5092 O 478 -2.93848 5.25297 0
M  V30 5093 H 481.826 -0.525853 2.99113 0
M  V30 5094 H 479.411 -0.193712 1.48139 0
M  V30 5095 H 481.293 -2.97864 2.98086 0
M  V30 5096 H 479.968 -2.67386 1.82446 0
M  V30 5097 H 478.875 -1.14132 3.56265 0
M  V30 5098 H 480.208 -1.52036 4.6813 0
M  V30 5099 N 481.861 -1.55662 -0.24637 0
M  V30 5100 C 482.791 -1.93377 -1.30873 0
M  V30 5101 C 483.772 -0.798773 -1.50179 0
M  V30 5102 O 484.957 -1.0591 -1.62778 0
M  V30 5103 C 482.087 -2.22893 -2.66338 0
M  V30 5104 C 481.041 -3.38649 -2.61727 0
M  V30 5105 C 480.367 -3.53708 -4.00992 0
M  V30 5106 C 481.667 -4.74323 -2.18666 0
M  V30 5107 H 483.361 -2.82363 -0.995552 0
M  V30 5108 H 480.907 -1.35854 -0.477464 0
M  V30 5109 H 482.86 -2.47866 -3.40794 0
M  V30 5110 H 481.584 -1.30733 -2.99293 0
M  V30 5111 H 480.243 -3.13685 -1.89729 0
M  V30 5112 H 479.891 -2.58967 -4.31214 0
M  V30 5113 H 479.591 -4.31551 -3.98795 0
M  V30 5114 H 481.115 -3.81003 -4.77147 0
M  V30 5115 H 482.529 -4.98665 -2.82854 0
M  V30 5116 H 480.926 -5.55273 -2.27579 0
M  V30 5117 H 481.996 -4.71349 -1.13834 0
M  V30 5118 N 483.339 0.512053 -1.4905 0
M  V30 5119 C 484.302 1.59704 -1.64399 0
M  V30 5120 C 485.302 1.52285 -0.516317 0
M  V30 5121 O 486.492 1.55635 -0.782527 0
M  V30 5122 C 483.624 2.9935 -1.63102 0
M  V30 5123 H 484.817 1.47428 -2.61161 0
M  V30 5124 H 482.37 0.735469 -1.37915 0
M  V30 5125 H 483.105 3.17116 -0.678836 0
M  V30 5126 H 482.89 3.06144 -2.44986 0
M  V30 5127 H 484.38 3.782 -1.77072 0
M  V30 5128 N 484.817 1.37938 0.762283 0
M  V30 5129 C 486.228 1.30094 1.33912 0
M  V30 5130 C 486.579 -0.0472026 1.96143 0
M  V30 5131 O 485.704 -0.94917 1.94473 0
M  V30 5132 C 486.299 2.35592 2.43478 0
M  V30 5133 C 484.858 2.31353 2.96905 0
M  V30 5134 C 484.005 2.18919 1.70205 0
M  V30 5135 H 486.956 1.48423 0.561816 0
M  V30 5136 H 486.977 2.00806 3.23199 0
M  V30 5137 H 486.489 3.33701 1.98155 0
M  V30 5138 H 484.59 1.36799 3.46579 0
M  V30 5139 H 484.703 3.25147 3.51875 0
M  V30 5140 H 483.067 1.65624 1.93496 0
M  V30 5141 H 483.85 3.18956 1.26973 0
M  V30 5142 N 486.295 -0.989507 1.22664 0
M  V30 5143 C 487.541 -1.73298 1.06487 0
M  V30 5144 C 487.896 -1.88292 -0.395438 0
M  V30 5145 O 487.189 -1.41748 -1.28911 0
M  V30 5146 C 487.383 -3.13649 1.71345 0
M  V30 5147 C 487.212 -3.12341 3.23532 0
M  V30 5148 C 485.982 -3.18044 3.92653 0
M  V30 5149 C 488.18 -2.96226 4.20422 0
M  V30 5150 N 486.162 -3.06526 5.31898 0
M  V30 5151 C 487.533 -2.92773 5.4652 0
M  V30 5152 C 489.588 -2.80642 4.11271 0
M  V30 5153 C 488.291 -2.75332 6.64519 0
M  V30 5154 C 490.317 -2.64563 5.28924 0
M  V30 5155 C 489.679 -2.618 6.53942 0
M  V30 5156 H 485.778 -0.643643 0.444126 0
M  V30 5157 H 488.362 -1.17489 1.55256 0
M  V30 5158 H 486.533 -3.67694 1.25122 0
M  V30 5159 H 488.265 -3.76577 1.48229 0
M  V30 5160 H 485.02 -3.25861 3.43673 0
M  V30 5161 H 485.444 -3.04067 6.04874 0
M  V30 5162 H 490.086 -2.81574 3.15398 0
M  V30 5163 H 487.804 -2.73145 7.60538 0
M  V30 5164 H 491.39 -2.53482 5.23677 0
M  V30 5165 H 490.27 -2.49511 7.43447 0
M  V30 5166 N 487.773 -1.03688 -1.18687 0
M  V30 5167 C 488.736 -0.629115 -2.20397 0
M  V30 5168 C 489.736 0.311495 -1.57754 0
M  V30 5169 O 490.926 0.0974107 -1.73927 0
M  V30 5170 C 488.058 0.0782231 -3.4081 0
M  V30 5171 H 489.251 -1.52915 -2.57987 0
M  V30 5172 H 486.804 -0.828988 -1.32505 0
M  V30 5173 H 487.539 0.992233 -3.08748 0
M  V30 5174 H 487.324 -0.597776 -3.87517 0
M  V30 5175 H 488.814 0.350156 -4.16129 0
M  V30 5176 N 489.251 1.34841 -0.815825 0
M  V30 5177 C 490.214 2.27959 -0.238185 0
M  V30 5178 C 491.214 1.49983 0.579816 0
M  V30 5179 O 492.404 1.69617 0.396953 0
M  V30 5180 C 489.536 3.34314 0.666876 0
M  V30 5181 H 490.729 2.80558 -1.05958 0
M  V30 5182 H 488.282 1.44852 -0.587156 0
M  V30 5183 H 489.017 2.86916 1.5116 0
M  V30 5184 H 488.802 3.92014 0.0819106 0
M  V30 5185 H 490.292 4.0379 1.06506 0
M  V30 5186 N 490.729 0.570148 1.46925 0
M  V30 5187 C 492.006 -0.0153259 1.95594 0
M  V30 5188 C 492.386 -1.47232 1.51281 0
M  V30 5189 O 491.734 -2.15574 0.757624 0
M  V30 5190 C 491.944 0.143624 3.48704 0
M  V30 5191 C 493.292 0.00494484 4.246 0
M  V30 5192 O 494.316 0.0718214 3.56128 0
M  V30 5193 O 493.175 -0.141175 5.46318 0
M  V30 5194 H 490.269 -0.0568819 0.825041 0
M  V30 5195 H 492.815 0.637583 1.57267 0
M  V30 5196 H 491.587 1.15699 3.73804 0
M  V30 5197 H 491.21 -0.5463 3.93829 0
M  V30 5198 N 492.207 -1.54576 0.307264 0
M  V30 5199 C 493.154 -2.23751 -0.56604 0
M  V30 5200 C 494.124 -1.22235 -1.12462 0
M  V30 5201 O 495.309 -1.50873 -1.16799 0
M  V30 5202 C 492.449 -2.98661 -1.72903 0
M  V30 5203 C 491.562 -4.14963 -1.20124 0
M  V30 5204 C 490.697 -4.77441 -2.3286 0
M  V30 5205 C 489.736 -5.85875 -1.77247 0
M  V30 5206 N 488.873 -6.42282 -2.8358 0
M  V30 5207 H 493.713 -2.97984 0.0304578 0
M  V30 5208 H 491.25 -1.47076 0.0268015 0
M  V30 5209 H 493.208 -3.40329 -2.41313 0
M  V30 5210 H 491.838 -2.26793 -2.29706 0
M  V30 5211 H 490.89 -3.78193 -0.409198 0
M  V30 5212 H 492.202 -4.93066 -0.754171 0
M  V30 5213 H 491.356 -5.21993 -3.09205 0
M  V30 5214 H 490.095 -3.98684 -2.80896 0
M  V30 5215 H 489.1 -5.40741 -0.993926 0
M  V30 5216 H 490.325 -6.6652 -1.30107 0
M  V30 5217 H 488.271 -5.66406 -3.30939 0
M  V30 5218 H 488.188 -7.1575 -2.43388 0
M  V30 5219 H 489.456 -6.91492 -3.59804 0
M  V30 5220 N 493.685 -0.035106 -1.57561 0
M  V30 5221 C 494.933 0.64096 -1.91667 0
M  V30 5222 C 495.254 1.72323 -0.912681 0
M  V30 5223 O 494.524 1.95849 0.0449089 0
M  V30 5224 H 493.104 0.239743 -0.707483 0
M  V30 5225 H 495.766 -0.084321 -1.94718 0
M  V30 5226 H 494.862 1.08987 -2.92452 0
M  V30 5227 N 495.163 1.55791 0.238111 0
M  V30 5228 C 496.574 1.68383 0.806472 0
M  V30 5229 C 496.925 0.634157 1.85669 0
M  V30 5230 O 496.05 -0.217913 2.153 0
M  V30 5231 C 496.645 3.05268 1.46959 0
M  V30 5232 C 495.204 3.1977 1.98555 0
M  V30 5233 C 494.351 2.64279 0.839763 0
M  V30 5234 H 497.302 1.58694 0.0137535 0
M  V30 5235 H 497.323 3.00203 2.33792 0
M  V30 5236 H 496.835 3.81643 0.704993 0
M  V30 5237 H 494.936 2.48234 2.77868 0
M  V30 5238 H 495.049 4.26788 2.17689 0
M  V30 5239 H 493.413 2.22329 1.24265 0
M  V30 5240 H 494.196 3.43187 0.0881032 0
M  V30 5241 N 496.642 -0.504142 1.49319 0
M  V30 5242 C 497.574 -1.62265 1.61872 0
M  V30 5243 C 498.587 -1.54881 0.501573 0
M  V30 5244 O 499.776 -1.6087 0.773497 0
M  V30 5245 C 496.876 -3.01042 1.55651 0
M  V30 5246 C 496.049 -3.33642 2.82845 0
M  V30 5247 C 495.108 -4.51816 2.69719 0
M  V30 5248 O 494.134 -4.53755 3.4365 0
M  V30 5249 N 495.336 -5.51543 1.81055 0
M  V30 5250 H 498.101 -1.51924 2.58339 0
M  V30 5251 H 495.662 -0.691954 1.46368 0
M  V30 5252 H 497.654 -3.78013 1.44528 0
M  V30 5253 H 496.224 -3.05323 0.670546 0
M  V30 5254 H 495.444 -2.45598 3.08343 0
M  V30 5255 H 496.732 -3.5222 3.67177 0
M  V30 5256 H 496.13 -5.52774 1.20241 0
M  V30 5257 H 494.687 -6.27629 1.75856 0
M  V30 5258 N 498.12 -1.38341 -0.754957 0
M  V30 5259 C 499.536 -1.19508 -1.05783 0
M  V30 5260 C 499.736 -0.0428005 -2.01455 0
M  V30 5261 O 498.792 0.611861 -2.44975 0
M  V30 5262 C 500.105 -2.52091 -1.63923 0
M  V30 5263 C 501.653 -2.58762 -1.76101 0
M  V30 5264 C 502.128 -3.91517 -2.37652 0
M  V30 5265 N 503.619 -3.93049 -2.45085 0
M  V30 5266 C 504.354 -4.9253 -2.93602 0
M  V30 5267 N 503.85 -6.02408 -3.42165 0
M  V30 5268 N 505.643 -4.79921 -2.92629 0
M  V30 5269 H 497.794 -2.1206 -0.120056 0
M  V30 5270 H 500.057 -0.94089 -0.11589 0
M  V30 5271 H 499.763 -3.36858 -1.01093 0
M  V30 5272 H 499.637 -2.70388 -2.63003 0
M  V30 5273 H 502.024 -1.74391 -2.38058 0
M  V30 5274 H 502.105 -2.44333 -0.757294 0
M  V30 5275 H 501.749 -4.76309 -1.76329 0
M  V30 5276 H 501.679 -4.03256 -3.38662 0
M  V30 5277 H 504.17 -3.13685 -2.10736 0
M  V30 5278 H 504.483 -6.74248 -3.77637 0
M  V30 5279 H 502.828 -6.0603 -3.40225 0
M  V30 5280 H 506.019 -3.93194 -2.54001 0
M  V30 5281 H 506.192 -5.57601 -3.30128 0
M  V30 5282 N 499.598 0.982988 -1.23187 0
M  V30 5283 C 500.508 2.10907 -1.02739 0
M  V30 5284 C 501.524 1.73979 0.0273188 0
M  V30 5285 O 502.7 2.00702 -0.16757 0
M  V30 5286 C 499.765 3.41142 -0.618304 0
M  V30 5287 C 498.826 3.92112 -1.74777 0
M  V30 5288 C 498.059 5.16131 -1.3581 0
M  V30 5289 O 498.282 5.6989 -0.241201 0
M  V30 5290 O 497.216 5.61103 -2.17824 0
M  V30 5291 H 501.042 2.31046 -1.97108 0
M  V30 5292 H 498.627 1.09284 -1.01869 0
M  V30 5293 H 500.509 4.19488 -0.400982 0
M  V30 5294 H 499.184 3.2234 0.296421 0
M  V30 5295 H 498.091 3.14895 -2.0197 0
M  V30 5296 H 499.424 4.15364 -2.64071 0
M  V30 5297 N 501.076 1.04316 1.18135 0
M  V30 5298 C 502.039 0.640794 2.2006 0
M  V30 5299 C 503.039 -0.303124 1.57917 0
M  V30 5300 O 504.229 -0.0881855 1.73977 0
M  V30 5301 C 501.361 -0.060148 3.40847 0
M  V30 5302 H 502.554 1.54281 2.57172 0
M  V30 5303 H 500.107 0.836004 1.32063 0
M  V30 5304 H 500.842 -0.975845 3.0927 0
M  V30 5305 H 500.627 0.618319 3.87194 0
M  V30 5306 H 502.117 -0.328082 4.16309 0
M  V30 5307 N 502.554 -1.34406 0.822964 0
M  V30 5308 C 503.484 -2.32052 0.259608 0
M  V30 5309 C 504.465 -1.58243 -0.623961 0
M  V30 5310 O 505.65 -1.86224 -0.55083 0
M  V30 5311 C 502.78 -3.42434 -0.579314 0
M  V30 5312 C 501.734 -4.27499 0.20712 0
M  V30 5313 C 501.06 -5.29349 -0.754547 0
M  V30 5314 C 502.36 -5.02758 1.41533 0
M  V30 5315 H 504.054 -2.79418 1.07545 0
M  V30 5316 H 501.6 -1.34338 0.518593 0
M  V30 5317 H 503.553 -4.0976 -0.983612 0
M  V30 5318 H 502.277 -2.93717 -1.4282 0
M  V30 5319 H 500.936 -3.61776 0.592787 0
M  V30 5320 H 500.584 -4.76895 -1.59939 0
M  V30 5321 H 500.284 -5.8714 -0.232561 0
M  V30 5322 H 501.808 -5.99544 -1.1567 0
M  V30 5323 H 503.222 -5.62938 1.08504 0
M  V30 5324 H 501.619 -5.70123 1.87296 0
M  V30 5325 H 502.689 -4.32451 2.1935 0
M  V30 5326 N 504.032 -0.577932 -1.46621 0
M  V30 5327 C 505.443 -0.150071 -1.86096 0
M  V30 5328 C 505.794 1.28563 -1.48209 0
M  V30 5329 O 504.919 1.97036 -0.894754 0
M  V30 5330 C 505.514 -0.265576 -3.37758 0
M  V30 5331 C 504.073 0.10738 -3.76247 0
M  V30 5332 C 503.22 -0.603711 -2.70649 0
M  V30 5333 H 506.171 -0.786438 -1.37844 0
M  V30 5334 H 506.192 0.510352 -3.77062 0
M  V30 5335 H 505.704 -1.3106 -3.65301 0
M  V30 5336 H 503.805 1.15272 -3.54321 0
M  V30 5337 H 503.918 -0.26561 -4.78363 0
M  V30 5338 H 502.282 -0.0444884 -2.54661 0
M  V30 5339 H 503.065 -1.65029 -3.01032 0
M  V30 5340 N 505.51 1.54411 -0.315457 0
M  V30 5341 C 506.443 2.20265 0.596522 0
M  V30 5342 C 507.421 1.17693 1.12192 0
M  V30 5343 O 508.605 1.46397 1.18744 0
M  V30 5344 C 505.732 2.85794 1.81767 0
M  V30 5345 C 504.778 4.02017 1.42424 0
M  V30 5346 S 505.611 5.33452 0.467836 0
M  V30 5347 C 506.767 6.02471 1.69645 0
M  V30 5348 H 507 2.97277 0.0370896 0
M  V30 5349 H 504.533 1.54079 -0.0995562 0
M  V30 5350 H 506.491 3.24172 2.51839 0
M  V30 5351 H 505.152 2.08601 2.34828 0
M  V30 5352 H 504.345 4.46701 2.33396 0
M  V30 5353 H 503.947 3.65271 0.803311 0
M  V30 5354 H 506.239 6.24157 2.63504 0
M  V30 5355 H 507.182 6.96215 1.29192 0
M  V30 5356 H 507.59 5.32284 1.87974 0
M  V30 5357 N 506.988 0.0434614 1.5754 0
M  V30 5358 C 508.265 -0.671479 1.83713 0
M  V30 5359 C 508.645 -1.89495 0.930315 0
M  V30 5360 O 507.993 -2.28498 -0.0105639 0
M  V30 5361 C 508.203 -1.0361 3.33266 0
M  V30 5362 C 509.551 -1.42167 4.00092 0
M  V30 5363 O 510.575 -1.12866 3.37846 0
M  V30 5364 O 509.434 -1.96817 5.09829 0
M  V30 5365 H 506.528 -0.330726 0.75799 0
M  V30 5366 H 509.074 0.0722373 1.69546 0
M  V30 5367 H 507.846 -0.165938 3.90948 0
M  V30 5368 H 507.469 -1.83751 3.52592 0
M  V30 5369 N 508.466 -1.55915 -0.229846 0
M  V30 5370 C 509.694 -1.82617 -0.972562 0
M  V30 5371 C 510.109 -0.621488 -1.78278 0
M  V30 5372 O 509.466 0.409956 -1.77836 0
M  V30 5373 C 509.517 -3.0774 -1.89679 0
M  V30 5374 O 509.238 -4.23559 -1.11934 0
M  V30 5375 C 510.739 -3.47368 -2.75409 0
M  V30 5376 H 507.959 -0.60727 -0.285419 0
M  V30 5377 H 510.503 -2.02996 -0.247579 0
M  V30 5378 H 508.658 -2.89361 -2.57583 0
M  V30 5379 H 509.072 -4.94586 -1.74599 0
M  V30 5380 H 510.546 -4.37977 -3.35977 0
M  V30 5381 H 511.023 -2.68737 -3.47386 0
M  V30 5382 H 511.629 -3.68158 -2.12931 0
M  V30 5383 N 509.944 0.496216 -1.49584 0
M  V30 5384 C 510.854 1.62352 -1.69349 0
M  V30 5385 C 511.87 1.64184 -0.576147 0
M  V30 5386 O 513.046 1.82517 -0.85144 0
M  V30 5387 C 510.111 2.98698 -1.76013 0
M  V30 5388 C 509.172 3.07454 -2.99617 0
M  V30 5389 C 508.405 4.37296 -3.05953 0
M  V30 5390 O 508.628 5.2637 -2.19752 0
M  V30 5391 O 507.562 4.51124 -3.9846 0
M  V30 5392 H 511.388 1.48606 -2.64859 0
M  V30 5393 H 508.973 0.673022 -1.33382 0
M  V30 5394 H 510.855 3.79725 -1.82721 0
M  V30 5395 H 509.53 3.12696 -0.836828 0
M  V30 5396 H 508.437 2.25597 -2.98424 0
M  V30 5397 H 509.77 2.98385 -3.91443 0
M  V30 5398 N 511.423 1.38739 0.74761 0
M  V30 5399 C 512.669 1.35475 1.50912 0
M  V30 5400 C 513.002 -0.0533093 1.94127 0
M  V30 5401 O 512.277 -1.01572 1.65871 0
M  V30 5402 C 512.56 2.31582 2.75757 0
M  V30 5403 C 512.413 3.81274 2.38642 0
M  V30 5404 C 513.732 2.25722 3.77806 0
M  V30 5405 H 510.851 0.493427 0.547447 0
M  V30 5406 H 513.493 1.69634 0.855823 0
M  V30 5407 H 511.643 2.02582 3.31501 0
M  V30 5408 H 513.315 4.20972 1.88626 0
M  V30 5409 H 511.558 3.98664 1.71025 0
M  V30 5410 H 512.229 4.4399 3.27989 0
M  V30 5411 H 514.705 2.51336 3.31616 0
M  V30 5412 H 513.581 2.95069 4.62845 0
M  V30 5413 H 513.842 1.25803 4.23823 0
M  V30 5414 N 512.901 -0.976442 1.23707 0
M  V30 5415 C 514.131 -1.75087 1.09673 0
M  V30 5416 C 514.539 -1.85852 -0.354344 0
M  V30 5417 O 513.882 -1.33985 -1.25673 0
M  V30 5418 C 513.944 -3.19272 1.65245 0
M  V30 5419 C 513.608 -3.32004 3.14042 0
M  V30 5420 C 514.605 -3.18017 4.11292 0
M  V30 5421 C 512.29 -3.56525 3.53829 0
M  V30 5422 C 514.284 -3.28363 5.46312 0
M  V30 5423 C 511.971 -3.6651 4.88993 0
M  V30 5424 C 512.969 -3.52439 5.85043 0
M  V30 5425 O 512.657 -3.62063 7.1775 0
M  V30 5426 H 512.389 -0.556164 0.384262 0
M  V30 5427 H 514.943 -1.23518 1.64111 0
M  V30 5428 H 513.173 -3.72107 1.05231 0
M  V30 5429 H 514.862 -3.7849 1.46629 0
M  V30 5430 H 515.628 -2.98966 3.81896 0
M  V30 5431 H 511.507 -3.66547 2.79579 0
M  V30 5432 H 515.051 -3.17297 6.21263 0
M  V30 5433 H 510.948 -3.85072 5.18063 0
M  V30 5434 H 511.716 -3.78833 7.25553 0
M  V30 5435 N 514.379 -1.04941 -1.1758 0
M  V30 5436 C 515.289 -0.658826 -2.25159 0
M  V30 5437 C 516.305 0.318941 -1.71052 0
M  V30 5438 O 517.481 0.171669 -2.00667 0
M  V30 5439 C 514.546 -0.0369522 -3.4668 0
M  V30 5440 C 513.607 -1.06484 -4.15884 0
M  V30 5441 C 512.84 -0.472551 -5.31604 0
M  V30 5442 O 513.063 0.718736 -5.65854 0
M  V30 5443 O 511.997 -1.20557 -5.89703 0
M  V30 5444 H 515.823 -1.55533 -2.60851 0
M  V30 5445 H 513.408 -0.820819 -1.24832 0
M  V30 5446 H 515.29 0.308784 -4.20267 0
M  V30 5447 H 513.965 0.833238 -3.12792 0
M  V30 5448 H 512.872 -1.46253 -3.44327 0
M  V30 5449 H 514.205 -1.9061 -4.53794 0
M  V30 5450 N 515.857 1.33968 -0.830081 0
M  V30 5451 C 517.082 2.02813 -0.433796 0
M  V30 5452 C 517.507 1.62076 0.954614 0
M  V30 5453 O 516.865 0.808955 1.62252 0
M  V30 5454 C 516.913 3.56348 -0.552115 0
M  V30 5455 O 516.017 4.10202 0.425191 0
M  V30 5456 H 515.358 0.639817 -0.177567 0
M  V30 5457 H 517.888 1.7106 -1.12248 0
M  V30 5458 H 517.898 4.05722 -0.430513 0
M  V30 5459 H 516.573 3.85344 -1.56471 0
M  V30 5460 H 515.15 3.71979 0.261878 0
M  V30 5461 N 517.335 0.585699 1.46312 0
M  V30 5462 C 518.746 0.159938 1.86014 0
M  V30 5463 C 519.097 -1.27775 1.48889 0
M  V30 5464 O 518.222 -1.96559 0.90519 0
M  V30 5465 C 518.817 0.283485 3.37612 0
M  V30 5466 C 517.376 -0.0874256 3.76298 0
M  V30 5467 C 516.523 0.618055 2.70325 0
M  V30 5468 H 519.474 0.793737 1.37425 0
M  V30 5469 H 519.495 -0.490348 3.77327 0
M  V30 5470 H 519.007 1.32995 3.64601 0
M  V30 5471 H 517.108 -1.13391 3.54927 0
M  V30 5472 H 517.221 0.290975 4.78216 0
M  V30 5473 H 515.585 0.057993 2.54634 0
M  V30 5474 H 516.368 1.66623 3.00153 0
M  V30 5475 N 518.813 -1.54241 0.323641 0
M  V30 5476 C 520.043 -2.04687 -0.280464 0
M  V30 5477 C 520.451 -1.19939 -1.46326 0
M  V30 5478 O 519.794 -0.222872 -1.82343 0
M  V30 5479 C 519.856 -3.50978 -0.778123 0
M  V30 5480 C 519.52 -4.56127 0.282371 0
M  V30 5481 C 520.517 -5.07726 1.11847 0
M  V30 5482 C 518.202 -5.00451 0.430582 0
M  V30 5483 C 520.196 -6.02212 2.08851 0
M  V30 5484 C 517.883 -5.94752 1.40404 0
M  V30 5485 C 518.881 -6.45519 2.23147 0
M  V30 5486 O 518.569 -7.37968 3.1884 0
M  V30 5487 H 518.301 -0.673192 -0.0615473 0
M  V30 5488 H 520.855 -1.99999 0.467921 0
M  V30 5489 H 519.085 -3.53064 -1.57742 0
M  V30 5490 H 520.774 -3.84499 -1.30058 0
M  V30 5491 H 521.54 -4.74261 1.01496 0
M  V30 5492 H 517.419 -4.6055 -0.203569 0
M  V30 5493 H 520.963 -6.41761 2.73474 0
M  V30 5494 H 516.86 -6.27633 1.5082 0
M  V30 5495 H 517.628 -7.55841 3.14079 0
M  V30 5496 N 520.291 -0.0518155 -1.57515 0
M  V30 5497 C 521.254 0.907547 -2.10467 0
M  V30 5498 C 522.254 1.23947 -1.02439 0
M  V30 5499 O 523.444 1.17604 -1.2851 0
M  V30 5500 C 520.576 2.21723 -2.58944 0
M  V30 5501 H 521.769 0.44851 -2.96527 0
M  V30 5502 H 519.322 0.196598 -1.55059 0
M  V30 5503 H 520.057 2.72206 -1.76279 0
M  V30 5504 H 519.842 1.98935 -3.37886 0
M  V30 5505 H 521.332 2.90441 -3.00056 0
M  V30 5506 N 521.769 1.56035 0.221574 0
M  V30 5507 C 523.046 1.69837 0.970301 0
M  V30 5508 C 523.426 0.599065 2.02421 0
M  V30 5509 O 522.774 -0.393929 2.25079 0
M  V30 5510 C 522.984 3.11148 1.58076 0
M  V30 5511 C 524.332 3.70555 2.07302 0
M  V30 5512 O 525.356 3.14109 1.6797 0
M  V30 5513 O 524.215 4.69562 2.79596 0
M  V30 5514 H 521.309 0.691727 0.453257 0
M  V30 5515 H 523.855 1.68353 0.213358 0
M  V30 5516 H 522.627 3.82617 0.819759 0
M  V30 5517 H 522.25 3.16749 2.40324 0
M  V30 5518 N 523.247 -0.488276 1.49845 0
M  V30 5519 C 524.658 -1.06955 1.53028 0
M  V30 5520 C 525.009 -1.9351 0.323797 0
M  V30 5521 O 524.134 -2.08891 -0.565116 0
M  V30 5522 C 524.729 -1.94643 2.77307 0
M  V30 5523 C 523.288 -2.4791 2.83227 0
M  V30 5524 C 522.435 -1.25833 2.47106 0
M  V30 5525 H 525.386 -0.271626 1.56358 0
M  V30 5526 H 525.407 -2.79496 2.5819 0
M  V30 5527 H 524.919 -1.31621 3.65099 0
M  V30 5528 H 523.02 -3.14535 1.99745 0
M  V30 5529 H 523.133 -2.84193 3.85709 0
M  V30 5530 H 521.497 -1.58764 1.99163 0
M  V30 5531 H 522.28 -0.644993 3.37186 0
M  V30 5532 N 524.725 -1.39134 -0.740242 0
M  V30 5533 C 525.635 -1.39697 -1.88473 0
M  V30 5534 C 526.651 -0.292403 -1.71526 0
M  V30 5535 O 527.827 -0.533021 -1.94219 0
M  V30 5536 C 524.892 -1.23382 -3.24003 0
M  V30 5537 C 523.953 -2.43763 -3.53381 0
M  V30 5538 C 523.186 -2.28216 -4.82445 0
M  V30 5539 O 523.409 -1.28288 -5.55786 0
M  V30 5540 O 522.343 -3.1709 -5.11603 0
M  V30 5541 H 526.169 -2.36159 -1.90952 0
M  V30 5542 H 523.754 -1.20194 -0.887346 0
M  V30 5543 H 525.636 -1.16395 -4.05006 0
M  V30 5544 H 524.311 -0.300121 -3.22306 0
M  V30 5545 H 523.218 -2.56325 -2.72485 0
M  V30 5546 H 524.551 -3.35808 -3.59852 0
M  V30 5547 N 526.204 0.969867 -1.24223 0
M  V30 5548 C 527.114 2.09806 -1.0497 0
M  V30 5549 C 528.13 1.73998 0.00886455 0
M  V30 5550 O 529.306 2.00513 -0.188848 0
M  V30 5551 C 526.371 3.40467 -0.654452 0
M  V30 5552 C 525.432 3.90236 -1.78926 0
M  V30 5553 C 524.665 5.14662 -1.41277 0
M  V30 5554 O 524.888 5.69602 -0.301632 0
M  V30 5555 O 523.822 5.58761 -2.23763 0
M  V30 5556 H 527.648 2.28942 -1.99548 0
M  V30 5557 H 525.233 1.08197 -1.03023 0
M  V30 5558 H 527.115 4.19039 -0.445452 0
M  V30 5559 H 525.79 3.22636 0.262216 0
M  V30 5560 H 524.697 3.12735 -2.05299 0
M  V30 5561 H 526.03 4.1254 -2.68462 0
M  V30 5562 N 527.682 1.05563 1.17022 0
M  V30 5563 C 528.931 0.763036 1.8671 0
M  V30 5564 C 529.244 -0.712857 1.82147 0
M  V30 5565 O 530.45 -1.11955 2.47343 0
M  V30 5566 C 528.906 1.31474 3.35026 0
M  V30 5567 C 528.514 2.82034 3.48081 0
M  V30 5568 C 530.258 1.09935 4.10018 0
M  V30 5569 C 528.165 3.30486 4.90442 0
M  V30 5570 H 527.095 0.281747 0.699382 0
M  V30 5571 H 529.746 1.2734 1.32124 0
M  V30 5572 H 528.128 0.732171 3.89173 0
M  V30 5573 H 529.302 3.46178 3.04133 0
M  V30 5574 H 527.617 3.02156 2.86515 0
M  V30 5575 H 530.214 1.43632 5.15048 0
M  V30 5576 H 530.557 0.0373072 4.16283 0
M  V30 5577 H 531.09 1.64732 3.62089 0
M  V30 5578 H 527.829 4.36137 4.89352 0
M  V30 5579 H 527.349 2.71086 5.35044 0
M  V30 5580 H 529.028 3.25382 5.59227 0
M  V30 5581 N 529.16 -1.33526 0.837174 0
M  V30 5582 C 530.576 -1.50727 0.524743 0
M  V30 5583 C 530.776 -1.77792 -0.948279 0
M  V30 5584 O 529.832 -1.83719 -1.73216 0
M  V30 5585 C 531.145 -2.66299 1.39661 0
M  V30 5586 C 532.693 -2.80183 1.39521 0
M  V30 5587 C 533.168 -3.98815 2.25189 0
M  V30 5588 N 534.659 -4.06047 2.2289 0
M  V30 5589 C 535.394 -4.97032 2.85915 0
M  V30 5590 N 534.89 -5.93143 3.57985 0
M  V30 5591 N 536.683 -4.90015 2.75394 0
M  V30 5592 H 528.834 -1.1422 1.79074 0
M  V30 5593 H 531.097 -0.561399 0.763894 0
M  V30 5594 H 530.803 -2.52974 2.4433 0
M  V30 5595 H 530.677 -3.61663 1.07145 0
M  V30 5596 H 533.064 -2.92942 0.356253 0
M  V30 5597 H 533.145 -1.85586 1.76044 0
M  V30 5598 H 532.789 -3.86817 3.29143 0
M  V30 5599 H 532.719 -4.92654 1.86009 0
M  V30 5600 H 535.21 -3.37262 1.70478 0
M  V30 5601 H 535.523 -6.59227 4.03286 0
M  V30 5602 H 533.868 -5.93223 3.62093 0
M  V30 5603 H 537.059 -4.13894 2.18654 0
M  V30 5604 H 537.232 -5.60724 3.24796 0
M  V30 5605 N 530.638 -0.59345 -1.46 0
M  V30 5606 C 532.049 -0.169801 -1.85926 0
M  V30 5607 C 532.4 1.26984 -1.49565 0
M  V30 5608 O 531.525 1.96076 -0.915602 0
M  V30 5609 C 532.12 -0.301385 -3.37457 0
M  V30 5610 C 530.679 0.0674684 -3.7634 0
M  V30 5611 C 529.826 -0.632383 -2.69993 0
M  V30 5612 H 532.777 -0.801014 -1.37002 0
M  V30 5613 H 532.798 0.470331 -3.77582 0
M  V30 5614 H 532.31 -1.34927 -3.63891 0
M  V30 5615 H 530.411 1.11507 -3.55523 0
M  V30 5616 H 530.524 -0.316332 -4.78055 0
M  V30 5617 H 528.888 -0.0714961 -2.546 0
M  V30 5618 H 529.671 -1.68212 -2.99265 0
M  V30 5619 N 532.116 1.54067 -0.331816 0
M  V30 5620 C 533.063 2.24623 0.530372 0
M  V30 5621 C 534.033 1.24009 1.10503 0
M  V30 5622 O 535.218 1.52712 1.14384 0
M  V30 5623 C 532.358 3.01374 1.68129 0
M  V30 5624 C 531.471 4.16821 1.13507 0
M  V30 5625 C 530.606 4.81085 2.25234 0
M  V30 5626 C 529.645 5.88621 1.67903 0
M  V30 5627 N 528.782 6.46713 2.73326 0
M  V30 5628 H 533.622 2.97898 -0.0778607 0
M  V30 5629 H 531.159 1.47014 -0.0501965 0
M  V30 5630 H 533.117 3.44125 2.35868 0
M  V30 5631 H 531.747 2.30419 2.26069 0
M  V30 5632 H 530.799 3.78796 0.348979 0
M  V30 5633 H 532.111 4.94203 0.675633 0
M  V30 5634 H 531.265 5.26846 3.00862 0
M  V30 5635 H 530.004 4.03102 2.74518 0
M  V30 5636 H 529.009 5.42254 0.907773 0
M  V30 5637 H 530.234 6.68506 1.19487 0
M  V30 5638 H 528.18 5.71599 3.21886 0
M  V30 5639 H 528.097 7.19532 2.3197 0
M  V30 5640 H 529.365 6.97129 3.48758 0
M  V30 5641 N 533.594 0.0601682 1.57485 0
M  V30 5642 C 534.504 -0.926121 2.15546 0
M  V30 5643 C 535.52 -1.33532 1.11558 0
M  V30 5644 O 536.696 -1.4104 1.4377 0
M  V30 5645 C 533.761 -2.17952 2.69625 0
M  V30 5646 C 532.822 -1.82783 3.88444 0
M  V30 5647 C 532.055 -3.02148 4.39935 0
M  V30 5648 O 532.278 -4.15803 3.90466 0
M  V30 5649 O 531.212 -2.82639 5.31412 0
M  V30 5650 H 535.038 -0.462289 3.00161 0
M  V30 5651 H 532.623 -0.162246 1.48516 0
M  V30 5652 H 534.505 -2.91474 3.04337 0
M  V30 5653 H 533.18 -2.63456 1.88077 0
M  V30 5654 H 532.087 -1.06549 3.58606 0
M  V30 5655 H 533.42 -1.42072 4.7125 0
M  V30 5656 N 535.072 -1.5615 -0.213296 0
M  V30 5657 C 536.318 -1.79812 -0.937849 0
M  V30 5658 C 536.651 -0.631201 -1.83656 0
M  V30 5659 O 535.926 0.369165 -1.90964 0
M  V30 5660 C 536.209 -3.13613 -1.76972 0
M  V30 5661 C 536.062 -4.40766 -0.89695 0
M  V30 5662 C 537.381 -3.43931 -2.7459 0
M  V30 5663 H 534.5 -0.654138 -0.339518 0
M  V30 5664 H 537.142 -1.88877 -0.20623 0
M  V30 5665 H 535.292 -3.06015 -2.39347 0
M  V30 5666 H 536.964 -4.60392 -0.289306 0
M  V30 5667 H 535.207 -4.33326 -0.202756 0
M  V30 5668 H 535.878 -5.30843 -1.51358 0
M  V30 5669 H 538.354 -3.5171 -2.22349 0
M  V30 5670 H 537.23 -4.38706 -3.29891 0
M  V30 5671 H 537.491 -2.6651 -3.52739 0
M  V30 5672 N 536.55 0.480323 -1.50102 0
M  V30 5673 C 537.78 1.25475 -1.64133 0
M  V30 5674 C 538.188 1.8647 -0.320272 0
M  V30 5675 O 537.531 1.69561 0.70673 0
M  V30 5676 C 537.593 2.40996 -2.6676 0
M  V30 5677 C 537.257 2.00711 -4.10565 0
M  V30 5678 C 538.254 1.53492 -4.96725 0
M  V30 5679 C 535.939 2.09714 -4.56427 0
M  V30 5680 C 537.933 1.15806 -6.26792 0
M  V30 5681 C 535.62 1.7164 -5.86501 0
M  V30 5682 C 536.618 1.24763 -6.71508 0
M  V30 5683 O 536.306 0.872122 -7.99155 0
M  V30 5684 H 536.038 0.385983 -0.554971 0
M  V30 5685 H 538.592 0.580848 -1.97016 0
M  V30 5686 H 536.822 3.11528 -2.291 0
M  V30 5687 H 538.511 3.02981 -2.70106 0
M  V30 5688 H 539.277 1.45966 -4.62514 0
M  V30 5689 H 535.156 2.4515 -3.90413 0
M  V30 5690 H 538.7 0.791465 -6.93096 0
M  V30 5691 H 534.597 1.78822 -6.20236 0
M  V30 5692 H 535.365 1.00178 -8.12346 0
M  V30 5693 N 538.028 1.39524 0.732853 0
M  V30 5694 C 538.958 1.41153 1.86005 0
M  V30 5695 C 539.939 0.274614 1.67869 0
M  V30 5696 O 541.124 0.480745 1.88155 0
M  V30 5697 C 538.254 1.25638 3.23778 0
M  V30 5698 C 537.208 2.36752 3.56556 0
M  V30 5699 C 536.534 2.06326 4.93289 0
M  V30 5700 C 537.834 3.79069 3.5931 0
M  V30 5701 H 539.528 2.35484 1.84899 0
M  V30 5702 H 537.074 1.13348 0.888162 0
M  V30 5703 H 539.027 1.25398 4.0231 0
M  V30 5704 H 537.751 0.277772 3.25417 0
M  V30 5705 H 536.41 2.36213 2.80355 0
M  V30 5706 H 536.058 1.06897 4.9151 0
M  V30 5707 H 535.758 2.80757 5.16187 0
M  V30 5708 H 537.282 2.07739 5.74175 0
M  V30 5709 H 538.696 3.81526 4.27914 0
M  V30 5710 H 537.093 4.52878 3.93728 0
M  V30 5711 H 538.163 4.09893 2.59068 0
M  V30 5712 N 539.506 -0.963266 1.24736 0
M  V30 5713 C 540.783 -1.68248 0.9976 0
M  V30 5714 C 541.163 -2.05599 -0.478776 0
M  V30 5715 O 540.511 -1.7626 -1.45412 0
M  V30 5716 C 540.721 -2.91118 1.92487 0
M  V30 5717 C 542.069 -3.63261 2.19833 0
M  V30 5718 O 543.093 -3.01184 1.90176 0
M  V30 5719 O 541.952 -4.75019 2.7022 0
M  V30 5720 H 539.046 -0.735744 0.377637 0
M  V30 5721 H 541.592 -1.01696 1.35853 0
M  V30 5722 H 540.364 -2.60242 2.92215 0
M  V30 5723 H 539.987 -3.65402 1.56738 0
M  V30 5724 N 540.985 -1.06182 -1.16461 0
M  V30 5725 C 542.401 -0.785065 -1.38956 0
M  V30 5726 C 542.601 0.616103 -1.9185 0
M  V30 5727 O 541.657 1.37686 -2.11657 0
M  V30 5728 C 542.97 -1.84902 -2.37132 0
M  V30 5729 C 544.518 -1.8724 -2.50819 0
M  V30 5730 C 544.993 -2.92686 -3.52277 0
M  V30 5731 N 546.484 -2.91712 -3.59803 0
M  V30 5732 C 547.219 -3.69949 -4.38093 0
M  V30 5733 N 546.715 -4.58 -5.19815 0
M  V30 5734 N 548.508 -3.58346 -4.33064 0
M  V30 5735 H 540.659 -1.96569 -0.804634 0
M  V30 5736 H 542.922 -0.851747 -0.416211 0
M  V30 5737 H 542.628 -2.85518 -2.0536 0
M  V30 5738 H 542.502 -1.69908 -3.36766 0
M  V30 5739 H 544.889 -0.872827 -2.81897 0
M  V30 5740 H 544.97 -2.06311 -1.51226 0
M  V30 5741 H 544.614 -3.92835 -3.21937 0
M  V30 5742 H 544.544 -2.70864 -4.51598 0
M  V30 5743 H 547.035 -2.27876 -3.01464 0
M  V30 5744 H 547.348 -5.14357 -5.76764 0
M  V30 5745 H 545.693 -4.62056 -5.19162 0
M  V30 5746 H 548.884 -2.88943 -3.68279 0
M  V30 5747 H 549.057 -4.19563 -4.93833 0
M  V30 5748 N 542.463 1.3308 -0.844243 0
M  V30 5749 C 543.41 2.29104 -0.279323 0
M  V30 5750 C 544.38 1.54577 0.607882 0
M  V30 5751 O 545.565 1.8285 0.545009 0
M  V30 5752 C 542.705 3.40927 0.53508 0
M  V30 5753 C 541.818 4.30354 -0.376749 0
M  V30 5754 C 540.953 5.29297 0.449276 0
M  V30 5755 C 539.992 6.10365 -0.460606 0
M  V30 5756 N 539.129 7.01335 0.327612 0
M  V30 5757 H 543.969 2.76817 -1.10346 0
M  V30 5758 H 541.506 1.36203 -0.555611 0
M  V30 5759 H 543.464 4.04469 1.02278 0
M  V30 5760 H 542.094 2.94391 1.32414 0
M  V30 5761 H 541.146 3.67485 -0.982791 0
M  V30 5762 H 542.458 4.87067 -1.07549 0
M  V30 5763 H 541.612 5.98392 1.00058 0
M  V30 5764 H 540.351 4.73174 1.18143 0
M  V30 5765 H 539.356 5.40182 -1.02388 0
M  V30 5766 H 540.581 6.68571 -1.1912 0
M  V30 5767 H 538.527 6.47655 1.04305 0
M  V30 5768 H 538.444 7.55355 -0.3123 0
M  V30 5769 H 539.712 7.74731 0.86098 0
M  V30 5770 N 543.941 0.601185 1.45683 0
M  V30 5771 C 544.871 -0.108824 2.33246 0
M  V30 5772 C 545.852 -0.865223 1.46451 0
M  V30 5773 O 547.037 -0.83704 1.75235 0
M  V30 5774 C 544.167 -1.11101 3.2905 0
M  V30 5775 C 543.121 -0.468244 4.25431 0
M  V30 5776 C 542.447 -1.57822 5.10878 0
M  V30 5777 C 543.747 0.606469 5.18767 0
M  V30 5778 H 545.441 0.622306 2.92861 0
M  V30 5779 H 542.987 0.300714 1.40825 0
M  V30 5780 H 544.94 -1.61622 3.89174 0
M  V30 5781 H 543.664 -1.87265 2.67581 0
M  V30 5782 H 542.323 0.0160484 3.66596 0
M  V30 5783 H 541.971 -2.32998 4.45781 0
M  V30 5784 H 541.671 -1.15369 5.76163 0
M  V30 5785 H 543.195 -2.08583 5.73869 0
M  V30 5786 H 544.609 0.185589 5.73 0
M  V30 5787 H 543.006 0.952381 5.92494 0
M  V30 5788 H 544.076 1.48559 4.61582 0
M  V30 5789 N 545.419 -1.53889 0.339982 0
M  V30 5790 C 546.349 -2.27843 -0.510856 0
M  V30 5791 C 547.33 -1.29267 -1.10563 0
M  V30 5792 O 548.515 -1.58104 -1.12768 0
M  V30 5793 C 545.645 -3.04857 -1.66372 0
M  V30 5794 C 544.599 -4.10907 -1.19746 0
M  V30 5795 C 543.925 -4.75855 -2.43857 0
M  V30 5796 C 545.225 -5.21435 -0.300501 0
M  V30 5797 H 546.919 -2.99212 0.106067 0
M  V30 5798 H 544.465 -1.43904 0.0524533 0
M  V30 5799 H 546.418 -3.5533 -2.26537 0
M  V30 5800 H 545.142 -2.31133 -2.30749 0
M  V30 5801 H 543.801 -3.61342 -0.618654 0
M  V30 5802 H 543.449 -3.9873 -3.06633 0
M  V30 5803 H 543.149 -5.47502 -2.13343 0
M  V30 5804 H 544.673 -5.2911 -3.04754 0
M  V30 5805 H 546.087 -5.67565 -0.80889 0
M  V30 5806 H 544.484 -6.00036 -0.0874076 0
M  V30 5807 H 545.554 -4.80328 0.664321 0
M  V30 5808 N 546.897 -0.0685191 -1.57451 0
M  V30 5809 C 548.125 0.610462 -1.97689 0
M  V30 5810 C 548.54 1.63346 -0.946758 0
M  V30 5811 O 547.897 1.82377 0.0669868 0
M  V30 5812 C 547.948 1.28196 -3.38006 0
M  V30 5813 O 547.669 0.299906 -4.37072 0
M  V30 5814 C 549.17 2.04907 -3.931 0
M  V30 5815 H 546.39 0.165689 -0.650222 0
M  V30 5816 H 548.934 -0.139953 -2.04021 0
M  V30 5817 H 547.089 1.98348 -3.32771 0
M  V30 5818 H 547.503 0.78126 -5.18649 0
M  V30 5819 H 548.977 2.47287 -4.93511 0
M  V30 5820 H 549.454 2.9043 -3.29465 0
M  V30 5821 H 550.06 1.39629 -4.01726 0
M  V30 5822 N 548.375 1.56261 0.205012 0
M  V30 5823 C 549.305 1.96779 1.257 0
M  V30 5824 C 550.286 0.838309 1.48008 0
M  V30 5825 O 551.471 1.10189 1.59913 0
M  V30 5826 C 548.601 2.29876 2.60335 0
M  V30 5827 C 547.555 3.45469 2.52656 0
M  V30 5828 C 546.881 3.64215 3.91473 0
M  V30 5829 C 548.181 4.79954 2.06014 0
M  V30 5830 H 549.875 2.84904 0.920338 0
M  V30 5831 H 547.421 1.37072 0.441277 0
M  V30 5832 H 549.374 2.56814 3.34102 0
M  V30 5833 H 548.098 1.38622 2.95722 0
M  V30 5834 H 546.757 3.18605 1.81345 0
M  V30 5835 H 546.405 2.70309 4.24196 0
M  V30 5836 H 546.105 4.41973 3.87213 0
M  V30 5837 H 547.629 3.93519 4.66878 0
M  V30 5838 H 549.043 5.05989 2.69533 0
M  V30 5839 H 547.44 5.61111 2.12777 0
M  V30 5840 H 548.51 4.74201 1.01297 0
M  V30 5841 N 549.853 -0.472356 1.50355 0
M  V30 5842 C 550.763 -1.59637 1.7191 0
M  V30 5843 C 551.779 -1.63247 0.602195 0
M  V30 5844 O 552.955 -1.81139 0.880369 0
M  V30 5845 C 550.02 -2.9586 1.80742 0
M  V30 5846 C 549.081 -3.02649 3.04471 0
M  V30 5847 C 548.314 -4.32374 3.12872 0
M  V30 5848 O 548.537 -5.22807 2.28099 0
M  V30 5849 O 547.471 -4.44728 4.05587 0
M  V30 5850 H 551.297 -1.44373 2.67189 0
M  V30 5851 H 548.882 -0.651717 1.34436 0
M  V30 5852 H 550.764 -3.7677 1.88739 0
M  V30 5853 H 549.439 -3.11325 0.88647 0
M  V30 5854 H 548.346 -2.20821 3.01975 0
M  V30 5855 H 549.679 -2.92119 3.9614 0
M  V30 5856 N 551.331 -1.39911 -0.725443 0
M  V30 5857 C 552.608 -1.28158 -1.47766 0
M  V30 5858 C 552.988 0.104545 -2.10841 0
M  V30 5859 O 552.336 1.11657 -1.99361 0
M  V30 5860 C 552.546 -2.41306 -2.52135 0
M  V30 5861 C 553.894 -2.81076 -3.18247 0
M  V30 5862 O 554.918 -2.40827 -2.62452 0
M  V30 5863 O 553.777 -3.50581 -4.19231 0
M  V30 5864 H 550.871 -0.502761 -0.656628 0
M  V30 5865 H 553.417 -1.51808 -0.758456 0
M  V30 5866 H 552.189 -3.33932 -2.03974 0
M  V30 5867 H 551.812 -2.19374 -3.31603 0
M  V30 5868 N 552.809 0.956637 -1.25245 0
M  V30 5869 C 553.756 2.053 -1.05454 0
M  V30 5870 C 554.726 1.66062 0.0356889 0
M  V30 5871 O 555.911 1.90415 -0.121099 0
M  V30 5872 C 553.051 3.38391 -0.677191 0
M  V30 5873 C 552.164 3.90758 -1.84206 0
M  V30 5874 C 551.299 5.12165 -1.40926 0
M  V30 5875 C 550.338 5.56757 -2.54338 0
M  V30 5876 N 549.475 6.69376 -2.11848 0
M  V30 5877 H 554.315 2.21562 -1.99284 0
M  V30 5878 H 551.852 1.08578 -0.992434 0
M  V30 5879 H 553.81 4.1488 -0.43938 0
M  V30 5880 H 552.44 3.22021 0.224127 0
M  V30 5881 H 551.492 3.10808 -2.19323 0
M  V30 5882 H 552.804 4.19802 -2.69383 0
M  V30 5883 H 551.958 5.96065 -1.13098 0
M  V30 5884 H 550.697 4.84832 -0.528175 0
M  V30 5885 H 549.702 4.71423 -2.82913 0
M  V30 5886 H 550.927 5.861 -3.43022 0
M  V30 5887 H 548.873 6.43756 -1.26153 0
M  V30 5888 H 548.79 6.97927 -2.90574 0
M  V30 5889 H 550.058 7.5669 -1.87191 0
M  V30 5890 N 554.287 1.06798 1.15896 0
M  V30 5891 C 555.197 0.694564 2.24083 0
M  V30 5892 C 556.213 -0.291687 1.71538 0
M  V30 5893 O 557.389 -0.139723 2.00915 0
M  V30 5894 C 554.454 0.0921014 3.46578 0
M  V30 5895 C 553.515 1.13087 4.14137 0
M  V30 5896 C 552.748 0.557064 5.30785 0
M  V30 5897 O 552.971 -0.628623 5.66925 0
M  V30 5898 O 551.905 1.29924 5.8771 0
M  V30 5899 H 555.731 1.59663 2.58344 0
M  V30 5900 H 553.316 0.840575 1.2351 0
M  V30 5901 H 555.198 -0.241884 4.20705 0
M  V30 5902 H 553.873 -0.78337 3.14078 0
M  V30 5903 H 552.78 1.51712 3.41957 0
M  V30 5904 H 554.113 1.97805 4.50704 0
M  V30 5905 N 555.766 -1.3263 0.851289 0
M  V30 5906 C 556.696 -2.31449 0.308771 0
M  V30 5907 C 557.677 -1.59531 -0.590255 0
M  V30 5908 O 558.862 -1.87351 -0.511205 0
M  V30 5909 C 555.992 -3.43586 -0.506548 0
M  V30 5910 C 554.946 -4.26963 0.297753 0
M  V30 5911 C 554.272 -5.30831 -0.642094 0
M  V30 5912 C 555.572 -4.99643 1.52166 0
M  V30 5913 H 557.266 -2.77074 1.13447 0
M  V30 5914 H 554.812 -1.33207 0.546971 0
M  V30 5915 H 556.765 -4.11754 -0.896474 0
M  V30 5916 H 555.489 -2.96681 -1.36558 0
M  V30 5917 H 554.148 -3.60437 0.669391 0
M  V30 5918 H 553.796 -4.8018 -1.49788 0
M  V30 5919 H 553.496 -5.87501 -0.107968 0
M  V30 5920 H 555.02 -6.01862 -1.02927 0
M  V30 5921 H 556.434 -5.6051 1.20421 0
M  V30 5922 H 554.831 -5.66022 1.99347 0
M  V30 5923 H 555.901 -4.27701 2.28474 0
M  V30 5924 N 557.244 -0.608902 -1.45362 0
M  V30 5925 C 558.492 -0.104401 -2.0183 0
M  V30 5926 C 558.813 1.27007 -1.47967 0
M  V30 5927 O 558.083 1.83924 -0.674455 0
M  V30 5928 H 556.663 -0.0356042 -0.746151 0
M  V30 5929 H 559.325 -0.790596 -1.78145 0
M  V30 5930 H 558.421 -0.0551793 -3.12051 0
M  V30 5931 N 558.722 1.53707 -0.348139 0
M  V30 5932 C 559.947 2.05877 0.250883 0
M  V30 5933 C 560.372 1.22115 1.43072 0
M  V30 5934 O 559.73 0.235986 1.79758 0
M  V30 5935 C 559.778 3.54886 0.639416 0
M  V30 5936 O 558.882 3.73948 1.73888 0
M  V30 5937 H 558.223 0.662754 0.040653 0
M  V30 5938 H 560.753 1.98303 -0.503685 0
M  V30 5939 H 560.763 3.97601 0.915295 0
M  V30 5940 H 559.438 4.153 -0.223386 0
M  V30 5941 H 558.015 3.43134 1.45991 0
M  V30 5942 N 560.2 0.0768682 1.57412 0
M  V30 5943 C 561.448 -0.589918 1.93299 0
M  V30 5944 C 561.769 -1.69842 0.958049 0
M  V30 5945 O 561.039 -1.95899 0.00703261 0
M  V30 5946 H 559.619 -0.220901 0.713591 0
M  V30 5947 H 562.281 0.135917 1.94425 0
M  V30 5948 H 561.377 -1.01195 2.95239 0
M  V30 5949 N 561.678 -1.56367 -0.196722 0
M  V30 5950 C 562.626 -1.95304 -1.2633 0
M  V30 5951 C 563.62 -0.838252 -1.47206 0
M  V30 5952 O 564.826 -1.02325 -1.48087 0
M  V30 5953 H 561.201 -0.621013 -0.424083 0
M  V30 5954 H 563.172 -2.84254 -0.907879 0
M  V30 5955 C 561.921 -2.3074 -2.60104 0
M  V30 5956 H 561.244 -3.16047 -2.44856 0
M  V30 5957 H 562.684 -2.61849 -3.33484 0
M  V30 5958 C 561.143 -1.14143 -3.16975 0
M  V30 5959 O 561.673 -0.415602 -3.99544 0
M  V30 5960 N 559.879 -0.91867 -2.75697 0
M  V30 5961 H 559.426 -1.51065 -2.08656 0
M  V30 5962 H 559.384 -0.140321 -3.14087 0
M  V30 5963 N 563.156 0.464375 -1.50603 0
M  V30 5964 C 564.403 1.21596 -1.61928 0
M  V30 5965 C 564.731 1.91804 -0.322737 0
M  V30 5966 O 563.986 1.83065 0.691776 0
M  V30 5967 C 564.285 2.278 -2.75394 0
M  V30 5968 C 563.951 1.74797 -4.1564 0
M  V30 5969 C 562.613 1.60063 -4.53799 0
M  V30 5970 C 564.965 1.35548 -5.03266 0
M  V30 5971 C 562.293 1.04514 -5.77316 0
M  V30 5972 C 564.645 0.814381 -6.27336 0
M  V30 5973 C 563.309 0.653726 -6.64291 0
M  V30 5974 H 562.579 0.444951 -0.592536 0
M  V30 5975 H 565.226 0.510964 -1.84557 0
M  V30 5976 H 563.531 3.04233 -2.46879 0
M  V30 5977 H 565.228 2.85723 -2.81359 0
M  V30 5978 H 561.818 1.87234 -3.8554 0
M  V30 5979 H 566.002 1.45763 -4.74412 0
M  V30 5980 H 561.258 0.908186 -6.04617 0
M  V30 5981 H 565.432 0.501626 -6.94591 0
M  V30 5982 H 563.059 0.22114 -7.59878 0
M  V30 5983 N 564.634 1.40294 0.718013 0
M  V30 5984 C 565.882 1.38167 1.47494 0
M  V30 5985 C 566.203 -0.01607 1.94993 0
M  V30 5986 O 565.473 -0.970396 1.70177 0
M  V30 5987 H 564.053 0.508505 0.547203 0
M  V30 5988 H 566.715 1.75324 0.851322 0
M  V30 5989 H 565.811 2.05503 2.34894 0
M  V30 5990 N 566.112 -0.949982 1.2575 0
M  V30 5991 C 567.34 -1.72972 1.13527 0
M  V30 5992 C 567.755 -1.8623 -0.310453 0
M  V30 5993 O 567.112 -1.36336 -1.2132 0
M  V30 5994 C 567.163 -3.14108 1.78936 0
M  V30 5995 O 566.884 -3.01493 3.17858 0
M  V30 5996 C 568.385 -4.08338 1.72554 0
M  V30 5997 H 565.605 -0.541864 0.395758 0
M  V30 5998 H 568.149 -1.19151 1.66202 0
M  V30 5999 H 566.304 -3.64858 1.30221 0
M  V30 6000 H 566.718 -3.90559 3.50092 0
M  V30 6001 H 568.192 -5.04963 2.22973 0
M  V30 6002 H 568.669 -4.33742 0.690251 0
M  V30 6003 H 569.275 -3.63506 2.2078 0
M  V30 6004 N 567.59 -1.07411 -1.15328 0
M  V30 6005 C 568.836 -0.798831 -1.86404 0
M  V30 6006 C 569.169 0.673433 -1.8215 0
M  V30 6007 O 568.444 1.49428 -1.24505 0
M  V30 6008 C 568.727 -1.30846 -3.35487 0
M  V30 6009 C 568.58 -2.84532 -3.4837 0
M  V30 6010 C 569.899 -0.925486 -4.30259 0
M  V30 6011 H 567.018 -0.291659 -0.676834 0
M  V30 6012 H 569.66 -1.332 -1.35491 0
M  V30 6013 H 567.81 -0.854916 -3.78977 0
M  V30 6014 H 569.482 -3.3818 -3.13739 0
M  V30 6015 H 567.725 -3.22699 -2.8991 0
M  V30 6016 H 568.396 -3.15259 -4.53118 0
M  V30 6017 H 570.872 -1.3163 -3.94731 0
M  V30 6018 H 569.748 -1.3094 -5.33053 0
M  V30 6019 H 570.009 0.168525 -4.41779 0
M  V30 6020 N 569.068 1.32177 -0.85831 0
M  V30 6021 C 570.015 2.28794 -0.303607 0
M  V30 6022 C 570.985 1.55213 0.591453 0
M  V30 6023 O 572.17 1.83418 0.525585 0
M  V30 6024 C 569.31 3.41475 0.49889 0
M  V30 6025 C 568.423 4.2993 -0.422373 0
M  V30 6026 C 567.558 5.29743 0.393111 0
M  V30 6027 C 566.597 6.09842 -0.525317 0
M  V30 6028 N 565.734 7.01643 0.253208 0
M  V30 6029 H 570.574 2.75631 -1.13276 0
M  V30 6030 H 568.111 1.35606 -0.570026 0
M  V30 6031 H 570.069 4.05531 0.979826 0
M  V30 6032 H 568.699 2.95779 1.29284 0
M  V30 6033 H 567.751 3.66422 -1.02171 0
M  V30 6034 H 569.063 4.85899 -1.12709 0
M  V30 6035 H 568.217 5.9942 0.937056 0
M  V30 6036 H 566.956 4.744 1.13117 0
M  V30 6037 H 565.961 5.39066 -1.08112 0
M  V30 6038 H 567.186 6.6727 -1.26205 0
M  V30 6039 H 565.132 6.48725 0.974295 0
M  V30 6040 H 565.049 7.54981 -0.392398 0
M  V30 6041 H 566.317 7.756 0.778761 0
M  V30 6042 N 570.547 0.616602 1.45037 0
M  V30 6043 C 571.494 -0.0969439 2.30596 0
M  V30 6044 C 572.464 -0.851151 1.42635 0
M  V30 6045 O 573.649 -0.835092 1.71554 0
M  V30 6046 C 570.789 -1.08234 3.27688 0
M  V30 6047 C 569.902 -0.328072 4.30752 0
M  V30 6048 C 569.037 -1.30399 5.14946 0
M  V30 6049 C 568.076 -0.538049 6.09731 0
M  V30 6050 N 567.213 -1.46371 6.86673 0
M  V30 6051 H 572.053 0.63864 2.91076 0
M  V30 6052 H 569.59 0.326733 1.43425 0
M  V30 6053 H 571.548 -1.66688 3.82454 0
M  V30 6054 H 570.178 -1.78523 2.68941 0
M  V30 6055 H 569.23 0.372136 3.78575 0
M  V30 6056 H 570.542 0.269142 4.98073 0
M  V30 6057 H 569.696 -1.96032 5.74157 0
M  V30 6058 H 568.435 -1.93514 4.47665 0
M  V30 6059 H 567.44 0.131852 5.49642 0
M  V30 6060 H 568.665 0.0881732 6.79043 0
M  V30 6061 H 566.611 -2.08233 6.22073 0
M  V30 6062 H 566.528 -0.920152 7.50379 0
M  V30 6063 H 567.796 -2.10932 7.50418 0
M  V30 6064 N 572.025 -1.5352 0.356285 0
M  V30 6065 C 573.273 -2.00719 -0.235837 0
M  V30 6066 C 573.594 -1.24551 -1.5004 0
M  V30 6067 O 572.864 -0.356185 -1.92635 0
M  V30 6068 H 571.444 -0.741542 -0.0901366 0
M  V30 6069 H 574.106 -1.88887 0.480378 0
M  V30 6070 H 573.202 -3.08551 -0.469357 0
M  V30 6071 N 573.503 -0.0852151 -1.57369 0
M  V30 6072 C 574.733 0.588605 -1.98038 0
M  V30 6073 C 575.141 1.62869 -0.962817 0
M  V30 6074 O 574.484 1.83611 0.057134 0
M  V30 6075 C 574.546 1.30303 -3.35054 0
M  V30 6076 C 574.21 0.414855 -4.55113 0
M  V30 6077 C 575.207 -0.333011 -5.18832 0
M  V30 6078 C 572.892 0.335804 -5.01176 0
M  V30 6079 C 574.886 -1.14801 -6.26976 0
M  V30 6080 C 572.573 -0.482857 -6.09189 0
M  V30 6081 C 573.571 -1.22342 -6.71953 0
M  V30 6082 O 573.259 -2.02855 -7.77885 0
M  V30 6083 H 572.991 0.163249 -0.655992 0
M  V30 6084 H 575.545 -0.1582 -2.0479 0
M  V30 6085 H 573.775 2.0962 -3.24956 0
M  V30 6086 H 575.464 1.87041 -3.60237 0
M  V30 6087 H 576.23 -0.281611 -4.84182 0
M  V30 6088 H 572.109 0.901869 -4.52092 0
M  V30 6089 H 575.653 -1.72654 -6.75897 0
M  V30 6090 H 571.55 -0.535773 -6.43273 0
M  V30 6091 H 572.318 -1.95432 -7.94826 0
M  V30 6092 N 574.981 1.5647 0.188427 0
M  V30 6093 C 576.211 1.84863 0.922463 0
M  V30 6094 C 576.619 0.666413 1.77075 0
M  V30 6095 O 575.962 -0.374044 1.79852 0
M  V30 6096 C 576.024 3.07447 1.86324 0
M  V30 6097 C 575.688 4.41066 1.19625 0
M  V30 6098 C 576.685 5.16767 0.569946 0
M  V30 6099 C 574.37 4.87802 1.19811 0
M  V30 6100 C 576.364 6.37384 -0.045594 0
M  V30 6101 C 574.051 6.08353 0.57874 0
M  V30 6102 C 575.049 6.82987 -0.0420259 0
M  V30 6103 O 574.737 8.01254 -0.651675 0
M  V30 6104 H 574.469 0.61784 0.274316 0
M  V30 6105 H 577.023 2.04437 0.198613 0
M  V30 6106 H 575.253 2.83774 2.62696 0
M  V30 6107 H 576.942 3.2243 2.46564 0
M  V30 6108 H 577.708 4.81749 0.560601 0
M  V30 6109 H 573.587 4.29662 1.67069 0
M  V30 6110 H 577.131 6.95578 -0.530731 0
M  V30 6111 H 573.028 6.42838 0.58561 0
M  V30 6112 H 573.796 8.16655 -0.549236 0
M  V30 6113 N 576.459 -0.456382 1.50847 0
M  V30 6114 C 577.391 -1.57033 1.66953 0
M  V30 6115 C 578.404 -1.53207 0.550593 0
M  V30 6116 O 579.593 -1.58328 0.824285 0
M  V30 6117 C 576.693 -2.95937 1.65149 0
M  V30 6118 C 575.866 -3.24475 2.93317 0
M  V30 6119 C 574.925 -4.43007 2.83957 0
M  V30 6120 O 573.951 -4.42592 3.57912 0
M  V30 6121 N 575.153 -5.45503 1.9851 0
M  V30 6122 H 577.918 -1.43629 2.63042 0
M  V30 6123 H 575.479 -0.645037 1.48495 0
M  V30 6124 H 577.471 -3.73224 1.56481 0
M  V30 6125 H 576.041 -3.03036 0.767343 0
M  V30 6126 H 575.261 -2.35664 3.16 0
M  V30 6127 H 576.549 -3.4036 3.78196 0
M  V30 6128 H 575.947 -5.48668 1.37766 0
M  V30 6129 H 574.504 -6.21716 1.95735 0
M  V30 6130 N 577.937 -1.40673 -0.710563 0
M  V30 6131 C 578.87 -1.35742 -1.83438 0
M  V30 6132 C 579.848 -0.226997 -1.61008 0
M  V30 6133 O 581.032 -0.411477 -1.83954 0
M  V30 6134 C 578.159 -1.11374 -3.19865 0
M  V30 6135 C 577.205 -2.26935 -3.61113 0
M  V30 6136 S 578.038 -3.89352 -3.67648 0
M  V30 6137 C 579.194 -3.67258 -5.06826 0
M  V30 6138 H 579.427 -2.30848 -1.87341 0
M  V30 6139 H 576.96 -1.27018 -0.877831 0
M  V30 6140 H 578.918 -0.980004 -3.9863 0
M  V30 6141 H 577.579 -0.179135 -3.13589 0
M  V30 6142 H 576.772 -2.0554 -4.60184 0
M  V30 6143 H 576.374 -2.36638 -2.89618 0
M  V30 6144 H 578.666 -3.26036 -5.93891 0
M  V30 6145 H 579.609 -4.65878 -5.33257 0
M  V30 6146 H 580.017 -3.0084 -4.77656 0
M  V30 6147 N 579.415 0.9433 -1.26252 0
M  V30 6148 C 580.362 2.0417 -1.07625 0
M  V30 6149 C 581.332 1.6609 0.0180738 0
M  V30 6150 O 582.517 1.90276 -0.141289 0
M  V30 6151 C 579.657 3.37653 -0.713043 0
M  V30 6152 C 578.77 3.88783 -1.8834 0
M  V30 6153 C 577.905 5.10642 -1.4635 0
M  V30 6154 C 576.944 5.54028 -2.60229 0
M  V30 6155 N 576.081 6.67092 -2.18936 0
M  V30 6156 H 580.921 2.19436 -2.01623 0
M  V30 6157 H 578.458 1.07519 -1.00389 0
M  V30 6158 H 580.416 4.14391 -0.483358 0
M  V30 6159 H 579.046 3.22241 0.18996 0
M  V30 6160 H 578.098 3.08464 -2.22608 0
M  V30 6161 H 579.41 4.16922 -2.73821 0
M  V30 6162 H 578.564 5.94832 -1.19414 0
M  V30 6163 H 577.303 4.84244 -0.579568 0
M  V30 6164 H 576.308 4.68396 -2.87898 0
M  V30 6165 H 577.533 5.82429 -3.49219 0
M  V30 6166 H 575.479 6.42381 -1.32974 0
M  V30 6167 H 575.396 6.94806 -2.97961 0
M  V30 6168 H 576.664 7.54662 -1.95206 0
M  V30 6169 N 580.893 1.08022 1.14757 0
M  V30 6170 C 581.84 0.706657 2.19716 0
M  V30 6171 C 582.81 -0.30525 1.63271 0
M  V30 6172 O 583.995 -0.19015 1.8985 0
M  V30 6173 C 581.135 0.117914 3.44898 0
M  V30 6174 C 580.248 1.18212 4.15512 0
M  V30 6175 C 579.383 0.557659 5.28265 0
M  V30 6176 C 578.422 1.60418 5.90705 0
M  V30 6177 N 577.559 1.0018 6.94916 0
M  V30 6178 H 582.399 1.60603 2.51019 0
M  V30 6179 H 579.936 0.802664 1.23271 0
M  V30 6180 H 581.894 -0.241112 4.16503 0
M  V30 6181 H 580.524 -0.744788 3.1409 0
M  V30 6182 H 579.576 1.65863 3.42335 0
M  V30 6183 H 580.888 1.97533 4.5802 0
M  V30 6184 H 580.042 0.146654 6.06523 0
M  V30 6185 H 578.781 -0.267249 4.86967 0
M  V30 6186 H 577.786 2.02489 5.11154 0
M  V30 6187 H 579.011 2.43149 6.34078 0
M  V30 6188 H 576.957 0.197917 6.55701 0
M  V30 6189 H 576.874 1.73216 7.35889 0
M  V30 6190 H 578.142 0.616523 7.77058 0
M  V30 6191 N 582.371 -1.3172 0.865308 0
M  V30 6192 C 583.617 -1.97168 0.474633 0
M  V30 6193 C 583.95 -1.68263 -0.969604 0
M  V30 6194 O 583.225 -0.976588 -1.68205 0
M  V30 6195 C 583.508 -3.52689 0.726808 0
M  V30 6196 C 583.361 -3.91185 2.22024 0
M  V30 6197 C 584.68 -4.39689 0.190201 0
M  V30 6198 H 581.799 -0.716185 0.17392 0
M  V30 6199 H 584.441 -1.55925 1.08569 0
M  V30 6200 H 582.591 -3.8795 0.206705 0
M  V30 6201 H 584.263 -3.66049 2.80724 0
M  V30 6202 H 582.506 -3.3996 2.69462 0
M  V30 6203 H 583.177 -4.99604 2.34735 0
M  V30 6204 H 585.653 -4.11225 0.635103 0
M  V30 6205 H 584.529 -5.47469 0.396132 0
M  V30 6206 H 584.79 -4.32683 -0.907625 0
M  V30 6207 N 583.85 -0.624285 -1.44708 0
M  V30 6208 C 585.096 -0.126237 -2.02407 0
M  V30 6209 C 585.428 1.24618 -1.48943 0
M  V30 6210 O 584.704 1.82569 -0.670742 0
M  V30 6211 C 584.986 -0.105449 -3.59946 0
M  V30 6212 C 584.84 -1.50972 -4.23707 0
M  V30 6213 C 586.159 0.573629 -4.36346 0
M  V30 6214 H 583.278 -0.0473472 -0.735478 0
M  V30 6215 H 585.92 -0.799452 -1.72362 0
M  V30 6216 H 584.07 0.46783 -3.85673 0
M  V30 6217 H 585.742 -2.13136 -4.0911 0
M  V30 6218 H 583.985 -2.0656 -3.81465 0
M  V30 6219 H 584.656 -1.44727 -5.32689 0
M  V30 6220 H 587.132 0.0861787 -4.16011 0
M  V30 6221 H 586.008 0.557338 -5.46063 0
M  V30 6222 H 586.269 1.64276 -4.10446 0
M  V30 6223 N 585.328 1.53329 -0.364422 0
M  V30 6224 C 586.275 2.25698 0.482607 0
M  V30 6225 C 587.245 1.26325 1.07848 0
M  V30 6226 O 588.43 1.55104 1.11119 0
M  V30 6227 C 585.57 3.04873 1.61699 0
M  V30 6228 C 584.683 4.19135 1.0464 0
M  V30 6229 C 583.818 4.85754 2.14979 0
M  V30 6230 C 582.857 5.9205 1.5538 0
M  V30 6231 N 581.994 6.52365 2.59547 0
M  V30 6232 H 586.834 2.97666 -0.141032 0
M  V30 6233 H 584.371 1.46875 -0.0813692 0
M  V30 6234 H 586.329 3.49051 2.28516 0
M  V30 6235 H 584.959 2.35162 2.2113 0
M  V30 6236 H 584.011 3.79451 0.268553 0
M  V30 6237 H 585.323 4.95525 0.570653 0
M  V30 6238 H 584.477 5.3311 2.89619 0
M  V30 6239 H 583.216 4.08834 2.65906 0
M  V30 6240 H 582.221 5.44058 0.792549 0
M  V30 6241 H 583.446 6.7089 1.0528 0
M  V30 6242 H 581.392 5.78298 3.09689 0
M  V30 6243 H 581.309 7.2429 2.16655 0
M  V30 6244 H 582.577 7.0437 3.33892 0
M  V30 6245 N 586.806 0.0935595 1.57322 0
M  V30 6246 C 588.034 -0.578934 1.98635 0
M  V30 6247 C 588.449 -1.61819 0.972626 0
M  V30 6248 O 587.806 -1.82461 -0.0379638 0
M  V30 6249 C 587.857 -1.22802 3.40003 0
M  V30 6250 O 587.578 -0.230334 4.37494 0
M  V30 6251 C 589.079 -1.98627 3.96311 0
M  V30 6252 H 586.299 -0.155324 0.652775 0
M  V30 6253 H 588.843 0.172393 2.03772 0
M  V30 6254 H 586.998 -1.93029 3.35885 0
M  V30 6255 H 587.412 -0.698649 5.19826 0
M  V30 6256 H 588.886 -2.39405 4.97382 0
M  V30 6257 H 589.363 -2.85151 3.34044 0
M  V30 6258 H 589.969 -1.3322 4.03897 0
M  V30 6259 N 588.284 -1.56567 -0.180126 0
M  V30 6260 C 589.53 -1.81761 -0.899497 0
M  V30 6261 C 589.863 -0.670015 -1.82276 0
M  V30 6262 O 589.138 0.328575 -1.91705 0
M  V30 6263 C 589.421 -3.17296 -1.7028 0
M  V30 6264 C 589.274 -4.4257 -0.803255 0
M  V30 6265 C 590.593 -3.49678 -2.67233 0
M  V30 6266 H 587.712 -0.661192 -0.325567 0
M  V30 6267 H 590.354 -1.89272 -0.16612 0
M  V30 6268 H 588.504 -3.11023 -2.32802 0
M  V30 6269 H 590.176 -4.60902 -0.191585 0
M  V30 6270 H 588.419 -4.33658 -0.110796 0
M  V30 6271 H 589.09 -5.33935 -1.40064 0
M  V30 6272 H 591.566 -3.56347 -2.14839 0
M  V30 6273 H 590.442 -4.45605 -3.20511 0
M  V30 6274 H 590.703 -2.73932 -3.47007 0
M  V30 6275 N 589.762 0.448376 -1.51087 0
M  V30 6276 C 590.725 1.52588 -1.71025 0
M  V30 6277 C 591.725 1.49958 -0.580442 0
M  V30 6278 O 592.915 1.52176 -0.847833 0
M  V30 6279 C 590.047 2.92163 -1.75652 0
M  V30 6280 H 591.24 1.36218 -2.67179 0
M  V30 6281 H 588.793 0.676313 -1.4091 0
M  V30 6282 H 589.528 3.13951 -0.812724 0
M  V30 6283 H 589.313 2.95478 -2.57751 0
M  V30 6284 H 590.803 3.70349 -1.92953 0
M  V30 6285 N 591.24 1.41047 0.703093 0
M  V30 6286 C 592.486 1.40207 1.46526 0
M  V30 6287 C 592.819 0.00847763 1.94198 0
M  V30 6288 O 592.094 -0.962437 1.69019 0
M  V30 6289 C 592.377 2.40238 2.6825 0
M  V30 6290 C 592.23 3.88674 2.26391 0
M  V30 6291 C 593.549 2.37627 3.70434 0
M  V30 6292 H 590.668 0.510594 0.531472 0
M  V30 6293 H 593.31 1.72271 0.801422 0
M  V30 6294 H 591.46 2.13026 3.24888 0
M  V30 6295 H 593.132 4.2676 1.75138 0
M  V30 6296 H 591.375 4.03903 1.58255 0
M  V30 6297 H 592.046 4.542 3.13698 0
M  V30 6298 H 594.522 2.61759 3.23452 0
M  V30 6299 H 593.398 3.09645 4.53223 0
M  V30 6300 H 593.659 1.39223 4.19606 0
M  V30 6301 N 592.718 -0.936591 1.26751 0
M  V30 6302 C 593.665 -2.03597 1.08706 0
M  V30 6303 C 594.635 -1.66097 -0.00926542 0
M  V30 6304 O 595.82 -1.90199 0.151377 0
M  V30 6305 C 592.96 -3.3727 0.73094 0
M  V30 6306 C 592.073 -3.87778 1.90399 0
M  V30 6307 C 591.208 -5.09859 1.49056 0
M  V30 6308 C 590.247 -5.5264 2.63164 0
M  V30 6309 N 589.384 -6.65921 2.22471 0
M  V30 6310 H 594.224 -2.18364 2.02784 0
M  V30 6311 H 591.761 -1.06985 1.00958 0
M  V30 6312 H 593.719 -4.14128 0.505328 0
M  V30 6313 H 592.349 -3.22337 -0.172868 0
M  V30 6314 H 591.401 -3.07279 2.2424 0
M  V30 6315 H 592.713 -4.15464 2.76028 0
M  V30 6316 H 591.867 -5.9419 1.22567 0
M  V30 6317 H 590.606 -4.8393 0.60524 0
M  V30 6318 H 589.611 -4.66863 2.90377 0
M  V30 6319 H 590.836 -5.80568 3.52303 0
M  V30 6320 H 588.782 -6.41667 1.36379 0
M  V30 6321 H 588.699 -6.93216 3.01641 0
M  V30 6322 H 589.967 -7.53616 1.99205 0
M  V30 6323 N 594.196 -1.08629 -1.14182 0
M  V30 6324 C 595.445 -0.812271 -1.84621 0
M  V30 6325 C 595.758 0.664313 -1.83973 0
M  V30 6326 O 596.964 1.05357 -2.50224 0
M  V30 6327 C 595.42 -1.4031 -3.31423 0
M  V30 6328 C 595.028 -2.91164 -3.40481 0
M  V30 6329 C 596.772 -1.20767 -4.06959 0
M  V30 6330 C 594.679 -3.43373 -4.81507 0
M  V30 6331 H 593.609 -0.30019 -0.691666 0
M  V30 6332 H 596.26 -1.30798 -1.28701 0
M  V30 6333 H 594.642 -0.835096 -3.87094 0
M  V30 6334 H 595.816 -3.5412 -2.94848 0
M  V30 6335 H 594.131 -3.09646 -2.78403 0
M  V30 6336 H 596.728 -1.57237 -5.11058 0
M  V30 6337 H 597.071 -0.147664 -4.16038 0
M  V30 6338 H 597.604 -1.74274 -3.57594 0
M  V30 6339 H 594.343 -4.48958 -4.77616 0
M  V30 6340 H 593.863 -2.85176 -5.27669 0
M  V30 6341 H 595.542 -3.40095 -5.50404 0
M  V30 6342 N 595.674 1.31259 -0.872281 0
M  V30 6343 C 596.604 2.30929 -0.345554 0
M  V30 6344 C 597.585 1.60449 0.5648 0
M  V30 6345 O 598.77 1.8814 0.481335 0
M  V30 6346 C 595.9 3.44348 0.451823 0
M  V30 6347 C 594.854 4.26435 -0.365641 0
M  V30 6348 C 594.18 5.31785 0.557562 0
M  V30 6349 C 595.48 4.97159 -1.60095 0
M  V30 6350 H 597.174 2.75234 -1.17841 0
M  V30 6351 H 594.72 1.3232 -0.568094 0
M  V30 6352 H 596.673 4.13128 0.830854 0
M  V30 6353 H 595.397 2.98816 1.31821 0
M  V30 6354 H 594.056 3.59326 -0.726649 0
M  V30 6355 H 593.704 4.82502 1.4213 0
M  V30 6356 H 593.404 5.87598 0.0144878 0
M  V30 6357 H 594.928 6.03424 0.933387 0
M  V30 6358 H 596.342 5.58523 -1.29323 0
M  V30 6359 H 594.739 5.62779 -2.08327 0
M  V30 6360 H 595.809 4.24012 -2.35249 0
M  V30 6361 N 597.152 0.631951 1.44375 0
M  V30 6362 C 598.099 -0.0724807 2.30686 0
M  V30 6363 C 599.069 -0.835975 1.43529 0
M  V30 6364 O 600.254 -0.816849 1.7243 0
M  V30 6365 C 597.394 -1.04753 3.28817 0
M  V30 6366 C 596.507 -0.282367 4.31076 0
M  V30 6367 C 595.642 -1.2493 5.163 0
M  V30 6368 C 594.681 -0.473349 6.10267 0
M  V30 6369 N 593.818 -1.39079 6.88187 0
M  V30 6370 H 598.658 0.669477 2.90383 0
M  V30 6371 H 596.195 0.341927 1.43071 0
M  V30 6372 H 598.153 -1.62623 3.842 0
M  V30 6373 H 596.783 -1.75661 2.70819 0
M  V30 6374 H 595.835 0.412268 3.78159 0
M  V30 6375 H 597.147 0.321955 4.9776 0
M  V30 6376 H 596.301 -1.89931 5.76204 0
M  V30 6377 H 595.04 -1.88755 4.49692 0
M  V30 6378 H 594.045 0.190142 5.49471 0
M  V30 6379 H 595.27 0.16019 6.78911 0
M  V30 6380 H 593.216 -2.01623 6.24247 0
M  V30 6381 H 593.133 -0.840513 7.51313 0
M  V30 6382 H 594.401 -2.02961 7.52613 0
M  V30 6383 N 598.631 -1.53133 0.372548 0
M  V30 6384 C 599.579 -2.27473 -0.485681 0
M  V30 6385 C 600.573 -1.30719 -1.07745 0
M  V30 6386 O 601.779 -1.48321 -1.01985 0
M  V30 6387 H 598.154 -0.731269 -0.175356 0
M  V30 6388 H 600.125 -2.97955 0.162986 0
M  V30 6389 C 598.874 -3.08191 -1.60978 0
M  V30 6390 H 598.197 -3.82488 -1.16373 0
M  V30 6391 H 599.637 -3.63373 -2.18485 0
M  V30 6392 C 598.096 -2.19461 -2.55614 0
M  V30 6393 O 598.626 -1.81008 -3.58607 0
M  V30 6394 N 596.832 -1.83955 -2.24965 0
M  V30 6395 H 596.379 -2.15423 -1.41247 0
M  V30 6396 H 596.337 -1.24874 -2.88538 0
M  V30 6397 N 600.109 -0.101901 -1.5727 0
M  V30 6398 C 601.019 0.868647 -2.17926 0
M  V30 6399 C 602.035 1.30527 -1.1506 0
M  V30 6400 O 603.211 1.37178 -1.47459 0
M  V30 6401 C 600.276 2.10727 -2.75309 0
M  V30 6402 C 599.337 1.7242 -3.93154 0
M  V30 6403 C 598.57 2.90377 -4.47791 0
M  V30 6404 O 598.793 4.05305 -4.01353 0
M  V30 6405 O 597.727 2.6845 -5.38719 0
M  V30 6406 H 601.553 0.382544 -3.01281 0
M  V30 6407 H 599.138 0.122812 -1.48894 0
M  V30 6408 H 601.02 2.83303 -3.11958 0
M  V30 6409 H 599.695 2.58376 -1.94996 0
M  V30 6410 H 598.602 0.970039 -3.61305 0
M  V30 6411 H 599.935 1.29528 -4.74851 0
M  V30 6412 N 601.587 1.56661 0.17182 0
M  V30 6413 C 602.55 1.9549 1.19651 0
M  V30 6414 C 603.55 0.838501 1.37207 0
M  V30 6415 O 604.74 1.10556 1.34622 0
M  V30 6416 C 601.872 2.24927 2.56166 0
M  V30 6417 H 603.065 2.87184 0.864007 0
M  V30 6418 H 600.618 1.50711 0.41425 0
M  V30 6419 H 601.353 1.35944 2.94431 0
M  V30 6420 H 601.138 3.06301 2.4479 0
M  V30 6421 H 602.628 2.55891 3.30014 0
M  V30 6422 N 603.065 -0.440357 1.51323 0
M  V30 6423 C 604.013 -1.55492 1.72988 0
M  V30 6424 C 605.007 -1.58564 0.596138 0
M  V30 6425 O 606.213 -1.62345 0.777443 0
M  V30 6426 H 602.588 -0.516532 0.546533 0
M  V30 6427 H 604.559 -1.34392 2.66423 0
M  V30 6428 C 603.308 -2.93176 1.86931 0
M  V30 6429 H 602.631 -2.91543 2.73574 0
M  V30 6430 H 604.071 -3.70537 2.06103 0
M  V30 6431 C 602.53 -3.30988 0.628365 0
M  V30 6432 O 603.06 -4.01106 -0.218367 0
M  V30 6433 N 601.266 -2.86719 0.473339 0
M  V30 6434 H 600.813 -2.2983 1.16345 0
M  V30 6435 H 600.771 -3.12381 -0.355727 0
M  V30 6436 N 604.543 -1.41418 -0.695603 0
M  V30 6437 C 605.82 -1.31264 -1.45014 0
M  V30 6438 C 606.2 0.0597994 -2.11015 0
M  V30 6439 O 605.548 1.07403 -2.01685 0
M  V30 6440 C 605.758 -2.466 -2.4696 0
M  V30 6441 C 607.106 -2.87763 -3.12214 0
M  V30 6442 O 608.13 -2.46339 -2.57285 0
M  V30 6443 O 606.989 -3.59395 -4.11701 0
M  V30 6444 H 604.083 -0.516576 -0.645816 0
M  V30 6445 H 606.629 -1.53382 -0.726084 0
M  V30 6446 H 605.401 -3.38183 -1.96845 0
M  V30 6447 H 605.024 -2.26358 -3.26876 0
M  V30 6448 N 606.021 0.929856 -1.27246 0
M  V30 6449 C 607.432 1.49223 -1.12203 0
M  V30 6450 C 607.783 1.93989 0.293731 0
M  V30 6451 O 606.908 1.80978 1.18642 0
M  V30 6452 C 607.503 2.71198 -2.0307 0
M  V30 6453 C 606.062 3.23666 -1.92139 0
M  V30 6454 C 605.209 1.96409 -1.95752 0
M  V30 6455 H 608.16 0.744181 -1.4017 0
M  V30 6456 H 608.181 3.45905 -1.58524 0
M  V30 6457 H 607.693 2.38585 -3.06102 0
M  V30 6458 H 605.794 3.61042 -0.920834 0
M  V30 6459 H 605.907 3.90006 -2.78267 0
M  V30 6460 H 604.271 2.12806 -1.39949 0
M  V30 6461 H 605.054 1.66113 -3.00436 0
M  V30 6462 N 607.499 1.09233 1.13605 0
M  V30 6463 C 608.462 0.733553 2.17144 0
M  V30 6464 C 609.462 -0.235873 1.59061 0
M  V30 6465 O 610.652 -0.0143167 1.74194 0
M  V30 6466 C 607.784 0.084471 3.40795 0
M  V30 6467 H 608.977 1.65049 2.50397 0
M  V30 6468 H 606.53 0.891264 1.28399 0
M  V30 6469 H 607.265 -0.843795 3.1313 0
M  V30 6470 H 607.05 0.781985 3.84223 0
M  V30 6471 H 608.54 -0.151216 4.17326 0
M  V30 6472 N 608.977 -1.30795 0.87923 0
M  V30 6473 C 609.907 -2.30742 0.357796 0
M  V30 6474 C 610.888 -1.60747 -0.556283 0
M  V30 6475 O 612.073 -1.88393 -0.47135 0
M  V30 6476 C 609.203 -3.44583 -0.433555 0
M  V30 6477 C 608.157 -4.26235 0.388251 0
M  V30 6478 C 607.483 -5.32073 -0.529352 0
M  V30 6479 C 608.783 -4.96303 1.62729 0
M  V30 6480 H 610.477 -2.74605 1.19299 0
M  V30 6481 H 608.023 -1.32017 0.575104 0
M  V30 6482 H 609.976 -4.13563 -0.808934 0
M  V30 6483 H 608.7 -2.99511 -1.30234 0
M  V30 6484 H 607.359 -3.58936 0.745695 0
M  V30 6485 H 607.007 -4.83249 -1.39569 0
M  V30 6486 H 606.707 -5.87598 0.0166741 0
M  V30 6487 H 608.231 -6.0391 -0.901373 0
M  V30 6488 H 609.645 -5.5783 1.32283 0
M  V30 6489 H 608.042 -5.61666 2.11309 0
M  V30 6490 H 609.112 -4.22758 2.37494 0
M  V30 6491 N 610.455 -0.639598 -1.44038 0
M  V30 6492 C 611.402 0.0602458 -2.30721 0
M  V30 6493 C 612.372 0.828352 -1.43971 0
M  V30 6494 O 613.557 0.807693 -1.72861 0
M  V30 6495 C 610.697 1.03008 -3.29368 0
M  V30 6496 C 609.81 0.259502 -4.3122 0
M  V30 6497 C 608.945 1.22191 -5.16955 0
M  V30 6498 C 607.984 0.440978 -6.10509 0
M  V30 6499 N 607.121 1.35428 -6.88915 0
M  V30 6500 H 611.961 -0.684867 -2.90023 0
M  V30 6501 H 609.498 -0.349509 -1.42888 0
M  V30 6502 H 611.456 1.60583 -3.85057 0
M  V30 6503 H 610.086 1.74222 -2.71747 0
M  V30 6504 H 609.138 -0.432317 -3.77935 0
M  V30 6505 H 610.45 -0.348347 -4.97582 0
M  V30 6506 H 609.604 1.86873 -5.77203 0
M  V30 6507 H 608.343 1.86367 -4.50687 0
M  V30 6508 H 607.348 -0.219279 -5.49363 0
M  V30 6509 H 608.573 -0.196192 -6.78817 0
M  V30 6510 H 606.519 1.9831 -6.25307 0
M  V30 6511 H 606.436 0.800657 -7.51748 0
M  V30 6512 H 607.704 1.98967 -7.53679 0
M  V30 6513 N 611.933 1.52934 -0.380664 0
M  V30 6514 C 613.21 1.93845 0.261417 0
M  V30 6515 C 613.59 1.31544 1.65104 0
M  V30 6516 O 612.938 0.480234 2.23397 0
M  V30 6517 C 613.148 3.47739 0.296466 0
M  V30 6518 C 614.496 4.21284 0.529578 0
M  V30 6519 O 615.52 3.54199 0.377041 0
M  V30 6520 O 614.379 5.40195 0.827753 0
M  V30 6521 H 611.473 0.811318 0.160285 0
M  V30 6522 H 614.019 1.64042 -0.434544 0
M  V30 6523 H 612.791 3.85395 -0.67724 0
M  V30 6524 H 612.414 3.8382 1.0377 0
M  V30 6525 N 613.412 0.11024 1.57214 0
M  V30 6526 C 614.322 -0.857077 2.18383 0
M  V30 6527 C 615.338 -1.29915 1.1575 0
M  V30 6528 O 616.514 -1.36394 1.48184 0
M  V30 6529 C 613.579 -2.09264 2.76423 0
M  V30 6530 C 612.64 -1.70333 3.94063 0
M  V30 6531 C 611.873 -2.87999 4.49324 0
M  V30 6532 O 612.096 -4.0317 4.03497 0
M  V30 6533 O 611.03 -2.6559 5.40135 0
M  V30 6534 H 614.856 -0.366561 3.0148 0
M  V30 6535 H 612.441 -0.114914 1.48957 0
M  V30 6536 H 614.323 -2.81644 3.13456 0
M  V30 6537 H 612.998 -2.57339 1.96363 0
M  V30 6538 H 611.905 -0.950864 3.61814 0
M  V30 6539 H 613.238 -1.27007 4.75531 0
M  V30 6540 N 614.89 -1.56749 -0.16351 0
M  V30 6541 C 615.82 -2.00042 -1.20438 0
M  V30 6542 C 616.801 -0.877256 -1.45733 0
M  V30 6543 O 617.986 -1.1439 -1.56935 0
M  V30 6544 C 615.116 -2.36697 -2.54149 0
M  V30 6545 C 614.07 -3.52046 -2.43408 0
M  V30 6546 C 613.396 -3.74466 -3.81679 0
M  V30 6547 C 614.696 -4.85247 -1.93216 0
M  V30 6548 H 616.39 -2.87244 -0.844477 0
M  V30 6549 H 613.936 -1.38194 -0.40478 0
M  V30 6550 H 615.889 -2.65582 -3.27176 0
M  V30 6551 H 614.613 -1.46414 -2.91943 0
M  V30 6552 H 613.272 -3.23301 -1.72834 0
M  V30 6553 H 612.92 -2.81461 -4.1688 0
M  V30 6554 H 612.62 -4.52084 -3.75359 0
M  V30 6555 H 614.144 -4.0576 -4.5628 0
M  V30 6556 H 615.558 -5.12957 -2.56023 0
M  V30 6557 H 613.955 -5.66556 -1.97825 0
M  V30 6558 H 615.025 -4.7672 -0.88689 0
M  V30 6559 N 616.368 0.432326 -1.51554 0
M  V30 6560 C 617.298 1.53242 -1.76179 0
M  V30 6561 C 618.279 1.58717 -0.611801 0
M  V30 6562 O 619.464 1.74364 -0.855033 0
M  V30 6563 C 616.594 2.91278 -1.89141 0
M  V30 6564 C 615.548 3.00663 -3.04608 0
M  V30 6565 C 614.874 4.40728 -3.02759 0
M  V30 6566 C 616.174 2.74281 -4.44485 0
M  V30 6567 H 617.868 1.32886 -2.68294 0
M  V30 6568 H 615.414 0.637841 -1.29103 0
M  V30 6569 H 617.367 3.68203 -2.04951 0
M  V30 6570 H 616.091 3.12877 -0.936785 0
M  V30 6571 H 614.75 2.26179 -2.88511 0
M  V30 6572 H 614.398 4.59301 -2.05065 0
M  V30 6573 H 614.098 4.47936 -3.80299 0
M  V30 6574 H 615.622 5.19619 -3.20669 0
M  V30 6575 H 617.036 3.40936 -4.60907 0
M  V30 6576 H 615.433 2.92893 -5.23769 0
M  V30 6577 H 616.503 1.69856 -4.54177 0
M  V30 6578 N 617.846 1.41785 0.688094 0
M  V30 6579 C 618.809 1.43936 1.78368 0
M  V30 6580 C 619.809 0.328866 1.57401 0
M  V30 6581 O 620.999 0.589093 1.63937 0
M  V30 6582 C 618.131 1.25804 3.16838 0
M  V30 6583 H 619.324 2.41472 1.77852 0
M  V30 6584 H 616.877 1.28037 0.896448 0
M  V30 6585 H 617.612 0.291386 3.22988 0
M  V30 6586 H 617.397 2.06272 3.33458 0
M  V30 6587 H 618.887 1.30162 3.96797 0
M  V30 6588 N 619.324 -0.923095 1.27737 0
M  V30 6589 C 620.234 -2.05765 1.12685 0
M  V30 6590 C 621.25 -1.73911 0.0557197 0
M  V30 6591 O 622.426 -1.99674 0.263137 0
M  V30 6592 C 619.491 -3.37804 0.780363 0
M  V30 6593 C 618.552 -3.83326 1.93286 0
M  V30 6594 C 617.785 -5.09064 1.60281 0
M  V30 6595 O 618.008 -5.6809 0.512828 0
M  V30 6596 O 616.942 -5.50071 2.44347 0
M  V30 6597 H 620.768 -2.21378 2.07907 0
M  V30 6598 H 618.353 -1.04299 1.06968 0
M  V30 6599 H 620.235 -4.17097 0.600668 0
M  V30 6600 H 618.91 -3.23387 -0.142291 0
M  V30 6601 H 617.817 -3.049 2.16764 0
M  V30 6602 H 619.15 -4.02292 2.83588 0
M  V30 6603 N 620.802 -1.09834 -1.13024 0
M  V30 6604 C 621.765 -0.745058 -2.16752 0
M  V30 6605 C 622.765 0.227435 -1.59183 0
M  V30 6606 O 623.955 0.0050786 -1.74199 0
M  V30 6607 C 621.087 -0.102543 -3.40746 0
M  V30 6608 H 622.28 -1.66375 -2.49518 0
M  V30 6609 H 619.833 -0.898061 -1.27924 0
M  V30 6610 H 620.568 0.827177 -3.13573 0
M  V30 6611 H 620.353 -0.80235 -3.83803 0
M  V30 6612 H 621.843 0.129082 -4.174 0
M  V30 6613 N 622.28 1.30327 -0.886154 0
M  V30 6614 C 623.228 2.30052 -0.343317 0
M  V30 6615 C 624.222 1.60212 0.550305 0
M  V30 6616 O 625.428 1.74674 0.434609 0
M  V30 6617 H 621.803 0.746306 -0.0923681 0
M  V30 6618 H 623.774 2.73294 -1.19804 0
M  V30 6619 C 622.523 3.45079 0.426107 0
M  V30 6620 H 621.846 3.99003 -0.25227 0
M  V30 6621 H 623.286 4.16931 0.771009 0
M  V30 6622 C 621.745 2.95195 1.62363 0
M  V30 6623 O 622.275 2.95323 2.723 0
M  V30 6624 N 620.481 2.51192 1.4612 0
M  V30 6625 H 620.028 2.51286 0.566832 0
M  V30 6626 H 619.986 2.18173 2.2638 0
M  V30 6627 N 623.758 0.647228 1.43697 0
M  V30 6628 C 625.004 0.158422 2.0218 0
M  V30 6629 C 625.337 -1.22233 1.50907 0
M  V30 6630 O 624.612 -1.81478 0.699702 0
M  V30 6631 C 624.895 0.1627 3.59732 0
M  V30 6632 C 624.748 1.57694 4.21251 0
M  V30 6633 C 626.067 -0.504138 4.37203 0
M  V30 6634 H 623.186 0.059042 0.734631 0
M  V30 6635 H 625.828 0.826772 1.71069 0
M  V30 6636 H 623.978 -0.406414 3.86368 0
M  V30 6637 H 625.65 2.19618 4.05667 0
M  V30 6638 H 623.893 2.12603 3.7813 0
M  V30 6639 H 624.564 1.53183 5.3032 0
M  V30 6640 H 627.04 -0.0199841 4.16095 0
M  V30 6641 H 625.916 -0.470394 5.46881 0
M  V30 6642 H 626.177 -1.57726 4.13007 0
M  V30 6643 N 625.236 -1.5273 0.388769 0
M  V30 6644 C 626.169 -2.22861 -0.490752 0
M  V30 6645 C 627.147 -1.22912 -1.06449 0
M  V30 6646 O 628.331 -1.51896 -1.11624 0
M  V30 6647 C 625.458 -2.94141 -1.67925 0
M  V30 6648 C 624.504 -4.08355 -1.23081 0
M  V30 6649 S 625.337 -5.35077 -0.212786 0
M  V30 6650 C 626.493 -6.09879 -1.40708 0
M  V30 6651 H 626.726 -2.97115 0.104787 0
M  V30 6652 H 624.259 -1.53428 0.172956 0
M  V30 6653 H 626.217 -3.35818 -2.36085 0
M  V30 6654 H 624.878 -2.19568 -2.24608 0
M  V30 6655 H 624.071 -4.57328 -2.11818 0
M  V30 6656 H 623.673 -3.68688 -0.628121 0
M  V30 6657 H 625.965 -6.36018 -2.33424 0
M  V30 6658 H 626.908 -7.01586 -0.958271 0
M  V30 6659 H 627.316 -5.40646 -1.62364 0
M  V30 6660 N 626.714 -0.118576 -1.57153 0
M  V30 6661 C 627.646 0.862247 -2.12363 0
M  V30 6662 C 628.659 1.23025 -1.06625 0
M  V30 6663 O 629.848 1.17927 -1.33998 0
M  V30 6664 C 626.948 2.16425 -2.60794 0
M  V30 6665 C 626.121 1.96801 -3.90626 0
M  V30 6666 C 625.18 3.10726 -4.2466 0
M  V30 6667 O 624.206 2.83659 -4.93484 0
M  V30 6668 N 625.408 4.37147 -3.81946 0
M  V30 6669 H 628.173 0.390564 -2.97144 0
M  V30 6670 H 625.734 0.0658591 -1.61766 0
M  V30 6671 H 627.726 2.91633 -2.80593 0
M  V30 6672 H 626.296 2.54943 -1.80895 0
M  V30 6673 H 625.516 1.05787 -3.7974 0
M  V30 6674 H 626.804 1.80993 -4.7552 0
M  V30 6675 H 626.202 4.62014 -3.26435 0
M  V30 6676 H 624.759 5.09229 -4.06853 0
M  V30 6677 N 628.193 1.56834 0.155195 0
M  V30 6678 C 629.125 1.94235 1.21677 0
M  V30 6679 C 630.138 0.83724 1.39621 0
M  V30 6680 O 631.327 1.11567 1.39338 0
M  V30 6681 C 628.427 2.19402 2.58294 0
M  V30 6682 C 627.6 3.50671 2.61436 0
M  V30 6683 C 626.659 3.64475 3.79532 0
M  V30 6684 O 625.685 4.36945 3.64784 0
M  V30 6685 N 626.887 3.00526 4.96653 0
M  V30 6686 H 629.652 2.85901 0.898932 0
M  V30 6687 H 627.213 1.58185 0.34483 0
M  V30 6688 H 629.205 2.25886 3.35794 0
M  V30 6689 H 627.775 1.34042 2.82403 0
M  V30 6690 H 626.995 3.55702 1.69912 0
M  V30 6691 H 628.283 4.3702 2.60559 0
M  V30 6692 H 627.681 2.41549 5.11538 0
M  V30 6693 H 626.238 3.12583 5.71958 0
M  V30 6694 N 629.671 -0.424282 1.51781 0
M  V30 6695 C 630.601 -1.52305 1.7699 0
M  V30 6696 C 631.582 -1.5839 0.620209 0
M  V30 6697 O 632.767 -1.73908 0.864268 0
M  V30 6698 C 629.897 -2.90271 1.90683 0
M  V30 6699 C 628.851 -2.99043 3.06198 0
M  V30 6700 C 628.177 -4.39116 3.05092 0
M  V30 6701 C 629.477 -2.7192 4.45934 0
M  V30 6702 H 631.171 -1.31461 2.68995 0
M  V30 6703 H 628.717 -0.630985 1.29439 0
M  V30 6704 H 630.67 -3.6711 2.06901 0
M  V30 6705 H 629.394 -3.12376 0.953365 0
M  V30 6706 H 628.053 -2.24646 2.89706 0
M  V30 6707 H 627.701 -4.58207 2.07498 0
M  V30 6708 H 627.401 -4.45912 3.82669 0
M  V30 6709 H 628.925 -5.17911 3.2342 0
M  V30 6710 H 630.339 -3.38487 4.62709 0
M  V30 6711 H 628.736 -2.90111 5.25315 0
M  V30 6712 H 629.806 -1.67445 4.55072 0
M  V30 6713 N 631.149 -1.42148 -0.680565 0
M  V30 6714 C 632.426 -1.32795 -1.43614 0
M  V30 6715 C 632.806 0.037415 -2.11067 0
M  V30 6716 O 632.154 1.05258 -2.02813 0
M  V30 6717 C 632.364 -2.49206 -2.44331 0
M  V30 6718 C 633.712 -2.91059 -3.09144 0
M  V30 6719 O 634.736 -2.49054 -2.54657 0
M  V30 6720 O 633.595 -3.63741 -4.07866 0
M  V30 6721 H 630.689 -0.523397 -0.640301 0
M  V30 6722 H 633.235 -1.54144 -0.709775 0
M  V30 6723 H 632.007 -3.40252 -1.93247 0
M  V30 6724 H 631.63 -2.29813 -3.24456 0
M  V30 6725 N 632.627 0.916307 -1.28225 0
M  V30 6726 C 633.575 2.03977 -1.11786 0
M  V30 6727 C 634.569 1.69358 -0.0378265 0
M  V30 6728 O 635.775 1.78925 -0.196405 0
M  V30 6729 H 632.15 0.66829 -0.344809 0
M  V30 6730 H 634.121 2.14985 -2.06939 0
M  V30 6731 C 632.87 3.38518 -0.7938 0
M  V30 6732 H 632.193 3.65649 -1.61682 0
M  V30 6733 H 633.633 4.17864 -0.718719 0
M  V30 6734 C 632.092 3.33134 0.502353 0
M  V30 6735 O 632.622 3.71281 1.53341 0
M  V30 6736 N 630.828 2.86229 0.502147 0
M  V30 6737 H 630.375 2.55382 -0.337338 0
M  V30 6738 H 630.333 2.83009 1.36942 0
M  V30 6739 N 634.105 1.10431 1.1244 0
M  V30 6740 C 635.516 0.864439 1.65482 0
M  V30 6741 C 635.867 -0.60527 1.8663 0
M  V30 6742 O 634.992 -1.46492 1.59276 0
M  V30 6743 C 635.587 1.56267 3.0061 0
M  V30 6744 C 634.146 1.3695 3.50602 0
M  V30 6745 C 633.293 1.61209 2.25626 0
M  V30 6746 H 636.244 1.26203 0.962209 0
M  V30 6747 H 636.265 1.00166 3.67079 0
M  V30 6748 H 635.777 2.63231 2.85186 0
M  V30 6749 H 633.878 0.321481 3.71211 0
M  V30 6750 H 633.991 2.11143 4.30064 0
M  V30 6751 H 632.355 1.03482 2.32731 0
M  V30 6752 H 633.138 2.69425 2.12756 0
M  V30 6753 N 635.583 -1.29855 0.893053 0
M  V30 6754 C 636.813 -1.99686 0.530019 0
M  V30 6755 C 637.221 -1.67066 -0.888012 0
M  V30 6756 O 636.564 -0.908366 -1.5967 0
M  V30 6757 C 636.626 -3.53855 0.63457 0
M  V30 6758 C 636.29 -4.10013 2.01837 0
M  V30 6759 C 637.287 -4.25406 2.98874 0
M  V30 6760 C 634.972 -4.45202 2.32595 0
M  V30 6761 C 636.966 -4.7521 4.24799 0
M  V30 6762 C 634.653 -4.94704 3.58763 0
M  V30 6763 C 635.651 -5.09662 4.5468 0
M  V30 6764 O 635.339 -5.58093 5.78608 0
M  V30 6765 H 635.071 -0.644913 0.20264 0
M  V30 6766 H 637.625 -1.66518 1.20253 0
M  V30 6767 H 635.855 -3.86583 -0.0949477 0
M  V30 6768 H 637.544 -4.04922 0.281648 0
M  V30 6769 H 638.31 -3.98515 2.76425 0
M  V30 6770 H 634.189 -4.32822 1.58701 0
M  V30 6771 H 637.733 -4.86801 4.99671 0
M  V30 6772 H 633.63 -5.21032 3.81046 0
M  V30 6773 H 634.398 -5.7642 5.81104 0
M  V30 6774 N 637.061 -0.65484 -1.43351 0
M  V30 6775 C 638.31 -0.166215 -2.01014 0
M  V30 6776 C 638.623 1.22764 -1.52278 0
M  V30 6777 O 639.829 1.81156 -2.02224 0
M  V30 6778 C 638.285 -0.246341 -3.59056 0
M  V30 6779 C 637.893 -1.64299 -4.16785 0
M  V30 6780 C 639.637 0.184597 -4.24098 0
M  V30 6781 C 637.544 -1.67695 -5.67126 0
M  V30 6782 H 636.474 -0.0583769 -0.751737 0
M  V30 6783 H 639.125 -0.817111 -1.64303 0
M  V30 6784 H 637.507 0.472092 -3.93176 0
M  V30 6785 H 638.681 -2.3869 -3.94162 0
M  V30 6786 H 636.996 -2.02004 -3.6412 0
M  V30 6787 H 639.593 0.179088 -5.344 0
M  V30 6788 H 639.936 1.21632 -3.98135 0
M  V30 6789 H 640.469 -0.482141 -3.94867 0
M  V30 6790 H 637.208 -2.68783 -5.9786 0
M  V30 6791 H 636.728 -0.976313 -5.91801 0
M  V30 6792 H 638.407 -1.42142 -6.31193 0
M  V30 6793 N 638.539 1.52521 -0.396863 0
M  V30 6794 C 639.785 2.01971 0.183169 0
M  V30 6795 C 640.118 1.2825 1.45827 0
M  V30 6796 O 639.393 0.385179 1.90648 0
M  V30 6797 C 639.676 3.5736 0.443391 0
M  V30 6798 C 639.529 4.41743 -0.84753 0
M  V30 6799 C 640.848 4.22539 1.2308 0
M  V30 6800 H 637.967 0.734119 0.0650976 0
M  V30 6801 H 640.609 1.82519 -0.527918 0
M  V30 6802 H 638.759 3.74066 1.04914 0
M  V30 6803 H 640.431 4.36773 -1.48414 0
M  V30 6804 H 638.674 4.0845 -1.4612 0
M  V30 6805 H 639.345 5.48507 -0.620003 0
M  V30 6806 H 641.821 4.09857 0.718084 0
M  V30 6807 H 640.697 5.31227 1.38162 0
M  V30 6808 H 640.958 3.80675 2.24808 0
M  V30 6809 N 640.017 0.126909 1.57088 0
M  V30 6810 C 641.433 -0.229641 1.57939 0
M  V30 6811 C 641.633 -1.66145 1.1401 0
M  V30 6812 O 640.689 -2.3843 0.831119 0
M  V30 6813 C 642.002 0.0108648 3.00698 0
M  V30 6814 C 643.55 -0.054418 3.12953 0
M  V30 6815 C 644.025 0.158497 4.57726 0
M  V30 6816 N 645.516 0.104735 4.63082 0
M  V30 6817 C 646.251 0.24427 5.72879 0
M  V30 6818 N 645.747 0.440415 6.91399 0
M  V30 6819 N 647.54 0.183286 5.61801 0
M  V30 6820 H 639.691 1.06203 1.83942 0
M  V30 6821 H 641.954 0.418834 0.85046 0
M  V30 6822 H 641.66 1.00102 3.37154 0
M  V30 6823 H 641.534 -0.717512 3.70313 0
M  V30 6824 H 643.921 -1.0351 2.7635 0
M  V30 6825 H 644.002 0.705967 2.45865 0
M  V30 6826 H 643.646 1.13619 4.95028 0
M  V30 6827 H 643.576 -0.62197 5.22914 0
M  V30 6828 H 646.067 -0.0430298 3.77876 0
M  V30 6829 H 646.38 0.537536 7.70928 0
M  V30 6830 H 644.725 0.476488 6.93365 0
M  V30 6831 H 647.916 0.0309561 4.6809 0
M  V30 6832 H 648.089 0.295471 6.47326 0
M  V30 6833 N 641.495 -1.56914 -0.146875 0
M  V30 6834 C 642.428 -1.93425 -1.21087 0
M  V30 6835 C 643.406 -0.800106 -1.41552 0
M  V30 6836 O 644.59 -1.05572 -1.56162 0
M  V30 6837 C 641.717 -2.20639 -2.56975 0
M  V30 6838 C 640.763 -3.43279 -2.53104 0
M  V30 6839 S 641.596 -4.96836 -1.99786 0
M  V30 6840 C 642.752 -5.27172 -3.37403 0
M  V30 6841 H 642.985 -2.8337 -0.899378 0
M  V30 6842 H 640.518 -1.50322 -0.352494 0
M  V30 6843 H 642.476 -2.36998 -3.35175 0
M  V30 6844 H 641.137 -1.31357 -2.85314 0
M  V30 6845 H 640.33 -3.59599 -3.53136 0
M  V30 6846 H 639.932 -3.26163 -1.83012 0
M  V30 6847 H 642.224 -5.20647 -4.33513 0
M  V30 6848 H 643.167 -6.28626 -3.25937 0
M  V30 6849 H 643.575 -4.54687 -3.34544 0
M  V30 6850 N 642.974 0.416227 -1.52004 0
M  V30 6851 C 644.223 1.16088 -1.64944 0
M  V30 6852 C 644.536 1.91835 -0.381928 0
M  V30 6853 O 645.742 2.6867 -0.391013 0
M  V30 6854 C 644.198 2.1124 -2.91386 0
M  V30 6855 C 643.806 1.41042 -4.25219 0
M  V30 6856 C 645.55 2.86008 -3.13688 0
M  V30 6857 C 643.457 2.34801 -5.42791 0
M  V30 6858 H 642.387 0.437041 -0.61442 0
M  V30 6859 H 645.038 0.425971 -1.78487 0
M  V30 6860 H 643.42 2.88254 -2.71525 0
M  V30 6861 H 644.594 0.694416 -4.55538 0
M  V30 6862 H 642.909 0.78344 -4.08964 0
M  V30 6863 H 645.506 3.56286 -3.98703 0
M  V30 6864 H 645.849 3.48556 -2.27628 0
M  V30 6865 H 646.382 2.16095 -3.33988 0
M  V30 6866 H 643.121 1.7691 -6.31176 0
M  V30 6867 H 642.641 3.04395 -5.16821 0
M  V30 6868 H 644.32 2.9548 -5.75587 0
M  V30 6869 N 644.452 1.42507 0.673017 0
M  V30 6870 C 645.7 1.42789 1.43023 0
M  V30 6871 C 646.021 0.0459738 1.94946 0
M  V30 6872 O 645.291 -0.915765 1.73178 0
M  V30 6873 H 643.871 0.525657 0.530748 0
M  V30 6874 H 646.533 1.77944 0.795113 0
M  V30 6875 H 645.629 2.12872 2.28237 0
M  V30 6876 N 645.93 -0.909495 1.28709 0
M  V30 6877 C 647.179 -1.65365 1.15487 0
M  V30 6878 C 647.492 -1.93364 -0.294941 0
M  V30 6879 O 648.698 -2.65905 -0.548338 0
M  V30 6880 C 647.154 -2.97923 2.01916 0
M  V30 6881 C 646.762 -2.77556 3.51663 0
M  V30 6882 C 648.506 -3.75814 1.97393 0
M  V30 6883 C 646.413 -4.0578 4.30229 0
M  V30 6884 H 645.343 -0.620323 0.42862 0
M  V30 6885 H 647.994 -1.00894 1.53273 0
M  V30 6886 H 646.376 -3.63552 1.5699 0
M  V30 6887 H 647.55 -2.2058 4.04575 0
M  V30 6888 H 645.865 -2.13072 3.57756 0
M  V30 6889 H 648.462 -4.70866 2.53357 0
M  V30 6890 H 648.805 -4.05277 0.951643 0
M  V30 6891 H 649.338 -3.1701 2.40311 0
M  V30 6892 H 646.077 -3.81488 5.33055 0
M  V30 6893 H 645.597 -4.62351 3.82089 0
M  V30 6894 H 647.276 -4.74004 4.40374 0
M  V30 6895 N 647.408 -1.11026 -1.11852 0
M  V30 6896 C 648.648 -0.866348 -1.85132 0
M  V30 6897 C 649.012 0.597236 -1.82475 0
M  V30 6898 O 650.213 0.957744 -2.51159 0
M  V30 6899 C 648.484 -1.40721 -3.28531 0
M  V30 6900 S 650.043 -1.29964 -4.19112 0
M  V30 6901 H 646.861 -0.312899 -0.638447 0
M  V30 6902 H 649.463 -1.41691 -1.34699 0
M  V30 6903 H 648.167 -2.46631 -3.28027 0
M  V30 6904 H 647.698 -0.85349 -3.8403 0
M  V30 6905 H 649.713 -0.261333 -4.95511 0
M  V30 6906 N 648.886 1.2938 -0.899927 0
M  V30 6907 C 649.796 2.31462 -0.382437 0
M  V30 6908 C 650.812 1.65956 0.522929 0
M  V30 6909 O 651.988 1.97131 0.412454 0
M  V30 6910 C 649.053 3.44595 0.381472 0
M  V30 6911 C 648.114 4.25692 -0.555444 0
M  V30 6912 C 647.347 5.33422 0.172102 0
M  V30 6913 O 647.57 5.53053 1.396 0
M  V30 6914 O 646.504 5.99939 -0.485491 0
M  V30 6915 H 650.33 2.77706 -1.22934 0
M  V30 6916 H 647.915 1.33821 -0.664259 0
M  V30 6917 H 649.797 4.13474 0.813442 0
M  V30 6918 H 648.472 3.00458 1.20443 0
M  V30 6919 H 647.379 3.59453 -1.03653 0
M  V30 6920 H 648.712 4.73471 -1.34483 0
M  V30 6921 N 650.364 0.662433 1.43002 0
M  V30 6922 C 651.327 -0.0142016 2.29196 0
M  V30 6923 C 652.327 -0.741394 1.42688 0
M  V30 6924 O 653.517 -0.581257 1.64216 0
M  V30 6925 C 650.649 -1.03084 3.24941 0
M  V30 6926 H 651.842 0.7443 2.90517 0
M  V30 6927 H 649.395 0.424133 1.50435 0
M  V30 6928 H 650.13 -1.81826 2.68533 0
M  V30 6929 H 649.915 -0.512946 3.8873 0
M  V30 6930 H 651.405 -1.50308 3.89612 0
M  V30 6931 N 651.842 -1.52309 0.404946 0
M  V30 6932 C 652.752 -2.30634 -0.429555 0
M  V30 6933 C 653.768 -1.38187 -1.05737 0
M  V30 6934 O 654.944 -1.71261 -1.05979 0
M  V30 6935 C 652.009 -3.10947 -1.53339 0
M  V30 6936 C 651.07 -4.19126 -0.929065 0
M  V30 6937 C 650.303 -4.95601 -1.9803 0
M  V30 6938 O 650.526 -4.72331 -3.1978 0
M  V30 6939 O 649.46 -5.80551 -1.58886 0
M  V30 6940 H 653.286 -3.0298 0.208963 0
M  V30 6941 H 650.871 -1.4845 0.168255 0
M  V30 6942 H 652.753 -3.60974 -2.1743 0
M  V30 6943 H 651.428 -2.41399 -2.15658 0
M  V30 6944 H 650.335 -3.73257 -0.250982 0
M  V30 6945 H 651.668 -4.90955 -0.349855 0
M  V30 6946 N 653.32 -0.135238 -1.57019 0
M  V30 6947 C 654.545 0.529343 -2.00531 0
M  V30 6948 C 654.97 1.58391 -1.01459 0
M  V30 6949 O 654.328 1.81296 0.0113986 0
M  V30 6950 C 654.376 1.11748 -3.42848 0
M  V30 6951 O 653.48 2.23267 -3.46736 0
M  V30 6952 H 652.821 0.130669 -0.651016 0
M  V30 6953 H 655.351 -0.228503 -2.0332 0
M  V30 6954 H 655.361 1.44905 -3.81401 0
M  V30 6955 H 654.036 0.345147 -4.14465 0
M  V30 6956 H 652.613 1.91428 -3.20015 0
M  V30 6957 N 654.798 1.5699 0.138552 0
M  V30 6958 C 656.044 1.84966 0.846116 0
M  V30 6959 C 656.399 0.72038 1.78405 0
M  V30 6960 O 655.692 -0.281076 1.89527 0
M  V30 6961 C 655.886 3.17007 1.65049 0
M  V30 6962 C 655.715 4.42672 0.79194 0
M  V30 6963 C 654.485 5.03254 0.454293 0
M  V30 6964 C 656.683 5.14164 0.118419 0
M  V30 6965 N 654.665 6.12482 -0.416964 0
M  V30 6966 C 656.036 6.16966 -0.61263 0
M  V30 6967 C 658.091 4.97884 0.0399671 0
M  V30 6968 C 656.794 7.0525 -1.41473 0
M  V30 6969 C 658.82 5.86639 -0.748901 0
M  V30 6970 C 658.182 6.88929 -1.4682 0
M  V30 6971 H 654.281 0.727362 0.287172 0
M  V30 6972 H 656.865 1.94383 0.110972 0
M  V30 6973 H 655.036 3.08722 2.35681 0
M  V30 6974 H 656.768 3.3286 2.30187 0
M  V30 6975 H 653.523 4.6693 0.792038 0
M  V30 6976 H 653.947 6.7172 -0.843865 0
M  V30 6977 H 658.589 4.18779 0.581728 0
M  V30 6978 H 656.307 7.83777 -1.96772 0
M  V30 6979 H 659.893 5.7611 -0.811705 0
M  V30 6980 H 658.773 7.56419 -2.06882 0
M  V30 6981 N 656.276 -0.40816 1.52223 0
M  V30 6982 C 657.209 -1.51834 1.70357 0
M  V30 6983 C 658.187 -1.52973 0.551171 0
M  V30 6984 O 659.371 -1.71667 0.778642 0
M  V30 6985 C 656.498 -2.90362 1.74378 0
M  V30 6986 C 655.544 -3.0713 2.95928 0
M  V30 6987 S 656.377 -2.80342 4.56255 0
M  V30 6988 C 657.533 -4.21098 4.63063 0
M  V30 6989 H 657.766 -1.36223 2.64255 0
M  V30 6990 H 655.299 -0.599798 1.42274 0
M  V30 6991 H 657.257 -3.70199 1.77379 0
M  V30 6992 H 655.918 -3.03314 0.816063 0
M  V30 6993 H 655.111 -4.08482 2.95226 0
M  V30 6994 H 654.713 -2.3516 2.90819 0
M  V30 6995 H 657.005 -5.14749 4.40499 0
M  V30 6996 H 657.948 -4.26823 5.65002 0
M  V30 6997 H 658.356 -4.06114 3.92086 0
M  V30 6998 N 657.755 -1.42862 -0.66545 0
M  V30 6999 C 658.685 -1.49867 -1.79059 0
M  V30 7000 C 659.666 -0.354394 -1.66367 0
M  V30 7001 O 660.851 -0.569969 -1.85647 0
M  V30 7002 C 657.981 -1.40943 -3.17415 0
M  V30 7003 C 656.935 -2.53495 -3.44854 0
M  V30 7004 C 656.261 -2.29626 -4.82883 0
M  V30 7005 C 657.561 -3.95781 -3.40815 0
M  V30 7006 H 659.255 -2.44037 -1.73453 0
M  V30 7007 H 656.801 -1.17456 -0.833071 0
M  V30 7008 H 658.754 -1.4445 -3.95869 0
M  V30 7009 H 657.478 -0.432716 -3.23721 0
M  V30 7010 H 656.137 -2.4932 -2.68766 0
M  V30 7011 H 655.785 -1.30226 -4.8585 0
M  V30 7012 H 655.485 -3.05065 -5.02204 0
M  V30 7013 H 657.009 -2.34897 -5.63609 0
M  V30 7014 H 658.423 -4.01508 -4.09224 0
M  V30 7015 H 656.82 -4.71148 -3.71672 0
M  V30 7016 H 657.89 -4.21786 -2.39216 0
M  V30 7017 N 659.233 0.902656 -1.29189 0
M  V30 7018 C 660.479 1.65532 -1.17163 0
M  V30 7019 C 660.812 1.92216 0.276879 0
M  V30 7020 O 660.087 1.53048 1.20027 0
M  V30 7021 C 660.37 3.00629 -1.98228 0
M  V30 7022 C 660.223 2.81029 -3.51202 0
M  V30 7023 C 661.542 4.01321 -1.80635 0
M  V30 7024 H 658.661 0.60071 -0.426985 0
M  V30 7025 H 661.303 1.04578 -1.5863 0
M  V30 7026 H 659.453 3.52656 -1.62991 0
M  V30 7027 H 661.125 2.35927 -3.96404 0
M  V30 7028 H 659.368 2.1587 -3.76275 0
M  V30 7029 H 660.039 3.77014 -4.03192 0
M  V30 7030 H 662.515 3.58394 -2.11406 0
M  V30 7031 H 661.391 4.93792 -2.3971 0
M  V30 7032 H 661.652 4.35505 -0.760754 0
M  V30 7033 N 660.711 1.11618 1.11262 0
M  V30 7034 C 661.644 0.719995 2.16544 0
M  V30 7035 C 662.622 -0.28471 1.60088 0
M  V30 7036 O 663.806 -0.180693 1.87632 0
M  V30 7037 C 660.933 0.0643302 3.38639 0
M  V30 7038 C 659.979 1.03448 4.13764 0
M  V30 7039 S 660.812 2.55789 4.70459 0
M  V30 7040 C 661.968 1.91529 5.95875 0
M  V30 7041 H 662.201 1.61181 2.49816 0
M  V30 7042 H 659.734 0.934401 1.22916 0
M  V30 7043 H 661.692 -0.307609 4.09346 0
M  V30 7044 H 660.353 -0.804471 3.03623 0
M  V30 7045 H 659.546 0.523188 5.01277 0
M  V30 7046 H 659.148 1.34893 3.48826 0
M  V30 7047 H 661.44 1.25286 6.65815 0
M  V30 7048 H 662.383 2.77047 6.51652 0
M  V30 7049 H 662.791 1.37468 5.47506 0
M  V30 7050 N 662.189 -1.289 0.906776 0
M  V30 7051 C 663.099 -2.31256 0.394707 0
M  V30 7052 C 664.115 -1.66231 -0.514121 0
M  V30 7053 O 665.291 -1.97347 -0.401994 0
M  V30 7054 C 662.356 -3.44792 -0.363191 0
M  V30 7055 C 661.417 -4.25391 0.578012 0
M  V30 7056 C 660.65 -5.33506 -0.143811 0
M  V30 7057 O 660.873 -5.53786 -1.36665 0
M  V30 7058 O 659.807 -5.99673 0.5173 0
M  V30 7059 H 663.633 -2.77051 1.24405 0
M  V30 7060 H 661.218 -1.33466 0.671346 0
M  V30 7061 H 663.1 -4.139 -0.791503 0
M  V30 7062 H 661.775 -3.01093 -1.18848 0
M  V30 7063 H 660.682 -3.58899 1.05558 0
M  V30 7064 H 662.015 -4.72752 1.36992 0
M  V30 7065 N 663.667 -0.670007 -1.42649 0
M  V30 7066 C 664.6 0.0613623 -2.28117 0
M  V30 7067 C 665.578 0.813414 -1.40792 0
M  V30 7068 O 666.762 0.809529 -1.70232 0
M  V30 7069 C 663.889 1.09399 -3.20546 0
M  V30 7070 C 662.935 0.438064 -4.24244 0
M  V30 7071 S 663.768 -0.800808 -5.29478 0
M  V30 7072 C 664.924 0.23086 -6.25474 0
M  V30 7073 H 665.157 -0.663606 -2.89799 0
M  V30 7074 H 662.69 -0.45939 -1.47407 0
M  V30 7075 H 664.648 1.68469 -3.74337 0
M  V30 7076 H 663.309 1.79137 -2.58009 0
M  V30 7077 H 662.502 1.21707 -4.89084 0
M  V30 7078 H 662.104 -0.0789346 -3.73917 0
M  V30 7079 H 664.396 1.09204 -6.68641 0
M  V30 7080 H 665.339 -0.382945 -7.07064 0
M  V30 7081 H 665.747 0.574191 -5.61572 0
M  V30 7082 N 665.145 1.52092 -0.413018 0
M  V30 7083 C 666.108 2.25706 0.398687 0
M  V30 7084 C 667.108 1.28221 0.970368 0
M  V30 7085 O 668.298 1.52131 0.848635 0
M  V30 7086 C 665.43 3.03029 1.5616 0
M  V30 7087 H 666.623 2.98888 -0.246131 0
M  V30 7088 H 664.176 1.5542 -0.165622 0
M  V30 7089 H 664.911 2.34205 2.24317 0
M  V30 7090 H 664.696 3.74606 1.15812 0
M  V30 7091 H 666.186 3.58857 2.13569 0
M  V30 7092 N 666.623 0.143563 1.56945 0
M  V30 7093 C 667.533 -0.810562 2.20152 0
M  V30 7094 C 668.549 -1.27431 1.1848 0
M  V30 7095 O 669.725 -1.33221 1.51044 0
M  V30 7096 C 666.79 -2.03353 2.80799 0
M  V30 7097 C 665.851 -1.61936 3.97587 0
M  V30 7098 C 665.084 -2.78403 4.55332 0
M  V30 7099 O 665.307 -3.94521 4.11958 0
M  V30 7100 O 664.241 -2.54073 5.45647 0
M  V30 7101 H 668.067 -0.30253 3.02189 0
M  V30 7102 H 665.652 -0.0832925 1.49168 0
M  V30 7103 H 667.534 -2.74932 3.19359 0
M  V30 7104 H 666.209 -2.53116 2.01777 0
M  V30 7105 H 665.116 -0.873904 3.6375 0
M  V30 7106 H 666.449 -1.16892 4.78118 0
M  V30 7107 N 668.101 -1.57061 -0.130224 0
M  V30 7108 C 669.031 -2.02552 -1.16168 0
M  V30 7109 C 670.012 -0.907971 -1.4384 0
M  V30 7110 O 671.197 -1.17693 -1.54473 0
M  V30 7111 C 668.327 -2.42035 -2.49071 0
M  V30 7112 C 667.281 -3.5713 -2.35886 0
M  V30 7113 C 666.607 -3.82478 -3.7365 0
M  V30 7114 C 667.907 -4.89236 -1.8288 0
M  V30 7115 H 669.601 -2.8897 -0.783359 0
M  V30 7116 H 667.147 -1.39021 -0.375376 0
M  V30 7117 H 669.1 -2.72462 -3.21469 0
M  V30 7118 H 667.824 -1.52573 -2.88771 0
M  V30 7119 H 666.483 -3.26895 -1.65938 0
M  V30 7120 H 666.131 -2.9024 -4.10816 0
M  V30 7121 H 665.831 -4.59944 -3.65685 0
M  V30 7122 H 667.355 -4.15347 -4.47571 0
M  V30 7123 H 668.769 -5.18272 -2.45085 0
M  V30 7124 H 667.166 -5.70624 -1.85763 0
M  V30 7125 H 668.236 -4.78494 -0.785571 0
M  V30 7126 N 669.579 0.400081 -1.52437 0
M  V30 7127 C 670.827 1.14392 -1.6661 0
M  V30 7128 C 671.148 1.90792 -0.402927 0
M  V30 7129 O 670.418 1.87042 0.582425 0
M  V30 7130 H 668.998 0.425275 -0.614125 0
M  V30 7131 H 671.66 0.455076 -1.89513 0
M  V30 7132 H 670.756 1.85298 -2.51139 0
M  V30 7133 N 671.057 1.43213 0.657864 0
M  V30 7134 C 672.468 1.39669 1.23893 0
M  V30 7135 C 672.819 0.0984217 1.95953 0
M  V30 7136 O 671.944 -0.8023 2.00978 0
M  V30 7137 C 672.539 2.53004 2.25332 0
M  V30 7138 C 671.098 2.5274 2.78926 0
M  V30 7139 C 670.245 2.30941 1.53497 0
M  V30 7140 H 673.196 1.52181 0.450172 0
M  V30 7141 H 673.217 2.24226 3.07413 0
M  V30 7142 H 672.729 3.4748 1.72856 0
M  V30 7143 H 670.83 1.6213 3.35477 0
M  V30 7144 H 670.943 3.50352 3.26787 0
M  V30 7145 H 669.307 1.7952 1.80678 0
M  V30 7146 H 670.09 3.27496 1.02963 0
M  V30 7147 N 672.536 -0.895792 1.29666 0
M  V30 7148 C 673.466 -2.01673 1.17688 0
M  V30 7149 C 674.447 -1.69955 0.0701317 0
M  V30 7150 O 675.632 -1.9258 0.250289 0
M  V30 7151 C 672.762 -3.36568 0.856681 0
M  V30 7152 C 671.716 -3.82509 1.92017 0
M  V30 7153 C 671.042 -5.14574 1.4532 0
M  V30 7154 C 672.342 -4.02409 3.32963 0
M  V30 7155 H 674.036 -2.11953 2.11463 0
M  V30 7156 H 671.582 -1.01839 1.01807 0
M  V30 7157 H 673.535 -4.14498 0.759577 0
M  V30 7158 H 672.259 -3.26391 -0.116763 0
M  V30 7159 H 670.918 -3.068 2.00673 0
M  V30 7160 H 670.566 -5.00815 0.468325 0
M  V30 7161 H 670.266 -5.46283 2.16447 0
M  V30 7162 H 671.79 -5.9504 1.36968 0
M  V30 7163 H 673.204 -4.70808 3.27127 0
M  V30 7164 H 671.601 -4.45478 4.02082 0
M  V30 7165 H 672.671 -3.06616 3.75652 0
M  V30 7166 N 674.014 -1.12206 -1.10668 0
M  V30 7167 C 674.962 -0.782918 -2.19028 0
M  V30 7168 C 675.956 0.229175 -1.67843 0
M  V30 7169 O 677.162 0.0876295 -1.79787 0
M  V30 7170 H 673.537 -0.235339 -0.714227 0
M  V30 7171 H 675.508 -1.70527 -2.44874 0
M  V30 7172 C 674.257 -0.25116 -3.46792 0
M  V30 7173 H 673.58 -1.02123 -3.86537 0
M  V30 7174 H 675.02 -0.0521409 -4.23968 0
M  V30 7175 C 673.479 1.02037 -3.21076 0
M  V30 7176 O 674.009 2.09862 -3.42522 0
M  V30 7177 N 672.215 0.946348 -2.74759 0
M  V30 7178 H 671.762 0.068777 -2.57508 0
M  V30 7179 H 671.72 1.79775 -2.57931 0
M  V30 7180 N 675.492 1.28418 -0.913599 0
M  V30 7181 C 676.439 2.27301 -0.400373 0
M  V30 7182 C 677.409 1.57582 0.52509 0
M  V30 7183 O 678.594 1.85482 0.447318 0
M  V30 7184 C 675.734 3.43284 0.35361 0
M  V30 7185 C 674.847 4.27752 -0.604341 0
M  V30 7186 C 673.982 5.30934 0.168075 0
M  V30 7187 C 673.021 6.07065 -0.783499 0
M  V30 7188 N 672.158 7.02086 -0.0446112 0
M  V30 7189 H 676.998 2.70579 -1.24865 0
M  V30 7190 H 674.535 1.33067 -0.627028 0
M  V30 7191 H 676.493 4.09322 0.806945 0
M  V30 7192 H 675.123 3.00997 1.16623 0
M  V30 7193 H 674.175 3.61759 -1.17621 0
M  V30 7194 H 675.487 4.80682 -1.33216 0
M  V30 7195 H 674.641 6.02855 0.681979 0
M  V30 7196 H 673.38 4.78771 0.928947 0
M  V30 7197 H 672.385 5.33995 -1.30878 0
M  V30 7198 H 673.61 6.61317 -1.54392 0
M  V30 7199 H 671.556 6.52273 0.698272 0
M  V30 7200 H 671.473 7.52637 -0.712258 0
M  V30 7201 H 672.741 7.78205 0.449102 0
M  V30 7202 N 676.97 0.677563 1.42291 0
M  V30 7203 C 678.2 0.209155 2.05539 0
M  V30 7204 C 678.608 -1.13987 1.51009 0
M  V30 7205 O 677.951 -1.71976 0.645764 0
M  V30 7206 C 678.013 0.0697758 3.59432 0
M  V30 7207 C 677.677 1.34795 4.36668 0
M  V30 7208 C 678.674 2.28201 4.67141 0
M  V30 7209 C 676.359 1.59632 4.76259 0
M  V30 7210 C 678.353 3.44718 5.36142 0
M  V30 7211 C 676.04 2.76437 5.45 0
M  V30 7212 C 677.038 3.68805 5.74867 0
M  V30 7213 O 676.726 4.83567 6.42198 0
M  V30 7214 H 676.458 0.0986202 0.668768 0
M  V30 7215 H 679.012 0.925483 1.83368 0
M  V30 7216 H 677.242 -0.702157 3.80272 0
M  V30 7217 H 678.931 -0.359115 4.04308 0
M  V30 7218 H 679.697 2.10264 4.37052 0
M  V30 7219 H 675.576 0.886073 4.52404 0
M  V30 7220 H 679.12 4.16833 5.59371 0
M  V30 7221 H 675.017 2.94299 5.74507 0
M  V30 7222 H 675.785 4.83147 6.6069 0
M  V30 7223 N 678.448 -1.51871 0.421078 0
M  V30 7224 C 679.378 -2.30231 -0.389363 0
M  V30 7225 C 680.359 -1.34946 -1.03555 0
M  V30 7226 O 681.544 -1.63859 -1.04229 0
M  V30 7227 C 678.674 -3.13247 -1.49979 0
M  V30 7228 C 677.628 -4.16677 -0.977966 0
M  V30 7229 C 676.954 -4.88112 -2.1829 0
M  V30 7230 C 678.254 -5.22295 -0.0236775 0
M  V30 7231 H 679.948 -2.98229 0.264524 0
M  V30 7232 H 677.494 -1.43424 0.12866 0
M  V30 7233 H 679.447 -3.66838 -2.07383 0
M  V30 7234 H 678.171 -2.4304 -2.18173 0
M  V30 7235 H 676.83 -3.64114 -0.426245 0
M  V30 7236 H 676.478 -4.14423 -2.85066 0
M  V30 7237 H 676.178 -5.58041 -1.84021 0
M  V30 7238 H 677.702 -5.44521 -2.76278 0
M  V30 7239 H 679.116 -5.71055 -0.506899 0
M  V30 7240 H 677.513 -5.99656 0.230782 0
M  V30 7241 H 678.583 -4.76131 0.917999 0
M  V30 7242 N 679.926 -0.151884 -1.56866 0
M  V30 7243 C 680.858 0.817008 -2.14144 0
M  V30 7244 C 681.871 1.20735 -1.0921 0
M  V30 7245 O 683.06 1.15058 -1.36469 0
M  V30 7246 C 680.16 2.10844 -2.65326 0
M  V30 7247 C 679.333 1.88471 -3.94712 0
M  V30 7248 C 678.392 3.01649 -4.31155 0
M  V30 7249 O 677.418 2.73127 -4.9939 0
M  V30 7250 N 678.62 4.28947 -3.91132 0
M  V30 7251 H 681.385 0.327448 -2.97906 0
M  V30 7252 H 678.946 0.0315313 -1.61869 0
M  V30 7253 H 680.938 2.85616 -2.86715 0
M  V30 7254 H 679.508 2.51049 -1.86262 0
M  V30 7255 H 678.728 0.977088 -3.81899 0
M  V30 7256 H 680.016 1.70866 -4.79252 0
M  V30 7257 H 679.414 4.54986 -3.36161 0
M  V30 7258 H 677.971 5.00484 -4.17563 0
M  V30 7259 N 681.404 1.57128 0.121893 0
M  V30 7260 C 682.336 1.96773 1.17529 0
M  V30 7261 C 683.349 0.866668 1.37814 0
M  V30 7262 O 684.538 1.14497 1.3694 0
M  V30 7263 C 681.638 2.24832 2.53582 0
M  V30 7264 C 680.811 3.56138 2.53939 0
M  V30 7265 C 679.87 3.72443 3.71716 0
M  V30 7266 O 678.896 4.44584 3.55434 0
M  V30 7267 N 680.098 3.10993 4.90167 0
M  V30 7268 H 682.863 2.87743 0.838086 0
M  V30 7269 H 680.424 1.58881 0.311199 0
M  V30 7270 H 682.416 2.32958 3.30927 0
M  V30 7271 H 680.986 1.40002 2.79496 0
M  V30 7272 H 680.206 3.59226 1.62329 0
M  V30 7273 H 681.494 4.42448 2.51231 0
M  V30 7274 H 680.892 2.52345 5.06299 0
M  V30 7275 H 679.449 3.24644 5.65198 0
M  V30 7276 N 682.882 -0.391992 1.52647 0
M  V30 7277 C 683.83 -1.4991 1.77848 0
M  V30 7278 C 684.824 -1.56587 0.646282 0
M  V30 7279 O 686.03 -1.59789 0.828698 0
M  V30 7280 H 682.405 -0.498883 0.56269 0
M  V30 7281 H 684.376 -1.25847 2.70564 0
M  V30 7282 C 683.125 -2.87081 1.96163 0
M  V30 7283 H 682.448 -2.82692 2.82711 0
M  V30 7284 H 683.888 -3.63792 2.17787 0
M  V30 7285 C 682.347 -3.28822 0.733348 0
M  V30 7286 O 682.877 -4.01598 -0.0906481 0
M  V30 7287 N 681.083 -2.85068 0.564317 0
M  V30 7288 H 680.63 -2.26012 1.23598 0
M  V30 7289 H 680.588 -3.13355 -0.256166 0
M  V30 7290 N 684.36 -1.4356 -0.65026 0
M  V30 7291 C 685.776 -1.27025 -0.966269 0
M  V30 7292 C 685.976 -0.192117 -2.00582 0
M  V30 7293 O 685.032 0.428459 -2.48838 0
M  V30 7294 C 686.345 -2.63556 -1.44772 0
M  V30 7295 C 687.893 -2.71111 -1.56421 0
M  V30 7296 C 688.368 -4.08067 -2.07956 0
M  V30 7297 N 689.859 -4.10146 -2.15254 0
M  V30 7298 C 690.594 -5.12952 -2.56258 0
M  V30 7299 N 690.09 -6.26129 -2.96537 0
M  V30 7300 N 691.883 -5.00306 -2.56224 0
M  V30 7301 H 684.034 -2.12367 0.0375758 0
M  V30 7302 H 686.297 -0.946894 -0.0457782 0
M  V30 7303 H 686.003 -3.43429 -0.758271 0
M  V30 7304 H 685.877 -2.89152 -2.42221 0
M  V30 7305 H 688.264 -1.91569 -2.24467 0
M  V30 7306 H 688.345 -2.49277 -0.573967 0
M  V30 7307 H 687.989 -4.88077 -1.40511 0
M  V30 7308 H 687.919 -4.27266 -3.07817 0
M  V30 7309 H 690.41 -3.28453 -1.86887 0
M  V30 7310 H 690.723 -7.00403 -3.26582 0
M  V30 7311 H 689.068 -6.29597 -2.94334 0
M  V30 7312 H 692.259 -4.10952 -2.24135 0
M  V30 7313 H 692.432 -5.80553 -2.87857 0
M  V30 7314 N 685.838 0.888903 -1.30139 0
M  V30 7315 C 686.788 1.9814 -1.12803 0
M  V30 7316 C 687.772 1.60839 -0.0443137 0
M  V30 7317 O 688.964 1.74971 -0.267208 0
M  V30 7318 C 686.093 3.33416 -0.817849 0
M  V30 7319 C 685.179 3.77043 -1.94163 0
M  V30 7320 N 685.57 3.92805 -3.18651 0
M  V30 7321 C 683.868 4.06407 -1.8371 0
M  V30 7322 C 684.569 4.29746 -3.92038 0
M  V30 7323 N 683.545 4.3939 -3.20059 0
M  V30 7324 H 687.347 2.08411 -2.07225 0
M  V30 7325 H 684.861 1.07845 -1.21421 0
M  V30 7326 H 686.858 4.11405 -0.674668 0
M  V30 7327 H 685.518 3.24484 0.118344 0
M  V30 7328 H 686.529 3.78042 -3.53984 0
M  V30 7329 H 683.206 4.05972 -0.974331 0
M  V30 7330 H 684.596 4.49695 -4.99223 0
M  V30 7331 N 687.317 1.12792 1.10072 0
M  V30 7332 C 688.563 0.886857 1.82381 0
M  V30 7333 C 688.896 -0.58576 1.85155 0
M  V30 7334 O 688.171 -1.43317 1.31493 0
M  V30 7335 C 688.454 1.46703 3.28862 0
M  V30 7336 C 688.307 3.00829 3.34398 0
M  V30 7337 C 689.626 1.12971 4.25353 0
M  V30 7338 H 686.745 0.32362 0.662148 0
M  V30 7339 H 689.387 1.39513 1.28982 0
M  V30 7340 H 687.537 1.03476 3.74466 0
M  V30 7341 H 689.209 3.52764 2.97247 0
M  V30 7342 H 687.452 3.36164 2.74183 0
M  V30 7343 H 688.123 3.36519 4.3756 0
M  V30 7344 H 690.599 1.50313 3.88001 0
M  V30 7345 H 689.475 1.56223 5.26199 0
M  V30 7346 H 689.736 0.0424452 4.4208 0
M  V30 7347 N 688.795 -1.27931 0.920396 0
M  V30 7348 C 689.742 -2.27085 0.412422 0
M  V30 7349 C 690.712 -1.57858 -0.516725 0
M  V30 7350 O 691.897 -1.85717 -0.437475 0
M  V30 7351 C 689.037 -3.43466 -0.335399 0
M  V30 7352 C 688.15 -4.27425 0.627017 0
M  V30 7353 C 687.285 -5.31016 -0.139916 0
M  V30 7354 C 686.324 -6.06641 0.815683 0
M  V30 7355 N 685.461 -7.02052 0.0818439 0
M  V30 7356 H 690.301 -2.69913 1.26298 0
M  V30 7357 H 687.838 -1.32732 0.634076 0
M  V30 7358 H 689.796 -4.09744 -0.785226 0
M  V30 7359 H 688.426 -3.01611 -1.15025 0
M  V30 7360 H 687.478 -3.6113 1.19537 0
M  V30 7361 H 688.79 -4.79969 1.35763 0
M  V30 7362 H 687.944 -6.03208 -0.649998 0
M  V30 7363 H 686.683 -4.79257 -0.903543 0
M  V30 7364 H 685.688 -5.33294 1.33708 0
M  V30 7365 H 686.913 -6.60489 1.57897 0
M  V30 7366 H 684.859 -6.52634 -0.663671 0
M  V30 7367 H 684.776 -7.52249 0.752163 0
M  V30 7368 H 686.044 -7.78432 -0.407825 0
M  V30 7369 N 690.273 -0.685099 -1.4193 0
M  V30 7370 C 691.55 -0.140152 -1.95097 0
M  V30 7371 C 691.93 1.34745 -1.62502 0
M  V30 7372 O 691.278 2.08872 -0.926534 0
M  V30 7373 C 691.488 -0.420268 -3.4646 0
M  V30 7374 C 692.836 -0.342338 -4.23218 0
M  V30 7375 O 693.86 -0.354592 -3.54431 0
M  V30 7376 O 692.719 -0.293404 -5.45712 0
M  V30 7377 H 689.813 -0.00885998 -0.826953 0
M  V30 7378 H 692.359 -0.760539 -1.51703 0
M  V30 7379 H 691.131 -1.45037 -3.63428 0
M  V30 7380 H 690.754 0.231616 -3.96925 0
M  V30 7381 N 691.751 1.51645 -0.429126 0
M  V30 7382 C 692.698 2.27542 0.386446 0
M  V30 7383 C 693.668 1.30786 1.02393 0
M  V30 7384 O 694.853 1.59678 1.0444 0
M  V30 7385 C 691.993 3.11457 1.48623 0
M  V30 7386 C 691.106 4.23196 0.867691 0
M  V30 7387 C 690.241 4.94435 1.94183 0
M  V30 7388 C 689.28 5.98108 1.30129 0
M  V30 7389 N 688.417 6.62786 2.31644 0
M  V30 7390 H 693.257 2.968 -0.267155 0
M  V30 7391 H 690.794 1.46397 -0.143591 0
M  V30 7392 H 692.752 3.58429 2.13506 0
M  V30 7393 H 691.382 2.44329 2.10957 0
M  V30 7394 H 690.434 3.80248 0.107373 0
M  V30 7395 H 691.746 4.97499 0.35997 0
M  V30 7396 H 690.9 5.44914 2.66747 0
M  V30 7397 H 689.639 4.19744 2.48326 0
M  V30 7398 H 688.644 5.4693 0.561082 0
M  V30 7399 H 689.869 6.74751 0.767303 0
M  V30 7400 H 687.815 5.90913 2.84883 0
M  V30 7401 H 687.732 7.32828 1.85741 0
M  V30 7402 H 689 7.17897 3.03717 0
M  V30 7403 N 693.229 0.160201 1.56784 0
M  V30 7404 C 694.177 -0.791402 2.18723 0
M  V30 7405 C 695.171 -1.24567 1.14801 0
M  V30 7406 O 696.377 -1.21262 1.33025 0
M  V30 7407 H 692.752 -0.273458 0.700517 0
M  V30 7408 H 694.723 -0.244931 2.97393 0
M  V30 7409 C 693.472 -2.01509 2.83354 0
M  V30 7410 H 692.795 -1.67454 3.63041 0
M  V30 7411 H 694.235 -2.66006 3.30177 0
M  V30 7412 C 692.694 -2.83159 1.82545 0
M  V30 7413 O 693.224 -3.79944 1.30405 0
M  V30 7414 N 691.43 -2.47953 1.51552 0
M  V30 7415 H 690.977 -1.69309 1.94144 0
M  V30 7416 H 690.935 -3.02873 0.843519 0
M  V30 7417 N 694.707 -1.5719 -0.113559 0
M  V30 7418 C 695.956 -1.84325 -0.818984 0
M  V30 7419 C 696.269 -0.746685 -1.80787 0
M  V30 7420 O 697.475 -0.904596 -2.55987 0
M  V30 7421 C 695.931 -3.26818 -1.50724 0
M  V30 7422 C 695.539 -4.44498 -0.559065 0
M  V30 7423 C 697.283 -3.63196 -2.19748 0
M  V30 7424 C 695.19 -5.7802 -1.25086 0
M  V30 7425 H 694.12 -0.687507 -0.309596 0
M  V30 7426 H 696.771 -1.8336 -0.0717621 0
M  V30 7427 H 695.153 -3.22269 -2.30128 0
M  V30 7428 H 696.327 -4.60356 0.202146 0
M  V30 7429 H 694.642 -4.16393 0.024495 0
M  V30 7430 H 697.239 -4.60226 -2.72206 0
M  V30 7431 H 697.582 -2.90899 -2.97798 0
M  V30 7432 H 698.115 -3.69553 -1.47226 0
M  V30 7433 H 694.854 -6.53501 -0.511539 0
M  V30 7434 H 694.374 -5.66038 -1.98395 0
M  V30 7435 H 696.053 -6.2196 -1.78253 0
M  V30 7436 N 696.185 0.383891 -1.52853 0
M  V30 7437 C 697.434 1.12563 -1.67369 0
M  V30 7438 C 697.747 1.90982 -0.422533 0
M  V30 7439 O 698.953 2.6778 -0.447914 0
M  V30 7440 C 697.409 2.05011 -2.95801 0
M  V30 7441 C 697.017 1.31991 -4.28115 0
M  V30 7442 C 698.761 2.79289 -3.19684 0
M  V30 7443 C 696.668 2.23235 -5.4765 0
M  V30 7444 H 695.598 0.42391 -0.623552 0
M  V30 7445 H 698.249 0.388016 -1.79351 0
M  V30 7446 H 696.631 2.82429 -2.77578 0
M  V30 7447 H 697.805 0.597633 -4.56908 0
M  V30 7448 H 696.12 0.696517 -4.10533 0
M  V30 7449 H 698.717 3.47749 -4.06171 0
M  V30 7450 H 699.06 3.43649 -2.3497 0
M  V30 7451 H 699.593 2.08962 -3.38496 0
M  V30 7452 H 696.332 1.63482 -6.34786 0
M  V30 7453 H 695.852 2.93364 -5.23161 0
M  V30 7454 H 697.531 2.83205 -5.81725 0
M  V30 7455 N 697.663 1.43903 0.642637 0
M  V30 7456 C 698.573 1.52349 1.78401 0
M  V30 7457 C 699.589 0.409869 1.69104 0
M  V30 7458 O 700.765 0.665548 1.90085 0
M  V30 7459 C 697.83 1.45408 3.14734 0
M  V30 7460 C 696.891 2.67528 3.35749 0
M  V30 7461 C 696.124 2.60909 4.65577 0
M  V30 7462 O 696.347 1.6627 5.45628 0
M  V30 7463 O 695.281 3.5158 4.88544 0
M  V30 7464 H 699.107 2.48752 1.7423 0
M  V30 7465 H 696.692 1.26021 0.802439 0
M  V30 7466 H 698.574 1.44019 3.96026 0
M  V30 7467 H 697.249 0.521437 3.19473 0
M  V30 7468 H 696.156 2.74487 2.5418 0
M  V30 7469 H 697.489 3.598 3.35864 0
M  V30 7470 N 699.141 -0.881989 1.30609 0
M  V30 7471 C 700.071 -2.00413 1.1982 0
M  V30 7472 C 701.052 -1.69871 0.0881538 0
M  V30 7473 O 702.237 -1.92304 0.2707 0
M  V30 7474 C 699.367 -3.35641 0.89233 0
M  V30 7475 C 698.321 -3.80451 1.96064 0
M  V30 7476 C 697.647 -5.13003 1.5077 0
M  V30 7477 C 698.947 -3.98855 3.37213 0
M  V30 7478 H 700.641 -2.09698 2.13699 0
M  V30 7479 H 698.187 -1.00754 1.02882 0
M  V30 7480 H 700.14 -4.13669 0.803497 0
M  V30 7481 H 698.864 -3.26497 -0.0821381 0
M  V30 7482 H 697.523 -3.04654 2.03916 0
M  V30 7483 H 697.171 -5.0029 0.521417 0
M  V30 7484 H 696.871 -5.43956 2.22229 0
M  V30 7485 H 698.395 -5.93554 1.43271 0
M  V30 7486 H 699.809 -4.67312 3.32103 0
M  V30 7487 H 698.206 -4.41188 4.06784 0
M  V30 7488 H 699.276 -3.02614 3.78883 0
M  V30 7489 N 700.619 -1.13374 -1.09472 0
M  V30 7490 C 701.865 -0.896516 -1.81908 0
M  V30 7491 C 702.198 0.575933 -1.85463 0
M  V30 7492 O 701.473 1.42618 -1.32251 0
M  V30 7493 C 701.756 -1.48445 -3.28079 0
M  V30 7494 C 701.609 -3.02598 -3.32798 0
M  V30 7495 C 702.928 -1.15226 -4.24748 0
M  V30 7496 H 700.047 -0.327127 -0.660422 0
M  V30 7497 H 702.689 -1.40195 -1.2824 0
M  V30 7498 H 700.839 -1.0546 -3.73912 0
M  V30 7499 H 702.511 -3.54335 -2.95372 0
M  V30 7500 H 700.754 -3.37613 -2.72397 0
M  V30 7501 H 701.425 -3.38835 -4.3577 0
M  V30 7502 H 703.901 -1.52369 -3.87199 0
M  V30 7503 H 702.777 -1.59012 -5.25363 0
M  V30 7504 H 703.038 -0.0658891 -4.42051 0
M  V30 7505 N 702.098 1.27442 -0.927168 0
M  V30 7506 C 703.048 2.24519 -0.396878 0
M  V30 7507 C 704.032 1.52981 0.498555 0
M  V30 7508 O 705.224 1.7378 0.336087 0
M  V30 7509 C 702.353 3.41514 0.349694 0
M  V30 7510 C 701.439 4.20357 -0.562226 0
M  V30 7511 N 701.83 4.7702 -1.68182 0
M  V30 7512 C 700.128 4.44503 -0.365135 0
M  V30 7513 C 700.829 5.36467 -2.24895 0
M  V30 7514 N 699.805 5.21371 -1.5386 0
M  V30 7515 H 703.607 2.65911 -1.25173 0
M  V30 7516 H 701.121 1.42366 -0.78138 0
M  V30 7517 H 703.118 4.10161 0.746536 0
M  V30 7518 H 701.778 3.01653 1.20148 0
M  V30 7519 H 702.789 4.74985 -2.06421 0
M  V30 7520 H 699.466 4.15111 0.446037 0
M  V30 7521 H 700.856 5.91264 -3.1915 0
M  V30 7522 N 703.576 0.692616 1.41565 0
M  V30 7523 C 704.508 -0.0137132 2.29196 0
M  V30 7524 C 705.521 -0.747417 1.44629 0
M  V30 7525 O 706.71 -0.598611 1.68163 0
M  V30 7526 C 703.81 -1.04347 3.22436 0
M  V30 7527 C 702.983 -0.379985 4.35746 0
M  V30 7528 C 702.042 -1.31195 5.09583 0
M  V30 7529 O 701.068 -0.805455 5.63472 0
M  V30 7530 N 702.27 -2.64443 5.16769 0
M  V30 7531 H 705.035 0.738614 2.90456 0
M  V30 7532 H 702.596 0.538415 1.52685 0
M  V30 7533 H 704.588 -1.6686 3.687 0
M  V30 7534 H 703.158 -1.69736 2.62504 0
M  V30 7535 H 702.378 0.424975 3.91903 0
M  V30 7536 H 703.666 0.0814904 5.08735 0
M  V30 7537 H 703.064 -3.08114 4.74428 0
M  V30 7538 H 701.621 -3.22159 5.66619 0
M  V30 7539 N 705.054 -1.51416 0.437162 0
M  V30 7540 C 706.3 -2.02386 -0.129555 0
M  V30 7541 C 706.633 -1.32071 -1.42376 0
M  V30 7542 O 705.908 -0.43559 -1.8956 0
M  V30 7543 C 706.191 -3.5841 -0.348487 0
M  V30 7544 C 706.044 -4.39341 0.964352 0
M  V30 7545 C 707.363 -4.25654 -1.11834 0
M  V30 7546 H 704.482 -0.735587 -0.0456109 0
M  V30 7547 H 707.124 -1.81055 0.576124 0
M  V30 7548 H 705.274 -3.76716 -0.949592 0
M  V30 7549 H 706.946 -4.32685 1.59942 0
M  V30 7550 H 705.189 -4.04432 1.56898 0
M  V30 7551 H 705.86 -5.4667 0.765212 0
M  V30 7552 H 708.336 -4.11617 -0.609165 0
M  V30 7553 H 707.212 -5.34704 -1.24029 0
M  V30 7554 H 707.473 -3.86502 -2.14636 0
M  V30 7555 N 706.532 -0.168513 -1.56696 0
M  V30 7556 C 707.757 0.486688 -2.01609 0
M  V30 7557 C 708.182 1.56203 -1.04796 0
M  V30 7558 O 707.54 1.8128 -0.0270596 0
M  V30 7559 C 707.588 1.04451 -3.45141 0
M  V30 7560 O 706.692 2.15862 -3.51393 0
M  V30 7561 H 706.033 0.116831 -0.653641 0
M  V30 7562 H 708.563 -0.271579 -2.0279 0
M  V30 7563 H 708.573 1.36782 -3.84389 0
M  V30 7564 H 707.248 0.257155 -4.15104 0
M  V30 7565 H 705.825 1.84597 -3.24004 0
M  V30 7566 N 708.01 1.57248 0.105221 0
M  V30 7567 C 708.943 1.96567 1.15916 0
M  V30 7568 C 709.921 0.837355 1.39381 0
M  V30 7569 O 711.105 1.09676 1.53308 0
M  V30 7570 C 708.232 2.27375 2.51035 0
M  V30 7571 C 707.278 3.49869 2.43913 0
M  V30 7572 S 708.111 5.01958 1.86543 0
M  V30 7573 C 709.267 5.35932 3.23307 0
M  V30 7574 H 709.5 2.85655 0.823931 0
M  V30 7575 H 707.033 1.51204 0.312515 0
M  V30 7576 H 708.991 2.45801 3.28774 0
M  V30 7577 H 707.652 1.38876 2.81731 0
M  V30 7578 H 706.845 3.68835 3.43477 0
M  V30 7579 H 706.447 3.30901 1.743 0
M  V30 7580 H 708.739 5.31958 4.19556 0
M  V30 7581 H 709.682 6.37047 3.09155 0
M  V30 7582 H 710.09 4.63397 3.22372 0
M  V30 7583 N 709.488 -0.375779 1.53054 0
M  V30 7584 C 710.736 -1.11727 1.68409 0
M  V30 7585 C 711.057 -1.90127 0.43323 0
M  V30 7586 O 710.327 -1.87945 -0.552595 0
M  V30 7587 H 708.907 -0.415451 0.620813 0
M  V30 7588 H 711.569 -0.424869 1.90213 0
M  V30 7589 H 710.665 -1.8128 2.54055 0
M  V30 7590 N 710.966 -1.44241 -0.634997 0
M  V30 7591 C 711.899 -1.45274 -1.75985 0
M  V30 7592 C 712.877 -0.312025 -1.59578 0
M  V30 7593 O 714.061 -0.508409 -1.81514 0
M  V30 7594 C 711.188 -1.28173 -3.13511 0
M  V30 7595 C 710.234 -2.45757 -3.48576 0
M  V30 7596 S 711.067 -4.08293 -3.46492 0
M  V30 7597 C 712.223 -3.93608 -4.86645 0
M  V30 7598 H 712.456 -2.40454 -1.74841 0
M  V30 7599 H 709.989 -1.31492 -0.809268 0
M  V30 7600 H 711.947 -1.18993 -3.92875 0
M  V30 7601 H 710.608 -0.34511 -3.12198 0
M  V30 7602 H 709.801 -2.29644 -4.48642 0
M  V30 7603 H 709.403 -2.51657 -2.76667 0
M  V30 7604 H 711.695 -3.57059 -5.75774 0
M  V30 7605 H 712.638 -4.9349 -5.07813 0
M  V30 7606 H 713.046 -3.25737 -4.61038 0
M  V30 7607 N 712.444 0.87505 -1.31075 0
M  V30 7608 C 713.391 1.98178 -1.18296 0
M  V30 7609 C 714.361 1.65952 -0.0699923 0
M  V30 7610 O 715.546 1.8926 -0.241951 0
M  V30 7611 C 712.686 3.33399 -0.891024 0
M  V30 7612 C 711.799 3.78253 -2.08684 0
M  V30 7613 C 710.934 5.02166 -1.73212 0
M  V30 7614 C 709.973 5.39455 -2.89231 0
M  V30 7615 N 709.11 6.54549 -2.53989 0
M  V30 7616 H 713.95 2.0844 -2.12971 0
M  V30 7617 H 711.487 1.02047 -1.05948 0
M  V30 7618 H 713.445 4.11246 -0.702338 0
M  V30 7619 H 712.075 3.22794 0.0188799 0
M  V30 7620 H 711.127 2.9623 -2.38646 0
M  V30 7621 H 712.439 4.01821 -2.95536 0
M  V30 7622 H 711.593 5.87666 -1.50777 0
M  V30 7623 H 710.332 4.80491 -0.83544 0
M  V30 7624 H 709.337 4.52477 -3.12321 0
M  V30 7625 H 710.562 5.63098 -3.79601 0
M  V30 7626 H 708.508 6.3443 -1.66838 0
M  V30 7627 H 708.425 6.78035 -3.34372 0
M  V30 7628 H 709.693 7.43254 -2.34934 0
M  V30 7629 N 713.922 1.13953 1.08869 0
M  V30 7630 C 715.152 0.926825 1.84644 0
M  V30 7631 C 715.56 -0.527941 1.81685 0
M  V30 7632 O 714.903 -1.37742 1.21543 0
M  V30 7633 C 714.965 1.34416 3.33426 0
M  V30 7634 C 714.629 2.81351 3.60126 0
M  V30 7635 C 715.626 3.79486 3.55368 0
M  V30 7636 C 713.311 3.1865 3.88288 0
M  V30 7637 C 715.305 5.1293 3.78393 0
M  V30 7638 C 712.992 4.5227 4.10968 0
M  V30 7639 C 713.99 5.4922 4.06013 0
M  V30 7640 O 713.678 6.80429 4.28102 0
M  V30 7641 H 713.41 0.33013 0.589907 0
M  V30 7642 H 715.964 1.51738 1.38436 0
M  V30 7643 H 714.194 0.696901 3.80368 0
M  V30 7644 H 715.883 1.10302 3.90626 0
M  V30 7645 H 716.649 3.52017 3.3363 0
M  V30 7646 H 712.528 2.43785 3.91267 0
M  V30 7647 H 716.072 5.88591 3.74442 0
M  V30 7648 H 711.969 4.79462 4.32188 0
M  V30 7649 H 712.737 6.86617 4.45533 0
M  V30 7650 N 715.4 -1.26948 0.933913 0
M  V30 7651 C 716.33 -2.29017 0.45534 0
M  V30 7652 C 717.311 -1.62961 -0.487605 0
M  V30 7653 O 718.496 -1.90223 -0.391022 0
M  V30 7654 C 715.626 -3.46112 -0.287015 0
M  V30 7655 C 714.58 -4.24205 0.568682 0
M  V30 7656 C 713.906 -5.3384 -0.303206 0
M  V30 7657 C 715.206 -4.88954 1.83633 0
M  V30 7658 H 716.9 -2.69298 1.30839 0
M  V30 7659 H 714.446 -1.29459 0.630579 0
M  V30 7660 H 716.399 -4.16622 -0.6328 0
M  V30 7661 H 715.123 -3.04765 -1.17414 0
M  V30 7662 H 713.782 -3.5545 0.897261 0
M  V30 7663 H 713.43 -4.88734 -1.18947 0
M  V30 7664 H 713.13 -5.86998 0.265879 0
M  V30 7665 H 714.654 -6.0719 -0.644423 0
M  V30 7666 H 716.068 -5.51717 1.55823 0
M  V30 7667 H 714.465 -5.52198 2.34941 0
M  V30 7668 H 715.535 -4.12305 2.55211 0
M  V30 7669 N 716.879 -0.700114 -1.41195 0
M  V30 7670 C 717.789 -0.0382854 -2.34569 0
M  V30 7671 C 718.805 0.761036 -1.56474 0
M  V30 7672 O 719.981 0.697553 -1.88934 0
M  V30 7673 C 717.046 0.883522 -3.35253 0
M  V30 7674 C 716.107 0.0758957 -4.29233 0
M  V30 7675 C 715.34 0.9538 -5.25108 0
M  V30 7676 O 715.563 2.19326 -5.26547 0
M  V30 7677 O 714.497 0.401049 -6.00562 0
M  V30 7678 H 718.323 -0.808073 -2.92752 0
M  V30 7679 H 715.908 -0.460479 -1.42127 0
M  V30 7680 H 717.79 1.41199 -3.9704 0
M  V30 7681 H 716.465 1.63272 -2.79506 0
M  V30 7682 H 715.372 -0.497274 -3.7078 0
M  V30 7683 H 716.705 -0.634741 -4.8809 0
M  V30 7684 N 718.357 1.51182 -0.445186 0
M  V30 7685 C 719.267 2.31692 0.368255 0
M  V30 7686 C 720.283 1.40942 1.02036 0
M  V30 7687 O 721.459 1.74011 1.01401 0
M  V30 7688 C 718.524 3.14903 1.45041 0
M  V30 7689 C 717.585 4.21442 0.817615 0
M  V30 7690 C 716.818 5.00677 1.8482 0
M  V30 7691 O 717.041 4.80644 3.07145 0
M  V30 7692 O 715.975 5.84559 1.43438 0
M  V30 7693 H 719.801 3.0232 -0.289219 0
M  V30 7694 H 717.386 1.47951 -0.207555 0
M  V30 7695 H 719.268 3.66612 2.07783 0
M  V30 7696 H 717.943 2.47031 2.09182 0
M  V30 7697 H 716.85 3.73791 0.151931 0
M  V30 7698 H 718.183 4.9171 0.219564 0
M  V30 7699 N 719.835 0.176821 1.56605 0
M  V30 7700 C 721.06 -0.47599 2.01864 0
M  V30 7701 C 721.485 -1.55645 1.05623 0
M  V30 7702 O 720.843 -1.81263 0.0366729 0
M  V30 7703 C 720.891 -1.02619 3.4569 0
M  V30 7704 O 719.995 -2.13996 3.52533 0
M  V30 7705 H 719.336 -0.113363 0.654251 0
M  V30 7706 H 721.866 0.28233 2.02643 0
M  V30 7707 H 721.876 -1.34742 3.85109 0
M  V30 7708 H 720.551 -0.235138 4.15235 0
M  V30 7709 H 719.128 -1.82876 3.24978 0
M  V30 7710 N 721.313 -1.57302 -0.09688 0
M  V30 7711 C 722.261 -2.02942 -1.13654 0
M  V30 7712 C 723.255 -0.930173 -1.41577 0
M  V30 7713 O 724.461 -1.11535 -1.41279 0
M  V30 7714 H 720.836 -0.646726 -0.383731 0
M  V30 7715 H 722.807 -2.89452 -0.725267 0
M  V30 7716 C 721.556 -2.46815 -2.44903 0
M  V30 7717 H 720.879 -3.30979 -2.24261 0
M  V30 7718 H 722.319 -2.82527 -3.16156 0
M  V30 7719 C 720.778 -1.34071 -3.09074 0
M  V30 7720 O 721.308 -0.668856 -3.96092 0
M  V30 7721 N 719.514 -1.09214 -2.69296 0
M  V30 7722 H 719.061 -1.64029 -1.98626 0
M  V30 7723 H 719.019 -0.339785 -3.12559 0
M  V30 7724 N 722.791 0.367657 -1.53252 0
M  V30 7725 C 724.038 1.11052 -1.69333 0
M  V30 7726 C 724.366 1.89363 -0.444064 0
M  V30 7727 O 723.621 1.87094 0.573953 0
M  V30 7728 C 723.92 2.09825 -2.89324 0
M  V30 7729 C 723.586 1.4801 -4.25915 0
M  V30 7730 C 722.248 1.30879 -4.6306 0
M  V30 7731 C 724.6 1.03268 -5.10867 0
M  V30 7732 C 721.928 0.675868 -5.82794 0
M  V30 7733 C 724.28 0.41377 -6.31245 0
M  V30 7734 C 722.944 0.229939 -6.67104 0
M  V30 7735 H 722.214 0.406367 -0.619634 0
M  V30 7736 H 724.861 0.392558 -1.87433 0
M  V30 7737 H 723.166 2.87917 -2.65728 0
M  V30 7738 H 724.863 2.67252 -2.98961 0
M  V30 7739 H 721.453 1.62336 -3.96667 0
M  V30 7740 H 725.637 1.15297 -4.82722 0
M  V30 7741 H 720.893 0.521833 -6.09169 0
M  V30 7742 H 725.067 0.0588768 -6.96375 0
M  V30 7743 H 722.694 -0.262562 -7.59746 0
M  V30 7744 N 724.269 1.44576 0.627338 0
M  V30 7745 C 725.515 1.47777 1.38888 0
M  V30 7746 C 725.848 0.111406 1.9388 0
M  V30 7747 O 725.123 -0.87149 1.73883 0
M  V30 7748 C 725.406 2.54119 2.55138 0
M  V30 7749 C 725.259 4.00128 2.0547 0
M  V30 7750 C 726.578 2.56929 3.57317 0
M  V30 7751 H 723.697 0.538048 0.50366 0
M  V30 7752 H 726.339 1.76277 0.708978 0
M  V30 7753 H 724.489 2.29948 3.13139 0
M  V30 7754 H 726.161 4.35444 1.5227 0
M  V30 7755 H 724.404 4.11724 1.36623 0
M  V30 7756 H 725.075 4.7019 2.89181 0
M  V30 7757 H 727.551 2.78536 3.09122 0
M  V30 7758 H 726.427 3.33234 4.36173 0
M  V30 7759 H 726.688 1.6127 4.11636 0
M  V30 7760 N 725.747 -0.868086 1.31537 0
M  V30 7761 C 726.697 -1.96321 1.1594 0
M  V30 7762 C 727.681 -1.60748 0.0698962 0
M  V30 7763 O 728.873 -1.74524 0.295011 0
M  V30 7764 C 726.002 -3.32073 0.870789 0
M  V30 7765 C 725.088 -3.73907 2.00136 0
M  V30 7766 N 725.479 -3.87685 3.24859 0
M  V30 7767 C 723.777 -4.03433 1.90152 0
M  V30 7768 C 724.478 -4.23454 3.98825 0
M  V30 7769 N 723.454 -4.34242 3.27009 0
M  V30 7770 H 727.256 -2.05088 2.10514 0
M  V30 7771 H 724.77 -1.059 1.23122 0
M  V30 7772 H 726.767 -4.10279 0.740034 0
M  V30 7773 H 725.427 -3.24631 -0.0667068 0
M  V30 7774 H 726.438 -3.72363 3.59953 0
M  V30 7775 H 723.115 -4.0437 1.03879 0
M  V30 7776 H 724.505 -4.41696 5.06314 0
M  V30 7777 N 727.225 -1.14528 -1.08264 0
M  V30 7778 C 728.641 -0.885976 -1.3275 0
M  V30 7779 C 728.841 0.472096 -1.95892 0
M  V30 7780 O 727.897 1.21606 -2.21288 0
M  V30 7781 C 729.21 -2.01982 -2.22764 0
M  V30 7782 C 730.758 -2.05329 -2.36239 0
M  V30 7783 C 731.233 -3.1801 -3.29596 0
M  V30 7784 N 732.724 -3.17598 -3.37173 0
M  V30 7785 C 733.459 -4.01426 -4.09444 0
M  V30 7786 N 732.955 -4.95297 -4.8441 0
M  V30 7787 N 734.748 -3.89482 -4.0529 0
M  V30 7788 H 726.899 -2.01996 -0.656607 0
M  V30 7789 H 729.162 -0.880274 -0.351884 0
M  V30 7790 H 728.868 -2.99964 -1.83615 0
M  V30 7791 H 728.742 -1.94421 -3.23234 0
M  V30 7792 H 731.129 -1.07953 -2.74646 0
M  V30 7793 H 731.21 -2.1696 -1.35506 0
M  V30 7794 H 730.854 -4.15633 -2.9191 0
M  V30 7795 H 730.784 -3.03616 -4.30261 0
M  V30 7796 H 733.275 -2.4961 -2.83731 0
M  V30 7797 H 733.588 -5.55723 -5.37021 0
M  V30 7798 H 731.933 -4.99293 -4.83457 0
M  V30 7799 H 735.124 -3.15465 -3.45832 0
M  V30 7800 H 735.297 -4.55039 -4.6135 0
M  V30 7801 N 728.703 1.26451 -0.940633 0
M  V30 7802 C 729.98 1.88947 -0.505811 0
M  V30 7803 C 730.36 1.85011 1.01657 0
M  V30 7804 O 729.708 1.30406 1.87634 0
M  V30 7805 C 729.918 3.32304 -1.06654 0
M  V30 7806 C 731.266 4.09153 -1.13486 0
M  V30 7807 O 732.29 3.41371 -1.01708 0
M  V30 7808 O 731.149 5.30369 -1.31797 0
M  V30 7809 H 728.243 0.810422 -0.164759 0
M  V30 7810 H 730.789 1.34625 -1.03316 0
M  V30 7811 H 729.561 3.29527 -2.11015 0
M  V30 7812 H 729.184 3.94164 -0.521603 0
M  V30 7813 N 730.181 0.707592 1.40822 0
M  V30 7814 C 731.111 0.0644925 2.33411 0
M  V30 7815 C 732.092 -0.754205 1.52466 0
M  V30 7816 O 733.277 -0.704749 1.80961 0
M  V30 7817 C 730.407 -0.863865 3.36385 0
M  V30 7818 C 729.361 -0.15138 4.27732 0
M  V30 7819 C 728.687 -1.19491 5.21177 0
M  V30 7820 C 729.987 0.989607 5.12839 0
M  V30 7821 H 731.681 0.837829 2.87438 0
M  V30 7822 H 729.227 0.404346 1.38207 0
M  V30 7823 H 731.18 -1.32309 4.0009 0
M  V30 7824 H 729.904 -1.66901 2.80734 0
M  V30 7825 H 728.563 0.287937 3.65467 0
M  V30 7826 H 728.211 -1.9929 4.61836 0
M  V30 7827 H 727.911 -0.723123 5.83134 0
M  V30 7828 H 729.435 -1.6544 5.8776 0
M  V30 7829 H 730.849 0.610114 5.70044 0
M  V30 7830 H 729.246 1.38926 5.83798 0
M  V30 7831 H 730.316 1.82389 4.49291 0
M  V30 7832 N 731.66 -1.50943 0.453197 0
M  V30 7833 C 732.623 -2.26684 -0.338705 0
M  V30 7834 C 733.623 -1.30748 -0.936032 0
M  V30 7835 O 734.813 -1.54327 -0.808002 0
M  V30 7836 C 731.945 -3.07063 -1.48071 0
M  V30 7837 H 733.138 -2.98131 0.325289 0
M  V30 7838 H 730.691 -1.54926 0.206771 0
M  V30 7839 H 731.426 -2.4007 -2.18029 0
M  V30 7840 H 731.211 -3.77545 -1.0584 0
M  V30 7841 H 732.701 -3.64393 -2.0398 0
M  V30 7842 N 733.138 -0.185124 -1.56509 0
M  V30 7843 C 734.101 0.72591 -2.17401 0
M  V30 7844 C 735.101 1.14819 -1.12575 0
M  V30 7845 O 736.291 1.0629 -1.38015 0
M  V30 7846 C 733.423 1.98979 -2.76803 0
M  V30 7847 H 734.616 0.195588 -2.99262 0
M  V30 7848 H 732.169 0.0644772 -1.56167 0
M  V30 7849 H 732.904 2.56287 -1.98714 0
M  V30 7850 H 732.689 1.69583 -3.53531 0
M  V30 7851 H 734.179 2.63966 -3.23592 0
M  V30 7852 N 734.616 1.57351 0.0885366 0
M  V30 7853 C 736.032 1.53331 0.442916 0
M  V30 7854 C 736.232 0.902831 1.80142 0
M  V30 7855 O 735.288 0.498147 2.47537 0
M  V30 7856 C 736.601 2.98036 0.399372 0
M  V30 7857 C 738.149 3.09286 0.480759 0
M  V30 7858 C 738.624 4.5561 0.467296 0
M  V30 7859 N 740.115 4.60182 0.52786 0
M  V30 7860 C 740.85 5.70857 0.539388 0
M  V30 7861 N 740.346 6.90944 0.506729 0
M  V30 7862 N 742.139 5.59051 0.584691 0
M  V30 7863 H 734.29 1.96709 -0.801215 0
M  V30 7864 H 736.553 0.899639 -0.298922 0
M  V30 7865 H 736.259 3.47656 -0.531806 0
M  V30 7866 H 736.133 3.57066 1.21589 0
M  V30 7867 H 738.52 2.5965 1.40236 0
M  V30 7868 H 738.601 2.53197 -0.364023 0
M  V30 7869 H 738.245 5.05899 -0.450384 0
M  V30 7870 H 738.175 5.09544 1.32938 0
M  V30 7871 H 740.666 3.73757 0.558028 0
M  V30 7872 H 740.979 7.71055 0.518989 0
M  V30 7873 H 739.324 6.93384 0.473675 0
M  V30 7874 H 742.515 4.64138 0.607781 0
M  V30 7875 H 742.688 6.45307 0.590206 0
M  V30 7876 N 736.094 -0.359525 1.53444 0
M  V30 7877 C 737.042 -1.46104 1.80987 0
M  V30 7878 C 738.036 -1.55181 0.679351 0
M  V30 7879 O 739.242 -1.57995 0.862405 0
M  V30 7880 H 735.617 -0.486835 0.573145 0
M  V30 7881 H 737.588 -1.2008 2.73173 0
M  V30 7882 C 736.337 -2.82855 2.02208 0
M  V30 7883 H 735.66 -2.76631 2.88644 0
M  V30 7884 H 737.1 -3.59091 2.25455 0
M  V30 7885 C 735.559 -3.27192 0.802931 0
M  V30 7886 O 736.089 -4.017 -0.00544286 0
M  V30 7887 N 734.295 -2.83807 0.624657 0
M  V30 7888 H 733.842 -2.23339 1.28364 0
M  V30 7889 H 733.8 -3.13828 -0.189641 0
M  V30 7890 N 737.572 -1.44907 -0.619662 0
M  V30 7891 C 738.818 -1.48512 -1.38102 0
M  V30 7892 C 739.151 -0.121686 -1.93818 0
M  V30 7893 O 738.426 0.862256 -1.74343 0
M  V30 7894 C 738.709 -2.55469 -2.53787 0
M  V30 7895 C 738.562 -4.01212 -2.03345 0
M  V30 7896 C 739.881 -2.58821 -3.55949 0
M  V30 7897 H 737 -0.540712 -0.500799 0
M  V30 7898 H 739.642 -1.7665 -0.69962 0
M  V30 7899 H 737.792 -2.31606 -3.11915 0
M  V30 7900 H 739.464 -4.36245 -1.49959 0
M  V30 7901 H 737.707 -4.12443 -1.34438 0
M  V30 7902 H 738.378 -4.71717 -2.86683 0
M  V30 7903 H 740.854 -2.80172 -3.07641 0
M  V30 7904 H 739.73 -3.35542 -4.34399 0
M  V30 7905 H 739.991 -1.63451 -4.10775 0
M  V30 7906 N 739.05 0.861098 -1.31996 0
M  V30 7907 C 739.98 1.98482 -1.22993 0
M  V30 7908 C 740.961 1.6971 -0.115168 0
M  V30 7909 O 742.146 1.91849 -0.30126 0
M  V30 7910 C 739.276 3.34179 -0.945615 0
M  V30 7911 C 738.23 3.77284 -2.02091 0
M  V30 7912 C 737.556 5.1054 -1.58912 0
M  V30 7913 C 738.856 3.93439 -3.43515 0
M  V30 7914 H 740.55 2.06271 -2.17008 0
M  V30 7915 H 738.096 0.991043 -1.04472 0
M  V30 7916 H 740.049 4.12338 -0.869206 0
M  V30 7917 H 738.773 3.26586 0.0301849 0
M  V30 7918 H 737.432 3.01371 -2.08737 0
M  V30 7919 H 737.08 4.99397 -0.600942 0
M  V30 7920 H 736.78 5.40352 -2.30854 0
M  V30 7921 H 738.304 5.91199 -1.52696 0
M  V30 7922 H 739.718 4.6197 -3.39495 0
M  V30 7923 H 738.115 4.34661 -4.13751 0
M  V30 7924 H 739.185 2.96548 -3.8365 0
M  V30 7925 N 740.528 1.15101 1.07655 0
M  V30 7926 C 741.458 0.867864 2.16773 0
M  V30 7927 C 742.439 -0.180283 1.69142 0
M  V30 7928 O 743.624 -0.0353152 1.94168 0
M  V30 7929 C 740.754 0.35299 3.45501 0
M  V30 7930 C 739.708 1.33746 4.06566 0
M  V30 7931 C 739.034 0.681562 5.30338 0
M  V30 7932 C 740.334 2.7024 4.46954 0
M  V30 7933 H 742.028 1.78034 2.40716 0
M  V30 7934 H 739.574 0.857435 1.15689 0
M  V30 7935 H 741.527 0.142465 4.21159 0
M  V30 7936 H 740.251 -0.594945 3.21135 0
M  V30 7937 H 738.91 1.53429 3.32949 0
M  V30 7938 H 738.558 -0.272422 5.02262 0
M  V30 7939 H 738.258 1.33853 5.72151 0
M  V30 7940 H 739.782 0.48074 6.08705 0
M  V30 7941 H 741.196 2.5442 5.13754 0
M  V30 7942 H 739.593 3.32282 4.99709 0
M  V30 7943 H 740.663 3.26537 3.58471 0
M  V30 7944 N 742.006 -1.2595 0.947325 0
M  V30 7945 C 743.252 -1.9375 0.599064 0
M  V30 7946 C 743.585 -1.74088 -0.860632 0
M  V30 7947 O 742.86 -1.08158 -1.61654 0
M  V30 7948 C 743.143 -3.47353 0.949634 0
M  V30 7949 C 742.996 -3.76273 2.46452 0
M  V30 7950 C 744.315 -4.37589 0.469442 0
M  V30 7951 H 741.434 -0.703674 0.219115 0
M  V30 7952 H 744.076 -1.48705 1.18266 0
M  V30 7953 H 742.226 -3.8585 0.453008 0
M  V30 7954 H 743.898 -3.47455 3.03435 0
M  V30 7955 H 742.141 -3.22135 2.90537 0
M  V30 7956 H 742.812 -4.83664 2.66032 0
M  V30 7957 H 745.288 -4.06353 0.89534 0
M  V30 7958 H 744.164 -5.43841 0.7435 0
M  V30 7959 H 744.425 -4.37579 -0.630618 0
M  V30 7960 N 743.484 -0.715051 -1.40445 0
M  V30 7961 C 744.712 -0.263959 -2.05209 0
M  V30 7962 C 745.127 1.09403 -1.53871 0
M  V30 7963 O 744.484 1.68746 -0.695064 0
M  V30 7964 C 744.535 -0.234545 -3.60738 0
M  V30 7965 O 744.256 -1.53891 -4.10182 0
M  V30 7966 C 745.757 0.235164 -4.42676 0
M  V30 7967 H 742.977 -0.11876 -0.660407 0
M  V30 7968 H 745.521 -0.973107 -1.79864 0
M  V30 7969 H 743.676 0.425563 -3.85055 0
M  V30 7970 H 744.09 -1.43903 -5.04373 0
M  V30 7971 H 745.564 0.204598 -5.51621 0
M  V30 7972 H 746.041 1.27724 -4.20218 0
M  V30 7973 H 746.647 -0.394649 -4.23465 0
M  V30 7974 N 744.962 1.50701 -0.461195 0
M  V30 7975 C 745.894 2.26124 0.374244 0
M  V30 7976 C 746.907 1.31064 0.965715 0
M  V30 7977 O 748.096 1.56647 0.855801 0
M  V30 7978 C 745.196 3.01996 1.5379 0
M  V30 7979 C 744.369 4.24336 1.06101 0
M  V30 7980 C 743.428 4.82585 2.09756 0
M  V30 7981 O 742.454 5.43775 1.68219 0
M  V30 7982 N 743.656 4.68712 3.42475 0
M  V30 7983 H 746.421 2.9846 -0.2723 0
M  V30 7984 H 743.982 1.59256 -0.291415 0
M  V30 7985 H 745.974 3.37846 2.22806 0
M  V30 7986 H 744.544 2.32521 2.08933 0
M  V30 7987 H 743.764 3.93707 0.197085 0
M  V30 7988 H 745.052 5.03678 0.720156 0
M  V30 7989 H 744.45 4.20026 3.78938 0
M  V30 7990 H 743.007 5.08858 4.07317 0
M  V30 7991 N 746.441 0.193421 1.56409 0
M  V30 7992 C 747.391 -0.74089 2.15627 0
M  V30 7993 C 748.375 -1.17747 1.09656 0
M  V30 7994 O 749.567 -1.13615 1.35723 0
M  V30 7995 C 746.696 -1.96091 2.81786 0
M  V30 7996 C 745.782 -1.54531 3.94944 0
M  V30 7997 N 746.173 -0.840569 4.98767 0
M  V30 7998 C 744.471 -1.83473 4.06514 0
M  V30 7999 C 745.172 -0.632571 5.7825 0
M  V30 8000 N 744.148 -1.18078 5.30621 0
M  V30 8001 H 747.95 -0.193718 2.93261 0
M  V30 8002 H 745.464 -0.00643211 1.62399 0
M  V30 8003 H 747.461 -2.64071 3.22602 0
M  V30 8004 H 746.121 -2.51282 2.05639 0
M  V30 8005 H 747.132 -0.496218 5.15517 0
M  V30 8006 H 743.809 -2.40184 3.41493 0
M  V30 8007 H 745.199 -0.0736433 6.7186 0
M  V30 8008 N 747.919 -1.57396 -0.0801906 0
M  V30 8009 C 749.149 -1.90778 -0.792924 0
M  V30 8010 C 749.557 -0.786814 -1.72064 0
M  V30 8011 O 748.9 0.249259 -1.82001 0
M  V30 8012 C 748.962 -3.19552 -1.64702 0
M  V30 8013 C 748.626 -4.48259 -0.889567 0
M  V30 8014 C 749.623 -5.19465 -0.212602 0
M  V30 8015 C 747.308 -4.94896 -0.859229 0
M  V30 8016 C 749.302 -6.35555 0.484566 0
M  V30 8017 C 746.989 -6.10895 -0.158284 0
M  V30 8018 C 747.987 -6.81075 0.512421 0
M  V30 8019 O 747.675 -7.94862 1.20209 0
M  V30 8020 H 747.407 -0.63527 -0.231103 0
M  V30 8021 H 749.961 -2.0532 -0.0573081 0
M  V30 8022 H 748.191 -3.01196 -2.42524 0
M  V30 8023 H 749.88 -3.38649 -2.23767 0
M  V30 8024 H 750.646 -4.84467 -0.227403 0
M  V30 8025 H 746.525 -4.4015 -1.37073 0
M  V30 8026 H 750.069 -6.9027 1.00864 0
M  V30 8027 H 745.966 -6.45345 -0.141381 0
M  V30 8028 H 746.734 -8.10932 1.11051 0
M  V30 8029 N 749.397 0.351382 -1.53633 0
M  V30 8030 C 750.36 1.41403 -1.80383 0
M  V30 8031 C 751.36 1.45963 -0.674635 0
M  V30 8032 O 752.55 1.46476 -0.942895 0
M  V30 8033 C 749.682 2.80401 -1.93876 0
M  V30 8034 H 750.875 1.18951 -2.75301 0
M  V30 8035 H 748.428 0.58533 -1.44926 0
M  V30 8036 H 749.163 3.08147 -1.01074 0
M  V30 8037 H 748.948 2.78488 -2.7602 0
M  V30 8038 H 750.438 3.57329 -2.16116 0
M  V30 8039 N 750.875 1.45233 0.611969 0
M  V30 8040 C 751.822 1.5357 1.72293 0
M  V30 8041 C 752.792 0.381912 1.6165 0
M  V30 8042 O 753.977 0.594765 1.81293 0
M  V30 8043 C 751.117 1.50419 3.10593 0
M  V30 8044 C 750.23 2.76316 3.32074 0
M  V30 8045 C 749.365 2.64866 4.60456 0
M  V30 8046 C 748.404 3.85838 4.7518 0
M  V30 8047 N 747.541 3.72949 5.94856 0
M  V30 8048 H 752.381 2.4848 1.64504 0
M  V30 8049 H 749.918 1.23302 0.802191 0
M  V30 8050 H 751.876 1.4658 3.90602 0
M  V30 8051 H 750.506 0.590621 3.17351 0
M  V30 8052 H 749.558 2.90261 2.45872 0
M  V30 8053 H 750.87 3.66055 3.38829 0
M  V30 8054 H 750.024 2.58969 5.48653 0
M  V30 8055 H 748.763 1.72719 4.56092 0
M  V30 8056 H 747.768 3.92099 3.85407 0
M  V30 8057 H 748.993 4.79045 4.81344 0
M  V30 8058 H 746.939 2.83567 5.91545 0
M  V30 8059 H 746.856 4.56319 6.02751 0
M  V30 8060 H 748.124 3.70976 6.85563 0
M  V30 8061 N 752.353 -0.854086 1.3245 0
M  V30 8062 C 753.602 -1.60318 1.22397 0
M  V30 8063 C 753.915 -1.9444 -0.212664 0
M  V30 8064 O 755.121 -2.67991 -0.435066 0
M  V30 8065 C 753.577 -2.8909 2.1437 0
M  V30 8066 C 753.185 -2.62391 3.63119 0
M  V30 8067 C 754.929 -3.67104 2.13155 0
M  V30 8068 C 752.836 -3.87167 4.47052 0
M  V30 8069 H 751.766 -0.601586 0.454544 0
M  V30 8070 H 754.417 -0.943023 1.57415 0
M  V30 8071 H 752.799 -3.56567 1.72268 0
M  V30 8072 H 753.973 -2.03222 4.13567 0
M  V30 8073 H 752.288 -1.97706 3.66471 0
M  V30 8074 H 754.885 -4.59696 2.731 0
M  V30 8075 H 755.228 -4.00876 1.12268 0
M  V30 8076 H 755.761 -3.06533 2.5354 0
M  V30 8077 H 752.5 -3.58536 5.48755 0
M  V30 8078 H 752.02 -4.45729 4.01355 0
M  V30 8079 H 753.699 -4.549 4.60081 0
M  V30 8080 N 753.831 -1.1567 -1.07043 0
M  V30 8081 C 755.056 -0.957946 -1.83952 0
M  V30 8082 C 755.481 0.488807 -1.81638 0
M  V30 8083 O 754.839 1.34869 -1.21162 0
M  V30 8084 C 754.887 -1.48064 -3.288 0
M  V30 8085 O 753.991 -0.681921 -4.06723 0
M  V30 8086 H 753.332 -0.341453 -0.569479 0
M  V30 8087 H 755.862 -1.53728 -1.35015 0
M  V30 8088 H 755.872 -1.49484 -3.7963 0
M  V30 8089 H 754.547 -2.53388 -3.29799 0
M  V30 8090 H 753.124 -0.737612 -3.65532 0
M  V30 8091 N 755.309 1.25446 -0.953992 0
M  V30 8092 C 756.586 1.884 -0.525823 0
M  V30 8093 C 756.966 1.86079 0.996891 0
M  V30 8094 O 756.314 1.32389 1.8624 0
M  V30 8095 C 756.524 3.31154 -1.10172 0
M  V30 8096 C 757.872 4.07926 -1.17819 0
M  V30 8097 O 758.896 3.40273 -1.05323 0
M  V30 8098 O 757.755 5.28942 -1.37415 0
M  V30 8099 H 754.849 0.808629 -0.173345 0
M  V30 8100 H 757.395 1.33522 -1.04738 0
M  V30 8101 H 756.167 3.27271 -2.14499 0
M  V30 8102 H 755.79 3.93588 -0.56338 0
M  V30 8103 N 756.787 0.722489 1.40064 0
M  V30 8104 C 758.034 0.264979 2.00759 0
M  V30 8105 C 758.362 -1.14395 1.57302 0
M  V30 8106 O 757.617 -1.79165 0.787298 0
M  V30 8107 C 757.916 0.300682 3.56133 0
M  V30 8108 C 757.582 1.66087 4.19197 0
M  V30 8109 C 756.244 2.03319 4.36136 0
M  V30 8110 C 758.596 2.55452 4.54306 0
M  V30 8111 C 755.924 3.29448 4.8547 0
M  V30 8112 C 758.276 3.8094 5.05042 0
M  V30 8113 C 756.94 4.1828 5.2019 0
M  V30 8114 H 756.21 0.0969625 0.734629 0
M  V30 8115 H 758.857 0.926877 1.67575 0
M  V30 8116 H 757.162 -0.44479 3.89267 0
M  V30 8117 H 758.859 -0.0712542 4.00937 0
M  V30 8118 H 755.449 1.36137 4.06405 0
M  V30 8119 H 759.633 2.27961 4.40849 0
M  V30 8120 H 754.889 3.58338 4.95382 0
M  V30 8121 H 759.063 4.50351 5.31184 0
M  V30 8122 H 756.69 5.16081 5.58179 0
M  V30 8123 N 758.265 -1.50454 0.469181 0
M  V30 8124 C 759.513 -2.01916 -0.0862982 0
M  V30 8125 C 759.834 -1.35337 -1.40388 0
M  V30 8126 O 759.104 -0.498096 -1.89462 0
M  V30 8127 H 757.684 -0.746185 -0.0348825 0
M  V30 8128 H 760.346 -1.84804 0.619167 0
M  V30 8129 H 759.442 -3.11182 -0.239189 0
M  V30 8130 N 759.743 -0.201713 -1.56304 0
M  V30 8131 C 760.673 0.71155 -2.22394 0
M  V30 8132 C 761.654 1.21625 -1.18917 0
M  V30 8133 O 762.839 1.26388 -1.47444 0
M  V30 8134 C 759.969 1.92837 -2.88845 0
M  V30 8135 C 758.923 1.55831 -3.98623 0
M  V30 8136 C 758.249 2.85228 -4.52271 0
M  V30 8137 C 759.549 0.763249 -5.16693 0
M  V30 8138 H 761.243 0.160573 -2.98969 0
M  V30 8139 H 758.789 0.0757916 -1.438 0
M  V30 8140 H 760.742 2.57253 -3.33764 0
M  V30 8141 H 759.466 2.50398 -2.09686 0
M  V30 8142 H 758.125 0.9377 -3.54405 0
M  V30 8143 H 757.773 3.40893 -3.69866 0
M  V30 8144 H 757.473 2.6121 -5.26349 0
M  V30 8145 H 758.997 3.50622 -4.99897 0
M  V30 8146 H 760.411 1.31066 -5.58117 0
M  V30 8147 H 758.808 0.620935 -5.96879 0
M  V30 8148 H 759.878 -0.234322 -4.84334 0
M  V30 8149 N 761.222 1.57436 0.0718424 0
M  V30 8150 C 762.447 1.91858 0.787745 0
M  V30 8151 C 762.872 0.798119 1.70328 0
M  V30 8152 O 762.23 -0.24905 1.79581 0
M  V30 8153 C 762.278 3.25232 1.55744 0
M  V30 8154 O 761.382 3.14462 2.6681 0
M  V30 8155 H 760.723 0.628258 0.214914 0
M  V30 8156 H 763.253 2.04561 0.0401012 0
M  V30 8157 H 763.263 3.59105 1.9367 0
M  V30 8158 H 761.938 4.0636 0.885691 0
M  V30 8159 H 760.515 2.92148 2.31741 0
M  V30 8160 N 762.7 -0.34323 1.53817 0
M  V30 8161 C 763.647 -1.42153 1.81827 0
M  V30 8162 C 764.617 -1.52251 0.663996 0
M  V30 8163 O 765.802 -1.67784 0.908461 0
M  V30 8164 C 762.942 -2.78799 2.03384 0
M  V30 8165 C 762.055 -2.7749 3.31094 0
M  V30 8166 C 761.19 -4.05856 3.42717 0
M  V30 8167 C 760.229 -3.98776 4.64375 0
M  V30 8168 N 759.366 -5.18833 4.73029 0
M  V30 8169 H 764.206 -1.17567 2.73829 0
M  V30 8170 H 761.743 -0.569506 1.35628 0
M  V30 8171 H 763.701 -3.58211 2.13872 0
M  V30 8172 H 762.331 -3.01736 1.14696 0
M  V30 8173 H 761.383 -1.90182 3.29446 0
M  V30 8174 H 762.695 -2.68137 4.206 0
M  V30 8175 H 761.849 -4.93691 3.52638 0
M  V30 8176 H 760.588 -4.1799 2.51267 0
M  V30 8177 H 759.593 -3.09325 4.5453 0
M  V30 8178 H 760.818 -3.88224 5.57189 0
M  V30 8179 H 758.764 -5.31511 3.84489 0
M  V30 8180 H 758.681 -5.11737 5.56472 0
M  V30 8181 H 759.949 -6.08439 4.87261 0
M  V30 8182 N 764.178 -1.45556 -0.604258 0
M  V30 8183 C 765.141 -1.54091 -1.69672 0
M  V30 8184 C 766.141 -0.420076 -1.55216 0
M  V30 8185 O 767.331 -0.683671 -1.60224 0
M  V30 8186 C 764.463 -1.44063 -3.08964 0
M  V30 8187 H 765.656 -2.51431 -1.6347 0
M  V30 8188 H 763.209 -1.33046 -0.820273 0
M  V30 8189 H 763.944 -0.479201 -3.2074 0
M  V30 8190 H 763.729 -2.25362 -3.20865 0
M  V30 8191 H 765.219 -1.53075 -3.88533 0
M  V30 8192 N 765.656 0.84705 -1.32902 0
M  V30 8193 C 766.586 1.97166 -1.25091 0
M  V30 8194 C 767.567 1.69578 -0.133161 0
M  V30 8195 O 768.752 1.91519 -0.321591 0
M  V30 8196 C 765.882 3.33157 -0.981006 0
M  V30 8197 C 764.836 3.75119 -2.06082 0
M  V30 8198 C 764.162 5.08826 -1.64318 0
M  V30 8199 C 765.462 3.89774 -3.47669 0
M  V30 8200 H 767.156 2.03958 -2.19184 0
M  V30 8201 H 764.702 0.979907 -1.05517 0
M  V30 8202 H 766.655 4.11393 -0.912891 0
M  V30 8203 H 765.379 3.266 -0.00445559 0
M  V30 8204 H 764.038 2.9914 -2.11921 0
M  V30 8205 H 763.686 4.98732 -0.653876 0
M  V30 8206 H 763.386 5.37873 -2.36572 0
M  V30 8207 H 764.91 5.89546 -1.58958 0
M  V30 8208 H 766.324 4.58343 -3.44376 0
M  V30 8209 H 764.721 4.30248 -4.18338 0
M  V30 8210 H 765.791 2.92463 -3.86773 0
M  V30 8211 N 767.134 1.16236 1.06428 0
M  V30 8212 C 768.55 0.906983 1.31324 0
M  V30 8213 C 768.75 -0.440872 1.96618 0
M  V30 8214 O 767.806 -1.1807 2.23194 0
M  V30 8215 C 769.119 2.05501 2.19522 0
M  V30 8216 C 770.667 2.09061 2.32943 0
M  V30 8217 C 771.142 3.23214 3.24495 0
M  V30 8218 N 772.633 3.22922 3.32078 0
M  V30 8219 C 773.368 4.07889 4.03006 0
M  V30 8220 N 772.864 5.02941 4.76469 0
M  V30 8221 N 774.657 3.95881 3.99043 0
M  V30 8222 H 766.808 2.03015 0.624388 0
M  V30 8223 H 769.071 0.88576 0.337835 0
M  V30 8224 H 768.777 3.02847 1.78819 0
M  V30 8225 H 768.651 1.99538 3.201 0
M  V30 8226 H 771.038 1.12308 2.72893 0
M  V30 8227 H 771.119 2.19089 1.32037 0
M  V30 8228 H 770.763 4.20225 2.85261 0
M  V30 8229 H 770.693 3.10423 4.25377 0
M  V30 8230 H 773.184 2.54093 2.79724 0
M  V30 8231 H 773.497 5.64196 5.28112 0
M  V30 8232 H 771.842 5.06922 4.75453 0
M  V30 8233 H 775.033 3.20927 3.40769 0
M  V30 8234 H 775.206 4.62321 4.54052 0
M  V30 8235 N 768.612 -1.24939 0.960631 0
M  V30 8236 C 769.575 -2.239 0.49006 0
M  V30 8237 C 770.575 -1.55497 -0.409535 0
M  V30 8238 O 771.765 -1.72978 -0.205984 0
M  V30 8239 C 768.897 -3.39654 -0.291193 0
M  V30 8240 H 770.09 -2.67044 1.36482 0
M  V30 8241 H 767.643 -1.37429 0.744505 0
M  V30 8242 H 768.378 -3.01939 -1.18336 0
M  V30 8243 H 768.163 -3.90496 0.354276 0
M  V30 8244 H 769.653 -4.13125 -0.609693 0
M  V30 8245 N 770.09 -0.729906 -1.39679 0
M  V30 8246 C 771.367 -0.202149 -1.94553 0
M  V30 8247 C 771.747 1.29507 -1.66707 0
M  V30 8248 O 771.095 2.05819 -0.992517 0
M  V30 8249 C 771.305 -0.530279 -3.44948 0
M  V30 8250 C 772.653 -0.476808 -4.21914 0
M  V30 8251 O 773.677 -0.467171 -3.53123 0
M  V30 8252 O 772.536 -0.466869 -5.44502 0
M  V30 8253 H 769.63 -0.0351644 -0.826252 0
M  V30 8254 H 772.176 -0.808417 -1.49207 0
M  V30 8255 H 770.948 -1.56526 -3.5863 0
M  V30 8256 H 770.571 0.10522 -3.97461 0
M  V30 8257 N 771.568 1.50203 -0.477153 0
M  V30 8258 C 772.478 2.32421 0.319027 0
M  V30 8259 C 773.494 1.43075 0.990233 0
M  V30 8260 O 774.67 1.76123 0.976873 0
M  V30 8261 C 771.735 3.17909 1.38328 0
M  V30 8262 C 770.796 4.23082 0.728036 0
M  V30 8263 C 770.029 5.04484 1.74158 0
M  V30 8264 O 770.252 4.8705 2.96881 0
M  V30 8265 O 769.186 5.8747 1.31006 0
M  V30 8266 H 773.012 3.01638 -0.353281 0
M  V30 8267 H 770.597 1.47478 -0.238891 0
M  V30 8268 H 772.479 3.70937 1.9996 0
M  V30 8269 H 771.154 2.51413 2.03895 0
M  V30 8270 H 770.061 3.7403 0.07261 0
M  V30 8271 H 771.394 4.92065 0.115216 0
M  V30 8272 N 773.046 0.209999 1.56195 0
M  V30 8273 C 773.994 -0.721416 2.2113 0
M  V30 8274 C 774.988 -1.20852 1.18706 0
M  V30 8275 O 776.194 -1.16968 1.36815 0
M  V30 8276 H 772.569 -0.251033 0.708863 0
M  V30 8277 H 774.54 -0.150193 2.98022 0
M  V30 8278 C 773.289 -1.92392 2.89621 0
M  V30 8279 H 772.612 -1.5582 3.68185 0
M  V30 8280 H 774.052 -2.55367 3.38473 0
M  V30 8281 C 772.511 -2.77208 1.91461 0
M  V30 8282 O 773.041 -3.75603 1.42426 0
M  V30 8283 N 771.247 -2.43006 1.59363 0
M  V30 8284 H 770.794 -1.63047 1.99433 0
M  V30 8285 H 770.752 -3.00036 0.939449 0
M  V30 8286 N 774.524 -1.57472 -0.0634922 0
M  V30 8287 C 775.754 -1.91608 -0.772645 0
M  V30 8288 C 776.162 -0.805019 -1.71219 0
M  V30 8289 O 775.505 0.229941 -1.82255 0
M  V30 8290 C 775.567 -3.21281 -1.61304 0
M  V30 8291 C 775.231 -4.49177 -0.841973 0
M  V30 8292 C 776.228 -5.19661 -0.157494 0
M  V30 8293 C 773.913 -4.9578 -0.80669 0
M  V30 8294 C 775.907 -6.35006 0.551948 0
M  V30 8295 C 773.594 -6.11028 -0.0934812 0
M  V30 8296 C 774.592 -6.80493 0.58463 0
M  V30 8297 O 774.28 -7.93542 1.28633 0
M  V30 8298 H 774.012 -0.637685 -0.224352 0
M  V30 8299 H 776.566 -2.05369 -0.0355279 0
M  V30 8300 H 774.796 -3.03752 -2.39315 0
M  V30 8301 H 776.485 -3.41003 -2.20162 0
M  V30 8302 H 777.251 -4.84681 -0.176006 0
M  V30 8303 H 773.13 -4.41579 -1.32397 0
M  V30 8304 H 776.674 -6.89161 1.0818 0
M  V30 8305 H 772.571 -6.45459 -0.0729258 0
M  V30 8306 H 773.339 -8.09708 1.19646 0
M  V30 8307 N 776.003 0.335068 -1.53997 0
M  V30 8308 C 777.233 1.0926 -1.75345 0
M  V30 8309 C 777.641 1.82568 -0.496545 0
M  V30 8310 O 776.984 1.75525 0.541897 0
M  V30 8311 C 777.046 2.14473 -2.88516 0
M  V30 8312 C 776.71 1.60665 -4.27827 0
M  V30 8313 C 777.707 1.05448 -5.09094 0
M  V30 8314 C 775.392 1.65255 -4.74337 0
M  V30 8315 C 777.386 0.555372 -6.34976 0
M  V30 8316 C 775.073 1.14956 -6.0019 0
M  V30 8317 C 776.071 0.601907 -6.80343 0
M  V30 8318 O 775.759 0.106445 -8.0383 0
M  V30 8319 H 775.491 0.331329 -0.589234 0
M  V30 8320 H 778.045 0.39042 -2.01655 0
M  V30 8321 H 776.275 2.88274 -2.5775 0
M  V30 8322 H 777.964 2.75857 -2.97755 0
M  V30 8323 H 778.73 1.01218 -4.74321 0
M  V30 8324 H 774.609 2.06822 -4.12002 0
M  V30 8325 H 778.153 0.127245 -6.97484 0
M  V30 8326 H 774.05 1.18891 -6.34457 0
M  V30 8327 H 774.818 0.222944 -8.18196 0
M  V30 8328 N 777.481 1.45874 0.596531 0
M  V30 8329 C 778.428 1.55389 1.70655 0
M  V30 8330 C 779.398 0.399036 1.61236 0
M  V30 8331 O 780.583 0.61396 1.80652 0
M  V30 8332 C 777.723 1.53705 3.0898 0
M  V30 8333 C 776.836 2.79823 3.29125 0
M  V30 8334 C 775.971 2.69735 4.5762 0
M  V30 8335 C 775.01 3.90856 4.71061 0
M  V30 8336 N 774.147 3.79237 5.90867 0
M  V30 8337 H 778.987 2.50211 1.61859 0
M  V30 8338 H 776.524 1.24146 0.789069 0
M  V30 8339 H 778.482 1.50715 3.89026 0
M  V30 8340 H 777.112 0.624247 3.16706 0
M  V30 8341 H 776.164 2.92852 2.42779 0
M  V30 8342 H 777.476 3.69628 3.34927 0
M  V30 8343 H 776.63 2.64773 5.45875 0
M  V30 8344 H 775.369 1.77547 4.54234 0
M  V30 8345 H 774.374 3.96164 3.81227 0
M  V30 8346 H 775.599 4.84124 4.76236 0
M  V30 8347 H 773.545 2.89825 5.88504 0
M  V30 8348 H 773.462 4.62686 5.97877 0
M  V30 8349 H 774.73 3.78227 6.8159 0
M  V30 8350 N 778.959 -0.83999 1.33349 0
M  V30 8351 C 779.922 -1.93128 1.23426 0
M  V30 8352 C 780.922 -1.60065 0.153599 0
M  V30 8353 O 782.112 -1.69425 0.405049 0
M  V30 8354 C 779.244 -3.28761 0.901622 0
M  V30 8355 H 780.437 -2.03352 2.20427 0
M  V30 8356 H 777.99 -1.03194 1.17391 0
M  V30 8357 H 778.725 -3.24233 -0.0659337 0
M  V30 8358 H 778.51 -3.54138 1.68311 0
M  V30 8359 H 780 -4.08714 0.856913 0
M  V30 8360 N 780.437 -1.16799 -1.0581 0
M  V30 8361 C 781.369 -0.836774 -2.13379 0
M  V30 8362 C 782.382 0.158116 -1.6203 0
M  V30 8363 O 783.571 -0.0673211 -1.78373 0
M  V30 8364 C 780.671 -0.225959 -3.38146 0
M  V30 8365 C 779.844 -1.26217 -4.18794 0
M  V30 8366 C 778.903 -0.670257 -5.21914 0
M  V30 8367 O 777.929 -1.34042 -5.53192 0
M  V30 8368 N 779.131 0.540683 -5.77977 0
M  V30 8369 H 781.896 -1.76257 -2.42391 0
M  V30 8370 H 779.457 -1.06599 -1.21853 0
M  V30 8371 H 781.449 0.18317 -4.04285 0
M  V30 8372 H 780.019 0.603494 -3.06719 0
M  V30 8373 H 779.239 -1.84729 -3.48237 0
M  V30 8374 H 780.527 -1.9613 -4.69479 0
M  V30 8375 H 779.925 1.10322 -5.54838 0
M  V30 8376 H 778.482 0.891958 -6.45668 0
M  V30 8377 N 781.915 1.24427 -0.967243 0
M  V30 8378 C 783.143 1.96541 -0.646477 0
M  V30 8379 C 783.558 1.71753 0.783996 0
M  V30 8380 O 782.915 1.00102 1.52597 0
M  V30 8381 C 782.966 3.4983 -0.911098 0
M  V30 8382 O 782.687 3.7377 -2.28534 0
M  V30 8383 C 784.188 4.3916 -0.604458 0
M  V30 8384 H 781.408 0.626129 -0.241255 0
M  V30 8385 H 783.952 1.58268 -1.29505 0
M  V30 8386 H 782.107 3.86168 -0.308741 0
M  V30 8387 H 782.521 4.68154 -2.365 0
M  V30 8388 H 783.995 5.4557 -0.840069 0
M  V30 8389 H 784.472 4.36771 0.461273 0
M  V30 8390 H 785.078 4.08409 -1.1867 0
M  V30 8391 N 783.393 0.737304 1.3929 0
M  V30 8392 C 784.343 0.0748537 2.27877 0
M  V30 8393 C 785.327 -0.71022 1.44377 0
M  V30 8394 O 786.519 -0.578851 1.67267 0
M  V30 8395 C 783.648 -0.82991 3.33118 0
M  V30 8396 C 782.734 -0.0388619 4.24082 0
M  V30 8397 N 783.125 0.989182 4.96033 0
M  V30 8398 C 781.423 -0.268167 4.45193 0
M  V30 8399 C 782.124 1.46639 5.62914 0
M  V30 8400 N 781.1 0.784581 5.37908 0
M  V30 8401 H 784.902 0.862457 2.80961 0
M  V30 8402 H 782.416 0.571845 1.51999 0
M  V30 8403 H 784.413 -1.31999 3.95452 0
M  V30 8404 H 783.073 -1.61665 2.81593 0
M  V30 8405 H 784.084 1.3706 4.99435 0
M  V30 8406 H 780.761 -1.02953 4.04607 0
M  V30 8407 H 782.151 2.32182 6.30508 0
M  V30 8408 N 784.871 -1.49948 0.485112 0
M  V30 8409 C 786.119 -2.01996 -0.0648775 0
M  V30 8410 C 786.44 -1.36819 -1.38945 0
M  V30 8411 O 785.71 -0.518163 -1.88923 0
M  V30 8412 H 784.29 -0.746513 -0.0269662 0
M  V30 8413 H 786.952 -1.84136 0.638733 0
M  V30 8414 H 786.048 -3.11418 -0.20617 0
M  V30 8415 N 786.349 -0.21828 -1.56081 0
M  V30 8416 C 787.296 0.693189 -2.20144 0
M  V30 8417 C 788.266 1.19274 -1.15598 0
M  V30 8418 O 789.451 1.25243 -1.4394 0
M  V30 8419 C 786.591 1.89715 -2.88275 0
M  V30 8420 C 785.704 1.4368 -4.07407 0
M  V30 8421 C 784.839 2.59807 -4.63329 0
M  V30 8422 C 783.878 2.10492 -5.74769 0
M  V30 8423 N 783.015 3.1988 -6.24997 0
M  V30 8424 H 787.855 0.14016 -2.9767 0
M  V30 8425 H 785.392 0.0574292 -1.46988 0
M  V30 8426 H 787.35 2.60398 -3.25958 0
M  V30 8427 H 785.98 2.42311 -2.13273 0
M  V30 8428 H 785.032 0.625007 -3.7523 0
M  V30 8429 H 786.344 1.03517 -4.8794 0
M  V30 8430 H 785.498 3.38577 -5.03438 0
M  V30 8431 H 784.237 3.03256 -3.81951 0
M  V30 8432 H 783.242 1.30182 -5.34165 0
M  V30 8433 H 784.467 1.68045 -6.5798 0
M  V30 8434 H 782.413 3.62817 -5.46534 0
M  V30 8435 H 782.33 2.83958 -7.00645 0
M  V30 8436 H 783.598 3.98796 -6.69763 0
M  V30 8437 N 787.827 1.57504 0.0551401 0
M  V30 8438 C 789.073 1.89191 0.74688 0
M  V30 8439 C 789.428 0.813936 1.74335 0
M  V30 8440 O 788.721 -0.180217 1.90751 0
M  V30 8441 C 788.915 3.25311 1.48013 0
M  V30 8442 C 788.744 4.46247 0.556176 0
M  V30 8443 C 787.514 5.04954 0.186891 0
M  V30 8444 C 789.712 5.14068 -0.154295 0
M  V30 8445 N 787.694 6.09411 -0.741041 0
M  V30 8446 C 789.065 6.12851 -0.938809 0
M  V30 8447 C 791.12 4.97396 -0.224007 0
M  V30 8448 C 789.823 6.96759 -1.78658 0
M  V30 8449 C 791.849 5.81845 -1.05881 0
M  V30 8450 C 791.211 6.80178 -1.83133 0
M  V30 8451 H 787.31 0.741562 0.248213 0
M  V30 8452 H 789.894 1.94698 0.00777734 0
M  V30 8453 H 788.065 3.20781 2.18985 0
M  V30 8454 H 789.797 3.44594 2.12219 0
M  V30 8455 H 786.552 4.70472 0.543415 0
M  V30 8456 H 786.976 6.66303 -1.19874 0
M  V30 8457 H 791.618 4.21274 0.358924 0
M  V30 8458 H 789.336 7.72245 -2.38042 0
M  V30 8459 H 792.922 5.70997 -1.11595 0
M  V30 8460 H 791.802 7.44389 -2.46687 0
M  V30 8461 N 789.305 -0.326896 1.54172 0
M  V30 8462 C 790.716 -0.901533 1.63491 0
M  V30 8463 C 791.067 -1.88994 0.52684 0
M  V30 8464 O 790.192 -2.137 -0.340794 0
M  V30 8465 C 790.787 -1.64192 2.96355 0
M  V30 8466 C 789.346 -2.16533 3.07881 0
M  V30 8467 C 788.493 -0.98966 2.59039 0
M  V30 8468 H 791.444 -0.104568 1.58355 0
M  V30 8469 H 791.465 -2.50592 2.86328 0
M  V30 8470 H 790.977 -0.922291 3.76982 0
M  V30 8471 H 789.078 -2.91622 2.31922 0
M  V30 8472 H 789.191 -2.41762 4.13628 0
M  V30 8473 H 787.555 -1.36787 2.14852 0
M  V30 8474 H 788.338 -0.284401 3.4212 0
M  V30 8475 N 790.784 -1.46188 -0.588786 0
M  V30 8476 C 792.03 -1.51407 -1.34921 0
M  V30 8477 C 792.363 -0.162771 -1.93517 0
M  V30 8478 O 791.638 0.825082 -1.76132 0
M  V30 8479 C 791.921 -2.60795 -2.48311 0
M  V30 8480 C 791.774 -4.05435 -1.94789 0
M  V30 8481 C 793.093 -2.66313 -3.50379 0
M  V30 8482 H 790.212 -0.551213 -0.489217 0
M  V30 8483 H 792.854 -1.78095 -0.661993 0
M  V30 8484 H 791.004 -2.3817 -3.06932 0
M  V30 8485 H 792.676 -4.39328 -1.40672 0
M  V30 8486 H 790.919 -4.15202 -1.25659 0
M  V30 8487 H 791.59 -4.77691 -2.76613 0
M  V30 8488 H 794.066 -2.86634 -3.01629 0
M  V30 8489 H 792.942 -3.44681 -4.27184 0
M  V30 8490 H 793.203 -1.72127 -4.07216 0
M  V30 8491 N 792.262 0.832906 -1.33792 0
M  V30 8492 C 793.209 1.94314 -1.24541 0
M  V30 8493 C 794.179 1.65646 -0.122753 0
M  V30 8494 O 795.364 1.88394 -0.30204 0
M  V30 8495 C 792.504 3.30395 -0.996641 0
M  V30 8496 C 791.617 3.71422 -2.20612 0
M  V30 8497 C 790.752 4.96401 -1.89101 0
M  V30 8498 C 789.791 5.2998 -3.06247 0
M  V30 8499 N 788.928 6.46137 -2.74685 0
M  V30 8500 H 793.768 2.01559 -2.19495 0
M  V30 8501 H 791.305 0.986243 -1.09141 0
M  V30 8502 H 793.263 4.08803 -0.832817 0
M  V30 8503 H 791.893 3.22691 -0.0838242 0
M  V30 8504 H 790.945 2.88488 -2.47949 0
M  V30 8505 H 792.257 3.92215 -3.0817 0
M  V30 8506 H 791.411 5.82572 -1.69396 0
M  V30 8507 H 790.15 4.7759 -0.987882 0
M  V30 8508 H 789.155 4.42312 -3.26559 0
M  V30 8509 H 790.38 5.50737 -3.97323 0
M  V30 8510 H 788.326 6.28801 -1.86938 0
M  V30 8511 H 788.243 6.67054 -3.55774 0
M  V30 8512 H 789.511 7.35403 -2.58461 0
M  V30 8513 N 793.74 1.17359 1.05189 0
M  V30 8514 C 794.986 0.973414 1.78595 0
M  V30 8515 C 795.341 -0.492713 1.85984 0
M  V30 8516 O 794.634 -1.361 1.3486 0
M  V30 8517 C 794.828 1.54821 3.22126 0
M  V30 8518 C 794.657 3.06871 3.28725 0
M  V30 8519 C 793.427 3.75602 3.38011 0
M  V30 8520 C 795.625 4.04467 3.17665 0
M  V30 8521 N 793.607 5.15257 3.33741 0
M  V30 8522 C 794.978 5.30574 3.20766 0
M  V30 8523 C 797.033 3.96138 3.01627 0
M  V30 8524 C 795.736 6.49319 3.09479 0
M  V30 8525 C 797.762 5.14467 2.91681 0
M  V30 8526 C 797.124 6.3946 2.95416 0
M  V30 8527 H 793.223 0.410092 0.665844 0
M  V30 8528 H 795.807 1.48944 1.25395 0
M  V30 8529 H 793.978 1.05853 3.73697 0
M  V30 8530 H 795.71 1.28467 3.83768 0
M  V30 8531 H 792.465 3.26282 3.43273 0
M  V30 8532 H 792.889 5.88263 3.35076 0
M  V30 8533 H 797.531 3.00345 2.97578 0
M  V30 8534 H 795.249 7.45322 3.12283 0
M  V30 8535 H 798.835 5.09803 2.80343 0
M  V30 8536 H 797.715 7.29483 2.87792 0
M  V30 8537 N 795.218 -1.23913 0.973828 0
M  V30 8538 C 796.448 -1.95911 0.655938 0
M  V30 8539 C 796.856 -1.72375 -0.779967 0
M  V30 8540 O 796.199 -1.00807 -1.5357 0
M  V30 8541 C 796.261 -3.49103 0.858324 0
M  V30 8542 C 795.925 -3.96347 2.27504 0
M  V30 8543 C 796.922 -4.05537 3.25324 0
M  V30 8544 C 794.607 -4.29509 2.60437 0
M  V30 8545 C 796.601 -4.47233 4.5416 0
M  V30 8546 C 794.288 -4.70887 3.89498 0
M  V30 8547 C 795.286 -4.79714 4.86172 0
M  V30 8548 O 794.974 -5.20166 6.1293 0
M  V30 8549 H 794.706 -0.630721 0.243244 0
M  V30 8550 H 797.26 -1.58534 1.30599 0
M  V30 8551 H 795.49 -3.86405 0.151097 0
M  V30 8552 H 797.179 -4.02311 0.538592 0
M  V30 8553 H 797.945 -3.80128 3.0121 0
M  V30 8554 H 793.824 -4.21853 1.85906 0
M  V30 8555 H 797.368 -4.54038 5.29618 0
M  V30 8556 H 793.265 -4.95744 4.1341 0
M  V30 8557 H 794.033 -5.38298 6.16586 0
M  V30 8558 N 796.696 -0.74468 -1.38897 0
M  V30 8559 C 797.659 -0.11945 -2.28889 0
M  V30 8560 C 798.659 0.656942 -1.46768 0
M  V30 8561 O 799.849 0.484525 -1.67326 0
M  V30 8562 C 796.981 0.839635 -3.30398 0
M  V30 8563 H 798.174 -0.912414 -2.85683 0
M  V30 8564 H 795.727 -0.511119 -1.47707 0
M  V30 8565 H 796.462 1.6586 -2.78677 0
M  V30 8566 H 796.247 0.285432 -3.9106 0
M  V30 8567 H 797.737 1.27337 -3.97712 0
M  V30 8568 N 798.174 1.49689 -0.493057 0
M  V30 8569 C 799.585 1.8665 -0.0433032 0
M  V30 8570 C 799.936 1.40607 1.36836 0
M  V30 8571 O 799.061 0.780503 2.01834 0
M  V30 8572 C 799.656 3.38724 -0.0718069 0
M  V30 8573 C 798.215 3.75015 0.32257 0
M  V30 8574 C 797.362 2.7366 -0.4478 0
M  V30 8575 H 800.313 1.42119 -0.706246 0
M  V30 8576 H 800.334 3.73522 0.725347 0
M  V30 8577 H 799.846 3.72204 -1.09935 0
M  V30 8578 H 797.947 3.47142 1.35364 0
M  V30 8579 H 798.06 4.79099 0.00864259 0
M  V30 8580 H 796.424 2.54498 0.101354 0
M  V30 8581 H 797.207 3.09985 -1.47527 0
M  V30 8582 N 799.652 0.226554 1.55963 0
M  V30 8583 C 800.562 -0.692725 2.24139 0
M  V30 8584 C 801.578 -1.20971 1.25068 0
M  V30 8585 O 802.754 -1.25027 1.57893 0
M  V30 8586 C 799.819 -1.88183 2.91184 0
M  V30 8587 C 798.88 -1.40633 4.05612 0
M  V30 8588 C 798.113 -2.53875 4.6945 0
M  V30 8589 O 798.336 -3.72129 4.32292 0
M  V30 8590 O 797.27 -2.24792 5.58348 0
M  V30 8591 H 801.096 -0.141921 3.03368 0
M  V30 8592 H 798.681 -0.0041049 1.49399 0
M  V30 8593 H 800.563 -2.57617 3.33484 0
M  V30 8594 H 799.238 -2.42064 2.14911 0
M  V30 8595 H 798.145 -0.67986 3.67871 0
M  V30 8596 H 799.478 -0.913838 4.83642 0
M  V30 8597 N 801.13 -1.57531 -0.0467866 0
M  V30 8598 C 802.37 -1.90294 -0.746171 0
M  V30 8599 C 802.734 -0.823194 -1.73458 0
M  V30 8600 O 803.935 -1.03463 -2.48091 0
M  V30 8601 C 802.206 -3.28249 -1.41378 0
M  V30 8602 S 803.765 -3.82812 -2.14477 0
M  V30 8603 H 800.583 -0.666496 -0.247598 0
M  V30 8604 H 803.185 -1.955 -0.00135143 0
M  V30 8605 H 801.889 -4.04712 -0.680937 0
M  V30 8606 H 801.42 -3.26302 -2.19751 0
M  V30 8607 H 803.435 -3.60111 -3.41372 0
M  V30 8608 N 802.608 0.318715 -1.54344 0
M  V30 8609 C 803.857 1.05363 -1.71993 0
M  V30 8610 C 804.17 1.89018 -0.503155 0
M  V30 8611 O 805.376 2.65639 -0.561085 0
M  V30 8612 C 803.832 1.92281 -3.0423 0
M  V30 8613 C 803.44 1.13715 -4.33328 0
M  V30 8614 C 805.184 2.65479 -3.31242 0
M  V30 8615 C 803.091 1.99806 -5.56625 0
M  V30 8616 H 802.021 0.397081 -0.64097 0
M  V30 8617 H 804.672 0.311598 -1.80835 0
M  V30 8618 H 803.054 2.70402 -2.89307 0
M  V30 8619 H 804.228 0.403305 -4.59032 0
M  V30 8620 H 802.543 0.521769 -4.13118 0
M  V30 8621 H 805.14 3.30209 -4.20555 0
M  V30 8622 H 805.483 3.33374 -2.49334 0
M  V30 8623 H 806.016 1.94417 -3.47054 0
M  V30 8624 H 802.755 1.36411 -6.41149 0
M  V30 8625 H 802.275 2.70911 -5.35133 0
M  V30 8626 H 803.954 2.58277 -5.93213 0
M  V30 8627 N 804.086 1.46499 0.581025 0
M  V30 8628 C 805.034 1.57562 1.71105 0
M  V30 8629 C 806.028 0.44403 1.63477 0
M  V30 8630 O 807.234 0.620964 1.6895 0
M  V30 8631 H 803.609 0.495415 0.565746 0
M  V30 8632 H 805.58 2.5257 1.58905 0
M  V30 8633 C 804.329 1.58465 3.0949 0
M  V30 8634 H 803.652 2.44877 3.16031 0
M  V30 8635 H 805.092 1.70261 3.88313 0
M  V30 8636 C 803.551 0.313596 3.35437 0
M  V30 8637 O 804.081 -0.595456 3.97262 0
M  V30 8638 N 802.287 0.200986 2.89904 0
M  V30 8639 H 801.834 0.941643 2.39773 0
M  V30 8640 H 801.792 -0.648577 3.07638 0
M  V30 8641 N 805.565 -0.825799 1.34232 0
M  V30 8642 C 806.795 -1.61129 1.29309 0
M  V30 8643 C 807.203 -1.88714 -0.135589 0
M  V30 8644 O 806.546 -1.47703 -1.09222 0
M  V30 8645 C 806.608 -2.97866 2.01287 0
M  V30 8646 C 806.272 -2.9319 3.50555 0
M  V30 8647 C 807.269 -2.67978 4.45515 0
M  V30 8648 C 804.954 -3.12913 3.92926 0
M  V30 8649 C 806.948 -2.62536 5.80822 0
M  V30 8650 C 804.635 -3.07096 5.28333 0
M  V30 8651 C 805.633 -2.8194 6.22092 0
M  V30 8652 O 805.321 -2.7605 7.55018 0
M  V30 8653 H 805.053 -0.507652 0.446391 0
M  V30 8654 H 807.607 -1.03575 1.77374 0
M  V30 8655 H 805.837 -3.57327 1.47832 0
M  V30 8656 H 807.526 -3.58848 1.89691 0
M  V30 8657 H 808.292 -2.52478 4.14101 0
M  V30 8658 H 804.171 -3.3151 3.20347 0
M  V30 8659 H 807.715 -2.42821 6.53975 0
M  V30 8660 H 803.612 -3.22148 5.59367 0
M  V30 8661 H 804.38 -2.91798 7.6472 0
M  V30 8662 N 807.043 -1.17915 -1.04565 0
M  V30 8663 C 808.273 -0.994716 -1.81077 0
M  V30 8664 C 808.681 0.460146 -1.83519 0
M  V30 8665 O 808.024 1.33136 -1.26572 0
M  V30 8666 C 808.086 -1.46698 -3.28207 0
M  V30 8667 C 807.75 -2.94523 -3.49436 0
M  V30 8668 C 808.747 -3.92414 -3.41038 0
M  V30 8669 C 806.432 -3.32841 -3.76194 0
M  V30 8670 C 808.426 -5.2662 -3.59096 0
M  V30 8671 C 806.113 -4.67212 -3.93899 0
M  V30 8672 C 807.111 -5.6391 -3.8535 0
M  V30 8673 O 806.799 -6.95849 -4.02554 0
M  V30 8674 H 806.531 -0.351797 -0.577248 0
M  V30 8675 H 809.085 -1.56772 -1.32709 0
M  V30 8676 H 807.315 -0.837592 -3.7752 0
M  V30 8677 H 809.004 -1.24724 -3.86263 0
M  V30 8678 H 809.77 -3.64157 -3.20336 0
M  V30 8679 H 805.649 -2.58139 -3.81949 0
M  V30 8680 H 809.193 -6.02082 -3.52339 0
M  V30 8681 H 805.09 -4.95172 -4.14095 0
M  V30 8682 H 805.858 -7.02679 -4.19743 0
M  V30 8683 N 808.521 1.23394 -0.980386 0
M  V30 8684 C 809.468 2.24859 -0.520298 0
M  V30 8685 C 810.438 1.60144 0.440821 0
M  V30 8686 O 811.623 1.87593 0.348369 0
M  V30 8687 C 808.763 3.44675 0.171145 0
M  V30 8688 C 807.876 4.23947 -0.830233 0
M  V30 8689 C 807.011 5.31079 -0.113597 0
M  V30 8690 C 806.05 6.02058 -1.10419 0
M  V30 8691 N 805.187 7.00862 -0.416709 0
M  V30 8692 H 810.027 2.63579 -1.39032 0
M  V30 8693 H 807.564 1.29556 -0.696682 0
M  V30 8694 H 809.522 4.13024 0.588838 0
M  V30 8695 H 808.152 3.06755 1.00504 0
M  V30 8696 H 807.204 3.55016 -1.36631 0
M  V30 8697 H 808.516 4.72945 -1.58508 0
M  V30 8698 H 807.67 6.05622 0.36146 0
M  V30 8699 H 806.409 4.83022 0.673854 0
M  V30 8700 H 805.414 5.26307 -1.59 0
M  V30 8701 H 806.639 6.52203 -1.8923 0
M  V30 8702 H 804.585 6.55057 0.351535 0
M  V30 8703 H 804.502 7.47804 -1.11021 0
M  V30 8704 H 805.77 7.79492 0.0359606 0
M  V30 8705 N 809.999 0.752036 1.385 0
M  V30 8706 C 811.246 0.307503 2.00152 0
M  V30 8707 C 811.574 -1.11033 1.59693 0
M  V30 8708 O 810.829 -1.77455 0.825125 0
M  V30 8709 C 811.128 0.376155 3.55415 0
M  V30 8710 C 810.794 1.74942 4.15579 0
M  V30 8711 C 809.456 2.12525 4.31725 0
M  V30 8712 C 811.808 2.65031 4.48785 0
M  V30 8713 C 809.136 3.39671 4.78373 0
M  V30 8714 C 811.488 3.91567 4.96848 0
M  V30 8715 C 810.152 4.2922 5.11201 0
M  V30 8716 H 809.422 0.112523 0.732407 0
M  V30 8717 H 812.069 0.962213 1.65571 0
M  V30 8718 H 810.374 -0.362121 3.90123 0
M  V30 8719 H 812.071 0.0138065 4.00998 0
M  V30 8720 H 808.661 1.44726 4.03426 0
M  V30 8721 H 812.845 2.3726 4.35914 0
M  V30 8722 H 808.101 3.68765 4.8767 0
M  V30 8723 H 812.275 4.61517 5.21512 0
M  V30 8724 H 809.902 5.27805 5.47107 0
M  V30 8725 N 811.477 -1.49425 0.500989 0
M  V30 8726 C 812.702 -2.07356 -0.0425154 0
M  V30 8727 C 813.127 -1.35887 -1.30063 0
M  V30 8728 O 812.485 -0.41561 -1.76472 0
M  V30 8729 C 812.533 -3.59518 -0.279188 0
M  V30 8730 O 811.637 -3.89542 -1.3539 0
M  V30 8731 H 810.978 -0.663482 0.0262207 0
M  V30 8732 H 813.508 -1.92231 0.700607 0
M  V30 8733 H 813.518 -4.04791 -0.5107 0
M  V30 8734 H 812.193 -4.10946 0.640009 0
M  V30 8735 H 810.77 -3.56079 -1.10734 0
M  V30 8736 N 812.955 -0.234822 -1.55841 0
M  V30 8737 C 814.18 0.400741 -2.03492 0
M  V30 8738 C 814.605 1.51618 -1.11327 0
M  V30 8739 O 813.963 1.81002 -0.103922 0
M  V30 8740 C 814.011 0.897184 -3.49261 0
M  V30 8741 O 813.115 2.00764 -3.60233 0
M  V30 8742 H 812.456 0.0890023 -0.658008 0
M  V30 8743 H 814.986 -0.357345 -2.01455 0
M  V30 8744 H 814.996 1.20356 -3.89844 0
M  V30 8745 H 813.671 0.0808639 -4.15821 0
M  V30 8746 H 812.248 1.70689 -3.31541 0
M  V30 8747 N 814.433 1.57553 0.0384317 0
M  V30 8748 C 815.38 2.05942 1.04194 0
M  V30 8749 C 816.35 0.946637 1.36484 0
M  V30 8750 O 817.535 1.21658 1.46983 0
M  V30 8751 C 814.675 2.53588 2.34066 0
M  V30 8752 C 813.788 3.7862 2.08017 0
M  V30 8753 C 812.923 4.14915 3.31692 0
M  V30 8754 C 811.962 5.32891 3.01155 0
M  V30 8755 N 811.099 5.64662 4.17254 0
M  V30 8756 H 815.939 2.91429 0.622341 0
M  V30 8757 H 813.476 1.44098 0.295684 0
M  V30 8758 H 815.434 2.79276 3.09937 0
M  V30 8759 H 814.064 1.71031 2.73767 0
M  V30 8760 H 813.116 3.60073 1.22686 0
M  V30 8761 H 814.428 4.64613 1.81484 0
M  V30 8762 H 813.582 4.41681 4.15936 0
M  V30 8763 H 812.321 3.27555 3.6133 0
M  V30 8764 H 811.326 5.05887 2.15311 0
M  V30 8765 H 812.551 6.21896 2.72804 0
M  V30 8766 H 810.497 4.80261 4.46861 0
M  V30 8767 H 810.414 6.45145 3.94112 0
M  V30 8768 H 811.682 5.96 5.02399 0
M  V30 8769 N 815.911 -0.310526 1.54511 0
M  V30 8770 C 817.136 -1.07046 1.7764 0
M  V30 8771 C 817.561 -1.80488 0.529696 0
M  V30 8772 O 816.919 -1.73702 -0.519361 0
M  V30 8773 C 816.967 -2.03411 2.97752 0
M  V30 8774 O 816.071 -3.11545 2.7021 0
M  V30 8775 H 815.412 -0.307994 0.588248 0
M  V30 8776 H 817.942 -0.350848 2.01569 0
M  V30 8777 H 817.952 -2.46048 3.2546 0
M  V30 8778 H 816.627 -1.49361 3.88155 0
M  V30 8779 H 815.204 -2.7349 2.53491 0
M  V30 8780 N 817.389 -1.46805 -0.573248 0
M  V30 8781 C 818.666 -1.43082 -1.33368 0
M  V30 8782 C 819.046 -0.119252 -2.10763 0
M  V30 8783 O 818.394 0.899239 -2.10062 0
M  V30 8784 C 818.604 -2.66643 -2.25172 0
M  V30 8785 C 819.952 -3.13188 -2.86702 0
M  V30 8786 O 820.976 -2.67258 -2.35482 0
M  V30 8787 O 819.835 -3.92994 -3.79761 0
M  V30 8788 H 816.929 -0.569451 -0.599712 0
M  V30 8789 H 819.475 -1.58984 -0.59348 0
M  V30 8790 H 818.247 -3.53649 -1.67475 0
M  V30 8791 H 817.87 -2.53247 -3.06516 0
M  V30 8792 N 818.867 0.818669 -1.34668 0
M  V30 8793 C 820.113 1.57746 -1.27453 0
M  V30 8794 C 820.446 1.93588 0.154077 0
M  V30 8795 O 819.721 1.60371 1.10051 0
M  V30 8796 C 820.004 2.87414 -2.16945 0
M  V30 8797 C 819.857 2.58125 -3.68363 0
M  V30 8798 C 821.176 3.89021 -2.05792 0
M  V30 8799 H 818.295 0.572339 -0.464324 0
M  V30 8800 H 820.937 0.942784 -1.64959 0
M  V30 8801 H 819.087 3.41576 -1.85089 0
M  V30 8802 H 820.759 2.10239 -4.10606 0
M  V30 8803 H 819.002 1.91503 -3.89242 0
M  V30 8804 H 819.673 3.5061 -4.26353 0
M  V30 8805 H 822.149 3.44224 -2.33771 0
M  V30 8806 H 821.025 4.77548 -2.70628 0
M  V30 8807 H 821.286 4.29786 -1.03618 0
M  V30 8808 N 820.346 1.18468 1.03938 0
M  V30 8809 C 821.592 0.992302 1.77553 0
M  V30 8810 C 821.947 -0.472959 1.86496 0
M  V30 8811 O 821.24 -1.34662 1.36296 0
M  V30 8812 C 821.434 1.58229 3.20466 0
M  V30 8813 C 821.263 3.1034 3.25452 0
M  V30 8814 C 820.033 3.79166 3.34008 0
M  V30 8815 C 822.231 4.07814 3.13357 0
M  V30 8816 N 820.213 5.18768 3.28258 0
M  V30 8817 C 821.584 5.33946 3.15121 0
M  V30 8818 C 823.639 3.99315 2.97409 0
M  V30 8819 C 822.342 6.52565 3.02574 0
M  V30 8820 C 824.368 5.17532 2.86208 0
M  V30 8821 C 823.73 6.42557 2.88617 0
M  V30 8822 H 819.829 0.417131 0.661457 0
M  V30 8823 H 822.413 1.50265 1.23808 0
M  V30 8824 H 820.584 1.0981 3.72554 0
M  V30 8825 H 822.316 1.32531 3.82384 0
M  V30 8826 H 819.071 3.29905 3.39794 0
M  V30 8827 H 819.495 5.91783 3.28818 0
M  V30 8828 H 824.137 3.03485 2.94375 0
M  V30 8829 H 821.855 7.48592 3.0436 0
M  V30 8830 H 825.441 5.12748 2.7492 0
M  V30 8831 H 824.321 7.32494 2.80039 0
M  V30 8832 N 821.824 -1.22873 0.986916 0
M  V30 8833 C 823.049 -1.96028 0.677341 0
M  V30 8834 C 823.474 -1.72487 -0.750319 0
M  V30 8835 O 822.832 -1.00036 -1.51203 0
M  V30 8836 C 822.88 -3.46983 0.981593 0
M  V30 8837 O 821.984 -4.12328 0.0770729 0
M  V30 8838 H 821.325 -0.613458 0.254096 0
M  V30 8839 H 823.855 -1.56132 1.32227 0
M  V30 8840 H 823.865 -3.9747 0.920969 0
M  V30 8841 H 822.54 -3.63442 2.02194 0
M  V30 8842 H 821.117 -3.72402 0.192666 0
M  V30 8843 N 823.302 -0.75937 -1.38099 0
M  V30 8844 C 824.549 -0.318113 -1.99986 0
M  V30 8845 C 824.877 1.10184 -1.6028 0
M  V30 8846 O 824.132 1.77015 -0.834524 0
M  V30 8847 C 824.431 -0.394999 -3.55211 0
M  V30 8848 C 824.097 -1.77143 -4.14646 0
M  V30 8849 C 822.759 -2.14811 -4.30592 0
M  V30 8850 C 825.111 -2.67407 -4.47373 0
M  V30 8851 C 822.439 -3.42203 -4.76565 0
M  V30 8852 C 824.791 -3.94196 -4.94765 0
M  V30 8853 C 823.455 -4.31925 -5.08918 0
M  V30 8854 H 822.725 -0.116406 -0.7318 0
M  V30 8855 H 825.372 -0.97098 -1.65058 0
M  V30 8856 H 823.677 0.341426 -3.9031 0
M  V30 8857 H 825.374 -0.0350722 -4.00985 0
M  V30 8858 H 821.964 -1.46864 -4.02652 0
M  V30 8859 H 826.148 -2.39569 -4.3465 0
M  V30 8860 H 821.404 -3.71346 -4.85708 0
M  V30 8861 H 825.578 -4.64276 -5.19057 0
M  V30 8862 H 823.205 -5.30699 -5.443 0
M  V30 8863 N 824.78 1.49157 -0.508906 0
M  V30 8864 C 826.028 2.02073 0.0327335 0
M  V30 8865 C 826.349 1.39012 1.3675 0
M  V30 8866 O 825.619 0.548153 1.88075 0
M  V30 8867 H 824.199 0.746848 0.0150864 0
M  V30 8868 H 826.861 1.83097 -0.667946 0
M  V30 8869 H 825.957 3.11707 0.1566 0
M  V30 8870 N 826.258 0.243083 1.55714 0
M  V30 8871 C 827.504 -0.383287 1.99145 0
M  V30 8872 C 827.837 -1.57868 1.13098 0
M  V30 8873 O 827.112 -1.93535 0.193509 0
M  V30 8874 C 827.395 -0.796879 3.51172 0
M  V30 8875 C 827.248 0.403642 4.47985 0
M  V30 8876 C 828.567 -1.64525 4.08191 0
M  V30 8877 H 825.686 -0.137843 0.723995 0
M  V30 8878 H 828.328 0.343631 1.86867 0
M  V30 8879 H 826.478 -1.41625 3.61766 0
M  V30 8880 H 828.15 1.04204 4.49376 0
M  V30 8881 H 826.393 1.04741 4.20965 0
M  V30 8882 H 827.064 0.0709794 5.51954 0
M  V30 8883 H 829.54 -1.12246 4.00674 0
M  V30 8884 H 828.416 -1.9035 5.14838 0
M  V30 8885 H 828.677 -2.61582 3.56409 0
M  V30 8886 N 827.736 -1.57571 -0.0300757 0
M  V30 8887 C 828.666 -2.0953 -1.03051 0
M  V30 8888 C 829.647 -0.99761 -1.37774 0
M  V30 8889 O 830.832 -1.27279 -1.46676 0
M  V30 8890 C 827.962 -2.57385 -2.33174 0
M  V30 8891 C 826.916 -3.71409 -2.12696 0
M  V30 8892 C 826.242 -4.05467 -3.4857 0
M  V30 8893 C 827.542 -4.99877 -1.51396 0
M  V30 8894 H 829.236 -2.93367 -0.597999 0
M  V30 8895 H 826.782 -1.41127 -0.286203 0
M  V30 8896 H 828.735 -2.92355 -3.03491 0
M  V30 8897 H 827.459 -1.70629 -2.78484 0
M  V30 8898 H 826.118 -3.36786 -1.44813 0
M  V30 8899 H 825.766 -3.15779 -3.91526 0
M  V30 8900 H 825.466 -4.82269 -3.35694 0
M  V30 8901 H 826.99 -4.4297 -4.2025 0
M  V30 8902 H 828.404 -5.3281 -2.11629 0
M  V30 8903 H 826.801 -5.81283 -1.49098 0
M  V30 8904 H 827.871 -4.82522 -0.479676 0
M  V30 8905 N 829.214 0.302327 -1.54673 0
M  V30 8906 C 830.147 1.39738 -1.80412 0
M  V30 8907 C 831.125 1.48813 -0.655241 0
M  V30 8908 O 832.309 1.65895 -0.89505 0
M  V30 8909 C 829.436 2.7766 -1.93966 0
M  V30 8910 C 828.482 2.86014 -3.16383 0
M  V30 8911 S 829.315 2.48246 -4.74483 0
M  V30 8912 C 830.471 3.88198 -4.90971 0
M  V30 8913 H 830.704 1.17696 -2.73011 0
M  V30 8914 H 828.237 0.500364 -1.46068 0
M  V30 8915 H 830.195 3.571 -2.0246 0
M  V30 8916 H 828.856 2.96971 -1.02307 0
M  V30 8917 H 828.049 3.87174 -3.22664 0
M  V30 8918 H 827.651 2.14568 -3.06328 0
M  V30 8919 H 829.943 4.83181 -4.74913 0
M  V30 8920 H 830.886 3.86887 -5.93063 0
M  V30 8921 H 831.294 3.78139 -4.19131 0
M  V30 8922 N 830.692 1.47107 0.565454 0
M  V30 8923 C 831.938 1.54519 1.3227 0
M  V30 8924 C 832.293 0.201313 1.91344 0
M  V30 8925 O 831.586 -0.792058 1.74462 0
M  V30 8926 C 831.78 2.59309 2.45954 0
M  V30 8927 C 831.609 4.03756 1.98019 0
M  V30 8928 C 830.379 4.71293 1.8224 0
M  V30 8929 C 832.577 4.91029 1.52955 0
M  V30 8930 N 830.559 6.00288 1.28557 0
M  V30 8931 C 831.93 6.09986 1.10981 0
M  V30 8932 C 833.985 4.77539 1.4093 0
M  V30 8933 C 832.688 7.16943 0.581796 0
M  V30 8934 C 834.714 5.84584 0.895307 0
M  V30 8935 C 834.076 7.02725 0.485454 0
M  V30 8936 H 830.175 0.620177 0.476345 0
M  V30 8937 H 832.759 1.83814 0.641901 0
M  V30 8938 H 830.93 2.31896 3.11575 0
M  V30 8939 H 832.662 2.56614 3.1294 0
M  V30 8940 H 829.417 4.27074 2.04707 0
M  V30 8941 H 829.841 6.68991 1.03828 0
M  V30 8942 H 834.483 3.86574 1.71231 0
M  V30 8943 H 832.201 8.07661 0.266399 0
M  V30 8944 H 835.787 5.76191 0.805939 0
M  V30 8945 H 834.667 7.84144 0.0938828 0
M  V30 8946 N 832.17 -0.811516 1.35101 0
M  V30 8947 C 833.08 -1.95475 1.29718 0
M  V30 8948 C 834.096 -1.72813 0.202909 0
M  V30 8949 O 835.272 -1.96725 0.431414 0
M  V30 8950 C 832.337 -3.29975 1.06385 0
M  V30 8951 C 831.398 -3.65566 2.25077 0
M  V30 8952 C 830.631 -4.93648 2.02848 0
M  V30 8953 O 830.854 -5.617 0.992442 0
M  V30 8954 O 829.788 -5.27384 2.90087 0
M  V30 8955 H 833.614 -2.02961 2.25921 0
M  V30 8956 H 831.199 -0.948583 1.15422 0
M  V30 8957 H 833.081 -4.10506 0.951999 0
M  V30 8958 H 831.756 -3.2343 0.132294 0
M  V30 8959 H 830.663 -2.85432 2.41825 0
M  V30 8960 H 831.996 -3.7681 3.16662 0
M  V30 8961 N 833.648 -1.19017 -1.03309 0
M  V30 8962 C 834.611 -0.926076 -2.09658 0
M  V30 8963 C 835.611 0.0917077 -1.60538 0
M  V30 8964 O 836.801 -0.142574 -1.73616 0
M  V30 8965 C 833.933 -0.390958 -3.38651 0
M  V30 8966 H 835.126 -1.86923 -2.3452 0
M  V30 8967 H 832.679 -1.00325 -1.19853 0
M  V30 8968 H 833.414 0.558446 -3.19456 0
M  V30 8969 H 833.199 -1.12474 -3.75622 0
M  V30 8970 H 834.689 -0.225131 -4.16993 0
M  V30 8971 N 835.127 1.22348 -0.993418 0
M  V30 8972 C 836.374 1.9111 -0.669568 0
M  V30 8973 C 836.702 1.77357 0.79843 0
M  V30 8974 O 835.957 1.13675 1.593 0
M  V30 8975 C 836.256 3.42477 -1.02197 0
M  V30 8976 C 835.922 3.7642 -2.48232 0
M  V30 8977 C 834.584 3.85395 -2.88139 0
M  V30 8978 C 836.936 3.9253 -3.42884 0
M  V30 8979 C 834.264 4.07918 -4.21687 0
M  V30 8980 C 836.616 4.16557 -4.76091 0
M  V30 8981 C 835.28 4.23757 -5.15739 0
M  V30 8982 H 834.55 0.699321 -0.245012 0
M  V30 8983 H 837.197 1.45102 -1.2497 0
M  V30 8984 H 835.502 3.90143 -0.359921 0
M  V30 8985 H 837.199 3.93935 -0.74942 0
M  V30 8986 H 833.789 3.70017 -2.16299 0
M  V30 8987 H 837.973 3.84974 -3.13224 0
M  V30 8988 H 833.229 4.11719 -4.51993 0
M  V30 8989 H 837.403 4.27966 -5.4938 0
M  V30 8990 H 835.03 4.40962 -6.19239 0
M  V30 8991 N 836.605 0.766683 1.37694 0
M  V30 8992 C 837.83 0.338715 2.04615 0
M  V30 8993 C 838.255 -1.02918 1.57447 0
M  V30 8994 O 837.613 -1.65849 0.732386 0
M  V30 8995 C 837.661 0.385284 3.58536 0
M  V30 8996 O 836.765 -0.616081 4.07772 0
M  V30 8997 H 836.106 0.147527 0.647404 0
M  V30 8998 H 838.636 1.04146 1.7611 0
M  V30 8999 H 838.646 0.240782 4.07289 0
M  V30 9000 H 837.321 1.38325 3.92223 0
M  V30 9001 H 835.898 -0.435115 3.70353 0
M  V30 9002 N 838.083 -1.48885 0.516809 0
M  V30 9003 C 839.313 -2.06592 -0.018375 0
M  V30 9004 C 839.721 -1.37543 -1.29917 0
M  V30 9005 O 839.064 -0.452527 -1.78039 0
M  V30 9006 C 839.126 -3.58016 -0.326315 0
M  V30 9007 C 838.79 -4.48853 0.859072 0
M  V30 9008 C 839.787 -4.89422 1.75391 0
M  V30 9009 C 837.472 -4.90937 1.06235 0
M  V30 9010 C 839.466 -5.70831 2.83604 0
M  V30 9011 C 837.153 -5.72119 2.14763 0
M  V30 9012 C 838.151 -6.11972 3.03281 0
M  V30 9013 O 837.839 -6.91527 4.09934 0
M  V30 9014 H 837.571 -0.675559 0.0244023 0
M  V30 9015 H 840.125 -1.92442 0.718005 0
M  V30 9016 H 838.355 -3.70231 -1.1165 0
M  V30 9017 H 840.044 -3.97898 -0.801999 0
M  V30 9018 H 840.81 -4.57542 1.60875 0
M  V30 9019 H 836.689 -4.59409 0.382677 0
M  V30 9020 H 840.233 -6.01857 3.52724 0
M  V30 9021 H 836.13 -6.03412 2.29268 0
M  V30 9022 H 836.898 -7.0986 4.07482 0
M  V30 9023 N 839.561 -0.251338 -1.55583 0
M  V30 9024 C 840.809 0.371434 -1.98657 0
M  V30 9025 C 841.13 1.58143 -1.14087 0
M  V30 9026 O 840.4 1.94607 -0.224708 0
M  V30 9027 H 838.98 0.140225 -0.733721 0
M  V30 9028 H 841.642 -0.351157 -1.9171 0
M  V30 9029 H 840.738 0.677554 -3.04657 0
M  V30 9030 N 841.039 1.57585 0.0217189 0
M  V30 9031 C 841.971 2.03849 1.04777 0
M  V30 9032 C 842.984 0.952558 1.32023 0
M  V30 9033 O 844.173 1.22974 1.29381 0
M  V30 9034 C 841.273 2.40504 2.3877 0
M  V30 9035 C 840.446 3.71566 2.30775 0
M  V30 9036 C 839.505 3.95329 3.47277 0
M  V30 9037 O 838.531 4.66289 3.26441 0
M  V30 9038 N 839.733 3.41536 4.69397 0
M  V30 9039 H 842.498 2.92491 0.653395 0
M  V30 9040 H 840.059 1.60538 0.209527 0
M  V30 9041 H 842.051 2.53532 3.15442 0
M  V30 9042 H 840.621 1.57494 2.70027 0
M  V30 9043 H 839.841 3.68822 1.39155 0
M  V30 9044 H 841.129 4.5753 2.22584 0
M  V30 9045 H 840.527 2.84033 4.89226 0
M  V30 9046 H 839.084 3.59932 5.43408 0
M  V30 9047 N 842.517 -0.29412 1.54831 0
M  V30 9048 C 843.464 -1.36296 1.86258 0
M  V30 9049 C 844.434 -1.50061 0.712097 0
M  V30 9050 O 845.619 -1.64809 0.961381 0
M  V30 9051 C 842.759 -2.72187 2.12151 0
M  V30 9052 C 841.872 -2.66816 3.39755 0
M  V30 9053 C 841.007 -3.94747 3.55455 0
M  V30 9054 C 840.046 -3.838 4.76827 0
M  V30 9055 N 839.183 -5.03521 4.89296 0
M  V30 9056 H 844.023 -1.08796 2.7743 0
M  V30 9057 H 841.56 -0.526069 1.37371 0
M  V30 9058 H 843.518 -3.51225 2.25159 0
M  V30 9059 H 842.148 -2.97934 1.24237 0
M  V30 9060 H 841.2 -1.79605 3.3533 0
M  V30 9061 H 842.512 -2.5462 4.28917 0
M  V30 9062 H 841.666 -4.82223 3.68166 0
M  V30 9063 H 840.405 -4.09785 2.64438 0
M  V30 9064 H 839.41 -2.94708 4.64141 0
M  V30 9065 H 840.635 -3.70301 5.69258 0
M  V30 9066 H 838.581 -5.1901 4.01204 0
M  V30 9067 H 838.498 -4.93775 5.72471 0
M  V30 9068 H 839.766 -5.92629 5.06371 0
M  V30 9069 N 843.995 -1.47404 -0.557645 0
M  V30 9070 C 845.406 -1.47872 -1.13977 0
M  V30 9071 C 845.757 -0.233176 -1.94809 0
M  V30 9072 O 844.882 0.661945 -2.06027 0
M  V30 9073 C 845.477 -2.67926 -2.07368 0
M  V30 9074 C 844.036 -2.71354 -2.60852 0
M  V30 9075 C 843.183 -2.40967 -1.37223 0
M  V30 9076 H 846.134 -1.54921 -0.344268 0
M  V30 9077 H 846.155 -2.44871 -2.91236 0
M  V30 9078 H 845.667 -3.58562 -1.48509 0
M  V30 9079 H 843.768 -1.84855 -3.23511 0
M  V30 9080 H 843.881 -3.72032 -3.01876 0
M  V30 9081 H 842.245 -1.91541 -1.67882 0
M  V30 9082 H 843.028 -3.33811 -0.801583 0
M  V30 9083 N 845.473 0.80434 -1.35529 0
M  V30 9084 C 846.703 1.59052 -1.31856 0
M  V30 9085 C 847.111 1.88905 0.105549 0
M  V30 9086 O 846.454 1.49422 1.06858 0
M  V30 9087 C 846.516 2.94626 -2.06 0
M  V30 9088 C 846.18 2.87576 -3.55175 0
M  V30 9089 C 847.177 2.60856 -4.49722 0
M  V30 9090 C 844.862 3.06623 -3.97854 0
M  V30 9091 C 846.856 2.53262 -5.84925 0
M  V30 9092 C 844.543 2.98652 -5.33151 0
M  V30 9093 C 845.541 2.72007 -6.26499 0
M  V30 9094 O 845.229 2.64003 -7.59314 0
M  V30 9095 H 844.961 0.500486 -0.454411 0
M  V30 9096 H 847.515 1.0074 -1.78999 0
M  V30 9097 H 845.745 3.5493 -1.53498 0
M  V30 9098 H 847.434 3.55785 -1.95376 0
M  V30 9099 H 848.2 2.45858 -4.18066 0
M  V30 9100 H 844.079 3.26372 -3.2558 0
M  V30 9101 H 847.623 2.32386 -6.57756 0
M  V30 9102 H 843.52 3.13208 -5.64421 0
M  V30 9103 H 844.288 2.79595 -7.69265 0
M  V30 9104 N 846.951 1.19563 1.02676 0
M  V30 9105 C 848.367 0.948304 1.28372 0
M  V30 9106 C 848.567 -0.378096 1.97921 0
M  V30 9107 O 847.623 -1.1091 2.26838 0
M  V30 9108 C 848.936 2.12381 2.12873 0
M  V30 9109 C 850.484 2.16366 2.26174 0
M  V30 9110 C 850.959 3.33374 3.14048 0
M  V30 9111 N 852.45 3.33323 3.21636 0
M  V30 9112 C 853.185 4.20504 3.89825 0
M  V30 9113 N 852.681 5.17845 4.60227 0
M  V30 9114 N 854.474 4.08375 3.86246 0
M  V30 9115 H 846.625 2.04899 0.559485 0
M  V30 9116 H 848.888 0.89606 0.309484 0
M  V30 9117 H 848.594 3.08383 1.69094 0
M  V30 9118 H 848.468 2.09621 3.1359 0
M  V30 9119 H 850.855 1.20933 2.69182 0
M  V30 9120 H 850.936 2.23179 1.25 0
M  V30 9121 H 850.58 4.29087 2.71747 0
M  V30 9122 H 850.51 3.23798 4.15286 0
M  V30 9123 H 853.001 2.62863 2.71498 0
M  V30 9124 H 853.314 5.80712 5.09896 0
M  V30 9125 H 851.659 5.21791 4.59085 0
M  V30 9126 H 854.85 3.31606 3.30386 0
M  V30 9127 H 855.023 4.76532 4.39114 0
M  V30 9128 N 848.429 -1.21819 0.999893 0
M  V30 9129 C 849.677 -1.90375 0.678351 0
M  V30 9130 C 849.998 -1.78155 -0.792824 0
M  V30 9131 O 849.268 -1.17319 -1.56885 0
M  V30 9132 H 847.848 -0.704661 0.247915 0
M  V30 9133 H 850.51 -1.48021 1.2679 0
M  V30 9134 H 849.606 -2.97385 0.947023 0
M  V30 9135 N 849.908 -0.773975 -1.37286 0
M  V30 9136 C 850.841 -0.108019 -2.27944 0
M  V30 9137 C 851.819 0.706737 -1.46438 0
M  V30 9138 O 853.003 0.681025 -1.75768 0
M  V30 9139 C 850.13 0.853199 -3.27778 0
M  V30 9140 C 849.176 0.122164 -4.26325 0
M  V30 9141 S 850.009 -1.19136 -5.22079 0
M  V30 9142 C 851.165 -0.233737 -6.25463 0
M  V30 9143 H 851.398 -0.876743 -2.84078 0
M  V30 9144 H 848.931 -0.567468 -1.43594 0
M  V30 9145 H 850.889 1.40238 -3.85803 0
M  V30 9146 H 849.55 1.59505 -2.70586 0
M  V30 9147 H 848.743 0.850926 -4.96765 0
M  V30 9148 H 848.345 -0.356079 -3.72301 0
M  V30 9149 H 850.637 0.59305 -6.74899 0
M  V30 9150 H 851.58 -0.906373 -7.02275 0
M  V30 9151 H 851.988 0.156048 -5.64284 0
M  V30 9152 N 851.386 1.48609 -0.524698 0
M  V30 9153 C 852.333 2.29539 0.240956 0
M  V30 9154 C 853.303 1.37033 0.938681 0
M  V30 9155 O 854.488 1.65996 0.940737 0
M  V30 9156 C 851.628 3.20278 1.28514 0
M  V30 9157 C 850.741 4.27858 0.596798 0
M  V30 9158 C 849.876 5.05784 1.62346 0
M  V30 9159 C 848.915 6.05173 0.918287 0
M  V30 9160 N 848.052 6.76176 1.89025 0
M  V30 9161 H 852.892 2.945 -0.455368 0
M  V30 9162 H 850.429 1.45188 -0.236403 0
M  V30 9163 H 852.387 3.71281 1.90279 0
M  V30 9164 H 851.017 2.57251 1.94992 0
M  V30 9165 H 850.069 3.80162 -0.134668 0
M  V30 9166 H 851.381 4.98782 0.0428506 0
M  V30 9167 H 850.535 5.60775 2.31553 0
M  V30 9168 H 849.274 4.34687 2.2113 0
M  V30 9169 H 848.279 5.49391 0.21212 0
M  V30 9170 H 849.504 6.78265 0.336633 0
M  V30 9171 H 847.45 6.07834 2.46726 0
M  V30 9172 H 847.367 7.43157 1.3876 0
M  V30 9173 H 848.635 7.35759 2.57446 0
M  V30 9174 N 852.864 0.259585 1.55447 0
M  V30 9175 C 854.112 -0.360893 1.98852 0
M  V30 9176 C 854.433 -1.57535 1.14924 0
M  V30 9177 O 853.703 -1.94485 0.235025 0
M  V30 9178 H 852.283 -0.136332 0.734454 0
M  V30 9179 H 854.945 0.361319 1.91522 0
M  V30 9180 H 854.041 -0.661388 3.05012 0
M  V30 9181 N 854.342 -1.57594 -0.0133615 0
M  V30 9182 C 855.567 -1.94649 -0.715996 0
M  V30 9183 C 855.992 -0.860786 -1.67249 0
M  V30 9184 O 855.35 0.182228 -1.80382 0
M  V30 9185 C 855.398 -3.30789 -1.43566 0
M  V30 9186 O 854.502 -3.24148 -2.54955 0
M  V30 9187 H 853.843 -0.635801 -0.191449 0
M  V30 9188 H 856.373 -2.04569 0.0358478 0
M  V30 9189 H 856.383 -3.66045 -1.80208 0
M  V30 9190 H 855.058 -4.09367 -0.734263 0
M  V30 9191 H 853.635 -3.00548 -2.20739 0
M  V30 9192 N 855.82 0.285905 -1.54985 0
M  V30 9193 C 856.73 1.37534 -1.90057 0
M  V30 9194 C 857.746 1.54707 -0.796348 0
M  V30 9195 O 858.922 1.69082 -1.09423 0
M  V30 9196 C 855.987 2.7167 -2.15398 0
M  V30 9197 C 855.048 2.63354 -3.39033 0
M  V30 9198 C 854.281 3.91093 -3.63155 0
M  V30 9199 O 854.504 4.91169 -2.90015 0
M  V30 9200 O 853.438 3.92075 -4.56685 0
M  V30 9201 H 857.264 1.10791 -2.8277 0
M  V30 9202 H 854.849 0.483303 -1.41367 0
M  V30 9203 H 856.731 3.51006 -2.33179 0
M  V30 9204 H 855.406 2.98226 -1.25868 0
M  V30 9205 H 854.313 1.82438 -3.26599 0
M  V30 9206 H 855.646 2.41749 -4.2874 0
M  V30 9207 N 857.298 1.47698 0.54982 0
M  V30 9208 C 858.544 1.54931 1.30859 0
M  V30 9209 C 858.877 0.214021 1.93017 0
M  V30 9210 O 858.152 -0.778093 1.78258 0
M  V30 9211 C 858.435 2.67286 2.41309 0
M  V30 9212 C 858.288 4.10457 1.83971 0
M  V30 9213 C 859.607 2.75509 3.43195 0
M  V30 9214 H 856.726 0.56399 0.474431 0
M  V30 9215 H 859.368 1.79787 0.614541 0
M  V30 9216 H 857.518 2.46224 3.0051 0
M  V30 9217 H 859.19 4.42903 1.28974 0
M  V30 9218 H 857.433 4.18387 1.14606 0
M  V30 9219 H 858.104 4.84857 2.63851 0
M  V30 9220 H 860.58 2.94531 2.93923 0
M  V30 9221 H 859.456 3.55886 4.17895 0
M  V30 9222 H 859.717 1.82863 4.02509 0
M  V30 9223 N 858.776 -0.797141 1.35954 0
M  V30 9224 C 860.004 -1.5858 1.32891 0
M  V30 9225 C 860.419 -1.88578 -0.0915564 0
M  V30 9226 O 859.776 -1.49532 -1.04625 0
M  V30 9227 C 859.827 -2.91143 2.14284 0
M  V30 9228 O 859.548 -2.62442 3.50793 0
M  V30 9229 C 861.049 -3.85476 2.18914 0
M  V30 9230 H 858.269 -0.492111 0.456144 0
M  V30 9231 H 860.813 -0.98994 1.78943 0
M  V30 9232 H 858.968 -3.47219 1.71807 0
M  V30 9233 H 859.382 -3.4715 3.93175 0
M  V30 9234 H 860.856 -4.75574 2.80238 0
M  V30 9235 H 861.333 -4.22758 1.19047 0
M  V30 9236 H 861.939 -3.35334 2.61593 0
M  V30 9237 N 860.254 -1.20106 -1.0204 0
M  V30 9238 C 861.217 -0.948261 -2.08664 0
M  V30 9239 C 862.217 0.0746753 -1.60627 0
M  V30 9240 O 863.407 -0.160981 -1.73455 0
M  V30 9241 C 860.539 -0.426854 -3.38217 0
M  V30 9242 H 861.732 -1.894 -2.32524 0
M  V30 9243 H 859.285 -1.0159 -1.18782 0
M  V30 9244 H 860.02 0.524532 -3.2003 0
M  V30 9245 H 859.805 -1.16451 -3.74408 0
M  V30 9246 H 861.295 -0.269346 -4.1673 0
M  V30 9247 N 861.732 1.21287 -1.00634 0
M  V30 9248 C 862.665 2.22366 -0.512687 0
M  V30 9249 C 863.643 1.56692 0.434332 0
M  V30 9250 O 864.827 1.85094 0.35674 0
M  V30 9251 C 861.954 3.37738 0.255139 0
M  V30 9252 C 861 4.21673 -0.639883 0
M  V30 9253 S 861.833 4.92474 -2.10308 0
M  V30 9254 C 862.989 6.11275 -1.34512 0
M  V30 9255 H 863.222 2.63896 -1.36918 0
M  V30 9256 H 860.755 1.31176 -0.814387 0
M  V30 9257 H 862.713 4.04624 0.692067 0
M  V30 9258 H 861.374 2.94689 1.08707 0
M  V30 9259 H 860.567 5.03977 -0.0483821 0
M  V30 9260 H 860.169 3.59988 -1.01414 0
M  V30 9261 H 862.461 6.7466 -0.619721 0
M  V30 9262 H 863.404 6.74864 -2.14393 0
M  V30 9263 H 863.812 5.58026 -0.852506 0
M  V30 9264 N 863.21 0.781244 1.36873 0
M  V30 9265 C 864.14 0.188128 2.32741 0
M  V30 9266 C 865.121 -0.672326 1.56249 0
M  V30 9267 O 866.306 -0.607835 1.84442 0
M  V30 9268 C 863.436 -0.684341 3.40491 0
M  V30 9269 C 862.39 0.0755641 4.27933 0
M  V30 9270 C 861.716 -0.916968 5.26779 0
M  V30 9271 C 863.016 1.26006 5.06873 0
M  V30 9272 H 864.71 0.989016 2.82593 0
M  V30 9273 H 862.256 0.477038 1.35869 0
M  V30 9274 H 864.209 -1.10915 4.06541 0
M  V30 9275 H 862.933 -1.51785 2.89187 0
M  V30 9276 H 861.592 0.481258 3.63427 0
M  V30 9277 H 861.24 -1.74528 4.71751 0
M  V30 9278 H 860.94 -0.413 5.86147 0
M  V30 9279 H 862.464 -1.34052 5.95703 0
M  V30 9280 H 863.878 0.911425 5.66009 0
M  V30 9281 H 862.275 1.69676 5.75613 0
M  V30 9282 H 863.345 2.05948 4.38991 0
M  V30 9283 N 864.689 -1.48329 0.532571 0
M  V30 9284 C 865.599 -2.33445 -0.232546 0
M  V30 9285 C 866.615 -1.46651 -0.93645 0
M  V30 9286 O 867.791 -1.79627 -0.910834 0
M  V30 9287 C 864.856 -3.22824 -1.26434 0
M  V30 9288 C 863.917 -4.25492 -0.570511 0
M  V30 9289 C 863.15 -5.10601 -1.55315 0
M  V30 9290 O 863.373 -4.97733 -2.78599 0
M  V30 9291 O 862.307 -5.91927 -1.09112 0
M  V30 9292 H 866.133 -3.00119 0.464988 0
M  V30 9293 H 863.718 -1.46489 0.293462 0
M  V30 9294 H 865.6 -3.78103 -1.86055 0
M  V30 9295 H 864.275 -2.58807 -1.94424 0
M  V30 9296 H 863.182 -3.74041 0.0662587 0
M  V30 9297 H 864.515 -4.92154 0.0674904 0
M  V30 9298 N 866.167 -0.267825 -1.55308 0
M  V30 9299 C 867.114 0.6228 -2.22238 0
M  V30 9300 C 868.084 1.15536 -1.19334 0
M  V30 9301 O 869.269 1.206 -1.47852 0
M  V30 9302 C 866.409 1.80447 -2.94164 0
M  V30 9303 C 865.522 1.30646 -4.11771 0
M  V30 9304 C 864.657 2.44935 -4.7136 0
M  V30 9305 C 863.696 1.92099 -5.81175 0
M  V30 9306 N 862.833 2.99834 -6.34857 0
M  V30 9307 H 867.673 0.0453874 -2.97965 0
M  V30 9308 H 865.21 0.0106371 -1.47096 0
M  V30 9309 H 867.168 2.49896 -3.34078 0
M  V30 9310 H 865.798 2.35403 -2.20874 0
M  V30 9311 H 864.85 0.505314 -3.77029 0
M  V30 9312 H 866.162 0.879409 -4.90987 0
M  V30 9313 H 865.316 3.2239 -5.13955 0
M  V30 9314 H 864.055 2.90951 -3.91406 0
M  V30 9315 H 863.06 1.13122 -5.38037 0
M  V30 9316 H 864.285 1.47027 -6.62993 0
M  V30 9317 H 862.231 3.45246 -5.578 0
M  V30 9318 H 862.148 2.61524 -7.09324 0
M  V30 9319 H 863.416 3.77286 -6.82111 0
M  V30 9320 N 867.645 1.57599 0.00500368 0
M  V30 9321 C 868.893 1.89973 0.68953 0
M  V30 9322 C 869.214 0.868531 1.7459 0
M  V30 9323 O 868.484 -0.0947367 1.95671 0
M  V30 9324 H 867.064 0.701153 0.25767 0
M  V30 9325 H 869.726 1.94869 -0.0347392 0
M  V30 9326 H 868.822 2.89584 1.16394 0
M  V30 9327 N 869.123 -0.277682 1.55134 0
M  V30 9328 C 870.033 -1.36524 1.90783 0
M  V30 9329 C 871.049 -1.54283 0.804542 0
M  V30 9330 O 872.225 -1.68499 1.10318 0
M  V30 9331 C 869.29 -2.70524 2.16835 0
M  V30 9332 C 868.351 -2.61552 3.40424 0
M  V30 9333 C 867.584 -3.89162 3.65224 0
M  V30 9334 O 867.807 -4.89624 2.92616 0
M  V30 9335 O 866.741 -3.89647 4.58758 0
M  V30 9336 H 870.567 -1.0929 2.83354 0
M  V30 9337 H 868.152 -0.475799 1.41621 0
M  V30 9338 H 870.034 -3.49765 2.35038 0
M  V30 9339 H 868.709 -2.97555 1.27448 0
M  V30 9340 H 867.616 -1.80704 3.27562 0
M  V30 9341 H 868.949 -2.39472 4.30016 0
M  V30 9342 N 870.601 -1.47988 -0.541979 0
M  V30 9343 C 872.017 -1.33843 -0.869383 0
M  V30 9344 C 872.217 -0.340374 -1.98604 0
M  V30 9345 O 871.273 0.242696 -2.51331 0
M  V30 9346 C 872.586 -2.73568 -1.24823 0
M  V30 9347 C 874.134 -2.81967 -1.3588 0
M  V30 9348 C 874.609 -4.22368 -1.77114 0
M  V30 9349 N 876.1 -4.24983 -1.84237 0
M  V30 9350 C 876.835 -5.30547 -2.17503 0
M  V30 9351 N 876.331 -6.46401 -2.49275 0
M  V30 9352 N 878.124 -5.17933 -2.18406 0
M  V30 9353 H 870.275 -2.11503 0.195001 0
M  V30 9354 H 872.538 -0.947681 0.0245862 0
M  V30 9355 H 872.244 -3.48107 -0.501435 0
M  V30 9356 H 872.118 -3.06322 -2.20106 0
M  V30 9357 H 874.505 -2.07692 -2.09638 0
M  V30 9358 H 874.586 -2.52848 -0.387478 0
M  V30 9359 H 874.23 -4.97155 -1.0392 0
M  V30 9360 H 874.16 -4.48922 -2.75275 0
M  V30 9361 H 876.651 -3.41411 -1.62009 0
M  V30 9362 H 876.964 -7.22698 -2.73729 0
M  V30 9363 H 875.309 -6.49696 -2.46821 0
M  V30 9364 H 878.5 -4.26445 -1.93034 0
M  V30 9365 H 878.673 -6.00307 -2.44 0
M  V30 9366 N 872.079 0.78992 -1.36375 0
M  V30 9367 C 873.012 1.90907 -1.25019 0
M  V30 9368 C 873.99 1.62043 -0.134463 0
M  V30 9369 O 875.174 1.86008 -0.305506 0
M  V30 9370 C 872.301 3.25716 -0.928822 0
M  V30 9371 C 871.347 3.73511 -2.05892 0
M  V30 9372 S 872.18 3.89332 -3.6767 0
M  V30 9373 C 873.336 5.27017 -3.37645 0
M  V30 9374 H 873.569 2.00247 -2.19746 0
M  V30 9375 H 871.102 0.949097 -1.21785 0
M  V30 9376 H 873.06 4.03586 -0.750219 0
M  V30 9377 H 871.721 3.141 0.000658424 0
M  V30 9378 H 870.914 4.71195 -1.78862 0
M  V30 9379 H 870.516 3.02688 -2.19672 0
M  V30 9380 H 872.808 6.1158 -2.91507 0
M  V30 9381 H 873.751 5.5905 -4.3459 0
M  V30 9382 H 874.159 4.94093 -2.73006 0
M  V30 9383 N 873.557 1.20646 1.01402 0
M  V30 9384 C 874.805 1.01618 1.74695 0
M  V30 9385 C 875.126 -0.452438 1.89679 0
M  V30 9386 O 874.396 -1.32693 1.44116 0
M  V30 9387 H 872.976 0.373013 0.647202 0
M  V30 9388 H 875.638 1.518 1.22241 0
M  V30 9389 H 874.734 1.47666 2.74957 0
M  V30 9390 N 875.035 -1.20752 1.01276 0
M  V30 9391 C 876.275 -1.91733 0.708372 0
M  V30 9392 C 876.639 -1.76836 -0.747855 0
M  V30 9393 O 877.84 -2.42262 -1.16458 0
M  V30 9394 C 876.111 -3.39155 1.12732 0
M  V30 9395 S 877.67 -4.28518 0.944325 0
M  V30 9396 H 874.488 -0.662394 0.25837 0
M  V30 9397 H 877.09 -1.46085 1.29921 0
M  V30 9398 H 875.794 -3.47516 2.18313 0
M  V30 9399 H 875.325 -3.89826 0.5291 0
M  V30 9400 H 877.34 -4.9596 -0.154278 0
M  V30 9401 N 876.513 -0.788492 -1.36457 0
M  V30 9402 C 877.924 -0.423742 -1.81828 0
M  V30 9403 C 878.275 1.05221 -1.65599 0
M  V30 9404 O 877.4 1.8163 -1.17641 0
M  V30 9405 C 877.995 -0.762354 -3.30112 0
M  V30 9406 C 876.554 -0.450445 -3.73695 0
M  V30 9407 C 875.701 -0.997482 -2.58738 0
M  V30 9408 H 878.652 -0.981718 -1.24692 0
M  V30 9409 H 878.673 -0.0531136 -3.80463 0
M  V30 9410 H 878.185 -1.83662 -3.41891 0
M  V30 9411 H 876.286 0.615829 -3.67476 0
M  V30 9412 H 876.399 -0.970408 -4.69169 0
M  V30 9413 H 874.763 -0.420761 -2.51201 0
M  V30 9414 H 875.546 -2.07749 -2.73304 0
M  V30 9415 N 877.991 1.48044 -0.54043 0
M  V30 9416 C 878.954 2.28273 0.205966 0
M  V30 9417 C 879.954 1.35983 0.858209 0
M  V30 9418 O 881.144 1.58776 0.716651 0
M  V30 9419 C 878.276 3.15174 1.29917 0
M  V30 9420 H 879.469 2.95727 -0.498555 0
M  V30 9421 H 877.022 1.53457 -0.296745 0
M  V30 9422 H 877.757 2.52374 2.03661 0
M  V30 9423 H 877.542 3.83074 0.836475 0
M  V30 9424 H 879.032 3.75666 1.82387 0
M  V30 9425 N 879.47 0.276058 1.55163 0
M  V30 9426 C 880.718 -0.339782 1.99223 0
M  V30 9427 C 881.039 -1.56307 1.16589 0
M  V30 9428 O 880.309 -1.94225 0.25564 0
M  V30 9429 H 878.889 -0.128534 0.735859 0
M  V30 9430 H 881.551 0.381612 1.91128 0
M  V30 9431 H 880.647 -0.629 3.05696 0
M  V30 9432 N 880.948 -1.576 0.00335426 0
M  V30 9433 C 882.188 -1.92571 -0.685253 0
M  V30 9434 C 882.552 -0.877961 -1.70751 0
M  V30 9435 O 883.753 -1.11303 -2.44673 0
M  V30 9436 C 882.024 -3.3258 -1.30863 0
M  V30 9437 S 883.583 -3.89442 -2.02189 0
M  V30 9438 H 880.401 -0.674035 -0.226268 0
M  V30 9439 H 883.003 -1.95405 0.0608461 0
M  V30 9440 H 881.707 -4.06673 -0.551837 0
M  V30 9441 H 881.238 -3.33128 -2.09259 0
M  V30 9442 H 883.253 -3.70789 -3.29742 0
M  V30 9443 N 882.426 0.269451 -1.5528 0
M  V30 9444 C 883.837 0.840233 -1.66724 0
M  V30 9445 C 884.188 1.86909 -0.596621 0
M  V30 9446 O 883.313 2.14817 0.261246 0
M  V30 9447 C 883.908 1.5308 -3.02245 0
M  V30 9448 C 882.467 2.04957 -3.15705 0
M  V30 9449 C 881.614 0.892838 -2.62533 0
M  V30 9450 H 884.565 0.0457236 -1.58634 0
M  V30 9451 H 884.586 2.39792 -2.95432 0
M  V30 9452 H 884.098 0.781741 -3.80145 0
M  V30 9453 H 882.199 2.82813 -2.42585 0
M  V30 9454 H 882.312 2.26244 -4.22316 0
M  V30 9455 H 880.676 1.28719 -2.19781 0
M  V30 9456 H 881.459 0.157229 -3.4294 0
M  V30 9457 N 883.904 1.48273 0.534124 0
M  V30 9458 C 885.32 1.34302 0.862272 0
M  V30 9459 C 885.52 0.350902 1.98421 0
M  V30 9460 O 884.576 -0.229364 2.51456 0
M  V30 9461 C 885.889 2.74227 1.23371 0
M  V30 9462 C 887.437 2.82684 1.34383 0
M  V30 9463 C 887.912 4.23301 1.74871 0
M  V30 9464 N 889.403 4.25954 1.81981 0
M  V30 9465 C 890.138 5.31693 2.14686 0
M  V30 9466 N 889.634 6.47714 2.45844 0
M  V30 9467 N 891.427 5.19084 2.15657 0
M  V30 9468 H 883.578 2.11397 -0.206215 0
M  V30 9469 H 885.841 0.947537 -0.0296116 0
M  V30 9470 H 885.547 3.48368 0.482967 0
M  V30 9471 H 885.421 3.07485 2.18478 0
M  V30 9472 H 887.808 2.08801 2.08534 0
M  V30 9473 H 887.889 2.5305 0.374063 0
M  V30 9474 H 887.533 4.97699 1.01282 0
M  V30 9475 H 887.463 4.50376 2.7289 0
M  V30 9476 H 889.954 3.42266 1.60196 0
M  V30 9477 H 890.267 7.2414 2.69892 0
M  V30 9478 H 888.612 6.50995 2.43372 0
M  V30 9479 H 891.803 4.27463 1.9077 0
M  V30 9480 H 891.976 6.01592 2.40813 0
M  V30 9481 N 885.382 -0.782676 1.36792 0
M  V30 9482 C 886.292 -1.92679 1.33835 0
M  V30 9483 C 887.308 -1.72344 0.23952 0
M  V30 9484 O 888.484 -1.95766 0.473045 0
M  V30 9485 C 885.549 -3.27644 1.1336 0
M  V30 9486 C 884.61 -3.6071 2.32781 0
M  V30 9487 C 883.843 -4.89234 2.13273 0
M  V30 9488 O 884.066 -5.59468 1.11136 0
M  V30 9489 O 883 -5.21112 3.01208 0
M  V30 9490 H 886.826 -1.98124 2.30175 0
M  V30 9491 H 884.411 -0.923887 1.17408 0
M  V30 9492 H 886.293 -4.08394 1.03886 0
M  V30 9493 H 884.968 -3.23076 0.200868 0
M  V30 9494 H 883.875 -2.80238 2.47825 0
M  V30 9495 H 885.208 -3.70008 3.24584 0
M  V30 9496 N 886.86 -1.21182 -1.00761 0
M  V30 9497 C 887.793 -0.912033 -2.09182 0
M  V30 9498 C 888.771 0.139421 -1.62001 0
M  V30 9499 O 889.955 0.0110272 -1.88497 0
M  V30 9500 C 887.082 -0.368957 -3.36684 0
M  V30 9501 C 886.128 -1.4028 -4.0277 0
M  V30 9502 S 886.961 -2.97108 -4.45519 0
M  V30 9503 C 888.117 -2.444 -5.76211 0
M  V30 9504 H 888.35 -1.83019 -2.34289 0
M  V30 9505 H 885.883 -1.04127 -1.14004 0
M  V30 9506 H 887.841 -0.0621883 -4.10453 0
M  V30 9507 H 886.502 0.527841 -3.09633 0
M  V30 9508 H 885.695 -0.97238 -4.94531 0
M  V30 9509 H 885.297 -1.65752 -3.35265 0
M  V30 9510 H 887.589 -1.84723 -6.51831 0
M  V30 9511 H 888.532 -3.34593 -6.24062 0
M  V30 9512 H 888.94 -1.86203 -5.32906 0
M  V30 9513 N 888.338 1.20213 -1.01915 0
M  V30 9514 C 889.568 1.93341 -0.728197 0
M  V30 9515 C 889.976 1.75151 0.715454 0
M  V30 9516 O 889.319 1.06437 1.49722 0
M  V30 9517 C 889.381 3.45677 -0.9873 0
M  V30 9518 C 889.045 3.8763 -2.42057 0
M  V30 9519 C 890.042 3.93184 -3.40151 0
M  V30 9520 C 887.727 4.19547 -2.76199 0
M  V30 9521 C 889.721 4.30069 -4.70446 0
M  V30 9522 C 887.408 4.56106 -4.06707 0
M  V30 9523 C 888.406 4.6134 -5.03641 0
M  V30 9524 O 888.094 4.97059 -6.31813 0
M  V30 9525 H 887.826 0.621258 -0.266485 0
M  V30 9526 H 890.38 1.53577 -1.36393 0
M  V30 9527 H 888.61 3.85578 -0.294405 0
M  V30 9528 H 890.299 4.00035 -0.687536 0
M  V30 9529 H 891.065 3.68687 -3.15111 0
M  V30 9530 H 886.944 4.14663 -2.01434 0
M  V30 9531 H 890.488 4.34069 -5.46105 0
M  V30 9532 H 886.385 4.80059 -4.31525 0
M  V30 9533 H 887.153 5.15043 -6.36139 0
M  V30 9534 N 889.816 0.795718 1.36037 0
M  V30 9535 C 891.093 0.294743 1.93367 0
M  V30 9536 C 891.473 -1.21406 1.72696 0
M  V30 9537 O 890.821 -2.00849 1.08959 0
M  V30 9538 C 891.031 0.694254 3.42025 0
M  V30 9539 C 892.379 0.677566 4.19159 0
M  V30 9540 O 893.403 0.635119 3.50492 0
M  V30 9541 O 892.262 0.726127 5.41655 0
M  V30 9542 H 889.356 0.0745459 0.823633 0
M  V30 9543 H 891.902 0.878685 1.4518 0
M  V30 9544 H 890.674 1.73458 3.50753 0
M  V30 9545 H 890.297 0.0845338 3.9751 0
M  V30 9546 N 891.294 -1.47756 0.548274 0
M  V30 9547 C 892.224 -2.32702 -0.19284 0
M  V30 9548 C 893.205 -1.43237 -0.917457 0
M  V30 9549 O 894.39 -1.72103 -0.89967 0
M  V30 9550 C 891.52 -3.24831 -1.22891 0
M  V30 9551 C 890.474 -4.23466 -0.621312 0
M  V30 9552 C 889.8 -5.04856 -1.76137 0
M  V30 9553 C 891.1 -5.20616 0.419055 0
M  V30 9554 H 892.794 -2.94914 0.516323 0
M  V30 9555 H 890.34 -1.41818 0.24975 0
M  V30 9556 H 892.293 -3.83094 -1.75547 0
M  V30 9557 H 891.017 -2.60656 -1.9679 0
M  V30 9558 H 889.676 -3.66416 -0.116123 0
M  V30 9559 H 889.324 -4.37091 -2.48918 0
M  V30 9560 H 889.024 -5.71629 -1.36065 0
M  V30 9561 H 890.548 -5.65976 -2.29136 0
M  V30 9562 H 891.962 -5.73296 -0.0211034 0
M  V30 9563 H 890.359 -5.95543 0.738163 0
M  V30 9564 H 891.429 -4.66638 1.31822 0
M  V30 9565 N 892.772 -0.284283 -1.55015 0
M  V30 9566 C 893.705 0.640779 -2.19019 0
M  V30 9567 C 894.683 1.14541 -1.15409 0
M  V30 9568 O 895.867 1.21669 -1.43975 0
M  V30 9569 C 892.994 1.87488 -2.82074 0
M  V30 9570 C 892.04 1.50494 -3.99066 0
M  V30 9571 S 892.873 0.575218 -5.32402 0
M  V30 9572 C 894.029 1.81749 -5.98931 0
M  V30 9573 H 894.262 0.0969761 -2.97142 0
M  V30 9574 H 891.795 -0.0684929 -1.54248 0
M  V30 9575 H 893.753 2.58319 -3.19032 0
M  V30 9576 H 892.414 2.38984 -2.03828 0
M  V30 9577 H 891.607 2.42349 -4.41908 0
M  V30 9578 H 891.209 0.876741 -3.63578 0
M  V30 9579 H 893.501 2.76026 -6.18721 0
M  V30 9580 H 894.444 1.43192 -6.93471 0
M  V30 9581 H 894.852 1.98661 -5.28388 0
M  V30 9582 N 894.251 1.57596 -0.0117121 0
M  V30 9583 C 895.199 2.1029 0.994035 0
M  V30 9584 C 896.193 1.02549 1.34833 0
M  V30 9585 O 897.399 1.21003 1.3326 0
M  V30 9586 H 893.774 0.671624 0.338268 0
M  V30 9587 H 895.745 2.93761 0.524147 0
M  V30 9588 C 894.494 2.63099 2.27319 0
M  V30 9589 H 893.817 3.45642 2.00927 0
M  V30 9590 H 895.257 3.03635 2.95942 0
M  V30 9591 C 893.716 1.55044 2.99104 0
M  V30 9592 O 894.246 0.940127 3.90544 0
M  V30 9593 N 892.452 1.27506 2.61133 0
M  V30 9594 H 891.999 1.77322 1.86855 0
M  V30 9595 H 891.957 0.554292 3.09475 0
M  V30 9596 N 895.729 -0.261212 1.5542 0
M  V30 9597 C 896.659 -1.32712 1.92119 0
M  V30 9598 C 897.64 -1.50934 0.784406 0
M  V30 9599 O 898.825 -1.63781 1.04352 0
M  V30 9600 C 895.955 -2.68453 2.20341 0
M  V30 9601 C 894.909 -2.64947 3.36136 0
M  V30 9602 C 894.235 -4.04349 3.49865 0
M  V30 9603 C 895.535 -2.23182 4.72215 0
M  V30 9604 H 897.229 -1.02245 2.81401 0
M  V30 9605 H 894.775 -0.490406 1.35392 0
M  V30 9606 H 896.728 -3.43144 2.44603 0
M  V30 9607 H 895.452 -3.00527 1.27871 0
M  V30 9608 H 894.111 -1.92714 3.11861 0
M  V30 9609 H 893.759 -4.33665 2.5484 0
M  V30 9610 H 893.459 -4.02895 4.27726 0
M  V30 9611 H 894.983 -4.80761 3.76432 0
M  V30 9612 H 896.397 -2.87599 4.95943 0
M  V30 9613 H 894.794 -2.32867 5.53076 0
M  V30 9614 H 895.864 -1.18327 4.70241 0
M  V30 9615 N 897.207 -1.48554 -0.526253 0
M  V30 9616 C 898.447 -1.58362 -1.29232 0
M  V30 9617 C 898.811 -0.253353 -1.90321 0
M  V30 9618 O 900.012 -0.226439 -2.67845 0
M  V30 9619 C 898.283 -2.69294 -2.3498 0
M  V30 9620 S 899.842 -2.98891 -3.21262 0
M  V30 9621 H 896.66 -0.558859 -0.439543 0
M  V30 9622 H 899.262 -1.86094 -0.599099 0
M  V30 9623 H 897.966 -3.64504 -1.88587 0
M  V30 9624 H 897.497 -2.43475 -3.09004 0
M  V30 9625 H 899.512 -2.38475 -4.35137 0
M  V30 9626 N 898.685 0.775411 -1.37205 0
M  V30 9627 C 899.931 1.53533 -1.33414 0
M  V30 9628 C 900.286 1.92225 0.0819435 0
M  V30 9629 O 899.579 1.60935 1.03974 0
M  V30 9630 C 899.773 2.81377 -2.20367 0
M  V30 9631 C 899.602 2.5518 -3.70288 0
M  V30 9632 C 898.372 2.49493 -4.3941 0
M  V30 9633 C 900.57 2.23425 -4.63234 0
M  V30 9634 N 898.552 2.15341 -5.74892 0
M  V30 9635 C 899.923 1.99381 -5.87067 0
M  V30 9636 C 901.978 2.09549 -4.51657 0
M  V30 9637 C 900.681 1.62863 -7.0062 0
M  V30 9638 C 902.707 1.74431 -5.65091 0
M  V30 9639 C 902.069 1.51245 -6.87971 0
M  V30 9640 H 898.168 0.562278 -0.543477 0
M  V30 9641 H 900.752 0.90495 -1.72391 0
M  V30 9642 H 898.923 3.42259 -1.83612 0
M  V30 9643 H 900.655 3.4724 -2.07861 0
M  V30 9644 H 897.41 2.65221 -3.9237 0
M  V30 9645 H 897.834 2.00972 -6.46482 0
M  V30 9646 H 902.476 2.26159 -3.57228 0
M  V30 9647 H 900.194 1.44991 -7.94986 0
M  V30 9648 H 903.78 1.64359 -5.58102 0
M  V30 9649 H 902.66 1.24472 -7.74259 0
M  V30 9650 N 900.163 1.21714 1.00117 0
M  V30 9651 C 901.391 1.06278 1.77518 0
M  V30 9652 C 901.806 -0.387193 1.84787 0
M  V30 9653 O 901.163 -1.26854 1.31203 0
M  V30 9654 C 901.214 1.65795 3.21239 0
M  V30 9655 O 900.935 3.05119 3.14378 0
M  V30 9656 C 902.436 1.55521 4.15124 0
M  V30 9657 H 899.656 0.373013 0.557765 0
M  V30 9658 H 902.2 1.61133 1.25922 0
M  V30 9659 H 900.355 1.15022 3.69931 0
M  V30 9660 H 900.769 3.33643 4.04701 0
M  V30 9661 H 902.243 2.01902 5.13751 0
M  V30 9662 H 902.72 0.510307 4.36225 0
M  V30 9663 H 903.326 2.0556 3.72324 0
M  V30 9664 N 901.641 -1.19671 1.02551 0
M  V30 9665 C 902.871 -1.92952 0.738441 0
M  V30 9666 C 903.279 -1.75528 -0.706155 0
M  V30 9667 O 902.622 -1.0723 -1.49156 0
M  V30 9668 C 902.684 -3.45149 1.00562 0
M  V30 9669 C 902.348 -3.86341 2.44109 0
M  V30 9670 C 903.345 -3.91374 3.42231 0
M  V30 9671 C 901.03 -4.18076 2.7842 0
M  V30 9672 C 903.024 -4.27568 4.7272 0
M  V30 9673 C 900.711 -4.53943 4.0912 0
M  V30 9674 C 901.709 -4.58663 5.06081 0
M  V30 9675 O 901.397 -4.93701 6.3444 0
M  V30 9676 H 901.129 -0.619836 0.269776 0
M  V30 9677 H 903.683 -1.52852 1.37206 0
M  V30 9678 H 901.913 -3.85416 0.314849 0
M  V30 9679 H 903.602 -3.99664 0.708742 0
M  V30 9680 H 904.368 -3.67011 3.17061 0
M  V30 9681 H 900.247 -4.13589 2.03631 0
M  V30 9682 H 903.791 -4.31166 5.48399 0
M  V30 9683 H 899.688 -4.77764 4.34064 0
M  V30 9684 H 900.456 -5.11662 6.38862 0
M  V30 9685 N 903.119 -0.802921 -1.35613 0
M  V30 9686 C 904.396 -0.304993 -1.93208 0
M  V30 9687 C 904.776 1.20488 -1.73337 0
M  V30 9688 O 904.124 2.00268 -1.10022 0
M  V30 9689 C 904.334 -0.712383 -3.41652 0
M  V30 9690 C 905.682 -0.699785 -4.18794 0
M  V30 9691 O 906.706 -0.653698 -3.5015 0
M  V30 9692 O 905.565 -0.754842 -5.41262 0
M  V30 9693 H 902.659 -0.0789127 -0.823226 0
M  V30 9694 H 905.205 -0.886372 -1.44712 0
M  V30 9695 H 903.977 -1.75316 -3.49829 0
M  V30 9696 H 903.6 -0.105614 -3.9746 0
M  V30 9697 N 904.597 1.47463 -0.556102 0
M  V30 9698 C 905.843 2.02775 -0.0316806 0
M  V30 9699 C 906.176 1.42967 1.3143 0
M  V30 9700 O 905.451 0.584847 1.85499 0
M  V30 9701 C 905.734 3.60046 0.0625742 0
M  V30 9702 C 905.587 4.30288 -1.31043 0
M  V30 9703 C 906.906 4.33195 0.776553 0
M  V30 9704 H 904.025 0.736886 -0.0129869 0
M  V30 9705 H 906.667 1.75904 -0.718177 0
M  V30 9706 H 904.817 3.83071 0.647231 0
M  V30 9707 H 906.489 4.18607 -1.9382 0
M  V30 9708 H 904.732 3.90685 -1.8854 0
M  V30 9709 H 905.403 5.38861 -1.1972 0
M  V30 9710 H 907.879 4.15156 0.280147 0
M  V30 9711 H 906.755 5.42869 0.81146 0
M  V30 9712 H 907.016 4.02336 1.83244 0
M  V30 9713 N 906.075 0.2925 1.54862 0
M  V30 9714 C 906.985 -0.597036 2.26876 0
M  V30 9715 C 908.001 -1.15558 1.30086 0
M  V30 9716 O 909.177 -1.18217 1.63054 0
M  V30 9717 C 906.242 -1.75664 2.98903 0
M  V30 9718 C 905.303 -1.23303 4.11212 0
M  V30 9719 C 904.536 -2.33736 4.79795 0
M  V30 9720 O 904.759 -3.53459 4.47686 0
M  V30 9721 O 903.693 -2.00908 5.67379 0
M  V30 9722 H 907.519 -0.0131242 3.03697 0
M  V30 9723 H 905.104 0.0592642 1.49282 0
M  V30 9724 H 906.986 -2.43241 3.4411 0
M  V30 9725 H 905.661 -2.32731 2.24984 0
M  V30 9726 H 904.568 -0.523222 3.70423 0
M  V30 9727 H 905.901 -0.707887 4.87083 0
M  V30 9728 N 907.553 -1.57587 0.0200696 0
M  V30 9729 C 908.501 -2.10814 -0.982868 0
M  V30 9730 C 909.495 -1.03263 -1.34287 0
M  V30 9731 O 910.701 -1.21708 -1.32617 0
M  V30 9732 H 907.076 -0.673409 -0.334701 0
M  V30 9733 H 909.047 -2.94034 -0.50856 0
M  V30 9734 C 907.796 -2.64301 -2.25921 0
M  V30 9735 H 907.119 -3.46703 -1.99091 0
M  V30 9736 H 908.559 -3.052 -2.94328 0
M  V30 9737 C 907.018 -1.56628 -2.98277 0
M  V30 9738 O 907.548 -0.960825 -3.9004 0
M  V30 9739 N 905.754 -1.28889 -2.60453 0
M  V30 9740 H 905.301 -1.7831 -1.85912 0
M  V30 9741 H 905.259 -0.570697 -3.09177 0
M  V30 9742 N 909.032 0.252966 -1.55557 0
M  V30 9743 C 910.448 0.60118 -1.47844 0
M  V30 9744 C 910.648 1.88612 -0.709055 0
M  V30 9745 O 909.704 2.51395 -0.235964 0
M  V30 9746 C 911.017 0.709539 -2.92209 0
M  V30 9747 C 912.565 0.802269 -3.02544 0
M  V30 9748 C 913.04 0.94224 -4.48203 0
M  V30 9749 N 914.531 1.00726 -4.52116 0
M  V30 9750 C 915.266 1.13472 -5.6206 0
M  V30 9751 N 914.762 1.22811 -6.81828 0
M  V30 9752 N 916.555 1.1674 -5.49844 0
M  V30 9753 H 908.706 -0.590635 -2.04023 0
M  V30 9754 H 910.969 -0.202986 -0.926013 0
M  V30 9755 H 910.675 -0.164505 -3.51315 0
M  V30 9756 H 910.549 1.58343 -3.42356 0
M  V30 9757 H 912.936 1.66677 -2.43522 0
M  V30 9758 H 913.017 -0.0966469 -2.55617 0
M  V30 9759 H 912.661 0.0823209 -5.07833 0
M  V30 9760 H 912.591 1.85611 -4.92805 0
M  V30 9761 H 915.082 0.946684 -3.6585 0
M  V30 9762 H 915.395 1.32426 -7.61369 0
M  V30 9763 H 913.74 1.19779 -6.84601 0
M  V30 9764 H 916.931 1.09089 -4.55211 0
M  V30 9765 H 917.104 1.26329 -6.35567 0
M  V30 9766 N 910.51 1.48831 0.518367 0
M  V30 9767 C 911.921 1.50842 1.10016 0
M  V30 9768 C 912.272 0.284744 1.94123 0
M  V30 9769 O 911.397 -0.607088 2.0771 0
M  V30 9770 C 911.992 2.73329 2.00191 0
M  V30 9771 C 910.551 2.78175 2.53566 0
M  V30 9772 C 909.698 2.4452 1.30786 0
M  V30 9773 H 912.649 1.55779 0.303073 0
M  V30 9774 H 912.67 2.52506 2.84642 0
M  V30 9775 H 912.182 3.62374 1.3895 0
M  V30 9776 H 910.283 1.93368 3.18496 0
M  V30 9777 H 910.396 3.79905 2.91906 0
M  V30 9778 H 908.76 1.95924 1.62744 0
M  V30 9779 H 909.543 3.35819 0.712797 0
M  V30 9780 N 911.988 -0.768124 1.37614 0
M  V30 9781 C 913.236 -1.52379 1.3276 0
M  V30 9782 C 913.557 -1.94809 -0.0863564 0
M  V30 9783 O 912.827 -1.66568 -1.03112 0
M  V30 9784 H 911.407 -0.565179 0.488448 0
M  V30 9785 H 914.069 -0.913974 1.72141 0
M  V30 9786 H 913.165 -2.4215 1.96901 0
M  V30 9787 N 913.466 -1.22244 -0.994698 0
M  V30 9788 C 914.713 -1.04591 -1.73398 0
M  V30 9789 C 915.041 0.419223 -1.89928 0
M  V30 9790 O 914.296 1.32714 -1.43824 0
M  V30 9791 C 914.595 -1.70014 -3.14372 0
M  V30 9792 C 914.261 -3.19903 -3.17762 0
M  V30 9793 C 912.923 -3.60803 -3.18394 0
M  V30 9794 C 915.275 -4.15851 -3.14194 0
M  V30 9795 C 912.603 -4.96135 -3.13157 0
M  V30 9796 C 914.955 -5.51157 -3.10498 0
M  V30 9797 C 913.619 -5.91439 -3.09445 0
M  V30 9798 H 912.889 -0.382725 -0.63451 0
M  V30 9799 H 915.536 -1.51981 -1.16508 0
M  V30 9800 H 913.841 -1.14945 -3.7456 0
M  V30 9801 H 915.538 -1.53848 -3.70313 0
M  V30 9802 H 912.128 -2.87336 -3.18019 0
M  V30 9803 H 916.312 -3.85272 -3.12857 0
M  V30 9804 H 911.568 -5.26578 -3.10685 0
M  V30 9805 H 915.742 -6.2523 -3.06692 0
M  V30 9806 H 913.369 -6.96271 -3.05141 0
M  V30 9807 N 914.944 1.19125 -1.03184 0
M  V30 9808 C 915.907 2.20662 -0.619766 0
M  V30 9809 C 916.907 1.57621 0.318179 0
M  V30 9810 O 918.097 1.73885 0.104783 0
M  V30 9811 C 915.229 3.40774 0.0926696 0
M  V30 9812 H 916.422 2.58633 -1.5182 0
M  V30 9813 H 913.975 1.32855 -0.823364 0
M  V30 9814 H 914.71 3.08324 1.00531 0
M  V30 9815 H 914.495 3.87766 -0.581344 0
M  V30 9816 H 915.985 4.15977 0.367792 0
M  V30 9817 N 916.422 0.810101 1.35185 0
M  V30 9818 C 917.385 0.22852 2.28058 0
M  V30 9819 C 918.385 -0.586168 1.49735 0
M  V30 9820 O 919.575 -0.40414 1.69447 0
M  V30 9821 C 916.707 -0.681041 3.34028 0
M  V30 9822 H 917.9 1.04768 2.81005 0
M  V30 9823 H 915.453 0.58101 1.451 0
M  V30 9824 H 916.188 -1.52375 2.86273 0
M  V30 9825 H 915.973 -0.0985276 3.91976 0
M  V30 9826 H 917.463 -1.08217 4.03335 0
M  V30 9827 N 917.9 -1.47166 0.563914 0
M  V30 9828 C 919.146 -2.02756 0.0424338 0
M  V30 9829 C 919.479 -1.43662 -1.3067 0
M  V30 9830 O 918.754 -0.594676 -1.85186 0
M  V30 9831 C 919.037 -3.60074 -0.0434793 0
M  V30 9832 C 918.89 -4.29587 1.33323 0
M  V30 9833 C 920.209 -4.336 -0.753568 0
M  V30 9834 H 917.328 -0.736806 0.0168946 0
M  V30 9835 H 919.97 -1.75521 0.727496 0
M  V30 9836 H 918.12 -3.83409 -0.626906 0
M  V30 9837 H 919.792 -4.17573 1.96037 0
M  V30 9838 H 918.035 -3.8968 1.9061 0
M  V30 9839 H 918.706 -5.38218 1.22576 0
M  V30 9840 H 921.182 -4.15299 -0.258126 0
M  V30 9841 H 920.058 -5.43291 -0.782659 0
M  V30 9842 H 920.319 -4.03302 -1.81108 0
M  V30 9843 N 919.378 -0.300708 -1.54705 0
M  V30 9844 C 920.288 0.584996 -2.27189 0
M  V30 9845 C 921.304 1.14866 -1.30697 0
M  V30 9846 O 922.48 1.17351 -1.63679 0
M  V30 9847 C 919.545 1.74076 -2.99831 0
M  V30 9848 C 918.606 1.2112 -4.1186 0
M  V30 9849 C 917.839 2.31188 -4.81028 0
M  V30 9850 O 918.062 3.5108 -4.49554 0
M  V30 9851 O 916.996 1.97897 -5.68437 0
M  V30 9852 H 920.822 -0.00298177 -3.037 0
M  V30 9853 H 918.407 -0.0671802 -1.49249 0
M  V30 9854 H 920.289 2.41413 -3.45395 0
M  V30 9855 H 918.964 2.31535 -2.26215 0
M  V30 9856 H 917.871 0.50357 -3.70695 0
M  V30 9857 H 919.204 0.682046 -4.87452 0
M  V30 9858 N 920.856 1.57574 -0.0284266 0
M  V30 9859 C 921.786 2.1321 0.952039 0
M  V30 9860 C 922.767 1.04806 1.33977 0
M  V30 9861 O 923.952 1.32635 1.41851 0
M  V30 9862 C 921.082 2.65862 2.23461 0
M  V30 9863 C 920.036 3.79047 1.98765 0
M  V30 9864 C 919.362 4.18124 3.33281 0
M  V30 9865 C 920.662 5.05151 1.32739 0
M  V30 9866 H 922.356 2.95385 0.488705 0
M  V30 9867 H 919.902 1.42092 0.233628 0
M  V30 9868 H 921.855 3.03417 2.92431 0
M  V30 9869 H 920.579 1.80848 2.71959 0
M  V30 9870 H 919.238 3.41929 1.32213 0
M  V30 9871 H 918.886 3.30092 3.79537 0
M  V30 9872 H 918.586 4.94396 3.17563 0
M  V30 9873 H 920.11 4.58262 4.0352 0
M  V30 9874 H 921.524 5.40297 1.91708 0
M  V30 9875 H 919.921 5.86416 1.27421 0
M  V30 9876 H 920.991 4.83969 0.300261 0
M  V30 9877 N 922.334 -0.244713 1.55689 0
M  V30 9878 C 923.75 -0.593331 1.48161 0
M  V30 9879 C 923.95 -1.88234 0.719047 0
M  V30 9880 O 923.006 -2.51266 0.249292 0
M  V30 9881 C 924.319 -0.694032 2.92581 0
M  V30 9882 C 925.867 -0.786213 3.02965 0
M  V30 9883 C 926.342 -0.918457 4.48696 0
M  V30 9884 N 927.833 -0.983272 4.52643 0
M  V30 9885 C 928.568 -1.1049 5.62654 0
M  V30 9886 N 928.064 -1.19193 6.8247 0
M  V30 9887 N 929.857 -1.13823 5.50455 0
M  V30 9888 H 922.008 0.601446 2.03707 0
M  V30 9889 H 924.271 0.207894 0.924924 0
M  V30 9890 H 923.977 0.183133 3.51223 0
M  V30 9891 H 923.851 -1.56525 3.4319 0
M  V30 9892 H 926.238 -1.65383 2.44402 0
M  V30 9893 H 926.319 0.110202 2.55563 0
M  V30 9894 H 925.963 -0.0553881 5.0787 0
M  V30 9895 H 925.893 -1.82994 4.93782 0
M  V30 9896 H 928.384 -0.927269 3.66347 0
M  V30 9897 H 928.697 -1.28387 7.62061 0
M  V30 9898 H 927.042 -1.16147 6.85226 0
M  V30 9899 H 930.233 -1.06673 4.55783 0
M  V30 9900 H 930.406 -1.22957 6.36228 0
M  V30 9901 N 923.813 -1.49104 -0.510467 0
M  V30 9902 C 924.743 -1.67981 -1.62187 0
M  V30 9903 C 925.724 -0.528529 -1.6168 0
M  V30 9904 O 926.909 -0.763305 -1.7857 0
M  V30 9905 C 924.039 -1.73755 -3.0071 0
M  V30 9906 C 922.993 -2.88579 -3.1608 0
M  V30 9907 C 922.319 -2.79457 -4.5586 0
M  V30 9908 C 923.619 -4.29638 -2.97 0
M  V30 9909 H 925.313 -2.61029 -1.46643 0
M  V30 9910 H 922.859 -1.25615 -0.704042 0
M  V30 9911 H 924.812 -1.85548 -3.78352 0
M  V30 9912 H 923.536 -0.772996 -3.17321 0
M  V30 9913 H 922.195 -2.76372 -2.40861 0
M  V30 9914 H 921.843 -1.80929 -4.69333 0
M  V30 9915 H 921.543 -3.56518 -4.67086 0
M  V30 9916 H 923.067 -2.93245 -5.35574 0
M  V30 9917 H 924.481 -4.42575 -3.64418 0
M  V30 9918 H 922.878 -5.07847 -3.19704 0
M  V30 9919 H 923.948 -4.44741 -1.93219 0
M  V30 9920 N 925.291 0.760815 -1.38019 0
M  V30 9921 C 926.707 1.06289 -1.19058 0
M  V30 9922 C 926.907 2.01471 -0.0342603 0
M  V30 9923 O 925.963 2.44713 0.62224 0
M  V30 9924 C 927.276 1.6499 -2.51394 0
M  V30 9925 C 928.824 1.77196 -2.58013 0
M  V30 9926 C 929.299 2.3931 -3.90506 0
M  V30 9927 N 930.79 2.46749 -3.92007 0
M  V30 9928 C 931.525 2.95687 -4.91281 0
M  V30 9929 N 931.021 3.44715 -6.00952 0
M  V30 9930 N 932.814 2.94661 -4.78677 0
M  V30 9931 H 924.965 0.129045 -2.12008 0
M  V30 9932 H 927.228 0.119878 -0.94039 0
M  V30 9933 H 926.934 1.0252 -3.36426 0
M  V30 9934 H 926.808 2.64146 -2.6927 0
M  V30 9935 H 929.195 2.38796 -1.7338 0
M  V30 9936 H 929.276 0.767645 -2.4401 0
M  V30 9937 H 928.92 1.78346 -4.75558 0
M  V30 9938 H 928.85 3.40369 -4.01817 0
M  V30 9939 H 931.341 2.12064 -3.12789 0
M  V30 9940 H 931.654 3.80492 -6.72641 0
M  V30 9941 H 929.999 3.42791 -6.04582 0
M  V30 9942 H 933.19 2.55665 -3.92113 0
M  V30 9943 H 933.363 3.32489 -5.56197 0
M  V30 9944 N 926.769 1.22769 0.988202 0
M  V30 9945 C 927.717 0.999271 2.10041 0
M  V30 9946 C 928.711 -0.0591767 1.69297 0
M  V30 9947 O 929.917 0.0936653 1.79756 0
M  V30 9948 H 926.292 0.30599 0.686931 0
M  V30 9949 H 928.263 1.94294 2.26478 0
M  V30 9950 C 927.012 0.59873 3.42506 0
M  V30 9951 H 926.335 1.40487 3.74304 0
M  V30 9952 H 927.775 0.478353 4.21293 0
M  V30 9953 C 926.234 -0.692216 3.29712 0
M  V30 9954 O 926.764 -1.74342 3.61895 0
M  V30 9955 N 924.97 -0.665163 2.82885 0
M  V30 9956 H 924.517 0.190604 2.56894 0
M  V30 9957 H 924.475 -1.52917 2.74706 0
M  V30 9958 N 928.247 -1.18576 1.03814 0
M  V30 9959 C 929.477 -1.92158 0.758864 0
M  V30 9960 C 929.885 -1.76267 -0.687498 0
M  V30 9961 O 929.228 -1.08806 -1.4801 0
M  V30 9962 C 929.29 -3.44063 1.04217 0
M  V30 9963 C 928.954 -3.8373 2.48193 0
M  V30 9964 C 929.951 -3.87722 3.46363 0
M  V30 9965 C 927.636 -4.151 2.82838 0
M  V30 9966 C 929.63 -4.2253 4.77229 0
M  V30 9967 C 927.317 -4.49578 4.13911 0
M  V30 9968 C 928.315 -4.53269 5.10917 0
M  V30 9969 O 928.003 -4.86945 6.39641 0
M  V30 9970 H 927.735 -0.61694 0.276335 0
M  V30 9971 H 930.289 -1.51388 1.38819 0
M  V30 9972 H 928.519 -3.85061 0.355709 0
M  V30 9973 H 930.208 -3.9889 0.751091 0
M  V30 9974 H 930.974 -3.63627 3.20936 0
M  V30 9975 H 926.853 -4.11406 2.08006 0
M  V30 9976 H 930.397 -4.25326 5.52941 0
M  V30 9977 H 926.294 -4.73133 4.39107 0
M  V30 9978 H 927.062 -5.04857 6.44253 0
M  V30 9979 N 929.725 -0.817259 -1.34754 0
M  V30 9980 C 930.955 -0.414849 -2.02392 0
M  V30 9981 C 931.363 0.982186 -1.61709 0
M  V30 9982 O 930.706 1.64607 -0.815481 0
M  V30 9983 C 930.768 -0.430981 -3.56907 0
M  V30 9984 C 930.432 -1.78037 -4.20894 0
M  V30 9985 C 931.429 -2.74034 -4.41816 0
M  V30 9986 C 929.114 -2.0673 -4.57786 0
M  V30 9987 C 931.108 -3.96901 -4.98747 0
M  V30 9988 C 928.795 -3.29858 -5.14429 0
M  V30 9989 C 929.793 -4.24761 -5.34853 0
M  V30 9990 O 929.481 -5.45714 -5.90298 0
M  V30 9991 H 929.213 -0.165392 -0.655455 0
M  V30 9992 H 931.767 -1.10524 -1.73129 0
M  V30 9993 H 929.997 0.316074 -3.85406 0
M  V30 9994 H 931.686 -0.0494067 -4.0587 0
M  V30 9995 H 932.452 -2.53161 -4.13684 0
M  V30 9996 H 928.331 -1.33666 -4.41197 0
M  V30 9997 H 931.875 -4.70987 -5.14604 0
M  V30 9998 H 927.772 -3.50597 -5.41989 0
M  V30 9999 H 928.54 -5.47157 -6.08738 0
M  V30 10000 N 931.203 1.46865 -0.571711 0
M  V30 10001 C 932.433 2.06518 -0.0583129 0
M  V30 10002 C 932.841 1.4227 1.24723 0
M  V30 10003 O 932.184 0.518293 1.76237 0
M  V30 10004 C 932.246 3.5898 0.193214 0
M  V30 10005 C 931.91 4.45355 -1.02507 0
M  V30 10006 C 932.907 4.82575 -1.93435 0
M  V30 10007 C 930.592 4.86656 -1.24382 0
M  V30 10008 C 932.586 5.59912 -3.04595 0
M  V30 10009 C 930.273 5.63754 -2.35849 0
M  V30 10010 C 931.271 6.00294 -3.25785 0
M  V30 10011 O 930.959 6.75836 -4.35318 0
M  V30 10012 H 930.691 0.674188 -0.0494584 0
M  V30 10013 H 933.245 1.89644 -0.788934 0
M  V30 10014 H 931.475 3.7412 0.978319 0
M  V30 10015 H 933.164 4.006 0.653769 0
M  V30 10016 H 933.93 4.51256 -1.77745 0
M  V30 10017 H 929.809 4.57672 -0.55292 0
M  V30 10018 H 933.353 5.88351 -3.74818 0
M  V30 10019 H 929.25 5.94487 -2.51506 0
M  V30 10020 H 930.018 6.94247 -4.33547 0
M  V30 10021 N 932.681 0.308908 1.54543 0
M  V30 10022 C 933.958 -0.351558 1.92415 0
M  V30 10023 C 934.338 -1.71061 1.23699 0
M  V30 10024 O 933.686 -2.25394 0.3755 0
M  V30 10025 C 933.896 -0.458357 3.45977 0
M  V30 10026 C 935.244 -0.725524 4.18355 0
M  V30 10027 O 936.268 -0.541859 3.52054 0
M  V30 10028 O 935.127 -1.07884 5.35745 0
M  V30 10029 H 932.221 -0.197957 0.802958 0
M  V30 10030 H 934.767 0.357548 1.65891 0
M  V30 10031 H 933.539 0.496723 3.88134 0
M  V30 10032 H 933.162 -1.21562 3.78561 0
M  V30 10033 N 934.159 -1.57557 0.0367827 0
M  V30 10034 C 935.405 -1.92399 -0.641133 0
M  V30 10035 C 935.738 -0.914191 -1.71336 0
M  V30 10036 O 935.013 0.0619616 -1.94401 0
M  V30 10037 C 935.296 -3.37689 -1.25052 0
M  V30 10038 C 935.149 -4.4941 -0.187326 0
M  V30 10039 C 936.468 -3.8309 -2.16634 0
M  V30 10040 H 933.587 -0.699666 -0.231597 0
M  V30 10041 H 936.229 -1.89759 0.0956083 0
M  V30 10042 H 934.379 -3.40069 -1.87843 0
M  V30 10043 H 936.051 -4.59161 0.443736 0
M  V30 10044 H 934.294 -4.31065 0.486313 0
M  V30 10045 H 934.965 -5.48119 -0.653459 0
M  V30 10046 H 937.441 -3.82494 -1.63821 0
M  V30 10047 H 936.317 -4.85429 -2.56222 0
M  V30 10048 H 936.578 -3.19028 -3.06062 0
M  V30 10049 N 935.637 0.236453 -1.55816 0
M  V30 10050 C 936.883 0.964439 -1.784 0
M  V30 10051 C 937.216 1.84573 -0.603868 0
M  V30 10052 O 936.491 1.90395 0.397473 0
M  V30 10053 C 936.774 1.81608 -3.10951 0
M  V30 10054 C 936.627 0.962283 -4.39386 0
M  V30 10055 C 937.946 2.79665 -3.39817 0
M  V30 10056 H 935.065 0.349192 -0.649026 0
M  V30 10057 H 937.707 0.234247 -1.8855 0
M  V30 10058 H 935.857 2.43864 -3.02428 0
M  V30 10059 H 937.529 0.35762 -4.59912 0
M  V30 10060 H 935.772 0.267062 -4.32977 0
M  V30 10061 H 936.443 1.59222 -5.28538 0
M  V30 10062 H 938.919 2.27546 -3.4837 0
M  V30 10063 H 937.795 3.36367 -4.33761 0
M  V30 10064 H 938.056 3.56657 -2.61244 0
M  V30 10065 N 937.115 1.49373 0.502552 0
M  V30 10066 C 938.063 1.66411 1.62512 0
M  V30 10067 C 939.057 0.530062 1.60893 0
M  V30 10068 O 940.263 0.709648 1.65421 0
M  V30 10069 H 936.638 0.524707 0.538689 0
M  V30 10070 H 938.609 2.60639 1.45293 0
M  V30 10071 C 937.358 1.74648 3.00655 0
M  V30 10072 H 936.681 2.61285 3.02606 0
M  V30 10073 H 938.121 1.90605 3.78742 0
M  V30 10074 C 936.58 0.490963 3.33303 0
M  V30 10075 O 937.11 -0.384039 3.9986 0
M  V30 10076 N 935.316 0.354375 2.88431 0
M  V30 10077 H 934.863 1.06742 2.34444 0
M  V30 10078 H 934.821 -0.484593 3.10643 0
M  V30 10079 O 938.632 -0.647824 1.47937 0
M  V30 10080 H 939.323 -1.30144 1.43465 0
M  V30 END ATOM
M  V30 BEGIN BOND
M  V30 END BOND
M  V30 END CTAB
M  END
$$$$
