drugbank_target|P43457 V-type sodium ATPase subunit K (DB02043; DB02686)
 OpenBabel12092119543D

  0  0  0     0  0            999 V3000
M  V30 BEGIN CTAB
M  V30 COUNTS 2310 2329 0 0 0
M  V30 BEGIN ATOM
M  V30 1 H -0.908 1.98254 -0.117106 0
M  V30 2 N 0 1.576 0 0
M  V30 3 C 0.933 2.03868 1.02534 0
M  V30 4 C 1.911 0.928543 1.3348 0
M  V30 5 O 3.095 1.19667 1.45644 0
M  V30 6 C 0.222 2.43627 2.35294 0
M  V30 7 C -0.732 3.65373 2.2001 0
M  V30 8 S 0.101 5.13292 1.52614 0
M  V30 9 C 1.257 5.56322 2.86805 0
M  V30 10 H 1.49 2.90518 0.631377 0
M  V30 11 H -0.977 1.52953 0.210867 0
M  V30 12 H 0.981 2.67203 3.11629 0
M  V30 13 H -0.358 1.57376 2.7183 0
M  V30 14 H -1.165 3.90944 3.18086 0
M  V30 15 H -1.563 3.418 1.51819 0
M  V30 16 H 0.729 5.58782 3.83104 0
M  V30 17 H 1.672 6.56266 2.65933 0
M  V30 18 H 2.08 4.83886 2.90714 0
M  V30 19 N 1.4781 -0.272755 1.55222 0
M  V30 20 C 2.4111 -1.3627 1.83046 0
M  V30 21 C 3.3891 -1.47536 0.683521 0
M  V30 22 O 4.5731 -1.64157 0.926545 0
M  V30 23 C 1.7001 -2.73908 1.99229 0
M  V30 24 C 0.7461 -2.79925 3.21783 0
M  V30 25 S 1.5791 -2.39146 4.79134 0
M  V30 26 C 2.7351 -3.78758 4.9829 0
M  V30 27 H 2.9681 -1.12464 2.75207 0
M  V30 28 H 0.5011 -0.472398 1.46996 0
M  V30 29 H 2.4591 -3.53171 2.09238 0
M  V30 30 H 1.1201 -2.94965 1.07956 0
M  V30 31 H 0.3131 -3.80946 3.29994 0
M  V30 32 H -0.0849 -2.08683 3.10367 0
M  V30 33 H 2.2071 -4.7403 4.84047 0
M  V30 34 H 3.1501 -3.75499 6.00338 0
M  V30 35 H 3.5581 -3.70072 4.26271 0
M  V30 36 N 2.9562 -1.48159 -0.537278 0
M  V30 37 C 4.2332 -1.46291 -1.29839 0
M  V30 38 C 4.6132 -0.170613 -2.10409 0
M  V30 39 O 3.9612 0.847746 -2.12192 0
M  V30 40 C 4.1712 -2.72055 -2.18603 0
M  V30 41 C 5.5192 -3.20087 -2.7898 0
M  V30 42 O 6.5432 -2.72921 -2.28894 0
M  V30 43 O 5.4022 -4.02138 -3.70064 0
M  V30 44 H 2.4962 -0.583906 -0.585647 0
M  V30 45 H 5.0422 -1.60384 -0.554534 0
M  V30 46 H 3.8142 -3.57628 -1.58801 0
M  V30 47 H 3.4372 -2.60646 -3.00249 0
M  V30 48 N 4.4343 0.785586 -1.36625 0
M  V30 49 C 5.6643 1.5722 -1.34036 0
M  V30 50 C 6.0723 1.89033 0.0795062 0
M  V30 51 O 5.4153 1.50881 1.04789 0
M  V30 52 C 5.4773 2.91759 -2.10041 0
M  V30 53 C 5.1413 2.82654 -3.59104 0
M  V30 54 C 6.1383 2.54634 -4.53274 0
M  V30 55 C 3.8233 3.01111 -4.02042 0
M  V30 56 C 5.8173 2.45177 -5.88359 0
M  V30 57 C 3.5043 2.91276 -5.37216 0
M  V30 58 C 4.5023 2.63348 -6.30188 0
M  V30 59 O 4.1903 2.53514 -7.6288 0
M  V30 60 H 3.9223 0.494177 -0.461265 0
M  V30 61 H 6.4763 0.982632 -1.8037 0
M  V30 62 H 4.7063 3.52781 -1.58375 0
M  V30 63 H 6.3953 3.53059 -2.00261 0
M  V30 64 H 7.1613 2.40073 -4.21414 0
M  V30 65 H 3.0403 3.21854 -3.30047 0
M  V30 66 H 6.5843 2.23299 -6.60896 0
M  V30 67 H 2.4813 3.054 -5.68684 0
M  V30 68 H 3.2493 2.68967 -7.73045 0
M  V30 69 N 5.9124 1.20967 1.01018 0
M  V30 70 C 6.8424 0.988272 2.11555 0
M  V30 71 C 7.8234 -0.0849778 1.69888 0
M  V30 72 O 9.0084 0.0738202 1.9406 0
M  V30 73 C 6.1384 0.546528 3.42973 0
M  V30 74 C 5.0924 1.56375 3.9841 0
M  V30 75 C 4.4184 0.97842 5.25672 0
M  V30 76 C 5.7184 2.94922 4.31066 0
M  V30 77 H 7.4124 1.91276 2.30334 0
M  V30 78 H 4.9584 0.921073 1.1069 0
M  V30 79 H 6.9114 0.378839 4.19694 0
M  V30 80 H 5.6354 -0.413598 3.23971 0
M  V30 81 H 4.2944 1.71891 3.23804 0
M  V30 82 H 3.9424 0.0101688 5.02999 0
M  V30 83 H 3.6424 1.65784 5.63728 0
M  V30 84 H 5.1664 0.821939 6.05043 0
M  V30 85 H 6.5804 2.8288 4.9865 0
M  V30 86 H 4.9774 3.5983 4.80253 0
M  V30 87 H 6.0474 3.4616 3.39561 0
M  V30 88 N 7.3905 -1.2043 1.01659 0
M  V30 89 C 8.6395 -1.89118 0.701237 0
M  V30 90 C 8.9525 -1.79705 -0.772358 0
M  V30 91 O 10.1585 -2.43528 -1.20026 0
M  V30 92 C 8.6145 -3.39168 1.20388 0
M  V30 93 C 8.2225 -3.57166 2.70438 0
M  V30 94 C 9.9665 -4.1341 0.963953 0
M  V30 95 C 7.8735 -5.01042 3.14183 0
M  V30 96 H 6.8035 -0.708267 0.2586 0
M  V30 97 H 9.4545 -1.36239 1.22927 0
M  V30 98 H 7.8365 -3.91369 0.603824 0
M  V30 99 H 9.0105 -3.15351 3.35992 0
M  V30 100 H 7.3255 -2.96294 2.92572 0
M  V30 101 H 9.9225 -5.19491 1.26621 0
M  V30 102 H 10.2655 -4.16181 -0.099578 0
M  V30 103 H 10.7985 -3.67309 1.52738 0
M  V30 104 H 7.5375 -5.03426 4.19812 0
M  V30 105 H 7.0575 -5.43668 2.53348 0
M  V30 106 H 8.7365 -5.69623 3.0682 0
M  V30 107 N 8.8686 -0.792821 -1.36206 0
M  V30 108 C 10.0966 -0.378825 -2.03402 0
M  V30 109 C 10.5116 1.00586 -1.59774 0
M  V30 110 O 9.8686 1.64574 -0.788764 0
M  V30 111 C 9.9196 -0.43683 -3.58851 0
M  V30 112 O 9.6406 -1.76691 -4.00889 0
M  V30 113 C 11.1416 -0.0138943 -4.43298 0
M  V30 114 H 8.3616 -0.155673 -0.652692 0
M  V30 115 H 10.9056 -1.07261 -1.74113 0
M  V30 116 H 9.0606 0.208575 -3.86838 0
M  V30 117 H 9.4746 -1.72011 -4.95492 0
M  V30 118 H 10.9486 -0.105615 -5.51899 0
M  V30 119 H 11.4256 1.03915 -4.2673 0
M  V30 120 H 12.0316 -0.63192 -4.20579 0
M  V30 121 N 10.3467 1.47872 -0.545128 0
M  V30 122 C 11.2787 2.27869 0.246621 0
M  V30 123 C 12.2917 1.36282 0.890561 0
M  V30 124 O 13.4807 1.61207 0.766449 0
M  V30 125 C 10.5807 3.10159 1.36582 0
M  V30 126 C 9.7537 4.29627 0.820954 0
M  V30 127 C 8.8127 4.93607 1.82314 0
M  V30 128 O 7.8387 5.52366 1.37406 0
M  V30 129 N 9.0407 4.87211 3.15603 0
M  V30 130 H 11.8057 2.96459 -0.439539 0
M  V30 131 H 9.3667 1.57367 -0.380421 0
M  V30 132 H 11.3587 3.49829 2.03474 0
M  V30 133 H 9.9287 2.43891 1.9554 0
M  V30 134 H 9.1487 3.94192 -0.0244032 0
M  V30 135 H 10.4367 5.06928 0.436063 0
M  V30 136 H 9.8347 4.40651 3.54744 0
M  V30 137 H 8.3917 5.30937 3.78087 0
M  V30 138 N 11.8248 0.280983 1.55075 0
M  V30 139 C 12.7728 -0.619864 2.24188 0
M  V30 140 C 13.7668 -1.15315 1.24092 0
M  V30 141 O 14.9728 -1.1061 1.42005 0
M  V30 142 H 11.3478 -0.218459 0.719569 0
M  V30 143 H 13.3188 -0.0141831 2.98397 0
M  V30 144 C 12.0678 -1.7899 2.98091 0
M  V30 145 H 11.3908 -1.38874 3.74905 0
M  V30 146 H 12.8308 -2.39672 3.49762 0
M  V30 147 C 11.2898 -2.68192 2.03899 0
M  V30 148 O 11.8198 -3.6872 1.594 0
M  V30 149 N 10.0258 -2.35488 1.70275 0
M  V30 150 H 9.5728 -1.53787 2.06658 0
M  V30 151 H 9.5308 -2.95442 1.07524 0
M  V30 152 N 13.3029 -1.57598 0.00835791 0
M  V30 153 C 14.5509 -1.90551 -0.6734 0
M  V30 154 C 14.8719 -0.883301 -1.73847 0
M  V30 155 O 14.1419 0.0781442 -1.95744 0
M  V30 156 H 12.7219 -0.703312 -0.251717 0
M  V30 157 H 15.3839 -1.94833 0.0512592 0
M  V30 158 H 14.4799 -2.9056 -1.13935 0
M  V30 159 N 14.781 0.264519 -1.55364 0
M  V30 160 C 16.029 0.993021 -1.76021 0
M  V30 161 C 16.35 1.86511 -0.569099 0
M  V30 162 O 15.62 1.91438 0.415735 0
M  V30 163 H 14.2 0.369639 -0.649135 0
M  V30 164 H 16.862 0.286707 -1.9278 0
M  V30 165 H 15.958 1.62502 -2.66457 0
M  V30 166 N 16.2591 1.48442 0.529413 0
M  V30 167 C 17.1921 1.57577 1.65059 0
M  V30 168 C 18.1701 0.426198 1.56915 0
M  V30 169 O 19.3541 0.637877 1.77379 0
M  V30 170 C 16.4811 1.5043 3.03461 0
M  V30 171 C 15.5271 2.70235 3.29962 0
M  V30 172 S 16.3601 4.32198 3.16172 0
M  V30 173 C 17.5161 4.2765 4.57019 0
M  V30 174 H 17.7491 2.52427 1.5706 0
M  V30 175 H 15.2821 1.36982 0.712417 0
M  V30 176 H 17.2401 1.46992 3.8328 0
M  V30 177 H 15.9011 0.569167 3.089 0
M  V30 178 H 15.0941 2.61374 4.30929 0
M  V30 179 H 14.6961 2.70938 2.57815 0
M  V30 180 H 16.9881 3.97618 5.48549 0
M  V30 181 H 17.9311 5.28797 4.70934 0
M  V30 182 H 18.3391 3.5811 4.36368 0
M  V30 183 N 17.7372 -0.778329 1.37039 0
M  V30 184 C 18.9832 -1.53892 1.32079 0
M  V30 185 C 19.3162 -1.9396 -0.0965386 0
M  V30 186 O 18.5912 -1.63568 -1.05242 0
M  V30 187 C 18.8742 -2.80847 2.25382 0
M  V30 188 C 18.7272 -2.47076 3.75864 0
M  V30 189 C 20.0462 -3.82741 2.1725 0
M  V30 190 H 17.1652 -0.558303 0.48111 0
M  V30 191 H 19.8072 -0.893397 1.67685 0
M  V30 192 H 17.9572 -3.35931 1.95148 0
M  V30 193 H 19.6292 -1.97957 4.16666 0
M  V30 194 H 17.8722 -1.79863 3.94755 0
M  V30 195 H 18.5432 -3.37798 4.36574 0
M  V30 196 H 21.0192 -3.37133 2.43887 0
M  V30 197 H 19.8952 -4.69303 2.84686 0
M  V30 198 H 20.1562 -4.2652 1.16331 0
M  V30 199 N 19.2153 -1.21501 -1.00376 0
M  V30 200 C 20.4623 -1.03299 -1.74171 0
M  V30 201 C 20.7903 0.433326 -1.89612 0
M  V30 202 O 20.0453 1.33779 -1.42834 0
M  V30 203 C 20.3443 -1.67673 -3.15627 0
M  V30 204 C 20.0103 -3.17533 -3.2013 0
M  V30 205 C 18.6723 -3.58427 -3.21067 0
M  V30 206 C 21.0243 -4.13504 -3.17275 0
M  V30 207 C 18.3523 -4.93794 -3.16835 0
M  V30 208 C 20.7043 -5.48834 -3.14585 0
M  V30 209 C 19.3683 -5.89123 -3.13831 0
M  V30 210 H 18.6383 -0.377999 -0.637336 0
M  V30 211 H 21.2853 -1.51111 -1.17634 0
M  V30 212 H 19.5903 -1.12158 -3.75404 0
M  V30 213 H 21.2873 -1.51091 -3.71446 0
M  V30 214 H 17.8773 -2.84965 -3.20145 0
M  V30 215 H 22.0613 -3.82936 -3.15711 0
M  V30 216 H 17.3173 -5.24255 -3.1459 0
M  V30 217 H 21.4913 -6.22934 -3.1133 0
M  V30 218 H 19.1183 -6.93984 -3.10307 0
M  V30 219 N 20.6934 1.19889 -1.02296 0
M  V30 220 C 21.6564 2.21116 -0.603351 0
M  V30 221 C 22.6564 1.5738 0.329884 0
M  V30 222 O 23.8464 1.73802 0.117702 0
M  V30 223 C 20.9784 3.40696 0.117992 0
M  V30 224 H 22.1714 2.59754 -1.49893 0
M  V30 225 H 19.7244 1.33463 -0.813468 0
M  V30 226 H 20.4594 3.07569 1.0282 0
M  V30 227 H 20.2444 3.88188 -0.552511 0
M  V30 228 H 21.7344 4.15692 0.398696 0
M  V30 229 N 22.1715 0.800033 1.35784 0
M  V30 230 C 23.4175 0.377901 1.99248 0
M  V30 231 C 23.7505 -1.05052 1.63333 0
M  V30 232 O 23.0255 -1.72768 0.893385 0
M  V30 233 C 23.3085 0.553922 3.55814 0
M  V30 234 C 23.1615 2.0268 4.01548 0
M  V30 235 C 24.4805 -0.0244802 4.40093 0
M  V30 236 H 21.5995 0.138782 0.723815 0
M  V30 237 H 24.2415 1.00835 1.61035 0
M  V30 238 H 22.3915 0.0172398 3.88496 0
M  V30 239 H 24.0635 2.62536 3.79305 0
M  V30 240 H 22.3065 2.5256 3.52698 0
M  V30 241 H 22.9775 2.10087 5.10458 0
M  V30 242 H 25.4535 0.433775 4.13833 0
M  V30 243 H 24.3295 0.128637 5.48749 0
M  V30 244 H 24.5905 -1.11758 4.27741 0
M  V30 245 N 23.6496 -1.47581 0.552962 0
M  V30 246 C 24.5796 -2.32762 -0.185451 0
M  V30 247 C 25.5606 -1.43527 -0.912905 0
M  V30 248 O 26.7456 -1.72388 -0.894201 0
M  V30 249 C 23.8756 -3.25219 -1.21859 0
M  V30 250 C 22.8296 -4.23661 -0.607864 0
M  V30 251 C 22.1556 -5.05413 -1.74533 0
M  V30 252 C 23.4556 -5.20481 0.435582 0
M  V30 253 H 25.1496 -2.94749 0.525684 0
M  V30 254 H 22.6956 -1.41738 0.254251 0
M  V30 255 H 24.6486 -3.8365 -1.7433 0
M  V30 256 H 23.3726 -2.61279 -1.95961 0
M  V30 257 H 22.0316 -3.66451 -0.104489 0
M  V30 258 H 21.6796 -4.3788 -2.47529 0
M  V30 259 H 21.3796 -5.72059 -1.34249 0
M  V30 260 H 22.9036 -5.66701 -2.27338 0
M  V30 261 H 24.3176 -5.733 -0.00290157 0
M  V30 262 H 22.7146 -5.95305 0.757067 0
M  V30 263 H 23.7846 -4.66217 1.33303 0
M  V30 264 N 25.1277 -0.289203 -1.54924 0
M  V30 265 C 26.0907 0.579144 -2.21762 0
M  V30 266 C 27.0907 1.07047 -1.1999 0
M  V30 267 O 28.2807 0.968384 -1.44803 0
M  V30 268 C 25.4127 1.80055 -2.8947 0
M  V30 269 H 26.6057 -0.00464908 -2.999 0
M  V30 270 H 24.1587 -0.0399306 -1.56249 0
M  V30 271 H 24.8937 2.42449 -2.15381 0
M  V30 272 H 24.6787 1.45602 -3.64064 0
M  V30 273 H 26.1687 2.41773 -3.40493 0
M  V30 274 N 26.6058 1.57591 -0.0167156 0
M  V30 275 C 27.5388 2.04944 1.00366 0
M  V30 276 C 28.5168 0.942648 1.32487 0
M  V30 277 O 29.7008 1.21205 1.44367 0
M  V30 278 C 26.8278 2.46109 2.32697 0
M  V30 279 C 25.8738 3.67686 2.16123 0
M  V30 280 S 26.7068 5.14882 1.47161 0
M  V30 281 C 27.8628 5.59332 2.80888 0
M  V30 282 H 28.0958 2.91172 0.600528 0
M  V30 283 H 25.6288 1.53168 0.194632 0
M  V30 284 H 27.5868 2.70493 3.08778 0
M  V30 285 H 26.2478 1.6025 2.70146 0
M  V30 286 H 25.4408 3.94296 3.13922 0
M  V30 287 H 25.0428 3.43391 1.48185 0
M  V30 288 H 27.3348 5.62814 3.77156 0
M  V30 289 H 28.2778 6.5905 2.58958 0
M  V30 290 H 28.6858 4.86942 2.85565 0
M  V30 291 N 28.0839 -0.256276 1.55502 0
M  V30 292 C 29.0469 -1.30047 1.88734 0
M  V30 293 C 30.0469 -1.4154 0.763086 0
M  V30 294 O 31.2369 -1.40403 1.03115 0
M  V30 295 C 28.3689 -2.67953 2.10747 0
M  V30 296 H 29.5619 -1.01802 2.82093 0
M  V30 297 H 27.1149 -0.495134 1.4825 0
M  V30 298 H 27.8499 -3.01351 1.19825 0
M  V30 299 H 27.6349 -2.60993 2.92617 0
M  V30 300 H 29.1249 -3.43368 2.37673 0
M  V30 301 N 29.562 -1.4872 -0.521534 0
M  V30 302 C 30.79 -1.60843 -1.30142 0
M  V30 303 C 31.205 -0.271897 -1.86832 0
M  V30 304 O 30.562 0.739969 -1.66825 0
M  V30 305 C 30.613 -2.66155 -2.4463 0
M  V30 306 O 30.334 -3.94623 -1.90275 0
M  V30 307 C 31.835 -2.88795 -3.36322 0
M  V30 308 H 29.055 -0.542075 -0.395468 0
M  V30 309 H 31.599 -1.94609 -0.628285 0
M  V30 310 H 29.754 -2.35224 -3.07812 0
M  V30 311 H 30.168 -4.52468 -2.65279 0
M  V30 312 H 31.642 -3.66264 -4.12983 0
M  V30 313 H 32.119 -1.97934 -3.9207 0
M  V30 314 H 32.725 -3.21063 -2.78924 0
M  V30 315 N 31.0401 0.771051 -1.3745 0
M  V30 316 C 32.0031 1.86598 -1.33093 0
M  V30 317 C 33.0031 1.59076 -0.234845 0
M  V30 318 O 34.1931 1.67145 -0.490732 0
M  V30 319 C 31.3251 3.23747 -1.06773 0
M  V30 320 H 32.5181 1.91873 -2.30488 0
M  V30 321 H 30.0711 0.970876 -1.2249 0
M  V30 322 H 30.8061 3.24148 -0.099129 0
M  V30 323 H 30.5911 3.45115 -1.86112 0
M  V30 324 H 32.0811 4.03824 -1.06377 0
M  V30 325 N 32.5182 1.22032 0.997298 0
M  V30 326 C 33.7462 1.06841 1.7718 0
M  V30 327 C 34.1612 -0.381325 1.84909 0
M  V30 328 O 33.5182 -1.26437 1.31605 0
M  V30 329 C 33.5692 1.66814 3.20711 0
M  V30 330 O 33.2902 3.06116 3.13408 0
M  V30 331 C 34.7912 1.56838 4.14628 0
M  V30 332 H 32.0112 0.374782 0.556578 0
M  V30 333 H 34.5552 1.61532 1.2541 0
M  V30 334 H 32.7102 1.16196 3.69564 0
M  V30 335 H 33.1242 3.34926 4.0364 0
M  V30 336 H 34.5982 2.03532 5.13107 0
M  V30 337 H 35.0752 0.524155 4.36061 0
M  V30 338 H 35.6812 2.06741 3.7167 0
M  V30 339 N 33.9963 -1.19345 1.0293 0
M  V30 340 C 35.2453 -1.88363 0.721256 0
M  V30 341 C 35.5583 -1.80514 -0.753254 0
M  V30 342 O 36.7643 -2.44788 -1.17436 0
M  V30 343 C 35.2203 -3.37872 1.23978 0
M  V30 344 C 34.8283 -3.54278 2.74211 0
M  V30 345 C 36.5723 -4.12365 1.00775 0
M  V30 346 C 34.4793 -4.97682 3.19479 0
M  V30 347 H 33.4093 -0.705484 0.266098 0
M  V30 348 H 36.0603 -1.34928 1.24365 0
M  V30 349 H 34.4423 -3.90707 0.6453 0
M  V30 350 H 35.6163 -3.11769 3.39318 0
M  V30 351 H 33.9313 -2.93174 2.95699 0
M  V30 352 H 36.5283 -5.18119 1.32123 0
M  V30 353 H 36.8713 -4.16263 -0.0554308 0
M  V30 354 H 37.4043 -3.65668 1.56625 0
M  V30 355 H 34.1433 -4.98945 4.25128 0
M  V30 356 H 33.6633 -5.4095 2.591 0
M  V30 357 H 35.3423 -5.66337 3.12845 0
M  V30 358 N 35.4744 -0.807222 -1.35358 0
M  V30 359 C 36.7214 -0.387888 -1.9875 0
M  V30 360 C 37.0494 1.04509 -1.64037 0
M  V30 361 O 36.3044 1.73986 -0.895946 0
M  V30 362 C 36.6034 -0.519036 -3.53611 0
M  V30 363 C 36.2694 -1.91542 -4.08194 0
M  V30 364 C 34.9314 -2.29745 -4.22813 0
M  V30 365 C 37.2834 -2.82896 -4.37744 0
M  V30 366 C 34.6114 -3.58668 -4.643 0
M  V30 367 C 36.9634 -4.11265 -4.8067 0
M  V30 368 C 35.6274 -4.49466 -4.93494 0
M  V30 369 H 34.8974 -0.141938 -0.727279 0
M  V30 370 H 37.5444 -1.02814 -1.6156 0
M  V30 371 H 35.8494 0.204658 -3.91265 0
M  V30 372 H 37.5464 -0.175345 -4.00616 0
M  V30 373 H 34.1364 -1.60862 -3.97268 0
M  V30 374 H 38.3204 -2.54629 -4.26002 0
M  V30 375 H 33.5764 -3.88113 -4.72418 0
M  V30 376 H 37.7504 -4.82153 -5.02496 0
M  V30 377 H 35.3774 -5.49418 -5.25399 0
M  V30 378 N 36.9525 1.47285 -0.560781 0
M  V30 379 C 38.1775 2.07359 -0.0410566 0
M  V30 380 C 38.6025 1.41017 1.24483 0
M  V30 381 O 37.9605 0.486368 1.74654 0
M  V30 382 C 38.0085 3.6035 0.134123 0
M  V30 383 O 37.1125 3.94681 1.19587 0
M  V30 384 H 36.4535 0.661887 -0.0529291 0
M  V30 385 H 38.9835 1.89252 -0.777482 0
M  V30 386 H 38.9935 4.0652 0.347207 0
M  V30 387 H 37.6685 4.08034 -0.805047 0
M  V30 388 H 36.2455 3.60251 0.962987 0
M  V30 389 N 38.4306 0.297415 1.54768 0
M  V30 390 C 39.6786 -0.312295 1.99673 0
M  V30 391 C 39.9996 -1.54686 1.18732 0
M  V30 392 O 39.2696 -1.93854 0.282382 0
M  V30 393 H 37.8496 -0.118381 0.73756 0
M  V30 394 H 40.5116 0.407915 1.90583 0
M  V30 395 H 39.6076 -0.586813 3.06534 0
M  V30 396 N 39.9087 -1.5758 0.0250728 0
M  V30 397 C 41.1577 -1.90811 -0.653767 0
M  V30 398 C 41.4707 -0.90273 -1.73523 0
M  V30 399 O 42.6767 -1.12614 -2.47043 0
M  V30 400 C 41.1327 -3.38804 -1.21409 0
M  V30 401 C 40.7407 -4.47692 -0.166126 0
M  V30 402 C 42.4847 -3.81108 -1.86967 0
M  V30 403 C 40.3917 -5.86779 -0.737856 0
M  V30 404 H 39.3217 -0.712063 -0.247956 0
M  V30 405 H 41.9727 -1.83281 0.0897137 0
M  V30 406 H 40.3547 -3.41252 -2.00905 0
M  V30 407 H 41.5287 -4.56797 0.606079 0
M  V30 408 H 39.8437 -4.14565 0.390466 0
M  V30 409 H 42.4407 -4.82375 -2.30692 0
M  V30 410 H 42.7837 -3.15953 -2.71071 0
M  V30 411 H 43.3167 -3.81065 -1.14167 0
M  V30 412 H 40.0557 -6.55468 0.0649577 0
M  V30 413 H 39.5757 -5.81288 -1.47864 0
M  V30 414 H 41.2547 -6.35223 -1.22884 0
M  V30 415 N 41.3868 0.248026 -1.55636 0
M  V30 416 C 42.6348 0.974295 -1.77065 0
M  V30 417 C 42.9558 1.85897 -0.588849 0
M  V30 418 O 42.2258 1.91868 0.395407 0
M  V30 419 H 40.8058 0.362733 -0.653019 0
M  V30 420 H 43.4678 0.266244 -1.93073 0
M  V30 421 H 42.5638 1.59667 -2.68166 0
M  V30 422 N 42.8649 1.48995 0.513639 0
M  V30 423 C 44.0899 1.61792 1.29762 0
M  V30 424 C 44.5149 0.284475 1.85936 0
M  V30 425 O 43.8729 -0.746185 1.65232 0
M  V30 426 C 43.9209 2.67993 2.41272 0
M  V30 427 O 43.0249 2.26287 3.44772 0
M  V30 428 H 42.3659 0.541963 0.38363 0
M  V30 429 H 44.8959 1.95097 0.616307 0
M  V30 430 H 44.9059 2.89772 2.87221 0
M  V30 431 H 43.5809 3.64791 1.9975 0
M  V30 432 H 42.1579 2.14788 3.04829 0
M  V30 433 N 44.343 -0.763751 1.37857 0
M  V30 434 C 45.306 -1.85889 1.34081 0
M  V30 435 C 46.306 -1.58949 0.243277 0
M  V30 436 O 47.496 -1.66882 0.499589 0
M  V30 437 C 44.628 -3.23176 1.08489 0
M  V30 438 H 45.821 -1.90648 2.31502 0
M  V30 439 H 43.374 -0.964367 1.23003 0
M  V30 440 H 44.109 -3.24091 0.116318 0
M  V30 441 H 43.894 -3.44124 1.8794 0
M  V30 442 H 45.384 -4.03254 1.08517 0
M  V30 443 N 45.8211 -1.22559 -0.990812 0
M  V30 444 C 46.7681 -0.997519 -2.0813 0
M  V30 445 C 47.7381 0.0814702 -1.659 0
M  V30 446 O 48.9231 -0.0685424 -1.90677 0
M  V30 447 C 46.0631 -0.583615 -3.40129 0
M  V30 448 C 45.1761 -1.7336 -3.9569 0
M  V30 449 C 44.3111 -1.26748 -5.15857 0
M  V30 450 C 43.3501 -2.38888 -5.63559 0
M  V30 451 N 42.4871 -1.93308 -6.74964 0
M  V30 452 H 47.3271 -1.93099 -2.26973 0
M  V30 453 H 44.8641 -0.962114 -1.11273 0
M  V30 454 H 46.8221 -0.324801 -4.15934 0
M  V30 455 H 45.4521 0.312845 -3.2128 0
M  V30 456 H 44.5041 -2.10669 -3.16738 0
M  V30 457 H 45.8161 -2.57704 -4.27071 0
M  V30 458 H 44.9701 -0.966173 -5.98957 0
M  V30 459 H 43.7091 -0.394272 -4.86104 0
M  V30 460 H 42.7141 -2.69805 -4.79046 0
M  V30 461 H 43.9391 -3.26728 -5.95336 0
M  V30 462 H 41.8851 -1.08352 -6.4699 0
M  V30 463 H 41.8021 -2.71217 -7.05675 0
M  V30 464 H 43.0701 -1.66252 -7.61564 0
M  V30 465 N 47.2992 1.18797 -1.03562 0
M  V30 466 C 48.5472 1.88278 -0.734569 0
M  V30 467 C 48.8682 1.8043 0.739586 0
M  V30 468 O 48.1382 1.21925 1.53333 0
M  V30 469 H 46.7182 0.696991 -0.268725 0
M  V30 470 H 49.3802 1.44192 -1.31129 0
M  V30 471 H 48.4762 2.94443 -1.03489 0
M  V30 472 N 48.7773 0.814389 1.34928 0
M  V30 473 C 50.0233 0.399013 1.98836 0
M  V30 474 C 50.3563 -1.03314 1.64438 0
M  V30 475 O 49.6313 -1.71811 0.911659 0
M  V30 476 C 49.9143 0.591629 3.55207 0
M  V30 477 C 49.7673 2.06928 3.99376 0
M  V30 478 C 51.0863 0.022199 4.40094 0
M  V30 479 H 48.2053 0.146451 0.722303 0
M  V30 480 H 50.8473 1.02537 1.59957 0
M  V30 481 H 48.9973 0.0584441 3.88456 0
M  V30 482 H 50.6693 2.66544 3.76499 0
M  V30 483 H 48.9123 2.56287 3.49999 0
M  V30 484 H 49.5833 2.1549 5.08201 0
M  V30 485 H 52.0593 0.477643 4.13349 0
M  V30 486 H 50.9353 0.186832 5.48582 0
M  V30 487 H 51.1963 -1.07215 4.28902 0
M  V30 488 N 50.2554 -1.46986 0.568584 0
M  V30 489 C 51.5034 -2.02041 0.0487022 0
M  V30 490 C 51.8244 -1.44408 -1.31039 0
M  V30 491 O 51.0944 -0.623477 -1.85714 0
M  V30 492 H 49.6744 -0.746849 0.015014 0
M  V30 493 H 52.3364 -1.80257 0.741168 0
M  V30 494 H 51.4324 -3.12085 -0.0308961 0
M  V30 495 N 51.7335 -0.305618 -1.54608 0
M  V30 496 C 52.6665 0.610536 -2.19881 0
M  V30 497 C 53.6445 1.1294 -1.16976 0
M  V30 498 O 54.8285 1.19673 -1.45638 0
M  V30 499 C 51.9555 1.83583 -2.84631 0
M  V30 500 C 51.0015 1.4498 -4.01102 0
M  V30 501 S 51.8345 0.501793 -5.33144 0
M  V30 502 C 52.9905 1.73478 -6.01379 0
M  V30 503 H 53.2235 0.0560177 -2.97247 0
M  V30 504 H 50.7565 -0.0897434 -1.54139 0
M  V30 505 H 52.7145 2.53898 -3.22562 0
M  V30 506 H 51.3755 2.36152 -2.07102 0
M  V30 507 H 50.5685 2.36236 -4.45206 0
M  V30 508 H 50.1705 0.826553 -3.64752 0
M  V30 509 H 52.4625 2.67473 -6.22467 0
M  V30 510 H 53.4055 1.33622 -6.95378 0
M  V30 511 H 53.8135 1.9136 -5.31076 0
M  V30 512 N 53.2116 1.57565 -0.0334293 0
M  V30 513 C 54.4396 1.9628 0.654347 0
M  V30 514 C 54.8546 0.910138 1.65414 0
M  V30 515 O 54.2116 -0.107595 1.82183 0
M  V30 516 C 54.2626 3.35067 1.35693 0
M  V30 517 O 53.9836 4.36296 0.397191 0
M  V30 518 C 55.4846 3.88439 2.13613 0
M  V30 519 H 52.7046 0.646369 0.180132 0
M  V30 520 H 55.2486 2.04282 -0.0944721 0
M  V30 521 H 53.4036 3.2827 2.05712 0
M  V30 522 H 53.8176 5.1678 0.896597 0
M  V30 523 H 55.2916 4.8788 2.58219 0
M  V30 524 H 55.7686 3.22914 2.97696 0
M  V30 525 H 56.3746 3.98516 1.48543 0
M  V30 526 N 54.6897 -0.239769 1.55765 0
M  V30 527 C 55.9377 -0.964892 1.77579 0
M  V30 528 C 56.2587 -1.85582 0.598699 0
M  V30 529 O 55.5287 -1.92075 -0.385226 0
M  V30 530 H 54.1087 -0.359265 0.654933 0
M  V30 531 H 56.7707 -0.256001 1.93211 0
M  V30 532 H 55.8667 -1.58243 2.69009 0
M  V30 533 N 56.1678 -1.49265 -0.50573 0
M  V30 534 C 57.0778 -1.68312 -1.63427 0
M  V30 535 C 58.0938 -0.565682 -1.64548 0
M  V30 536 O 59.2698 -0.839801 -1.83055 0
M  V30 537 C 56.3348 -1.74107 -2.99813 0
M  V30 538 C 55.3958 -2.97653 -3.09356 0
M  V30 539 C 54.6288 -3.03163 -4.39236 0
M  V30 540 O 54.8518 -2.16396 -5.27758 0
M  V30 541 O 53.7858 -3.9558 -4.53652 0
M  V30 542 H 57.6118 -2.63907 -1.50289 0
M  V30 543 H 55.1968 -1.32951 -0.681502 0
M  V30 544 H 57.0788 -1.803 -3.80881 0
M  V30 545 H 55.7538 -0.816901 -3.13223 0
M  V30 546 H 54.6608 -2.96981 -2.27493 0
M  V30 547 H 55.9938 -3.89535 -3.00871 0
M  V30 548 N 57.6459 0.756429 -1.3826 0
M  V30 549 C 58.6089 1.85176 -1.35065 0
M  V30 550 C 59.6089 1.58818 -0.251703 0
M  V30 551 O 60.7989 1.66615 -0.508433 0
M  V30 552 C 57.9309 3.22596 -1.10201 0
M  V30 553 H 59.1239 1.89417 -2.3251 0
M  V30 554 H 56.6769 0.95783 -1.23512 0
M  V30 555 H 57.4119 3.24025 -0.133504 0
M  V30 556 H 57.1969 3.43122 -1.89762 0
M  V30 557 H 58.6869 4.02673 -1.10654 0
M  V30 558 N 59.124 1.23083 0.984299 0
M  V30 559 C 60.087 1.00979 2.05757 0
M  V30 560 C 61.087 -0.0269573 1.60777 0
M  V30 561 O 62.277 0.212403 1.729 0
M  V30 562 C 59.409 0.527072 3.36801 0
M  V30 563 H 60.602 1.9622 2.26799 0
M  V30 564 H 58.155 1.05072 1.15714 0
M  V30 565 H 58.89 -0.429294 3.21446 0
M  V30 566 H 58.675 1.27515 3.70786 0
M  V30 567 H 60.165 0.392942 4.15747 0
M  V30 568 N 60.6021 -1.18246 1.0419 0
M  V30 569 C 61.5651 -2.20128 0.638452 0
M  V30 570 C 62.5651 -1.57885 -0.304805 0
M  V30 571 O 63.7551 -1.73967 -0.0900369 0
M  V30 572 C 60.8871 -3.4084 -0.0637751 0
M  V30 573 H 62.0801 -2.57336 1.54007 0
M  V30 574 H 59.6331 -1.32152 0.834598 0
M  V30 575 H 60.3681 -3.09166 -0.979136 0
M  V30 576 H 60.1531 -3.8726 0.614198 0
M  V30 577 H 61.6431 -4.16274 -0.332512 0
M  V30 578 N 62.0802 -0.821533 -1.34494 0
M  V30 579 C 63.0432 -0.247847 -2.27856 0
M  V30 580 C 64.0432 0.573453 -1.50227 0
M  V30 581 O 65.2332 0.389759 -1.69784 0
M  V30 582 C 62.3652 0.652698 -3.34593 0
M  V30 583 H 63.5582 -1.07146 -2.80107 0
M  V30 584 H 61.1112 -0.593291 -1.44602 0
M  V30 585 H 61.8462 1.49943 -2.87555 0
M  V30 586 H 61.6312 0.065292 -3.92046 0
M  V30 587 H 63.1212 1.04793 -4.04238 0
M  V30 588 N 63.5583 1.46682 -0.576371 0
M  V30 589 C 64.4883 2.33028 0.148397 0
M  V30 590 C 65.4693 1.44961 0.889956 0
M  V30 591 O 66.6543 1.73789 0.866662 0
M  V30 592 C 63.7843 3.27117 1.1667 0
M  V30 593 C 62.7383 4.24575 0.540386 0
M  V30 594 C 62.0643 5.08126 1.6647 0
M  V30 595 C 63.3643 5.19722 -0.518331 0
M  V30 596 H 65.0583 2.93875 -0.572509 0
M  V30 597 H 62.6043 1.41315 -0.276768 0
M  V30 598 H 64.5573 3.86374 1.68204 0
M  V30 599 H 63.2813 2.64364 1.9178 0
M  V30 600 H 61.9403 3.66571 0.0461769 0
M  V30 601 H 61.5883 4.41762 2.40531 0
M  V30 602 H 61.2883 5.74122 1.25131 0
M  V30 603 H 62.8123 5.70246 2.18293 0
M  V30 604 H 64.2263 5.73232 -0.0883058 0
M  V30 605 H 62.6233 5.94026 -0.851679 0
M  V30 606 H 63.6933 4.64037 -1.40703 0
M  V30 607 N 65.0364 0.313813 1.54444 0
M  V30 608 C 66.2644 -0.293918 2.04802 0
M  V30 609 C 66.6794 -1.46537 1.19047 0
M  V30 610 O 66.0364 -1.81182 0.218939 0
M  V30 611 C 66.0874 -0.737806 3.53891 0
M  V30 612 O 65.8084 0.387038 4.36387 0
M  V30 613 C 67.3094 -1.40936 4.203 0
M  V30 614 H 64.5294 -0.0620057 0.668129 0
M  V30 615 H 67.0734 0.457169 1.99324 0
M  V30 616 H 65.2284 -1.43889 3.59687 0
M  V30 617 H 65.6424 0.0391274 5.24485 0
M  V30 618 H 67.1164 -1.67099 5.26101 0
M  V30 619 H 67.5934 -2.35355 3.70816 0
M  V30 620 H 68.1994 -0.751117 4.18615 0
M  V30 621 N 66.5145 -1.57545 0.0417849 0
M  V30 622 C 67.7425 -1.96624 -0.643928 0
M  V30 623 C 68.1575 -0.918897 -1.64929 0
M  V30 624 O 67.5145 0.0979323 -1.82237 0
M  V30 625 C 67.5655 -3.35781 -1.33914 0
M  V30 626 O 67.2865 -4.365 -0.374048 0
M  V30 627 C 68.7875 -3.89566 -2.1155 0
M  V30 628 H 66.0075 -0.647316 -0.176702 0
M  V30 629 H 68.5515 -2.04229 0.105304 0
M  V30 630 H 66.7065 -3.29357 -2.03968 0
M  V30 631 H 67.1205 -5.17248 -0.869179 0
M  V30 632 H 68.5945 -4.89242 -2.55628 0
M  V30 633 H 69.0715 -3.24488 -2.9598 0
M  V30 634 H 69.6775 -3.99298 -1.46427 0
M  V30 635 N 67.9926 0.231505 -1.5589 0
M  V30 636 C 69.2176 0.978689 -1.82856 0
M  V30 637 C 69.6426 1.77559 -0.620846 0
M  V30 638 O 69.0006 1.76119 0.430305 0
M  V30 639 C 69.0486 1.87997 -3.07716 0
M  V30 640 O 68.1526 2.97393 -2.85712 0
M  V30 641 H 67.4936 0.277663 -0.603158 0
M  V30 642 H 70.0236 0.24783 -2.03093 0
M  V30 643 H 70.0336 2.2917 -3.37558 0
M  V30 644 H 68.7086 1.29417 -3.95252 0
M  V30 645 H 67.2856 2.60238 -2.67078 0
M  V30 646 N 69.4707 1.49531 0.497807 0
M  V30 647 C 70.4027 1.62559 1.61578 0
M  V30 648 C 71.4157 0.508134 1.54667 0
M  V30 649 O 72.6047 0.780309 1.60541 0
M  V30 650 C 69.7047 1.56925 3.00379 0
M  V30 651 C 68.8777 2.84257 3.3244 0
M  V30 652 C 67.9367 2.71632 4.50669 0
M  V30 653 O 66.9627 3.4557 4.52294 0
M  V30 654 N 68.1647 1.83391 5.5077 0
M  V30 655 H 70.9297 2.58981 1.50828 0
M  V30 656 H 68.4907 1.4666 0.685743 0
M  V30 657 H 70.4827 1.46129 3.77397 0
M  V30 658 H 69.0527 0.683483 3.05037 0
M  V30 659 H 68.2727 3.09381 2.44289 0
M  V30 660 H 69.5607 3.68666 3.5066 0
M  V30 661 H 68.9587 1.22583 5.52259 0
M  V30 662 H 67.5157 1.78515 6.26878 0
M  V30 663 N 70.9488 -0.749086 1.3866 0
M  V30 664 C 72.3598 -1.32664 1.31366 0
M  V30 665 C 72.7108 -1.96179 -0.028484 0
M  V30 666 O 71.8358 -1.9537 -0.93057 0
M  V30 667 C 72.4308 -2.41219 2.37905 0
M  V30 668 C 70.9898 -2.94684 2.34176 0
M  V30 669 C 70.1368 -1.68108 2.20533 0
M  V30 670 H 73.0878 -0.547628 1.48952 0
M  V30 671 H 73.1088 -3.21268 2.0388 0
M  V30 672 H 72.6208 -1.94962 3.35576 0
M  V30 673 H 70.7218 -3.45258 1.401 0
M  V30 674 H 70.8348 -3.48757 3.2849 0
M  V30 675 H 69.1988 -1.91907 1.67463 0
M  V30 676 H 69.9818 -1.23923 3.20153 0
M  V30 677 N 72.4269 -1.23603 -0.977757 0
M  V30 678 C 73.3369 -1.03632 -2.1047 0
M  V30 679 C 74.3529 0.0199435 -1.73989 0
M  V30 680 O 75.5289 -0.176076 -2.00629 0
M  V30 681 C 72.5939 -0.63276 -3.40877 0
M  V30 682 C 71.6549 -1.76437 -3.91367 0
M  V30 683 C 70.8879 -1.37997 -5.15551 0
M  V30 684 O 71.1109 -0.265357 -5.69782 0
M  V30 685 O 70.0449 -2.20201 -5.60174 0
M  V30 686 H 73.8709 -1.98086 -2.30208 0
M  V30 687 H 71.4559 -1.02332 -1.08851 0
M  V30 688 H 73.3379 -0.418761 -4.19314 0
M  V30 689 H 72.0129 0.282754 -3.22463 0
M  V30 690 H 70.9199 -2.03304 -3.14036 0
M  V30 691 H 72.2529 -2.6583 -4.14241 0
M  V30 692 N 73.905 1.17692 -1.04816 0
M  V30 693 C 74.852 2.21581 -0.645797 0
M  V30 694 C 75.822 1.62367 0.350159 0
M  V30 695 O 77.007 1.89254 0.242433 0
M  V30 696 C 74.147 3.45092 -0.0227568 0
M  V30 697 C 73.26 4.18613 -1.06709 0
M  V30 698 C 72.395 5.29602 -0.411767 0
M  V30 699 C 71.434 5.94904 -1.44067 0
M  V30 700 N 70.571 6.97414 -0.809781 0
M  V30 701 H 75.411 2.55353 -1.5362 0
M  V30 702 H 72.948 1.25438 -0.768364 0
M  V30 703 H 74.906 4.15679 0.35588 0
M  V30 704 H 73.536 3.11917 0.831122 0
M  V30 705 H 72.588 3.46779 -1.5636 0
M  V30 706 H 73.9 4.63293 -1.84827 0
M  V30 707 H 73.054 6.06696 0.0206623 0
M  V30 708 H 71.793 4.86045 0.401438 0
M  V30 709 H 70.798 5.16544 -1.88316 0
M  V30 710 H 72.023 6.40542 -2.25571 0
M  V30 711 H 69.969 6.55998 -0.0170186 0
M  V30 712 H 69.886 7.40386 -1.52856 0
M  V30 713 H 71.154 7.78463 -0.401999 0
M  V30 714 N 75.3831 0.828654 1.34056 0
M  V30 715 C 76.6301 0.419458 1.98108 0
M  V30 716 C 76.9581 -1.01886 1.65679 0
M  V30 717 O 76.2131 -1.72539 0.923512 0
M  V30 718 C 76.5121 0.575226 3.52741 0
M  V30 719 C 76.1781 1.98012 4.05095 0
M  V30 720 C 74.8401 2.36442 4.19104 0
M  V30 721 C 77.1921 2.89824 4.33188 0
M  V30 722 C 74.5201 3.66009 4.58535 0
M  V30 723 C 76.8721 4.1886 4.74066 0
M  V30 724 C 75.5361 4.5726 4.86281 0
M  V30 725 H 74.8061 0.153491 0.724929 0
M  V30 726 H 77.4531 1.05371 1.59904 0
M  V30 727 H 75.7581 -0.142385 3.91541 0
M  V30 728 H 77.4551 0.239057 4.00287 0
M  V30 729 H 74.0451 1.67162 3.94658 0
M  V30 730 H 78.2291 2.61375 4.21897 0
M  V30 731 H 73.4851 3.95579 4.66184 0
M  V30 732 H 77.6591 4.90086 4.94761 0
M  V30 733 H 75.2861 5.57707 5.16592 0
M  V30 734 N 76.8612 -1.46375 0.584142 0
M  V30 735 C 78.1092 -2.01978 0.0701287 0
M  V30 736 C 78.4302 -1.4579 -1.295 0
M  V30 737 O 77.7002 -0.64314 -1.85042 0
M  V30 738 H 76.2802 -0.746648 0.0229345 0
M  V30 739 H 78.9422 -1.79461 0.760245 0
M  V30 740 H 78.0382 -3.121 0.0022064 0
M  V30 741 N 78.3393 -0.321999 -1.54275 0
M  V30 742 C 79.2713 0.578671 -2.21775 0
M  V30 743 C 80.2843 1.08109 -1.21722 0
M  V30 744 O 81.4733 0.994938 -1.482 0
M  V30 745 C 78.5733 1.80661 -2.86731 0
M  V30 746 C 77.7463 1.44314 -4.12907 0
M  V30 747 C 76.8053 2.52845 -4.61472 0
M  V30 748 O 75.8313 2.17054 -5.2619 0
M  V30 749 N 77.0333 3.83748 -4.35566 0
M  V30 750 H 79.7983 0.000709447 -2.997 0
M  V30 751 H 77.3593 -0.145132 -1.61248 0
M  V30 752 H 79.3513 2.52655 -3.16145 0
M  V30 753 H 77.9213 2.29245 -2.12521 0
M  V30 754 H 77.1413 0.554906 -3.90275 0
M  V30 755 H 78.4293 1.17598 -4.95023 0
M  V30 756 H 77.8273 4.15625 -3.83761 0
M  V30 757 H 76.3843 4.51977 -4.69638 0
M  V30 758 N 79.8174 1.5752 -0.0501392 0
M  V30 759 C 80.7804 2.1037 0.909786 0
M  V30 760 C 81.7804 1.02308 1.24056 0
M  V30 761 O 82.9704 1.28385 1.17741 0
M  V30 762 C 80.1024 2.58708 2.21998 0
M  V30 763 H 81.2954 2.96479 0.451665 0
M  V30 764 H 78.8484 1.55038 0.198248 0
M  V30 765 H 79.5834 1.75989 2.72394 0
M  V30 766 H 79.3684 3.37675 1.99295 0
M  V30 767 H 80.8584 2.99747 2.9076 0
M  V30 768 N 81.2955 -0.223234 1.56011 0
M  V30 769 C 82.2255 -1.27988 1.95298 0
M  V30 770 C 83.2065 -1.48976 0.820979 0
M  V30 771 O 84.3915 -1.61188 1.08315 0
M  V30 772 C 81.5215 -2.63 2.26822 0
M  V30 773 C 80.4755 -2.56671 3.42497 0
M  V30 774 C 79.8015 -3.95697 3.59622 0
M  V30 775 C 81.1015 -2.11601 4.77517 0
M  V30 776 H 82.7955 -0.953525 2.8381 0
M  V30 777 H 80.3415 -0.457244 1.36548 0
M  V30 778 H 82.2945 -3.37077 2.52898 0
M  V30 779 H 81.0185 -2.9732 1.35161 0
M  V30 780 H 79.6775 -1.85051 3.16467 0
M  V30 781 H 79.3255 -4.27322 2.6534 0
M  V30 782 H 79.0255 -3.92345 4.37424 0
M  V30 783 H 80.5495 -4.71438 3.88044 0
M  V30 784 H 81.9635 -2.7542 5.02809 0
M  V30 785 H 80.3605 -2.19311 5.5859 0
M  V30 786 H 81.4305 -1.06824 4.72987 0
M  V30 787 N 82.7736 -1.49793 -0.48987 0
M  V30 788 C 84.0226 -1.59085 -1.23995 0
M  V30 789 C 84.3356 -0.287907 -1.9347 0
M  V30 790 O 85.5416 -0.259506 -2.70257 0
M  V30 791 C 83.9976 -2.80736 -2.252 0
M  V30 792 C 83.6056 -4.17833 -1.61614 0
M  V30 793 C 85.3496 -2.99364 -3.00967 0
M  V30 794 C 83.2566 -5.30693 -2.60996 0
M  V30 795 H 82.1866 -0.592372 -0.466488 0
M  V30 796 H 84.8376 -1.76197 -0.51252 0
M  V30 797 H 83.2196 -2.57142 -3.01154 0
M  V30 798 H 84.3936 -4.51608 -0.915774 0
M  V30 799 H 82.7086 -4.04656 -0.981977 0
M  V30 800 H 85.3056 -3.80851 -3.75308 0
M  V30 801 H 85.6486 -2.10356 -3.59244 0
M  V30 802 H 86.1816 -3.2305 -2.32128 0
M  V30 803 H 82.9206 -6.21796 -2.07485 0
M  V30 804 H 82.4406 -5.01359 -3.2924 0
M  V30 805 H 84.1196 -5.6049 -3.23202 0
M  V30 806 N 84.2517 0.741722 -1.39055 0
M  V30 807 C 85.1817 1.869 -1.39966 0
M  V30 808 C 86.1627 1.6804 -0.26392 0
M  V30 809 O 87.3477 1.88458 -0.468755 0
M  V30 810 C 84.4777 3.24572 -1.23574 0
M  V30 811 C 83.4317 3.58056 -2.34477 0
M  V30 812 C 82.7577 4.94593 -2.0318 0
M  V30 813 C 84.0577 3.61716 -3.76774 0
M  V30 814 H 85.7517 1.86395 -2.34302 0
M  V30 815 H 83.2977 0.895361 -1.1278 0
M  V30 816 H 85.2507 4.031 -1.22834 0
M  V30 817 H 83.9747 3.25587 -0.257045 0
M  V30 818 H 82.6337 2.81854 -2.34423 0
M  V30 819 H 82.2817 4.92181 -1.03765 0
M  V30 820 H 81.9817 5.17964 -2.77465 0
M  V30 821 H 83.5057 5.75486 -2.04079 0
M  V30 822 H 84.9197 4.30335 -3.78794 0
M  V30 823 H 83.3167 3.96603 -4.50362 0
M  V30 824 H 84.3867 2.61672 -4.08235 0
M  V30 825 N 85.7298 1.2412 0.971189 0
M  V30 826 C 86.6618 0.988349 2.06795 0
M  V30 827 C 87.6748 -0.0409541 1.62748 0
M  V30 828 O 88.8638 0.195673 1.77424 0
M  V30 829 C 85.9638 0.469023 3.35639 0
M  V30 830 C 85.1368 1.56065 4.08611 0
M  V30 831 C 84.1958 1.04458 5.15728 0
M  V30 832 O 83.2218 1.73553 5.42096 0
M  V30 833 N 84.4238 -0.122817 5.8037 0
M  V30 834 H 87.1888 1.93265 2.29061 0
M  V30 835 H 84.7498 1.15102 1.13856 0
M  V30 836 H 86.7418 0.108613 4.04554 0
M  V30 837 H 85.3118 -0.380919 3.1027 0
M  V30 838 H 84.5318 2.09341 3.34021 0
M  V30 839 H 85.8198 2.29449 4.54126 0
M  V30 840 H 85.2178 -0.700563 5.61345 0
M  V30 841 H 83.7748 -0.424404 6.50417 0
M  V30 842 N 87.2079 -1.17134 1.05439 0
M  V30 843 C 88.1379 -2.2342 0.678649 0
M  V30 844 C 89.1189 -1.66971 -0.32476 0
M  V30 845 O 90.3039 -1.93149 -0.201802 0
M  V30 846 C 87.4339 -3.47256 0.0552099 0
M  V30 847 C 86.3879 -4.16543 0.98365 0
M  V30 848 C 85.7139 -5.34231 0.223961 0
M  V30 849 C 87.0139 -4.68495 2.3089 0
M  V30 850 H 88.7079 -2.55105 1.56722 0
M  V30 851 H 86.2539 -1.2262 0.754998 0
M  V30 852 H 88.2069 -4.20828 -0.21946 0
M  V30 853 H 86.9309 -3.14846 -0.868319 0
M  V30 854 H 85.5899 -3.44887 1.24293 0
M  V30 855 H 85.2379 -4.98071 -0.702412 0
M  V30 856 H 84.9379 -5.81527 0.842627 0
M  V30 857 H 86.4619 -6.10585 -0.0433671 0
M  V30 858 H 87.8759 -5.33691 2.09396 0
M  V30 859 H 86.2729 -5.26379 2.88176 0
M  V30 860 H 87.3429 -3.85169 2.94572 0
M  V30 861 N 88.686 -0.835752 -1.33615 0
M  V30 862 C 89.616 -0.281739 -2.31794 0
M  V30 863 C 90.597 0.608833 -1.58831 0
M  V30 864 O 91.782 0.533035 -1.86741 0
M  V30 865 C 88.912 0.546612 -3.42971 0
M  V30 866 C 87.866 -0.247904 -4.27281 0
M  V30 867 C 87.192 0.704001 -5.30045 0
M  V30 868 C 88.492 -1.46324 -5.01385 0
M  V30 869 H 90.186 -1.10206 -2.78379 0
M  V30 870 H 87.732 -0.531388 -1.33837 0
M  V30 871 H 89.685 0.944467 -4.1068 0
M  V30 872 H 88.409 1.40011 -2.95067 0
M  V30 873 H 87.068 -0.627281 -3.61194 0
M  V30 874 H 86.716 1.55381 -4.78399 0
M  V30 875 H 86.416 0.176524 -5.87335 0
M  V30 876 H 87.94 1.09944 -6.0062 0
M  V30 877 H 89.354 -1.13871 -5.61877 0
M  V30 878 H 87.751 -1.92728 -5.6831 0
M  V30 879 H 88.821 -2.23467 -4.30338 0
M  V30 880 N 90.1641 1.46063 -0.591896 0
M  V30 881 C 91.5751 1.85944 -0.167822 0
M  V30 882 C 91.9261 1.49429 1.27143 0
M  V30 883 O 91.0511 0.913515 1.96173 0
M  V30 884 C 91.6461 3.37489 -0.297794 0
M  V30 885 C 90.2051 3.76332 0.0714732 0
M  V30 886 C 89.3521 2.7006 -0.629509 0
M  V30 887 H 92.3031 1.37087 -0.799555 0
M  V30 888 H 92.3241 3.77532 0.474349 0
M  V30 889 H 91.8361 3.64034 -1.3454 0
M  V30 890 H 89.9371 3.55405 1.11886 0
M  V30 891 H 90.0501 4.78088 -0.311245 0
M  V30 892 H 88.4141 2.54607 -0.0687867 0
M  V30 893 H 89.1971 2.99444 -1.67894 0
M  V30 894 N 91.6422 0.330177 1.54103 0
M  V30 895 C 92.8902 -0.269871 2.0029 0
M  V30 896 C 93.2112 -1.52133 1.21986 0
M  V30 897 O 92.4812 -1.93212 0.323438 0
M  V30 898 H 91.0612 -0.10271 0.739905 0
M  V30 899 H 93.7232 0.448249 1.89675 0
M  V30 900 H 92.8192 -0.52166 3.07709 0
M  V30 901 N 93.1203 -1.57491 0.0584922 0
M  V30 902 C 94.3483 -1.97296 -0.623037 0
M  V30 903 C 94.7633 -0.936338 -1.63946 0
M  V30 904 O 94.1203 0.0785981 -1.82331 0
M  V30 905 C 94.1713 -3.37183 -1.30345 0
M  V30 906 O 93.8923 -4.36872 -0.32773 0
M  V30 907 C 95.3933 -3.91788 -2.07406 0
M  V30 908 H 92.6133 -0.649153 -0.169826 0
M  V30 909 H 95.1573 -2.04106 0.12696 0
M  V30 910 H 93.3123 -3.31502 -2.00463 0
M  V30 911 H 93.7263 -5.18141 -0.814269 0
M  V30 912 H 95.2003 -4.91926 -2.50425 0
M  V30 913 H 95.6773 -3.27609 -2.92521 0
M  V30 914 H 96.2833 -4.00829 -1.42184 0
M  V30 915 N 94.5984 0.214957 -1.56127 0
M  V30 916 C 95.5304 1.29004 -1.89448 0
M  V30 917 C 96.5434 1.42716 -0.783326 0
M  V30 918 O 97.7324 1.43496 -1.06166 0
M  V30 919 C 94.8324 2.66482 -2.09381 0
M  V30 920 C 94.0054 2.74633 -3.40434 0
M  V30 921 C 93.0644 3.9317 -3.49719 0
M  V30 922 O 92.0904 3.812 -4.227 0
M  V30 923 N 93.2924 5.07765 -2.81346 0
M  V30 924 H 96.0574 1.00743 -2.82261 0
M  V30 925 H 93.6184 0.40497 -1.56753 0
M  V30 926 H 95.6104 3.44173 -2.12901 0
M  V30 927 H 94.1804 2.87314 -1.23163 0
M  V30 928 H 93.4004 1.83368 -3.48955 0
M  V30 929 H 94.6884 2.77054 -4.26754 0
M  V30 930 H 94.0864 5.20386 -2.21843 0
M  V30 931 H 92.6434 5.83474 -2.90519 0
M  V30 932 N 96.0765 1.50051 0.48192 0
M  V30 933 C 97.3245 1.60181 1.23234 0
M  V30 934 C 97.6455 0.299176 1.92691 0
M  V30 935 O 96.9155 -0.682708 1.83619 0
M  V30 936 H 95.4955 0.590232 0.457859 0
M  V30 937 H 98.1575 1.86775 0.556881 0
M  V30 938 H 97.2535 2.40753 1.98607 0
M  V30 939 N 97.5546 -0.734337 1.39446 0
M  V30 940 C 98.4846 -1.86155 1.40955 0
M  V30 941 C 99.4656 -1.67898 0.272827 0
M  V30 942 O 100.651 -1.88207 0.478743 0
M  V30 943 C 97.7806 -3.23912 1.25294 0
M  V30 944 C 96.7346 -3.56808 2.36373 0
M  V30 945 C 96.0606 -4.93508 2.058 0
M  V30 946 C 97.3606 -3.59713 3.78687 0
M  V30 947 H 99.0546 -1.8515 2.35287 0
M  V30 948 H 96.6006 -0.889367 1.13253 0
M  V30 949 H 98.5536 -4.02443 1.2497 0
M  V30 950 H 97.2776 -3.25446 0.274308 0
M  V30 951 H 95.9366 -2.80606 2.35914 0
M  V30 952 H 95.5846 -4.91623 1.06374 0
M  V30 953 H 95.2846 -5.16486 2.80208 0
M  V30 954 H 96.8086 -5.74396 2.07128 0
M  V30 955 H 98.2226 -4.2832 3.81071 0
M  V30 956 H 96.6196 -3.94209 4.52459 0
M  V30 957 H 97.6896 -2.59504 4.09617 0
M  V30 958 N 99.0327 -1.24633 -0.964593 0
M  V30 959 C 100.263 -1.11339 -1.74032 0
M  V30 960 C 100.671 0.336593 -1.86182 0
M  V30 961 O 100.014 1.24389 -1.35178 0
M  V30 962 C 100.076 -1.68284 -3.1768 0
M  V30 963 C 99.7397 -3.17196 -3.28992 0
M  V30 964 C 100.737 -4.14308 -3.14078 0
M  V30 965 C 98.4217 -3.57215 -3.53133 0
M  V30 966 C 100.416 -5.4942 -3.23135 0
M  V30 967 C 98.1027 -4.92468 -3.61827 0
M  V30 968 C 99.1007 -5.8838 -3.46841 0
M  V30 969 O 98.7887 -7.21173 -3.55197 0
M  V30 970 H 98.5207 -0.389551 -0.552472 0
M  V30 971 H 101.075 -1.65282 -1.21946 0
M  V30 972 H 99.3047 -1.08777 -3.71085 0
M  V30 973 H 100.994 -1.50234 -3.77074 0
M  V30 974 H 101.76 -3.84731 -2.95308 0
M  V30 975 H 97.6387 -2.83063 -3.63863 0
M  V30 976 H 101.183 -6.24263 -3.11355 0
M  V30 977 H 97.0797 -5.21714 -3.80111 0
M  V30 978 H 97.8477 -7.29135 -3.71892 0
M  V30 979 N 100.511 1.16574 -1.06058 0
M  V30 980 C 101.759 1.86677 -0.77434 0
M  V30 981 C 102.08 1.81959 0.701147 0
M  V30 982 O 101.35 1.2515 1.50713 0
M  V30 983 H 99.9298 0.691134 -0.283449 0
M  V30 984 H 102.592 1.41378 -1.34158 0
M  V30 985 H 101.688 2.92181 -1.09711 0
M  V30 986 N 101.989 0.842826 1.3317 0
M  V30 987 C 103.236 0.440447 1.97652 0
M  V30 988 C 103.564 -1.00123 1.6675 0
M  V30 989 O 102.819 -1.7155 0.941761 0
M  V30 990 C 103.118 0.612607 3.52111 0
M  V30 991 C 102.784 2.02297 4.02972 0
M  V30 992 C 101.446 2.40874 4.16573 0
M  V30 993 C 103.798 2.94402 4.30089 0
M  V30 994 C 101.126 3.70852 4.54627 0
M  V30 995 C 103.478 4.23865 4.69597 0
M  V30 996 C 102.142 4.62392 4.81404 0
M  V30 997 H 101.412 0.161171 0.72326 0
M  V30 998 H 104.059 1.07061 1.58777 0
M  V30 999 H 102.364 -0.100849 3.9167 0
M  V30 1000 H 104.061 0.2815 4.00011 0
M  V30 1001 H 100.651 1.71338 3.92863 0
M  V30 1002 H 104.835 2.65835 4.19101 0
M  V30 1003 H 100.091 4.00501 4.61962 0
M  V30 1004 H 104.265 4.95306 4.89536 0
M  V30 1005 H 101.892 5.63154 5.10648 0
M  V30 1006 N 103.467 -1.45747 0.599634 0
M  V30 1007 C 104.713 -2.02592 0.0918643 0
M  V30 1008 C 105.046 -1.46806 -1.27128 0
M  V30 1009 O 104.321 -0.639658 -1.83681 0
M  V30 1010 C 104.604 -3.60073 0.0443398 0
M  V30 1011 C 104.457 -4.26208 1.43759 0
M  V30 1012 C 105.776 -4.35309 -0.647608 0
M  V30 1013 H 102.895 -0.736175 0.034857 0
M  V30 1014 H 105.537 -1.73694 0.770081 0
M  V30 1015 H 103.687 -3.84823 -0.533224 0
M  V30 1016 H 105.359 -4.12668 2.06162 0
M  V30 1017 H 103.602 -3.84916 2.00056 0
M  V30 1018 H 104.273 -5.35069 1.35665 0
M  V30 1019 H 106.749 -4.15805 -0.156776 0
M  V30 1020 H 105.625 -5.45038 -0.649942 0
M  V30 1021 H 105.886 -4.07598 -1.71219 0
M  V30 1022 N 104.945 -0.338344 -1.53925 0
M  V30 1023 C 106.194 0.260732 -2.00008 0
M  V30 1024 C 106.507 1.52073 -1.23017 0
M  V30 1025 O 107.713 2.19672 -1.5955 0
M  V30 1026 C 106.169 0.51515 -3.56194 0
M  V30 1027 C 105.777 -0.728645 -4.42035 0
M  V30 1028 C 107.521 1.07337 -4.10706 0
M  V30 1029 C 105.428 -0.445315 -5.89721 0
M  V30 1030 H 104.358 0.101205 -0.747177 0
M  V30 1031 H 107.009 -0.452866 -1.77824 0
M  V30 1032 H 105.391 1.28932 -3.74423 0
M  V30 1033 H 106.565 -1.50352 -4.35581 0
M  V30 1034 H 104.88 -1.20813 -3.98489 0
M  V30 1035 H 107.477 1.30022 -5.18651 0
M  V30 1036 H 107.82 2.0273 -3.63602 0
M  V30 1037 H 108.353 0.360034 -3.96167 0
M  V30 1038 H 105.092 -1.36883 -6.41049 0
M  V30 1039 H 104.612 0.291569 -5.99091 0
M  V30 1040 H 106.291 -0.0606218 -6.46972 0
M  V30 1041 N 106.423 1.57458 -0.0668435 0
M  V30 1042 C 107.386 2.11323 0.887422 0
M  V30 1043 C 108.386 1.03618 1.22964 0
M  V30 1044 O 109.576 1.29626 1.16373 0
M  V30 1045 C 106.708 2.61048 2.19242 0
M  V30 1046 H 107.901 2.96942 0.420194 0
M  V30 1047 H 105.454 1.55239 0.181793 0
M  V30 1048 H 106.189 1.78868 2.70512 0
M  V30 1049 H 105.974 3.39769 1.95702 0
M  V30 1050 H 107.464 3.02814 2.87565 0
M  V30 1051 N 107.901 -0.206675 1.56239 0
M  V30 1052 C 109.148 -0.928842 1.79941 0
M  V30 1053 C 109.476 -1.83734 0.638131 0
M  V30 1054 O 108.731 -1.92039 -0.376746 0
M  V30 1055 C 109.03 -1.78675 3.09532 0
M  V30 1056 C 108.696 -1.03022 4.38973 0
M  V30 1057 C 107.358 -0.821302 4.74139 0
M  V30 1058 C 109.71 -0.497081 5.18824 0
M  V30 1059 C 107.038 -0.0675719 5.86661 0
M  V30 1060 C 109.39 0.24338 6.32132 0
M  V30 1061 C 108.054 0.463422 6.65889 0
M  V30 1062 H 107.324 -0.339887 0.658451 0
M  V30 1063 H 109.971 -0.195977 1.90495 0
M  V30 1064 H 108.276 -2.58794 2.94165 0
M  V30 1065 H 109.973 -2.34792 3.25075 0
M  V30 1066 H 106.563 -1.20306 4.11369 0
M  V30 1067 H 110.747 -0.645921 4.92079 0
M  V30 1068 H 106.003 0.112995 6.11296 0
M  V30 1069 H 110.177 0.66393 6.93228 0
M  V30 1070 H 107.804 1.04938 7.52922 0
M  V30 1071 N 109.379 -1.50304 -0.473955 0
M  V30 1072 C 110.309 -1.71886 -1.58042 0
M  V30 1073 C 111.29 -0.567799 -1.60344 0
M  V30 1074 O 112.475 -0.806623 -1.76656 0
M  V30 1075 C 109.605 -1.81036 -2.96384 0
M  V30 1076 C 108.559 -2.962 -3.08949 0
M  V30 1077 C 107.885 -2.9049 -4.48909 0
M  V30 1078 C 109.185 -4.36752 -2.86434 0
M  V30 1079 H 110.879 -2.64527 -1.40234 0
M  V30 1080 H 108.425 -1.27295 -0.673201 0
M  V30 1081 H 110.378 -1.94719 -3.73714 0
M  V30 1082 H 109.102 -0.850147 -3.15341 0
M  V30 1083 H 107.761 -2.82164 -2.3405 0
M  V30 1084 H 107.409 -1.92321 -4.64781 0
M  V30 1085 H 107.109 -3.67802 -4.58253 0
M  V30 1086 H 108.633 -3.06218 -5.28264 0
M  V30 1087 H 110.047 -4.5133 -3.53517 0
M  V30 1088 H 108.444 -5.15493 -3.07225 0
M  V30 1089 H 109.514 -4.49321 -1.82316 0
M  V30 1090 N 110.857 0.726932 -1.39834 0
M  V30 1091 C 112.106 1.48214 -1.36805 0
M  V30 1092 C 112.419 1.95576 0.0305291 0
M  V30 1093 O 113.625 2.7088 0.183417 0
M  V30 1094 C 112.081 2.67854 -2.40379 0
M  V30 1095 C 111.689 2.27408 -3.85992 0
M  V30 1096 C 113.433 3.45641 -2.46439 0
M  V30 1097 C 111.34 3.43819 -4.81189 0
M  V30 1098 H 110.27 0.556606 -0.508631 0
M  V30 1099 H 112.921 0.792216 -1.65518 0
M  V30 1100 H 111.303 3.3896 -2.04749 0
M  V30 1101 H 112.477 1.63795 -4.30706 0
M  V30 1102 H 110.792 1.62692 -3.83302 0
M  V30 1103 H 113.389 4.32244 -3.14753 0
M  V30 1104 H 113.732 3.88669 -1.49139 0
M  V30 1105 H 114.265 2.8157 -2.81004 0
M  V30 1106 H 111.004 3.05834 -5.79781 0
M  V30 1107 H 110.524 4.06385 -4.41148 0
M  V30 1108 H 112.203 4.10043 -5.00474 0
M  V30 1109 N 112.336 1.25143 0.95797 0
M  V30 1110 C 113.583 1.09692 1.70217 0
M  V30 1111 C 113.911 -0.362654 1.91089 0
M  V30 1112 O 113.166 -1.28386 1.47701 0
M  V30 1113 C 113.465 1.79272 3.09187 0
M  V30 1114 C 113.131 3.29196 3.08125 0
M  V30 1115 C 111.793 3.70096 3.07543 0
M  V30 1116 C 114.145 4.24995 3.0171 0
M  V30 1117 C 111.473 5.05213 2.9829 0
M  V30 1118 C 113.825 5.60132 2.93999 0
M  V30 1119 C 112.489 6.00365 2.9175 0
M  V30 1120 H 111.759 0.401393 0.622868 0
M  V30 1121 H 114.406 1.55372 1.11945 0
M  V30 1122 H 112.711 1.26014 3.70982 0
M  V30 1123 H 114.408 1.64773 3.65583 0
M  V30 1124 H 110.998 2.96651 3.09348 0
M  V30 1125 H 115.182 3.9439 3.01281 0
M  V30 1126 H 110.438 5.35569 2.94916 0
M  V30 1127 H 114.612 6.3406 2.87996 0
M  V30 1128 H 112.239 7.05023 2.84336 0
M  V30 1129 N 113.814 -1.1601 1.06675 0
M  V30 1130 C 115.063 -1.85973 0.780818 0
M  V30 1131 C 115.376 -1.82819 -0.695444 0
M  V30 1132 O 116.582 -2.484 -1.09589 0
M  V30 1133 C 115.038 -3.33757 1.34665 0
M  V30 1134 C 114.646 -3.45374 2.85343 0
M  V30 1135 C 116.39 -4.0895 1.13843 0
M  V30 1136 C 114.297 -4.87266 3.35151 0
M  V30 1137 H 113.227 -0.696661 0.288407 0
M  V30 1138 H 115.878 -1.30903 1.28595 0
M  V30 1139 H 114.26 -3.88456 0.769274 0
M  V30 1140 H 115.434 -3.00816 3.49065 0
M  V30 1141 H 113.749 -2.83619 3.04876 0
M  V30 1142 H 116.346 -5.13654 1.4854 0
M  V30 1143 H 116.689 -4.16229 0.0770282 0
M  V30 1144 H 117.222 -3.605 1.68179 0
M  V30 1145 H 113.961 -4.85168 4.40786 0
M  V30 1146 H 113.481 -5.32433 2.76179 0
M  V30 1147 H 115.16 -5.56097 3.30704 0
M  V30 1148 N 115.292 -0.849877 -1.32721 0
M  V30 1149 C 116.24 -0.279745 -2.30912 0
M  V30 1150 C 117.234 0.594278 -1.58634 0
M  V30 1151 O 118.44 0.482613 -1.73409 0
M  V30 1152 H 114.815 -0.0717521 -0.748569 0
M  V30 1153 H 116.786 -1.12222 -2.76494 0
M  V30 1154 C 115.535 0.521108 -3.43773 0
M  V30 1155 H 114.858 -0.142141 -3.99547 0
M  V30 1156 H 116.298 0.885693 -4.14646 0
M  V30 1157 C 114.757 1.70442 -2.90605 0
M  V30 1158 O 115.287 2.8034 -2.87702 0
M  V30 1159 N 113.493 1.52991 -2.47067 0
M  V30 1160 H 113.04 0.635914 -2.49628 0
M  V30 1161 H 112.998 2.32311 -2.11847 0
M  V30 1162 N 116.77 1.45427 -0.607355 0
M  V30 1163 C 117.7 2.3329 0.0989352 0
M  V30 1164 C 118.681 1.46816 0.859007 0
M  V30 1165 O 119.866 1.75588 0.829604 0
M  V30 1166 C 116.996 3.29518 1.09705 0
M  V30 1167 C 115.95 4.25626 0.450206 0
M  V30 1168 C 115.276 5.11542 1.55655 0
M  V30 1169 C 116.576 5.18505 -0.628455 0
M  V30 1170 H 118.27 2.92595 -0.634716 0
M  V30 1171 H 115.816 1.40696 -0.306681 0
M  V30 1172 H 117.769 3.89855 1.59971 0
M  V30 1173 H 116.493 2.68372 1.86129 0
M  V30 1174 H 115.152 3.66586 -0.0315886 0
M  V30 1175 H 114.8 4.46765 2.31107 0
M  V30 1176 H 114.5 5.76647 1.12925 0
M  V30 1177 H 116.024 5.74748 2.06148 0
M  V30 1178 H 117.438 5.72916 -0.209877 0
M  V30 1179 H 115.835 5.92085 -0.977489 0
M  V30 1180 H 116.905 4.60948 -1.50514 0
M  V30 1181 N 118.248 0.346503 1.53744 0
M  V30 1182 C 119.496 -0.248612 2.00565 0
M  V30 1183 C 119.817 -1.5083 1.23593 0
M  V30 1184 O 119.087 -1.92858 0.343912 0
M  V30 1185 H 117.667 -0.0948564 0.740953 0
M  V30 1186 H 120.329 0.468341 1.89189 0
M  V30 1187 H 119.425 -0.488994 3.08245 0
M  V30 1188 N 119.726 -1.57421 0.075193 0
M  V30 1189 C 120.951 -1.98364 -0.605515 0
M  V30 1190 C 121.376 -0.953383 -1.62149 0
M  V30 1191 O 120.734 0.0806053 -1.81121 0
M  V30 1192 C 120.782 -3.38332 -1.24756 0
M  V30 1193 O 119.886 -3.37959 -2.36342 0
M  V30 1194 H 119.227 -0.645553 -0.155428 0
M  V30 1195 H 121.757 -2.04044 0.150714 0
M  V30 1196 H 121.767 -3.75591 -1.5936 0
M  V30 1197 H 120.442 -4.12846 -0.503129 0
M  V30 1198 H 119.019 -3.12474 -2.03506 0
M  V30 1199 N 121.204 0.198386 -1.56346 0
M  V30 1200 C 122.481 0.944982 -1.71258 0
M  V30 1201 C 122.861 2.0151 -0.629048 0
M  V30 1202 O 122.209 2.25639 0.360473 0
M  V30 1203 C 122.419 1.5344 -3.1346 0
M  V30 1204 C 123.767 2.01778 -3.73591 0
M  V30 1205 O 124.791 1.63288 -3.16568 0
M  V30 1206 O 123.65 2.72594 -4.73661 0
M  V30 1207 H 120.744 0.442939 -0.69838 0
M  V30 1208 H 123.29 0.188342 -1.68652 0
M  V30 1209 H 122.062 0.762869 -3.83792 0
M  V30 1210 H 121.685 2.35596 -3.20282 0
M  V30 1211 N 122.682 1.50554 0.465978 0
M  V30 1212 C 123.615 1.64436 1.58227 0
M  V30 1213 C 124.593 0.492367 1.54966 0
M  V30 1214 O 125.777 0.712536 1.74514 0
M  V30 1215 C 122.904 1.63165 2.96808 0
M  V30 1216 C 121.95 2.83987 3.18204 0
M  V30 1217 S 122.783 4.45219 2.97557 0
M  V30 1218 C 123.939 4.46649 4.3847 0
M  V30 1219 H 124.172 2.58861 1.46213 0
M  V30 1220 H 121.705 1.3988 0.653678 0
M  V30 1221 H 123.663 1.63116 3.76701 0
M  V30 1222 H 122.324 0.69967 3.06208 0
M  V30 1223 H 121.517 2.79416 4.19455 0
M  V30 1224 H 121.119 2.81629 2.46092 0
M  V30 1225 H 123.411 4.20526 5.31191 0
M  V30 1226 H 124.354 5.48295 4.48082 0
M  V30 1227 H 124.762 3.76296 4.20787 0
M  V30 1228 N 124.16 -0.719506 1.40217 0
M  V30 1229 C 125.385 -1.51371 1.4178 0
M  V30 1230 C 125.81 -1.88091 0.0182355 0
M  V30 1231 O 125.168 -1.52997 -0.972707 0
M  V30 1232 C 125.216 -2.768 2.31115 0
M  V30 1233 O 124.32 -3.73349 1.7517 0
M  V30 1234 H 123.661 -0.456529 0.482159 0
M  V30 1235 H 126.191 -0.88644 1.844 0
M  V30 1236 H 126.201 -3.25371 2.46167 0
M  V30 1237 H 124.876 -2.49407 3.3282 0
M  V30 1238 H 123.453 -3.32179 1.69444 0
M  V30 1239 N 125.638 -1.25649 -0.95132 0
M  V30 1240 C 126.884 -1.10757 -1.69884 0
M  V30 1241 C 127.217 0.350061 -1.91019 0
M  V30 1242 O 126.492 1.25783 -1.48354 0
M  V30 1243 C 126.775 -1.86606 -3.07978 0
M  V30 1244 C 126.628 -3.40217 -2.94232 0
M  V30 1245 C 127.947 -1.65182 -4.07925 0
M  V30 1246 H 125.066 -0.40374 -0.616574 0
M  V30 1247 H 127.708 -1.54521 -1.10558 0
M  V30 1248 H 125.858 -1.49409 -3.58621 0
M  V30 1249 H 127.53 -3.87108 -2.50889 0
M  V30 1250 H 125.773 -3.67759 -2.30078 0
M  V30 1251 H 126.444 -3.88505 -3.92133 0
M  V30 1252 H 128.92 -1.9757 -3.66204 0
M  V30 1253 H 127.796 -2.20683 -5.02583 0
M  V30 1254 H 128.057 -0.593933 -4.38092 0
M  V30 1255 N 127.117 1.15442 -1.07289 0
M  V30 1256 C 128.363 1.86489 -0.796846 0
M  V30 1257 C 128.696 1.82078 0.675371 0
M  V30 1258 O 127.971 1.24346 1.4956 0
M  V30 1259 C 128.254 3.35626 -1.30489 0
M  V30 1260 C 128.107 3.48673 -2.84161 0
M  V30 1261 C 129.426 4.30357 -0.920907 0
M  V30 1262 H 126.545 0.677144 -0.290939 0
M  V30 1263 H 129.187 1.35633 -1.33056 0
M  V30 1264 H 127.337 3.79068 -0.850883 0
M  V30 1265 H 129.009 3.14099 -3.37846 0
M  V30 1266 H 127.252 2.90253 -3.22391 0
M  V30 1267 H 127.923 4.53453 -3.14777 0
M  V30 1268 H 130.399 3.94871 -1.3121 0
M  V30 1269 H 129.275 5.33193 -1.30372 0
M  V30 1270 H 129.536 4.4176 0.173226 0
M  V30 1271 N 128.595 0.856903 1.32268 0
M  V30 1272 C 129.527 0.260412 2.27716 0
M  V30 1273 C 130.54 -0.569137 1.52528 0
M  V30 1274 O 131.729 -0.39326 1.74114 0
M  V30 1275 C 128.829 -0.650477 3.32599 0
M  V30 1276 C 128.002 0.14372 4.37164 0
M  V30 1277 C 127.061 -0.69328 5.21613 0
M  V30 1278 O 126.087 -0.12599 5.69061 0
M  V30 1279 N 127.289 -2.00761 5.44679 0
M  V30 1280 H 130.054 1.08059 2.79541 0
M  V30 1281 H 127.615 0.717103 1.45152 0
M  V30 1282 H 129.607 -1.21581 3.86005 0
M  V30 1283 H 128.177 -1.37133 2.80915 0
M  V30 1284 H 127.397 0.890486 3.8401 0
M  V30 1285 H 128.685 0.68915 5.04111 0
M  V30 1286 H 128.083 -2.49181 5.07863 0
M  V30 1287 H 126.64 -2.52103 6.01072 0
M  V30 1288 N 130.073 -1.45103 0.615059 0
M  V30 1289 C 131.321 -2.01784 0.112955 0
M  V30 1290 C 131.642 -1.48504 -1.26378 0
M  V30 1291 O 130.912 -0.682245 -1.83636 0
M  V30 1292 H 129.492 -0.745993 0.0387668 0
M  V30 1293 H 132.154 -1.77808 0.798141 0
M  V30 1294 H 131.25 -3.12025 0.0684069 0
M  V30 1295 N 131.551 -0.354651 -1.53558 0
M  V30 1296 C 132.481 0.489091 -2.2832 0
M  V30 1297 C 133.462 1.09324 -1.30316 0
M  V30 1298 O 134.647 1.11255 -1.59173 0
M  V30 1299 C 131.777 1.63456 -3.0643 0
M  V30 1300 C 130.731 1.1582 -4.12031 0
M  V30 1301 C 130.057 2.39305 -4.7816 0
M  V30 1302 C 131.357 0.250731 -5.21698 0
M  V30 1303 H 133.051 -0.134614 -2.99097 0
M  V30 1304 H 130.597 -0.0661826 -1.43848 0
M  V30 1305 H 132.55 2.23136 -3.57475 0
M  V30 1306 H 131.274 2.28533 -2.33325 0
M  V30 1307 H 129.933 0.584146 -3.61916 0
M  V30 1308 H 129.581 3.02814 -4.01637 0
M  V30 1309 H 129.281 2.08109 -5.49513 0
M  V30 1310 H 130.805 2.99691 -5.31994 0
M  V30 1311 H 132.219 0.754695 -5.68311 0
M  V30 1312 H 130.616 0.0301468 -6.00092 0
M  V30 1313 H 131.686 -0.710125 -4.79672 0
M  V30 1314 N 133.029 1.57378 -0.0835403 0
M  V30 1315 C 133.977 2.14602 0.89714 0
M  V30 1316 C 134.971 1.08589 1.30018 0
M  V30 1317 O 136.177 1.26952 1.27606 0
M  V30 1318 H 132.552 0.686346 0.3073 0
M  V30 1319 H 134.523 2.95845 0.38969 0
M  V30 1320 C 133.272 2.73188 2.15089 0
M  V30 1321 H 132.595 3.54442 1.84962 0
M  V30 1322 H 134.035 3.1681 2.81793 0
M  V30 1323 C 132.494 1.68517 2.91725 0
M  V30 1324 O 133.024 1.11718 3.85852 0
M  V30 1325 N 131.23 1.39277 2.55049 0
M  V30 1326 H 130.777 1.85655 1.78577 0
M  V30 1327 H 130.735 0.694791 3.06627 0
M  V30 1328 N 134.507 -0.190092 1.56449 0
M  V30 1329 C 135.754 -0.909705 1.80916 0
M  V30 1330 C 136.082 -1.83047 0.657583 0
M  V30 1331 O 135.337 -1.92428 -0.356356 0
M  V30 1332 C 135.636 -1.75382 3.1141 0
M  V30 1333 C 135.302 -0.983606 4.40041 0
M  V30 1334 C 133.964 -0.770967 4.74984 0
M  V30 1335 C 136.316 -0.442024 5.19322 0
M  V30 1336 C 133.644 -0.0053448 5.867 0
M  V30 1337 C 135.996 0.310412 6.31838 0
M  V30 1338 C 134.66 0.534023 6.6536 0
M  V30 1339 H 133.93 -0.332885 0.662019 0
M  V30 1340 H 136.577 -0.175762 1.90692 0
M  V30 1341 H 134.882 -2.55659 2.96893 0
M  V30 1342 H 136.579 -2.31331 3.27547 0
M  V30 1343 H 133.169 -1.15936 4.12622 0
M  V30 1344 H 137.353 -0.593693 4.92736 0
M  V30 1345 H 132.609 0.177825 6.11141 0
M  V30 1346 H 136.783 0.737419 6.92485 0
M  V30 1347 H 134.41 1.12918 7.51767 0
M  V30 1348 N 135.985 -1.50799 -0.457987 0
M  V30 1349 C 136.915 -1.73553 -1.5621 0
M  V30 1350 C 137.896 -0.584774 -1.59732 0
M  V30 1351 O 139.081 -0.825314 -1.7579 0
M  V30 1352 C 136.211 -1.84169 -2.94447 0
M  V30 1353 C 135.165 -2.99461 -3.0579 0
M  V30 1354 C 134.491 -2.95235 -4.45803 0
M  V30 1355 C 135.791 -4.39766 -2.81786 0
M  V30 1356 H 137.485 -2.66 -1.37421 0
M  V30 1357 H 135.031 -1.28002 -0.659662 0
M  V30 1358 H 136.984 -1.98672 -3.71628 0
M  V30 1359 H 135.708 -0.883545 -3.14422 0
M  V30 1360 H 134.367 -2.8463 -2.31044 0
M  V30 1361 H 134.015 -1.97239 -4.62715 0
M  V30 1362 H 133.715 -3.72642 -4.54326 0
M  V30 1363 H 135.239 -3.11803 -5.24987 0
M  V30 1364 H 136.653 -4.55054 -3.4871 0
M  V30 1365 H 135.05 -5.18722 -3.0174 0
M  V30 1366 H 136.12 -4.51229 -1.7754 0
M  V30 1367 N 137.463 0.71206 -1.40597 0
M  V30 1368 C 138.711 1.46907 -1.38791 0
M  V30 1369 C 139.032 1.94998 0.00780391 0
M  V30 1370 O 138.302 1.70587 0.963174 0
M  V30 1371 H 136.882 0.545043 -0.51082 0
M  V30 1372 H 139.544 0.843882 -1.75683 0
M  V30 1373 H 138.64 2.34021 -2.06496 0
M  V30 1374 N 138.941 1.26152 0.944643 0
M  V30 1375 C 139.904 1.07474 2.0244 0
M  V30 1376 C 140.904 0.0242064 1.60782 0
M  V30 1377 O 142.094 0.267302 1.72137 0
M  V30 1378 C 139.226 0.633956 3.34953 0
M  V30 1379 H 140.419 2.03336 2.20442 0
M  V30 1380 H 137.972 1.087 1.12312 0
M  V30 1381 H 138.707 -0.326811 3.22649 0
M  V30 1382 H 138.492 1.39247 3.66542 0
M  V30 1383 H 139.982 0.52501 4.14287 0
M  V30 1384 N 140.419 -1.14872 1.07899 0
M  V30 1385 C 141.644 -1.90202 0.826926 0
M  V30 1386 C 142.069 -1.77774 -0.614664 0
M  V30 1387 O 141.427 -1.11431 -1.43013 0
M  V30 1388 C 141.475 -3.38352 1.24702 0
M  V30 1389 O 140.579 -4.10497 0.39575 0
M  V30 1390 H 139.92 -0.591968 0.300782 0
M  V30 1391 H 142.45 -1.45437 1.43907 0
M  V30 1392 H 142.46 -3.89156 1.22563 0
M  V30 1393 H 141.135 -3.46715 2.29698 0
M  V30 1394 H 139.712 -3.69796 0.480117 0
M  V30 1395 N 141.898 -0.863906 -1.31812 0
M  V30 1396 C 142.828 -0.330843 -2.31144 0
M  V30 1397 C 143.809 0.575005 -1.60087 0
M  V30 1398 O 144.994 0.493304 -1.8783 0
M  V30 1399 C 142.124 0.47374 -3.44054 0
M  V30 1400 C 141.078 -0.338481 -4.26659 0
M  V30 1401 C 140.404 0.591412 -5.31419 0
M  V30 1402 C 141.704 -1.56926 -4.98168 0
M  V30 1403 H 143.398 -1.16086 -2.75979 0
M  V30 1404 H 140.944 -0.559657 -1.32679 0
M  V30 1405 H 142.897 0.857143 -4.12591 0
M  V30 1406 H 141.621 1.33721 -2.9797 0
M  V30 1407 H 140.28 -0.703754 -3.59782 0
M  V30 1408 H 139.928 1.45199 -4.81587 0
M  V30 1409 H 139.628 0.0519022 -5.87577 0
M  V30 1410 H 141.152 0.97179 -6.02817 0
M  V30 1411 H 142.566 -1.25764 -5.59336 0
M  V30 1412 H 140.963 -2.04739 -5.64094 0
M  V30 1413 H 142.033 -2.32544 -4.25501 0
M  V30 1414 N 143.376 1.44774 -0.622745 0
M  V30 1415 C 144.787 1.85546 -0.207226 0
M  V30 1416 C 145.138 1.52093 1.23944 0
M  V30 1417 O 144.263 0.95492 1.94191 0
M  V30 1418 C 144.858 3.36781 -0.369313 0
M  V30 1419 C 143.417 3.76399 -0.00836847 0
M  V30 1420 C 142.564 2.68664 -0.686651 0
M  V30 1421 H 145.515 1.3536 -0.828454 0
M  V30 1422 H 145.536 3.78453 0.394162 0
M  V30 1423 H 145.048 3.61098 -1.42231 0
M  V30 1424 H 143.149 3.57698 1.04322 0
M  V30 1425 H 143.262 4.7732 -0.412584 0
M  V30 1426 H 141.626 2.54404 -0.122777 0
M  V30 1427 H 142.409 2.95815 -1.74208 0
M  V30 1428 N 144.854 0.36279 1.53368 0
M  V30 1429 C 146.103 -0.22888 2.00397 0
M  V30 1430 C 146.416 -1.50096 1.25421 0
M  V30 1431 O 147.622 -2.17106 1.63025 0
M  V30 1432 C 146.078 -0.458417 3.56969 0
M  V30 1433 C 145.686 0.798877 4.4082 0
M  V30 1434 C 147.43 -1.00789 4.12361 0
M  V30 1435 C 145.337 0.539078 5.88938 0
M  V30 1436 H 144.267 -0.089305 0.748693 0
M  V30 1437 H 146.918 0.481099 1.77081 0
M  V30 1438 H 145.3 -1.22959 3.76427 0
M  V30 1439 H 146.474 1.57262 4.33134 0
M  V30 1440 H 144.789 1.27137 3.96516 0
M  V30 1441 H 147.386 -1.21754 5.20653 0
M  V30 1442 H 147.729 -1.9692 3.66781 0
M  V30 1443 H 148.262 -0.296961 3.9669 0
M  V30 1444 H 145.001 1.47064 6.3879 0
M  V30 1445 H 144.521 -0.196222 5.99479 0
M  V30 1446 H 146.2 0.163542 6.46793 0
M  V30 1447 N 146.332 -1.57332 0.0918853 0
M  V30 1448 C 147.295 -2.12708 -0.85369 0
M  V30 1449 C 148.295 -1.05561 -1.213 0
M  V30 1450 O 149.485 -1.31461 -1.14296 0
M  V30 1451 C 146.617 -2.64503 -2.15061 0
M  V30 1452 H 147.81 -2.97573 -0.3729 0
M  V30 1453 H 145.363 -1.55509 -0.157072 0
M  V30 1454 H 146.098 -1.83149 -2.67632 0
M  V30 1455 H 145.883 -3.4284 -1.90272 0
M  V30 1456 H 147.373 -3.07351 -2.82711 0
M  V30 1457 N 147.81 0.181792 -1.56548 0
M  V30 1458 C 149.057 0.900097 -1.81396 0
M  V30 1459 C 149.385 1.82695 -0.667281 0
M  V30 1460 O 148.64 1.92614 0.346146 0
M  V30 1461 C 148.939 1.73728 -3.12335 0
M  V30 1462 C 148.605 0.960255 -4.40556 0
M  V30 1463 C 147.267 0.745766 -4.75386 0
M  V30 1464 C 149.619 0.414477 -5.19549 0
M  V30 1465 C 146.947 -0.0257694 -5.86694 0
M  V30 1466 C 149.299 -0.343916 -6.31664 0
M  V30 1467 C 147.963 -0.569301 -6.65068 0
M  V30 1468 H 147.233 0.329369 -0.663775 0
M  V30 1469 H 149.88 0.165647 -1.90782 0
M  V30 1470 H 148.185 2.54081 -2.98245 0
M  V30 1471 H 149.882 2.29591 -3.28769 0
M  V30 1472 H 146.472 1.13746 -4.13231 0
M  V30 1473 H 150.656 0.567554 -4.93044 0
M  V30 1474 H 145.912 -0.210233 -6.11038 0
M  V30 1475 H 150.086 -0.774133 -6.92084 0
M  V30 1476 H 147.713 -1.16903 -7.51158 0
M  V30 1477 N 149.288 1.51039 0.449983 0
M  V30 1478 C 150.516 1.66869 1.2232 0
M  V30 1479 C 150.931 0.360727 1.85322 0
M  V30 1480 O 150.288 -0.659531 1.70166 0
M  V30 1481 C 150.339 2.77524 2.31652 0
M  V30 1482 O 150.06 4.03252 1.7123 0
M  V30 1483 C 151.561 3.04512 3.2216 0
M  V30 1484 H 148.781 0.560326 0.369155 0
M  V30 1485 H 151.325 1.97385 0.534719 0
M  V30 1486 H 149.48 2.49642 2.96239 0
M  V30 1487 H 149.894 4.64609 2.43389 0
M  V30 1488 H 151.368 3.85551 3.95038 0
M  V30 1489 H 151.845 2.16415 3.8218 0
M  V30 1490 H 152.451 3.34005 2.63288 0
M  V30 1491 N 150.766 -0.704594 1.40972 0
M  V30 1492 C 152.014 -1.46169 1.39568 0
M  V30 1493 C 152.335 -1.95 0.00253745 0
M  V30 1494 O 151.605 -1.71095 -0.954114 0
M  V30 1495 H 150.185 -0.542326 0.513704 0
M  V30 1496 H 152.847 -0.834553 1.76128 0
M  V30 1497 H 151.943 -2.32922 2.07735 0
M  V30 1498 N 152.244 -1.26651 -0.937939 0
M  V30 1499 C 153.174 -1.10993 -2.05433 0
M  V30 1500 C 154.155 -0.0142161 -1.70094 0
M  V30 1501 O 155.34 -0.186837 -1.93299 0
M  V30 1502 C 152.47 -0.745561 -3.39203 0
M  V30 1503 C 151.424 -1.79337 -3.88616 0
M  V30 1504 C 150.75 -1.28324 -5.19073 0
M  V30 1505 C 152.05 -3.19553 -4.13138 0
M  V30 1506 H 153.744 -2.0438 -2.1879 0
M  V30 1507 H 151.29 -0.984041 -1.05131 0
M  V30 1508 H 153.243 -0.622888 -4.16771 0
M  V30 1509 H 151.967 0.22401 -3.25831 0
M  V30 1510 H 150.626 -1.90477 -3.13231 0
M  V30 1511 H 150.274 -0.303414 -5.02084 0
M  V30 1512 H 149.974 -1.98369 -5.53103 0
M  V30 1513 H 151.498 -1.1733 -5.99221 0
M  V30 1514 H 152.912 -3.11471 -4.81309 0
M  V30 1515 H 151.309 -3.87218 -4.58457 0
M  V30 1516 H 152.379 -3.65368 -3.18801 0
M  V30 1517 N 153.722 1.14298 -1.08507 0
M  V30 1518 C 154.969 1.85359 -0.815373 0
M  V30 1519 C 155.297 1.83001 0.658865 0
M  V30 1520 O 154.552 1.25655 1.50031 0
M  V30 1521 C 154.851 3.33547 -1.28379 0
M  V30 1522 C 154.517 3.56093 -2.76602 0
M  V30 1523 C 153.179 3.61955 -3.17084 0
M  V30 1524 C 155.531 3.64834 -3.72217 0
M  V30 1525 C 152.859 3.74082 -4.51973 0
M  V30 1526 C 155.211 3.78487 -5.06883 0
M  V30 1527 C 153.875 3.82598 -5.46969 0
M  V30 1528 H 153.145 0.678276 -0.298366 0
M  V30 1529 H 155.792 1.35002 -1.35819 0
M  V30 1530 H 154.097 3.86191 -0.660593 0
M  V30 1531 H 155.794 3.86959 -1.05186 0
M  V30 1532 H 152.384 3.52179 -2.4427 0
M  V30 1533 H 156.568 3.59595 -3.42061 0
M  V30 1534 H 151.824 3.75527 -4.82483 0
M  V30 1535 H 155.998 3.84193 -5.80834 0
M  V30 1536 H 153.625 3.91747 -6.51489 0
M  V30 1537 N 155.201 0.870884 1.31352 0
M  V30 1538 C 156.426 0.495957 2.01383 0
M  V30 1539 C 156.851 -0.904324 1.64935 0
M  V30 1540 O 156.209 -1.59687 0.858466 0
M  V30 1541 C 156.257 0.661433 3.54482 0
M  V30 1542 O 155.361 -0.298851 4.11316 0
M  V30 1543 H 154.702 0.197158 0.634054 0
M  V30 1544 H 157.232 1.17455 1.67527 0
M  V30 1545 H 157.242 0.555072 4.04207 0
M  V30 1546 H 155.917 1.68246 3.8035 0
M  V30 1547 H 154.494 -0.147368 3.72609 0
M  V30 1548 N 156.679 -1.44442 0.630414 0
M  V30 1549 C 157.927 -2.01653 0.134351 0
M  V30 1550 C 158.248 -1.49836 -1.24796 0
M  V30 1551 O 157.518 -0.701684 -1.82902 0
M  V30 1552 H 156.098 -0.74554 0.0466769 0
M  V30 1553 H 158.76 -1.76952 0.816955 0
M  V30 1554 H 157.856 -3.11935 0.101498 0
M  V30 1555 N 158.157 -0.370918 -1.53173 0
M  V30 1556 C 159.406 0.218249 -2.00516 0
M  V30 1557 C 159.719 1.49429 -1.26215 0
M  V30 1558 O 160.925 2.16239 -1.64174 0
M  V30 1559 C 159.381 0.43948 -3.57207 0
M  V30 1560 C 158.989 -0.822244 -4.4039 0
M  V30 1561 C 160.733 0.986012 -4.1289 0
M  V30 1562 C 158.64 -0.570304 -5.88644 0
M  V30 1563 H 157.57 0.0853333 -0.749156 0
M  V30 1564 H 160.221 -0.490483 -1.76823 0
M  V30 1565 H 158.603 1.20961 -3.77074 0
M  V30 1566 H 159.777 -1.59557 -4.32294 0
M  V30 1567 H 158.092 -1.29238 -3.95836 0
M  V30 1568 H 160.689 1.18991 -5.21292 0
M  V30 1569 H 161.032 1.94972 -3.6782 0
M  V30 1570 H 161.565 0.27592 -3.96842 0
M  V30 1571 H 158.304 -1.50449 -6.38001 0
M  V30 1572 H 157.824 0.164427 -5.99575 0
M  V30 1573 H 159.503 -0.19784 -6.46697 0
M  V30 1574 N 159.635 1.57281 -0.100228 0
M  V30 1575 C 160.598 2.13158 0.842398 0
M  V30 1576 C 161.598 1.06202 1.20738 0
M  V30 1577 O 162.788 1.32066 1.13597 0
M  V30 1578 C 159.92 2.65639 2.13655 0
M  V30 1579 H 161.113 2.97766 0.357114 0
M  V30 1580 H 158.666 1.5559 0.148823 0
M  V30 1581 H 159.401 1.84566 2.66657 0
M  V30 1582 H 159.186 3.43844 1.88451 0
M  V30 1583 H 160.676 3.08846 2.81077 0
M  V30 1584 N 161.113 -0.173488 1.56642 0
M  V30 1585 C 162.045 -1.23935 1.92802 0
M  V30 1586 C 163.058 -1.40589 0.820889 0
M  V30 1587 O 164.247 -1.40631 1.09933 0
M  V30 1588 C 161.347 -2.60837 2.16373 0
M  V30 1589 C 160.52 -2.6551 3.47596 0
M  V30 1590 C 159.579 -3.8376 3.60021 0
M  V30 1591 O 158.605 -3.69859 4.32658 0
M  V30 1592 N 159.807 -5.00127 2.94709 0
M  V30 1593 H 162.572 -0.932236 2.84832 0
M  V30 1594 H 160.133 -0.363268 1.57772 0
M  V30 1595 H 162.125 -3.38407 2.21952 0
M  V30 1596 H 160.695 -2.83948 1.30738 0
M  V30 1597 H 159.915 -1.74052 3.53694 0
M  V30 1598 H 161.203 -2.65641 4.33949 0
M  V30 1599 H 160.601 -5.14322 2.35563 0
M  V30 1600 H 159.158 -5.75567 3.05886 0
M  V30 1601 N 162.591 -1.51276 -0.441967 0
M  V30 1602 C 163.839 -1.63392 -1.18943 0
M  V30 1603 C 164.16 -0.350159 -1.9183 0
M  V30 1604 O 163.43 0.633784 -1.85364 0
M  V30 1605 H 162.01 -0.602164 -0.442049 0
M  V30 1606 H 164.672 -1.88186 -0.507165 0
M  V30 1607 H 163.768 -2.45934 -1.92154 0
M  V30 1608 N 164.069 0.697108 -1.41344 0
M  V30 1609 C 165.016 1.81106 -1.43071 0
M  V30 1610 C 165.986 1.63632 -0.285275 0
M  V30 1611 O 167.171 1.84504 -0.486091 0
M  V30 1612 C 164.311 3.18975 -1.31715 0
M  V30 1613 C 163.424 3.47892 -2.56115 0
M  V30 1614 C 162.559 4.75367 -2.37064 0
M  V30 1615 C 161.598 4.97247 -3.56948 0
M  V30 1616 N 160.735 6.15947 -3.36977 0
M  V30 1617 H 165.575 1.78965 -2.38276 0
M  V30 1618 H 163.112 0.873975 -1.18322 0
M  V30 1619 H 165.07 3.98615 -1.23133 0
M  V30 1620 H 163.7 3.20297 -0.401183 0
M  V30 1621 H 162.752 2.62669 -2.75153 0
M  V30 1622 H 164.064 3.59962 -3.45295 0
M  V30 1623 H 163.218 5.63059 -2.25941 0
M  V30 1624 H 161.957 4.65541 -1.45338 0
M  V30 1625 H 160.962 4.08004 -3.68527 0
M  V30 1626 H 162.187 5.08934 -4.49626 0
M  V30 1627 H 160.133 6.07336 -2.47949 0
M  V30 1628 H 160.05 6.28777 -4.19732 0
M  V30 1629 H 161.318 7.06377 -3.29623 0
M  V30 1630 N 165.547 1.27147 0.931209 0
M  V30 1631 C 166.793 1.13446 1.68101 0
M  V30 1632 C 167.126 -0.319628 1.91552 0
M  V30 1633 O 166.401 -1.23407 1.50336 0
M  V30 1634 C 166.684 1.91482 3.0497 0
M  V30 1635 C 166.537 3.44855 2.88782 0
M  V30 1636 C 167.856 1.71651 4.05246 0
M  V30 1637 H 164.975 0.413498 0.610072 0
M  V30 1638 H 167.617 1.56261 1.08086 0
M  V30 1639 H 165.767 1.55095 3.56199 0
M  V30 1640 H 167.439 3.9105 2.44698 0
M  V30 1641 H 165.682 3.71373 2.24198 0
M  V30 1642 H 166.353 3.94694 3.85902 0
M  V30 1643 H 168.829 2.0337 3.63015 0
M  V30 1644 H 167.705 2.28651 4.99009 0
M  V30 1645 H 167.966 0.663555 4.37092 0
M  V30 1646 N 167.025 -1.13721 1.09112 0
M  V30 1647 C 167.988 -2.17222 0.731241 0
M  V30 1648 C 168.988 -1.59035 -0.237566 0
M  V30 1649 O 170.178 -1.74192 -0.0161704 0
M  V30 1650 C 167.31 -3.40804 0.0808443 0
M  V30 1651 H 168.503 -2.50573 1.64783 0
M  V30 1652 H 166.056 -1.28493 0.889897 0
M  V30 1653 H 166.791 -3.1304 -0.847127 0
M  V30 1654 H 166.576 -3.84306 0.777896 0
M  V30 1655 H 168.066 -4.1731 -0.155657 0
M  V30 1656 N 168.503 -0.877838 -1.30888 0
M  V30 1657 C 169.466 -0.344265 -2.266 0
M  V30 1658 C 170.466 0.50922 -1.52524 0
M  V30 1659 O 171.656 0.317398 -1.71284 0
M  V30 1660 C 168.788 0.510198 -3.37061 0
M  V30 1661 H 169.981 -1.1893 -2.7531 0
M  V30 1662 H 167.534 -0.654088 -1.41956 0
M  V30 1663 H 168.269 1.37612 -2.93655 0
M  V30 1664 H 168.054 -0.101047 -3.9197 0
M  V30 1665 H 169.544 0.875537 -4.08319 0
M  V30 1666 N 169.982 1.44106 -0.638065 0
M  V30 1667 C 170.945 2.29138 0.0531013 0
M  V30 1668 C 171.945 1.41409 0.765506 0
M  V30 1669 O 173.135 1.63206 0.609046 0
M  V30 1670 C 170.267 3.23144 1.08584 0
M  V30 1671 H 171.46 2.91739 -0.694883 0
M  V30 1672 H 169.013 1.51134 -0.398538 0
M  V30 1673 H 169.748 2.65408 1.86357 0
M  V30 1674 H 169.533 3.87804 0.578852 0
M  V30 1675 H 171.023 3.87004 1.56899 0
M  V30 1676 N 171.46 0.379036 1.52974 0
M  V30 1677 C 172.708 -0.206014 2.01047 0
M  V30 1678 C 173.029 -1.48175 1.26765 0
M  V30 1679 O 172.299 -1.92085 0.384743 0
M  V30 1680 H 170.879 -0.0791184 0.742798 0
M  V30 1681 H 173.541 0.508366 1.88153 0
M  V30 1682 H 172.637 -0.423501 3.09213 0
M  V30 1683 N 172.938 -1.57226 0.108567 0
M  V30 1684 C 174.187 -1.94008 -0.551703 0
M  V30 1685 C 174.5 -0.993442 -1.68494 0
M  V30 1686 O 175.706 -1.25551 -2.40726 0
M  V30 1687 C 174.162 -3.44763 -1.03279 0
M  V30 1688 C 173.77 -4.47943 0.0714193 0
M  V30 1689 C 175.514 -3.90483 -1.66503 0
M  V30 1690 C 173.421 -5.89865 -0.425779 0
M  V30 1691 H 172.351 -0.724206 -0.209863 0
M  V30 1692 H 175.002 -1.82547 0.186741 0
M  V30 1693 H 173.384 -3.51422 -1.82533 0
M  V30 1694 H 174.558 -4.52942 0.847365 0
M  V30 1695 H 172.873 -4.11913 0.609669 0
M  V30 1696 H 175.47 -4.93925 -2.04798 0
M  V30 1697 H 175.813 -3.29877 -2.53942 0
M  V30 1698 H 176.346 -3.86581 -0.938074 0
M  V30 1699 H 173.085 -6.54202 0.412316 0
M  V30 1700 H 172.605 -5.88309 -1.16843 0
M  V30 1701 H 174.284 -6.40844 -0.890397 0
M  V30 1702 N 174.416 0.165178 -1.56732 0
M  V30 1703 C 175.348 1.22911 -1.93457 0
M  V30 1704 C 176.361 1.40152 -0.828333 0
M  V30 1705 O 177.55 1.40046 -1.10677 0
M  V30 1706 C 174.65 2.59686 -2.17753 0
M  V30 1707 C 173.823 2.63663 -3.48999 0
M  V30 1708 C 172.882 3.81845 -3.62051 0
M  V30 1709 O 171.908 3.67559 -4.34613 0
M  V30 1710 N 173.11 4.98557 -2.97357 0
M  V30 1711 H 175.875 0.917118 -2.85323 0
M  V30 1712 H 173.436 0.354895 -1.57962 0
M  V30 1713 H 175.428 3.37225 -2.23743 0
M  V30 1714 H 173.998 2.83251 -1.32242 0
M  V30 1715 H 173.218 1.72173 -3.54612 0
M  V30 1716 H 174.506 2.63336 -4.35352 0
M  V30 1717 H 173.904 5.13065 -2.38287 0
M  V30 1718 H 172.461 5.73936 -3.08934 0
M  V30 1719 N 175.894 1.51508 0.433938 0
M  V30 1720 C 177.143 1.63578 1.18005 0
M  V30 1721 C 177.456 0.359514 1.92268 0
M  V30 1722 O 178.662 0.359632 2.69108 0
M  V30 1723 C 177.118 2.88901 2.14626 0
M  V30 1724 C 176.726 4.23544 1.45995 0
M  V30 1725 C 178.47 3.10328 2.89649 0
M  V30 1726 C 176.377 5.40014 2.4112 0
M  V30 1727 H 175.307 0.609277 0.444182 0
M  V30 1728 H 177.958 1.77978 0.446773 0
M  V30 1729 H 176.34 2.68142 2.91403 0
M  V30 1730 H 177.514 4.54696 0.747532 0
M  V30 1731 H 175.829 4.08021 0.831115 0
M  V30 1732 H 178.426 3.94518 3.60915 0
M  V30 1733 H 178.769 2.23544 3.51189 0
M  V30 1734 H 179.302 3.31443 2.19978 0
M  V30 1735 H 176.041 6.29068 1.84264 0
M  V30 1736 H 175.561 5.13233 3.10406 0
M  V30 1737 H 177.24 5.72099 3.02177 0
M  V30 1738 N 177.372 -0.689602 1.41712 0
M  V30 1739 C 178.302 -1.81577 1.46806 0
M  V30 1740 C 179.283 -1.66945 0.326105 0
M  V30 1741 O 180.468 -1.86588 0.538377 0
M  V30 1742 C 177.598 -3.19762 1.35535 0
M  V30 1743 C 176.552 -3.49107 2.47605 0
M  V30 1744 C 175.878 -4.86711 2.21397 0
M  V30 1745 C 177.178 -3.47483 3.89939 0
M  V30 1746 H 178.872 -1.7757 2.41058 0
M  V30 1747 H 176.418 -0.852887 1.16025 0
M  V30 1748 H 178.371 -3.98263 1.3771 0
M  V30 1749 H 177.095 -3.24409 0.377708 0
M  V30 1750 H 175.754 -2.72959 2.44722 0
M  V30 1751 H 175.402 -4.8799 1.21961 0
M  V30 1752 H 175.102 -5.0731 2.96497 0
M  V30 1753 H 176.626 -5.67515 2.25297 0
M  V30 1754 H 178.04 -4.1598 3.94505 0
M  V30 1755 H 176.437 -3.79615 4.64771 0
M  V30 1756 H 177.507 -2.46341 4.17665 0
M  V30 1757 N 178.85 -1.27639 -0.924453 0
M  V30 1758 C 179.813 -1.10681 -2.00705 0
M  V30 1759 C 180.813 -0.0497823 -1.60723 0
M  V30 1760 O 182.003 -0.294654 -1.7169 0
M  V30 1761 C 179.135 -0.687164 -3.33902 0
M  V30 1762 H 180.328 -2.06817 -2.17179 0
M  V30 1763 H 177.881 -1.10473 -1.10569 0
M  V30 1764 H 178.616 0.275439 -3.23128 0
M  V30 1765 H 178.401 -1.45061 -3.6428 0
M  V30 1766 H 179.891 -0.590853 -4.13399 0
M  V30 1767 N 180.328 1.1314 -1.09713 0
M  V30 1768 C 181.275 2.18642 -0.739196 0
M  V30 1769 C 182.245 1.63706 0.280978 0
M  V30 1770 O 183.43 1.90111 0.161946 0
M  V30 1771 C 180.57 3.44685 -0.169102 0
M  V30 1772 C 179.683 4.13711 -1.24367 0
M  V30 1773 C 178.818 5.27379 -0.636019 0
M  V30 1774 C 177.857 5.88259 -1.69169 0
M  V30 1775 N 176.994 6.93352 -1.10485 0
M  V30 1776 H 181.834 2.48607 -1.64312 0
M  V30 1777 H 179.371 1.22066 -0.820875 0
M  V30 1778 H 181.329 4.16815 0.179256 0
M  V30 1779 H 179.959 3.15161 0.698079 0
M  V30 1780 H 179.011 3.39835 -1.70927 0
M  V30 1781 H 180.323 4.55037 -2.04311 0
M  V30 1782 H 179.477 6.06238 -0.236677 0
M  V30 1783 H 178.216 4.8731 0.194928 0
M  V30 1784 H 177.221 5.08092 -2.10055 0
M  V30 1785 H 178.446 6.30399 -2.52536 0
M  V30 1786 H 176.392 6.55335 -0.295234 0
M  V30 1787 H 176.309 7.33236 -1.84121 0
M  V30 1788 H 177.577 7.76057 -0.73181 0
M  V30 1789 N 181.806 0.884767 1.30421 0
M  V30 1790 C 182.753 0.349642 2.28136 0
M  V30 1791 C 183.723 -0.560061 1.56373 0
M  V30 1792 O 184.908 -0.488524 1.8444 0
M  V30 1793 C 182.048 -0.42999 3.42411 0
M  V30 1794 C 181.161 0.508907 4.28992 0
M  V30 1795 C 180.296 -0.286301 5.30428 0
M  V30 1796 C 179.335 0.648079 6.08659 0
M  V30 1797 N 178.472 -0.111792 7.02011 0
M  V30 1798 H 183.312 1.18807 2.73293 0
M  V30 1799 H 180.849 0.597231 1.3443 0
M  V30 1800 H 182.807 -0.897923 4.07423 0
M  V30 1801 H 181.437 -1.23299 2.98324 0
M  V30 1802 H 180.489 1.09533 3.64289 0
M  V30 1803 H 181.801 1.22475 4.8353 0
M  V30 1804 H 180.955 -0.816098 6.01186 0
M  V30 1805 H 179.694 -1.03536 4.76583 0
M  V30 1806 H 178.699 1.18951 5.36778 0
M  V30 1807 H 179.924 1.39623 6.64592 0
M  V30 1808 H 177.87 -0.843395 6.50556 0
M  V30 1809 H 177.787 0.544429 7.54037 0
M  V30 1810 H 179.055 -0.622339 7.77012 0
M  V30 1811 N 183.284 -1.43765 0.645699 0
M  V30 1812 C 184.695 -1.85193 0.236719 0
M  V30 1813 C 185.046 -1.54045 -1.21509 0
M  V30 1814 O 184.171 -0.985694 -1.92647 0
M  V30 1815 C 184.766 -3.36151 0.422845 0
M  V30 1816 C 183.325 -3.76338 0.0682492 0
M  V30 1817 C 182.472 -2.67538 0.729306 0
M  V30 1818 H 185.423 -1.34025 0.849883 0
M  V30 1819 H 185.444 -3.79032 -0.333904 0
M  V30 1820 H 184.956 -3.5879 1.47958 0
M  V30 1821 H 183.057 -3.59312 -0.986179 0
M  V30 1822 H 183.17 -4.76603 0.488469 0
M  V30 1823 H 181.534 -2.54176 0.163235 0
M  V30 1824 H 182.317 -2.93006 1.78892 0
M  V30 1825 N 184.763 -0.387143 -1.52771 0
M  V30 1826 C 185.673 0.456442 -2.30117 0
M  V30 1827 C 186.689 1.07342 -1.36944 0
M  V30 1828 O 187.865 1.07971 -1.70013 0
M  V30 1829 C 184.93 1.56957 -3.09136 0
M  V30 1830 C 183.991 0.977916 -4.18014 0
M  V30 1831 C 183.224 2.038 -4.93256 0
M  V30 1832 O 183.447 3.25271 -4.68567 0
M  V30 1833 O 182.381 1.6565 -5.78657 0
M  V30 1834 H 186.207 -0.17359 -3.03203 0
M  V30 1835 H 183.792 -0.150919 -1.48636 0
M  V30 1836 H 185.674 2.21628 -3.58412 0
M  V30 1837 H 184.349 2.18461 -2.38865 0
M  V30 1838 H 183.256 0.294525 -3.72939 0
M  V30 1839 H 184.589 0.407128 -4.90513 0
M  V30 1840 N 186.241 1.57166 -0.116904 0
M  V30 1841 C 187.191 2.11756 0.845178 0
M  V30 1842 C 188.175 1.03783 1.22955 0
M  V30 1843 O 189.367 1.3002 1.20099 0
M  V30 1844 C 186.496 2.71886 2.09602 0
M  V30 1845 C 185.582 3.86937 1.7361 0
M  V30 1846 N 185.973 4.94073 1.08284 0
M  V30 1847 C 184.271 3.97082 2.03082 0
M  V30 1848 C 184.972 5.74477 0.913855 0
M  V30 1849 N 183.948 5.2423 1.43818 0
M  V30 1850 H 187.75 2.91967 0.336523 0
M  V30 1851 H 185.264 1.62174 0.0856332 0
M  V30 1852 H 187.261 3.09338 2.79492 0
M  V30 1853 H 185.921 1.93138 2.61013 0
M  V30 1854 H 186.932 5.12483 0.747067 0
M  V30 1855 H 183.609 3.29372 2.56554 0
M  V30 1856 H 184.999 6.70701 0.40125 0
M  V30 1857 N 187.719 -0.156864 1.56817 0
M  V30 1858 C 188.682 -1.17781 1.96622 0
M  V30 1859 C 189.682 -1.36401 0.851555 0
M  V30 1860 O 190.872 -1.33561 1.11836 0
M  V30 1861 C 188.004 -2.54008 2.27361 0
M  V30 1862 H 189.197 -0.836564 2.87996 0
M  V30 1863 H 186.75 -0.39985 1.51099 0
M  V30 1864 H 187.485 -2.9312 1.38748 0
M  V30 1865 H 187.27 -2.41856 3.08623 0
M  V30 1866 H 188.76 -3.27558 2.59029 0
M  V30 1867 N 189.197 -1.51736 -0.425897 0
M  V30 1868 C 190.425 -1.68794 -1.1965 0
M  V30 1869 C 190.84 -0.390164 -1.84725 0
M  V30 1870 O 190.197 0.632376 -1.71194 0
M  V30 1871 C 190.248 -2.81174 -2.27208 0
M  V30 1872 O 189.969 -4.05925 -1.64793 0
M  V30 1873 C 191.47 -3.09599 -3.17275 0
M  V30 1874 H 188.69 -0.566128 -0.360194 0
M  V30 1875 H 191.234 -1.98211 -0.503249 0
M  V30 1876 H 189.389 -2.54324 -2.9223 0
M  V30 1877 H 189.803 -4.68423 -2.35967 0
M  V30 1878 H 191.277 -3.91786 -3.88854 0
M  V30 1879 H 191.754 -2.22468 -3.78688 0
M  V30 1880 H 192.36 -3.38151 -2.57941 0
M  V30 1881 N 190.675 0.682077 -1.42076 0
M  V30 1882 C 191.622 1.79578 -1.44984 0
M  V30 1883 C 192.592 1.6332 -0.302614 0
M  V30 1884 O 193.777 1.83978 -0.505633 0
M  V30 1885 C 190.917 3.1756 -1.35091 0
M  V30 1886 C 190.03 3.45156 -2.59791 0
M  V30 1887 C 189.165 4.72826 -2.42093 0
M  V30 1888 C 188.204 4.93433 -3.62202 0
M  V30 1889 N 187.341 6.12338 -3.43491 0
M  V30 1890 H 192.181 1.76427 -2.40161 0
M  V30 1891 H 189.718 0.861376 -1.19242 0
M  V30 1892 H 191.676 3.97287 -1.27354 0
M  V30 1893 H 190.306 3.19854 -0.435133 0
M  V30 1894 H 189.358 2.59736 -2.77923 0
M  V30 1895 H 190.67 3.5628 -3.49094 0
M  V30 1896 H 189.824 5.60631 -2.319 0
M  V30 1897 H 188.563 4.63973 -1.50268 0
M  V30 1898 H 187.568 4.04073 -3.72834 0
M  V30 1899 H 188.793 5.04136 -4.54998 0
M  V30 1900 H 186.739 6.04672 -2.54377 0
M  V30 1901 H 186.656 6.2429 -4.26377 0
M  V30 1902 H 187.924 7.02841 -3.37097 0
M  V30 1903 N 192.153 1.28127 0.917671 0
M  V30 1904 C 193.401 1.14825 1.66312 0
M  V30 1905 C 193.722 -0.304379 1.9261 0
M  V30 1906 O 192.992 -1.21149 1.53947 0
M  V30 1907 H 191.572 0.421953 0.616413 0
M  V30 1908 H 194.234 1.608 1.10134 0
M  V30 1909 H 193.33 1.68489 2.62712 0
M  V30 1910 N 193.631 -1.12557 1.10312 0
M  V30 1911 C 194.88 -1.83395 0.839588 0
M  V30 1912 C 195.193 -1.84939 -0.636929 0
M  V30 1913 O 196.399 -2.51761 -1.01631 0
M  V30 1914 C 194.855 -3.29303 1.45215 0
M  V30 1915 C 194.463 -3.36122 2.96186 0
M  V30 1916 C 196.207 -4.05121 1.26796 0
M  V30 1917 C 194.114 -4.76357 3.50483 0
M  V30 1918 H 193.044 -0.687133 0.310425 0
M  V30 1919 H 195.695 -1.26746 1.32694 0
M  V30 1920 H 194.077 -3.85812 0.892469 0
M  V30 1921 H 195.251 -2.89559 3.58458 0
M  V30 1922 H 193.566 -2.73776 3.13745 0
M  V30 1923 H 196.163 -5.08668 1.64806 0
M  V30 1924 H 196.506 -4.15773 0.209409 0
M  V30 1925 H 197.039 -3.54967 1.79563 0
M  V30 1926 H 193.778 -4.70899 4.55998 0
M  V30 1927 H 193.298 -5.23377 2.92978 0
M  V30 1928 H 194.977 -5.45294 3.48228 0
M  V30 1929 N 195.109 -0.891671 -1.2995 0
M  V30 1930 C 196.358 -0.509521 -1.95158 0
M  V30 1931 C 196.671 0.947388 -1.71125 0
M  V30 1932 O 197.877 1.43669 -2.30372 0
M  V30 1933 C 196.333 -0.860315 -3.49466 0
M  V30 1934 C 195.941 -2.33545 -3.8231 0
M  V30 1935 C 197.685 -0.547687 -4.20952 0
M  V30 1936 C 195.592 -2.62752 -5.29826 0
M  V30 1937 H 194.522 -0.18682 -0.730489 0
M  V30 1938 H 197.173 -1.08756 -1.47798 0
M  V30 1939 H 195.555 -0.211285 -3.95436 0
M  V30 1940 H 196.729 -3.02936 -3.47227 0
M  V30 1941 H 195.044 -2.61629 -3.23944 0
M  V30 1942 H 197.641 -0.742854 -5.29515 0
M  V30 1943 H 197.984 0.51332 -4.13123 0
M  V30 1944 H 198.517 -1.1542 -3.80688 0
M  V30 1945 H 195.256 -3.6762 -5.42712 0
M  V30 1946 H 194.776 -1.97977 -5.66185 0
M  V30 1947 H 196.455 -2.48601 -5.97333 0
M  V30 1948 N 196.587 1.43421 -0.653314 0
M  V30 1949 C 197.834 2.01812 -0.166745 0
M  V30 1950 C 198.162 1.51535 1.21931 0
M  V30 1951 O 197.417 0.698975 1.82792 0
M  V30 1952 C 197.716 3.57176 -0.126623 0
M  V30 1953 C 197.382 4.26798 -1.45444 0
M  V30 1954 C 196.044 4.45534 -1.81805 0
M  V30 1955 C 198.396 4.66225 -2.32989 0
M  V30 1956 C 195.724 5.00961 -3.05377 0
M  V30 1957 C 198.076 5.23021 -3.55853 0
M  V30 1958 C 196.74 5.39973 -3.9241 0
M  V30 1959 H 196.01 0.738484 -0.0610162 0
M  V30 1960 H 198.657 1.71896 -0.84404 0
M  V30 1961 H 196.962 3.86634 0.634123 0
M  V30 1962 H 198.659 4.00112 0.266723 0
M  V30 1963 H 195.249 4.12561 -1.16153 0
M  V30 1964 H 199.433 4.51443 -2.06187 0
M  V30 1965 H 194.689 5.12271 -3.3375 0
M  V30 1966 H 198.863 5.52518 -4.23907 0
M  V30 1967 H 196.49 5.82687 -4.88242 0
M  V30 1968 N 198.065 0.39524 1.52563 0
M  V30 1969 C 199.028 -0.425001 2.25225 0
M  V30 1970 C 200.028 -0.985266 1.27079 0
M  V30 1971 O 201.218 -0.866332 1.5113 0
M  V30 1972 C 198.35 -1.59686 3.01186 0
M  V30 1973 H 199.543 0.211233 2.99155 0
M  V30 1974 H 197.096 0.147472 1.55603 0
M  V30 1975 H 197.831 -2.27035 2.31572 0
M  V30 1976 H 197.616 -1.20176 3.73229 0
M  V30 1977 H 199.106 -2.17743 3.5634 0
M  V30 1978 N 199.544 -1.57102 0.125237 0
M  V30 1979 C 200.507 -2.14471 -0.80838 0
M  V30 1980 C 201.507 -1.0811 -1.19033 0
M  V30 1981 O 202.697 -1.33856 -1.11482 0
M  V30 1982 C 199.829 -2.69005 -2.09402 0
M  V30 1983 H 201.022 -2.98297 -0.309696 0
M  V30 1984 H 198.575 -1.55807 -0.124051 0
M  V30 1985 H 199.31 -1.88785 -2.63687 0
M  V30 1986 H 199.095 -3.46799 -1.82957 0
M  V30 1987 H 200.585 -3.13278 -2.76128 0
M  V30 1988 N 201.022 0.148545 -1.56898 0
M  V30 1989 C 201.955 1.21293 -1.93296 0
M  V30 1990 C 202.933 1.41637 -0.798599 0
M  V30 1991 O 204.117 1.56275 -1.05406 0
M  V30 1992 C 201.244 2.5721 -2.20365 0
M  V30 1993 C 200.29 2.53469 -3.4301 0
M  V30 1994 S 201.123 2.00315 -4.96623 0
M  V30 1995 C 202.279 3.37964 -5.26812 0
M  V30 1996 H 202.512 0.902393 -2.83274 0
M  V30 1997 H 200.045 0.354094 -1.50285 0
M  V30 1998 H 202.003 3.35427 -2.36641 0
M  V30 1999 H 200.664 2.85454 -1.31054 0
M  V30 2000 H 199.857 3.53518 -3.59223 0
M  V30 2001 H 199.459 1.83359 -3.25968 0
M  V30 2002 H 201.751 4.34066 -5.20185 0
M  V30 2003 H 202.694 3.26606 -6.28279 0
M  V30 2004 H 203.102 3.35028 -4.54331 0
M  V30 2005 N 202.5 1.5196 0.417844 0
M  V30 2006 C 203.746 1.65836 1.16732 0
M  V30 2007 C 204.079 0.382881 1.90388 0
M  V30 2008 O 203.354 -0.618368 1.84408 0
M  V30 2009 C 203.637 2.87466 2.16876 0
M  V30 2010 C 203.49 4.25041 1.47174 0
M  V30 2011 C 204.809 3.04613 3.17646 0
M  V30 2012 H 201.928 0.603515 0.423011 0
M  V30 2013 H 204.57 1.84494 0.454105 0
M  V30 2014 H 202.72 2.71689 2.777 0
M  V30 2015 H 204.392 4.52527 0.895376 0
M  V30 2016 H 202.635 4.26843 0.773806 0
M  V30 2017 H 203.306 5.06176 2.20204 0
M  V30 2018 H 205.782 3.1923 2.66892 0
M  V30 2019 H 204.658 3.91247 3.8499 0
M  V30 2020 H 204.919 2.17541 3.84874 0
M  V30 2021 N 203.978 -0.674533 1.42435 0
M  V30 2022 C 204.888 -1.81751 1.48337 0
M  V30 2023 C 205.904 -1.69975 0.372099 0
M  V30 2024 O 207.08 -1.91521 0.62304 0
M  V30 2025 C 204.145 -3.17895 1.38361 0
M  V30 2026 C 203.206 -3.41625 2.59982 0
M  V30 2027 C 202.439 -4.71274 2.50473 0
M  V30 2028 O 202.662 -5.49197 1.54075 0
M  V30 2029 O 201.596 -4.96254 3.4061 0
M  V30 2030 H 205.422 -1.79728 2.44809 0
M  V30 2031 H 203.007 -0.830312 1.24202 0
M  V30 2032 H 204.889 -3.99136 1.35161 0
M  V30 2033 H 203.564 -3.20555 0.450144 0
M  V30 2034 H 202.471 -2.60231 2.68757 0
M  V30 2035 H 203.804 -3.43796 3.52229 0
M  V30 2036 N 205.456 -1.28612 -0.910864 0
M  V30 2037 C 206.684 -1.18792 -1.69399 0
M  V30 2038 C 207.099 0.253039 -1.87097 0
M  V30 2039 O 206.456 1.17071 -1.40003 0
M  V30 2040 C 206.507 -1.88511 -3.08457 0
M  V30 2041 O 206.228 -3.26979 -2.91576 0
M  V30 2042 C 207.729 -1.85029 -4.02839 0
M  V30 2043 H 204.949 -0.412233 -0.529438 0
M  V30 2044 H 207.493 -1.69788 -1.13984 0
M  V30 2045 H 205.648 -1.41379 -3.60681 0
M  V30 2046 H 206.062 -3.61936 -3.79608 0
M  V30 2047 H 207.536 -2.38395 -4.97867 0
M  V30 2048 H 208.013 -0.823303 -4.31414 0
M  V30 2049 H 208.619 -2.31853 -3.56545 0
M  V30 2050 N 206.934 1.1197 -1.10907 0
M  V30 2051 C 208.164 1.8713 -0.875553 0
M  V30 2052 C 208.572 1.8016 0.577843 0
M  V30 2053 O 207.915 1.17699 1.41042 0
M  V30 2054 C 207.977 3.37005 -1.2517 0
M  V30 2055 C 207.641 3.67748 -2.71313 0
M  V30 2056 C 208.638 3.65698 -3.69542 0
M  V30 2057 C 206.323 3.96928 -3.07821 0
M  V30 2058 C 208.317 3.92395 -5.023 0
M  V30 2059 C 206.004 4.23284 -4.40765 0
M  V30 2060 C 207.002 4.21005 -5.37814 0
M  V30 2061 O 206.69 4.46704 -6.68364 0
M  V30 2062 H 206.422 0.598786 -0.313737 0
M  V30 2063 H 208.976 1.42568 -1.47863 0
M  V30 2064 H 207.206 3.82146 -0.591741 0
M  V30 2065 H 208.895 3.93519 -0.994877 0
M  V30 2066 H 209.661 3.43211 -3.42682 0
M  V30 2067 H 205.54 3.97841 -2.32902 0
M  V30 2068 H 209.084 3.90531 -5.78041 0
M  V30 2069 H 204.981 4.45246 -4.67361 0
M  V30 2070 H 205.749 4.64299 -6.74069 0
M  V30 2071 N 208.412 0.89855 1.29475 0
M  V30 2072 C 209.375 0.380272 2.26023 0
M  V30 2073 C 210.375 -0.484891 1.53315 0
M  V30 2074 O 211.565 -0.290108 1.71767 0
M  V30 2075 C 208.697 -0.45651 3.3783 0
M  V30 2076 H 209.89 1.23295 2.73383 0
M  V30 2077 H 207.443 0.676589 1.40897 0
M  V30 2078 H 208.178 -1.32922 2.95808 0
M  V30 2079 H 207.963 0.163393 3.91759 0
M  V30 2080 H 209.453 -0.810466 4.0966 0
M  V30 2081 N 209.89 -1.43072 0.660911 0
M  V30 2082 C 211.139 -2.00942 0.174735 0
M  V30 2083 C 211.452 -1.52797 -1.22117 0
M  V30 2084 O 212.658 -2.02991 -1.80297 0
M  V30 2085 C 211.114 -3.58948 0.261559 0
M  V30 2086 C 210.722 -4.16085 1.66064 0
M  V30 2087 C 212.466 -4.24173 -0.166617 0
M  V30 2088 C 210.373 -5.6641 1.70098 0
M  V30 2089 H 209.303 -0.751483 0.0615631 0
M  V30 2090 H 211.954 -1.63955 0.824069 0
M  V30 2091 H 210.336 -3.93372 -0.455421 0
M  V30 2092 H 211.51 -3.93147 2.40359 0
M  V30 2093 H 209.825 -3.6326 2.03546 0
M  V30 2094 H 212.422 -5.34471 -0.156433 0
M  V30 2095 H 212.765 -3.98647 -1.19943 0
M  V30 2096 H 213.298 -3.94659 0.498875 0
M  V30 2097 H 210.037 -5.96715 2.71315 0
M  V30 2098 H 209.557 -5.91382 1.00139 0
M  V30 2099 H 211.236 -6.30585 1.44816 0
M  V30 2100 N 211.368 -0.403325 -1.52352 0
M  V30 2101 C 212.298 0.416205 -2.29761 0
M  V30 2102 C 213.279 1.05123 -1.33728 0
M  V30 2103 O 214.464 1.06134 -1.62632 0
M  V30 2104 C 211.594 1.53624 -3.11475 0
M  V30 2105 C 210.548 1.02653 -4.15507 0
M  V30 2106 C 209.874 2.23971 -4.85532 0
M  V30 2107 C 211.174 0.08463 -5.22231 0
M  V30 2108 H 212.868 -0.229701 -2.98518 0
M  V30 2109 H 210.414 -0.111913 -1.43564 0
M  V30 2110 H 212.367 2.1165 -3.64393 0
M  V30 2111 H 211.091 2.20994 -2.40477 0
M  V30 2112 H 209.75 0.46871 -3.63591 0
M  V30 2113 H 209.398 2.89883 -4.11068 0
M  V30 2114 H 209.098 1.90521 -5.55856 0
M  V30 2115 H 210.622 2.82614 -5.41259 0
M  V30 2116 H 212.036 0.573509 -5.70424 0
M  V30 2117 H 210.433 -0.160783 -5.99885 0
M  V30 2118 H 211.503 -0.86237 -4.7717 0
M  V30 2119 N 212.846 1.57033 -0.133567 0
M  V30 2120 C 214.094 1.953 0.519848 0
M  V30 2121 C 214.415 1.01866 1.66278 0
M  V30 2122 O 213.685 0.0776513 1.95746 0
M  V30 2123 H 212.265 0.721091 0.195032 0
M  V30 2124 H 214.927 1.93809 -0.205921 0
M  V30 2125 H 214.023 2.98695 0.904854 0
M  V30 2126 N 214.325 -0.140222 1.56975 0
M  V30 2127 C 215.572 -0.851687 1.83719 0
M  V30 2128 C 215.9 -1.80862 0.715485 0
M  V30 2129 O 215.155 -1.93464 -0.294956 0
M  V30 2130 C 215.454 -1.65386 3.16832 0
M  V30 2131 C 215.12 -0.843112 4.42947 0
M  V30 2132 C 213.782 -0.619464 4.77196 0
M  V30 2133 C 216.134 -0.276582 5.20466 0
M  V30 2134 C 213.462 0.181312 5.8642 0
M  V30 2135 C 215.814 0.51127 6.30531 0
M  V30 2136 C 214.478 0.745432 6.63325 0
M  V30 2137 H 213.748 -0.311654 0.672274 0
M  V30 2138 H 216.395 -0.115006 1.91154 0
M  V30 2139 H 214.7 -2.46084 3.04877 0
M  V30 2140 H 216.397 -2.20793 3.34741 0
M  V30 2141 H 212.987 -1.0275 4.16101 0
M  V30 2142 H 217.171 -0.436632 4.94376 0
M  V30 2143 H 212.427 0.372165 6.10266 0
M  V30 2144 H 216.601 0.957354 6.89788 0
M  V30 2145 H 214.228 1.36778 7.47794 0
M  V30 2146 N 215.803 -1.52179 -0.40978 0
M  V30 2147 C 217.049 -1.66453 -1.15851 0
M  V30 2148 C 217.382 -0.392972 -1.90182 0
M  V30 2149 O 216.657 0.608579 -1.84734 0
M  V30 2150 C 216.94 -2.88612 -2.15349 0
M  V30 2151 C 216.793 -4.25815 -1.44918 0
M  V30 2152 C 218.112 -3.06294 -3.16026 0
M  V30 2153 H 215.231 -0.60575 -0.419805 0
M  V30 2154 H 217.873 -1.84732 -0.444314 0
M  V30 2155 H 216.023 -2.73158 -2.76255 0
M  V30 2156 H 217.695 -4.52995 -0.871365 0
M  V30 2157 H 215.938 -4.27247 -0.751159 0
M  V30 2158 H 216.609 -5.07337 -2.17516 0
M  V30 2159 H 219.085 -3.20641 -2.65195 0
M  V30 2160 H 217.961 -3.93283 -3.8291 0
M  V30 2161 H 218.222 -2.19579 -3.83715 0
M  V30 2162 N 217.281 0.66697 -1.42791 0
M  V30 2163 C 218.53 1.42278 -1.42968 0
M  V30 2164 C 218.843 1.9553 -0.0524489 0
M  V30 2165 O 220.049 2.71414 0.068363 0
M  V30 2166 C 218.505 2.57418 -2.51524 0
M  V30 2167 C 218.113 2.10832 -3.9529 0
M  V30 2168 C 219.857 3.34878 -2.60877 0
M  V30 2169 C 217.764 3.23101 -4.95338 0
M  V30 2170 H 216.694 0.534533 -0.531781 0
M  V30 2171 H 219.345 0.721302 -1.68729 0
M  V30 2172 H 217.727 3.29971 -2.18941 0
M  V30 2173 H 218.901 1.4538 -4.37266 0
M  V30 2174 H 217.216 1.46289 -3.89857 0
M  V30 2175 H 219.813 4.18505 -3.32802 0
M  V30 2176 H 220.156 3.81993 -1.6549 0
M  V30 2177 H 220.689 2.69398 -2.92693 0
M  V30 2178 H 217.428 2.80969 -5.9223 0
M  V30 2179 H 216.948 3.87309 -4.57987 0
M  V30 2180 H 218.627 3.88447 -5.17415 0
M  V30 2181 N 218.759 1.29093 0.90403 0
M  V30 2182 C 219.984 1.19809 1.69294 0
M  V30 2183 C 220.409 -0.238481 1.86582 0
M  V30 2184 O 219.767 -1.1723 1.383 0
M  V30 2185 C 219.815 1.91202 3.05736 0
M  V30 2186 O 218.919 1.22611 3.93752 0
M  V30 2187 H 218.26 0.415385 0.518027 0
M  V30 2188 H 220.79 1.70586 1.12967 0
M  V30 2189 H 220.8 1.99487 3.55906 0
M  V30 2190 H 219.475 2.95692 2.92471 0
M  V30 2191 H 218.052 1.22554 3.52186 0
M  V30 2192 N 220.237 -1.11381 1.11499 0
M  V30 2193 C 221.484 -1.83132 0.864231 0
M  V30 2194 C 221.812 -1.84683 -0.610114 0
M  V30 2195 O 221.067 -1.29589 -1.46646 0
M  V30 2196 C 221.366 -3.30026 1.37177 0
M  V30 2197 C 221.032 -3.48634 2.85946 0
M  V30 2198 C 219.694 -3.53421 3.26569 0
M  V30 2199 C 222.046 -3.54837 3.81759 0
M  V30 2200 C 219.374 -3.61967 4.61733 0
M  V30 2201 C 221.726 -3.64915 5.1674 0
M  V30 2202 C 220.39 -3.67962 5.5692 0
M  V30 2203 H 219.66 -0.670127 0.316245 0
M  V30 2204 H 222.307 -1.31354 1.3935 0
M  V30 2205 H 220.612 -3.84304 0.762753 0
M  V30 2206 H 222.309 -3.84034 1.15408 0
M  V30 2207 H 218.899 -3.45579 2.53521 0
M  V30 2208 H 223.083 -3.50399 3.51474 0
M  V30 2209 H 218.339 -3.62603 4.92269 0
M  V30 2210 H 222.513 -3.68658 5.90816 0
M  V30 2211 H 220.14 -3.74336 6.61647 0
M  V30 2212 N 221.715 -0.905404 -1.28997 0
M  V30 2213 C 222.645 -0.404212 -2.29975 0
M  V30 2214 C 223.626 0.523784 -1.61835 0
M  V30 2215 O 224.811 0.433298 -1.89304 0
M  V30 2216 C 221.941 0.364042 -3.45387 0
M  V30 2217 C 220.895 -0.474048 -4.25367 0
M  V30 2218 C 220.221 0.422045 -5.33032 0
M  V30 2219 C 221.521 -1.72696 -4.92923 0
M  V30 2220 H 223.215 -1.24807 -2.72146 0
M  V30 2221 H 220.761 -0.601585 -1.30832 0
M  V30 2222 H 222.714 0.725447 -4.15109 0
M  V30 2223 H 221.438 1.24174 -3.02074 0
M  V30 2224 H 220.097 -0.81786 -3.57361 0
M  V30 2225 H 219.745 1.29804 -4.85963 0
M  V30 2226 H 219.445 -0.135057 -5.87445 0
M  V30 2227 H 220.969 0.779517 -6.05604 0
M  V30 2228 H 222.383 -1.43495 -5.55051 0
M  V30 2229 H 220.78 -2.22582 -5.57295 0
M  V30 2230 H 221.85 -2.45964 -4.17887 0
M  V30 2231 N 223.193 1.4272 -0.668489 0
M  V30 2232 C 224.123 2.335 -0.000100175 0
M  V30 2233 C 225.104 1.50328 0.795964 0
M  V30 2234 O 226.289 1.78949 0.754385 0
M  V30 2235 C 223.419 3.33874 0.956302 0
M  V30 2236 C 222.373 4.27152 0.269278 0
M  V30 2237 C 221.699 5.17684 1.33818 0
M  V30 2238 C 222.999 5.15373 -0.847805 0
M  V30 2239 H 224.693 2.89639 -0.758244 0
M  V30 2240 H 222.239 1.39269 -0.366079 0
M  V30 2241 H 224.192 3.9629 1.43292 0
M  V30 2242 H 222.916 2.76025 1.74579 0
M  V30 2243 H 221.575 3.66123 -0.187042 0
M  V30 2244 H 221.223 4.56165 2.1195 0
M  V30 2245 H 220.923 5.80918 0.883659 0
M  V30 2246 H 222.447 5.82974 1.81586 0
M  V30 2247 H 223.861 5.7151 -0.452681 0
M  V30 2248 H 222.258 5.87407 -1.22773 0
M  V30 2249 H 223.328 4.5415 -1.69929 0
M  V30 2250 N 224.671 0.411399 1.52136 0
M  V30 2251 C 225.917 -0.163888 2.02137 0
M  V30 2252 C 226.25 -1.44597 1.29636 0
M  V30 2253 O 225.525 -1.90272 0.403353 0
M  V30 2254 C 225.808 -0.40927 3.57767 0
M  V30 2255 C 225.661 0.889643 4.40914 0
M  V30 2256 C 226.98 -1.19042 4.23694 0
M  V30 2257 H 224.099 -0.0580896 0.734707 0
M  V30 2258 H 226.741 0.54531 1.82007 0
M  V30 2259 H 224.891 -1.0134 3.7505 0
M  V30 2260 H 226.563 1.52575 4.35337 0
M  V30 2261 H 224.806 1.50011 4.07037 0
M  V30 2262 H 225.477 0.672314 5.4789 0
M  V30 2263 H 227.953 -0.678942 4.10524 0
M  V30 2264 H 226.829 -1.33086 5.32522 0
M  V30 2265 H 227.09 -2.21166 3.82803 0
M  V30 2266 N 226.149 -1.5696 0.141893 0
M  V30 2267 C 227.079 -2.19516 -0.795936 0
M  V30 2268 C 228.06 -1.14187 -1.26077 0
M  V30 2269 O 229.245 -1.42511 -1.31925 0
M  V30 2270 C 226.375 -2.81272 -2.03723 0
M  V30 2271 C 225.329 -3.92384 -1.70936 0
M  V30 2272 C 224.655 -4.41052 -3.02287 0
M  V30 2273 C 225.955 -5.13403 -0.959954 0
M  V30 2274 H 227.649 -2.98138 -0.274596 0
M  V30 2275 H 225.195 -1.43406 -0.130636 0
M  V30 2276 H 227.148 -3.237 -2.69808 0
M  V30 2277 H 225.872 -1.99973 -2.58221 0
M  V30 2278 H 224.531 -3.50566 -1.07232 0
M  V30 2279 H 224.179 -3.56582 -3.54765 0
M  V30 2280 H 223.879 -5.15993 -2.81114 0
M  V30 2281 H 225.403 -4.86146 -3.69451 0
M  V30 2282 H 226.817 -5.52706 -1.52279 0
M  V30 2283 H 225.214 -5.94073 -0.848357 0
M  V30 2284 H 226.284 -4.84875 0.0492434 0
M  V30 2285 N 227.627 0.131896 -1.57047 0
M  V30 2286 C 228.575 1.18146 -2.0036 0
M  V30 2287 C 229.569 1.43614 -0.898406 0
M  V30 2288 O 230.775 1.43729 -1.08361 0
M  V30 2289 H 227.15 0.398042 -0.638018 0
M  V30 2290 H 229.121 0.789564 -2.87765 0
M  V30 2291 C 227.87 2.50341 -2.41298 0
M  V30 2292 H 227.193 2.31578 -3.25902 0
M  V30 2293 H 228.633 3.22371 -2.75414 0
M  V30 2294 C 227.092 3.11984 -1.27153 0
M  V30 2295 O 227.622 3.97484 -0.580459 0
M  V30 2296 N 225.828 2.71662 -1.03189 0
M  V30 2297 H 225.375 2.02231 -1.59564 0
M  V30 2298 H 225.333 3.13238 -0.270077 0
M  V30 2299 N 229.106 1.52395 0.401703 0
M  V30 2300 C 230.069 1.75636 1.47257 0
M  V30 2301 C 231.069 0.62628 1.48103 0
M  V30 2302 O 232.259 0.894227 1.49497 0
M  V30 2303 C 229.391 1.84553 2.86624 0
M  V30 2304 H 230.584 2.71241 1.27938 0
M  V30 2305 H 228.137 1.42923 0.632662 0
M  V30 2306 H 228.872 0.908882 3.11303 0
M  V30 2307 H 228.657 2.66715 2.87412 0
M  V30 2308 H 230.147 2.04251 3.64241 0
M  V30 2309 O 230.623 -0.547609 1.51933 0
M  V30 2310 H 231.314 -1.20275 1.51834 0
M  V30 END ATOM
M  V30 BEGIN BOND
M  V30 END BOND
M  V30 END CTAB
M  END
$$$$
