drugbank_target|P43652 Afamin (DB09130)
 OpenBabel12092121063D

  0  0  0     0  0            999 V3000
M  V30 BEGIN CTAB
M  V30 COUNTS 9606 9706 0 0 0
M  V30 BEGIN ATOM
M  V30 1 H -0.908 1.98254 -0.117106 0
M  V30 2 N 0 1.576 0 0
M  V30 3 C 0.933 2.03868 1.02534 0
M  V30 4 C 1.911 0.928543 1.3348 0
M  V30 5 O 3.095 1.19667 1.45644 0
M  V30 6 C 0.222 2.43627 2.35294 0
M  V30 7 C -0.732 3.65373 2.2001 0
M  V30 8 S 0.101 5.13292 1.52614 0
M  V30 9 C 1.257 5.56322 2.86805 0
M  V30 10 H 1.49 2.90518 0.631377 0
M  V30 11 H -0.977 1.52953 0.210867 0
M  V30 12 H 0.981 2.67203 3.11629 0
M  V30 13 H -0.358 1.57376 2.7183 0
M  V30 14 H -1.165 3.90944 3.18086 0
M  V30 15 H -1.563 3.418 1.51819 0
M  V30 16 H 0.729 5.58782 3.83104 0
M  V30 17 H 1.672 6.56266 2.65933 0
M  V30 18 H 2.08 4.83886 2.90714 0
M  V30 19 N 1.4781 -0.272755 1.55222 0
M  V30 20 C 2.4251 -1.33716 1.88119 0
M  V30 21 C 3.3951 -1.49066 0.73271 0
M  V30 22 O 4.5801 -1.63469 0.984002 0
M  V30 23 C 1.7201 -2.69238 2.15882 0
M  V30 24 C 0.8331 -2.62108 3.43399 0
M  V30 25 C -0.0319 -3.89811 3.60861 0
M  V30 26 C -0.9929 -3.77193 4.8207 0
M  V30 27 N -1.8559 -4.9673 4.96189 0
M  V30 28 H 2.9841 -1.04962 2.78903 0
M  V30 29 H 0.5211 -0.507088 1.38083 0
M  V30 30 H 2.4791 -3.48089 2.29978 0
M  V30 31 H 1.1091 -2.96194 1.28331 0
M  V30 32 H 0.1611 -1.74967 3.37773 0
M  V30 33 H 1.4731 -2.48685 4.32386 0
M  V30 34 H 0.6271 -4.77103 3.74777 0
M  V30 35 H -0.6339 -4.06102 2.7006 0
M  V30 36 H -1.6289 -2.88284 4.68159 0
M  V30 37 H -0.4039 -3.62421 5.74307 0
M  V30 38 H -2.4579 -5.13431 4.08319 0
M  V30 39 H -2.5409 -4.85839 5.79221 0
M  V30 40 H -1.2729 -5.85594 5.1449 0
M  V30 41 N 2.9562 -1.48159 -0.537278 0
M  V30 42 C 3.8862 -1.65029 -1.6519 0
M  V30 43 C 4.8672 -0.499281 -1.62607 0
M  V30 44 O 6.0522 -0.730972 -1.79918 0
M  V30 45 C 3.1822 -1.68303 -3.03795 0
M  V30 46 C 2.1362 -2.8283 -3.21234 0
M  V30 47 C 1.4622 -2.71189 -4.60826 0
M  V30 48 C 2.7622 -4.24211 -3.04701 0
M  V30 49 H 4.4562 -2.58341 -1.51328 0
M  V30 50 H 2.0022 -1.24325 -0.726585 0
M  V30 51 H 3.9552 -1.78693 -3.81637 0
M  V30 52 H 2.6792 -0.715635 -3.18663 0
M  V30 53 H 1.3382 -2.71983 -2.45807 0
M  V30 54 H 0.9862 -1.72435 -4.7252 0
M  V30 55 H 0.6862 -3.48035 -4.7344 0
M  V30 56 H 2.2102 -2.83537 -5.40777 0
M  V30 57 H 3.6242 -4.3593 -3.72341 0
M  V30 58 H 2.0212 -5.01998 -3.28813 0
M  V30 59 H 3.0912 -4.41184 -2.01209 0
M  V30 60 N 4.4343 0.785586 -1.36625 0
M  V30 61 C 5.3643 1.91259 -1.33949 0
M  V30 62 C 6.3453 1.68795 -0.210325 0
M  V30 63 O 7.5303 1.89854 -0.408561 0
M  V30 64 C 4.6603 3.28339 -1.13186 0
M  V30 65 C 3.6143 3.65335 -2.22967 0
M  V30 66 C 2.9403 5.00806 -1.87342 0
M  V30 67 C 4.2403 3.7352 -3.65075 0
M  V30 68 H 5.9343 1.93755 -2.28253 0
M  V30 69 H 3.4803 0.930788 -1.09874 0
M  V30 70 H 5.4333 4.06804 -1.09948 0
M  V30 71 H 4.1573 3.2624 -0.153332 0
M  V30 72 H 2.8163 2.89169 -2.25337 0
M  V30 73 H 2.4643 4.95233 -0.880545 0
M  V30 74 H 2.1643 5.26529 -2.60846 0
M  V30 75 H 3.6883 5.81687 -1.85667 0
M  V30 76 H 5.1023 4.42168 -3.64911 0
M  V30 77 H 3.4993 4.10731 -4.37516 0
M  V30 78 H 4.5693 2.74527 -3.99703 0
M  V30 79 N 5.9124 1.20967 1.01018 0
M  V30 80 C 6.8594 0.964281 2.09691 0
M  V30 81 C 7.8294 -0.107853 1.65749 0
M  V30 82 O 9.0144 0.0381987 1.90762 0
M  V30 83 C 6.1544 0.52943 3.41015 0
M  V30 84 C 5.2674 1.67043 3.98398 0
M  V30 85 C 4.4024 1.18525 5.17808 0
M  V30 86 C 3.4414 2.29892 5.67288 0
M  V30 87 N 2.5784 1.82546 6.77954 0
M  V30 88 H 7.4184 1.89463 2.30017 0
M  V30 89 H 4.9554 0.944289 1.1279 0
M  V30 90 H 6.9134 0.258588 4.16398 0
M  V30 91 H 5.5434 -0.363919 3.20742 0
M  V30 92 H 4.5954 2.05603 3.20049 0
M  V30 93 H 5.9074 2.50877 4.31117 0
M  V30 94 H 5.0614 0.870762 6.00419 0
M  V30 95 H 3.8004 0.316887 4.86669 0
M  V30 96 H 2.8054 2.6215 4.83278 0
M  V30 97 H 4.0304 3.17216 6.00459 0
M  V30 98 H 1.9764 0.980454 6.48632 0
M  V30 99 H 1.8934 2.59956 7.09901 0
M  V30 100 H 3.1614 1.54115 7.64113 0
M  V30 101 N 7.3905 -1.2043 1.01659 0
M  V30 102 C 8.3205 -2.25466 0.607226 0
M  V30 103 C 9.3015 -1.65853 -0.377716 0
M  V30 104 O 10.4865 -1.92409 -0.263149 0
M  V30 105 C 7.6165 -3.47256 -0.0552949 0
M  V30 106 C 6.5705 -4.19462 0.850632 0
M  V30 107 C 5.8965 -5.34673 0.0538859 0
M  V30 108 C 7.1965 -4.75603 2.15868 0
M  V30 109 H 8.8905 -2.59962 1.48526 0
M  V30 110 H 6.4365 -1.2496 0.715605 0
M  V30 111 H 8.3895 -4.19917 -0.353233 0
M  V30 112 H 7.1135 -3.11924 -0.968045 0
M  V30 113 H 5.7725 -3.48667 1.13257 0
M  V30 114 H 5.4205 -4.95585 -0.860514 0
M  V30 115 H 5.1205 -5.83913 0.657192 0
M  V30 116 H 6.6445 -6.10138 -0.237598 0
M  V30 117 H 8.0585 -5.40083 1.92311 0
M  V30 118 H 6.4555 -5.3528 2.71284 0
M  V30 119 H 7.5255 -3.94346 2.82169 0
M  V30 120 N 8.8686 -0.792821 -1.36206 0
M  V30 121 C 10.0966 -0.378825 -2.03402 0
M  V30 122 C 10.5116 1.00586 -1.59774 0
M  V30 123 O 9.8686 1.64574 -0.788764 0
M  V30 124 C 9.9196 -0.43683 -3.58851 0
M  V30 125 O 9.6406 -1.76691 -4.00889 0
M  V30 126 C 11.1416 -0.0138943 -4.43298 0
M  V30 127 H 8.3616 -0.155673 -0.652692 0
M  V30 128 H 10.9056 -1.07261 -1.74113 0
M  V30 129 H 9.0606 0.208575 -3.86838 0
M  V30 130 H 9.4746 -1.72011 -4.95492 0
M  V30 131 H 10.9486 -0.105615 -5.51899 0
M  V30 132 H 11.4256 1.03915 -4.2673 0
M  V30 133 H 12.0316 -0.63192 -4.20579 0
M  V30 134 N 10.3467 1.47872 -0.545128 0
M  V30 135 C 11.5947 2.02093 -0.016553 0
M  V30 136 C 11.9157 1.42305 1.3332 0
M  V30 137 O 11.1857 0.593853 1.86682 0
M  V30 138 H 9.7657 0.746993 -0.00313038 0
M  V30 139 H 12.4277 1.81414 -0.712397 0
M  V30 140 H 11.5237 3.11996 0.0805422 0
M  V30 141 N 11.8248 0.280983 1.55075 0
M  V30 142 C 13.0718 -0.334115 1.99725 0
M  V30 143 C 13.3998 -1.5542 1.1694 0
M  V30 144 O 12.6548 -1.94361 0.228531 0
M  V30 145 C 12.9538 -0.754656 3.49342 0
M  V30 146 C 12.6198 0.361445 4.49449 0
M  V30 147 C 11.2818 0.667893 4.76542 0
M  V30 148 C 13.6338 1.11322 5.09173 0
M  V30 149 C 10.9618 1.7296 5.60626 0
M  V30 150 C 13.3138 2.1647 5.9441 0
M  V30 151 C 11.9778 2.47742 6.19822 0
M  V30 152 H 11.2478 -0.122261 0.730844 0
M  V30 153 H 13.8948 0.395917 1.87363 0
M  V30 154 H 12.1998 -1.56446 3.5921 0
M  V30 155 H 13.8968 -1.24142 3.813 0
M  V30 156 H 10.4868 0.112481 4.28452 0
M  V30 157 H 14.6708 0.88973 4.8826 0
M  V30 158 H 9.9268 1.97684 5.78559 0
M  V30 159 H 14.1008 2.75193 6.3972 0
M  V30 160 H 11.7278 3.30145 6.84769 0
M  V30 161 N 13.3029 -1.57598 0.00835791 0
M  V30 162 C 14.5519 -1.90107 -0.673968 0
M  V30 163 C 14.8649 -0.884275 -1.7447 0
M  V30 164 O 16.0709 -1.09987 -2.48224 0
M  V30 165 C 14.5269 -3.37497 -1.24995 0
M  V30 166 C 14.1349 -4.47491 -0.2136 0
M  V30 167 C 15.8789 -3.79104 -1.90999 0
M  V30 168 C 13.7859 -5.85963 -0.80005 0
M  V30 169 H 12.7159 -0.709393 -0.255495 0
M  V30 170 H 15.3669 -1.83365 0.0702693 0
M  V30 171 H 13.7489 -3.39102 -2.04513 0
M  V30 172 H 14.9229 -4.57414 0.557596 0
M  V30 173 H 13.2379 -4.14956 0.346474 0
M  V30 174 H 15.8349 -4.79901 -2.35795 0
M  V30 175 H 16.1779 -3.1306 -2.74407 0
M  V30 176 H 16.7109 -3.79833 -1.18203 0
M  V30 177 H 13.4499 -6.555 -0.00456708 0
M  V30 178 H 12.9699 -5.79687 -1.54021 0
M  V30 179 H 14.6489 -6.33884 -1.29615 0
M  V30 180 N 14.781 0.264519 -1.55364 0
M  V30 181 C 16.028 0.994986 -1.7637 0
M  V30 182 C 16.356 1.85976 -0.5695 0
M  V30 183 O 15.611 1.90509 0.44776 0
M  V30 184 C 15.91 1.9004 -3.02687 0
M  V30 185 C 15.576 1.19243 -4.34847 0
M  V30 186 C 14.238 0.996709 -4.70764 0
M  V30 187 C 16.59 0.689296 -5.16622 0
M  V30 188 C 13.918 0.285261 -5.86006 0
M  V30 189 C 16.27 -0.00860079 -6.32599 0
M  V30 190 C 14.934 -0.215963 -6.67151 0
M  V30 191 H 14.204 0.364091 -0.645383 0
M  V30 192 H 16.851 0.266543 -1.89636 0
M  V30 193 H 15.156 2.69533 -2.84357 0
M  V30 194 H 16.853 2.46695 -3.16137 0
M  V30 195 H 13.443 1.3549 -4.06621 0
M  V30 196 H 17.627 0.828108 -4.89342 0
M  V30 197 H 12.883 0.113961 -6.11294 0
M  V30 198 H 17.057 -0.406186 -6.95214 0
M  V30 199 H 14.684 -0.769217 -7.56298 0
M  V30 200 N 16.2591 1.48442 0.529413 0
M  V30 201 C 17.5061 1.56488 1.28521 0
M  V30 202 C 17.8341 0.239042 1.93025 0
M  V30 203 O 17.0891 -0.770713 1.79885 0
M  V30 204 C 17.3881 2.6523 2.39558 0
M  V30 205 C 17.0541 4.07648 1.92702 0
M  V30 206 C 15.7161 4.46411 1.79641 0
M  V30 207 C 18.0681 4.96896 1.573 0
M  V30 208 C 15.3961 5.72226 1.29514 0
M  V30 209 C 17.7481 6.23202 1.08636 0
M  V30 210 C 16.4121 6.60821 0.941919 0
M  V30 211 H 15.6821 0.572631 0.470292 0
M  V30 212 H 18.3291 1.82161 0.59072 0
M  V30 213 H 16.6341 2.33419 3.14679 0
M  V30 214 H 18.3311 2.68671 2.97686 0
M  V30 215 H 14.9211 3.77036 2.03819 0
M  V30 216 H 19.1051 4.67626 1.66251 0
M  V30 217 H 14.3611 6.00097 1.17019 0
M  V30 218 H 18.5351 6.91753 0.803136 0
M  V30 219 H 16.1621 7.58198 0.5513 0
M  V30 220 N 17.7372 -0.778329 1.37039 0
M  V30 221 C 18.6672 -1.90546 1.34962 0
M  V30 222 C 19.6482 -1.68681 0.219274 0
M  V30 223 O 20.8332 -1.89634 0.418624 0
M  V30 224 C 17.9632 -3.27734 1.14925 0
M  V30 225 C 16.9172 -3.64147 2.24902 0
M  V30 226 C 16.2432 -4.99806 1.89996 0
M  V30 227 C 17.5432 -3.71579 3.67051 0
M  V30 228 H 19.2372 -1.92541 2.29277 0
M  V30 229 H 16.7832 -0.924948 1.10366 0
M  V30 230 H 18.7362 -4.06215 1.12104 0
M  V30 231 H 17.4602 -3.26154 0.170631 0
M  V30 232 H 16.1192 -2.8797 2.26868 0
M  V30 233 H 15.7672 -4.94759 0.906796 0
M  V30 234 H 15.4672 -5.25139 2.63634 0
M  V30 235 H 16.9912 -5.80694 1.88749 0
M  V30 236 H 18.4052 -4.40227 3.67251 0
M  V30 237 H 16.8022 -4.08405 4.39688 0
M  V30 238 H 17.8722 -2.72404 4.01154 0
M  V30 239 N 19.2153 -1.21501 -1.00376 0
M  V30 240 C 20.4623 -1.03299 -1.74171 0
M  V30 241 C 20.7903 0.433326 -1.89612 0
M  V30 242 O 20.0453 1.33779 -1.42834 0
M  V30 243 C 20.3443 -1.67673 -3.15627 0
M  V30 244 C 20.0103 -3.17533 -3.2013 0
M  V30 245 C 18.6723 -3.58427 -3.21067 0
M  V30 246 C 21.0243 -4.13504 -3.17275 0
M  V30 247 C 18.3523 -4.93794 -3.16835 0
M  V30 248 C 20.7043 -5.48834 -3.14585 0
M  V30 249 C 19.3683 -5.89123 -3.13831 0
M  V30 250 H 18.6383 -0.377999 -0.637336 0
M  V30 251 H 21.2853 -1.51111 -1.17634 0
M  V30 252 H 19.5903 -1.12158 -3.75404 0
M  V30 253 H 21.2873 -1.51091 -3.71446 0
M  V30 254 H 17.8773 -2.84965 -3.20145 0
M  V30 255 H 22.0613 -3.82936 -3.15711 0
M  V30 256 H 17.3173 -5.24255 -3.1459 0
M  V30 257 H 21.4913 -6.22934 -3.1133 0
M  V30 258 H 19.1183 -6.93984 -3.10307 0
M  V30 259 N 20.6934 1.19889 -1.02296 0
M  V30 260 C 21.9404 1.8942 -0.715972 0
M  V30 261 C 22.2684 1.79251 0.754944 0
M  V30 262 O 21.5234 1.17526 1.56481 0
M  V30 263 C 21.8224 3.39883 -1.10518 0
M  V30 264 C 21.4884 3.70254 -2.57337 0
M  V30 265 C 20.1504 3.78254 -2.97452 0
M  V30 266 C 22.5024 3.84052 -3.52354 0
M  V30 267 C 19.8304 3.97514 -4.31509 0
M  V30 268 C 22.1824 4.04824 -4.86108 0
M  V30 269 C 20.8464 4.11054 -5.25919 0
M  V30 270 H 20.1164 0.693138 -0.261993 0
M  V30 271 H 22.7634 1.42012 -1.28472 0
M  V30 272 H 21.0684 3.8915 -0.454953 0
M  V30 273 H 22.7654 3.9199 -0.845261 0
M  V30 274 H 19.3554 3.64632 -2.25258 0
M  V30 275 H 23.5394 3.77221 -3.22518 0
M  V30 276 H 18.7954 4.00574 -4.61898 0
M  V30 277 H 22.9694 4.14442 -5.59653 0
M  V30 278 H 20.5964 4.2573 -6.29808 0
M  V30 279 N 22.1715 0.800033 1.35784 0
M  V30 280 C 23.1015 0.220184 2.3246 0
M  V30 281 C 24.0825 -0.65073 1.57161 0
M  V30 282 O 25.2675 -0.582359 1.85263 0
M  V30 283 C 22.3975 -0.637353 3.41402 0
M  V30 284 C 21.3515 0.134531 4.27789 0
M  V30 285 C 20.6775 -0.844285 5.27992 0
M  V30 286 C 21.9775 1.32979 5.05088 0
M  V30 287 H 23.6715 1.02787 2.81203 0
M  V30 288 H 21.2175 0.495717 1.35199 0
M  V30 289 H 23.1705 -1.05302 4.08031 0
M  V30 290 H 21.8945 -1.47785 2.91251 0
M  V30 291 H 20.5535 0.531296 3.6273 0
M  V30 292 H 20.2015 -1.68011 4.74111 0
M  V30 293 H 19.9015 -0.332184 5.8666 0
M  V30 294 H 21.4255 -1.2583 5.97494 0
M  V30 295 H 22.8395 0.98934 5.64699 0
M  V30 296 H 21.2365 1.77593 5.7322 0
M  V30 297 H 22.3065 2.11978 4.36111 0
M  V30 298 N 23.6496 -1.47581 0.552962 0
M  V30 299 C 24.8776 -2.06875 0.0320556 0
M  V30 300 C 25.2926 -1.40625 -1.25976 0
M  V30 301 O 24.6496 -0.501349 -1.75479 0
M  V30 302 C 24.7006 -3.61092 -0.17167 0
M  V30 303 O 24.4216 -4.24858 1.06899 0
M  V30 304 C 25.9226 -4.37242 -0.730344 0
M  V30 305 H 23.1426 -0.669561 0.043915 0
M  V30 306 H 25.6866 -1.89646 0.765163 0
M  V30 307 H 23.8416 -3.7785 -0.854894 0
M  V30 308 H 24.2556 -5.17334 0.864059 0
M  V30 309 H 25.7296 -5.45842 -0.822203 0
M  V30 310 H 26.2066 -4.03235 -1.74064 0
M  V30 311 H 26.8126 -4.25219 -0.0829543 0
M  V30 312 N 25.1277 -0.289203 -1.54924 0
M  V30 313 C 26.0377 0.601863 -2.26748 0
M  V30 314 C 27.0537 1.15834 -1.2984 0
M  V30 315 O 28.2297 1.18564 -1.62802 0
M  V30 316 C 25.2947 1.76299 -2.98529 0
M  V30 317 C 24.3557 1.24178 -4.10948 0
M  V30 318 C 23.5887 2.34757 -4.79296 0
M  V30 319 O 23.8117 3.54411 -4.46933 0
M  V30 320 O 22.7457 2.02115 -5.66951 0
M  V30 321 H 26.5717 0.0195879 -3.03694 0
M  V30 322 H 24.1567 -0.0560868 -1.49295 0
M  V30 323 H 26.0387 2.43973 -3.43592 0
M  V30 324 H 24.7137 2.33209 -2.24488 0
M  V30 325 H 23.6207 0.531104 -3.70311 0
M  V30 326 H 24.9537 0.718252 -4.86931 0
M  V30 327 N 26.6058 1.57591 -0.0167156 0
M  V30 328 C 27.8308 1.9598 0.67872 0
M  V30 329 C 28.2558 0.892546 1.65575 0
M  V30 330 O 27.6138 -0.147772 1.80697 0
M  V30 331 C 27.6618 3.33468 1.37227 0
M  V30 332 O 26.7658 3.28954 2.48722 0
M  V30 333 H 26.1068 0.639339 0.17928 0
M  V30 334 H 28.6368 2.04463 -0.0748802 0
M  V30 335 H 28.6468 3.69417 1.7319 0
M  V30 336 H 27.3218 4.10694 0.656007 0
M  V30 337 H 25.8988 3.04705 2.14963 0
M  V30 338 N 28.0839 -0.256276 1.55502 0
M  V30 339 C 29.0139 -1.32102 1.92539 0
M  V30 340 C 29.9949 -1.50684 0.789194 0
M  V30 341 O 31.1799 -1.63449 1.04872 0
M  V30 342 C 28.3099 -2.67752 2.21192 0
M  V30 343 C 27.2639 -2.63878 3.36975 0
M  V30 344 C 26.5899 -4.03236 3.51147 0
M  V30 345 C 27.8899 -2.21682 4.72921 0
M  V30 346 H 29.5839 -1.01351 2.81724 0
M  V30 347 H 27.1299 -0.486105 1.35547 0
M  V30 348 H 29.0829 -3.42365 2.45691 0
M  V30 349 H 27.8069 -3.0012 1.28824 0
M  V30 350 H 26.4659 -1.91722 3.12471 0
M  V30 351 H 26.1139 -4.32854 2.56216 0
M  V30 352 H 25.8139 -4.01535 4.29003 0
M  V30 353 H 27.3379 -4.79563 3.77957 0
M  V30 354 H 28.7519 -2.86023 4.96854 0
M  V30 355 H 27.1489 -2.3111 5.53812 0
M  V30 356 H 28.2189 -1.16833 4.70615 0
M  V30 357 N 29.562 -1.4872 -0.521534 0
M  V30 358 C 30.79 -1.60843 -1.30142 0
M  V30 359 C 31.205 -0.271897 -1.86832 0
M  V30 360 O 30.562 0.739969 -1.66825 0
M  V30 361 C 30.613 -2.66155 -2.4463 0
M  V30 362 O 30.334 -3.94623 -1.90275 0
M  V30 363 C 31.835 -2.88795 -3.36322 0
M  V30 364 H 29.055 -0.542075 -0.395468 0
M  V30 365 H 31.599 -1.94609 -0.628285 0
M  V30 366 H 29.754 -2.35224 -3.07812 0
M  V30 367 H 30.168 -4.52468 -2.65279 0
M  V30 368 H 31.642 -3.66264 -4.12983 0
M  V30 369 H 32.119 -1.97934 -3.9207 0
M  V30 370 H 32.725 -3.21063 -2.78924 0
M  V30 371 N 31.0401 0.771051 -1.3745 0
M  V30 372 C 31.9701 1.89827 -1.3597 0
M  V30 373 C 32.9511 1.68562 -0.228216 0
M  V30 374 O 34.1361 1.8941 -0.428675 0
M  V30 375 C 31.2661 3.2712 -1.16662 0
M  V30 376 C 30.2201 3.6295 -2.2683 0
M  V30 377 C 29.5461 4.98791 -1.92644 0
M  V30 378 C 30.8461 3.69627 -3.69017 0
M  V30 379 H 32.5401 1.91323 -2.30295 0
M  V30 380 H 30.0861 0.919082 -1.10855 0
M  V30 381 H 32.0391 4.05615 -1.14256 0
M  V30 382 H 30.7631 3.26059 -0.187926 0
M  V30 383 H 29.4221 2.86763 -2.28392 0
M  V30 384 H 29.0701 4.94271 -0.933021 0
M  V30 385 H 28.7701 5.23733 -2.66416 0
M  V30 386 H 30.2941 5.79685 -1.91826 0
M  V30 387 H 31.7081 4.38273 -3.69581 0
M  V30 388 H 30.1051 4.06067 -4.41848 0
M  V30 389 H 31.1751 2.70273 -4.02592 0
M  V30 390 N 32.5182 1.22032 0.997298 0
M  V30 391 C 33.9292 1.0397 1.55071 0
M  V30 392 C 34.2802 -0.398192 1.92117 0
M  V30 393 O 33.4052 -1.28254 1.74298 0
M  V30 394 C 34.0002 1.88109 2.81781 0
M  V30 395 C 32.5592 1.74357 3.33581 0
M  V30 396 C 31.7062 1.84846 2.06706 0
M  V30 397 H 34.6572 1.35941 0.818883 0
M  V30 398 H 34.6782 1.39589 3.53971 0
M  V30 399 H 34.1902 2.92754 2.54787 0
M  V30 400 H 32.2912 0.72427 3.65493 0
M  V30 401 H 32.4042 2.56772 4.04481 0
M  V30 402 H 30.7682 1.28238 2.20062 0
M  V30 403 H 31.5512 2.91014 1.82114 0
M  V30 404 N 33.9963 -1.19345 1.0293 0
M  V30 405 C 35.2243 -1.92997 0.745644 0
M  V30 406 C 35.6393 -1.75519 -0.695589 0
M  V30 407 O 34.9963 -1.07737 -1.47306 0
M  V30 408 C 35.0473 -3.44741 1.08792 0
M  V30 409 O 34.7683 -3.61658 2.47256 0
M  V30 410 C 36.2693 -4.35515 0.827129 0
M  V30 411 H 33.4893 -0.613042 0.272801 0
M  V30 412 H 36.0333 -1.51473 1.3739 0
M  V30 413 H 34.1883 -3.84097 0.504832 0
M  V30 414 H 34.6023 -4.55514 2.60015 0
M  V30 415 H 36.0763 -5.40589 1.11658 0
M  V30 416 H 36.5533 -4.38552 -0.238436 0
M  V30 417 H 37.1593 -4.01841 1.39297 0
M  V30 418 N 35.4744 -0.807222 -1.35358 0
M  V30 419 C 36.4064 -0.175717 -2.28525 0
M  V30 420 C 37.4194 0.625354 -1.5031 0
M  V30 421 O 38.6084 0.457611 -1.72535 0
M  V30 422 C 35.7084 0.773471 -3.29956 0
M  V30 423 C 34.8814 0.0186296 -4.37396 0
M  V30 424 C 33.9404 0.886395 -5.18681 0
M  V30 425 O 32.9664 0.337106 -5.68201 0
M  V30 426 N 34.1684 2.20839 -5.36852 0
M  V30 427 H 36.9334 -0.976091 -2.83359 0
M  V30 428 H 34.4944 -0.662737 -1.47714 0
M  V30 429 H 36.4864 1.35824 -3.81227 0
M  V30 430 H 35.0564 1.47465 -2.75632 0
M  V30 431 H 34.2764 -0.747349 -3.87051 0
M  V30 432 H 35.5644 -0.501577 -5.06322 0
M  V30 433 H 34.9624 2.67858 -4.98265 0
M  V30 434 H 33.5194 2.74237 -5.91301 0
M  V30 435 N 36.9525 1.47285 -0.560781 0
M  V30 436 C 38.3635 1.86258 -0.128343 0
M  V30 437 C 38.7145 1.46699 1.30284 0
M  V30 438 O 37.8395 0.871698 1.98067 0
M  V30 439 C 38.4345 3.38044 -0.22614 0
M  V30 440 C 36.9935 3.76096 0.151283 0
M  V30 441 C 36.1405 2.71335 -0.572084 0
M  V30 442 H 39.0915 1.38752 -0.770297 0
M  V30 443 H 39.1125 3.76441 0.554322 0
M  V30 444 H 38.6245 3.66806 -1.26788 0
M  V30 445 H 36.7255 3.52951 1.19399 0
M  V30 446 H 36.8385 4.78641 -0.209765 0
M  V30 447 H 35.2025 2.54696 -0.0147653 0
M  V30 448 H 35.9855 3.02938 -1.61504 0
M  V30 449 N 38.4306 0.297415 1.54768 0
M  V30 450 C 39.8466 -0.0560823 1.59501 0
M  V30 451 C 40.0466 -1.52725 1.31444 0
M  V30 452 O 39.1026 -2.27947 1.08611 0
M  V30 453 C 40.4156 0.338631 2.98787 0
M  V30 454 C 41.9636 0.287097 3.11681 0
M  V30 455 C 42.4386 0.656579 4.53269 0
M  V30 456 N 43.9296 0.608977 4.59179 0
M  V30 457 C 44.6646 0.867385 5.66802 0
M  V30 458 N 44.1606 1.19157 6.82476 0
M  V30 459 N 45.9536 0.794687 5.56454 0
M  V30 460 H 38.1046 1.25624 1.71267 0
M  V30 461 H 40.3676 0.509057 0.799728 0
M  V30 462 H 40.0736 1.36263 3.2423 0
M  V30 463 H 39.9476 -0.309508 3.75928 0
M  V30 464 H 42.3346 -0.727649 2.85988 0
M  V30 465 H 42.4156 0.969809 2.36703 0
M  V30 466 H 42.0596 1.66912 4.7969 0
M  V30 467 H 41.9896 -0.0481649 5.26578 0
M  V30 468 H 44.4806 0.369198 3.76092 0
M  V30 469 H 44.7936 1.37482 7.60473 0
M  V30 470 H 43.1386 1.22958 6.84037 0
M  V30 471 H 46.3296 0.541098 4.64962 0
M  V30 472 H 46.5026 0.999445 6.40246 0
M  V30 473 N 39.9087 -1.5758 0.0250728 0
M  V30 474 C 41.1857 -1.82917 -0.692873 0
M  V30 475 C 41.5657 -0.908137 -1.90568 0
M  V30 476 O 40.9137 0.0372298 -2.2847 0
M  V30 477 C 41.1237 -3.32034 -1.07492 0
M  V30 478 C 42.4717 -3.98406 -1.46826 0
M  V30 479 O 43.4957 -3.36505 -1.16801 0
M  V30 480 O 42.3547 -5.07497 -2.02754 0
M  V30 481 H 39.4487 -0.754079 -0.33955 0
M  V30 482 H 41.9947 -1.69619 0.0524456 0
M  V30 483 H 40.7667 -3.90728 -0.211552 0
M  V30 484 H 40.3897 -3.50424 -1.87854 0
M  V30 485 N 41.3868 0.248026 -1.55636 0
M  V30 486 C 42.6358 0.974134 -1.76617 0
M  V30 487 C 42.9488 1.86528 -0.588796 0
M  V30 488 O 44.1548 2.62805 -0.681594 0
M  V30 489 C 42.6108 1.78213 -3.12679 0
M  V30 490 C 42.2188 0.93843 -4.38061 0
M  V30 491 C 43.9628 2.50104 -3.42999 0
M  V30 492 C 41.8698 1.74225 -5.65155 0
M  V30 493 H 40.7998 0.36745 -0.658405 0
M  V30 494 H 43.4508 0.22884 -1.82067 0
M  V30 495 H 41.8328 2.56933 -3.01333 0
M  V30 496 H 43.0068 0.193635 -4.60393 0
M  V30 497 H 41.3218 0.332905 -4.15067 0
M  V30 498 H 43.9188 3.10694 -4.3517 0
M  V30 499 H 44.2618 3.21662 -2.64271 0
M  V30 500 H 44.7948 1.78395 -3.55556 0
M  V30 501 H 41.5338 1.07043 -6.46701 0
M  V30 502 H 41.0538 2.46235 -5.46926 0
M  V30 503 H 42.7328 2.30967 -6.0437 0
M  V30 504 N 42.8649 1.48995 0.513639 0
M  V30 505 C 43.7749 1.67443 1.64317 0
M  V30 506 C 44.7909 0.556947 1.64846 0
M  V30 507 O 45.9669 0.830082 1.83498 0
M  V30 508 C 43.0319 1.72515 3.00732 0
M  V30 509 C 42.0929 2.96009 3.1093 0
M  V30 510 C 41.3259 3.00829 4.40837 0
M  V30 511 O 41.5489 2.13594 5.28898 0
M  V30 512 O 40.4829 3.93168 4.55744 0
M  V30 513 H 44.3089 2.63106 1.51687 0
M  V30 514 H 41.8939 1.32588 0.688543 0
M  V30 515 H 43.7759 1.78277 3.81831 0
M  V30 516 H 42.4509 0.800278 3.13651 0
M  V30 517 H 41.3579 2.9577 2.29065 0
M  V30 518 H 42.6909 3.87934 3.02933 0
M  V30 519 N 44.343 -0.763751 1.37857 0
M  V30 520 C 45.291 -1.89864 1.34367 0
M  V30 521 C 46.285 -1.67816 0.231143 0
M  V30 522 O 47.491 -1.75508 0.399617 0
M  V30 523 H 43.866 -0.624501 0.41893 0
M  V30 524 H 45.837 -1.89925 2.30155 0
M  V30 525 C 44.586 -3.27227 1.1755 0
M  V30 526 H 43.909 -3.44773 2.02414 0
M  V30 527 H 45.349 -4.06911 1.1916 0
M  V30 528 C 43.808 -3.36692 -0.118311 0
M  V30 529 O 44.338 -3.86374 -1.09902 0
M  V30 530 N 42.544 -2.90092 -0.171717 0
M  V30 531 H 42.091 -2.49853 0.627012 0
M  V30 532 H 42.049 -2.96806 -1.03699 0
M  V30 533 N 45.8211 -1.22559 -0.990812 0
M  V30 534 C 47.0681 -1.05141 -1.73065 0
M  V30 535 C 47.3961 0.413191 -1.9006 0
M  V30 536 O 46.6511 1.32257 -1.44245 0
M  V30 537 C 46.9501 -1.71011 -3.13831 0
M  V30 538 C 46.6161 -3.20911 -3.16745 0
M  V30 539 C 45.2781 -3.61812 -3.17247 0
M  V30 540 C 47.6301 -4.16846 -3.12872 0
M  V30 541 C 44.9581 -4.97127 -3.1158 0
M  V30 542 C 47.3101 -5.5214 -3.08746 0
M  V30 543 C 45.9741 -5.92419 -3.07565 0
M  V30 544 H 45.2441 -0.384738 -0.633291 0
M  V30 545 H 47.8911 -1.5235 -1.16025 0
M  V30 546 H 46.1961 -1.16133 -3.74193 0
M  V30 547 H 47.8931 -1.55023 -3.69823 0
M  V30 548 H 44.4831 -2.88344 -3.17105 0
M  V30 549 H 48.6671 -3.86263 -3.11632 0
M  V30 550 H 43.9231 -5.27562 -3.09012 0
M  V30 551 H 48.0971 -6.26201 -3.04705 0
M  V30 552 H 45.7241 -6.97236 -3.02929 0
M  V30 553 N 47.2992 1.18797 -1.03562 0
M  V30 554 C 48.2472 2.24297 -0.615905 0
M  V30 555 C 49.2412 1.65643 0.354808 0
M  V30 556 O 50.4472 1.78618 0.22265 0
M  V30 557 H 46.8222 0.729909 -0.180934 0
M  V30 558 H 48.7932 2.5701 -1.5162 0
M  V30 559 C 47.5422 3.47698 0.0104735 0
M  V30 560 H 46.8652 3.93125 -0.727509 0
M  V30 561 H 48.3052 4.23159 0.266995 0
M  V30 562 C 46.7642 3.12489 1.25905 0
M  V30 563 O 47.2942 3.25761 2.35038 0
M  V30 564 N 45.5002 2.6686 1.15039 0
M  V30 565 H 45.0472 2.56261 0.262328 0
M  V30 566 H 45.0052 2.43674 1.98672 0
M  V30 567 N 48.7773 0.814389 1.34928 0
M  V30 568 C 50.0023 0.410097 2.03305 0
M  V30 569 C 50.4273 -0.973464 1.60951 0
M  V30 570 O 49.7853 -1.63185 0.789964 0
M  V30 571 C 49.8333 0.51049 3.56968 0
M  V30 572 O 48.9373 -0.473035 4.09678 0
M  V30 573 H 48.2783 0.170088 0.641846 0
M  V30 574 H 50.8083 1.10244 1.72358 0
M  V30 575 H 50.8183 0.383135 4.06197 0
M  V30 576 H 49.4933 1.51963 3.87144 0
M  V30 577 H 48.0703 -0.305272 3.71648 0
M  V30 578 N 50.2554 -1.46986 0.568584 0
M  V30 579 C 51.4834 -2.0683 0.0539956 0
M  V30 580 C 51.8984 -1.41953 -1.24478 0
M  V30 581 O 51.2554 -0.519933 -1.74937 0
M  V30 582 C 51.3064 -3.61254 -0.133362 0
M  V30 583 O 51.0274 -4.237 1.11399 0
M  V30 584 C 52.5284 -4.37992 -0.683927 0
M  V30 585 H 49.7484 -0.669058 0.0510141 0
M  V30 586 H 52.2924 -1.88824 0.785234 0
M  V30 587 H 50.4474 -3.78735 -0.81477 0
M  V30 588 H 50.8614 -5.16388 0.91888 0
M  V30 589 H 52.3354 -5.46684 -0.764263 0
M  V30 590 H 52.8124 -4.05058 -1.69778 0
M  V30 591 H 53.4184 -4.25283 -0.0378494 0
M  V30 592 N 51.7335 -0.305618 -1.54608 0
M  V30 593 C 52.6655 0.602161 -2.21149 0
M  V30 594 C 53.6785 1.09394 -1.20569 0
M  V30 595 O 54.8675 1.0106 -1.47136 0
M  V30 596 C 51.9675 1.83692 -2.84799 0
M  V30 597 C 51.1405 1.48686 -4.11353 0
M  V30 598 C 50.1995 2.57725 -4.58764 0
M  V30 599 O 49.2255 2.22623 -5.23858 0
M  V30 600 N 50.4275 3.88346 -4.31471 0
M  V30 601 H 53.1925 0.0324966 -2.99682 0
M  V30 602 H 50.7535 -0.128021 -1.61393 0
M  V30 603 H 52.7455 2.55994 -3.13448 0
M  V30 604 H 51.3155 2.31486 -2.10078 0
M  V30 605 H 50.5355 0.596269 -3.89664 0
M  V30 606 H 51.8235 1.22842 -4.93748 0
M  V30 607 H 51.2215 4.19671 -3.79331 0
M  V30 608 H 49.7785 4.56932 -4.64818 0
M  V30 609 N 53.2116 1.57565 -0.0334293 0
M  V30 610 C 54.1586 2.10478 0.946981 0
M  V30 611 C 55.1286 1.00787 1.32027 0
M  V30 612 O 56.3136 1.28232 1.41284 0
M  V30 613 C 53.4536 2.63994 2.22263 0
M  V30 614 C 52.5666 3.87709 1.90541 0
M  V30 615 C 51.7016 4.29604 3.12433 0
M  V30 616 C 50.7406 5.46065 2.76549 0
M  V30 617 N 49.8776 5.83096 3.9108 0
M  V30 618 H 54.7176 2.93963 0.488846 0
M  V30 619 H 52.2546 1.45296 0.22969 0
M  V30 620 H 54.2126 2.93114 2.96884 0
M  V30 621 H 52.8426 1.83333 2.65685 0
M  V30 622 H 51.8946 3.65291 1.06144 0
M  V30 623 H 53.2066 4.72403 1.60116 0
M  V30 624 H 52.3606 4.60182 3.9537 0
M  V30 625 H 51.0996 3.43685 3.46023 0
M  V30 626 H 50.1046 5.15176 1.92026 0
M  V30 627 H 51.3296 6.33685 2.44171 0
M  V30 628 H 49.2756 5.00132 4.24504 0
M  V30 629 H 49.1926 6.6244 3.64293 0
M  V30 630 H 50.4606 6.18282 4.74708 0
M  V30 631 N 54.6897 -0.239769 1.55765 0
M  V30 632 C 55.9367 -0.966801 1.7793 0
M  V30 633 C 56.2647 -1.85046 0.599015 0
M  V30 634 O 55.5197 -1.91197 -0.417395 0
M  V30 635 C 55.8187 -1.852 3.05672 0
M  V30 636 C 55.4847 -1.1231 4.36689 0
M  V30 637 C 54.1467 -0.921689 4.72291 0
M  V30 638 C 56.4987 -0.607019 5.17653 0
M  V30 639 C 53.8267 -0.191996 5.86386 0
M  V30 640 C 56.1787 0.109241 6.32506 0
M  V30 641 C 54.8427 0.322073 6.66723 0
M  V30 642 H 54.1127 -0.353778 0.651093 0
M  V30 643 H 56.7597 -0.23634 1.90036 0
M  V30 644 H 55.0647 -2.64975 2.8861 0
M  V30 645 H 56.7617 -2.41635 3.20021 0
M  V30 646 H 53.3517 -1.29004 4.08725 0
M  V30 647 H 57.5357 -0.750153 4.90598 0
M  V30 648 H 52.7917 -0.0166949 6.11398 0
M  V30 649 H 56.9657 0.516737 6.9448 0
M  V30 650 H 54.5927 0.88944 7.54979 0
M  V30 651 N 56.1678 -1.49265 -0.50573 0
M  V30 652 C 57.4168 -1.57761 -1.25675 0
M  V30 653 C 57.7298 -0.267371 -1.93764 0
M  V30 654 O 58.9358 -0.230827 -2.70517 0
M  V30 655 C 57.3918 -2.78332 -2.28165 0
M  V30 656 C 56.9998 -4.16096 -1.66037 0
M  V30 657 C 58.7438 -2.96155 -3.04125 0
M  V30 658 C 56.6508 -5.27895 -2.6661 0
M  V30 659 H 55.5808 -0.587391 -0.472745 0
M  V30 660 H 58.2318 -1.75644 -0.53118 0
M  V30 661 H 56.6138 -2.53934 -3.03865 0
M  V30 662 H 57.7878 -4.50612 -0.963622 0
M  V30 663 H 56.1028 -4.03591 -1.02484 0
M  V30 664 H 58.6998 -3.76849 -3.79327 0
M  V30 665 H 59.0428 -2.06534 -3.61455 0
M  V30 666 H 59.5758 -3.2057 -2.35541 0
M  V30 667 H 56.3148 -6.1956 -2.14068 0
M  V30 668 H 55.8348 -4.97839 -3.34539 0
M  V30 669 H 57.5138 -5.57031 -3.29129 0
M  V30 670 N 57.6459 0.756429 -1.3826 0
M  V30 671 C 58.5559 1.9009 -1.37488 0
M  V30 672 C 59.5719 1.71855 -0.272366 0
M  V30 673 O 60.7479 1.94827 -0.510318 0
M  V30 674 C 57.8129 3.25421 -1.19592 0
M  V30 675 C 56.8739 3.56202 -2.39622 0
M  V30 676 C 56.1069 4.85075 -2.2257 0
M  V30 677 O 56.3299 5.57246 -1.21793 0
M  V30 678 O 55.2639 5.15269 -3.11098 0
M  V30 679 H 59.0899 1.93695 -2.33914 0
M  V30 680 H 56.6749 0.901313 -1.1915 0
M  V30 681 H 58.5569 4.06337 -1.11661 0
M  V30 682 H 57.2319 3.22634 -0.262486 0
M  V30 683 H 56.1389 2.75458 -2.53128 0
M  V30 684 H 57.4719 3.63747 -3.31586 0
M  V30 685 N 59.124 1.23083 0.984299 0
M  V30 686 C 60.401 0.9689 1.69917 0
M  V30 687 C 60.781 -0.513604 2.04757 0
M  V30 688 O 60.129 -1.48383 1.73767 0
M  V30 689 C 60.339 1.87518 2.94343 0
M  V30 690 C 61.687 2.13636 3.6694 0
M  V30 691 O 62.711 1.85036 3.04368 0
M  V30 692 O 61.57 2.62119 4.79537 0
M  V30 693 H 58.664 0.365095 0.742048 0
M  V30 694 H 61.21 1.34107 1.03987 0
M  V30 695 H 59.982 2.87756 2.65164 0
M  V30 696 H 59.605 1.50514 3.6801 0
M  V30 697 N 60.6021 -1.18246 1.0419 0
M  V30 698 C 61.5501 -2.23968 0.627792 0
M  V30 699 C 62.5441 -1.65828 -0.346019 0
M  V30 700 O 63.7501 -1.78733 -0.213175 0
M  V30 701 H 60.1251 -0.728939 0.184802 0
M  V30 702 H 62.0961 -2.56202 1.52981 0
M  V30 703 C 60.8451 -3.47699 0.00796591 0
M  V30 704 H 60.1681 -3.92734 0.748347 0
M  V30 705 H 61.6081 -4.23294 -0.24455 0
M  V30 706 C 60.0671 -3.13153 -1.24246 0
M  V30 707 O 60.5971 -3.27003 -2.33307 0
M  V30 708 N 58.8031 -2.67467 -1.13622 0
M  V30 709 H 58.3501 -2.56396 -0.248734 0
M  V30 710 H 58.3081 -2.44724 -1.97377 0
M  V30 711 N 62.0802 -0.821533 -1.34494 0
M  V30 712 C 63.3292 -0.405355 -1.97585 0
M  V30 713 C 63.6422 1.03677 -1.65863 0
M  V30 714 O 64.8482 1.55679 -2.22433 0
M  V30 715 C 63.3042 -0.673861 -3.53535 0
M  V30 716 C 62.9122 -2.12951 -3.94152 0
M  V30 717 C 64.6562 -0.32378 -4.23263 0
M  V30 718 C 62.5632 -2.34298 -5.43009 0
M  V30 719 H 61.4932 -0.147836 -0.739365 0
M  V30 720 H 64.1442 -1.00769 -1.53355 0
M  V30 721 H 62.5262 -0.00137554 -3.96 0
M  V30 722 H 63.7002 -2.84104 -3.62797 0
M  V30 723 H 62.0152 -2.44089 -3.37356 0
M  V30 724 H 64.6122 -0.461126 -5.32708 0
M  V30 725 H 64.9552 0.731586 -4.09821 0
M  V30 726 H 65.4882 -0.950786 -3.8627 0
M  V30 727 H 62.2272 -3.38335 -5.61435 0
M  V30 728 H 61.7472 -1.67687 -5.75883 0
M  V30 729 H 63.4262 -2.16588 -6.09671 0
M  V30 730 N 63.5583 1.46682 -0.576371 0
M  V30 731 C 64.4683 2.34032 0.163141 0
M  V30 732 C 65.4843 1.49367 0.892501 0
M  V30 733 O 66.6603 1.82252 0.857106 0
M  V30 734 C 63.7253 3.26435 1.16795 0
M  V30 735 C 62.7863 4.26998 0.443944 0
M  V30 736 C 62.0193 5.14986 1.40088 0
M  V30 737 O 62.2423 5.05785 2.637 0
M  V30 738 O 61.1763 5.94906 0.914917 0
M  V30 739 H 65.0023 2.98607 -0.55388 0
M  V30 740 H 62.5873 1.45554 -0.336821 0
M  V30 741 H 64.4693 3.83459 1.74748 0
M  V30 742 H 63.1443 2.64465 1.86655 0
M  V30 743 H 62.0513 3.7368 -0.177271 0
M  V30 744 H 63.3843 4.91736 -0.213566 0
M  V30 745 N 65.0364 0.313813 1.54444 0
M  V30 746 C 66.2664 -0.293491 2.04505 0
M  V30 747 C 66.6744 -1.47086 1.19005 0
M  V30 748 O 66.0174 -1.82481 0.211257 0
M  V30 749 C 66.0794 -0.800455 3.50475 0
M  V30 750 C 65.7434 0.253322 4.56297 0
M  V30 751 C 66.7404 1.08612 5.08428 0
M  V30 752 C 64.4254 0.398708 5.00715 0
M  V30 753 C 66.4194 2.05013 6.0353 0
M  V30 754 C 64.1064 1.36614 5.95634 0
M  V30 755 C 65.1044 2.19033 6.46926 0
M  V30 756 O 64.7924 3.14134 7.39983 0
M  V30 757 H 64.5244 -0.0658325 0.672787 0
M  V30 758 H 67.0784 0.455177 2.00293 0
M  V30 759 H 65.3084 -1.59987 3.52053 0
M  V30 760 H 66.9974 -1.32504 3.83663 0
M  V30 761 H 67.7634 0.984736 4.74898 0
M  V30 762 H 63.6424 -0.23289 4.60411 0
M  V30 763 H 67.1864 2.69382 6.4349 0
M  V30 764 H 63.0834 1.4682 6.28581 0
M  V30 765 H 63.8514 3.0926 7.57826 0
M  V30 766 N 66.5145 -1.57545 0.0417849 0
M  V30 767 C 67.7635 -1.91494 -0.633492 0
M  V30 768 C 68.0765 -0.921084 -1.72556 0
M  V30 769 O 69.2825 -1.15228 -2.45835 0
M  V30 770 C 67.7385 -3.40072 -1.17808 0
M  V30 771 C 67.3465 -4.47843 -0.118633 0
M  V30 772 C 69.0905 -3.8307 -1.82915 0
M  V30 773 C 66.9975 -5.87529 -0.675578 0
M  V30 774 H 65.9275 -0.714653 -0.24039 0
M  V30 775 H 68.5785 -1.83175 0.109148 0
M  V30 776 H 66.9605 -3.43364 -1.97274 0
M  V30 777 H 68.1345 -4.56128 0.654494 0
M  V30 778 H 66.4495 -4.14128 0.434414 0
M  V30 779 H 69.0465 -4.84794 -2.25563 0
M  V30 780 H 69.3895 -3.1881 -2.67705 0
M  V30 781 H 69.9225 -3.82255 -1.10119 0
M  V30 782 H 66.6615 -6.55362 0.134475 0
M  V30 783 H 66.1815 -5.82824 -1.4169 0
M  V30 784 H 67.8605 -6.36491 -1.1614 0
M  V30 785 N 67.9926 0.231505 -1.5589 0
M  V30 786 C 69.2206 0.974505 -1.82513 0
M  V30 787 C 69.6356 1.78344 -0.619591 0
M  V30 788 O 68.9926 1.77792 0.411848 0
M  V30 789 C 69.0436 1.90007 -3.07538 0
M  V30 790 O 68.7646 1.12385 -4.2344 0
M  V30 791 C 70.2656 2.75779 -3.47075 0
M  V30 792 H 67.4856 0.286065 -0.606966 0
M  V30 793 H 70.0296 0.249739 -2.02969 0
M  V30 794 H 68.1846 2.57891 -2.89086 0
M  V30 795 H 68.5986 1.75125 -4.944 0
M  V30 796 H 70.0726 3.36443 -4.37619 0
M  V30 797 H 70.5496 3.47672 -2.68367 0
M  V30 798 H 71.1556 2.13323 -3.67931 0
M  V30 799 N 69.4707 1.49531 0.497807 0
M  V30 800 C 70.7197 1.58426 1.24837 0
M  V30 801 C 71.0327 0.277643 1.93619 0
M  V30 802 O 72.2387 0.24517 2.70391 0
M  V30 803 C 70.6947 2.79538 2.26686 0
M  V30 804 C 70.3027 4.16971 1.63828 0
M  V30 805 C 72.0467 2.97764 3.0255 0
M  V30 806 C 69.9537 5.29301 2.63807 0
M  V30 807 H 68.8837 0.58989 0.469623 0
M  V30 808 H 71.5347 1.75923 0.521857 0
M  V30 809 H 69.9167 2.55542 3.02514 0
M  V30 810 H 71.0907 4.51116 0.939711 0
M  V30 811 H 69.4057 4.04129 1.00342 0
M  V30 812 H 72.0027 3.78856 3.77323 0
M  V30 813 H 72.3457 2.08448 3.60354 0
M  V30 814 H 72.8787 3.21815 2.33838 0
M  V30 815 H 69.6177 6.20687 2.10779 0
M  V30 816 H 69.1377 4.99606 3.31894 0
M  V30 817 H 70.8167 5.58768 3.2617 0
M  V30 818 N 70.9488 -0.749086 1.3866 0
M  V30 819 C 72.1978 -1.50371 1.3443 0
M  V30 820 C 72.5108 -1.95503 -0.0616397 0
M  V30 821 O 73.7168 -2.70554 -0.226489 0
M  V30 822 C 72.1728 -2.71644 2.36088 0
M  V30 823 C 71.7808 -2.3352 3.82325 0
M  V30 824 C 73.5248 -3.49518 2.40909 0
M  V30 825 C 71.4318 -3.51431 4.75658 0
M  V30 826 H 70.3618 -0.564628 0.499712 0
M  V30 827 H 73.0128 -0.818449 1.64237 0
M  V30 828 H 71.3948 -3.42175 1.9933 0
M  V30 829 H 72.5688 -1.70627 4.28046 0
M  V30 830 H 70.8838 -1.6877 3.80665 0
M  V30 831 H 73.4808 -4.37197 3.07836 0
M  V30 832 H 73.8238 -3.90992 1.42937 0
M  V30 833 H 74.3568 -2.86005 2.76489 0
M  V30 834 H 71.0958 -3.15019 5.74842 0
M  V30 835 H 70.6158 -4.13352 4.34627 0
M  V30 836 H 72.2948 -4.17953 4.93887 0
M  V30 837 N 72.4269 -1.23603 -0.977757 0
M  V30 838 C 73.3899 -1.02069 -2.05218 0
M  V30 839 C 74.3899 0.0184305 -1.60789 0
M  V30 840 O 75.5799 -0.221569 -1.72785 0
M  V30 841 C 72.7119 -0.544926 -3.36517 0
M  V30 842 H 73.9049 -1.9742 -2.25755 0
M  V30 843 H 71.4579 -1.05684 -1.15155 0
M  V30 844 H 72.1929 0.412241 -3.21669 0
M  V30 845 H 71.9779 -1.2948 -3.70105 0
M  V30 846 H 73.4679 -0.414985 -4.15533 0
M  V30 847 N 73.905 1.17692 -1.04816 0
M  V30 848 C 75.152 1.87859 -0.75599 0
M  V30 849 C 75.48 1.80812 0.716752 0
M  V30 850 O 74.735 1.20819 1.53952 0
M  V30 851 C 75.034 3.37462 -1.17703 0
M  V30 852 C 74.7 3.64713 -2.65133 0
M  V30 853 C 73.362 3.71859 -3.05408 0
M  V30 854 C 75.714 3.76492 -3.60421 0
M  V30 855 C 73.042 3.88271 -4.39843 0
M  V30 856 C 75.394 3.94421 -4.94585 0
M  V30 857 C 74.058 3.99806 -5.3452 0
M  V30 858 H 73.328 0.687425 -0.276636 0
M  V30 859 H 75.975 1.39255 -1.31455 0
M  V30 860 H 74.28 3.88097 -0.537395 0
M  V30 861 H 75.977 3.90109 -0.928218 0
M  V30 862 H 72.567 3.59772 -2.32942 0
M  V30 863 H 76.751 3.70295 -3.30447 0
M  V30 864 H 72.007 3.90687 -4.70291 0
M  V30 865 H 76.181 4.02477 -5.68318 0
M  V30 866 H 73.808 4.12276 -6.38696 0
M  V30 867 N 75.3831 0.828654 1.34056 0
M  V30 868 C 76.3461 0.259927 2.27721 0
M  V30 869 C 77.3461 -0.565478 1.50529 0
M  V30 870 O 78.5361 -0.38075 1.69988 0
M  V30 871 C 75.6681 -0.634944 3.34935 0
M  V30 872 H 76.8611 1.0863 2.79534 0
M  V30 873 H 74.4141 0.600951 1.44285 0
M  V30 874 H 75.1491 -1.48416 2.88346 0
M  V30 875 H 74.9341 -0.0444999 3.92075 0
M  V30 876 H 76.4241 -1.02648 4.04788 0
M  V30 877 N 76.8612 -1.46375 0.584142 0
M  V30 878 C 77.7932 -2.28443 -0.186119 0
M  V30 879 C 78.8062 -1.38596 -0.854115 0
M  V30 880 O 79.9952 -1.63183 -0.723438 0
M  V30 881 C 77.0952 -3.13671 -1.28311 0
M  V30 882 C 76.2682 -4.31652 -0.706758 0
M  V30 883 C 75.3272 -4.98267 -1.69163 0
M  V30 884 O 74.3532 -5.55815 -1.22712 0
M  V30 885 N 75.5552 -4.95408 -3.02575 0
M  V30 886 H 78.3202 -2.9519 0.517986 0
M  V30 887 H 75.8812 -1.56303 0.42201 0
M  V30 888 H 77.8732 -3.55101 -1.94128 0
M  V30 889 H 76.4432 -2.48989 -1.89005 0
M  V30 890 H 75.6632 -3.93989 0.128908 0
M  V30 891 H 76.9512 -5.07906 -0.301506 0
M  V30 892 H 76.3492 -4.49902 -3.42936 0
M  V30 893 H 74.9062 -5.40774 -3.63877 0
M  V30 894 N 78.3393 -0.321999 -1.54275 0
M  V30 895 C 79.5693 0.282642 -2.04658 0
M  V30 896 C 79.9773 1.46453 -1.19784 0
M  V30 897 O 79.3203 1.82367 -0.220932 0
M  V30 898 C 79.3823 0.781857 -3.50895 0
M  V30 899 C 79.0463 -0.277517 -4.56157 0
M  V30 900 C 80.0433 -1.11307 -5.07845 0
M  V30 901 C 77.7283 -0.425256 -5.00497 0
M  V30 902 C 79.7223 -2.08211 -6.02434 0
M  V30 903 C 77.4093 -1.39771 -5.94901 0
M  V30 904 C 78.4073 -2.2246 -6.45756 0
M  V30 905 O 78.0953 -3.18054 -7.38307 0
M  V30 906 H 77.8273 0.0622636 -0.673126 0
M  V30 907 H 80.3813 -0.465792 -2.00049 0
M  V30 908 H 78.6113 1.58118 -3.52896 0
M  V30 909 H 80.3003 1.30467 -3.84361 0
M  V30 910 H 81.0663 -1.00991 -4.74369 0
M  V30 911 H 76.9453 0.20847 -4.60528 0
M  V30 912 H 80.4893 -2.72791 -6.42052 0
M  V30 913 H 76.3863 -1.50152 -6.27794 0
M  V30 914 H 77.1543 -3.13275 -7.56175 0
M  V30 915 N 79.8174 1.5752 -0.0501392 0
M  V30 916 C 81.0634 1.92936 0.624798 0
M  V30 917 C 81.3964 0.928685 1.70555 0
M  V30 918 O 80.6714 -0.0454779 1.94447 0
M  V30 919 C 80.9544 3.38737 1.22185 0
M  V30 920 C 80.8074 4.49552 0.149218 0
M  V30 921 C 82.1264 3.84913 2.13378 0
M  V30 922 H 79.2454 0.701604 0.225657 0
M  V30 923 H 81.8874 1.89671 -0.111693 0
M  V30 924 H 80.0374 3.4165 1.84953 0
M  V30 925 H 81.7094 4.58768 -0.482648 0
M  V30 926 H 79.9524 4.30638 -0.522841 0
M  V30 927 H 80.6234 5.48653 0.606966 0
M  V30 928 H 83.0994 3.8387 1.60572 0
M  V30 929 H 81.9754 4.87584 2.52097 0
M  V30 930 H 82.2364 3.21611 3.03346 0
M  V30 931 N 81.2955 -0.223234 1.56011 0
M  V30 932 C 82.2275 -1.30006 1.88762 0
M  V30 933 C 83.2405 -1.43129 0.775746 0
M  V30 934 O 84.4295 -1.44057 1.05403 0
M  V30 935 C 81.5295 -2.67589 2.07965 0
M  V30 936 C 80.7025 -2.76434 3.38973 0
M  V30 937 C 79.7615 -3.95019 3.47629 0
M  V30 938 O 78.7875 -3.83436 4.20672 0
M  V30 939 N 79.9895 -5.09249 2.78649 0
M  V30 940 H 82.7545 -1.02238 2.81722 0
M  V30 941 H 80.3155 -0.413278 1.56536 0
M  V30 942 H 82.3075 -3.45297 2.11073 0
M  V30 943 H 80.8775 -2.87964 1.21638 0
M  V30 944 H 80.0975 -1.85216 3.47978 0
M  V30 945 H 81.3855 -2.79313 4.25278 0
M  V30 946 H 80.7835 -5.21556 2.19081 0
M  V30 947 H 79.3405 -5.85007 2.8742 0
M  V30 948 N 82.7736 -1.49793 -0.48987 0
M  V30 949 C 83.6836 -1.70036 -1.61632 0
M  V30 950 C 84.6996 -0.583102 -1.63939 0
M  V30 951 O 85.8756 -0.859169 -1.82154 0
M  V30 952 C 82.9406 -1.77277 -2.97949 0
M  V30 953 C 82.0016 -3.00918 -3.06181 0
M  V30 954 C 81.2346 -3.07804 -4.35996 0
M  V30 955 O 81.4576 -2.21982 -5.25433 0
M  V30 956 O 80.3916 -4.00369 -4.49431 0
M  V30 957 H 84.2176 -2.65486 -1.47482 0
M  V30 958 H 81.8026 -1.33666 -0.667362 0
M  V30 959 H 83.6846 -1.84329 -3.78947 0
M  V30 960 H 82.3596 -0.850076 -3.12339 0
M  V30 961 H 81.2666 -2.99377 -2.2433 0
M  V30 962 H 82.5996 -3.92704 -2.96723 0
M  V30 963 N 84.2517 0.741722 -1.39055 0
M  V30 964 C 85.2147 1.83733 -1.37021 0
M  V30 965 C 86.2147 1.58542 -0.268534 0
M  V30 966 O 87.4047 1.66067 -0.526076 0
M  V30 967 C 84.5367 3.2141 -1.13617 0
M  V30 968 H 85.7297 1.86941 -2.34506 0
M  V30 969 H 83.2827 0.944676 -1.24521 0
M  V30 970 H 84.0177 3.23865 -0.167863 0
M  V30 971 H 83.8027 3.4109 -1.93391 0
M  V30 972 H 85.2927 4.01477 -1.14918 0
M  V30 973 N 85.7298 1.2412 0.971189 0
M  V30 974 C 86.9578 1.10575 1.74874 0
M  V30 975 C 87.3728 -0.342017 1.85676 0
M  V30 976 O 86.7298 -1.23617 1.34258 0
M  V30 977 C 86.7808 1.73579 3.171 0
M  V30 978 O 86.5018 3.12695 3.06844 0
M  V30 979 C 88.0028 1.65598 4.11208 0
M  V30 980 H 85.2228 0.386504 0.548503 0
M  V30 981 H 87.7668 1.64156 1.21955 0
M  V30 982 H 85.9218 1.24009 3.67016 0
M  V30 983 H 86.3358 3.43412 3.96445 0
M  V30 984 H 87.8098 2.1437 5.08674 0
M  V30 985 H 88.2868 0.616532 4.34851 0
M  V30 986 H 88.8928 2.14578 3.67201 0
M  V30 987 N 87.2079 -1.17134 1.05439 0
M  V30 988 C 88.4549 -1.87456 0.765942 0
M  V30 989 C 88.7829 -1.81189 -0.707153 0
M  V30 990 O 88.0379 -1.21633 -1.5331 0
M  V30 991 C 88.3369 -3.36833 1.19491 0
M  V30 992 C 88.0029 -3.63301 2.67063 0
M  V30 993 C 86.6649 -3.70234 3.07376 0
M  V30 994 C 89.0169 -3.74575 3.62413 0
M  V30 995 C 86.3449 -3.85933 4.41896 0
M  V30 996 C 88.6969 -3.91793 4.9667 0
M  V30 997 C 87.3609 -3.96966 5.36633 0
M  V30 998 H 86.6309 -0.685948 0.280278 0
M  V30 999 H 89.2779 -1.38556 1.32192 0
M  V30 1000 H 87.5829 -3.87807 0.557969 0
M  V30 1001 H 89.2799 -3.89611 0.948893 0
M  V30 1002 H 85.8699 -3.58532 2.34846 0
M  V30 1003 H 90.0539 -3.68537 3.32406 0
M  V30 1004 H 85.3099 -3.88187 4.72357 0
M  V30 1005 H 89.4839 -3.99458 5.70444 0
M  V30 1006 H 87.1109 -4.08883 6.40874 0
M  V30 1007 N 88.686 -0.835752 -1.33615 0
M  V30 1008 C 89.596 -0.269088 -2.33052 0
M  V30 1009 C 90.612 0.603251 -1.63208 0
M  V30 1010 O 91.788 0.508112 -1.94885 0
M  V30 1011 C 88.853 0.549091 -3.42324 0
M  V30 1012 C 87.914 -0.347156 -4.27894 0
M  V30 1013 C 87.147 0.43207 -5.31948 0
M  V30 1014 O 87.37 1.66409 -5.45586 0
M  V30 1015 O 86.304 -0.192298 -6.01593 0
M  V30 1016 H 90.13 -1.09243 -2.83372 0
M  V30 1017 H 87.715 -0.598198 -1.36901 0
M  V30 1018 H 89.597 1.01414 -4.09015 0
M  V30 1019 H 88.272 1.34955 -2.94226 0
M  V30 1020 H 87.179 -0.859979 -3.64081 0
M  V30 1021 H 88.512 -1.1123 -4.79467 0
M  V30 1022 N 90.1641 1.46063 -0.591896 0
M  V30 1023 C 91.0741 2.34192 0.13831 0
M  V30 1024 C 92.0901 1.50305 0.876608 0
M  V30 1025 O 93.2661 1.8315 0.837728 0
M  V30 1026 C 90.3311 3.27656 1.13326 0
M  V30 1027 C 89.3921 4.27445 0.39863 0
M  V30 1028 C 88.6251 5.16443 1.34618 0
M  V30 1029 O 88.8481 5.08553 2.58321 0
M  V30 1030 O 87.7821 5.95843 0.851768 0
M  V30 1031 H 91.6081 2.98002 -0.58552 0
M  V30 1032 H 89.1931 1.45188 -0.352239 0
M  V30 1033 H 91.0751 3.85291 1.70671 0
M  V30 1034 H 89.7501 2.6643 1.83839 0
M  V30 1035 H 88.6571 3.73471 -0.216895 0
M  V30 1036 H 89.9901 4.91482 -0.265709 0
M  V30 1037 N 91.6422 0.330177 1.54103 0
M  V30 1038 C 92.5752 -0.575477 2.20825 0
M  V30 1039 C 93.5532 -1.11064 1.18758 0
M  V30 1040 O 94.7372 -1.17341 1.47524 0
M  V30 1041 C 91.8642 -1.79032 2.87516 0
M  V30 1042 C 90.9102 -1.38581 4.03358 0
M  V30 1043 S 91.7432 -0.416911 5.33875 0
M  V30 1044 C 92.8992 -1.63889 6.04062 0
M  V30 1045 H 93.1322 -0.00872114 2.97299 0
M  V30 1046 H 90.6652 0.114254 1.53977 0
M  V30 1047 H 92.6232 -2.48734 3.2656 0
M  V30 1048 H 91.2842 -2.32827 2.10832 0
M  V30 1049 H 90.4772 -2.29123 4.48908 0
M  V30 1050 H 90.0792 -0.768419 3.66021 0
M  V30 1051 H 92.3712 -2.57536 6.26643 0
M  V30 1052 H 93.3142 -1.22542 6.97416 0
M  V30 1053 H 93.7222 -1.82887 5.34053 0
M  V30 1054 N 93.1203 -1.57491 0.0584922 0
M  V30 1055 C 94.0303 -2.15448 -0.928414 0
M  V30 1056 C 95.0463 -1.11416 -1.3365 0
M  V30 1057 O 96.2223 -1.4362 -1.41193 0
M  V30 1058 C 93.2873 -2.69393 -2.18239 0
M  V30 1059 C 92.3483 -3.88249 -1.83196 0
M  V30 1060 C 91.5813 -4.39613 -3.02616 0
M  V30 1061 O 91.8043 -3.90023 -4.16219 0
M  V30 1062 O 90.7383 -5.31111 -2.83204 0
M  V30 1063 H 94.5643 -3.00112 -0.465483 0
M  V30 1064 H 92.1493 -1.48499 -0.163826 0
M  V30 1065 H 94.0313 -3.04026 -2.91798 0
M  V30 1066 H 92.7063 -1.87796 -2.63656 0
M  V30 1067 H 91.6133 -3.58492 -1.06931 0
M  V30 1068 H 92.9463 -4.71098 -1.42573 0
M  V30 1069 N 94.5984 0.214957 -1.56127 0
M  V30 1070 C 95.5454 1.26642 -1.92952 0
M  V30 1071 C 96.5154 1.46244 -0.78753 0
M  V30 1072 O 97.7004 1.59704 -1.04399 0
M  V30 1073 C 94.8404 2.6104 -2.25726 0
M  V30 1074 C 93.9534 2.49183 -3.52891 0
M  V30 1075 C 93.0884 3.76149 -3.7508 0
M  V30 1076 C 92.1274 3.59041 -4.95738 0
M  V30 1077 N 91.2644 4.77972 -5.14283 0
M  V30 1078 H 96.1044 0.945384 -2.82607 0
M  V30 1079 H 93.6414 0.455489 -1.3987 0
M  V30 1080 H 95.5994 3.39313 -2.42739 0
M  V30 1081 H 94.2294 2.91227 -1.39236 0
M  V30 1082 H 93.2814 1.6231 -3.44034 0
M  V30 1083 H 94.5934 2.32466 -4.41318 0
M  V30 1084 H 93.7474 4.62865 -3.92226 0
M  V30 1085 H 92.4864 3.95799 -2.84947 0
M  V30 1086 H 91.4914 2.7071 -4.78535 0
M  V30 1087 H 92.7164 3.40856 -5.87362 0
M  V30 1088 H 90.6624 4.97923 -4.27093 0
M  V30 1089 H 90.5794 4.64006 -5.96853 0
M  V30 1090 H 91.8474 5.66096 -5.35869 0
M  V30 1091 N 96.0765 1.50051 0.48192 0
M  V30 1092 C 97.0065 1.71046 1.58951 0
M  V30 1093 C 97.9875 0.559288 1.60642 0
M  V30 1094 O 99.1725 0.797243 1.77081 0
M  V30 1095 C 96.3025 1.79462 2.97339 0
M  V30 1096 C 95.2565 2.94558 3.10515 0
M  V30 1097 C 94.5825 2.88105 4.50444 0
M  V30 1098 C 95.8825 4.35227 2.88747 0
M  V30 1099 H 97.5765 2.6378 1.41635 0
M  V30 1100 H 95.1225 1.26936 0.679942 0
M  V30 1101 H 97.0755 1.92734 3.74742 0
M  V30 1102 H 95.7995 0.833412 3.15788 0
M  V30 1103 H 94.4585 2.80918 2.35543 0
M  V30 1104 H 94.1065 1.89853 4.65795 0
M  V30 1105 H 93.8065 3.65366 4.60197 0
M  V30 1106 H 95.3305 3.03412 5.29881 0
M  V30 1107 H 96.7445 4.49449 3.55905 0
M  V30 1108 H 95.1415 5.13856 3.09955 0
M  V30 1109 H 96.2115 4.48347 1.84696 0
M  V30 1110 N 97.5546 -0.734337 1.39446 0
M  V30 1111 C 98.8006 -1.49613 1.36908 0
M  V30 1112 C 99.1336 -1.94169 -0.0347829 0
M  V30 1113 O 98.4086 -1.66833 -0.999847 0
M  V30 1114 C 98.6916 -2.73534 2.34203 0
M  V30 1115 C 98.5446 -2.34993 3.83534 0
M  V30 1116 C 99.8636 -3.75635 2.29317 0
M  V30 1117 H 96.9826 -0.542714 0.498629 0
M  V30 1118 H 99.6246 -0.839597 1.70443 0
M  V30 1119 H 97.7746 -3.29553 2.05736 0
M  V30 1120 H 99.4466 -1.84601 4.22753 0
M  V30 1121 H 97.6896 -1.67213 4.00278 0
M  V30 1122 H 98.3606 -3.23738 4.47099 0
M  V30 1123 H 100.837 -3.29203 2.54489 0
M  V30 1124 H 99.7126 -4.60008 2.99472 0
M  V30 1125 H 99.9736 -4.22603 1.29842 0
M  V30 1126 N 99.0327 -1.24633 -0.964593 0
M  V30 1127 C 99.9797 -1.04144 -2.05968 0
M  V30 1128 C 100.95 0.046262 -1.66036 0
M  V30 1129 O 102.135 -0.108972 -1.90489 0
M  V30 1130 C 99.2747 -0.65563 -3.38815 0
M  V30 1131 C 98.3877 -1.81714 -3.91923 0
M  V30 1132 C 97.5227 -1.37662 -5.13052 0
M  V30 1133 C 96.5617 -2.50788 -5.58365 0
M  V30 1134 N 95.6987 -2.07582 -6.70712 0
M  V30 1135 H 100.539 -1.9787 -2.22827 0
M  V30 1136 H 98.0757 -0.9855 -1.09208 0
M  V30 1137 H 100.034 -0.412954 -4.15151 0
M  V30 1138 H 98.6637 0.244627 -3.21872 0
M  V30 1139 H 97.7157 -2.1734 -3.12198 0
M  V30 1140 H 99.0277 -2.66705 -4.21509 0
M  V30 1141 H 98.1817 -1.093 -5.96773 0
M  V30 1142 H 96.9207 -0.497293 -4.85158 0
M  V30 1143 H 95.9257 -2.79906 -4.73215 0
M  V30 1144 H 97.1507 -3.39283 -5.88272 0
M  V30 1145 H 95.0967 -1.22051 -6.44546 0
M  V30 1146 H 95.0137 -2.86125 -6.99763 0
M  V30 1147 H 96.2817 -1.82369 -7.57867 0
M  V30 1148 N 100.511 1.16574 -1.06058 0
M  V30 1149 C 101.788 1.83048 -0.689416 0
M  V30 1150 C 102.168 1.94122 0.829443 0
M  V30 1151 O 101.516 1.48249 1.7388 0
M  V30 1152 C 101.726 3.20186 -1.38859 0
M  V30 1153 C 103.074 3.95989 -1.53226 0
M  V30 1154 O 104.098 3.29696 -1.3483 0
M  V30 1155 O 102.957 5.14813 -1.83384 0
M  V30 1156 H 100.051 0.790258 -0.243764 0
M  V30 1157 H 102.597 1.23797 -1.16071 0
M  V30 1158 H 101.369 3.07146 -2.4244 0
M  V30 1159 H 100.992 3.87112 -0.907216 0
M  V30 1160 N 101.989 0.842826 1.3317 0
M  V30 1161 C 102.922 0.223862 2.27099 0
M  V30 1162 C 103.9 -0.631311 1.49844 0
M  V30 1163 O 105.084 -0.590708 1.79005 0
M  V30 1164 C 102.211 -0.685313 3.31694 0
M  V30 1165 C 101.257 0.094919 4.26394 0
M  V30 1166 S 102.09 1.45546 5.15341 0
M  V30 1167 C 103.246 0.551685 6.23464 0
M  V30 1168 H 103.479 1.02015 2.79249 0
M  V30 1169 H 101.012 0.639797 1.4052 0
M  V30 1170 H 102.97 -1.20426 3.92438 0
M  V30 1171 H 101.631 -1.4553 2.78352 0
M  V30 1172 H 100.824 -0.597059 5.00451 0
M  V30 1173 H 100.426 0.545054 3.70007 0
M  V30 1174 H 102.718 -0.248877 6.77043 0
M  V30 1175 H 103.661 1.26253 6.96754 0
M  V30 1176 H 104.069 0.131275 5.64347 0
M  V30 1177 N 103.467 -1.45747 0.599634 0
M  V30 1178 C 104.713 -2.02592 0.0918643 0
M  V30 1179 C 105.046 -1.46806 -1.27128 0
M  V30 1180 O 104.321 -0.639658 -1.83681 0
M  V30 1181 C 104.604 -3.60073 0.0443398 0
M  V30 1182 C 104.457 -4.26208 1.43759 0
M  V30 1183 C 105.776 -4.35309 -0.647608 0
M  V30 1184 H 102.895 -0.736175 0.034857 0
M  V30 1185 H 105.537 -1.73694 0.770081 0
M  V30 1186 H 103.687 -3.84823 -0.533224 0
M  V30 1187 H 105.359 -4.12668 2.06162 0
M  V30 1188 H 103.602 -3.84916 2.00056 0
M  V30 1189 H 104.273 -5.35069 1.35665 0
M  V30 1190 H 106.749 -4.15805 -0.156776 0
M  V30 1191 H 105.625 -5.45038 -0.649942 0
M  V30 1192 H 105.886 -4.07598 -1.71219 0
M  V30 1193 N 104.945 -0.338344 -1.53925 0
M  V30 1194 C 105.855 0.529421 -2.28548 0
M  V30 1195 C 106.871 1.11645 -1.3346 0
M  V30 1196 O 108.047 1.13325 -1.66492 0
M  V30 1197 C 105.112 1.66713 -3.03987 0
M  V30 1198 C 104.173 1.11041 -4.14691 0
M  V30 1199 C 103.406 2.19389 -4.86522 0
M  V30 1200 O 103.629 3.40013 -4.57982 0
M  V30 1201 O 102.563 1.83976 -5.73094 0
M  V30 1202 H 106.389 -0.0770399 -3.03602 0
M  V30 1203 H 103.974 -0.103555 -1.49041 0
M  V30 1204 H 105.856 2.32918 -3.5118 0
M  V30 1205 H 104.531 2.25949 -2.31794 0
M  V30 1206 H 103.438 0.413024 -3.71813 0
M  V30 1207 H 104.771 0.562975 -4.8897 0
M  V30 1208 N 106.423 1.57458 -0.0668435 0
M  V30 1209 C 107.653 1.97337 0.611677 0
M  V30 1210 C 108.061 0.943744 1.63982 0
M  V30 1211 O 107.404 -0.0785584 1.83532 0
M  V30 1212 C 107.466 3.33511 1.34205 0
M  V30 1213 C 107.13 4.54598 0.467941 0
M  V30 1214 C 108.127 5.19186 -0.272439 0
M  V30 1215 C 105.812 5.0075 0.39427 0
M  V30 1216 C 107.806 6.28274 -1.07476 0
M  V30 1217 C 105.493 6.09711 -0.411729 0
M  V30 1218 C 106.491 6.73335 -1.14492 0
M  V30 1219 O 106.179 7.80199 -1.93763 0
M  V30 1220 H 105.911 0.654042 0.170893 0
M  V30 1221 H 108.465 2.04961 -0.134289 0
M  V30 1222 H 106.695 3.22487 2.13398 0
M  V30 1223 H 108.384 3.58029 1.91233 0
M  V30 1224 H 109.15 4.84477 -0.225086 0
M  V30 1225 H 105.029 4.51009 0.954569 0
M  V30 1226 H 108.573 6.77866 -1.64755 0
M  V30 1227 H 104.47 6.43854 -0.460664 0
M  V30 1228 H 105.238 7.97053 -1.86142 0
M  V30 1229 N 107.901 -0.206675 1.56239 0
M  V30 1230 C 108.848 -1.25617 1.93621 0
M  V30 1231 C 109.818 -1.45824 0.795274 0
M  V30 1232 O 111.003 -1.59148 1.05245 0
M  V30 1233 C 108.143 -2.59839 2.27107 0
M  V30 1234 C 107.256 -2.47308 3.54207 0
M  V30 1235 C 106.391 -3.74155 3.7707 0
M  V30 1236 C 105.43 -3.56407 4.97635 0
M  V30 1237 N 104.567 -4.75238 5.1681 0
M  V30 1238 H 109.407 -0.930383 2.83104 0
M  V30 1239 H 106.944 -0.448065 1.4011 0
M  V30 1240 H 108.902 -3.38021 2.44535 0
M  V30 1241 H 107.532 -2.90485 1.40778 0
M  V30 1242 H 106.584 -1.60483 3.4489 0
M  V30 1243 H 107.896 -2.30122 4.42544 0
M  V30 1244 H 107.05 -4.60778 3.94675 0
M  V30 1245 H 105.789 -3.94282 2.87042 0
M  V30 1246 H 104.794 -2.68168 4.79964 0
M  V30 1247 H 106.019 -3.37736 5.89161 0
M  V30 1248 H 103.965 -4.95651 4.29728 0
M  V30 1249 H 103.882 -4.60835 5.99306 0
M  V30 1250 H 105.15 -5.63246 5.38864 0
M  V30 1251 N 109.379 -1.50304 -0.473955 0
M  V30 1252 C 110.656 -1.51667 -1.23518 0
M  V30 1253 C 111.036 -0.259701 -2.09496 0
M  V30 1254 O 110.384 0.756986 -2.15597 0
M  V30 1255 C 110.594 -2.81082 -2.06868 0
M  V30 1256 C 111.942 -3.31631 -2.65153 0
M  V30 1257 O 112.966 -2.82384 -2.17113 0
M  V30 1258 O 111.825 -4.17471 -3.52675 0
M  V30 1259 H 108.919 -0.60822 -0.560355 0
M  V30 1260 H 111.465 -1.62592 -0.486011 0
M  V30 1261 H 110.237 -3.64041 -1.4349 0
M  V30 1262 H 109.86 -2.73146 -2.88924 0
M  V30 1263 N 110.857 0.726932 -1.39834 0
M  V30 1264 C 112.273 1.03354 -1.21615 0
M  V30 1265 C 112.473 2.01327 -0.08338 0
M  V30 1266 O 111.529 2.46158 0.56238 0
M  V30 1267 C 112.842 1.58811 -2.55342 0
M  V30 1268 C 114.39 1.70851 -2.62257 0
M  V30 1269 C 114.865 2.29716 -3.96225 0
M  V30 1270 N 116.356 2.37116 -3.97907 0
M  V30 1271 C 117.091 2.83619 -4.98345 0
M  V30 1272 N 116.587 3.29958 -6.09179 0
M  V30 1273 N 118.38 2.82901 -4.8572 0
M  V30 1274 H 110.531 0.0773069 -2.12259 0
M  V30 1275 H 112.794 0.0969102 -0.943034 0
M  V30 1276 H 112.5 0.942855 -3.38826 0
M  V30 1277 H 112.374 2.57502 -2.75632 0
M  V30 1278 H 114.761 2.34497 -1.79152 0
M  V30 1279 H 114.842 0.707913 -2.45809 0
M  V30 1280 H 114.486 1.66696 -4.79765 0
M  V30 1281 H 114.416 3.30469 -4.09997 0
M  V30 1282 H 116.907 2.04374 -3.17868 0
M  V30 1283 H 117.22 3.63976 -6.8172 0
M  V30 1284 H 115.565 3.27946 -6.12761 0
M  V30 1285 H 118.756 2.46027 -3.98231 0
M  V30 1286 H 118.929 3.18827 -5.6414 0
M  V30 1287 N 112.336 1.25143 0.95797 0
M  V30 1288 C 113.576 1.10893 1.71703 0
M  V30 1289 C 113.94 -0.34478 1.88879 0
M  V30 1290 O 115.141 -0.609014 2.6181 0
M  V30 1291 C 113.412 1.83889 3.06463 0
M  V30 1292 S 114.971 1.85491 3.97666 0
M  V30 1293 H 111.789 0.396428 0.590226 0
M  V30 1294 H 114.391 1.58618 1.14283 0
M  V30 1295 H 113.095 2.88756 2.9163 0
M  V30 1296 H 112.626 1.36538 3.68946 0
M  V30 1297 H 114.641 0.929553 4.87415 0
M  V30 1298 N 113.814 -1.1601 1.06675 0
M  V30 1299 C 114.747 -2.1947 0.625168 0
M  V30 1300 C 115.725 -1.58699 -0.354041 0
M  V30 1301 O 116.909 -1.86669 -0.262098 0
M  V30 1302 C 114.036 -3.38598 -0.0829593 0
M  V30 1303 C 113.082 -4.1787 0.853611 0
M  V30 1304 S 113.915 -4.81135 2.35094 0
M  V30 1305 C 115.071 -6.03639 1.65441 0
M  V30 1306 H 115.304 -2.56587 1.50168 0
M  V30 1307 H 112.837 -1.26862 0.880078 0
M  V30 1308 H 114.795 -4.07621 -0.485288 0
M  V30 1309 H 113.456 -2.99839 -0.935716 0
M  V30 1310 H 112.649 -5.03078 0.304755 0
M  V30 1311 H 112.251 -3.54361 1.196 0
M  V30 1312 H 114.543 -6.70632 0.962201 0
M  V30 1313 H 115.486 -6.63081 2.48454 0
M  V30 1314 H 115.894 -5.52965 1.13534 0
M  V30 1315 N 115.292 -0.849877 -1.32721 0
M  V30 1316 C 116.255 -0.296122 -2.27279 0
M  V30 1317 C 117.255 0.541458 -1.5141 0
M  V30 1318 O 118.445 0.353658 -1.70572 0
M  V30 1319 C 115.577 0.581579 -3.35902 0
M  V30 1320 H 116.77 -1.13064 -2.77771 0
M  V30 1321 H 114.323 -0.62383 -1.43311 0
M  V30 1322 H 115.058 1.43809 -2.9067 0
M  V30 1323 H 114.843 -0.0178814 -3.92096 0
M  V30 1324 H 116.333 0.961951 -4.0637 0
M  V30 1325 N 116.77 1.45427 -0.607355 0
M  V30 1326 C 118.047 1.9557 -0.0344566 0
M  V30 1327 C 118.427 1.54979 1.43334 0
M  V30 1328 O 117.775 0.812241 2.13576 0
M  V30 1329 C 117.985 3.48226 -0.232321 0
M  V30 1330 C 119.333 4.2445 -0.113001 0
M  V30 1331 O 120.357 3.55829 -0.162431 0
M  V30 1332 O 119.216 5.465 0.00209442 0
M  V30 1333 H 116.31 0.826222 0.0358667 0
M  V30 1334 H 118.856 1.55594 -0.6774 0
M  V30 1335 H 117.628 3.70739 -1.25174 0
M  V30 1336 H 117.251 3.95092 0.445896 0
M  V30 1337 N 118.248 0.346503 1.53744 0
M  V30 1338 C 119.195 -0.508914 2.25119 0
M  V30 1339 C 120.165 -1.09315 1.25058 0
M  V30 1340 O 121.35 -1.12921 1.53797 0
M  V30 1341 C 118.49 -1.65246 3.02965 0
M  V30 1342 C 117.603 -1.09525 4.17886 0
M  V30 1343 C 116.738 -2.20634 4.83212 0
M  V30 1344 C 115.777 -1.62279 5.90196 0
M  V30 1345 N 114.914 -2.67143 6.49291 0
M  V30 1346 H 119.754 0.106283 2.9781 0
M  V30 1347 H 117.291 0.0642227 1.4696 0
M  V30 1348 H 119.249 -2.32574 3.4636 0
M  V30 1349 H 117.879 -2.2386 2.32565 0
M  V30 1350 H 116.931 -0.312818 3.79112 0
M  V30 1351 H 118.243 -0.628444 4.94825 0
M  V30 1352 H 117.397 -2.95821 5.29693 0
M  V30 1353 H 116.136 -2.70659 4.05703 0
M  V30 1354 H 115.141 -0.855989 5.43096 0
M  V30 1355 H 116.366 -1.13102 6.69615 0
M  V30 1356 H 114.312 -3.16417 5.74645 0
M  V30 1357 H 114.229 -2.25093 7.21713 0
M  V30 1358 H 115.497 -3.4209 7.00425 0
M  V30 1359 N 119.726 -1.57421 0.075193 0
M  V30 1360 C 120.954 -1.97946 -0.602076 0
M  V30 1361 C 121.369 -0.953674 -1.62943 0
M  V30 1362 O 120.726 0.0592551 -1.82404 0
M  V30 1363 C 120.777 -3.38546 -1.26762 0
M  V30 1364 O 120.498 -4.37195 -0.281376 0
M  V30 1365 C 121.999 -3.93966 -2.03239 0
M  V30 1366 H 119.219 -0.650918 -0.162931 0
M  V30 1367 H 121.763 -2.03959 0.148601 0
M  V30 1368 H 119.918 -3.33609 -1.96936 0
M  V30 1369 H 120.332 -5.18975 -0.759267 0
M  V30 1370 H 121.806 -4.94555 -2.45193 0
M  V30 1371 H 122.283 -3.30693 -2.8903 0
M  V30 1372 H 122.889 -4.02315 -1.37924 0
M  V30 1373 N 121.204 0.198386 -1.56346 0
M  V30 1374 C 122.134 1.24865 -1.9731 0
M  V30 1375 C 123.115 1.47651 -0.844576 0
M  V30 1376 O 124.3 1.59444 -1.10866 0
M  V30 1377 C 121.43 2.59358 -2.30977 0
M  V30 1378 C 120.384 2.5119 -3.46537 0
M  V30 1379 C 119.71 3.89926 -3.65871 0
M  V30 1380 C 121.01 2.03977 -4.80823 0
M  V30 1381 H 122.704 0.908252 -2.85291 0
M  V30 1382 H 120.25 0.435462 -1.37258 0
M  V30 1383 H 122.203 3.33011 -2.58228 0
M  V30 1384 H 120.927 2.95132 -1.39874 0
M  V30 1385 H 119.586 1.79993 -3.19371 0
M  V30 1386 H 119.234 4.23046 -2.72105 0
M  V30 1387 H 118.934 3.85336 -4.4361 0
M  V30 1388 H 120.458 4.65205 -3.95495 0
M  V30 1389 H 121.872 2.67386 -5.07127 0
M  V30 1390 H 120.269 2.10397 -5.62008 0
M  V30 1391 H 121.339 0.992861 -4.74626 0
M  V30 1392 N 122.682 1.50554 0.465978 0
M  V30 1393 C 124.093 1.54599 1.04671 0
M  V30 1394 C 124.444 0.352488 1.93008 0
M  V30 1395 O 123.569 -0.534044 2.09707 0
M  V30 1396 C 124.164 2.80166 1.90505 0
M  V30 1397 C 122.723 2.86876 2.43678 0
M  V30 1398 C 121.87 2.48947 1.22151 0
M  V30 1399 H 124.821 1.56744 0.248384 0
M  V30 1400 H 124.842 2.62311 2.75633 0
M  V30 1401 H 124.354 3.67013 1.26186 0
M  V30 1402 H 122.455 2.04393 3.11536 0
M  V30 1403 H 122.568 3.89885 2.78436 0
M  V30 1404 H 120.932 2.01498 1.5579 0
M  V30 1405 H 121.715 3.38107 0.594866 0
M  V30 1406 N 124.16 -0.719506 1.40217 0
M  V30 1407 C 125.07 -1.86378 1.42479 0
M  V30 1408 C 126.086 -1.71073 0.317834 0
M  V30 1409 O 127.262 -1.93406 0.561794 0
M  V30 1410 C 124.327 -3.22136 1.28178 0
M  V30 1411 C 123.388 -3.49723 2.48982 0
M  V30 1412 C 122.621 -4.79004 2.35353 0
M  V30 1413 O 122.844 -5.53821 1.36524 0
M  V30 1414 O 121.778 -5.06839 3.2465 0
M  V30 1415 H 125.604 -1.87425 2.38968 0
M  V30 1416 H 123.189 -0.869405 1.21498 0
M  V30 1417 H 125.071 -4.03234 1.22395 0
M  V30 1418 H 123.746 -3.21825 0.347934 0
M  V30 1419 H 122.653 -2.6865 2.60342 0
M  V30 1420 H 123.986 -3.54828 3.41113 0
M  V30 1421 N 125.638 -1.25649 -0.95132 0
M  V30 1422 C 126.878 -1.11802 -1.71113 0
M  V30 1423 C 127.242 0.334758 -1.89059 0
M  V30 1424 O 128.443 0.595121 -2.62129 0
M  V30 1425 C 126.714 -1.85512 -3.05483 0
M  V30 1426 S 128.273 -1.87597 -3.96677 0
M  V30 1427 H 125.091 -0.399552 -0.588115 0
M  V30 1428 H 127.693 -1.59222 -1.1344 0
M  V30 1429 H 126.397 -2.90299 -2.90094 0
M  V30 1430 H 125.928 -1.38493 -3.68216 0
M  V30 1431 H 127.943 -0.955389 -4.86916 0
M  V30 1432 N 127.117 1.15442 -1.07289 0
M  V30 1433 C 128.342 1.90638 -0.816828 0
M  V30 1434 C 128.767 1.77445 0.624083 0
M  V30 1435 O 128.125 1.10671 1.43602 0
M  V30 1436 C 128.173 3.39008 -1.22906 0
M  V30 1437 O 127.277 4.10701 -0.373975 0
M  V30 1438 H 126.618 0.593555 -0.297638 0
M  V30 1439 H 129.148 1.46198 -1.43134 0
M  V30 1440 H 129.158 3.89801 -1.20497 0
M  V30 1441 H 127.833 3.47929 -2.27856 0
M  V30 1442 H 126.41 3.70046 -0.460499 0
M  V30 1443 N 128.595 0.856903 1.32268 0
M  V30 1444 C 129.542 0.301172 2.28827 0
M  V30 1445 C 130.512 -0.593104 1.5515 0
M  V30 1446 O 131.697 -0.527537 1.83362 0
M  V30 1447 C 128.837 -0.502523 3.41422 0
M  V30 1448 C 127.95 0.417797 4.29975 0
M  V30 1449 C 127.085 -0.398749 5.29701 0
M  V30 1450 C 126.124 0.518827 6.09897 0
M  V30 1451 N 125.261 -0.260674 7.01616 0
M  V30 1452 H 130.101 1.12983 2.75751 0
M  V30 1453 H 127.638 0.568582 1.35667 0
M  V30 1454 H 129.596 -0.984141 4.05426 0
M  V30 1455 H 128.226 -1.29599 2.95642 0
M  V30 1456 H 127.278 1.01781 3.66531 0
M  V30 1457 H 128.59 1.12191 4.86019 0
M  V30 1458 H 127.744 -0.943435 5.9932 0
M  V30 1459 H 126.483 -1.13622 4.7428 0
M  V30 1460 H 125.488 1.07538 5.39181 0
M  V30 1461 H 126.713 1.25495 6.67404 0
M  V30 1462 H 124.659 -0.981198 6.4862 0
M  V30 1463 H 124.576 0.384364 7.55022 0
M  V30 1464 H 125.844 -0.787014 7.75517 0
M  V30 1465 N 130.073 -1.45103 0.615059 0
M  V30 1466 C 131.003 -2.33339 -0.0865619 0
M  V30 1467 C 131.984 -1.4727 -0.851209 0
M  V30 1468 O 133.169 -1.76026 -0.820281 0
M  V30 1469 C 130.299 -3.30095 -1.07956 0
M  V30 1470 C 129.253 -4.25858 -0.427628 0
M  V30 1471 C 128.579 -5.12361 -1.5294 0
M  V30 1472 C 129.879 -5.18165 0.655944 0
M  V30 1473 H 131.573 -2.92254 0.650224 0
M  V30 1474 H 129.119 -1.40532 0.314138 0
M  V30 1475 H 131.072 -3.90698 -1.57901 0
M  V30 1476 H 129.796 -2.69355 -1.84703 0
M  V30 1477 H 128.455 -3.66564 0.0510292 0
M  V30 1478 H 128.103 -4.47984 -2.28734 0
M  V30 1479 H 127.803 -5.77238 -1.09865 0
M  V30 1480 H 129.327 -5.75833 -2.03098 0
M  V30 1481 H 130.741 -5.72796 0.240257 0
M  V30 1482 H 129.138 -5.91559 1.00888 0
M  V30 1483 H 130.208 -4.60144 1.52957 0
M  V30 1484 N 131.551 -0.354651 -1.53558 0
M  V30 1485 C 132.962 0.126902 -1.86268 0
M  V30 1486 C 133.313 1.49075 -1.27558 0
M  V30 1487 O 132.438 2.08105 -0.5934 0
M  V30 1488 C 133.033 0.237046 -3.3797 0
M  V30 1489 C 131.592 0.662842 -3.70518 0
M  V30 1490 C 130.739 -0.196652 -2.76602 0
M  V30 1491 H 133.69 -0.573849 -1.47962 0
M  V30 1492 H 133.711 1.06259 -3.65362 0
M  V30 1493 H 133.223 -0.755725 -3.80671 0
M  V30 1494 H 131.324 1.66424 -3.33367 0
M  V30 1495 H 131.437 0.445034 -4.77029 0
M  V30 1496 H 129.801 0.332763 -2.52517 0
M  V30 1497 H 130.584 -1.18676 -3.22135 0
M  V30 1498 N 133.029 1.57378 -0.0835403 0
M  V30 1499 C 133.977 2.14602 0.89714 0
M  V30 1500 C 134.971 1.08589 1.30018 0
M  V30 1501 O 136.177 1.26952 1.27606 0
M  V30 1502 H 132.552 0.686346 0.3073 0
M  V30 1503 H 134.523 2.95845 0.38969 0
M  V30 1504 C 133.272 2.73188 2.15089 0
M  V30 1505 H 132.595 3.54442 1.84962 0
M  V30 1506 H 134.035 3.1681 2.81793 0
M  V30 1507 C 132.494 1.68517 2.91725 0
M  V30 1508 O 133.024 1.11718 3.85852 0
M  V30 1509 N 131.23 1.39277 2.55049 0
M  V30 1510 H 130.777 1.85655 1.78577 0
M  V30 1511 H 130.735 0.694791 3.06627 0
M  V30 1512 N 134.507 -0.190092 1.56449 0
M  V30 1513 C 135.455 -1.25501 1.95837 0
M  V30 1514 C 136.449 -1.4685 0.844485 0
M  V30 1515 O 137.655 -1.47651 1.02952 0
M  V30 1516 H 134.03 -0.421447 0.622805 0
M  V30 1517 H 136.001 -0.895821 2.84636 0
M  V30 1518 C 134.75 -2.59124 2.31841 0
M  V30 1519 H 134.073 -2.43514 3.17082 0
M  V30 1520 H 135.513 -3.32371 2.6326 0
M  V30 1521 C 133.972 -3.16488 1.15486 0
M  V30 1522 O 134.502 -3.99365 0.432535 0
M  V30 1523 N 132.708 -2.75305 0.930349 0
M  V30 1524 H 132.255 -2.08013 1.51948 0
M  V30 1525 H 132.213 -3.14024 0.153634 0
M  V30 1526 N 135.985 -1.50799 -0.457987 0
M  V30 1527 C 137.231 -1.62683 -1.21088 0
M  V30 1528 C 137.564 -0.332268 -1.91336 0
M  V30 1529 O 136.839 0.667043 -1.82704 0
M  V30 1530 C 137.122 -2.81615 -2.24422 0
M  V30 1531 C 136.975 -4.20989 -1.58392 0
M  V30 1532 C 138.294 -2.96085 -3.2561 0
M  V30 1533 H 135.413 -0.592087 -0.438864 0
M  V30 1534 H 138.055 -1.83225 -0.50286 0
M  V30 1535 H 136.205 -2.64231 -2.84806 0
M  V30 1536 H 137.877 -4.49994 -1.01504 0
M  V30 1537 H 136.12 -4.24641 -0.886704 0
M  V30 1538 H 136.791 -5.0016 -2.33547 0
M  V30 1539 H 139.267 -3.12042 -2.75262 0
M  V30 1540 H 138.143 -3.80902 -3.95228 0
M  V30 1541 H 138.404 -2.0726 -3.90507 0
M  V30 1542 N 137.463 0.71206 -1.40597 0
M  V30 1543 C 138.393 1.83889 -1.43899 0
M  V30 1544 C 139.374 1.67442 -0.299504 0
M  V30 1545 O 140.559 1.87421 -0.508624 0
M  V30 1546 C 137.689 3.21877 -1.30431 0
M  V30 1547 C 136.643 3.53002 -2.42019 0
M  V30 1548 C 135.969 4.90172 -2.13626 0
M  V30 1549 C 137.269 3.53643 -3.84362 0
M  V30 1550 H 138.963 1.81383 -2.38203 0
M  V30 1551 H 136.509 0.871237 -1.14654 0
M  V30 1552 H 138.462 4.00404 -1.31357 0
M  V30 1553 H 137.186 3.24968 -0.326049 0
M  V30 1554 H 135.845 2.76818 -2.40349 0
M  V30 1555 H 135.493 4.89869 -1.14182 0
M  V30 1556 H 135.193 5.11962 -2.88389 0
M  V30 1557 H 136.717 5.71028 -2.1624 0
M  V30 1558 H 138.131 4.22203 -3.87837 0
M  V30 1559 H 136.528 3.86961 -4.58673 0
M  V30 1560 H 137.598 2.52954 -4.13693 0
M  V30 1561 N 138.941 1.26152 0.944643 0
M  V30 1562 C 139.873 1.03199 2.04652 0
M  V30 1563 C 140.886 -0.00642356 1.62799 0
M  V30 1564 O 142.075 0.233263 1.76969 0
M  V30 1565 C 139.175 0.540111 3.34568 0
M  V30 1566 C 138.348 1.64697 4.05208 0
M  V30 1567 C 137.407 1.15374 5.13396 0
M  V30 1568 O 136.433 1.85013 5.38293 0
M  V30 1569 N 137.635 0.00031529 5.805 0
M  V30 1570 H 140.4 1.9808 2.2491 0
M  V30 1571 H 137.961 1.17491 1.11389 0
M  V30 1572 H 139.953 0.194401 4.04233 0
M  V30 1573 H 138.523 -0.315021 3.11009 0
M  V30 1574 H 137.743 2.16379 3.29506 0
M  V30 1575 H 139.031 2.3903 4.49157 0
M  V30 1576 H 138.429 -0.581336 5.62705 0
M  V30 1577 H 136.986 -0.286346 6.51171 0
M  V30 1578 N 140.419 -1.14872 1.07899 0
M  V30 1579 C 141.329 -2.2341 0.715915 0
M  V30 1580 C 142.345 -1.71808 -0.275306 0
M  V30 1581 O 143.521 -2.01039 -0.120545 0
M  V30 1582 C 140.586 -3.46474 0.125168 0
M  V30 1583 C 139.647 -4.13039 1.17034 0
M  V30 1584 C 138.88 -5.30229 0.607688 0
M  V30 1585 O 139.103 -5.675 -0.574497 0
M  V30 1586 O 138.037 -5.86444 1.35526 0
M  V30 1587 H 141.863 -2.56808 1.62121 0
M  V30 1588 H 139.448 -1.22702 0.852322 0
M  V30 1589 H 141.33 -4.20917 -0.201729 0
M  V30 1590 H 140.005 -3.14811 -0.753364 0
M  V30 1591 H 138.912 -3.40493 1.54968 0
M  V30 1592 H 140.245 -4.48796 2.02097 0
M  V30 1593 N 141.898 -0.863906 -1.31812 0
M  V30 1594 C 142.845 -0.313303 -2.28664 0
M  V30 1595 C 143.815 0.584868 -1.55462 0
M  V30 1596 O 145 0.517805 -1.83639 0
M  V30 1597 C 142.14 0.48441 -3.41683 0
M  V30 1598 C 141.253 -0.440594 -4.29747 0
M  V30 1599 C 140.388 0.370652 -5.29905 0
M  V30 1600 C 139.427 -0.551164 -6.09613 0
M  V30 1601 N 138.564 0.223462 -7.01744 0
M  V30 1602 H 143.404 -1.14444 -2.75148 0
M  V30 1603 H 140.941 -0.575769 -1.35364 0
M  V30 1604 H 142.899 0.962627 -4.05943 0
M  V30 1605 H 141.529 1.28029 -2.96325 0
M  V30 1606 H 140.581 -1.03724 -3.65986 0
M  V30 1607 H 141.893 -1.14767 -4.85417 0
M  V30 1608 H 141.047 0.911638 -5.99812 0
M  V30 1609 H 139.786 1.11105 -4.74876 0
M  V30 1610 H 138.791 -1.10396 -5.38603 0
M  V30 1611 H 140.016 -1.29032 -6.66729 0
M  V30 1612 H 137.962 0.946787 -6.49132 0
M  V30 1613 H 137.879 -0.424399 -7.54808 0
M  V30 1614 H 139.147 0.745876 -7.75923 0
M  V30 1615 N 143.376 1.44774 -0.622745 0
M  V30 1616 C 144.625 2.01334 -0.121397 0
M  V30 1617 C 144.938 1.49505 1.26125 0
M  V30 1618 O 146.144 1.98139 1.85616 0
M  V30 1619 C 144.6 3.59516 -0.166298 0
M  V30 1620 C 144.208 4.20342 -1.54974 0
M  V30 1621 C 145.952 4.23582 0.279021 0
M  V30 1622 C 143.859 5.70721 -1.55021 0
M  V30 1623 H 142.789 0.752851 -0.0416172 0
M  V30 1624 H 145.44 1.66083 -0.780309 0
M  V30 1625 H 143.822 3.92027 0.559557 0
M  V30 1626 H 144.996 3.99381 -2.29851 0
M  V30 1627 H 143.311 3.68529 -1.93843 0
M  V30 1628 H 145.908 5.33868 0.298083 0
M  V30 1629 H 146.251 3.95327 1.30471 0
M  V30 1630 H 146.784 3.95843 -0.394063 0
M  V30 1631 H 143.523 6.03698 -2.55399 0
M  V30 1632 H 143.043 5.93829 -0.844245 0
M  V30 1633 H 144.722 6.34203 -1.28047 0
M  V30 1634 N 144.854 0.36279 1.53368 0
M  V30 1635 C 146.094 -0.227882 2.03126 0
M  V30 1636 C 146.458 -1.4622 1.24434 0
M  V30 1637 O 147.659 -2.12831 1.64184 0
M  V30 1638 C 145.93 -0.515427 3.53664 0
M  V30 1639 S 147.489 -1.08017 4.25297 0
M  V30 1640 H 144.307 -0.0665377 0.70788 0
M  V30 1641 H 146.909 0.50501 1.88865 0
M  V30 1642 H 145.613 0.390436 4.08539 0
M  V30 1643 H 145.144 -1.27747 3.72081 0
M  V30 1644 H 147.159 -2.36462 4.36234 0
M  V30 1645 N 146.332 -1.57332 0.0918853 0
M  V30 1646 C 147.295 -2.12708 -0.85369 0
M  V30 1647 C 148.295 -1.05561 -1.213 0
M  V30 1648 O 149.485 -1.31461 -1.14296 0
M  V30 1649 C 146.617 -2.64503 -2.15061 0
M  V30 1650 H 147.81 -2.97573 -0.3729 0
M  V30 1651 H 145.363 -1.55509 -0.157072 0
M  V30 1652 H 146.098 -1.83149 -2.67632 0
M  V30 1653 H 145.883 -3.4284 -1.90272 0
M  V30 1654 H 147.373 -3.07351 -2.82711 0
M  V30 1655 N 147.81 0.181792 -1.56548 0
M  V30 1656 C 148.743 1.25366 -1.90679 0
M  V30 1657 C 149.721 1.43299 -0.768376 0
M  V30 1658 O 150.905 1.58475 -1.02068 0
M  V30 1659 C 148.032 2.61826 -2.1486 0
M  V30 1660 C 147.078 2.60688 -3.37556 0
M  V30 1661 S 147.911 2.10804 -4.92262 0
M  V30 1662 C 149.067 3.49062 -5.19525 0
M  V30 1663 H 149.3 0.962277 -2.81296 0
M  V30 1664 H 146.833 0.385892 -1.495 0
M  V30 1665 H 148.791 3.40371 -2.29473 0
M  V30 1666 H 147.452 2.88169 -1.24969 0
M  V30 1667 H 146.645 3.61058 -3.51643 0
M  V30 1668 H 146.247 1.90232 -3.22006 0
M  V30 1669 H 148.539 4.45003 -5.10861 0
M  V30 1670 H 149.482 3.39859 -6.2121 0
M  V30 1671 H 149.89 3.4459 -4.47122 0
M  V30 1672 N 149.288 1.51039 0.449983 0
M  V30 1673 C 150.198 1.74261 1.57067 0
M  V30 1674 C 151.214 0.626363 1.62335 0
M  V30 1675 O 152.39 0.907162 1.79812 0
M  V30 1676 C 149.455 1.85114 2.93144 0
M  V30 1677 C 148.516 3.0893 2.98095 0
M  V30 1678 C 147.749 3.19256 4.27681 0
M  V30 1679 O 147.972 2.35835 5.19363 0
M  V30 1680 O 146.906 4.12144 4.38658 0
M  V30 1681 H 150.732 2.69303 1.40391 0
M  V30 1682 H 148.317 1.35389 0.631688 0
M  V30 1683 H 150.199 1.94311 3.73926 0
M  V30 1684 H 148.874 0.932588 3.09975 0
M  V30 1685 H 147.781 3.0522 2.16314 0
M  V30 1686 H 149.114 4.00433 2.86206 0
M  V30 1687 N 150.766 -0.704594 1.40972 0
M  V30 1688 C 152.014 -1.46169 1.39568 0
M  V30 1689 C 152.335 -1.95 0.00253745 0
M  V30 1690 O 151.605 -1.71095 -0.954114 0
M  V30 1691 H 150.185 -0.542326 0.513704 0
M  V30 1692 H 152.847 -0.834553 1.76128 0
M  V30 1693 H 151.943 -2.32922 2.07735 0
M  V30 1694 N 152.244 -1.26651 -0.937939 0
M  V30 1695 C 153.174 -1.10993 -2.05433 0
M  V30 1696 C 154.155 -0.0142161 -1.70094 0
M  V30 1697 O 155.34 -0.186837 -1.93299 0
M  V30 1698 C 152.47 -0.745561 -3.39203 0
M  V30 1699 C 151.424 -1.79337 -3.88616 0
M  V30 1700 C 150.75 -1.28324 -5.19073 0
M  V30 1701 C 152.05 -3.19553 -4.13138 0
M  V30 1702 H 153.744 -2.0438 -2.1879 0
M  V30 1703 H 151.29 -0.984041 -1.05131 0
M  V30 1704 H 153.243 -0.622888 -4.16771 0
M  V30 1705 H 151.967 0.22401 -3.25831 0
M  V30 1706 H 150.626 -1.90477 -3.13231 0
M  V30 1707 H 150.274 -0.303414 -5.02084 0
M  V30 1708 H 149.974 -1.98369 -5.53103 0
M  V30 1709 H 151.498 -1.1733 -5.99221 0
M  V30 1710 H 152.912 -3.11471 -4.81309 0
M  V30 1711 H 151.309 -3.87218 -4.58457 0
M  V30 1712 H 152.379 -3.65368 -3.18801 0
M  V30 1713 N 153.722 1.14298 -1.08507 0
M  V30 1714 C 155.133 1.66926 -0.836227 0
M  V30 1715 C 155.484 1.85576 0.63686 0
M  V30 1716 O 154.609 1.56767 1.49175 0
M  V30 1717 C 155.204 3.03219 -1.51142 0
M  V30 1718 C 153.763 3.52876 -1.30979 0
M  V30 1719 C 152.91 2.2833 -1.57356 0
M  V30 1720 H 155.861 0.983491 -1.24552 0
M  V30 1721 H 155.882 3.68726 -0.939211 0
M  V30 1722 H 155.394 2.89612 -2.58353 0
M  V30 1723 H 153.495 3.71703 -0.258429 0
M  V30 1724 H 153.608 4.33586 -2.03814 0
M  V30 1725 H 151.972 2.34454 -0.995164 0
M  V30 1726 H 152.755 2.17298 -2.65775 0
M  V30 1727 N 155.201 0.870884 1.31352 0
M  V30 1728 C 156.133 0.28455 2.27427 0
M  V30 1729 C 157.146 -0.552927 1.53123 0
M  V30 1730 O 158.335 -0.374771 1.74521 0
M  V30 1731 C 155.435 -0.615164 3.3327 0
M  V30 1732 C 154.608 0.190079 4.36987 0
M  V30 1733 C 153.667 -0.637917 5.22319 0
M  V30 1734 O 152.693 -0.065626 5.69162 0
M  V30 1735 N 153.895 -1.94973 5.46778 0
M  V30 1736 H 156.66 1.11017 2.7838 0
M  V30 1737 H 154.221 0.732458 1.44384 0
M  V30 1738 H 156.213 -1.1748 3.87273 0
M  V30 1739 H 154.783 -1.34146 2.82354 0
M  V30 1740 H 154.003 0.931165 3.83044 0
M  V30 1741 H 155.291 0.742579 5.03352 0
M  V30 1742 H 154.689 -2.4378 5.10478 0
M  V30 1743 H 153.246 -2.45713 6.03712 0
M  V30 1744 N 156.679 -1.44442 0.630414 0
M  V30 1745 C 157.626 -2.30678 -0.0749355 0
M  V30 1746 C 158.596 -1.4344 -0.837502 0
M  V30 1747 O 159.781 -1.72343 -0.818684 0
M  V30 1748 C 156.921 -3.28706 -1.05103 0
M  V30 1749 C 156.034 -4.31046 -0.286954 0
M  V30 1750 C 155.169 -5.16167 -1.2548 0
M  V30 1751 C 154.208 -6.10216 -0.479843 0
M  V30 1752 N 153.345 -6.88039 -1.39811 0
M  V30 1753 H 158.185 -2.90454 0.666386 0
M  V30 1754 H 155.722 -1.43107 0.340404 0
M  V30 1755 H 157.68 -3.84027 -1.63031 0
M  V30 1756 H 156.31 -2.70632 -1.75949 0
M  V30 1757 H 155.362 -3.78203 0.408243 0
M  V30 1758 H 156.674 -4.97794 0.316657 0
M  V30 1759 H 155.828 -5.76002 -1.90544 0
M  V30 1760 H 154.567 -4.49491 -1.89233 0
M  V30 1761 H 153.572 -5.49491 0.184295 0
M  V30 1762 H 154.797 -6.78928 0.152965 0
M  V30 1763 H 152.743 -6.24032 -2.02287 0
M  V30 1764 H 152.66 -7.51223 -0.848508 0
M  V30 1765 H 153.928 -7.52397 -2.03762 0
M  V30 1766 N 158.157 -0.370918 -1.53173 0
M  V30 1767 C 159.107 0.489588 -2.22681 0
M  V30 1768 C 160.091 1.04442 -1.22395 0
M  V30 1769 O 161.283 0.973578 -1.47819 0
M  V30 1770 C 158.412 1.626 -3.02351 0
M  V30 1771 C 157.498 1.08379 -4.10018 0
M  V30 1772 N 157.889 0.265004 -5.05105 0
M  V30 1773 C 156.187 1.35809 -4.2482 0
M  V30 1774 C 156.888 -0.0324755 -5.81691 0
M  V30 1775 N 155.864 0.566581 -5.40639 0
M  V30 1776 H 159.666 -0.142729 -2.93553 0
M  V30 1777 H 157.18 -0.179221 -1.61408 0
M  V30 1778 H 159.177 2.2547 -3.50669 0
M  V30 1779 H 157.837 2.26132 -2.33011 0
M  V30 1780 H 158.848 -0.0962352 -5.17811 0
M  V30 1781 H 155.525 1.9958 -3.66707 0
M  V30 1782 H 156.915 -0.69473 -6.68299 0
M  V30 1783 N 159.635 1.57281 -0.100228 0
M  V30 1784 C 160.583 2.15542 0.874328 0
M  V30 1785 C 161.577 1.09962 1.28859 0
M  V30 1786 O 162.783 1.28298 1.26252 0
M  V30 1787 H 159.158 0.689567 0.300003 0
M  V30 1788 H 161.129 2.96241 0.35829 0
M  V30 1789 C 159.878 2.75454 2.1218 0
M  V30 1790 H 159.201 3.56384 1.81193 0
M  V30 1791 H 160.641 3.19781 2.78417 0
M  V30 1792 C 159.1 1.71602 2.89921 0
M  V30 1793 O 159.63 1.15804 3.84646 0
M  V30 1794 N 157.836 1.41975 2.53558 0
M  V30 1795 H 157.383 1.87539 1.76598 0
M  V30 1796 H 157.341 0.727274 3.05873 0
M  V30 1797 N 161.113 -0.173488 1.56642 0
M  V30 1798 C 162.36 -0.890465 1.81871 0
M  V30 1799 C 162.688 -1.82339 0.67696 0
M  V30 1800 O 161.943 -1.92795 -0.335926 0
M  V30 1801 C 162.242 -1.72069 3.13252 0
M  V30 1802 C 161.908 -0.936878 4.41059 0
M  V30 1803 C 160.57 -0.720545 4.75775 0
M  V30 1804 C 162.922 -0.386919 5.19762 0
M  V30 1805 C 160.25 0.0568829 5.86672 0
M  V30 1806 C 162.602 0.37741 6.31473 0
M  V30 1807 C 161.266 0.604563 6.64757 0
M  V30 1808 H 160.536 -0.325844 0.665512 0
M  V30 1809 H 163.183 -0.155527 1.90867 0
M  V30 1810 H 161.488 -2.52496 2.99588 0
M  V30 1811 H 163.185 -2.27844 3.29982 0
M  V30 1812 H 159.775 -1.11553 4.13828 0
M  V30 1813 H 163.959 -0.541398 4.93338 0
M  V30 1814 H 159.215 0.242635 6.10918 0
M  V30 1815 H 163.389 0.810825 6.91664 0
M  V30 1816 H 161.016 1.20885 7.50527 0
M  V30 1817 N 162.591 -1.51276 -0.441967 0
M  V30 1818 C 163.816 -1.67799 -1.21895 0
M  V30 1819 C 164.241 -0.372864 -1.84367 0
M  V30 1820 O 163.599 0.666501 -1.68604 0
M  V30 1821 C 163.647 -2.79199 -2.28211 0
M  V30 1822 O 162.751 -2.42479 -3.33583 0
M  V30 1823 H 162.092 -0.559649 -0.357336 0
M  V30 1824 H 164.622 -1.97815 -0.522522 0
M  V30 1825 H 164.632 -3.03146 -2.73069 0
M  V30 1826 H 163.307 -3.73906 -1.82118 0
M  V30 1827 H 161.884 -2.29087 -2.94234 0
M  V30 1828 N 164.069 0.697108 -1.41344 0
M  V30 1829 C 165.019 1.80313 -1.39539 0
M  V30 1830 C 166.003 1.58618 -0.270001 0
M  V30 1831 O 167.195 1.69477 -0.510551 0
M  V30 1832 C 164.324 3.18606 -1.27848 0
M  V30 1833 C 163.41 3.46001 -2.45244 0
M  V30 1834 N 163.801 3.44103 -3.70711 0
M  V30 1835 C 162.099 3.76542 -2.39023 0
M  V30 1836 C 162.8 3.7036 -4.48563 0
M  V30 1837 N 161.776 3.90027 -3.78655 0
M  V30 1838 H 165.578 1.77207 -2.34468 0
M  V30 1839 H 163.092 0.897031 -1.35378 0
M  V30 1840 H 165.089 3.97833 -1.24637 0
M  V30 1841 H 163.749 3.22925 -0.339032 0
M  V30 1842 H 164.76 3.2452 -4.03618 0
M  V30 1843 H 161.437 3.88241 -1.53542 0
M  V30 1844 H 162.827 3.75042 -5.57488 0
M  V30 1845 N 165.547 1.27147 0.931209 0
M  V30 1846 C 166.787 1.14511 1.69312 0
M  V30 1847 C 167.151 -0.304638 1.89568 0
M  V30 1848 O 168.352 -0.553343 2.63043 0
M  V30 1849 C 166.623 1.90349 3.02493 0
M  V30 1850 S 168.182 1.93884 3.93642 0
M  V30 1851 H 165 0.408858 0.581684 0
M  V30 1852 H 167.602 1.61006 1.10893 0
M  V30 1853 H 166.306 2.94877 2.85439 0
M  V30 1854 H 165.837 1.44333 3.65966 0
M  V30 1855 H 167.852 1.03273 4.85334 0
M  V30 1856 N 167.025 -1.13721 1.09112 0
M  V30 1857 C 168.265 -1.86576 0.834801 0
M  V30 1858 C 168.629 -1.81435 -0.628122 0
M  V30 1859 O 169.83 -2.49497 -1.00024 0
M  V30 1860 C 168.101 -3.30872 1.35124 0
M  V30 1861 S 169.66 -4.21257 1.22832 0
M  V30 1862 H 166.478 -0.643666 0.302017 0
M  V30 1863 H 169.08 -1.37085 1.39385 0
M  V30 1864 H 167.784 -3.32166 2.41027 0
M  V30 1865 H 167.315 -3.85423 0.788185 0
M  V30 1866 H 169.33 -4.95884 0.177191 0
M  V30 1867 N 168.503 -0.877838 -1.30888 0
M  V30 1868 C 169.728 -0.506629 -2.01117 0
M  V30 1869 C 170.153 0.895564 -1.65412 0
M  V30 1870 O 169.511 1.5923 -0.866922 0
M  V30 1871 C 169.559 -0.680223 -3.54126 0
M  V30 1872 O 168.663 0.277033 -4.11468 0
M  V30 1873 H 168.004 -0.200518 -0.633 0
M  V30 1874 H 170.534 -1.18342 -1.66902 0
M  V30 1875 H 170.544 -0.5765 -4.03907 0
M  V30 1876 H 169.219 -1.70261 -3.79452 0
M  V30 1877 H 167.796 0.127606 -3.72682 0
M  V30 1878 N 169.982 1.44106 -0.638065 0
M  V30 1879 C 170.929 2.30715 0.062701 0
M  V30 1880 C 171.899 1.43882 0.829883 0
M  V30 1881 O 173.084 1.72775 0.809532 0
M  V30 1882 C 170.224 3.29258 1.03358 0
M  V30 1883 C 169.337 4.31192 0.26409 0
M  V30 1884 C 168.472 5.16825 1.22741 0
M  V30 1885 C 167.511 6.10462 0.447475 0
M  V30 1886 N 166.648 6.8877 1.36161 0
M  V30 1887 H 171.488 2.90096 -0.681781 0
M  V30 1888 H 169.025 1.42925 -0.347988 0
M  V30 1889 H 170.983 3.84886 1.60992 0
M  V30 1890 H 169.613 2.71562 1.74511 0
M  V30 1891 H 168.665 3.77981 -0.428295 0
M  V30 1892 H 169.977 4.97619 -0.343052 0
M  V30 1893 H 169.131 5.77004 1.87487 0
M  V30 1894 H 167.87 4.50488 1.86847 0
M  V30 1895 H 166.875 5.49386 -0.213433 0
M  V30 1896 H 168.1 6.78837 -0.188968 0
M  V30 1897 H 166.046 6.25096 1.98975 0
M  V30 1898 H 165.963 7.51663 0.808656 0
M  V30 1899 H 167.231 7.53467 1.99769 0
M  V30 1900 N 171.46 0.379036 1.52974 0
M  V30 1901 C 172.706 -0.206727 2.01744 0
M  V30 1902 C 173.039 -1.47314 1.26539 0
M  V30 1903 O 172.314 -1.91084 0.362903 0
M  V30 1904 C 172.597 -0.485066 3.56818 0
M  V30 1905 C 172.45 0.795919 4.42702 0
M  V30 1906 C 173.769 -1.28003 4.21074 0
M  V30 1907 H 170.888 -0.0736607 0.73331 0
M  V30 1908 H 173.53 0.506581 1.83122 0
M  V30 1909 H 171.68 -1.09272 3.72816 0
M  V30 1910 H 173.352 1.43307 4.38476 0
M  V30 1911 H 171.595 1.41344 4.10127 0
M  V30 1912 H 172.266 0.555947 5.49193 0
M  V30 1913 H 174.742 -0.765867 4.08991 0
M  V30 1914 H 173.618 -1.44352 5.29579 0
M  V30 1915 H 173.879 -2.29236 3.78026 0
M  V30 1916 N 172.938 -1.57226 0.108567 0
M  V30 1917 C 174.215 -1.86333 -0.594939 0
M  V30 1918 C 174.595 -1.00788 -1.85486 0
M  V30 1919 O 173.943 -0.0839293 -2.28346 0
M  V30 1920 C 174.153 -3.37265 -0.897405 0
M  V30 1921 C 175.501 -4.05629 -1.25501 0
M  V30 1922 O 176.525 -3.42224 -0.987998 0
M  V30 1923 O 175.384 -5.17531 -1.75567 0
M  V30 1924 H 172.478 -0.771018 -0.2991 0
M  V30 1925 H 175.024 -1.69102 0.142283 0
M  V30 1926 H 173.796 -3.913 -0.00413806 0
M  V30 1927 H 173.419 -3.59889 -1.69014 0
M  V30 1928 N 174.416 0.165178 -1.56732 0
M  V30 1929 C 175.379 1.18822 -1.95995 0
M  V30 1930 C 176.379 1.3685 -0.84431 0
M  V30 1931 O 177.569 1.34152 -1.11126 0
M  V30 1932 C 174.701 2.5521 -2.26011 0
M  V30 1933 H 175.894 0.851825 -2.87548 0
M  V30 1934 H 173.447 0.407857 -1.50885 0
M  V30 1935 H 174.182 2.93852 -1.37191 0
M  V30 1936 H 173.967 2.43489 -3.07336 0
M  V30 1937 H 175.457 3.28927 -2.57288 0
M  V30 1938 N 175.894 1.51508 0.433938 0
M  V30 1939 C 176.826 1.69266 1.54537 0
M  V30 1940 C 177.839 0.573276 1.52373 0
M  V30 1941 O 179.028 0.847698 1.57087 0
M  V30 1942 C 176.128 1.69524 2.93453 0
M  V30 1943 C 175.301 2.98101 3.20085 0
M  V30 1944 C 174.36 2.90502 4.38742 0
M  V30 1945 O 173.386 3.64442 4.3723 0
M  V30 1946 N 174.588 2.06586 5.42496 0
M  V30 1947 H 177.353 2.65145 1.39708 0
M  V30 1948 H 174.914 1.49437 0.622922 0
M  V30 1949 H 176.906 1.62004 3.70859 0
M  V30 1950 H 175.476 0.812245 3.01863 0
M  V30 1951 H 174.696 3.19464 2.30947 0
M  V30 1952 H 175.984 3.83207 3.34708 0
M  V30 1953 H 175.382 1.45896 5.46563 0
M  V30 1954 H 173.939 2.04943 6.18742 0
M  V30 1955 N 177.372 -0.689602 1.41712 0
M  V30 1956 C 178.788 -1.00093 1.24312 0
M  V30 1957 C 178.988 -2.01036 0.136729 0
M  V30 1958 O 178.044 -2.47562 -0.496918 0
M  V30 1959 C 179.357 -1.51985 2.59463 0
M  V30 1960 C 180.905 -1.63838 2.66695 0
M  V30 1961 C 181.38 -2.1913 4.02177 0
M  V30 1962 N 182.871 -2.26483 4.04054 0
M  V30 1963 C 183.606 -2.70306 5.0569 0
M  V30 1964 N 183.102 -3.13691 6.17713 0
M  V30 1965 N 184.895 -2.69923 4.9305 0
M  V30 1966 H 177.046 -0.0210029 2.1239 0
M  V30 1967 H 179.309 -0.0718733 0.945272 0
M  V30 1968 H 179.015 -0.85269 3.41207 0
M  V30 1969 H 178.889 -2.50103 2.82362 0
M  V30 1970 H 181.276 -2.29664 1.85306 0
M  V30 1971 H 181.357 -0.642492 2.476 0
M  V30 1972 H 181.001 -1.53918 4.84016 0
M  V30 1973 H 180.931 -3.19482 4.18615 0
M  V30 1974 H 183.422 -1.95874 3.23174 0
M  V30 1975 H 183.735 -3.45773 6.9113 0
M  V30 1976 H 182.08 -3.11585 6.21241 0
M  V30 1977 H 185.271 -2.35382 4.04614 0
M  V30 1978 H 185.444 -3.03758 5.72394 0
M  V30 1979 N 178.85 -1.27639 -0.924453 0
M  V30 1980 C 180.266 -1.05113 -1.20097 0
M  V30 1981 C 180.466 0.213262 -2.00368 0
M  V30 1982 O 179.522 0.91787 -2.35226 0
M  V30 1983 C 180.835 -2.29244 -1.94596 0
M  V30 1984 C 182.383 -2.34315 -2.07522 0
M  V30 1985 C 182.858 -3.58183 -2.85427 0
M  V30 1986 N 184.349 -3.5876 -2.92994 0
M  V30 1987 C 185.084 -4.51277 -3.53746 0
M  V30 1988 N 184.58 -5.54102 -4.15863 0
M  V30 1989 N 186.373 -4.38894 -3.51181 0
M  V30 1990 H 178.524 -2.08821 -0.388264 0
M  V30 1991 H 180.787 -0.918568 -0.234385 0
M  V30 1992 H 180.493 -3.21301 -1.43034 0
M  V30 1993 H 180.367 -2.34816 -2.95197 0
M  V30 1994 H 182.754 -1.42762 -2.58269 0
M  V30 1995 H 182.835 -2.32744 -1.06131 0
M  V30 1996 H 182.479 -4.50074 -2.35363 0
M  V30 1997 H 182.409 -3.57006 -3.8711 0
M  V30 1998 H 184.9 -2.84398 -2.4885 0
M  V30 1999 H 185.213 -6.20859 -4.60168 0
M  V30 2000 H 183.558 -5.57941 -4.144 0
M  V30 2001 H 186.749 -3.57772 -3.01856 0
M  V30 2002 H 186.922 -5.11186 -3.98237 0
M  V30 2003 N 180.328 1.1314 -1.09713 0
M  V30 2004 C 181.258 2.20748 -0.761102 0
M  V30 2005 C 182.239 1.68061 0.262566 0
M  V30 2006 O 183.424 1.93765 0.129977 0
M  V30 2007 C 180.554 3.46812 -0.184054 0
M  V30 2008 C 179.508 4.12606 -1.13757 0
M  V30 2009 C 178.834 5.33031 -0.422083 0
M  V30 2010 C 180.134 4.59603 -2.48118 0
M  V30 2011 H 181.828 2.49113 -1.66082 0
M  V30 2012 H 179.374 1.19734 -0.799987 0
M  V30 2013 H 181.327 4.21353 0.0631215 0
M  V30 2014 H 180.051 3.17851 0.750868 0
M  V30 2015 H 178.71 3.40036 -1.37007 0
M  V30 2016 H 178.358 5.00335 0.517072 0
M  V30 2017 H 178.058 5.77999 -1.05788 0
M  V30 2018 H 179.582 6.10325 -0.183277 0
M  V30 2019 H 180.996 5.25552 -2.29059 0
M  V30 2020 H 179.393 5.15321 -3.07514 0
M  V30 2021 H 180.463 3.73971 -3.08665 0
M  V30 2022 N 181.806 0.884767 1.30421 0
M  V30 2023 C 183.046 0.509806 1.9794 0
M  V30 2024 C 183.41 -0.923736 1.68319 0
M  V30 2025 O 184.611 -1.40481 2.29169 0
M  V30 2026 C 182.882 0.776732 3.48858 0
M  V30 2027 S 184.441 0.503843 4.35898 0
M  V30 2028 H 181.259 0.189699 0.685227 0
M  V30 2029 H 183.861 1.14399 1.58535 0
M  V30 2030 H 182.565 1.81857 3.67908 0
M  V30 2031 H 182.096 0.1301 3.93185 0
M  V30 2032 H 184.111 -0.657625 4.91823 0
M  V30 2033 N 183.284 -1.43765 0.645699 0
M  V30 2034 C 184.531 -2.01898 0.15604 0
M  V30 2035 C 184.859 -1.50887 -1.22733 0
M  V30 2036 O 184.114 -0.689271 -1.8316 0
M  V30 2037 C 184.413 -3.57238 0.107679 0
M  V30 2038 C 184.079 -4.27564 1.43178 0
M  V30 2039 C 182.741 -4.46492 1.7944 0
M  V30 2040 C 185.093 -4.67454 2.30513 0
M  V30 2041 C 182.421 -5.02573 3.02716 0
M  V30 2042 C 184.773 -5.24901 3.53074 0
M  V30 2043 C 183.437 -5.42046 3.89541 0
M  V30 2044 H 182.707 -0.738797 0.057099 0
M  V30 2045 H 185.354 -1.72341 0.834912 0
M  V30 2046 H 183.659 -3.86293 -0.654618 0
M  V30 2047 H 185.356 -3.99965 -0.287938 0
M  V30 2048 H 181.946 -4.13171 1.13963 0
M  V30 2049 H 186.13 -4.5253 2.0379 0
M  V30 2050 H 181.386 -5.14033 3.31028 0
M  V30 2051 H 185.56 -5.54758 4.20971 0
M  V30 2052 H 183.187 -5.85268 4.85145 0
M  V30 2053 N 184.763 -0.387143 -1.52771 0
M  V30 2054 C 186.01 0.195735 -2.01552 0
M  V30 2055 C 186.338 1.46995 -1.27369 0
M  V30 2056 O 185.593 1.92325 -0.361879 0
M  V30 2057 C 185.892 0.512209 -3.53711 0
M  V30 2058 C 185.558 -0.670202 -4.45891 0
M  V30 2059 C 184.22 -0.994586 -4.70809 0
M  V30 2060 C 186.572 -1.46134 -5.00294 0
M  V30 2061 C 183.9 -2.11169 -5.4738 0
M  V30 2062 C 186.252 -2.56903 -5.78086 0
M  V30 2063 C 184.916 -2.89852 -6.01284 0
M  V30 2064 H 184.186 0.0716246 -0.73753 0
M  V30 2065 H 186.833 -0.524046 -1.8419 0
M  V30 2066 H 185.138 1.31329 -3.69134 0
M  V30 2067 H 186.835 0.975804 -3.88946 0
M  V30 2068 H 183.425 -0.407366 -4.2666 0
M  V30 2069 H 187.609 -1.22397 -4.80971 0
M  V30 2070 H 182.865 -2.3707 -5.63567 0
M  V30 2071 H 187.039 -3.18608 -6.19243 0
M  V30 2072 H 184.666 -3.76533 -6.60399 0
M  V30 2073 N 186.241 1.57166 -0.116904 0
M  V30 2074 C 187.471 1.99184 0.548586 0
M  V30 2075 C 187.879 0.995436 1.60897 0
M  V30 2076 O 187.222 -0.0201293 1.83689 0
M  V30 2077 C 187.284 3.37611 1.23526 0
M  V30 2078 C 186.948 4.55857 0.323077 0
M  V30 2079 C 187.945 5.18056 -0.437476 0
M  V30 2080 C 185.63 5.01751 0.234761 0
M  V30 2081 C 187.624 6.24536 -1.2741 0
M  V30 2082 C 185.311 6.08093 -0.605496 0
M  V30 2083 C 186.309 6.69352 -1.35856 0
M  V30 2084 O 185.997 7.7364 -2.18487 0
M  V30 2085 H 185.729 0.659148 0.149999 0
M  V30 2086 H 188.283 2.0443 -0.199428 0
M  V30 2087 H 186.513 3.29113 2.0303 0
M  V30 2088 H 188.202 3.63932 1.79745 0
M  V30 2089 H 188.968 4.83516 -0.379105 0
M  V30 2090 H 184.847 4.53817 0.810601 0
M  V30 2091 H 188.391 6.72281 -1.86237 0
M  V30 2092 H 184.288 6.42063 -0.665268 0
M  V30 2093 H 185.056 7.90727 -2.11406 0
M  V30 2094 N 187.719 -0.156864 1.56817 0
M  V30 2095 C 188.667 -1.21319 1.98455 0
M  V30 2096 C 189.661 -1.45025 0.875444 0
M  V30 2097 O 190.867 -1.45435 1.0606 0
M  V30 2098 H 187.242 -0.408142 0.631605 0
M  V30 2099 H 189.213 -0.835244 2.86472 0
M  V30 2100 C 187.962 -2.54148 2.37285 0
M  V30 2101 H 187.285 -2.36733 3.22176 0
M  V30 2102 H 188.725 -3.26712 2.70251 0
M  V30 2103 C 187.184 -3.13967 1.22173 0
M  V30 2104 O 187.714 -3.98357 0.517149 0
M  V30 2105 N 185.92 -2.7327 0.988536 0
M  V30 2106 H 185.467 -2.04744 1.56326 0
M  V30 2107 H 185.425 -3.13628 0.220209 0
M  V30 2108 N 189.197 -1.51736 -0.425897 0
M  V30 2109 C 190.144 -1.73875 -1.51776 0
M  V30 2110 C 191.114 -0.580702 -1.55618 0
M  V30 2111 O 192.299 -0.81641 -1.72451 0
M  V30 2112 C 189.439 -1.88012 -2.89388 0
M  V30 2113 C 188.552 -3.15606 -2.94986 0
M  V30 2114 C 187.687 -3.20271 -4.23793 0
M  V30 2115 C 186.726 -4.42134 -4.23302 0
M  V30 2116 N 185.863 -4.44284 -5.43651 0
M  V30 2117 H 190.703 -2.67071 -1.32201 0
M  V30 2118 H 188.24 -1.32351 -0.642008 0
M  V30 2119 H 190.198 -1.9419 -3.69251 0
M  V30 2120 H 188.828 -0.98213 -3.07496 0
M  V30 2121 H 187.88 -3.18681 -2.07717 0
M  V30 2122 H 189.192 -4.05486 -2.90486 0
M  V30 2123 H 188.346 -3.25428 -5.12036 0
M  V30 2124 H 187.085 -2.28299 -4.30965 0
M  V30 2125 H 186.09 -4.3714 -3.3345 0
M  V30 2126 H 187.315 -5.35382 -4.17783 0
M  V30 2127 H 185.261 -3.55188 -5.51523 0
M  V30 2128 H 185.178 -5.27988 -5.41078 0
M  V30 2129 H 186.446 -4.53649 -6.33895 0
M  V30 2130 N 190.675 0.682077 -1.42076 0
M  V30 2131 C 191.622 1.79578 -1.44984 0
M  V30 2132 C 192.592 1.6332 -0.302614 0
M  V30 2133 O 193.777 1.83978 -0.505633 0
M  V30 2134 C 190.917 3.1756 -1.35091 0
M  V30 2135 C 190.03 3.45156 -2.59791 0
M  V30 2136 C 189.165 4.72826 -2.42093 0
M  V30 2137 C 188.204 4.93433 -3.62202 0
M  V30 2138 N 187.341 6.12338 -3.43491 0
M  V30 2139 H 192.181 1.76427 -2.40161 0
M  V30 2140 H 189.718 0.861376 -1.19242 0
M  V30 2141 H 191.676 3.97287 -1.27354 0
M  V30 2142 H 190.306 3.19854 -0.435133 0
M  V30 2143 H 189.358 2.59736 -2.77923 0
M  V30 2144 H 190.67 3.5628 -3.49094 0
M  V30 2145 H 189.824 5.60631 -2.319 0
M  V30 2146 H 188.563 4.63973 -1.50268 0
M  V30 2147 H 187.568 4.04073 -3.72834 0
M  V30 2148 H 188.793 5.04136 -4.54998 0
M  V30 2149 H 186.739 6.04672 -2.54377 0
M  V30 2150 H 186.656 6.2429 -4.26377 0
M  V30 2151 H 187.924 7.02841 -3.37097 0
M  V30 2152 N 192.153 1.28127 0.917671 0
M  V30 2153 C 193.378 1.18007 1.70555 0
M  V30 2154 C 193.803 -0.258257 1.86319 0
M  V30 2155 O 193.161 -1.1869 1.37049 0
M  V30 2156 C 193.209 1.87948 3.07746 0
M  V30 2157 O 192.313 1.18427 3.9503 0
M  V30 2158 H 191.654 0.409867 0.522403 0
M  V30 2159 H 194.184 1.69379 1.1477 0
M  V30 2160 H 194.194 1.95701 3.58001 0
M  V30 2161 H 192.869 2.92573 2.95591 0
M  V30 2162 H 191.446 1.18811 3.53466 0
M  V30 2163 N 193.631 -1.12557 1.10312 0
M  V30 2164 C 194.908 -1.80363 0.756878 0
M  V30 2165 C 195.288 -1.97067 -0.756824 0
M  V30 2166 O 194.636 -1.54601 -1.68259 0
M  V30 2167 C 194.846 -3.14812 1.50647 0
M  V30 2168 C 196.194 -3.90029 1.67817 0
M  V30 2169 O 197.218 -3.24464 1.46974 0
M  V30 2170 O 196.077 -5.07652 2.02365 0
M  V30 2171 H 193.171 -0.780667 0.272926 0
M  V30 2172 H 195.717 -1.19404 1.20586 0
M  V30 2173 H 194.489 -2.97936 2.53672 0
M  V30 2174 H 194.112 -3.83478 1.05026 0
M  V30 2175 N 195.109 -0.891671 -1.2995 0
M  V30 2176 C 196.355 -0.514261 -1.96171 0
M  V30 2177 C 196.688 0.935506 -1.70182 0
M  V30 2178 O 195.963 1.66204 -1.01028 0
M  V30 2179 C 196.246 -0.797719 -3.51153 0
M  V30 2180 C 196.099 -2.2986 -3.86632 0
M  V30 2181 C 197.418 -0.278749 -4.39216 0
M  V30 2182 H 194.537 -0.188314 -0.712535 0
M  V30 2183 H 197.179 -1.11689 -1.53706 0
M  V30 2184 H 195.329 -0.284826 -3.87455 0
M  V30 2185 H 197.001 -2.88042 -3.60319 0
M  V30 2186 H 195.244 -2.76257 -3.34462 0
M  V30 2187 H 195.915 -2.44753 -4.94773 0
M  V30 2188 H 198.391 -0.717825 -4.09862 0
M  V30 2189 H 197.267 -0.506353 -5.46559 0
M  V30 2190 H 197.528 0.820266 -4.34424 0
M  V30 2191 N 196.587 1.43421 -0.653314 0
M  V30 2192 C 197.835 2.01414 -0.166415 0
M  V30 2193 C 198.156 1.51803 1.22397 0
M  V30 2194 O 197.426 0.730693 1.81763 0
M  V30 2195 H 196.006 0.744703 -0.0585319 0
M  V30 2196 H 198.668 1.75629 -0.845003 0
M  V30 2197 H 197.764 3.11734 -0.151111 0
M  V30 2198 N 198.065 0.39524 1.52563 0
M  V30 2199 C 199.312 -0.185044 2.01653 0
M  V30 2200 C 199.64 -1.46317 1.28146 0
M  V30 2201 O 198.895 -1.9213 0.372074 0
M  V30 2202 C 199.194 -0.493444 3.53977 0
M  V30 2203 C 198.86 0.69384 4.4553 0
M  V30 2204 C 197.522 1.01954 4.70275 0
M  V30 2205 C 199.874 1.48785 4.99512 0
M  V30 2206 C 197.202 2.14069 5.46252 0
M  V30 2207 C 199.554 2.59965 5.76716 0
M  V30 2208 C 198.218 2.93037 5.99738 0
M  V30 2209 H 197.488 -0.0677123 0.7379 0
M  V30 2210 H 200.135 0.533807 1.8391 0
M  V30 2211 H 198.44 -1.29369 3.69825 0
M  V30 2212 H 200.137 -0.955163 3.89458 0
M  V30 2213 H 196.727 0.429987 4.26438 0
M  V30 2214 H 200.911 1.24946 4.80315 0
M  V30 2215 H 196.167 2.40056 5.62302 0
M  V30 2216 H 200.341 3.21887 6.17545 0
M  V30 2217 H 197.968 3.8003 6.58393 0
M  V30 2218 N 199.544 -1.57102 0.125237 0
M  V30 2219 C 200.474 -2.18659 -0.819174 0
M  V30 2220 C 201.455 -1.12843 -1.27281 0
M  V30 2221 O 202.64 -1.41104 -1.33429 0
M  V30 2222 C 199.77 -2.79096 -2.06695 0
M  V30 2223 C 198.724 -3.90548 -1.75088 0
M  V30 2224 C 198.05 -4.37821 -3.06948 0
M  V30 2225 C 199.35 -5.12356 -1.01435 0
M  V30 2226 H 201.044 -2.9783 -0.306202 0
M  V30 2227 H 198.59 -1.4326 -0.145839 0
M  V30 2228 H 200.543 -3.2082 -2.73226 0
M  V30 2229 H 199.267 -1.97223 -2.60328 0
M  V30 2230 H 197.926 -3.49409 -1.10944 0
M  V30 2231 H 197.574 -3.52799 -3.58527 0
M  V30 2232 H 197.274 -5.12982 -2.86571 0
M  V30 2233 H 198.798 -4.822 -3.74587 0
M  V30 2234 H 200.212 -5.5106 -1.58132 0
M  V30 2235 H 198.609 -5.9314 -0.911319 0
M  V30 2236 H 199.679 -4.849 -0.00218681 0
M  V30 2237 N 201.022 0.148545 -1.56898 0
M  V30 2238 C 202.433 0.708766 -1.72723 0
M  V30 2239 C 202.784 1.81734 -0.739395 0
M  V30 2240 O 201.909 2.16194 0.0943169 0
M  V30 2241 C 202.504 1.29245 -3.13179 0
M  V30 2242 C 201.063 1.79925 -3.30611 0
M  V30 2243 C 200.21 0.687111 -2.68652 0
M  V30 2244 H 203.161 -0.0771063 -1.58513 0
M  V30 2245 H 203.182 2.16224 -3.13093 0
M  V30 2246 H 202.694 0.485382 -3.85053 0
M  V30 2247 H 200.795 2.63203 -2.63732 0
M  V30 2248 H 200.908 1.92903 -4.38549 0
M  V30 2249 H 199.272 1.11335 -2.29078 0
M  V30 2250 H 200.055 -0.108483 -3.43129 0
M  V30 2251 N 202.5 1.5196 0.417844 0
M  V30 2252 C 203.911 1.57851 0.997 0
M  V30 2253 C 204.262 0.413714 1.91789 0
M  V30 2254 O 203.387 -0.467057 2.113 0
M  V30 2255 C 203.982 2.86085 1.81496 0
M  V30 2256 C 202.541 2.94483 2.34428 0
M  V30 2257 C 201.688 2.52707 1.14169 0
M  V30 2258 H 204.639 1.57455 0.198392 0
M  V30 2259 H 204.66 2.70947 2.67148 0
M  V30 2260 H 204.172 3.70842 1.14446 0
M  V30 2261 H 202.273 2.142 3.04875 0
M  V30 2262 H 202.386 3.98546 2.65891 0
M  V30 2263 H 200.75 2.06353 1.49301 0
M  V30 2264 H 201.533 3.39828 0.486999 0
M  V30 2265 N 203.978 -0.674533 1.42435 0
M  V30 2266 C 205.225 -1.43459 1.42919 0
M  V30 2267 C 205.553 -1.94446 0.0457312 0
M  V30 2268 O 204.808 -1.7132 -0.94593 0
M  V30 2269 C 205.107 -2.64767 2.40069 0
M  V30 2270 C 204.773 -2.3232 3.86443 0
M  V30 2271 C 203.435 -2.23182 4.26314 0
M  V30 2272 C 205.787 -2.05977 4.78773 0
M  V30 2273 C 203.115 -1.85827 5.56494 0
M  V30 2274 C 205.467 -1.70125 6.09295 0
M  V30 2275 C 204.131 -1.59498 6.48164 0
M  V30 2276 H 203.401 -0.524952 0.522978 0
M  V30 2277 H 206.048 -0.769097 1.75377 0
M  V30 2278 H 204.353 -3.36349 2.00939 0
M  V30 2279 H 206.05 -3.22949 2.37707 0
M  V30 2280 H 202.64 -2.40334 3.54877 0
M  V30 2281 H 206.824 -2.11969 4.48757 0
M  V30 2282 H 202.08 -1.76168 5.8547 0
M  V30 2283 H 206.254 -1.48767 6.80324 0
M  V30 2284 H 203.881 -1.30322 7.48946 0
M  V30 2285 N 205.456 -1.28612 -0.910864 0
M  V30 2286 C 206.867 -1.14406 -1.47541 0
M  V30 2287 C 207.218 0.264901 -1.94403 0
M  V30 2288 O 206.343 1.15942 -1.82719 0
M  V30 2289 C 206.938 -2.07073 -2.68153 0
M  V30 2290 C 205.497 -1.96923 -3.20778 0
M  V30 2291 C 204.644 -1.98646 -1.93481 0
M  V30 2292 H 207.595 -1.41259 -0.723291 0
M  V30 2293 H 207.616 -1.63642 -3.43514 0
M  V30 2294 H 207.128 -3.09611 -2.34015 0
M  V30 2295 H 205.229 -0.97433 -3.59635 0
M  V30 2296 H 205.342 -2.84026 -3.85832 0
M  V30 2297 H 203.706 -1.43093 -2.10705 0
M  V30 2298 H 204.489 -3.02868 -1.61634 0
M  V30 2299 N 206.934 1.1197 -1.10907 0
M  V30 2300 C 208.162 1.87402 -0.876824 0
M  V30 2301 C 208.577 1.79894 0.573025 0
M  V30 2302 O 207.934 1.17629 1.39534 0
M  V30 2303 C 207.985 3.36428 -1.32282 0
M  V30 2304 O 207.706 3.43765 -2.71582 0
M  V30 2305 C 209.207 4.28783 -1.12518 0
M  V30 2306 H 206.427 0.592793 -0.314384 0
M  V30 2307 H 208.971 1.41649 -1.47499 0
M  V30 2308 H 207.126 3.79706 -0.768229 0
M  V30 2309 H 207.54 4.3652 -2.90776 0
M  V30 2310 H 209.014 5.31613 -1.48633 0
M  V30 2311 H 209.491 4.39153 -0.0642394 0
M  V30 2312 H 210.097 3.91291 -1.66648 0
M  V30 2313 N 208.412 0.89855 1.29475 0
M  V30 2314 C 209.342 0.39201 2.30186 0
M  V30 2315 C 210.323 -0.532359 1.61555 0
M  V30 2316 O 211.508 -0.443331 1.89072 0
M  V30 2317 C 208.638 -0.382353 3.45189 0
M  V30 2318 C 207.592 0.451483 4.25612 0
M  V30 2319 C 206.918 -0.450307 5.328 0
M  V30 2320 C 208.218 1.70079 4.93832 0
M  V30 2321 H 209.912 1.23362 2.72804 0
M  V30 2322 H 207.458 0.594638 1.31149 0
M  V30 2323 H 209.411 -0.747451 4.14718 0
M  V30 2324 H 208.135 -1.25774 3.01411 0
M  V30 2325 H 206.794 0.798897 3.57789 0
M  V30 2326 H 206.442 -1.32379 4.85268 0
M  V30 2327 H 206.142 0.103902 5.87508 0
M  V30 2328 H 207.666 -0.811623 6.05182 0
M  V30 2329 H 209.08 1.40549 5.55805 0
M  V30 2330 H 207.477 2.19623 5.58467 0
M  V30 2331 H 208.547 2.43744 4.19186 0
M  V30 2332 N 209.89 -1.43072 0.660911 0
M  V30 2333 C 211.167 -1.95307 0.107017 0
M  V30 2334 C 211.547 -1.60192 -1.37484 0
M  V30 2335 O 210.895 -0.890949 -2.10415 0
M  V30 2336 C 211.105 -3.47124 0.361402 0
M  V30 2337 C 212.453 -4.23738 0.270455 0
M  V30 2338 O 213.477 -3.54981 0.294382 0
M  V30 2339 O 212.336 -5.46131 0.200737 0
M  V30 2340 H 209.43 -0.826984 -0.00517729 0
M  V30 2341 H 211.976 -1.52972 0.734681 0
M  V30 2342 H 210.748 -3.65837 1.38848 0
M  V30 2343 H 210.371 -3.96475 -0.298953 0
M  V30 2344 N 211.368 -0.403325 -1.52352 0
M  V30 2345 C 212.779 0.0675782 -1.86578 0
M  V30 2346 C 213.13 1.44941 -1.32236 0
M  V30 2347 O 212.255 2.06112 -0.659307 0
M  V30 2348 C 212.85 0.129404 -3.38553 0
M  V30 2349 C 211.409 0.544629 -3.72439 0
M  V30 2350 C 210.556 -0.284551 -2.75836 0
M  V30 2351 H 213.507 -0.620631 -1.46061 0
M  V30 2352 H 213.528 0.94581 -3.68558 0
M  V30 2353 H 213.04 -0.87645 -3.78074 0
M  V30 2354 H 211.141 1.55734 -3.38493 0
M  V30 2355 H 211.254 0.293046 -4.78203 0
M  V30 2356 H 209.618 0.252258 -2.53448 0
M  V30 2357 H 210.401 -1.28865 -3.18196 0
M  V30 2358 N 212.846 1.57033 -0.133567 0
M  V30 2359 C 213.756 2.19632 0.824564 0
M  V30 2360 C 214.772 1.17666 1.28182 0
M  V30 2361 O 215.948 1.50193 1.3418 0
M  V30 2362 C 213.013 2.79499 2.05137 0
M  V30 2363 C 212.074 3.96548 1.64464 0
M  V30 2364 C 211.307 4.5355 2.81297 0
M  V30 2365 O 211.53 4.09438 3.97136 0
M  V30 2366 O 210.464 5.44018 2.57542 0
M  V30 2367 H 214.29 3.01991 0.321766 0
M  V30 2368 H 211.875 1.49112 0.0927889 0
M  V30 2369 H 213.757 3.17602 2.7696 0
M  V30 2370 H 212.432 2.00162 2.54395 0
M  V30 2371 H 211.339 3.63186 0.897048 0
M  V30 2372 H 212.672 4.77364 1.19934 0
M  V30 2373 N 214.325 -0.140222 1.56975 0
M  V30 2374 C 215.235 -1.19223 2.02047 0
M  V30 2375 C 216.251 -1.46612 0.937062 0
M  V30 2376 O 217.427 -1.58148 1.24704 0
M  V30 2377 C 214.492 -2.50414 2.39778 0
M  V30 2378 C 213.553 -2.30612 3.621 0
M  V30 2379 C 212.786 -3.55547 3.98023 0
M  V30 2380 O 213.009 -4.62004 3.34528 0
M  V30 2381 O 211.943 -3.47808 4.91237 0
M  V30 2382 H 215.769 -0.839559 2.91865 0
M  V30 2383 H 213.354 -0.349453 1.45256 0
M  V30 2384 H 215.236 -3.27747 2.64877 0
M  V30 2385 H 213.911 -2.85198 1.53114 0
M  V30 2386 H 212.818 -1.51207 3.4218 0
M  V30 2387 H 214.151 -2.00741 4.49404 0
M  V30 2388 N 215.803 -1.52179 -0.40978 0
M  V30 2389 C 216.75 -1.75475 -1.49924 0
M  V30 2390 C 217.72 -0.597175 -1.54994 0
M  V30 2391 O 218.905 -0.834655 -1.71575 0
M  V30 2392 C 216.045 -1.9107 -2.87378 0
M  V30 2393 C 215.158 -3.18717 -2.91622 0
M  V30 2394 C 214.293 -3.24747 -4.20372 0
M  V30 2395 C 213.332 -4.46598 -4.18588 0
M  V30 2396 N 212.469 -4.50025 -5.38908 0
M  V30 2397 H 217.309 -2.68458 -1.29361 0
M  V30 2398 H 214.846 -1.33024 -0.627934 0
M  V30 2399 H 216.804 -1.98096 -3.6717 0
M  V30 2400 H 215.434 -1.01469 -3.06437 0
M  V30 2401 H 214.486 -3.20866 -2.04326 0
M  V30 2402 H 215.798 -4.08544 -2.86169 0
M  V30 2403 H 214.952 -3.30841 -5.08556 0
M  V30 2404 H 213.691 -2.32857 -4.28519 0
M  V30 2405 H 212.696 -4.40652 -3.28794 0
M  V30 2406 H 213.921 -5.39783 -4.12081 0
M  V30 2407 H 211.867 -3.61017 -5.47725 0
M  V30 2408 H 211.784 -5.33697 -5.35447 0
M  V30 2409 H 213.052 -4.60347 -6.29048 0
M  V30 2410 N 217.281 0.66697 -1.42791 0
M  V30 2411 C 218.521 1.43892 -1.4517 0
M  V30 2412 C 218.885 1.91877 -0.0687551 0
M  V30 2413 O 220.086 2.6878 0.0327455 0
M  V30 2414 C 218.357 2.59839 -2.45395 0
M  V30 2415 S 219.916 3.48572 -2.66539 0
M  V30 2416 H 216.734 0.491356 -0.513897 0
M  V30 2417 H 219.336 0.775656 -1.79454 0
M  V30 2418 H 218.04 2.22838 -3.44632 0
M  V30 2419 H 217.571 3.3103 -2.12562 0
M  V30 2420 H 219.586 4.56094 -1.95429 0
M  V30 2421 N 218.759 1.29093 0.90403 0
M  V30 2422 C 219.691 1.09658 2.01266 0
M  V30 2423 C 220.704 0.0453729 1.62737 0
M  V30 2424 O 221.893 0.289446 1.76138 0
M  V30 2425 C 218.993 0.646278 3.32681 0
M  V30 2426 C 218.166 1.77505 3.99763 0
M  V30 2427 C 217.225 1.31649 5.09465 0
M  V30 2428 O 216.251 2.02045 5.32134 0
M  V30 2429 N 217.453 0.184997 5.80205 0
M  V30 2430 H 220.218 2.05135 2.18494 0
M  V30 2431 H 217.779 1.20975 1.07594 0
M  V30 2432 H 219.771 0.322906 4.0341 0
M  V30 2433 H 218.341 -0.215916 3.11853 0
M  V30 2434 H 217.561 2.26752 3.22455 0
M  V30 2435 H 218.849 2.53198 4.41325 0
M  V30 2436 H 218.247 -0.402021 5.6427 0
M  V30 2437 H 216.804 -0.0790358 6.51752 0
M  V30 2438 N 220.237 -1.11381 1.11499 0
M  V30 2439 C 221.2 -2.15622 0.777153 0
M  V30 2440 C 222.2 -1.59504 -0.203779 0
M  V30 2441 O 223.39 -1.74188 0.020782 0
M  V30 2442 C 220.522 -3.40556 0.153116 0
M  V30 2443 H 221.715 -2.47021 1.70061 0
M  V30 2444 H 219.268 -1.26577 0.916952 0
M  V30 2445 H 220.003 -3.14767 -0.780536 0
M  V30 2446 H 219.788 -3.8257 0.859238 0
M  V30 2447 H 221.278 -4.17546 -0.0671044 0
M  V30 2448 N 221.715 -0.905404 -1.28997 0
M  V30 2449 C 222.945 -0.549049 -1.99171 0
M  V30 2450 C 223.353 0.87203 -1.67906 0
M  V30 2451 O 222.696 1.58796 -0.923561 0
M  V30 2452 C 222.758 -0.668306 -3.53234 0
M  V30 2453 C 222.422 -2.0574 -4.08069 0
M  V30 2454 C 223.419 -3.0292 -4.22534 0
M  V30 2455 C 221.104 -2.36833 -4.42962 0
M  V30 2456 C 223.098 -4.29314 -4.71135 0
M  V30 2457 C 220.785 -3.63467 -4.91258 0
M  V30 2458 C 221.783 -4.59522 -5.053 0
M  V30 2459 O 221.471 -5.83907 -5.52546 0
M  V30 2460 H 221.203 -0.208784 -0.64295 0
M  V30 2461 H 223.757 -1.21836 -1.65363 0
M  V30 2462 H 221.987 0.0580547 -3.86656 0
M  V30 2463 H 223.676 -0.320273 -4.04634 0
M  V30 2464 H 224.442 -2.80216 -3.95859 0
M  V30 2465 H 220.321 -1.62824 -4.31288 0
M  V30 2466 H 223.865 -5.04293 -4.8201 0
M  V30 2467 H 219.762 -3.86 -5.17372 0
M  V30 2468 H 220.53 -5.86578 -5.70849 0
M  V30 2469 N 223.193 1.4272 -0.668489 0
M  V30 2470 C 224.103 2.34596 0.0139753 0
M  V30 2471 C 225.119 1.5474 0.795703 0
M  V30 2472 O 226.295 1.87334 0.739466 0
M  V30 2473 C 223.36 3.33202 0.957982 0
M  V30 2474 C 222.421 4.28957 0.17149 0
M  V30 2475 C 221.654 5.22853 1.07053 0
M  V30 2476 O 221.877 5.21531 2.31001 0
M  V30 2477 O 220.811 5.9952 0.534727 0
M  V30 2478 H 224.637 2.9448 -0.742661 0
M  V30 2479 H 222.222 1.43117 -0.428705 0
M  V30 2480 H 224.104 3.93796 1.50008 0
M  V30 2481 H 222.779 2.758 1.69458 0
M  V30 2482 H 221.686 3.71796 -0.414558 0
M  V30 2483 H 223.019 4.89383 -0.52586 0
M  V30 2484 N 224.671 0.411399 1.52136 0
M  V30 2485 C 225.896 -0.165538 2.06738 0
M  V30 2486 C 226.321 -1.379 1.27926 0
M  V30 2487 O 225.679 -1.78628 0.310114 0
M  V30 2488 C 225.727 -0.492124 3.57226 0
M  V30 2489 O 224.831 -1.58276 3.80818 0
M  V30 2490 H 224.172 -0.0132132 0.663869 0
M  V30 2491 H 226.702 0.585253 1.96051 0
M  V30 2492 H 226.712 -0.750104 4.01045 0
M  V30 2493 H 225.387 0.394922 4.14021 0
M  V30 2494 H 223.964 -1.31677 3.48877 0
M  V30 2495 N 226.149 -1.5696 0.141893 0
M  V30 2496 C 227.097 -2.17784 -0.816874 0
M  V30 2497 C 228.091 -1.1334 -1.25899 0
M  V30 2498 O 229.297 -1.316 -1.22806 0
M  V30 2499 H 225.672 -0.697278 -0.281615 0
M  V30 2500 H 227.643 -2.97087 -0.279621 0
M  V30 2501 C 226.392 -2.80983 -2.04802 0
M  V30 2502 H 225.715 -3.61062 -1.7168 0
M  V30 2503 H 227.155 -3.2705 -2.69841 0
M  V30 2504 C 225.614 -1.79228 -2.8527 0
M  V30 2505 O 226.144 -1.25962 -3.8144 0
M  V30 2506 N 224.35 -1.48647 -2.49704 0
M  V30 2507 H 223.897 -1.92155 -1.71564 0
M  V30 2508 H 223.855 -0.808115 -3.03837 0
M  V30 2509 N 227.627 0.131896 -1.57047 0
M  V30 2510 C 229.043 0.485031 -1.52051 0
M  V30 2511 C 229.243 1.82563 -0.85281 0
M  V30 2512 O 228.299 2.48817 -0.429694 0
M  V30 2513 C 229.612 0.481409 -2.96821 0
M  V30 2514 C 231.16 0.565868 -3.07842 0
M  V30 2515 C 231.635 0.592762 -4.54148 0
M  V30 2516 N 233.126 0.654564 -4.58552 0
M  V30 2517 C 233.861 0.696608 -5.69153 0
M  V30 2518 N 233.357 0.697078 -6.89284 0
M  V30 2519 N 235.15 0.738639 -5.57226 0
M  V30 2520 H 227.301 -0.746664 -1.98843 0
M  V30 2521 H 229.564 -0.273999 -0.90754 0
M  V30 2522 H 229.27 -0.435731 -3.4899 0
M  V30 2523 H 229.144 1.3139 -3.53577 0
M  V30 2524 H 231.531 1.47343 -2.55684 0
M  V30 2525 H 231.612 -0.29406 -2.54104 0
M  V30 2526 H 231.256 -0.310701 -5.06949 0
M  V30 2527 H 231.186 1.46939 -5.05684 0
M  V30 2528 H 233.677 0.660887 -3.72076 0
M  V30 2529 H 233.99 0.731426 -7.69331 0
M  V30 2530 H 232.335 0.66471 -6.91814 0
M  V30 2531 H 235.526 0.735545 -4.62285 0
M  V30 2532 H 235.699 0.767938 -6.43434 0
M  V30 2533 N 229.106 1.52395 0.401703 0
M  V30 2534 C 230.016 1.7917 1.51444 0
M  V30 2535 C 231.032 0.677691 1.6026 0
M  V30 2536 O 232.208 0.963909 1.76835 0
M  V30 2537 C 229.273 1.94347 2.87107 0
M  V30 2538 C 228.334 3.18257 2.88116 0
M  V30 2539 C 227.567 3.32701 4.17308 0
M  V30 2540 O 227.79 2.52238 5.11598 0
M  V30 2541 O 226.724 4.25891 4.25324 0
M  V30 2542 H 230.55 2.73633 1.31752 0
M  V30 2543 H 228.135 1.3733 0.588296 0
M  V30 2544 H 230.017 2.06109 3.67555 0
M  V30 2545 H 228.692 1.03073 3.06851 0
M  V30 2546 H 227.599 3.11947 2.06494 0
M  V30 2547 H 228.932 4.09336 2.73322 0
M  V30 2548 N 230.584 -0.659388 1.43143 0
M  V30 2549 C 231.809 -1.45221 1.48073 0
M  V30 2550 C 232.234 -1.87845 0.097995 0
M  V30 2551 O 231.592 -1.56985 -0.90694 0
M  V30 2552 C 231.64 -2.66748 2.42647 0
M  V30 2553 O 230.744 -3.65583 1.90848 0
M  V30 2554 H 230.085 -0.435669 0.501088 0
M  V30 2555 H 232.615 -0.807432 1.87994 0
M  V30 2556 H 232.625 -3.14637 2.59745 0
M  V30 2557 H 231.3 -2.35067 3.43098 0
M  V30 2558 H 229.877 -3.24693 1.83381 0
M  V30 2559 N 232.062 -1.29571 -0.897171 0
M  V30 2560 C 232.992 -1.17473 -2.01798 0
M  V30 2561 C 233.973 -0.068323 -1.69963 0
M  V30 2562 O 235.158 -0.248239 -1.92607 0
M  V30 2563 C 232.288 -0.853099 -3.36659 0
M  V30 2564 C 231.242 -1.9161 -3.82713 0
M  V30 2565 C 230.568 -1.44773 -5.14728 0
M  V30 2566 C 231.868 -3.32535 -4.02763 0
M  V30 2567 H 233.562 -2.11237 -2.12177 0
M  V30 2568 H 231.108 -1.01699 -1.01948 0
M  V30 2569 H 233.061 -0.755165 -4.14578 0
M  V30 2570 H 231.785 0.120236 -3.26379 0
M  V30 2571 H 230.444 -2.00346 -3.07013 0
M  V30 2572 H 230.092 -0.462995 -5.00865 0
M  V30 2573 H 229.792 -2.15865 -5.46513 0
M  V30 2574 H 231.316 -1.36334 -5.95185 0
M  V30 2575 H 232.73 -3.26626 -4.71156 0
M  V30 2576 H 231.127 -4.01607 -4.45905 0
M  V30 2577 H 232.197 -3.75326 -3.07016 0
M  V30 2578 N 233.54 1.10788 -1.12088 0
M  V30 2579 C 234.47 2.19083 -0.807755 0
M  V30 2580 C 235.451 1.6858 0.226859 0
M  V30 2581 O 236.636 1.93997 0.0888475 0
M  V30 2582 C 233.766 3.46344 -0.257576 0
M  V30 2583 C 232.72 4.101 -1.22483 0
M  V30 2584 C 232.046 5.32016 -0.535052 0
M  V30 2585 C 233.346 4.54236 -2.57811 0
M  V30 2586 H 235.04 2.45534 -1.71328 0
M  V30 2587 H 232.586 1.1801 -0.825205 0
M  V30 2588 H 234.539 4.21392 -0.0262679 0
M  V30 2589 H 233.263 3.19373 0.683278 0
M  V30 2590 H 231.922 3.37054 -1.44189 0
M  V30 2591 H 231.57 5.01319 0.410827 0
M  V30 2592 H 231.27 5.75625 -1.18024 0
M  V30 2593 H 232.794 6.09799 -0.312695 0
M  V30 2594 H 234.208 5.20575 -2.40155 0
M  V30 2595 H 232.605 5.08682 -3.18375 0
M  V30 2596 H 233.675 3.6734 -3.16528 0
M  V30 2597 N 235.018 0.912232 1.28515 0
M  V30 2598 C 235.966 0.389597 2.29314 0
M  V30 2599 C 236.96 -0.517915 1.61289 0
M  V30 2600 O 238.166 -0.399328 1.75515 0
M  V30 2601 H 234.541 0.107386 0.744293 0
M  V30 2602 H 236.512 1.25286 2.70825 0
M  V30 2603 C 235.261 -0.356496 3.45868 0
M  V30 2604 H 234.584 0.332608 3.98414 0
M  V30 2605 H 236.024 -0.686851 4.184 0
M  V30 2606 C 234.483 -1.56383 2.98406 0
M  V30 2607 O 235.013 -2.66294 3.00749 0
M  V30 2608 N 233.219 -1.41029 2.54085 0
M  V30 2609 H 232.766 -0.516089 2.52377 0
M  V30 2610 H 232.724 -2.21939 2.22689 0
M  V30 2611 N 236.496 -1.42363 0.676048 0
M  V30 2612 C 237.446 -2.27987 -0.0242903 0
M  V30 2613 C 238.43 -1.41153 -0.772319 0
M  V30 2614 O 239.622 -1.64592 -0.651025 0
M  V30 2615 C 236.751 -3.29195 -0.973953 0
M  V30 2616 C 235.837 -4.23512 -0.223202 0
M  V30 2617 N 236.228 -4.99865 0.772589 0
M  V30 2618 C 234.526 -4.43606 -0.461469 0
M  V30 2619 C 235.227 -5.68757 1.22027 0
M  V30 2620 N 234.203 -5.40811 0.549975 0
M  V30 2621 H 238.005 -2.84445 0.73949 0
M  V30 2622 H 235.519 -1.54341 0.50522 0
M  V30 2623 H 237.516 -3.89339 -1.49067 0
M  V30 2624 H 236.176 -2.74298 -1.73755 0
M  V30 2625 H 237.187 -5.04921 1.15217 0
M  V30 2626 H 233.864 -3.99749 -1.20446 0
M  V30 2627 H 235.254 -6.40007 2.0455 0
M  V30 2628 N 237.974 -0.419461 -1.51915 0
M  V30 2629 C 239.221 0.152939 -2.01922 0
M  V30 2630 C 239.549 1.4426 -1.30458 0
M  V30 2631 O 238.804 1.91514 -0.402593 0
M  V30 2632 C 239.103 0.437067 -3.54717 0
M  V30 2633 C 238.769 -0.764632 -4.44369 0
M  V30 2634 C 237.431 -1.09423 -4.68594 0
M  V30 2635 C 239.783 -1.56713 -4.97082 0
M  V30 2636 C 237.111 -2.22732 -5.42777 0
M  V30 2637 C 239.463 -2.69107 -5.72507 0
M  V30 2638 C 238.127 -3.02541 -5.95 0
M  V30 2639 H 237.397 0.0559644 -0.738884 0
M  V30 2640 H 240.044 -0.562998 -1.83037 0
M  V30 2641 H 238.349 1.23469 -3.71837 0
M  V30 2642 H 240.046 0.893083 -3.90928 0
M  V30 2643 H 236.636 -0.497775 -4.257 0
M  V30 2644 H 240.82 -1.32571 -4.78266 0
M  V30 2645 H 236.076 -2.48971 -5.58411 0
M  V30 2646 H 240.25 -3.31671 -6.12346 0
M  V30 2647 H 237.877 -3.90457 -6.52264 0
M  V30 2648 N 239.452 1.56882 -0.150215 0
M  V30 2649 C 240.382 2.19935 0.784284 0
M  V30 2650 C 241.363 1.14854 1.25469 0
M  V30 2651 O 242.548 1.43209 1.31168 0
M  V30 2652 C 239.678 2.82349 2.02229 0
M  V30 2653 C 238.632 3.93285 1.68853 0
M  V30 2654 C 237.958 4.42649 2.99944 0
M  V30 2655 C 239.258 5.13904 0.932714 0
M  V30 2656 H 240.952 2.9828 0.258781 0
M  V30 2657 H 238.498 1.43473 0.123029 0
M  V30 2658 H 240.451 3.25126 2.68088 0
M  V30 2659 H 239.175 2.0134 2.57157 0
M  V30 2660 H 237.834 3.5113 1.05371 0
M  V30 2661 H 237.482 3.58458 3.52869 0
M  V30 2662 H 237.182 5.17476 2.78374 0
M  V30 2663 H 238.706 4.88099 3.66868 0
M  V30 2664 H 240.12 5.53506 1.49345 0
M  V30 2665 H 238.517 5.94515 0.81684 0
M  V30 2666 H 239.587 4.84842 -0.0749568 0
M  V30 2667 N 240.93 -0.123565 1.57115 0
M  V30 2668 C 242.16 -0.845233 1.88519 0
M  V30 2669 C 242.568 -1.74168 0.739064 0
M  V30 2670 O 241.911 -1.81244 -0.299355 0
M  V30 2671 C 241.973 -1.73452 3.14888 0
M  V30 2672 C 241.637 -1.01285 4.45635 0
M  V30 2673 C 242.634 -0.355774 5.18681 0
M  V30 2674 C 240.319 -0.99538 4.92339 0
M  V30 2675 C 242.313 0.309114 6.3665 0
M  V30 2676 C 240 -0.32669 6.10226 0
M  V30 2677 C 240.998 0.324406 6.82229 0
M  V30 2678 O 240.686 0.982437 7.97874 0
M  V30 2679 H 240.418 -0.248534 0.628655 0
M  V30 2680 H 242.972 -0.113907 2.05084 0
M  V30 2681 H 241.202 -2.50737 2.94394 0
M  V30 2682 H 242.891 -2.33021 3.32349 0
M  V30 2683 H 243.657 -0.360918 4.83655 0
M  V30 2684 H 239.536 -1.49159 4.36202 0
M  V30 2685 H 243.08 0.8179 6.92789 0
M  V30 2686 H 238.977 -0.319294 6.4471 0
M  V30 2687 H 239.745 0.886454 8.13686 0
M  V30 2688 N 242.408 -1.52605 -0.393616 0
M  V30 2689 C 243.318 -1.79971 -1.50492 0
M  V30 2690 C 244.334 -0.686181 -1.59899 0
M  V30 2691 O 245.51 -0.973274 -1.76322 0
M  V30 2692 C 242.575 -1.95867 -2.86072 0
M  V30 2693 C 241.636 -3.19781 -2.86424 0
M  V30 2694 C 240.869 -3.34909 -4.15538 0
M  V30 2695 O 241.092 -2.54948 -5.10253 0
M  V30 2696 O 240.026 -4.28141 -4.23059 0
M  V30 2697 H 243.852 -2.74328 -1.30299 0
M  V30 2698 H 241.437 -1.3764 -0.581005 0
M  V30 2699 H 243.319 -2.08056 -3.66457 0
M  V30 2700 H 241.994 -1.04699 -3.063 0
M  V30 2701 H 240.901 -3.13038 -2.04837 0
M  V30 2702 H 242.234 -4.1078 -2.71147 0
M  V30 2703 N 243.887 0.651787 -1.4349 0
M  V30 2704 C 245.133 1.41376 -1.45398 0
M  V30 2705 C 245.466 1.94041 -0.0784823 0
M  V30 2706 O 244.741 1.72379 0.900878 0
M  V30 2707 C 245.024 2.59414 -2.49752 0
M  V30 2708 C 244.877 2.12232 -3.96582 0
M  V30 2709 C 246.196 3.61626 -2.50827 0
M  V30 2710 H 243.315 0.512719 -0.529422 0
M  V30 2711 H 245.957 0.738796 -1.75048 0
M  V30 2712 H 244.107 3.16997 -2.246 0
M  V30 2713 H 245.779 1.59639 -4.32797 0
M  V30 2714 H 244.022 1.43592 -4.09346 0
M  V30 2715 H 244.693 2.9712 -4.65214 0
M  V30 2716 H 247.169 3.13805 -2.7325 0
M  V30 2717 H 246.045 4.41766 -3.25783 0
M  V30 2718 H 246.306 4.14314 -1.5426 0
M  V30 2719 N 245.365 1.30045 0.890287 0
M  V30 2720 C 246.328 1.15963 1.977 0
M  V30 2721 C 247.328 0.0923777 1.60534 0
M  V30 2722 O 248.518 0.340071 1.70848 0
M  V30 2723 C 245.65 0.775451 3.31963 0
M  V30 2724 H 246.843 2.12502 2.11619 0
M  V30 2725 H 244.396 1.13366 1.07601 0
M  V30 2726 H 245.131 -0.189671 3.23745 0
M  V30 2727 H 244.916 1.54668 3.60306 0
M  V30 2728 H 246.406 0.700251 4.11687 0
M  V30 2729 N 246.843 -1.10192 1.12674 0
M  V30 2730 C 248.259 -1.34235 0.863317 0
M  V30 2731 C 248.459 -1.95062 -0.505277 0
M  V30 2732 O 247.515 -2.19192 -1.25345 0
M  V30 2733 C 248.828 -2.2616 1.98172 0
M  V30 2734 C 250.376 -2.3969 2.0129 0
M  V30 2735 C 250.851 -3.34946 3.1237 0
M  V30 2736 N 252.342 -3.42515 3.11829 0
M  V30 2737 C 253.077 -4.16199 3.94419 0
M  V30 2738 N 252.573 -4.92747 4.87004 0
M  V30 2739 N 254.366 -4.11843 3.82547 0
M  V30 2740 H 246.517 -0.690798 2.00853 0
M  V30 2741 H 248.78 -0.366774 0.874174 0
M  V30 2742 H 248.486 -1.8868 2.96804 0
M  V30 2743 H 248.36 -3.26488 1.88906 0
M  V30 2744 H 250.747 -2.76438 1.03276 0
M  V30 2745 H 250.828 -1.39169 2.14629 0
M  V30 2746 H 250.472 -2.98923 4.10619 0
M  V30 2747 H 250.402 -4.35353 2.96269 0
M  V30 2748 H 252.893 -2.87926 2.44759 0
M  V30 2749 H 253.206 -5.46376 5.46528 0
M  V30 2750 H 251.551 -4.91862 4.91016 0
M  V30 2751 H 254.742 -3.51136 3.0955 0
M  V30 2752 H 254.915 -4.69007 4.47142 0
M  V30 2753 N 248.321 -0.919034 -1.28029 0
M  V30 2754 C 249.737 -0.617972 -1.4715 0
M  V30 2755 C 249.937 0.835242 -1.83374 0
M  V30 2756 O 248.993 1.61388 -1.94191 0
M  V30 2757 C 250.306 -1.56041 -2.57044 0
M  V30 2758 C 251.854 -1.56769 -2.7091 0
M  V30 2759 C 252.329 -2.49688 -3.83953 0
M  V30 2760 N 253.82 -2.47845 -3.91314 0
M  V30 2761 C 254.555 -3.16437 -4.78179 0
M  V30 2762 N 254.051 -3.94376 -5.69596 0
M  V30 2763 N 255.844 -3.05498 -4.71834 0
M  V30 2764 H 247.995 -1.85866 -1.02798 0
M  V30 2765 H 250.258 -0.797506 -0.512531 0
M  V30 2766 H 249.964 -2.59671 -2.372 0
M  V30 2767 H 249.838 -1.29551 -3.54255 0
M  V30 2768 H 252.225 -0.538745 -2.90141 0
M  V30 2769 H 252.306 -1.87305 -1.74214 0
M  V30 2770 H 251.95 -3.52688 -3.65477 0
M  V30 2771 H 251.88 -2.16453 -4.80058 0
M  V30 2772 H 254.371 -1.91234 -3.25941 0
M  V30 2773 H 254.684 -4.43721 -6.32718 0
M  V30 2774 H 253.029 -3.98481 -5.69419 0
M  V30 2775 H 256.22 -2.44108 -3.99411 0
M  V30 2776 H 256.393 -3.59225 -5.39316 0
M  V30 2777 N 249.799 1.42003 -0.683588 0
M  V30 2778 C 250.747 2.326 0.000815408 0
M  V30 2779 C 251.741 1.50308 0.781278 0
M  V30 2780 O 252.947 1.66322 0.688251 0
M  V30 2781 H 249.322 0.751758 0.0190616 0
M  V30 2782 H 251.293 2.88011 -0.780528 0
M  V30 2783 C 250.042 3.34978 0.93195 0
M  V30 2784 H 249.365 3.98345 0.340817 0
M  V30 2785 H 250.805 4.00936 1.37936 0
M  V30 2786 C 249.264 2.67925 2.04249 0
M  V30 2787 O 249.794 2.51788 3.12995 0
M  V30 2788 N 248 2.2681 1.81675 0
M  V30 2789 H 247.547 2.40135 0.932363 0
M  V30 2790 H 247.505 1.8228 2.56167 0
M  V30 2791 N 251.277 0.427512 1.51691 0
M  V30 2792 C 252.688 -0.0378867 1.86662 0
M  V30 2793 C 253.039 -1.42819 1.34525 0
M  V30 2794 O 252.164 -2.05037 0.692014 0
M  V30 2795 C 252.759 -0.0755266 3.38716 0
M  V30 2796 C 251.318 -0.485309 3.73258 0
M  V30 2797 C 250.465 0.328399 2.75349 0
M  V30 2798 H 253.416 0.64379 1.45055 0
M  V30 2799 H 253.437 -0.887056 3.70016 0
M  V30 2800 H 252.949 0.936487 3.76632 0
M  V30 2801 H 251.05 -1.50329 3.40928 0
M  V30 2802 H 251.163 -0.21693 4.78609 0
M  V30 2803 H 249.527 -0.211905 2.53817 0
M  V30 2804 H 250.31 1.3391 3.16106 0
M  V30 2805 N 252.755 -1.56801 0.158532 0
M  V30 2806 C 254.002 -1.9649 -0.489679 0
M  V30 2807 C 254.33 -1.04394 -1.6411 0
M  V30 2808 O 253.585 -0.0754401 -1.95555 0
M  V30 2809 C 253.884 -3.4235 -1.02623 0
M  V30 2810 C 253.55 -4.50899 0.00794526 0
M  V30 2811 C 252.212 -4.80312 0.292207 0
M  V30 2812 C 254.564 -5.16333 0.710584 0
M  V30 2813 C 251.892 -5.72461 1.28472 0
M  V30 2814 C 254.244 -6.09553 1.69199 0
M  V30 2815 C 252.908 -6.37339 1.98383 0
M  V30 2816 H 252.178 -0.719009 -0.179186 0
M  V30 2817 H 254.825 -1.8989 0.247798 0
M  V30 2818 H 253.13 -3.45838 -1.84128 0
M  V30 2819 H 254.827 -3.70393 -1.53656 0
M  V30 2820 H 251.417 -4.28015 -0.22379 0
M  V30 2821 H 255.601 -4.93732 0.504174 0
M  V30 2822 H 250.857 -5.92278 1.51714 0
M  V30 2823 H 255.031 -6.59327 2.24189 0
M  V30 2824 H 252.658 -7.08546 2.7544 0
M  V30 2825 N 254.233 0.115231 -1.57178 0
M  V30 2826 C 255.479 0.82357 -1.85325 0
M  V30 2827 C 255.812 1.79349 -0.744814 0
M  V30 2828 O 255.087 1.92899 0.249024 0
M  V30 2829 C 255.37 1.57014 -3.24066 0
M  V30 2830 C 255.223 0.619565 -4.45513 0
M  V30 2831 C 256.542 2.52545 -3.60429 0
M  V30 2832 H 253.661 0.297948 -0.674089 0
M  V30 2833 H 256.303 0.0877138 -1.89797 0
M  V30 2834 H 254.453 2.19742 -3.20383 0
M  V30 2835 H 256.125 0.000837639 -4.613 0
M  V30 2836 H 254.368 -0.0686174 -4.33746 0
M  V30 2837 H 255.039 1.17866 -5.3927 0
M  V30 2838 H 257.515 1.9992 -3.64926 0
M  V30 2839 H 256.391 3.01811 -4.58477 0
M  V30 2840 H 256.652 3.35383 -2.88047 0
M  V30 2841 N 255.711 1.52812 0.385517 0
M  V30 2842 C 256.958 1.68026 1.1302 0
M  V30 2843 C 257.286 0.421934 1.89868 0
M  V30 2844 O 256.541 -0.595749 1.86412 0
M  V30 2845 C 256.84 2.86856 2.13187 0
M  V30 2846 C 256.506 4.24159 1.5297 0
M  V30 2847 C 255.168 4.61501 1.36274 0
M  V30 2848 C 257.52 5.09627 1.09223 0
M  V30 2849 C 254.848 5.81966 0.743837 0
M  V30 2850 C 257.2 6.30719 0.487411 0
M  V30 2851 C 255.864 6.6679 0.307777 0
M  V30 2852 H 255.134 0.614849 0.413571 0
M  V30 2853 H 257.781 1.86962 0.414405 0
M  V30 2854 H 256.086 2.6235 2.90998 0
M  V30 2855 H 257.783 2.95821 2.70722 0
M  V30 2856 H 254.373 3.94746 1.66954 0
M  V30 2857 H 258.557 4.81343 1.20922 0
M  V30 2858 H 253.813 6.08519 0.592891 0
M  V30 2859 H 257.987 6.96259 0.140143 0
M  V30 2860 H 255.614 7.60001 -0.173879 0
M  V30 2861 N 257.189 -0.644168 1.43834 0
M  V30 2862 C 258.152 -1.73857 1.49353 0
M  V30 2863 C 259.152 -1.56315 0.377112 0
M  V30 2864 O 260.342 -1.62048 0.639226 0
M  V30 2865 C 257.474 -3.12819 1.35488 0
M  V30 2866 H 258.667 -1.70342 2.46827 0
M  V30 2867 H 256.22 -0.856652 1.30733 0
M  V30 2868 H 256.955 -3.2194 0.390569 0
M  V30 2869 H 256.74 -3.26958 2.16428 0
M  V30 2870 H 258.23 -3.92606 1.42302 0
M  V30 2871 N 258.668 -1.30515 -0.883378 0
M  V30 2872 C 260.079 -1.17509 -1.45081 0
M  V30 2873 C 260.43 0.223605 -1.94922 0
M  V30 2874 O 259.555 1.12041 -1.85137 0
M  V30 2875 C 260.15 -2.12715 -2.63701 0
M  V30 2876 C 258.709 -2.03682 -3.16529 0
M  V30 2877 C 257.856 -2.02706 -1.89224 0
M  V30 2878 H 260.807 -1.42762 -0.693165 0
M  V30 2879 H 260.828 -1.70891 -3.39965 0
M  V30 2880 H 260.34 -3.14505 -2.27395 0
M  V30 2881 H 258.441 -1.05039 -3.57488 0
M  V30 2882 H 258.554 -2.92146 -3.7972 0
M  V30 2883 H 256.918 -1.4753 -2.07622 0
M  V30 2884 H 257.701 -3.06229 -1.55174 0
M  V30 2885 N 260.146 1.09593 -1.13257 0
M  V30 2886 C 261.374 1.855 -0.916378 0
M  V30 2887 C 261.789 1.81069 0.534738 0
M  V30 2888 O 261.146 1.20562 1.37007 0
M  V30 2889 C 261.197 3.33546 -1.39388 0
M  V30 2890 O 260.918 3.37927 -2.78813 0
M  V30 2891 C 262.419 4.26299 -1.21588 0
M  V30 2892 H 259.639 0.585991 -0.326887 0
M  V30 2893 H 262.183 1.38488 -1.5047 0
M  V30 2894 H 260.338 3.77992 -0.848597 0
M  V30 2895 H 260.752 4.30254 -2.9997 0
M  V30 2896 H 262.226 5.28341 -1.59876 0
M  V30 2897 H 262.703 4.38918 -0.157376 0
M  V30 2898 H 263.309 3.87668 -1.7491 0
M  V30 2899 N 261.624 0.925811 1.2754 0
M  V30 2900 C 262.554 0.440748 2.29303 0
M  V30 2901 C 263.535 -0.497971 1.62648 0
M  V30 2902 O 264.72 -0.403126 1.8997 0
M  V30 2903 C 261.85 -0.309048 3.45922 0
M  V30 2904 C 260.804 0.54166 4.24559 0
M  V30 2905 C 260.13 -0.337191 5.33636 0
M  V30 2906 C 261.43 1.80516 4.90114 0
M  V30 2907 H 263.124 1.29121 2.70126 0
M  V30 2908 H 260.67 0.622323 1.29858 0
M  V30 2909 H 262.623 -0.659315 4.1621 0
M  V30 2910 H 261.347 -1.19352 3.04011 0
M  V30 2911 H 260.006 0.874609 3.56014 0
M  V30 2912 H 259.654 -1.22056 4.87966 0
M  V30 2913 H 259.354 0.228497 5.87156 0
M  V30 2914 H 260.878 -0.683072 6.06767 0
M  V30 2915 H 262.292 1.52307 5.52698 0
M  V30 2916 H 260.689 2.3142 5.53683 0
M  V30 2917 H 261.759 2.52581 4.13921 0
M  V30 2918 N 263.102 -1.41638 0.69111 0
M  V30 2919 C 264.032 -2.3347 0.037248 0
M  V30 2920 C 265.013 -1.51575 -0.771947 0
M  V30 2921 O 266.198 -1.80126 -0.72582 0
M  V30 2922 C 263.328 -3.35354 -0.903064 0
M  V30 2923 C 262.282 -4.27526 -0.201288 0
M  V30 2924 C 261.608 -5.19747 -1.25565 0
M  V30 2925 C 262.908 -5.13959 0.929689 0
M  V30 2926 H 264.602 -2.88397 0.804227 0
M  V30 2927 H 262.148 -1.38669 0.388189 0
M  V30 2928 H 264.101 -3.98519 -1.36969 0
M  V30 2929 H 262.825 -2.78767 -1.70166 0
M  V30 2930 H 261.484 -3.65779 0.245265 0
M  V30 2931 H 261.132 -4.59479 -2.04666 0
M  V30 2932 H 260.832 -5.8225 -0.791128 0
M  V30 2933 H 262.356 -5.85789 -1.72288 0
M  V30 2934 H 263.77 -5.70718 0.543546 0
M  V30 2935 H 262.167 -5.85379 1.32103 0
M  V30 2936 H 263.237 -4.51389 1.77133 0
M  V30 2937 N 264.58 -0.43555 -1.51462 0
M  V30 2938 C 265.808 0.130242 -2.0649 0
M  V30 2939 C 266.223 1.36614 -1.30315 0
M  V30 2940 O 265.58 1.78869 -0.362223 0
M  V30 2941 C 265.631 0.454253 -3.58635 0
M  V30 2942 O 265.352 -0.73259 -4.31931 0
M  V30 2943 C 266.853 1.07091 -4.3017 0
M  V30 2944 H 264.073 0.00871669 -0.670943 0
M  V30 2945 H 266.617 -0.614117 -1.95061 0
M  V30 2946 H 264.772 1.14851 -3.69984 0
M  V30 2947 H 265.186 -0.455787 -5.22516 0
M  V30 2948 H 266.66 1.24764 -5.37716 0
M  V30 2949 H 267.137 2.05144 -3.88346 0
M  V30 2950 H 267.743 0.416089 -4.2326 0
M  V30 2951 N 266.058 1.56714 -0.166846 0
M  V30 2952 C 267.304 1.97039 0.479962 0
M  V30 2953 C 267.637 1.05264 1.63197 0
M  V30 2954 O 266.912 0.0988833 1.94248 0
M  V30 2955 C 267.195 3.46867 0.967212 0
M  V30 2956 C 267.048 4.49421 -0.18466 0
M  V30 2957 C 268.367 3.9968 1.84238 0
M  V30 2958 H 265.486 0.71641 0.172992 0
M  V30 2959 H 268.128 1.8832 -0.252079 0
M  V30 2960 H 266.278 3.54428 1.59101 0
M  V30 2961 H 267.95 4.53924 -0.821621 0
M  V30 2962 H 266.193 4.25573 -0.840837 0
M  V30 2963 H 266.864 5.51644 0.198317 0
M  V30 2964 H 269.34 3.94723 1.31655 0
M  V30 2965 H 268.216 5.04941 2.15234 0
M  V30 2966 H 268.477 3.43226 2.78654 0
M  V30 2967 N 267.536 -0.106894 1.57237 0
M  V30 2968 C 268.499 -1.11466 2.0027 0
M  V30 2969 C 269.499 -1.33623 0.894519 0
M  V30 2970 O 270.689 -1.29935 1.16028 0
M  V30 2971 C 267.821 -2.46646 2.35327 0
M  V30 2972 H 269.014 -0.744516 2.90512 0
M  V30 2973 H 266.567 -0.351576 1.52295 0
M  V30 2974 H 267.302 -2.88558 1.48003 0
M  V30 2975 H 267.087 -2.31915 3.16161 0
M  V30 2976 H 268.577 -3.19151 2.69318 0
M  V30 2977 N 269.014 -1.53014 -0.377408 0
M  V30 2978 C 270.26 -1.68872 -1.12294 0
M  V30 2979 C 270.593 -0.433224 -1.89306 0
M  V30 2980 O 269.868 0.569258 -1.85983 0
M  V30 2981 C 270.151 -2.93115 -2.09179 0
M  V30 2982 C 270.004 -4.28794 -1.35853 0
M  V30 2983 C 271.323 -3.12928 -3.09458 0
M  V30 2984 H 268.442 -0.614518 -0.406862 0
M  V30 2985 H 271.084 -1.85633 -0.40503 0
M  V30 2986 H 269.234 -2.78956 -2.70399 0
M  V30 2987 H 270.906 -4.54742 -0.775082 0
M  V30 2988 H 269.149 -4.28744 -0.660364 0
M  V30 2989 H 269.82 -5.11837 -2.06706 0
M  V30 2990 H 272.296 -3.26194 -2.58334 0
M  V30 2991 H 271.172 -4.01316 -3.74482 0
M  V30 2992 H 271.433 -2.27669 -3.78971 0
M  V30 2993 N 270.492 0.636531 -1.44174 0
M  V30 2994 C 271.442 1.74233 -1.47061 0
M  V30 2995 C 272.426 1.57331 -0.337034 0
M  V30 2996 O 273.618 1.67159 -0.581973 0
M  V30 2997 C 270.747 3.12897 -1.41246 0
M  V30 2998 C 269.833 3.35288 -2.59698 0
M  V30 2999 N 270.224 3.2807 -3.84972 0
M  V30 3000 C 268.522 3.66065 -2.54778 0
M  V30 3001 C 269.223 3.51001 -4.63867 0
M  V30 3002 N 268.199 3.73616 -3.94857 0
M  V30 3003 H 272.001 1.67103 -2.41773 0
M  V30 3004 H 269.515 0.838806 -1.3906 0
M  V30 3005 H 271.512 3.92189 -1.41398 0
M  V30 3006 H 270.172 3.21197 -0.47569 0
M  V30 3007 H 271.183 3.07109 -4.17019 0
M  V30 3008 H 267.86 3.81379 -1.6987 0
M  V30 3009 H 269.25 3.51059 -5.72894 0
M  V30 3010 N 271.97 1.30982 0.876444 0
M  V30 3011 C 273.217 1.20296 1.62896 0
M  V30 3012 C 273.545 -0.240395 1.93009 0
M  V30 3013 O 272.8 -1.18733 1.55567 0
M  V30 3014 C 273.099 1.98572 2.9716 0
M  V30 3015 C 272.765 3.48125 2.86566 0
M  V30 3016 C 271.427 3.88905 2.83383 0
M  V30 3017 C 273.779 4.43322 2.74071 0
M  V30 3018 C 271.107 5.2316 2.65556 0
M  V30 3019 C 273.459 5.77695 2.57781 0
M  V30 3020 C 272.123 6.17704 2.52979 0
M  V30 3021 H 271.393 0.440193 0.59608 0
M  V30 3022 H 274.04 1.62177 1.01837 0
M  V30 3023 H 272.345 1.49352 3.62217 0
M  V30 3024 H 274.042 1.8769 3.54364 0
M  V30 3025 H 270.632 3.15723 2.89856 0
M  V30 3026 H 274.816 4.12752 2.75589 0
M  V30 3027 H 270.072 5.53241 2.60259 0
M  V30 3028 H 274.246 6.51091 2.47089 0
M  V30 3029 H 271.873 7.21678 2.38924 0
M  V30 3030 N 273.449 -1.08991 1.13837 0
M  V30 3031 C 274.359 -2.19301 0.833333 0
M  V30 3032 C 275.375 -1.73026 -0.183847 0
M  V30 3033 O 276.551 -2.01395 -0.0138092 0
M  V30 3034 C 273.616 -3.45323 0.308651 0
M  V30 3035 C 272.677 -4.06255 1.38764 0
M  V30 3036 C 271.91 -5.26262 0.887896 0
M  V30 3037 O 272.133 -5.69747 -0.27287 0
M  V30 3038 O 271.067 -5.78435 1.66421 0
M  V30 3039 H 274.893 -2.47854 1.75506 0
M  V30 3040 H 272.478 -1.18012 0.916166 0
M  V30 3041 H 274.36 -4.21394 0.0216739 0
M  V30 3042 H 273.035 -3.18362 -0.585431 0
M  V30 3043 H 271.942 -3.318 1.72799 0
M  V30 3044 H 273.275 -4.37452 2.25602 0
M  V30 3045 N 274.927 -0.932562 -1.27047 0
M  V30 3046 C 275.837 -0.441219 -2.30414 0
M  V30 3047 C 276.853 0.480525 -1.67233 0
M  V30 3048 O 278.029 0.362151 -1.98117 0
M  V30 3049 C 275.094 0.293651 -3.45454 0
M  V30 3050 C 274.155 -0.663601 -4.2414 0
M  V30 3051 C 273.388 0.0362932 -5.33688 0
M  V30 3052 O 273.611 1.2548 -5.56427 0
M  V30 3053 O 272.545 -0.638015 -5.98509 0
M  V30 3054 H 276.371 -1.29962 -2.74488 0
M  V30 3055 H 273.956 -0.6981 -1.32087 0
M  V30 3056 H 275.838 0.707951 -4.15411 0
M  V30 3057 H 274.513 1.12758 -3.03426 0
M  V30 3058 H 273.42 -1.12768 -3.56699 0
M  V30 3059 H 274.753 -1.46489 -4.69896 0
M  V30 3060 N 276.405 1.4127 -0.698611 0
M  V30 3061 C 277.651 2.01478 -0.231207 0
M  V30 3062 C 277.984 1.55215 1.16713 0
M  V30 3063 O 277.259 0.764672 1.78838 0
M  V30 3064 C 277.542 3.58912 -0.292281 0
M  V30 3065 C 277.395 4.15293 -1.72778 0
M  V30 3066 C 278.714 4.38736 0.346194 0
M  V30 3067 H 275.833 0.732025 -0.0854878 0
M  V30 3068 H 278.475 1.67977 -0.887906 0
M  V30 3069 H 276.625 3.87582 0.26686 0
M  V30 3070 H 278.297 3.97486 -2.341 0
M  V30 3071 H 276.54 3.7022 -2.26096 0
M  V30 3072 H 277.211 5.24452 -1.72202 0
M  V30 3073 H 279.687 4.15897 -0.130035 0
M  V30 3074 H 278.563 5.48221 0.272932 0
M  V30 3075 H 278.824 4.18425 1.42734 0
M  V30 3076 N 277.883 0.443576 1.51229 0
M  V30 3077 C 278.846 -0.353132 2.26463 0
M  V30 3078 C 279.846 -0.944338 1.3015 0
M  V30 3079 O 281.036 -0.817813 1.5381 0
M  V30 3080 C 278.168 -1.50023 3.06114 0
M  V30 3081 H 279.361 0.3063 2.98332 0
M  V30 3082 H 276.914 0.196902 1.55055 0
M  V30 3083 H 277.649 -2.19553 2.38677 0
M  V30 3084 H 277.434 -1.08241 3.76864 0
M  V30 3085 H 278.924 -2.06296 3.63087 0
M  V30 3086 N 279.361 -1.56624 0.175154 0
M  V30 3087 C 280.308 -2.18149 -0.753634 0
M  V30 3088 C 281.278 -1.12265 -1.22417 0
M  V30 3089 O 282.463 -1.40432 -1.29165 0
M  V30 3090 C 279.603 -2.82933 -1.97592 0
M  V30 3091 C 278.716 -4.03289 -1.5486 0
M  V30 3092 C 277.851 -4.55988 -2.72485 0
M  V30 3093 C 276.89 -5.68746 -2.26262 0
M  V30 3094 N 276.027 -6.15938 -3.36994 0
M  V30 3095 H 280.867 -2.9717 -0.222195 0
M  V30 3096 H 278.404 -1.46774 -0.0979422 0
M  V30 3097 H 280.362 -3.18653 -2.69288 0
M  V30 3098 H 278.992 -2.06509 -2.481 0
M  V30 3099 H 278.044 -3.73364 -0.728246 0
M  V30 3100 H 279.356 -4.849 -1.16933 0
M  V30 3101 H 278.51 -4.9391 -3.52332 0
M  V30 3102 H 277.249 -3.73443 -3.13674 0
M  V30 3103 H 276.254 -5.30372 -1.44863 0
M  V30 3104 H 277.479 -6.53095 -1.86127 0
M  V30 3105 H 275.425 -5.36321 -3.77751 0
M  V30 3106 H 275.342 -6.92548 -3.03172 0
M  V30 3107 H 276.61 -6.58511 -4.17114 0
M  V30 3108 N 280.839 0.0985539 -1.57292 0
M  V30 3109 C 282.064 0.820196 -1.90493 0
M  V30 3110 C 282.489 1.71658 -0.769094 0
M  V30 3111 O 281.847 1.79133 0.279495 0
M  V30 3112 C 281.895 1.61242 -3.22542 0
M  V30 3113 O 280.999 2.72108 -3.09888 0
M  V30 3114 H 280.34 0.225547 -0.62452 0
M  V30 3115 H 282.87 0.0748159 -2.04463 0
M  V30 3116 H 282.88 1.99737 -3.55766 0
M  V30 3117 H 281.555 0.954535 -4.04798 0
M  V30 3118 H 280.132 2.36667 -2.88172 0
M  V30 3119 N 282.317 1.53212 0.369288 0
M  V30 3120 C 283.557 1.70915 1.12105 0
M  V30 3121 C 283.921 0.449444 1.86665 0
M  V30 3122 O 285.122 0.503105 2.6405 0
M  V30 3123 C 283.393 2.9222 2.05772 0
M  V30 3124 S 284.952 3.30609 2.88519 0
M  V30 3125 H 281.77 0.601445 0.379189 0
M  V30 3126 H 284.372 1.91306 0.402794 0
M  V30 3127 H 283.076 3.82103 1.49752 0
M  V30 3128 H 282.607 2.7422 2.82076 0
M  V30 3129 H 284.622 2.82333 4.08047 0
M  V30 3130 N 283.795 -0.628877 1.44509 0
M  V30 3131 C 285.035 -1.39993 1.48934 0
M  V30 3132 C 285.399 -1.91627 0.119604 0
M  V30 3133 O 286.6 -2.68772 0.0385283 0
M  V30 3134 C 284.871 -2.53241 2.52198 0
M  V30 3135 S 286.43 -3.41383 2.75687 0
M  V30 3136 H 283.248 -0.477558 0.526744 0
M  V30 3137 H 285.85 -0.727804 1.81448 0
M  V30 3138 H 284.554 -2.13622 3.50419 0
M  V30 3139 H 284.085 -3.25278 2.21264 0
M  V30 3140 H 286.1 -4.50752 2.07453 0
M  V30 3141 N 285.273 -1.31445 -0.869486 0
M  V30 3142 C 286.183 -1.21097 -2.0093 0
M  V30 3143 C 287.199 -0.127584 -1.73532 0
M  V30 3144 O 288.375 -0.345477 -1.98415 0
M  V30 3145 C 285.44 -0.919378 -3.34288 0
M  V30 3146 C 284.501 -2.08971 -3.75006 0
M  V30 3147 C 283.734 -1.81194 -5.02001 0
M  V30 3148 O 283.957 -0.747296 -5.65484 0
M  V30 3149 O 282.891 -2.66883 -5.39497 0
M  V30 3150 H 286.717 -2.16883 -2.12592 0
M  V30 3151 H 284.302 -1.11189 -0.997868 0
M  V30 3152 H 286.184 -0.772625 -4.14257 0
M  V30 3153 H 284.859 0.00844772 -3.23699 0
M  V30 3154 H 283.766 -2.29187 -2.95676 0
M  V30 3155 H 285.099 -2.9998 -3.90221 0
M  V30 3156 N 286.751 1.08385 -1.14413 0
M  V30 3157 C 287.661 2.18856 -0.844951 0
M  V30 3158 C 288.677 1.73121 0.174668 0
M  V30 3159 O 289.853 2.014 0.00312857 0
M  V30 3160 C 286.918 3.45155 -0.32696 0
M  V30 3161 C 285.979 4.05513 -1.40916 0
M  V30 3162 C 285.212 5.25784 -0.915793 0
M  V30 3163 O 285.435 5.69884 0.242651 0
M  V30 3164 O 284.369 5.77545 -1.69487 0
M  V30 3165 H 288.195 2.46919 -1.76818 0
M  V30 3166 H 285.78 1.17524 -0.922411 0
M  V30 3167 H 287.662 4.21377 -0.0440211 0
M  V30 3168 H 286.337 3.18668 0.568539 0
M  V30 3169 H 285.244 3.30879 -1.74556 0
M  V30 3170 H 286.577 4.3625 -2.27919 0
M  V30 3171 N 288.23 0.939286 1.26551 0
M  V30 3172 C 289.162 0.404704 2.25599 0
M  V30 3173 C 290.175 -0.470983 1.55838 0
M  V30 3174 O 291.364 -0.281734 1.76263 0
M  V30 3175 C 288.464 -0.43764 3.36062 0
M  V30 3176 C 287.637 0.421449 4.35365 0
M  V30 3177 C 286.696 -0.36015 5.24966 0
M  V30 3178 O 285.722 0.236167 5.6871 0
M  V30 3179 N 286.924 -1.65715 5.56344 0
M  V30 3180 H 289.689 1.25618 2.72103 0
M  V30 3181 H 287.25 0.807963 1.40298 0
M  V30 3182 H 289.242 -0.967866 3.92956 0
M  V30 3183 H 287.812 -1.18991 2.89067 0
M  V30 3184 H 287.032 1.1329 3.7757 0
M  V30 3185 H 288.32 1.00835 4.98708 0
M  V30 3186 H 287.718 -2.16378 5.22682 0
M  V30 3187 H 286.275 -2.13366 6.15888 0
M  V30 3188 N 289.708 -1.40897 0.706093 0
M  V30 3189 C 290.656 -2.32572 0.0361893 0
M  V30 3190 C 291.65 -1.51532 -0.757266 0
M  V30 3191 O 292.856 -1.67396 -0.661703 0
M  V30 3192 H 289.231 -0.751966 -0.00709935 0
M  V30 3193 H 291.202 -2.86733 0.826249 0
M  V30 3194 C 289.951 -3.36418 -0.87854 0
M  V30 3195 H 289.274 -3.98836 -0.277401 0
M  V30 3196 H 290.714 -4.0308 -1.3154 0
M  V30 3197 C 289.173 -2.71141 -1.99961 0
M  V30 3198 O 289.703 -2.56735 -3.0895 0
M  V30 3199 N 287.909 -2.29671 -1.78043 0
M  V30 3200 H 287.456 -2.41588 -0.894042 0
M  V30 3201 H 287.414 -1.86332 -2.53235 0
M  V30 3202 N 291.186 -0.45159 -1.50991 0
M  V30 3203 C 292.133 0.352625 -2.2809 0
M  V30 3204 C 293.103 1.0044 -1.32291 0
M  V30 3205 O 294.288 1.02058 -1.6121 0
M  V30 3206 C 291.428 1.43983 -3.13629 0
M  V30 3207 C 290.541 0.804772 -4.24438 0
M  V30 3208 C 289.676 1.86822 -4.97263 0
M  V30 3209 C 288.715 1.21236 -5.99973 0
M  V30 3210 N 287.852 2.2178 -6.66152 0
M  V30 3211 H 292.692 -0.311186 -2.96371 0
M  V30 3212 H 290.229 -0.165308 -1.46168 0
M  V30 3213 H 292.187 2.08161 -3.61559 0
M  V30 3214 H 290.817 2.07307 -2.47434 0
M  V30 3215 H 289.869 0.0509129 -3.80366 0
M  V30 3216 H 291.181 0.286076 -4.97979 0
M  V30 3217 H 290.335 2.58628 -5.48813 0
M  V30 3218 H 289.074 2.42068 -4.23385 0
M  V30 3219 H 288.079 0.479828 -5.47702 0
M  V30 3220 H 289.304 0.667051 -6.75816 0
M  V30 3221 H 287.25 2.76079 -5.95077 0
M  V30 3222 H 287.167 1.74841 -7.35504 0
M  V30 3223 H 288.435 2.93026 -7.22327 0
M  V30 3224 N 292.664 1.56529 -0.183458 0
M  V30 3225 C 293.91 1.97537 0.459036 0
M  V30 3226 C 294.243 1.06989 1.62071 0
M  V30 3227 O 293.518 0.11948 1.94133 0
M  V30 3228 C 293.801 3.47874 0.930368 0
M  V30 3229 C 293.654 4.492 -0.232317 0
M  V30 3230 C 294.973 4.01612 1.79989 0
M  V30 3231 H 292.092 0.718204 0.165383 0
M  V30 3232 H 294.734 1.88042 -0.272038 0
M  V30 3233 H 292.884 3.56095 1.55333 0
M  V30 3234 H 294.556 4.53027 -0.86972 0
M  V30 3235 H 292.799 4.24657 -0.885928 0
M  V30 3236 H 293.47 5.51823 0.139796 0
M  V30 3237 H 295.946 3.96097 1.27461 0
M  V30 3238 H 294.822 5.07195 2.09867 0
M  V30 3239 H 295.083 3.46163 2.74998 0
M  V30 3240 N 294.142 -0.090211 1.57342 0
M  V30 3241 C 295.09 -1.12792 2.03422 0
M  V30 3242 C 296.084 -1.41182 0.936166 0
M  V30 3243 O 297.29 -1.40805 1.12133 0
M  V30 3244 H 293.665 -0.380986 0.648347 0
M  V30 3245 H 295.636 -0.71299 2.89757 0
M  V30 3246 C 294.385 -2.43855 2.47851 0
M  V30 3247 H 293.708 -2.22855 3.31927 0
M  V30 3248 H 295.148 -3.14955 2.83865 0
M  V30 3249 C 293.607 -3.08503 1.3538 0
M  V30 3250 O 294.137 -3.95805 0.685641 0
M  V30 3251 N 292.343 -2.68831 1.10355 0
M  V30 3252 H 291.89 -1.97929 1.64869 0
M  V30 3253 H 291.848 -3.12412 0.353031 0
M  V30 3254 N 295.62 -1.53406 -0.361157 0
M  V30 3255 C 296.86 -1.71507 -1.11197 0
M  V30 3256 C 297.224 -0.459337 -1.86425 0
M  V30 3257 O 298.425 -0.517102 -2.63779 0
M  V30 3258 C 296.696 -2.93307 -2.0422 0
M  V30 3259 S 298.255 -3.32135 -2.86761 0
M  V30 3260 H 295.073 -0.603448 -0.375995 0
M  V30 3261 H 297.675 -1.91516 -0.392642 0
M  V30 3262 H 296.379 -3.82891 -1.47724 0
M  V30 3263 H 295.91 -2.75712 -2.80618 0
M  V30 3264 H 297.925 -2.84493 -4.06544 0
M  V30 3265 N 297.098 0.621204 -1.44841 0
M  V30 3266 C 298.028 1.74366 -1.55303 0
M  V30 3267 C 299.009 1.65199 -0.405385 0
M  V30 3268 O 300.194 1.83807 -0.626787 0
M  V30 3269 C 297.324 3.12931 -1.50637 0
M  V30 3270 C 296.278 3.36896 -2.63979 0
M  V30 3271 C 295.604 4.75594 -2.44366 0
M  V30 3272 C 296.904 3.28483 -4.06074 0
M  V30 3273 H 298.598 1.65867 -2.49256 0
M  V30 3274 H 296.144 0.796558 -1.19962 0
M  V30 3275 H 298.097 3.9124 -1.56555 0
M  V30 3276 H 296.821 3.22237 -0.532057 0
M  V30 3277 H 295.48 2.60972 -2.57467 0
M  V30 3278 H 295.128 4.81616 -1.45105 0
M  V30 3279 H 294.828 4.92586 -3.20364 0
M  V30 3280 H 296.352 5.5612 -2.52117 0
M  V30 3281 H 297.766 3.96684 -4.13902 0
M  V30 3282 H 296.163 3.57008 -4.82354 0
M  V30 3283 H 297.233 2.26133 -4.28943 0
M  V30 3284 N 298.576 1.31904 0.862503 0
M  V30 3285 C 299.508 1.16005 1.97675 0
M  V30 3286 C 300.521 0.0971234 1.6251 0
M  V30 3287 O 301.71 0.345337 1.75128 0
M  V30 3288 C 298.81 0.751791 3.30456 0
M  V30 3289 C 297.983 1.90133 3.93914 0
M  V30 3290 C 297.042 1.4779 5.05019 0
M  V30 3291 O 296.068 2.18872 5.25437 0
M  V30 3292 N 297.27 0.369491 5.79323 0
M  V30 3293 H 300.035 2.11982 2.11857 0
M  V30 3294 H 297.596 1.24337 1.03691 0
M  V30 3295 H 299.588 0.451084 4.02178 0
M  V30 3296 H 298.158 -0.116593 3.12382 0
M  V30 3297 H 297.378 2.36896 3.15078 0
M  V30 3298 H 298.666 2.67111 4.33047 0
M  V30 3299 H 298.064 -0.222299 5.65263 0
M  V30 3300 H 296.621 0.128354 6.51674 0
M  V30 3301 N 300.054 -1.07777 1.14986 0
M  V30 3302 C 301.282 -1.84018 0.945773 0
M  V30 3303 C 301.697 -1.81897 -0.505863 0
M  V30 3304 O 301.054 -1.22726 -1.35072 0
M  V30 3305 C 301.105 -3.31287 1.44677 0
M  V30 3306 O 300.826 -3.33449 2.84154 0
M  V30 3307 C 302.327 -4.24311 1.28355 0
M  V30 3308 H 299.547 -0.580716 0.336169 0
M  V30 3309 H 302.091 -1.36077 1.52654 0
M  V30 3310 H 300.246 -3.76594 0.908625 0
M  V30 3311 H 300.66 -4.25427 3.06777 0
M  V30 3312 H 302.134 -5.2573 1.68261 0
M  V30 3313 H 302.611 -4.38612 0.227184 0
M  V30 3314 H 303.217 -3.84836 1.81056 0
M  V30 3315 N 301.532 -0.945985 -1.26051 0
M  V30 3316 C 302.948 -0.649045 -1.45807 0
M  V30 3317 C 303.148 0.796158 -1.85104 0
M  V30 3318 O 302.204 1.57233 -1.97571 0
M  V30 3319 C 303.517 -1.61458 -2.53677 0
M  V30 3320 C 305.065 -1.62481 -2.67524 0
M  V30 3321 C 305.54 -2.57776 -3.7857 0
M  V30 3322 N 307.031 -2.5609 -3.85969 0
M  V30 3323 C 307.766 -3.26508 -4.7136 0
M  V30 3324 N 307.262 -4.0637 -5.61102 0
M  V30 3325 N 309.055 -3.15437 -4.65248 0
M  V30 3326 H 301.206 -1.88005 -0.988328 0
M  V30 3327 H 303.469 -0.808198 -0.4955 0
M  V30 3328 H 303.175 -2.64644 -2.31638 0
M  V30 3329 H 303.049 -1.37036 -3.51427 0
M  V30 3330 H 305.436 -0.600167 -2.88933 0
M  V30 3331 H 305.517 -1.90958 -1.70202 0
M  V30 3332 H 305.161 -3.60361 -3.57913 0
M  V30 3333 H 305.091 -2.26587 -4.75359 0
M  V30 3334 H 307.582 -1.98105 -3.21812 0
M  V30 3335 H 307.895 -4.57042 -6.23164 0
M  V30 3336 H 306.24 -4.10469 -5.60839 0
M  V30 3337 H 309.431 -2.52525 -3.94143 0
M  V30 3338 H 309.604 -3.70584 -5.31575 0
M  V30 3339 N 303.011 1.40521 -0.713556 0
M  V30 3340 C 303.974 2.29098 -0.0684347 0
M  V30 3341 C 304.974 1.45268 0.689472 0
M  V30 3342 O 306.164 1.66205 0.521677 0
M  V30 3343 C 303.296 3.28446 0.913024 0
M  V30 3344 H 304.489 2.87645 -0.84855 0
M  V30 3345 H 302.042 1.48809 -0.47809 0
M  V30 3346 H 302.777 2.74913 1.72027 0
M  V30 3347 H 302.562 3.90327 0.372472 0
M  V30 3348 H 304.052 3.94777 1.36165 0
M  V30 3349 N 304.489 0.459591 1.5075 0
M  V30 3350 C 305.738 -0.100971 2.01447 0
M  V30 3351 C 306.051 -1.41816 1.34713 0
M  V30 3352 O 307.257 -2.06299 1.76502 0
M  V30 3353 C 305.713 -0.23047 3.59161 0
M  V30 3354 C 305.321 1.0776 4.34847 0
M  V30 3355 C 307.065 -0.743608 4.17936 0
M  V30 3356 C 304.972 0.91253 5.84317 0
M  V30 3357 H 303.902 -0.0415102 0.752856 0
M  V30 3358 H 306.553 0.592742 1.73663 0
M  V30 3359 H 304.935 -0.987703 3.83485 0
M  V30 3360 H 306.109 1.8449 4.22256 0
M  V30 3361 H 304.424 1.52097 3.87628 0
M  V30 3362 H 307.021 -0.883959 5.27343 0
M  V30 3363 H 307.364 -1.73196 3.78562 0
M  V30 3364 H 307.897 -0.04408 3.97776 0
M  V30 3365 H 304.636 1.87391 6.28144 0
M  V30 3366 H 304.156 0.185422 5.99513 0
M  V30 3367 H 305.835 0.574547 6.44444 0
M  V30 3368 N 305.967 -1.56429 0.191757 0
M  V30 3369 C 307.378 -1.83912 -0.321428 0
M  V30 3370 C 307.729 -1.11231 -1.61623 0
M  V30 3371 O 306.854 -0.37202 -2.13178 0
M  V30 3372 C 307.449 -3.33624 -0.589961 0
M  V30 3373 C 306.008 -3.6153 -1.04753 0
M  V30 3374 C 305.155 -2.7714 -0.0943327 0
M  V30 3375 H 308.106 -1.53161 0.415612 0
M  V30 3376 H 308.127 -3.52213 -1.43966 0
M  V30 3377 H 307.639 -3.86495 0.352588 0
M  V30 3378 H 305.74 -3.14089 -2.00447 0
M  V30 3379 H 305.853 -4.69737 -0.942549 0
M  V30 3380 H 304.217 -2.47638 -0.595589 0
M  V30 3381 H 305 -3.32799 0.842601 0
M  V30 3382 N 307.445 0.0818655 -1.57387 0
M  V30 3383 C 308.691 0.784074 -1.8703 0
M  V30 3384 C 309.024 1.77729 -0.782689 0
M  V30 3385 O 308.299 1.93384 0.208051 0
M  V30 3386 C 308.582 1.50105 -3.27323 0
M  V30 3387 C 308.435 0.524925 -4.46727 0
M  V30 3388 C 309.754 2.44843 -3.65705 0
M  V30 3389 H 306.873 0.283582 -0.680257 0
M  V30 3390 H 309.515 0.0474352 -1.89941 0
M  V30 3391 H 307.665 2.12897 -3.24972 0
M  V30 3392 H 309.337 -0.0970111 -4.61198 0
M  V30 3393 H 307.58 -0.160606 -4.33503 0
M  V30 3394 H 308.251 1.064 -5.41648 0
M  V30 3395 H 310.727 1.92135 -3.69085 0
M  V30 3396 H 309.603 2.92018 -4.64776 0
M  V30 3397 H 309.864 3.29197 -2.95096 0
M  V30 3398 N 308.923 1.53595 0.353017 0
M  V30 3399 C 310.151 1.74311 1.1146 0
M  V30 3400 C 310.566 0.477854 1.82653 0
M  V30 3401 O 309.923 -0.549977 1.74016 0
M  V30 3402 C 309.974 2.91694 2.13534 0
M  V30 3403 O 309.695 4.13325 1.45238 0
M  V30 3404 C 311.196 3.24384 3.02142 0
M  V30 3405 H 308.416 0.582669 0.332773 0
M  V30 3406 H 310.96 2.00386 0.408107 0
M  V30 3407 H 309.115 2.67977 2.79763 0
M  V30 3408 H 309.529 4.79148 2.13349 0
M  V30 3409 H 311.003 4.09893 3.69718 0
M  V30 3410 H 311.48 2.40282 3.67643 0
M  V30 3411 H 312.086 3.50073 2.41514 0
M  V30 3412 N 310.401 -0.613514 1.45168 0
M  V30 3413 C 311.333 -1.73825 1.4939 0
M  V30 3414 C 312.346 -1.58175 0.385304 0
M  V30 3415 O 313.535 -1.66165 0.652036 0
M  V30 3416 C 310.635 -3.11758 1.32891 0
M  V30 3417 C 309.808 -3.53704 2.57317 0
M  V30 3418 C 308.867 -4.70579 2.35462 0
M  V30 3419 O 307.893 -4.77996 3.09044 0
M  V30 3420 N 309.095 -5.63454 1.39644 0
M  V30 3421 H 311.86 -1.70669 2.46358 0
M  V30 3422 H 309.421 -0.79862 1.40832 0
M  V30 3423 H 311.413 -3.87692 1.1609 0
M  V30 3424 H 309.983 -3.09456 0.442218 0
M  V30 3425 H 309.203 -2.67794 2.89275 0
M  V30 3426 H 310.491 -3.78486 3.40038 0
M  V30 3427 H 309.889 -5.6017 0.789062 0
M  V30 3428 H 308.446 -6.38944 1.28816 0
M  V30 3429 N 311.879 -1.3236 -0.855495 0
M  V30 3430 C 313.109 -1.25688 -1.6397 0
M  V30 3431 C 313.517 0.177592 -1.88365 0
M  V30 3432 O 312.86 1.12485 -1.45234 0
M  V30 3433 C 312.922 -1.94602 -3.02275 0
M  V30 3434 C 312.586 -3.43937 -3.00926 0
M  V30 3435 C 313.583 -4.39435 -2.77835 0
M  V30 3436 C 311.268 -3.85858 -3.21588 0
M  V30 3437 C 313.262 -5.74829 -2.75409 0
M  V30 3438 C 310.949 -5.21361 -3.18789 0
M  V30 3439 C 311.947 -6.15658 -2.95727 0
M  V30 3440 O 311.635 -7.48681 -2.928 0
M  V30 3441 H 311.367 -0.434972 -0.51747 0
M  V30 3442 H 313.921 -1.75023 -1.075 0
M  V30 3443 H 312.151 -1.39836 -3.60531 0
M  V30 3444 H 313.84 -1.81651 -3.62985 0
M  V30 3445 H 314.606 -4.08374 -2.6164 0
M  V30 3446 H 310.485 -3.12883 -3.38564 0
M  V30 3447 H 314.029 -6.48404 -2.57328 0
M  V30 3448 H 309.926 -5.52052 -3.34528 0
M  V30 3449 H 310.694 -7.5803 -3.0876 0
M  V30 3450 N 313.357 1.07166 -1.15556 0
M  V30 3451 C 314.287 2.16403 -0.877046 0
M  V30 3452 C 315.268 1.69217 0.173111 0
M  V30 3453 O 316.453 1.94181 0.027084 0
M  V30 3454 C 313.583 3.45349 -0.367632 0
M  V30 3455 C 312.537 4.05995 -1.35468 0
M  V30 3456 C 311.863 5.30045 -0.704038 0
M  V30 3457 C 313.163 4.45804 -2.72132 0
M  V30 3458 H 314.857 2.39959 -1.79053 0
M  V30 3459 H 312.403 1.15325 -0.862331 0
M  V30 3460 H 314.356 4.21095 -0.160317 0
M  V30 3461 H 313.08 3.21385 0.581326 0
M  V30 3462 H 311.739 3.32296 -1.54839 0
M  V30 3463 H 311.387 5.02373 0.251128 0
M  V30 3464 H 311.087 5.71579 -1.36277 0
M  V30 3465 H 312.611 6.08495 -0.50654 0
M  V30 3466 H 314.025 5.12671 -2.56595 0
M  V30 3467 H 312.422 4.98296 -3.34397 0
M  V30 3468 H 313.492 3.57083 -3.28054 0
M  V30 3469 N 314.835 0.952656 1.25548 0
M  V30 3470 C 315.782 0.47008 2.25962 0
M  V30 3471 C 316.752 -0.476384 1.59122 0
M  V30 3472 O 317.937 -0.39007 1.8677 0
M  V30 3473 C 315.077 -0.247881 3.44209 0
M  V30 3474 C 314.19 0.735591 4.25691 0
M  V30 3475 C 313.325 -0.0047306 5.312 0
M  V30 3476 C 312.364 0.969805 6.04368 0
M  V30 3477 N 311.501 0.260486 7.01617 0
M  V30 3478 H 316.341 1.33126 2.66611 0
M  V30 3479 H 313.878 0.66765 1.31076 0
M  V30 3480 H 315.836 -0.680695 4.1161 0
M  V30 3481 H 314.466 -1.07312 3.0444 0
M  V30 3482 H 313.518 1.28689 3.57971 0
M  V30 3483 H 314.83 1.47934 4.76358 0
M  V30 3484 H 313.984 -0.496275 6.04667 0
M  V30 3485 H 312.723 -0.781282 4.81401 0
M  V30 3486 H 311.728 1.47237 5.29718 0
M  V30 3487 H 312.953 1.74655 6.56256 0
M  V30 3488 H 310.899 -0.497364 6.54112 0
M  V30 3489 H 310.816 0.943362 7.50091 0
M  V30 3490 H 312.084 -0.209587 7.79218 0
M  V30 3491 N 316.313 -1.40141 0.720998 0
M  V30 3492 C 317.276 -2.29058 0.0805834 0
M  V30 3493 C 318.276 -1.45632 -0.681758 0
M  V30 3494 O 319.466 -1.6648 -0.512856 0
M  V30 3495 C 316.598 -3.28925 -0.895593 0
M  V30 3496 H 317.791 -2.87191 0.863793 0
M  V30 3497 H 315.344 -1.48553 0.485975 0
M  V30 3498 H 316.079 -2.75822 -1.70566 0
M  V30 3499 H 315.864 -3.90519 -0.351766 0
M  V30 3500 H 317.354 -3.95494 -1.34069 0
M  V30 3501 N 317.792 -0.46758 -1.50504 0
M  V30 3502 C 319.039 0.0886219 -2.02306 0
M  V30 3503 C 319.367 1.40037 -1.34981 0
M  V30 3504 O 318.622 1.90136 -0.463318 0
M  V30 3505 C 318.921 0.323995 -3.55928 0
M  V30 3506 C 318.587 -0.905618 -4.41712 0
M  V30 3507 C 317.249 -1.24275 -4.64875 0
M  V30 3508 C 319.601 -1.72448 -4.91845 0
M  V30 3509 C 316.929 -2.39888 -5.35417 0
M  V30 3510 C 319.281 -2.87185 -5.63656 0
M  V30 3511 C 317.945 -3.21317 -5.85074 0
M  V30 3512 H 317.215 0.0324291 -0.74029 0
M  V30 3513 H 319.862 -0.620945 -1.81153 0
M  V30 3514 H 318.167 1.11577 -3.75577 0
M  V30 3515 H 319.864 0.76826 -3.93572 0
M  V30 3516 H 316.454 -0.632956 -4.239 0
M  V30 3517 H 320.638 -1.4772 -4.73806 0
M  V30 3518 H 315.894 -2.66611 -5.50208 0
M  V30 3519 H 320.068 -3.50985 -6.01484 0
M  V30 3520 H 317.695 -4.1101 -6.39511 0
M  V30 3521 N 319.27 1.56325 -0.20005 0
M  V30 3522 C 320.495 2.02548 0.44597 0
M  V30 3523 C 320.92 1.07922 1.5406 0
M  V30 3524 O 320.278 0.0635775 1.81188 0
M  V30 3525 C 320.326 3.47175 0.974761 0
M  V30 3526 O 319.43 3.55671 2.08739 0
M  V30 3527 H 318.771 0.655862 0.103638 0
M  V30 3528 H 321.301 2.02201 -0.312381 0
M  V30 3529 H 321.311 3.87067 1.2901 0
M  V30 3530 H 319.986 4.15538 0.17347 0
M  V30 3531 H 318.563 3.27657 1.78032 0
M  V30 3532 N 320.748 -0.0735177 1.57428 0
M  V30 3533 C 321.973 -0.789787 1.91774 0
M  V30 3534 C 322.398 -1.70413 0.796306 0
M  V30 3535 O 321.756 -1.79555 -0.250961 0
M  V30 3536 C 321.804 -1.5609 3.25067 0
M  V30 3537 O 320.908 -2.67144 3.14178 0
M  V30 3538 H 320.249 -0.215582 0.628029 0
M  V30 3539 H 322.779 -0.0422781 2.04556 0
M  V30 3540 H 322.789 -1.94052 3.58898 0
M  V30 3541 H 321.464 -0.890015 4.06265 0
M  V30 3542 H 320.041 -2.32052 2.91901 0
M  V30 3543 N 322.226 -1.5378 -0.344866 0
M  V30 3544 C 323.456 -1.74646 -1.10374 0
M  V30 3545 C 323.864 -0.48491 -1.8288 0
M  V30 3546 O 323.207 0.553062 -1.75177 0
M  V30 3547 C 323.269 -2.87145 -2.16306 0
M  V30 3548 C 322.933 -4.26795 -1.63386 0
M  V30 3549 C 323.93 -5.08412 -1.08688 0
M  V30 3550 C 321.615 -4.73276 -1.68272 0
M  V30 3551 C 323.609 -6.34609 -0.595792 0
M  V30 3552 C 321.296 -5.99446 -1.18776 0
M  V30 3553 C 322.294 -6.79946 -0.645215 0
M  V30 3554 O 321.982 -8.03745 -0.157626 0
M  V30 3555 H 321.714 -0.587112 -0.335075 0
M  V30 3556 H 324.268 -2.01403 -0.403252 0
M  V30 3557 H 322.498 -2.55909 -2.89909 0
M  V30 3558 H 324.187 -2.95992 -2.77747 0
M  V30 3559 H 324.953 -4.73666 -1.04236 0
M  V30 3560 H 320.832 -4.10677 -2.09442 0
M  V30 3561 H 324.376 -6.97389 -0.171654 0
M  V30 3562 H 320.273 -6.33687 -1.22928 0
M  V30 3563 H 321.041 -8.18038 -0.275037 0
M  V30 3564 N 323.704 0.605807 -1.45491 0
M  V30 3565 C 324.636 1.73031 -1.5031 0
M  V30 3566 C 325.649 1.57968 -0.393687 0
M  V30 3567 O 326.838 1.65817 -0.660839 0
M  V30 3568 C 323.938 3.11049 -1.34543 0
M  V30 3569 C 323.111 3.52334 -2.59189 0
M  V30 3570 C 322.17 4.69323 -2.37954 0
M  V30 3571 O 321.196 4.7635 -3.11575 0
M  V30 3572 N 322.398 5.62705 -1.4263 0
M  V30 3573 H 325.163 1.6936 -2.4726 0
M  V30 3574 H 322.724 0.79114 -1.41254 0
M  V30 3575 H 324.716 3.87071 -1.18144 0
M  V30 3576 H 323.286 3.09217 -0.458623 0
M  V30 3577 H 322.506 2.66256 -2.90691 0
M  V30 3578 H 323.794 3.76677 -3.42041 0
M  V30 3579 H 323.192 5.59744 -0.818758 0
M  V30 3580 H 321.749 6.38252 -1.32202 0
M  V30 3581 N 325.182 1.32811 0.848464 0
M  V30 3582 C 326.129 1.22265 1.95755 0
M  V30 3583 C 327.099 0.103413 1.65778 0
M  V30 3584 O 328.284 0.280033 1.88734 0
M  V30 3585 C 325.424 0.958014 3.31536 0
M  V30 3586 C 324.537 2.16262 3.73971 0
M  V30 3587 C 323.672 1.83295 4.98575 0
M  V30 3588 C 322.711 3.00041 5.33518 0
M  V30 3589 N 321.848 2.67125 6.49299 0
M  V30 3590 H 326.688 2.17128 2.04107 0
M  V30 3591 H 324.225 1.07982 0.998913 0
M  V30 3592 H 326.183 0.785052 4.09747 0
M  V30 3593 H 324.813 0.046159 3.22767 0
M  V30 3594 H 323.865 2.44565 2.91362 0
M  V30 3595 H 325.177 3.03572 3.95785 0
M  V30 3596 H 324.331 1.62586 5.84509 0
M  V30 3597 H 323.07 0.932078 4.7871 0
M  V30 3598 H 322.075 3.21374 4.46093 0
M  V30 3599 H 323.3 3.90869 5.55336 0
M  V30 3600 H 321.246 1.79586 6.3094 0
M  V30 3601 H 321.163 3.47965 6.71161 0
M  V30 3602 H 322.431 2.49861 7.3837 0
M  V30 3603 N 326.66 -1.06551 1.16123 0
M  V30 3604 C 327.61 -2.12209 0.833736 0
M  V30 3605 C 328.594 -1.59825 -0.185656 0
M  V30 3606 O 329.786 -1.76994 0.0147906 0
M  V30 3607 C 326.915 -3.41674 0.333697 0
M  V30 3608 C 326.001 -4.00892 1.38372 0
M  V30 3609 N 326.392 -4.34256 2.59337 0
M  V30 3610 C 324.69 -4.28463 1.23836 0
M  V30 3611 C 325.391 -4.81291 3.26701 0
M  V30 3612 N 324.367 -4.80565 2.54083 0
M  V30 3613 H 328.169 -2.35849 1.75364 0
M  V30 3614 H 325.683 -1.24068 1.04789 0
M  V30 3615 H 327.68 -4.16822 0.0806918 0
M  V30 3616 H 326.34 -3.19475 -0.58017 0
M  V30 3617 H 327.351 -4.24687 2.96415 0
M  V30 3618 H 324.028 -4.15721 0.38504 0
M  V30 3619 H 325.418 -5.16332 4.29943 0
M  V30 3620 N 328.138 -0.959301 -1.25041 0
M  V30 3621 C 329.384 -0.617525 -1.9317 0
M  V30 3622 C 329.717 0.843981 -1.74902 0
M  V30 3623 O 328.992 1.60615 -1.09696 0
M  V30 3624 C 329.275 -0.982736 -3.46431 0
M  V30 3625 C 329.128 -2.50032 -3.73904 0
M  V30 3626 C 330.447 -0.511176 -4.37121 0
M  V30 3627 H 327.566 -0.22582 -0.701552 0
M  V30 3628 H 330.208 -1.19679 -1.4757 0
M  V30 3629 H 328.358 -0.489806 -3.854 0
M  V30 3630 H 330.03 -3.06737 -3.44544 0
M  V30 3631 H 328.273 -2.93598 -3.19348 0
M  V30 3632 H 328.944 -2.70635 -4.81103 0
M  V30 3633 H 331.42 -0.934075 -4.0548 0
M  V30 3634 H 330.296 -0.795361 -5.43107 0
M  V30 3635 H 330.557 0.588834 -4.38161 0
M  V30 3636 N 329.616 1.39756 -0.72842 0
M  V30 3637 C 330.856 2.025 -0.278078 0
M  V30 3638 C 331.22 1.5654 1.11173 0
M  V30 3639 O 332.421 2.11435 1.65978 0
M  V30 3640 C 330.692 3.55489 -0.369139 0
M  V30 3641 S 332.251 4.388 0.00232983 0
M  V30 3642 H 329.069 0.702534 -0.109391 0
M  V30 3643 H 331.671 1.70672 -0.95348 0
M  V30 3644 H 330.375 3.86429 -1.38204 0
M  V30 3645 H 329.906 3.92061 0.324308 0
M  V30 3646 H 331.921 4.80954 1.22055 0
M  V30 3647 N 331.094 0.475555 1.50254 0
M  V30 3648 C 332.342 -0.077738 2.0195 0
M  V30 3649 C 332.663 -1.39813 1.35931 0
M  V30 3650 O 331.933 -1.89249 0.506123 0
M  V30 3651 H 330.513 -0.031719 0.746326 0
M  V30 3652 H 333.175 0.626995 1.84539 0
M  V30 3653 H 332.271 -0.225995 3.11281 0
M  V30 3654 N 332.573 -1.56217 0.208337 0
M  V30 3655 C 333.536 -2.18455 -0.693557 0
M  V30 3656 C 334.536 -1.14268 -1.13135 0
M  V30 3657 O 335.726 -1.39577 -1.0423 0
M  V30 3658 C 332.858 -2.79727 -1.94848 0
M  V30 3659 H 334.051 -2.99519 -0.15114 0
M  V30 3660 H 331.604 -1.56245 -0.041287 0
M  V30 3661 H 332.339 -2.02497 -2.53309 0
M  V30 3662 H 332.124 -3.56009 -1.64316 0
M  V30 3663 H 333.614 -3.27475 -2.59133 0
M  V30 3664 N 334.051 0.0651679 -1.57465 0
M  V30 3665 C 334.981 1.07693 -2.07182 0
M  V30 3666 C 335.962 1.39962 -0.966673 0
M  V30 3667 O 337.147 1.49475 -1.2398 0
M  V30 3668 C 334.277 2.3885 -2.52127 0
M  V30 3669 C 333.231 2.20917 -3.66579 0
M  V30 3670 C 332.557 3.57515 -3.97601 0
M  V30 3671 C 333.857 1.62493 -4.9638 0
M  V30 3672 H 335.551 0.663199 -2.91962 0
M  V30 3673 H 333.097 0.317569 -1.40455 0
M  V30 3674 H 335.05 3.09928 -2.85522 0
M  V30 3675 H 333.774 2.82215 -1.64384 0
M  V30 3676 H 332.433 1.52279 -3.33477 0
M  V30 3677 H 332.081 3.98463 -3.06979 0
M  V30 3678 H 331.781 3.46353 -4.74672 0
M  V30 3679 H 333.305 4.30013 -4.33499 0
M  V30 3680 H 334.719 2.23445 -5.27963 0
M  V30 3681 H 333.116 1.62009 -5.77818 0
M  V30 3682 H 334.186 0.587041 -4.81333 0
M  V30 3683 N 335.529 1.53961 0.336706 0
M  V30 3684 C 336.459 1.85417 1.41925 0
M  V30 3685 C 337.44 0.709856 1.5458 0
M  V30 3686 O 338.625 0.962396 1.68676 0
M  V30 3687 C 335.755 2.06985 2.78881 0
M  V30 3688 C 334.709 3.22813 2.81026 0
M  V30 3689 C 334.035 3.29727 4.20932 0
M  V30 3690 C 335.335 4.60767 2.45949 0
M  V30 3691 H 337.029 2.76079 1.15848 0
M  V30 3692 H 334.575 1.32839 0.555859 0
M  V30 3693 H 336.528 2.27575 3.54665 0
M  V30 3694 H 335.252 1.13061 3.06406 0
M  V30 3695 H 333.911 3.0209 2.07695 0
M  V30 3696 H 333.559 2.33385 4.45579 0
M  V30 3697 H 333.259 4.07566 4.23277 0
M  V30 3698 H 334.783 3.52536 4.98549 0
M  V30 3699 H 336.197 4.81325 3.11446 0
M  V30 3700 H 334.594 5.4106 2.59566 0
M  V30 3701 H 335.664 4.6391 1.41122 0
M  V30 3702 N 337.007 -0.598083 1.45811 0
M  V30 3703 C 337.954 -1.7082 1.55207 0
M  V30 3704 C 338.924 -1.61278 0.39732 0
M  V30 3705 O 340.109 -1.80717 0.612038 0
M  V30 3706 C 337.249 -3.09144 1.53376 0
M  V30 3707 C 336.362 -3.29423 2.79472 0
M  V30 3708 C 335.497 -4.57907 2.69248 0
M  V30 3709 C 334.536 -4.71476 3.90354 0
M  V30 3710 N 333.673 -5.9127 3.78608 0
M  V30 3711 H 338.513 -1.62125 2.50039 0
M  V30 3712 H 336.05 -0.790389 1.24062 0
M  V30 3713 H 338.008 -3.89186 1.50301 0
M  V30 3714 H 336.638 -3.16773 0.620876 0
M  V30 3715 H 335.69 -2.43091 2.92594 0
M  V30 3716 H 337.002 -3.3532 3.69272 0
M  V30 3717 H 336.156 -5.46157 2.64192 0
M  V30 3718 H 334.895 -4.54423 1.77063 0
M  V30 3719 H 333.9 -3.81648 3.95759 0
M  V30 3720 H 335.125 -4.76751 4.83617 0
M  V30 3721 H 333.071 -5.88813 2.89199 0
M  V30 3722 H 332.988 -5.98369 4.6205 0
M  V30 3723 H 334.256 -6.81992 3.77501 0
M  V30 3724 N 338.485 -1.33259 -0.841409 0
M  V30 3725 C 339.732 -1.24572 -1.5965 0
M  V30 3726 C 340.06 0.189137 -1.93578 0
M  V30 3727 O 339.315 1.14566 -1.5866 0
M  V30 3728 C 339.614 -2.06381 -2.9179 0
M  V30 3729 C 339.28 -3.556 -2.77235 0
M  V30 3730 C 337.942 -3.96282 -2.72973 0
M  V30 3731 C 340.294 -4.50433 -2.62221 0
M  V30 3732 C 337.622 -5.30017 -2.51592 0
M  V30 3733 C 339.974 -5.84327 -2.42374 0
M  V30 3734 C 338.638 -6.24194 -2.36512 0
M  V30 3735 H 337.908 -0.455842 -0.5842 0
M  V30 3736 H 340.555 -1.6482 -0.975016 0
M  V30 3737 H 338.86 -1.58903 -3.5813 0
M  V30 3738 H 340.557 -1.97019 -3.49263 0
M  V30 3739 H 337.147 -3.23298 -2.81384 0
M  V30 3740 H 341.331 -4.19914 -2.64549 0
M  V30 3741 H 336.587 -5.59947 -2.45499 0
M  V30 3742 H 340.761 -6.57414 -2.29739 0
M  V30 3743 H 338.388 -7.27759 -2.19706 0
M  V30 3744 N 339.963 1.05934 -1.16686 0
M  V30 3745 C 341.211 1.78447 -0.948744 0
M  V30 3746 C 341.532 1.87813 0.524523 0
M  V30 3747 O 340.802 1.38945 1.38098 0
M  V30 3748 H 339.382 0.660971 -0.348033 0
M  V30 3749 H 342.044 1.27947 -1.47022 0
M  V30 3750 H 341.14 2.80394 -1.37061 0
M  V30 3751 N 341.441 0.965919 1.2453 0
M  V30 3752 C 342.669 0.644385 1.96609 0
M  V30 3753 C 343.084 -0.785823 1.71669 0
M  V30 3754 O 342.441 -1.52703 0.999399 0
M  V30 3755 C 342.492 0.907375 3.49927 0
M  V30 3756 O 342.213 2.28136 3.74013 0
M  V30 3757 C 343.714 0.599784 4.39224 0
M  V30 3758 H 340.934 0.240588 0.626385 0
M  V30 3759 H 343.478 1.29337 1.58405 0
M  V30 3760 H 341.633 0.304631 3.862 0
M  V30 3761 H 342.047 2.36002 4.68405 0
M  V30 3762 H 343.521 0.834263 5.45659 0
M  V30 3763 H 343.998 -0.465921 4.36722 0
M  V30 3764 H 344.604 1.18235 4.08535 0
M  V30 3765 N 342.919 -1.39368 0.735821 0
M  V30 3766 C 343.866 -2.30599 0.0963825 0
M  V30 3767 C 344.836 -1.49257 -0.728794 0
M  V30 3768 O 346.021 -1.77941 -0.688588 0
M  V30 3769 C 343.161 -3.35596 -0.804305 0
M  V30 3770 C 342.274 -4.31987 0.0335761 0
M  V30 3771 C 341.409 -5.24053 -0.868461 0
M  V30 3772 C 340.448 -6.12095 -0.0258776 0
M  V30 3773 N 339.585 -6.96514 -0.883893 0
M  V30 3774 H 344.425 -2.8471 0.880002 0
M  V30 3775 H 341.962 -1.40188 0.445619 0
M  V30 3776 H 343.92 -3.95062 -1.34096 0
M  V30 3777 H 342.55 -2.82938 -1.55389 0
M  V30 3778 H 341.602 -3.74133 0.68766 0
M  V30 3779 H 342.914 -4.94074 0.685036 0
M  V30 3780 H 342.068 -5.88549 -1.47293 0
M  V30 3781 H 340.807 -4.62289 -1.5537 0
M  V30 3782 H 339.812 -5.4661 0.591386 0
M  V30 3783 H 341.037 -6.75923 0.656156 0
M  V30 3784 H 338.983 -6.37318 -1.55441 0
M  V30 3785 H 338.9 -7.55448 -0.288931 0
M  V30 3786 H 340.168 -7.65439 -1.4739 0
M  V30 3787 N 344.397 -0.483516 -1.5 0
M  V30 3788 C 345.643 0.0672592 -2.02688 0
M  V30 3789 C 345.976 1.38247 -1.36387 0
M  V30 3790 O 345.251 1.88131 -0.493675 0
M  V30 3791 C 345.534 0.238109 -3.59312 0
M  V30 3792 C 345.387 -1.099 -4.36168 0
M  V30 3793 C 346.706 0.986916 -4.28892 0
M  V30 3794 H 343.825 0.0229696 -0.736642 0
M  V30 3795 H 346.467 -0.631527 -1.79197 0
M  V30 3796 H 344.617 0.8333 -3.79458 0
M  V30 3797 H 346.289 -1.73172 -4.27562 0
M  V30 3798 H 344.532 -1.69261 -3.99416 0
M  V30 3799 H 345.203 -0.932954 -5.44059 0
M  V30 3800 H 347.679 0.482302 -4.13295 0
M  V30 3801 H 346.555 1.07527 -5.38265 0
M  V30 3802 H 346.816 2.0265 -3.92919 0
M  V30 3803 N 345.875 1.56104 -0.216619 0
M  V30 3804 C 347.121 1.98466 0.417033 0
M  V30 3805 C 347.454 1.10403 1.59765 0
M  V30 3806 O 346.729 0.160632 1.93836 0
M  V30 3807 C 347.012 3.49769 0.85637 0
M  V30 3808 C 346.865 4.48606 -0.327546 0
M  V30 3809 C 348.184 4.05339 1.7143 0
M  V30 3810 H 345.303 0.721551 0.150112 0
M  V30 3811 H 347.945 1.87423 -0.311864 0
M  V30 3812 H 346.095 3.5931 1.47745 0
M  V30 3813 H 347.767 4.5108 -0.965618 0
M  V30 3814 H 346.01 4.22682 -0.975805 0
M  V30 3815 H 346.681 5.51995 0.0227149 0
M  V30 3816 H 349.157 3.98712 1.19031 0
M  V30 3817 H 348.033 5.11533 1.99061 0
M  V30 3818 H 348.294 3.51918 2.67593 0
M  V30 3819 N 347.353 -0.0568162 1.57498 0
M  V30 3820 C 348.303 -1.07315 2.01166 0
M  V30 3821 C 349.287 -1.33632 0.896171 0
M  V30 3822 O 350.479 -1.33682 1.16009 0
M  V30 3823 C 347.608 -2.38257 2.47161 0
M  V30 3824 C 346.694 -2.1515 3.65474 0
M  V30 3825 N 347.085 -1.62014 4.7915 0
M  V30 3826 C 345.383 -2.45559 3.72313 0
M  V30 3827 C 346.084 -1.54069 5.60926 0
M  V30 3828 N 345.06 -2.00652 5.05213 0
M  V30 3829 H 348.862 -0.655878 2.86488 0
M  V30 3830 H 346.376 -0.263635 1.60246 0
M  V30 3831 H 348.373 -3.11845 2.76691 0
M  V30 3832 H 347.033 -2.80687 1.63232 0
M  V30 3833 H 348.044 -1.30667 5.01145 0
M  V30 3834 H 344.721 -2.91253 2.99129 0
M  V30 3835 H 346.111 -1.13712 6.62208 0
M  V30 3836 N 348.832 -1.54138 -0.328536 0
M  V30 3837 C 350.079 -1.72105 -1.06706 0
M  V30 3838 C 350.407 -0.492111 -1.88171 0
M  V30 3839 O 349.662 0.526153 -1.88494 0
M  V30 3840 C 349.961 -2.9457 -2.02393 0
M  V30 3841 C 349.627 -4.29544 -1.37122 0
M  V30 3842 C 348.289 -4.6624 -1.19052 0
M  V30 3843 C 350.641 -5.1333 -0.902331 0
M  V30 3844 C 347.969 -5.84325 -0.527331 0
M  V30 3845 C 350.321 -6.32094 -0.252988 0
M  V30 3846 C 348.985 -6.67473 -0.0600901 0
M  V30 3847 H 348.255 -0.629775 -0.390466 0
M  V30 3848 H 350.902 -1.88372 -0.34473 0
M  V30 3849 H 349.207 -2.72969 -2.81061 0
M  V30 3850 H 350.904 -3.05665 -2.59557 0
M  V30 3851 H 347.494 -4.0067 -1.52188 0
M  V30 3852 H 351.678 -4.855 -1.02974 0
M  V30 3853 H 346.934 -6.103 -0.366634 0
M  V30 3854 H 351.108 -6.96299 0.118366 0
M  V30 3855 H 348.735 -7.58832 0.455828 0
M  V30 3856 N 350.31 0.590341 -1.46126 0
M  V30 3857 C 351.559 1.34499 -1.50309 0
M  V30 3858 C 351.872 1.94977 -0.156021 0
M  V30 3859 O 353.078 2.71395 -0.0756037 0
M  V30 3860 C 351.534 2.43723 -2.64815 0
M  V30 3861 C 351.142 1.89582 -4.0591 0
M  V30 3862 C 352.886 3.20579 -2.78262 0
M  V30 3863 C 350.793 2.9639 -5.11769 0
M  V30 3864 H 349.723 0.505593 -0.559368 0
M  V30 3865 H 352.374 0.630848 -1.72315 0
M  V30 3866 H 350.756 3.17902 -2.36124 0
M  V30 3867 H 351.93 1.21997 -4.44357 0
M  V30 3868 H 350.245 1.25418 -3.97063 0
M  V30 3869 H 352.842 4.00276 -3.54519 0
M  V30 3870 H 353.185 3.72684 -1.85505 0
M  V30 3871 H 353.718 2.53505 -3.06562 0
M  V30 3872 H 350.457 2.49181 -6.06291 0
M  V30 3873 H 349.977 3.62487 -4.77873 0
M  V30 3874 H 351.656 3.60474 -5.37278 0
M  V30 3875 N 351.788 1.33704 0.83433 0
M  V30 3876 C 353.018 1.28281 1.6195 0
M  V30 3877 C 353.426 -0.147603 1.88623 0
M  V30 3878 O 352.769 -1.1016 1.47005 0
M  V30 3879 C 352.831 1.99386 2.99141 0
M  V30 3880 C 352.495 3.48681 2.95416 0
M  V30 3881 C 353.492 4.438 2.70809 0
M  V30 3882 C 351.177 3.90925 3.15409 0
M  V30 3883 C 353.171 5.79138 2.66229 0
M  V30 3884 C 350.858 5.26366 3.10454 0
M  V30 3885 C 351.856 6.20284 2.85895 0
M  V30 3886 O 351.544 7.53245 2.80852 0
M  V30 3887 H 351.276 0.44315 0.510484 0
M  V30 3888 H 353.83 1.76711 1.04702 0
M  V30 3889 H 352.06 1.45554 3.58261 0
M  V30 3890 H 353.749 1.87403 3.60049 0
M  V30 3891 H 354.515 4.12485 2.5511 0
M  V30 3892 H 350.394 3.18229 3.33543 0
M  V30 3893 H 353.938 6.52416 2.4698 0
M  V30 3894 H 349.835 5.57304 3.25703 0
M  V30 3895 H 350.603 7.62846 2.96661 0
M  V30 3896 N 353.266 -1.05314 1.17247 0
M  V30 3897 C 354.515 -1.77685 0.954521 0
M  V30 3898 C 354.828 -1.88616 -0.518025 0
M  V30 3899 O 356.034 -2.57714 -0.854144 0
M  V30 3900 C 354.49 -3.19402 1.65863 0
M  V30 3901 C 354.098 -3.16605 3.16963 0
M  V30 3902 C 355.842 -3.96237 1.52303 0
M  V30 3903 C 353.749 -4.53103 3.80068 0
M  V30 3904 H 352.679 -0.666 0.353496 0
M  V30 3905 H 355.33 -1.1805 1.40486 0
M  V30 3906 H 353.712 -3.79355 1.13602 0
M  V30 3907 H 354.886 -2.66176 3.76148 0
M  V30 3908 H 353.201 -2.53268 3.30521 0
M  V30 3909 H 355.798 -4.97157 1.96822 0
M  V30 3910 H 356.141 -4.136 0.473401 0
M  V30 3911 H 356.674 -3.42829 2.01775 0
M  V30 3912 H 353.413 -4.40946 4.85023 0
M  V30 3913 H 352.933 -5.03686 3.2567 0
M  V30 3914 H 354.612 -5.22045 3.82202 0
M  V30 3915 N 354.744 -0.972509 -1.24016 0
M  V30 3916 C 355.707 -0.511403 -2.23422 0
M  V30 3917 C 356.707 0.394679 -1.55881 0
M  V30 3918 O 357.897 0.189469 -1.73167 0
M  V30 3919 C 355.029 0.258769 -3.39916 0
M  V30 3920 H 356.222 -1.39024 -2.6573 0
M  V30 3921 H 353.775 -0.757585 -1.36713 0
M  V30 3922 H 354.51 1.1545 -3.03054 0
M  V30 3923 H 354.295 -0.391522 -3.9014 0
M  V30 3924 H 355.785 0.570244 -4.13688 0
M  V30 3925 N 356.222 1.38976 -0.743202 0
M  V30 3926 C 357.471 1.99581 -0.291592 0
M  V30 3927 C 357.784 1.59656 1.13001 0
M  V30 3928 O 358.99 2.13157 1.68156 0
M  V30 3929 C 357.446 3.56813 -0.470391 0
M  V30 3930 C 357.054 4.05695 -1.90041 0
M  V30 3931 C 358.798 4.24423 -0.0809709 0
M  V30 3932 C 356.705 5.5553 -2.02832 0
M  V30 3933 H 355.635 0.746615 -0.105272 0
M  V30 3934 H 358.286 1.58872 -0.918258 0
M  V30 3935 H 356.668 3.95359 0.225299 0
M  V30 3936 H 357.842 3.78464 -2.62872 0
M  V30 3937 H 356.157 3.50775 -2.24379 0
M  V30 3938 H 358.754 5.34474 -0.155445 0
M  V30 3939 H 359.097 4.04962 0.96497 0
M  V30 3940 H 359.63 3.9108 -0.728124 0
M  V30 3941 H 356.369 5.79881 -3.05643 0
M  V30 3942 H 355.889 5.84537 -1.34448 0
M  V30 3943 H 357.568 6.21069 -1.81335 0
M  V30 3944 N 357.7 0.491464 1.49741 0
M  V30 3945 C 358.63 -0.28154 2.31796 0
M  V30 3946 C 359.611 -0.971473 1.3963 0
M  V30 3947 O 360.796 -0.964719 1.68543 0
M  V30 3948 C 357.926 -1.35203 3.19902 0
M  V30 3949 C 356.88 -0.782529 4.20786 0
M  V30 3950 C 356.206 -1.95283 4.97764 0
M  V30 3951 C 357.506 0.21999 5.21837 0
M  V30 3952 H 359.2 0.403355 2.96671 0
M  V30 3953 H 356.746 0.195425 1.42668 0
M  V30 3954 H 358.699 -1.90045 3.76113 0
M  V30 3955 H 357.423 -2.06598 2.52953 0
M  V30 3956 H 356.082 -0.255928 3.65706 0
M  V30 3957 H 355.73 -2.65423 4.2727 0
M  V30 3958 H 355.43 -1.57789 5.66018 0
M  V30 3959 H 356.954 -2.50577 5.56816 0
M  V30 3960 H 358.368 -0.23996 5.72798 0
M  V30 3961 H 356.765 0.51026 5.97927 0
M  V30 3962 H 357.835 1.13911 4.7133 0
M  V30 3963 N 359.178 -1.55987 0.224894 0
M  V30 3964 C 360.403 -2.03232 -0.41369 0
M  V30 3965 C 360.828 -1.10359 -1.52323 0
M  V30 3966 O 360.186 -0.092395 -1.81064 0
M  V30 3967 C 360.234 -3.48682 -0.919405 0
M  V30 3968 O 359.338 -3.58947 -2.03054 0
M  V30 3969 H 358.679 -0.657428 -0.0931903 0
M  V30 3970 H 361.209 -2.01679 0.34451 0
M  V30 3971 H 361.219 -3.8907 -1.22835 0
M  V30 3972 H 359.894 -4.15761 -0.107339 0
M  V30 3973 H 358.471 -3.30448 -1.72796 0
M  V30 3974 N 360.656 0.0484629 -1.57525 0
M  V30 3975 C 361.588 1.08222 -2.02041 0
M  V30 3976 C 362.601 1.33621 -0.930012 0
M  V30 3977 O 363.79 1.3145 -1.20761 0
M  V30 3978 C 360.89 2.42818 -2.36416 0
M  V30 3979 C 360.063 2.37049 -3.67596 0
M  V30 3980 C 359.122 3.53937 -3.89378 0
M  V30 3981 O 358.148 3.34308 -4.60681 0
M  V30 3982 N 359.35 4.75126 -3.3352 0
M  V30 3983 H 362.115 0.702946 -2.9134 0
M  V30 3984 H 359.676 0.236745 -1.6016 0
M  V30 3985 H 361.668 3.197 -2.48141 0
M  V30 3986 H 360.238 2.72661 -1.52888 0
M  V30 3987 H 359.458 1.45395 -3.66407 0
M  V30 3988 H 360.746 2.30318 -4.53686 0
M  V30 3989 H 360.144 4.93976 -2.75688 0
M  V30 3990 H 358.701 5.49439 -3.50656 0
M  V30 3991 N 362.134 1.5431 0.320358 0
M  V30 3992 C 363.081 1.83918 1.39438 0
M  V30 3993 C 364.051 0.686525 1.51248 0
M  V30 3994 O 365.236 0.933269 1.66417 0
M  V30 3995 C 362.376 2.075 2.75749 0
M  V30 3996 C 361.489 3.35177 2.72544 0
M  V30 3997 C 360.624 3.48704 4.00723 0
M  V30 3998 C 359.663 4.70244 3.91838 0
M  V30 3999 N 358.8 4.80679 5.11754 0
M  V30 4000 H 363.64 2.75544 1.13489 0
M  V30 4001 H 361.177 1.36459 0.549309 0
M  V30 4002 H 363.135 2.19166 3.54996 0
M  V30 4003 H 361.765 1.19163 3 0
M  V30 4004 H 360.817 3.32233 1.85271 0
M  V30 4005 H 362.129 4.24534 2.61863 0
M  V30 4006 H 361.283 3.59928 4.88402 0
M  V30 4007 H 360.022 2.57445 4.14214 0
M  V30 4008 H 359.027 4.59072 3.02544 0
M  V30 4009 H 360.252 5.6289 3.7991 0
M  V30 4010 H 358.198 3.92337 5.25745 0
M  V30 4011 H 358.115 5.64007 5.0342 0
M  V30 4012 H 359.383 4.96239 6.01138 0
M  V30 4013 N 363.613 -0.582584 1.46437 0
M  V30 4014 C 364.86 -1.34079 1.51753 0
M  V30 4015 C 365.188 -1.93762 0.169299 0
M  V30 4016 O 364.443 -1.76989 -0.835062 0
M  V30 4017 C 364.742 -2.48964 2.56421 0
M  V30 4018 C 364.408 -2.07273 4.00436 0
M  V30 4019 C 363.07 -1.95618 4.39644 0
M  V30 4020 C 365.422 -1.75111 4.90903 0
M  V30 4021 C 362.75 -1.5006 5.67185 0
M  V30 4022 C 365.102 -1.31032 6.18881 0
M  V30 4023 C 363.766 -1.17954 6.56996 0
M  V30 4024 H 363.036 -0.49063 0.555304 0
M  V30 4025 H 365.683 -0.656007 1.79913 0
M  V30 4026 H 363.988 -3.22889 2.21923 0
M  V30 4027 H 365.685 -3.07178 2.57765 0
M  V30 4028 H 362.275 -2.17279 3.69443 0
M  V30 4029 H 366.459 -1.83001 4.61329 0
M  V30 4030 H 361.715 -1.38577 5.95488 0
M  V30 4031 H 365.889 -1.052 6.88408 0
M  V30 4032 H 363.516 -0.824279 7.55718 0
M  V30 4033 N 365.091 -1.34144 -0.827227 0
M  V30 4034 C 366.502 -1.23557 -1.39966 0
M  V30 4035 C 366.853 0.140731 -1.95695 0
M  V30 4036 O 365.978 1.04087 -1.89723 0
M  V30 4037 C 366.573 -2.23708 -2.54441 0
M  V30 4038 C 365.132 -2.16924 -3.07605 0
M  V30 4039 C 364.279 -2.10549 -1.80456 0
M  V30 4040 H 367.23 -1.45573 -0.631991 0
M  V30 4041 H 367.251 -1.85157 -3.32411 0
M  V30 4042 H 366.763 -3.23866 -2.13851 0
M  V30 4043 H 364.864 -1.20107 -3.52711 0
M  V30 4044 H 364.977 -3.07988 -3.66988 0
M  V30 4045 H 363.341 -1.56203 -2.01178 0
M  V30 4046 H 364.124 -3.12535 -1.42046 0
M  V30 4047 N 366.569 1.04691 -1.17803 0
M  V30 4048 C 367.516 2.12557 -0.899343 0
M  V30 4049 C 368.486 1.65339 0.158771 0
M  V30 4050 O 369.671 1.90789 0.0204797 0
M  V30 4051 C 366.811 3.42481 -0.424315 0
M  V30 4052 C 365.924 4.03346 -1.54713 0
M  V30 4053 C 365.059 5.21208 -1.02546 0
M  V30 4054 C 364.098 5.74089 -2.12339 0
M  V30 4055 N 363.235 6.83247 -1.61612 0
M  V30 4056 H 368.075 2.35734 -1.823 0
M  V30 4057 H 365.612 1.1564 -0.909159 0
M  V30 4058 H 367.57 4.16996 -0.130421 0
M  V30 4059 H 366.2 3.19471 0.462377 0
M  V30 4060 H 365.252 3.2622 -1.95664 0
M  V30 4061 H 366.564 4.38628 -2.37501 0
M  V30 4062 H 365.718 6.02812 -0.685718 0
M  V30 4063 H 364.457 4.87414 -0.167084 0
M  V30 4064 H 363.462 4.91111 -2.47165 0
M  V30 4065 H 364.687 6.0993 -2.98601 0
M  V30 4066 H 362.633 6.5134 -0.780533 0
M  V30 4067 H 362.55 7.17559 -2.38003 0
M  V30 4068 H 363.818 7.68491 -1.30545 0
M  V30 4069 N 368.047 0.979072 1.23499 0
M  V30 4070 C 369.296 0.642751 1.91185 0
M  V30 4071 C 369.609 -0.827253 1.77245 0
M  V30 4072 O 370.815 -1.27458 2.39722 0
M  V30 4073 C 369.271 1.09901 3.42709 0
M  V30 4074 C 368.879 2.59327 3.65313 0
M  V30 4075 C 370.623 0.836371 4.16179 0
M  V30 4076 C 368.53 2.98627 5.10467 0
M  V30 4077 H 367.46 0.236698 0.715884 0
M  V30 4078 H 370.111 1.1868 1.39955 0
M  V30 4079 H 368.493 0.48319 3.93041 0
M  V30 4080 H 369.667 3.26136 3.25533 0
M  V30 4081 H 367.982 2.83323 3.05151 0
M  V30 4082 H 370.579 1.10586 5.23139 0
M  V30 4083 H 370.922 -0.227509 4.15678 0
M  V30 4084 H 371.455 1.41371 3.71832 0
M  V30 4085 H 368.194 4.04133 5.16098 0
M  V30 4086 H 367.714 2.3651 5.51201 0
M  V30 4087 H 369.393 2.89159 5.78788 0
M  V30 4088 N 369.525 -1.3858 0.750561 0
M  V30 4089 C 370.435 -2.34278 0.122825 0
M  V30 4090 C 371.451 -1.59116 -0.704131 0
M  V30 4091 O 372.627 -1.91326 -0.628987 0
M  V30 4092 C 369.692 -3.38221 -0.762086 0
M  V30 4093 C 368.753 -4.29227 0.078896 0
M  V30 4094 C 367.986 -5.28205 -0.763874 0
M  V30 4095 O 368.209 -5.34112 -2.00201 0
M  V30 4096 O 367.143 -6.01618 -0.18428 0
M  V30 4097 H 370.969 -2.89649 0.913088 0
M  V30 4098 H 368.554 -1.40374 0.511417 0
M  V30 4099 H 370.436 -4.01872 -1.26793 0
M  V30 4100 H 369.111 -2.85211 -1.5309 0
M  V30 4101 H 368.018 -3.68747 0.630621 0
M  V30 4102 H 369.351 -4.85484 0.810289 0
M  V30 4103 N 371.003 -0.499398 -1.49478 0
M  V30 4104 C 372.25 0.0456899 -2.02448 0
M  V30 4105 C 372.578 1.37142 -1.37921 0
M  V30 4106 O 371.833 1.89111 -0.503544 0
M  V30 4107 C 372.132 0.248424 -3.56536 0
M  V30 4108 C 371.798 -0.999107 -4.39692 0
M  V30 4109 C 370.46 -1.34108 -4.62135 0
M  V30 4110 C 372.812 -1.82842 -4.88076 0
M  V30 4111 C 370.14 -2.51191 -5.30208 0
M  V30 4112 C 372.492 -2.99076 -5.57437 0
M  V30 4113 C 371.156 -3.33655 -5.78127 0
M  V30 4114 H 370.426 0.0167191 -0.740811 0
M  V30 4115 H 373.073 -0.65923 -1.79795 0
M  V30 4116 H 371.378 1.03586 -3.77859 0
M  V30 4117 H 373.075 0.684605 -3.95113 0
M  V30 4118 H 369.665 -0.722729 -4.22463 0
M  V30 4119 H 373.849 -1.57737 -4.70566 0
M  V30 4120 H 369.105 -2.78221 -5.44429 0
M  V30 4121 H 373.279 -3.63664 -5.93904 0
M  V30 4122 H 370.906 -4.24483 -6.30649 0
M  V30 4123 N 372.481 1.55866 -0.233164 0
M  V30 4124 C 373.428 2.20796 0.67215 0
M  V30 4125 C 374.398 1.16731 1.18166 0
M  V30 4126 O 375.583 1.45129 1.23864 0
M  V30 4127 C 372.723 2.90072 1.86955 0
M  V30 4128 C 371.836 4.08759 1.39786 0
M  V30 4129 C 370.971 4.65787 2.55374 0
M  V30 4130 C 370.01 5.76752 2.04998 0
M  V30 4131 N 369.147 6.28021 3.13901 0
M  V30 4132 H 373.987 2.9779 0.111749 0
M  V30 4133 H 371.524 1.47036 0.0434007 0
M  V30 4134 H 373.482 3.28428 2.57276 0
M  V30 4135 H 372.112 2.15575 2.40265 0
M  V30 4136 H 371.164 3.7581 0.589173 0
M  V30 4137 H 372.476 4.88906 0.98856 0
M  V30 4138 H 371.63 5.06646 3.33758 0
M  V30 4139 H 370.369 3.84828 2.99598 0
M  V30 4140 H 369.374 5.35383 1.25079 0
M  V30 4141 H 370.599 6.59553 1.61759 0
M  V30 4142 H 368.545 5.49971 3.57586 0
M  V30 4143 H 368.462 7.03323 2.7726 0
M  V30 4144 H 369.73 6.73538 3.92386 0
M  V30 4145 N 373.959 -0.0401083 1.57549 0
M  V30 4146 C 374.869 -1.06133 2.0922 0
M  V30 4147 C 375.885 -1.40356 1.0284 0
M  V30 4148 O 377.061 -1.49897 1.34509 0
M  V30 4149 C 374.126 -2.34658 2.55218 0
M  V30 4150 C 373.187 -2.07117 3.76033 0
M  V30 4151 C 372.42 -3.29514 4.19829 0
M  V30 4152 O 372.643 -4.39794 3.63232 0
M  V30 4153 O 371.577 -3.15863 5.12362 0
M  V30 4154 H 375.403 -0.652244 2.96613 0
M  V30 4155 H 372.988 -0.256368 1.47184 0
M  V30 4156 H 374.87 -3.10239 2.85184 0
M  V30 4157 H 373.545 -2.74883 1.70941 0
M  V30 4158 H 372.452 -1.29139 3.51104 0
M  V30 4159 H 373.785 -1.71754 4.61261 0
M  V30 4160 N 375.437 -1.54477 -0.31217 0
M  V30 4161 C 376.367 -1.87652 -1.38957 0
M  V30 4162 C 377.348 -0.734358 -1.53431 0
M  V30 4163 O 378.533 -0.98911 -1.67123 0
M  V30 4164 C 375.663 -2.11396 -2.75552 0
M  V30 4165 C 374.617 -3.27243 -2.75855 0
M  V30 4166 C 373.943 -3.36382 -4.15633 0
M  V30 4167 C 375.243 -4.64622 -2.38587 0
M  V30 4168 H 376.937 -2.77887 -1.11442 0
M  V30 4169 H 374.483 -1.33707 -0.534655 0
M  V30 4170 H 376.436 -2.33189 -3.51 0
M  V30 4171 H 375.16 -1.17921 -3.04569 0
M  V30 4172 H 373.819 -3.05356 -2.02863 0
M  V30 4173 H 373.467 -2.40445 -4.41809 0
M  V30 4174 H 373.167 -4.14249 -4.1674 0
M  V30 4175 H 374.691 -3.60422 -4.92877 0
M  V30 4176 H 376.105 -4.86219 -3.03749 0
M  V30 4177 H 374.502 -5.45121 -2.50925 0
M  V30 4178 H 375.572 -4.66097 -1.33723 0
M  V30 4179 N 376.915 0.57481 -1.46744 0
M  V30 4180 C 378.164 1.32898 -1.51727 0
M  V30 4181 C 378.477 1.948 -0.176692 0
M  V30 4182 O 379.683 2.71299 -0.104385 0
M  V30 4183 C 378.139 2.40901 -2.67385 0
M  V30 4184 C 377.747 1.85266 -4.07898 0
M  V30 4185 C 379.491 3.17609 -2.81646 0
M  V30 4186 C 377.398 2.90945 -5.14883 0
M  V30 4187 H 376.328 0.499631 -0.564699 0
M  V30 4188 H 378.979 0.612536 -1.72975 0
M  V30 4189 H 377.361 3.15379 -2.39483 0
M  V30 4190 H 378.535 1.17278 -4.45626 0
M  V30 4191 H 376.85 1.21199 -3.98371 0
M  V30 4192 H 379.447 3.96493 -3.58744 0
M  V30 4193 H 379.79 3.70696 -1.89448 0
M  V30 4194 H 380.323 2.50239 -3.09233 0
M  V30 4195 H 377.062 2.42736 -6.089 0
M  V30 4196 H 376.582 3.57398 -4.81691 0
M  V30 4197 H 378.261 3.54755 -5.41071 0
M  V30 4198 N 378.394 1.34581 0.820102 0
M  V30 4199 C 379.619 1.30333 1.61332 0
M  V30 4200 C 380.044 -0.119339 1.87721 0
M  V30 4201 O 379.402 -1.08197 1.45475 0
M  V30 4202 C 379.45 2.10258 2.92957 0
M  V30 4203 O 378.554 1.47404 3.85157 0
M  V30 4204 H 377.895 0.447488 0.490561 0
M  V30 4205 H 380.425 1.77425 1.01889 0
M  V30 4206 H 380.435 2.21718 3.42498 0
M  V30 4207 H 379.11 3.13693 2.73074 0
M  V30 4208 H 377.687 1.44703 3.43679 0
M  V30 4209 N 379.872 -1.04064 1.18357 0
M  V30 4210 C 380.802 -2.14001 0.934113 0
M  V30 4211 C 381.783 -1.69616 -0.128186 0
M  V30 4212 O 382.968 -1.94185 0.0244093 0
M  V30 4213 C 380.098 -3.44253 0.459066 0
M  V30 4214 C 379.052 -4.02261 1.46185 0
M  V30 4215 C 378.378 -5.27992 0.844322 0
M  V30 4216 C 379.678 -4.38432 2.83856 0
M  V30 4217 H 381.372 -2.35127 1.85352 0
M  V30 4218 H 378.918 -1.12998 0.892604 0
M  V30 4219 H 380.871 -4.20522 0.271907 0
M  V30 4220 H 379.595 -3.22813 -0.495912 0
M  V30 4221 H 378.254 -3.28074 1.63595 0
M  V30 4222 H 377.902 -5.02862 -0.117845 0
M  V30 4223 H 377.602 -5.67765 1.51384 0
M  V30 4224 H 379.126 -6.06938 0.667693 0
M  V30 4225 H 380.54 -5.05688 2.70098 0
M  V30 4226 H 378.937 -4.89254 3.47491 0
M  V30 4227 H 380.007 -3.4826 3.37406 0
M  V30 4228 N 381.35 -0.985608 -1.22978 0
M  V30 4229 C 382.596 -0.65836 -1.91816 0
M  V30 4230 C 382.929 0.806692 -1.76653 0
M  V30 4231 O 382.204 1.58252 -1.13078 0
M  V30 4232 C 382.487 -1.056 -3.44268 0
M  V30 4233 C 382.34 -2.57906 -3.68516 0
M  V30 4234 C 383.659 -0.603781 -4.35939 0
M  V30 4235 H 380.778 -0.24065 -0.696604 0
M  V30 4236 H 383.42 -1.22783 -1.44998 0
M  V30 4237 H 381.57 -0.571445 -3.84274 0
M  V30 4238 H 383.242 -3.13976 -3.3796 0
M  V30 4239 H 381.485 -3.00305 -3.13048 0
M  V30 4240 H 382.156 -2.80779 -4.75255 0
M  V30 4241 H 384.632 -1.01987 -4.03408 0
M  V30 4242 H 383.508 -0.910383 -5.41298 0
M  V30 4243 H 383.769 0.495761 -4.39312 0
M  V30 4244 N 382.828 1.3818 -0.7579 0
M  V30 4245 C 383.738 2.3421 -0.135247 0
M  V30 4246 C 384.754 1.59487 0.695683 0
M  V30 4247 O 385.93 1.91657 0.618832 0
M  V30 4248 C 382.995 3.3862 0.744139 0
M  V30 4249 C 382.056 4.2918 -0.101658 0
M  V30 4250 C 381.289 5.28603 0.735851 0
M  V30 4251 O 381.512 5.35166 1.97366 0
M  V30 4252 O 380.446 6.01707 0.152372 0
M  V30 4253 H 384.272 2.8916 -0.928436 0
M  V30 4254 H 381.857 1.40101 -0.518855 0
M  V30 4255 H 383.739 4.02539 1.2466 0
M  V30 4256 H 382.414 2.86019 1.51575 0
M  V30 4257 H 381.321 3.68407 -0.650167 0
M  V30 4258 H 382.654 4.85048 -0.836024 0
M  V30 4259 N 384.306 0.507319 1.49211 0
M  V30 4260 C 385.583 -0.0982702 1.95353 0
M  V30 4261 C 385.963 -1.53516 1.449 0
M  V30 4262 O 385.311 -2.18594 0.66551 0
M  V30 4263 C 385.521 -0.00440283 3.49 0
M  V30 4264 C 386.869 -0.175147 4.24239 0
M  V30 4265 O 387.893 -0.0792891 3.56112 0
M  V30 4266 O 386.752 -0.37276 5.45227 0
M  V30 4267 H 383.846 -0.0918236 0.821887 0
M  V30 4268 H 386.392 0.570307 1.5983 0
M  V30 4269 H 385.164 0.997402 3.78375 0
M  V30 4270 H 384.787 -0.712845 3.91158 0
M  V30 4271 N 385.784 -1.5574 0.241426 0
M  V30 4272 C 387.03 -1.99104 -0.385406 0
M  V30 4273 C 387.363 -1.1293 -1.57988 0
M  V30 4274 O 386.638 -0.191449 -1.93555 0
M  V30 4275 C 386.921 -3.51087 -0.800616 0
M  V30 4276 C 386.774 -4.48028 0.398874 0
M  V30 4277 C 388.093 -4.08015 -1.64959 0
M  V30 4278 H 385.212 -0.723848 -0.138614 0
M  V30 4279 H 387.854 -1.86903 0.341642 0
M  V30 4280 H 386.004 -3.61615 -1.4201 0
M  V30 4281 H 387.676 -4.49487 1.03726 0
M  V30 4282 H 385.919 -4.21077 1.04293 0
M  V30 4283 H 386.59 -5.51962 0.0651056 0
M  V30 4284 H 389.066 -4.00555 -1.12672 0
M  V30 4285 H 387.942 -5.14635 -1.90898 0
M  V30 4286 H 388.203 -3.56131 -2.61961 0
M  V30 4287 N 387.262 0.0317525 -1.57568 0
M  V30 4288 C 388.487 0.738664 -1.938 0
M  V30 4289 C 388.912 1.68242 -0.841208 0
M  V30 4290 O 388.27 1.80157 0.203267 0
M  V30 4291 C 388.318 1.47417 -3.29091 0
M  V30 4292 O 387.422 2.5872 -3.2115 0
M  V30 4293 H 386.763 0.198856 -0.633524 0
M  V30 4294 H 389.293 -0.0119713 -2.04596 0
M  V30 4295 H 389.303 1.84468 -3.63917 0
M  V30 4296 H 387.978 0.781988 -4.08482 0
M  V30 4297 H 386.555 2.24231 -2.97951 0
M  V30 4298 N 388.74 1.54641 0.303973 0
M  V30 4299 C 389.965 1.78092 1.06292 0
M  V30 4300 C 390.39 0.537342 1.80262 0
M  V30 4301 O 389.748 -0.511993 1.7392 0
M  V30 4302 C 389.796 2.98612 2.02147 0
M  V30 4303 O 388.9 2.71528 3.10397 0
M  V30 4304 H 388.241 0.589548 0.305497 0
M  V30 4305 H 390.771 2.01716 0.3423 0
M  V30 4306 H 390.781 3.265 2.44667 0
M  V30 4307 H 389.456 3.88785 1.47714 0
M  V30 4308 H 388.033 2.54648 2.72413 0
M  V30 4309 N 390.218 -0.567019 1.47046 0
M  V30 4310 C 391.166 -1.69593 1.59188 0
M  V30 4311 C 392.16 -1.63046 0.459609 0
M  V30 4312 O 393.366 -1.6835 0.637058 0
M  V30 4313 H 389.741 -0.560993 0.500791 0
M  V30 4314 H 391.712 -1.56488 2.54075 0
M  V30 4315 C 390.461 -3.07964 1.61411 0
M  V30 4316 H 389.784 -3.13679 2.47881 0
M  V30 4317 H 391.224 -3.86671 1.73958 0
M  V30 4318 C 389.683 -3.35123 0.34559 0
M  V30 4319 O 390.213 -3.97812 -0.557521 0
M  V30 4320 N 388.419 -2.89699 0.22864 0
M  V30 4321 H 387.966 -2.38863 0.964479 0
M  V30 4322 H 387.924 -3.08242 -0.619192 0
M  V30 4323 N 391.696 -1.35014 -0.812953 0
M  V30 4324 C 392.926 -1.30841 -1.59888 0
M  V30 4325 C 393.334 0.117576 -1.88834 0
M  V30 4326 O 392.677 1.07807 -1.48739 0
M  V30 4327 C 392.739 -2.0412 -2.95931 0
M  V30 4328 C 392.403 -3.53336 -2.89832 0
M  V30 4329 C 393.4 -4.48052 -2.63714 0
M  V30 4330 C 391.085 -3.95894 -3.0915 0
M  V30 4331 C 393.079 -5.833 -2.56982 0
M  V30 4332 C 390.766 -5.31239 -3.0204 0
M  V30 4333 C 391.764 -6.24754 -2.75991 0
M  V30 4334 O 391.452 -7.57617 -2.68833 0
M  V30 4335 H 391.184 -0.451215 -0.50337 0
M  V30 4336 H 393.738 -1.78354 -1.01877 0
M  V30 4337 H 391.968 -1.51235 -3.559 0
M  V30 4338 H 393.657 -1.93107 -3.57022 0
M  V30 4339 H 394.423 -4.16492 -2.48515 0
M  V30 4340 H 390.302 -3.23495 -3.28438 0
M  V30 4341 H 393.846 -6.56263 -2.36569 0
M  V30 4342 H 389.743 -5.62415 -3.16796 0
M  V30 4343 H 390.511 -7.67469 -2.84487 0
M  V30 4344 N 393.175 1.03435 -1.18907 0
M  V30 4345 C 394.452 1.73778 -0.89781 0
M  V30 4346 C 394.832 2.02458 0.597832 0
M  V30 4347 O 394.18 1.67482 1.55441 0
M  V30 4348 C 394.39 3.01845 -1.75187 0
M  V30 4349 C 395.738 3.7546 -1.9828 0
M  V30 4350 O 396.762 3.11759 -1.72293 0
M  V30 4351 O 395.621 4.89966 -2.42065 0
M  V30 4352 H 392.715 0.75651 -0.334098 0
M  V30 4353 H 395.261 1.09444 -1.29693 0
M  V30 4354 H 394.033 2.76836 -2.76545 0
M  V30 4355 H 393.656 3.73919 -1.35167 0
M  V30 4356 N 394.653 0.992116 1.22453 0
M  V30 4357 C 395.901 0.666215 1.90804 0
M  V30 4358 C 396.222 -0.804152 1.77647 0
M  V30 4359 O 395.492 -1.57629 1.16318 0
M  V30 4360 H 394.072 0.243423 0.706225 0
M  V30 4361 H 396.734 1.25845 1.48825 0
M  V30 4362 H 395.83 0.928069 2.97982 0
M  V30 4363 N 396.131 -1.37776 0.765217 0
M  V30 4364 C 397.371 -2.01691 0.331669 0
M  V30 4365 C 397.735 -1.59432 -1.06983 0
M  V30 4366 O 398.936 -2.15761 -1.60314 0
M  V30 4367 C 397.207 -3.54385 0.463261 0
M  V30 4368 S 398.766 -4.38652 0.114011 0
M  V30 4369 H 395.584 -0.699387 0.127979 0
M  V30 4370 H 398.186 -1.68084 0.998396 0
M  V30 4371 H 396.89 -3.82629 1.48401 0
M  V30 4372 H 396.421 -3.92783 -0.220246 0
M  V30 4373 H 398.436 -4.84021 -1.09261 0
M  V30 4374 N 397.609 -0.515225 -1.4894 0
M  V30 4375 C 398.849 0.0223983 -2.04388 0
M  V30 4376 C 399.213 1.32961 -1.38511 0
M  V30 4377 O 400.414 1.95236 -1.8476 0
M  V30 4378 C 398.685 0.157056 -3.57055 0
M  V30 4379 S 400.244 0.646875 -4.34006 0
M  V30 4380 H 397.062 -0.00500662 -0.710982 0
M  V30 4381 H 399.664 -0.69243 -1.82827 0
M  V30 4382 H 398.368 -0.799412 -4.02539 0
M  V30 4383 H 397.899 0.896704 -3.83044 0
M  V30 4384 H 399.914 1.91381 -4.57808 0
M  V30 4385 N 399.087 1.5561 -0.249682 0
M  V30 4386 C 399.997 2.25143 0.659375 0
M  V30 4387 C 401.013 1.2685 1.19101 0
M  V30 4388 O 402.189 1.59732 1.22669 0
M  V30 4389 C 399.254 2.93945 1.8384 0
M  V30 4390 C 398.315 4.07655 1.34596 0
M  V30 4391 C 397.548 4.73167 2.46878 0
M  V30 4392 O 397.771 4.37768 3.65671 0
M  V30 4393 O 396.705 5.61623 2.16478 0
M  V30 4394 H 400.531 3.03545 0.0968698 0
M  V30 4395 H 398.116 1.49389 -0.018074 0
M  V30 4396 H 399.998 3.37271 2.52638 0
M  V30 4397 H 398.673 2.18481 2.38847 0
M  V30 4398 H 397.58 3.68839 0.625174 0
M  V30 4399 H 398.913 4.84946 0.841941 0
M  V30 4400 N 400.565 -0.0233959 1.57583 0
M  V30 4401 C 401.813 -0.711654 1.89156 0
M  V30 4402 C 402.134 -1.75591 0.848096 0
M  V30 4403 O 401.404 -1.95547 -0.117566 0
M  V30 4404 H 399.984 -0.265835 0.698098 0
M  V30 4405 H 402.646 0.0119948 1.94896 0
M  V30 4406 H 401.742 -1.19766 2.88206 0
M  V30 4407 N 402.043 -1.548 -0.295768 0
M  V30 4408 C 403.32 -1.65014 -1.05023 0
M  V30 4409 C 403.7 -0.501805 -2.05049 0
M  V30 4410 O 403.048 0.500869 -2.22943 0
M  V30 4411 C 403.258 -3.03252 -1.72741 0
M  V30 4412 C 404.606 -3.60242 -2.24746 0
M  V30 4413 O 405.63 -3.05737 -1.82765 0
M  V30 4414 O 404.489 -4.55687 -3.01681 0
M  V30 4415 H 401.583 -0.669314 -0.485744 0
M  V30 4416 H 404.129 -1.67144 -0.293438 0
M  V30 4417 H 402.901 -3.7827 -1.00138 0
M  V30 4418 H 402.524 -3.04922 -2.55163 0
M  V30 4419 N 403.521 0.559213 -1.47345 0
M  V30 4420 C 404.767 1.31843 -1.54095 0
M  V30 4421 C 405.1 1.93149 -0.201726 0
M  V30 4422 O 404.375 1.77759 0.789428 0
M  V30 4423 C 404.658 2.43006 -2.65744 0
M  V30 4424 C 404.511 1.86581 -4.09277 0
M  V30 4425 C 405.83 3.44943 -2.73318 0
M  V30 4426 H 402.949 0.478012 -0.560957 0
M  V30 4427 H 405.591 0.625977 -1.79392 0
M  V30 4428 H 403.741 3.02072 -2.44305 0
M  V30 4429 H 405.413 1.31792 -4.42073 0
M  V30 4430 H 403.656 1.17268 -4.17649 0
M  V30 4431 H 404.327 2.66933 -4.83168 0
M  V30 4432 H 406.803 2.95793 -2.92653 0
M  V30 4433 H 405.679 4.20153 -3.53218 0
M  V30 4434 H 405.94 4.03665 -1.80296 0
M  V30 4435 N 404.999 1.35443 0.805782 0
M  V30 4436 C 406.245 1.28952 1.56522 0
M  V30 4437 C 406.578 -0.135597 1.93726 0
M  V30 4438 O 405.853 -1.08516 1.61414 0
M  V30 4439 C 406.136 2.19678 2.85331 0
M  V30 4440 C 405.989 3.7081 2.54598 0
M  V30 4441 C 407.308 2.09495 3.8704 0
M  V30 4442 H 404.427 0.469764 0.567883 0
M  V30 4443 H 407.069 1.65851 0.927001 0
M  V30 4444 H 405.219 1.8834 3.39795 0
M  V30 4445 H 406.891 4.12593 2.06312 0
M  V30 4446 H 405.134 3.91051 1.8778 0
M  V30 4447 H 405.805 4.29679 3.46525 0
M  V30 4448 H 408.281 2.37045 3.41978 0
M  V30 4449 H 407.157 2.75173 4.74943 0
M  V30 4450 H 407.418 1.07714 4.28777 0
M  V30 4451 N 406.477 -1.02803 1.19454 0
M  V30 4452 C 407.409 -2.11181 0.890807 0
M  V30 4453 C 408.422 -1.6238 -0.116829 0
M  V30 4454 O 409.611 -1.78144 0.112694 0
M  V30 4455 C 406.711 -3.37461 0.311942 0
M  V30 4456 C 405.884 -4.15446 1.36834 0
M  V30 4457 C 404.943 -5.20039 0.802864 0
M  V30 4458 O 403.969 -5.49602 1.48077 0
M  V30 4459 N 405.171 -5.79165 -0.393417 0
M  V30 4460 H 407.936 -2.37827 1.82369 0
M  V30 4461 H 405.497 -1.19101 1.09666 0
M  V30 4462 H 407.489 -4.0462 -0.0802225 0
M  V30 4463 H 406.059 -3.08156 -0.52524 0
M  V30 4464 H 405.279 -3.43423 1.93531 0
M  V30 4465 H 406.567 -4.64335 2.08015 0
M  V30 4466 H 405.965 -5.57466 -0.961658 0
M  V30 4467 H 404.522 -6.47729 -0.727351 0
M  V30 4468 N 407.956 -0.998596 -1.21925 0
M  V30 4469 C 409.196 -0.685948 -1.92546 0
M  V30 4470 C 409.56 0.768441 -1.75952 0
M  V30 4471 O 410.761 1.19277 -2.40887 0
M  V30 4472 C 409.032 -1.08767 -3.40448 0
M  V30 4473 S 410.591 -0.894251 -4.29591 0
M  V30 4474 H 407.409 -0.250622 -0.665364 0
M  V30 4475 H 410.011 -1.28207 -1.47591 0
M  V30 4476 H 408.715 -2.14242 -3.50041 0
M  V30 4477 H 408.246 -0.48357 -3.90417 0
M  V30 4478 H 410.261 0.212149 -4.95746 0
M  V30 4479 N 409.434 1.37368 -0.772513 0
M  V30 4480 C 410.683 1.98918 -0.333861 0
M  V30 4481 C 410.996 1.62017 1.09589 0
M  V30 4482 O 412.202 2.16676 1.63596 0
M  V30 4483 C 410.658 3.55735 -0.545971 0
M  V30 4484 C 410.266 4.01573 -1.98603 0
M  V30 4485 C 412.01 4.24156 -0.170979 0
M  V30 4486 C 409.917 5.51102 -2.1457 0
M  V30 4487 H 408.847 0.744214 -0.121085 0
M  V30 4488 H 411.498 1.56888 -0.95175 0
M  V30 4489 H 409.88 3.95748 0.141387 0
M  V30 4490 H 411.054 3.72803 -2.7084 0
M  V30 4491 H 409.369 3.45937 -2.31769 0
M  V30 4492 H 411.966 5.34024 -0.26878 0
M  V30 4493 H 412.309 4.06917 0.878855 0
M  V30 4494 H 412.842 3.89447 -0.810914 0
M  V30 4495 H 409.581 5.73268 -3.17875 0
M  V30 4496 H 409.101 5.81554 -1.46817 0
M  V30 4497 H 410.78 6.17083 -1.94468 0
M  V30 4498 N 410.912 0.523116 1.48665 0
M  V30 4499 C 412.328 0.180511 1.58576 0
M  V30 4500 C 412.528 -1.31597 1.52592 0
M  V30 4501 O 411.584 -2.0937 1.4114 0
M  V30 4502 C 412.897 0.776949 2.90489 0
M  V30 4503 C 414.445 0.745058 3.04003 0
M  V30 4504 C 414.92 1.31995 4.38567 0
M  V30 4505 N 416.411 1.28162 4.45117 0
M  V30 4506 C 417.146 1.6964 5.47731 0
M  V30 4507 N 416.642 2.18816 6.57337 0
M  V30 4508 N 418.435 1.6092 5.38573 0
M  V30 4509 H 410.586 1.4958 1.50797 0
M  V30 4510 H 412.849 0.621772 0.715614 0
M  V30 4511 H 412.555 1.82732 3.00503 0
M  V30 4512 H 412.429 0.25007 3.7637 0
M  V30 4513 H 414.816 -0.296532 2.93606 0
M  V30 4514 H 414.897 1.30933 2.1975 0
M  V30 4515 H 414.541 2.36043 4.49718 0
M  V30 4516 H 414.471 0.731418 5.21496 0
M  V30 4517 H 416.962 0.92155 3.66491 0
M  V30 4518 H 417.275 2.48478 7.31764 0
M  V30 4519 H 415.62 2.22805 6.58318 0
M  V30 4520 H 418.811 1.22304 4.5184 0
M  V30 4521 H 418.984 1.93567 6.18414 0
M  V30 4522 N 412.39 -1.55475 0.257931 0
M  V30 4523 C 413.667 -1.91155 -0.414629 0
M  V30 4524 C 414.047 -1.18008 -1.75035 0
M  V30 4525 O 413.395 -0.301193 -2.26506 0
M  V30 4526 C 413.605 -3.44283 -0.571859 0
M  V30 4527 C 414.953 -4.15744 -0.862678 0
M  V30 4528 O 415.977 -3.50083 -0.657314 0
M  V30 4529 O 414.836 -5.31909 -1.2544 0
M  V30 4530 H 411.93 -0.796016 -0.22425 0
M  V30 4531 H 414.476 -1.66976 0.302814 0
M  V30 4532 H 413.248 -3.89558 0.368844 0
M  V30 4533 H 412.871 -3.7436 -1.33943 0
M  V30 4534 N 413.868 0.0150385 -1.57593 0
M  V30 4535 C 415.096 0.714395 -1.94175 0
M  V30 4536 C 415.511 1.68135 -0.858841 0
M  V30 4537 O 414.868 1.81766 0.163567 0
M  V30 4538 C 414.919 1.45933 -3.30735 0
M  V30 4539 O 414.64 0.531167 -4.34868 0
M  V30 4540 C 416.141 2.25456 -3.81686 0
M  V30 4541 H 413.361 0.199923 -0.640525 0
M  V30 4542 H 415.905 -0.0316096 -2.04476 0
M  V30 4543 H 414.06 2.15709 -3.21789 0
M  V30 4544 H 414.474 1.05509 -5.13778 0
M  V30 4545 H 415.948 2.731 -4.79709 0
M  V30 4546 H 416.425 3.07485 -3.13607 0
M  V30 4547 H 417.031 1.60727 -3.9376 0
M  V30 4548 N 415.346 1.54954 0.287554 0
M  V30 4549 C 416.571 1.79209 1.04397 0
M  V30 4550 C 416.996 0.556431 1.79682 0
M  V30 4551 O 416.354 -0.493518 1.74454 0
M  V30 4552 C 416.402 3.00739 1.98969 0
M  V30 4553 O 415.506 2.74805 3.075 0
M  V30 4554 H 414.847 0.592755 0.299227 0
M  V30 4555 H 417.377 2.02068 0.320886 0
M  V30 4556 H 417.387 3.29077 2.4119 0
M  V30 4557 H 416.062 3.90329 1.43582 0
M  V30 4558 H 414.639 2.57523 2.69697 0
M  V30 4559 N 416.824 -0.551391 1.4764 0
M  V30 4560 C 417.771 -1.65796 1.60563 0
M  V30 4561 C 418.741 -1.59932 0.448428 0
M  V30 4562 O 419.926 -1.78679 0.669222 0
M  V30 4563 C 417.066 -3.04108 1.63133 0
M  V30 4564 C 416.179 -3.20365 2.89811 0
M  V30 4565 C 415.314 -4.49109 2.8368 0
M  V30 4566 C 414.353 -4.58819 4.05156 0
M  V30 4567 N 413.49 -5.78926 3.97227 0
M  V30 4568 H 418.33 -1.54088 2.5507 0
M  V30 4569 H 415.867 -0.75052 1.26513 0
M  V30 4570 H 417.825 -3.84207 1.62606 0
M  V30 4571 H 416.455 -3.14637 0.721341 0
M  V30 4572 H 415.507 -2.33659 3.00179 0
M  V30 4573 H 416.819 -3.23402 3.79753 0
M  V30 4574 H 415.973 -5.37475 2.81434 0
M  V30 4575 H 414.712 -4.4856 1.91431 0
M  V30 4576 H 413.717 -3.68864 4.077 0
M  V30 4577 H 414.942 -4.61124 4.98539 0
M  V30 4578 H 412.888 -5.79314 3.07785 0
M  V30 4579 H 412.805 -5.83367 4.80853 0
M  V30 4580 H 414.073 -6.69637 3.99007 0
M  V30 4581 N 418.302 -1.35869 -0.798587 0
M  V30 4582 C 419.548 -1.2978 -1.55836 0
M  V30 4583 C 419.881 0.125322 -1.93795 0
M  V30 4584 O 419.156 1.07658 -1.61987 0
M  V30 4585 C 419.439 -2.21188 -2.84162 0
M  V30 4586 C 419.292 -3.72155 -2.52628 0
M  V30 4587 C 420.611 -2.11545 -3.85923 0
M  V30 4588 H 417.73 -0.472769 -0.565383 0
M  V30 4589 H 420.372 -1.66341 -0.918192 0
M  V30 4590 H 418.522 -1.90139 -3.38791 0
M  V30 4591 H 420.194 -4.13682 -2.04121 0
M  V30 4592 H 418.437 -3.92042 -1.85704 0
M  V30 4593 H 419.108 -4.31511 -3.44242 0
M  V30 4594 H 421.584 -2.38855 -3.40716 0
M  V30 4595 H 420.46 -2.77688 -4.73477 0
M  V30 4596 H 420.721 -1.09987 -4.282 0
M  V30 4597 N 419.78 1.02168 -1.19998 0
M  V30 4598 C 420.713 2.10232 -0.887558 0
M  V30 4599 C 421.691 1.61827 0.158317 0
M  V30 4600 O 422.875 1.88471 0.0330249 0
M  V30 4601 C 420.002 3.37092 -0.32964 0
M  V30 4602 C 419.048 4.0438 -1.3557 0
M  V30 4603 S 419.881 4.48956 -2.91888 0
M  V30 4604 C 421.037 5.79024 -2.37658 0
M  V30 4605 H 421.27 2.36409 -1.80272 0
M  V30 4606 H 418.803 1.15211 -1.0279 0
M  V30 4607 H 420.761 4.10498 -0.0142824 0
M  V30 4608 H 419.422 3.08996 0.563941 0
M  V30 4609 H 418.615 4.95632 -0.9146 0
M  V30 4610 H 418.217 3.37176 -1.61828 0
M  V30 4611 H 420.509 6.53942 -1.77103 0
M  V30 4612 H 421.452 6.27924 -3.27287 0
M  V30 4613 H 421.86 5.35043 -1.79971 0
M  V30 4614 N 421.258 1.00505 1.21394 0
M  V30 4615 C 422.206 0.558623 2.25792 0
M  V30 4616 C 423.2 -0.396848 1.64686 0
M  V30 4617 O 424.406 -0.268035 1.77993 0
M  V30 4618 H 420.781 0.1623 0.734277 0
M  V30 4619 H 422.752 1.4503 2.60785 0
M  V30 4620 C 421.501 -0.0989574 3.47559 0
M  V30 4621 H 420.824 0.627225 3.94849 0
M  V30 4622 H 422.264 -0.3746 4.22342 0
M  V30 4623 C 420.723 -1.33817 3.09184 0
M  V30 4624 O 421.253 -2.43252 3.19674 0
M  V30 4625 N 419.459 -1.21793 2.63846 0
M  V30 4626 H 419.006 -0.32746 2.5551 0
M  V30 4627 H 418.964 -2.04809 2.38539 0
M  V30 4628 N 422.737 -1.36956 0.779787 0
M  V30 4629 C 423.687 -2.27539 0.144892 0
M  V30 4630 C 424.671 -1.46493 -0.665488 0
M  V30 4631 O 425.863 -1.68968 -0.527141 0
M  V30 4632 C 422.992 -3.35512 -0.727082 0
M  V30 4633 C 422.078 -4.24001 0.0915642 0
M  V30 4634 N 422.469 -4.92757 1.14125 0
M  V30 4635 C 420.767 -4.45807 -0.131141 0
M  V30 4636 C 421.468 -5.58138 1.6388 0
M  V30 4637 N 420.444 -5.35241 0.94962 0
M  V30 4638 H 424.246 -2.78176 0.948446 0
M  V30 4639 H 421.76 -1.50169 0.618315 0
M  V30 4640 H 423.757 -3.99324 -1.19776 0
M  V30 4641 H 422.417 -2.86431 -1.52929 0
M  V30 4642 H 423.428 -4.94984 1.52353 0
M  V30 4643 H 420.105 -4.07582 -0.904621 0
M  V30 4644 H 421.495 -6.23071 2.51461 0
M  V30 4645 N 424.215 -0.530993 -1.48385 0
M  V30 4646 C 425.464 0.00474348 -2.01699 0
M  V30 4647 C 425.777 1.35227 -1.41325 0
M  V30 4648 O 426.983 1.97643 -1.86144 0
M  V30 4649 C 425.439 0.0588473 -3.59852 0
M  V30 4650 C 425.047 -1.28385 -4.2921 0
M  V30 4651 C 426.791 0.543358 -4.21008 0
M  V30 4652 C 424.698 -1.19028 -5.79298 0
M  V30 4653 H 423.628 0.00554317 -0.75398 0
M  V30 4654 H 426.279 -0.674924 -1.70637 0
M  V30 4655 H 424.661 0.803612 -3.8776 0
M  V30 4656 H 425.835 -2.04426 -4.12973 0
M  V30 4657 H 424.15 -1.70418 -3.7993 0
M  V30 4658 H 426.747 0.631351 -5.3096 0
M  V30 4659 H 427.09 1.54937 -3.86394 0
M  V30 4660 H 427.623 -0.145754 -3.97533 0
M  V30 4661 H 424.362 -2.17147 -6.18488 0
M  V30 4662 H 423.882 -0.471246 -5.97946 0
M  V30 4663 H 425.561 -0.881365 -6.40969 0
M  V30 4664 N 425.693 1.55336 -0.266172 0
M  V30 4665 C 426.933 2.01303 0.354459 0
M  V30 4666 C 427.297 1.15046 1.53715 0
M  V30 4667 O 428.498 1.50554 2.22681 0
M  V30 4668 C 426.769 3.49748 0.735579 0
M  V30 4669 S 428.328 4.1771 1.34401 0
M  V30 4670 H 425.146 0.702333 0.110674 0
M  V30 4671 H 427.748 1.91653 -0.385916 0
M  V30 4672 H 426.452 4.10181 -0.134196 0
M  V30 4673 H 425.983 3.63364 1.50764 0
M  V30 4674 H 427.998 4.20594 2.63278 0
M  V30 4675 N 427.171 -0.0066808 1.57599 0
M  V30 4676 C 428.396 -0.707738 1.94951 0
M  V30 4677 C 428.821 -1.66882 0.867868 0
M  V30 4678 O 428.179 -1.80457 -0.17458 0
M  V30 4679 C 428.227 -1.42162 3.31394 0
M  V30 4680 O 427.331 -2.53578 3.25226 0
M  V30 4681 H 426.672 -0.188752 0.636607 0
M  V30 4682 H 429.202 0.0445193 2.04552 0
M  V30 4683 H 429.212 -1.78655 3.66806 0
M  V30 4684 H 427.887 -0.716903 4.09675 0
M  V30 4685 H 426.464 -2.19463 3.01481 0
M  V30 4686 N 428.649 -1.55105 -0.279332 0
M  V30 4687 C 429.596 -1.8755 -1.34513 0
M  V30 4688 C 430.566 -0.726384 -1.49375 0
M  V30 4689 O 431.751 -0.977063 -1.63884 0
M  V30 4690 C 428.891 -2.14738 -2.70151 0
M  V30 4691 C 428.004 -3.42285 -2.63562 0
M  V30 4692 C 427.139 -3.59206 -3.91337 0
M  V30 4693 C 426.178 -4.80467 -3.79233 0
M  V30 4694 N 425.315 -4.94079 -4.98829 0
M  V30 4695 H 430.155 -2.78456 -1.06143 0
M  V30 4696 H 427.692 -1.37867 -0.512936 0
M  V30 4697 H 429.65 -2.28501 -3.49061 0
M  V30 4698 H 428.28 -1.27075 -2.96735 0
M  V30 4699 H 427.332 -3.37029 -1.76397 0
M  V30 4700 H 428.644 -4.31328 -2.50515 0
M  V30 4701 H 427.798 -3.72751 -4.78687 0
M  V30 4702 H 426.537 -2.68337 -4.07243 0
M  V30 4703 H 425.542 -4.66932 -2.90266 0
M  V30 4704 H 426.767 -5.72765 -3.64852 0
M  V30 4705 H 424.713 -4.06139 -5.15158 0
M  V30 4706 H 424.63 -5.77156 -4.8829 0
M  V30 4707 H 425.898 -5.12003 -5.8777 0
M  V30 4708 N 430.127 0.543554 -1.4793 0
M  V30 4709 C 431.059 1.665 -1.57513 0
M  V30 4710 C 432.072 1.56156 -0.460333 0
M  V30 4711 O 433.261 1.62865 -0.730573 0
M  V30 4712 C 430.361 3.05063 -1.47614 0
M  V30 4713 C 429.534 3.41024 -2.739 0
M  V30 4714 C 428.593 4.58809 -2.57645 0
M  V30 4715 O 427.619 4.62707 -3.31498 0
M  V30 4716 N 428.821 5.56149 -1.66368 0
M  V30 4717 H 431.586 1.5872 -2.5422 0
M  V30 4718 H 429.147 0.730517 -1.44482 0
M  V30 4719 H 431.139 3.81712 -1.34455 0
M  V30 4720 H 429.709 3.06994 -0.589359 0
M  V30 4721 H 428.929 2.53687 -3.01723 0
M  V30 4722 H 430.217 3.61831 -3.57709 0
M  V30 4723 H 429.615 5.55767 -1.05543 0
M  V30 4724 H 428.172 6.32071 -1.59154 0
M  V30 4725 N 431.605 1.3629 0.791371 0
M  V30 4726 C 432.882 1.20962 1.53712 0
M  V30 4727 C 433.262 -0.205021 2.10102 0
M  V30 4728 O 432.61 -1.21042 1.93807 0
M  V30 4729 C 432.82 2.29002 2.63361 0
M  V30 4730 C 434.168 2.65572 3.31295 0
M  V30 4731 O 435.192 2.2803 2.73643 0
M  V30 4732 O 434.051 3.3018 4.35481 0
M  V30 4733 H 431.145 0.47086 0.679867 0
M  V30 4734 H 433.691 1.48016 0.830021 0
M  V30 4735 H 432.463 3.2382 2.19674 0
M  V30 4736 H 432.086 2.03303 3.41692 0
M  V30 4737 N 433.083 -1.0153 1.20538 0
M  V30 4738 C 434.308 -1.79283 1.04271 0
M  V30 4739 C 434.733 -1.8372 -0.403544 0
M  V30 4740 O 434.091 -1.27321 -1.2907 0
M  V30 4741 C 434.139 -3.21535 1.63241 0
M  V30 4742 O 433.243 -4.03099 0.870908 0
M  V30 4743 H 432.584 -0.55293 0.367647 0
M  V30 4744 H 435.114 -1.27696 1.59859 0
M  V30 4745 H 435.124 -3.72243 1.6703 0
M  V30 4746 H 433.799 -3.1762 2.68497 0
M  V30 4747 H 432.376 -3.61693 0.907323 0
M  V30 4748 N 434.561 -1.01147 -1.20859 0
M  V30 4749 C 435.81 -0.693214 -1.89413 0
M  V30 4750 C 436.123 0.779969 -1.79376 0
M  V30 4751 O 437.329 1.21057 -2.43017 0
M  V30 4752 C 435.785 -1.18949 -3.39675 0
M  V30 4753 C 435.393 -2.68921 -3.58309 0
M  V30 4754 C 437.137 -0.94642 -4.13815 0
M  V30 4755 C 435.044 -3.12056 -5.0237 0
M  V30 4756 H 433.974 -0.255595 -0.709357 0
M  V30 4757 H 436.625 -1.22349 -1.36759 0
M  V30 4758 H 435.007 -0.587228 -3.91622 0
M  V30 4759 H 436.181 -3.34652 -3.16772 0
M  V30 4760 H 434.496 -2.91314 -2.97532 0
M  V30 4761 H 437.093 -1.24417 -5.20023 0
M  V30 4762 H 437.436 0.117219 -4.16135 0
M  V30 4763 H 437.969 -1.5118 -3.67953 0
M  V30 4764 H 434.708 -4.17674 -5.05202 0
M  V30 4765 H 434.228 -2.51041 -5.44737 0
M  V30 4766 H 435.907 -3.04403 -5.70918 0
M  V30 4767 N 436.039 1.36541 -0.78704 0
M  V30 4768 C 437.264 2.0409 -0.369053 0
M  V30 4769 C 437.689 1.58957 1.00569 0
M  V30 4770 O 437.047 0.756926 1.64743 0
M  V30 4771 C 437.095 3.57924 -0.438466 0
M  V30 4772 O 436.199 4.08642 0.555479 0
M  V30 4773 H 435.54 0.645142 -0.157122 0
M  V30 4774 H 438.07 1.74545 -1.06749 0
M  V30 4775 H 438.08 4.06887 -0.301218 0
M  V30 4776 H 436.755 3.90127 -1.44132 0
M  V30 4777 H 435.332 3.70958 0.380088 0
M  V30 4778 N 437.518 0.538854 1.48102 0
M  V30 4779 C 438.743 0.0102694 2.07397 0
M  V30 4780 C 439.168 -1.26562 1.39153 0
M  V30 4781 O 438.526 -1.75357 0.460387 0
M  V30 4782 C 438.574 -0.187602 3.60112 0
M  V30 4783 O 437.678 -1.25432 3.92862 0
M  V30 4784 H 437.019 0.0430975 0.6626 0
M  V30 4785 H 439.549 0.749301 1.90385 0
M  V30 4786 H 439.559 -0.407517 4.0596 0
M  V30 4787 H 438.234 0.744386 4.09184 0
M  V30 4788 H 436.811 -1.01636 3.58782 0
M  V30 4789 N 438.996 -1.55193 0.274407 0
M  V30 4790 C 439.943 -2.225 -0.613374 0
M  V30 4791 C 440.913 -1.19823 -1.15029 0
M  V30 4792 O 442.098 -1.48362 -1.19973 0
M  V30 4793 C 439.238 -2.94927 -1.79199 0
M  V30 4794 C 438.351 -4.12322 -1.28899 0
M  V30 4795 C 437.486 -4.72394 -2.42934 0
M  V30 4796 C 436.525 -5.81984 -1.89634 0
M  V30 4797 N 435.662 -6.36123 -2.9714 0
M  V30 4798 H 440.502 -2.97982 -0.032756 0
M  V30 4799 H 438.039 -1.47099 -0.00440146 0
M  V30 4800 H 439.997 -3.35134 -2.48478 0
M  V30 4801 H 438.627 -2.2187 -2.34465 0
M  V30 4802 H 437.679 -3.7724 -0.489327 0
M  V30 4803 H 438.991 -4.91355 -0.858587 0
M  V30 4804 H 438.145 -5.15317 -3.20208 0
M  V30 4805 H 436.884 -3.92636 -2.8929 0
M  V30 4806 H 435.889 -5.38511 -1.1084 0
M  V30 4807 H 437.114 -6.6361 -1.44215 0
M  V30 4808 H 435.06 -5.59259 -3.42878 0
M  V30 4809 H 434.977 -7.10427 -2.58515 0
M  V30 4810 H 436.245 -6.83704 -3.74391 0
M  V30 4811 N 440.474 -0.00167713 -1.576 0
M  V30 4812 C 441.723 0.682021 -1.89819 0
M  V30 4813 C 442.036 1.74844 -0.876871 0
M  V30 4814 O 443.242 2.48688 -1.08934 0
M  V30 4815 C 441.698 1.26425 -3.36964 0
M  V30 4816 C 441.306 0.232568 -4.47396 0
M  V30 4817 C 443.05 1.92604 -3.78291 0
M  V30 4818 C 440.957 0.824882 -5.85619 0
M  V30 4819 H 439.887 0.258499 -0.708304 0
M  V30 4820 H 442.538 -0.0624957 -1.83394 0
M  V30 4821 H 440.92 2.05949 -3.38232 0
M  V30 4822 H 442.094 -0.5382 -4.57646 0
M  V30 4823 H 440.409 -0.32888 -4.15099 0
M  V30 4824 H 443.006 2.37827 -4.78897 0
M  V30 4825 H 443.349 2.75732 -3.11894 0
M  V30 4826 H 443.882 1.19812 -3.79328 0
M  V30 4827 H 440.621 0.0323542 -6.55492 0
M  V30 4828 H 440.141 1.56477 -5.79029 0
M  V30 4829 H 441.82 1.32301 -6.33329 0
M  V30 4830 N 441.952 1.55251 0.271103 0
M  V30 4831 C 442.899 1.88261 1.33516 0
M  V30 4832 C 443.869 0.734296 1.48988 0
M  V30 4833 O 445.054 0.985741 1.63364 0
M  V30 4834 C 442.194 2.16168 2.69008 0
M  V30 4835 C 441.307 3.43678 2.61743 0
M  V30 4836 C 440.442 3.61276 3.89427 0
M  V30 4837 C 439.481 4.82472 3.7668 0
M  V30 4838 N 438.618 4.96717 4.96202 0
M  V30 4839 H 443.458 2.79015 1.04665 0
M  V30 4840 H 440.995 1.38137 0.505618 0
M  V30 4841 H 442.953 2.30349 3.47844 0
M  V30 4842 H 441.583 1.28646 2.96057 0
M  V30 4843 H 440.635 3.37959 1.74607 0
M  V30 4844 H 441.947 4.3265 2.48224 0
M  V30 4845 H 441.101 3.75284 4.76704 0
M  V30 4846 H 439.84 2.70492 4.05814 0
M  V30 4847 H 438.845 4.68465 2.87786 0
M  V30 4848 H 440.07 5.74692 3.61809 0
M  V30 4849 H 438.016 4.08865 5.12997 0
M  V30 4850 H 437.933 5.79738 4.85222 0
M  V30 4851 H 439.201 5.15113 5.85046 0
M  V30 4852 N 443.43 -0.535701 1.48216 0
M  V30 4853 C 444.34 -1.66785 1.64985 0
M  V30 4854 C 445.356 -1.65654 0.532414 0
M  V30 4855 O 446.532 -1.8471 0.80275 0
M  V30 4856 C 443.597 -3.0326 1.68031 0
M  V30 4857 C 442.658 -3.1529 2.9136 0
M  V30 4858 C 441.891 -4.45255 2.94252 0
M  V30 4859 O 442.114 -5.32011 2.05719 0
M  V30 4860 O 441.048 -4.6153 3.86359 0
M  V30 4861 H 444.874 -1.55576 2.60825 0
M  V30 4862 H 442.459 -0.70815 1.31551 0
M  V30 4863 H 444.341 -3.84436 1.72589 0
M  V30 4864 H 443.016 -3.14805 0.753628 0
M  V30 4865 H 441.923 -2.3343 2.92337 0
M  V30 4866 H 443.256 -3.08658 3.83394 0
M  V30 4867 N 444.908 -1.36708 -0.784132 0
M  V30 4868 C 446.148 -1.32618 -1.55537 0
M  V30 4869 C 446.512 0.0920681 -1.91779 0
M  V30 4870 O 447.713 0.257573 -2.67563 0
M  V30 4871 C 445.984 -2.22788 -2.79464 0
M  V30 4872 S 447.543 -2.36432 -3.69656 0
M  V30 4873 H 444.361 -0.470973 -0.53264 0
M  V30 4874 H 446.963 -1.72333 -0.92312 0
M  V30 4875 H 445.667 -3.24774 -2.50899 0
M  V30 4876 H 445.198 -1.84112 -3.47658 0
M  V30 4877 H 447.213 -1.56573 -4.7085 0
M  V30 4878 N 446.386 1.0089 -1.21074 0
M  V30 4879 C 447.626 1.76142 -1.03699 0
M  V30 4880 C 447.99 1.87292 0.422587 0
M  V30 4881 O 449.191 2.59068 0.716752 0
M  V30 4882 C 447.462 3.13805 -1.7106 0
M  V30 4883 S 449.021 4.04996 -1.68889 0
M  V30 4884 H 445.839 0.606113 -0.371683 0
M  V30 4885 H 448.441 1.20744 -1.53756 0
M  V30 4886 H 447.145 3.0332 -2.76451 0
M  V30 4887 H 446.676 3.74276 -1.21166 0
M  V30 4888 H 448.691 4.90842 -0.727211 0
M  V30 4889 N 447.864 1.01787 1.20321 0
M  V30 4890 C 448.774 0.598898 2.26827 0
M  V30 4891 C 449.79 -0.36418 1.70146 0
M  V30 4892 O 450.966 -0.224812 2.00141 0
M  V30 4893 C 448.031 -0.0549769 3.46656 0
M  V30 4894 C 447.092 0.954205 4.18561 0
M  V30 4895 C 446.325 0.331439 5.3267 0
M  V30 4896 O 446.548 -0.86851 5.63749 0
M  V30 4897 O 445.482 1.0488 5.92692 0
M  V30 4898 H 449.308 1.48562 2.64883 0
M  V30 4899 H 446.893 0.787434 1.26964 0
M  V30 4900 H 448.775 -0.420102 4.19301 0
M  V30 4901 H 447.45 -0.915876 3.10473 0
M  V30 4902 H 446.357 1.37072 3.48083 0
M  V30 4903 H 447.69 1.78511 4.58688 0
M  V30 4904 N 449.342 -1.36122 0.79427 0
M  V30 4905 C 450.289 -2.29982 0.194101 0
M  V30 4906 C 451.259 -1.52214 -0.664833 0
M  V30 4907 O 452.444 -1.80702 -0.612498 0
M  V30 4908 C 449.584 -3.38706 -0.661244 0
M  V30 4909 C 448.697 -4.31456 0.216766 0
M  V30 4910 C 447.832 -5.27265 -0.645411 0
M  V30 4911 C 446.871 -6.11653 0.233756 0
M  V30 4912 N 446.008 -6.99636 -0.587682 0
M  V30 4913 H 450.848 -2.80722 0.999965 0
M  V30 4914 H 448.385 -1.38172 0.504677 0
M  V30 4915 H 450.343 -4.00394 -1.17219 0
M  V30 4916 H 448.973 -2.89274 -1.43249 0
M  V30 4917 H 448.025 -3.7088 0.845724 0
M  V30 4918 H 449.337 -4.90724 0.893973 0
M  V30 4919 H 448.491 -5.94266 -1.22198 0
M  V30 4920 H 447.23 -4.68463 -1.35623 0
M  V30 4921 H 446.235 -5.4361 0.82269 0
M  V30 4922 H 447.46 -6.72531 0.942247 0
M  V30 4923 H 445.406 -6.43337 -1.2827 0
M  V30 4924 H 445.323 -7.55993 0.0317402 0
M  V30 4925 H 446.591 -7.71001 -1.14792 0
M  V30 4926 N 450.82 -0.546701 -1.47814 0
M  V30 4927 C 451.767 0.206854 -2.29871 0
M  V30 4928 C 452.737 0.918235 -1.38411 0
M  V30 4929 O 453.922 0.915991 -1.67375 0
M  V30 4930 C 451.062 1.23746 -3.22151 0
M  V30 4931 C 450.175 0.533216 -4.28697 0
M  V30 4932 C 449.31 1.5482 -5.08138 0
M  V30 4933 C 448.349 0.828347 -6.06469 0
M  V30 4934 N 447.486 1.78966 -6.78908 0
M  V30 4935 H 452.326 -0.499037 -2.93792 0
M  V30 4936 H 449.863 -0.25793 -1.44821 0
M  V30 4937 H 451.821 1.84746 -3.74065 0
M  V30 4938 H 450.451 1.91151 -2.60117 0
M  V30 4939 H 449.503 -0.191089 -3.7992 0
M  V30 4940 H 450.815 -0.0311987 -4.9879 0
M  V30 4941 H 449.969 2.23202 -5.6415 0
M  V30 4942 H 448.708 2.14652 -4.37922 0
M  V30 4943 H 447.713 0.130539 -5.49645 0
M  V30 4944 H 448.938 0.235907 -6.7869 0
M  V30 4945 H 446.884 2.37675 -6.1143 0
M  V30 4946 H 446.801 1.27712 -7.45135 0
M  V30 4947 H 448.069 2.46496 -7.395 0
M  V30 4948 N 452.299 1.55045 -0.282633 0
M  V30 4949 C 453.548 1.98938 0.332667 0
M  V30 4950 C 453.861 1.17455 1.56409 0
M  V30 4951 O 455.067 1.51527 2.25282 0
M  V30 4952 C 453.523 3.54105 0.643226 0
M  V30 4953 C 453.131 4.44374 -0.568814 0
M  V30 4954 C 454.875 4.06569 1.22074 0
M  V30 4955 C 452.782 5.90943 -0.232426 0
M  V30 4956 H 451.712 0.743043 0.128075 0
M  V30 4957 H 454.363 1.79341 -0.388464 0
M  V30 4958 H 452.745 3.69532 1.42346 0
M  V30 4959 H 453.919 4.40718 -1.34551 0
M  V30 4960 H 452.234 4.02585 -1.06369 0
M  V30 4961 H 454.831 5.13626 1.48635 0
M  V30 4962 H 455.174 3.56057 2.15707 0
M  V30 4963 H 455.707 3.94612 0.502621 0
M  V30 4964 H 452.446 6.45567 -1.13683 0
M  V30 4965 H 451.966 5.9765 0.507357 0
M  V30 4966 H 453.645 6.4677 0.172657 0
M  V30 4967 N 453.777 0.010035 1.57597 0
M  V30 4968 C 455.188 -0.531426 1.78977 0
M  V30 4969 C 455.539 -1.73375 0.918454 0
M  V30 4970 O 454.664 -2.16047 0.123635 0
M  V30 4971 C 455.259 -0.97086 3.24592 0
M  V30 4972 C 453.818 -1.45756 3.47033 0
M  V30 4973 C 452.965 -0.413384 2.74201 0
M  V30 4974 H 455.916 0.236166 1.56933 0
M  V30 4975 H 455.937 -1.83633 3.33255 0
M  V30 4976 H 455.449 -0.0955893 3.87982 0
M  V30 4977 H 453.55 -2.35339 2.88871 0
M  V30 4978 H 453.663 -1.4781 4.55729 0
M  V30 4979 H 452.027 -0.877266 2.39115 0
M  V30 4980 H 452.81 0.453092 3.40297 0
M  V30 4981 N 455.255 -1.55392 -0.262866 0
M  V30 4982 C 456.165 -1.92077 -1.34698 0
M  V30 4983 C 457.181 -0.819227 -1.53508 0
M  V30 4984 O 458.357 -1.11921 -1.67439 0
M  V30 4985 C 455.422 -2.19407 -2.68443 0
M  V30 4986 C 454.483 -3.42905 -2.58292 0
M  V30 4987 C 453.716 -3.68921 -3.85659 0
M  V30 4988 O 453.939 -2.97275 -4.8681 0
M  V30 4989 O 452.873 -4.62455 -3.85252 0
M  V30 4990 H 456.699 -2.84384 -1.06581 0
M  V30 4991 H 454.284 -1.42069 -0.462264 0
M  V30 4992 H 456.166 -2.38365 -3.47506 0
M  V30 4993 H 454.841 -1.30282 -2.96325 0
M  V30 4994 H 453.748 -3.29272 -1.7757 0
M  V30 4995 H 455.081 -4.32282 -2.35358 0
M  V30 4996 N 456.733 0.527833 -1.48498 0
M  V30 4997 C 458.149 0.856571 -1.34666 0
M  V30 4998 C 458.349 1.98271 -0.35931 0
M  V30 4999 O 457.405 2.51551 0.218703 0
M  V30 5000 C 458.718 1.22207 -2.74747 0
M  V30 5001 C 460.266 1.33183 -2.83251 0
M  V30 5002 C 460.741 1.73075 -4.24039 0
M  V30 5003 N 462.232 1.80174 -4.26722 0
M  V30 5004 C 462.967 2.1243 -5.32598 0
M  V30 5005 N 462.463 2.43096 -6.4875 0
M  V30 5006 N 464.256 2.13454 -5.19994 0
M  V30 5007 H 456.407 -0.215174 -2.11307 0
M  V30 5008 H 458.67 -0.0336281 -0.947403 0
M  V30 5009 H 458.376 0.468195 -3.4857 0
M  V30 5010 H 458.25 2.17173 -3.08409 0
M  V30 5011 H 460.637 2.07647 -2.09683 0
M  V30 5012 H 460.718 0.363333 -2.53206 0
M  V30 5013 H 460.362 0.991712 -4.98124 0
M  V30 5014 H 460.292 2.70979 -4.51529 0
M  V30 5015 H 462.783 1.58744 -3.42942 0
M  V30 5016 H 463.096 2.6682 -7.25277 0
M  V30 5017 H 461.441 2.40611 -6.52021 0
M  V30 5018 H 464.632 1.88956 -4.28268 0
M  V30 5019 H 464.805 2.38261 -6.02608 0
M  V30 5020 N 458.211 1.37122 0.776871 0
M  V30 5021 C 459.459 1.31787 1.53221 0
M  V30 5022 C 459.78 -0.0987589 1.9475 0
M  V30 5023 O 459.05 -1.0417 1.65908 0
M  V30 5024 H 457.63 0.484839 0.568278 0
M  V30 5025 H 460.292 1.71556 0.924917 0
M  V30 5026 H 459.388 1.95355 2.43398 0
M  V30 5027 N 459.689 -1.00246 1.21608 0
M  V30 5028 C 460.621 -2.09244 0.935401 0
M  V30 5029 C 461.634 -1.62592 -0.0823594 0
M  V30 5030 O 462.823 -1.77865 0.150456 0
M  V30 5031 C 459.923 -3.36724 0.383453 0
M  V30 5032 C 459.096 -4.1245 1.45615 0
M  V30 5033 C 458.155 -5.18219 0.912991 0
M  V30 5034 O 457.181 -5.46337 1.59701 0
M  V30 5035 N 458.383 -5.7987 -0.270478 0
M  V30 5036 H 461.148 -2.33905 1.87373 0
M  V30 5037 H 458.709 -1.16748 1.12167 0
M  V30 5038 H 460.701 -4.047 0.00562157 0
M  V30 5039 H 459.271 -3.09201 -0.459758 0
M  V30 5040 H 458.491 -3.39241 2.00772 0
M  V30 5041 H 459.779 -4.59819 2.17817 0
M  V30 5042 H 459.177 -5.59381 -0.843195 0
M  V30 5043 H 457.734 -6.49126 -0.589794 0
M  V30 5044 N 461.167 -1.02423 -1.1978 0
M  V30 5045 C 462.407 -0.726635 -1.91048 0
M  V30 5046 C 462.771 0.730947 -1.77542 0
M  V30 5047 O 463.972 1.14141 -2.43362 0
M  V30 5048 C 462.243 -1.15964 -3.38064 0
M  V30 5049 S 463.802 -0.985172 -4.27598 0
M  V30 5050 H 460.62 -0.264679 -0.659899 0
M  V30 5051 H 463.222 -1.31309 -1.44838 0
M  V30 5052 H 461.926 -2.21619 -3.45417 0
M  V30 5053 H 461.457 -0.566274 -3.89303 0
M  V30 5054 H 463.472 0.106946 -4.96085 0
M  V30 5055 N 462.645 1.35699 -0.801477 0
M  V30 5056 C 463.894 1.98165 -0.375979 0
M  V30 5057 C 464.207 1.64306 1.06127 0
M  V30 5058 O 465.413 2.20097 1.58964 0
M  V30 5059 C 463.869 3.54497 -0.621305 0
M  V30 5060 C 463.477 3.9727 -2.07076 0
M  V30 5061 C 465.221 4.23697 -0.26091 0
M  V30 5062 C 463.128 5.46427 -2.26211 0
M  V30 5063 H 462.058 0.741478 -0.136844 0
M  V30 5064 H 464.709 1.54834 -0.984814 0
M  V30 5065 H 463.091 3.95958 0.0574112 0
M  V30 5066 H 464.265 3.66974 -2.78687 0
M  V30 5067 H 462.58 3.40943 -2.39054 0
M  V30 5068 H 465.177 5.33334 -0.381994 0
M  V30 5069 H 465.52 4.0869 0.792344 0
M  V30 5070 H 466.053 3.87639 -0.893339 0
M  V30 5071 H 462.792 5.66396 -3.29963 0
M  V30 5072 H 462.312 5.78309 -1.59119 0
M  V30 5073 H 463.991 6.12819 -2.07513 0
M  V30 5074 N 464.123 0.554532 1.47522 0
M  V30 5075 C 465.372 0.0273458 2.01681 0
M  V30 5076 C 465.685 -1.32962 1.43459 0
M  V30 5077 O 466.891 -1.94657 1.89265 0
M  V30 5078 C 465.347 -0.00159057 3.599 0
M  V30 5079 C 464.955 1.35197 4.27113 0
M  V30 5080 C 466.699 -0.476311 4.21819 0
M  V30 5081 C 464.606 1.28229 5.77331 0
M  V30 5082 H 463.536 0.00645269 0.753972 0
M  V30 5083 H 466.187 0.701985 1.69542 0
M  V30 5084 H 464.569 -0.741821 3.8899 0
M  V30 5085 H 465.743 2.1097 4.09668 0
M  V30 5086 H 464.058 1.76441 3.77171 0
M  V30 5087 H 466.655 -0.5468 5.31897 0
M  V30 5088 H 466.998 -1.4877 3.8881 0
M  V30 5089 H 467.531 0.20898 3.97251 0
M  V30 5090 H 464.27 2.26959 6.14955 0
M  V30 5091 H 463.79 0.566314 5.97121 0
M  V30 5092 H 465.469 0.983226 6.39485 0
M  V30 5093 N 465.601 -1.54893 0.290851 0
M  V30 5094 C 466.549 -2.24579 -0.605576 0
M  V30 5095 C 467.543 -1.24824 -1.14522 0
M  V30 5096 O 468.749 -1.42706 -1.09704 0
M  V30 5097 H 465.124 -0.720946 -0.213872 0
M  V30 5098 H 467.095 -2.984 0.0048173 0
M  V30 5099 C 465.844 -2.99224 -1.77088 0
M  V30 5100 H 465.167 -3.75782 -1.36484 0
M  V30 5101 H 466.607 -3.51281 -2.3744 0
M  V30 5102 C 465.066 -2.05602 -2.66888 0
M  V30 5103 O 465.596 -1.61745 -3.67698 0
M  V30 5104 N 463.802 -1.71771 -2.34399 0
M  V30 5105 H 463.349 -2.07633 -1.52468 0
M  V30 5106 H 463.307 -1.09403 -2.94751 0
M  V30 5107 N 467.08 -0.0183926 -1.57589 0
M  V30 5108 C 468.305 0.676634 -1.96052 0
M  V30 5109 C 468.73 1.6548 -0.894307 0
M  V30 5110 O 468.088 1.80712 0.145849 0
M  V30 5111 C 468.136 1.36872 -3.33614 0
M  V30 5112 O 467.24 2.48372 -3.29219 0
M  V30 5113 H 466.581 0.1786 -0.63953 0
M  V30 5114 H 469.111 -0.077056 -2.04455 0
M  V30 5115 H 469.121 1.72797 -3.69601 0
M  V30 5116 H 467.796 0.651636 -4.10763 0
M  V30 5117 H 466.373 2.14639 -3.04934 0
M  V30 5118 N 468.558 1.5553 0.254621 0
M  V30 5119 C 469.506 1.9048 1.33492 0
M  V30 5120 C 470.5 0.78304 1.50216 0
M  V30 5121 O 471.706 0.967582 1.51782 0
M  V30 5122 H 468.081 0.604846 0.44684 0
M  V30 5123 H 470.052 2.80688 1.01275 0
M  V30 5124 C 468.801 2.20928 2.68489 0
M  V30 5125 H 468.124 3.06742 2.56417 0
M  V30 5126 H 469.564 2.49291 3.42972 0
M  V30 5127 C 468.023 1.023 3.20993 0
M  V30 5128 O 468.553 0.267027 4.00811 0
M  V30 5129 N 466.759 0.815714 2.78917 0
M  V30 5130 H 466.306 1.43217 2.14119 0
M  V30 5131 H 466.264 0.0236532 3.14391 0
M  V30 5132 N 470.036 -0.519951 1.48776 0
M  V30 5133 C 470.983 -1.62352 1.64044 0
M  V30 5134 C 471.953 -1.58945 0.482251 0
M  V30 5135 O 473.138 -1.77219 0.706971 0
M  V30 5136 C 470.278 -3.00579 1.69547 0
M  V30 5137 C 469.391 -3.14145 2.96541 0
M  V30 5138 C 468.526 -4.42991 2.93142 0
M  V30 5139 C 467.565 -4.50122 4.14797 0
M  V30 5140 N 466.702 -5.7037 4.09418 0
M  V30 5141 H 471.542 -1.48643 2.58281 0
M  V30 5142 H 469.079 -0.723516 1.28077 0
M  V30 5143 H 471.037 -3.80671 1.70719 0
M  V30 5144 H 469.667 -3.13036 0.787918 0
M  V30 5145 H 468.719 -2.27239 3.05068 0
M  V30 5146 H 470.031 -3.15275 3.86527 0
M  V30 5147 H 469.185 -5.31385 2.92772 0
M  V30 5148 H 467.924 -4.44398 2.00902 0
M  V30 5149 H 466.929 -3.60133 4.15433 0
M  V30 5150 H 468.154 -4.50445 5.08208 0
M  V30 5151 H 466.1 -5.72655 3.20004 0
M  V30 5152 H 466.017 -5.73036 4.93119 0
M  V30 5153 H 467.285 -6.61023 4.13121 0
M  V30 5154 N 471.514 -1.37532 -0.769588 0
M  V30 5155 C 472.791 -1.23392 -1.51768 0
M  V30 5156 C 473.171 0.17157 -2.10402 0
M  V30 5157 O 472.519 1.17943 -1.95708 0
M  V30 5158 C 472.729 -2.33163 -2.59685 0
M  V30 5159 C 474.077 -2.70809 -3.27028 0
M  V30 5160 O 475.101 -2.32355 -2.69981 0
M  V30 5161 O 473.96 -3.37066 -4.30173 0
M  V30 5162 H 471.054 -0.481617 -0.67229 0
M  V30 5163 H 473.6 -1.49318 -0.806368 0
M  V30 5164 H 472.372 -3.27273 -2.14494 0
M  V30 5165 H 471.995 -2.08713 -3.38415 0
M  V30 5166 N 472.992 0.995999 -1.22138 0
M  V30 5167 C 474.269 1.70834 -0.952642 0
M  V30 5168 C 474.649 2.04257 0.533119 0
M  V30 5169 O 473.997 1.72343 1.50034 0
M  V30 5170 C 474.207 2.96119 -1.84701 0
M  V30 5171 C 475.555 3.68962 -2.10124 0
M  V30 5172 O 476.579 3.0612 -1.82124 0
M  V30 5173 O 475.438 4.82017 -2.57531 0
M  V30 5174 H 472.532 0.745498 -0.357997 0
M  V30 5175 H 475.078 1.05262 -1.33109 0
M  V30 5176 H 473.85 2.67898 -2.85213 0
M  V30 5177 H 473.473 3.6943 -1.46995 0
M  V30 5178 N 474.47 1.03057 1.19235 0
M  V30 5179 C 475.886 0.747947 1.40989 0
M  V30 5180 C 476.086 -0.666752 1.90149 0
M  V30 5181 O 475.142 -1.43249 2.07933 0
M  V30 5182 C 476.455 1.7855 2.41951 0
M  V30 5183 C 478.003 1.80524 2.55695 0
M  V30 5184 C 478.478 2.83243 3.59913 0
M  V30 5185 N 479.969 2.8207 3.67411 0
M  V30 5186 C 480.704 3.58204 4.47747 0
M  V30 5187 N 480.2 4.44057 5.31775 0
M  V30 5188 N 481.993 3.46738 4.42413 0
M  V30 5189 H 474.144 1.94367 0.856468 0
M  V30 5190 H 476.407 0.840412 0.438647 0
M  V30 5191 H 476.113 2.79973 2.12857 0
M  V30 5192 H 475.987 1.6092 3.41152 0
M  V30 5193 H 478.374 0.79778 2.84112 0
M  V30 5194 H 478.455 2.02229 1.56643 0
M  V30 5195 H 478.099 3.84161 3.32239 0
M  V30 5196 H 478.029 2.58795 4.5862 0
M  V30 5197 H 480.52 2.19803 3.074 0
M  V30 5198 H 480.833 4.98884 5.90199 0
M  V30 5199 H 479.178 4.48129 5.3123 0
M  V30 5200 H 482.369 2.79077 3.75811 0
M  V30 5201 H 482.542 4.06322 5.04783 0
M  V30 5202 N 475.948 -1.35272 0.808662 0
M  V30 5203 C 477.359 -1.81179 0.450688 0
M  V30 5204 C 477.71 -1.67143 -1.02751 0
M  V30 5205 O 476.835 -1.20325 -1.79864 0
M  V30 5206 C 477.43 -3.28943 0.811275 0
M  V30 5207 C 475.989 -3.72985 0.505871 0
M  V30 5208 C 475.136 -2.57229 1.03578 0
M  V30 5209 H 478.087 -1.2322 1.00012 0
M  V30 5210 H 478.108 -3.80342 0.109588 0
M  V30 5211 H 477.62 -3.39127 1.88718 0
M  V30 5212 H 475.721 -3.68349 -0.561209 0
M  V30 5213 H 475.834 -4.67677 1.03995 0
M  V30 5214 H 474.198 -2.50548 0.458005 0
M  V30 5215 H 474.981 -2.7019 2.11784 0
M  V30 5216 N 477.426 -0.562348 -1.47226 0
M  V30 5217 C 478.373 0.182461 -2.30078 0
M  V30 5218 C 479.343 0.903503 -1.39377 0
M  V30 5219 O 480.528 0.898188 -1.68337 0
M  V30 5220 C 477.668 1.20322 -3.23445 0
M  V30 5221 C 476.781 0.487717 -4.29238 0
M  V30 5222 C 475.916 1.49422 -5.09752 0
M  V30 5223 C 474.955 0.763976 -6.07314 0
M  V30 5224 N 474.092 1.71755 -6.80768 0
M  V30 5225 H 478.932 -0.530169 -2.93246 0
M  V30 5226 H 476.469 -0.273276 -1.44539 0
M  V30 5227 H 478.427 1.80768 -3.76004 0
M  V30 5228 H 477.057 1.88382 -2.6213 0
M  V30 5229 H 476.109 -0.231374 -3.79696 0
M  V30 5230 H 477.421 -0.0841003 -4.98729 0
M  V30 5231 H 476.575 2.17206 -5.66486 0
M  V30 5232 H 475.314 2.09995 -4.40174 0
M  V30 5233 H 474.319 0.0722344 -5.49753 0
M  V30 5234 H 475.544 0.16391 -6.78902 0
M  V30 5235 H 473.49 2.31177 -6.13916 0
M  V30 5236 H 473.407 1.19802 -7.46447 0
M  V30 5237 H 474.675 2.38638 -7.42073 0
M  V30 5238 N 478.904 1.54736 -0.299062 0
M  V30 5239 C 480.181 1.92187 0.363802 0
M  V30 5240 C 480.561 1.22607 1.71845 0
M  V30 5241 O 479.909 0.361141 2.25628 0
M  V30 5242 C 480.119 3.45678 0.480377 0
M  V30 5243 C 481.467 4.17885 0.752147 0
M  V30 5244 O 482.491 3.51702 0.564264 0
M  V30 5245 O 481.35 5.35048 1.11294 0
M  V30 5246 H 478.444 0.801681 0.203066 0
M  V30 5247 H 480.99 1.66115 -0.346978 0
M  V30 5248 H 479.762 3.88443 -0.471999 0
M  V30 5249 H 479.385 3.77779 1.2397 0
M  V30 5250 N 480.382 0.0267497 1.57577 0
M  V30 5251 C 481.312 -0.954308 2.13108 0
M  V30 5252 C 482.293 -1.34088 1.04663 0
M  V30 5253 O 483.478 -1.41992 1.32484 0
M  V30 5254 C 480.608 -2.23744 2.65624 0
M  V30 5255 C 479.562 -1.99168 3.78835 0
M  V30 5256 C 478.888 -3.33726 4.17769 0
M  V30 5257 C 480.188 -1.33277 5.0501 0
M  V30 5258 H 481.882 -0.491848 2.95332 0
M  V30 5259 H 479.428 -0.23514 1.42067 0
M  V30 5260 H 481.381 -2.92754 3.03106 0
M  V30 5261 H 480.105 -2.72151 1.80558 0
M  V30 5262 H 478.764 -1.32577 3.41788 0
M  V30 5263 H 478.412 -3.79888 3.29688 0
M  V30 5264 H 478.112 -3.18089 4.94058 0
M  V30 5265 H 479.636 -4.04008 4.57832 0
M  V30 5266 H 481.05 -1.92283 5.40093 0
M  V30 5267 H 479.447 -1.28045 5.8628 0
M  V30 5268 H 480.517 -0.305411 4.83937 0
M  V30 5269 N 481.861 -1.55662 -0.24637 0
M  V30 5270 C 483.086 -1.81914 -0.996093 0
M  V30 5271 C 483.511 -0.603875 -1.78143 0
M  V30 5272 O 482.869 0.447091 -1.75701 0
M  V30 5273 C 482.917 -3.05908 -1.90925 0
M  V30 5274 O 482.021 -2.82861 -3.00105 0
M  V30 5275 H 481.362 -0.600481 -0.283406 0
M  V30 5276 H 483.892 -2.02848 -0.267199 0
M  V30 5277 H 483.902 -3.35356 -2.3238 0
M  V30 5278 H 482.577 -3.93999 -1.33183 0
M  V30 5279 H 481.154 -2.64583 -2.62775 0
M  V30 5280 N 483.339 0.512053 -1.4905 0
M  V30 5281 C 484.269 1.62365 -1.67809 0
M  V30 5282 C 485.25 1.61737 -0.526809 0
M  V30 5283 O 486.435 1.78651 -0.761404 0
M  V30 5284 C 483.565 3.00895 -1.73435 0
M  V30 5285 C 482.519 3.16387 -2.88242 0
M  V30 5286 C 481.845 4.56157 -2.78971 0
M  V30 5287 C 483.145 2.97457 -4.29321 0
M  V30 5288 H 484.839 1.46921 -2.60873 0
M  V30 5289 H 482.385 0.705379 -1.2554 0
M  V30 5290 H 484.338 3.78549 -1.85145 0
M  V30 5291 H 483.062 3.17403 -0.769619 0
M  V30 5292 H 481.721 2.41155 -2.76116 0
M  V30 5293 H 481.369 4.69525 -1.8043 0
M  V30 5294 H 481.069 4.67465 -3.5602 0
M  V30 5295 H 482.593 5.35886 -2.92675 0
M  V30 5296 H 484.007 3.64888 -4.42187 0
M  V30 5297 H 482.404 3.20245 -5.07507 0
M  V30 5298 H 483.474 1.93692 -4.44535 0
M  V30 5299 N 484.817 1.37938 0.762283 0
M  V30 5300 C 486.233 1.18945 1.06415 0
M  V30 5301 C 486.433 0.0321163 2.01474 0
M  V30 5302 O 485.489 -0.624844 2.44647 0
M  V30 5303 C 486.802 2.51218 1.65258 0
M  V30 5304 C 488.35 2.57824 1.7747 0
M  V30 5305 C 488.825 3.90251 2.39725 0
M  V30 5306 N 490.316 3.91744 2.47166 0
M  V30 5307 C 491.051 4.90966 2.96209 0
M  V30 5308 N 490.547 6.00585 3.45354 0
M  V30 5309 N 492.34 4.78363 2.9517 0
M  V30 5310 H 484.491 2.11994 0.131301 0
M  V30 5311 H 486.754 0.940262 0.120879 0
M  V30 5312 H 486.46 3.36317 1.02878 0
M  V30 5313 H 486.334 2.68989 2.64433 0
M  V30 5314 H 488.721 1.73126 2.3898 0
M  V30 5315 H 488.802 2.43928 0.770241 0
M  V30 5316 H 488.446 4.75368 1.78852 0
M  V30 5317 H 488.376 4.01454 3.40796 0
M  V30 5318 H 490.867 3.12563 2.12397 0
M  V30 5319 H 491.18 6.72236 3.81207 0
M  V30 5320 H 489.525 6.04217 3.43434 0
M  V30 5321 H 492.716 3.91841 2.56082 0
M  V30 5322 H 492.889 5.55843 3.33081 0
M  V30 5323 N 486.295 -0.989507 1.22664 0
M  V30 5324 C 487.205 -2.11449 1.01619 0
M  V30 5325 C 488.221 -1.73962 -0.036545 0
M  V30 5326 O 489.397 -2.00788 0.156924 0
M  V30 5327 C 486.462 -3.41465 0.600204 0
M  V30 5328 C 485.523 -3.93033 1.72695 0
M  V30 5329 C 484.756 -5.16844 1.33071 0
M  V30 5330 O 484.979 -5.7001 0.210975 0
M  V30 5331 O 483.913 -5.6225 2.14845 0
M  V30 5332 H 487.739 -2.32088 1.9588 0
M  V30 5333 H 485.324 -1.09823 1.01289 0
M  V30 5334 H 487.206 -4.19695 0.37873 0
M  V30 5335 H 485.881 -3.22178 -0.313511 0
M  V30 5336 H 484.788 -3.15961 2.00298 0
M  V30 5337 H 486.121 -4.16758 2.61865 0
M  V30 5338 N 487.773 -1.03688 -1.18687 0
M  V30 5339 C 489.021 -0.736572 -1.88199 0
M  V30 5340 C 489.342 0.737665 -1.80509 0
M  V30 5341 O 488.612 1.53204 -1.22088 0
M  V30 5342 H 487.192 -0.269466 -0.696704 0
M  V30 5343 H 489.854 -1.31282 -1.44052 0
M  V30 5344 H 488.95 -1.03802 -2.94332 0
M  V30 5345 N 489.251 1.34841 -0.815825 0
M  V30 5346 C 490.198 2.29644 -0.230664 0
M  V30 5347 C 491.168 1.53253 0.640533 0
M  V30 5348 O 492.353 1.81653 0.583672 0
M  V30 5349 C 489.493 3.39715 0.607275 0
M  V30 5350 C 488.606 4.31056 -0.28538 0
M  V30 5351 C 487.741 5.28225 0.561446 0
M  V30 5352 C 486.78 6.11204 -0.331035 0
M  V30 5353 N 485.917 7.00483 0.476302 0
M  V30 5354 H 490.757 2.79095 -1.0445 0
M  V30 5355 H 488.294 1.37351 -0.526595 0
M  V30 5356 H 490.252 4.02208 1.10835 0
M  V30 5357 H 488.882 2.91517 1.38629 0
M  V30 5358 H 487.934 3.69487 -0.904621 0
M  V30 5359 H 489.246 4.89239 -0.97193 0
M  V30 5360 H 488.4 5.96135 1.12728 0
M  V30 5361 H 487.139 4.70562 1.28153 0
M  V30 5362 H 486.144 5.42232 -0.909069 0
M  V30 5363 H 487.369 6.70947 -1.04912 0
M  V30 5364 H 485.315 6.45296 1.18019 0
M  V30 5365 H 485.232 7.55847 -0.152008 0
M  V30 5366 H 486.5 7.7273 1.02512 0
M  V30 5367 N 490.729 0.570148 1.46925 0
M  V30 5368 C 491.976 0.0509529 2.02436 0
M  V30 5369 C 492.304 -1.30405 1.44308 0
M  V30 5370 O 491.559 -1.86493 0.593198 0
M  V30 5371 C 491.858 -0.0780336 3.57315 0
M  V30 5372 C 491.524 1.20775 4.34424 0
M  V30 5373 C 490.186 1.56004 4.5521 0
M  V30 5374 C 492.538 2.0592 4.78797 0
M  V30 5375 C 489.866 2.76201 5.17619 0
M  V30 5376 C 492.218 3.25332 5.42533 0
M  V30 5377 C 490.882 3.60859 5.61549 0
M  V30 5378 H 490.152 0.018645 0.740765 0
M  V30 5379 H 492.799 0.744262 1.76445 0
M  V30 5380 H 491.104 -0.854394 3.82371 0
M  V30 5381 H 492.801 -0.495312 3.97929 0
M  V30 5382 H 489.391 0.923469 4.18533 0
M  V30 5383 H 493.575 1.80008 4.62505 0
M  V30 5384 H 488.831 3.0388 5.30535 0
M  V30 5385 H 493.005 3.91586 5.75876 0
M  V30 5386 H 490.632 4.54088 6.09678 0
M  V30 5387 N 492.207 -1.54576 0.307264 0
M  V30 5388 C 493.435 -2.04675 -0.302597 0
M  V30 5389 C 493.85 -1.18425 -1.47041 0
M  V30 5390 O 493.207 -0.211257 -1.81273 0
M  V30 5391 C 493.258 -3.53575 -0.752801 0
M  V30 5392 O 492.979 -4.36547 0.368536 0
M  V30 5393 C 494.48 -4.19699 -1.42717 0
M  V30 5394 H 491.7 -0.66786 -0.0648374 0
M  V30 5395 H 494.244 -1.99516 0.448716 0
M  V30 5396 H 492.399 -3.59074 -1.45412 0
M  V30 5397 H 492.813 -5.24497 0.0168937 0
M  V30 5398 H 494.287 -5.25388 -1.69327 0
M  V30 5399 H 494.764 -3.69815 -2.36925 0
M  V30 5400 H 495.37 -4.18293 -0.768856 0
M  V30 5401 N 493.685 -0.035106 -1.57561 0
M  V30 5402 C 494.962 0.681212 -1.83354 0
M  V30 5403 C 495.342 1.89986 -0.920252 0
M  V30 5404 O 494.69 2.28489 0.0226815 0
M  V30 5405 C 494.9 1.05376 -3.32712 0
M  V30 5406 C 496.248 1.44286 -3.99333 0
M  V30 5407 O 497.272 1.14656 -3.37242 0
M  V30 5408 O 496.131 1.99518 -5.08778 0
M  V30 5409 H 493.225 0.334741 -0.756226 0
M  V30 5410 H 495.771 -0.0632448 -1.69582 0
M  V30 5411 H 494.543 0.186668 -3.90854 0
M  V30 5412 H 494.166 1.85619 -3.51613 0
M  V30 5413 N 495.163 1.55791 0.238111 0
M  V30 5414 C 496.388 1.8244 0.986432 0
M  V30 5415 C 496.813 0.613314 1.7782 0
M  V30 5416 O 496.171 -0.437767 1.75935 0
M  V30 5417 C 496.219 3.06917 1.893 0
M  V30 5418 O 495.323 2.84449 2.98601 0
M  V30 5419 H 494.664 0.601975 0.280218 0
M  V30 5420 H 497.194 2.02987 0.256437 0
M  V30 5421 H 497.204 3.36583 2.30598 0
M  V30 5422 H 495.879 3.947 1.31091 0
M  V30 5423 H 494.456 2.65972 2.61368 0
M  V30 5424 N 496.642 -0.504142 1.49319 0
M  V30 5425 C 497.552 -1.63248 1.68486 0
M  V30 5426 C 498.568 -1.64488 0.567432 0
M  V30 5427 O 499.744 -1.82966 0.841749 0
M  V30 5428 C 496.809 -2.99627 1.74426 0
M  V30 5429 C 495.87 -3.09039 2.97982 0
M  V30 5430 C 495.103 -4.38913 3.0363 0
M  V30 5431 O 495.326 -5.27528 2.16958 0
M  V30 5432 O 494.26 -4.53231 3.96062 0
M  V30 5433 H 498.086 -1.50008 2.64067 0
M  V30 5434 H 495.671 -0.680086 1.33023 0
M  V30 5435 H 497.553 -3.80689 1.80705 0
M  V30 5436 H 496.228 -3.13136 0.820233 0
M  V30 5437 H 495.135 -2.27177 2.97223 0
M  V30 5438 H 496.468 -3.00456 3.89855 0
M  V30 5439 N 498.12 -1.38341 -0.754957 0
M  V30 5440 C 499.068 -1.35573 -1.89005 0
M  V30 5441 C 500.062 -0.241824 -1.67665 0
M  V30 5442 O 501.268 -0.410785 -1.7525 0
M  V30 5443 H 497.643 -0.422898 -0.621821 0
M  V30 5444 H 499.614 -2.31359 -1.88455 0
M  V30 5445 C 498.363 -1.19631 -3.26471 0
M  V30 5446 H 497.686 -2.04605 -3.43477 0
M  V30 5447 H 499.126 -1.21748 -4.06144 0
M  V30 5448 C 497.585 0.0968705 -3.36761 0
M  V30 5449 O 498.115 1.07439 -3.87066 0
M  V30 5450 N 496.321 0.153242 -2.90196 0
M  V30 5451 H 495.868 -0.642908 -2.49448 0
M  V30 5452 H 495.826 1.01807 -2.9746 0
M  V30 5453 N 499.598 0.982988 -1.23187 0
M  V30 5454 C 500.844 1.72648 -1.06398 0
M  V30 5455 C 501.177 1.90066 0.398561 0
M  V30 5456 O 500.452 1.45105 1.29518 0
M  V30 5457 C 500.735 3.12627 -1.78707 0
M  V30 5458 C 500.588 3.02795 -3.32618 0
M  V30 5459 C 501.907 4.11997 -1.54747 0
M  V30 5460 H 499.026 0.626649 -0.387918 0
M  V30 5461 H 501.668 1.14455 -1.51658 0
M  V30 5462 H 499.818 3.62308 -1.40234 0
M  V30 5463 H 501.49 2.60659 -3.80598 0
M  V30 5464 H 499.733 2.39362 -3.61785 0
M  V30 5465 H 500.404 4.01893 -3.78399 0
M  V30 5466 H 502.88 3.71114 -1.88186 0
M  V30 5467 H 501.756 5.08037 -2.07821 0
M  V30 5468 H 502.017 4.39462 -0.482249 0
M  V30 5469 N 501.076 1.04316 1.18135 0
M  V30 5470 C 502.316 0.756937 1.89868 0
M  V30 5471 C 502.68 -0.702609 1.78682 0
M  V30 5472 O 503.881 -1.10255 2.45148 0
M  V30 5473 C 502.152 1.21327 3.36176 0
M  V30 5474 S 503.711 1.05307 4.25976 0
M  V30 5475 H 500.529 0.275143 0.655604 0
M  V30 5476 H 503.131 1.33597 1.42731 0
M  V30 5477 H 501.835 2.27086 3.41848 0
M  V30 5478 H 501.366 0.628137 3.88353 0
M  V30 5479 H 503.381 -0.0280093 4.96192 0
M  V30 5480 N 502.554 -1.34406 0.822964 0
M  V30 5481 C 503.486 -2.28305 0.202375 0
M  V30 5482 C 504.499 -1.5103 -0.60777 0
M  V30 5483 O 505.688 -1.73057 -0.437444 0
M  V30 5484 C 502.788 -3.30836 -0.734911 0
M  V30 5485 C 501.961 -4.37388 0.0324177 0
M  V30 5486 C 501.02 -5.1968 -0.825803 0
M  V30 5487 O 500.046 -5.68556 -0.270771 0
M  V30 5488 N 501.248 -5.39393 -2.14558 0
M  V30 5489 H 504.013 -2.82201 1.00909 0
M  V30 5490 H 501.574 -1.4693 0.67993 0
M  V30 5491 H 503.566 -3.82786 -1.31365 0
M  V30 5492 H 502.136 -2.77334 -1.44238 0
M  V30 5493 H 501.356 -3.86152 0.792469 0
M  V30 5494 H 502.644 -5.05702 0.560633 0
M  V30 5495 H 502.042 -5.01357 -2.62025 0
M  V30 5496 H 500.599 -5.94461 -2.67318 0
M  V30 5497 N 504.032 -0.577932 -1.46621 0
M  V30 5498 C 504.942 0.160651 -2.34049 0
M  V30 5499 C 505.958 0.890911 -1.49462 0
M  V30 5500 O 507.134 0.855166 -1.82343 0
M  V30 5501 C 504.199 1.16447 -3.26559 0
M  V30 5502 C 503.26 0.4394 -4.27045 0
M  V30 5503 C 502.493 1.3954 -5.15135 0
M  V30 5504 O 502.716 2.63162 -5.06065 0
M  V30 5505 O 501.65 0.908585 -5.95003 0
M  V30 5506 H 505.476 -0.557057 -2.98547 0
M  V30 5507 H 503.061 -0.338369 -1.45518 0
M  V30 5508 H 504.943 1.7434 -3.83645 0
M  V30 5509 H 503.618 1.86373 -2.64663 0
M  V30 5510 H 502.525 -0.181247 -3.73661 0
M  V30 5511 H 503.858 -0.218799 -4.91713 0
M  V30 5512 N 505.51 1.54411 -0.315457 0
M  V30 5513 C 506.926 1.59556 0.037464 0
M  V30 5514 C 507.126 1.33217 1.5118 0
M  V30 5515 O 506.182 1.11264 2.26664 0
M  V30 5516 C 507.495 2.98372 -0.373477 0
M  V30 5517 C 509.043 3.11324 -0.323452 0
M  V30 5518 C 509.518 4.52472 -0.709433 0
M  V30 5519 N 511.009 4.58437 -0.662524 0
M  V30 5520 C 511.744 5.65751 -0.933474 0
M  V30 5521 N 511.24 6.81039 -1.27114 0
M  V30 5522 N 513.033 5.55489 -0.859573 0
M  V30 5523 H 505.184 1.6979 -1.27614 0
M  V30 5524 H 507.447 0.793732 -0.518356 0
M  V30 5525 H 507.153 3.22618 -1.40037 0
M  V30 5526 H 507.027 3.76264 0.265615 0
M  V30 5527 H 509.414 2.86818 0.694223 0
M  V30 5528 H 509.495 2.35555 -0.997367 0
M  V30 5529 H 509.139 4.7771 -1.72498 0
M  V30 5530 H 509.069 5.26598 -0.0132923 0
M  V30 5531 H 511.56 3.75636 -0.413065 0
M  V30 5532 H 511.873 7.58816 -1.46348 0
M  V30 5533 H 510.218 6.82555 -1.30932 0
M  V30 5534 H 513.409 4.64299 -0.595324 0
M  V30 5535 H 513.582 6.39036 -1.0741 0
M  V30 5536 N 506.988 0.0434614 1.5754 0
M  V30 5537 C 508.265 -0.671479 1.83713 0
M  V30 5538 C 508.645 -1.89495 0.930315 0
M  V30 5539 O 507.993 -2.28498 -0.0105639 0
M  V30 5540 C 508.203 -1.0361 3.33266 0
M  V30 5541 C 509.551 -1.42167 4.00092 0
M  V30 5542 O 510.575 -1.12866 3.37846 0
M  V30 5543 O 509.434 -1.96817 5.09829 0
M  V30 5544 H 506.528 -0.330726 0.75799 0
M  V30 5545 H 509.074 0.0722373 1.69546 0
M  V30 5546 H 507.846 -0.165938 3.90948 0
M  V30 5547 H 507.469 -1.83751 3.52592 0
M  V30 5548 N 508.466 -1.55915 -0.229846 0
M  V30 5549 C 509.429 -1.90914 -1.26824 0
M  V30 5550 C 510.429 -0.786999 -1.40225 0
M  V30 5551 O 511.619 -1.05484 -1.38632 0
M  V30 5552 C 508.751 -2.15264 -2.64337 0
M  V30 5553 H 509.944 -2.8378 -0.969998 0
M  V30 5554 H 507.497 -1.49069 -0.4699 0
M  V30 5555 H 508.232 -1.24923 -2.99274 0
M  V30 5556 H 508.017 -2.97005 -2.55989 0
M  V30 5557 H 509.507 -2.43467 -3.39284 0
M  V30 5558 N 509.944 0.496216 -1.49584 0
M  V30 5559 C 511.221 1.25755 -1.49816 0
M  V30 5560 C 511.601 2.09859 -0.228572 0
M  V30 5561 O 510.949 2.14449 0.788908 0
M  V30 5562 C 511.159 2.11017 -2.7798 0
M  V30 5563 C 512.507 2.70047 -3.27658 0
M  V30 5564 O 513.531 2.21281 -2.79129 0
M  V30 5565 O 512.39 3.58834 -4.1219 0
M  V30 5566 H 509.484 0.569322 -0.599834 0
M  V30 5567 H 512.03 0.510094 -1.61852 0
M  V30 5568 H 510.802 1.48879 -3.61871 0
M  V30 5569 H 510.425 2.92947 -2.68827 0
M  V30 5570 N 511.423 1.38739 0.74761 0
M  V30 5571 C 512.834 1.31507 1.32524 0
M  V30 5572 C 513.185 -0.0263963 1.96182 0
M  V30 5573 O 512.31 -0.92849 1.95469 0
M  V30 5574 C 512.905 2.38162 2.40966 0
M  V30 5575 C 511.464 2.34489 2.94434 0
M  V30 5576 C 510.611 2.20712 1.67873 0
M  V30 5577 H 513.562 1.4901 0.546043 0
M  V30 5578 H 513.583 2.04222 3.21051 0
M  V30 5579 H 513.095 3.35783 1.94605 0
M  V30 5580 H 511.196 1.40467 3.45108 0
M  V30 5581 H 511.309 3.28861 3.48407 0
M  V30 5582 H 509.673 1.67667 1.91729 0
M  V30 5583 H 510.456 3.20285 1.23582 0
M  V30 5584 N 512.901 -0.976442 1.23707 0
M  V30 5585 C 514.178 -1.69296 0.979699 0
M  V30 5586 C 514.558 -2.0508 -0.500555 0
M  V30 5587 O 513.906 -1.74708 -1.47273 0
M  V30 5588 C 514.116 -2.93143 1.89389 0
M  V30 5589 C 515.464 -3.65572 2.15968 0
M  V30 5590 O 516.488 -3.03184 1.86971 0
M  V30 5591 O 515.347 -4.77859 2.65167 0
M  V30 5592 H 512.441 -0.739708 0.369812 0
M  V30 5593 H 514.987 -1.03131 1.34767 0
M  V30 5594 H 513.759 -2.63327 2.89439 0
M  V30 5595 H 513.382 -3.67044 1.52854 0
M  V30 5596 N 514.379 -1.04941 -1.1758 0
M  V30 5597 C 515.607 -0.778294 -1.91703 0
M  V30 5598 C 516.022 0.665697 -1.76675 0
M  V30 5599 O 515.379 1.45456 -1.10222 0
M  V30 5600 C 515.43 -1.14628 -3.42845 0
M  V30 5601 O 515.151 -2.53359 -3.57409 0
M  V30 5602 C 516.652 -0.900931 -4.34049 0
M  V30 5603 H 513.872 -0.283167 -0.608323 0
M  V30 5604 H 516.416 -1.39942 -1.49119 0
M  V30 5605 H 514.571 -0.569953 -3.83184 0
M  V30 5606 H 514.985 -2.67709 -4.51035 0
M  V30 5607 H 516.459 -1.20817 -5.38616 0
M  V30 5608 H 516.936 0.163966 -4.38894 0
M  V30 5609 H 517.542 -1.46097 -3.99419 0
M  V30 5610 N 515.857 1.33968 -0.830081 0
M  V30 5611 C 517.104 1.98063 -0.421566 0
M  V30 5612 C 517.432 1.65787 1.0171 0
M  V30 5613 O 516.687 0.925348 1.72441 0
M  V30 5614 C 516.986 3.52679 -0.57898 0
M  V30 5615 C 516.652 4.04884 -1.98443 0
M  V30 5616 C 515.314 4.18852 -2.36888 0
M  V30 5617 C 517.666 4.32879 -2.90285 0
M  V30 5618 C 514.994 4.58145 -3.66497 0
M  V30 5619 C 517.346 4.7362 -4.19364 0
M  V30 5620 C 516.01 4.85794 -4.57778 0
M  V30 5621 H 515.28 0.724765 -0.154262 0
M  V30 5622 H 517.927 1.59792 -1.05541 0
M  V30 5623 H 516.232 3.91556 0.138219 0
M  V30 5624 H 517.929 4.00261 -0.243317 0
M  V30 5625 H 514.519 3.9448 -1.67581 0
M  V30 5626 H 518.703 4.21619 -2.61823 0
M  V30 5627 H 513.959 4.65762 -3.96075 0
M  V30 5628 H 518.133 4.9424 -4.90612 0
M  V30 5629 H 515.76 5.15998 -5.58256 0
M  V30 5630 N 517.335 0.585699 1.46312 0
M  V30 5631 C 518.582 0.0724211 2.0237 0
M  V30 5632 C 518.91 -1.28868 1.45683 0
M  V30 5633 O 518.165 -1.85853 0.612945 0
M  V30 5634 C 518.464 -0.0401312 3.57377 0
M  V30 5635 C 518.13 1.25376 4.33119 0
M  V30 5636 C 516.792 1.60824 4.5353 0
M  V30 5637 C 519.144 2.10987 4.76586 0
M  V30 5638 C 516.472 2.81676 5.14661 0
M  V30 5639 C 518.824 3.31068 5.39052 0
M  V30 5640 C 517.488 3.66794 5.5769 0
M  V30 5641 H 516.758 0.0265007 0.740526 0
M  V30 5642 H 519.405 0.762935 1.75646 0
M  V30 5643 H 517.71 -0.813791 3.83255 0
M  V30 5644 H 519.407 -0.453078 3.98432 0
M  V30 5645 H 515.997 0.967808 4.1753 0
M  V30 5646 H 520.181 1.84904 4.60569 0
M  V30 5647 H 515.437 3.0949 5.27282 0
M  V30 5648 H 519.611 3.97672 5.71691 0
M  V30 5649 H 517.238 4.60529 6.04828 0
M  V30 5650 N 518.813 -1.54241 0.323641 0
M  V30 5651 C 519.776 -2.22997 -0.529602 0
M  V30 5652 C 520.776 -1.22345 -1.04347 0
M  V30 5653 O 521.966 -1.46924 -0.935889 0
M  V30 5654 C 519.098 -2.93409 -1.73562 0
M  V30 5655 H 520.291 -2.99815 0.0714518 0
M  V30 5656 H 517.844 -1.56121 0.0747258 0
M  V30 5657 H 518.579 -2.20729 -2.37591 0
M  V30 5658 H 518.364 -3.67217 -1.37456 0
M  V30 5659 H 519.854 -3.45794 -2.34128 0
M  V30 5660 N 520.291 -0.0518155 -1.57515 0
M  V30 5661 C 521.238 0.922352 -2.11569 0
M  V30 5662 C 522.208 1.30842 -1.02321 0
M  V30 5663 O 523.393 1.39778 -1.29872 0
M  V30 5664 C 520.533 2.19167 -2.6657 0
M  V30 5665 C 519.646 1.86003 -3.89906 0
M  V30 5666 C 518.781 3.07398 -4.33221 0
M  V30 5667 C 517.82 2.70158 -5.49255 0
M  V30 5668 N 516.957 3.84248 -5.8762 0
M  V30 5669 H 521.797 0.454506 -2.94514 0
M  V30 5670 H 519.334 0.212718 -1.45554 0
M  V30 5671 H 521.292 2.93443 -2.96559 0
M  V30 5672 H 519.922 2.63528 -1.86421 0
M  V30 5673 H 518.974 1.01874 -3.66505 0
M  V30 5674 H 520.286 1.54592 -4.74239 0
M  V30 5675 H 519.44 3.89972 -4.64765 0
M  V30 5676 H 518.179 3.41988 -3.477 0
M  V30 5677 H 517.184 1.86001 -5.17382 0
M  V30 5678 H 518.409 2.36759 -6.36492 0
M  V30 5679 H 516.355 4.18638 -5.05053 0
M  V30 5680 H 516.272 3.56538 -6.66646 0
M  V30 5681 H 517.54 4.6746 -6.2378 0
M  V30 5682 N 521.769 1.56035 0.221574 0
M  V30 5683 C 523.016 1.79047 0.94597 0
M  V30 5684 C 523.344 0.62057 1.84334 0
M  V30 5685 O 522.599 -0.395053 1.91671 0
M  V30 5686 C 522.898 3.07813 1.8162 0
M  V30 5687 C 522.564 4.3797 1.07206 0
M  V30 5688 C 521.226 4.73334 0.866508 0
M  V30 5689 C 523.578 5.18326 0.546565 0
M  V30 5690 C 520.906 5.8657 0.123549 0
M  V30 5691 C 523.258 6.32335 -0.18305 0
M  V30 5692 C 521.922 6.66301 -0.399861 0
M  V30 5693 H 521.192 0.655178 0.346155 0
M  V30 5694 H 523.839 1.90299 0.214146 0
M  V30 5695 H 522.144 2.91682 2.61589 0
M  V30 5696 H 523.841 3.2282 2.37884 0
M  V30 5697 H 520.431 4.10202 1.24226 0
M  V30 5698 H 524.615 4.9144 0.692847 0
M  V30 5699 H 519.871 6.11376 -0.0546591 0
M  V30 5700 H 524.045 6.9383 -0.59775 0
M  V30 5701 H 521.672 7.53889 -0.977489 0
M  V30 5702 N 523.247 -0.488276 1.49845 0
M  V30 5703 C 524.475 -1.26527 1.63702 0
M  V30 5704 C 524.89 -1.8618 0.313447 0
M  V30 5705 O 524.247 -1.68432 -0.702624 0
M  V30 5706 C 524.298 -2.3864 2.71538 0
M  V30 5707 O 524.019 -1.81437 3.98763 0
M  V30 5708 C 525.52 -3.29805 2.96215 0
M  V30 5709 H 522.74 -0.383295 0.55075 0
M  V30 5710 H 525.284 -0.584779 1.95961 0
M  V30 5711 H 523.439 -3.02496 2.42023 0
M  V30 5712 H 523.853 -2.55135 4.58265 0
M  V30 5713 H 525.327 -4.04722 3.75372 0
M  V30 5714 H 525.804 -3.87563 2.06619 0
M  V30 5715 H 526.41 -2.71703 3.27196 0
M  V30 5716 N 524.725 -1.39134 -0.740242 0
M  V30 5717 C 525.972 -1.36071 -1.49969 0
M  V30 5718 C 526.3 0.0450245 -1.94448 0
M  V30 5719 O 525.555 1.02482 -1.66721 0
M  V30 5720 C 525.854 -2.27457 -2.75678 0
M  V30 5721 C 525.52 -3.75185 -2.50094 0
M  V30 5722 C 524.182 -4.15439 -2.42825 0
M  V30 5723 C 526.534 -4.68643 -2.28086 0
M  V30 5724 C 523.862 -5.4722 -2.11584 0
M  V30 5725 C 526.214 -6.00695 -1.98363 0
M  V30 5726 C 524.878 -6.40018 -1.8956 0
M  V30 5727 H 524.148 -0.497921 -0.548777 0
M  V30 5728 H 526.795 -1.71599 -0.85007 0
M  V30 5729 H 525.1 -1.8503 -3.45356 0
M  V30 5730 H 526.797 -2.22384 -3.33686 0
M  V30 5731 H 523.387 -3.43279 -2.56627 0
M  V30 5732 H 527.571 -4.3838 -2.32672 0
M  V30 5733 H 522.827 -5.76615 -2.03287 0
M  V30 5734 H 527.001 -6.72644 -1.80341 0
M  V30 5735 H 524.628 -7.42051 -1.65117 0
M  V30 5736 N 526.204 0.969867 -1.24223 0
M  V30 5737 C 527.114 2.09806 -1.0497 0
M  V30 5738 C 528.13 1.73998 0.00886455 0
M  V30 5739 O 529.306 2.00513 -0.188848 0
M  V30 5740 C 526.371 3.40467 -0.654452 0
M  V30 5741 C 525.432 3.90236 -1.78926 0
M  V30 5742 C 524.665 5.14662 -1.41277 0
M  V30 5743 O 524.888 5.69602 -0.301632 0
M  V30 5744 O 523.822 5.58761 -2.23763 0
M  V30 5745 H 527.648 2.28942 -1.99548 0
M  V30 5746 H 525.233 1.08197 -1.03023 0
M  V30 5747 H 527.115 4.19039 -0.445452 0
M  V30 5748 H 525.79 3.22636 0.262216 0
M  V30 5749 H 524.697 3.12735 -2.05299 0
M  V30 5750 H 526.03 4.1254 -2.68462 0
M  V30 5751 N 527.682 1.05563 1.17022 0
M  V30 5752 C 528.912 0.787307 1.91011 0
M  V30 5753 C 529.32 -0.661256 1.77268 0
M  V30 5754 O 528.663 -1.46379 1.10991 0
M  V30 5755 C 528.725 1.09313 3.42478 0
M  V30 5756 C 528.389 2.53863 3.80004 0
M  V30 5757 C 529.386 3.52081 3.82538 0
M  V30 5758 C 527.071 2.88969 4.10855 0
M  V30 5759 C 529.065 4.83449 4.15399 0
M  V30 5760 C 526.752 4.2054 4.43384 0
M  V30 5761 C 527.75 5.17589 4.45635 0
M  V30 5762 O 527.438 6.46799 4.77395 0
M  V30 5763 H 527.17 0.285463 0.61277 0
M  V30 5764 H 529.724 1.41051 1.49311 0
M  V30 5765 H 527.954 0.412833 3.8449 0
M  V30 5766 H 529.643 0.810224 3.97731 0
M  V30 5767 H 530.409 3.26299 3.58823 0
M  V30 5768 H 526.288 2.1409 4.08272 0
M  V30 5769 H 529.832 5.59194 4.1707 0
M  V30 5770 H 525.729 4.46083 4.66563 0
M  V30 5771 H 526.497 6.51677 4.95237 0
M  V30 5772 N 529.16 -1.33526 0.837174 0
M  V30 5773 C 530.385 -2.0258 0.444545 0
M  V30 5774 C 530.81 -1.6258 -0.946006 0
M  V30 5775 O 530.168 -0.817548 -1.6182 0
M  V30 5776 C 530.216 -3.5605 0.571006 0
M  V30 5777 O 529.32 -4.10422 -0.403431 0
M  V30 5778 H 528.661 -0.638866 0.180958 0
M  V30 5779 H 531.191 -1.70462 1.13154 0
M  V30 5780 H 531.201 -4.05488 0.452024 0
M  V30 5781 H 529.876 -3.84509 1.58512 0
M  V30 5782 H 528.453 -3.72113 -0.242147 0
M  V30 5783 N 530.638 -0.59345 -1.46 0
M  V30 5784 C 532.054 -0.255965 -1.57534 0
M  V30 5785 C 532.254 1.24167 -1.58697 0
M  V30 5786 O 531.31 2.02398 -1.50968 0
M  V30 5787 C 532.623 -0.91466 -2.86451 0
M  V30 5788 C 534.171 -0.889253 -3.00102 0
M  V30 5789 C 534.646 -1.52769 -4.3177 0
M  V30 5790 N 536.137 -1.49253 -4.38495 0
M  V30 5791 C 536.872 -1.9558 -5.39014 0
M  V30 5792 N 536.368 -2.49929 -6.46148 0
M  V30 5793 N 538.161 -1.86432 -5.30282 0
M  V30 5794 H 530.312 -1.56604 -1.43489 0
M  V30 5795 H 532.575 -0.655207 -0.685133 0
M  V30 5796 H 532.281 -1.96861 -2.91442 0
M  V30 5797 H 532.155 -0.429356 -3.74748 0
M  V30 5798 H 534.542 0.156111 -2.94687 0
M  V30 5799 H 534.623 -1.41268 -2.13253 0
M  V30 5800 H 534.267 -2.57231 -4.37944 0
M  V30 5801 H 534.197 -0.979398 -5.17412 0
M  V30 5802 H 536.688 -1.09536 -3.61677 0
M  V30 5803 H 537.001 -2.83109 -7.19075 0
M  V30 5804 H 535.346 -2.53961 -6.46938 0
M  V30 5805 H 538.537 -1.43722 -4.4549 0
M  V30 5806 H 538.71 -2.22852 -6.08474 0
M  V30 5807 N 532.116 1.54067 -0.331816 0
M  V30 5808 C 533.532 1.59587 0.0205388 0
M  V30 5809 C 533.732 1.34813 1.49759 0
M  V30 5810 O 532.788 1.13661 2.25471 0
M  V30 5811 C 534.101 2.97959 -0.405103 0
M  V30 5812 C 535.649 3.10964 -0.356454 0
M  V30 5813 C 536.124 4.51694 -0.757384 0
M  V30 5814 N 537.615 4.57709 -0.71111 0
M  V30 5815 C 538.35 5.64729 -0.993427 0
M  V30 5816 N 537.846 6.79652 -1.3433 0
M  V30 5817 N 539.639 5.54546 -0.918442 0
M  V30 5818 H 531.79 1.68426 -1.29407 0
M  V30 5819 H 534.053 0.78819 -0.526745 0
M  V30 5820 H 533.759 3.21115 -1.43451 0
M  V30 5821 H 533.633 3.76524 0.225692 0
M  V30 5822 H 536.02 2.87538 0.663763 0
M  V30 5823 H 536.101 2.34484 -1.02229 0
M  V30 5824 H 535.745 4.75853 -1.77555 0
M  V30 5825 H 535.675 5.26555 -0.0691444 0
M  V30 5826 H 538.166 3.75176 -0.452883 0
M  V30 5827 H 538.479 7.57221 -1.54388 0
M  V30 5828 H 536.824 6.81128 -1.38164 0
M  V30 5829 H 540.015 4.63641 -0.644536 0
M  V30 5830 H 540.188 6.37861 -1.14181 0
M  V30 5831 N 533.594 0.0601682 1.57485 0
M  V30 5832 C 534.544 -0.920969 2.08572 0
M  V30 5833 C 535.528 -1.26617 0.992827 0
M  V30 5834 O 536.72 -1.24708 1.25606 0
M  V30 5835 C 533.849 -2.19267 2.64153 0
M  V30 5836 C 532.935 -1.87447 3.80427 0
M  V30 5837 N 533.326 -1.26025 4.89848 0
M  V30 5838 C 531.624 -2.17265 3.89502 0
M  V30 5839 C 532.325 -1.12036 5.70809 0
M  V30 5840 N 531.301 -1.62624 5.18705 0
M  V30 5841 H 535.103 -0.441561 2.90564 0
M  V30 5842 H 532.617 -0.144043 1.6176 0
M  V30 5843 H 534.614 -2.90462 2.99061 0
M  V30 5844 H 533.274 -2.67806 1.83603 0
M  V30 5845 H 534.285 -0.931336 5.09457 0
M  V30 5846 H 530.962 -2.68262 3.19909 0
M  V30 5847 H 532.352 -0.642783 6.68818 0
M  V30 5848 N 535.072 -1.5615 -0.213296 0
M  V30 5849 C 536.483 -1.69645 -0.779582 0
M  V30 5850 C 536.834 -0.663615 -1.84636 0
M  V30 5851 O 535.959 0.183633 -2.15619 0
M  V30 5852 C 536.554 -3.07567 -1.42084 0
M  V30 5853 C 535.113 -3.22889 -1.93442 0
M  V30 5854 C 534.26 -2.65581 -0.797612 0
M  V30 5855 H 537.211 -1.58696 0.0114951 0
M  V30 5856 H 537.232 -3.03884 -2.28986 0
M  V30 5857 H 536.744 -3.82716 -0.644187 0
M  V30 5858 H 534.845 -2.52623 -2.73884 0
M  V30 5859 H 534.958 -4.30197 -2.10872 0
M  V30 5860 H 533.322 -2.24278 -1.20712 0
M  V30 5861 H 534.105 -3.43284 -0.033494 0
M  V30 5862 N 536.55 0.480323 -1.50102 0
M  V30 5863 C 537.827 1.24159 -1.51142 0
M  V30 5864 C 538.207 2.09605 -0.250818 0
M  V30 5865 O 537.555 2.15274 0.766118 0
M  V30 5866 C 537.765 2.08057 -2.80202 0
M  V30 5867 C 539.113 2.66556 -3.30504 0
M  V30 5868 O 540.137 2.18308 -2.81461 0
M  V30 5869 O 538.996 3.54442 -4.15973 0
M  V30 5870 H 536.09 0.562928 -0.605839 0
M  V30 5871 H 538.636 0.492899 -1.62384 0
M  V30 5872 H 537.408 1.45032 -3.6343 0
M  V30 5873 H 537.031 2.90079 -2.71919 0
M  V30 5874 N 538.028 1.39524 0.732853 0
M  V30 5875 C 538.958 1.41153 1.86005 0
M  V30 5876 C 539.939 0.274614 1.67869 0
M  V30 5877 O 541.124 0.480745 1.88155 0
M  V30 5878 C 538.254 1.25638 3.23778 0
M  V30 5879 C 537.208 2.36752 3.56556 0
M  V30 5880 C 536.534 2.06326 4.93289 0
M  V30 5881 C 537.834 3.79069 3.5931 0
M  V30 5882 H 539.528 2.35484 1.84899 0
M  V30 5883 H 537.074 1.13348 0.888162 0
M  V30 5884 H 539.027 1.25398 4.0231 0
M  V30 5885 H 537.751 0.277772 3.25417 0
M  V30 5886 H 536.41 2.36213 2.80355 0
M  V30 5887 H 536.058 1.06897 4.9151 0
M  V30 5888 H 535.758 2.80757 5.16187 0
M  V30 5889 H 537.282 2.07739 5.74175 0
M  V30 5890 H 538.696 3.81526 4.27914 0
M  V30 5891 H 537.093 4.52878 3.93728 0
M  V30 5892 H 538.163 4.09893 2.59068 0
M  V30 5893 N 539.506 -0.963266 1.24736 0
M  V30 5894 C 540.731 -1.74699 1.11781 0
M  V30 5895 C 541.156 -1.85267 -0.325258 0
M  V30 5896 O 540.514 -1.32681 -1.23553 0
M  V30 5897 C 540.562 -3.14322 1.76731 0
M  V30 5898 O 539.666 -3.99043 1.04109 0
M  V30 5899 H 539.007 -0.53684 0.390767 0
M  V30 5900 H 541.537 -1.20801 1.65131 0
M  V30 5901 H 541.547 -3.64824 1.82668 0
M  V30 5902 H 540.222 -3.05946 2.81726 0
M  V30 5903 H 538.799 -3.5752 1.05991 0
M  V30 5904 N 540.985 -1.06182 -1.16461 0
M  V30 5905 C 542.234 -0.772927 -1.86303 0
M  V30 5906 C 542.547 0.703187 -1.82523 0
M  V30 5907 O 543.753 1.10641 -2.47933 0
M  V30 5908 C 542.209 -1.33249 -3.34324 0
M  V30 5909 C 541.817 -2.83876 -3.46581 0
M  V30 5910 C 543.561 -1.12108 -4.09429 0
M  V30 5911 C 541.468 -3.33082 -4.88682 0
M  V30 5912 H 540.398 -0.285452 -0.697878 0
M  V30 5913 H 543.049 -1.28039 -1.31447 0
M  V30 5914 H 541.431 -0.7528 -3.88779 0
M  V30 5915 H 542.605 -3.47786 -3.02293 0
M  V30 5916 H 540.92 -3.03671 -2.84909 0
M  V30 5917 H 543.517 -1.46361 -5.14279 0
M  V30 5918 H 543.86 -0.0593832 -4.16258 0
M  V30 5919 H 544.393 -1.6665 -3.6121 0
M  V30 5920 H 541.132 -4.38726 -4.87032 0
M  V30 5921 H 540.652 -2.73919 -5.33599 0
M  V30 5922 H 542.331 -3.28344 -5.57494 0
M  V30 5923 N 542.463 1.3308 -0.844243 0
M  V30 5924 C 543.874 1.7992 -0.498566 0
M  V30 5925 C 544.225 1.69808 0.982834 0
M  V30 5926 O 543.35 1.25051 1.7661 0
M  V30 5927 C 543.945 3.26677 -0.898204 0
M  V30 5928 C 542.504 3.71513 -0.604583 0
M  V30 5929 C 541.651 2.54393 -1.10362 0
M  V30 5930 H 544.602 1.20526 -1.03244 0
M  V30 5931 H 544.623 3.79918 -0.21039 0
M  V30 5932 H 544.135 3.34004 -1.97643 0
M  V30 5933 H 542.236 3.69708 0.46335 0
M  V30 5934 H 542.349 4.64755 -1.16358 0
M  V30 5935 H 540.713 2.49246 -0.524273 0
M  V30 5936 H 541.496 2.6448 -2.18873 0
M  V30 5937 N 543.941 0.601185 1.45683 0
M  V30 5938 C 544.851 -0.123395 2.34275 0
M  V30 5939 C 545.867 -0.86702 1.5086 0
M  V30 5940 O 547.043 -0.826049 1.8368 0
M  V30 5941 C 544.108 -1.11237 3.2837 0
M  V30 5942 C 543.169 -0.371405 4.2769 0
M  V30 5943 C 542.402 -1.31327 5.1729 0
M  V30 5944 O 542.625 -2.55078 5.10188 0
M  V30 5945 O 541.559 -0.813811 5.96373 0
M  V30 5946 H 545.385 0.604483 2.97623 0
M  V30 5947 H 542.97 0.361477 1.44961 0
M  V30 5948 H 544.852 -1.68214 3.8637 0
M  V30 5949 H 543.527 -1.82139 2.67595 0
M  V30 5950 H 542.434 0.24067 3.73325 0
M  V30 5951 H 543.767 0.296998 4.91303 0
M  V30 5952 N 545.419 -1.53889 0.339982 0
M  V30 5953 C 546.349 -2.27843 -0.510856 0
M  V30 5954 C 547.33 -1.29267 -1.10563 0
M  V30 5955 O 548.515 -1.58104 -1.12768 0
M  V30 5956 C 545.645 -3.04857 -1.66372 0
M  V30 5957 C 544.599 -4.10907 -1.19746 0
M  V30 5958 C 543.925 -4.75855 -2.43857 0
M  V30 5959 C 545.225 -5.21435 -0.300501 0
M  V30 5960 H 546.919 -2.99212 0.106067 0
M  V30 5961 H 544.465 -1.43904 0.0524533 0
M  V30 5962 H 546.418 -3.5533 -2.26537 0
M  V30 5963 H 545.142 -2.31133 -2.30749 0
M  V30 5964 H 543.801 -3.61342 -0.618654 0
M  V30 5965 H 543.449 -3.9873 -3.06633 0
M  V30 5966 H 543.149 -5.47502 -2.13343 0
M  V30 5967 H 544.673 -5.2911 -3.04754 0
M  V30 5968 H 546.087 -5.67565 -0.80889 0
M  V30 5969 H 544.484 -6.00036 -0.0874076 0
M  V30 5970 H 545.554 -4.80328 0.664321 0
M  V30 5971 N 546.897 -0.0685191 -1.57451 0
M  V30 5972 C 547.827 0.89747 -2.15564 0
M  V30 5973 C 548.808 1.31266 -1.08181 0
M  V30 5974 O 549.993 1.38429 -1.36202 0
M  V30 5975 C 547.123 2.16623 -2.71463 0
M  V30 5976 C 546.077 1.89054 -3.83982 0
M  V30 5977 C 545.403 3.22532 -4.26471 0
M  V30 5978 C 546.703 1.1984 -5.08366 0
M  V30 5979 H 548.397 0.413373 -2.96533 0
M  V30 5980 H 545.943 0.197391 -1.42641 0
M  V30 5981 H 547.896 2.84614 -3.10761 0
M  V30 5982 H 546.62 2.67269 -1.8771 0
M  V30 5983 H 545.279 1.23469 -3.45183 0
M  V30 5984 H 544.927 3.71013 -3.39644 0
M  V30 5985 H 544.627 3.04879 -5.02317 0
M  V30 5986 H 546.151 3.91727 -4.68383 0
M  V30 5987 H 547.565 1.77896 -5.45001 0
M  V30 5988 H 545.962 1.12456 -5.89469 0
M  V30 5989 H 547.032 0.176996 -4.84577 0
M  V30 5990 N 548.375 1.56261 0.205012 0
M  V30 5991 C 549.791 1.49623 0.555433 0
M  V30 5992 C 549.991 0.766719 1.86343 0
M  V30 5993 O 549.047 0.313158 2.50551 0
M  V30 5994 C 550.36 2.94253 0.619347 0
M  V30 5995 C 551.908 3.04868 0.708855 0
M  V30 5996 C 552.383 4.50888 0.803969 0
M  V30 5997 N 553.874 4.54999 0.867758 0
M  V30 5998 C 554.609 5.65284 0.96135 0
M  V30 5999 N 554.105 6.85282 1.01786 0
M  V30 6000 N 555.898 5.53174 0.997771 0
M  V30 6001 H 548.049 2.0211 -0.653094 0
M  V30 6002 H 550.312 0.919333 -0.231366 0
M  V30 6003 H 550.018 3.50643 -0.272458 0
M  V30 6004 H 549.892 3.47063 1.47741 0
M  V30 6005 H 552.279 2.48532 1.5911 0
M  V30 6006 H 552.36 2.55199 -0.175205 0
M  V30 6007 H 552.004 5.07846 -0.0738798 0
M  V30 6008 H 551.934 4.98279 1.70369 0
M  V30 6009 H 554.425 3.68588 0.833735 0
M  V30 6010 H 554.738 7.65081 1.08951 0
M  V30 6011 H 553.083 6.8796 0.986706 0
M  V30 6012 H 556.274 4.5835 0.950392 0
M  V30 6013 H 556.447 6.39151 1.06725 0
M  V30 6014 N 549.853 -0.472356 1.50355 0
M  V30 6015 C 551.102 -1.2213 1.60522 0
M  V30 6016 C 551.415 -1.9312 0.310466 0
M  V30 6017 O 552.621 -2.69936 0.291029 0
M  V30 6018 C 551.077 -2.21909 2.83345 0
M  V30 6019 C 550.685 -1.56727 4.19691 0
M  V30 6020 C 552.429 -2.97453 3.02856 0
M  V30 6021 C 550.336 -2.54785 5.33703 0
M  V30 6022 H 549.266 -0.459543 0.597776 0
M  V30 6023 H 551.917 -0.491922 1.76783 0
M  V30 6024 H 550.299 -2.98133 2.60639 0
M  V30 6025 H 551.473 -0.863007 4.52646 0
M  V30 6026 H 549.788 -0.934685 4.05774 0
M  V30 6027 H 552.385 -3.70838 3.85205 0
M  V30 6028 H 552.728 -3.56764 2.14534 0
M  V30 6029 H 553.261 -2.28342 3.25737 0
M  V30 6030 H 550 -2.00214 6.24175 0
M  V30 6031 H 549.52 -3.23367 5.05167 0
M  V30 6032 H 551.199 -3.16639 5.64224 0
M  V30 6033 N 551.331 -1.39911 -0.725443 0
M  V30 6034 C 552.577 -1.37858 -1.48738 0
M  V30 6035 C 552.91 0.0224187 -1.94187 0
M  V30 6036 O 552.185 0.989204 -1.67466 0
M  V30 6037 C 552.468 -2.3594 -2.72038 0
M  V30 6038 C 552.321 -3.85023 -2.32546 0
M  V30 6039 C 553.64 -2.31704 -3.74167 0
M  V30 6040 H 550.759 -0.502074 -0.539528 0
M  V30 6041 H 553.401 -1.70974 -0.828728 0
M  V30 6042 H 551.551 -2.0783 -3.28236 0
M  V30 6043 H 553.223 -4.2392 -1.81905 0
M  V30 6044 H 551.466 -4.01334 -1.64661 0
M  V30 6045 H 552.137 -4.49152 -3.20884 0
M  V30 6046 H 554.613 -2.5658 -3.27576 0
M  V30 6047 H 553.489 -3.02395 -4.58092 0
M  V30 6048 H 553.75 -1.3253 -4.21768 0
M  V30 6049 N 552.809 0.956637 -1.25245 0
M  V30 6050 C 553.741 2.05628 -1.01242 0
M  V30 6051 C 554.754 1.62785 0.0219579 0
M  V30 6052 O 555.943 1.77184 -0.216365 0
M  V30 6053 C 553.043 3.35069 -0.508161 0
M  V30 6054 C 552.216 4.06761 -1.60823 0
M  V30 6055 C 551.275 5.14473 -1.1047 0
M  V30 6056 O 550.301 5.40033 -1.79868 0
M  V30 6057 N 551.503 5.80474 0.0550773 0
M  V30 6058 H 554.268 2.2679 -1.95925 0
M  V30 6059 H 551.829 1.12505 -1.16423 0
M  V30 6060 H 553.821 4.044 -0.155819 0
M  V30 6061 H 552.391 3.10694 0.344683 0
M  V30 6062 H 551.611 3.31555 -2.13224 0
M  V30 6063 H 552.899 4.51418 -2.34733 0
M  V30 6064 H 552.297 5.62125 0.635004 0
M  V30 6065 H 550.854 6.50868 0.348469 0
M  V30 6066 N 554.287 1.06798 1.15896 0
M  V30 6067 C 555.536 0.782796 1.8589 0
M  V30 6068 C 555.849 -0.693498 1.82893 0
M  V30 6069 O 557.055 -1.09325 2.48516 0
M  V30 6070 C 555.511 1.3502 3.33613 0
M  V30 6071 C 555.119 2.8571 3.45071 0
M  V30 6072 C 556.863 1.14278 4.08829 0
M  V30 6073 C 554.77 3.35669 4.86909 0
M  V30 6074 H 553.7 0.289149 0.696354 0
M  V30 6075 H 556.351 1.28734 1.30766 0
M  V30 6076 H 554.733 0.773407 3.88374 0
M  V30 6077 H 555.907 3.49385 3.00445 0
M  V30 6078 H 554.222 3.05178 2.83294 0
M  V30 6079 H 556.819 1.49087 5.13495 0
M  V30 6080 H 557.162 0.0814575 4.1622 0
M  V30 6081 H 557.695 1.68563 3.60321 0
M  V30 6082 H 554.434 4.41302 4.84698 0
M  V30 6083 H 553.954 2.76745 5.32139 0
M  V30 6084 H 555.633 3.31296 5.55745 0
M  V30 6085 N 555.766 -1.3263 0.851289 0
M  V30 6086 C 556.996 -2.01271 0.466222 0
M  V30 6087 C 557.404 -1.64156 -0.940714 0
M  V30 6088 O 556.747 -0.857109 -1.62479 0
M  V30 6089 C 556.809 -3.55695 0.521672 0
M  V30 6090 C 556.473 -4.16227 1.88691 0
M  V30 6091 C 557.47 -4.34699 2.85189 0
M  V30 6092 C 555.155 -4.52377 2.18313 0
M  V30 6093 C 557.149 -4.88484 4.09465 0
M  V30 6094 C 554.836 -5.05868 3.42843 0
M  V30 6095 C 555.834 -5.23869 4.38235 0
M  V30 6096 O 555.522 -5.76218 5.6056 0
M  V30 6097 H 555.254 -0.651034 0.18202 0
M  V30 6098 H 557.808 -1.7026 1.14894 0
M  V30 6099 H 556.038 -3.86086 -0.217888 0
M  V30 6100 H 557.727 -4.05613 0.152682 0
M  V30 6101 H 558.493 -4.07107 2.63607 0
M  V30 6102 H 554.372 -4.37652 1.44851 0
M  V30 6103 H 557.916 -5.02451 4.83931 0
M  V30 6104 H 553.813 -5.32891 3.64277 0
M  V30 6105 H 554.581 -5.94616 5.62471 0
M  V30 6106 N 557.244 -0.608902 -1.45362 0
M  V30 6107 C 558.191 0.109172 -2.30542 0
M  V30 6108 C 559.161 0.858704 -1.42181 0
M  V30 6109 O 560.346 0.844178 -1.71109 0
M  V30 6110 C 557.486 1.09971 -3.27109 0
M  V30 6111 C 556.599 0.350911 -4.30572 0
M  V30 6112 C 555.734 1.33129 -5.14247 0
M  V30 6113 C 554.773 0.570377 -6.09437 0
M  V30 6114 N 553.91 1.5001 -6.85887 0
M  V30 6115 H 558.75 -0.623195 -2.91411 0
M  V30 6116 H 556.287 -0.319122 -1.43597 0
M  V30 6117 H 558.245 1.68714 -3.81564 0
M  V30 6118 H 556.875 1.79947 -2.67991 0
M  V30 6119 H 555.927 -0.352054 -3.78767 0
M  V30 6120 H 557.239 -0.242725 -4.98209 0
M  V30 6121 H 556.393 1.99074 -5.73109 0
M  V30 6122 H 555.132 1.95885 -4.46632 0
M  V30 6123 H 554.137 -0.102702 -5.49704 0
M  V30 6124 H 555.362 -0.0521607 -6.7908 0
M  V30 6125 H 553.308 2.11529 -6.2096 0
M  V30 6126 H 553.225 0.959934 -7.49881 0
M  V30 6127 H 554.493 2.14909 -7.49289 0
M  V30 6128 N 558.722 1.53707 -0.348139 0
M  V30 6129 C 559.999 1.93247 0.302475 0
M  V30 6130 C 560.379 1.28012 1.67857 0
M  V30 6131 O 559.727 0.43274 2.24365 0
M  V30 6132 C 559.937 3.47031 0.370159 0
M  V30 6133 C 561.285 4.20066 0.61882 0
M  V30 6134 O 562.309 3.53319 0.452087 0
M  V30 6135 O 561.168 5.38318 0.94215 0
M  V30 6136 H 558.262 0.807736 0.177458 0
M  V30 6137 H 560.808 1.64927 -0.399651 0
M  V30 6138 H 559.58 3.86745 -0.59534 0
M  V30 6139 H 559.203 3.81532 1.11888 0
M  V30 6140 N 560.2 0.0768682 1.57412 0
M  V30 6141 C 561.13 -0.886026 2.16037 0
M  V30 6142 C 562.111 -1.30691 1.08876 0
M  V30 6143 O 563.296 -1.37705 1.36934 0
M  V30 6144 C 560.426 -2.1518 2.72608 0
M  V30 6145 C 559.38 -1.87015 3.8498 0
M  V30 6146 C 558.706 -3.20266 4.28175 0
M  V30 6147 C 560.006 -1.17143 5.08994 0
M  V30 6148 H 561.7 -0.397642 2.96748 0
M  V30 6149 H 559.246 -0.189823 1.42743 0
M  V30 6150 H 561.199 -2.82962 3.12266 0
M  V30 6151 H 559.923 -2.66269 1.89125 0
M  V30 6152 H 558.582 -1.21636 3.45833 0
M  V30 6153 H 558.23 -3.69207 3.41607 0
M  V30 6154 H 557.93 -3.0221 5.03927 0
M  V30 6155 H 559.454 -3.89237 4.70454 0
M  V30 6156 H 560.868 -1.75003 5.45937 0
M  V30 6157 H 559.265 -1.09328 5.90057 0
M  V30 6158 H 560.335 -0.151295 4.84664 0
M  V30 6159 N 561.678 -1.56367 -0.196722 0
M  V30 6160 C 562.608 -1.97442 -1.24655 0
M  V30 6161 C 563.589 -0.846147 -1.47561 0
M  V30 6162 O 564.774 -1.11035 -1.59326 0
M  V30 6163 C 561.904 -2.31253 -2.59112 0
M  V30 6164 C 560.858 -3.46804 -2.50821 0
M  V30 6165 C 560.184 -3.66286 -3.89536 0
M  V30 6166 C 561.484 -4.8104 -2.03465 0
M  V30 6167 H 563.178 -2.85388 -0.905216 0
M  V30 6168 H 560.724 -1.37304 -0.434002 0
M  V30 6169 H 562.677 -2.58583 -3.32736 0
M  V30 6170 H 561.401 -1.40188 -2.94983 0
M  V30 6171 H 560.06 -3.19563 -1.79653 0
M  V30 6172 H 559.708 -2.72555 -4.22756 0
M  V30 6173 H 559.408 -4.4402 -3.84864 0
M  V30 6174 H 560.932 -3.9599 -4.64784 0
M  V30 6175 H 562.346 -5.07411 -2.66846 0
M  V30 6176 H 560.743 -5.62232 -2.09798 0
M  V30 6177 H 561.813 -4.74732 -0.98781 0
M  V30 6178 N 563.156 0.464375 -1.50603 0
M  V30 6179 C 564.572 0.798684 -1.38178 0
M  V30 6180 C 564.772 1.96568 -0.44308 0
M  V30 6181 O 563.828 2.52252 0.111814 0
M  V30 6182 C 565.141 1.10444 -2.79683 0
M  V30 6183 C 566.689 1.2105 -2.88645 0
M  V30 6184 C 567.164 1.54934 -4.30998 0
M  V30 6185 N 568.655 1.61913 -4.3398 0
M  V30 6186 C 569.39 1.8965 -5.41129 0
M  V30 6187 N 568.886 2.15361 -6.58477 0
M  V30 6188 N 570.679 1.91207 -5.28579 0
M  V30 6189 H 562.83 -0.304603 -2.10204 0
M  V30 6190 H 565.093 -0.0737804 -0.945125 0
M  V30 6191 H 564.799 0.319934 -3.50242 0
M  V30 6192 H 564.673 2.03896 -3.17342 0
M  V30 6193 H 567.06 1.98567 -2.18301 0
M  V30 6194 H 567.141 0.255613 -2.5452 0
M  V30 6195 H 566.785 0.779549 -5.01882 0
M  V30 6196 H 566.715 2.51584 -4.62615 0
M  V30 6197 H 569.206 1.44055 -3.49366 0
M  V30 6198 H 569.519 2.35818 -7.35941 0
M  V30 6199 H 567.864 2.1274 -6.6164 0
M  V30 6200 H 571.055 1.70622 -4.35897 0
M  V30 6201 H 571.228 2.12488 -6.12171 0
M  V30 6202 N 564.634 1.40294 0.718013 0
M  V30 6203 C 565.582 1.40536 1.85344 0
M  V30 6204 C 566.576 0.286192 1.66965 0
M  V30 6205 O 567.782 0.457105 1.74099 0
M  V30 6206 H 564.157 0.439236 0.61039 0
M  V30 6207 H 566.128 2.36275 1.82255 0
M  V30 6208 C 564.877 1.28245 3.23185 0
M  V30 6209 H 564.2 2.1364 3.37932 0
M  V30 6210 H 565.64 1.32474 4.02774 0
M  V30 6211 C 564.099 -0.0075503 3.36899 0
M  V30 6212 O 564.629 -0.971391 3.89778 0
M  V30 6213 N 562.835 -0.0762479 2.905 0
M  V30 6214 H 562.382 0.708819 2.47656 0
M  V30 6215 H 562.34 -0.938846 3.00055 0
M  V30 6216 N 566.112 -0.949982 1.2575 0
M  V30 6217 C 567.352 -1.70994 1.11984 0
M  V30 6218 C 567.716 -1.89095 -0.332746 0
M  V30 6219 O 568.917 -2.62192 -0.592331 0
M  V30 6220 C 567.188 -3.05286 1.85837 0
M  V30 6221 S 568.747 -3.96477 1.88019 0
M  V30 6222 H 565.565 -0.587689 0.400178 0
M  V30 6223 H 568.167 -1.13271 1.59342 0
M  V30 6224 H 566.871 -2.89785 2.90608 0
M  V30 6225 H 566.402 -3.68069 1.38885 0
M  V30 6226 H 568.417 -4.86814 0.96057 0
M  V30 6227 N 567.59 -1.07411 -1.15328 0
M  V30 6228 C 568.83 -0.807011 -1.87794 0
M  V30 6229 C 569.194 0.654987 -1.80482 0
M  V30 6230 O 570.395 1.03716 -2.47985 0
M  V30 6231 C 568.666 -1.30198 -3.32841 0
M  V30 6232 S 570.225 -1.16564 -4.23034 0
M  V30 6233 H 567.043 -0.292429 -0.648079 0
M  V30 6234 H 569.645 -1.37334 -1.39139 0
M  V30 6235 H 568.349 -2.3607 -3.35707 0
M  V30 6236 H 567.88 -0.730881 -3.86551 0
M  V30 6237 H 569.895 -0.103557 -4.96092 0
M  V30 6238 N 569.068 1.32177 -0.85831 0
M  V30 6239 C 570.016 2.30729 -0.294442 0
M  V30 6240 C 571.01 1.59009 0.584165 0
M  V30 6241 O 572.216 1.73713 0.471562 0
M  V30 6242 H 568.591 0.748097 -0.0765171 0
M  V30 6243 H 570.562 2.75774 -1.1398 0
M  V30 6244 C 569.311 3.44098 0.499208 0
M  V30 6245 H 568.634 3.99449 -0.167579 0
M  V30 6246 H 570.074 4.15202 0.859273 0
M  V30 6247 C 568.533 2.91684 1.68588 0
M  V30 6248 O 569.063 2.89481 2.78503 0
M  V30 6249 N 567.269 2.48036 1.51415 0
M  V30 6250 H 566.816 2.50027 0.620006 0
M  V30 6251 H 566.774 2.13322 2.30957 0
M  V30 6252 N 570.547 0.616602 1.45037 0
M  V30 6253 C 571.775 0.121968 2.0654 0
M  V30 6254 C 572.19 -1.19743 1.45969 0
M  V30 6255 O 571.547 -1.73133 0.577168 0
M  V30 6256 C 571.598 -0.0145171 3.61497 0
M  V30 6257 O 571.319 1.25269 4.19809 0
M  V30 6258 C 572.82 -0.539555 4.40004 0
M  V30 6259 H 570.04 0.0729837 0.667019 0
M  V30 6260 H 572.584 0.846891 1.8614 0
M  V30 6261 H 570.739 -0.689809 3.81209 0
M  V30 6262 H 571.153 1.08816 5.13088 0
M  V30 6263 H 572.627 -0.584112 5.48901 0
M  V30 6264 H 573.104 -1.56368 4.10421 0
M  V30 6265 H 573.71 0.101995 4.25178 0
M  V30 6266 N 572.025 -1.5352 0.356285 0
M  V30 6267 C 572.935 -2.29151 -0.502712 0
M  V30 6268 C 573.951 -1.34753 -1.1008 0
M  V30 6269 O 575.127 -1.67803 -1.11374 0
M  V30 6270 C 572.192 -3.05911 -1.63154 0
M  V30 6271 C 571.253 -4.15958 -1.06194 0
M  V30 6272 C 570.486 -4.8905 -2.13696 0
M  V30 6273 O 570.709 -4.61919 -3.34645 0
M  V30 6274 O 569.643 -5.75202 -1.77275 0
M  V30 6275 H 573.469 -3.03492 0.112466 0
M  V30 6276 H 571.054 -1.4891 0.120942 0
M  V30 6277 H 572.936 -3.53874 -2.28804 0
M  V30 6278 H 571.611 -2.34415 -2.23229 0
M  V30 6279 H 570.518 -3.7227 -0.369603 0
M  V30 6280 H 571.851 -4.89593 -0.505872 0
M  V30 6281 N 573.503 -0.0852151 -1.57369 0
M  V30 6282 C 574.451 0.894856 -2.14698 0
M  V30 6283 C 575.445 1.29903 -1.08727 0
M  V30 6284 O 576.651 1.27471 -1.27088 0
M  V30 6285 H 573.026 0.306569 -0.686673 0
M  V30 6286 H 574.997 0.386542 -2.95886 0
M  V30 6287 C 573.746 2.14798 -2.73417 0
M  V30 6288 H 573.069 1.84585 -3.54638 0
M  V30 6289 H 574.509 2.81456 -3.1711 0
M  V30 6290 C 572.968 2.91546 -1.68828 0
M  V30 6291 O 573.498 3.85733 -1.12129 0
M  V30 6292 N 571.704 2.54901 -1.39549 0
M  V30 6293 H 571.251 1.7838 -1.85845 0
M  V30 6294 H 571.209 3.06553 -0.698054 0
M  V30 6295 N 574.981 1.5647 0.188427 0
M  V30 6296 C 576.392 1.70864 0.752494 0
M  V30 6297 C 576.743 0.692905 1.83557 0
M  V30 6298 O 575.868 -0.149307 2.15884 0
M  V30 6299 C 576.463 3.09789 1.37173 0
M  V30 6300 C 575.022 3.25925 1.88281 0
M  V30 6301 C 574.169 2.66817 0.755259 0
M  V30 6302 H 577.12 1.58657 -0.0367408 0
M  V30 6303 H 577.141 3.07489 2.24122 0
M  V30 6304 H 576.653 3.83693 0.583219 0
M  V30 6305 H 574.754 2.56948 2.6983 0
M  V30 6306 H 574.867 4.33498 2.04001 0
M  V30 6307 H 573.231 2.2617 1.17128 0
M  V30 6308 H 574.014 3.43294 -0.0211237 0
M  V30 6309 N 576.459 -0.456382 1.50847 0
M  V30 6310 C 577.87 -1.03685 1.55262 0
M  V30 6311 C 578.221 -1.92779 0.364771 0
M  V30 6312 O 577.346 -2.10043 -0.52068 0
M  V30 6313 C 577.941 -1.88718 2.81374 0
M  V30 6314 C 576.5 -2.41847 2.88422 0
M  V30 6315 C 575.647 -1.20564 2.49719 0
M  V30 6316 H 578.598 -0.238399 1.56899 0
M  V30 6317 H 578.619 -2.73957 2.6406 0
M  V30 6318 H 578.131 -1.23847 3.67809 0
M  V30 6319 H 576.232 -3.10228 2.06372 0
M  V30 6320 H 576.345 -2.75947 3.9165 0
M  V30 6321 H 574.709 -1.54504 2.02486 0
M  V30 6322 H 575.492 -0.573326 3.38479 0
M  V30 6323 N 577.937 -1.40673 -0.710563 0
M  V30 6324 C 579.185 -1.38947 -1.46759 0
M  V30 6325 C 579.506 0.00572879 -1.94999 0
M  V30 6326 O 578.776 0.961358 -1.70689 0
M  V30 6327 H 577.356 -0.5114 -0.544499 0
M  V30 6328 H 580.018 -1.75773 -0.842012 0
M  V30 6329 H 579.114 -2.06745 -2.33801 0
M  V30 6330 N 579.415 0.9433 -1.26252 0
M  V30 6331 C 580.655 1.70397 -1.1289 0
M  V30 6332 C 581.019 1.89268 0.322713 0
M  V30 6333 O 582.22 2.62503 0.578418 0
M  V30 6334 C 580.491 3.04296 -1.87453 0
M  V30 6335 S 582.05 3.95475 -1.90119 0
M  V30 6336 H 578.868 0.585559 -0.403289 0
M  V30 6337 H 581.47 1.12424 -1.59941 0
M  V30 6338 H 580.174 2.8824 -2.9214 0
M  V30 6339 H 579.705 3.67327 -1.40835 0
M  V30 6340 H 581.72 4.86297 -0.986373 0
M  V30 6341 N 580.893 1.08022 1.14757 0
M  V30 6342 C 582.123 0.827646 1.89298 0
M  V30 6343 C 582.531 -0.623506 1.78631 0
M  V30 6344 O 581.874 -1.43991 1.14071 0
M  V30 6345 C 581.936 1.16553 3.40082 0
M  V30 6346 C 581.6 2.61866 3.74533 0
M  V30 6347 C 582.597 3.60116 3.74984 0
M  V30 6348 C 580.282 2.97619 4.04633 0
M  V30 6349 C 582.276 4.92151 4.05051 0
M  V30 6350 C 579.963 4.2985 4.34364 0
M  V30 6351 C 580.961 5.26926 4.34555 0
M  V30 6352 O 580.649 6.5678 4.63568 0
M  V30 6353 H 580.381 0.298396 0.606577 0
M  V30 6354 H 582.935 1.44187 1.46285 0
M  V30 6355 H 581.165 0.494296 3.83528 0
M  V30 6356 H 582.854 0.894407 3.95923 0
M  V30 6357 H 583.62 3.33837 3.51821 0
M  V30 6358 H 579.499 2.22702 4.03639 0
M  V30 6359 H 583.043 5.67915 4.05115 0
M  V30 6360 H 578.94 4.55879 4.56995 0
M  V30 6361 H 579.708 6.62035 4.81303 0
M  V30 6362 N 582.371 -1.3172 0.865308 0
M  V30 6363 C 583.787 -1.4958 0.556596 0
M  V30 6364 C 583.987 -1.79763 -0.910353 0
M  V30 6365 O 583.043 -1.87351 -1.6928 0
M  V30 6366 C 584.356 -2.63277 1.45279 0
M  V30 6367 C 585.904 -2.77161 1.45433 0
M  V30 6368 C 586.379 -3.93949 2.33598 0
M  V30 6369 N 587.87 -4.01228 2.31453 0
M  V30 6370 C 588.605 -4.90855 2.96393 0
M  V30 6371 N 588.101 -5.85416 3.70486 0
M  V30 6372 N 589.894 -4.84063 2.85726 0
M  V30 6373 H 582.045 -1.10396 1.81456 0
M  V30 6374 H 584.308 -0.54507 0.775631 0
M  V30 6375 H 584.014 -2.47734 2.49641 0
M  V30 6376 H 583.888 -3.59309 1.14792 0
M  V30 6377 H 586.275 -2.9212 0.41831 0
M  V30 6378 H 586.356 -1.8181 1.79941 0
M  V30 6379 H 586 -3.79748 3.37274 0
M  V30 6380 H 585.93 -4.88598 1.96417 0
M  V30 6381 H 588.421 -3.3357 1.77593 0
M  V30 6382 H 588.734 -6.50525 4.17178 0
M  V30 6383 H 587.079 -5.85409 3.74594 0
M  V30 6384 H 590.27 -4.09163 2.27384 0
M  V30 6385 H 590.443 -5.53708 3.36617 0
M  V30 6386 N 583.85 -0.624285 -1.44708 0
M  V30 6387 C 585.08 -0.132726 -2.06173 0
M  V30 6388 C 585.488 1.19513 -1.46674 0
M  V30 6389 O 584.831 1.74254 -0.581491 0
M  V30 6390 C 584.893 0.0636732 -3.59444 0
M  V30 6391 C 584.557 -1.18496 -4.4137 0
M  V30 6392 C 585.553 -2.10706 -4.75288 0
M  V30 6393 C 583.239 -1.41846 -4.81856 0
M  V30 6394 C 585.233 -3.24582 -5.48567 0
M  V30 6395 C 582.92 -2.5602 -5.54885 0
M  V30 6396 C 583.918 -3.47215 -5.88159 0
M  V30 6397 O 583.606 -4.59399 -6.59703 0
M  V30 6398 H 583.338 -0.0737313 -0.671967 0
M  V30 6399 H 585.892 -0.856789 -1.86677 0
M  V30 6400 H 584.122 0.842809 -3.77404 0
M  V30 6401 H 585.811 0.508924 -4.02697 0
M  V30 6402 H 586.577 -1.93898 -4.44554 0
M  V30 6403 H 582.456 -0.717556 -4.55381 0
M  V30 6404 H 586 -3.95785 -5.74456 0
M  V30 6405 H 581.897 -2.72774 -5.85034 0
M  V30 6406 H 582.665 -4.58293 -6.78166 0
M  V30 6407 N 585.328 1.53329 -0.364422 0
M  V30 6408 C 586.291 2.24323 0.470292 0
M  V30 6409 C 587.291 1.25068 1.01067 0
M  V30 6410 O 588.481 1.49354 0.896605 0
M  V30 6411 C 585.613 2.97908 1.65722 0
M  V30 6412 H 586.806 2.9952 -0.150917 0
M  V30 6413 H 584.359 1.55868 -0.116092 0
M  V30 6414 H 585.094 2.2695 2.31655 0
M  V30 6415 H 584.879 3.70732 1.27671 0
M  V30 6416 H 586.369 3.5188 2.24878 0
M  V30 6417 N 586.806 0.0935595 1.57322 0
M  V30 6418 C 587.716 -0.880192 2.17462 0
M  V30 6419 C 588.732 -1.31135 1.14366 0
M  V30 6420 O 589.908 -1.37958 1.46729 0
M  V30 6421 C 586.973 -2.12184 2.74188 0
M  V30 6422 C 586.034 -1.74503 3.92234 0
M  V30 6423 C 585.267 -2.92748 4.46245 0
M  V30 6424 O 585.49 -4.07427 3.99198 0
M  V30 6425 O 584.424 -2.71303 5.37288 0
M  V30 6426 H 588.25 -0.398516 3.01074 0
M  V30 6427 H 585.835 -0.130707 1.48827 0
M  V30 6428 H 587.717 -2.84953 3.10451 0
M  V30 6429 H 586.392 -2.59407 1.93623 0
M  V30 6430 H 585.299 -0.989186 3.60785 0
M  V30 6431 H 586.632 -1.32044 4.74157 0
M  V30 6432 N 588.284 -1.56567 -0.180126 0
M  V30 6433 C 589.561 -1.7235 -0.924931 0
M  V30 6434 C 589.941 -0.652523 -2.00762 0
M  V30 6435 O 589.289 0.334115 -2.26044 0
M  V30 6436 C 589.499 -3.1523 -1.49771 0
M  V30 6437 C 590.847 -3.75921 -1.97405 0
M  V30 6438 O 591.871 -3.18452 -1.59583 0
M  V30 6439 O 590.73 -4.7681 -2.67048 0
M  V30 6440 H 587.824 -0.703502 -0.434758 0
M  V30 6441 H 590.37 -1.6886 -0.168647 0
M  V30 6442 H 589.142 -3.84656 -0.718027 0
M  V30 6443 H 588.765 -3.23009 -2.31842 0
M  V30 6444 N 589.762 0.448376 -1.51087 0
M  V30 6445 C 590.709 1.54341 -1.71603 0
M  V30 6446 C 591.679 1.56463 -0.557536 0
M  V30 6447 O 592.864 1.73644 -0.79072 0
M  V30 6448 C 590.004 2.92148 -1.83695 0
M  V30 6449 C 589.117 2.99639 -3.11192 0
M  V30 6450 C 588.252 4.285 -3.13944 0
M  V30 6451 C 587.291 4.29819 -4.35801 0
M  V30 6452 N 586.428 5.50186 -4.36164 0
M  V30 6453 H 591.268 1.36151 -2.65079 0
M  V30 6454 H 588.805 0.661585 -1.31383 0
M  V30 6455 H 590.763 3.72093 -1.88687 0
M  V30 6456 H 589.393 3.0892 -0.936374 0
M  V30 6457 H 588.445 2.12425 -3.15562 0
M  V30 6458 H 589.757 2.96474 -4.01129 0
M  V30 6459 H 588.911 5.16811 -3.17791 0
M  V30 6460 H 587.65 4.34307 -2.21876 0
M  V30 6461 H 586.655 3.39902 -4.32142 0
M  V30 6462 H 587.88 4.25685 -5.29121 0
M  V30 6463 H 585.826 5.56735 -3.46961 0
M  V30 6464 H 585.743 5.48856 -5.19897 0
M  V30 6465 H 587.011 6.40559 -4.44189 0
M  V30 6466 N 591.24 1.41047 0.703093 0
M  V30 6467 C 592.487 1.4 1.46309 0
M  V30 6468 C 592.815 0.00654574 1.94499 0
M  V30 6469 O 592.07 -0.980255 1.6938 0
M  V30 6470 C 592.369 2.34686 2.6955 0
M  V30 6471 C 592.035 3.81684 2.40058 0
M  V30 6472 C 590.697 4.21731 2.31725 0
M  V30 6473 C 593.049 4.74525 2.15581 0
M  V30 6474 C 590.377 5.52637 1.97001 0
M  V30 6475 C 592.729 6.05744 1.82366 0
M  V30 6476 C 591.393 6.44819 1.72524 0
M  V30 6477 H 590.663 0.512295 0.535382 0
M  V30 6478 H 593.31 1.73792 0.804275 0
M  V30 6479 H 591.615 1.94122 3.40329 0
M  V30 6480 H 593.312 2.31152 3.27673 0
M  V30 6481 H 589.902 3.49963 2.47435 0
M  V30 6482 H 594.086 4.44395 2.20968 0
M  V30 6483 H 589.342 5.81802 1.87928 0
M  V30 6484 H 593.516 6.77189 1.62444 0
M  V30 6485 H 591.143 7.46168 1.45385 0
M  V30 6486 N 592.718 -0.936591 1.26751 0
M  V30 6487 C 593.666 -2.0573 1.08527 0
M  V30 6488 C 594.66 -1.69397 0.0108784 0
M  V30 6489 O 595.866 -1.79215 0.167915 0
M  V30 6490 H 592.241 -0.673691 0.334133 0
M  V30 6491 H 594.212 -2.1825 2.03493 0
M  V30 6492 C 592.961 -3.39738 0.739845 0
M  V30 6493 H 592.284 -3.68174 1.55845 0
M  V30 6494 H 593.724 -4.18955 0.652149 0
M  V30 6495 C 592.183 -3.32292 -0.555288 0
M  V30 6496 O 592.713 -3.68794 -1.59229 0
M  V30 6497 N 590.919 -2.85394 -0.54762 0
M  V30 6498 H 590.466 -2.55886 0.296667 0
M  V30 6499 H 590.424 -2.80795 -1.41427 0
M  V30 6500 N 594.196 -1.08629 -1.14182 0
M  V30 6501 C 595.106 -0.730126 -2.22949 0
M  V30 6502 C 596.122 0.26436 -1.7198 0
M  V30 6503 O 597.298 0.107742 -2.01112 0
M  V30 6504 C 594.363 -0.147227 -3.46387 0
M  V30 6505 C 593.424 -1.19662 -4.12286 0
M  V30 6506 C 592.657 -0.641437 -5.29831 0
M  V30 6507 O 592.88 0.538351 -5.67854 0
M  V30 6508 O 591.814 -1.39257 -5.85569 0
M  V30 6509 H 595.64 -1.63753 -2.55771 0
M  V30 6510 H 593.225 -0.860118 -1.22157 0
M  V30 6511 H 595.107 0.174923 -4.21037 0
M  V30 6512 H 593.782 0.733304 -3.15285 0
M  V30 6513 H 592.689 -1.57133 -3.395 0
M  V30 6514 H 594.022 -2.0495 -4.475 0
M  V30 6515 N 595.674 1.31259 -0.872281 0
M  V30 6516 C 596.902 2.00795 -0.498907 0
M  V30 6517 C 597.317 1.65464 0.909238 0
M  V30 6518 O 596.674 0.885073 1.59602 0
M  V30 6519 C 596.725 3.55625 -0.649092 0
M  V30 6520 O 596.446 3.89692 -2.00179 0
M  V30 6521 C 597.947 4.42434 -0.277034 0
M  V30 6522 H 595.167 0.642299 -0.194145 0
M  V30 6523 H 597.711 1.67438 -1.17408 0
M  V30 6524 H 595.866 3.87394 -0.0214402 0
M  V30 6525 H 596.28 4.84407 -2.01122 0
M  V30 6526 H 597.754 5.50299 -0.433064 0
M  V30 6527 H 598.231 4.32146 0.783989 0
M  V30 6528 H 598.837 4.16086 -0.880483 0
M  V30 6529 N 597.152 0.631951 1.44375 0
M  V30 6530 C 598.38 0.143867 2.06399 0
M  V30 6531 C 598.795 -1.18188 1.47231 0
M  V30 6532 O 598.152 -1.72511 0.595498 0
M  V30 6533 C 598.203 0.0238253 3.61492 0
M  V30 6534 O 597.924 1.29715 4.18456 0
M  V30 6535 C 599.425 -0.492856 4.40552 0
M  V30 6536 H 596.645 0.0800542 0.666207 0
M  V30 6537 H 599.189 0.866586 1.85231 0
M  V30 6538 H 597.344 -0.649338 3.81919 0
M  V30 6539 H 597.758 1.14252 5.11905 0
M  V30 6540 H 599.232 -0.525861 5.49489 0
M  V30 6541 H 599.709 -1.52006 4.12057 0
M  V30 6542 H 600.315 0.147085 4.25046 0
M  V30 6543 N 598.631 -1.53133 0.372548 0
M  V30 6544 C 599.541 -2.29671 -0.478379 0
M  V30 6545 C 600.557 -1.35913 -1.08644 0
M  V30 6546 O 601.733 -1.68975 -1.09588 0
M  V30 6547 C 598.798 -3.07625 -1.599 0
M  V30 6548 C 597.859 -4.17061 -1.01776 0
M  V30 6549 C 597.092 -4.91289 -2.08497 0
M  V30 6550 O 597.315 -4.65442 -3.29727 0
M  V30 6551 O 596.249 -5.7705 -1.71164 0
M  V30 6552 H 600.075 -3.03355 0.144649 0
M  V30 6553 H 597.66 -1.48773 0.136729 0
M  V30 6554 H 599.542 -3.56281 -2.25038 0
M  V30 6555 H 598.217 -2.3677 -2.2073 0
M  V30 6556 H 597.124 -3.72641 -0.330098 0
M  V30 6557 H 598.457 -4.90102 -0.453915 0
M  V30 6558 N 600.109 -0.101901 -1.5727 0
M  V30 6559 C 601.056 0.854577 -2.14396 0
M  V30 6560 C 602.026 1.27521 -1.06432 0
M  V30 6561 O 603.211 1.35575 -1.34253 0
M  V30 6562 C 600.351 2.10576 -2.73408 0
M  V30 6563 C 599.464 1.73504 -3.95626 0
M  V30 6564 C 598.599 2.9346 -4.42781 0
M  V30 6565 C 597.638 2.52547 -5.57572 0
M  V30 6566 N 596.775 3.65359 -5.99547 0
M  V30 6567 H 601.615 0.360578 -2.9581 0
M  V30 6568 H 599.152 0.166303 -1.46157 0
M  V30 6569 H 601.11 2.83859 -3.05745 0
M  V30 6570 H 599.74 2.57463 -1.94711 0
M  V30 6571 H 598.792 0.901622 -3.6956 0
M  V30 6572 H 600.104 1.39426 -4.78917 0
M  V30 6573 H 599.258 3.74988 -4.76937 0
M  V30 6574 H 597.997 3.30753 -3.58404 0
M  V30 6575 H 597.002 1.69446 -5.23037 0
M  V30 6576 H 598.227 2.1639 -6.43702 0
M  V30 6577 H 596.173 4.02358 -5.18116 0
M  V30 6578 H 596.09 3.35148 -6.77652 0
M  V30 6579 H 597.358 4.47378 -6.38336 0
M  V30 6580 N 601.587 1.56661 0.17182 0
M  V30 6581 C 602.812 1.86459 0.908165 0
M  V30 6582 C 603.237 0.688181 1.75059 0
M  V30 6583 O 602.595 -0.362753 1.77634 0
M  V30 6584 C 602.643 3.14669 1.76112 0
M  V30 6585 O 601.747 2.96858 2.86268 0
M  V30 6586 H 601.088 0.613318 0.254434 0
M  V30 6587 H 603.618 2.03892 0.170113 0
M  V30 6588 H 603.628 3.46061 2.16115 0
M  V30 6589 H 602.303 3.99905 1.14233 0
M  V30 6590 H 600.88 2.76819 2.49852 0
M  V30 6591 N 603.065 -0.440357 1.51323 0
M  V30 6592 C 603.995 -1.54174 1.75364 0
M  V30 6593 C 604.976 -1.59039 0.603375 0
M  V30 6594 O 606.161 -1.74815 0.845774 0
M  V30 6595 C 603.291 -2.92277 1.87593 0
M  V30 6596 C 602.245 -3.02274 3.03009 0
M  V30 6597 C 601.571 -4.42327 3.00418 0
M  V30 6598 C 602.871 -2.76634 4.43024 0
M  V30 6599 H 604.565 -1.34307 2.67585 0
M  V30 6600 H 602.111 -0.644678 1.28763 0
M  V30 6601 H 604.064 -3.69284 2.02995 0
M  V30 6602 H 602.788 -3.13369 0.920179 0
M  V30 6603 H 601.447 -2.27706 2.87307 0
M  V30 6604 H 601.095 -4.60382 2.02626 0
M  V30 6605 H 600.795 -4.49946 3.77918 0
M  V30 6606 H 602.319 -5.21312 3.17909 0
M  V30 6607 H 603.733 -3.43376 4.59093 0
M  V30 6608 H 602.13 -2.95666 5.22208 0
M  V30 6609 H 603.2 -1.72262 4.5327 0
M  V30 6610 N 604.543 -1.41418 -0.695603 0
M  V30 6611 C 605.49 -1.43264 -1.80954 0
M  V30 6612 C 606.46 -0.287016 -1.63601 0
M  V30 6613 O 607.645 -0.488054 -1.84452 0
M  V30 6614 C 604.785 -1.32054 -3.18835 0
M  V30 6615 C 603.898 -2.56485 -3.4762 0
M  V30 6616 C 603.033 -2.3757 -4.75115 0
M  V30 6617 C 602.072 -3.57477 -4.96867 0
M  V30 6618 N 601.209 -3.37632 -6.15588 0
M  V30 6619 H 606.049 -2.38467 -1.78711 0
M  V30 6620 H 603.586 -1.18415 -0.872715 0
M  V30 6621 H 605.544 -1.23558 -3.98484 0
M  V30 6622 H 604.174 -0.404592 -3.20254 0
M  V30 6623 H 603.226 -2.75432 -2.62376 0
M  V30 6624 H 604.538 -3.45678 -3.59594 0
M  V30 6625 H 603.692 -2.2654 -5.62818 0
M  V30 6626 H 602.431 -1.45834 -4.65386 0
M  V30 6627 H 601.436 -3.68961 -4.07612 0
M  V30 6628 H 602.661 -4.50167 -5.08455 0
M  V30 6629 H 600.607 -2.48596 -6.07072 0
M  V30 6630 H 600.524 -4.20401 -6.2833 0
M  V30 6631 H 601.792 -3.30375 -7.06026 0
M  V30 6632 N 606.021 0.929856 -1.27246 0
M  V30 6633 C 606.954 2.03069 -1.04106 0
M  V30 6634 C 607.932 1.62556 0.0378417 0
M  V30 6635 O 609.116 1.88197 -0.106869 0
M  V30 6636 C 606.243 3.33718 -0.578778 0
M  V30 6637 C 605.289 3.93209 -1.65193 0
M  V30 6638 S 606.122 4.26068 -3.24386 0
M  V30 6639 C 607.278 5.598 -2.79954 0
M  V30 6640 H 607.511 2.22386 -1.97311 0
M  V30 6641 H 605.044 1.07269 -1.11053 0
M  V30 6642 H 607.002 4.09261 -0.31874 0
M  V30 6643 H 605.663 3.12328 0.333182 0
M  V30 6644 H 604.856 4.87482 -1.27973 0
M  V30 6645 H 604.458 3.24243 -1.86393 0
M  V30 6646 H 606.75 6.39004 -2.25123 0
M  V30 6647 H 607.693 6.01917 -3.72963 0
M  V30 6648 H 608.101 5.20219 -2.19164 0
M  V30 6649 N 607.499 1.09233 1.13605 0
M  V30 6650 C 608.745 0.828385 1.8511 0
M  V30 6651 C 609.078 -0.64437 1.83198 0
M  V30 6652 O 608.353 -1.47428 1.26867 0
M  V30 6653 C 608.636 1.36167 3.33363 0
M  V30 6654 C 608.489 2.90038 3.438 0
M  V30 6655 C 609.808 0.993819 4.28732 0
M  V30 6656 H 606.927 0.30239 0.672108 0
M  V30 6657 H 609.569 1.35339 1.33355 0
M  V30 6658 H 607.719 0.9151 3.77569 0
M  V30 6659 H 609.391 3.43128 3.08319 0
M  V30 6660 H 607.634 3.27271 2.84739 0
M  V30 6661 H 608.305 3.22428 4.48045 0
M  V30 6662 H 610.781 1.37893 3.92587 0
M  V30 6663 H 609.657 1.39403 5.30903 0
M  V30 6664 H 609.918 -0.0982206 4.41991 0
M  V30 6665 N 608.977 -1.30795 0.87923 0
M  V30 6666 C 609.909 -2.27241 0.299025 0
M  V30 6667 C 610.922 -1.53472 -0.543166 0
M  V30 6668 O 612.111 -1.74756 -0.363651 0
M  V30 6669 C 609.211 -3.33655 -0.593931 0
M  V30 6670 C 608.384 -4.36857 0.2179 0
M  V30 6671 C 607.443 -5.22715 -0.604646 0
M  V30 6672 O 606.469 -5.69192 -0.0293838 0
M  V30 6673 N 607.671 -5.48008 -1.91488 0
M  V30 6674 H 610.436 -2.77667 1.12788 0
M  V30 6675 H 607.997 -1.43914 0.741637 0
M  V30 6676 H 609.989 -3.88013 -1.15012 0
M  V30 6677 H 608.559 -2.83202 -1.32346 0
M  V30 6678 H 607.779 -3.82444 0.955536 0
M  V30 6679 H 609.067 -5.02869 0.774614 0
M  V30 6680 H 608.465 -5.1202 -2.40525 0
M  V30 6681 H 607.022 -6.05264 -2.41864 0
M  V30 6682 N 610.455 -0.639598 -1.44038 0
M  V30 6683 C 611.387 0.0987684 -2.28987 0
M  V30 6684 C 612.4 0.80058 -1.41755 0
M  V30 6685 O 613.589 0.660611 -1.65826 0
M  V30 6686 C 610.689 1.16242 -3.18341 0
M  V30 6687 C 609.862 0.541447 -4.34036 0
M  V30 6688 C 608.921 1.50017 -5.04362 0
M  V30 6689 O 607.947 1.01403 -5.60095 0
M  V30 6690 N 609.149 2.83441 -5.06598 0
M  V30 6691 H 611.914 -0.630305 -2.92997 0
M  V30 6692 H 609.475 -0.481376 -1.54578 0
M  V30 6693 H 611.467 1.80429 -3.62253 0
M  V30 6694 H 610.037 1.79362 -2.56024 0
M  V30 6695 H 609.257 -0.27923 -3.9321 0
M  V30 6696 H 610.545 0.107379 -5.08687 0
M  V30 6697 H 609.943 3.2551 -4.62666 0
M  V30 6698 H 608.5 3.42966 -5.54272 0
M  V30 6699 N 611.933 1.52934 -0.380664 0
M  V30 6700 C 612.843 2.29921 0.466192 0
M  V30 6701 C 613.859 1.36488 1.07922 0
M  V30 6702 O 615.035 1.69553 1.0869 0
M  V30 6703 C 612.1 3.08468 1.58266 0
M  V30 6704 C 611.161 4.17595 0.995627 0
M  V30 6705 C 610.394 4.92387 2.05889 0
M  V30 6706 O 610.617 4.67184 3.27254 0
M  V30 6707 O 609.551 5.77949 1.68102 0
M  V30 6708 H 613.377 3.03274 -0.160735 0
M  V30 6709 H 610.962 1.48698 -0.144617 0
M  V30 6710 H 612.844 3.57469 2.23145 0
M  V30 6711 H 611.519 2.37937 2.19471 0
M  V30 6712 H 610.426 3.72811 0.310332 0
M  V30 6713 H 611.759 4.90336 0.427918 0
M  V30 6714 N 613.412 0.11024 1.57214 0
M  V30 6715 C 614.652 -0.553061 1.96775 0
M  V30 6716 C 615.016 -1.64403 0.991753 0
M  V30 6717 O 616.217 -2.36561 1.27642 0
M  V30 6718 C 614.488 -1.08004 3.4069 0
M  V30 6719 S 616.047 -1.75309 4.02259 0
M  V30 6720 H 612.865 -0.18003 0.68783 0
M  V30 6721 H 615.467 0.193242 1.94543 0
M  V30 6722 H 614.171 -0.274735 4.09479 0
M  V30 6723 H 613.702 -1.86182 3.46554 0
M  V30 6724 H 615.717 -3.03834 3.923 0
M  V30 6725 N 614.89 -1.56749 -0.16351 0
M  V30 6726 C 615.837 -1.97011 -1.2023 0
M  V30 6727 C 616.807 -0.835186 -1.43575 0
M  V30 6728 O 617.992 -1.09594 -1.56185 0
M  V30 6729 C 615.132 -2.34186 -2.53478 0
M  V30 6730 C 614.245 -3.60893 -2.37446 0
M  V30 6731 C 613.38 -3.87245 -3.63614 0
M  V30 6732 C 612.419 -5.07274 -3.42548 0
M  V30 6733 N 611.556 -5.29719 -4.60806 0
M  V30 6734 H 616.396 -2.85562 -0.851958 0
M  V30 6735 H 613.933 -1.41292 -0.409257 0
M  V30 6736 H 615.891 -2.53764 -3.31149 0
M  V30 6737 H 614.521 -1.48736 -2.86492 0
M  V30 6738 H 613.573 -3.49185 -1.50911 0
M  V30 6739 H 614.885 -4.48722 -2.1783 0
M  V30 6740 H 614.039 -4.07232 -4.49719 0
M  V30 6741 H 612.778 -2.97806 -3.86216 0
M  V30 6742 H 611.783 -4.87177 -2.5483 0
M  V30 6743 H 613.008 -5.98251 -3.2136 0
M  V30 6744 H 610.954 -4.43233 -4.83612 0
M  V30 6745 H 610.871 -6.11786 -4.44132 0
M  V30 6746 H 612.139 -5.54192 -5.48171 0
M  V30 6747 N 616.368 0.432326 -1.51554 0
M  V30 6748 C 617.318 1.52366 -1.69614 0
M  V30 6749 C 618.302 1.51205 -0.550083 0
M  V30 6750 O 619.494 1.57573 -0.806206 0
M  V30 6751 C 616.623 2.90513 -1.82913 0
M  V30 6752 C 615.709 2.9641 -3.03318 0
M  V30 6753 N 616.1 2.72043 -4.26411 0
M  V30 6754 C 614.398 3.27572 -3.02675 0
M  V30 6755 C 615.099 2.83912 -5.07709 0
M  V30 6756 N 614.075 3.15798 -4.42462 0
M  V30 6757 H 617.877 1.32285 -2.62446 0
M  V30 6758 H 615.391 0.639708 -1.4927 0
M  V30 6759 H 617.388 3.69032 -1.93962 0
M  V30 6760 H 616.048 3.1161 -0.912655 0
M  V30 6761 H 617.059 2.46876 -4.55272 0
M  V30 6762 H 613.736 3.54411 -2.20678 0
M  V30 6763 H 615.126 2.68984 -6.15709 0
M  V30 6764 N 617.846 1.41785 0.688094 0
M  V30 6765 C 619.093 1.41544 1.44816 0
M  V30 6766 C 619.421 0.0271746 1.94481 0
M  V30 6767 O 618.676 -0.962235 1.7041 0
M  V30 6768 C 618.975 2.37532 2.67046 0
M  V30 6769 C 618.641 3.84209 2.35996 0
M  V30 6770 C 617.303 4.24165 2.27239 0
M  V30 6771 C 619.655 4.76785 2.10536 0
M  V30 6772 C 616.983 5.54695 1.91128 0
M  V30 6773 C 619.335 6.07644 1.75931 0
M  V30 6774 C 617.999 6.46613 1.65675 0
M  V30 6775 H 617.269 0.517945 0.529919 0
M  V30 6776 H 619.916 1.74635 0.785797 0
M  V30 6777 H 618.221 1.9772 3.38251 0
M  V30 6778 H 619.918 2.34615 3.25203 0
M  V30 6779 H 616.508 3.52567 2.4371 0
M  V30 6780 H 620.692 4.46714 2.16242 0
M  V30 6781 H 615.948 5.83762 1.81746 0
M  V30 6782 H 620.122 6.78874 1.55252 0
M  V30 6783 H 617.749 7.47668 1.37463 0
M  V30 6784 N 619.324 -0.923095 1.27737 0
M  V30 6785 C 620.256 -2.02871 1.06658 0
M  V30 6786 C 621.269 -1.62786 0.0212095 0
M  V30 6787 O 622.458 -1.76548 0.263267 0
M  V30 6788 C 619.558 -3.33603 0.59682 0
M  V30 6789 C 618.731 -4.02354 1.71551 0
M  V30 6790 C 617.79 -5.11364 1.24071 0
M  V30 6791 O 616.816 -5.35075 1.94123 0
M  V30 6792 N 618.018 -5.80416 0.0988444 0
M  V30 6793 H 620.783 -2.21515 2.01869 0
M  V30 6794 H 618.344 -1.09378 1.19365 0
M  V30 6795 H 620.336 -4.03845 0.262984 0
M  V30 6796 H 618.906 -3.11499 -0.262187 0
M  V30 6797 H 618.126 -3.25786 2.2194 0
M  V30 6798 H 619.414 -4.45035 2.46619 0
M  V30 6799 H 618.812 -5.63611 -0.485743 0
M  V30 6800 H 617.369 -6.51563 -0.17578 0
M  V30 6801 N 620.802 -1.09834 -1.13024 0
M  V30 6802 C 621.75 -0.736283 -2.20639 0
M  V30 6803 C 622.744 0.264725 -1.67319 0
M  V30 6804 O 623.95 0.125745 -1.7956 0
M  V30 6805 H 620.325 -0.220136 -0.719058 0
M  V30 6806 H 622.296 -1.65295 -2.48436 0
M  V30 6807 C 621.045 -0.177544 -3.47246 0
M  V30 6808 H 620.368 -0.939009 -3.88616 0
M  V30 6809 H 621.808 0.0378007 -4.23983 0
M  V30 6810 C 620.267 1.08824 -3.1884 0
M  V30 6811 O 620.797 2.1708 -3.37993 0
M  V30 6812 N 619.003 1.00442 -2.7269 0
M  V30 6813 H 618.55 0.123383 -2.57304 0
M  V30 6814 H 618.508 1.85206 -2.5406 0
M  V30 6815 N 622.28 1.30327 -0.886154 0
M  V30 6816 C 623.21 2.30549 -0.370028 0
M  V30 6817 C 624.191 1.61039 0.547751 0
M  V30 6818 O 625.376 1.8864 0.461353 0
M  V30 6819 C 622.506 3.44808 0.415275 0
M  V30 6820 C 621.46 4.26024 -0.41085 0
M  V30 6821 C 620.786 5.32347 0.501128 0
M  V30 6822 C 622.086 4.95433 -1.65359 0
M  V30 6823 H 623.78 2.73969 -1.20754 0
M  V30 6824 H 621.326 1.3171 -0.582097 0
M  V30 6825 H 623.279 4.13986 0.78699 0
M  V30 6826 H 622.003 3.00197 1.28644 0
M  V30 6827 H 620.662 3.58535 -0.764719 0
M  V30 6828 H 620.31 4.83982 1.37004 0
M  V30 6829 H 620.01 5.87581 -0.0478356 0
M  V30 6830 H 621.534 6.0438 0.869333 0
M  V30 6831 H 622.948 5.5712 -1.35239 0
M  V30 6832 H 621.345 5.60537 -2.14284 0
M  V30 6833 H 622.415 4.21493 -2.39733 0
M  V30 6834 N 623.758 0.647228 1.43697 0
M  V30 6835 C 625.006 0.157876 2.01482 0
M  V30 6836 C 625.327 -1.23039 1.51282 0
M  V30 6837 O 624.597 -1.82071 0.722982 0
M  V30 6838 H 623.177 0.0553745 0.744945 0
M  V30 6839 H 625.839 0.83755 1.75986 0
M  V30 6840 H 624.935 0.137895 3.11795 0
M  V30 6841 N 625.236 -1.5273 0.388769 0
M  V30 6842 C 626.183 -2.26437 -0.446639 0
M  V30 6843 C 627.153 -1.28025 -1.05824 0
M  V30 6844 O 628.338 -1.56852 -1.08637 0
M  V30 6845 C 625.478 -3.07407 -1.56828 0
M  V30 6846 C 624.591 -4.20747 -0.979589 0
M  V30 6847 C 623.726 -4.89113 -2.07224 0
M  V30 6848 C 622.765 -5.94447 -1.45942 0
M  V30 6849 N 621.902 -6.56411 -2.49135 0
M  V30 6850 H 626.742 -2.97404 0.18837 0
M  V30 6851 H 624.279 -1.46727 0.104725 0
M  V30 6852 H 626.237 -3.52642 -2.22934 0
M  V30 6853 H 624.867 -2.3865 -2.17361 0
M  V30 6854 H 623.919 -3.7983 -0.208151 0
M  V30 6855 H 625.231 -4.9637 -0.491747 0
M  V30 6856 H 624.385 -5.3765 -2.81101 0
M  V30 6857 H 623.124 -4.13013 -2.59368 0
M  V30 6858 H 622.129 -5.4525 -0.705894 0
M  V30 6859 H 623.354 -6.7248 -0.945932 0
M  V30 6860 H 621.3 -5.83152 -3.00449 0
M  V30 6861 H 621.217 -7.27645 -2.05105 0
M  V30 6862 H 622.485 -7.09592 -3.22644 0
M  V30 6863 N 626.714 -0.118576 -1.57153 0
M  V30 6864 C 627.991 0.583062 -1.86708 0
M  V30 6865 C 628.371 1.84841 -1.01967 0
M  V30 6866 O 627.719 2.28288 -0.0984673 0
M  V30 6867 C 627.929 0.875912 -3.3783 0
M  V30 6868 C 629.277 1.22916 -4.0642 0
M  V30 6869 O 630.301 0.966188 -3.42846 0
M  V30 6870 O 629.16 1.72269 -5.18638 0
M  V30 6871 H 626.254 0.294185 -0.772906 0
M  V30 6872 H 628.8 -0.153048 -1.69008 0
M  V30 6873 H 627.572 -0.0207776 -3.91294 0
M  V30 6874 H 627.195 1.66719 -3.60958 0
M  V30 6875 N 628.193 1.56834 0.155195 0
M  V30 6876 C 629.441 1.82536 0.867462 0
M  V30 6877 C 629.762 0.698168 1.82073 0
M  V30 6878 O 629.032 -0.280807 1.93877 0
M  V30 6879 H 627.612 0.673401 0.323327 0
M  V30 6880 H 630.274 1.94313 0.151156 0
M  V30 6881 H 629.37 2.77171 1.43466 0
M  V30 6882 N 629.671 -0.424282 1.51781 0
M  V30 6883 C 630.601 -1.52305 1.7699 0
M  V30 6884 C 631.582 -1.5839 0.620209 0
M  V30 6885 O 632.767 -1.73908 0.864268 0
M  V30 6886 C 629.897 -2.90271 1.90683 0
M  V30 6887 C 628.851 -2.99043 3.06198 0
M  V30 6888 C 628.177 -4.39116 3.05092 0
M  V30 6889 C 629.477 -2.7192 4.45934 0
M  V30 6890 H 631.171 -1.31461 2.68995 0
M  V30 6891 H 628.717 -0.630985 1.29439 0
M  V30 6892 H 630.67 -3.6711 2.06901 0
M  V30 6893 H 629.394 -3.12376 0.953365 0
M  V30 6894 H 628.053 -2.24646 2.89706 0
M  V30 6895 H 627.701 -4.58207 2.07498 0
M  V30 6896 H 627.401 -4.45912 3.82669 0
M  V30 6897 H 628.925 -5.17911 3.2342 0
M  V30 6898 H 630.339 -3.38487 4.62709 0
M  V30 6899 H 628.736 -2.90111 5.25315 0
M  V30 6900 H 629.806 -1.67445 4.55072 0
M  V30 6901 N 631.149 -1.42148 -0.680565 0
M  V30 6902 C 632.096 -1.45175 -1.79424 0
M  V30 6903 C 633.066 -0.304352 -1.63288 0
M  V30 6904 O 634.251 -0.507591 -1.83924 0
M  V30 6905 C 631.391 -1.35429 -3.17416 0
M  V30 6906 C 630.504 -2.60158 -3.4488 0
M  V30 6907 C 629.639 -2.42596 -4.72568 0
M  V30 6908 C 628.678 -3.62727 -4.93047 0
M  V30 6909 N 627.815 -3.44143 -6.11973 0
M  V30 6910 H 632.655 -2.40349 -1.76172 0
M  V30 6911 H 630.192 -1.19334 -0.860107 0
M  V30 6912 H 632.15 -1.27777 -3.97151 0
M  V30 6913 H 630.78 -0.438536 -3.19807 0
M  V30 6914 H 629.832 -2.78199 -2.5944 0
M  V30 6915 H 631.144 -3.49473 -3.55908 0
M  V30 6916 H 630.298 -2.32497 -5.60384 0
M  V30 6917 H 629.037 -1.50761 -4.63813 0
M  V30 6918 H 628.042 -3.73264 -4.03676 0
M  V30 6919 H 629.267 -4.55534 -5.03652 0
M  V30 6920 H 627.213 -2.5502 -6.04401 0
M  V30 6921 H 627.13 -4.27041 -6.23836 0
M  V30 6922 H 628.398 -3.37845 -7.02482 0
M  V30 6923 N 632.627 0.916307 -1.28225 0
M  V30 6924 C 633.857 1.69654 -1.17902 0
M  V30 6925 C 634.265 1.87331 0.265268 0
M  V30 6926 O 633.608 1.39828 1.19137 0
M  V30 6927 C 633.67 3.11024 -1.80289 0
M  V30 6928 C 633.334 3.16643 -3.29525 0
M  V30 6929 C 634.331 2.98032 -4.25997 0
M  V30 6930 C 632.016 3.39238 -3.70436 0
M  V30 6931 C 634.01 3.01924 -5.61356 0
M  V30 6932 C 631.697 3.42762 -5.05922 0
M  V30 6933 C 632.695 3.24125 -6.01192 0
M  V30 6934 O 632.383 3.27406 -7.34208 0
M  V30 6935 H 632.115 0.537197 -0.41036 0
M  V30 6936 H 634.669 1.15547 -1.69817 0
M  V30 6937 H 632.899 3.66662 -1.22865 0
M  V30 6938 H 634.588 3.71063 -1.6452 0
M  V30 6939 H 635.354 2.80405 -3.95725 0
M  V30 6940 H 631.233 3.52791 -2.96749 0
M  V30 6941 H 634.777 2.87295 -6.35694 0
M  V30 6942 H 630.674 3.59916 -5.35846 0
M  V30 6943 H 631.442 3.43784 -7.42802 0
M  V30 6944 N 634.105 1.10431 1.1244 0
M  V30 6945 C 635.055 0.722378 2.16254 0
M  V30 6946 C 636.039 -0.268427 1.58645 0
M  V30 6947 O 637.231 -0.077169 1.76832 0
M  V30 6948 C 634.36 0.155763 3.42946 0
M  V30 6949 C 633.446 1.17361 4.07538 0
M  V30 6950 N 633.837 2.36429 4.47141 0
M  V30 6951 C 632.135 1.01412 4.34317 0
M  V30 6952 C 632.836 3.01259 4.97612 0
M  V30 6953 N 631.812 2.28777 4.93115 0
M  V30 6954 H 635.614 1.62876 2.4464 0
M  V30 6955 H 633.128 0.982031 1.29344 0
M  V30 6956 H 635.125 -0.135936 4.16678 0
M  V30 6957 H 633.785 -0.745339 3.1603 0
M  V30 6958 H 634.796 2.73954 4.39511 0
M  V30 6959 H 631.473 0.168574 4.1716 0
M  V30 6960 H 632.863 4.02541 5.37968 0
M  V30 6961 N 635.583 -1.29855 0.893053 0
M  V30 6962 C 636.813 -1.99686 0.530019 0
M  V30 6963 C 637.221 -1.67066 -0.888012 0
M  V30 6964 O 636.564 -0.908366 -1.5967 0
M  V30 6965 C 636.626 -3.53855 0.63457 0
M  V30 6966 C 636.29 -4.10013 2.01837 0
M  V30 6967 C 637.287 -4.25406 2.98874 0
M  V30 6968 C 634.972 -4.45202 2.32595 0
M  V30 6969 C 636.966 -4.7521 4.24799 0
M  V30 6970 C 634.653 -4.94704 3.58763 0
M  V30 6971 C 635.651 -5.09662 4.5468 0
M  V30 6972 O 635.339 -5.58093 5.78608 0
M  V30 6973 H 635.071 -0.644913 0.20264 0
M  V30 6974 H 637.625 -1.66518 1.20253 0
M  V30 6975 H 635.855 -3.86583 -0.0949477 0
M  V30 6976 H 637.544 -4.04922 0.281648 0
M  V30 6977 H 638.31 -3.98515 2.76425 0
M  V30 6978 H 634.189 -4.32822 1.58701 0
M  V30 6979 H 637.733 -4.86801 4.99671 0
M  V30 6980 H 633.63 -5.21032 3.81046 0
M  V30 6981 H 634.398 -5.7642 5.81104 0
M  V30 6982 N 637.061 -0.65484 -1.43351 0
M  V30 6983 C 637.991 0.0221809 -2.33489 0
M  V30 6984 C 638.972 0.810272 -1.49561 0
M  V30 6985 O 640.157 0.771426 -1.78221 0
M  V30 6986 C 637.287 0.988117 -3.32947 0
M  V30 6987 C 636.241 0.310026 -4.26876 0
M  V30 6988 C 635.567 1.38752 -5.16384 0
M  V30 6989 C 636.867 -0.798589 -5.16159 0
M  V30 6990 H 638.561 -0.730571 -2.9035 0
M  V30 6991 H 636.107 -0.352773 -1.39612 0
M  V30 6992 H 638.06 1.47067 -3.94904 0
M  V30 6993 H 636.784 1.77205 -2.74346 0
M  V30 6994 H 635.443 -0.152097 -3.66284 0
M  V30 6995 H 635.091 2.16293 -4.54121 0
M  V30 6996 H 634.791 0.939051 -5.80048 0
M  V30 6997 H 636.315 1.87141 -5.81215 0
M  V30 6998 H 637.729 -0.398126 -5.71916 0
M  V30 6999 H 636.126 -1.17163 -5.88552 0
M  V30 7000 H 637.196 -1.65588 -4.55751 0
M  V30 7001 N 638.539 1.52521 -0.396863 0
M  V30 7002 C 639.788 2.00857 0.184184 0
M  V30 7003 C 640.101 1.28733 1.47265 0
M  V30 7004 O 641.307 1.67821 2.13421 0
M  V30 7005 C 639.763 3.57901 0.378787 0
M  V30 7006 C 639.371 4.38931 -0.896873 0
M  V30 7007 C 641.115 4.14504 0.915789 0
M  V30 7008 C 639.022 5.87591 -0.670133 0
M  V30 7009 H 637.952 0.750496 0.0726055 0
M  V30 7010 H 640.603 1.75965 -0.520425 0
M  V30 7011 H 638.985 3.79072 1.14543 0
M  V30 7012 H 640.159 4.29524 -1.66872 0
M  V30 7013 H 638.474 3.93586 -1.35938 0
M  V30 7014 H 641.071 5.23236 1.10126 0
M  V30 7015 H 641.414 3.71076 1.88701 0
M  V30 7016 H 641.947 3.97253 0.208523 0
M  V30 7017 H 638.686 6.35355 -1.61257 0
M  V30 7018 H 638.206 5.99767 0.0626368 0
M  V30 7019 H 639.885 6.46268 -0.307577 0
M  V30 7020 N 640.017 0.126909 1.57088 0
M  V30 7021 C 641.433 -0.229641 1.57939 0
M  V30 7022 C 641.633 -1.66145 1.1401 0
M  V30 7023 O 640.689 -2.3843 0.831119 0
M  V30 7024 C 642.002 0.0108648 3.00698 0
M  V30 7025 C 643.55 -0.054418 3.12953 0
M  V30 7026 C 644.025 0.158497 4.57726 0
M  V30 7027 N 645.516 0.104735 4.63082 0
M  V30 7028 C 646.251 0.24427 5.72879 0
M  V30 7029 N 645.747 0.440415 6.91399 0
M  V30 7030 N 647.54 0.183286 5.61801 0
M  V30 7031 H 639.691 1.06203 1.83942 0
M  V30 7032 H 641.954 0.418834 0.85046 0
M  V30 7033 H 641.66 1.00102 3.37154 0
M  V30 7034 H 641.534 -0.717512 3.70313 0
M  V30 7035 H 643.921 -1.0351 2.7635 0
M  V30 7036 H 644.002 0.705967 2.45865 0
M  V30 7037 H 643.646 1.13619 4.95028 0
M  V30 7038 H 643.576 -0.62197 5.22914 0
M  V30 7039 H 646.067 -0.0430298 3.77876 0
M  V30 7040 H 646.38 0.537536 7.70928 0
M  V30 7041 H 644.725 0.476488 6.93365 0
M  V30 7042 H 647.916 0.0309561 4.6809 0
M  V30 7043 H 648.089 0.295471 6.47326 0
M  V30 7044 N 641.495 -1.56914 -0.146875 0
M  V30 7045 C 642.425 -2.01308 -1.1831 0
M  V30 7046 C 643.406 -0.892664 -1.44795 0
M  V30 7047 O 644.591 -1.16048 -1.55713 0
M  V30 7048 C 641.721 -2.3938 -2.51624 0
M  V30 7049 C 640.675 -3.54608 -2.3966 0
M  V30 7050 C 640.001 -3.78493 -3.77686 0
M  V30 7051 C 641.301 -4.87269 -1.88058 0
M  V30 7052 H 642.995 -2.88123 -0.813964 0
M  V30 7053 H 640.541 -1.38615 -0.3901 0
M  V30 7054 H 642.494 -2.69037 -3.24341 0
M  V30 7055 H 641.218 -1.49502 -2.90373 0
M  V30 7056 H 639.877 -3.25116 -1.69396 0
M  V30 7057 H 639.525 -2.85866 -4.13871 0
M  V30 7058 H 639.225 -4.56039 -3.70543 0
M  V30 7059 H 640.749 -4.10576 -4.51951 0
M  V30 7060 H 642.163 -5.15644 -2.50568 0
M  V30 7061 H 640.56 -5.68622 -1.91805 0
M  V30 7062 H 641.63 -4.77634 -0.836277 0
M  V30 7063 N 642.974 0.416227 -1.52004 0
M  V30 7064 C 644.202 1.18573 -1.69553 0
M  V30 7065 C 644.617 1.84472 -0.401919 0
M  V30 7066 O 643.974 1.71593 0.621463 0
M  V30 7067 C 644.025 2.25413 -2.82615 0
M  V30 7068 O 643.746 1.62205 -4.06966 0
M  V30 7069 C 645.247 3.15297 -3.11613 0
M  V30 7070 H 642.467 0.356582 -0.56841 0
M  V30 7071 H 645.011 0.490618 -1.98528 0
M  V30 7072 H 643.166 2.90604 -2.56179 0
M  V30 7073 H 643.58 2.3298 -4.69916 0
M  V30 7074 H 645.054 3.86351 -3.94255 0
M  V30 7075 H 645.531 3.77264 -2.24874 0
M  V30 7076 H 646.137 2.55783 -3.39787 0
M  V30 7077 N 644.452 1.42507 0.673017 0
M  V30 7078 C 645.399 1.46124 1.78651 0
M  V30 7079 C 646.369 0.313007 1.63124 0
M  V30 7080 O 647.554 0.517337 1.83653 0
M  V30 7081 C 644.694 1.3711 3.16694 0
M  V30 7082 C 643.807 2.61983 3.43495 0
M  V30 7083 C 642.942 2.45098 4.71275 0
M  V30 7084 C 641.981 3.65336 4.91117 0
M  V30 7085 N 641.118 3.47383 6.10139 0
M  V30 7086 H 645.958 2.4128 1.74895 0
M  V30 7087 H 643.495 1.19788 0.853766 0
M  V30 7088 H 645.453 1.29881 3.96468 0
M  V30 7089 H 644.083 0.45549 3.1957 0
M  V30 7090 H 643.135 2.79571 2.57961 0
M  V30 7091 H 644.447 3.51355 3.5405 0
M  V30 7092 H 643.601 2.35466 5.59143 0
M  V30 7093 H 642.34 1.53219 4.63007 0
M  V30 7094 H 641.345 3.754 4.0169 0
M  V30 7095 H 642.57 4.58199 5.01229 0
M  V30 7096 H 640.516 2.58222 6.0304 0
M  V30 7097 H 640.433 4.30344 6.21563 0
M  V30 7098 H 641.701 3.41565 7.00681 0
M  V30 7099 N 645.93 -0.909495 1.28709 0
M  V30 7100 C 647.179 -1.65365 1.15487 0
M  V30 7101 C 647.492 -1.93364 -0.294941 0
M  V30 7102 O 648.698 -2.65905 -0.548338 0
M  V30 7103 C 647.154 -2.97923 2.01916 0
M  V30 7104 C 646.762 -2.77556 3.51663 0
M  V30 7105 C 648.506 -3.75814 1.97393 0
M  V30 7106 C 646.413 -4.0578 4.30229 0
M  V30 7107 H 645.343 -0.620323 0.42862 0
M  V30 7108 H 647.994 -1.00894 1.53273 0
M  V30 7109 H 646.376 -3.63552 1.5699 0
M  V30 7110 H 647.55 -2.2058 4.04575 0
M  V30 7111 H 645.865 -2.13072 3.57756 0
M  V30 7112 H 648.462 -4.70866 2.53357 0
M  V30 7113 H 648.805 -4.05277 0.951643 0
M  V30 7114 H 649.338 -3.1701 2.40311 0
M  V30 7115 H 646.077 -3.81488 5.33055 0
M  V30 7116 H 645.597 -4.62351 3.82089 0
M  V30 7117 H 647.276 -4.74004 4.40374 0
M  V30 7118 N 647.408 -1.11026 -1.11852 0
M  V30 7119 C 648.371 -0.768006 -2.1595 0
M  V30 7120 C 649.371 0.210538 -1.59416 0
M  V30 7121 O 650.561 -0.0133978 -1.74195 0
M  V30 7122 C 647.693 -0.138678 -3.40618 0
M  V30 7123 H 648.886 -1.69012 -2.4774 0
M  V30 7124 H 646.439 -0.911578 -1.26964 0
M  V30 7125 H 647.174 0.793872 -3.14433 0
M  V30 7126 H 646.959 -0.843012 -3.8293 0
M  V30 7127 H 648.449 0.0848039 -4.17514 0
M  V30 7128 N 648.886 1.2938 -0.899927 0
M  V30 7129 C 650.297 1.77644 -0.574427 0
M  V30 7130 C 650.648 1.73824 0.909928 0
M  V30 7131 O 649.773 1.32429 1.71147 0
M  V30 7132 C 650.368 3.22573 -1.03595 0
M  V30 7133 C 648.927 3.68614 -0.76161 0
M  V30 7134 C 648.074 2.49483 -1.21052 0
M  V30 7135 H 651.025 1.16038 -1.08263 0
M  V30 7136 H 651.046 3.78684 -0.371337 0
M  V30 7137 H 650.558 3.25321 -2.11631 0
M  V30 7138 H 648.659 3.7134 0.306127 0
M  V30 7139 H 648.772 4.59402 -1.35965 0
M  V30 7140 H 647.136 2.46798 -0.629515 0
M  V30 7141 H 647.919 2.54959 -2.29893 0
M  V30 7142 N 650.364 0.662433 1.43002 0
M  V30 7143 C 651.296 -0.062326 2.29115 0
M  V30 7144 C 652.309 -0.777926 1.43011 0
M  V30 7145 O 653.498 -0.634146 1.66856 0
M  V30 7146 C 650.598 -1.11163 3.2015 0
M  V30 7147 C 649.771 -0.472327 4.34842 0
M  V30 7148 C 648.83 -1.41974 5.06685 0
M  V30 7149 O 647.856 -0.924795 5.61637 0
M  V30 7150 N 649.058 -2.75345 5.11043 0
M  V30 7151 H 651.823 0.676838 2.91957 0
M  V30 7152 H 649.384 0.505907 1.53793 0
M  V30 7153 H 651.376 -1.74643 3.65078 0
M  V30 7154 H 649.946 -1.75266 2.58845 0
M  V30 7155 H 649.166 0.341751 3.92716 0
M  V30 7156 H 650.454 -0.0264381 5.08793 0
M  V30 7157 H 649.852 -3.18108 4.67786 0
M  V30 7158 H 648.409 -3.34105 5.59658 0
M  V30 7159 N 651.842 -1.52309 0.404946 0
M  V30 7160 C 652.772 -2.29805 -0.41376 0
M  V30 7161 C 653.753 -1.3384 -1.0498 0
M  V30 7162 O 654.938 -1.62745 -1.05961 0
M  V30 7163 C 652.068 -3.11639 -1.53292 0
M  V30 7164 C 651.022 -4.15616 -1.02211 0
M  V30 7165 C 650.348 -4.8577 -2.23455 0
M  V30 7166 C 651.648 -5.2224 -0.0790725 0
M  V30 7167 H 653.342 -2.98493 0.232878 0
M  V30 7168 H 650.888 -1.43552 0.113441 0
M  V30 7169 H 652.841 -3.64618 -2.11262 0
M  V30 7170 H 651.565 -2.40712 -2.20738 0
M  V30 7171 H 650.224 -3.63641 -0.46484 0
M  V30 7172 H 649.872 -4.11376 -2.89445 0
M  V30 7173 H 649.572 -5.56058 -1.89929 0
M  V30 7174 H 651.096 -5.4156 -2.82038 0
M  V30 7175 H 652.51 -5.70485 -0.567438 0
M  V30 7176 H 650.907 -5.99867 0.167167 0
M  V30 7177 H 651.977 -4.77078 0.867447 0
M  V30 7178 N 653.32 -0.135238 -1.57019 0
M  V30 7179 C 654.545 0.529343 -2.00531 0
M  V30 7180 C 654.97 1.58391 -1.01459 0
M  V30 7181 O 654.328 1.81296 0.0113986 0
M  V30 7182 C 654.376 1.11748 -3.42848 0
M  V30 7183 O 653.48 2.23267 -3.46736 0
M  V30 7184 H 652.821 0.130669 -0.651016 0
M  V30 7185 H 655.351 -0.228503 -2.0332 0
M  V30 7186 H 655.361 1.44905 -3.81401 0
M  V30 7187 H 654.036 0.345147 -4.14465 0
M  V30 7188 H 652.613 1.91428 -3.20015 0
M  V30 7189 N 654.798 1.5699 0.138552 0
M  V30 7190 C 656.026 1.87976 0.864437 0
M  V30 7191 C 656.441 0.724372 1.74351 0
M  V30 7192 O 655.798 -0.305575 1.79924 0
M  V30 7193 C 655.849 3.18276 1.71414 0
M  V30 7194 O 655.57 4.29365 0.870487 0
M  V30 7195 C 657.071 3.62834 2.54688 0
M  V30 7196 H 654.291 0.622878 0.249528 0
M  V30 7197 H 656.835 2.04094 0.128805 0
M  V30 7198 H 654.99 3.03886 2.40274 0
M  V30 7199 H 655.404 5.03924 1.45466 0
M  V30 7200 H 656.878 4.5682 3.0987 0
M  V30 7201 H 657.355 2.88533 3.31127 0
M  V30 7202 H 657.961 3.79946 1.91105 0
M  V30 7203 N 656.276 -0.40816 1.52223 0
M  V30 7204 C 657.186 -1.52202 1.78526 0
M  V30 7205 C 658.202 -1.60546 0.670892 0
M  V30 7206 O 659.378 -1.77242 0.956404 0
M  V30 7207 C 656.443 -2.87928 1.93128 0
M  V30 7208 C 655.504 -2.89463 3.17033 0
M  V30 7209 C 654.737 -4.18715 3.30929 0
M  V30 7210 O 654.96 -5.12662 2.50067 0
M  V30 7211 O 653.894 -4.27125 4.24084 0
M  V30 7212 H 657.72 -1.32911 2.73072 0
M  V30 7213 H 655.305 -0.594112 1.37079 0
M  V30 7214 H 657.187 -3.68426 2.04549 0
M  V30 7215 H 655.862 -3.07285 1.01772 0
M  V30 7216 H 654.769 -2.07815 3.11069 0
M  V30 7217 H 656.102 -2.75055 4.08174 0
M  V30 7218 N 657.755 -1.42862 -0.66545 0
M  V30 7219 C 658.665 -1.49491 -1.80803 0
M  V30 7220 C 659.681 -0.382914 -1.69734 0
M  V30 7221 O 660.857 -0.635223 -1.9112 0
M  V30 7222 C 657.922 -1.40383 -3.17007 0
M  V30 7223 C 656.983 -2.62152 -3.39963 0
M  V30 7224 C 656.216 -2.53469 -4.69669 0
M  V30 7225 O 656.439 -1.57568 -5.48205 0
M  V30 7226 O 655.373 -3.43763 -4.94075 0
M  V30 7227 H 659.199 -2.45949 -1.78165 0
M  V30 7228 H 656.784 -1.24728 -0.822387 0
M  V30 7229 H 658.666 -1.377 -3.98267 0
M  V30 7230 H 657.341 -0.470546 -3.20262 0
M  V30 7231 H 656.248 -2.70409 -2.58515 0
M  V30 7232 H 657.581 -3.54411 -3.41546 0
M  V30 7233 N 659.233 0.902656 -1.29189 0
M  V30 7234 C 660.163 2.02294 -1.16616 0
M  V30 7235 C 661.144 1.6999 -0.0611175 0
M  V30 7236 O 662.329 1.9271 -0.240072 0
M  V30 7237 C 659.459 3.37018 -0.83882 0
M  V30 7238 C 658.413 3.83522 -1.89986 0
M  V30 7239 C 657.739 5.15337 -1.42589 0
M  V30 7240 C 659.039 4.04169 -3.30824 0
M  V30 7241 H 660.733 2.13071 -2.10336 0
M  V30 7242 H 658.279 1.02378 -1.01266 0
M  V30 7243 H 660.232 4.14895 -0.737584 0
M  V30 7244 H 658.956 3.26325 0.134071 0
M  V30 7245 H 657.615 3.07859 -1.99043 0
M  V30 7246 H 657.263 5.01056 -0.441759 0
M  V30 7247 H 656.963 5.47423 -2.13547 0
M  V30 7248 H 658.487 5.95758 -1.3381 0
M  V30 7249 H 659.901 4.72537 -3.24626 0
M  V30 7250 H 658.298 4.47604 -3.99713 0
M  V30 7251 H 659.368 3.08604 -3.74021 0
M  V30 7252 N 660.711 1.11618 1.11262 0
M  V30 7253 C 661.957 0.867463 1.83311 0
M  V30 7254 C 662.29 -0.605366 1.84524 0
M  V30 7255 O 661.565 -1.44704 1.29965 0
M  V30 7256 C 661.848 1.43207 3.30399 0
M  V30 7257 C 661.701 2.97265 3.3757 0
M  V30 7258 C 663.02 1.08454 4.26528 0
M  V30 7259 H 660.139 0.316578 0.665543 0
M  V30 7260 H 662.781 1.38137 1.30454 0
M  V30 7261 H 660.931 0.994982 3.75543 0
M  V30 7262 H 662.603 3.49591 3.00971 0
M  V30 7263 H 660.846 3.33237 2.77733 0
M  V30 7264 H 661.517 3.31859 4.41105 0
M  V30 7265 H 663.993 1.4619 3.89574 0
M  V30 7266 H 662.869 1.50633 5.27826 0
M  V30 7267 H 663.13 -0.00444568 4.421 0
M  V30 7268 N 662.189 -1.289 0.906776 0
M  V30 7269 C 663.414 -1.99939 0.551303 0
M  V30 7270 C 663.839 -1.67366 -0.858496 0
M  V30 7271 O 663.197 -0.902176 -1.57259 0
M  V30 7272 C 663.245 -3.52523 0.758937 0
M  V30 7273 O 662.349 -4.11983 -0.185308 0
M  V30 7274 H 661.69 -0.628376 0.214568 0
M  V30 7275 H 664.22 -1.64225 1.2203 0
M  V30 7276 H 664.23 -4.02522 0.666329 0
M  V30 7277 H 662.905 -3.75566 1.78671 0
M  V30 7278 H 661.482 -3.72873 -0.0445577 0
M  V30 7279 N 663.667 -0.670007 -1.42649 0
M  V30 7280 C 664.597 -0.00258501 -2.335 0
M  V30 7281 C 665.578 0.794364 -1.50412 0
M  V30 7282 O 666.763 0.75248 -1.79029 0
M  V30 7283 C 663.893 0.952748 -3.33976 0
M  V30 7284 C 662.847 0.264733 -4.2718 0
M  V30 7285 C 662.173 1.33267 -5.17826 0
M  V30 7286 C 663.473 -0.853289 -5.15283 0
M  V30 7287 H 665.167 -0.761326 -2.89559 0
M  V30 7288 H 662.713 -0.367561 -1.3923 0
M  V30 7289 H 664.666 1.4287 -3.96442 0
M  V30 7290 H 663.39 1.74285 -2.7621 0
M  V30 7291 H 662.049 -0.190938 -3.66102 0
M  V30 7292 H 661.697 2.11464 -4.5639 0
M  V30 7293 H 661.397 0.877476 -5.81011 0
M  V30 7294 H 662.921 1.80965 -5.83167 0
M  V30 7295 H 664.335 -0.458763 -5.71462 0
M  V30 7296 H 662.732 -1.23398 -5.87276 0
M  V30 7297 H 663.802 -1.70412 -4.53969 0
M  V30 7298 N 665.145 1.52092 -0.413018 0
M  V30 7299 C 666.393 2.01456 0.161178 0
M  V30 7300 C 666.714 1.30034 1.45314 0
M  V30 7301 O 665.984 0.427435 1.9118 0
M  V30 7302 H 664.564 0.744376 0.0625526 0
M  V30 7303 H 667.226 1.86974 -0.550151 0
M  V30 7304 H 666.322 3.1008 0.354517 0
M  V30 7305 N 666.623 0.143563 1.56945 0
M  V30 7306 C 667.533 -0.810562 2.20152 0
M  V30 7307 C 668.549 -1.27431 1.1848 0
M  V30 7308 O 669.725 -1.33221 1.51044 0
M  V30 7309 C 666.79 -2.03353 2.80799 0
M  V30 7310 C 665.851 -1.61936 3.97587 0
M  V30 7311 C 665.084 -2.78403 4.55332 0
M  V30 7312 O 665.307 -3.94521 4.11958 0
M  V30 7313 O 664.241 -2.54073 5.45647 0
M  V30 7314 H 668.067 -0.30253 3.02189 0
M  V30 7315 H 665.652 -0.0832925 1.49168 0
M  V30 7316 H 667.534 -2.74932 3.19359 0
M  V30 7317 H 666.209 -2.53116 2.01777 0
M  V30 7318 H 665.116 -0.873904 3.6375 0
M  V30 7319 H 666.449 -1.16892 4.78118 0
M  V30 7320 N 668.101 -1.57061 -0.130224 0
M  V30 7321 C 669.048 -1.99517 -1.16024 0
M  V30 7322 C 670.018 -0.865452 -1.41771 0
M  V30 7323 O 671.203 -1.12882 -1.53826 0
M  V30 7324 C 668.343 -2.3951 -2.48453 0
M  V30 7325 C 667.456 -3.65848 -2.29737 0
M  V30 7326 C 666.591 -3.9487 -3.55318 0
M  V30 7327 C 665.63 -5.14426 -3.31711 0
M  V30 7328 N 664.767 -5.39375 -4.49466 0
M  V30 7329 H 669.607 -2.87305 -0.791194 0
M  V30 7330 H 667.144 -1.42129 -0.379195 0
M  V30 7331 H 669.102 -2.60731 -3.25692 0
M  V30 7332 H 667.732 -1.54779 -2.83272 0
M  V30 7333 H 666.784 -3.52307 -1.4347 0
M  V30 7334 H 668.096 -4.53241 -2.08263 0
M  V30 7335 H 667.25 -4.16679 -4.4098 0
M  V30 7336 H 665.989 -3.05931 -3.79813 0
M  V30 7337 H 664.994 -4.92473 -2.44439 0
M  V30 7338 H 666.219 -6.04933 -3.08598 0
M  V30 7339 H 664.165 -4.53391 -4.74102 0
M  V30 7340 H 664.082 -6.21069 -4.31055 0
M  V30 7341 H 665.35 -5.65694 -5.36293 0
M  V30 7342 N 669.579 0.400081 -1.52437 0
M  V30 7343 C 670.512 1.50929 -1.7116 0
M  V30 7344 C 671.49 1.52679 -0.559275 0
M  V30 7345 O 672.674 1.71251 -0.787735 0
M  V30 7346 C 669.801 2.89433 -1.75915 0
M  V30 7347 C 668.847 3.05556 -2.97553 0
M  V30 7348 S 669.68 2.77919 -4.57735 0
M  V30 7349 C 670.836 4.18636 -4.6529 0
M  V30 7350 H 671.069 1.3482 -2.64973 0
M  V30 7351 H 668.602 0.592245 -1.4259 0
M  V30 7352 H 670.56 3.69253 -1.7934 0
M  V30 7353 H 669.221 3.02877 -0.832137 0
M  V30 7354 H 668.414 4.0691 -2.97388 0
M  V30 7355 H 668.016 2.33615 -2.92062 0
M  V30 7356 H 670.308 5.12406 -4.43223 0
M  V30 7357 H 671.251 4.23821 -5.67258 0
M  V30 7358 H 671.659 4.04029 -3.94234 0
M  V30 7359 N 671.057 1.43213 0.657864 0
M  V30 7360 C 672.303 1.44798 1.41991 0
M  V30 7361 C 672.636 0.070256 1.94073 0
M  V30 7362 O 671.911 -0.908177 1.71995 0
M  V30 7363 C 672.194 2.4865 2.60471 0
M  V30 7364 C 672.047 3.95679 2.13911 0
M  V30 7365 C 673.366 2.49292 3.62686 0
M  V30 7366 H 670.485 0.527244 0.514959 0
M  V30 7367 H 673.127 1.74733 0.74621 0
M  V30 7368 H 671.277 2.23254 3.17946 0
M  V30 7369 H 672.949 4.32116 1.61472 0
M  V30 7370 H 671.192 4.08733 1.45325 0
M  V30 7371 H 671.863 4.6395 2.99089 0
M  V30 7372 H 674.339 2.71917 3.14961 0
M  V30 7373 H 673.215 3.23907 4.43143 0
M  V30 7374 H 673.476 1.52502 4.14964 0
M  V30 7375 N 672.536 -0.895792 1.29666 0
M  V30 7376 C 673.764 -1.68001 1.20761 0
M  V30 7377 C 674.179 -1.87379 -0.231187 0
M  V30 7378 O 673.536 -1.41359 -1.15429 0
M  V30 7379 C 673.587 -3.06236 1.92098 0
M  V30 7380 O 673.308 -2.8774 3.30359 0
M  V30 7381 C 674.809 -4.00652 1.89717 0
M  V30 7382 H 672.029 -0.524591 0.418384 0
M  V30 7383 H 674.573 -1.11995 1.71106 0
M  V30 7384 H 672.728 -3.59007 1.45578 0
M  V30 7385 H 673.142 -3.75359 3.66342 0
M  V30 7386 H 674.616 -4.95051 2.44189 0
M  V30 7387 H 675.093 -4.30424 0.873595 0
M  V30 7388 H 675.699 -3.53815 2.35998 0
M  V30 7389 N 674.014 -1.12206 -1.10668 0
M  V30 7390 C 674.977 -0.790867 -2.15123 0
M  V30 7391 C 675.977 0.193618 -1.5963 0
M  V30 7392 O 677.167 -0.0318728 -1.74171 0
M  V30 7393 C 674.299 -0.174797 -3.40452 0
M  V30 7394 H 675.492 -1.7163 -2.45933 0
M  V30 7395 H 673.045 -0.924993 -1.2599 0
M  V30 7396 H 673.78 0.760478 -3.15257 0
M  V30 7397 H 673.565 -0.88358 -3.82015 0
M  V30 7398 H 675.055 0.0405162 -4.1758 0
M  V30 7399 N 675.492 1.28418 -0.913599 0
M  V30 7400 C 676.739 1.94981 -0.546674 0
M  V30 7401 C 677.067 1.7192 0.909606 0
M  V30 7402 O 676.322 1.03314 1.66207 0
M  V30 7403 C 676.621 3.48283 -0.802099 0
M  V30 7404 C 676.287 3.91444 -2.2379 0
M  V30 7405 C 674.949 4.02939 -2.63046 0
M  V30 7406 C 677.301 4.13542 -3.17227 0
M  V30 7407 C 674.629 4.3391 -3.94891 0
M  V30 7408 C 676.981 4.45992 -4.48636 0
M  V30 7409 C 675.645 4.55698 -4.87746 0
M  V30 7410 H 674.915 0.713487 -0.200042 0
M  V30 7411 H 677.562 1.52756 -1.15489 0
M  V30 7412 H 675.867 3.91643 -0.111076 0
M  V30 7413 H 677.564 3.97903 -0.497375 0
M  V30 7414 H 674.154 3.83024 -1.9233 0
M  V30 7415 H 678.338 4.04114 -2.88107 0
M  V30 7416 H 673.594 4.39631 -4.24894 0
M  V30 7417 H 677.768 4.62038 -5.21051 0
M  V30 7418 H 675.395 4.79451 -5.89942 0
M  V30 7419 N 676.97 0.677563 1.42291 0
M  V30 7420 C 678.198 0.209459 2.05837 0
M  V30 7421 C 678.613 -1.13444 1.50917 0
M  V30 7422 O 677.97 -1.70529 0.65008 0
M  V30 7423 C 678.021 0.138819 3.61233 0
M  V30 7424 O 677.742 1.42962 4.14118 0
M  V30 7425 C 679.243 -0.352449 4.41897 0
M  V30 7426 H 676.463 0.101209 0.663323 0
M  V30 7427 H 679.007 0.925077 1.8238 0
M  V30 7428 H 677.162 -0.527505 3.83792 0
M  V30 7429 H 677.576 1.3048 5.08011 0
M  V30 7430 H 679.05 -0.350778 5.50884 0
M  V30 7431 H 679.527 -1.3882 4.16684 0
M  V30 7432 H 680.133 0.282236 4.24362 0
M  V30 7433 N 678.448 -1.51871 0.421078 0
M  V30 7434 C 679.676 -2.06356 -0.14994 0
M  V30 7435 C 680.091 -1.29006 -1.37851 0
M  V30 7436 O 679.448 -0.345139 -1.79207 0
M  V30 7437 C 679.499 -3.58185 -0.488454 0
M  V30 7438 O 679.22 -4.32611 0.691341 0
M  V30 7439 C 680.721 -4.29129 -1.11191 0
M  V30 7440 H 677.941 -0.67083 -0.0151186 0
M  V30 7441 H 680.485 -1.95638 0.595476 0
M  V30 7442 H 678.64 -3.68871 -1.18376 0
M  V30 7443 H 679.054 -5.22927 0.405906 0
M  V30 7444 H 680.528 -5.36501 -1.29889 0
M  V30 7445 H 681.005 -3.86371 -2.0884 0
M  V30 7446 H 681.611 -4.22843 -0.456458 0
M  V30 7447 N 679.926 -0.151884 -1.56866 0
M  V30 7448 C 681.166 0.500695 -1.98173 0
M  V30 7449 C 681.53 1.61715 -1.03499 0
M  V30 7450 O 682.731 2.33093 -1.33869 0
M  V30 7451 C 681.002 0.989333 -3.43434 0
M  V30 7452 S 682.561 1.64583 -4.06765 0
M  V30 7453 H 679.379 0.16173 -0.692361 0
M  V30 7454 H 681.981 -0.244754 -1.93962 0
M  V30 7455 H 680.685 0.166072 -4.10064 0
M  V30 7456 H 680.216 1.76929 -3.51368 0
M  V30 7457 H 682.231 2.93326 -4.00218 0
M  V30 7458 N 681.404 1.57128 0.121893 0
M  V30 7459 C 682.644 1.86517 0.836113 0
M  V30 7460 C 683.008 0.739497 1.77188 0
M  V30 7461 O 684.209 0.91508 2.52744 0
M  V30 7462 C 682.48 3.21129 1.56878 0
M  V30 7463 S 684.039 3.72143 2.32497 0
M  V30 7464 H 680.857 0.653923 0.279115 0
M  V30 7465 H 683.459 1.95271 0.0946254 0
M  V30 7466 H 682.163 4.01002 0.873255 0
M  V30 7467 H 681.694 3.15446 2.35069 0
M  V30 7468 H 683.709 3.43413 3.58164 0
M  V30 7469 N 682.882 -0.391992 1.52647 0
M  V30 7470 C 684.11 -1.1586 1.71418 0
M  V30 7471 C 684.525 -1.8381 0.431216 0
M  V30 7472 O 683.882 -1.7256 -0.594085 0
M  V30 7473 C 683.933 -2.20888 2.86165 0
M  V30 7474 O 683.654 -1.5571 4.09495 0
M  V30 7475 C 685.155 -3.103 3.1659 0
M  V30 7476 H 682.375 -0.347494 0.574011 0
M  V30 7477 H 684.919 -0.458972 1.99283 0
M  V30 7478 H 683.074 -2.86492 2.6077 0
M  V30 7479 H 683.488 -2.25474 4.73563 0
M  V30 7480 H 684.962 -3.8003 4.00351 0
M  V30 7481 H 685.439 -3.73639 2.30848 0
M  V30 7482 H 686.045 -2.50345 3.43813 0
M  V30 7483 N 684.36 -1.4356 -0.65026 0
M  V30 7484 C 685.29 -1.51758 -1.77459 0
M  V30 7485 C 686.271 -0.372019 -1.65982 0
M  V30 7486 O 687.456 -0.589627 -1.85033 0
M  V30 7487 C 684.586 -1.44302 -3.15902 0
M  V30 7488 C 683.54 -2.57138 -3.42146 0
M  V30 7489 C 682.866 -2.34735 -4.8042 0
M  V30 7490 C 684.166 -3.99373 -3.36598 0
M  V30 7491 H 685.86 -2.45863 -1.70855 0
M  V30 7492 H 683.406 -1.18333 -0.820566 0
M  V30 7493 H 685.359 -1.48641 -3.94314 0
M  V30 7494 H 684.083 -0.467026 -3.23244 0
M  V30 7495 H 682.742 -2.52157 -2.66106 0
M  V30 7496 H 682.39 -1.35372 -4.84441 0
M  V30 7497 H 682.09 -3.10375 -4.9894 0
M  V30 7498 H 683.614 -2.40862 -5.61086 0
M  V30 7499 H 685.028 -4.05826 -4.04942 0
M  V30 7500 H 683.425 -4.75063 -3.66654 0
M  V30 7501 H 684.495 -4.243 -2.34729 0
M  V30 7502 N 685.838 0.888903 -1.30139 0
M  V30 7503 C 687.063 1.67884 -1.21777 0
M  V30 7504 C 687.488 1.86848 0.216689 0
M  V30 7505 O 686.846 1.39659 1.15608 0
M  V30 7506 C 686.894 3.03483 -1.94757 0
M  V30 7507 O 685.998 3.92294 -1.27198 0
M  V30 7508 H 685.339 0.513144 -0.421402 0
M  V30 7509 H 687.869 1.10968 -1.71893 0
M  V30 7510 H 687.879 3.53553 -2.03627 0
M  V30 7511 H 686.554 2.89 -2.99085 0
M  V30 7512 H 685.131 3.50732 -1.26655 0
M  V30 7513 N 687.317 1.12792 1.10072 0
M  V30 7514 C 688.227 0.812369 2.20086 0
M  V30 7515 C 689.243 -0.200349 1.72843 0
M  V30 7516 O 690.419 -0.0330262 2.01373 0
M  V30 7517 C 687.484 0.275685 3.45602 0
M  V30 7518 C 686.545 1.34881 4.07561 0
M  V30 7519 C 685.778 0.837639 5.27086 0
M  V30 7520 O 686.001 -0.327224 5.69461 0
M  V30 7521 O 684.935 1.60894 5.79997 0
M  V30 7522 H 688.761 1.73133 2.49517 0
M  V30 7523 H 686.346 0.904863 1.18881 0
M  V30 7524 H 688.228 -0.0185375 4.21396 0
M  V30 7525 H 686.903 -0.615783 3.17789 0
M  V30 7526 H 685.81 1.69625 3.33434 0
M  V30 7527 H 687.143 2.21418 4.39585 0
M  V30 7528 N 688.795 -1.27931 0.920396 0
M  V30 7529 C 689.705 -2.30824 0.419212 0
M  V30 7530 C 690.721 -1.66767 -0.496461 0
M  V30 7531 O 691.897 -1.97763 -0.38104 0
M  V30 7532 C 688.962 -3.45158 -0.326601 0
M  V30 7533 C 688.023 -4.24754 0.623098 0
M  V30 7534 C 687.256 -5.33629 -0.0872172 0
M  V30 7535 O 687.479 -5.55204 -1.30784 0
M  V30 7536 O 686.413 -5.99091 0.580875 0
M  V30 7537 H 690.239 -2.75716 1.27337 0
M  V30 7538 H 687.824 -1.32747 0.685465 0
M  V30 7539 H 689.706 -4.14716 -0.747559 0
M  V30 7540 H 688.381 -3.02336 -1.15648 0
M  V30 7541 H 687.288 -3.57759 1.09359 0
M  V30 7542 H 688.621 -4.71272 1.41998 0
M  V30 7543 N 690.273 -0.685099 -1.4193 0
M  V30 7544 C 691.52 -0.211658 -2.01391 0
M  V30 7545 C 691.848 1.18526 -1.54214 0
M  V30 7546 O 691.103 1.81189 -0.739519 0
M  V30 7547 C 691.402 -0.206154 -3.56805 0
M  V30 7548 C 691.068 -1.54915 -4.23453 0
M  V30 7549 C 689.73 -1.91684 -4.41373 0
M  V30 7550 C 692.082 -2.43317 -4.60919 0
M  V30 7551 C 689.41 -3.16461 -4.94034 0
M  V30 7552 C 691.762 -3.67415 -5.14965 0
M  V30 7553 C 690.426 -4.04341 -5.31098 0
M  V30 7554 H 689.696 -0.0774511 -0.736941 0
M  V30 7555 H 692.343 -0.882121 -1.69973 0
M  V30 7556 H 690.648 0.547841 -3.87951 0
M  V30 7557 H 692.345 0.17753 -4.00607 0
M  V30 7558 H 688.935 -1.25314 -4.09871 0
M  V30 7559 H 693.119 -2.16192 -4.46738 0
M  V30 7560 H 688.375 -3.45078 -5.04709 0
M  V30 7561 H 692.549 -4.3611 -5.42938 0
M  V30 7562 H 690.176 -5.01101 -5.71666 0
M  V30 7563 N 691.751 1.51645 -0.429126 0
M  V30 7564 C 692.714 2.26116 0.374726 0
M  V30 7565 C 693.714 1.29242 0.956714 0
M  V30 7566 O 694.904 1.53022 0.832452 0
M  V30 7567 C 692.036 3.04669 1.52937 0
M  V30 7568 H 693.229 2.9861 -0.277818 0
M  V30 7569 H 690.782 1.55236 -0.182097 0
M  V30 7570 H 691.517 2.36571 2.21821 0
M  V30 7571 H 691.302 3.75814 1.11833 0
M  V30 7572 H 692.792 3.61102 2.09751 0
M  V30 7573 N 693.229 0.160201 1.56784 0
M  V30 7574 C 694.469 -0.490179 1.98435 0
M  V30 7575 C 694.833 -1.61164 1.04355 0
M  V30 7576 O 696.034 -2.3238 1.35103 0
M  V30 7577 C 694.305 -0.971106 3.43954 0
M  V30 7578 S 695.864 -1.62423 4.07632 0
M  V30 7579 H 692.682 -0.158056 0.693209 0
M  V30 7580 H 695.284 0.255036 1.93829 0
M  V30 7581 H 693.988 -0.144323 4.10146 0
M  V30 7582 H 693.519 -1.75063 3.52302 0
M  V30 7583 H 695.534 -2.91199 4.01768 0
M  V30 7584 N 694.707 -1.5719 -0.113559 0
M  V30 7585 C 695.953 -1.85412 -0.821597 0
M  V30 7586 C 696.286 -0.746722 -1.7927 0
M  V30 7587 O 695.561 0.246971 -1.92926 0
M  V30 7588 C 695.844 -3.24233 -1.56669 0
M  V30 7589 C 695.697 -4.45578 -0.614823 0
M  V30 7590 C 697.016 -3.60697 -2.52161 0
M  V30 7591 H 694.135 -0.674406 -0.29723 0
M  V30 7592 H 696.777 -1.89807 -0.085694 0
M  V30 7593 H 694.927 -3.20617 -2.19401 0
M  V30 7594 H 696.599 -4.613 0.00407137 0
M  V30 7595 H 694.842 -4.33738 0.0732332 0
M  V30 7596 H 695.513 -5.39395 -1.17292 0
M  V30 7597 H 697.989 -3.65139 -1.99532 0
M  V30 7598 H 696.865 -4.58798 -3.01323 0
M  V30 7599 H 697.126 -2.88403 -3.35076 0
M  V30 7600 N 696.185 0.383891 -1.52853 0
M  V30 7601 C 697.462 1.14296 -1.58732 0
M  V30 7602 C 697.842 2.07585 -0.383611 0
M  V30 7603 O 697.19 2.1971 0.627661 0
M  V30 7604 C 697.4 1.89816 -2.92867 0
M  V30 7605 C 698.748 2.44998 -3.46787 0
M  V30 7606 O 699.772 1.99966 -2.94774 0
M  V30 7607 O 698.631 3.2727 -4.37672 0
M  V30 7608 H 695.725 0.52326 -0.640413 0
M  V30 7609 H 698.271 0.388631 -1.6519 0
M  V30 7610 H 697.043 1.21626 -3.71918 0
M  V30 7611 H 696.666 2.72199 -2.89816 0
M  V30 7612 N 697.663 1.43903 0.642637 0
M  V30 7613 C 698.611 1.50164 1.77634 0
M  V30 7614 C 699.605 0.374294 1.65213 0
M  V30 7615 O 700.811 0.548748 1.71431 0
M  V30 7616 H 697.186 0.470974 0.586249 0
M  V30 7617 H 699.157 2.45603 1.69474 0
M  V30 7618 C 697.906 1.45196 3.15933 0
M  V30 7619 H 697.229 2.31253 3.26132 0
M  V30 7620 H 698.669 1.53638 3.95185 0
M  V30 7621 C 697.128 0.171043 3.36466 0
M  V30 7622 O 697.658 -0.763413 3.94379 0
M  V30 7623 N 695.864 0.077847 2.90496 0
M  V30 7624 H 695.411 0.8391 2.43551 0
M  V30 7625 H 695.369 -0.778473 3.0461 0
M  V30 7626 N 699.141 -0.881989 1.30609 0
M  V30 7627 C 700.071 -2.00413 1.1982 0
M  V30 7628 C 701.052 -1.69871 0.0881538 0
M  V30 7629 O 702.237 -1.92304 0.2707 0
M  V30 7630 C 699.367 -3.35641 0.89233 0
M  V30 7631 C 698.321 -3.80451 1.96064 0
M  V30 7632 C 697.647 -5.13003 1.5077 0
M  V30 7633 C 698.947 -3.98855 3.37213 0
M  V30 7634 H 700.641 -2.09698 2.13699 0
M  V30 7635 H 698.187 -1.00754 1.02882 0
M  V30 7636 H 700.14 -4.13669 0.803497 0
M  V30 7637 H 698.864 -3.26497 -0.0821381 0
M  V30 7638 H 697.523 -3.04654 2.03916 0
M  V30 7639 H 697.171 -5.0029 0.521417 0
M  V30 7640 H 696.871 -5.43956 2.22229 0
M  V30 7641 H 698.395 -5.93554 1.43271 0
M  V30 7642 H 699.809 -4.67312 3.32103 0
M  V30 7643 H 698.206 -4.41188 4.06784 0
M  V30 7644 H 699.276 -3.02614 3.78883 0
M  V30 7645 N 700.619 -1.13374 -1.09472 0
M  V30 7646 C 701.582 -0.813639 -2.14272 0
M  V30 7647 C 702.582 0.176677 -1.59826 0
M  V30 7648 O 703.772 -0.0503441 -1.74127 0
M  V30 7649 C 700.904 -0.210897 -3.40247 0
M  V30 7650 H 702.097 -1.74229 -2.44099 0
M  V30 7651 H 699.65 -0.938304 -1.25002 0
M  V30 7652 H 700.385 0.726998 -3.16046 0
M  V30 7653 H 700.17 -0.924048 -3.81056 0
M  V30 7654 H 701.66 -0.00377603 -4.176 0
M  V30 7655 N 702.098 1.27442 -0.927168 0
M  V30 7656 C 703.375 1.89473 -0.485742 0
M  V30 7657 C 703.755 1.83922 1.03614 0
M  V30 7658 O 703.103 1.28409 1.89007 0
M  V30 7659 C 703.313 3.33417 -1.03123 0
M  V30 7660 C 704.661 4.10333 -1.0914 0
M  V30 7661 O 705.685 3.4243 -0.98082 0
M  V30 7662 O 704.544 5.31737 -1.26165 0
M  V30 7663 H 701.638 0.812124 -0.156154 0
M  V30 7664 H 704.184 1.35713 -1.01882 0
M  V30 7665 H 702.956 3.31747 -2.07508 0
M  V30 7666 H 702.579 3.94695 -0.479767 0
M  V30 7667 N 703.576 0.692616 1.41565 0
M  V30 7668 C 704.506 0.0397325 2.33466 0
M  V30 7669 C 705.487 -0.770334 1.51657 0
M  V30 7670 O 706.672 -0.723903 1.80203 0
M  V30 7671 C 703.802 -0.899495 3.3545 0
M  V30 7672 C 702.756 -0.196738 4.27548 0
M  V30 7673 C 702.082 -1.25012 5.19881 0
M  V30 7674 C 703.382 0.935158 5.1386 0
M  V30 7675 H 705.076 0.807296 2.88311 0
M  V30 7676 H 702.622 0.389665 1.38628 0
M  V30 7677 H 704.575 -1.36545 3.98665 0
M  V30 7678 H 703.299 -1.69869 2.78948 0
M  V30 7679 H 701.958 0.249158 3.65752 0
M  V30 7680 H 701.606 -2.04177 4.59696 0
M  V30 7681 H 701.306 -0.784931 5.82334 0
M  V30 7682 H 702.83 -1.71665 5.85972 0
M  V30 7683 H 704.244 0.549619 5.70659 0
M  V30 7684 H 702.641 1.32726 5.85238 0
M  V30 7685 H 703.711 1.77613 4.512 0
M  V30 7686 N 705.054 -1.51416 0.437162 0
M  V30 7687 C 706.3 -2.02386 -0.129555 0
M  V30 7688 C 706.633 -1.32071 -1.42376 0
M  V30 7689 O 705.908 -0.43559 -1.8956 0
M  V30 7690 C 706.191 -3.5841 -0.348487 0
M  V30 7691 C 706.044 -4.39341 0.964352 0
M  V30 7692 C 707.363 -4.25654 -1.11834 0
M  V30 7693 H 704.482 -0.735587 -0.0456109 0
M  V30 7694 H 707.124 -1.81055 0.576124 0
M  V30 7695 H 705.274 -3.76716 -0.949592 0
M  V30 7696 H 706.946 -4.32685 1.59942 0
M  V30 7697 H 705.189 -4.04432 1.56898 0
M  V30 7698 H 705.86 -5.4667 0.765212 0
M  V30 7699 H 708.336 -4.11617 -0.609165 0
M  V30 7700 H 707.212 -5.34704 -1.24029 0
M  V30 7701 H 707.473 -3.86502 -2.14636 0
M  V30 7702 N 706.532 -0.168513 -1.56696 0
M  V30 7703 C 707.779 0.477158 -1.96798 0
M  V30 7704 C 708.107 1.63442 -1.05437 0
M  V30 7705 O 707.362 1.95503 -0.0878903 0
M  V30 7706 C 707.661 1.00441 -3.42996 0
M  V30 7707 C 707.327 -0.0366556 -4.50885 0
M  V30 7708 C 705.989 -0.322785 -4.80116 0
M  V30 7709 C 708.341 -0.743447 -5.1587 0
M  V30 7710 C 705.669 -1.32114 -5.71632 0
M  V30 7711 C 708.021 -1.73077 -6.08463 0
M  V30 7712 C 706.685 -2.02437 -6.36062 0
M  V30 7713 H 705.955 0.174604 -0.720135 0
M  V30 7714 H 708.602 -0.259884 -1.89728 0
M  V30 7715 H 706.907 1.81922 -3.47004 0
M  V30 7716 H 708.604 1.51294 -3.71364 0
M  V30 7717 H 705.194 0.196532 -4.28149 0
M  V30 7718 H 709.378 -0.535602 -4.93401 0
M  V30 7719 H 704.634 -1.55482 -5.913 0
M  V30 7720 H 708.808 -2.28382 -6.57886 0
M  V30 7721 H 706.435 -2.79946 -7.06777 0
M  V30 7722 N 708.01 1.57248 0.105221 0
M  V30 7723 C 709.258 1.85204 0.808951 0
M  V30 7724 C 709.579 0.75574 1.7976 0
M  V30 7725 O 708.849 -0.218984 1.94672 0
M  V30 7726 H 707.429 0.683346 0.301739 0
M  V30 7727 H 710.091 1.94695 0.0892605 0
M  V30 7728 H 709.187 2.81595 1.34575 0
M  V30 7729 N 709.488 -0.375779 1.53054 0
M  V30 7730 C 710.398 -1.48381 1.81715 0
M  V30 7731 C 711.414 -1.59087 0.704795 0
M  V30 7732 O 712.59 -1.75174 0.993785 0
M  V30 7733 C 709.655 -2.83767 1.99192 0
M  V30 7734 C 708.716 -2.82673 3.23102 0
M  V30 7735 C 707.949 -4.11601 3.39736 0
M  V30 7736 O 708.172 -5.07243 2.60885 0
M  V30 7737 O 707.106 -4.18034 4.33049 0
M  V30 7738 H 710.932 -1.27089 2.7583 0
M  V30 7739 H 708.517 -0.564902 1.38308 0
M  V30 7740 H 710.399 -3.64004 2.12318 0
M  V30 7741 H 709.074 -3.05057 1.08267 0
M  V30 7742 H 707.981 -2.0117 3.15407 0
M  V30 7743 H 709.314 -2.66335 4.13916 0
M  V30 7744 N 710.966 -1.44241 -0.634997 0
M  V30 7745 C 711.896 -1.53632 -1.7584 0
M  V30 7746 C 712.877 -0.389603 -1.65578 0
M  V30 7747 O 714.062 -0.609219 -1.84397 0
M  V30 7748 C 711.192 -1.47644 -3.14354 0
M  V30 7749 C 710.146 -2.60752 -3.394 0
M  V30 7750 C 709.472 -2.39817 -4.77904 0
M  V30 7751 C 710.772 -4.02921 -3.32343 0
M  V30 7752 H 712.466 -2.47662 -1.68238 0
M  V30 7753 H 710.012 -1.19197 -0.807969 0
M  V30 7754 H 711.965 -1.52815 -3.92716 0
M  V30 7755 H 710.689 -0.501284 -3.2273 0
M  V30 7756 H 709.348 -2.54965 -2.63417 0
M  V30 7757 H 708.996 -1.40502 -4.82978 0
M  V30 7758 H 708.696 -3.15649 -4.9562 0
M  V30 7759 H 710.22 -2.46799 -5.585 0
M  V30 7760 H 711.634 -4.10098 -4.00615 0
M  V30 7761 H 710.031 -4.78925 -3.61595 0
M  V30 7762 H 711.101 -4.26766 -2.30215 0
M  V30 7763 N 712.444 0.87505 -1.31075 0
M  V30 7764 C 713.684 1.64174 -1.21763 0
M  V30 7765 C 714.048 1.90713 0.221933 0
M  V30 7766 O 715.249 2.652 0.438458 0
M  V30 7767 C 713.52 2.93932 -2.0332 0
M  V30 7768 S 715.079 3.84841 -2.10815 0
M  V30 7769 H 711.897 0.563358 -0.433761 0
M  V30 7770 H 714.499 1.03788 -1.65675 0
M  V30 7771 H 713.203 2.72349 -3.07009 0
M  V30 7772 H 712.734 3.59345 -1.60108 0
M  V30 7773 H 714.749 4.80385 -1.24276 0
M  V30 7774 N 713.922 1.13953 1.08869 0
M  V30 7775 C 715.17 0.903023 1.80803 0
M  V30 7776 C 715.491 -0.572151 1.86417 0
M  V30 7777 O 714.761 -1.41589 1.35386 0
M  V30 7778 H 713.341 0.331099 0.669614 0
M  V30 7779 H 716.003 1.43719 1.31647 0
M  V30 7780 H 715.099 1.29881 2.83791 0
M  V30 7781 N 715.4 -1.26948 0.933913 0
M  V30 7782 C 716.646 -1.94374 0.57848 0
M  V30 7783 C 716.979 -1.73166 -0.879048 0
M  V30 7784 O 716.254 -1.06438 -1.62792 0
M  V30 7785 C 716.537 -3.4834 0.912739 0
M  V30 7786 C 716.39 -3.78866 2.42448 0
M  V30 7787 C 717.709 -4.38062 0.423003 0
M  V30 7788 H 714.828 -0.705959 0.211639 0
M  V30 7789 H 717.47 -1.49951 1.16682 0
M  V30 7790 H 715.62 -3.86309 0.412058 0
M  V30 7791 H 717.292 -3.50654 2.99733 0
M  V30 7792 H 715.535 -3.25198 2.87104 0
M  V30 7793 H 716.206 -4.86458 2.60887 0
M  V30 7794 H 718.682 -4.0728 0.852191 0
M  V30 7795 H 717.558 -5.44599 0.685776 0
M  V30 7796 H 717.819 -4.36886 -0.676994 0
M  V30 7797 N 716.879 -0.700114 -1.41195 0
M  V30 7798 C 717.827 -0.0263301 -2.32585 0
M  V30 7799 C 718.821 0.763683 -1.51209 0
M  V30 7800 O 720.027 0.668793 -1.67114 0
M  V30 7801 H 716.402 0.0102869 -0.75193 0
M  V30 7802 H 718.373 -0.814087 -2.8708 0
M  V30 7803 C 717.122 0.892793 -3.36042 0
M  V30 7804 H 716.445 0.294306 -3.98715 0
M  V30 7805 H 717.885 1.33247 -4.02518 0
M  V30 7806 C 716.344 2.01109 -2.7029 0
M  V30 7807 O 716.874 3.10035 -2.55423 0
M  V30 7808 N 715.08 1.79015 -2.28915 0
M  V30 7809 H 714.627 0.904275 -2.41207 0
M  V30 7810 H 714.585 2.54022 -1.85257 0
M  V30 7811 N 718.357 1.51182 -0.445186 0
M  V30 7812 C 719.267 2.31692 0.368255 0
M  V30 7813 C 720.283 1.40942 1.02036 0
M  V30 7814 O 721.459 1.74011 1.01401 0
M  V30 7815 C 718.524 3.14903 1.45041 0
M  V30 7816 C 717.585 4.21442 0.817615 0
M  V30 7817 C 716.818 5.00677 1.8482 0
M  V30 7818 O 717.041 4.80644 3.07145 0
M  V30 7819 O 715.975 5.84559 1.43438 0
M  V30 7820 H 719.801 3.0232 -0.289219 0
M  V30 7821 H 717.386 1.47951 -0.207555 0
M  V30 7822 H 719.268 3.66612 2.07783 0
M  V30 7823 H 717.943 2.47031 2.09182 0
M  V30 7824 H 716.85 3.73791 0.151931 0
M  V30 7825 H 718.183 4.9171 0.219564 0
M  V30 7826 N 719.835 0.176821 1.56605 0
M  V30 7827 C 720.783 -0.768159 2.1955 0
M  V30 7828 C 721.777 -1.23343 1.16116 0
M  V30 7829 O 722.983 -1.19844 1.34303 0
M  V30 7830 H 719.358 -0.266013 0.703378 0
M  V30 7831 H 721.329 -0.213374 2.97636 0
M  V30 7832 C 720.078 -1.98492 2.85475 0
M  V30 7833 H 719.401 -1.63595 3.64797 0
M  V30 7834 H 720.841 -2.62489 3.3298 0
M  V30 7835 C 719.3 -2.81207 1.85538 0
M  V30 7836 O 719.83 -3.7854 1.34427 0
M  V30 7837 N 718.036 -2.46331 1.54173 0
M  V30 7838 H 717.583 -1.67241 1.95929 0
M  V30 7839 H 717.541 -3.01961 0.875595 0
M  V30 7840 N 721.313 -1.57302 -0.09688 0
M  V30 7841 C 722.729 -1.53094 -0.451041 0
M  V30 7842 C 722.929 -0.893265 -1.80618 0
M  V30 7843 O 721.985 -0.485013 -2.47798 0
M  V30 7844 C 723.298 -2.9782 -0.415172 0
M  V30 7845 C 724.846 -3.09026 -0.497155 0
M  V30 7846 C 725.321 -4.55356 -0.491452 0
M  V30 7847 N 726.812 -4.59896 -0.552258 0
M  V30 7848 C 727.547 -5.70563 -0.569654 0
M  V30 7849 N 727.043 -6.90666 -0.543365 0
M  V30 7850 N 728.836 -5.58733 -0.614331 0
M  V30 7851 H 720.987 -1.97131 0.790771 0
M  V30 7852 H 723.25 -0.901211 0.294147 0
M  V30 7853 H 722.956 -3.47933 0.513362 0
M  V30 7854 H 722.83 -3.56416 -1.23481 0
M  V30 7855 H 725.217 -2.58902 -1.41611 0
M  V30 7856 H 725.298 -2.53386 0.35059 0
M  V30 7857 H 724.942 -5.06131 0.423549 0
M  V30 7858 H 724.872 -5.08832 -1.35639 0
M  V30 7859 H 727.363 -3.73456 -0.577842 0
M  V30 7860 H 727.676 -7.70769 -0.559873 0
M  V30 7861 H 726.021 -6.93123 -0.510441 0
M  V30 7862 H 729.212 -4.63809 -0.632387 0
M  V30 7863 H 729.385 -6.44984 -0.62442 0
M  V30 7864 N 722.791 0.367657 -1.53252 0
M  V30 7865 C 724.019 1.13119 -1.73239 0
M  V30 7866 C 724.434 1.831 -0.460404 0
M  V30 7867 O 723.791 1.73483 0.566557 0
M  V30 7868 C 723.842 2.16308 -2.89643 0
M  V30 7869 O 723.563 1.49175 -4.1192 0
M  V30 7870 C 725.064 3.05224 -3.21486 0
M  V30 7871 H 722.284 0.338318 -0.579467 0
M  V30 7872 H 724.828 0.42721 -1.99988 0
M  V30 7873 H 722.983 2.82307 -2.65295 0
M  V30 7874 H 723.397 2.17912 -4.7709 0
M  V30 7875 H 724.871 3.73613 -4.06346 0
M  V30 7876 H 725.348 3.69919 -2.36763 0
M  V30 7877 H 725.954 2.44843 -3.47753 0
M  V30 7878 N 724.269 1.44576 0.627338 0
M  V30 7879 C 725.518 1.46837 1.38281 0
M  V30 7880 C 725.831 0.10635 1.95311 0
M  V30 7881 O 727.037 0.00651084 2.71499 0
M  V30 7882 C 725.493 2.58527 2.50384 0
M  V30 7883 C 725.101 4.00953 1.99851 0
M  V30 7884 C 726.845 2.70013 3.27557 0
M  V30 7885 C 724.752 5.0406 3.09318 0
M  V30 7886 H 723.682 0.546319 0.519664 0
M  V30 7887 H 726.333 1.70654 0.674497 0
M  V30 7888 H 724.715 2.27957 3.23808 0
M  V30 7889 H 725.889 4.41108 1.33267 0
M  V30 7890 H 724.204 3.93743 1.35482 0
M  V30 7891 H 726.801 3.44217 4.09168 0
M  V30 7892 H 727.144 1.75961 3.77284 0
M  V30 7893 H 727.677 3.00011 2.61224 0
M  V30 7894 H 724.416 5.99753 2.6453 0
M  V30 7895 H 723.936 4.68493 3.74532 0
M  V30 7896 H 725.615 5.2793 3.74031 0
M  V30 7897 N 725.747 -0.868086 1.31537 0
M  V30 7898 C 726.695 -1.99688 1.1928 0
M  V30 7899 C 727.689 -1.69101 0.100656 0
M  V30 7900 O 728.895 -1.78073 0.262677 0
M  V30 7901 H 725.27 -0.655032 0.369374 0
M  V30 7902 H 727.241 -2.07157 2.14776 0
M  V30 7903 C 725.99 -3.35338 0.918892 0
M  V30 7904 H 725.313 -3.59396 1.75142 0
M  V30 7905 H 726.753 -4.14909 0.873311 0
M  V30 7906 C 725.212 -3.34769 -0.378366 0
M  V30 7907 O 725.742 -3.76716 -1.39456 0
M  V30 7908 N 723.948 -2.87895 -0.39557 0
M  V30 7909 H 723.495 -2.53954 0.431889 0
M  V30 7910 H 723.453 -2.87897 -1.26344 0
M  V30 7911 N 727.225 -1.14528 -1.08264 0
M  V30 7912 C 728.636 -0.925261 -1.6216 0
M  V30 7913 C 728.987 0.535587 -1.88748 0
M  V30 7914 O 728.112 1.4048 -1.64604 0
M  V30 7915 C 728.707 -1.67316 -2.94603 0
M  V30 7916 C 727.266 -1.49868 -3.45278 0
M  V30 7917 C 726.413 -1.69471 -2.19487 0
M  V30 7918 H 729.364 -1.29687 -0.914707 0
M  V30 7919 H 729.385 -1.13721 -3.63109 0
M  V30 7920 H 728.897 -2.73635 -2.75219 0
M  V30 7921 H 726.998 -0.459032 -3.69762 0
M  V30 7922 H 727.111 -2.2696 -4.21931 0
M  V30 7923 H 725.475 -1.12048 -2.2873 0
M  V30 7924 H 726.258 -2.77136 -2.0261 0
M  V30 7925 N 728.703 1.26451 -0.940633 0
M  V30 7926 C 729.666 2.24651 -0.454378 0
M  V30 7927 C 730.666 1.54826 0.434222 0
M  V30 7928 O 731.856 1.72628 0.233477 0
M  V30 7929 C 728.988 3.39148 0.345192 0
M  V30 7930 H 730.181 2.69182 -1.32217 0
M  V30 7931 H 727.734 1.38596 -0.722547 0
M  V30 7932 H 728.469 3.00018 1.23125 0
M  V30 7933 H 728.254 3.9101 -0.292107 0
M  V30 7934 H 729.744 4.12103 0.675341 0
M  V30 7935 N 730.181 0.707592 1.40822 0
M  V30 7936 C 731.427 0.244031 2.01326 0
M  V30 7937 C 731.76 -1.15722 1.55955 0
M  V30 7938 O 731.035 -1.78347 0.776044 0
M  V30 7939 C 731.318 0.315128 3.58718 0
M  V30 7940 C 731.171 1.75419 4.14184 0
M  V30 7941 C 732.49 -0.318251 4.38948 0
M  V30 7942 H 729.609 0.0901471 0.731466 0
M  V30 7943 H 732.251 0.898584 1.67408 0
M  V30 7944 H 730.401 -0.242176 3.87744 0
M  V30 7945 H 732.073 2.36626 3.95987 0
M  V30 7946 H 730.316 2.28449 3.68773 0
M  V30 7947 H 730.987 1.75538 5.23345 0
M  V30 7948 H 733.463 0.156514 4.15806 0
M  V30 7949 H 732.339 -0.238019 5.48384 0
M  V30 7950 H 732.6 -1.40067 4.19325 0
M  V30 7951 N 731.66 -1.50943 0.453197 0
M  V30 7952 C 732.937 -1.94872 -0.168633 0
M  V30 7953 C 733.317 -1.39272 -1.5864 0
M  V30 7954 O 732.665 -0.586272 -2.20851 0
M  V30 7955 C 732.875 -3.48757 -0.130217 0
M  V30 7956 C 734.223 -4.23331 -0.327975 0
M  V30 7957 O 735.247 -3.55594 -0.207619 0
M  V30 7958 O 734.106 -5.43529 -0.569077 0
M  V30 7959 H 731.2 -0.818042 -0.121394 0
M  V30 7960 H 733.746 -1.61782 0.512316 0
M  V30 7961 H 732.518 -3.81725 0.860346 0
M  V30 7962 H 732.141 -3.88333 -0.853397 0
M  V30 7963 N 733.138 -0.185124 -1.56509 0
M  V30 7964 C 734.088 0.752315 -2.15231 0
M  V30 7965 C 735.072 1.18327 -1.0903 0
M  V30 7966 O 736.264 1.14333 -1.35119 0
M  V30 7967 C 733.393 1.97583 -2.80742 0
M  V30 7968 C 732.479 1.56623 -3.94119 0
M  V30 7969 N 732.87 0.867008 -4.98314 0
M  V30 7970 C 731.168 1.85626 -4.05535 0
M  V30 7971 C 731.869 0.663228 -5.77907 0
M  V30 7972 N 730.845 1.20891 -5.29987 0
M  V30 7973 H 734.647 0.209267 -2.93154 0
M  V30 7974 H 732.161 0.0150444 -1.62393 0
M  V30 7975 H 734.158 2.65779 -3.21197 0
M  V30 7976 H 732.818 2.52369 -2.04303 0
M  V30 7977 H 733.829 0.52355 -5.15247 0
M  V30 7978 H 730.506 2.41992 -3.40215 0
M  V30 7979 H 731.896 0.109273 -6.71811 0
M  V30 7980 N 734.616 1.57351 0.0885366 0
M  V30 7981 C 735.856 1.88248 0.796362 0
M  V30 7982 C 736.22 0.776915 1.75579 0
M  V30 7983 O 737.421 0.968485 2.50747 0
M  V30 7984 C 735.692 3.24385 1.50031 0
M  V30 7985 S 737.251 3.76991 2.24551 0
M  V30 7986 H 734.069 0.659697 0.265181 0
M  V30 7987 H 736.671 1.95428 0.0531843 0
M  V30 7988 H 735.375 4.02764 0.788 0
M  V30 7989 H 734.906 3.20361 2.28325 0
M  V30 7990 H 736.921 3.50933 3.508 0
M  V30 7991 N 736.094 -0.359525 1.53444 0
M  V30 7992 C 737.334 -1.11014 1.71625 0
M  V30 7993 C 737.698 -1.86376 0.46132 0
M  V30 7994 O 738.899 -2.63724 0.519908 0
M  V30 7995 C 737.17 -2.03907 2.93524 0
M  V30 7996 S 738.729 -2.86408 3.3244 0
M  V30 7997 H 735.547 -0.375352 0.603847 0
M  V30 7998 H 738.149 -0.390604 1.91558 0
M  V30 7999 H 736.853 -1.47316 3.83048 0
M  V30 8000 H 736.384 -2.80324 2.76011 0
M  V30 8001 H 738.399 -4.06241 2.84926 0
M  V30 8002 N 737.572 -1.44907 -0.619662 0
M  V30 8003 C 738.519 -1.52654 -1.73105 0
M  V30 8004 C 739.489 -0.373334 -1.6185 0
M  V30 8005 O 740.674 -0.585143 -1.81606 0
M  V30 8006 C 737.814 -1.48769 -3.11387 0
M  V30 8007 C 736.927 -2.74551 -3.33535 0
M  V30 8008 C 736.062 -2.62421 -4.61854 0
M  V30 8009 C 735.101 -3.83312 -4.77219 0
M  V30 8010 N 734.238 -3.69789 -5.96826 0
M  V30 8011 H 739.078 -2.47605 -1.65819 0
M  V30 8012 H 736.615 -1.22875 -0.808719 0
M  V30 8013 H 738.573 -1.44507 -3.91374 0
M  V30 8014 H 737.203 -0.573783 -3.1766 0
M  V30 8015 H 736.255 -2.88953 -2.47408 0
M  V30 8016 H 737.567 -3.64253 -3.40765 0
M  V30 8017 H 736.721 -2.56056 -5.50019 0
M  V30 8018 H 735.46 -1.70298 -4.57001 0
M  V30 8019 H 734.465 -3.90049 -3.87481 0
M  V30 8020 H 735.69 -4.76486 -4.83878 0
M  V30 8021 H 733.636 -2.80426 -5.93041 0
M  V30 8022 H 733.553 -4.53116 -6.05163 0
M  V30 8023 H 734.821 -3.67335 -6.87521 0
M  V30 8024 N 739.05 0.861098 -1.31996 0
M  V30 8025 C 740.278 1.6474 -1.25173 0
M  V30 8026 C 740.693 1.87926 0.181425 0
M  V30 8027 O 740.05 1.4437 1.1164 0
M  V30 8028 C 740.101 3.01036 -2.0015 0
M  V30 8029 O 739.822 2.7888 -3.37872 0
M  V30 8030 C 741.323 3.95481 -2.00273 0
M  V30 8031 H 738.543 0.513314 -0.432146 0
M  V30 8032 H 741.087 1.07419 -1.74016 0
M  V30 8033 H 739.242 3.55021 -1.55046 0
M  V30 8034 H 739.656 3.65514 -3.76165 0
M  V30 8035 H 741.13 4.88403 -2.57229 0
M  V30 8036 H 741.607 4.27957 -0.987407 0
M  V30 8037 H 742.213 3.47433 -2.45296 0
M  V30 8038 N 740.528 1.15101 1.07655 0
M  V30 8039 C 741.476 0.840714 2.16875 0
M  V30 8040 C 742.47 -0.184594 1.68391 0
M  V30 8041 O 743.676 -0.0399315 1.79956 0
M  V30 8042 H 740.051 0.254192 0.707736 0
M  V30 8043 H 742.022 1.76959 2.40266 0
M  V30 8044 C 740.771 0.343018 3.46004 0
M  V30 8045 H 740.094 1.12335 3.83694 0
M  V30 8046 H 741.534 0.16453 4.23681 0
M  V30 8047 C 739.993 -0.934881 3.23669 0
M  V30 8048 O 740.523 -2.00706 3.47965 0
M  V30 8049 N 738.729 -0.873167 2.77172 0
M  V30 8050 H 738.276 -0.000479072 2.576 0
M  V30 8051 H 738.234 -1.72873 2.62607 0
M  V30 8052 N 742.006 -1.2595 0.947325 0
M  V30 8053 C 743.253 -1.93463 0.598178 0
M  V30 8054 C 743.581 -1.74271 -0.863705 0
M  V30 8055 O 742.836 -1.07684 -1.63409 0
M  V30 8056 C 743.135 -3.46034 0.894158 0
M  V30 8057 C 742.801 -3.85373 2.3409 0
M  V30 8058 C 741.463 -3.95823 2.73637 0
M  V30 8059 C 743.815 -4.04986 3.2808 0
M  V30 8060 C 741.143 -4.23288 4.06257 0
M  V30 8061 C 743.495 -4.3394 4.60303 0
M  V30 8062 C 742.159 -4.42606 4.99656 0
M  V30 8063 H 741.429 -0.707933 0.218889 0
M  V30 8064 H 744.076 -1.4964 1.19499 0
M  V30 8065 H 742.381 -3.9121 0.214874 0
M  V30 8066 H 744.078 -3.96445 0.602698 0
M  V30 8067 H 740.668 -3.7779 2.02417 0
M  V30 8068 H 744.852 -3.96333 2.9872 0
M  V30 8069 H 740.108 -4.28211 4.36401 0
M  V30 8070 H 744.282 -4.48061 5.33118 0
M  V30 8071 H 741.909 -4.63641 6.02446 0
M  V30 8072 N 743.484 -0.715051 -1.40445 0
M  V30 8073 C 744.447 -0.0708726 -2.2909 0
M  V30 8074 C 745.447 0.687926 -1.45342 0
M  V30 8075 O 746.637 0.519908 -1.66261 0
M  V30 8076 C 743.769 0.909528 -3.28543 0
M  V30 8077 H 744.962 -0.851611 -2.87555 0
M  V30 8078 H 742.515 -0.479674 -1.48758 0
M  V30 8079 H 743.25 1.71734 -2.75096 0
M  V30 8080 H 743.035 0.368318 -3.90366 0
M  V30 8081 H 744.525 1.35744 -3.94922 0
M  V30 8082 N 744.962 1.50701 -0.461195 0
M  V30 8083 C 746.209 2.02267 0.0971971 0
M  V30 8084 C 746.537 1.34387 1.40608 0
M  V30 8085 O 745.792 0.455254 1.90331 0
M  V30 8086 C 746.091 3.55788 0.33908 0
M  V30 8087 C 745.757 4.42092 -0.886885 0
M  V30 8088 C 744.419 4.65398 -1.22304 0
M  V30 8089 C 746.771 4.92571 -1.70361 0
M  V30 8090 C 744.099 5.36429 -2.37616 0
M  V30 8091 C 746.451 5.64868 -2.84793 0
M  V30 8092 C 745.115 5.86431 -3.18834 0
M  V30 8093 H 744.385 0.740146 0.0355669 0
M  V30 8094 H 747.032 1.81415 -0.61326 0
M  V30 8095 H 745.337 3.751 1.13168 0
M  V30 8096 H 747.034 3.93243 0.784937 0
M  V30 8097 H 743.624 4.24165 -0.614981 0
M  V30 8098 H 747.808 4.74428 -1.4571 0
M  V30 8099 H 743.064 5.51333 -2.64276 0
M  V30 8100 H 747.238 6.02966 -3.48432 0
M  V30 8101 H 744.865 6.41248 -4.08296 0
M  V30 8102 N 746.441 0.193421 1.56409 0
M  V30 8103 C 747.857 -0.162447 1.58771 0
M  V30 8104 C 748.057 -1.6116 1.20954 0
M  V30 8105 O 747.113 -2.3469 0.931497 0
M  V30 8106 C 748.426 0.138391 3.00381 0
M  V30 8107 C 749.974 0.0783649 3.12902 0
M  V30 8108 C 750.449 0.352491 4.56642 0
M  V30 8109 N 751.94 0.30105 4.62221 0
M  V30 8110 C 752.675 0.487028 5.71328 0
M  V30 8111 N 752.171 0.733265 6.88909 0
M  V30 8112 N 753.964 0.4214 5.60518 0
M  V30 8113 H 746.115 1.13909 1.79272 0
M  V30 8114 H 748.378 0.454528 0.83193 0
M  V30 8115 H 748.084 1.14312 3.32604 0
M  V30 8116 H 747.958 -0.559804 3.73023 0
M  V30 8117 H 750.345 -0.916963 2.80492 0
M  V30 8118 H 750.426 0.809611 2.4265 0
M  V30 8119 H 750.07 1.34513 4.89764 0
M  V30 8120 H 750 -0.399624 5.25081 0
M  V30 8121 H 752.491 0.117279 3.77718 0
M  V30 8122 H 752.804 0.86403 7.67955 0
M  V30 8123 H 751.149 0.770138 6.9072 0
M  V30 8124 H 754.34 0.229461 4.67537 0
M  V30 8125 H 754.513 0.569758 6.4549 0
M  V30 8126 N 747.919 -1.57396 -0.0801906 0
M  V30 8127 C 749.335 -1.53564 -0.434778 0
M  V30 8128 C 749.535 -0.912372 -1.79661 0
M  V30 8129 O 748.591 -0.511268 -2.4727 0
M  V30 8130 C 749.904 -2.98244 -0.383561 0
M  V30 8131 C 751.452 -3.09536 -0.46435 0
M  V30 8132 C 751.927 -4.55851 -0.443128 0
M  V30 8133 N 753.418 -4.60456 -0.503448 0
M  V30 8134 C 754.153 -5.71135 -0.509106 0
M  V30 8135 N 753.649 -6.91203 -0.47008 0
M  V30 8136 N 755.442 -5.59353 -0.555035 0
M  V30 8137 H 747.593 -1.96281 0.811635 0
M  V30 8138 H 749.856 -0.898041 0.303689 0
M  V30 8139 H 749.562 -3.47369 0.550236 0
M  V30 8140 H 749.436 -3.57705 -1.19694 0
M  V30 8141 H 751.823 -2.6039 -1.38857 0
M  V30 8142 H 751.904 -2.53 0.377445 0
M  V30 8143 H 751.548 -5.05653 0.477207 0
M  V30 8144 H 751.478 -5.10242 -1.30234 0
M  V30 8145 H 753.969 -3.74048 -0.538199 0
M  V30 8146 H 754.282 -7.7132 -0.478091 0
M  V30 8147 H 752.627 -6.93625 -0.436897 0
M  V30 8148 H 755.818 -4.64453 -0.583158 0
M  V30 8149 H 755.991 -6.4561 -0.555976 0
M  V30 8150 N 749.397 0.351382 -1.53633 0
M  V30 8151 C 750.808 0.927429 -1.62036 0
M  V30 8152 C 751.159 1.89809 -0.496706 0
M  V30 8153 O 750.284 2.1313 0.374749 0
M  V30 8154 C 750.879 1.68886 -2.93706 0
M  V30 8155 C 749.438 2.21404 -3.04397 0
M  V30 8156 C 748.585 1.03075 -2.57431 0
M  V30 8157 H 751.536 0.129748 -1.58169 0
M  V30 8158 H 751.557 2.55116 -2.82305 0
M  V30 8159 H 751.069 0.982149 -3.75467 0
M  V30 8160 H 749.17 2.95274 -2.27253 0
M  V30 8161 H 749.283 2.48312 -4.09729 0
M  V30 8162 H 747.647 1.40188 -2.12649 0
M  V30 8163 H 748.43 0.338793 -3.41624 0
M  V30 8164 N 750.875 1.45233 0.611969 0
M  V30 8165 C 752.115 1.50558 1.38245 0
M  V30 8166 C 752.479 0.141959 1.91474 0
M  V30 8167 O 753.68 0.0698926 2.68709 0
M  V30 8168 C 751.951 2.55136 2.50281 0
M  V30 8169 S 753.51 2.79652 3.38142 0
M  V30 8170 H 750.328 0.532281 0.471378 0
M  V30 8171 H 752.93 1.82285 0.706578 0
M  V30 8172 H 751.634 3.52888 2.09518 0
M  V30 8173 H 751.165 2.25045 3.22674 0
M  V30 8174 H 753.18 2.12699 4.48301 0
M  V30 8175 N 752.353 -0.854086 1.3245 0
M  V30 8176 C 753.6 -1.60831 1.23043 0
M  V30 8177 C 753.928 -1.93389 -0.2076 0
M  V30 8178 O 753.183 -1.5756 -1.16075 0
M  V30 8179 C 753.482 -2.93746 2.03587 0
M  V30 8180 C 753.148 -2.80615 3.52939 0
M  V30 8181 C 751.81 -2.76742 3.93659 0
M  V30 8182 C 754.162 -2.66507 4.4791 0
M  V30 8183 C 751.49 -2.56638 5.27592 0
M  V30 8184 C 753.842 -2.47939 5.81987 0
M  V30 8185 C 752.506 -2.42458 6.21909 0
M  V30 8186 H 751.776 -0.588523 0.450247 0
M  V30 8187 H 754.423 -0.990699 1.63882 0
M  V30 8188 H 752.728 -3.5963 1.55478 0
M  V30 8189 H 754.425 -3.51127 1.93677 0
M  V30 8190 H 751.015 -2.84456 3.20598 0
M  V30 8191 H 755.199 -2.68544 4.1737 0
M  V30 8192 H 750.455 -2.50831 5.57579 0
M  V30 8193 H 754.629 -2.36002 6.55192 0
M  V30 8194 H 752.256 -2.2664 7.2563 0
M  V30 8195 N 753.831 -1.1567 -1.07043 0
M  V30 8196 C 754.741 -0.870435 -2.17855 0
M  V30 8197 C 755.757 0.154452 -1.73313 0
M  V30 8198 O 756.933 -0.0203759 -2.0139 0
M  V30 8199 C 753.998 -0.367219 -3.4475 0
M  V30 8200 C 753.059 -1.45639 -4.03841 0
M  V30 8201 C 752.292 -0.977092 -5.2468 0
M  V30 8202 O 752.515 0.176127 -5.70128 0
M  V30 8203 O 751.449 -1.76215 -5.75527 0
M  V30 8204 H 755.275 -1.79687 -2.44839 0
M  V30 8205 H 752.86 -0.936064 -1.1644 0
M  V30 8206 H 754.742 -0.0931947 -4.21297 0
M  V30 8207 H 753.417 0.53131 -3.1931 0
M  V30 8208 H 752.324 -1.78406 -3.28819 0
M  V30 8209 H 753.657 -2.32995 -4.3356 0
M  V30 8210 N 755.309 1.25446 -0.953992 0
M  V30 8211 C 756.534 1.97755 -0.625129 0
M  V30 8212 C 756.959 1.70437 0.795787 0
M  V30 8213 O 756.317 0.95992 1.53803 0
M  V30 8214 C 756.365 3.49463 -0.889251 0
M  V30 8215 O 755.469 4.12387 0.0322757 0
M  V30 8216 H 754.81 0.61998 -0.237742 0
M  V30 8217 H 757.34 1.59582 -1.28041 0
M  V30 8218 H 757.35 3.99772 -0.815263 0
M  V30 8219 H 756.025 3.68676 -1.92487 0
M  V30 8220 H 754.602 3.72782 -0.0938625 0
M  V30 8221 N 756.787 0.722489 1.40064 0
M  V30 8222 C 757.717 0.0892452 2.33329 0
M  V30 8223 C 758.698 -0.737992 1.53257 0
M  V30 8224 O 759.883 -0.685516 1.81698 0
M  V30 8225 C 757.013 -0.828139 3.37282 0
M  V30 8226 C 755.967 -0.106005 4.27869 0
M  V30 8227 C 755.293 -1.13957 5.22415 0
M  V30 8228 C 756.593 1.04395 5.11761 0
M  V30 8229 H 758.287 0.868269 2.86534 0
M  V30 8230 H 755.833 0.418982 1.3777 0
M  V30 8231 H 757.786 -1.28058 4.01471 0
M  V30 8232 H 756.51 -1.63914 2.82489 0
M  V30 8233 H 755.169 0.326683 3.65142 0
M  V30 8234 H 754.817 -1.9438 4.63924 0
M  V30 8235 H 754.517 -0.661233 5.83868 0
M  V30 8236 H 756.041 -1.59197 5.89482 0
M  V30 8237 H 757.455 0.670541 5.69365 0
M  V30 8238 H 755.852 1.4511 5.82291 0
M  V30 8239 H 756.922 1.87144 4.47331 0
M  V30 8240 N 758.265 -1.50454 0.469181 0
M  V30 8241 C 759.212 -2.28486 -0.325982 0
M  V30 8242 C 760.182 -1.33455 -0.988893 0
M  V30 8243 O 761.367 -1.6239 -1.0017 0
M  V30 8244 C 758.507 -3.15288 -1.40313 0
M  V30 8245 C 757.62 -4.25348 -0.755183 0
M  V30 8246 C 756.755 -4.9941 -1.81006 0
M  V30 8247 C 755.794 -6.01348 -1.14226 0
M  V30 8248 N 754.931 -6.68695 -2.1399 0
M  V30 8249 H 759.771 -2.95987 0.345753 0
M  V30 8250 H 757.308 -1.45965 0.182355 0
M  V30 8251 H 759.266 -3.63964 -2.03927 0
M  V30 8252 H 757.896 -2.49837 -2.04405 0
M  V30 8253 H 756.948 -3.80399 -0.00651901 0
M  V30 8254 H 758.26 -4.98279 -0.227941 0
M  V30 8255 H 757.414 -5.51794 -2.52206 0
M  V30 8256 H 756.153 -4.26181 -2.3711 0
M  V30 8257 H 755.158 -5.48225 -0.415876 0
M  V30 8258 H 756.383 -6.76548 -0.588135 0
M  V30 8259 H 754.329 -5.98258 -2.69115 0
M  V30 8260 H 754.246 -7.37495 -1.66246 0
M  V30 8261 H 755.514 -7.25697 -2.84576 0
M  V30 8262 N 759.743 -0.201713 -1.56304 0
M  V30 8263 C 760.706 0.702811 -2.18159 0
M  V30 8264 C 761.706 1.13619 -1.13787 0
M  V30 8265 O 762.896 1.0482 -1.39134 0
M  V30 8266 C 760.028 1.96032 -2.78898 0
M  V30 8267 H 761.221 0.163836 -2.99452 0
M  V30 8268 H 758.774 0.04791 -1.56227 0
M  V30 8269 H 759.509 2.54165 -2.01421 0
M  V30 8270 H 759.294 1.65824 -3.55309 0
M  V30 8271 H 760.784 2.60519 -3.26373 0
M  V30 8272 N 761.222 1.57436 0.0718424 0
M  V30 8273 C 762.499 1.78312 0.804006 0
M  V30 8274 C 762.879 0.789273 1.9579 0
M  V30 8275 O 762.227 -0.177605 2.27809 0
M  V30 8276 C 762.437 3.24798 1.277 0
M  V30 8277 C 763.785 3.88627 1.71039 0
M  V30 8278 O 764.809 3.28689 1.37266 0
M  V30 8279 O 763.668 4.94073 2.33567 0
M  V30 8280 H 760.762 0.73178 0.385262 0
M  V30 8281 H 763.308 1.69621 0.0519219 0
M  V30 8282 H 762.08 3.88688 0.45134 0
M  V30 8283 H 761.703 3.38213 2.0904 0
M  V30 8284 N 762.7 -0.34323 1.53817 0
M  V30 8285 C 763.647 -1.42153 1.81827 0
M  V30 8286 C 764.617 -1.52251 0.663996 0
M  V30 8287 O 765.802 -1.67784 0.908461 0
M  V30 8288 C 762.942 -2.78799 2.03384 0
M  V30 8289 C 762.055 -2.7749 3.31094 0
M  V30 8290 C 761.19 -4.05856 3.42717 0
M  V30 8291 C 760.229 -3.98776 4.64375 0
M  V30 8292 N 759.366 -5.18833 4.73029 0
M  V30 8293 H 764.206 -1.17567 2.73829 0
M  V30 8294 H 761.743 -0.569506 1.35628 0
M  V30 8295 H 763.701 -3.58211 2.13872 0
M  V30 8296 H 762.331 -3.01736 1.14696 0
M  V30 8297 H 761.383 -1.90182 3.29446 0
M  V30 8298 H 762.695 -2.68137 4.206 0
M  V30 8299 H 761.849 -4.93691 3.52638 0
M  V30 8300 H 760.588 -4.1799 2.51267 0
M  V30 8301 H 759.593 -3.09325 4.5453 0
M  V30 8302 H 760.818 -3.88224 5.57189 0
M  V30 8303 H 758.764 -5.31511 3.84489 0
M  V30 8304 H 758.681 -5.11737 5.56472 0
M  V30 8305 H 759.949 -6.08439 4.87261 0
M  V30 8306 N 764.178 -1.45556 -0.604258 0
M  V30 8307 C 765.406 -1.53278 -1.38973 0
M  V30 8308 C 765.821 -0.166509 -1.88064 0
M  V30 8309 O 765.178 0.832519 -1.62405 0
M  V30 8310 C 765.229 -2.51992 -2.59195 0
M  V30 8311 O 764.95 -3.8331 -2.12143 0
M  V30 8312 C 766.451 -2.69445 -3.52015 0
M  V30 8313 H 763.671 -0.519003 -0.425297 0
M  V30 8314 H 766.215 -1.90773 -0.736621 0
M  V30 8315 H 764.37 -2.17561 -3.2054 0
M  V30 8316 H 764.784 -4.3685 -2.90279 0
M  V30 8317 H 766.258 -3.42485 -4.32907 0
M  V30 8318 H 766.735 -1.75596 -4.0257 0
M  V30 8319 H 767.341 -3.04886 -2.9652 0
M  V30 8320 N 765.656 0.84705 -1.32902 0
M  V30 8321 C 766.886 1.63166 -1.26729 0
M  V30 8322 C 767.294 1.88474 0.165595 0
M  V30 8323 O 766.637 1.45947 1.11558 0
M  V30 8324 C 766.699 3.0103 -1.96522 0
M  V30 8325 C 766.363 2.9873 -3.45846 0
M  V30 8326 C 767.36 2.75032 -4.41196 0
M  V30 8327 C 765.045 3.19125 -3.87898 0
M  V30 8328 C 767.039 2.71743 -5.76571 0
M  V30 8329 C 764.726 3.15462 -5.2338 0
M  V30 8330 C 765.724 2.91801 -6.17528 0
M  V30 8331 O 765.412 2.88027 -7.5053 0
M  V30 8332 H 765.144 0.51469 -0.438258 0
M  V30 8333 H 767.698 1.06383 -1.75704 0
M  V30 8334 H 765.928 3.59634 -1.42128 0
M  V30 8335 H 767.617 3.61821 -1.83958 0
M  V30 8336 H 768.383 2.59034 -4.10032 0
M  V30 8337 H 764.262 3.36565 -3.15032 0
M  V30 8338 H 767.806 2.53194 -6.5003 0
M  V30 8339 H 763.703 3.31006 -5.54171 0
M  V30 8340 H 764.471 3.03927 -7.59981 0
M  V30 8341 N 767.134 1.16236 1.06428 0
M  V30 8342 C 768.38 0.944431 1.79467 0
M  V30 8343 C 768.713 -0.526558 1.86925 0
M  V30 8344 O 767.988 -1.39061 1.35986 0
M  V30 8345 C 768.271 1.57092 3.24028 0
M  V30 8346 C 768.124 3.11315 3.24658 0
M  V30 8347 C 769.443 1.26447 4.21544 0
M  V30 8348 H 766.562 0.344521 0.651517 0
M  V30 8349 H 769.204 1.43545 1.24478 0
M  V30 8350 H 767.354 1.15337 3.70985 0
M  V30 8351 H 769.026 3.62042 2.85873 0
M  V30 8352 H 767.269 3.44716 2.6335 0
M  V30 8353 H 767.94 3.50269 4.26633 0
M  V30 8354 H 770.416 1.62581 3.83023 0
M  V30 8355 H 769.292 1.72885 5.20963 0
M  V30 8356 H 769.553 0.183068 4.41721 0
M  V30 8357 N 768.612 -1.24939 0.960631 0
M  V30 8358 C 770.023 -1.74701 0.658529 0
M  V30 8359 C 770.374 -1.77967 -0.825959 0
M  V30 8360 O 769.499 -1.40444 -1.64634 0
M  V30 8361 C 770.094 -3.17263 1.18867 0
M  V30 8362 C 768.653 -3.64561 0.936614 0
M  V30 8363 C 767.8 -2.43423 1.32817 0
M  V30 8364 H 770.751 -1.10741 1.13676 0
M  V30 8365 H 770.772 -3.76481 0.551589 0
M  V30 8366 H 770.284 -3.14854 2.26912 0
M  V30 8367 H 768.385 -3.72378 -0.128608 0
M  V30 8368 H 768.498 -4.52392 1.57729 0
M  V30 8369 H 766.862 -2.43513 0.746548 0
M  V30 8370 H 767.645 -2.437 2.41796 0
M  V30 8371 N 770.09 -0.729906 -1.39679 0
M  V30 8372 C 771.501 -0.346241 -1.83461 0
M  V30 8373 C 771.852 1.1215 -1.60987 0
M  V30 8374 O 770.977 1.86456 -1.09832 0
M  V30 8375 C 771.572 -0.621656 -3.33048 0
M  V30 8376 C 770.131 -0.291543 -3.75269 0
M  V30 8377 C 769.278 -0.886844 -2.62736 0
M  V30 8378 H 772.229 -0.927949 -1.28743 0
M  V30 8379 H 772.25 0.108301 -3.80346 0
M  V30 8380 H 771.762 -1.68996 -3.49373 0
M  V30 8381 H 769.863 0.771133 -3.64533 0
M  V30 8382 H 769.976 -0.770544 -4.72863 0
M  V30 8383 H 768.34 -0.313839 -2.52759 0
M  V30 8384 H 769.123 -1.95971 -2.81869 0
M  V30 8385 N 771.568 1.50203 -0.477153 0
M  V30 8386 C 772.979 1.86685 -0.0235041 0
M  V30 8387 C 773.33 1.39148 1.38319 0
M  V30 8388 O 772.455 0.759051 2.02651 0
M  V30 8389 C 773.05 3.38781 -0.0358767 0
M  V30 8390 C 771.609 3.74652 0.362327 0
M  V30 8391 C 770.756 2.7412 -0.41875 0
M  V30 8392 H 773.707 1.4286 -0.691133 0
M  V30 8393 H 773.728 3.72732 0.764924 0
M  V30 8394 H 773.24 3.73349 -1.05981 0
M  V30 8395 H 771.341 3.45686 1.39039 0
M  V30 8396 H 771.454 4.79063 0.059457 0
M  V30 8397 H 769.818 2.54376 0.128341 0
M  V30 8398 H 770.601 3.11532 -1.44231 0
M  V30 8399 N 773.046 0.209999 1.56195 0
M  V30 8400 C 774.293 -0.424813 1.97994 0
M  V30 8401 C 774.621 -1.60589 1.09733 0
M  V30 8402 O 773.876 -1.95201 0.139693 0
M  V30 8403 C 774.175 -0.91312 3.45539 0
M  V30 8404 C 773.841 0.156187 4.50629 0
M  V30 8405 C 772.503 0.449966 4.79092 0
M  V30 8406 C 774.855 0.879959 5.13718 0
M  V30 8407 C 772.183 1.47223 5.67928 0
M  V30 8408 C 774.535 1.89148 6.0366 0
M  V30 8409 C 773.199 2.1923 6.30472 0
M  V30 8410 H 772.469 -0.15545 0.724511 0
M  V30 8411 H 775.116 0.310095 1.88973 0
M  V30 8412 H 773.421 -1.72658 3.51705 0
M  V30 8413 H 775.118 -1.41395 3.75245 0
M  V30 8414 H 771.708 -0.0829466 4.2852 0
M  V30 8415 H 775.892 0.66623 4.91808 0
M  V30 8416 H 771.148 1.71105 5.86969 0
M  V30 8417 H 775.322 2.45745 6.516 0
M  V30 8418 H 772.949 2.98587 6.99107 0
M  V30 8419 N 774.524 -1.57472 -0.0634922 0
M  V30 8420 C 775.749 -1.92273 -0.77756 0
M  V30 8421 C 776.174 -0.807141 -1.69902 0
M  V30 8422 O 775.532 0.239523 -1.79711 0
M  V30 8423 C 775.58 -3.26054 -1.54017 0
M  V30 8424 O 774.684 -3.15873 -2.65138 0
M  V30 8425 H 774.025 -0.629389 -0.211579 0
M  V30 8426 H 776.555 -2.04579 -0.0292523 0
M  V30 8427 H 776.565 -3.60127 -1.91763 0
M  V30 8428 H 775.24 -4.06824 -0.864128 0
M  V30 8429 H 773.817 -2.93373 -2.30189 0
M  V30 8430 N 776.003 0.335068 -1.53997 0
M  V30 8431 C 776.935 1.4327 -1.78903 0
M  V30 8432 C 777.948 1.48347 -0.670598 0
M  V30 8433 O 779.137 1.51277 -0.947494 0
M  V30 8434 C 776.237 2.81878 -1.88144 0
M  V30 8435 C 775.41 3.00141 -3.18174 0
M  V30 8436 C 774.469 4.19041 -3.18263 0
M  V30 8437 O 773.495 4.12751 -3.9195 0
M  V30 8438 N 774.697 5.28004 -2.41231 0
M  V30 8439 H 777.462 1.22272 -2.73623 0
M  V30 8440 H 775.023 0.524996 -1.53152 0
M  V30 8441 H 777.015 3.59609 -1.85644 0
M  V30 8442 H 775.585 2.9598 -1.00572 0
M  V30 8443 H 774.805 2.09808 -3.33728 0
M  V30 8444 H 776.093 3.0923 -4.04047 0
M  V30 8445 H 775.491 5.35986 -1.8093 0
M  V30 8446 H 774.048 6.04196 -2.44521 0
M  V30 8447 N 777.481 1.45874 0.596531 0
M  V30 8448 C 778.758 1.40942 1.35627 0
M  V30 8449 C 779.138 0.0857066 2.10926 0
M  V30 8450 O 778.486 -0.932544 2.08605 0
M  V30 8451 C 778.696 2.63027 2.29386 0
M  V30 8452 C 780.044 3.08588 2.91649 0
M  V30 8453 O 781.068 2.63478 2.39704 0
M  V30 8454 O 779.927 3.86902 3.85965 0
M  V30 8455 H 777.021 0.559838 0.608696 0
M  V30 8456 H 779.567 1.5802 0.618698 0
M  V30 8457 H 778.339 3.5094 1.7308 0
M  V30 8458 H 777.962 2.48338 3.10506 0
M  V30 8459 N 778.959 -0.83999 1.33349 0
M  V30 8460 C 779.889 -1.965 1.26135 0
M  V30 8461 C 780.87 -1.69505 0.142152 0
M  V30 8462 O 782.055 -1.91346 0.331743 0
M  V30 8463 C 779.185 -3.32632 0.99866 0
M  V30 8464 C 778.139 -3.74021 2.08068 0
M  V30 8465 C 777.465 -5.07947 1.67014 0
M  V30 8466 C 778.765 -3.87925 3.49731 0
M  V30 8467 H 780.459 -2.02793 2.20262 0
M  V30 8468 H 778.005 -0.974297 1.06035 0
M  V30 8469 H 779.958 -4.10903 0.934696 0
M  V30 8470 H 778.682 -3.26593 0.0217759 0
M  V30 8471 H 777.341 -2.98012 2.13505 0
M  V30 8472 H 776.989 -4.98378 0.680316 0
M  V30 8473 H 776.689 -5.36611 2.39422 0
M  V30 8474 H 778.213 -5.88695 1.62082 0
M  V30 8475 H 779.627 -4.5651 3.46802 0
M  V30 8476 H 778.024 -4.28023 4.20614 0
M  V30 8477 H 779.094 -2.90407 3.88319 0
M  V30 8478 N 780.437 -1.16799 -1.0581 0
M  V30 8479 C 781.684 -0.952524 -1.78699 0
M  V30 8480 C 782.012 0.51931 -1.87439 0
M  V30 8481 O 781.267 1.40151 -1.36587 0
M  V30 8482 C 781.566 -1.53111 -3.22942 0
M  V30 8483 C 781.232 -3.0261 -3.34273 0
M  V30 8484 C 779.894 -3.43418 -3.37072 0
M  V30 8485 C 782.246 -3.98611 -3.35795 0
M  V30 8486 C 779.574 -4.78838 -3.39015 0
M  V30 8487 C 781.926 -5.33923 -3.39277 0
M  V30 8488 C 780.59 -5.74205 -3.40361 0
M  V30 8489 H 779.86 -0.348553 -0.653905 0
M  V30 8490 H 782.507 -1.45591 -1.244 0
M  V30 8491 H 780.812 -0.949286 -3.80126 0
M  V30 8492 H 782.509 -1.34002 -3.77948 0
M  V30 8493 H 779.099 -2.70075 -3.32803 0
M  V30 8494 H 783.283 -3.68146 -3.32839 0
M  V30 8495 H 778.539 -5.09369 -3.38161 0
M  V30 8496 H 782.713 -6.08094 -3.39403 0
M  V30 8497 H 780.34 -6.79117 -3.4162 0
M  V30 8498 N 781.915 1.24427 -0.967243 0
M  V30 8499 C 783.143 1.96541 -0.646477 0
M  V30 8500 C 783.558 1.71753 0.783996 0
M  V30 8501 O 782.915 1.00102 1.52597 0
M  V30 8502 C 782.966 3.4983 -0.911098 0
M  V30 8503 O 782.687 3.7377 -2.28534 0
M  V30 8504 C 784.188 4.3916 -0.604458 0
M  V30 8505 H 781.408 0.626129 -0.241255 0
M  V30 8506 H 783.952 1.58268 -1.29505 0
M  V30 8507 H 782.107 3.86168 -0.308741 0
M  V30 8508 H 782.521 4.68154 -2.365 0
M  V30 8509 H 783.995 5.4557 -0.840069 0
M  V30 8510 H 784.472 4.36771 0.461273 0
M  V30 8511 H 785.078 4.08409 -1.1867 0
M  V30 8512 N 783.393 0.737304 1.3929 0
M  V30 8513 C 784.64 0.286257 2.00467 0
M  V30 8514 C 784.968 -1.1272 1.58507 0
M  V30 8515 O 784.223 -1.7832 0.806257 0
M  V30 8516 C 784.522 0.338438 3.55794 0
M  V30 8517 C 784.188 1.70524 4.17411 0
M  V30 8518 C 782.85 2.07934 4.33955 0
M  V30 8519 C 785.202 2.60256 4.51571 0
M  V30 8520 C 782.53 3.34578 4.81948 0
M  V30 8521 C 784.882 3.86275 5.00974 0
M  V30 8522 C 783.546 4.23774 5.15725 0
M  V30 8523 H 782.816 0.104749 0.733559 0
M  V30 8524 H 785.463 0.944598 1.66582 0
M  V30 8525 H 783.768 -0.403478 3.89717 0
M  V30 8526 H 785.465 -0.0287255 4.0099 0
M  V30 8527 H 782.055 1.40439 4.04938 0
M  V30 8528 H 786.239 2.32624 4.38406 0
M  V30 8529 H 781.495 3.63572 4.91554 0
M  V30 8530 H 785.669 4.5596 5.26378 0
M  V30 8531 H 783.296 5.21972 5.52674 0
M  V30 8532 N 784.871 -1.49948 0.485112 0
M  V30 8533 C 785.821 -2.25734 -0.320658 0
M  V30 8534 C 786.805 -1.29907 -0.949373 0
M  V30 8535 O 787.997 -1.54725 -0.859601 0
M  V30 8536 C 785.126 -3.13728 -1.39391 0
M  V30 8537 C 784.212 -4.1701 -0.772225 0
M  V30 8538 N 784.603 -5.05667 0.115782 0
M  V30 8539 C 782.901 -4.33834 -1.03461 0
M  V30 8540 C 783.602 -5.79798 0.47004 0
M  V30 8541 N 782.578 -5.4337 -0.158204 0
M  V30 8542 H 786.38 -2.91647 0.36319 0
M  V30 8543 H 783.894 -1.59602 0.300154 0
M  V30 8544 H 785.891 -3.66639 -1.98447 0
M  V30 8545 H 784.551 -2.49365 -2.0796 0
M  V30 8546 H 785.562 -5.15619 0.485557 0
M  V30 8547 H 782.239 -3.80684 -1.71424 0
M  V30 8548 H 783.629 -6.61177 1.19558 0
M  V30 8549 N 786.349 -0.21828 -1.56081 0
M  V30 8550 C 787.312 0.679633 -2.18892 0
M  V30 8551 C 788.312 1.12405 -1.14986 0
M  V30 8552 O 789.502 1.03339 -1.40238 0
M  V30 8553 C 786.634 1.93063 -2.80962 0
M  V30 8554 H 787.827 0.132066 -2.99609 0
M  V30 8555 H 785.38 0.0313374 -1.56269 0
M  V30 8556 H 786.115 2.52015 -2.04106 0
M  V30 8557 H 785.9 1.62046 -3.57048 0
M  V30 8558 H 787.39 2.57043 -3.29118 0
M  V30 8559 N 787.827 1.57504 0.0551401 0
M  V30 8560 C 789.104 1.79155 0.785048 0
M  V30 8561 C 789.484 0.809995 1.94942 0
M  V30 8562 O 788.832 -0.153432 2.27984 0
M  V30 8563 C 789.042 3.26134 1.24247 0
M  V30 8564 C 790.39 3.90419 1.66908 0
M  V30 8565 O 791.414 3.30126 1.33772 0
M  V30 8566 O 790.273 4.96523 2.28314 0
M  V30 8567 H 787.367 0.735825 0.377479 0
M  V30 8568 H 789.913 1.69666 0.0339285 0
M  V30 8569 H 788.685 3.89145 0.410089 0
M  V30 8570 H 788.308 3.40411 2.05441 0
M  V30 8571 N 789.305 -0.326896 1.54172 0
M  V30 8572 C 790.238 -1.42591 1.78166 0
M  V30 8573 C 791.216 -1.49837 0.631484 0
M  V30 8574 O 792.4 -1.67298 0.868544 0
M  V30 8575 C 789.527 -2.8071 1.89524 0
M  V30 8576 C 788.573 -2.91012 3.11792 0
M  V30 8577 S 789.406 -2.55763 4.70474 0
M  V30 8578 C 790.562 -3.9596 4.84733 0
M  V30 8579 H 790.795 -1.22024 2.71104 0
M  V30 8580 H 788.328 -0.523539 1.45253 0
M  V30 8581 H 790.286 -3.60276 1.96753 0
M  V30 8582 H 788.947 -2.98562 0.975696 0
M  V30 8583 H 788.14 -3.92258 3.16464 0
M  V30 8584 H 787.742 -2.19414 3.02876 0
M  V30 8585 H 790.034 -4.90676 4.67166 0
M  V30 8586 H 790.977 -3.96273 5.86833 0
M  V30 8587 H 791.385 -3.8476 4.13062 0
M  V30 8588 N 790.784 -1.46188 -0.588786 0
M  V30 8589 C 792.024 -1.52738 -1.35833 0
M  V30 8590 C 792.388 -0.172403 -1.91224 0
M  V30 8591 O 793.589 -0.112633 -2.68564 0
M  V30 8592 C 791.86 -2.59085 -2.4619 0
M  V30 8593 S 793.419 -2.84997 -3.3365 0
M  V30 8594 H 790.237 -0.539713 -0.462851 0
M  V30 8595 H 792.839 -1.83386 -0.677489 0
M  V30 8596 H 791.543 -3.56177 -2.03878 0
M  V30 8597 H 791.074 -2.3015 -3.19053 0
M  V30 8598 H 793.089 -2.19804 -4.4486 0
M  V30 8599 N 792.262 0.832906 -1.33792 0
M  V30 8600 C 793.194 1.95042 -1.2038 0
M  V30 8601 C 794.207 1.62253 -0.133299 0
M  V30 8602 O 795.396 1.74315 -0.384261 0
M  V30 8603 C 792.496 3.287 -0.825215 0
M  V30 8604 C 791.669 3.89581 -1.98861 0
M  V30 8605 C 790.728 5.01602 -1.59003 0
M  V30 8606 O 789.754 5.20431 -2.30522 0
M  V30 8607 N 790.956 5.78356 -0.498446 0
M  V30 8608 H 793.721 2.07083 -2.16649 0
M  V30 8609 H 791.282 1.00896 -1.26616 0
M  V30 8610 H 793.274 4.01074 -0.540559 0
M  V30 8611 H 791.844 3.12565 0.0469796 0
M  V30 8612 H 791.064 3.09723 -2.43856 0
M  V30 8613 H 792.352 4.26989 -2.76691 0
M  V30 8614 H 791.75 5.65618 0.0963297 0
M  V30 8615 H 790.307 6.51226 -0.273485 0
M  V30 8616 N 793.74 1.17359 1.05189 0
M  V30 8617 C 794.965 0.98709 1.82404 0
M  V30 8618 C 795.39 -0.459848 1.82392 0
M  V30 8619 O 794.748 -1.32924 1.23292 0
M  V30 8620 C 794.796 1.53276 3.26403 0
M  V30 8621 O 793.9 0.746541 4.05587 0
M  V30 8622 H 793.241 0.35047 0.563974 0
M  V30 8623 H 795.771 1.55856 1.32552 0
M  V30 8624 H 795.781 1.55504 3.77203 0
M  V30 8625 H 794.456 2.58603 3.25726 0
M  V30 8626 H 793.033 0.795671 3.64312 0
M  V30 8627 N 795.218 -1.23913 0.973828 0
M  V30 8628 C 796.15 -2.24397 0.466763 0
M  V30 8629 C 797.163 -1.57078 -0.427828 0
M  V30 8630 O 798.352 -1.76973 -0.233019 0
M  V30 8631 C 795.452 -3.37141 -0.344798 0
M  V30 8632 C 794.625 -4.34037 0.541349 0
M  V30 8633 C 793.684 -5.2576 -0.215243 0
M  V30 8634 O 792.71 -5.67842 0.39291 0
M  V30 8635 N 793.912 -5.60702 -1.5031 0
M  V30 8636 H 796.677 -2.68536 1.33074 0
M  V30 8637 H 794.238 -1.38017 0.846346 0
M  V30 8638 H 796.23 -3.95476 -0.859133 0
M  V30 8639 H 794.8 -2.92239 -1.10974 0
M  V30 8640 H 794.02 -3.74302 1.23659 0
M  V30 8641 H 795.308 -4.95738 1.1455 0
M  V30 8642 H 794.706 -5.28451 -2.01882 0
M  V30 8643 H 793.263 -6.21538 -1.96301 0
M  V30 8644 N 796.696 -0.74468 -1.38897 0
M  V30 8645 C 797.644 -0.100312 -2.32384 0
M  V30 8646 C 798.638 0.715191 -1.53562 0
M  V30 8647 O 799.844 0.615288 -1.69157 0
M  V30 8648 H 796.219 -0.0136403 -0.751876 0
M  V30 8649 H 798.19 -0.905007 -2.84345 0
M  V30 8650 C 796.939 0.785432 -3.38713 0
M  V30 8651 H 796.262 0.167308 -3.9945 0
M  V30 8652 H 797.702 1.20374 -4.06554 0
M  V30 8653 C 796.161 1.92408 -2.76552 0
M  V30 8654 O 796.691 3.01752 -2.65157 0
M  V30 8655 N 794.897 1.71642 -2.34494 0
M  V30 8656 H 794.444 0.827079 -2.43961 0
M  V30 8657 H 794.402 2.48 -1.93244 0
M  V30 8658 N 798.174 1.49689 -0.493057 0
M  V30 8659 C 799.084 2.32746 0.294358 0
M  V30 8660 C 800.1 1.44117 0.975003 0
M  V30 8661 O 801.276 1.77149 0.958138 0
M  V30 8662 C 798.341 3.19358 1.34949 0
M  V30 8663 C 797.402 4.2383 0.683122 0
M  V30 8664 C 796.635 5.06303 1.68798 0
M  V30 8665 O 796.858 4.90172 2.91698 0
M  V30 8666 O 795.792 5.88826 1.24768 0
M  V30 8667 H 799.618 3.01247 -0.385254 0
M  V30 8668 H 797.203 1.47216 -0.254519 0
M  V30 8669 H 799.085 3.73037 1.96014 0
M  V30 8670 H 797.76 2.53561 2.01217 0
M  V30 8671 H 796.667 3.74086 0.0329351 0
M  V30 8672 H 798 4.9216 0.0630192 0
M  V30 8673 N 799.652 0.226554 1.55963 0
M  V30 8674 C 800.562 -0.692725 2.24139 0
M  V30 8675 C 801.578 -1.20971 1.25068 0
M  V30 8676 O 802.754 -1.25027 1.57893 0
M  V30 8677 C 799.819 -1.88183 2.91184 0
M  V30 8678 C 798.88 -1.40633 4.05612 0
M  V30 8679 C 798.113 -2.53875 4.6945 0
M  V30 8680 O 798.336 -3.72129 4.32292 0
M  V30 8681 O 797.27 -2.24792 5.58348 0
M  V30 8682 H 801.096 -0.141921 3.03368 0
M  V30 8683 H 798.681 -0.0041049 1.49399 0
M  V30 8684 H 800.563 -2.57617 3.33484 0
M  V30 8685 H 799.238 -2.42064 2.14911 0
M  V30 8686 H 798.145 -0.67986 3.67871 0
M  V30 8687 H 799.478 -0.913838 4.83642 0
M  V30 8688 N 801.13 -1.57531 -0.0467866 0
M  V30 8689 C 802.06 -2.08425 -1.05268 0
M  V30 8690 C 803.041 -0.982941 -1.38825 0
M  V30 8691 O 804.226 -1.25716 -1.48018 0
M  V30 8692 C 801.356 -2.54897 -2.35891 0
M  V30 8693 C 800.31 -3.69132 -2.16623 0
M  V30 8694 C 799.636 -4.01747 -3.52851 0
M  V30 8695 C 800.936 -4.98243 -1.56689 0
M  V30 8696 H 802.63 -2.92716 -0.62908 0
M  V30 8697 H 800.176 -1.40816 -0.301156 0
M  V30 8698 H 802.129 -2.8912 -3.06574 0
M  V30 8699 H 800.853 -1.67666 -2.80278 0
M  V30 8700 H 799.512 -3.35231 -1.48377 0
M  V30 8701 H 799.16 -3.11608 -3.94853 0
M  V30 8702 H 798.86 -4.78681 -3.4079 0
M  V30 8703 H 800.384 -4.38487 -4.24925 0
M  V30 8704 H 801.798 -5.30535 -2.17268 0
M  V30 8705 H 800.195 -5.79669 -1.55255 0
M  V30 8706 H 801.265 -4.81986 -0.530827 0
M  V30 8707 N 802.608 0.318715 -1.54344 0
M  V30 8708 C 803.54 1.41364 -1.80413 0
M  V30 8709 C 804.553 1.47627 -0.686294 0
M  V30 8710 O 805.742 1.50264 -0.963486 0
M  V30 8711 C 802.842 2.79867 -1.91123 0
M  V30 8712 C 802.015 2.96749 -3.21339 0
M  V30 8713 C 801.074 4.15642 -3.22689 0
M  V30 8714 O 800.1 4.08571 -3.96306 0
M  V30 8715 N 801.302 5.25416 -2.46817 0
M  V30 8716 H 804.067 1.19363 -2.74905 0
M  V30 8717 H 801.628 0.508722 -1.537 0
M  V30 8718 H 803.62 3.57619 -1.89448 0
M  V30 8719 H 802.19 2.94896 -1.03706 0
M  V30 8720 H 801.41 2.06257 -3.35934 0
M  V30 8721 H 802.698 3.04927 -4.07304 0
M  V30 8722 H 802.096 5.34037 -1.86605 0
M  V30 8723 H 800.653 6.01569 -2.50915 0
M  V30 8724 N 804.086 1.46499 0.581025 0
M  V30 8725 C 805.502 1.31491 0.904563 0
M  V30 8726 C 805.702 0.287598 1.99437 0
M  V30 8727 O 804.758 -0.309247 2.50599 0
M  V30 8728 C 806.071 2.70163 1.32032 0
M  V30 8729 C 807.619 2.78266 1.43308 0
M  V30 8730 C 808.094 4.17524 1.8825 0
M  V30 8731 N 809.585 4.19949 1.9544 0
M  V30 8732 C 810.32 5.24594 2.31493 0
M  V30 8733 N 809.816 6.39564 2.66326 0
M  V30 8734 N 811.609 5.11961 2.32062 0
M  V30 8735 H 803.76 2.11946 -0.138856 0
M  V30 8736 H 806.023 0.948 0.000548528 0
M  V30 8737 H 805.729 3.46655 0.593554 0
M  V30 8738 H 805.603 3.00379 2.2815 0
M  V30 8739 H 807.99 2.02061 2.15071 0
M  V30 8740 H 808.071 2.51732 0.45438 0
M  V30 8741 H 807.715 4.94225 1.17065 0
M  V30 8742 H 807.645 4.41466 2.87081 0
M  V30 8743 H 810.136 3.36996 1.71004 0
M  V30 8744 H 810.449 7.15187 2.92793 0
M  V30 8745 H 808.794 6.42923 2.6396 0
M  V30 8746 H 811.985 4.21177 2.04272 0
M  V30 8747 H 812.158 5.93626 2.5983 0
M  V30 8748 N 805.565 -0.825799 1.34232 0
M  V30 8749 C 806.512 -1.93651 1.2557 0
M  V30 8750 C 807.482 -1.65578 0.131536 0
M  V30 8751 O 808.667 -1.88231 0.312027 0
M  V30 8752 C 805.807 -3.29862 1.01415 0
M  V30 8753 C 804.92 -3.70247 2.22579 0
M  V30 8754 C 804.055 -4.95392 1.91731 0
M  V30 8755 C 803.094 -5.28349 3.09053 0
M  V30 8756 N 802.231 -6.44671 2.78107 0
M  V30 8757 H 807.071 -2.00392 2.20561 0
M  V30 8758 H 804.608 -0.980441 1.09662 0
M  V30 8759 H 806.566 -4.08356 0.854485 0
M  V30 8760 H 805.196 -3.22642 0.100936 0
M  V30 8761 H 804.248 -2.87169 2.49476 0
M  V30 8762 H 805.56 -3.90575 3.10246 0
M  V30 8763 H 804.714 -5.81665 1.72484 0
M  V30 8764 H 803.453 -4.77059 1.0132 0
M  V30 8765 H 802.458 -4.40574 3.289 0
M  V30 8766 H 803.683 -5.48622 4.00239 0
M  V30 8767 H 801.629 -6.278 1.9027 0
M  V30 8768 H 801.546 -6.65158 3.59306 0
M  V30 8769 H 802.814 -7.34022 2.62358 0
M  V30 8770 N 807.043 -1.17915 -1.04565 0
M  V30 8771 C 808.271 -0.99616 -1.8134 0
M  V30 8772 C 808.686 0.455509 -1.83223 0
M  V30 8773 O 808.043 1.31636 -1.26405 0
M  V30 8774 C 808.094 -1.53758 -3.27171 0
M  V30 8775 O 807.815 -2.93241 -3.25486 0
M  V30 8776 C 809.316 -1.40007 -4.2061 0
M  V30 8777 H 806.536 -0.352055 -0.571225 0
M  V30 8778 H 809.08 -1.56349 -1.31815 0
M  V30 8779 H 807.235 -1.01213 -3.73945 0
M  V30 8780 H 807.649 -3.18392 -4.16805 0
M  V30 8781 H 809.123 -1.82695 -5.2089 0
M  V30 8782 H 809.6 -0.348054 -4.37819 0
M  V30 8783 H 810.206 -1.916 -3.79697 0
M  V30 8784 N 808.521 1.23394 -0.980386 0
M  V30 8785 C 809.798 1.87242 -0.565667 0
M  V30 8786 C 810.178 1.88151 0.957197 0
M  V30 8787 O 809.526 1.36309 1.8339 0
M  V30 8788 C 809.736 3.28743 -1.17172 0
M  V30 8789 C 811.084 4.05335 -1.26446 0
M  V30 8790 O 812.108 3.37962 -1.12517 0
M  V30 8791 O 810.967 5.25908 -1.48604 0
M  V30 8792 H 808.061 0.80477 -0.190459 0
M  V30 8793 H 810.607 1.3127 -1.07547 0
M  V30 8794 H 809.379 3.22647 -2.21392 0
M  V30 8795 H 809.002 3.92305 -0.646739 0
M  V30 8796 N 809.999 0.752036 1.385 0
M  V30 8797 C 811.415 0.42946 1.53713 0
M  V30 8798 C 811.615 -1.0576 1.71514 0
M  V30 8799 O 810.671 -1.84366 1.72527 0
M  V30 8800 C 811.984 1.22735 2.74511 0
M  V30 8801 C 813.532 1.21727 2.8836 0
M  V30 8802 C 814.007 1.99809 4.12117 0
M  V30 8803 N 815.498 1.97062 4.19191 0
M  V30 8804 C 816.233 2.54274 5.13938 0
M  V30 8805 N 815.729 3.20193 6.14368 0
M  V30 8806 N 817.522 2.44212 5.06277 0
M  V30 8807 H 809.673 1.71581 1.25195 0
M  V30 8808 H 811.936 0.727293 0.60807 0
M  V30 8809 H 811.642 2.28032 2.67758 0
M  V30 8810 H 811.516 0.843186 3.67655 0
M  V30 8811 H 813.903 0.172367 2.94596 0
M  V30 8812 H 813.984 1.64094 1.96232 0
M  V30 8813 H 813.628 3.0431 4.06642 0
M  V30 8814 H 813.558 1.54837 5.03322 0
M  V30 8815 H 816.049 1.49054 3.47263 0
M  V30 8816 H 816.362 3.61272 6.83156 0
M  V30 8817 H 814.707 3.24287 6.14705 0
M  V30 8818 H 817.898 1.92343 4.26757 0
M  V30 8819 H 818.071 2.89096 5.79937 0
M  V30 8820 N 811.477 -1.49425 0.500989 0
M  V30 8821 C 812.724 -2.02453 -0.0435355 0
M  V30 8822 C 813.052 -1.38067 -1.36995 0
M  V30 8823 O 812.307 -0.505557 -1.89057 0
M  V30 8824 C 812.606 -3.56562 -0.24463 0
M  V30 8825 C 812.272 -4.39585 1.00379 0
M  V30 8826 C 810.934 -4.61992 1.346 0
M  V30 8827 C 813.286 -4.87881 1.83361 0
M  V30 8828 C 810.614 -5.2994 2.51755 0
M  V30 8829 C 812.966 -5.57119 2.99669 0
M  V30 8830 C 811.63 -5.77771 3.3427 0
M  V30 8831 H 810.9 -0.740829 -0.0159308 0
M  V30 8832 H 813.547 -1.79725 0.661143 0
M  V30 8833 H 811.852 -3.77969 -1.03183 0
M  V30 8834 H 813.549 -3.95185 -0.6804 0
M  V30 8835 H 810.139 -4.22385 0.727225 0
M  V30 8836 H 814.323 -4.70398 1.58237 0
M  V30 8837 H 809.579 -5.44133 2.788 0
M  V30 8838 H 813.753 -5.93516 3.64296 0
M  V30 8839 H 811.38 -6.30197 4.25154 0
M  V30 8840 N 812.955 -0.234822 -1.55841 0
M  V30 8841 C 813.885 0.664217 -2.23854 0
M  V30 8842 C 814.866 1.19076 -1.2147 0
M  V30 8843 O 816.051 1.23232 -1.50091 0
M  V30 8844 C 813.181 1.86666 -2.9287 0
M  V30 8845 C 812.135 1.47341 -4.01839 0
M  V30 8846 C 811.461 2.75571 -4.58219 0
M  V30 8847 C 812.761 0.653479 -5.18196 0
M  V30 8848 H 814.455 0.0971213 -2.99242 0
M  V30 8849 H 812.001 0.0452724 -1.43929 0
M  V30 8850 H 813.954 2.50116 -3.39146 0
M  V30 8851 H 812.678 2.45894 -2.1495 0
M  V30 8852 H 811.337 0.862314 -3.56314 0
M  V30 8853 H 810.985 3.32971 -3.77014 0
M  V30 8854 H 810.685 2.49987 -5.31771 0
M  V30 8855 H 812.209 3.39939 -5.07221 0
M  V30 8856 H 813.623 1.19198 -5.60771 0
M  V30 8857 H 812.02 0.494188 -5.98062 0
M  V30 8858 H 813.09 -0.337004 -4.83728 0
M  V30 8859 N 814.433 1.57553 0.0384317 0
M  V30 8860 C 815.679 1.89121 0.732199 0
M  V30 8861 C 816.012 0.831404 1.75503 0
M  V30 8862 O 815.287 -0.154642 1.93884 0
M  V30 8863 C 815.57 3.31338 1.41021 0
M  V30 8864 C 815.423 4.48004 0.401532 0
M  V30 8865 C 816.742 3.72318 2.34665 0
M  V30 8866 H 813.861 0.687819 0.264715 0
M  V30 8867 H 816.503 1.89999 -0.00496279 0
M  V30 8868 H 814.653 3.3072 2.03854 0
M  V30 8869 H 816.325 4.60755 -0.224159 0
M  V30 8870 H 814.568 4.32895 -0.280092 0
M  V30 8871 H 815.239 5.44377 0.91423 0
M  V30 8872 H 817.715 3.74243 1.81883 0
M  V30 8873 H 816.591 4.72652 2.7909 0
M  V30 8874 H 816.852 3.04062 3.20934 0
M  V30 8875 N 815.911 -0.310526 1.54511 0
M  V30 8876 C 816.859 -1.40272 1.85544 0
M  V30 8877 C 817.853 -1.52941 0.728377 0
M  V30 8878 O 819.059 -1.55172 0.912234 0
M  V30 8879 H 815.434 -0.468355 0.588343 0
M  V30 8880 H 817.405 -1.11329 2.76855 0
M  V30 8881 C 816.154 -2.76279 2.11105 0
M  V30 8882 H 815.477 -2.67308 2.97298 0
M  V30 8883 H 816.917 -3.51736 2.36765 0
M  V30 8884 C 815.376 -3.24472 0.906618 0
M  V30 8885 O 815.906 -4.01514 0.122358 0
M  V30 8886 N 814.112 -2.81676 0.714632 0
M  V30 8887 H 813.659 -2.19143 1.35404 0
M  V30 8888 H 813.617 -3.14272 -0.089703 0
M  V30 8889 N 817.389 -1.46805 -0.573248 0
M  V30 8890 C 818.319 -1.60951 -1.69165 0
M  V30 8891 C 819.3 -0.45948 -1.63777 0
M  V30 8892 O 820.485 -0.68688 -1.81647 0
M  V30 8893 C 817.615 -1.60844 -3.07809 0
M  V30 8894 C 816.569 -2.74913 -3.28035 0
M  V30 8895 C 815.895 -2.59871 -4.67302 0
M  V30 8896 C 817.195 -4.16654 -3.14955 0
M  V30 8897 H 818.889 -2.54574 -1.57582 0
M  V30 8898 H 816.435 -1.22516 -0.756686 0
M  V30 8899 H 818.388 -1.69334 -3.85881 0
M  V30 8900 H 817.112 -0.637714 -3.20314 0
M  V30 8901 H 815.771 -2.65908 -2.52366 0
M  V30 8902 H 815.419 -1.60861 -4.76585 0
M  V30 8903 H 815.119 -3.36386 -4.81786 0
M  V30 8904 H 816.643 -2.70265 -5.4753 0
M  V30 8905 H 818.057 -4.26721 -3.82861 0
M  V30 8906 H 816.454 -4.93831 -3.40956 0
M  V30 8907 H 817.524 -4.36146 -2.11908 0
M  V30 8908 N 818.867 0.818669 -1.34668 0
M  V30 8909 C 820.113 1.57746 -1.27453 0
M  V30 8910 C 820.446 1.93588 0.154077 0
M  V30 8911 O 819.721 1.60371 1.10051 0
M  V30 8912 C 820.004 2.87414 -2.16945 0
M  V30 8913 C 819.857 2.58125 -3.68363 0
M  V30 8914 C 821.176 3.89021 -2.05792 0
M  V30 8915 H 818.295 0.572339 -0.464324 0
M  V30 8916 H 820.937 0.942784 -1.64959 0
M  V30 8917 H 819.087 3.41576 -1.85089 0
M  V30 8918 H 820.759 2.10239 -4.10606 0
M  V30 8919 H 819.002 1.91503 -3.89242 0
M  V30 8920 H 819.673 3.5061 -4.26353 0
M  V30 8921 H 822.149 3.44224 -2.33771 0
M  V30 8922 H 821.025 4.77548 -2.70628 0
M  V30 8923 H 821.286 4.29786 -1.03618 0
M  V30 8924 N 820.346 1.18468 1.03938 0
M  V30 8925 C 821.293 0.912859 2.1198 0
M  V30 8926 C 822.263 -0.14824 1.65437 0
M  V30 8927 O 823.448 -0.008331 1.90798 0
M  V30 8928 C 820.588 0.446114 3.42204 0
M  V30 8929 C 819.701 1.57278 4.02353 0
M  V30 8930 C 818.836 1.05863 5.20544 0
M  V30 8931 C 817.875 2.1599 5.72726 0
M  V30 8932 N 817.012 1.65959 6.82204 0
M  V30 8933 H 821.852 1.83798 2.34569 0
M  V30 8934 H 819.389 0.916504 1.15059 0
M  V30 8935 H 821.347 0.15697 4.16905 0
M  V30 8936 H 819.977 -0.442025 3.19759 0
M  V30 8937 H 819.029 1.97737 3.24968 0
M  V30 8938 H 820.341 2.40289 4.37107 0
M  V30 8939 H 819.495 0.724087 6.02364 0
M  V30 8940 H 818.234 0.198116 4.87297 0
M  V30 8941 H 817.239 2.50287 4.89527 0
M  V30 8942 H 818.464 3.02479 6.08016 0
M  V30 8943 H 816.41 0.82199 6.5083 0
M  V30 8944 H 816.327 2.42567 7.16029 0
M  V30 8945 H 817.595 1.35436 7.67644 0
M  V30 8946 N 821.824 -1.22873 0.986916 0
M  V30 8947 C 822.754 -2.2688 0.552064 0
M  V30 8948 C 823.735 -1.64883 -0.418048 0
M  V30 8949 O 824.92 -1.9171 -0.30999 0
M  V30 8950 C 822.05 -3.47018 -0.139959 0
M  V30 8951 C 821.004 -4.21411 0.748091 0
M  V30 8952 C 820.33 -5.34645 -0.0765132 0
M  V30 8953 C 821.63 -4.80726 2.04206 0
M  V30 8954 H 823.324 -2.63507 1.42143 0
M  V30 8955 H 820.87 -1.26668 0.68492 0
M  V30 8956 H 822.823 -4.18931 -0.455527 0
M  V30 8957 H 821.547 -3.0947 -1.04382 0
M  V30 8958 H 820.206 -3.51325 1.04721 0
M  V30 8959 H 819.854 -4.93339 -0.981109 0
M  V30 8960 H 819.554 -5.85342 0.514606 0
M  V30 8961 H 821.078 -6.09377 -0.386313 0
M  V30 8962 H 822.492 -5.44612 1.79083 0
M  V30 8963 H 820.889 -5.41737 2.5815 0
M  V30 8964 H 821.959 -4.01109 2.72469 0
M  V30 8965 N 823.302 -0.75937 -1.38099 0
M  V30 8966 C 824.249 -0.135508 -2.30402 0
M  V30 8967 C 825.219 0.703356 -1.50473 0
M  V30 8968 O 826.404 0.658287 -1.79084 0
M  V30 8969 C 823.544 0.747228 -3.36913 0
M  V30 8970 C 822.657 -0.106893 -4.31868 0
M  V30 8971 C 821.792 0.779388 -5.25451 0
M  V30 8972 C 820.831 -0.0780179 -6.1205 0
M  V30 8973 N 819.968 0.765545 -6.97914 0
M  V30 8974 H 824.808 -0.9282 -2.83176 0
M  V30 8975 H 822.345 -0.46935 -1.39411 0
M  V30 8976 H 824.303 1.27371 -3.97281 0
M  V30 8977 H 822.933 1.50565 -2.85535 0
M  V30 8978 H 821.985 -0.751063 -3.72912 0
M  V30 8979 H 823.297 -0.768798 -4.9284 0
M  V30 8980 H 822.451 1.37282 -5.90964 0
M  V30 8981 H 821.19 1.47501 -4.6486 0
M  V30 8982 H 820.195 -0.684078 -5.45528 0
M  V30 8983 H 821.42 -0.770786 -6.74712 0
M  V30 8984 H 819.366 1.44601 -6.39864 0
M  V30 8985 H 819.283 0.160666 -7.55829 0
M  V30 8986 H 820.551 1.34377 -7.6783 0
M  V30 8987 N 824.78 1.49157 -0.508906 0
M  V30 8988 C 825.73 2.26215 0.284705 0
M  V30 8989 C 826.714 1.31401 0.928586 0
M  V30 8990 O 827.906 1.56073 0.834877 0
M  V30 8991 C 825.035 3.15906 1.34382 0
M  V30 8992 C 824.121 4.18186 0.705785 0
M  V30 8993 N 824.512 5.05419 -0.196214 0
M  V30 8994 C 822.81 4.35425 0.965457 0
M  V30 8995 C 823.511 5.78977 -0.562222 0
M  V30 8996 N 822.487 5.43553 0.0717389 0
M  V30 8997 H 826.289 2.91033 -0.409543 0
M  V30 8998 H 823.803 1.59104 -0.325508 0
M  V30 8999 H 825.8 3.6975 1.92589 0
M  V30 9000 H 824.46 2.52642 2.03966 0
M  V30 9001 H 825.471 5.14781 -0.567526 0
M  V30 9002 H 822.148 3.83363 1.65346 0
M  V30 9003 H 823.538 6.59192 -1.30062 0
M  V30 9004 N 826.258 0.243083 1.55714 0
M  V30 9005 C 827.168 -0.668913 2.24862 0
M  V30 9006 C 828.184 -1.19638 1.26344 0
M  V30 9007 O 829.36 -1.23345 1.5921 0
M  V30 9008 C 826.425 -1.85084 2.93163 0
M  V30 9009 C 825.486 -1.36323 4.07081 0
M  V30 9010 C 824.719 -2.48882 4.72116 0
M  V30 9011 O 824.942 -3.67523 4.36214 0
M  V30 9012 O 823.876 -2.18857 5.60701 0
M  V30 9013 H 827.702 -0.109737 3.03502 0
M  V30 9014 H 825.287 0.0117411 1.49395 0
M  V30 9015 H 827.169 -2.54065 3.36197 0
M  V30 9016 H 825.844 -2.39771 2.17466 0
M  V30 9017 H 824.751 -0.640804 3.68571 0
M  V30 9018 H 826.084 -0.86249 4.84584 0
M  V30 9019 N 827.736 -1.57571 -0.0300757 0
M  V30 9020 C 828.666 -2.0953 -1.03051 0
M  V30 9021 C 829.647 -0.99761 -1.37774 0
M  V30 9022 O 830.832 -1.27279 -1.46676 0
M  V30 9023 C 827.962 -2.57385 -2.33174 0
M  V30 9024 C 826.916 -3.71409 -2.12696 0
M  V30 9025 C 826.242 -4.05467 -3.4857 0
M  V30 9026 C 827.542 -4.99877 -1.51396 0
M  V30 9027 H 829.236 -2.93367 -0.597999 0
M  V30 9028 H 826.782 -1.41127 -0.286203 0
M  V30 9029 H 828.735 -2.92355 -3.03491 0
M  V30 9030 H 827.459 -1.70629 -2.78484 0
M  V30 9031 H 826.118 -3.36786 -1.44813 0
M  V30 9032 H 825.766 -3.15779 -3.91526 0
M  V30 9033 H 825.466 -4.82269 -3.35694 0
M  V30 9034 H 826.99 -4.4297 -4.2025 0
M  V30 9035 H 828.404 -5.3281 -2.11629 0
M  V30 9036 H 826.801 -5.81283 -1.49098 0
M  V30 9037 H 827.871 -4.82522 -0.479676 0
M  V30 9038 N 829.214 0.302327 -1.54673 0
M  V30 9039 C 830.442 1.05669 -1.77881 0
M  V30 9040 C 830.857 1.80983 -0.537648 0
M  V30 9041 O 830.214 1.7573 0.492467 0
M  V30 9042 C 830.265 2.03828 -2.98557 0
M  V30 9043 O 829.986 1.3157 -4.17877 0
M  V30 9044 C 831.487 2.91314 -3.34143 0
M  V30 9045 H 828.707 0.313436 -0.593295 0
M  V30 9046 H 831.251 0.342003 -2.0162 0
M  V30 9047 H 829.406 2.70801 -2.7703 0
M  V30 9048 H 829.82 1.97481 -4.85903 0
M  V30 9049 H 831.294 3.56042 -4.21827 0
M  V30 9050 H 831.771 3.59544 -2.52239 0
M  V30 9051 H 832.377 2.29874 -3.57824 0
M  V30 9052 N 830.692 1.47107 0.565454 0
M  V30 9053 C 831.969 1.43787 1.32607 0
M  V30 9054 C 832.349 0.130428 2.10697 0
M  V30 9055 O 831.697 -0.888086 2.10536 0
M  V30 9056 C 831.907 2.67833 2.23755 0
M  V30 9057 C 833.255 3.14704 2.85037 0
M  V30 9058 O 834.279 2.68503 2.34061 0
M  V30 9059 O 833.138 3.95002 3.77671 0
M  V30 9060 H 830.232 0.572623 0.596684 0
M  V30 9061 H 832.778 1.59296 0.58504 0
M  V30 9062 H 831.55 3.54532 1.65597 0
M  V30 9063 H 831.173 2.54869 3.05168 0
M  V30 9064 N 832.17 -0.811516 1.35101 0
M  V30 9065 C 833.08 -1.95475 1.29718 0
M  V30 9066 C 834.096 -1.72813 0.202909 0
M  V30 9067 O 835.272 -1.96725 0.431414 0
M  V30 9068 C 832.337 -3.29975 1.06385 0
M  V30 9069 C 831.398 -3.65566 2.25077 0
M  V30 9070 C 830.631 -4.93648 2.02848 0
M  V30 9071 O 830.854 -5.617 0.992442 0
M  V30 9072 O 829.788 -5.27384 2.90087 0
M  V30 9073 H 833.614 -2.02961 2.25921 0
M  V30 9074 H 831.199 -0.948583 1.15422 0
M  V30 9075 H 833.081 -4.10506 0.951999 0
M  V30 9076 H 831.756 -3.2343 0.132294 0
M  V30 9077 H 830.663 -2.85432 2.41825 0
M  V30 9078 H 831.996 -3.7681 3.16662 0
M  V30 9079 N 833.648 -1.19017 -1.03309 0
M  V30 9080 C 834.558 -0.939303 -2.14975 0
M  V30 9081 C 835.574 0.0992359 -1.73717 0
M  V30 9082 O 836.75 -0.0844362 -2.01223 0
M  V30 9083 C 833.815 -0.476712 -3.43407 0
M  V30 9084 C 832.876 -1.58413 -3.99003 0
M  V30 9085 C 832.109 -1.14352 -5.21305 0
M  V30 9086 O 832.332 -0.00534408 -5.704 0
M  V30 9087 O 831.266 -1.94436 -5.6963 0
M  V30 9088 H 835.092 -1.87386 -2.38998 0
M  V30 9089 H 832.677 -0.972635 -1.13403 0
M  V30 9090 H 834.559 -0.22718 -4.20787 0
M  V30 9091 H 833.234 0.429455 -3.20839 0
M  V30 9092 H 832.141 -1.88777 -3.22977 0
M  V30 9093 H 833.474 -2.4667 -4.25928 0
M  V30 9094 N 835.127 1.22348 -0.993418 0
M  V30 9095 C 836.057 2.26584 -0.564088 0
M  V30 9096 C 837.038 1.65102 0.409298 0
M  V30 9097 O 838.223 1.91872 0.299819 0
M  V30 9098 C 835.353 3.47087 0.121554 0
M  V30 9099 C 834.307 4.21009 -0.770429 0
M  V30 9100 C 833.633 5.34678 0.0481586 0
M  V30 9101 C 834.933 4.79636 -2.06752 0
M  V30 9102 H 836.627 2.62749 -1.43538 0
M  V30 9103 H 834.173 1.26303 -0.691628 0
M  V30 9104 H 836.126 4.19166 0.433303 0
M  V30 9105 H 834.85 3.1002 1.0274 0
M  V30 9106 H 833.509 3.50764 -1.06583 0
M  V30 9107 H 833.157 4.93852 0.954933 0
M  V30 9108 H 832.857 5.85061 -0.545641 0
M  V30 9109 H 834.381 6.09573 0.353991 0
M  V30 9110 H 835.795 5.43654 -1.81969 0
M  V30 9111 H 834.192 5.4036 -2.61019 0
M  V30 9112 H 835.262 3.99659 -2.74592 0
M  V30 9113 N 836.605 0.766683 1.37694 0
M  V30 9114 C 837.537 0.107798 2.28946 0
M  V30 9115 C 838.55 -0.669701 1.48387 0
M  V30 9116 O 839.739 -0.508629 1.711 0
M  V30 9117 C 836.839 -0.871084 3.27514 0
M  V30 9118 C 836.012 -0.148471 4.37148 0
M  V30 9119 C 835.071 -1.03998 5.1582 0
M  V30 9120 O 834.097 -0.505639 5.6695 0
M  V30 9121 N 835.299 -2.36679 5.3006 0
M  V30 9122 H 838.064 0.89154 2.86132 0
M  V30 9123 H 835.625 0.618593 1.49616 0
M  V30 9124 H 837.617 -1.47081 3.77027 0
M  V30 9125 H 836.187 -1.55582 2.71133 0
M  V30 9126 H 835.407 0.632117 3.89099 0
M  V30 9127 H 836.695 0.351045 5.07588 0
M  V30 9128 H 836.093 -2.82532 4.90094 0
M  V30 9129 H 834.65 -2.9167 5.82899 0
M  V30 9130 N 838.083 -1.48885 0.516809 0
M  V30 9131 C 839.308 -2.0739 -0.0205201 0
M  V30 9132 C 839.733 -1.37259 -1.28614 0
M  V30 9133 O 839.091 -0.434304 -1.76021 0
M  V30 9134 C 839.139 -3.59793 -0.24104 0
M  V30 9135 O 838.243 -3.90957 -1.31251 0
M  V30 9136 H 837.584 -0.663167 0.0332564 0
M  V30 9137 H 840.114 -1.91477 0.720956 0
M  V30 9138 H 840.124 -4.0531 -0.467737 0
M  V30 9139 H 838.799 -4.10244 0.68356 0
M  V30 9140 H 837.376 -3.57234 -1.06951 0
M  V30 9141 N 839.561 -0.251338 -1.55583 0
M  V30 9142 C 840.491 0.640437 -2.24545 0
M  V30 9143 C 841.472 1.17781 -1.22726 0
M  V30 9144 O 842.657 1.21633 -1.5139 0
M  V30 9145 C 839.787 1.8355 -2.94834 0
M  V30 9146 C 838.741 1.4307 -4.03379 0
M  V30 9147 C 838.067 2.70695 -4.61116 0
M  V30 9148 C 839.367 0.59848 -5.1886 0
M  V30 9149 H 841.061 0.0653772 -2.99329 0
M  V30 9150 H 838.607 0.0300042 -1.43969 0
M  V30 9151 H 840.56 2.46505 -3.4178 0
M  V30 9152 H 839.284 2.43601 -2.17546 0
M  V30 9153 H 837.943 0.824474 -3.57209 0
M  V30 9154 H 837.591 3.28954 -3.80524 0
M  V30 9155 H 837.291 2.44332 -5.34393 0
M  V30 9156 H 838.815 3.34541 -5.10798 0
M  V30 9157 H 840.229 1.13244 -5.62004 0
M  V30 9158 H 838.626 0.430728 -5.98552 0
M  V30 9159 H 839.696 -0.38829 -4.83343 0
M  V30 9160 N 841.039 1.57585 0.0217189 0
M  V30 9161 C 842.286 1.89606 0.711045 0
M  V30 9162 C 842.614 0.849535 1.74966 0
M  V30 9163 O 841.869 -0.14856 1.95135 0
M  V30 9164 C 842.168 3.28377 1.41079 0
M  V30 9165 C 841.834 4.48035 0.507454 0
M  V30 9166 C 840.496 4.80504 0.258672 0
M  V30 9167 C 842.848 5.21071 -0.115793 0
M  V30 9168 C 840.176 5.83393 -0.622013 0
M  V30 9169 C 842.528 6.24897 -0.984224 0
M  V30 9170 C 841.192 6.55836 -1.2424 0
M  V30 9171 H 840.462 0.693817 0.26019 0
M  V30 9172 H 843.109 1.91478 -0.0291424 0
M  V30 9173 H 841.414 3.22528 2.22448 0
M  V30 9174 H 843.111 3.50404 1.94982 0
M  V30 9175 H 839.701 4.22653 0.711516 0
M  V30 9176 H 843.885 4.96259 0.0634327 0
M  V30 9177 H 839.141 6.05736 -0.830267 0
M  V30 9178 H 843.315 6.8063 -1.47363 0
M  V30 9179 H 840.942 7.35383 -1.92653 0
M  V30 9180 N 842.517 -0.29412 1.54831 0
M  V30 9181 C 843.745 -1.04724 1.78439 0
M  V30 9182 C 844.16 -1.80695 0.547239 0
M  V30 9183 O 843.517 -1.75989 -0.483141 0
M  V30 9184 C 843.568 -2.02242 2.99634 0
M  V30 9185 O 843.289 -1.29352 4.18568 0
M  V30 9186 C 844.79 -2.89537 3.35683 0
M  V30 9187 H 842.01 -0.310285 0.594949 0
M  V30 9188 H 844.554 -0.331306 2.01798 0
M  V30 9189 H 842.709 -2.69328 2.78462 0
M  V30 9190 H 843.123 -1.94901 4.86943 0
M  V30 9191 H 844.597 -3.538 4.23709 0
M  V30 9192 H 845.074 -3.58201 2.54143 0
M  V30 9193 H 845.68 -2.27973 3.59038 0
M  V30 9194 N 843.995 -1.47404 -0.557645 0
M  V30 9195 C 844.943 -1.60265 -1.68576 0
M  V30 9196 C 845.937 -0.469982 -1.6275 0
M  V30 9197 O 847.143 -0.647764 -1.67941 0
M  V30 9198 H 843.518 -0.504353 -0.557792 0
M  V30 9199 H 845.489 -2.55066 -1.54867 0
M  V30 9200 C 844.238 -1.63369 -3.0693 0
M  V30 9201 H 843.561 -2.49874 -3.12095 0
M  V30 9202 H 845.001 -1.76417 -3.85556 0
M  V30 9203 C 843.46 -0.366921 -3.34896 0
M  V30 9204 O 843.99 0.53218 -3.98159 0
M  V30 9205 N 842.196 -0.247082 -2.89548 0
M  V30 9206 H 841.743 -0.979669 -2.38244 0
M  V30 9207 H 841.701 0.599552 -3.0863 0
M  V30 9208 N 845.473 0.80434 -1.35529 0
M  V30 9209 C 846.72 1.56154 -1.28927 0
M  V30 9210 C 847.048 1.94026 0.135682 0
M  V30 9211 O 846.303 1.61759 1.10148 0
M  V30 9212 C 846.602 2.85988 -2.14349 0
M  V30 9213 C 846.268 2.67323 -3.6311 0
M  V30 9214 C 844.93 2.61941 -4.03659 0
M  V30 9215 C 847.282 2.49699 -4.57493 0
M  V30 9216 C 844.61 2.3688 -5.36754 0
M  V30 9217 C 846.962 2.26168 -5.90788 0
M  V30 9218 C 845.626 2.19209 -6.30479 0
M  V30 9219 H 844.896 0.571407 -0.471779 0
M  V30 9220 H 847.543 0.929193 -1.67446 0
M  V30 9221 H 845.848 3.53612 -1.68718 0
M  V30 9222 H 847.545 3.43697 -2.06576 0
M  V30 9223 H 844.135 2.72361 -3.30934 0
M  V30 9224 H 848.319 2.52869 -4.27049 0
M  V30 9225 H 843.575 2.29964 -5.66504 0
M  V30 9226 H 847.749 2.11522 -6.63499 0
M  V30 9227 H 845.376 1.99553 -7.33541 0
M  V30 9228 N 846.951 1.19563 1.02676 0
M  V30 9229 C 847.914 0.937182 2.09164 0
M  V30 9230 C 848.914 -0.0831927 1.60585 0
M  V30 9231 O 850.104 0.15178 1.73538 0
M  V30 9232 C 847.236 0.408912 3.38439 0
M  V30 9233 H 848.429 1.88164 2.33526 0
M  V30 9234 H 845.982 1.00959 1.19319 0
M  V30 9235 H 846.717 -0.541497 3.19747 0
M  V30 9236 H 846.502 1.14464 3.7502 0
M  V30 9237 H 847.992 0.247242 4.16867 0
M  V30 9238 N 848.429 -1.21819 0.999893 0
M  V30 9239 C 849.377 -2.26027 0.549047 0
M  V30 9240 C 850.371 -1.64516 -0.403826 0
M  V30 9241 O 851.577 -1.77878 -0.275578 0
M  V30 9242 H 847.952 -0.734958 0.159185 0
M  V30 9243 H 849.923 -2.61398 1.43923 0
M  V30 9244 C 848.672 -3.47514 -0.11369 0
M  V30 9245 H 847.995 -3.95112 0.610482 0
M  V30 9246 H 849.435 -4.22179 -0.3925 0
M  V30 9247 C 847.894 -3.08614 -1.35126 0
M  V30 9248 O 848.424 -3.1864 -2.44605 0
M  V30 9249 N 846.63 -2.63327 -1.22911 0
M  V30 9250 H 846.177 -2.55369 -0.338288 0
M  V30 9251 H 846.135 -2.37668 -2.05818 0
M  V30 9252 N 849.908 -0.773975 -1.37286 0
M  V30 9253 C 851.154 -0.339809 -1.99933 0
M  V30 9254 C 851.487 1.0815 -1.61299 0
M  V30 9255 O 850.762 1.74442 -0.860252 0
M  V30 9256 C 851.045 -0.485919 -3.56806 0
M  V30 9257 C 850.898 -1.9498 -4.05343 0
M  V30 9258 C 852.217 0.108461 -4.39966 0
M  V30 9259 H 849.336 -0.124944 -0.726332 0
M  V30 9260 H 851.978 -0.977433 -1.6293 0
M  V30 9261 H 850.128 0.0569023 -3.88458 0
M  V30 9262 H 851.8 -2.5525 -3.84246 0
M  V30 9263 H 850.043 -2.45784 -3.57453 0
M  V30 9264 H 850.714 -2.00308 -5.14374 0
M  V30 9265 H 853.19 -0.354722 -4.14585 0
M  V30 9266 H 852.066 -0.0238926 -5.48895 0
M  V30 9267 H 852.327 1.19901 -4.25531 0
M  V30 9268 N 851.386 1.48609 -0.524698 0
M  V30 9269 C 852.632 2.02797 0.0113382 0
M  V30 9270 C 852.965 1.40147 1.34433 0
M  V30 9271 O 852.24 0.545368 1.86698 0
M  V30 9272 C 852.523 3.59832 0.138931 0
M  V30 9273 C 852.376 4.32971 -1.21886 0
M  V30 9274 C 853.695 4.3145 0.868265 0
M  V30 9275 H 850.814 0.736995 0.00264645 0
M  V30 9276 H 853.456 1.77388 -0.680704 0
M  V30 9277 H 851.606 3.81612 0.72834 0
M  V30 9278 H 853.278 4.22624 -1.84897 0
M  V30 9279 H 851.521 3.94597 -1.80211 0
M  V30 9280 H 852.192 5.41279 -1.08263 0
M  V30 9281 H 854.668 4.14468 0.368145 0
M  V30 9282 H 853.544 5.41025 0.926428 0
M  V30 9283 H 853.805 3.98358 1.91737 0
M  V30 9284 N 852.864 0.259585 1.55447 0
M  V30 9285 C 854.141 -0.412595 1.91199 0
M  V30 9286 C 854.521 -1.74909 1.18194 0
M  V30 9287 O 853.869 -2.26474 0.303603 0
M  V30 9288 C 854.079 -0.568195 3.44344 0
M  V30 9289 C 855.427 -0.858253 4.15836 0
M  V30 9290 O 856.451 -0.653588 3.50152 0
M  V30 9291 O 855.31 -1.24874 5.32042 0
M  V30 9292 H 852.404 -0.223403 0.796254 0
M  V30 9293 H 854.95 0.30459 1.66944 0
M  V30 9294 H 853.722 0.372989 3.89518 0
M  V30 9295 H 853.345 -1.33544 3.74502 0
M  V30 9296 N 854.342 -1.57594 -0.0133615 0
M  V30 9297 C 855.289 -2.07574 -1.00905 0
M  V30 9298 C 856.259 -0.968231 -1.34961 0
M  V30 9299 O 857.444 -1.23981 -1.45028 0
M  V30 9300 C 854.584 -2.5728 -2.30002 0
M  V30 9301 C 853.697 -3.81881 -2.01967 0
M  V30 9302 C 852.832 -4.20139 -3.25049 0
M  V30 9303 C 851.871 -5.37614 -2.92639 0
M  V30 9304 N 851.008 -5.71229 -4.08218 0
M  V30 9305 H 855.848 -2.92382 -0.575899 0
M  V30 9306 H 853.385 -1.4455 -0.272722 0
M  V30 9307 H 855.343 -2.84171 -3.05454 0
M  V30 9308 H 853.973 -1.75365 -2.71011 0
M  V30 9309 H 853.025 -3.61979 -1.16942 0
M  V30 9310 H 854.337 -4.67441 -1.74069 0
M  V30 9311 H 853.491 -4.48242 -4.08857 0
M  V30 9312 H 852.23 -3.33262 -3.56073 0
M  V30 9313 H 851.235 -5.09248 -2.07235 0
M  V30 9314 H 852.46 -6.26157 -2.62876 0
M  V30 9315 H 850.406 -4.8731 -4.39164 0
M  V30 9316 H 850.323 -6.51333 -3.83799 0
M  V30 9317 H 851.591 -6.03917 -4.92854 0
M  V30 9318 N 855.82 0.285905 -1.54985 0
M  V30 9319 C 857.06 1.02699 -1.76726 0
M  V30 9320 C 857.424 1.83962 -0.549717 0
M  V30 9321 O 858.625 2.60943 -0.645142 0
M  V30 9322 C 856.896 1.89671 -3.02919 0
M  V30 9323 S 858.455 2.7022 -3.45726 0
M  V30 9324 H 855.273 0.346114 -0.621068 0
M  V30 9325 H 857.875 0.298764 -1.93204 0
M  V30 9326 H 856.579 1.28873 -3.89641 0
M  V30 9327 H 856.11 2.66836 -2.89071 0
M  V30 9328 H 858.125 3.92184 -3.03983 0
M  V30 9329 N 857.298 1.47698 0.54982 0
M  V30 9330 C 858.538 1.56286 1.31735 0
M  V30 9331 C 858.902 0.223042 1.907 0
M  V30 9332 O 860.103 0.183798 2.68171 0
M  V30 9333 C 858.374 2.65522 2.39234 0
M  V30 9334 S 859.933 2.93742 3.25977 0
M  V30 9335 H 856.751 0.551795 0.448378 0
M  V30 9336 H 859.353 1.85118 0.628629 0
M  V30 9337 H 858.057 3.61457 1.94362 0
M  V30 9338 H 857.588 2.38528 3.12838 0
M  V30 9339 H 859.603 2.31522 4.38876 0
M  V30 9340 N 858.776 -0.797141 1.35954 0
M  V30 9341 C 859.723 -1.90944 1.2965 0
M  V30 9342 C 860.693 -1.65262 0.166628 0
M  V30 9343 O 861.878 -1.87527 0.351883 0
M  V30 9344 C 859.018 -3.27637 1.08389 0
M  V30 9345 C 858.131 -3.65442 2.30382 0
M  V30 9346 C 857.266 -4.91213 2.02195 0
M  V30 9347 C 856.305 -5.21674 3.20191 0
M  V30 9348 N 855.442 -6.38627 2.91719 0
M  V30 9349 H 860.282 -1.95668 2.24762 0
M  V30 9350 H 857.819 -0.95696 1.11717 0
M  V30 9351 H 859.777 -4.06451 0.940912 0
M  V30 9352 H 858.407 -3.22355 0.169351 0
M  V30 9353 H 857.459 -2.81813 2.55511 0
M  V30 9354 H 858.771 -3.83907 3.18461 0
M  V30 9355 H 857.925 -5.77876 1.84783 0
M  V30 9356 H 856.664 -4.74803 1.11416 0
M  V30 9357 H 855.669 -4.33498 3.38171 0
M  V30 9358 H 856.894 -5.40009 4.11786 0
M  V30 9359 H 854.84 -6.23623 2.03543 0
M  V30 9360 H 854.757 -6.57387 3.73334 0
M  V30 9361 H 856.025 -7.28292 2.77868 0
M  V30 9362 N 860.254 -1.20106 -1.0204 0
M  V30 9363 C 861.217 -0.948261 -2.08664 0
M  V30 9364 C 862.217 0.0746753 -1.60627 0
M  V30 9365 O 863.407 -0.160981 -1.73455 0
M  V30 9366 C 860.539 -0.426854 -3.38217 0
M  V30 9367 H 861.732 -1.894 -2.32524 0
M  V30 9368 H 859.285 -1.0159 -1.18782 0
M  V30 9369 H 860.02 0.524532 -3.2003 0
M  V30 9370 H 859.805 -1.16451 -3.74408 0
M  V30 9371 H 861.295 -0.269346 -4.1673 0
M  V30 9372 N 861.732 1.21287 -1.00634 0
M  V30 9373 C 862.642 2.27388 -0.577226 0
M  V30 9374 C 863.658 1.69791 0.380399 0
M  V30 9375 O 864.834 1.99918 0.2439 0
M  V30 9376 C 861.899 3.46588 0.0880532 0
M  V30 9377 C 860.96 4.19453 -0.914222 0
M  V30 9378 C 860.193 5.32962 -0.280596 0
M  V30 9379 O 860.416 5.62895 0.922265 0
M  V30 9380 O 859.35 5.93666 -0.992196 0
M  V30 9381 H 863.176 2.66289 -1.46028 0
M  V30 9382 H 860.761 1.2771 -0.775283 0
M  V30 9383 H 862.643 4.18881 0.460094 0
M  V30 9384 H 861.318 3.09585 0.945461 0
M  V30 9385 H 860.225 3.49376 -1.33744 0
M  V30 9386 H 861.558 4.6037 -1.74126 0
M  V30 9387 N 863.21 0.781244 1.36873 0
M  V30 9388 C 864.435 0.360398 2.04245 0
M  V30 9389 C 864.86 -1.01242 1.58529 0
M  V30 9390 O 864.218 -1.65063 0.749936 0
M  V30 9391 C 864.266 0.42329 3.58107 0
M  V30 9392 O 863.37 -0.572796 4.08403 0
M  V30 9393 H 862.711 0.154386 0.645803 0
M  V30 9394 H 865.241 1.06008 1.74996 0
M  V30 9395 H 865.251 0.283967 4.07011 0
M  V30 9396 H 863.926 1.42477 3.90734 0
M  V30 9397 H 862.503 -0.395809 3.70793 0
M  V30 9398 N 864.689 -1.48329 0.532571 0
M  V30 9399 C 866.1 -1.86469 0.0927749 0
M  V30 9400 C 866.451 -1.44186 -1.3306 0
M  V30 9401 O 865.576 -0.833741 -1.99694 0
M  V30 9402 C 866.171 -3.38414 0.161588 0
M  V30 9403 C 864.73 -3.75739 -0.223028 0
M  V30 9404 C 863.877 -2.72377 0.520199 0
M  V30 9405 H 866.828 -1.40197 0.743678 0
M  V30 9406 H 866.849 -3.75314 -0.626059 0
M  V30 9407 H 866.361 -3.69159 1.19765 0
M  V30 9408 H 864.462 -3.50608 -1.26113 0
M  V30 9409 H 864.575 -4.78954 0.118385 0
M  V30 9410 H 862.939 -2.54678 -0.0338425 0
M  V30 9411 H 863.722 -3.05965 1.55694 0
M  V30 9412 N 866.167 -0.267825 -1.55308 0
M  V30 9413 C 867.077 0.633055 -2.25897 0
M  V30 9414 C 868.093 1.17613 -1.28231 0
M  V30 9415 O 869.269 1.20797 -1.61153 0
M  V30 9416 C 866.334 1.80397 -2.96071 0
M  V30 9417 C 865.395 1.29829 -4.09198 0
M  V30 9418 C 864.628 2.4134 -4.76016 0
M  V30 9419 O 864.851 3.60537 -4.42006 0
M  V30 9420 O 863.785 2.09909 -5.64111 0
M  V30 9421 H 867.611 0.0614381 -3.03638 0
M  V30 9422 H 865.196 -0.0355072 -1.49358 0
M  V30 9423 H 867.078 2.48685 -3.40197 0
M  V30 9424 H 865.753 2.36281 -2.21253 0
M  V30 9425 H 864.66 0.582086 -3.69544 0
M  V30 9426 H 865.993 0.785288 -4.85895 0
M  V30 9427 N 867.645 1.57599 0.00500368 0
M  V30 9428 C 868.891 1.90631 0.691919 0
M  V30 9429 C 869.224 0.868443 1.737 0
M  V30 9430 O 868.499 -0.113482 1.94169 0
M  V30 9431 C 868.782 3.34255 1.33961 0
M  V30 9432 C 868.635 4.48755 0.306413 0
M  V30 9433 C 869.954 3.77211 2.26715 0
M  V30 9434 H 867.073 0.693279 0.250066 0
M  V30 9435 H 869.715 1.89946 -0.0452634 0
M  V30 9436 H 867.865 3.3497 1.96793 0
M  V30 9437 H 869.537 4.60176 -0.321841 0
M  V30 9438 H 867.78 4.32203 -0.371852 0
M  V30 9439 H 868.451 5.46193 0.798554 0
M  V30 9440 H 870.927 3.78017 1.73904 0
M  V30 9441 H 869.803 4.78466 2.69002 0
M  V30 9442 H 870.064 3.10801 3.14413 0
M  V30 9443 N 869.123 -0.277682 1.55134 0
M  V30 9444 C 870.363 -1.01761 1.77269 0
M  V30 9445 C 870.727 -1.83668 0.559465 0
M  V30 9446 O 871.928 -2.60597 0.658972 0
M  V30 9447 C 870.199 -1.88062 3.0392 0
M  V30 9448 S 871.758 -2.68383 3.47154 0
M  V30 9449 H 868.576 -0.342816 0.622895 0
M  V30 9450 H 871.178 -0.288514 1.93359 0
M  V30 9451 H 869.882 -1.26805 3.90319 0
M  V30 9452 H 869.413 -2.65299 2.90482 0
M  V30 9453 H 871.428 -3.90567 3.06059 0
M  V30 9454 N 870.601 -1.47988 -0.541979 0
M  V30 9455 C 871.848 -1.55393 -1.29843 0
M  V30 9456 C 872.176 -0.222668 -1.93221 0
M  V30 9457 O 871.431 0.785936 -1.79225 0
M  V30 9458 C 871.73 -2.63189 -2.41798 0
M  V30 9459 C 871.396 -4.05999 -1.96151 0
M  V30 9460 C 870.058 -4.44872 -1.83419 0
M  V30 9461 C 872.41 -4.95545 -1.61507 0
M  V30 9462 C 869.738 -5.71108 -1.34361 0
M  V30 9463 C 872.09 -6.22259 -1.13915 0
M  V30 9464 C 870.754 -6.59998 -0.997911 0
M  V30 9465 H 870.024 -0.568623 -0.47513 0
M  V30 9466 H 872.671 -1.81654 -0.606142 0
M  V30 9467 H 870.976 -2.30743 -3.16647 0
M  V30 9468 H 872.673 -2.66138 -2.99953 0
M  V30 9469 H 869.263 -3.75294 -2.07008 0
M  V30 9470 H 873.447 -4.662 -1.70209 0
M  V30 9471 H 868.703 -5.99083 -1.22103 0
M  V30 9472 H 872.877 -6.91048 -0.861755 0
M  V30 9473 H 870.504 -7.57704 -0.615561 0
M  V30 9474 N 872.079 0.78992 -1.36375 0
M  V30 9475 C 873.027 1.92394 -1.30719 0
M  V30 9476 C 874.021 1.68226 -0.199076 0
M  V30 9477 O 875.227 1.76239 -0.366051 0
M  V30 9478 H 871.602 0.632382 -0.406936 0
M  V30 9479 H 873.573 1.94282 -2.26488 0
M  V30 9480 C 872.322 3.2941 -1.11284 0
M  V30 9481 H 871.645 3.48573 -1.95798 0
M  V30 9482 H 873.085 4.09111 -1.11373 0
M  V30 9483 C 871.544 3.36405 0.182543 0
M  V30 9484 O 872.074 3.84206 1.17255 0
M  V30 9485 N 870.28 2.89712 0.227046 0
M  V30 9486 H 869.827 2.51004 -0.579217 0
M  V30 9487 H 869.785 2.94773 1.09344 0
M  V30 9488 N 873.557 1.20646 1.01402 0
M  V30 9489 C 874.467 0.973385 2.13453 0
M  V30 9490 C 875.483 -0.0715865 1.73853 0
M  V30 9491 O 876.659 0.116438 2.01063 0
M  V30 9492 C 873.724 0.531285 3.42605 0
M  V30 9493 C 872.785 1.64741 3.96433 0
M  V30 9494 C 872.018 1.22631 5.1942 0
M  V30 9495 O 872.241 0.0960891 5.70319 0
M  V30 9496 O 871.175 2.03474 5.66465 0
M  V30 9497 H 875.001 1.91164 2.35987 0
M  V30 9498 H 872.586 0.990553 1.11841 0
M  V30 9499 H 874.468 0.294095 4.20373 0
M  V30 9500 H 873.143 -0.378358 3.21481 0
M  V30 9501 H 872.05 1.93891 3.19933 0
M  V30 9502 H 873.383 2.53415 4.2195 0
M  V30 9503 N 875.035 -1.20752 1.01276 0
M  V30 9504 C 875.945 -2.27079 0.589277 0
M  V30 9505 C 876.961 -1.6999 -0.371389 0
M  V30 9506 O 878.137 -2.00044 -0.233294 0
M  V30 9507 C 875.202 -3.4663 -0.0696715 0
M  V30 9508 C 874.263 -4.18962 0.936454 0
M  V30 9509 C 873.496 -5.32806 0.308856 0
M  V30 9510 O 873.719 -5.63376 -0.8924 0
M  V30 9511 O 872.653 -5.93131 1.02367 0
M  V30 9512 H 876.479 -2.6551 1.47438 0
M  V30 9513 H 874.064 -1.27297 0.782045 0
M  V30 9514 H 875.946 -4.19119 -0.437873 0
M  V30 9515 H 874.621 -3.10082 -0.929029 0
M  V30 9516 H 873.528 -3.48661 1.35595 0
M  V30 9517 H 874.861 -4.59441 1.76565 0
M  V30 9518 N 876.513 -0.788492 -1.36457 0
M  V30 9519 C 877.738 -0.371224 -2.04051 0
M  V30 9520 C 878.163 1.004 -1.59064 0
M  V30 9521 O 877.521 1.64663 -0.758679 0
M  V30 9522 C 877.569 -0.442275 -3.57877 0
M  V30 9523 O 876.673 0.55113 -4.08701 0
M  V30 9524 H 876.014 -0.157808 -0.644975 0
M  V30 9525 H 878.544 -1.06935 -1.74431 0
M  V30 9526 H 878.554 -0.305548 -4.06854 0
M  V30 9527 H 877.229 -1.44547 -3.89973 0
M  V30 9528 H 875.806 0.37614 -3.70998 0
M  V30 9529 N 877.991 1.48044 -0.54043 0
M  V30 9530 C 879.402 1.86418 -0.102662 0
M  V30 9531 C 879.753 1.4489 1.32293 0
M  V30 9532 O 878.878 0.844319 1.99249 0
M  V30 9533 C 879.473 3.38324 -0.179533 0
M  V30 9534 C 878.032 3.75852 0.203098 0
M  V30 9535 C 877.179 2.72097 -0.534637 0
M  V30 9536 H 880.13 1.398 -0.751103 0
M  V30 9537 H 880.151 3.75641 0.606147 0
M  V30 9538 H 879.663 3.68518 -1.21721 0
M  V30 9539 H 877.764 3.51272 1.24252 0
M  V30 9540 H 877.877 4.78884 -0.143784 0
M  V30 9541 H 876.241 2.54692 0.0203358 0
M  V30 9542 H 877.024 3.05135 -1.57314 0
M  V30 9543 N 879.47 0.276058 1.55163 0
M  V30 9544 C 880.417 -0.611006 2.22565 0
M  V30 9545 C 881.387 -1.14902 1.19945 0
M  V30 9546 O 882.572 -1.19815 1.48489 0
M  V30 9547 C 879.712 -1.78885 2.95117 0
M  V30 9548 C 878.825 -1.2846 4.12458 0
M  V30 9549 C 877.96 -2.42432 4.72652 0
M  V30 9550 C 876.999 -1.89015 5.82185 0
M  V30 9551 N 876.136 -2.96463 6.36439 0
M  V30 9552 H 880.976 -0.0295849 2.97985 0
M  V30 9553 H 878.513 -0.00283607 1.471 0
M  V30 9554 H 880.471 -2.48121 3.35398 0
M  V30 9555 H 879.101 -2.34229 2.22119 0
M  V30 9556 H 878.153 -0.485312 3.77292 0
M  V30 9557 H 879.465 -0.853358 4.91446 0
M  V30 9558 H 878.619 -3.19659 5.15658 0
M  V30 9559 H 877.358 -2.88872 3.92943 0
M  V30 9560 H 876.363 -1.10267 5.38629 0
M  V30 9561 H 877.588 -1.43509 6.63763 0
M  V30 9562 H 875.534 -3.42283 5.59623 0
M  V30 9563 H 875.451 -2.57759 7.10701 0
M  V30 9564 H 876.719 -3.73663 6.84103 0
M  V30 9565 N 880.948 -1.576 0.00335426 0
M  V30 9566 C 882.197 -1.89892 -0.680001 0
M  V30 9567 C 882.51 -0.878731 -1.7475 0
M  V30 9568 O 883.716 -1.09199 -2.48572 0
M  V30 9569 C 882.172 -3.37098 -1.26066 0
M  V30 9570 C 881.78 -4.4742 -0.227807 0
M  V30 9571 C 883.524 -3.78495 -1.92202 0
M  V30 9572 C 881.431 -5.85706 -0.81865 0
M  V30 9573 H 880.361 -0.708578 -0.257746 0
M  V30 9574 H 883.012 -1.83387 0.0644472 0
M  V30 9575 H 881.394 -3.38451 -2.05589 0
M  V30 9576 H 882.568 -4.57589 0.54307 0
M  V30 9577 H 880.883 -4.15064 0.333297 0
M  V30 9578 H 883.48 -4.7915 -2.37318 0
M  V30 9579 H 883.823 -3.12187 -2.75399 0
M  V30 9580 H 884.356 -3.79456 -1.19408 0
M  V30 9581 H 881.095 -6.55495 -0.0253787 0
M  V30 9582 H 880.615 -5.79196 -1.55861 0
M  V30 9583 H 882.294 -6.33469 -1.31627 0
M  V30 9584 N 882.426 0.269451 -1.5528 0
M  V30 9585 C 883.674 0.998604 -1.75705 0
M  V30 9586 C 883.995 1.86691 -0.563175 0
M  V30 9587 O 883.265 1.91305 0.421811 0
M  V30 9588 H 881.845 0.371698 -0.647958 0
M  V30 9589 H 884.507 0.292826 -1.92688 0
M  V30 9590 H 883.603 1.63348 -2.6594 0
M  V30 9591 N 883.904 1.48273 0.534124 0
M  V30 9592 C 884.852 1.62926 1.66005 0
M  V30 9593 C 885.846 0.495814 1.61982 0
M  V30 9594 O 887.052 0.6744 1.66889 0
M  V30 9595 H 883.427 0.513163 0.549698 0
M  V30 9596 H 885.398 2.57498 1.50789 0
M  V30 9597 C 884.147 1.68231 3.04292 0
M  V30 9598 H 883.47 2.54807 3.0808 0
M  V30 9599 H 884.91 1.82528 3.827 0
M  V30 9600 C 883.369 0.420154 3.3427 0
M  V30 9601 O 883.899 -0.468769 3.98955 0
M  V30 9602 N 882.105 0.293115 2.89118 0
M  V30 9603 H 881.652 1.01745 2.36655 0
M  V30 9604 H 881.61 -0.550376 3.09545 0
M  V30 9605 O 885.421 -0.679058 1.4653 0
M  V30 9606 H 886.112 -1.33158 1.40672 0
M  V30 END ATOM
M  V30 BEGIN BOND
M  V30 END BOND
M  V30 END CTAB
M  END
$$$$
