drugbank_target|P43683 Lantibiotic mersacidin (DB01968; DB02688; DB04454)
 OpenBabel12092120233D

981989  0  0  0  0  0  0  0  0999 V2000
   -0.9080    1.9825   -0.1171 H   0  0  0  0  0 15  0  0  0  0  0  0
    0.0000    1.5760    0.0000 N   0  0  0  0  0 15  0  0  0  0  0  0
    0.9330    2.0387    1.0253 C   0  0  0  0  0 15  0  0  0  0  0  0
    1.9110    0.9285    1.3348 C   0  0  0  0  0 15  0  0  0  0  0  0
    3.0950    1.1967    1.4564 O   0  0  0  0  0 15  0  0  0  0  0  0
    0.2220    2.4363    2.3529 C   0  0  0  0  0 15  0  0  0  0  0  0
   -0.7320    3.6537    2.2001 C   0  0  0  0  0 15  0  0  0  0  0  0
    0.1010    5.1329    1.5261 S   0  0  0  0  0 15  0  0  0  0  0  0
    1.2570    5.5632    2.8680 C   0  0  0  0  0 15  0  0  0  0  0  0
    1.4900    2.9052    0.6314 H   0  0  0  0  0 15  0  0  0  0  0  0
   -0.9770    1.5295    0.2109 H   0  0  0  0  0 15  0  0  0  0  0  0
    0.9810    2.6720    3.1163 H   0  0  0  0  0 15  0  0  0  0  0  0
   -0.3580    1.5738    2.7183 H   0  0  0  0  0 15  0  0  0  0  0  0
   -1.1650    3.9094    3.1809 H   0  0  0  0  0 15  0  0  0  0  0  0
   -1.5630    3.4180    1.5182 H   0  0  0  0  0 15  0  0  0  0  0  0
    0.7290    5.5878    3.8310 H   0  0  0  0  0 15  0  0  0  0  0  0
    1.6720    6.5627    2.6593 H   0  0  0  0  0 15  0  0  0  0  0  0
    2.0800    4.8389    2.9071 H   0  0  0  0  0 15  0  0  0  0  0  0
    1.4781   -0.2728    1.5522 N   0  0  0  0  0 15  0  0  0  0  0  0
    2.7031   -1.0268    1.8020 C   0  0  0  0  0 15  0  0  0  0  0  0
    3.1281   -1.7914    0.5736 C   0  0  0  0  0 15  0  0  0  0  0  0
    2.4861   -1.7492   -0.4768 O   0  0  0  0  0 15  0  0  0  0  0  0
    2.5341   -1.9609    3.0262 C   0  0  0  0  0 15  0  0  0  0  0  0
    1.6381   -3.0486    2.7773 O   0  0  0  0  0 15  0  0  0  0  0  0
    0.9791   -0.2936    0.5956 H   0  0  0  0  0 15  0  0  0  0  0  0
    3.5091   -0.3016    2.0237 H   0  0  0  0  0 15  0  0  0  0  0  0
    3.5191   -2.3804    3.3136 H   0  0  0  0  0 15  0  0  0  0  0  0
    2.1941   -1.3985    3.9168 H   0  0  0  0  0 15  0  0  0  0  0  0
    0.7711   -2.6723    2.6008 H   0  0  0  0  0 15  0  0  0  0  0  0
    2.9562   -1.4816   -0.5373 N   0  0  0  0  0 15  0  0  0  0  0  0
    3.8882   -1.5822   -1.6583 C   0  0  0  0  0 15  0  0  0  0  0  0
    4.9012   -0.4669   -1.5596 C   0  0  0  0  0 15  0  0  0  0  0  0
    6.0902   -0.7375   -1.6255 O   0  0  0  0  0 15  0  0  0  0  0  0
    3.1902   -1.4891   -3.0443 C   0  0  0  0  0 15  0  0  0  0  0  0
    2.3632   -2.7534   -3.3986 C   0  0  0  0  0 15  0  0  0  0  0  0
    1.4222   -2.5959   -4.5771 C   0  0  0  0  0 15  0  0  0  0  0  0
    0.4482   -3.3346   -4.6130 O   0  0  0  0  0 15  0  0  0  0  0  0
    1.6502   -1.6872   -5.5544 N   0  0  0  0  0 15  0  0  0  0  0  0
    4.4152   -2.5489   -1.5764 H   0  0  0  0  0 15  0  0  0  0  0  0
    1.9762   -1.4479   -0.7244 H   0  0  0  0  0 15  0  0  0  0  0  0
    3.9682   -1.3607   -3.8114 H   0  0  0  0  0 15  0  0  0  0  0  0
    2.5382   -0.6024   -3.0674 H   0  0  0  0  0 15  0  0  0  0  0  0
    1.7582   -3.0280   -2.5241 H   0  0  0  0  0 15  0  0  0  0  0  0
    3.0462   -3.5924   -3.6031 H   0  0  0  0  0 15  0  0  0  0  0  0
    2.4442   -1.0790   -5.5531 H   0  0  0  0  0 15  0  0  0  0  0  0
    1.0012   -1.6183   -6.3139 H   0  0  0  0  0 15  0  0  0  0  0  0
    4.4343    0.7856   -1.3662 N   0  0  0  0  0 15  0  0  0  0  0  0
    5.3443    1.9296   -1.3342 C   0  0  0  0  0 15  0  0  0  0  0  0
    6.3603    1.7239   -0.2359 C   0  0  0  0  0 15  0  0  0  0  0  0
    7.5363    1.9587   -0.4689 O   0  0  0  0  0 15  0  0  0  0  0  0
    4.6013    3.2788   -1.1266 C   0  0  0  0  0 15  0  0  0  0  0  0
    3.6623    3.6120   -2.3201 C   0  0  0  0  0 15  0  0  0  0  0  0
    2.8953    4.8969   -2.1223 C   0  0  0  0  0 15  0  0  0  0  0  0
    3.1183    5.5970   -1.0995 O   0  0  0  0  0 15  0  0  0  0  0  0
    2.0523    5.2175   -3.0010 O   0  0  0  0  0 15  0  0  0  0  0  0
    5.8783    1.9861   -2.2975 H   0  0  0  0  0 15  0  0  0  0  0  0
    3.4633    0.9264   -1.1721 H   0  0  0  0  0 15  0  0  0  0  0  0
    5.3453    4.0861   -1.0302 H   0  0  0  0  0 15  0  0  0  0  0  0
    4.0203    3.2312   -0.1940 H   0  0  0  0  0 15  0  0  0  0  0  0
    2.9273    2.8077   -2.4723 H   0  0  0  0  0 15  0  0  0  0  0  0
    4.2603    3.7070   -3.2380 H   0  0  0  0  0 15  0  0  0  0  0  0
    5.9124    1.2097    1.0102 N   0  0  0  0  0 15  0  0  0  0  0  0
    6.8754    0.9659    2.0785 C   0  0  0  0  0 15  0  0  0  0  0  0
    7.8754   -0.0611    1.6068 C   0  0  0  0  0 15  0  0  0  0  0  0
    9.0654    0.1757    1.7331 O   0  0  0  0  0 15  0  0  0  0  0  0
    6.1974    0.4555    3.3784 C   0  0  0  0  0 15  0  0  0  0  0  0
    7.3904    1.9136    2.3091 H   0  0  0  0  0 15  0  0  0  0  0  0
    4.9434    1.0259    1.1792 H   0  0  0  0  0 15  0  0  0  0  0  0
    5.6784   -0.4974    3.2046 H   0  0  0  0  0 15  0  0  0  0  0  0
    5.4634    1.1962    3.7341 H   0  0  0  0  0 15  0  0  0  0  0  0
    6.9534    0.3047    4.1649 H   0  0  0  0  0 15  0  0  0  0  0  0
    7.3905   -1.2043    1.0166 N   0  0  0  0  0 15  0  0  0  0  0  0
    8.6395   -1.8912    0.7012 C   0  0  0  0  0 15  0  0  0  0  0  0
    8.9525   -1.7971   -0.7724 C   0  0  0  0  0 15  0  0  0  0  0  0
   10.1585   -2.4353   -1.2003 O   0  0  0  0  0 15  0  0  0  0  0  0
    8.6145   -3.3917    1.2039 C   0  0  0  0  0 15  0  0  0  0  0  0
    8.2225   -3.5717    2.7044 C   0  0  0  0  0 15  0  0  0  0  0  0
    9.9665   -4.1341    0.9640 C   0  0  0  0  0 15  0  0  0  0  0  0
    7.8735   -5.0104    3.1418 C   0  0  0  0  0 15  0  0  0  0  0  0
    6.8035   -0.7083    0.2586 H   0  0  0  0  0 15  0  0  0  0  0  0
    9.4545   -1.3624    1.2293 H   0  0  0  0  0 15  0  0  0  0  0  0
    7.8365   -3.9137    0.6038 H   0  0  0  0  0 15  0  0  0  0  0  0
    9.0105   -3.1535    3.3599 H   0  0  0  0  0 15  0  0  0  0  0  0
    7.3255   -2.9629    2.9257 H   0  0  0  0  0 15  0  0  0  0  0  0
    9.9225   -5.1949    1.2662 H   0  0  0  0  0 15  0  0  0  0  0  0
   10.2655   -4.1618   -0.0996 H   0  0  0  0  0 15  0  0  0  0  0  0
   10.7985   -3.6731    1.5274 H   0  0  0  0  0 15  0  0  0  0  0  0
    7.5375   -5.0343    4.1981 H   0  0  0  0  0 15  0  0  0  0  0  0
    7.0575   -5.4367    2.5335 H   0  0  0  0  0 15  0  0  0  0  0  0
    8.7365   -5.6962    3.0682 H   0  0  0  0  0 15  0  0  0  0  0  0
    8.8686   -0.7928   -1.3621 N   0  0  0  0  0 15  0  0  0  0  0  0
   10.1176   -0.3634   -1.9840 C   0  0  0  0  0 15  0  0  0  0  0  0
   10.4306    1.0717   -1.6363 C   0  0  0  0  0 15  0  0  0  0  0  0
   11.6366    1.6036   -2.1908 O   0  0  0  0  0 15  0  0  0  0  0  0
   10.0926   -0.5987   -3.5488 C   0  0  0  0  0 15  0  0  0  0  0  0
    9.7006   -2.0454   -3.9858 C   0  0  0  0  0 15  0  0  0  0  0  0
   11.4446   -0.2339   -4.2385 C   0  0  0  0  0 15  0  0  0  0  0  0
    9.3516   -2.2273   -5.4786 C   0  0  0  0  0 15  0  0  0  0  0  0
    8.2816   -0.1321   -0.7423 H   0  0  0  0  0 15  0  0  0  0  0  0
   10.9326   -0.9749   -1.5546 H   0  0  0  0  0 15  0  0  0  0  0  0
    9.3146    0.0826   -3.9591 H   0  0  0  0  0 15  0  0  0  0  0  0
   10.4886   -2.7634   -3.6874 H   0  0  0  0  0 15  0  0  0  0  0  0
    8.8036   -2.3688   -3.4246 H   0  0  0  0  0 15  0  0  0  0  0  0
   11.4006   -0.3480   -5.3357 H   0  0  0  0  0 15  0  0  0  0  0  0
   11.7436    0.8184   -4.0818 H   0  0  0  0  0 15  0  0  0  0  0  0
   12.2766   -0.8686   -3.8820 H   0  0  0  0  0 15  0  0  0  0  0  0
    9.0156   -3.2635   -5.6849 H   0  0  0  0  0 15  0  0  0  0  0  0
    8.5356   -1.5543   -5.7931 H   0  0  0  0  0 15  0  0  0  0  0  0
   10.2146   -2.0361   -6.1413 H   0  0  0  0  0 15  0  0  0  0  0  0
   10.3467    1.4787   -0.5451 N   0  0  0  0  0 15  0  0  0  0  0  0
   11.7627    1.5829   -0.2040 C   0  0  0  0  0 15  0  0  0  0  0  0
   11.9627    1.5453    1.2932 C   0  0  0  0  0 15  0  0  0  0  0  0
   11.0187    1.4423    2.0725 O   0  0  0  0  0 15  0  0  0  0  0  0
   12.3317    2.8930   -0.8200 C   0  0  0  0  0 15  0  0  0  0  0  0
   13.8797    3.0286   -0.7901 C   0  0  0  0  0 15  0  0  0  0  0  0
   14.3547    4.3656   -1.3849 C   0  0  0  0  0 15  0  0  0  0  0  0
   15.8457    4.4317   -1.3476 N   0  0  0  0  0 15  0  0  0  0  0  0
   16.5807    5.4515   -1.7775 C   0  0  0  0  0 15  0  0  0  0  0  0
   16.0767    6.5402   -2.2855 N   0  0  0  0  0 15  0  0  0  0  0  0
   17.8697    5.3613   -1.6890 N   0  0  0  0  0 15  0  0  0  0  0  0
   10.0207    1.4856   -1.5180 H   0  0  0  0  0 15  0  0  0  0  0  0
   12.2837    0.7063   -0.6323 H   0  0  0  0  0 15  0  0  0  0  0  0
   11.9897    2.9776   -1.8717 H   0  0  0  0  0 15  0  0  0  0  0  0
   11.8637    3.7596   -0.3059 H   0  0  0  0  0 15  0  0  0  0  0  0
   14.2507    2.9401    0.2529 H   0  0  0  0  0 15  0  0  0  0  0  0
   14.3317    2.1778   -1.3418 H   0  0  0  0  0 15  0  0  0  0  0  0
   13.9757    4.4616   -2.4269 H   0  0  0  0  0 15  0  0  0  0  0  0
   13.9057    5.2035   -0.8088 H   0  0  0  0  0 15  0  0  0  0  0  0
   16.3967    3.6508   -0.9759 H   0  0  0  0  0 15  0  0  0  0  0  0
   16.7097    7.2799   -2.5931 H   0  0  0  0  0 15  0  0  0  0  0  0
   15.0547    6.5494   -2.3255 H   0  0  0  0  0 15  0  0  0  0  0  0
   18.2457    4.4997   -1.2900 H   0  0  0  0  0 15  0  0  0  0  0  0
   18.4187    6.1547   -2.0273 H   0  0  0  0  0 15  0  0  0  0  0  0
   11.8248    0.2810    1.5507 N   0  0  0  0  0 15  0  0  0  0  0  0
   13.0498   -0.3402    2.0459 C   0  0  0  0  0 15  0  0  0  0  0  0
   13.4748   -1.4825    1.1578 C   0  0  0  0  0 15  0  0  0  0  0  0
   12.8328   -1.8061    0.1576 O   0  0  0  0  0 15  0  0  0  0  0  0
   12.8808   -0.7931    3.5177 C   0  0  0  0  0 15  0  0  0  0  0  0
   11.9848   -1.8998    3.6603 O   0  0  0  0  0 15  0  0  0  0  0  0
   11.3258   -0.0694    0.6604 H   0  0  0  0  0 15  0  0  0  0  0  0
   13.8558    0.4170    2.0031 H   0  0  0  0  0 15  0  0  0  0  0  0
   13.8658   -1.0873    3.9325 H   0  0  0  0  0 15  0  0  0  0  0  0
   12.5408    0.0426    4.1588 H   0  0  0  0  0 15  0  0  0  0  0  0
   11.1178   -1.6077    3.3646 H   0  0  0  0  0 15  0  0  0  0  0  0
   13.3029   -1.5760    0.0084 N   0  0  0  0  0 15  0  0  0  0  0  0
   14.5489   -1.9205   -0.6701 C   0  0  0  0  0 15  0  0  0  0  0  0
   14.9039   -0.8835   -1.7091 C   0  0  0  0  0 15  0  0  0  0  0  0
   14.1969    0.1032   -1.9132 O   0  0  0  0  0 15  0  0  0  0  0  0
   14.3909   -3.3101   -1.3479 C   0  0  0  0  0 15  0  0  0  0  0  0
   14.2199   -4.4813   -0.3759 C   0  0  0  0  0 15  0  0  0  0  0  0
   12.9899   -5.0530    0.0167 C   0  0  0  0  0 15  0  0  0  0  0  0
   15.1879   -5.1303    0.3613 C   0  0  0  0  0 15  0  0  0  0  0  0
   13.1699   -6.0593    0.9860 N   0  0  0  0  0 15  0  0  0  0  0  0
   14.5409   -6.0857    1.1849 C   0  0  0  0  0 15  0  0  0  0  0  0
   16.5959   -4.9609    0.4242 C   0  0  0  0  0 15  0  0  0  0  0  0
   15.2989   -6.8900    2.0658 C   0  0  0  0  0 15  0  0  0  0  0  0
   17.3249   -5.7711    1.2924 C   0  0  0  0  0 15  0  0  0  0  0  0
   16.6869   -6.7225    2.1039 C   0  0  0  0  0 15  0  0  0  0  0  0
   12.7859   -0.7510   -0.2181 H   0  0  0  0  0 15  0  0  0  0  0  0
   15.3699   -1.9457    0.0707 H   0  0  0  0  0 15  0  0  0  0  0  0
   13.5409   -3.2934   -2.0588 H   0  0  0  0  0 15  0  0  0  0  0  0
   15.2729   -3.5286   -1.9816 H   0  0  0  0  0 15  0  0  0  0  0  0
   12.0279   -4.7228   -0.3534 H   0  0  0  0  0 15  0  0  0  0  0  0
   12.4519   -6.6093    1.4662 H   0  0  0  0  0 15  0  0  0  0  0  0
   17.0939   -4.2238   -0.1889 H   0  0  0  0  0 15  0  0  0  0  0  0
   14.8119   -7.6203    2.6896 H   0  0  0  0  0 15  0  0  0  0  0  0
   18.3979   -5.6604    1.3451 H   0  0  0  0  0 15  0  0  0  0  0  0
   17.2779   -7.3385    2.7648 H   0  0  0  0  0 15  0  0  0  0  0  0
   14.7810    0.2645   -1.5536 N   0  0  0  0  0 15  0  0  0  0  0  0
   15.7280    1.3272   -1.8882 C   0  0  0  0  0 15  0  0  0  0  0  0
   16.6980    1.4867   -0.7406 C   0  0  0  0  0 15  0  0  0  0  0  0
   17.8830    1.6294   -0.9927 O   0  0  0  0  0 15  0  0  0  0  0  0
   15.0230    2.6809   -2.1731 C   0  0  0  0  0 15  0  0  0  0  0  0
   14.1360    2.6028   -3.4478 C   0  0  0  0  0 15  0  0  0  0  0  0
   13.2710    3.8789   -3.6292 C   0  0  0  0  0 15  0  0  0  0  0  0
   12.3100    3.7463   -4.8406 C   0  0  0  0  0 15  0  0  0  0  0  0
   11.4470    4.9409   -4.9882 N   0  0  0  0  0 15  0  0  0  0  0  0
   16.2870    1.0348   -2.7946 H   0  0  0  0  0 15  0  0  0  0  0  0
   13.8240    0.4998   -1.3835 H   0  0  0  0  0 15  0  0  0  0  0  0
   15.7820    3.4686   -2.3182 H   0  0  0  0  0 15  0  0  0  0  0  0
   14.4120    2.9551   -1.2990 H   0  0  0  0  0 15  0  0  0  0  0  0
   13.4640    1.7317   -3.3870 H   0  0  0  0  0 15  0  0  0  0  0  0
   14.7760    2.4639   -4.3370 H   0  0  0  0  0 15  0  0  0  0  0  0
   13.9300    4.7511   -3.7730 H   0  0  0  0  0 15  0  0  0  0  0  0
   12.6690    4.0466   -2.7221 H   0  0  0  0  0 15  0  0  0  0  0  0
   11.6740    2.8580   -4.6968 H   0  0  0  0  0 15  0  0  0  0  0  0
   12.8990    3.5937   -5.7622 H   0  0  0  0  0 15  0  0  0  0  0  0
   10.8450    5.1126   -4.1104 H   0  0  0  0  0 15  0  0  0  0  0  0
   10.7620    4.8276   -5.8179 H   0  0  0  0  0 15  0  0  0  0  0  0
   12.0300    5.8286   -5.1759 H   0  0  0  0  0 15  0  0  0  0  0  0
   16.2591    1.4844    0.5294 N   0  0  0  0  0 15  0  0  0  0  0  0
   17.5361    1.4698    1.2906 C   0  0  0  0  0 15  0  0  0  0  0  0
   17.9161    0.1818    2.1032 C   0  0  0  0  0 15  0  0  0  0  0  0
   17.2641   -0.8365    2.1264 O   0  0  0  0  0 15  0  0  0  0  0  0
   17.4741    2.7321    2.1716 C   0  0  0  0  0 15  0  0  0  0  0  0
   18.8221    3.2156    2.7728 C   0  0  0  0  0 15  0  0  0  0  0  0
   19.8461    2.7413    2.2744 O   0  0  0  0  0 15  0  0  0  0  0  0
   18.7051    4.0409    3.6793 O   0  0  0  0  0 15  0  0  0  0  0  0
   15.7991    0.5870    0.5825 H   0  0  0  0  0 15  0  0  0  0  0  0
   18.3451    1.6068    0.5460 H   0  0  0  0  0 15  0  0  0  0  0  0
   17.1171    3.5847    1.5690 H   0  0  0  0  0 15  0  0  0  0  0  0
   16.7401    2.6223    2.9886 H   0  0  0  0  0 15  0  0  0  0  0  0
   17.7372   -0.7783    1.3704 N   0  0  0  0  0 15  0  0  0  0  0  0
   19.1482   -1.3542    1.2852 C   0  0  0  0  0 15  0  0  0  0  0  0
   19.4992   -1.9607   -0.0701 C   0  0  0  0  0 15  0  0  0  0  0  0
   18.6242   -1.9335   -0.9718 O   0  0  0  0  0 15  0  0  0  0  0  0
   19.2192   -2.4621    2.3273 C   0  0  0  0  0 15  0  0  0  0  0  0
   17.7782   -2.9958    2.2787 C   0  0  0  0  0 15  0  0  0  0  0  0
   16.9252   -1.7275    2.1692 C   0  0  0  0  0 15  0  0  0  0  0  0
   19.8762   -0.5791    1.4776 H   0  0  0  0  0 15  0  0  0  0  0  0
   19.8972   -3.2552    1.9702 H   0  0  0  0  0 15  0  0  0  0  0  0
   19.4092   -2.0204    3.3137 H   0  0  0  0  0 15  0  0  0  0  0  0
   17.5102   -3.4815    1.3274 H   0  0  0  0  0 15  0  0  0  0  0  0
   17.6232   -3.5565    3.2102 H   0  0  0  0  0 15  0  0  0  0  0  0
   15.9872   -1.9542    1.6335 H   0  0  0  0  0 15  0  0  0  0  0  0
   16.7702   -1.3069    3.1745 H   0  0  0  0  0 15  0  0  0  0  0  0
   19.2153   -1.2150   -1.0038 N   0  0  0  0  0 15  0  0  0  0  0  0
   20.4623   -1.0330   -1.7417 C   0  0  0  0  0 15  0  0  0  0  0  0
   20.7903    0.4333   -1.8961 C   0  0  0  0  0 15  0  0  0  0  0  0
   20.0453    1.3378   -1.4283 O   0  0  0  0  0 15  0  0  0  0  0  0
   20.3443   -1.6767   -3.1563 C   0  0  0  0  0 15  0  0  0  0  0  0
   20.0103   -3.1753   -3.2013 C   0  0  0  0  0 15  0  0  0  0  0  0
   18.6723   -3.5843   -3.2107 C   0  0  0  0  0 15  0  0  0  0  0  0
   21.0243   -4.1350   -3.1728 C   0  0  0  0  0 15  0  0  0  0  0  0
   18.3523   -4.9379   -3.1683 C   0  0  0  0  0 15  0  0  0  0  0  0
   20.7043   -5.4883   -3.1459 C   0  0  0  0  0 15  0  0  0  0  0  0
   19.3683   -5.8912   -3.1383 C   0  0  0  0  0 15  0  0  0  0  0  0
   18.6383   -0.3780   -0.6373 H   0  0  0  0  0 15  0  0  0  0  0  0
   21.2853   -1.5111   -1.1763 H   0  0  0  0  0 15  0  0  0  0  0  0
   19.5903   -1.1216   -3.7540 H   0  0  0  0  0 15  0  0  0  0  0  0
   21.2873   -1.5109   -3.7145 H   0  0  0  0  0 15  0  0  0  0  0  0
   17.8773   -2.8496   -3.2015 H   0  0  0  0  0 15  0  0  0  0  0  0
   22.0613   -3.8294   -3.1571 H   0  0  0  0  0 15  0  0  0  0  0  0
   17.3173   -5.2425   -3.1459 H   0  0  0  0  0 15  0  0  0  0  0  0
   21.4913   -6.2293   -3.1133 H   0  0  0  0  0 15  0  0  0  0  0  0
   19.1183   -6.9398   -3.1031 H   0  0  0  0  0 15  0  0  0  0  0  0
   20.6934    1.1989   -1.0230 N   0  0  0  0  0 15  0  0  0  0  0  0
   21.9184    1.9393   -0.7352 C   0  0  0  0  0 15  0  0  0  0  0  0
   22.3434    1.7464    0.6988 C   0  0  0  0  0 15  0  0  0  0  0  0
   21.7014    1.0448    1.4817 O   0  0  0  0  0 15  0  0  0  0  0  0
   21.7494    3.4392   -1.0842 C   0  0  0  0  0 15  0  0  0  0  0  0
   20.8534    4.1192   -0.1994 O   0  0  0  0  0 15  0  0  0  0  0  0
   20.1944    0.6056   -0.2722 H   0  0  0  0  0 15  0  0  0  0  0  0
   22.7244    1.5214   -1.3680 H   0  0  0  0  0 15  0  0  0  0  0  0
   22.7344    3.9456   -1.0386 H   0  0  0  0  0 15  0  0  0  0  0  0
   21.4094    3.5728   -2.1289 H   0  0  0  0  0 15  0  0  0  0  0  0
   19.9864    3.7167   -0.3031 H   0  0  0  0  0 15  0  0  0  0  0  0
   22.1715    0.8000    1.3578 N   0  0  0  0  0 15  0  0  0  0  0  0
   23.5875    0.4830    1.5212 C   0  0  0  0  0 15  0  0  0  0  0  0
   23.7875   -0.9969    1.7511 C   0  0  0  0  0 15  0  0  0  0  0  0
   22.8435   -1.7822    1.7887 O   0  0  0  0  0 15  0  0  0  0  0  0
   24.1565    1.3226    2.7005 C   0  0  0  0  0 15  0  0  0  0  0  0
   25.7045    1.3174    2.8392 C   0  0  0  0  0 15  0  0  0  0  0  0
   26.1795    2.1411    4.0487 C   0  0  0  0  0 15  0  0  0  0  0  0
   27.6705    2.1161    4.1204 N   0  0  0  0  0 15  0  0  0  0  0  0
   28.4055    2.7210    5.0473 C   0  0  0  0  0 15  0  0  0  0  0  0
   27.9015    3.4149    6.0279 N   0  0  0  0  0 15  0  0  0  0  0  0
   29.6945    2.6178    4.9742 N   0  0  0  0  0 15  0  0  0  0  0  0
   21.8455    1.7586    1.1912 H   0  0  0  0  0 15  0  0  0  0  0  0
   24.1085    0.7481    0.5823 H   0  0  0  0  0 15  0  0  0  0  0  0
   23.8145    2.3726    2.5962 H   0  0  0  0  0 15  0  0  0  0  0  0
   23.6885    0.9713    3.6448 H   0  0  0  0  0 15  0  0  0  0  0  0
   26.0755    0.2753    2.9381 H   0  0  0  0  0 15  0  0  0  0  0  0
   26.1565    1.7086    1.9037 H   0  0  0  0  0 15  0  0  0  0  0  0
   25.8005    3.1835    3.9575 H   0  0  0  0  0 15  0  0  0  0  0  0
   25.7305    1.7235    4.9760 H   0  0  0  0  0 15  0  0  0  0  0  0
   28.2215    1.6111    3.4184 H   0  0  0  0  0 15  0  0  0  0  0  0
   28.5345    3.8495    6.7010 H   0  0  0  0  0 15  0  0  0  0  0  0
   26.8795    3.4560    6.0298 H   0  0  0  0  0 15  0  0  0  0  0  0
   30.0705    2.0716    4.1977 H   0  0  0  0  0 15  0  0  0  0  0  0
   30.2435    3.0921    5.6947 H   0  0  0  0  0 15  0  0  0  0  0  0
   23.6496   -1.4758    0.5530 N   0  0  0  0  0 15  0  0  0  0  0  0
   24.5596   -2.3374   -0.2004 C   0  0  0  0  0 15  0  0  0  0  0  0
   25.5756   -1.4793   -0.9162 C   0  0  0  0  0 15  0  0  0  0  0  0
   26.7516   -1.8086   -0.8860 O   0  0  0  0  0 15  0  0  0  0  0  0
   23.8166   -3.2454   -1.2197 C   0  0  0  0  0 15  0  0  0  0  0  0
   22.8776   -4.2624   -0.5118 C   0  0  0  0  0 15  0  0  0  0  0  0
   22.1106   -5.1269   -1.4826 C   0  0  0  0  0 15  0  0  0  0  0  0
   22.3336   -5.0153   -2.7171 O   0  0  0  0  0 15  0  0  0  0  0  0
   21.2676   -5.9337   -1.0094 O   0  0  0  0  0 15  0  0  0  0  0  0
   25.0936   -2.9945    0.5063 H   0  0  0  0  0 15  0  0  0  0  0  0
   22.6786   -1.4607    0.3136 H   0  0  0  0  0 15  0  0  0  0  0  0
   24.5606   -3.8063   -1.8083 H   0  0  0  0  0 15  0  0  0  0  0  0
   23.2356   -2.6146   -1.9084 H   0  0  0  0  0 15  0  0  0  0  0  0
   22.1426   -3.7391    0.1178 H   0  0  0  0  0 15  0  0  0  0  0  0
   23.4756   -4.9201    0.1353 H   0  0  0  0  0 15  0  0  0  0  0  0
   25.1277   -0.2892   -1.5492 N   0  0  0  0  0 15  0  0  0  0  0  0
   26.0757    0.6080   -2.2451 C   0  0  0  0  0 15  0  0  0  0  0  0
   27.0697    1.1466   -1.2470 C   0  0  0  0  0 15  0  0  0  0  0  0
   28.2757    1.0986   -1.4259 O   0  0  0  0  0 15  0  0  0  0  0  0
   24.6507    0.2146   -0.7207 H   0  0  0  0  0 15  0  0  0  0  0  0
   26.6217   -0.0016   -2.9840 H   0  0  0  0  0 15  0  0  0  0  0  0
   25.3707    1.7741   -2.9904 C   0  0  0  0  0 15  0  0  0  0  0  0
   24.6937    1.3688   -3.7564 H   0  0  0  0  0 15  0  0  0  0  0  0
   26.1337    2.3781   -3.5103 H   0  0  0  0  0 15  0  0  0  0  0  0
   24.5927    2.6711   -2.0532 C   0  0  0  0  0 15  0  0  0  0  0  0
   25.1227    3.6787   -1.6135 O   0  0  0  0  0 15  0  0  0  0  0  0
   23.3287    2.3458   -1.7152 N   0  0  0  0  0 15  0  0  0  0  0  0
   22.8757    1.5269   -2.0747 H   0  0  0  0  0 15  0  0  0  0  0  0
   22.8337    2.9487   -1.0909 H   0  0  0  0  0 15  0  0  0  0  0  0
   26.6058    1.5759   -0.0167 N   0  0  0  0  0 15  0  0  0  0  0  0
   27.8308    1.9598    0.6787 C   0  0  0  0  0 15  0  0  0  0  0  0
   28.2558    0.8925    1.6558 C   0  0  0  0  0 15  0  0  0  0  0  0
   27.6138   -0.1478    1.8070 O   0  0  0  0  0 15  0  0  0  0  0  0
   27.6618    3.3347    1.3723 C   0  0  0  0  0 15  0  0  0  0  0  0
   26.7658    3.2895    2.4872 O   0  0  0  0  0 15  0  0  0  0  0  0
   26.1068    0.6393    0.1793 H   0  0  0  0  0 15  0  0  0  0  0  0
   28.6368    2.0446   -0.0749 H   0  0  0  0  0 15  0  0  0  0  0  0
   28.6468    3.6942    1.7319 H   0  0  0  0  0 15  0  0  0  0  0  0
   27.3218    4.1069    0.6560 H   0  0  0  0  0 15  0  0  0  0  0  0
   25.8988    3.0471    2.1496 H   0  0  0  0  0 15  0  0  0  0  0  0
   28.0839   -0.2563    1.5550 N   0  0  0  0  0 15  0  0  0  0  0  0
   29.3119   -1.0034    1.8094 C   0  0  0  0  0 15  0  0  0  0  0  0
   29.7269   -1.7931    0.5911 C   0  0  0  0  0 15  0  0  0  0  0  0
   29.0839   -1.7711   -0.4401 O   0  0  0  0  0 15  0  0  0  0  0  0
   29.1349   -1.9488    3.0448 C   0  0  0  0  0 15  0  0  0  0  0  0
   28.8559   -1.1911    4.2160 O   0  0  0  0  0 15  0  0  0  0  0  0
   30.3569   -2.8127    3.4264 C   0  0  0  0  0 15  0  0  0  0  0  0
   27.5769   -0.2957    0.6023 H   0  0  0  0  0 15  0  0  0  0  0  0
   30.1209   -0.2820    2.0255 H   0  0  0  0  0 15  0  0  0  0  0  0
   28.2759   -2.6246    2.8495 H   0  0  0  0  0 15  0  0  0  0  0  0
   28.6899   -1.8297    4.9155 H   0  0  0  0  0 15  0  0  0  0  0  0
   30.1639   -3.4336    4.3221 H   0  0  0  0  0 15  0  0  0  0  0  0
   30.6409   -3.5190    2.6280 H   0  0  0  0  0 15  0  0  0  0  0  0
   31.2469   -2.1915    3.6449 H   0  0  0  0  0 15  0  0  0  0  0  0
   29.5620   -1.4872   -0.5215 N   0  0  0  0  0 15  0  0  0  0  0  0
   30.4940   -1.5997   -1.6414 C   0  0  0  0  0 15  0  0  0  0  0  0
   31.5070   -0.4835   -1.5546 C   0  0  0  0  0 15  0  0  0  0  0  0
   32.6960   -0.7547   -1.6176 O   0  0  0  0  0 15  0  0  0  0  0  0
   29.7960   -1.5213   -3.0284 C   0  0  0  0  0 15  0  0  0  0  0  0
   28.9690   -2.7893   -3.3692 C   0  0  0  0  0 15  0  0  0  0  0  0
   28.0280   -2.6443   -4.5493 C   0  0  0  0  0 15  0  0  0  0  0  0
   27.0540   -3.3833   -4.5773 O   0  0  0  0  0 15  0  0  0  0  0  0
   28.2560   -1.7461   -5.5362 N   0  0  0  0  0 15  0  0  0  0  0  0
   31.0210   -2.5655   -1.5493 H   0  0  0  0  0 15  0  0  0  0  0  0
   28.5820   -1.4555   -0.7090 H   0  0  0  0  0 15  0  0  0  0  0  0
   30.5740   -1.4011   -3.7967 H   0  0  0  0  0 15  0  0  0  0  0  0
   29.1440   -0.6349   -3.0609 H   0  0  0  0  0 15  0  0  0  0  0  0
   28.3640   -3.0546   -2.4918 H   0  0  0  0  0 15  0  0  0  0  0  0
   29.6520   -3.6304   -3.5648 H   0  0  0  0  0 15  0  0  0  0  0  0
   29.0500   -1.1378   -5.5414 H   0  0  0  0  0 15  0  0  0  0  0  0
   27.6070   -1.6852   -6.2964 H   0  0  0  0  0 15  0  0  0  0  0  0
   31.0401    0.7711   -1.3745 N   0  0  0  0  0 15  0  0  0  0  0  0
   31.9881    1.9057   -1.3336 C   0  0  0  0  0 15  0  0  0  0  0  0
   32.9821    1.6794   -0.2222 C   0  0  0  0  0 15  0  0  0  0  0  0
   34.1881    1.7572   -0.3903 O   0  0  0  0  0 15  0  0  0  0  0  0
   30.5631    0.6267   -0.4156 H   0  0  0  0  0 15  0  0  0  0  0  0
   32.5341    1.9114   -2.2914 H   0  0  0  0  0 15  0  0  0  0  0  0
   31.2831    3.2785   -1.1581 C   0  0  0  0  0 15  0  0  0  0  0  0
   30.6061    3.4584   -2.0058 H   0  0  0  0  0 15  0  0  0  0  0  0
   32.0461    4.0754   -1.1700 H   0  0  0  0  0 15  0  0  0  0  0  0
   30.5051    3.3662    0.1362 C   0  0  0  0  0 15  0  0  0  0  0  0
   31.0351    3.8579    1.1195 O   0  0  0  0  0 15  0  0  0  0  0  0
   29.2411    2.9000    0.1871 N   0  0  0  0  0 15  0  0  0  0  0  0
   28.7881    2.5018   -0.6138 H   0  0  0  0  0 15  0  0  0  0  0  0
   28.7461    2.9625    1.0527 H   0  0  0  0  0 15  0  0  0  0  0  0
   32.5182    1.2203    0.9973 N   0  0  0  0  0 15  0  0  0  0  0  0
   33.9292    1.0397    1.5507 C   0  0  0  0  0 15  0  0  0  0  0  0
   34.2802   -0.3982    1.9212 C   0  0  0  0  0 15  0  0  0  0  0  0
   33.4052   -1.2825    1.7430 O   0  0  0  0  0 15  0  0  0  0  0  0
   34.0002    1.8811    2.8178 C   0  0  0  0  0 15  0  0  0  0  0  0
   32.5592    1.7436    3.3358 C   0  0  0  0  0 15  0  0  0  0  0  0
   31.7062    1.8485    2.0671 C   0  0  0  0  0 15  0  0  0  0  0  0
   34.6572    1.3594    0.8189 H   0  0  0  0  0 15  0  0  0  0  0  0
   34.6782    1.3959    3.5397 H   0  0  0  0  0 15  0  0  0  0  0  0
   34.1902    2.9275    2.5479 H   0  0  0  0  0 15  0  0  0  0  0  0
   32.2912    0.7243    3.6549 H   0  0  0  0  0 15  0  0  0  0  0  0
   32.4042    2.5677    4.0448 H   0  0  0  0  0 15  0  0  0  0  0  0
   30.7682    1.2824    2.2006 H   0  0  0  0  0 15  0  0  0  0  0  0
   31.5512    2.9101    1.8211 H   0  0  0  0  0 15  0  0  0  0  0  0
   33.9963   -1.1934    1.0293 N   0  0  0  0  0 15  0  0  0  0  0  0
   34.9593   -2.2079    0.6151 C   0  0  0  0  0 15  0  0  0  0  0  0
   35.9593   -1.5755   -0.3215 C   0  0  0  0  0 15  0  0  0  0  0  0
   37.1493   -1.7386   -0.1085 O   0  0  0  0  0 15  0  0  0  0  0  0
   34.2813   -3.4075   -0.0999 C   0  0  0  0  0 15  0  0  0  0  0  0
   35.4743   -2.5896    1.5127 H   0  0  0  0  0 15  0  0  0  0  0  0
   33.0273   -1.3303    0.8205 H   0  0  0  0  0 15  0  0  0  0  0  0
   33.7623   -3.0811   -1.0119 H   0  0  0  0  0 15  0  0  0  0  0  0
   33.5473   -3.8789    0.5731 H   0  0  0  0  0 15  0  0  0  0  0  0
   35.0373   -4.1590   -0.3766 H   0  0  0  0  0 15  0  0  0  0  0  0
   35.4744   -0.8072   -1.3536 N   0  0  0  0  0 15  0  0  0  0  0  0
   36.7224   -0.3871   -1.9836 C   0  0  0  0  0 15  0  0  0  0  0  0
   37.0434    1.0494   -1.6435 C   0  0  0  0  0 15  0  0  0  0  0  0
   36.3134    1.7261   -0.9263 O   0  0  0  0  0 15  0  0  0  0  0  0
   34.8934   -0.1402   -0.7337 H   0  0  0  0  0 15  0  0  0  0  0  0
   37.5554   -1.0332   -1.6526 H   0  0  0  0  0 15  0  0  0  0  0  0
   36.6514   -0.4934   -3.0818 H   0  0  0  0  0 15  0  0  0  0  0  0
   36.9525    1.4729   -0.5608 N   0  0  0  0  0 15  0  0  0  0  0  0
   37.9005    2.3176    0.1979 C   0  0  0  0  0 15  0  0  0  0  0  0
   38.8945    1.4315    0.9059 C   0  0  0  0  0 15  0  0  0  0  0  0
   40.1005    1.5989    0.8267 O   0  0  0  0  0 15  0  0  0  0  0  0
   36.4755    0.7474    0.0827 H   0  0  0  0  0 15  0  0  0  0  0  0
   38.4465    2.9359   -0.5336 H   0  0  0  0  0 15  0  0  0  0  0  0
   37.1955    3.2587    1.2125 C   0  0  0  0  0 15  0  0  0  0  0  0
   36.5185    3.9402    0.6772 H   0  0  0  0  0 15  0  0  0  0  0  0
   37.9585    3.8780    1.7142 H   0  0  0  0  0 15  0  0  0  0  0  0
   36.4175    2.4965    2.2622 C   0  0  0  0  0 15  0  0  0  0  0  0
   36.9475    2.2436    3.3321 O   0  0  0  0  0 15  0  0  0  0  0  0
   35.1535    2.1060    2.0024 N   0  0  0  0  0 15  0  0  0  0  0  0
   34.7005    2.3137    1.1325 H   0  0  0  0  0 15  0  0  0  0  0  0
   34.6585    1.5991    2.7069 H   0  0  0  0  0 15  0  0  0  0  0  0
   38.4306    0.2974    1.5477 N   0  0  0  0  0 15  0  0  0  0  0  0
   39.8416   -0.1959    1.8567 C   0  0  0  0  0 15  0  0  0  0  0  0
   40.1926   -1.5371    1.2194 C   0  0  0  0  0 15  0  0  0  0  0  0
   39.3176   -2.1016    0.5158 O   0  0  0  0  0 15  0  0  0  0  0  0
   39.9126   -0.3623    3.3686 C   0  0  0  0  0 15  0  0  0  0  0  0
   38.4716   -0.7999    3.6780 C   0  0  0  0  0 15  0  0  0  0  0  0
   37.6186    0.0939    2.7714 C   0  0  0  0  0 15  0  0  0  0  0  0
   40.5696    0.5185    1.4999 H   0  0  0  0  0 15  0  0  0  0  0  0
   40.5906   -1.1975    3.6117 H   0  0  0  0  0 15  0  0  0  0  0  0
   40.1026    0.6139    3.8321 H   0  0  0  0  0 15  0  0  0  0  0  0
   38.2036   -1.7868    3.2696 H   0  0  0  0  0 15  0  0  0  0  0  0
   38.3166   -0.6218    4.7505 H   0  0  0  0  0 15  0  0  0  0  0  0
   36.6806   -0.4263    2.5111 H   0  0  0  0  0 15  0  0  0  0  0  0
   37.4636    1.0664    3.2632 H   0  0  0  0  0 15  0  0  0  0  0  0
   39.9087   -1.5758    0.0251 N   0  0  0  0  0 15  0  0  0  0  0  0
   41.1557   -1.9163   -0.6544 C   0  0  0  0  0 15  0  0  0  0  0  0
   41.4837   -0.9011   -1.7237 C   0  0  0  0  0 15  0  0  0  0  0  0
   40.7387    0.0906   -1.9549 O   0  0  0  0  0 15  0  0  0  0  0  0
   41.0377   -3.3242   -1.3127 C   0  0  0  0  0 15  0  0  0  0  0  0
   40.7037   -4.4934   -0.3742 C   0  0  0  0  0 15  0  0  0  0  0  0
   39.3657   -4.8106   -0.1159 C   0  0  0  0  0 15  0  0  0  0  0  0
   41.7177   -5.2050    0.2704 C   0  0  0  0  0 15  0  0  0  0  0  0
   39.0457   -5.8129    0.7949 C   0  0  0  0  0 15  0  0  0  0  0  0
   41.3977   -6.2170    1.1693 C   0  0  0  0  0 15  0  0  0  0  0  0
   40.0617   -6.5186    1.4365 C   0  0  0  0  0 15  0  0  0  0  0  0
   39.3317   -0.7012   -0.2395 H   0  0  0  0  0 15  0  0  0  0  0  0
   41.9787   -1.9131    0.0860 H   0  0  0  0  0 15  0  0  0  0  0  0
   40.2837   -3.2899   -2.1278 H   0  0  0  0  0 15  0  0  0  0  0  0
   41.9807   -3.5604   -1.8449 H   0  0  0  0  0 15  0  0  0  0  0  0
   38.5707   -4.2458   -0.5857 H   0  0  0  0  0 15  0  0  0  0  0  0
   42.7547   -4.9623    0.0839 H   0  0  0  0  0 15  0  0  0  0  0  0
   38.0107   -6.0300    1.0097 H   0  0  0  0  0 15  0  0  0  0  0  0
   42.1847   -6.7596    1.6750 H   0  0  0  0  0 15  0  0  0  0  0  0
   39.8117   -7.2934    2.1440 H   0  0  0  0  0 15  0  0  0  0  0  0
   41.3868    0.2480   -1.5564 N   0  0  0  0  0 15  0  0  0  0  0  0
   42.6118    0.9980   -1.8181 C   0  0  0  0  0 15  0  0  0  0  0  0
   43.0368    1.7821   -0.6020 C   0  0  0  0  0 15  0  0  0  0  0  0
   42.3948    1.7565    0.4490 O   0  0  0  0  0 15  0  0  0  0  0  0
   42.4428    1.9125   -3.0571 C   0  0  0  0  0 15  0  0  0  0  0  0
   41.5468    3.0041   -2.8254 O   0  0  0  0  0 15  0  0  0  0  0  0
   40.8878    0.2840   -0.6002 H   0  0  0  0  0 15  0  0  0  0  0  0
   43.4178    0.2694   -2.0282 H   0  0  0  0  0 15  0  0  0  0  0  0
   43.4278    2.3274   -3.3511 H   0  0  0  0  0 15  0  0  0  0  0  0
   42.1028    1.3360   -3.9386 H   0  0  0  0  0 15  0  0  0  0  0  0
   40.6798    2.6306   -2.6430 H   0  0  0  0  0 15  0  0  0  0  0  0
   42.8649    1.4899    0.5136 N   0  0  0  0  0 15  0  0  0  0  0  0
   43.7749    1.6744    1.6432 C   0  0  0  0  0 15  0  0  0  0  0  0
   44.7909    0.5569    1.6485 C   0  0  0  0  0 15  0  0  0  0  0  0
   45.9669    0.8301    1.8350 O   0  0  0  0  0 15  0  0  0  0  0  0
   43.0319    1.7251    3.0073 C   0  0  0  0  0 15  0  0  0  0  0  0
   42.0929    2.9601    3.1093 C   0  0  0  0  0 15  0  0  0  0  0  0
   41.3259    3.0083    4.4084 C   0  0  0  0  0 15  0  0  0  0  0  0
   41.5489    2.1359    5.2890 O   0  0  0  0  0 15  0  0  0  0  0  0
   40.4829    3.9317    4.5574 O   0  0  0  0  0 15  0  0  0  0  0  0
   44.3089    2.6311    1.5169 H   0  0  0  0  0 15  0  0  0  0  0  0
   41.8939    1.3259    0.6885 H   0  0  0  0  0 15  0  0  0  0  0  0
   43.7759    1.7828    3.8183 H   0  0  0  0  0 15  0  0  0  0  0  0
   42.4509    0.8003    3.1365 H   0  0  0  0  0 15  0  0  0  0  0  0
   41.3579    2.9577    2.2906 H   0  0  0  0  0 15  0  0  0  0  0  0
   42.6909    3.8793    3.0293 H   0  0  0  0  0 15  0  0  0  0  0  0
   44.3430   -0.7638    1.3786 N   0  0  0  0  0 15  0  0  0  0  0  0
   45.2730   -1.8910    1.3698 C   0  0  0  0  0 15  0  0  0  0  0  0
   46.2540   -1.6844    0.2372 C   0  0  0  0  0 15  0  0  0  0  0  0
   47.4390   -1.8918    0.4387 O   0  0  0  0  0 15  0  0  0  0  0  0
   44.5690   -3.2650    1.1839 C   0  0  0  0  0 15  0  0  0  0  0  0
   43.5230   -3.6174    2.2875 C   0  0  0  0  0 15  0  0  0  0  0  0
   42.8490   -4.9776    1.9529 C   0  0  0  0  0 15  0  0  0  0  0  0
   44.1490   -3.6766    3.7097 C   0  0  0  0  0 15  0  0  0  0  0  0
   45.8430   -1.9010    2.3131 H   0  0  0  0  0 15  0  0  0  0  0  0
   43.3890   -0.9132    1.1134 H   0  0  0  0  0 15  0  0  0  0  0  0
   45.3420   -4.0500    1.1641 H   0  0  0  0  0 15  0  0  0  0  0  0
   44.0660   -3.2595    0.2052 H   0  0  0  0  0 15  0  0  0  0  0  0
   42.7250   -2.8555    2.2991 H   0  0  0  0  0 15  0  0  0  0  0  0
   42.3730   -4.9377    0.9592 H   0  0  0  0  0 15  0  0  0  0  0  0
   42.0730   -5.2231    2.6919 H   0  0  0  0  0 15  0  0  0  0  0  0
   43.5970   -5.7866    1.9490 H   0  0  0  0  0 15  0  0  0  0  0  0
   45.0110   -4.3631    3.7190 H   0  0  0  0  0 15  0  0  0  0  0  0
   43.4080   -4.0372    4.4400 H   0  0  0  0  0 15  0  0  0  0  0  0
   44.4780   -2.6813    4.0402 H   0  0  0  0  0 15  0  0  0  0  0  0
   45.8211   -1.2256   -0.9908 N   0  0  0  0  0 15  0  0  0  0  0  0
   46.7681   -0.9975   -2.0813 C   0  0  0  0  0 15  0  0  0  0  0  0
   47.7381    0.0815   -1.6590 C   0  0  0  0  0 15  0  0  0  0  0  0
   48.9231   -0.0685   -1.9068 O   0  0  0  0  0 15  0  0  0  0  0  0
   46.0631   -0.5836   -3.4013 C   0  0  0  0  0 15  0  0  0  0  0  0
   45.1761   -1.7336   -3.9569 C   0  0  0  0  0 15  0  0  0  0  0  0
   44.3111   -1.2675   -5.1586 C   0  0  0  0  0 15  0  0  0  0  0  0
   43.3501   -2.3889   -5.6356 C   0  0  0  0  0 15  0  0  0  0  0  0
   42.4871   -1.9331   -6.7496 N   0  0  0  0  0 15  0  0  0  0  0  0
   47.3271   -1.9310   -2.2697 H   0  0  0  0  0 15  0  0  0  0  0  0
   44.8641   -0.9621   -1.1127 H   0  0  0  0  0 15  0  0  0  0  0  0
   46.8221   -0.3248   -4.1593 H   0  0  0  0  0 15  0  0  0  0  0  0
   45.4521    0.3128   -3.2128 H   0  0  0  0  0 15  0  0  0  0  0  0
   44.5041   -2.1067   -3.1674 H   0  0  0  0  0 15  0  0  0  0  0  0
   45.8161   -2.5770   -4.2707 H   0  0  0  0  0 15  0  0  0  0  0  0
   44.9701   -0.9662   -5.9896 H   0  0  0  0  0 15  0  0  0  0  0  0
   43.7091   -0.3943   -4.8610 H   0  0  0  0  0 15  0  0  0  0  0  0
   42.7141   -2.6981   -4.7905 H   0  0  0  0  0 15  0  0  0  0  0  0
   43.9391   -3.2673   -5.9534 H   0  0  0  0  0 15  0  0  0  0  0  0
   41.8851   -1.0835   -6.4699 H   0  0  0  0  0 15  0  0  0  0  0  0
   41.8021   -2.7122   -7.0568 H   0  0  0  0  0 15  0  0  0  0  0  0
   43.0701   -1.6625   -7.6156 H   0  0  0  0  0 15  0  0  0  0  0  0
   47.2992    1.1880   -1.0356 N   0  0  0  0  0 15  0  0  0  0  0  0
   48.2092    2.2591   -0.6325 C   0  0  0  0  0 15  0  0  0  0  0  0
   49.2252    1.7067    0.3389 C   0  0  0  0  0 15  0  0  0  0  0  0
   50.4012    2.0045    0.1951 O   0  0  0  0  0 15  0  0  0  0  0  0
   47.4662    3.4670    0.0035 C   0  0  0  0  0 15  0  0  0  0  0  0
   46.5272    4.1710   -1.0162 C   0  0  0  0  0 15  0  0  0  0  0  0
   45.7602    5.3212   -0.4105 C   0  0  0  0  0 15  0  0  0  0  0  0
   45.9832    5.6498    0.7847 O   0  0  0  0  0 15  0  0  0  0  0  0
   44.9172    5.9107   -1.1367 O   0  0  0  0  0 15  0  0  0  0  0  0
   48.7432    2.6265   -1.5248 H   0  0  0  0  0 15  0  0  0  0  0  0
   46.3282    1.2578   -0.8062 H   0  0  0  0  0 15  0  0  0  0  0  0
   48.2102    4.1988    0.3578 H   0  0  0  0  0 15  0  0  0  0  0  0
   46.8852    3.1180    0.8697 H   0  0  0  0  0 15  0  0  0  0  0  0
   45.7922    3.4601   -1.4222 H   0  0  0  0  0 15  0  0  0  0  0  0
   47.1252    4.5599   -1.8530 H   0  0  0  0  0 15  0  0  0  0  0  0
   48.7773    0.8144    1.3493 N   0  0  0  0  0 15  0  0  0  0  0  0
   49.7403    0.2358    2.2798 C   0  0  0  0  0 15  0  0  0  0  0  0
   50.7403   -0.5814    1.4992 C   0  0  0  0  0 15  0  0  0  0  0  0
   51.9303   -0.3988    1.6957 O   0  0  0  0  0 15  0  0  0  0  0  0
   49.0623   -0.6704    3.3424 C   0  0  0  0  0 15  0  0  0  0  0  0
   50.2553    1.0566    2.8067 H   0  0  0  0  0 15  0  0  0  0  0  0
   47.8083    0.5856    1.4491 H   0  0  0  0  0 15  0  0  0  0  0  0
   48.5433   -1.5147    2.8676 H   0  0  0  0  0 15  0  0  0  0  0  0
   48.3283   -0.0861    3.9201 H   0  0  0  0  0 15  0  0  0  0  0  0
   49.8183   -1.0694    4.0368 H   0  0  0  0  0 15  0  0  0  0  0  0
   50.2554   -1.4699    0.5686 N   0  0  0  0  0 15  0  0  0  0  0  0
   51.1874   -2.2823   -0.2103 C   0  0  0  0  0 15  0  0  0  0  0  0
   52.2004   -1.3768   -0.8688 C   0  0  0  0  0 15  0  0  0  0  0  0
   53.3894   -1.6241   -0.7407 O   0  0  0  0  0 15  0  0  0  0  0  0
   50.4894   -3.1229   -1.3163 C   0  0  0  0  0 15  0  0  0  0  0  0
   49.6624   -4.3088   -0.7525 C   0  0  0  0  0 15  0  0  0  0  0  0
   48.7214   -4.9644   -1.7444 C   0  0  0  0  0 15  0  0  0  0  0  0
   47.7474   -5.5448   -1.2860 O   0  0  0  0  0 15  0  0  0  0  0  0
   48.9494   -4.9217   -3.0781 N   0  0  0  0  0 15  0  0  0  0  0  0
   51.7144   -2.9572    0.4866 H   0  0  0  0  0 15  0  0  0  0  0  0
   49.2754   -1.5674    0.4054 H   0  0  0  0  0 15  0  0  0  0  0  0
   51.2674   -3.5302   -1.9788 H   0  0  0  0  0 15  0  0  0  0  0  0
   49.8374   -2.4697   -1.9164 H   0  0  0  0  0 15  0  0  0  0  0  0
   49.0574   -3.9410    0.0871 H   0  0  0  0  0 15  0  0  0  0  0  0
   50.3454   -5.0756   -0.3554 H   0  0  0  0  0 15  0  0  0  0  0  0
   49.7434   -4.4624   -3.4769 H   0  0  0  0  0 15  0  0  0  0  0  0
   48.3004   -5.3688   -3.6959 H   0  0  0  0  0 15  0  0  0  0  0  0
   51.7335   -0.3056   -1.5461 N   0  0  0  0  0 15  0  0  0  0  0  0
   52.6665    0.6105   -2.1988 C   0  0  0  0  0 15  0  0  0  0  0  0
   53.6445    1.1294   -1.1698 C   0  0  0  0  0 15  0  0  0  0  0  0
   54.8285    1.1967   -1.4564 O   0  0  0  0  0 15  0  0  0  0  0  0
   51.9555    1.8358   -2.8463 C   0  0  0  0  0 15  0  0  0  0  0  0
   51.0015    1.4498   -4.0110 C   0  0  0  0  0 15  0  0  0  0  0  0
   51.8345    0.5018   -5.3314 S   0  0  0  0  0 15  0  0  0  0  0  0
   52.9905    1.7348   -6.0138 C   0  0  0  0  0 15  0  0  0  0  0  0
   53.2235    0.0560   -2.9725 H   0  0  0  0  0 15  0  0  0  0  0  0
   50.7565   -0.0897   -1.5414 H   0  0  0  0  0 15  0  0  0  0  0  0
   52.7145    2.5390   -3.2256 H   0  0  0  0  0 15  0  0  0  0  0  0
   51.3755    2.3615   -2.0710 H   0  0  0  0  0 15  0  0  0  0  0  0
   50.5685    2.3624   -4.4521 H   0  0  0  0  0 15  0  0  0  0  0  0
   50.1705    0.8266   -3.6475 H   0  0  0  0  0 15  0  0  0  0  0  0
   52.4625    2.6747   -6.2247 H   0  0  0  0  0 15  0  0  0  0  0  0
   53.4055    1.3362   -6.9538 H   0  0  0  0  0 15  0  0  0  0  0  0
   53.8135    1.9136   -5.3108 H   0  0  0  0  0 15  0  0  0  0  0  0
   53.2116    1.5756   -0.0334 N   0  0  0  0  0 15  0  0  0  0  0  0
   54.4886    1.8328    0.6832 C   0  0  0  0  0 15  0  0  0  0  0  0
   54.8686    0.9182    1.9008 C   0  0  0  0  0 15  0  0  0  0  0  0
   54.2166   -0.0251    2.2849 O   0  0  0  0  0 15  0  0  0  0  0  0
   54.4266    3.3260    1.0573 C   0  0  0  0  0 15  0  0  0  0  0  0
   55.7746    3.9918    1.4471 C   0  0  0  0  0 15  0  0  0  0  0  0
   56.7986    3.3712    1.1502 O   0  0  0  0  0 15  0  0  0  0  0  0
   55.6576    5.0857    2.0006 O   0  0  0  0  0 15  0  0  0  0  0  0
   52.7516    0.7559    0.3355 H   0  0  0  0  0 15  0  0  0  0  0  0
   55.2976    1.6959   -0.0614 H   0  0  0  0  0 15  0  0  0  0  0  0
   54.0696    3.9083    0.1908 H   0  0  0  0  0 15  0  0  0  0  0  0
   53.6926    3.5141    1.8599 H   0  0  0  0  0 15  0  0  0  0  0  0
   54.6897   -0.2398    1.5577 N   0  0  0  0  0 15  0  0  0  0  0  0
   55.6367   -1.2970    1.9091 C   0  0  0  0  0 15  0  0  0  0  0  0
   56.6067   -1.4748    0.7642 C   0  0  0  0  0 15  0  0  0  0  0  0
   57.7917   -1.6134    1.0185 O   0  0  0  0  0 15  0  0  0  0  0  0
   54.9317   -2.6460    2.2154 C   0  0  0  0  0 15  0  0  0  0  0  0
   54.0447   -2.5477    3.4888 C   0  0  0  0  0 15  0  0  0  0  0  0
   53.1797   -3.8207    3.6905 C   0  0  0  0  0 15  0  0  0  0  0  0
   52.2187   -3.6688    4.8996 C   0  0  0  0  0 15  0  0  0  0  0  0
   51.3557   -4.8609    5.0661 N   0  0  0  0  0 15  0  0  0  0  0  0
   56.1957   -0.9902    2.8107 H   0  0  0  0  0 15  0  0  0  0  0  0
   53.7327   -0.4777    1.3913 H   0  0  0  0  0 15  0  0  0  0  0  0
   55.6907   -3.4313    2.3731 H   0  0  0  0  0 15  0  0  0  0  0  0
   54.3207   -2.9341    1.3459 H   0  0  0  0  0 15  0  0  0  0  0  0
   53.3727   -1.6776    3.4141 H   0  0  0  0  0 15  0  0  0  0  0  0
   54.6847   -2.3946    4.3756 H   0  0  0  0  0 15  0  0  0  0  0  0
   53.8387   -4.6905    3.8481 H   0  0  0  0  0 15  0  0  0  0  0  0
   52.5777   -4.0028    2.7861 H   0  0  0  0  0 15  0  0  0  0  0  0
   51.5827   -2.7829    4.7417 H   0  0  0  0  0 15  0  0  0  0  0  0
   52.8077   -3.5016    5.8186 H   0  0  0  0  0 15  0  0  0  0  0  0
   50.7537   -5.0465    4.1912 H   0  0  0  0  0 15  0  0  0  0  0  0
   50.6707   -4.7344    5.8940 H   0  0  0  0  0 15  0  0  0  0  0  0
   51.9387   -5.7455    5.2680 H   0  0  0  0  0 15  0  0  0  0  0  0
   56.1678   -1.4927   -0.5057 N   0  0  0  0  0 15  0  0  0  0  0  0
   57.0978   -1.6850   -1.6165 C   0  0  0  0  0 15  0  0  0  0  0  0
   58.0788   -0.5337   -1.6151 C   0  0  0  0  0 15  0  0  0  0  0  0
   59.2638   -0.7690   -1.7833 O   0  0  0  0  0 15  0  0  0  0  0  0
   56.3938   -1.7471   -3.0016 C   0  0  0  0  0 15  0  0  0  0  0  0
   55.3478   -2.8958   -3.1516 C   0  0  0  0  0 15  0  0  0  0  0  0
   54.6738   -2.8090   -4.5497 C   0  0  0  0  0 15  0  0  0  0  0  0
   55.9738   -4.3058   -2.9563 C   0  0  0  0  0 15  0  0  0  0  0  0
   57.6678   -2.6149   -1.4581 H   0  0  0  0  0 15  0  0  0  0  0  0
   55.2138   -1.2584   -0.7001 H   0  0  0  0  0 15  0  0  0  0  0  0
   57.1668   -1.8675   -3.7776 H   0  0  0  0  0 15  0  0  0  0  0  0
   55.8908   -0.7831   -3.1707 H   0  0  0  0  0 15  0  0  0  0  0  0
   54.5498   -2.7714   -2.3998 H   0  0  0  0  0 15  0  0  0  0  0  0
   54.1978   -1.8242   -4.6876 H   0  0  0  0  0 15  0  0  0  0  0  0
   53.8978   -3.5800   -4.6595 H   0  0  0  0  0 15  0  0  0  0  0  0
   55.4218   -2.9494   -5.3464 H   0  0  0  0  0 15  0  0  0  0  0  0
   56.8358   -4.4373   -3.6301 H   0  0  0  0  0 15  0  0  0  0  0  0
   55.2328   -5.0886   -3.1809 H   0  0  0  0  0 15  0  0  0  0  0  0
   56.3028   -4.4535   -1.9181 H   0  0  0  0  0 15  0  0  0  0  0  0
   57.6459    0.7564   -1.3826 N   0  0  0  0  0 15  0  0  0  0  0  0
   58.8919    1.5177   -1.3451 C   0  0  0  0  0 15  0  0  0  0  0  0
   59.2249    1.9409    0.0657 C   0  0  0  0  0 15  0  0  0  0  0  0
   58.4999    1.6522    1.0263 O   0  0  0  0  0 15  0  0  0  0  0  0
   58.7829    2.7723   -2.2982 C   0  0  0  0  0 15  0  0  0  0  0  0
   58.6359    2.4106   -3.7975 C   0  0  0  0  0 15  0  0  0  0  0  0
   59.9549    3.7924   -2.2331 C   0  0  0  0  0 15  0  0  0  0  0  0
   57.0739    0.5506   -0.4899 H   0  0  0  0  0 15  0  0  0  0  0  0
   59.7159    0.8666   -1.6909 H   0  0  0  0  0 15  0  0  0  0  0  0
   57.8659    3.3278   -2.0047 H   0  0  0  0  0 15  0  0  0  0  0  0
   59.5379    1.9130   -4.1976 H   0  0  0  0  0 15  0  0  0  0  0  0
   57.7809    1.7356   -3.9757 H   0  0  0  0  0 15  0  0  0  0  0  0
   58.4519    3.3081   -4.4189 H   0  0  0  0  0 15  0  0  0  0  0  0
   60.9279    3.3321   -2.4922 H   0  0  0  0  0 15  0  0  0  0  0  0
   59.8039    4.6471   -2.9212 H   0  0  0  0  0 15  0  0  0  0  0  0
   60.0649    4.2462   -1.2310 H   0  0  0  0  0 15  0  0  0  0  0  0
   59.1240    1.2308    0.9843 N   0  0  0  0  0 15  0  0  0  0  0  0
   60.3720    1.0585    1.7216 C   0  0  0  0  0 15  0  0  0  0  0  0
   60.6930   -0.4060    1.9073 C   0  0  0  0  0 15  0  0  0  0  0  0
   59.9630   -1.2914    1.4731 O   0  0  0  0  0 15  0  0  0  0  0  0
   58.5430    0.3887    0.6379 H   0  0  0  0  0 15  0  0  0  0  0  0
   61.2050    1.5474    1.1850 H   0  0  0  0  0 15  0  0  0  0  0  0
   60.3010    1.5433    2.7127 H   0  0  0  0  0 15  0  0  0  0  0  0
   60.6021   -1.1825    1.0419 N   0  0  0  0  0 15  0  0  0  0  0  0
   61.5651   -2.2013    0.6385 C   0  0  0  0  0 15  0  0  0  0  0  0
   62.5651   -1.5788   -0.3048 C   0  0  0  0  0 15  0  0  0  0  0  0
   63.7551   -1.7397   -0.0900 O   0  0  0  0  0 15  0  0  0  0  0  0
   60.8871   -3.4084   -0.0638 C   0  0  0  0  0 15  0  0  0  0  0  0
   62.0801   -2.5734    1.5401 H   0  0  0  0  0 15  0  0  0  0  0  0
   59.6331   -1.3215    0.8346 H   0  0  0  0  0 15  0  0  0  0  0  0
   60.3681   -3.0917   -0.9791 H   0  0  0  0  0 15  0  0  0  0  0  0
   60.1531   -3.8726    0.6142 H   0  0  0  0  0 15  0  0  0  0  0  0
   61.6431   -4.1627   -0.3325 H   0  0  0  0  0 15  0  0  0  0  0  0
   62.0802   -0.8215   -1.3449 N   0  0  0  0  0 15  0  0  0  0  0  0
   63.3282   -0.4081   -1.9794 C   0  0  0  0  0 15  0  0  0  0  0  0
   63.6492    1.0319   -1.6546 C   0  0  0  0  0 15  0  0  0  0  0  0
   62.9192    1.7162   -0.9446 O   0  0  0  0  0 15  0  0  0  0  0  0
   61.4992   -0.1479   -0.7322 H   0  0  0  0  0 15  0  0  0  0  0  0
   64.1612   -1.0507   -1.6416 H   0  0  0  0  0 15  0  0  0  0  0  0
   63.2572   -0.5260   -3.0764 H   0  0  0  0  0 15  0  0  0  0  0  0
   63.5583    1.4668   -0.5764 N   0  0  0  0  0 15  0  0  0  0  0  0
   64.8353    1.9560    0.0070 C   0  0  0  0  0 15  0  0  0  0  0  0
   65.2153    1.5190    1.4659 C   0  0  0  0  0 15  0  0  0  0  0  0
   64.5633    0.7668    2.1525 O   0  0  0  0  0 15  0  0  0  0  0  0
   64.7733    3.4864   -0.1584 C   0  0  0  0  0 15  0  0  0  0  0  0
   66.1213    4.2459   -0.0229 C   0  0  0  0  0 15  0  0  0  0  0  0
   67.1453    3.5609   -0.0869 O   0  0  0  0  0 15  0  0  0  0  0  0
   66.0043    5.4637    0.1180 O   0  0  0  0  0 15  0  0  0  0  0  0
   63.0983    0.8253    0.0534 H   0  0  0  0  0 15  0  0  0  0  0  0
   65.6443    1.5700   -0.6442 H   0  0  0  0  0 15  0  0  0  0  0  0
   64.4163    3.7331   -1.1728 H   0  0  0  0  0 15  0  0  0  0  0  0
   64.0393    3.9406    0.5296 H   0  0  0  0  0 15  0  0  0  0  0  0
   65.0364    0.3138    1.5444 N   0  0  0  0  0 15  0  0  0  0  0  0
   65.9694   -0.5989    2.2020 C   0  0  0  0  0 15  0  0  0  0  0  0
   66.9474   -1.1232    1.1757 C   0  0  0  0  0 15  0  0  0  0  0  0
   68.1314   -1.1890    1.4627 O   0  0  0  0  0 15  0  0  0  0  0  0
   65.2584   -1.8207    2.8560 C   0  0  0  0  0 15  0  0  0  0  0  0
   64.3044   -1.4285    4.0187 C   0  0  0  0  0 15  0  0  0  0  0  0
   65.1374   -0.4735    5.3340 S   0  0  0  0  0 15  0  0  0  0  0  0
   66.2934   -1.7029    6.0229 C   0  0  0  0  0 15  0  0  0  0  0  0
   66.5264   -0.0403    2.9727 H   0  0  0  0  0 15  0  0  0  0  0  0
   64.0594    0.0979    1.5409 H   0  0  0  0  0 15  0  0  0  0  0  0
   66.0174   -2.5218    3.2390 H   0  0  0  0  0 15  0  0  0  0  0  0
   64.6784   -2.3505    2.0835 H   0  0  0  0  0 15  0  0  0  0  0  0
   63.8714   -2.3387    4.4645 H   0  0  0  0  0 15  0  0  0  0  0  0
   63.4734   -0.8072    3.6519 H   0  0  0  0  0 15  0  0  0  0  0  0
   65.7654   -2.6417    6.2388 H   0  0  0  0  0 15  0  0  0  0  0  0
   66.7084   -1.2993    6.9608 H   0  0  0  0  0 15  0  0  0  0  0  0
   67.1164   -1.8854    5.3208 H   0  0  0  0  0 15  0  0  0  0  0  0
   66.5145   -1.5754    0.0418 N   0  0  0  0  0 15  0  0  0  0  0  0
   67.4245   -2.1445   -0.9512 C   0  0  0  0  0 15  0  0  0  0  0  0
   68.4405   -1.0999   -1.3482 C   0  0  0  0  0 15  0  0  0  0  0  0
   69.6165   -1.4211   -1.4271 O   0  0  0  0  0 15  0  0  0  0  0  0
   66.6815   -2.6706   -2.2108 C   0  0  0  0  0 15  0  0  0  0  0  0
   65.7425   -3.8628   -1.8730 C   0  0  0  0  0 15  0  0  0  0  0  0
   64.9755   -4.3638   -3.0726 C   0  0  0  0  0 15  0  0  0  0  0  0
   65.1985   -3.8559   -4.2033 O   0  0  0  0  0 15  0  0  0  0  0  0
   64.1325   -5.2808   -2.8882 O   0  0  0  0  0 15  0  0  0  0  0  0
   67.9585   -2.9960   -0.4973 H   0  0  0  0  0 15  0  0  0  0  0  0
   65.5435   -1.4832   -0.1796 H   0  0  0  0  0 15  0  0  0  0  0  0
   67.4255   -3.0091   -2.9501 H   0  0  0  0  0 15  0  0  0  0  0  0
   66.1005   -1.8499   -2.6563 H   0  0  0  0  0 15  0  0  0  0  0  0
   65.0075   -3.5734   -1.1073 H   0  0  0  0  0 15  0  0  0  0  0  0
   66.3405   -4.6956   -1.4756 H   0  0  0  0  0 15  0  0  0  0  0  0
   67.9926    0.2315   -1.5589 N   0  0  0  0  0 15  0  0  0  0  0  0
   68.9556    1.2703   -1.9078 C   0  0  0  0  0 15  0  0  0  0  0  0
   69.9556    1.4031   -0.7855 C   0  0  0  0  0 15  0  0  0  0  0  0
   71.1456    1.3874   -1.0534 O   0  0  0  0  0 15  0  0  0  0  0  0
   68.2776    2.6457   -2.1498 C   0  0  0  0  0 15  0  0  0  0  0  0
   69.4706    0.9730   -2.8368 H   0  0  0  0  0 15  0  0  0  0  0  0
   67.0236    0.4715   -1.4902 H   0  0  0  0  0 15  0  0  0  0  0  0
   67.7586    2.9941   -1.2460 H   0  0  0  0  0 15  0  0  0  0  0  0
   67.5436    2.5631   -2.9673 H   0  0  0  0  0 15  0  0  0  0  0  0
   69.0336    3.3954   -2.4311 H   0  0  0  0  0 15  0  0  0  0  0  0
   69.4707    1.4953    0.4978 N   0  0  0  0  0 15  0  0  0  0  0  0
   70.4337    1.6592    1.5813 C   0  0  0  0  0 15  0  0  0  0  0  0
   71.4337    0.5308    1.5179 C   0  0  0  0  0 15  0  0  0  0  0  0
   72.6237    0.7973    1.5488 O   0  0  0  0  0 15  0  0  0  0  0  0
   69.7557    1.6595    2.9778 C   0  0  0  0  0 15  0  0  0  0  0  0
   70.9487    2.6256    1.4493 H   0  0  0  0  0 15  0  0  0  0  0  0
   68.5017    1.3861    0.7223 H   0  0  0  0  0 15  0  0  0  0  0  0
   69.2367    0.7091    3.1645 H   0  0  0  0  0 15  0  0  0  0  0  0
   69.0217    2.4790    3.0379 H   0  0  0  0  0 15  0  0  0  0  0  0
   70.5117    1.8067    3.7649 H   0  0  0  0  0 15  0  0  0  0  0  0
   70.9488   -0.7491    1.3866 N   0  0  0  0  0 15  0  0  0  0  0  0
   72.1888   -1.5211    1.3653 C   0  0  0  0  0 15  0  0  0  0  0  0
   72.5528   -1.9195   -0.0432 C   0  0  0  0  0 15  0  0  0  0  0  0
   73.7538   -2.6813   -0.1894 O   0  0  0  0  0 15  0  0  0  0  0  0
   72.0248   -2.7370    2.2983 C   0  0  0  0  0 15  0  0  0  0  0  0
   73.5838   -3.6352    2.4576 S   0  0  0  0  0 15  0  0  0  0  0  0
   70.4018   -0.5205    0.4844 H   0  0  0  0  0 15  0  0  0  0  0  0
   73.0038   -0.8790    1.7463 H   0  0  0  0  0 15  0  0  0  0  0  0
   71.7078   -2.4255    3.3105 H   0  0  0  0  0 15  0  0  0  0  0  0
   71.2388   -3.4286    1.9290 H   0  0  0  0  0 15  0  0  0  0  0  0
   73.2538   -4.6671    1.6850 H   0  0  0  0  0 15  0  0  0  0  0  0
   72.4269   -1.2360   -0.9778 N   0  0  0  0  0 15  0  0  0  0  0  0
   73.6549   -1.0965   -1.7546 C   0  0  0  0  0 15  0  0  0  0  0  0
   74.0699    0.3519   -1.8549 C   0  0  0  0  0 15  0  0  0  0  0  0
   73.4269    1.2433   -1.3360 O   0  0  0  0  0 15  0  0  0  0  0  0
   73.4779   -1.7190   -3.1802 C   0  0  0  0  0 15  0  0  0  0  0  0
   73.1989   -3.1106   -3.0850 O   0  0  0  0  0 15  0  0  0  0  0  0
   74.6999   -1.6341   -4.1208 C   0  0  0  0  0 15  0  0  0  0  0  0
   71.9199   -0.3836   -0.5505 H   0  0  0  0  0 15  0  0  0  0  0  0
   74.4639   -1.6351   -1.2282 H   0  0  0  0  0 15  0  0  0  0  0  0
   72.6189   -1.2206   -3.6767 H   0  0  0  0  0 15  0  0  0  0  0  0
   73.0329   -3.4130   -3.9826 H   0  0  0  0  0 15  0  0  0  0  0  0
   74.5069   -2.1167   -5.0980 H   0  0  0  0  0 15  0  0  0  0  0  0
   74.9839   -0.5935   -4.3517 H   0  0  0  0  0 15  0  0  0  0  0  0
   75.5899   -2.1263   -3.6833 H   0  0  0  0  0 15  0  0  0  0  0  0
   73.9050    1.1769   -1.0482 N   0  0  0  0  0 15  0  0  0  0  0  0
   75.1520    1.8786   -0.7560 C   0  0  0  0  0 15  0  0  0  0  0  0
   75.4800    1.8081    0.7168 C   0  0  0  0  0 15  0  0  0  0  0  0
   74.7350    1.2082    1.5395 O   0  0  0  0  0 15  0  0  0  0  0  0
   75.0340    3.3746   -1.1770 C   0  0  0  0  0 15  0  0  0  0  0  0
   74.7000    3.6471   -2.6513 C   0  0  0  0  0 15  0  0  0  0  0  0
   73.3620    3.7186   -3.0541 C   0  0  0  0  0 15  0  0  0  0  0  0
   75.7140    3.7649   -3.6042 C   0  0  0  0  0 15  0  0  0  0  0  0
   73.0420    3.8827   -4.3984 C   0  0  0  0  0 15  0  0  0  0  0  0
   75.3940    3.9442   -4.9459 C   0  0  0  0  0 15  0  0  0  0  0  0
   74.0580    3.9981   -5.3452 C   0  0  0  0  0 15  0  0  0  0  0  0
   73.3280    0.6874   -0.2766 H   0  0  0  0  0 15  0  0  0  0  0  0
   75.9750    1.3925   -1.3145 H   0  0  0  0  0 15  0  0  0  0  0  0
   74.2800    3.8810   -0.5374 H   0  0  0  0  0 15  0  0  0  0  0  0
   75.9770    3.9011   -0.9282 H   0  0  0  0  0 15  0  0  0  0  0  0
   72.5670    3.5977   -2.3294 H   0  0  0  0  0 15  0  0  0  0  0  0
   76.7510    3.7029   -3.3045 H   0  0  0  0  0 15  0  0  0  0  0  0
   72.0070    3.9069   -4.7029 H   0  0  0  0  0 15  0  0  0  0  0  0
   76.1810    4.0248   -5.6832 H   0  0  0  0  0 15  0  0  0  0  0  0
   73.8080    4.1228   -6.3870 H   0  0  0  0  0 15  0  0  0  0  0  0
   75.3831    0.8287    1.3406 N   0  0  0  0  0 15  0  0  0  0  0  0
   76.6111    0.4326    2.0233 C   0  0  0  0  0 15  0  0  0  0  0  0
   77.0261   -0.9631    1.6239 C   0  0  0  0  0 15  0  0  0  0  0  0
   76.3831   -1.6243    0.8321 O   0  0  0  0  0 15  0  0  0  0  0  0
   76.4341    0.5318    3.5757 C   0  0  0  0  0 15  0  0  0  0  0  0
   76.1551    1.8726    3.9606 O   0  0  0  0  0 15  0  0  0  0  0  0
   77.6561    0.1314    4.4311 C   0  0  0  0  0 15  0  0  0  0  0  0
   74.8761    0.1729    0.6483 H   0  0  0  0  0 15  0  0  0  0  0  0
   77.4201    1.1184    1.7121 H   0  0  0  0  0 15  0  0  0  0  0  0
   75.5751   -0.1059    3.8726 H   0  0  0  0  0 15  0  0  0  0  0  0
   75.9891    1.8509    4.9076 H   0  0  0  0  0 15  0  0  0  0  0  0
   77.4631    0.2519    5.5142 H   0  0  0  0  0 15  0  0  0  0  0  0
   77.9401   -0.9256    4.2933 H   0  0  0  0  0 15  0  0  0  0  0  0
   78.5461    0.7432    4.1876 H   0  0  0  0  0 15  0  0  0  0  0  0
   76.8612   -1.4637    0.5841 N   0  0  0  0  0 15  0  0  0  0  0  0
   77.7912   -2.3310   -0.1360 C   0  0  0  0  0 15  0  0  0  0  0  0
   78.7722   -1.4543   -0.8823 C   0  0  0  0  0 15  0  0  0  0  0  0
   79.9572   -1.7425   -0.8574 O   0  0  0  0  0 15  0  0  0  0  0  0
   77.0872   -3.2773   -1.1493 C   0  0  0  0  0 15  0  0  0  0  0  0
   76.0412   -4.2486   -0.5179 C   0  0  0  0  0 15  0  0  0  0  0  0
   75.3672   -5.0900   -1.6377 C   0  0  0  0  0 15  0  0  0  0  0  0
   76.6672   -5.1944    0.5459 C   0  0  0  0  0 15  0  0  0  0  0  0
   78.3612   -2.9357    0.5881 H   0  0  0  0  0 15  0  0  0  0  0  0
   75.9072   -1.4117    0.2843 H   0  0  0  0  0 15  0  0  0  0  0  0
   77.8602   -3.8726   -1.6615 H   0  0  0  0  0 15  0  0  0  0  0  0
   76.5842   -2.6538   -1.9038 H   0  0  0  0  0 15  0  0  0  0  0  0
   75.2432   -3.6659   -0.0267 H   0  0  0  0  0 15  0  0  0  0  0  0
   74.8912   -4.4303   -2.3819 H   0  0  0  0  0 15  0  0  0  0  0  0
   74.5912   -5.7478   -1.2208 H   0  0  0  0  0 15  0  0  0  0  0  0
   76.1152   -5.7140   -2.1527 H   0  0  0  0  0 15  0  0  0  0  0  0
   77.5292   -5.7318    0.1187 H   0  0  0  0  0 15  0  0  0  0  0  0
   75.9262   -5.9357    0.8832 H   0  0  0  0  0 15  0  0  0  0  0  0
   76.9962   -4.6328    1.4316 H   0  0  0  0  0 15  0  0  0  0  0  0
   78.3393   -0.3220   -1.5428 N   0  0  0  0  0 15  0  0  0  0  0  0
   79.7503    0.1664   -1.8596 C   0  0  0  0  0 15  0  0  0  0  0  0
   80.1013    1.5175   -1.2437 C   0  0  0  0  0 15  0  0  0  0  0  0
   79.2263    2.0932   -0.5491 O   0  0  0  0  0 15  0  0  0  0  0  0
   79.8213    0.3087   -3.3739 C   0  0  0  0  0 15  0  0  0  0  0  0
   78.3803    0.7413   -3.6903 C   0  0  0  0  0 15  0  0  0  0  0  0
   77.5273   -0.1379   -2.7696 C   0  0  0  0  0 15  0  0  0  0  0  0
   80.4783   -0.5423   -1.4915 H   0  0  0  0  0 15  0  0  0  0  0  0
   80.4993    1.1398   -3.6303 H   0  0  0  0  0 15  0  0  0  0  0  0
   80.0113   -0.6748   -3.8219 H   0  0  0  0  0 15  0  0  0  0  0  0
   78.1123    1.7346   -3.2976 H   0  0  0  0  0 15  0  0  0  0  0  0
   78.2253    0.5461   -4.7598 H   0  0  0  0  0 15  0  0  0  0  0  0
   76.5893    0.3863   -2.5175 H   0  0  0  0  0 15  0  0  0  0  0  0
   77.3723   -1.1182   -3.2458 H   0  0  0  0  0 15  0  0  0  0  0  0
   79.8174    1.5752   -0.0501 N   0  0  0  0  0 15  0  0  0  0  0  0
   81.0654    1.9227    0.6226 C   0  0  0  0  0 15  0  0  0  0  0  0
   81.3864    0.9291    1.7144 C   0  0  0  0  0 15  0  0  0  0  0  0
   80.6564   -0.0262    1.9588 O   0  0  0  0  0 15  0  0  0  0  0  0
   79.2364    0.7097    0.2330 H   0  0  0  0  0 15  0  0  0  0  0  0
   81.8984    1.9463   -0.1029 H   0  0  0  0  0 15  0  0  0  0  0  0
   80.9944    2.9348    1.0619 H   0  0  0  0  0 15  0  0  0  0  0  0
   81.2955   -0.2232    1.5601 N   0  0  0  0  0 15  0  0  0  0  0  0
   82.5435   -0.9460    1.7859 C   0  0  0  0  0 15  0  0  0  0  0  0
   82.8645   -1.8494    0.6183 C   0  0  0  0  0 15  0  0  0  0  0  0
   82.1345   -1.9247   -0.3648 O   0  0  0  0  0 15  0  0  0  0  0  0
   80.7145   -0.3523    0.6587 H   0  0  0  0  0 15  0  0  0  0  0  0
   83.3765   -0.2355    1.9347 H   0  0  0  0  0 15  0  0  0  0  0  0
   82.4725   -1.5538    2.7067 H   0  0  0  0  0 15  0  0  0  0  0  0
   82.7736   -1.4979   -0.4899 N   0  0  0  0  0 15  0  0  0  0  0  0
   84.0216   -1.5953   -1.2408 C   0  0  0  0  0 15  0  0  0  0  0  0
   84.3426   -0.2890   -1.9285 C   0  0  0  0  0 15  0  0  0  0  0  0
   83.6126    0.6924   -1.8325 O   0  0  0  0  0 15  0  0  0  0  0  0
   82.1926   -0.5878   -0.4610 H   0  0  0  0  0 15  0  0  0  0  0  0
   84.8546   -1.8648   -0.5668 H   0  0  0  0  0 15  0  0  0  0  0  0
   83.9506   -2.3970   -1.9988 H   0  0  0  0  0 15  0  0  0  0  0  0
   84.2517    0.7417   -1.3905 N   0  0  0  0  0 15  0  0  0  0  0  0
   85.4997    1.4982   -1.3564 C   0  0  0  0  0 15  0  0  0  0  0  0
   85.8207    1.9494    0.0492 C   0  0  0  0  0 15  0  0  0  0  0  0
   85.0907    1.6851    0.9991 O   0  0  0  0  0 15  0  0  0  0  0  0
   83.6707    0.5558   -0.4991 H   0  0  0  0  0 15  0  0  0  0  0  0
   86.3327    0.8810   -1.7385 H   0  0  0  0  0 15  0  0  0  0  0  0
   85.4287    2.3835   -2.0149 H   0  0  0  0  0 15  0  0  0  0  0  0
   85.7298    1.2412    0.9712 N   0  0  0  0  0 15  0  0  0  0  0  0
   86.9758    1.0804    1.7162 C   0  0  0  0  0 15  0  0  0  0  0  0
   87.3088   -0.3804    1.9044 C   0  0  0  0  0 15  0  0  0  0  0  0
   86.5838   -1.2813    1.4633 O   0  0  0  0  0 15  0  0  0  0  0  0
   86.8668    1.8168    3.1091 C   0  0  0  0  0 15  0  0  0  0  0  0
   86.7198    3.3549    2.9961 C   0  0  0  0  0 15  0  0  0  0  0  0
   88.0388    1.5867    4.1050 C   0  0  0  0  0 15  0  0  0  0  0  0
   85.1578    0.3939    0.6229 H   0  0  0  0  0 15  0  0  0  0  0  0
   87.7998    1.5274    1.1300 H   0  0  0  0  0 15  0  0  0  0  0  0
   85.9498    1.4368    3.6095 H   0  0  0  0  0 15  0  0  0  0  0  0
   87.6218    3.8307    2.5702 H   0  0  0  0  0 15  0  0  0  0  0  0
   85.8648    3.6405    2.3590 H   0  0  0  0  0 15  0  0  0  0  0  0
   86.5358    3.8222    3.9826 H   0  0  0  0  0 15  0  0  0  0  0  0
   89.0118    1.9172    3.6930 H   0  0  0  0  0 15  0  0  0  0  0  0
   87.8878    2.1266    5.0603 H   0  0  0  0  0 15  0  0  0  0  0  0
   88.1488    0.5242    4.3898 H   0  0  0  0  0 15  0  0  0  0  0  0
   87.2079   -1.1713    1.0544 N   0  0  0  0  0 15  0  0  0  0  0  0
   88.4479   -1.8914    0.7750 C   0  0  0  0  0 15  0  0  0  0  0  0
   88.8119   -1.7934   -0.6855 C   0  0  0  0  0 15  0  0  0  0  0  0
   90.0129   -2.4619   -1.0791 O   0  0  0  0  0 15  0  0  0  0  0  0
   88.2839   -3.3500    1.2453 C   0  0  0  0  0 15  0  0  0  0  0  0
   89.8429   -4.2495    1.0937 S   0  0  0  0  0 15  0  0  0  0  0  0
   86.6609   -0.6529    0.2814 H   0  0  0  0  0 15  0  0  0  0  0  0
   89.2629   -1.4145    1.3495 H   0  0  0  0  0 15  0  0  0  0  0  0
   87.9669   -3.3967    2.3034 H   0  0  0  0  0 15  0  0  0  0  0  0
   87.4979   -3.8774    0.6652 H   0  0  0  0  0 15  0  0  0  0  0  0
   89.5129   -4.9620    0.0193 H   0  0  0  0  0 15  0  0  0  0  0  0
   88.6860   -0.8358   -1.3361 N   0  0  0  0  0 15  0  0  0  0  0  0
   89.9140   -0.4433   -2.0209 C   0  0  0  0  0 15  0  0  0  0  0  0
   90.3290    0.9545   -1.6289 C   0  0  0  0  0 15  0  0  0  0  0  0
   89.6860    1.6198   -0.8407 O   0  0  0  0  0 15  0  0  0  0  0  0
   89.7370   -0.5508   -3.5728 C   0  0  0  0  0 15  0  0  0  0  0  0
   89.4580   -1.8936   -3.9506 O   0  0  0  0  0 15  0  0  0  0  0  0
   90.9590   -0.1549   -4.4303 C   0  0  0  0  0 15  0  0  0  0  0  0
   88.1790   -0.1764   -0.6474 H   0  0  0  0  0 15  0  0  0  0  0  0
   90.7230   -1.1275   -1.7061 H   0  0  0  0  0 15  0  0  0  0  0  0
   88.8780    0.0854   -3.8731 H   0  0  0  0  0 15  0  0  0  0  0  0
   89.2920   -1.8769   -4.8977 H   0  0  0  0  0 15  0  0  0  0  0  0
   90.7660   -0.2811   -5.5128 H   0  0  0  0  0 15  0  0  0  0  0  0
   91.2430    0.9029   -4.2982 H   0  0  0  0  0 15  0  0  0  0  0  0
   91.8490   -0.7654   -4.1836 H   0  0  0  0  0 15  0  0  0  0  0  0
   90.1641    1.4606   -0.5919 N   0  0  0  0  0 15  0  0  0  0  0  0
   91.0941    2.3317    0.1237 C   0  0  0  0  0 15  0  0  0  0  0  0
   92.0751    1.4590    0.8745 C   0  0  0  0  0 15  0  0  0  0  0  0
   93.2601    1.7470    0.8482 O   0  0  0  0  0 15  0  0  0  0  0  0
   90.3901    3.2834    1.1319 C   0  0  0  0  0 15  0  0  0  0  0  0
   89.3441    4.2512    0.4953 C   0  0  0  0  0 15  0  0  0  0  0  0
   88.6701    5.0986    1.6107 C   0  0  0  0  0 15  0  0  0  0  0  0
   89.9701    5.1914   -0.5734 C   0  0  0  0  0 15  0  0  0  0  0  0
   91.6641    2.9325   -0.6036 H   0  0  0  0  0 15  0  0  0  0  0  0
   89.2101    1.4101   -0.2917 H   0  0  0  0  0 15  0  0  0  0  0  0
   91.1631    3.8814    1.6410 H   0  0  0  0  0 15  0  0  0  0  0  0
   89.8871    2.6638    1.8897 H   0  0  0  0  0 15  0  0  0  0  0  0
   88.5461    3.6660    0.0073 H   0  0  0  0  0 15  0  0  0  0  0  0
   88.1941    4.4429    2.3583 H   0  0  0  0  0 15  0  0  0  0  0  0
   87.8941    5.7542    1.1903 H   0  0  0  0  0 15  0  0  0  0  0  0
   89.4181    5.7253    2.1223 H   0  0  0  0  0 15  0  0  0  0  0  0
   90.8321    5.7311   -0.1491 H   0  0  0  0  0 15  0  0  0  0  0  0
   89.2291    5.9309   -0.9146 H   0  0  0  0  0 15  0  0  0  0  0  0
   90.2991    4.6252   -1.4562 H   0  0  0  0  0 15  0  0  0  0  0  0
   91.6422    0.3302    1.5410 N   0  0  0  0  0 15  0  0  0  0  0  0
   92.8702   -0.2722    2.0510 C   0  0  0  0  0 15  0  0  0  0  0  0
   93.2852   -1.4527    1.2059 C   0  0  0  0  0 15  0  0  0  0  0  0
   92.6422   -1.8094    0.2381 O   0  0  0  0  0 15  0  0  0  0  0  0
   92.6932   -0.7002    3.5465 C   0  0  0  0  0 15  0  0  0  0  0  0
   92.4142    0.4333    4.3595 O   0  0  0  0  0 15  0  0  0  0  0  0
   93.9152   -1.3647    4.2177 C   0  0  0  0  0 15  0  0  0  0  0  0
   91.1352   -0.0549    0.6687 H   0  0  0  0  0 15  0  0  0  0  0  0
   93.6792    0.4783    1.9883 H   0  0  0  0  0 15  0  0  0  0  0  0
   91.8342   -1.4007    3.6119 H   0  0  0  0  0 15  0  0  0  0  0  0
   92.2482    0.0948    5.2441 H   0  0  0  0  0 15  0  0  0  0  0  0
   93.7222   -1.6151    5.2784 H   0  0  0  0  0 15  0  0  0  0  0  0
   94.1992   -2.3141    3.7329 H   0  0  0  0  0 15  0  0  0  0  0  0
   94.8052   -0.7067    4.1939 H   0  0  0  0  0 15  0  0  0  0  0  0
   93.1203   -1.5749    0.0585 N   0  0  0  0  0 15  0  0  0  0  0  0
   94.3453   -1.9771   -0.6265 C   0  0  0  0  0 15  0  0  0  0  0  0
   94.7703   -0.9361   -1.6315 C   0  0  0  0  0 15  0  0  0  0  0  0
   94.1283    0.0998   -1.8103 O   0  0  0  0  0 15  0  0  0  0  0  0
   94.1763   -3.3699   -1.2834 C   0  0  0  0  0 15  0  0  0  0  0  0
   93.2803   -3.3543   -2.3991 O   0  0  0  0  0 15  0  0  0  0  0  0
   92.6213   -0.6439   -0.1623 H   0  0  0  0  0 15  0  0  0  0  0  0
   95.1513   -2.0419    0.1291 H   0  0  0  0  0 15  0  0  0  0  0  0
   95.1613   -3.7388   -1.6333 H   0  0  0  0  0 15  0  0  0  0  0  0
   93.8363   -4.1229   -0.5469 H   0  0  0  0  0 15  0  0  0  0  0  0
   92.4133   -3.1030   -2.0681 H   0  0  0  0  0 15  0  0  0  0  0  0
   94.5984    0.2150   -1.5613 N   0  0  0  0  0 15  0  0  0  0  0  0
   95.5084    1.2873   -1.9613 C   0  0  0  0  0 15  0  0  0  0  0  0
   96.5244    1.5092   -0.8660 C   0  0  0  0  0 15  0  0  0  0  0  0
   97.7004    1.6392   -1.1702 O   0  0  0  0  0 15  0  0  0  0  0  0
   94.7654    2.6157   -2.2756 C   0  0  0  0  0 15  0  0  0  0  0  0
   93.8264    2.4763   -3.5069 C   0  0  0  0  0 15  0  0  0  0  0  0
   93.0594    3.7413   -3.8061 C   0  0  0  0  0 15  0  0  0  0  0  0
   93.2824    4.7744   -3.1210 O   0  0  0  0  0 15  0  0  0  0  0  0
   92.2164    3.7085   -4.7408 O   0  0  0  0  0 15  0  0  0  0  0  0
   96.0424    0.9779   -2.8753 H   0  0  0  0  0 15  0  0  0  0  0  0
   93.6274    0.4184   -1.4342 H   0  0  0  0  0 15  0  0  0  0  0  0
   95.5094    3.4001   -2.4894 H   0  0  0  0  0 15  0  0  0  0  0  0
   94.1844    2.9218   -1.3933 H   0  0  0  0  0 15  0  0  0  0  0  0
   93.0914    1.6736   -3.3458 H   0  0  0  0  0 15  0  0  0  0  0  0
   94.4244    2.2195   -4.3931 H   0  0  0  0  0 15  0  0  0  0  0  0
   96.0765    1.5005    0.4819 N   0  0  0  0  0 15  0  0  0  0  0  0
   97.3165    1.6213    1.2447 C   0  0  0  0  0 15  0  0  0  0  0  0
   97.6805    0.3097    1.8949 C   0  0  0  0  0 15  0  0  0  0  0  0
   98.8815    0.3059    2.6705 O   0  0  0  0  0 15  0  0  0  0  0  0
   97.1525    2.7615    2.2688 C   0  0  0  0  0 15  0  0  0  0  0  0
   98.7115    3.0830    3.1225 S   0  0  0  0  0 15  0  0  0  0  0  0
   95.5295    0.5717    0.4228 H   0  0  0  0  0 15  0  0  0  0  0  0
   98.1315    1.8779    0.5436 H   0  0  0  0  0 15  0  0  0  0  0  0
   96.8355    3.6994    1.7768 H   0  0  0  0  0 15  0  0  0  0  0  0
   96.3665    2.5254    3.0164 H   0  0  0  0  0 15  0  0  0  0  0  0
   98.3815    2.5129    4.2787 H   0  0  0  0  0 15  0  0  0  0  0  0
   97.5546   -0.7343    1.3945 N   0  0  0  0  0 15  0  0  0  0  0  0
   98.8036   -1.4894    1.3602 C   0  0  0  0  0 15  0  0  0  0  0  0
   99.1166   -1.9556   -0.0409 C   0  0  0  0  0 15  0  0  0  0  0  0
  100.3226   -2.7078   -0.1978 O   0  0  0  0  0 15  0  0  0  0  0  0
   98.7786   -2.6913    2.3896 C   0  0  0  0  0 15  0  0  0  0  0  0
   98.3866   -2.2945    3.8478 C   0  0  0  0  0 15  0  0  0  0  0  0
  100.1306   -3.4694    2.4460 C   0  0  0  0  0 15  0  0  0  0  0  0
   98.0376   -3.4637    4.7936 C   0  0  0  0  0 15  0  0  0  0  0  0
   96.9676   -0.5593    0.5057 H   0  0  0  0  0 15  0  0  0  0  0  0
   99.6186   -0.8010    1.6510 H   0  0  0  0  0 15  0  0  0  0  0  0
   98.0006   -3.4004    2.0295 H   0  0  0  0  0 15  0  0  0  0  0  0
   99.1746   -1.6608    4.2983 H   0  0  0  0  0 15  0  0  0  0  0  0
   97.4896   -1.6472    3.8243 H   0  0  0  0  0 15  0  0  0  0  0  0
  100.0866   -4.3391    3.1246 H   0  0  0  0  0 15  0  0  0  0  0  0
  100.4296   -3.8945    1.4708 H   0  0  0  0  0 15  0  0  0  0  0  0
  100.9626   -2.8306    2.7951 H   0  0  0  0  0 15  0  0  0  0  0  0
   97.7016   -3.0890    5.7815 H   0  0  0  0  0 15  0  0  0  0  0  0
   97.2216   -4.0872    4.3899 H   0  0  0  0  0 15  0  0  0  0  0  0
   98.9006   -4.1269    4.9829 H   0  0  0  0  0 15  0  0  0  0  0  0
   99.0327   -1.2463   -0.9646 N   0  0  0  0  0 15  0  0  0  0  0  0
  100.2727   -1.0998   -1.7229 C   0  0  0  0  0 15  0  0  0  0  0  0
  100.6367    0.3548   -1.8869 C   0  0  0  0  0 15  0  0  0  0  0  0
  101.8377    0.6229   -2.6148 O   0  0  0  0  0 15  0  0  0  0  0  0
  100.1087   -1.8226   -3.0743 C   0  0  0  0  0 15  0  0  0  0  0  0
  101.6677   -1.8338   -3.9864 S   0  0  0  0  0 15  0  0  0  0  0  0
   98.4857   -0.3933   -0.5923 H   0  0  0  0  0 15  0  0  0  0  0  0
  101.0877   -1.5801   -1.1512 H   0  0  0  0  0 15  0  0  0  0  0  0
   99.7917   -2.8721   -2.9316 H   0  0  0  0  0 15  0  0  0  0  0  0
   99.3227   -1.3458   -3.6966 H   0  0  0  0  0 15  0  0  0  0  0  0
  101.3377   -0.9037   -4.8790 H   0  0  0  0  0 15  0  0  0  0  0  0
  100.5497    1.0971   -1.1851 O   0  0  0  0  0 15  0  0  0  0  0  0
  101.2407    1.6999   -0.9285 H   0  0  0  0  0 15  0  0  0  0  0  0
M  END
$$$$
