drugbank_target|P43657 Lysophosphatidic acid receptor 6 (DB01069)
 OpenBabel12092121213D

  0  0  0     0  0            999 V3000
M  V30 BEGIN CTAB
M  V30 COUNTS 5594 5663 0 0 0
M  V30 BEGIN ATOM
M  V30 1 H -0.908 1.98254 -0.117106 0
M  V30 2 N 0 1.576 0 0
M  V30 3 C 0.933 2.03868 1.02534 0
M  V30 4 C 1.911 0.928543 1.3348 0
M  V30 5 O 3.095 1.19667 1.45644 0
M  V30 6 C 0.222 2.43627 2.35294 0
M  V30 7 C -0.732 3.65373 2.2001 0
M  V30 8 S 0.101 5.13292 1.52614 0
M  V30 9 C 1.257 5.56322 2.86805 0
M  V30 10 H 1.49 2.90518 0.631377 0
M  V30 11 H -0.977 1.52953 0.210867 0
M  V30 12 H 0.981 2.67203 3.11629 0
M  V30 13 H -0.358 1.57376 2.7183 0
M  V30 14 H -1.165 3.90944 3.18086 0
M  V30 15 H -1.563 3.418 1.51819 0
M  V30 16 H 0.729 5.58782 3.83104 0
M  V30 17 H 1.672 6.56266 2.65933 0
M  V30 18 H 2.08 4.83886 2.90714 0
M  V30 19 N 1.4781 -0.272755 1.55222 0
M  V30 20 C 2.7241 -1.00581 1.761 0
M  V30 21 C 3.0571 -1.85932 0.560625 0
M  V30 22 O 2.3321 -1.89416 -0.441801 0
M  V30 23 C 2.6151 -1.88816 3.06628 0
M  V30 24 C 2.4681 -1.06457 4.37021 0
M  V30 25 C 3.7871 -2.8752 3.33197 0
M  V30 26 H 0.9061 -0.364244 0.640699 0
M  V30 27 H 3.5481 -0.278189 1.87952 0
M  V30 28 H 1.6981 -2.50856 2.96654 0
M  V30 29 H 3.3701 -0.464863 4.58952 0
M  V30 30 H 1.6131 -0.368043 4.32236 0
M  V30 31 H 2.2841 -1.71514 5.24678 0
M  V30 32 H 4.7601 -2.35615 3.42965 0
M  V30 33 H 3.6361 -3.46399 4.25792 0
M  V30 34 H 3.8971 -3.62657 2.52849 0
M  V30 35 N 2.9562 -1.48159 -0.537278 0
M  V30 36 C 4.1812 -1.59707 -1.32319 0
M  V30 37 C 4.6062 -0.254859 -1.86365 0
M  V30 38 O 3.9642 0.772378 -1.64024 0
M  V30 39 C 4.0122 -2.6412 -2.45505 0
M  V30 40 O 3.1162 -2.20774 -3.48328 0
M  V30 41 H 2.4572 -0.535791 -0.392204 0
M  V30 42 H 4.9872 -1.94092 -0.647268 0
M  V30 43 H 4.9972 -2.85166 -2.91795 0
M  V30 44 H 3.6722 -3.61567 -2.05528 0
M  V30 45 H 2.2492 -2.09911 -3.08207 0
M  V30 46 N 4.4343 0.785586 -1.36625 0
M  V30 47 C 5.6803 1.54591 -1.31261 0
M  V30 48 C 6.0133 1.93906 0.106823 0
M  V30 49 O 5.2883 1.63007 1.06108 0
M  V30 50 C 5.5713 2.82038 -2.23889 0
M  V30 51 C 5.4243 2.49066 -3.74548 0
M  V30 52 C 6.7433 3.83887 -2.15217 0
M  V30 53 H 3.8623 0.560846 -0.478143 0
M  V30 54 H 6.5043 0.902278 -1.67209 0
M  V30 55 H 4.6543 3.36961 -1.93363 0
M  V30 56 H 6.3263 2.00164 -4.15611 0
M  V30 57 H 4.5693 1.81954 -3.93796 0
M  V30 58 H 5.2403 3.40109 -4.34776 0
M  V30 59 H 7.7163 3.38421 -2.42096 0
M  V30 60 H 6.5923 4.70806 -2.82193 0
M  V30 61 H 6.8533 4.27131 -1.14068 0
M  V30 62 N 5.9124 1.20967 1.01018 0
M  V30 63 C 6.8604 0.961223 2.1181 0
M  V30 64 C 7.8544 -0.0897034 1.69162 0
M  V30 65 O 9.0604 0.0612271 1.79896 0
M  V30 66 H 5.4354 0.29355 0.692338 0
M  V30 67 H 7.4064 1.90178 2.29946 0
M  V30 68 C 6.1554 0.536854 3.4353 0
M  V30 69 H 5.4784 1.33713 3.76777 0
M  V30 70 H 6.9184 0.402286 4.22087 0
M  V30 71 C 5.3774 -0.751574 3.2841 0
M  V30 72 O 5.9074 -1.80841 3.58691 0
M  V30 73 N 4.1134 -0.716079 2.81639 0
M  V30 74 H 3.6604 0.144236 2.57196 0
M  V30 75 H 3.6184 -1.57847 2.71904 0
M  V30 76 N 7.3905 -1.2043 1.01659 0
M  V30 77 C 8.6155 -1.94318 0.724942 0
M  V30 78 C 9.0405 -1.74266 -0.708034 0
M  V30 79 O 8.3985 -1.03694 -1.48719 0
M  V30 80 C 8.4465 -3.44486 1.06591 0
M  V30 81 O 7.5505 -4.12017 0.177599 0
M  V30 82 H 6.8915 -0.60708 0.26898 0
M  V30 83 H 9.4215 -1.52861 1.35995 0
M  V30 84 H 9.4315 -3.95106 1.01762 0
M  V30 85 H 8.1065 -3.58404 2.10997 0
M  V30 86 H 6.6835 -3.71821 0.283421 0
M  V30 87 N 8.8686 -0.792821 -1.36206 0
M  V30 88 C 10.0936 -0.377701 -2.03932 0
M  V30 89 C 10.5186 0.998947 -1.59382 0
M  V30 90 O 9.8766 1.64421 -0.763903 0
M  V30 91 C 9.9246 -0.453635 -3.57735 0
M  V30 92 O 9.0286 0.538151 -4.08874 0
M  V30 93 H 8.3696 -0.159855 -0.644471 0
M  V30 94 H 10.8996 -1.07488 -1.7409 0
M  V30 95 H 10.9096 -0.318464 -4.06755 0
M  V30 96 H 9.5846 -1.45784 -3.89512 0
M  V30 97 H 8.1616 0.364359 -3.71116 0
M  V30 98 N 10.3467 1.47872 -0.545128 0
M  V30 99 C 11.2967 2.26842 0.229456 0
M  V30 100 C 12.2807 1.33626 0.896267 0
M  V30 101 O 13.4727 1.58063 0.79657 0
M  V30 102 C 10.6017 3.19089 1.26638 0
M  V30 103 C 9.6877 4.19783 0.603598 0
M  V30 104 N 10.0787 5.0479 -0.319405 0
M  V30 105 C 8.3767 4.3765 0.858989 0
M  V30 106 C 9.0777 5.77433 -0.703241 0
M  V30 107 N 8.0537 5.43566 -0.0608309 0
M  V30 108 H 11.8557 2.89947 -0.480391 0
M  V30 109 H 9.3697 1.58263 -0.364209 0
M  V30 110 H 11.3667 3.74337 1.83515 0
M  V30 111 H 10.0267 2.5754 1.97745 0
M  V30 112 H 11.0377 5.13244 -0.692889 0
M  V30 113 H 7.7147 3.87281 1.55948 0
M  V30 114 H 9.1047 6.55824 -1.46098 0
M  V30 115 N 11.8248 0.280983 1.55075 0
M  V30 116 C 13.0648 -0.335234 2.01632 0
M  V30 117 C 13.4288 -1.5261 1.16508 0
M  V30 118 O 14.6298 -2.21235 1.52672 0
M  V30 119 C 12.9008 -0.702172 3.50434 0
M  V30 120 S 14.4598 -1.30409 4.18974 0
M  V30 121 H 11.2778 -0.103967 0.703358 0
M  V30 122 H 13.8798 0.404187 1.91276 0
M  V30 123 H 12.5838 0.17333 4.10034 0
M  V30 124 H 12.1148 -1.4729 3.64786 0
M  V30 125 H 14.1298 -2.59253 4.23087 0
M  V30 126 N 13.3029 -1.57598 0.00835791 0
M  V30 127 C 14.5499 -1.90928 -0.674732 0
M  V30 128 C 14.8779 -0.88277 -1.73313 0
M  V30 129 O 14.1329 0.111294 -1.95383 0
M  V30 130 C 14.4319 -3.3101 -1.34787 0
M  V30 131 C 14.0979 -4.48922 -0.421861 0
M  V30 132 C 12.7599 -4.8091 -0.166927 0
M  V30 133 C 15.1119 -5.20755 0.215211 0
M  V30 134 C 12.4399 -5.821 0.733232 0
M  V30 135 C 14.7919 -6.22905 1.1033 0
M  V30 136 C 13.4559 -6.53346 1.36733 0
M  V30 137 H 12.7259 -0.698656 -0.246902 0
M  V30 138 H 15.3729 -1.91387 0.0656779 0
M  V30 139 H 13.6779 -3.26714 -2.16253 0
M  V30 140 H 15.3749 -3.54061 -1.8826 0
M  V30 141 H 11.9649 -4.23934 -0.630729 0
M  V30 142 H 16.1489 -4.9629 0.0312829 0
M  V30 143 H 11.4049 -6.04042 0.945712 0
M  V30 144 H 15.5789 -6.77694 1.60325 0
M  V30 145 H 13.2059 -7.31573 2.06652 0
M  V30 146 N 14.781 0.264519 -1.55364 0
M  V30 147 C 16.011 1.01153 -1.80143 0
M  V30 148 C 16.419 1.80115 -0.579253 0
M  V30 149 O 15.762 1.77813 0.46132 0
M  V30 150 C 15.824 2.01098 -2.97993 0
M  V30 151 C 15.488 1.40995 -4.34706 0
M  V30 152 C 16.485 0.821316 -5.13372 0
M  V30 153 C 14.17 1.43461 -4.81378 0
M  V30 154 C 16.164 0.265339 -6.36847 0
M  V30 155 C 13.851 0.874771 -6.04807 0
M  V30 156 C 14.849 0.291146 -6.82379 0
M  V30 157 O 14.537 -0.260093 -8.03479 0
M  V30 158 H 14.269 0.304125 -0.603725 0
M  V30 159 H 16.823 0.298089 -2.03225 0
M  V30 160 H 15.053 2.76224 -2.70623 0
M  V30 161 H 16.742 2.61997 -3.1002 0
M  V30 162 H 17.508 0.794903 -4.78442 0
M  V30 163 H 13.387 1.87826 -4.21002 0
M  V30 164 H 16.931 -0.190837 -6.97339 0
M  V30 165 H 12.828 0.898452 -6.39217 0
M  V30 166 H 13.596 -0.150265 -8.18362 0
M  V30 167 N 16.2591 1.48442 0.529413 0
M  V30 168 C 17.2071 1.63452 1.65487 0
M  V30 169 C 18.2011 0.500955 1.61823 0
M  V30 170 O 19.4071 0.679695 1.66674 0
M  V30 171 H 15.7821 0.514905 0.548066 0
M  V30 172 H 17.7531 2.57975 1.49971 0
M  V30 173 C 16.5021 1.69196 3.03756 0
M  V30 174 H 15.8251 2.55784 3.07269 0
M  V30 175 H 17.2651 1.83743 3.82119 0
M  V30 176 C 15.7241 0.430765 3.34135 0
M  V30 177 O 16.2541 -0.4561 3.99102 0
M  V30 178 N 14.4601 0.302293 2.89023 0
M  V30 179 H 14.0071 1.02496 2.36331 0
M  V30 180 H 13.9651 -0.540546 3.09718 0
M  V30 181 N 17.7372 -0.778329 1.37039 0
M  V30 182 C 19.0142 -1.52551 1.22424 0
M  V30 183 C 19.3942 -2.10288 -0.184964 0
M  V30 184 O 18.7422 -1.94953 -1.19187 0
M  V30 185 C 18.9522 -2.61164 2.31504 0
M  V30 186 C 20.3002 -3.28746 2.68721 0
M  V30 187 O 21.3242 -2.71455 2.30631 0
M  V30 188 O 20.1832 -4.3231 3.3432 0
M  V30 189 H 17.2772 -0.675343 0.477326 0
M  V30 190 H 19.8232 -0.815859 1.48801 0
M  V30 191 H 18.5952 -2.16574 3.25901 0
M  V30 192 H 18.2182 -3.39737 2.06554 0
M  V30 193 N 19.2153 -1.21501 -1.00376 0
M  V30 194 C 20.4403 -1.05977 -1.78279 0
M  V30 195 C 20.8653 0.385994 -1.84097 0
M  V30 196 O 20.2233 1.27849 -1.28547 0
M  V30 197 C 20.2713 -1.66302 -3.19963 0
M  V30 198 O 19.3753 -0.909333 -4.0225 0
M  V30 199 H 18.7163 -0.372906 -0.549397 0
M  V30 200 H 21.2463 -1.6107 -1.26165 0
M  V30 201 H 21.2563 -1.70574 -3.70632 0
M  V30 202 H 19.9313 -2.71515 -3.15043 0
M  V30 203 H 18.5083 -0.941795 -3.60811 0
M  V30 204 N 20.6934 1.19889 -1.02296 0
M  V30 205 C 21.9404 1.8942 -0.715972 0
M  V30 206 C 22.2684 1.79251 0.754944 0
M  V30 207 O 21.5234 1.17526 1.56481 0
M  V30 208 C 21.8224 3.39883 -1.10518 0
M  V30 209 C 21.4884 3.70254 -2.57337 0
M  V30 210 C 20.1504 3.78254 -2.97452 0
M  V30 211 C 22.5024 3.84052 -3.52354 0
M  V30 212 C 19.8304 3.97514 -4.31509 0
M  V30 213 C 22.1824 4.04824 -4.86108 0
M  V30 214 C 20.8464 4.11054 -5.25919 0
M  V30 215 H 20.1164 0.693138 -0.261993 0
M  V30 216 H 22.7634 1.42012 -1.28472 0
M  V30 217 H 21.0684 3.8915 -0.454953 0
M  V30 218 H 22.7654 3.9199 -0.845261 0
M  V30 219 H 19.3554 3.64632 -2.25258 0
M  V30 220 H 23.5394 3.77221 -3.22518 0
M  V30 221 H 18.7954 4.00574 -4.61898 0
M  V30 222 H 22.9694 4.14442 -5.59653 0
M  V30 223 H 20.5964 4.2573 -6.29808 0
M  V30 224 N 22.1715 0.800033 1.35784 0
M  V30 225 C 23.1185 0.203848 2.29898 0
M  V30 226 C 24.0885 -0.658375 1.52495 0
M  V30 227 O 25.2735 -0.604832 1.8096 0
M  V30 228 C 22.4135 -0.64688 3.38983 0
M  V30 229 C 21.5265 0.235054 4.3136 0
M  V30 230 C 20.6615 -0.623054 5.27533 0
M  V30 231 C 19.7005 0.259682 6.11549 0
M  V30 232 N 18.8375 -0.558019 6.99879 0
M  V30 233 H 23.6775 1.01186 2.80295 0
M  V30 234 H 21.2145 0.51053 1.37957 0
M  V30 235 H 23.1725 -1.15521 4.00887 0
M  V30 236 H 21.8025 -1.42021 2.89879 0
M  V30 237 H 20.8545 0.861438 3.70518 0
M  V30 238 H 22.1665 0.914768 4.9034 0
M  V30 239 H 21.3205 -1.19678 5.94779 0
M  V30 240 H 20.0595 -1.33636 4.69034 0
M  V30 241 H 19.0645 0.845726 5.43256 0
M  V30 242 H 20.2895 0.970748 6.72126 0
M  V30 243 H 18.2355 -1.25542 6.43875 0
M  V30 244 H 18.1525 0.0637872 7.55973 0
M  V30 245 H 19.4205 -1.11523 7.71481 0
M  V30 246 N 23.6496 -1.47581 0.552962 0
M  V30 247 C 24.8796 -2.06575 0.0320091 0
M  V30 248 C 25.2876 -1.4067 -1.26525 0
M  V30 249 O 24.6306 -0.495808 -1.76883 0
M  V30 250 C 24.6926 -3.58705 -0.238913 0
M  V30 251 C 24.3566 -4.46625 0.968272 0
M  V30 252 C 25.3536 -4.85 1.87274 0
M  V30 253 C 23.0386 -4.88201 1.18175 0
M  V30 254 C 25.0326 -5.63745 2.9744 0
M  V30 255 C 22.7196 -5.66712 2.28651 0
M  V30 256 C 23.7176 -6.04394 3.18114 0
M  V30 257 O 23.4056 -6.81324 4.26676 0
M  V30 258 H 23.1376 -0.674763 0.0408689 0
M  V30 259 H 25.6916 -1.90634 0.764719 0
M  V30 260 H 23.9216 -3.72844 -1.02588 0
M  V30 261 H 25.6106 -3.99735 -0.704731 0
M  V30 262 H 26.3766 -4.53482 1.71984 0
M  V30 263 H 22.2556 -4.58339 0.494593 0
M  V30 264 H 25.7996 -5.93077 3.67296 0
M  V30 265 H 21.6966 -5.97642 2.43915 0
M  V30 266 H 22.4646 -6.99712 4.24671 0
M  V30 267 N 25.1277 -0.289203 -1.54924 0
M  V30 268 C 26.3557 0.326463 -2.04308 0
M  V30 269 C 26.7707 1.48413 -1.16701 0
M  V30 270 O 26.1277 1.81507 -0.190087 0
M  V30 271 C 26.1787 0.794014 -3.52672 0
M  V30 272 O 25.8997 -0.317564 -4.36948 0
M  V30 273 C 27.4007 1.47605 -4.18004 0
M  V30 274 H 24.6207 0.0726272 -0.667058 0
M  V30 275 H 27.1647 -0.425401 -2.00026 0
M  V30 276 H 25.3197 1.49593 -3.57352 0
M  V30 277 H 25.7337 0.0443186 -5.24481 0
M  V30 278 H 27.2077 1.75447 -5.23376 0
M  V30 279 H 27.6847 2.41224 -3.67025 0
M  V30 280 H 28.2907 0.81762 -4.17367 0
M  V30 281 N 26.6058 1.57591 -0.0167156 0
M  V30 282 C 27.5358 2.12496 0.967858 0
M  V30 283 C 28.5168 1.03807 1.34752 0
M  V30 284 O 29.7018 1.31577 1.42833 0
M  V30 285 C 26.8318 2.64194 2.25431 0
M  V30 286 C 25.7858 3.77559 2.01576 0
M  V30 287 C 25.1118 4.15636 3.36379 0
M  V30 288 C 26.4118 5.04151 1.36489 0
M  V30 289 H 28.1058 2.95013 0.510643 0
M  V30 290 H 25.6518 1.41915 0.244181 0
M  V30 291 H 27.6048 3.01236 2.94678 0
M  V30 292 H 26.3288 1.78821 2.73296 0
M  V30 293 H 24.9878 3.40937 1.34751 0
M  V30 294 H 24.6358 3.27263 3.81979 0
M  V30 295 H 24.3358 4.92022 3.21229 0
M  V30 296 H 25.8598 4.5525 4.06915 0
M  V30 297 H 27.2738 5.38857 1.95718 0
M  V30 298 H 25.6708 5.85453 1.31776 0
M  V30 299 H 26.7408 4.83733 0.336219 0
M  V30 300 N 28.0839 -0.256276 1.55502 0
M  V30 301 C 29.3139 -1.00196 1.80677 0
M  V30 302 C 29.7219 -1.79805 0.588797 0
M  V30 303 O 29.0649 -1.78055 -0.451883 0
M  V30 304 C 29.1269 -1.99515 2.99055 0
M  V30 305 C 28.7909 -1.38688 4.35448 0
M  V30 306 C 29.7879 -0.794079 5.138 0
M  V30 307 C 27.4729 -1.40906 4.82132 0
M  V30 308 C 29.4669 -0.231562 6.36979 0
M  V30 309 C 27.1539 -0.842684 6.05262 0
M  V30 310 C 28.1519 -0.254953 6.82524 0
M  V30 311 O 27.8399 0.3027 8.0333 0
M  V30 312 H 27.5719 -0.300919 0.60533 0
M  V30 313 H 30.1259 -0.287307 2.03381 0
M  V30 314 H 28.3559 -2.74785 2.72084 0
M  V30 315 H 30.0449 -2.60349 3.11405 0
M  V30 316 H 30.8109 -0.769519 4.78856 0
M  V30 317 H 26.6899 -1.85591 4.21992 0
M  V30 318 H 30.2339 0.227816 6.97228 0
M  V30 319 H 26.1309 -0.86454 6.39684 0
M  V30 320 H 26.8989 0.193662 8.18271 0
M  V30 321 N 29.562 -1.4872 -0.521534 0
M  V30 322 C 30.81 -1.56857 -1.27437 0
M  V30 323 C 31.131 -0.247982 -1.93417 0
M  V30 324 O 30.401 0.731151 -1.81744 0
M  V30 325 H 28.981 -0.577885 -0.473347 0
M  V30 326 H 31.643 -1.85233 -0.606205 0
M  V30 327 H 30.739 -2.35402 -2.0492 0
M  V30 328 N 31.0401 0.771051 -1.3745 0
M  V30 329 C 32.2801 1.54264 -1.34096 0
M  V30 330 C 32.6441 1.91858 0.0737639 0
M  V30 331 O 33.8451 2.67797 0.23203 0
M  V30 332 C 32.1161 2.77326 -2.25445 0
M  V30 333 S 33.6751 3.67383 -2.39948 0
M  V30 334 H 30.4931 0.528122 -0.476034 0
M  V30 335 H 33.0951 0.906633 -1.73206 0
M  V30 336 H 31.7991 2.47788 -3.27153 0
M  V30 337 H 31.3301 3.45886 -1.87421 0
M  V30 338 H 33.3451 4.69334 -1.61059 0
M  V30 339 N 32.5182 1.22032 0.997298 0
M  V30 340 C 33.4512 0.929735 2.08401 0
M  V30 341 C 34.4292 -0.125681 1.62114 0
M  V30 342 O 35.6132 0.00495409 1.88499 0
M  V30 343 C 32.7402 0.397488 3.3636 0
M  V30 344 C 31.7862 1.4369 4.01566 0
M  V30 345 S 32.6192 3.00874 4.42984 0
M  V30 346 C 33.7752 2.49276 5.74119 0
M  V30 347 H 34.0082 1.84998 2.32729 0
M  V30 348 H 31.5412 1.0509 1.13117 0
M  V30 349 H 33.4992 0.0969846 4.10385 0
M  V30 350 H 32.1602 -0.501571 3.10069 0
M  V30 351 H 31.3532 1.01427 4.93689 0
M  V30 352 H 30.9552 1.68588 3.33847 0
M  V30 353 H 33.2472 1.90242 6.50242 0
M  V30 354 H 34.1902 3.39872 6.21203 0
M  V30 355 H 34.5982 1.90714 5.31308 0
M  V30 356 N 33.9963 -1.19345 1.0293 0
M  V30 357 C 35.2433 -1.89038 0.726008 0
M  V30 358 C 35.5713 -1.79649 -0.745427 0
M  V30 359 O 34.8263 -1.18354 -1.55855 0
M  V30 360 C 35.1253 -3.39292 1.12319 0
M  V30 361 C 34.7913 -3.68885 2.59297 0
M  V30 362 C 33.4533 -3.76671 2.99453 0
M  V30 363 C 35.8053 -3.82178 3.54386 0
M  V30 364 C 33.1333 -3.9522 4.33611 0
M  V30 365 C 35.4853 -4.0224 4.88248 0
M  V30 366 C 34.1493 -4.08259 5.28092 0
M  V30 367 H 33.4193 -0.691739 0.265665 0
M  V30 368 H 36.0663 -1.41328 1.29223 0
M  V30 369 H 34.3713 -3.88903 0.475584 0
M  V30 370 H 36.0683 -3.91536 0.866037 0
M  V30 371 H 32.6583 -3.63433 2.27189 0
M  V30 372 H 36.8423 -3.75505 3.24514 0
M  V30 373 H 32.0983 -3.98119 4.64016 0
M  V30 374 H 36.2723 -4.11468 5.61843 0
M  V30 375 H 33.8993 -4.22384 6.32057 0
M  V30 376 N 35.4744 -0.807222 -1.35358 0
M  V30 377 C 36.6994 -0.399309 -2.0352 0
M  V30 378 C 37.1244 0.981986 -1.60433 0
M  V30 379 O 36.4824 1.63601 -0.781299 0
M  V30 380 C 36.5304 -0.491552 -3.57234 0
M  V30 381 O 35.6344 0.494754 -4.09421 0
M  V30 382 H 34.9754 -0.166682 -0.642739 0
M  V30 383 H 37.5054 -1.09328 -1.72941 0
M  V30 384 H 37.5154 -0.361588 -4.06395 0
M  V30 385 H 36.1904 -1.49907 -3.87944 0
M  V30 386 H 34.7674 0.324977 -3.71481 0
M  V30 387 N 36.9525 1.47285 -0.560781 0
M  V30 388 C 37.8855 2.27009 0.232821 0
M  V30 389 C 38.8635 1.34273 0.917039 0
M  V30 390 O 40.0475 1.63659 0.935315 0
M  V30 391 C 37.1745 3.11406 1.33206 0
M  V30 392 C 36.2205 4.19746 0.756019 0
M  V30 393 S 37.0535 5.34003 -0.400165 0
M  V30 394 C 38.2095 6.21964 0.700805 0
M  V30 395 H 38.4425 2.93971 -0.443683 0
M  V30 396 H 35.9755 1.50446 -0.347181 0
M  V30 397 H 37.9335 3.60601 1.96156 0
M  V30 398 H 36.5945 2.438 1.98041 0
M  V30 399 H 35.7875 4.78541 1.5816 0
M  V30 400 H 35.3895 3.73451 0.202619 0
M  V30 401 H 37.6815 6.58529 1.59202 0
M  V30 402 H 38.6245 7.07941 0.150126 0
M  V30 403 H 39.0325 5.5566 0.995083 0
M  V30 404 N 38.4306 0.297415 1.54768 0
M  V30 405 C 39.6766 -0.313376 2.00364 0
M  V30 406 C 40.0096 -1.53815 1.18553 0
M  V30 407 O 39.2846 -1.92739 0.261103 0
M  V30 408 C 39.5676 -0.673525 3.53745 0
M  V30 409 C 39.4206 0.560133 4.46299 0
M  V30 410 C 40.7396 -1.50143 4.13697 0
M  V30 411 H 37.8586 -0.112428 0.728374 0
M  V30 412 H 40.5006 0.4088 1.8555 0
M  V30 413 H 38.6506 -1.28881 3.665 0
M  V30 414 H 40.3226 1.19863 4.45455 0
M  V30 415 H 38.5656 1.19405 4.17043 0
M  V30 416 H 39.2366 0.26405 5.51368 0
M  V30 417 H 41.7126 -0.981588 4.04356 0
M  V30 418 H 40.5886 -1.72221 5.21182 0
M  V30 419 H 40.8496 -2.48952 3.65343 0
M  V30 420 N 39.9087 -1.5758 0.0250728 0
M  V30 421 C 41.1557 -1.91633 -0.654444 0
M  V30 422 C 41.4837 -0.901103 -1.72367 0
M  V30 423 O 40.7387 0.0905647 -1.9549 0
M  V30 424 C 41.0377 -3.32421 -1.31268 0
M  V30 425 C 40.7037 -4.49344 -0.374223 0
M  V30 426 C 39.3657 -4.8106 -0.115911 0
M  V30 427 C 41.7177 -5.20498 0.270432 0
M  V30 428 C 39.0457 -5.8129 0.79493 0
M  V30 429 C 41.3977 -6.21699 1.1693 0
M  V30 430 C 40.0617 -6.51859 1.43655 0
M  V30 431 H 39.3317 -0.701236 -0.239478 0
M  V30 432 H 41.9787 -1.91307 0.0859734 0
M  V30 433 H 40.2837 -3.28989 -2.12775 0
M  V30 434 H 41.9807 -3.56038 -1.84494 0
M  V30 435 H 38.5707 -4.24579 -0.58573 0
M  V30 436 H 42.7547 -4.96229 0.0839194 0
M  V30 437 H 38.0107 -6.03005 1.00973 0
M  V30 438 H 42.1847 -6.75955 1.67504 0
M  V30 439 H 39.8117 -7.2934 2.144 0
M  V30 440 N 41.3868 0.248026 -1.55636 0
M  V30 441 C 42.6328 0.97767 -1.77678 0
M  V30 442 C 42.9658 1.85016 -0.590135 0
M  V30 443 O 42.2408 1.90095 0.411611 0
M  V30 444 C 42.5238 1.83914 -3.09593 0
M  V30 445 C 42.3768 0.99491 -4.38659 0
M  V30 446 C 43.6958 2.82183 -3.37729 0
M  V30 447 H 40.8148 0.354005 -0.646413 0
M  V30 448 H 43.4568 0.248253 -1.88371 0
M  V30 449 H 41.6068 2.46104 -3.00608 0
M  V30 450 H 43.2788 0.391789 -4.59633 0
M  V30 451 H 41.5218 0.299231 -4.32767 0
M  V30 452 H 42.1928 1.63145 -5.2734 0
M  V30 453 H 44.6688 2.30129 -3.4667 0
M  V30 454 H 43.5448 3.39582 -4.31249 0
M  V30 455 H 43.8058 3.58588 -2.58586 0
M  V30 456 N 42.8649 1.48995 0.513639 0
M  V30 457 C 43.7949 1.67636 1.62544 0
M  V30 458 C 44.7759 0.525087 1.61793 0
M  V30 459 O 45.9609 0.759502 1.78732 0
M  V30 460 C 43.0909 1.73114 3.01079 0
M  V30 461 C 42.0449 2.87905 3.16693 0
M  V30 462 C 41.3709 2.78486 4.56453 0
M  V30 463 C 42.6709 4.29005 2.97913 0
M  V30 464 H 44.3649 2.60716 1.47198 0
M  V30 465 H 41.9109 1.25465 0.706714 0
M  V30 466 H 43.8639 1.84742 3.78746 0
M  V30 467 H 42.5879 0.766241 3.17484 0
M  V30 468 H 41.2469 2.75859 2.41448 0
M  V30 469 H 40.8949 1.7993 4.69717 0
M  V30 470 H 40.5949 3.55523 4.67843 0
M  V30 471 H 42.1189 2.92104 5.36197 0
M  V30 472 H 43.5329 4.41798 3.65359 0
M  V30 473 H 41.9299 5.07166 3.20785 0
M  V30 474 H 42.9999 4.44329 1.94165 0
M  V30 475 N 44.343 -0.763751 1.37857 0
M  V30 476 C 45.591 -1.51957 1.33243 0
M  V30 477 C 45.912 -1.94835 -0.0801709 0
M  V30 478 O 45.182 -1.66894 -1.02582 0
M  V30 479 H 43.762 -0.563626 0.49024 0
M  V30 480 H 46.424 -0.908504 1.7243 0
M  V30 481 H 45.52 -2.41523 1.97669 0
M  V30 482 N 45.8211 -1.22559 -0.990812 0
M  V30 483 C 46.7511 -1.0218 -2.09956 0
M  V30 484 C 47.7321 0.0579394 -1.70001 0
M  V30 485 O 48.9171 -0.104684 -1.93918 0
M  V30 486 C 46.0471 -0.601023 -3.4206 0
M  V30 487 C 45.0011 -1.62694 -3.95872 0
M  V30 488 C 44.3271 -1.06193 -5.24049 0
M  V30 489 C 45.6271 -3.01743 -4.2632 0
M  V30 490 H 47.3211 -1.94916 -2.27262 0
M  V30 491 H 44.8671 -0.938566 -1.09211 0
M  V30 492 H 46.8201 -0.445561 -4.19038 0
M  V30 493 H 45.5441 0.362005 -3.24588 0
M  V30 494 H 44.2031 -1.77021 -3.21028 0
M  V30 495 H 43.8511 -0.0901903 -5.02919 0
M  V30 496 H 43.5511 -1.74732 -5.61019 0
M  V30 497 H 45.0751 -0.918092 -6.03658 0
M  V30 498 H 46.4891 -2.90777 -4.94087 0
M  V30 499 H 44.8861 -3.67425 -4.74467 0
M  V30 500 H 45.9561 -3.51518 -3.34011 0
M  V30 501 N 47.2992 1.18797 -1.03562 0
M  V30 502 C 48.5482 1.87978 -0.731235 0
M  V30 503 C 48.8612 1.80911 0.743671 0
M  V30 504 O 50.0672 2.45407 1.16137 0
M  V30 505 C 48.5232 3.3721 -1.25768 0
M  V30 506 C 48.1312 3.52818 -2.76085 0
M  V30 507 C 49.8752 4.11825 -1.0296 0
M  V30 508 C 47.7822 4.9598 -3.22114 0
M  V30 509 H 46.7122 0.704063 -0.269835 0
M  V30 510 H 49.3632 1.34266 -1.25079 0
M  V30 511 H 47.7452 3.90359 -0.666011 0
M  V30 512 H 48.9192 3.09965 -3.40966 0
M  V30 513 H 47.2342 2.91602 -2.97249 0
M  V30 514 H 49.8312 5.17411 -1.34869 0
M  V30 515 H 50.1742 4.16287 0.0333546 0
M  V30 516 H 50.7072 3.64833 -1.58562 0
M  V30 517 H 47.4462 4.96684 -4.27768 0
M  V30 518 H 46.9662 5.39569 -2.61965 0
M  V30 519 H 48.6452 5.6467 -3.15844 0
M  V30 520 N 48.7773 0.814389 1.34928 0
M  V30 521 C 50.0023 0.410097 2.03305 0
M  V30 522 C 50.4273 -0.973464 1.60951 0
M  V30 523 O 49.7853 -1.63185 0.789964 0
M  V30 524 C 49.8333 0.51049 3.56968 0
M  V30 525 O 48.9373 -0.473035 4.09678 0
M  V30 526 H 48.2783 0.170088 0.641846 0
M  V30 527 H 50.8083 1.10244 1.72358 0
M  V30 528 H 50.8183 0.383135 4.06197 0
M  V30 529 H 49.4933 1.51963 3.87144 0
M  V30 530 H 48.0703 -0.305272 3.71648 0
M  V30 531 N 50.2554 -1.46986 0.568584 0
M  V30 532 C 51.2034 -2.31858 -0.185649 0
M  V30 533 C 52.1974 -1.43624 -0.898249 0
M  V30 534 O 53.4034 -1.60327 -0.818242 0
M  V30 535 H 49.7784 -0.747866 -0.0787399 0
M  V30 536 H 51.7494 -2.93303 0.549191 0
M  V30 537 C 50.4984 -3.26513 -1.19519 0
M  V30 538 H 49.8214 -3.94377 -0.656285 0
M  V30 539 H 51.2614 -3.88707 -1.6936 0
M  V30 540 C 49.7204 -2.50847 -2.24894 0
M  V30 541 O 50.2504 -2.26119 -3.32014 0
M  V30 542 N 48.4564 -2.11656 -1.99124 0
M  V30 543 H 48.0034 -2.31966 -1.12024 0
M  V30 544 H 47.9614 -1.61347 -2.69842 0
M  V30 545 N 51.7335 -0.305618 -1.54608 0
M  V30 546 C 52.9735 0.303114 -2.0214 0
M  V30 547 C 53.3375 1.50737 -1.18921 0
M  V30 548 O 54.5385 2.18778 -1.56172 0
M  V30 549 C 52.8095 0.646332 -3.51507 0
M  V30 550 S 54.3685 1.23727 -4.20995 0
M  V30 551 H 51.1865 0.0927643 -0.704923 0
M  V30 552 H 53.7885 -0.434566 -1.90609 0
M  V30 553 H 52.4925 -0.238541 -4.09706 0
M  V30 554 H 52.0235 1.41468 -3.67084 0
M  V30 555 H 54.0385 2.52489 -4.27158 0
M  V30 556 N 53.2116 1.57565 -0.0334293 0
M  V30 557 C 54.4576 1.92262 0.645226 0
M  V30 558 C 54.7906 0.910543 1.71531 0
M  V30 559 O 54.0656 -0.066099 1.94388 0
M  V30 560 C 54.3486 3.37422 1.2577 0
M  V30 561 C 54.2016 4.49369 0.196891 0
M  V30 562 C 55.5206 3.82628 2.17449 0
M  V30 563 H 52.6396 0.699171 0.233085 0
M  V30 564 H 55.2816 1.89779 -0.0915694 0
M  V30 565 H 53.4316 3.39669 1.88566 0
M  V30 566 H 55.1036 4.59254 -0.433962 0
M  V30 567 H 53.3466 4.31168 -0.477137 0
M  V30 568 H 54.0176 5.47978 0.665124 0
M  V30 569 H 56.4936 3.82145 1.64634 0
M  V30 570 H 55.3696 4.84883 2.57254 0
M  V30 571 H 55.6306 3.18376 3.0674 0
M  V30 572 N 54.6897 -0.239769 1.55765 0
M  V30 573 C 55.6527 -1.28038 1.90103 0
M  V30 574 C 56.6527 -1.40723 0.778055 0
M  V30 575 O 57.8427 -1.39301 1.04599 0
M  V30 576 C 54.9747 -2.65702 2.13577 0
M  V30 577 H 56.1677 -0.988048 2.83157 0
M  V30 578 H 53.7207 -0.479382 1.48767 0
M  V30 579 H 54.4557 -3.00063 1.23015 0
M  V30 580 H 54.2407 -2.57875 2.95369 0
M  V30 581 H 55.7307 -3.40828 2.41301 0
M  V30 582 N 56.1678 -1.49265 -0.50573 0
M  V30 583 C 57.4168 -1.57761 -1.25675 0
M  V30 584 C 57.7298 -0.267371 -1.93764 0
M  V30 585 O 58.9358 -0.230827 -2.70517 0
M  V30 586 C 57.3918 -2.78332 -2.28165 0
M  V30 587 C 56.9998 -4.16096 -1.66037 0
M  V30 588 C 58.7438 -2.96155 -3.04125 0
M  V30 589 C 56.6508 -5.27895 -2.6661 0
M  V30 590 H 55.5808 -0.587391 -0.472745 0
M  V30 591 H 58.2318 -1.75644 -0.53118 0
M  V30 592 H 56.6138 -2.53934 -3.03865 0
M  V30 593 H 57.7878 -4.50612 -0.963622 0
M  V30 594 H 56.1028 -4.03591 -1.02484 0
M  V30 595 H 58.6998 -3.76849 -3.79327 0
M  V30 596 H 59.0428 -2.06534 -3.61455 0
M  V30 597 H 59.5758 -3.2057 -2.35541 0
M  V30 598 H 56.3148 -6.1956 -2.14068 0
M  V30 599 H 55.8348 -4.97839 -3.34539 0
M  V30 600 H 57.5138 -5.57031 -3.29129 0
M  V30 601 N 57.6459 0.756429 -1.3826 0
M  V30 602 C 58.8759 1.54341 -1.3734 0
M  V30 603 C 59.2839 1.89159 0.0393917 0
M  V30 604 O 58.6269 1.5307 1.01565 0
M  V30 605 C 58.6889 2.87238 -2.16182 0
M  V30 606 C 58.3529 2.74973 -3.65019 0
M  V30 607 C 59.3499 2.44962 -4.58574 0
M  V30 608 C 57.0349 2.92515 -4.08338 0
M  V30 609 C 59.0289 2.32642 -5.93428 0
M  V30 610 C 56.7159 2.79815 -5.43274 0
M  V30 611 C 57.7139 2.49921 -6.35632 0
M  V30 612 O 57.4019 2.37275 -7.68086 0
M  V30 613 H 57.1339 0.484281 -0.471643 0
M  V30 614 H 59.6879 0.944152 -1.82414 0
M  V30 615 H 57.9179 3.49342 -1.65822 0
M  V30 616 H 59.6069 3.48731 -2.07705 0
M  V30 617 H 60.3729 2.31081 -4.26412 0
M  V30 618 H 56.2519 3.14781 -3.368 0
M  V30 619 H 59.7959 2.0923 -6.65484 0
M  V30 620 H 55.6929 2.93269 -5.75034 0
M  V30 621 H 56.4609 2.52509 -7.78577 0
M  V30 622 N 59.124 1.23083 0.984299 0
M  V30 623 C 60.373 1.05466 1.71929 0
M  V30 624 C 60.686 -0.409211 1.91272 0
M  V30 625 O 61.892 -0.705226 2.62181 0
M  V30 626 C 60.348 1.83874 3.09384 0
M  V30 627 C 59.956 3.34566 2.97943 0
M  V30 628 C 61.7 1.74734 3.8687 0
M  V30 629 C 59.607 4.05381 4.30605 0
M  V30 630 H 58.537 0.391039 0.644674 0
M  V30 631 H 61.188 1.47013 1.09815 0
M  V30 632 H 59.57 1.35131 3.72231 0
M  V30 633 H 60.744 3.90767 2.44209 0
M  V30 634 H 59.059 3.44476 2.33934 0
M  V30 635 H 61.656 2.24957 4.85076 0
M  V30 636 H 61.999 0.709372 4.10212 0
M  V30 637 H 62.532 2.21067 3.30717 0
M  V30 638 H 59.271 5.09467 4.1246 0
M  V30 639 H 58.791 3.53967 4.84218 0
M  V30 640 H 60.47 4.11458 4.99311 0
M  V30 641 N 60.6021 -1.18246 1.0419 0
M  V30 642 C 61.8491 -1.88257 0.746017 0
M  V30 643 C 62.1771 -1.80429 -0.726331 0
M  V30 644 O 61.4321 -1.2 -1.54591 0
M  V30 645 C 61.7311 -3.38082 1.15911 0
M  V30 646 C 61.3971 -3.66114 2.63195 0
M  V30 647 C 60.0591 -3.73474 3.03432 0
M  V30 648 C 62.4111 -3.78398 3.5842 0
M  V30 649 C 59.7391 -3.90599 4.37778 0
M  V30 650 C 62.0911 -3.97039 4.92487 0
M  V30 651 C 60.7551 -4.02635 5.32392 0
M  V30 652 H 60.0251 -0.688883 0.272987 0
M  V30 653 H 62.6721 -1.3995 1.30715 0
M  V30 654 H 60.9771 -3.88377 0.516806 0
M  V30 655 H 62.6741 -3.90596 0.907516 0
M  V30 656 H 59.2641 -3.61003 2.3103 0
M  V30 657 H 63.4481 -3.72042 3.28479 0
M  V30 658 H 58.7041 -3.93175 4.68213 0
M  V30 659 H 62.8781 -4.05486 5.66175 0
M  V30 660 H 60.5051 -4.15657 6.36501 0
M  V30 661 N 62.0802 -0.821533 -1.34494 0
M  V30 662 C 63.3292 -0.405355 -1.97585 0
M  V30 663 C 63.6422 1.03677 -1.65863 0
M  V30 664 O 64.8482 1.55679 -2.22433 0
M  V30 665 C 63.3042 -0.673861 -3.53535 0
M  V30 666 C 62.9122 -2.12951 -3.94152 0
M  V30 667 C 64.6562 -0.32378 -4.23263 0
M  V30 668 C 62.5632 -2.34298 -5.43009 0
M  V30 669 H 61.4932 -0.147836 -0.739365 0
M  V30 670 H 64.1442 -1.00769 -1.53355 0
M  V30 671 H 62.5262 -0.00137554 -3.96 0
M  V30 672 H 63.7002 -2.84104 -3.62797 0
M  V30 673 H 62.0152 -2.44089 -3.37356 0
M  V30 674 H 64.6122 -0.461126 -5.32708 0
M  V30 675 H 64.9552 0.731586 -4.09821 0
M  V30 676 H 65.4882 -0.950786 -3.8627 0
M  V30 677 H 62.2272 -3.38335 -5.61435 0
M  V30 678 H 61.7472 -1.67687 -5.75883 0
M  V30 679 H 63.4262 -2.16588 -6.09671 0
M  V30 680 N 63.5583 1.46682 -0.576371 0
M  V30 681 C 64.7983 2.04306 -0.0621356 0
M  V30 682 C 65.1623 1.4389 1.2712 0
M  V30 683 O 66.3633 1.92675 1.87429 0
M  V30 684 C 64.6343 3.57399 0.00927922 0
M  V30 685 S 66.1933 4.36309 0.466859 0
M  V30 686 H 63.0113 0.710167 -0.0344016 0
M  V30 687 H 65.6133 1.79807 -0.767437 0
M  V30 688 H 64.3173 3.98889 -0.965178 0
M  V30 689 H 63.8483 3.86424 0.737547 0
M  V30 690 H 65.8633 4.6533 1.72287 0
M  V30 691 N 65.0364 0.313813 1.54444 0
M  V30 692 C 66.2824 -0.292108 2.00685 0
M  V30 693 C 66.6154 -1.52548 1.20177 0
M  V30 694 O 65.8904 -1.92452 0.281531 0
M  V30 695 C 66.1734 -0.635968 3.5444 0
M  V30 696 C 66.0264 0.607437 4.4568 0
M  V30 697 C 67.3454 -1.45747 4.15266 0
M  V30 698 H 64.4644 -0.104697 0.729526 0
M  V30 699 H 67.1064 0.428457 1.85106 0
M  V30 700 H 65.2564 -1.24986 3.67846 0
M  V30 701 H 66.9284 1.24581 4.44159 0
M  V30 702 H 65.1714 1.23822 4.15753 0
M  V30 703 H 65.8424 0.322515 5.51057 0
M  V30 704 H 68.3184 -0.938645 4.05375 0
M  V30 705 H 67.1944 -1.66683 5.2298 0
M  V30 706 H 67.4554 -2.45063 3.67963 0
M  V30 707 N 66.5145 -1.57545 0.0417849 0
M  V30 708 C 67.4445 -2.14009 -0.933929 0
M  V30 709 C 68.4255 -1.05938 -1.33083 0
M  V30 710 O 69.6105 -1.33833 -1.40721 0
M  V30 711 C 66.7405 -2.67747 -2.21199 0
M  V30 712 C 65.6945 -3.80718 -1.95544 0
M  V30 713 C 65.0205 -4.20935 -3.29724 0
M  V30 714 C 66.3205 -5.06258 -1.28452 0
M  V30 715 H 68.0145 -2.95788 -0.463645 0
M  V30 716 H 65.5605 -1.42285 -0.221573 0
M  V30 717 H 67.5135 -3.05886 -2.89848 0
M  V30 718 H 66.2375 -1.83147 -2.70416 0
M  V30 719 H 64.8965 -3.43037 -1.2931 0
M  V30 720 H 64.5445 -3.33298 -3.76724 0
M  V30 721 H 64.2445 -4.9707 -3.13361 0
M  V30 722 H 65.7685 -4.61666 -3.9962 0
M  V30 723 H 67.1825 -5.41903 -1.8712 0
M  V30 724 H 65.5795 -5.87475 -1.22445 0
M  V30 725 H 66.6495 -4.84207 -0.259219 0
M  V30 726 N 67.9926 0.231505 -1.5589 0
M  V30 727 C 68.9396 1.28682 -1.91598 0
M  V30 728 C 69.9096 1.47071 -0.771974 0
M  V30 729 O 71.0946 1.60802 -1.027 0
M  V30 730 C 68.2346 2.6342 -2.22944 0
M  V30 731 C 67.3476 2.52912 -3.50228 0
M  V30 732 C 66.4826 3.80106 -3.7107 0
M  V30 733 C 65.5216 3.64279 -4.91902 0
M  V30 734 N 64.6586 4.834 -5.09184 0
M  V30 735 H 69.4986 0.975305 -2.81588 0
M  V30 736 H 67.0356 0.470299 -1.39379 0
M  V30 737 H 68.9936 3.41869 -2.39126 0
M  V30 738 H 67.6236 2.92687 -1.36139 0
M  V30 739 H 66.6756 1.6595 -3.42294 0
M  V30 740 H 67.9876 2.37133 -4.38827 0
M  V30 741 H 67.1416 4.66999 -3.87295 0
M  V30 742 H 65.8806 3.98799 -2.80733 0
M  V30 743 H 64.8856 2.7577 -4.75637 0
M  V30 744 H 66.1106 3.47067 -5.83714 0
M  V30 745 H 64.0566 5.02425 -4.21788 0
M  V30 746 H 63.9736 4.70311 -5.91898 0
M  V30 747 H 65.2416 5.71747 -5.29835 0
M  V30 748 N 69.4707 1.49531 0.497807 0
M  V30 749 C 70.7167 1.59415 1.25358 0
M  V30 750 C 71.0497 0.281422 1.9215 0
M  V30 751 O 70.3247 -0.715249 1.80871 0
M  V30 752 C 70.6077 2.75566 2.3181 0
M  V30 753 C 70.4607 4.16642 1.69498 0
M  V30 754 C 71.7797 2.87347 3.33346 0
M  V30 755 H 68.8987 0.580244 0.454408 0
M  V30 756 H 71.5407 1.81827 0.551262 0
M  V30 757 H 69.6907 2.56587 2.91711 0
M  V30 758 H 71.3627 4.47145 1.13399 0
M  V30 759 H 69.6057 4.22141 0.998978 0
M  V30 760 H 70.2767 4.93792 2.46725 0
M  V30 761 H 72.7527 3.04634 2.83438 0
M  V30 762 H 71.6287 3.70289 4.05188 0
M  V30 763 H 71.8897 1.96834 3.95865 0
M  V30 764 N 70.9488 -0.749086 1.3866 0
M  V30 765 C 72.3648 -1.05276 1.19955 0
M  V30 766 C 72.5648 -2.01435 0.05134 0
M  V30 767 O 71.6208 -2.45232 -0.60147 0
M  V30 768 C 72.9338 -1.62853 2.52783 0
M  V30 769 C 74.4818 -1.75002 2.59506 0
M  V30 770 C 74.9568 -2.35991 3.92521 0
M  V30 771 N 76.4478 -2.43416 3.94085 0
M  V30 772 C 77.1828 -2.91511 4.9377 0
M  V30 773 N 76.6788 -3.39608 6.03853 0
M  V30 774 N 78.4718 -2.90592 4.81157 0
M  V30 775 H 70.6228 -0.111066 2.12109 0
M  V30 776 H 72.8858 -0.111901 0.941373 0
M  V30 777 H 72.5918 -0.99664 3.37283 0
M  V30 778 H 72.4658 -2.61854 2.715 0
M  V30 779 H 74.8528 -2.37317 1.75398 0
M  V30 780 H 74.9338 -0.74693 2.44652 0
M  V30 781 H 74.5778 -1.74308 4.77053 0
M  V30 782 H 74.5078 -3.3695 4.04688 0
M  V30 783 H 76.9988 -2.09405 3.14576 0
M  V30 784 H 77.3118 -3.74775 6.75843 0
M  V30 785 H 75.6568 -3.37653 6.07466 0
M  V30 786 H 78.8478 -2.52332 3.94267 0
M  V30 787 H 79.0208 -3.27762 5.58996 0
M  V30 788 N 72.4269 -1.23603 -0.977757 0
M  V30 789 C 73.3749 -1.01704 -2.09187 0
M  V30 790 C 74.3689 0.0448214 -1.69341 0
M  V30 791 O 75.5749 -0.108902 -1.7967 0
M  V30 792 H 71.9499 -0.311803 -0.684312 0
M  V30 793 H 73.9209 -1.96207 -2.24823 0
M  V30 794 C 72.6699 -0.627746 -3.41986 0
M  V30 795 H 71.9929 -1.43656 -3.73099 0
M  V30 796 H 73.4329 -0.514053 -4.20872 0
M  V30 797 C 71.8919 0.664238 -3.30287 0
M  V30 798 O 72.4219 1.71268 -3.6336 0
M  V30 799 N 70.6279 0.641156 -2.83439 0
M  V30 800 H 70.1749 -0.212376 -2.56723 0
M  V30 801 H 70.1329 1.50583 -2.75993 0
M  V30 802 N 73.905 1.17692 -1.04816 0
M  V30 803 C 74.815 2.25229 -0.65643 0
M  V30 804 C 75.831 1.71018 0.320761 0
M  V30 805 O 77.007 2.00649 0.173805 0
M  V30 806 C 74.072 3.46684 -0.0332629 0
M  V30 807 C 73.133 4.15997 -1.06042 0
M  V30 808 C 72.366 5.31654 -0.466893 0
M  V30 809 O 72.589 5.65777 0.724758 0
M  V30 810 O 71.523 5.89831 -1.1993 0
M  V30 811 H 75.349 2.61016 -1.55255 0
M  V30 812 H 72.934 1.24919 -0.81949 0
M  V30 813 H 74.816 4.20234 0.313256 0
M  V30 814 H 73.491 3.12703 0.836566 0
M  V30 815 H 72.398 3.44482 -1.45886 0
M  V30 816 H 73.731 4.53996 -1.90127 0
M  V30 817 N 75.3831 0.828654 1.34056 0
M  V30 818 C 76.6111 0.43262 2.02326 0
M  V30 819 C 77.0261 -0.963147 1.62385 0
M  V30 820 O 76.3831 -1.62425 0.832121 0
M  V30 821 C 76.4341 0.53182 3.57567 0
M  V30 822 O 76.1551 1.87258 3.96063 0
M  V30 823 C 77.6561 0.131422 4.43105 0
M  V30 824 H 74.8761 0.172923 0.648335 0
M  V30 825 H 77.4201 1.1184 1.71208 0
M  V30 826 H 75.5751 -0.105938 3.87255 0
M  V30 827 H 75.9891 1.85087 4.90758 0
M  V30 828 H 77.4631 0.251904 5.51425 0
M  V30 829 H 77.9401 -0.925645 4.29335 0
M  V30 830 H 78.5461 0.743207 4.18756 0
M  V30 831 N 76.8612 -1.46375 0.584142 0
M  V30 832 C 78.0892 -2.06761 0.0759296 0
M  V30 833 C 78.5042 -1.43266 -1.22965 0
M  V30 834 O 77.8612 -0.538458 -1.74376 0
M  V30 835 C 77.9122 -3.61375 -0.0950384 0
M  V30 836 O 77.6332 -4.22495 1.15887 0
M  V30 837 C 79.1342 -4.38693 -0.637434 0
M  V30 838 H 76.3542 -0.668479 0.0581075 0
M  V30 839 H 78.8982 -1.8798 0.805218 0
M  V30 840 H 77.0532 -3.79578 -0.774554 0
M  V30 841 H 77.4672 -5.15385 0.973598 0
M  V30 842 H 78.9412 -5.47464 -0.706237 0
M  V30 843 H 79.4182 -4.06836 -1.65472 0
M  V30 844 H 80.0242 -4.25299 0.00725967 0
M  V30 845 N 78.3393 -0.321999 -1.54275 0
M  V30 846 C 79.5673 0.283052 -2.04955 0
M  V30 847 C 79.9823 1.45904 -1.19823 0
M  V30 848 O 79.3393 1.81063 -0.228545 0
M  V30 849 C 79.3903 0.719028 -3.54277 0
M  V30 850 O 79.1113 -0.410175 -4.36176 0
M  V30 851 C 80.6123 1.38705 -4.21041 0
M  V30 852 H 77.8323 0.0584616 -0.668448 0
M  V30 853 H 80.3763 -0.467734 -1.99079 0
M  V30 854 H 78.5313 1.41979 -3.60445 0
M  V30 855 H 78.9453 -0.0669416 -5.24457 0
M  V30 856 H 80.4193 1.64306 -5.2698 0
M  V30 857 H 80.8963 2.33385 -3.72059 0
M  V30 858 H 81.5023 0.728906 -4.19007 0
M  V30 859 N 79.8174 1.5752 -0.0501392 0
M  V30 860 C 81.0474 1.96678 0.632573 0
M  V30 861 C 81.4554 0.926298 1.64974 0
M  V30 862 O 80.7984 -0.09802 1.83438 0
M  V30 863 C 80.8604 3.32068 1.37735 0
M  V30 864 C 80.5244 4.54076 0.516131 0
M  V30 865 C 81.5214 5.19445 -0.217357 0
M  V30 866 C 79.2064 5.00304 0.44736 0
M  V30 867 C 81.2004 6.29378 -1.00807 0
M  V30 868 C 78.8874 6.10114 -0.347038 0
M  V30 869 C 79.8854 6.74512 -1.07344 0
M  V30 870 O 79.5734 7.82211 -1.85477 0
M  V30 871 H 79.3054 0.652193 0.177821 0
M  V30 872 H 81.8594 2.05091 -0.112543 0
M  V30 873 H 80.0894 3.20206 2.16807 0
M  V30 874 H 81.7784 3.55981 1.95019 0
M  V30 875 H 82.5444 4.84689 -0.173688 0
M  V30 876 H 78.4234 4.49971 1.00235 0
M  V30 877 H 81.9674 6.79575 -1.57556 0
M  V30 878 H 77.8644 6.44307 -0.392349 0
M  V30 879 H 78.6324 7.98982 -1.77678 0
M  V30 880 N 81.2955 -0.223234 1.56011 0
M  V30 881 C 82.2285 -1.30377 1.87289 0
M  V30 882 C 83.2065 -1.45286 0.730112 0
M  V30 883 O 84.3905 -1.61126 0.978302 0
M  V30 884 C 81.5175 -2.67431 2.07843 0
M  V30 885 C 80.5635 -2.69546 3.30526 0
M  V30 886 S 81.3965 -2.23781 4.865 0
M  V30 887 C 82.5525 -3.62714 5.10088 0
M  V30 888 H 82.7855 -1.03652 2.78646 0
M  V30 889 H 80.3185 -0.425393 1.48424 0
M  V30 890 H 82.2765 -3.46336 2.20368 0
M  V30 891 H 80.9375 -2.91381 1.17285 0
M  V30 892 H 80.1305 -3.70255 3.41947 0
M  V30 893 H 79.7325 -1.98703 3.16849 0
M  V30 894 H 82.0245 -4.58391 4.98883 0
M  V30 895 H 82.9675 -3.5621 6.11981 0
M  V30 896 H 83.3755 -3.56323 4.37829 0
M  V30 897 N 82.7736 -1.49793 -0.48987 0
M  V30 898 C 84.0226 -1.59085 -1.23995 0
M  V30 899 C 84.3356 -0.287907 -1.9347 0
M  V30 900 O 85.5416 -0.259506 -2.70257 0
M  V30 901 C 83.9976 -2.80736 -2.252 0
M  V30 902 C 83.6056 -4.17833 -1.61614 0
M  V30 903 C 85.3496 -2.99364 -3.00967 0
M  V30 904 C 83.2566 -5.30693 -2.60996 0
M  V30 905 H 82.1866 -0.592372 -0.466488 0
M  V30 906 H 84.8376 -1.76197 -0.51252 0
M  V30 907 H 83.2196 -2.57142 -3.01154 0
M  V30 908 H 84.3936 -4.51608 -0.915774 0
M  V30 909 H 82.7086 -4.04656 -0.981977 0
M  V30 910 H 85.3056 -3.80851 -3.75308 0
M  V30 911 H 85.6486 -2.10356 -3.59244 0
M  V30 912 H 86.1816 -3.2305 -2.32128 0
M  V30 913 H 82.9206 -6.21796 -2.07485 0
M  V30 914 H 82.4406 -5.01359 -3.2924 0
M  V30 915 H 84.1196 -5.6049 -3.23202 0
M  V30 916 N 84.2517 0.741722 -1.39055 0
M  V30 917 C 85.1997 1.87702 -1.3737 0
M  V30 918 C 86.1937 1.67427 -0.257812 0
M  V30 919 O 87.3997 1.7485 -0.427489 0
M  V30 920 H 83.7747 0.617757 -0.428812 0
M  V30 921 H 85.7457 1.86239 -2.33147 0
M  V30 922 C 84.4947 3.25315 -1.22741 0
M  V30 923 H 83.8177 3.41509 -2.07873 0
M  V30 924 H 85.2577 4.04964 -1.25618 0
M  V30 925 C 83.7167 3.36838 0.0647316 0
M  V30 926 O 84.2467 3.88073 1.03741 0
M  V30 927 N 82.4527 2.90329 0.125544 0
M  V30 928 H 81.9997 2.48823 -0.666682 0
M  V30 929 H 81.9577 2.98418 0.989639 0
M  V30 930 N 85.7298 1.2412 0.971189 0
M  V30 931 C 86.6598 1.05508 2.08304 0
M  V30 932 C 87.6408 -0.0308864 1.70072 0
M  V30 933 O 88.8258 0.135521 1.93727 0
M  V30 934 C 85.9558 0.655365 3.4106 0
M  V30 935 C 84.9098 1.68971 3.93234 0
M  V30 936 C 84.2358 1.14516 5.22293 0
M  V30 937 C 85.5358 3.08487 4.21465 0
M  V30 938 H 87.2298 1.98507 2.24132 0
M  V30 939 H 84.7758 0.955821 1.07704 0
M  V30 940 H 86.7288 0.51217 4.18276 0
M  V30 941 H 85.4528 -0.31032 3.25122 0
M  V30 942 H 84.1118 1.82106 3.18171 0
M  V30 943 H 83.7598 0.170189 5.02712 0
M  V30 944 H 83.4598 1.83635 5.58168 0
M  V30 945 H 84.9838 1.01401 6.02121 0
M  V30 946 H 86.3978 2.98601 4.89398 0
M  V30 947 H 84.7948 3.74926 4.68562 0
M  V30 948 H 85.8648 3.56787 3.28376 0
M  V30 949 N 87.2079 -1.17134 1.05439 0
M  V30 950 C 88.1709 -2.19439 0.661764 0
M  V30 951 C 89.1709 -1.58199 -0.288042 0
M  V30 952 O 90.3609 -1.74053 -0.0715803 0
M  V30 953 C 87.4929 -3.40889 -0.0276209 0
M  V30 954 H 88.6859 -2.55688 1.56728 0
M  V30 955 H 86.2389 -1.31259 0.848567 0
M  V30 956 H 86.9739 -3.10187 -0.94629 0
M  V30 957 H 86.7589 -3.86586 0.655238 0
M  V30 958 H 88.2489 -4.16603 -0.288342 0
M  V30 959 N 88.686 -0.835752 -1.33615 0
M  V30 960 C 89.619 -0.211815 -2.27215 0
M  V30 961 C 90.597 0.639249 -1.49507 0
M  V30 962 O 91.781 0.600193 -1.78689 0
M  V30 963 C 88.908 0.702893 -3.31326 0
M  V30 964 C 87.954 -0.0723049 -4.26439 0
M  V30 965 S 88.787 -1.42811 -5.16106 0
M  V30 966 C 89.943 -0.518613 -6.23748 0
M  V30 967 H 90.176 -1.00533 -2.79786 0
M  V30 968 H 87.709 -0.632336 -1.40858 0
M  V30 969 H 89.667 1.22505 -3.91794 0
M  V30 970 H 88.328 1.47004 -2.77576 0
M  V30 971 H 87.521 0.62359 -5.00127 0
M  V30 972 H 87.123 -0.525424 -3.70291 0
M  V30 973 H 89.415 0.284778 -6.76901 0
M  V30 974 H 90.358 -1.22556 -6.97413 0
M  V30 975 H 90.766 -0.101344 -5.64409 0
M  V30 976 N 90.1641 1.46063 -0.591896 0
M  V30 977 C 91.3891 2.07226 -0.0850314 0
M  V30 978 C 91.8141 1.43625 1.21463 0
M  V30 979 O 91.1721 0.523305 1.73583 0
M  V30 980 C 91.2201 3.60554 0.0576567 0
M  V30 981 O 90.3241 3.97128 1.11188 0
M  V30 982 H 89.6651 0.660615 -0.0669568 0
M  V30 983 H 92.1951 1.8756 -0.81745 0
M  V30 984 H 92.2051 4.07165 0.2609 0
M  V30 985 H 90.8801 4.06235 -0.891416 0
M  V30 986 H 89.4571 3.62213 0.886356 0
M  V30 987 N 91.6422 0.330177 1.54103 0
M  V30 988 C 92.9192 -0.325007 1.92881 0
M  V30 989 C 93.2992 -1.6934 1.26045 0
M  V30 990 O 92.6472 -2.24855 0.406526 0
M  V30 991 C 92.8572 -0.410634 3.46576 0
M  V30 992 C 94.2052 -0.667801 4.19316 0
M  V30 993 O 95.2292 -0.49329 3.52768 0
M  V30 994 O 94.0882 -1.00491 5.37181 0
M  V30 995 H 91.1822 -0.186873 0.80561 0
M  V30 996 H 93.7282 0.380376 1.65382 0
M  V30 997 H 92.5002 0.550164 3.87413 0
M  V30 998 H 92.1232 -1.16333 3.802 0
M  V30 999 N 93.1203 -1.57491 0.0584922 0
M  V30 1000 C 94.0503 -2.14988 -0.911178 0
M  V30 1001 C 95.0313 -1.07343 -1.31952 0
M  V30 1002 O 96.2163 -1.35318 -1.39294 0
M  V30 1003 C 93.3463 -2.70078 -2.18347 0
M  V30 1004 C 92.3003 -3.82771 -1.91495 0
M  V30 1005 C 91.6263 -4.24408 -3.25241 0
M  V30 1006 C 92.9263 -5.07592 -1.23075 0
M  V30 1007 H 94.6203 -2.96263 -0.432246 0
M  V30 1008 H 92.1663 -1.42512 -0.206469 0
M  V30 1009 H 94.1193 -3.08943 -2.86587 0
M  V30 1010 H 92.8433 -1.86005 -2.68458 0
M  V30 1011 H 91.5023 -3.44389 -1.25664 0
M  V30 1012 H 91.1503 -3.37275 -3.73168 0
M  V30 1013 H 90.8503 -5.00366 -3.08071 0
M  V30 1014 H 92.3743 -4.65879 -3.94701 0
M  V30 1015 H 93.7883 -5.43857 -1.81362 0
M  V30 1016 H 92.1853 -5.88741 -1.16207 0
M  V30 1017 H 93.2553 -4.84454 -0.207847 0
M  V30 1018 N 94.5984 0.214957 -1.56127 0
M  V30 1019 C 95.5284 1.2695 -1.95974 0
M  V30 1020 C 96.5094 1.48539 -0.828868 0
M  V30 1021 O 97.6944 1.60611 -1.09168 0
M  V30 1022 C 94.8244 2.61794 -2.28214 0
M  V30 1023 C 93.7784 2.54851 -3.43853 0
M  V30 1024 C 93.1044 3.93785 -3.61715 0
M  V30 1025 C 94.4044 2.09065 -4.78632 0
M  V30 1026 H 96.0984 0.93846 -2.84312 0
M  V30 1027 H 93.6444 0.449996 -1.36788 0
M  V30 1028 H 95.5974 3.35731 -2.54682 0
M  V30 1029 H 94.3214 2.96599 -1.36736 0
M  V30 1030 H 92.9804 1.8337 -3.17444 0
M  V30 1031 H 92.6284 4.25908 -2.67602 0
M  V30 1032 H 92.3284 3.90019 -4.39498 0
M  V30 1033 H 93.8524 4.69374 -3.90539 0
M  V30 1034 H 95.2664 2.7275 -5.04262 0
M  V30 1035 H 93.6634 2.16346 -5.59745 0
M  V30 1036 H 94.7334 1.04315 -4.73547 0
M  V30 1037 N 96.0765 1.50051 0.48192 0
M  V30 1038 C 97.3235 1.60498 1.23477 0
M  V30 1039 C 97.6515 0.300331 1.92167 0
M  V30 1040 O 96.9065 -0.713094 1.82246 0
M  V30 1041 C 97.2055 2.72717 2.30998 0
M  V30 1042 C 96.8715 4.13572 1.79636 0
M  V30 1043 C 95.5335 4.519 1.65348 0
M  V30 1044 C 97.8855 5.01649 1.41412 0
M  V30 1045 C 95.2135 5.76057 1.11244 0
M  V30 1046 C 97.5655 6.26343 0.887538 0
M  V30 1047 C 96.2295 6.63483 0.731207 0
M  V30 1048 H 95.4995 0.587303 0.451836 0
M  V30 1049 H 98.1465 1.83948 0.532468 0
M  V30 1050 H 96.4515 2.43312 3.07094 0
M  V30 1051 H 98.1485 2.78006 2.88988 0
M  V30 1052 H 94.7385 3.83329 1.91721 0
M  V30 1053 H 98.9225 4.72679 1.51289 0
M  V30 1054 H 94.1785 6.03516 0.978686 0
M  V30 1055 H 98.3525 6.93958 0.582654 0
M  V30 1056 H 95.9795 7.59568 0.309806 0
M  V30 1057 N 97.5546 -0.734337 1.39446 0
M  V30 1058 C 98.8006 -1.49613 1.36908 0
M  V30 1059 C 99.1336 -1.94169 -0.0347829 0
M  V30 1060 O 98.4086 -1.66833 -0.999847 0
M  V30 1061 C 98.6916 -2.73534 2.34203 0
M  V30 1062 C 98.5446 -2.34993 3.83534 0
M  V30 1063 C 99.8636 -3.75635 2.29317 0
M  V30 1064 H 96.9826 -0.542714 0.498629 0
M  V30 1065 H 99.6246 -0.839597 1.70443 0
M  V30 1066 H 97.7746 -3.29553 2.05736 0
M  V30 1067 H 99.4466 -1.84601 4.22753 0
M  V30 1068 H 97.6896 -1.67213 4.00278 0
M  V30 1069 H 98.3606 -3.23738 4.47099 0
M  V30 1070 H 100.837 -3.29203 2.54489 0
M  V30 1071 H 99.7126 -4.60008 2.99472 0
M  V30 1072 H 99.9736 -4.22603 1.29842 0
M  V30 1073 N 99.0327 -1.24633 -0.964593 0
M  V30 1074 C 100.28 -1.08788 -1.70796 0
M  V30 1075 C 100.608 0.372783 -1.90894 0
M  V30 1076 O 99.8627 1.29167 -1.47018 0
M  V30 1077 C 100.162 -1.7763 -3.10133 0
M  V30 1078 C 99.8277 -3.27557 -3.09866 0
M  V30 1079 C 98.4897 -3.6846 -3.09501 0
M  V30 1080 C 100.842 -4.23389 -3.03959 0
M  V30 1081 C 98.1697 -5.03624 -3.00965 0
M  V30 1082 C 100.522 -5.58565 -2.96965 0
M  V30 1083 C 99.1857 -5.98809 -2.9493 0
M  V30 1084 H 98.4557 -0.398084 -0.624988 0
M  V30 1085 H 101.103 -1.54777 -1.12767 0
M  V30 1086 H 99.4077 -1.24044 -3.71645 0
M  V30 1087 H 101.105 -1.62832 -3.66451 0
M  V30 1088 H 97.6947 -2.95006 -3.10917 0
M  V30 1089 H 101.879 -3.92787 -3.03368 0
M  V30 1090 H 97.1347 -5.33998 -2.97752 0
M  V30 1091 H 101.309 -6.32523 -2.91354 0
M  V30 1092 H 98.9357 -7.03505 -2.88071 0
M  V30 1093 N 100.511 1.16574 -1.06058 0
M  V30 1094 C 101.739 1.90952 -0.796552 0
M  V30 1095 C 102.154 1.77302 0.648808 0
M  V30 1096 O 101.511 1.11605 1.44397 0
M  V30 1097 C 101.562 3.41736 -1.17894 0
M  V30 1098 O 101.283 3.54975 -2.56758 0
M  V30 1099 C 102.784 4.33169 -0.942308 0
M  V30 1100 H 100.004 0.605594 -0.288959 0
M  V30 1101 H 102.548 1.47777 -1.41358 0
M  V30 1102 H 100.703 3.82623 -0.606491 0
M  V30 1103 H 101.117 4.4846 -2.72 0
M  V30 1104 H 102.591 5.37439 -1.25952 0
M  V30 1105 H 103.068 4.3903 0.122078 0
M  V30 1106 H 103.674 3.98007 -1.49902 0
M  V30 1107 N 101.989 0.842826 1.3317 0
M  V30 1108 C 102.919 0.294028 2.31641 0
M  V30 1109 C 103.9 -0.600401 1.59151 0
M  V30 1110 O 105.085 -0.523124 1.87022 0
M  V30 1111 C 102.215 -0.528416 3.43257 0
M  V30 1112 C 101.169 0.27056 4.27144 0
M  V30 1113 C 100.495 -0.675881 5.30411 0
M  V30 1114 C 101.795 1.48981 5.00602 0
M  V30 1115 H 103.489 1.11681 2.77791 0
M  V30 1116 H 101.035 0.538478 1.33553 0
M  V30 1117 H 102.988 -0.922674 4.11175 0
M  V30 1118 H 101.712 -1.38445 2.95805 0
M  V30 1119 H 100.371 0.646427 3.60856 0
M  V30 1120 H 100.019 -1.52842 4.79216 0
M  V30 1121 H 99.7189 -0.145374 5.8742 0
M  V30 1122 H 101.243 -1.06757 6.01195 0
M  V30 1123 H 102.657 1.16849 5.61266 0
M  V30 1124 H 101.054 1.95739 5.6728 0
M  V30 1125 H 102.124 2.25746 4.29147 0
M  V30 1126 N 103.467 -1.45747 0.599634 0
M  V30 1127 C 104.878 -1.85853 0.177681 0
M  V30 1128 C 105.229 -1.50102 -1.26348 0
M  V30 1129 O 104.354 -0.923905 -1.95686 0
M  V30 1130 C 104.949 -3.37326 0.315688 0
M  V30 1131 C 103.508 -3.76365 -0.0515144 0
M  V30 1132 C 102.655 -2.69722 0.643822 0
M  V30 1133 H 105.606 -1.36661 0.806814 0
M  V30 1134 H 105.627 -3.77778 -0.454321 0
M  V30 1135 H 105.139 -3.63315 1.36468 0
M  V30 1136 H 103.24 -3.55993 -1.09999 0
M  V30 1137 H 103.353 -4.77916 0.336594 0
M  V30 1138 H 101.717 -2.54567 0.0822881 0
M  V30 1139 H 102.5 -2.98549 1.6948 0
M  V30 1140 N 104.945 -0.338344 -1.53925 0
M  V30 1141 C 106.192 0.259758 -2.00827 0
M  V30 1142 C 106.52 1.50973 -1.22628 0
M  V30 1143 O 105.775 1.93379 -0.300509 0
M  V30 1144 C 106.074 0.62448 -3.51902 0
M  V30 1145 C 105.74 -0.528006 -4.47798 0
M  V30 1146 C 104.402 -0.844298 -4.73735 0
M  V30 1147 C 106.754 -1.30143 -5.0469 0
M  V30 1148 C 104.082 -1.93648 -5.53821 0
M  V30 1149 C 106.434 -2.38382 -5.85967 0
M  V30 1150 C 105.098 -2.70576 -6.10201 0
M  V30 1151 H 104.368 0.0950523 -0.734878 0
M  V30 1152 H 107.015 -0.465182 -1.85764 0
M  V30 1153 H 105.32 1.43006 -3.64769 0
M  V30 1154 H 107.017 1.09905 -3.85645 0
M  V30 1155 H 103.607 -0.271421 -4.2774 0
M  V30 1156 H 107.791 -1.07033 -4.84621 0
M  V30 1157 H 103.047 -2.19021 -5.70824 0
M  V30 1158 H 107.221 -2.98746 -6.29066 0
M  V30 1159 H 104.848 -3.55333 -6.72044 0
M  V30 1160 N 106.423 1.57458 -0.0668435 0
M  V30 1161 C 107.839 1.56947 0.289772 0
M  V30 1162 C 108.039 1.07584 1.70376 0
M  V30 1163 O 107.095 0.739486 2.41429 0
M  V30 1164 C 108.408 3.0052 0.103943 0
M  V30 1165 C 109.956 3.12517 0.173857 0
M  V30 1166 C 110.431 4.57997 0.0163682 0
M  V30 1167 N 111.922 4.63144 0.0721352 0
M  V30 1168 C 112.657 5.73394 -0.0253794 0
M  V30 1169 N 112.153 6.92576 -0.176133 0
M  V30 1170 N 113.946 5.62091 0.0313305 0
M  V30 1171 H 106.097 1.87863 -0.991027 0
M  V30 1172 H 108.36 0.86583 -0.38606 0
M  V30 1173 H 108.066 3.40729 -0.871572 0
M  V30 1174 H 107.94 3.67304 0.858366 0
M  V30 1175 H 110.327 2.72197 1.13985 0
M  V30 1176 H 110.408 2.48381 -0.611586 0
M  V30 1177 H 110.052 4.99005 -0.946374 0
M  V30 1178 H 109.982 5.20158 0.821153 0
M  V30 1179 H 112.473 3.77436 0.187263 0
M  V30 1180 H 112.786 7.72418 -0.242821 0
M  V30 1181 H 111.131 6.94678 -0.211429 0
M  V30 1182 H 114.322 4.67867 0.147773 0
M  V30 1183 H 114.495 6.47982 -0.048121 0
M  V30 1184 N 107.901 -0.206675 1.56239 0
M  V30 1185 C 109.15 -0.926964 1.79138 0
M  V30 1186 C 109.463 -1.84901 0.638043 0
M  V30 1187 O 110.669 -2.60906 0.751033 0
M  V30 1188 C 109.125 -1.6986 3.17294 0
M  V30 1189 C 108.733 -0.821956 4.40395 0
M  V30 1190 C 110.477 -2.40922 3.4951 0
M  V30 1191 C 108.384 -1.59179 5.69575 0
M  V30 1192 H 107.314 -0.349864 0.667915 0
M  V30 1193 H 109.965 -0.180487 1.8261 0
M  V30 1194 H 108.347 -2.48853 3.08039 0
M  V30 1195 H 109.521 -0.0715019 4.60745 0
M  V30 1196 H 107.836 -0.222741 4.15804 0
M  V30 1197 H 110.433 -2.99047 4.43255 0
M  V30 1198 H 110.776 -3.14542 2.72707 0
M  V30 1199 H 111.309 -1.68905 3.60161 0
M  V30 1200 H 108.048 -0.898589 6.49312 0
M  V30 1201 H 107.568 -2.31648 5.53262 0
M  V30 1202 H 109.247 -2.14862 6.10281 0
M  V30 1203 N 109.379 -1.50304 -0.473955 0
M  V30 1204 C 110.626 -1.6115 -1.22625 0
M  V30 1205 C 110.954 -0.310517 -1.92005 0
M  V30 1206 O 110.209 0.703419 -1.82621 0
M  V30 1207 C 110.508 -2.73938 -2.29549 0
M  V30 1208 C 110.174 -4.14519 -1.7744 0
M  V30 1209 C 108.836 -4.5277 -1.62949 0
M  V30 1210 C 111.188 -5.02392 -1.3875 0
M  V30 1211 C 108.516 -5.76639 -1.08187 0
M  V30 1212 C 110.868 -6.26805 -0.854309 0
M  V30 1213 C 109.532 -6.63861 -0.696011 0
M  V30 1214 H 108.802 -0.589691 -0.448715 0
M  V30 1215 H 111.449 -1.84228 -0.522705 0
M  V30 1216 H 109.754 -2.44937 -3.05799 0
M  V30 1217 H 111.451 -2.79534 -2.87509 0
M  V30 1218 H 108.041 -3.8434 -1.89685 0
M  V30 1219 H 112.225 -4.73474 -1.4878 0
M  V30 1220 H 107.481 -6.04027 -0.946666 0
M  V30 1221 H 111.655 -6.94258 -0.545843 0
M  V30 1222 H 109.282 -7.59722 -0.26952 0
M  V30 1223 N 110.857 0.726932 -1.39834 0
M  V30 1224 C 112.087 1.51393 -1.40583 0
M  V30 1225 C 112.495 1.892 -0.000740625 0
M  V30 1226 O 111.838 1.55189 0.982951 0
M  V30 1227 C 111.9 2.82588 -2.22226 0
M  V30 1228 C 111.564 2.67169 -3.70769 0
M  V30 1229 C 112.561 2.3518 -4.63666 0
M  V30 1230 C 110.246 2.83788 -4.14451 0
M  V30 1231 C 112.24 2.20002 -5.98229 0
M  V30 1232 C 109.927 2.68229 -5.49087 0
M  V30 1233 C 110.925 2.36382 -6.4079 0
M  V30 1234 O 110.613 2.2093 -7.72946 0
M  V30 1235 H 110.345 0.474168 -0.48181 0
M  V30 1236 H 112.899 0.905247 -1.84376 0
M  V30 1237 H 111.129 3.45746 -1.73195 0
M  V30 1238 H 112.818 3.44247 -2.15055 0
M  V30 1239 H 113.584 2.21984 -4.31217 0
M  V30 1240 H 109.463 3.07566 -3.43401 0
M  V30 1241 H 113.007 1.95067 -6.69772 0
M  V30 1242 H 108.904 2.81006 -5.81125 0
M  V30 1243 H 109.672 2.35937 -7.83757 0
M  V30 1244 N 112.336 1.25143 0.95797 0
M  V30 1245 C 113.583 1.09692 1.70217 0
M  V30 1246 C 113.911 -0.362654 1.91089 0
M  V30 1247 O 113.166 -1.28386 1.47701 0
M  V30 1248 C 113.465 1.79272 3.09187 0
M  V30 1249 C 113.131 3.29196 3.08125 0
M  V30 1250 C 111.793 3.70096 3.07543 0
M  V30 1251 C 114.145 4.24995 3.0171 0
M  V30 1252 C 111.473 5.05213 2.9829 0
M  V30 1253 C 113.825 5.60132 2.93999 0
M  V30 1254 C 112.489 6.00365 2.9175 0
M  V30 1255 H 111.759 0.401393 0.622868 0
M  V30 1256 H 114.406 1.55372 1.11945 0
M  V30 1257 H 112.711 1.26014 3.70982 0
M  V30 1258 H 114.408 1.64773 3.65583 0
M  V30 1259 H 110.998 2.96651 3.09348 0
M  V30 1260 H 115.182 3.9439 3.01281 0
M  V30 1261 H 110.438 5.35569 2.94916 0
M  V30 1262 H 114.612 6.3406 2.87996 0
M  V30 1263 H 112.239 7.05023 2.84336 0
M  V30 1264 N 113.814 -1.1601 1.06675 0
M  V30 1265 C 115.042 -1.90527 0.806667 0
M  V30 1266 C 115.457 -1.77643 -0.639396 0
M  V30 1267 O 114.814 -1.12369 -1.43803 0
M  V30 1268 C 114.865 -3.41106 1.19705 0
M  V30 1269 O 114.586 -3.53608 2.58636 0
M  V30 1270 C 116.087 -4.32663 0.965266 0
M  V30 1271 H 113.307 -0.604053 0.292166 0
M  V30 1272 H 115.851 -1.47026 1.4214 0
M  V30 1273 H 114.006 -3.82296 0.626774 0
M  V30 1274 H 114.42 -4.47011 2.74375 0
M  V30 1275 H 115.894 -5.36763 1.288 0
M  V30 1276 H 116.371 -4.39089 -0.0987936 0
M  V30 1277 H 116.977 -3.97206 1.52011 0
M  V30 1278 N 115.292 -0.849877 -1.32721 0
M  V30 1279 C 116.52 -0.464754 -2.01613 0
M  V30 1280 C 116.935 0.937191 -1.63897 0
M  V30 1281 O 116.292 1.61081 -0.857856 0
M  V30 1282 C 116.343 -0.588638 -3.56675 0
M  V30 1283 O 116.064 -1.93535 -3.93034 0
M  V30 1284 C 117.565 -0.2019 -4.4284 0
M  V30 1285 H 114.785 -0.183215 -0.645502 0
M  V30 1286 H 117.329 -1.1455 -1.69407 0
M  V30 1287 H 115.484 0.0443159 -3.87375 0
M  V30 1288 H 115.898 -1.92871 -4.87751 0
M  V30 1289 H 117.372 -0.339599 -5.50954 0
M  V30 1290 H 117.849 0.857224 -4.30753 0
M  V30 1291 H 118.455 -0.809733 -4.17521 0
M  V30 1292 N 116.77 1.45427 -0.607355 0
M  V30 1293 C 118.186 1.57283 -0.270985 0
M  V30 1294 C 118.386 1.59875 1.22647 0
M  V30 1295 O 117.442 1.52893 2.00948 0
M  V30 1296 C 118.755 2.85566 -0.941952 0
M  V30 1297 C 120.303 2.9924 -0.917849 0
M  V30 1298 C 120.778 4.30293 -1.56882 0
M  V30 1299 N 122.269 4.37051 -1.5343 0
M  V30 1300 C 123.004 5.37123 -2.00715 0
M  V30 1301 N 122.5 6.43734 -2.56084 0
M  V30 1302 N 124.293 5.28479 -1.91484 0
M  V30 1303 H 116.444 1.41988 -1.57966 0
M  V30 1304 H 118.707 0.67885 -0.661715 0
M  V30 1305 H 118.413 2.8955 -1.99633 0
M  V30 1306 H 118.287 3.74322 -0.465096 0
M  V30 1307 H 120.674 2.94822 0.127984 0
M  V30 1308 H 120.755 2.11895 -1.43297 0
M  V30 1309 H 120.399 4.35469 -2.61398 0
M  V30 1310 H 120.329 5.16454 -1.02873 0
M  V30 1311 H 122.82 3.60615 -1.12982 0
M  V30 1312 H 123.133 7.16341 -2.89958 0
M  V30 1313 H 121.478 6.44485 -2.60122 0
M  V30 1314 H 124.669 4.44098 -1.47967 0
M  V30 1315 H 124.842 6.0632 -2.28648 0
M  V30 1316 N 118.248 0.346503 1.53744 0
M  V30 1317 C 119.196 -0.52422 2.26616 0
M  V30 1318 C 120.19 -1.09948 1.28871 0
M  V30 1319 O 121.396 -1.04488 1.46568 0
M  V30 1320 H 117.771 -0.187743 0.728187 0
M  V30 1321 H 119.742 0.11239 2.98188 0
M  V30 1322 C 118.491 -1.66186 3.05414 0
M  V30 1323 H 117.814 -1.22848 3.80458 0
M  V30 1324 H 119.254 -2.24622 3.59612 0
M  V30 1325 C 117.713 -2.59302 2.1509 0
M  V30 1326 O 118.243 -3.61628 1.74895 0
M  V30 1327 N 116.449 -2.28055 1.8011 0
M  V30 1328 H 115.996 -1.44883 2.12994 0
M  V30 1329 H 115.954 -2.90615 1.19958 0
M  V30 1330 N 119.726 -1.57421 0.075193 0
M  V30 1331 C 120.972 -1.94716 -0.587998 0
M  V30 1332 C 121.327 -0.955205 -1.67014 0
M  V30 1333 O 120.62 0.0219842 -1.91587 0
M  V30 1334 C 120.814 -3.36428 -1.20626 0
M  V30 1335 C 120.643 -4.49317 -0.185541 0
M  V30 1336 C 119.413 -5.04772 0.23099 0
M  V30 1337 C 121.611 -5.11036 0.57854 0
M  V30 1338 N 119.593 -6.01204 1.24206 0
M  V30 1339 C 120.964 -6.02998 1.44199 0
M  V30 1340 C 123.019 -4.93844 0.634237 0
M  V30 1341 C 121.722 -6.79614 2.3562 0
M  V30 1342 C 123.748 -5.71106 1.53597 0
M  V30 1343 C 123.11 -6.6272 2.38709 0
M  V30 1344 H 119.209 -0.759536 -0.186089 0
M  V30 1345 H 121.793 -1.94097 0.153128 0
M  V30 1346 H 119.964 -3.37778 -1.9173 0
M  V30 1347 H 121.696 -3.60951 -1.8302 0
M  V30 1348 H 118.451 -4.73353 -0.152807 0
M  V30 1349 H 118.875 -6.54119 1.74521 0
M  V30 1350 H 123.517 -4.22799 -0.00960004 0
M  V30 1351 H 121.235 -7.49934 3.01038 0
M  V30 1352 H 124.821 -5.59824 1.58394 0
M  V30 1353 H 123.701 -7.2146 3.07352 0
M  V30 1354 N 121.204 0.198386 -1.56346 0
M  V30 1355 C 122.615 0.763358 -1.70381 0
M  V30 1356 C 122.966 1.83995 -0.681203 0
M  V30 1357 O 122.091 2.15785 0.16305 0
M  V30 1358 C 122.686 1.39143 -3.08909 0
M  V30 1359 C 121.245 1.90352 -3.2472 0
M  V30 1360 C 120.392 0.772233 -2.6633 0
M  V30 1361 H 123.343 -0.0266377 -1.58678 0
M  V30 1362 H 123.364 2.26076 -3.06055 0
M  V30 1363 H 122.876 0.607638 -3.83314 0
M  V30 1364 H 120.977 2.71461 -2.55225 0
M  V30 1365 H 121.09 2.06757 -4.3219 0
M  V30 1366 H 119.454 1.18566 -2.2542 0
M  V30 1367 H 120.237 0.00073556 -3.433 0
M  V30 1368 N 122.682 1.50554 0.465978 0
M  V30 1369 C 123.929 1.61798 1.21768 0
M  V30 1370 C 124.257 0.320696 1.91838 0
M  V30 1371 O 123.512 -0.693724 1.82992 0
M  V30 1372 C 123.811 2.75152 2.28093 0
M  V30 1373 C 123.477 4.15454 1.75239 0
M  V30 1374 C 122.139 4.53628 1.60546 0
M  V30 1375 C 124.491 5.03121 1.36083 0
M  V30 1376 C 121.819 5.77204 1.05128 0
M  V30 1377 C 124.171 6.27249 0.821056 0
M  V30 1378 C 122.835 6.64221 0.660795 0
M  V30 1379 H 122.105 0.592063 0.445582 0
M  V30 1380 H 124.752 1.84503 0.512927 0
M  V30 1381 H 123.057 2.46556 3.04496 0
M  V30 1382 H 124.754 2.81055 2.86023 0
M  V30 1383 H 121.344 3.85341 1.87644 0
M  V30 1384 H 125.528 4.74257 1.46267 0
M  V30 1385 H 120.784 6.0452 0.91462 0
M  V30 1386 H 124.958 6.94537 0.509018 0
M  V30 1387 H 122.585 7.59854 0.229226 0
M  V30 1388 N 124.16 -0.719506 1.40217 0
M  V30 1389 C 125.408 -1.47641 1.3801 0
M  V30 1390 C 125.729 -1.94992 -0.018145 0
M  V30 1391 O 124.999 -1.70073 -0.972207 0
M  V30 1392 H 123.579 -0.547744 0.507923 0
M  V30 1393 H 126.241 -0.853187 1.75233 0
M  V30 1394 H 125.337 -2.35112 2.05253 0
M  V30 1395 N 125.638 -1.25649 -0.95132 0
M  V30 1396 C 126.915 -1.01361 -1.67288 0
M  V30 1397 C 127.295 0.459135 -2.06046 0
M  V30 1398 O 126.643 1.43723 -1.7764 0
M  V30 1399 C 126.853 -1.95256 -2.89268 0
M  V30 1400 C 128.201 -2.23289 -3.61147 0
M  V30 1401 O 129.225 -1.93041 -2.99355 0
M  V30 1402 O 128.084 -2.74741 -4.72419 0
M  V30 1403 H 125.178 -0.38464 -0.732107 0
M  V30 1404 H 127.724 -1.36817 -1.00395 0
M  V30 1405 H 126.496 -2.94685 -2.57442 0
M  V30 1406 H 126.119 -1.60218 -3.6389 0
M  V30 1407 N 127.117 1.15442 -1.07289 0
M  V30 1408 C 128.047 2.22312 -0.714107 0
M  V30 1409 C 129.028 1.67467 0.298155 0
M  V30 1410 O 130.213 1.93445 0.171048 0
M  V30 1411 C 127.343 3.47124 -0.110448 0
M  V30 1412 C 126.297 4.14926 -1.04979 0
M  V30 1413 C 125.623 5.33807 -0.308924 0
M  V30 1414 C 126.923 4.64762 -2.38314 0
M  V30 1415 H 128.617 2.5258 -1.6076 0
M  V30 1416 H 126.163 1.21404 -0.77441 0
M  V30 1417 H 128.116 4.21124 0.152482 0
M  V30 1418 H 126.84 3.16187 0.81812 0
M  V30 1419 H 125.499 3.42866 -1.29764 0
M  V30 1420 H 125.147 4.99126 0.623084 0
M  V30 1421 H 124.847 5.80113 -0.935036 0
M  V30 1422 H 126.371 6.10576 -0.0537771 0
M  V30 1423 H 127.785 5.30292 -2.1786 0
M  V30 1424 H 126.182 5.21728 -2.96514 0
M  V30 1425 H 127.252 3.80434 -3.00663 0
M  V30 1426 N 128.595 0.856903 1.32268 0
M  V30 1427 C 129.525 0.31858 2.31316 0
M  V30 1428 C 130.506 -0.583487 1.59779 0
M  V30 1429 O 131.691 -0.503259 1.87566 0
M  V30 1430 C 128.821 -0.491979 3.43798 0
M  V30 1431 C 127.775 0.315849 4.26833 0
M  V30 1432 C 127.101 -0.619586 5.31098 0
M  V30 1433 C 128.401 1.54282 4.98993 0
M  V30 1434 H 130.095 1.14621 2.76591 0
M  V30 1435 H 127.641 0.552613 1.32974 0
M  V30 1436 H 129.594 -0.879012 4.1213 0
M  V30 1437 H 128.318 -1.35299 2.97257 0
M  V30 1438 H 126.977 0.684664 3.6015 0
M  V30 1439 H 126.625 -1.47751 4.8081 0
M  V30 1440 H 126.325 -0.0830621 5.87541 0
M  V30 1441 H 127.849 -1.00375 6.02293 0
M  V30 1442 H 129.263 1.22796 5.59995 0
M  V30 1443 H 127.66 2.01745 5.65172 0
M  V30 1444 H 128.73 2.30285 4.26728 0
M  V30 1445 N 130.073 -1.45103 0.615059 0
M  V30 1446 C 131.313 -2.04069 0.116282 0
M  V30 1447 C 131.677 -1.4721 -1.2326 0
M  V30 1448 O 132.878 -1.97577 -1.82255 0
M  V30 1449 C 131.149 -3.57298 0.085482 0
M  V30 1450 S 132.708 -4.37394 -0.351015 0
M  V30 1451 H 129.526 -0.709006 0.0532183 0
M  V30 1452 H 132.128 -1.77709 0.81484 0
M  V30 1453 H 130.832 -3.9619 1.0706 0
M  V30 1454 H 130.363 -3.88244 -0.634835 0
M  V30 1455 H 132.378 -4.69734 -1.59889 0
M  V30 1456 N 131.551 -0.354651 -1.53558 0
M  V30 1457 C 132.498 0.496968 -2.25386 0
M  V30 1458 C 133.468 1.0865 -1.25636 0
M  V30 1459 O 134.653 1.12104 -1.54394 0
M  V30 1460 C 131.793 1.63637 -3.03837 0
M  V30 1461 C 130.906 1.07307 -4.18461 0
M  V30 1462 C 130.041 2.18068 -4.84376 0
M  V30 1463 C 129.08 1.59147 -5.91049 0
M  V30 1464 N 128.217 2.63695 -6.50699 0
M  V30 1465 H 133.057 -0.122075 -2.9775 0
M  V30 1466 H 130.594 -0.0720154 -1.46924 0
M  V30 1467 H 132.552 2.30734 -3.47589 0
M  V30 1468 H 131.182 2.22623 -2.33749 0
M  V30 1469 H 130.234 0.292708 -3.79272 0
M  V30 1470 H 131.546 0.602193 -4.95152 0
M  V30 1471 H 130.7 2.93007 -5.31255 0
M  V30 1472 H 129.439 2.68504 -4.07133 0
M  V30 1473 H 128.444 0.827175 -5.43542 0
M  V30 1474 H 129.669 1.09549 -6.70206 0
M  V30 1475 H 127.615 3.13365 -5.76315 0
M  V30 1476 H 127.532 2.21263 -7.22896 0
M  V30 1477 H 128.8 3.3837 -7.02229 0
M  V30 1478 N 133.029 1.57378 -0.0835403 0
M  V30 1479 C 134.278 1.93106 0.582498 0
M  V30 1480 C 134.591 0.96651 1.70053 0
M  V30 1481 O 135.797 1.21705 2.42693 0
M  V30 1482 C 134.253 3.43076 1.08751 0
M  V30 1483 C 133.861 4.48 -0.000146404 0
M  V30 1484 C 135.605 3.87785 1.72694 0
M  V30 1485 C 133.512 5.89113 0.519568 0
M  V30 1486 H 132.442 0.720775 0.221358 0
M  V30 1487 H 135.093 1.82821 -0.157675 0
M  V30 1488 H 133.475 3.48474 1.88101 0
M  V30 1489 H 134.649 4.54233 -0.775199 0
M  V30 1490 H 132.964 4.1283 -0.54406 0
M  V30 1491 H 135.561 4.90604 2.1263 0
M  V30 1492 H 135.904 3.25796 2.59158 0
M  V30 1493 H 136.437 3.8504 0.999457 0
M  V30 1494 H 133.176 6.54775 -0.308186 0
M  V30 1495 H 132.696 5.86376 1.26188 0
M  V30 1496 H 134.375 6.39346 0.992237 0
M  V30 1497 N 134.507 -0.190092 1.56449 0
M  V30 1498 C 135.732 -0.929864 1.85387 0
M  V30 1499 C 136.157 -1.7585 0.667704 0
M  V30 1500 O 135.515 -1.77198 -0.383459 0
M  V30 1501 C 135.563 -1.79773 3.12593 0
M  V30 1502 O 134.667 -2.89713 2.93496 0
M  V30 1503 H 134.008 -0.261574 0.610307 0
M  V30 1504 H 136.538 -0.193896 2.03679 0
M  V30 1505 H 136.548 -2.20139 3.43515 0
M  V30 1506 H 135.223 -1.18892 3.98544 0
M  V30 1507 H 133.8 -2.53065 2.73884 0
M  V30 1508 N 135.985 -1.50799 -0.457987 0
M  V30 1509 C 137.231 -1.62683 -1.21088 0
M  V30 1510 C 137.564 -0.332268 -1.91336 0
M  V30 1511 O 136.839 0.667043 -1.82704 0
M  V30 1512 C 137.122 -2.81615 -2.24422 0
M  V30 1513 C 136.975 -4.20989 -1.58392 0
M  V30 1514 C 138.294 -2.96085 -3.2561 0
M  V30 1515 H 135.413 -0.592087 -0.438864 0
M  V30 1516 H 138.055 -1.83225 -0.50286 0
M  V30 1517 H 136.205 -2.64231 -2.84806 0
M  V30 1518 H 137.877 -4.49994 -1.01504 0
M  V30 1519 H 136.12 -4.24641 -0.886704 0
M  V30 1520 H 136.791 -5.0016 -2.33547 0
M  V30 1521 H 139.267 -3.12042 -2.75262 0
M  V30 1522 H 138.143 -3.80902 -3.95228 0
M  V30 1523 H 138.404 -2.0726 -3.90507 0
M  V30 1524 N 137.463 0.71206 -1.40597 0
M  V30 1525 C 138.396 1.83582 -1.35546 0
M  V30 1526 C 139.374 1.61032 -0.225284 0
M  V30 1527 O 140.558 1.83998 -0.409519 0
M  V30 1528 C 137.685 3.19983 -1.11034 0
M  V30 1529 C 136.731 3.61355 -2.2655 0
M  V30 1530 S 137.564 3.68062 -3.88961 0
M  V30 1531 C 138.72 5.07216 -3.66719 0
M  V30 1532 H 138.953 1.87586 -2.30648 0
M  V30 1533 H 136.486 0.879182 -1.26924 0
M  V30 1534 H 138.444 3.98734 -0.975761 0
M  V30 1535 H 137.105 3.13608 -0.175798 0
M  V30 1536 H 136.298 4.60403 -2.0505 0
M  V30 1537 H 135.9 2.8987 -2.36329 0
M  V30 1538 H 138.192 5.94238 -3.25404 0
M  V30 1539 H 139.135 5.33753 -4.6531 0
M  V30 1540 H 139.543 4.77976 -3.00332 0
M  V30 1541 N 138.941 1.26152 0.944643 0
M  V30 1542 C 139.871 1.09902 2.06019 0
M  V30 1543 C 140.852 0.00519538 1.70099 0
M  V30 1544 O 142.037 0.176583 1.93396 0
M  V30 1545 C 139.167 0.727562 3.39594 0
M  V30 1546 C 138.121 1.77274 3.89561 0
M  V30 1547 C 137.447 1.25569 5.19747 0
M  V30 1548 C 138.747 3.17357 4.14827 0
M  V30 1549 H 140.441 2.03217 2.19871 0
M  V30 1550 H 137.987 0.978452 1.05652 0
M  V30 1551 H 139.94 0.600777 4.17095 0
M  V30 1552 H 138.664 -0.241287 3.25707 0
M  V30 1553 H 137.323 1.88814 3.14237 0
M  V30 1554 H 136.971 0.276783 5.02238 0
M  V30 1555 H 136.671 1.95433 5.54148 0
M  V30 1556 H 138.195 1.1415 5.99835 0
M  V30 1557 H 139.609 3.08914 4.82954 0
M  V30 1558 H 138.006 3.84781 4.60504 0
M  V30 1559 H 139.076 3.63673 3.20734 0
M  V30 1560 N 140.419 -1.14872 1.07899 0
M  V30 1561 C 141.666 -1.85789 0.805532 0
M  V30 1562 C 141.994 -1.82649 -0.668561 0
M  V30 1563 O 141.249 -1.24858 -1.50695 0
M  V30 1564 C 141.548 -3.34223 1.26609 0
M  V30 1565 C 141.214 -3.57555 2.74709 0
M  V30 1566 C 139.876 -3.63631 3.1516 0
M  V30 1567 C 142.228 -3.66803 3.70277 0
M  V30 1568 C 139.556 -3.76473 4.49983 0
M  V30 1569 C 141.908 -3.8117 5.04869 0
M  V30 1570 C 140.572 -3.85494 5.44932 0
M  V30 1571 H 139.842 -0.679849 0.294765 0
M  V30 1572 H 142.489 -1.3572 1.35101 0
M  V30 1573 H 140.794 -3.86536 0.640103 0
M  V30 1574 H 142.491 -3.87511 1.03132 0
M  V30 1575 H 139.081 -3.5347 2.42398 0
M  V30 1576 H 143.265 -3.61404 3.40149 0
M  V30 1577 H 138.521 -3.7808 4.80484 0
M  V30 1578 H 142.695 -3.87268 5.78789 0
M  V30 1579 H 140.322 -3.95197 6.49403 0
M  V30 1580 N 141.898 -0.863906 -1.31812 0
M  V30 1581 C 143.128 -0.485406 -2.00817 0
M  V30 1582 C 143.536 0.925007 -1.65046 0
M  V30 1583 O 142.879 1.61653 -0.872574 0
M  V30 1584 C 142.941 -0.555589 -3.55181 0
M  V30 1585 C 142.605 -1.92654 -4.14407 0
M  V30 1586 C 143.602 -2.89324 -4.31958 0
M  V30 1587 C 141.287 -2.2262 -4.50273 0
M  V30 1588 C 143.281 -4.14108 -4.84555 0
M  V30 1589 C 140.968 -3.47654 -5.02573 0
M  V30 1590 C 141.966 -4.43214 -5.19664 0
M  V30 1591 O 141.654 -5.66033 -5.70843 0
M  V30 1592 H 141.386 -0.188224 -0.649267 0
M  V30 1593 H 143.94 -1.16514 -1.69156 0
M  V30 1594 H 142.17 0.181037 -3.86276 0
M  V30 1595 H 143.859 -0.19138 -4.05449 0
M  V30 1596 H 144.625 -2.6748 -4.04573 0
M  V30 1597 H 140.504 -1.4902 -4.3625 0
M  V30 1598 H 144.048 -4.88703 -4.9781 0
M  V30 1599 H 139.945 -3.69345 -5.29391 0
M  V30 1600 H 140.713 -5.6812 -5.89222 0
M  V30 1601 N 143.376 1.44774 -0.622745 0
M  V30 1602 C 144.604 2.06487 -0.130722 0
M  V30 1603 C 145.019 1.46476 1.19123 0
M  V30 1604 O 144.376 0.584502 1.72887 0
M  V30 1605 C 144.427 3.615 -0.000807207 0
M  V30 1606 O 144.148 4.19274 -1.27048 0
M  V30 1607 C 145.649 4.40229 0.520898 0
M  V30 1608 H 142.869 0.666704 -0.0758106 0
M  V30 1609 H 145.413 1.85779 -0.854774 0
M  V30 1610 H 143.568 3.81498 0.673643 0
M  V30 1611 H 143.982 5.12622 -1.1099 0
M  V30 1612 H 145.456 5.49144 0.560838 0
M  V30 1613 H 145.933 4.1108 1.54627 0
M  V30 1614 H 146.539 4.25131 -0.120018 0
M  V30 1615 N 144.854 0.36279 1.53368 0
M  V30 1616 C 145.802 -0.500155 2.27159 0
M  V30 1617 C 146.796 -1.08575 1.3003 0
M  V30 1618 O 148.002 -1.02927 1.47668 0
M  V30 1619 H 144.377 -0.180009 0.730138 0
M  V30 1620 H 146.348 0.14401 2.98052 0
M  V30 1621 C 145.097 -1.62937 3.07159 0
M  V30 1622 H 144.42 -1.18806 3.8174 0
M  V30 1623 H 145.86 -2.20795 3.61975 0
M  V30 1624 C 144.319 -2.57007 2.17829 0
M  V30 1625 O 144.849 -3.59752 1.78721 0
M  V30 1626 N 143.055 -2.26131 1.82518 0
M  V30 1627 H 142.602 -1.42616 2.14519 0
M  V30 1628 H 142.56 -2.89327 1.23034 0
M  V30 1629 N 146.332 -1.57332 0.0918853 0
M  V30 1630 C 147.265 -2.09499 -0.904735 0
M  V30 1631 C 148.243 -1.00479 -1.27839 0
M  V30 1632 O 149.427 -1.27954 -1.38419 0
M  V30 1633 C 146.554 -2.56931 -2.2069 0
M  V30 1634 C 145.6 -3.77579 -1.98334 0
M  V30 1635 S 146.433 -5.21317 -1.22428 0
M  V30 1636 C 147.589 -5.72097 -2.53882 0
M  V30 1637 H 147.822 -2.93705 -0.460922 0
M  V30 1638 H 145.355 -1.53923 -0.121332 0
M  V30 1639 H 147.313 -2.84917 -2.95521 0
M  V30 1640 H 145.974 -1.72956 -2.62192 0
M  V30 1641 H 145.167 -4.08824 -2.94752 0
M  V30 1642 H 144.769 -3.5007 -1.31633 0
M  V30 1643 H 147.061 -5.80168 -3.49874 0
M  V30 1644 H 148.004 -6.70654 -2.27219 0
M  V30 1645 H 148.412 -5.00012 -2.62007 0
M  V30 1646 N 147.81 0.181792 -1.56548 0
M  V30 1647 C 149.04 0.914618 -1.85252 0
M  V30 1648 C 149.448 1.76791 -0.673914 0
M  V30 1649 O 148.791 1.80009 0.366416 0
M  V30 1650 C 148.853 1.85019 -3.08234 0
M  V30 1651 C 148.517 1.17754 -4.41569 0
M  V30 1652 C 149.514 0.548035 -5.17003 0
M  V30 1653 C 147.199 1.17742 -4.88305 0
M  V30 1654 C 149.193 -0.0726128 -6.37359 0
M  V30 1655 C 146.88 0.552946 -6.08593 0
M  V30 1656 C 147.878 -0.070978 -6.82963 0
M  V30 1657 O 147.566 -0.685635 -8.00971 0
M  V30 1658 H 147.298 0.271695 -0.618998 0
M  V30 1659 H 149.852 0.189944 -2.0452 0
M  V30 1660 H 148.082 2.61491 -2.84885 0
M  V30 1661 H 149.771 2.45195 -3.23472 0
M  V30 1662 H 150.537 0.540174 -4.81982 0
M  V30 1663 H 146.416 1.65246 -4.30366 0
M  V30 1664 H 149.96 -0.560213 -6.95347 0
M  V30 1665 H 145.857 0.558354 -6.43081 0
M  V30 1666 H 146.625 -0.58385 -8.16415 0
M  V30 1667 N 149.288 1.51039 0.449983 0
M  V30 1668 C 150.536 1.62759 1.19808 0
M  V30 1669 C 150.857 0.339981 1.92013 0
M  V30 1670 O 150.127 -0.643606 1.85026 0
M  V30 1671 H 148.707 0.599811 0.445237 0
M  V30 1672 H 151.369 1.87914 0.517138 0
M  V30 1673 H 150.465 2.44911 1.93455 0
M  V30 1674 N 150.766 -0.704594 1.40972 0
M  V30 1675 C 151.991 -1.49858 1.43378 0
M  V30 1676 C 152.416 -1.88061 0.038184 0
M  V30 1677 O 151.774 -1.5402 -0.956425 0
M  V30 1678 C 151.822 -2.74333 2.34038 0
M  V30 1679 O 150.926 -3.7147 1.7912 0
M  V30 1680 H 150.267 -0.45139 0.486974 0
M  V30 1681 H 152.797 -0.866832 1.8533 0
M  V30 1682 H 152.807 -3.22741 2.49604 0
M  V30 1683 H 151.482 -2.45863 3.35446 0
M  V30 1684 H 150.059 -3.30363 1.72958 0
M  V30 1685 N 152.244 -1.26651 -0.937939 0
M  V30 1686 C 153.493 -1.11775 -1.67897 0
M  V30 1687 C 153.806 0.33794 -1.92659 0
M  V30 1688 O 155.012 0.607434 -2.64618 0
M  V30 1689 C 153.468 -1.9523 -3.02346 0
M  V30 1690 C 153.076 -3.45393 -2.8532 0
M  V30 1691 C 154.82 -1.88972 -3.80118 0
M  V30 1692 C 152.727 -4.21083 -4.15263 0
M  V30 1693 H 151.657 -0.414696 -0.629717 0
M  V30 1694 H 154.308 -1.50988 -1.04283 0
M  V30 1695 H 152.69 -1.48853 -3.66959 0
M  V30 1696 H 153.864 -3.99561 -2.29537 0
M  V30 1697 H 152.179 -3.52921 -2.20988 0
M  V30 1698 H 154.776 -2.42805 -4.76392 0
M  V30 1699 H 155.119 -0.86113 -4.07296 0
M  V30 1700 H 155.652 -2.33189 -3.22285 0
M  V30 1701 H 152.391 -5.24425 -3.93267 0
M  V30 1702 H 151.911 -3.71695 -4.70747 0
M  V30 1703 H 153.59 -4.29706 -4.83696 0
M  V30 1704 N 153.722 1.14298 -1.08507 0
M  V30 1705 C 154.652 2.21542 -0.737646 0
M  V30 1706 C 155.633 1.67773 0.280377 0
M  V30 1707 O 156.818 1.93616 0.150521 0
M  V30 1708 C 153.948 3.46988 -0.147259 0
M  V30 1709 C 152.902 4.13789 -1.09374 0
M  V30 1710 C 152.228 5.33449 -0.365524 0
M  V30 1711 C 153.528 4.62208 -2.4323 0
M  V30 1712 H 155.222 2.5086 -1.6343 0
M  V30 1713 H 152.768 1.20576 -0.787243 0
M  V30 1714 H 154.721 4.21262 0.107808 0
M  V30 1715 H 153.445 3.17037 0.784538 0
M  V30 1716 H 152.104 3.4147 -1.33393 0
M  V30 1717 H 151.752 4.99759 0.57011 0
M  V30 1718 H 151.452 5.79088 -0.996512 0
M  V30 1719 H 152.976 6.10485 -0.118534 0
M  V30 1720 H 154.39 5.27952 -2.23472 0
M  V30 1721 H 152.787 5.18553 -3.02031 0
M  V30 1722 H 153.857 3.77224 -3.04681 0
M  V30 1723 N 155.201 0.870884 1.31352 0
M  V30 1724 C 156.448 0.482273 1.96673 0
M  V30 1725 C 156.776 -0.965638 1.68836 0
M  V30 1726 O 156.031 -1.69514 0.977937 0
M  V30 1727 C 156.33 0.687157 3.50732 0
M  V30 1728 C 155.996 2.108 3.9859 0
M  V30 1729 C 154.658 2.49656 4.1137 0
M  V30 1730 C 157.01 3.03459 4.23748 0
M  V30 1731 C 154.338 3.80412 4.46659 0
M  V30 1732 C 156.69 4.3373 4.60501 0
M  V30 1733 C 155.354 4.725 4.71487 0
M  V30 1734 H 154.624 0.176476 0.719679 0
M  V30 1735 H 157.271 1.10405 1.56471 0
M  V30 1736 H 155.576 -0.0177476 3.91796 0
M  V30 1737 H 157.273 0.366284 3.99324 0
M  V30 1738 H 153.863 1.79633 3.8914 0
M  V30 1739 H 158.047 2.74665 4.13368 0
M  V30 1740 H 153.303 4.1021 4.53362 0
M  V30 1741 H 157.477 5.05578 4.78919 0
M  V30 1742 H 155.104 5.73859 4.98588 0
M  V30 1743 N 156.679 -1.44442 0.630414 0
M  V30 1744 C 157.609 -2.33418 -0.0618083 0
M  V30 1745 C 158.59 -1.48165 -0.835541 0
M  V30 1746 O 159.775 -1.76886 -0.801564 0
M  V30 1747 C 156.905 -3.31222 -1.04449 0
M  V30 1748 C 155.859 -4.26288 -0.382436 0
M  V30 1749 C 155.185 -5.13954 -1.47497 0
M  V30 1750 C 156.485 -5.1744 0.710865 0
M  V30 1751 H 158.179 -2.91548 0.681184 0
M  V30 1752 H 155.725 -1.40191 0.329026 0
M  V30 1753 H 157.678 -3.92351 -1.53748 0
M  V30 1754 H 156.402 -2.71299 -1.81836 0
M  V30 1755 H 155.061 -3.6649 0.0899054 0
M  V30 1756 H 154.709 -4.50385 -2.2397 0
M  V30 1757 H 154.409 -5.7837 -1.03737 0
M  V30 1758 H 155.933 -5.77955 -1.96979 0
M  V30 1759 H 157.347 -5.72509 0.300996 0
M  V30 1760 H 155.744 -5.90455 1.07156 0
M  V30 1761 H 156.814 -4.58496 1.57829 0
M  V30 1762 N 158.157 -0.370918 -1.53173 0
M  V30 1763 C 159.385 0.217704 -2.05751 0
M  V30 1764 C 159.8 1.42018 -1.24404 0
M  V30 1765 O 159.157 1.80245 -0.286033 0
M  V30 1766 C 159.208 0.605954 -3.56385 0
M  V30 1767 O 158.929 -0.548734 -4.3465 0
M  V30 1768 C 160.43 1.2524 -4.25241 0
M  V30 1769 H 157.65 0.0371659 -0.66997 0
M  V30 1770 H 160.194 -0.530832 -1.9749 0
M  V30 1771 H 158.349 1.3044 -3.6478 0
M  V30 1772 H 158.763 -0.23376 -5.23979 0
M  V30 1773 H 160.237 1.47458 -5.3194 0
M  V30 1774 H 160.714 2.2143 -3.79296 0
M  V30 1775 H 161.32 0.595233 -4.21114 0
M  V30 1776 N 159.635 1.57281 -0.100228 0
M  V30 1777 C 160.875 1.96419 0.56558 0
M  V30 1778 C 161.239 0.981265 1.65031 0
M  V30 1779 O 162.44 1.26133 2.37369 0
M  V30 1780 C 160.711 3.39996 1.10171 0
M  V30 1781 S 162.27 4.01134 1.77867 0
M  V30 1782 H 159.088 0.68667 0.184406 0
M  V30 1783 H 161.69 1.94662 -0.180851 0
M  V30 1784 H 160.394 4.09296 0.300803 0
M  V30 1785 H 159.925 3.45361 1.88385 0
M  V30 1786 H 161.94 3.90358 3.06326 0
M  V30 1787 N 161.113 -0.173488 1.56642 0
M  V30 1788 C 162.362 -0.888758 1.81063 0
M  V30 1789 C 162.675 -1.83506 0.67712 0
M  V30 1790 O 163.881 -2.59254 0.806206 0
M  V30 1791 C 162.337 -1.63091 3.20826 0
M  V30 1792 C 161.945 -0.728357 4.4204 0
M  V30 1793 C 163.689 -2.33454 3.54541 0
M  V30 1794 C 161.596 -1.47062 5.72823 0
M  V30 1795 H 160.526 -0.335618 0.675186 0
M  V30 1796 H 163.177 -0.141712 1.82952 0
M  V30 1797 H 161.559 -2.42263 3.13248 0
M  V30 1798 H 162.733 0.0262449 4.60793 0
M  V30 1799 H 161.048 -0.134492 4.16183 0
M  V30 1800 H 163.645 -2.89578 4.49498 0
M  V30 1801 H 163.988 -3.08687 2.79317 0
M  V30 1802 H 164.521 -1.61227 3.63663 0
M  V30 1803 H 161.26 -0.760658 6.51072 0
M  V30 1804 H 160.78 -2.1986 5.58052 0
M  V30 1805 H 162.459 -2.01868 6.14702 0
M  V30 1806 N 162.591 -1.51276 -0.441967 0
M  V30 1807 C 163.816 -1.67799 -1.21895 0
M  V30 1808 C 164.241 -0.372864 -1.84367 0
M  V30 1809 O 163.599 0.666501 -1.68604 0
M  V30 1810 C 163.647 -2.79199 -2.28211 0
M  V30 1811 O 162.751 -2.42479 -3.33583 0
M  V30 1812 H 162.092 -0.559649 -0.357336 0
M  V30 1813 H 164.622 -1.97815 -0.522522 0
M  V30 1814 H 164.632 -3.03146 -2.73069 0
M  V30 1815 H 163.307 -3.73906 -1.82118 0
M  V30 1816 H 161.884 -2.29087 -2.94234 0
M  V30 1817 N 164.069 0.697108 -1.41344 0
M  V30 1818 C 165.315 1.4593 -1.40827 0
M  V30 1819 C 165.648 1.94193 -0.0167098 0
M  V30 1820 O 164.923 1.69425 0.955263 0
M  V30 1821 C 165.206 2.67229 -2.41373 0
M  V30 1822 C 165.059 2.24741 -3.8963 0
M  V30 1823 C 166.378 3.69423 -2.39196 0
M  V30 1824 H 163.497 0.529303 -0.512842 0
M  V30 1825 H 166.139 0.794112 -1.72609 0
M  V30 1826 H 164.289 3.23982 -2.14401 0
M  V30 1827 H 165.961 1.73327 -4.27499 0
M  V30 1828 H 164.204 1.56542 -4.0457 0
M  V30 1829 H 164.875 3.1177 -4.55525 0
M  V30 1830 H 167.351 3.2234 -2.63128 0
M  V30 1831 H 166.227 4.51907 -3.11563 0
M  V30 1832 H 166.488 4.19012 -1.41001 0
M  V30 1833 N 165.547 1.27147 0.931209 0
M  V30 1834 C 166.824 1.0401 1.65654 0
M  V30 1835 C 167.204 -0.426297 2.06751 0
M  V30 1836 O 166.552 -1.40879 1.79904 0
M  V30 1837 C 166.762 1.99834 2.86125 0
M  V30 1838 C 168.11 2.29007 3.57549 0
M  V30 1839 O 169.134 1.97779 2.96246 0
M  V30 1840 O 167.993 2.82222 4.67989 0
M  V30 1841 H 165.087 0.396239 0.725895 0
M  V30 1842 H 167.633 1.38397 0.982056 0
M  V30 1843 H 166.405 2.98744 2.52721 0
M  V30 1844 H 166.028 1.65987 3.61295 0
M  V30 1845 N 167.025 -1.13721 1.09112 0
M  V30 1846 C 168.441 -1.36914 0.820174 0
M  V30 1847 C 168.641 -1.93356 -0.567079 0
M  V30 1848 O 167.697 -2.15093 -1.32255 0
M  V30 1849 C 169.01 -2.3235 1.90877 0
M  V30 1850 C 170.558 -2.45973 1.93562 0
M  V30 1851 C 171.033 -3.44714 3.01556 0
M  V30 1852 N 172.524 -3.52263 3.00775 0
M  V30 1853 C 173.259 -4.28536 3.80978 0
M  V30 1854 N 172.755 -5.07991 4.71081 0
M  V30 1855 N 174.548 -4.23804 3.69251 0
M  V30 1856 H 166.699 -0.754348 1.98553 0
M  V30 1857 H 168.962 -0.3944 0.862063 0
M  V30 1858 H 168.668 -1.98027 2.90651 0
M  V30 1859 H 168.542 -3.32332 1.78424 0
M  V30 1860 H 170.929 -2.79584 0.944286 0
M  V30 1861 H 171.01 -1.45926 2.10093 0
M  V30 1862 H 170.654 -3.11835 4.00901 0
M  V30 1863 H 170.584 -4.44558 2.82269 0
M  V30 1864 H 173.075 -2.95567 2.35475 0
M  V30 1865 H 173.388 -5.63487 5.28869 0
M  V30 1866 H 171.733 -5.07235 4.75119 0
M  V30 1867 H 174.924 -3.60806 2.98222 0
M  V30 1868 H 175.097 -4.82995 4.31995 0
M  V30 1869 N 168.503 -0.877838 -1.30888 0
M  V30 1870 C 169.75 -0.492696 -1.96415 0
M  V30 1871 C 170.078 0.956671 -1.69346 0
M  V30 1872 O 169.333 1.68993 -0.986913 0
M  V30 1873 C 169.632 -0.705748 -3.50363 0
M  V30 1874 C 169.298 -2.1291 -3.97467 0
M  V30 1875 C 167.96 -2.51834 -4.1004 0
M  V30 1876 C 170.312 -3.05702 -4.22132 0
M  V30 1877 C 167.64 -3.82775 -4.44635 0
M  V30 1878 C 169.992 -4.36166 -4.58194 0
M  V30 1879 C 168.656 -4.74993 -4.68975 0
M  V30 1880 H 167.926 -0.18029 -0.718733 0
M  V30 1881 H 170.573 -1.11233 -1.55883 0
M  V30 1882 H 168.878 -0.00303058 -3.918 0
M  V30 1883 H 170.575 -0.387456 -3.99124 0
M  V30 1884 H 167.165 -1.81694 -3.88182 0
M  V30 1885 H 171.349 -2.76853 -4.11906 0
M  V30 1886 H 166.605 -4.12609 -4.51181 0
M  V30 1887 H 170.779 -5.08111 -4.76231 0
M  V30 1888 H 168.406 -5.76495 -4.95537 0
M  V30 1889 N 169.982 1.44106 -0.638065 0
M  V30 1890 C 170.912 2.33448 0.0494287 0
M  V30 1891 C 171.893 1.48606 0.827672 0
M  V30 1892 O 173.078 1.77308 0.792173 0
M  V30 1893 C 170.208 3.31771 1.02691 0
M  V30 1894 C 169.162 4.26485 0.359823 0
M  V30 1895 C 168.488 5.14729 1.44769 0
M  V30 1896 C 169.788 5.17056 -0.738296 0
M  V30 1897 H 171.482 2.91183 -0.696636 0
M  V30 1898 H 169.028 1.40014 -0.336456 0
M  V30 1899 H 170.981 3.93161 1.51666 0
M  V30 1900 H 169.705 2.7226 1.80395 0
M  V30 1901 H 168.364 3.66437 -0.10934 0
M  V30 1902 H 168.012 4.51566 2.21578 0
M  V30 1903 H 167.712 5.78913 1.00668 0
M  V30 1904 H 169.236 5.78991 1.93911 0
M  V30 1905 H 170.65 5.72342 -0.331354 0
M  V30 1906 H 169.047 5.89879 -1.10286 0
M  V30 1907 H 170.117 4.57652 -1.60258 0
M  V30 1908 N 171.46 0.379036 1.52974 0
M  V30 1909 C 172.423 -0.448865 2.24762 0
M  V30 1910 C 173.423 -0.998689 1.26027 0
M  V30 1911 O 174.613 -0.882313 1.50203 0
M  V30 1912 C 171.745 -1.62872 2.99476 0
M  V30 1913 H 172.938 0.179491 2.99362 0
M  V30 1914 H 170.491 0.13096 1.5575 0
M  V30 1915 H 171.226 -2.29479 2.29151 0
M  V30 1916 H 171.011 -1.24128 3.71934 0
M  V30 1917 H 172.501 -2.2151 3.5401 0
M  V30 1918 N 172.938 -1.57226 0.108567 0
M  V30 1919 C 174.187 -1.94008 -0.551703 0
M  V30 1920 C 174.5 -0.993442 -1.68494 0
M  V30 1921 O 175.706 -1.25551 -2.40726 0
M  V30 1922 C 174.162 -3.44763 -1.03279 0
M  V30 1923 C 173.77 -4.47943 0.0714193 0
M  V30 1924 C 175.514 -3.90483 -1.66503 0
M  V30 1925 C 173.421 -5.89865 -0.425779 0
M  V30 1926 H 172.351 -0.724206 -0.209863 0
M  V30 1927 H 175.002 -1.82547 0.186741 0
M  V30 1928 H 173.384 -3.51422 -1.82533 0
M  V30 1929 H 174.558 -4.52942 0.847365 0
M  V30 1930 H 172.873 -4.11913 0.609669 0
M  V30 1931 H 175.47 -4.93925 -2.04798 0
M  V30 1932 H 175.813 -3.29877 -2.53942 0
M  V30 1933 H 176.346 -3.86581 -0.938074 0
M  V30 1934 H 173.085 -6.54202 0.412316 0
M  V30 1935 H 172.605 -5.88309 -1.16843 0
M  V30 1936 H 174.284 -6.40844 -0.890397 0
M  V30 1937 N 174.416 0.165178 -1.56732 0
M  V30 1938 C 175.662 0.882112 -1.82611 0
M  V30 1939 C 175.995 1.81628 -0.687378 0
M  V30 1940 O 175.27 1.92009 0.310267 0
M  V30 1941 C 175.553 1.67245 -3.18906 0
M  V30 1942 C 175.406 0.760987 -4.43316 0
M  V30 1943 C 176.725 2.63884 -3.52212 0
M  V30 1944 H 173.844 0.319242 -0.664269 0
M  V30 1945 H 176.486 0.148052 -1.89422 0
M  V30 1946 H 174.636 2.29824 -3.1323 0
M  V30 1947 H 176.308 0.147596 -4.61064 0
M  V30 1948 H 174.551 0.0694102 -4.33744 0
M  V30 1949 H 175.222 1.34962 -5.35247 0
M  V30 1950 H 177.698 2.11429 -3.58381 0
M  V30 1951 H 176.574 3.16245 -4.48643 0
M  V30 1952 H 176.835 3.44377 -2.77231 0
M  V30 1953 N 175.894 1.51508 0.433938 0
M  V30 1954 C 177.124 1.67914 1.20369 0
M  V30 1955 C 177.532 0.377461 1.85397 0
M  V30 1956 O 176.875 -0.654255 1.71654 0
M  V30 1957 C 176.937 2.74045 2.32679 0
M  V30 1958 C 176.601 4.16543 1.87991 0
M  V30 1959 C 177.598 5.01211 1.38145 0
M  V30 1960 C 175.283 4.6266 1.95579 0
M  V30 1961 C 177.277 6.30056 0.964774 0
M  V30 1962 C 174.964 5.91501 1.53523 0
M  V30 1963 C 175.962 6.75027 1.04055 0
M  V30 1964 O 175.65 8.01459 0.625964 0
M  V30 1965 H 175.382 0.566578 0.368735 0
M  V30 1966 H 177.936 1.98709 0.51999 0
M  V30 1967 H 176.166 2.38572 3.04336 0
M  V30 1968 H 177.855 2.79295 2.94532 0
M  V30 1969 H 178.621 4.66783 1.31675 0
M  V30 1970 H 174.5 3.97767 2.33029 0
M  V30 1971 H 178.044 6.95202 0.57796 0
M  V30 1972 H 173.941 6.25442 1.59665 0
M  V30 1973 H 174.709 8.15043 0.751509 0
M  V30 1974 N 177.372 -0.689602 1.41712 0
M  V30 1975 C 178.783 -1.26973 1.36875 0
M  V30 1976 C 179.134 -1.96124 0.054748 0
M  V30 1977 O 178.259 -1.99141 -0.84687 0
M  V30 1978 C 178.854 -2.30912 2.47922 0
M  V30 1979 C 177.413 -2.84486 2.46464 0
M  V30 1980 C 176.56 -1.58603 2.27465 0
M  V30 1981 H 179.511 -0.48396 1.51141 0
M  V30 1982 H 179.532 -3.12331 2.17323 0
M  V30 1983 H 179.044 -1.80554 3.43543 0
M  V30 1984 H 177.145 -3.39005 1.54617 0
M  V30 1985 H 177.258 -3.34511 3.42986 0
M  V30 1986 H 175.622 -1.84632 1.75451 0
M  V30 1987 H 176.405 -1.10233 3.25121 0
M  V30 1988 N 178.85 -1.27639 -0.924453 0
M  V30 1989 C 180.097 -1.14167 -1.67249 0
M  V30 1990 C 180.425 0.311863 -1.91984 0
M  V30 1991 O 179.68 1.24425 -1.51053 0
M  V30 1992 C 179.979 -1.87407 -3.04325 0
M  V30 1993 C 179.645 -3.37249 -2.99289 0
M  V30 1994 C 178.307 -3.7812 -2.97622 0
M  V30 1995 C 180.659 -4.32845 -2.90336 0
M  V30 1996 C 177.987 -5.12944 -2.8479 0
M  V30 1997 C 180.339 -5.6773 -2.79045 0
M  V30 1998 C 179.003 -6.07889 -2.7573 0
M  V30 1999 H 178.273 -0.417766 -0.612007 0
M  V30 2000 H 180.92 -1.58286 -1.07786 0
M  V30 2001 H 179.225 -1.35805 -3.67511 0
M  V30 2002 H 180.922 -1.74408 -3.61086 0
M  V30 2003 H 177.512 -3.04748 -3.01374 0
M  V30 2004 H 181.696 -4.02239 -2.90719 0
M  V30 2005 H 176.952 -5.432 -2.80612 0
M  V30 2006 H 181.126 -6.41472 -2.71083 0
M  V30 2007 H 178.753 -7.12314 -2.65544 0
M  V30 2008 N 180.328 1.1314 -1.09713 0
M  V30 2009 C 181.275 2.18642 -0.739196 0
M  V30 2010 C 182.245 1.63706 0.280978 0
M  V30 2011 O 183.43 1.90111 0.161946 0
M  V30 2012 C 180.57 3.44685 -0.169102 0
M  V30 2013 C 179.683 4.13711 -1.24367 0
M  V30 2014 C 178.818 5.27379 -0.636019 0
M  V30 2015 C 177.857 5.88259 -1.69169 0
M  V30 2016 N 176.994 6.93352 -1.10485 0
M  V30 2017 H 181.834 2.48607 -1.64312 0
M  V30 2018 H 179.371 1.22066 -0.820875 0
M  V30 2019 H 181.329 4.16815 0.179256 0
M  V30 2020 H 179.959 3.15161 0.698079 0
M  V30 2021 H 179.011 3.39835 -1.70927 0
M  V30 2022 H 180.323 4.55037 -2.04311 0
M  V30 2023 H 179.477 6.06238 -0.236677 0
M  V30 2024 H 178.216 4.8731 0.194928 0
M  V30 2025 H 177.221 5.08092 -2.10055 0
M  V30 2026 H 178.446 6.30399 -2.52536 0
M  V30 2027 H 176.392 6.55335 -0.295234 0
M  V30 2028 H 176.309 7.33236 -1.84121 0
M  V30 2029 H 177.577 7.76057 -0.73181 0
M  V30 2030 N 181.806 0.884767 1.30421 0
M  V30 2031 C 183.031 0.517288 2.00845 0
M  V30 2032 C 183.456 -0.886779 1.65885 0
M  V30 2033 O 182.814 -1.58768 0.875354 0
M  V30 2034 C 182.862 0.698994 3.5376 0
M  V30 2035 O 181.966 -0.255208 4.1161 0
M  V30 2036 H 181.307 0.203872 0.631927 0
M  V30 2037 H 183.837 1.19225 1.66272 0
M  V30 2038 H 183.847 0.597912 4.03595 0
M  V30 2039 H 182.522 1.72271 3.78544 0
M  V30 2040 H 181.099 -0.10784 3.72744 0
M  V30 2041 N 183.284 -1.43765 0.645699 0
M  V30 2042 C 184.231 -2.30745 -0.0504648 0
M  V30 2043 C 185.201 -1.4432 -0.822241 0
M  V30 2044 O 186.386 -1.73202 -0.800358 0
M  V30 2045 C 183.526 -3.29802 -1.0161 0
M  V30 2046 C 182.639 -4.31326 -0.241219 0
M  V30 2047 C 181.774 -5.17469 -1.19998 0
M  V30 2048 C 180.813 -6.10691 -0.415094 0
M  V30 2049 N 179.95 -6.89483 -1.32506 0
M  V30 2050 H 184.79 -2.8973 0.697155 0
M  V30 2051 H 182.327 -1.42738 0.355563 0
M  V30 2052 H 184.285 -3.85734 -1.58949 0
M  V30 2053 H 182.915 -2.72483 -1.73069 0
M  V30 2054 H 181.967 -3.77749 0.448334 0
M  V30 2055 H 183.279 -4.9743 0.369437 0
M  V30 2056 H 182.433 -5.7799 -1.84424 0
M  V30 2057 H 181.172 -4.51473 -1.84455 0
M  V30 2058 H 180.177 -5.49265 0.242565 0
M  V30 2059 H 181.402 -6.78727 0.224966 0
M  V30 2060 H 179.348 -6.26142 -1.95657 0
M  V30 2061 H 179.265 -7.52081 -0.768783 0
M  V30 2062 H 180.533 -7.54516 -1.9577 0
M  V30 2063 N 184.763 -0.387143 -1.52771 0
M  V30 2064 C 185.991 0.195869 -2.05971 0
M  V30 2065 C 186.406 1.40691 -1.25903 0
M  V30 2066 O 185.763 1.79931 -0.305134 0
M  V30 2067 C 185.814 0.56812 -3.57008 0
M  V30 2068 O 185.535 -0.594803 -4.34043 0
M  V30 2069 C 187.036 1.20723 -4.26545 0
M  V30 2070 H 184.256 0.0300578 -0.670326 0
M  V30 2071 H 186.8 -0.551749 -1.96916 0
M  V30 2072 H 184.955 1.26564 -3.66143 0
M  V30 2073 H 185.369 -0.289322 -5.23701 0
M  V30 2074 H 186.843 1.41807 -5.33474 0
M  V30 2075 H 187.32 2.17395 -3.81623 0
M  V30 2076 H 187.926 0.550535 -4.21722 0
M  V30 2077 N 186.241 1.57166 -0.116904 0
M  V30 2078 C 187.171 2.18222 0.830759 0
M  V30 2079 C 188.152 1.12167 1.27877 0
M  V30 2080 O 189.337 1.40394 1.34176 0
M  V30 2081 C 186.467 2.77996 2.08172 0
M  V30 2082 C 185.421 3.89614 1.77157 0
M  V30 2083 C 184.747 4.36187 3.09265 0
M  V30 2084 C 186.047 5.1181 1.04151 0
M  V30 2085 H 187.741 2.97664 0.321992 0
M  V30 2086 H 185.287 1.4318 0.153434 0
M  V30 2087 H 187.24 3.19366 2.74924 0
M  V30 2088 H 185.964 1.9584 2.6137 0
M  V30 2089 H 184.623 3.48816 1.12796 0
M  V30 2090 H 184.271 3.50893 3.60393 0
M  V30 2091 H 183.971 5.11455 2.89288 0
M  V30 2092 H 185.495 4.80207 3.77139 0
M  V30 2093 H 186.909 5.50214 1.61052 0
M  V30 2094 H 185.306 5.92648 0.942762 0
M  V30 2095 H 186.376 4.84892 0.0279022 0
M  V30 2096 N 187.719 -0.156864 1.56817 0
M  V30 2097 C 189.135 -0.50916 1.5126 0
M  V30 2098 C 189.335 -1.83897 0.823658 0
M  V30 2099 O 188.391 -2.49469 0.390055 0
M  V30 2100 C 189.704 -0.52857 2.96018 0
M  V30 2101 C 191.252 -0.614771 3.06903 0
M  V30 2102 C 191.727 -0.664938 4.53147 0
M  V30 2103 N 193.218 -0.727433 4.57452 0
M  V30 2104 C 193.953 -0.787067 5.67973 0
M  V30 2105 N 193.449 -0.806649 6.88088 0
M  V30 2106 N 195.242 -0.827195 5.5598 0
M  V30 2107 H 187.393 0.714935 2.00006 0
M  V30 2108 H 189.656 0.259526 0.911784 0
M  V30 2109 H 189.362 0.380154 3.49639 0
M  V30 2110 H 189.236 -1.36998 3.51442 0
M  V30 2111 H 191.623 -1.51392 2.53307 0
M  V30 2112 H 191.704 0.253597 2.5454 0
M  V30 2113 H 191.348 0.230011 5.07379 0
M  V30 2114 H 191.278 -1.54966 5.03282 0
M  V30 2115 H 193.769 -0.719998 3.70978 0
M  V30 2116 H 194.082 -0.853727 7.6807 0
M  V30 2117 H 192.427 -0.774687 6.90669 0
M  V30 2118 H 195.618 -0.808998 4.61056 0
M  V30 2119 H 195.791 -0.870206 6.4213 0
M  V30 2120 N 189.197 -1.51736 -0.425897 0
M  V30 2121 C 190.425 -1.68794 -1.1965 0
M  V30 2122 C 190.84 -0.390164 -1.84725 0
M  V30 2123 O 190.197 0.632376 -1.71194 0
M  V30 2124 C 190.248 -2.81174 -2.27208 0
M  V30 2125 O 189.969 -4.05925 -1.64793 0
M  V30 2126 C 191.47 -3.09599 -3.17275 0
M  V30 2127 H 188.69 -0.566128 -0.360194 0
M  V30 2128 H 191.234 -1.98211 -0.503249 0
M  V30 2129 H 189.389 -2.54324 -2.9223 0
M  V30 2130 H 189.803 -4.68423 -2.35967 0
M  V30 2131 H 191.277 -3.91786 -3.88854 0
M  V30 2132 H 191.754 -2.22468 -3.78688 0
M  V30 2133 H 192.36 -3.38151 -2.57941 0
M  V30 2134 N 190.675 0.682077 -1.42076 0
M  V30 2135 C 191.622 1.79578 -1.44984 0
M  V30 2136 C 192.592 1.6332 -0.302614 0
M  V30 2137 O 193.777 1.83978 -0.505633 0
M  V30 2138 C 190.917 3.1756 -1.35091 0
M  V30 2139 C 190.03 3.45156 -2.59791 0
M  V30 2140 C 189.165 4.72826 -2.42093 0
M  V30 2141 C 188.204 4.93433 -3.62202 0
M  V30 2142 N 187.341 6.12338 -3.43491 0
M  V30 2143 H 192.181 1.76427 -2.40161 0
M  V30 2144 H 189.718 0.861376 -1.19242 0
M  V30 2145 H 191.676 3.97287 -1.27354 0
M  V30 2146 H 190.306 3.19854 -0.435133 0
M  V30 2147 H 189.358 2.59736 -2.77923 0
M  V30 2148 H 190.67 3.5628 -3.49094 0
M  V30 2149 H 189.824 5.60631 -2.319 0
M  V30 2150 H 188.563 4.63973 -1.50268 0
M  V30 2151 H 187.568 4.04073 -3.72834 0
M  V30 2152 H 188.793 5.04136 -4.54998 0
M  V30 2153 H 186.739 6.04672 -2.54377 0
M  V30 2154 H 186.656 6.2429 -4.26377 0
M  V30 2155 H 187.924 7.02841 -3.37097 0
M  V30 2156 N 192.153 1.28127 0.917671 0
M  V30 2157 C 193.569 1.05749 1.19538 0
M  V30 2158 C 193.769 -0.202633 2.00479 0
M  V30 2159 O 192.825 -0.905382 2.3571 0
M  V30 2160 C 194.138 2.30273 1.93378 0
M  V30 2161 C 195.686 2.35412 2.06277 0
M  V30 2162 C 196.161 3.59692 2.83524 0
M  V30 2163 N 197.652 3.60309 2.91087 0
M  V30 2164 C 198.387 4.53147 3.51348 0
M  V30 2165 N 197.883 5.563 4.12919 0
M  V30 2166 N 199.676 4.40751 3.48849 0
M  V30 2167 H 191.827 2.09024 0.377184 0
M  V30 2168 H 194.09 0.919798 0.22951 0
M  V30 2169 H 193.796 3.22055 1.41328 0
M  V30 2170 H 193.67 2.36378 2.93947 0
M  V30 2171 H 196.057 1.4413 2.57508 0
M  V30 2172 H 196.138 2.33304 1.04895 0
M  V30 2173 H 195.782 4.51316 2.32973 0
M  V30 2174 H 195.712 3.59054 3.85211 0
M  V30 2175 H 198.203 2.85714 2.47338 0
M  V30 2176 H 198.516 6.2329 4.56869 0
M  V30 2177 H 196.861 5.60131 4.11435 0
M  V30 2178 H 200.052 3.59367 2.99955 0
M  V30 2179 H 200.225 5.13291 3.9552 0
M  V30 2180 N 193.631 -1.12557 1.10312 0
M  V30 2181 C 194.579 -2.20325 0.745629 0
M  V30 2182 C 195.573 -1.67429 -0.25763 0
M  V30 2183 O 196.779 -1.79612 -0.118132 0
M  V30 2184 H 193.154 -0.718118 0.223182 0
M  V30 2185 H 195.125 -2.47733 1.66346 0
M  V30 2186 C 193.874 -3.47168 0.192262 0
M  V30 2187 H 193.197 -3.88215 0.955475 0
M  V30 2188 H 194.637 -4.23995 -0.0198274 0
M  V30 2189 C 193.096 -3.19298 -1.07472 0
M  V30 2190 O 193.626 -3.3891 -2.15645 0
M  V30 2191 N 191.832 -2.73113 -0.992847 0
M  V30 2192 H 191.379 -2.57354 -0.112474 0
M  V30 2193 H 191.337 -2.54842 -1.84127 0
M  V30 2194 N 195.109 -0.891671 -1.2995 0
M  V30 2195 C 196.072 -0.36828 -2.26222 0
M  V30 2196 C 197.072 0.493014 -1.53056 0
M  V30 2197 O 198.262 0.299213 -1.71611 0
M  V30 2198 C 195.394 0.47442 -3.37583 0
M  V30 2199 H 196.587 -1.21844 -2.74033 0
M  V30 2200 H 194.14 -0.669107 -1.41254 0
M  V30 2201 H 194.875 1.34489 -2.95099 0
M  V30 2202 H 194.66 -0.142615 -3.91841 0
M  V30 2203 H 196.15 0.83218 -4.09224 0
M  V30 2204 N 196.587 1.43421 -0.653314 0
M  V30 2205 C 197.534 2.30768 0.0382271 0
M  V30 2206 C 198.504 1.44755 0.814576 0
M  V30 2207 O 199.689 1.73624 0.791162 0
M  V30 2208 C 196.829 3.30336 0.998599 0
M  V30 2209 C 195.942 4.31448 0.218342 0
M  V30 2210 C 195.077 5.18098 1.17252 0
M  V30 2211 C 194.116 6.10902 0.382702 0
M  V30 2212 N 193.253 6.90176 1.28848 0
M  V30 2213 H 198.093 2.89357 -0.712511 0
M  V30 2214 H 195.63 1.42548 -0.363128 0
M  V30 2215 H 197.588 3.86572 1.56901 0
M  V30 2216 H 196.218 2.73397 1.71621 0
M  V30 2217 H 195.27 3.77506 -0.46836 0
M  V30 2218 H 196.582 4.97227 -0.395812 0
M  V30 2219 H 195.736 5.7896 1.81356 0
M  V30 2220 H 194.475 4.52444 1.82058 0
M  V30 2221 H 193.48 5.49128 -0.27169 0
M  V30 2222 H 194.705 6.78598 -0.260957 0
M  V30 2223 H 192.651 6.27171 1.92334 0
M  V30 2224 H 192.568 7.52478 0.728887 0
M  V30 2225 H 193.836 7.55543 1.91766 0
M  V30 2226 N 198.065 0.39524 1.52563 0
M  V30 2227 C 199.314 -0.186321 2.00838 0
M  V30 2228 C 199.627 -1.47402 1.28577 0
M  V30 2229 O 200.833 -2.13599 1.67593 0
M  V30 2230 C 199.289 -0.382595 3.57861 0
M  V30 2231 C 198.897 0.892202 4.39026 0
M  V30 2232 C 200.641 -0.9202 4.14406 0
M  V30 2233 C 198.548 0.66388 5.87662 0
M  V30 2234 H 197.478 -0.0734041 0.750418 0
M  V30 2235 H 200.129 0.518552 1.76021 0
M  V30 2236 H 198.511 -1.14946 3.7895 0
M  V30 2237 H 199.685 1.66414 4.29701 0
M  V30 2238 H 198 1.35519 3.9373 0
M  V30 2239 H 200.597 -1.10683 5.23119 0
M  V30 2240 H 200.94 -1.89096 3.70875 0
M  V30 2241 H 201.473 -0.212751 3.97231 0
M  V30 2242 H 198.212 1.6058 6.35527 0
M  V30 2243 H 197.732 -0.0690193 5.9976 0
M  V30 2244 H 199.411 0.300699 6.46301 0
M  V30 2245 N 199.544 -1.57102 0.125237 0
M  V30 2246 C 200.79 -1.95697 -0.532035 0
M  V30 2247 C 201.123 -1.009 -1.6593 0
M  V30 2248 O 200.398 -0.047347 -1.94442 0
M  V30 2249 C 200.681 -3.44181 -1.05884 0
M  V30 2250 C 200.534 -4.49752 0.0654392 0
M  V30 2251 C 201.853 -3.94655 -1.9477 0
M  V30 2252 H 198.972 -0.711571 -0.191925 0
M  V30 2253 H 201.614 -1.88923 0.20206 0
M  V30 2254 H 199.764 -3.50085 -1.68442 0
M  V30 2255 H 201.436 -4.55943 0.700982 0
M  V30 2256 H 199.679 -4.27653 0.727709 0
M  V30 2257 H 200.35 -5.50924 -0.344505 0
M  V30 2258 H 202.826 -3.91094 -1.42074 0
M  V30 2259 H 201.702 -4.99057 -2.28546 0
M  V30 2260 H 201.963 -3.35718 -2.87656 0
M  V30 2261 N 201.022 0.148545 -1.56898 0
M  V30 2262 C 202.262 0.86765 -1.85071 0
M  V30 2263 C 202.626 1.78417 -0.709317 0
M  V30 2264 O 203.827 2.54261 -0.872049 0
M  V30 2265 C 202.098 1.62306 -3.1842 0
M  V30 2266 S 203.657 2.3878 -3.68143 0
M  V30 2267 H 200.475 0.290174 -0.649092 0
M  V30 2268 H 203.077 0.127755 -1.95082 0
M  V30 2269 H 201.781 0.941192 -3.99462 0
M  V30 2270 H 201.312 2.4039 -3.1141 0
M  V30 2271 H 203.327 3.63942 -3.37285 0
M  V30 2272 N 202.5 1.5196 0.417844 0
M  V30 2273 C 203.728 1.69426 1.18753 0
M  V30 2274 C 204.143 0.399955 1.84515 0
M  V30 2275 O 203.5 -0.623288 1.71527 0
M  V30 2276 C 203.551 2.82375 2.25714 0
M  V30 2277 O 203.272 4.06793 1.62638 0
M  V30 2278 C 204.773 3.11277 3.15628 0
M  V30 2279 H 201.993 0.568031 0.357186 0
M  V30 2280 H 204.537 1.98475 0.49273 0
M  V30 2281 H 202.692 2.5587 2.90877 0
M  V30 2282 H 203.106 4.69667 2.3348 0
M  V30 2283 H 204.58 3.93843 3.86771 0
M  V30 2284 H 205.057 2.24473 3.77503 0
M  V30 2285 H 205.663 3.39515 2.56144 0
M  V30 2286 N 203.978 -0.674533 1.42435 0
M  V30 2287 C 205.226 -1.43175 1.42637 0
M  V30 2288 C 205.547 -1.94951 0.0438992 0
M  V30 2289 O 204.817 -1.7308 -0.917607 0
M  V30 2290 H 203.397 -0.531307 0.525092 0
M  V30 2291 H 206.059 -0.797006 1.77859 0
M  V30 2292 H 205.155 -2.28463 2.12629 0
M  V30 2293 N 205.456 -1.28612 -0.910864 0
M  V30 2294 C 206.702 -1.16106 -1.66274 0
M  V30 2295 C 207.035 0.289113 -1.92036 0
M  V30 2296 O 206.31 1.21 -1.52281 0
M  V30 2297 C 206.593 -1.96309 -3.01885 0
M  V30 2298 C 206.446 -3.49405 -2.8326 0
M  V30 2299 C 207.765 -1.78076 -4.02463 0
M  V30 2300 H 204.884 -0.423152 -0.603417 0
M  V30 2301 H 207.526 -1.57961 -1.05586 0
M  V30 2302 H 205.676 -1.60742 -3.53687 0
M  V30 2303 H 207.348 -3.94894 -2.38446 0
M  V30 2304 H 205.591 -3.74893 -2.18261 0
M  V30 2305 H 206.262 -4.00784 -3.79574 0
M  V30 2306 H 208.738 -2.0912 -3.59733 0
M  V30 2307 H 207.614 -2.36561 -4.95308 0
M  V30 2308 H 207.875 -0.733008 -4.35981 0
M  V30 2309 N 206.934 1.1197 -1.10907 0
M  V30 2310 C 208.18 1.84059 -0.865674 0
M  V30 2311 C 208.535 1.82731 0.602254 0
M  V30 2312 O 207.828 1.26543 1.43866 0
M  V30 2313 C 208.022 3.30749 -1.35425 0
M  V30 2314 C 207.851 3.46363 -2.86815 0
M  V30 2315 C 206.621 3.59712 -3.54874 0
M  V30 2316 C 208.819 3.41116 -3.84895 0
M  V30 2317 N 206.801 3.63741 -4.94536 0
M  V30 2318 C 208.172 3.51698 -5.10596 0
M  V30 2319 C 210.227 3.24612 -3.77533 0
M  V30 2320 C 208.93 3.4748 -6.29802 0
M  V30 2321 C 210.956 3.21708 -4.96244 0
M  V30 2322 C 210.318 3.32856 -6.20795 0
M  V30 2323 H 206.417 0.689015 -0.369841 0
M  V30 2324 H 209.001 1.34016 -1.41237 0
M  V30 2325 H 207.172 3.79322 -0.834814 0
M  V30 2326 H 208.904 3.90718 -1.05458 0
M  V30 2327 H 205.659 3.62038 -3.05329 0
M  V30 2328 H 206.083 3.69408 -5.67333 0
M  V30 2329 H 210.725 3.14883 -2.8215 0
M  V30 2330 H 208.443 3.55978 -7.25469 0
M  V30 2331 H 212.029 3.10113 -4.92261 0
M  V30 2332 H 210.909 3.3059 -7.11112 0
M  V30 2333 N 208.412 0.89855 1.29475 0
M  V30 2334 C 209.342 0.39201 2.30186 0
M  V30 2335 C 210.323 -0.532359 1.61555 0
M  V30 2336 O 211.508 -0.443331 1.89072 0
M  V30 2337 C 208.638 -0.382353 3.45189 0
M  V30 2338 C 207.592 0.451483 4.25612 0
M  V30 2339 C 206.918 -0.450307 5.328 0
M  V30 2340 C 208.218 1.70079 4.93832 0
M  V30 2341 H 209.912 1.23362 2.72804 0
M  V30 2342 H 207.458 0.594638 1.31149 0
M  V30 2343 H 209.411 -0.747451 4.14718 0
M  V30 2344 H 208.135 -1.25774 3.01411 0
M  V30 2345 H 206.794 0.798897 3.57789 0
M  V30 2346 H 206.442 -1.32379 4.85268 0
M  V30 2347 H 206.142 0.103902 5.87508 0
M  V30 2348 H 207.666 -0.811623 6.05182 0
M  V30 2349 H 209.08 1.40549 5.55805 0
M  V30 2350 H 207.477 2.19623 5.58467 0
M  V30 2351 H 208.547 2.43744 4.19186 0
M  V30 2352 N 209.89 -1.43072 0.660911 0
M  V30 2353 C 211.118 -2.06067 0.185422 0
M  V30 2354 C 211.533 -1.49582 -1.15198 0
M  V30 2355 O 210.89 -0.630134 -1.71276 0
M  V30 2356 C 210.941 -3.61371 0.0966523 0
M  V30 2357 O 210.662 -4.15758 1.38119 0
M  V30 2358 C 212.163 -4.41455 -0.403996 0
M  V30 2359 H 209.383 -0.664459 0.0934604 0
M  V30 2360 H 211.927 -1.83447 0.90373 0
M  V30 2361 H 210.082 -3.8315 -0.572259 0
M  V30 2362 H 210.496 -5.09499 1.24542 0
M  V30 2363 H 211.97 -5.50437 -0.415045 0
M  V30 2364 H 212.447 -4.15036 -1.43674 0
M  V30 2365 H 213.053 -4.24663 0.232691 0
M  V30 2366 N 211.368 -0.403325 -1.52352 0
M  V30 2367 C 212.614 0.174605 -2.02047 0
M  V30 2368 C 212.947 1.45282 -1.28867 0
M  V30 2369 O 212.222 1.90483 -0.393257 0
M  V30 2370 C 212.505 0.428238 -3.57545 0
M  V30 2371 C 212.358 -0.866248 -4.4138 0
M  V30 2372 C 213.677 1.21287 -4.23057 0
M  V30 2373 H 210.796 0.0619851 -0.734389 0
M  V30 2374 H 213.438 -0.53565 -1.82293 0
M  V30 2375 H 211.588 1.03327 -3.74507 0
M  V30 2376 H 213.26 -1.50265 -4.3614 0
M  V30 2377 H 211.503 -1.47851 -4.07827 0
M  V30 2378 H 212.174 -0.643249 -5.48239 0
M  V30 2379 H 214.65 0.700703 -4.10158 0
M  V30 2380 H 213.526 1.35909 -5.31808 0
M  V30 2381 H 213.787 2.23193 -3.81625 0
M  V30 2382 N 212.846 1.57033 -0.133567 0
M  V30 2383 C 214.095 1.94861 0.520768 0
M  V30 2384 C 214.408 1.02012 1.66892 0
M  V30 2385 O 215.614 1.29365 2.38699 0
M  V30 2386 C 214.07 3.46362 0.977809 0
M  V30 2387 C 213.678 4.47773 -0.142674 0
M  V30 2388 C 215.422 3.93083 1.60269 0
M  V30 2389 C 213.329 5.90468 0.331883 0
M  V30 2390 H 212.259 0.727453 0.198315 0
M  V30 2391 H 214.91 1.82227 -0.215759 0
M  V30 2392 H 213.292 3.54282 1.7692 0
M  V30 2393 H 214.466 4.51536 -0.919317 0
M  V30 2394 H 212.781 4.10891 -0.675124 0
M  V30 2395 H 215.378 4.97121 1.96914 0
M  V30 2396 H 215.721 3.33876 2.48662 0
M  V30 2397 H 216.254 3.88025 0.876453 0
M  V30 2398 H 212.993 6.53463 -0.516341 0
M  V30 2399 H 212.513 5.90094 1.07469 0
M  V30 2400 H 214.192 6.42179 0.788332 0
M  V30 2401 N 214.325 -0.140222 1.56975 0
M  V30 2402 C 215.573 -0.850005 1.83356 0
M  V30 2403 C 215.894 -1.81399 0.71551 0
M  V30 2404 O 215.164 -1.94136 -0.262294 0
M  V30 2405 H 213.744 -0.316886 0.676456 0
M  V30 2406 H 216.406 -0.132608 1.94448 0
M  V30 2407 H 215.502 -1.40814 2.78528 0
M  V30 2408 N 215.803 -1.52179 -0.40978 0
M  V30 2409 C 217.051 -1.65878 -1.15451 0
M  V30 2410 C 217.372 -0.390771 -1.91044 0
M  V30 2411 O 216.642 0.594323 -1.86667 0
M  V30 2412 H 215.222 -0.611405 -0.429177 0
M  V30 2413 H 217.884 -1.89219 -0.467134 0
M  V30 2414 H 216.98 -2.49954 -1.86894 0
M  V30 2415 N 217.281 0.66697 -1.42791 0
M  V30 2416 C 218.506 1.46004 -1.47301 0
M  V30 2417 C 218.931 1.87894 -0.0880317 0
M  V30 2418 O 218.289 1.56502 0.915253 0
M  V30 2419 C 218.337 2.68031 -2.41229 0
M  V30 2420 O 217.441 3.6659 -1.88906 0
M  V30 2421 H 216.782 0.43832 -0.49877 0
M  V30 2422 H 219.312 0.817391 -1.87563 0
M  V30 2423 H 219.322 3.1601 -2.58073 0
M  V30 2424 H 217.997 2.36883 -3.41847 0
M  V30 2425 H 216.574 3.25661 -1.81656 0
M  V30 2426 N 218.759 1.29093 0.90403 0
M  V30 2427 C 219.722 1.1386 1.98919 0
M  V30 2428 C 220.722 0.0753457 1.60623 0
M  V30 2429 O 221.912 0.321931 1.71199 0
M  V30 2430 C 219.044 0.740198 3.32767 0
M  V30 2431 H 220.237 2.10246 2.13861 0
M  V30 2432 H 217.79 1.12218 1.08797 0
M  V30 2433 H 218.525 -0.223997 3.23525 0
M  V30 2434 H 218.31 1.50838 3.61926 0
M  V30 2435 H 219.8 0.656546 4.12407 0
M  V30 2436 N 220.237 -1.11381 1.11499 0
M  V30 2437 C 221.648 -1.6465 0.880191 0
M  V30 2438 C 221.999 -1.87199 -0.587434 0
M  V30 2439 O 221.124 -1.60667 -1.44966 0
M  V30 2440 C 221.719 -2.99105 1.59128 0
M  V30 2441 C 220.278 -3.49279 1.40289 0
M  V30 2442 C 219.425 -2.24077 1.63354 0
M  V30 2443 H 222.376 -0.950123 1.27116 0
M  V30 2444 H 222.397 -3.66107 1.03664 0
M  V30 2445 H 221.909 -2.82661 2.65941 0
M  V30 2446 H 220.01 -3.70887 0.356888 0
M  V30 2447 H 220.123 -4.2803 2.15238 0
M  V30 2448 H 218.487 -2.31733 1.05698 0
M  V30 2449 H 219.27 -2.10175 2.71443 0
M  V30 2450 N 221.715 -0.905404 -1.28997 0
M  V30 2451 C 222.678 -0.392253 -2.25819 0
M  V30 2452 C 223.678 0.476753 -1.5357 0
M  V30 2453 O 224.868 0.280994 -1.71919 0
M  V30 2454 C 222 0.438588 -3.38067 0
M  V30 2455 H 223.193 -1.24743 -2.72725 0
M  V30 2456 H 220.746 -0.684051 -1.40536 0
M  V30 2457 H 221.481 1.31352 -2.96508 0
M  V30 2458 H 221.266 -0.184167 -3.91667 0
M  V30 2459 H 222.756 0.78873 -4.10084 0
M  V30 2460 N 223.193 1.4272 -0.668489 0
M  V30 2461 C 224.439 2.01923 -0.188419 0
M  V30 2462 C 224.772 1.52704 1.19979 0
M  V30 2463 O 224.047 0.726566 1.8042 0
M  V30 2464 C 224.33 3.59451 -0.216085 0
M  V30 2465 C 224.183 4.18864 -1.6393 0
M  V30 2466 C 225.502 4.37903 0.439179 0
M  V30 2467 H 222.621 0.733674 -0.0699412 0
M  V30 2468 H 225.263 1.69822 -0.852076 0
M  V30 2469 H 223.413 3.86929 0.349012 0
M  V30 2470 H 225.085 4.02362 -2.25616 0
M  V30 2471 H 223.328 3.74933 -2.18193 0
M  V30 2472 H 223.999 5.27987 -1.61039 0
M  V30 2473 H 226.475 4.16079 -0.0417878 0
M  V30 2474 H 225.351 5.47519 0.389157 0
M  V30 2475 H 225.612 4.15303 1.51577 0
M  V30 2476 N 224.671 0.411399 1.52136 0
M  V30 2477 C 225.918 -0.163645 2.01838 0
M  V30 2478 C 226.246 -1.4495 1.29691 0
M  V30 2479 O 225.501 -1.91725 0.392431 0
M  V30 2480 C 225.8 -0.455872 3.54481 0
M  V30 2481 C 225.466 0.741055 4.44769 0
M  V30 2482 C 224.128 1.06936 4.69167 0
M  V30 2483 C 226.48 1.54075 4.97906 0
M  V30 2484 C 223.808 2.19851 5.43951 0
M  V30 2485 C 226.16 2.66067 5.73926 0
M  V30 2486 C 224.824 2.99381 5.96596 0
M  V30 2487 H 224.094 -0.0598821 0.738576 0
M  V30 2488 H 226.741 0.553283 1.83333 0
M  V30 2489 H 225.046 -1.2544 3.71177 0
M  V30 2490 H 226.743 -0.913802 3.90449 0
M  V30 2491 H 223.333 0.475192 4.25958 0
M  V30 2492 H 227.517 1.30033 4.78963 0
M  V30 2493 H 222.773 2.46006 5.59724 0
M  V30 2494 H 226.947 3.28419 6.14096 0
M  V30 2495 H 224.574 3.86992 6.54325 0
M  V30 2496 N 226.149 -1.5696 0.141893 0
M  V30 2497 C 227.395 -1.9625 -0.511248 0
M  V30 2498 C 227.728 -1.02654 -1.64851 0
M  V30 2499 O 227.003 -0.0679676 -1.94381 0
M  V30 2500 C 227.286 -3.45285 -1.02227 0
M  V30 2501 C 227.139 -4.49658 0.113138 0
M  V30 2502 C 228.458 -3.96698 -1.90574 0
M  V30 2503 H 225.577 -0.713567 -0.184367 0
M  V30 2504 H 228.219 -1.88698 0.222087 0
M  V30 2505 H 226.369 -3.51852 -1.64719 0
M  V30 2506 H 228.041 -4.55174 0.749302 0
M  V30 2507 H 226.284 -4.26857 0.773026 0
M  V30 2508 H 226.955 -5.51258 -0.286053 0
M  V30 2509 H 229.431 -3.92578 -1.37918 0
M  V30 2510 H 228.307 -5.01453 -2.2324 0
M  V30 2511 H 228.568 -3.3875 -2.84079 0
M  V30 2512 N 227.627 0.131896 -1.57047 0
M  V30 2513 C 228.559 1.1878 -1.9602 0
M  V30 2514 C 229.572 1.38363 -0.857875 0
M  V30 2515 O 230.761 1.37666 -1.13623 0
M  V30 2516 C 227.861 2.55008 -2.23213 0
M  V30 2517 C 227.034 2.56201 -3.54513 0
M  V30 2518 C 226.093 3.7408 -3.70069 0
M  V30 2519 O 225.119 3.58258 -4.42312 0
M  V30 2520 N 226.321 4.92137 -3.07866 0
M  V30 2521 H 229.086 0.85639 -2.87204 0
M  V30 2522 H 226.647 0.321309 -1.5868 0
M  V30 2523 H 228.639 3.32404 -2.30846 0
M  V30 2524 H 227.209 2.80382 -1.3822 0
M  V30 2525 H 226.429 1.64613 -3.58185 0
M  V30 2526 H 227.717 2.54043 -4.4084 0
M  V30 2527 H 227.115 5.07895 -2.49116 0
M  V30 2528 H 225.672 5.67254 -3.21039 0
M  V30 2529 N 229.106 1.52395 0.401703 0
M  V30 2530 C 230.331 1.70972 1.17403 0
M  V30 2531 C 230.756 0.421615 1.83314 0
M  V30 2532 O 230.114 -0.621564 1.70312 0
M  V30 2533 C 230.162 2.85151 2.20728 0
M  V30 2534 O 229.266 2.51238 3.27037 0
M  V30 2535 H 228.607 0.568927 0.342372 0
M  V30 2536 H 231.137 1.99131 0.469891 0
M  V30 2537 H 231.147 3.10279 2.64936 0
M  V30 2538 H 229.822 3.78603 1.7214 0
M  V30 2539 H 228.399 2.36808 2.88057 0
M  V30 2540 N 230.584 -0.659388 1.43143 0
M  V30 2541 C 231.812 -1.44723 1.47861 0
M  V30 2542 C 232.227 -1.88563 0.0945886 0
M  V30 2543 O 231.584 -1.59108 -0.893915 0
M  V30 2544 C 231.635 -2.68627 2.41913 0
M  V30 2545 O 231.356 -2.26623 3.74932 0
M  V30 2546 C 232.857 -3.62045 2.55809 0
M  V30 2547 H 230.077 -0.444801 0.502387 0
M  V30 2548 H 232.621 -0.808916 1.87821 0
M  V30 2549 H 230.776 -3.28613 2.05164 0
M  V30 2550 H 231.19 -3.06745 4.2545 0
M  V30 2551 H 232.664 -4.45666 3.25708 0
M  V30 2552 H 233.141 -4.08981 1.60099 0
M  V30 2553 H 233.747 -3.07944 2.93344 0
M  V30 2554 N 232.062 -1.29571 -0.897171 0
M  V30 2555 C 233.012 -1.11539 -1.98855 0
M  V30 2556 C 233.996 -0.0340716 -1.60864 0
M  V30 2557 O 235.188 -0.256062 -1.75138 0
M  V30 2558 C 232.317 -0.796603 -3.3393 0
M  V30 2559 C 231.403 -1.91758 -3.78272 0
M  V30 2560 N 231.794 -3.16143 -3.94826 0
M  V30 2561 C 230.092 -1.81119 -4.07568 0
M  V30 2562 C 230.793 -3.89293 -4.32233 0
M  V30 2563 N 229.769 -3.17255 -4.41419 0
M  V30 2564 H 233.571 -2.05894 -2.09726 0
M  V30 2565 H 231.085 -1.20732 -1.08616 0
M  V30 2566 H 233.082 -0.648459 -4.11826 0
M  V30 2567 H 231.742 0.139003 -3.24402 0
M  V30 2568 H 232.753 -3.5157 -3.80288 0
M  V30 2569 H 229.43 -0.948461 -4.06584 0
M  V30 2570 H 230.82 -4.9635 -4.52865 0
M  V30 2571 N 233.54 1.10788 -1.12088 0
M  V30 2572 C 234.765 1.87002 -0.896949 0
M  V30 2573 C 235.19 1.79933 0.548261 0
M  V30 2574 O 234.548 1.16662 1.38779 0
M  V30 2575 C 234.596 3.3349 -1.37174 0
M  V30 2576 O 233.7 4.08745 -0.547831 0
M  V30 2577 H 233.041 0.580397 -0.322545 0
M  V30 2578 H 235.571 1.39996 -1.49206 0
M  V30 2579 H 235.581 3.84339 -1.36922 0
M  V30 2580 H 234.256 3.37951 -2.42408 0
M  V30 2581 H 232.833 3.6776 -0.617034 0
M  V30 2582 N 235.018 0.912232 1.28515 0
M  V30 2583 C 235.95 0.35676 2.26406 0
M  V30 2584 C 236.963 -0.503933 1.54804 0
M  V30 2585 O 238.152 -0.319059 1.75625 0
M  V30 2586 C 235.252 -0.508825 3.35058 0
M  V30 2587 C 234.425 0.329007 4.36161 0
M  V30 2588 C 233.484 -0.471422 5.24084 0
M  V30 2589 O 232.51 0.115482 5.69083 0
M  V30 2590 N 233.712 -1.77479 5.52704 0
M  V30 2591 H 236.477 1.19818 2.74707 0
M  V30 2592 H 234.038 0.778022 1.4198 0
M  V30 2593 H 236.03 -1.051 3.90815 0
M  V30 2594 H 234.6 -1.25095 2.86478 0
M  V30 2595 H 233.82 1.05256 3.79888 0
M  V30 2596 H 235.108 0.90234 5.00735 0
M  V30 2597 H 234.506 -2.27417 5.17975 0
M  V30 2598 H 233.063 -2.26382 6.11224 0
M  V30 2599 N 236.496 -1.42363 0.676048 0
M  V30 2600 C 237.744 -2.01123 0.198437 0
M  V30 2601 C 238.065 -1.53731 -1.19966 0
M  V30 2602 O 237.335 -0.759518 -1.80577 0
M  V30 2603 H 235.915 -0.743678 0.0703721 0
M  V30 2604 H 238.577 -1.74263 0.872837 0
M  V30 2605 H 237.673 -3.11454 0.200686 0
M  V30 2606 N 237.974 -0.419461 -1.51915 0
M  V30 2607 C 238.922 0.415502 -2.28859 0
M  V30 2608 C 239.916 1.03674 -1.3397 0
M  V30 2609 O 241.122 0.973757 -1.51387 0
M  V30 2610 H 237.497 0.152786 -0.736315 0
M  V30 2611 H 239.468 -0.254531 -2.97312 0
M  V30 2612 C 238.217 1.51425 -3.12995 0
M  V30 2613 H 237.54 1.04556 -3.85886 0
M  V30 2614 H 238.98 2.07208 -3.6992 0
M  V30 2615 C 237.439 2.48745 -2.27217 0
M  V30 2616 O 237.969 3.52871 -1.9195 0
M  V30 2617 N 236.175 2.19202 -1.90785 0
M  V30 2618 H 235.722 1.34556 -2.19664 0
M  V30 2619 H 235.68 2.84561 -1.33687 0
M  V30 2620 N 239.452 1.56882 -0.150215 0
M  V30 2621 C 240.4 2.18214 0.805313 0
M  V30 2622 C 241.394 1.14006 1.25296 0
M  V30 2623 O 242.6 1.3225 1.22107 0
M  V30 2624 H 238.975 0.698762 0.277913 0
M  V30 2625 H 240.946 2.97231 0.263862 0
M  V30 2626 C 239.695 2.82065 2.03309 0
M  V30 2627 H 239.018 3.61968 1.69763 0
M  V30 2628 H 240.458 3.28477 2.68103 0
M  V30 2629 C 238.917 1.80739 2.84315 0
M  V30 2630 O 239.447 1.27983 3.80767 0
M  V30 2631 N 237.653 1.4997 2.48913 0
M  V30 2632 H 237.2 1.93062 1.70542 0
M  V30 2633 H 237.158 0.824217 3.03404 0
M  V30 2634 N 240.93 -0.123565 1.57115 0
M  V30 2635 C 241.893 -1.13583 1.99076 0
M  V30 2636 C 242.893 -1.34564 0.880296 0
M  V30 2637 O 244.083 -1.31158 1.14644 0
M  V30 2638 C 241.215 -2.49128 2.32698 0
M  V30 2639 H 242.408 -0.775287 2.89706 0
M  V30 2640 H 239.961 -0.36771 1.51913 0
M  V30 2641 H 240.696 -2.90111 1.44934 0
M  V30 2642 H 240.481 -2.35255 3.13684 0
M  V30 2643 H 241.971 -3.2199 2.65918 0
M  V30 2644 N 242.408 -1.52605 -0.393616 0
M  V30 2645 C 243.633 -1.71592 -1.16495 0
M  V30 2646 C 244.058 -0.43133 -1.83088 0
M  V30 2647 O 243.416 0.612523 -1.7064 0
M  V30 2648 C 243.464 -2.86318 -2.19213 0
M  V30 2649 O 242.568 -2.52969 -3.257 0
M  V30 2650 H 241.909 -0.570734 -0.33935 0
M  V30 2651 H 244.439 -1.99377 -0.459324 0
M  V30 2652 H 244.449 -3.1168 -2.63286 0
M  V30 2653 H 243.124 -3.79511 -1.7013 0
M  V30 2654 H 241.701 -2.38332 -2.86797 0
M  V30 2655 N 243.887 0.651787 -1.4349 0
M  V30 2656 C 244.797 1.79368 -1.5121 0
M  V30 2657 C 245.813 1.69361 -0.399093 0
M  V30 2658 O 246.989 1.90505 -0.653431 0
M  V30 2659 C 244.054 3.15653 -1.43401 0
M  V30 2660 C 243.115 3.37446 -2.65384 0
M  V30 2661 C 242.348 4.67229 -2.57939 0
M  V30 2662 O 242.571 5.46676 -1.62792 0
M  V30 2663 O 241.505 4.90773 -3.48462 0
M  V30 2664 H 245.331 1.7581 -2.47638 0
M  V30 2665 H 242.916 0.810447 -1.25507 0
M  V30 2666 H 244.798 3.96935 -1.41494 0
M  V30 2667 H 243.473 3.19798 -0.501085 0
M  V30 2668 H 242.38 2.55923 -2.72863 0
M  V30 2669 H 243.713 3.38148 -3.57654 0
M  V30 2670 N 245.365 1.30045 0.890287 0
M  V30 2671 C 246.328 1.15963 1.977 0
M  V30 2672 C 247.328 0.0923777 1.60534 0
M  V30 2673 O 248.518 0.340071 1.70848 0
M  V30 2674 C 245.65 0.775451 3.31963 0
M  V30 2675 H 246.843 2.12502 2.11619 0
M  V30 2676 H 244.396 1.13366 1.07601 0
M  V30 2677 H 245.131 -0.189671 3.23745 0
M  V30 2678 H 244.916 1.54668 3.60306 0
M  V30 2679 H 246.406 0.700251 4.11687 0
M  V30 2680 N 246.843 -1.10192 1.12674 0
M  V30 2681 C 248.083 -1.83825 0.893736 0
M  V30 2682 C 248.447 -1.83341 -0.570082 0
M  V30 2683 O 249.648 -2.52553 -0.920354 0
M  V30 2684 C 247.919 -3.26405 1.45582 0
M  V30 2685 S 249.478 -4.17136 1.36171 0
M  V30 2686 H 246.296 -0.633732 0.322342 0
M  V30 2687 H 248.898 -1.32581 1.43675 0
M  V30 2688 H 247.602 -3.24329 2.51473 0
M  V30 2689 H 247.133 -3.82721 0.910405 0
M  V30 2690 H 249.148 -4.95069 0.334863 0
M  V30 2691 N 248.321 -0.919034 -1.28029 0
M  V30 2692 C 249.568 -0.554934 -1.94748 0
M  V30 2693 C 249.896 0.90231 -1.72304 0
M  V30 2694 O 249.151 1.65767 -1.04018 0
M  V30 2695 C 249.45 -0.816855 -3.4794 0
M  V30 2696 C 249.116 -2.25448 -3.90492 0
M  V30 2697 C 247.778 -2.64752 -4.01821 0
M  V30 2698 C 250.13 -3.18977 -4.12193 0
M  V30 2699 C 247.458 -3.96727 -4.32232 0
M  V30 2700 C 249.81 -4.50523 -4.44086 0
M  V30 2701 C 248.474 -4.89673 -4.53626 0
M  V30 2702 H 247.744 -0.203065 -0.712633 0
M  V30 2703 H 250.391 -1.16136 -1.52265 0
M  V30 2704 H 248.696 -0.127677 -3.91592 0
M  V30 2705 H 250.393 -0.514238 -3.97689 0
M  V30 2706 H 246.983 -1.93952 -3.82205 0
M  V30 2707 H 251.167 -2.89817 -4.02889 0
M  V30 2708 H 246.423 -4.26754 -4.37825 0
M  V30 2709 H 250.597 -5.23005 -4.59825 0
M  V30 2710 H 248.224 -5.91969 -4.76946 0
M  V30 2711 N 249.799 1.42003 -0.683588 0
M  V30 2712 C 250.709 2.34597 -0.0109075 0
M  V30 2713 C 251.725 1.55576 0.779245 0
M  V30 2714 O 252.901 1.88107 0.719555 0
M  V30 2715 C 249.966 3.34199 0.922588 0
M  V30 2716 C 249.027 4.29115 0.125984 0
M  V30 2717 C 248.26 5.23959 1.01502 0
M  V30 2718 O 248.483 5.23952 2.25456 0
M  V30 2719 O 247.417 6.00053 0.47111 0
M  V30 2720 H 251.243 2.93675 -0.773853 0
M  V30 2721 H 248.828 1.42654 -0.443861 0
M  V30 2722 H 250.71 3.95365 1.45823 0
M  V30 2723 H 249.385 2.77582 1.66523 0
M  V30 2724 H 248.292 3.71335 -0.453969 0
M  V30 2725 H 249.625 4.88798 -0.577736 0
M  V30 2726 N 251.277 0.427512 1.51691 0
M  V30 2727 C 252.225 -0.403359 2.29076 0
M  V30 2728 C 253.219 -1.02962 1.34518 0
M  V30 2729 O 254.425 -0.965715 1.51901 0
M  V30 2730 H 250.8 -0.148879 0.737115 0
M  V30 2731 H 252.771 0.270295 2.97173 0
M  V30 2732 C 251.52 -1.49763 3.13794 0
M  V30 2733 H 250.843 -1.02508 3.86435 0
M  V30 2734 H 252.283 -2.05244 3.71014 0
M  V30 2735 C 250.742 -2.47536 2.28533 0
M  V30 2736 O 251.272 -3.51848 1.93819 0
M  V30 2737 N 249.478 -2.18187 1.91945 0
M  V30 2738 H 249.025 -1.33389 2.20375 0
M  V30 2739 H 248.983 -2.83848 1.35195 0
M  V30 2740 N 252.755 -1.56801 0.158532 0
M  V30 2741 C 254.002 -1.9649 -0.489679 0
M  V30 2742 C 254.33 -1.04394 -1.6411 0
M  V30 2743 O 253.585 -0.0754401 -1.95555 0
M  V30 2744 C 253.884 -3.4235 -1.02623 0
M  V30 2745 C 253.55 -4.50899 0.00794526 0
M  V30 2746 C 252.212 -4.80312 0.292207 0
M  V30 2747 C 254.564 -5.16333 0.710584 0
M  V30 2748 C 251.892 -5.72461 1.28472 0
M  V30 2749 C 254.244 -6.09553 1.69199 0
M  V30 2750 C 252.908 -6.37339 1.98383 0
M  V30 2751 H 252.178 -0.719009 -0.179186 0
M  V30 2752 H 254.825 -1.8989 0.247798 0
M  V30 2753 H 253.13 -3.45838 -1.84128 0
M  V30 2754 H 254.827 -3.70393 -1.53656 0
M  V30 2755 H 251.417 -4.28015 -0.22379 0
M  V30 2756 H 255.601 -4.93732 0.504174 0
M  V30 2757 H 250.857 -5.92278 1.51714 0
M  V30 2758 H 255.031 -6.59327 2.24189 0
M  V30 2759 H 252.658 -7.08546 2.7544 0
M  V30 2760 N 254.233 0.115231 -1.57178 0
M  V30 2761 C 255.644 0.67197 -1.74188 0
M  V30 2762 C 255.995 1.80125 -0.777777 0
M  V30 2763 O 255.12 2.16346 0.0484376 0
M  V30 2764 C 255.715 1.22573 -3.1585 0
M  V30 2765 C 254.274 1.72872 -3.34353 0
M  V30 2766 C 253.421 0.629972 -2.70049 0
M  V30 2767 H 256.372 -0.110712 -1.58313 0
M  V30 2768 H 256.393 2.09535 -3.17609 0
M  V30 2769 H 255.905 0.403598 -3.85996 0
M  V30 2770 H 254.006 2.5755 -2.69256 0
M  V30 2771 H 254.119 1.83557 -4.42542 0
M  V30 2772 H 252.483 1.0645 -2.31388 0
M  V30 2773 H 253.266 -0.181241 -3.42821 0
M  V30 2774 N 255.711 1.52812 0.385517 0
M  V30 2775 C 256.621 1.80766 1.49535 0
M  V30 2776 C 257.637 0.694651 1.59532 0
M  V30 2777 O 258.813 0.982611 1.75803 0
M  V30 2778 C 255.878 1.97381 2.85029 0
M  V30 2779 C 254.939 3.21295 2.84724 0
M  V30 2780 C 254.172 3.37108 4.13756 0
M  V30 2781 O 254.395 2.5765 5.08893 0
M  V30 2782 O 253.329 4.30378 4.20783 0
M  V30 2783 H 257.155 2.75015 1.28842 0
M  V30 2784 H 254.74 1.37946 0.573697 0
M  V30 2785 H 256.622 2.09996 3.65349 0
M  V30 2786 H 255.297 1.06322 3.05741 0
M  V30 2787 H 254.204 3.1412 2.03174 0
M  V30 2788 H 255.537 4.12212 2.68965 0
M  V30 2789 N 257.189 -0.644168 1.43834 0
M  V30 2790 C 258.152 -1.73857 1.49353 0
M  V30 2791 C 259.152 -1.56315 0.377112 0
M  V30 2792 O 260.342 -1.62048 0.639226 0
M  V30 2793 C 257.474 -3.12819 1.35488 0
M  V30 2794 H 258.667 -1.70342 2.46827 0
M  V30 2795 H 256.22 -0.856652 1.30733 0
M  V30 2796 H 256.955 -3.2194 0.390569 0
M  V30 2797 H 256.74 -3.26958 2.16428 0
M  V30 2798 H 258.23 -3.92606 1.42302 0
M  V30 2799 N 258.668 -1.30515 -0.883378 0
M  V30 2800 C 259.896 -1.22359 -1.66841 0
M  V30 2801 C 260.311 0.213296 -1.87591 0
M  V30 2802 O 259.668 1.14075 -1.42454 0
M  V30 2803 C 259.719 -1.95011 -3.04389 0
M  V30 2804 O 259.44 -3.3309 -2.84575 0
M  V30 2805 C 260.941 -1.93532 -3.98824 0
M  V30 2806 H 258.161 -0.423371 -0.520575 0
M  V30 2807 H 260.705 -1.72167 -1.10357 0
M  V30 2808 H 258.86 -1.48997 -3.57601 0
M  V30 2809 H 259.274 -3.69907 -3.71846 0
M  V30 2810 H 260.748 -2.48902 -4.92699 0
M  V30 2811 H 261.225 -0.914627 -4.29571 0
M  V30 2812 H 261.831 -2.39364 -3.51547 0
M  V30 2813 N 260.146 1.09593 -1.13257 0
M  V30 2814 C 261.392 1.82181 -0.904521 0
M  V30 2815 C 261.747 1.83967 0.563358 0
M  V30 2816 O 261.04 1.29566 1.41149 0
M  V30 2817 C 261.234 3.27802 -1.42411 0
M  V30 2818 C 261.063 3.40201 -2.94097 0
M  V30 2819 C 259.833 3.52104 -3.62424 0
M  V30 2820 C 262.031 3.32875 -3.92044 0
M  V30 2821 N 260.013 3.53169 -5.0214 0
M  V30 2822 C 261.384 3.40789 -5.17941 0
M  V30 2823 C 263.439 3.16531 -3.84334 0
M  V30 2824 C 262.142 3.34042 -6.37031 0
M  V30 2825 C 264.168 3.11109 -5.02956 0
M  V30 2826 C 263.53 3.19614 -6.27715 0
M  V30 2827 H 259.629 0.681015 -0.384373 0
M  V30 2828 H 262.213 1.3099 -1.44048 0
M  V30 2829 H 260.384 3.77466 -0.915086 0
M  V30 2830 H 262.116 3.88393 -1.13722 0
M  V30 2831 H 258.871 3.5548 -3.12939 0
M  V30 2832 H 259.295 3.57291 -5.75041 0
M  V30 2833 H 263.937 3.08827 -2.88766 0
M  V30 2834 H 261.655 3.4051 -7.32857 0
M  V30 2835 H 265.241 2.99601 -4.98729 0
M  V30 2836 H 264.121 3.15432 -7.17964 0
M  V30 2837 N 261.624 0.925811 1.2754 0
M  V30 2838 C 262.571 0.422045 2.26908 0
M  V30 2839 C 263.541 -0.510029 1.58076 0
M  V30 2840 O 264.726 -0.429599 1.85901 0
M  V30 2841 C 261.866 -0.320837 3.43605 0
M  V30 2842 C 260.979 0.64513 4.27156 0
M  V30 2843 C 260.114 -0.117405 5.3107 0
M  V30 2844 C 259.153 0.841391 6.0629 0
M  V30 2845 N 258.29 0.111604 7.02011 0
M  V30 2846 H 263.13 1.27441 2.69375 0
M  V30 2847 H 260.667 0.639697 1.32462 0
M  V30 2848 H 262.625 -0.76785 4.10073 0
M  V30 2849 H 261.255 -1.13745 3.02096 0
M  V30 2850 H 260.307 1.21067 3.6062 0
M  V30 2851 H 261.619 1.37797 4.79389 0
M  V30 2852 H 260.773 -0.624422 6.03478 0
M  V30 2853 H 259.512 -0.883219 4.79636 0
M  V30 2854 H 258.517 1.35967 5.32722 0
M  V30 2855 H 259.742 1.60696 6.59813 0
M  V30 2856 H 257.688 -0.635999 6.5291 0
M  V30 2857 H 257.605 0.784044 7.51923 0
M  V30 2858 H 258.873 -0.374823 7.78598 0
M  V30 2859 N 263.102 -1.41638 0.69111 0
M  V30 2860 C 264.33 -2.05628 0.22909 0
M  V30 2861 C 264.745 -1.51992 -1.11999 0
M  V30 2862 O 264.102 -0.666322 -1.69901 0
M  V30 2863 C 264.153 -3.61084 0.173283 0
M  V30 2864 O 263.874 -4.12735 1.46907 0
M  V30 2865 C 265.375 -4.42213 -0.310266 0
M  V30 2866 H 262.595 -0.662327 0.107534 0
M  V30 2867 H 265.139 -1.81489 0.942438 0
M  V30 2868 H 263.294 -3.84278 -0.490858 0
M  V30 2869 H 263.708 -5.06743 1.35322 0
M  V30 2870 H 265.182 -5.51194 -0.298196 0
M  V30 2871 H 265.659 -4.1799 -1.34838 0
M  V30 2872 H 266.265 -4.24074 0.322716 0
M  V30 2873 N 264.58 -0.43555 -1.51462 0
M  V30 2874 C 265.81 0.130053 -2.0619 0
M  V30 2875 C 266.218 1.37164 -1.30317 0
M  V30 2876 O 265.561 1.80225 -0.355598 0
M  V30 2877 C 265.623 0.519418 -3.55728 0
M  V30 2878 C 265.287 -0.615119 -4.52841 0
M  V30 2879 C 266.284 -1.48671 -4.9819 0
M  V30 2880 C 263.969 -0.795341 -4.95963 0
M  V30 2881 C 265.963 -2.52324 -5.8533 0
M  V30 2882 C 263.65 -1.83514 -5.82894 0
M  V30 2883 C 264.648 -2.69748 -6.27475 0
M  V30 2884 O 264.336 -3.71944 -7.1268 0
M  V30 2885 H 264.068 0.0121612 -0.675891 0
M  V30 2886 H 266.622 -0.6129 -1.96043 0
M  V30 2887 H 264.852 1.31505 -3.63653 0
M  V30 2888 H 266.541 1.01597 -3.92979 0
M  V30 2889 H 267.307 -1.359 -4.65571 0
M  V30 2890 H 263.186 -0.133713 -4.60806 0
M  V30 2891 H 266.73 -3.19665 -6.20048 0
M  V30 2892 H 262.627 -1.96306 -6.14926 0
M  V30 2893 H 263.395 -3.68503 -7.30854 0
M  V30 2894 N 266.058 1.56714 -0.166846 0
M  V30 2895 C 266.988 2.20754 0.760913 0
M  V30 2896 C 267.969 1.16178 1.24244 0
M  V30 2897 O 269.154 1.44592 1.29641 0
M  V30 2898 C 266.284 2.84478 1.99223 0
M  V30 2899 C 265.238 3.95053 1.64672 0
M  V30 2900 C 264.564 4.45805 2.95232 0
M  V30 2901 C 265.864 5.14865 0.878155 0
M  V30 2902 H 267.558 2.98537 0.22713 0
M  V30 2903 H 265.104 1.43596 0.107805 0
M  V30 2904 H 267.057 3.27951 2.64624 0
M  V30 2905 H 265.781 2.04056 2.55007 0
M  V30 2906 H 264.44 3.52228 1.01641 0
M  V30 2907 H 264.088 3.62181 3.49047 0
M  V30 2908 H 263.788 5.204 2.7287 0
M  V30 2909 H 265.312 4.91962 3.6167 0
M  V30 2910 H 266.726 5.55059 1.43466 0
M  V30 2911 H 265.123 5.95348 0.753738 0
M  V30 2912 H 266.193 4.84735 -0.126377 0
M  V30 2913 N 267.536 -0.106894 1.57237 0
M  V30 2914 C 268.761 -0.830287 1.90055 0
M  V30 2915 C 269.186 -1.72064 0.75998 0
M  V30 2916 O 268.544 -1.78982 -0.288991 0
M  V30 2917 C 268.592 -1.6295 3.21683 0
M  V30 2918 O 267.696 -2.73748 3.08441 0
M  V30 2919 H 267.037 -0.228855 0.623315 0
M  V30 2920 H 269.567 -0.085658 2.04421 0
M  V30 2921 H 269.577 -2.01621 3.54701 0
M  V30 2922 H 268.252 -0.975989 4.04286 0
M  V30 2923 H 266.829 -2.38192 2.86913 0
M  V30 2924 N 269.014 -1.53014 -0.377408 0
M  V30 2925 C 270.43 -1.42523 -0.718281 0
M  V30 2926 C 270.63 -0.55487 -1.9371 0
M  V30 2927 O 269.686 -0.0327593 -2.52479 0
M  V30 2928 C 270.999 -2.85546 -0.942539 0
M  V30 2929 C 272.547 -2.95101 -1.04329 0
M  V30 2930 C 273.022 -4.3916 -1.3001 0
M  V30 2931 N 274.513 -4.42536 -1.36806 0
M  V30 2932 C 275.248 -5.51097 -1.58364 0
M  V30 2933 N 274.744 -6.69724 -1.77317 0
M  V30 2934 N 276.537 -5.38657 -1.60638 0
M  V30 2935 H 268.688 -2.08116 0.424426 0
M  V30 2936 H 270.951 -0.939352 0.127759 0
M  V30 2937 H 270.657 -3.51499 -0.118929 0
M  V30 2938 H 270.531 -3.28493 -1.85397 0
M  V30 2939 H 272.918 -2.29309 -1.85745 0
M  V30 2940 H 272.999 -2.55566 -0.109505 0
M  V30 2941 H 272.643 -5.05521 -0.490991 0
M  V30 2942 H 272.573 -4.76258 -2.24691 0
M  V30 2943 H 275.064 -3.57039 -1.23821 0
M  V30 2944 H 275.377 -7.48233 -1.93306 0
M  V30 2945 H 273.722 -6.72732 -1.74518 0
M  V30 2946 H 276.913 -4.44948 -1.45391 0
M  V30 2947 H 277.086 -6.2333 -1.77098 0
M  V30 2948 N 270.492 0.636531 -1.44174 0
M  V30 2949 C 271.741 1.39213 -1.45954 0
M  V30 2950 C 272.054 1.95374 -0.0939119 0
M  V30 2951 O 273.26 2.71498 0.0107767 0
M  V30 2952 C 271.716 2.52025 -2.56927 0
M  V30 2953 C 271.324 2.024 -3.99673 0
M  V30 2954 C 273.068 3.29269 -2.67922 0
M  V30 2955 C 270.975 3.12521 -5.0208 0
M  V30 2956 H 269.905 0.523132 -0.542999 0
M  V30 2957 H 272.556 0.685349 -1.70221 0
M  V30 2958 H 270.938 3.25253 -2.25891 0
M  V30 2959 H 272.112 1.36073 -4.40251 0
M  V30 2960 H 270.427 1.37987 -3.92872 0
M  V30 2961 H 273.024 4.11352 -3.41605 0
M  V30 2962 H 273.367 3.78397 -1.73555 0
M  V30 2963 H 273.9 2.63129 -2.98342 0
M  V30 2964 H 270.639 2.68343 -5.98057 0
M  V30 2965 H 270.159 3.77507 -4.66099 0
M  V30 2966 H 271.838 3.77385 -5.25538 0
M  V30 2967 N 271.97 1.30982 0.876444 0
M  V30 2968 C 273.216 1.20474 1.63138 0
M  V30 2969 C 273.549 -0.238096 1.92735 0
M  V30 2970 O 272.824 -1.1692 1.55435 0
M  V30 2971 C 273.107 2.04244 2.96574 0
M  V30 2972 C 272.96 3.56793 2.73896 0
M  V30 2973 C 274.279 1.88684 3.97601 0
M  V30 2974 H 271.398 0.439001 0.591985 0
M  V30 2975 H 274.04 1.60704 1.01361 0
M  V30 2976 H 272.19 1.70063 3.493 0
M  V30 2977 H 273.862 4.01077 2.27892 0
M  V30 2978 H 272.105 3.80548 2.08245 0
M  V30 2979 H 272.776 4.10706 3.68815 0
M  V30 2980 H 275.252 2.18584 3.54062 0
M  V30 2981 H 274.128 2.4961 4.88862 0
M  V30 2982 H 274.389 0.848343 4.33884 0
M  V30 2983 N 273.449 -1.08991 1.13837 0
M  V30 2984 C 274.698 -1.80631 0.897509 0
M  V30 2985 C 275.011 -1.86872 -0.57777 0
M  V30 2986 O 276.217 -2.54866 -0.935701 0
M  V30 2987 C 274.673 -3.24517 1.55618 0
M  V30 2988 C 274.281 -3.26529 3.0673 0
M  V30 2989 C 276.025 -4.00882 1.3962 0
M  V30 2990 C 273.932 -4.64965 3.65461 0
M  V30 2991 H 272.862 -0.67691 0.332129 0
M  V30 2992 H 275.513 -1.2246 1.3666 0
M  V30 2993 H 273.895 -3.82778 1.01476 0
M  V30 2994 H 275.069 -2.78008 3.67489 0
M  V30 2995 H 273.384 -2.63656 3.22296 0
M  V30 2996 H 275.981 -5.03167 1.80906 0
M  V30 2997 H 276.324 -4.14896 0.341578 0
M  V30 2998 H 276.857 -3.49075 1.90766 0
M  V30 2999 H 273.596 -4.56153 4.70749 0
M  V30 3000 H 273.116 -5.13792 3.09481 0
M  V30 3001 H 274.795 -5.3394 3.654 0
M  V30 3002 N 274.927 -0.932562 -1.27047 0
M  V30 3003 C 276.174 -0.575559 -1.94148 0
M  V30 3004 C 276.502 0.883984 -1.73251 0
M  V30 3005 O 275.757 1.64655 -1.0577 0
M  V30 3006 C 276.056 -0.853713 -3.47054 0
M  V30 3007 C 275.722 -2.29577 -3.88079 0
M  V30 3008 C 274.384 -2.68999 -3.9899 0
M  V30 3009 C 276.736 -3.23331 -4.08787 0
M  V30 3010 C 274.064 -4.01289 -4.28 0
M  V30 3011 C 276.416 -4.55207 -4.39282 0
M  V30 3012 C 275.08 -4.94457 -4.48407 0
M  V30 3013 H 274.35 -0.210612 -0.710439 0
M  V30 3014 H 276.997 -1.17744 -1.51025 0
M  V30 3015 H 275.302 -0.169204 -3.91434 0
M  V30 3016 H 276.999 -0.55639 -3.97121 0
M  V30 3017 H 273.589 -1.97994 -3.80127 0
M  V30 3018 H 277.773 -2.94074 -3.99793 0
M  V30 3019 H 273.029 -4.31374 -4.33275 0
M  V30 3020 H 277.203 -5.27852 -4.54252 0
M  V30 3021 H 274.83 -5.96994 -4.7064 0
M  V30 3022 N 276.405 1.4127 -0.698611 0
M  V30 3023 C 277.654 2.00408 -0.227949 0
M  V30 3024 C 277.967 1.55981 1.18023 0
M  V30 3025 O 279.173 2.07699 1.74852 0
M  V30 3026 C 277.629 3.58129 -0.356636 0
M  V30 3027 C 277.237 4.11536 -1.77037 0
M  V30 3028 C 278.981 4.24466 0.0540969 0
M  V30 3029 C 276.888 5.61701 -1.85055 0
M  V30 3030 H 275.818 0.749586 -0.0814657 0
M  V30 3031 H 278.469 1.61713 -0.867249 0
M  V30 3032 H 276.851 3.94442 0.350965 0
M  V30 3033 H 278.025 3.86636 -2.50698 0
M  V30 3034 H 276.34 3.57736 -2.13105 0
M  V30 3035 H 278.937 5.34698 0.0146723 0
M  V30 3036 H 279.28 4.01687 1.09332 0
M  V30 3037 H 279.813 3.93198 -0.603337 0
M  V30 3038 H 276.552 5.89312 -2.8704 0
M  V30 3039 H 276.072 5.88519 -1.15783 0
M  V30 3040 H 277.751 6.26524 -1.61484 0
M  V30 3041 N 277.883 0.443576 1.51229 0
M  V30 3042 C 278.793 -0.370721 2.31652 0
M  V30 3043 C 279.809 -1.02186 1.40833 0
M  V30 3044 O 280.985 -1.01586 1.73903 0
M  V30 3045 C 278.05 -1.45376 3.14749 0
M  V30 3046 C 277.111 -0.822099 4.21355 0
M  V30 3047 C 276.344 -1.85353 5.0048 0
M  V30 3048 O 276.567 -3.07656 4.80316 0
M  V30 3049 O 275.501 -1.4406 5.84406 0
M  V30 3050 H 279.327 0.286002 3.0235 0
M  V30 3051 H 276.912 0.20598 1.47973 0
M  V30 3052 H 278.794 -2.08173 3.66391 0
M  V30 3053 H 277.469 -2.09445 2.46809 0
M  V30 3054 H 276.376 -0.155909 3.73775 0
M  V30 3055 H 277.709 -0.224797 4.91686 0
M  V30 3056 N 279.361 -1.56624 0.175154 0
M  V30 3057 C 280.61 -1.96173 -0.468921 0
M  V30 3058 C 280.923 -1.06401 -1.64128 0
M  V30 3059 O 282.129 -1.35648 -2.35185 0
M  V30 3060 C 280.585 -3.48833 -0.885633 0
M  V30 3061 C 280.193 -4.47237 0.261343 0
M  V30 3062 C 281.937 -3.97194 -1.49791 0
M  V30 3063 C 279.844 -5.9114 -0.175214 0
M  V30 3064 H 278.774 -0.732455 -0.178958 0
M  V30 3065 H 281.425 -1.81591 0.263997 0
M  V30 3066 H 279.807 -3.58848 -1.67464 0
M  V30 3067 H 280.981 -4.4894 1.03871 0
M  V30 3068 H 279.296 -4.08956 0.783827 0
M  V30 3069 H 281.893 -5.02167 -1.83665 0
M  V30 3070 H 282.236 -3.40351 -2.39722 0
M  V30 3071 H 282.769 -3.90212 -0.773267 0
M  V30 3072 H 279.508 -6.51865 0.689414 0
M  V30 3073 H 279.028 -5.92735 -0.91786 0
M  V30 3074 H 280.707 -6.44044 -0.617792 0
M  V30 3075 N 280.839 0.0985539 -1.57292 0
M  V30 3076 C 282.085 0.803867 -1.86188 0
M  V30 3077 C 282.418 1.78549 -0.763794 0
M  V30 3078 O 281.693 1.93153 0.22855 0
M  V30 3079 C 281.976 1.53568 -3.25713 0
M  V30 3080 C 281.829 0.572277 -4.46145 0
M  V30 3081 C 283.148 2.48708 -3.63087 0
M  V30 3082 H 280.267 0.290781 -0.677211 0
M  V30 3083 H 282.909 0.0675783 -1.8988 0
M  V30 3084 H 281.059 2.16332 -3.22696 0
M  V30 3085 H 282.731 -0.0480894 -4.61275 0
M  V30 3086 H 280.974 -0.114618 -4.33649 0
M  V30 3087 H 281.645 1.12139 -5.40489 0
M  V30 3088 H 284.121 1.96039 -3.67026 0
M  V30 3089 H 282.997 2.96932 -4.61652 0
M  V30 3090 H 283.258 3.32309 -2.91588 0
M  V30 3091 N 282.317 1.53212 0.369288 0
M  V30 3092 C 283.565 1.68881 1.11012 0
M  V30 3093 C 283.886 0.441285 1.89941 0
M  V30 3094 O 283.156 -0.544623 1.88177 0
M  V30 3095 H 281.736 0.622569 0.412816 0
M  V30 3096 H 284.398 1.90391 0.416802 0
M  V30 3097 H 283.494 2.54822 1.80201 0
M  V30 3098 N 283.795 -0.628877 1.44509 0
M  V30 3099 C 285.042 -1.38839 1.47411 0
M  V30 3100 C 285.37 -1.94202 0.10757 0
M  V30 3101 O 284.625 -1.74243 -0.890947 0
M  V30 3102 C 284.924 -2.56995 2.48371 0
M  V30 3103 C 284.59 -2.19908 3.93639 0
M  V30 3104 C 283.252 -2.09506 4.33198 0
M  V30 3105 C 285.604 -1.9064 4.85083 0
M  V30 3106 C 282.932 -1.68028 5.62124 0
M  V30 3107 C 285.284 -1.50655 6.14399 0
M  V30 3108 C 283.948 -1.38796 6.5291 0
M  V30 3109 H 283.218 -0.508048 0.539414 0
M  V30 3110 H 285.865 -0.712913 1.77735 0
M  V30 3111 H 284.17 -3.29786 2.11538 0
M  V30 3112 H 285.867 -3.15223 2.47861 0
M  V30 3113 H 282.457 -2.28922 3.62343 0
M  V30 3114 H 286.641 -1.97585 4.55273 0
M  V30 3115 H 281.897 -1.57452 5.90778 0
M  V30 3116 H 286.071 -1.27048 6.84713 0
M  V30 3117 H 283.698 -1.06429 7.52713 0
M  V30 3118 N 285.273 -1.31445 -0.869486 0
M  V30 3119 C 286.52 -1.21158 -1.62256 0
M  V30 3120 C 286.848 0.230155 -1.93133 0
M  V30 3121 O 286.103 1.17906 -1.56194 0
M  V30 3122 C 286.402 -2.00145 -2.96102 0
M  V30 3123 C 286.068 -3.4964 -2.84715 0
M  V30 3124 C 284.73 -3.90403 -2.81317 0
M  V30 3125 C 287.082 -4.44769 -2.71716 0
M  V30 3126 C 284.41 -5.24561 -2.62778 0
M  V30 3127 C 286.762 -5.79054 -2.54714 0
M  V30 3128 C 285.426 -6.19037 -2.49699 0
M  V30 3129 H 284.696 -0.443348 -0.593737 0
M  V30 3130 H 287.343 -1.62715 -1.00976 0
M  V30 3131 H 285.648 -1.5127 -3.6142 0
M  V30 3132 H 287.345 -1.89566 -3.53363 0
M  V30 3133 H 283.935 -3.17256 -2.88178 0
M  V30 3134 H 288.119 -4.14208 -2.73397 0
M  V30 3135 H 283.375 -5.54613 -2.57321 0
M  V30 3136 H 287.549 -6.52393 -2.43632 0
M  V30 3137 H 285.176 -7.22935 -2.35093 0
M  V30 3138 N 286.751 1.08385 -1.14413 0
M  V30 3139 C 288 1.80153 -0.907076 0
M  V30 3140 C 288.313 1.87176 0.567851 0
M  V30 3141 O 289.519 2.55359 0.922172 0
M  V30 3142 C 287.975 3.23687 -1.57336 0
M  V30 3143 C 287.583 3.24897 -3.08457 0
M  V30 3144 C 289.327 4.00136 -1.41744 0
M  V30 3145 C 287.234 4.6302 -3.67921 0
M  V30 3146 H 286.164 0.675139 -0.335714 0
M  V30 3147 H 288.815 1.21733 -1.37307 0
M  V30 3148 H 287.197 3.82234 -1.03505 0
M  V30 3149 H 288.371 2.76055 -3.68958 0
M  V30 3150 H 286.686 2.61943 -3.2369 0
M  V30 3151 H 289.283 5.02201 -1.83572 0
M  V30 3152 H 289.626 4.14709 -0.363576 0
M  V30 3153 H 290.159 3.48058 -1.92614 0
M  V30 3154 H 286.898 4.5365 -4.73161 0
M  V30 3155 H 286.418 5.12143 -3.12201 0
M  V30 3156 H 288.097 5.31994 -3.68227 0
M  V30 3157 N 288.23 0.939286 1.26551 0
M  V30 3158 C 289.641 0.628782 1.75793 0
M  V30 3159 C 289.992 -0.856046 1.7654 0
M  V30 3160 O 289.117 -1.66994 1.3763 0
M  V30 3161 C 289.712 1.13465 3.19235 0
M  V30 3162 C 288.271 0.874601 3.66098 0
M  V30 3163 C 287.418 1.28667 2.45642 0
M  V30 3164 H 290.369 1.1178 1.12654 0
M  V30 3165 H 290.39 0.487609 3.77363 0
M  V30 3166 H 289.902 2.21535 3.1866 0
M  V30 3167 H 288.003 -0.191793 3.72106 0
M  V30 3168 H 288.116 1.50028 4.55004 0
M  V30 3169 H 286.48 0.705109 2.44745 0
M  V30 3170 H 287.263 2.37625 2.47769 0
M  V30 3171 N 289.708 -1.40897 0.706093 0
M  V30 3172 C 290.638 -2.33418 0.0620085 0
M  V30 3173 C 291.619 -1.52385 -0.755827 0
M  V30 3174 O 292.804 -1.80886 -0.706674 0
M  V30 3175 C 289.934 -3.36293 -0.867445 0
M  V30 3176 C 288.888 -4.27716 -0.155932 0
M  V30 3177 C 288.214 -5.2105 -1.20046 0
M  V30 3178 C 289.514 -5.12944 0.984149 0
M  V30 3179 H 291.208 -2.87527 0.83477 0
M  V30 3180 H 288.754 -1.38249 0.402875 0
M  V30 3181 H 290.707 -3.99949 -1.32735 0
M  V30 3182 H 289.431 -2.80556 -1.67199 0
M  V30 3183 H 288.09 -3.65498 0.284047 0
M  V30 3184 H 287.738 -4.61624 -1.99781 0
M  V30 3185 H 287.438 -5.83056 -0.729328 0
M  V30 3186 H 288.962 -5.87584 -1.66066 0
M  V30 3187 H 290.376 -5.70109 0.604048 0
M  V30 3188 H 288.773 -5.83945 1.38304 0
M  V30 3189 H 289.843 -4.49485 1.81911 0
M  V30 3190 N 291.186 -0.45159 -1.50991 0
M  V30 3191 C 292.435 0.111653 -2.01391 0
M  V30 3192 C 292.748 1.42529 -1.33959 0
M  V30 3193 O 293.954 2.07232 -1.75405 0
M  V30 3194 C 292.41 0.249514 -3.59034 0
M  V30 3195 C 292.018 -1.05453 -4.35412 0
M  V30 3196 C 293.762 0.765762 -4.17536 0
M  V30 3197 C 291.669 -0.881529 -5.84793 0
M  V30 3198 H 290.599 0.0455022 -0.752626 0
M  V30 3199 H 293.25 -0.583524 -1.73975 0
M  V30 3200 H 291.632 1.00803 -3.82955 0
M  V30 3201 H 292.806 -1.82248 -4.23229 0
M  V30 3202 H 291.121 -1.50039 -3.88429 0
M  V30 3203 H 293.718 0.911913 -5.26866 0
M  V30 3204 H 294.061 1.75201 -3.77638 0
M  V30 3205 H 294.594 0.0651744 -3.97747 0
M  V30 3206 H 291.333 -1.84057 -6.29129 0
M  V30 3207 H 290.853 -0.153625 -5.99603 0
M  V30 3208 H 292.532 -0.540363 -6.4474 0
M  V30 3209 N 292.664 1.56529 -0.183458 0
M  V30 3210 C 293.594 2.21549 0.737456 0
M  V30 3211 C 294.575 1.17489 1.23005 0
M  V30 3212 O 295.76 1.45959 1.281 0
M  V30 3213 C 292.89 2.86575 1.96194 0
M  V30 3214 C 291.844 3.96778 1.60473 0
M  V30 3215 C 291.17 4.48911 2.90487 0
M  V30 3216 C 292.47 5.15767 0.823497 0
M  V30 3217 H 294.164 2.98761 0.195453 0
M  V30 3218 H 291.71 1.43702 0.0925686 0
M  V30 3219 H 293.663 3.30739 2.61131 0
M  V30 3220 H 292.387 2.06749 2.52828 0
M  V30 3221 H 291.046 3.53286 0.978997 0
M  V30 3222 H 290.694 3.65862 3.45186 0
M  V30 3223 H 290.394 5.23265 2.67335 0
M  V30 3224 H 291.918 4.95771 3.56432 0
M  V30 3225 H 293.332 5.56549 1.37571 0
M  V30 3226 H 291.729 5.96114 0.690551 0
M  V30 3227 H 292.799 4.84574 -0.177782 0
M  V30 3228 N 294.142 -0.090211 1.57342 0
M  V30 3229 C 295.09 -1.12792 2.03422 0
M  V30 3230 C 296.084 -1.41182 0.936166 0
M  V30 3231 O 297.29 -1.40805 1.12133 0
M  V30 3232 H 293.665 -0.380986 0.648347 0
M  V30 3233 H 295.636 -0.71299 2.89757 0
M  V30 3234 C 294.385 -2.43855 2.47851 0
M  V30 3235 H 293.708 -2.22855 3.31927 0
M  V30 3236 H 295.148 -3.14955 2.83865 0
M  V30 3237 C 293.607 -3.08503 1.3538 0
M  V30 3238 O 294.137 -3.95805 0.685641 0
M  V30 3239 N 292.343 -2.68831 1.10355 0
M  V30 3240 H 291.89 -1.97929 1.64869 0
M  V30 3241 H 291.848 -3.12412 0.353031 0
M  V30 3242 N 295.62 -1.53406 -0.361157 0
M  V30 3243 C 296.866 -1.70054 -1.10496 0
M  V30 3244 C 297.199 -0.453278 -1.88836 0
M  V30 3245 O 296.474 0.5495 -1.86576 0
M  V30 3246 C 296.757 -2.95317 -2.06058 0
M  V30 3247 C 296.61 -4.3021 -1.31298 0
M  V30 3248 C 297.929 -3.16193 -3.06121 0
M  V30 3249 H 295.048 -0.618799 -0.400321 0
M  V30 3250 H 297.69 -1.86052 -0.385318 0
M  V30 3251 H 295.84 -2.81809 -2.67425 0
M  V30 3252 H 297.512 -4.55538 -0.726807 0
M  V30 3253 H 295.755 -4.29421 -0.614853 0
M  V30 3254 H 296.426 -5.14 -2.01265 0
M  V30 3255 H 298.902 -3.28916 -2.5486 0
M  V30 3256 H 297.778 -4.05266 -3.70204 0
M  V30 3257 H 298.039 -2.31676 -3.76535 0
M  V30 3258 N 297.098 0.621204 -1.44841 0
M  V30 3259 C 298.326 1.40752 -1.51646 0
M  V30 3260 C 298.741 1.88246 -0.144549 0
M  V30 3261 O 298.098 1.61422 0.851416 0
M  V30 3262 C 298.149 2.62119 -2.4895 0
M  V30 3263 O 297.87 2.16602 -3.80808 0
M  V30 3264 C 299.371 3.55135 -2.65319 0
M  V30 3265 H 296.591 0.431325 -0.514004 0
M  V30 3266 H 299.135 0.758835 -1.899 0
M  V30 3267 H 297.29 3.23058 -2.13805 0
M  V30 3268 H 297.704 2.95358 -4.33433 0
M  V30 3269 H 299.178 4.36874 -3.37409 0
M  V30 3270 H 299.655 4.04592 -1.70886 0
M  V30 3271 H 300.261 3.00058 -3.01405 0
M  V30 3272 N 298.576 1.31904 0.862503 0
M  V30 3273 C 299.816 1.23324 1.63004 0
M  V30 3274 C 300.18 -0.203724 1.90916 0
M  V30 3275 O 301.381 -0.413132 2.65606 0
M  V30 3276 C 299.652 2.06116 2.91978 0
M  V30 3277 S 301.211 2.14478 3.82812 0
M  V30 3278 H 298.029 0.439117 0.559193 0
M  V30 3279 H 300.631 1.66658 1.02202 0
M  V30 3280 H 299.335 3.09593 2.69407 0
M  V30 3281 H 298.866 1.6353 3.57801 0
M  V30 3282 H 300.881 1.28855 4.79177 0
M  V30 3283 N 300.054 -1.07777 1.14986 0
M  V30 3284 C 301.279 -1.84558 0.946213 0
M  V30 3285 C 301.704 -1.81323 -0.500362 0
M  V30 3286 O 301.062 -1.20301 -1.35637 0
M  V30 3287 C 301.11 -3.29736 1.45968 0
M  V30 3288 O 300.214 -4.07149 0.65601 0
M  V30 3289 H 299.555 -0.571641 0.33782 0
M  V30 3290 H 302.085 -1.35991 1.52865 0
M  V30 3291 H 302.095 -3.80574 1.47063 0
M  V30 3292 H 300.77 -3.31406 2.51283 0
M  V30 3293 H 299.347 -3.65994 0.714322 0
M  V30 3294 N 301.532 -0.945985 -1.26051 0
M  V30 3295 C 302.757 -0.612525 -1.98149 0
M  V30 3296 C 303.182 0.806623 -1.69927 0
M  V30 3297 O 302.54 1.54411 -0.950108 0
M  V30 3298 C 302.588 -0.866981 -3.50023 0
M  V30 3299 O 301.692 0.0585333 -4.12358 0
M  V30 3300 H 301.033 -0.23379 -0.621481 0
M  V30 3301 H 303.563 -1.27023 -1.60395 0
M  V30 3302 H 303.573 -0.789792 -4.00283 0
M  V30 3303 H 302.248 -1.90135 -3.69894 0
M  V30 3304 H 300.825 -0.0701241 -3.72834 0
M  V30 3305 N 303.011 1.40521 -0.713556 0
M  V30 3306 C 303.944 2.28198 -0.00881422 0
M  V30 3307 C 304.922 1.43227 0.769735 0
M  V30 3308 O 306.106 1.72641 0.756799 0
M  V30 3309 C 303.233 3.23758 0.994899 0
M  V30 3310 C 302.279 4.25391 0.3074 0
M  V30 3311 S 303.112 5.26765 -0.963247 0
M  V30 3312 C 304.268 6.25888 0.0384143 0
M  V30 3313 H 304.501 2.87622 -0.752407 0
M  V30 3314 H 302.034 1.45925 -0.504502 0
M  V30 3315 H 303.992 3.79341 1.56879 0
M  V30 3316 H 302.653 2.63396 1.71118 0
M  V30 3317 H 301.846 4.92596 1.0661 0
M  V30 3318 H 301.448 3.73497 -0.193879 0
M  V30 3319 H 303.74 6.71683 0.885912 0
M  V30 3320 H 304.683 7.05552 -0.60019 0
M  V30 3321 H 305.091 5.63072 0.401233 0
M  V30 3322 N 304.489 0.459591 1.5075 0
M  V30 3323 C 305.735 -0.0994966 2.02556 0
M  V30 3324 C 306.068 -1.40399 1.3417 0
M  V30 3325 O 305.343 -1.88892 0.463683 0
M  V30 3326 C 305.626 -0.295242 3.58888 0
M  V30 3327 C 305.479 1.02947 4.37861 0
M  V30 3328 C 306.798 -1.05502 4.27267 0
M  V30 3329 H 303.917 -0.034686 0.736183 0
M  V30 3330 H 306.559 0.602938 1.8018 0
M  V30 3331 H 304.709 -0.893563 3.78084 0
M  V30 3332 H 306.381 1.66348 4.30263 0
M  V30 3333 H 304.624 1.62885 4.02058 0
M  V30 3334 H 305.295 0.846281 5.45474 0
M  V30 3335 H 307.771 -0.547993 4.12476 0
M  V30 3336 H 306.647 -1.16077 5.36486 0
M  V30 3337 H 306.908 -2.08875 3.89645 0
M  V30 3338 N 305.967 -1.56429 0.191757 0
M  V30 3339 C 306.897 -2.21937 -0.725696 0
M  V30 3340 C 307.878 -1.1814 -1.2238 0
M  V30 3341 O 309.063 -1.46636 -1.27325 0
M  V30 3342 C 306.193 -2.87611 -1.94672 0
M  V30 3343 C 305.147 -3.97623 -1.58366 0
M  V30 3344 C 304.473 -4.50446 -2.88102 0
M  V30 3345 C 305.773 -5.16197 -0.796133 0
M  V30 3346 H 307.467 -2.98861 -0.179606 0
M  V30 3347 H 305.013 -1.43749 -0.0849464 0
M  V30 3348 H 306.966 -3.3212 -2.59373 0
M  V30 3349 H 305.69 -2.08087 -2.51728 0
M  V30 3350 H 304.349 -3.53801 -0.960247 0
M  V30 3351 H 303.997 -3.67688 -3.43241 0
M  V30 3352 H 303.697 -5.24675 -2.64556 0
M  V30 3353 H 305.221 -4.97654 -3.53798 0
M  V30 3354 H 306.635 -5.57271 -1.34618 0
M  V30 3355 H 305.032 -5.96471 -0.658928 0
M  V30 3356 H 306.102 -4.84473 0.203478 0
M  V30 3357 N 307.445 0.0818655 -1.57387 0
M  V30 3358 C 308.392 1.09834 -2.0299 0
M  V30 3359 C 309.362 1.39043 -0.908639 0
M  V30 3360 O 310.547 1.50282 -1.17559 0
M  V30 3361 C 307.687 2.40971 -2.47037 0
M  V30 3362 C 306.8 2.18379 -3.7274 0
M  V30 3363 C 305.935 3.43008 -4.0561 0
M  V30 3364 C 304.974 3.15736 -5.24383 0
M  V30 3365 N 304.111 4.32667 -5.52941 0
M  V30 3366 H 308.951 0.702472 -2.89602 0
M  V30 3367 H 306.488 0.33531 -1.43227 0
M  V30 3368 H 308.446 3.1752 -2.70623 0
M  V30 3369 H 307.076 2.78379 -1.63417 0
M  V30 3370 H 306.128 1.32569 -3.56552 0
M  V30 3371 H 307.44 1.94227 -4.59431 0
M  V30 3372 H 306.594 4.27958 -4.30043 0
M  V30 3373 H 305.333 3.70225 -3.17466 0
M  V30 3374 H 304.338 2.2918 -4.99757 0
M  V30 3375 H 305.563 2.8985 -6.14136 0
M  V30 3376 H 303.509 4.59935 -4.67756 0
M  V30 3377 H 303.426 4.11753 -6.34031 0
M  V30 3378 H 304.694 5.18644 -5.81918 0
M  V30 3379 N 308.923 1.53595 0.353017 0
M  V30 3380 C 310.151 1.74311 1.1146 0
M  V30 3381 C 310.566 0.477854 1.82653 0
M  V30 3382 O 309.923 -0.549977 1.74016 0
M  V30 3383 C 309.974 2.91694 2.13534 0
M  V30 3384 O 309.695 4.13325 1.45238 0
M  V30 3385 C 311.196 3.24384 3.02142 0
M  V30 3386 H 308.416 0.582669 0.332773 0
M  V30 3387 H 310.96 2.00386 0.408107 0
M  V30 3388 H 309.115 2.67977 2.79763 0
M  V30 3389 H 309.529 4.79148 2.13349 0
M  V30 3390 H 311.003 4.09893 3.69718 0
M  V30 3391 H 311.48 2.40282 3.67643 0
M  V30 3392 H 312.086 3.50073 2.41514 0
M  V30 3393 N 310.401 -0.613514 1.45168 0
M  V30 3394 C 311.331 -1.7354 1.56225 0
M  V30 3395 C 312.312 -1.64981 0.41414 0
M  V30 3396 O 313.497 -1.83472 0.636526 0
M  V30 3397 C 310.627 -3.12128 1.52295 0
M  V30 3398 C 309.581 -3.35491 2.65762 0
M  V30 3399 C 308.907 -4.74291 2.46885 0
M  V30 3400 C 310.207 -3.26325 4.0781 0
M  V30 3401 H 311.901 -1.64543 2.50132 0
M  V30 3402 H 309.447 -0.790185 1.20383 0
M  V30 3403 H 311.4 -3.90404 1.58628 0
M  V30 3404 H 310.124 -3.2195 0.549139 0
M  V30 3405 H 308.783 -2.59603 2.58847 0
M  V30 3406 H 308.431 -4.80839 1.47657 0
M  V30 3407 H 308.131 -4.9088 3.22972 0
M  V30 3408 H 309.655 -5.54775 2.55063 0
M  V30 3409 H 311.069 -3.94483 4.16 0
M  V30 3410 H 309.466 -3.54445 4.8424 0
M  V30 3411 H 310.536 -2.23855 4.30136 0
M  V30 3412 N 311.879 -1.3236 -0.855495 0
M  V30 3413 C 313.107 -1.2587 -1.64208 0
M  V30 3414 C 313.522 0.173457 -1.88002 0
M  V30 3415 O 312.879 1.11027 -1.44842 0
M  V30 3416 C 312.93 -2.01424 -3.00184 0
M  V30 3417 O 312.651 -3.39051 -2.77445 0
M  V30 3418 C 314.152 -2.01948 -3.94629 0
M  V30 3419 H 311.372 -0.434318 -0.511477 0
M  V30 3420 H 313.916 -1.74469 -1.0668 0
M  V30 3421 H 312.071 -1.56549 -3.5436 0
M  V30 3422 H 312.485 -3.77711 -3.63916 0
M  V30 3423 H 313.959 -2.59297 -4.87308 0
M  V30 3424 H 314.436 -1.00554 -4.27534 0
M  V30 3425 H 315.042 -2.46767 -3.4639 0
M  V30 3426 N 313.357 1.07166 -1.15556 0
M  V30 3427 C 314.304 2.14417 -0.854055 0
M  V30 3428 C 315.274 1.64965 0.193806 0
M  V30 3429 O 316.459 1.90703 0.0609443 0
M  V30 3430 C 313.599 3.43304 -0.351574 0
M  V30 3431 C 312.712 4.06537 -1.46123 0
M  V30 3432 C 311.847 5.23266 -0.914677 0
M  V30 3433 C 310.886 5.78464 -2.00114 0
M  V30 3434 N 310.023 6.86521 -1.47083 0
M  V30 3435 H 314.863 2.39548 -1.77259 0
M  V30 3436 H 312.4 1.17543 -0.884425 0
M  V30 3437 H 314.358 4.17179 -0.0419409 0
M  V30 3438 H 312.988 3.18419 0.530037 0
M  V30 3439 H 312.04 3.30297 -1.88701 0
M  V30 3440 H 313.352 4.43567 -2.28144 0
M  V30 3441 H 312.506 6.04131 -0.557698 0
M  V30 3442 H 311.245 4.87658 -0.0636583 0
M  V30 3443 H 310.25 4.96243 -2.36692 0
M  V30 3444 H 311.475 6.16126 -2.85597 0
M  V30 3445 H 309.421 6.52849 -0.642198 0
M  V30 3446 H 309.338 7.22446 -2.22729 0
M  V30 3447 H 310.606 7.71087 -1.14215 0
M  V30 3448 N 314.835 0.952656 1.25548 0
M  V30 3449 C 316.246 0.647392 1.75116 0
M  V30 3450 C 316.597 -0.837274 1.77438 0
M  V30 3451 O 315.722 -1.65525 1.39393 0
M  V30 3452 C 316.317 1.16845 3.18014 0
M  V30 3453 C 314.876 0.913382 3.6515 0
M  V30 3454 C 314.023 1.31265 2.44264 0
M  V30 3455 H 316.974 1.12968 1.11462 0
M  V30 3456 H 316.995 0.527606 3.76824 0
M  V30 3457 H 316.507 2.24902 3.16292 0
M  V30 3458 H 314.608 -0.152316 3.72289 0
M  V30 3459 H 314.721 1.54845 4.53387 0
M  V30 3460 H 313.085 0.731028 2.43984 0
M  V30 3461 H 313.868 2.40239 2.45234 0
M  V30 3462 N 316.313 -1.40141 0.720998 0
M  V30 3463 C 317.559 -2.01084 0.263231 0
M  V30 3464 C 317.892 -1.57052 -1.14229 0
M  V30 3465 O 317.167 -0.793027 -1.77599 0
M  V30 3466 C 317.45 -3.58401 0.349344 0
M  V30 3467 C 317.303 -4.12491 1.79363 0
M  V30 3468 C 318.622 -4.39231 -0.276351 0
M  V30 3469 H 315.741 -0.730572 0.0971228 0
M  V30 3470 H 318.383 -1.66543 0.914518 0
M  V30 3471 H 316.533 -3.87958 -0.205165 0
M  V30 3472 H 318.205 -3.93711 2.40394 0
M  V30 3473 H 316.448 -3.66576 2.31958 0
M  V30 3474 H 317.119 -5.21646 1.80524 0
M  V30 3475 H 319.595 -4.15637 0.196184 0
M  V30 3476 H 318.471 -5.48586 -0.185681 0
M  V30 3477 H 318.732 -4.20643 -1.36059 0
M  V30 3478 N 317.792 -0.46758 -1.50504 0
M  V30 3479 C 319.02 0.0864133 -2.06719 0
M  V30 3480 C 319.435 1.33819 -1.33184 0
M  V30 3481 O 318.792 1.78061 -0.400083 0
M  V30 3482 C 318.843 0.378079 -3.59517 0
M  V30 3483 O 318.564 -0.824044 -4.3028 0
M  V30 3484 C 320.065 0.979426 -4.32345 0
M  V30 3485 H 317.285 -0.00551697 -0.670977 0
M  V30 3486 H 319.829 -0.655354 -1.93715 0
M  V30 3487 H 317.984 1.06977 -3.72337 0
M  V30 3488 H 318.398 -0.566518 -5.21432 0
M  V30 3489 H 319.872 1.1333 -5.40241 0
M  V30 3490 H 320.349 1.9686 -3.9261 0
M  V30 3491 H 320.955 0.326216 -4.24047 0
M  V30 3492 N 319.27 1.56325 -0.20005 0
M  V30 3493 C 320.2 2.22318 0.713916 0
M  V30 3494 C 321.181 1.18788 1.21752 0
M  V30 3495 O 322.366 1.47309 1.26545 0
M  V30 3496 C 319.496 2.88639 1.93144 0
M  V30 3497 C 318.45 3.98457 1.56255 0
M  V30 3498 C 317.776 4.51967 2.85709 0
M  V30 3499 C 319.076 5.16612 0.768747 0
M  V30 3500 H 320.77 2.98952 0.163755 0
M  V30 3501 H 318.316 1.43792 0.0773219 0
M  V30 3502 H 320.269 3.33491 2.57608 0
M  V30 3503 H 318.993 2.09419 2.50621 0
M  V30 3504 H 317.652 3.54305 0.941471 0
M  V30 3505 H 317.3 3.69503 3.41287 0
M  V30 3506 H 317 5.26071 2.6177 0
M  V30 3507 H 318.524 4.99523 3.51154 0
M  V30 3508 H 319.938 5.57977 1.3166 0
M  V30 3509 H 318.335 5.96812 0.627286 0
M  V30 3510 H 319.405 4.84358 -0.229168 0
M  V30 3511 N 320.748 -0.0735177 1.57428 0
M  V30 3512 C 321.973 -0.789787 1.91774 0
M  V30 3513 C 322.398 -1.70413 0.796306 0
M  V30 3514 O 321.756 -1.79555 -0.250961 0
M  V30 3515 C 321.804 -1.5609 3.25067 0
M  V30 3516 O 320.908 -2.67144 3.14178 0
M  V30 3517 H 320.249 -0.215582 0.628029 0
M  V30 3518 H 322.779 -0.0422781 2.04556 0
M  V30 3519 H 322.789 -1.94052 3.58898 0
M  V30 3520 H 321.464 -0.890015 4.06265 0
M  V30 3521 H 320.041 -2.32052 2.91901 0
M  V30 3522 N 322.226 -1.5378 -0.344866 0
M  V30 3523 C 323.642 -1.44015 -0.687888 0
M  V30 3524 C 323.842 -0.595834 -1.92489 0
M  V30 3525 O 322.898 -0.0863064 -2.52352 0
M  V30 3526 C 324.211 -2.87481 -0.881758 0
M  V30 3527 C 325.759 -2.97247 -0.980459 0
M  V30 3528 C 326.234 -4.41819 -1.20665 0
M  V30 3529 N 327.725 -4.45339 -1.27389 0
M  V30 3530 C 328.46 -5.54333 -1.46639 0
M  V30 3531 N 327.956 -6.73335 -1.63071 0
M  V30 3532 N 329.749 -5.41944 -1.49176 0
M  V30 3533 H 321.9 -2.07169 0.468475 0
M  V30 3534 H 324.163 -0.93643 0.147655 0
M  V30 3535 H 323.869 -3.51672 -0.0443444 0
M  V30 3536 H 323.743 -3.32352 -1.78388 0
M  V30 3537 H 326.13 -2.33197 -1.8084 0
M  V30 3538 H 326.211 -2.5574 -0.0552713 0
M  V30 3539 H 325.855 -5.06449 -0.383652 0
M  V30 3540 H 325.785 -4.80917 -2.14539 0
M  V30 3541 H 328.276 -3.59585 -1.1622 0
M  V30 3542 H 328.589 -7.52165 -1.77391 0
M  V30 3543 H 326.934 -6.76282 -1.60209 0
M  V30 3544 H 330.125 -4.47932 -1.3592 0
M  V30 3545 H 330.298 -6.26946 -1.63837 0
M  V30 3546 N 323.704 0.605807 -1.45491 0
M  V30 3547 C 324.929 1.39625 -1.53361 0
M  V30 3548 C 325.354 1.87351 -0.167645 0
M  V30 3549 O 324.712 1.60243 0.848051 0
M  V30 3550 C 324.76 2.57559 -2.5238 0
M  V30 3551 O 323.864 3.58248 -2.04285 0
M  V30 3552 H 323.205 0.416771 -0.516912 0
M  V30 3553 H 325.735 0.737103 -1.90861 0
M  V30 3554 H 325.745 3.0478 -2.71244 0
M  V30 3555 H 324.42 2.22171 -3.51586 0
M  V30 3556 H 322.997 3.17664 -1.95305 0
M  V30 3557 N 325.182 1.32811 0.848464 0
M  V30 3558 C 326.129 1.22265 1.95755 0
M  V30 3559 C 327.099 0.103413 1.65778 0
M  V30 3560 O 328.284 0.280033 1.88734 0
M  V30 3561 C 325.424 0.958014 3.31536 0
M  V30 3562 C 324.537 2.16262 3.73971 0
M  V30 3563 C 323.672 1.83295 4.98575 0
M  V30 3564 C 322.711 3.00041 5.33518 0
M  V30 3565 N 321.848 2.67125 6.49299 0
M  V30 3566 H 326.688 2.17128 2.04107 0
M  V30 3567 H 324.225 1.07982 0.998913 0
M  V30 3568 H 326.183 0.785052 4.09747 0
M  V30 3569 H 324.813 0.046159 3.22767 0
M  V30 3570 H 323.865 2.44565 2.91362 0
M  V30 3571 H 325.177 3.03572 3.95785 0
M  V30 3572 H 324.331 1.62586 5.84509 0
M  V30 3573 H 323.07 0.932078 4.7871 0
M  V30 3574 H 322.075 3.21374 4.46093 0
M  V30 3575 H 323.3 3.90869 5.55336 0
M  V30 3576 H 321.246 1.79586 6.3094 0
M  V30 3577 H 321.163 3.47965 6.71161 0
M  V30 3578 H 322.431 2.49861 7.3837 0
M  V30 3579 N 326.66 -1.06551 1.16123 0
M  V30 3580 C 327.909 -1.78687 0.935622 0
M  V30 3581 C 328.222 -1.88056 -0.538001 0
M  V30 3582 O 329.428 -2.56794 -0.88143 0
M  V30 3583 C 327.884 -3.21143 1.62466 0
M  V30 3584 C 327.492 -3.19949 3.13587 0
M  V30 3585 C 329.236 -3.9783 1.48092 0
M  V30 3586 C 327.143 -4.57108 3.75241 0
M  V30 3587 H 326.073 -0.669712 0.346412 0
M  V30 3588 H 328.724 -1.19534 1.39226 0
M  V30 3589 H 327.106 -3.80539 1.09572 0
M  V30 3590 H 328.28 -2.70151 3.73303 0
M  V30 3591 H 326.595 -2.5676 3.27816 0
M  V30 3592 H 329.192 -4.99217 1.91538 0
M  V30 3593 H 329.535 -4.14078 0.429507 0
M  V30 3594 H 330.068 -3.4495 1.98127 0
M  V30 3595 H 326.807 -4.46065 4.80319 0
M  V30 3596 H 326.327 -5.07111 3.20309 0
M  V30 3597 H 328.006 -5.26069 3.76644 0
M  V30 3598 N 328.138 -0.959301 -1.25041 0
M  V30 3599 C 329.086 -0.474437 -2.2771 0
M  V30 3600 C 330.08 0.457697 -1.631 0
M  V30 3601 O 331.286 0.333912 -1.76876 0
M  V30 3602 H 327.661 -0.134936 -0.739795 0
M  V30 3603 H 329.632 -1.35251 -2.65988 0
M  V30 3604 C 328.381 0.227884 -3.46952 0
M  V30 3605 H 327.704 -0.480248 -3.96905 0
M  V30 3606 H 329.144 0.531091 -4.20661 0
M  V30 3607 C 327.603 1.452 -3.04004 0
M  V30 3608 O 328.133 2.54949 -3.10426 0
M  V30 3609 N 326.339 1.31502 -2.59144 0
M  V30 3610 H 325.886 0.422065 -2.54119 0
M  V30 3611 H 325.844 2.13521 -2.30773 0
M  V30 3612 N 329.616 1.39756 -0.72842 0
M  V30 3613 C 330.563 2.30647 -0.0841519 0
M  V30 3614 C 331.533 1.48869 0.7367 0
M  V30 3615 O 332.718 1.77574 0.698015 0
M  V30 3616 C 329.858 3.35165 0.822091 0
M  V30 3617 C 328.971 4.31999 -0.0106663 0
M  V30 3618 C 328.106 5.23585 0.896241 0
M  V30 3619 C 327.145 6.12072 0.0583381 0
M  V30 3620 N 326.282 6.96035 0.920818 0
M  V30 3621 H 331.122 2.85173 -0.864891 0
M  V30 3622 H 328.659 1.40422 -0.438179 0
M  V30 3623 H 330.617 3.94345 1.36189 0
M  V30 3624 H 329.247 2.8211 1.56888 0
M  V30 3625 H 328.299 3.74492 -0.66781 0
M  V30 3626 H 329.611 4.9443 -0.658825 0
M  V30 3627 H 328.765 5.87759 1.50412 0
M  V30 3628 H 327.504 4.61459 1.57819 0
M  V30 3629 H 326.509 5.46916 -0.562389 0
M  V30 3630 H 327.734 6.76261 -0.6203 0
M  V30 3631 H 325.68 6.36485 1.58818 0
M  V30 3632 H 325.597 7.55284 0.32899 0
M  V30 3633 H 326.865 7.64646 1.51447 0
M  V30 3634 N 331.094 0.475555 1.50254 0
M  V30 3635 C 332.322 -0.0754493 2.06762 0
M  V30 3636 C 332.737 -1.33111 1.33891 0
M  V30 3637 O 332.094 -1.77846 0.40952 0
M  V30 3638 C 332.145 -0.359008 3.59713 0
M  V30 3639 O 331.866 0.846851 4.29837 0
M  V30 3640 C 333.367 -0.956484 4.32858 0
M  V30 3641 H 330.587 0.00907525 0.670939 0
M  V30 3642 H 333.131 0.665618 1.93364 0
M  V30 3643 H 331.286 -1.05001 3.72899 0
M  V30 3644 H 331.7 0.594162 5.21124 0
M  V30 3645 H 333.174 -1.10463 5.40834 0
M  V30 3646 H 333.651 -1.94775 3.93649 0
M  V30 3647 H 334.257 -0.303723 4.24214 0
M  V30 3648 N 332.573 -1.56217 0.208337 0
M  V30 3649 C 333.52 -2.19699 -0.707192 0
M  V30 3650 C 334.49 -1.14836 -1.20008 0
M  V30 3651 O 335.675 -1.4314 -1.26157 0
M  V30 3652 C 332.815 -2.87061 -1.91546 0
M  V30 3653 C 331.928 -4.06483 -1.46271 0
M  V30 3654 C 331.063 -4.61665 -2.62752 0
M  V30 3655 C 330.102 -5.73417 -2.14147 0
M  V30 3656 N 329.239 -6.22948 -3.23853 0
M  V30 3657 H 334.079 -2.97575 -0.159111 0
M  V30 3658 H 331.616 -1.46948 -0.0667874 0
M  V30 3659 H 333.574 -3.24294 -2.62468 0
M  V30 3660 H 332.204 -2.11725 -2.43664 0
M  V30 3661 H 331.256 -3.74825 -0.648886 0
M  V30 3662 H 332.568 -4.87271 -1.06622 0
M  V30 3663 H 331.722 -5.01272 -3.41776 0
M  V30 3664 H 330.461 -3.80013 -3.05682 0
M  V30 3665 H 329.466 -5.33326 -1.33581 0
M  V30 3666 H 330.691 -6.56897 -1.72232 0
M  V30 3667 H 328.637 -5.44213 -3.6629 0
M  V30 3668 H 328.554 -6.98823 -2.88414 0
M  V30 3669 H 329.822 -6.6721 -4.03052 0
M  V30 3670 N 334.051 0.0651679 -1.57465 0
M  V30 3671 C 335.297 0.764193 -1.87851 0
M  V30 3672 C 335.63 1.76889 -0.801495 0
M  V30 3673 O 334.905 1.93594 0.187528 0
M  V30 3674 C 335.188 1.46625 -3.28897 0
M  V30 3675 C 335.041 0.477515 -4.47258 0
M  V30 3676 C 336.36 2.4095 -3.68281 0
M  V30 3677 H 333.479 0.276351 -0.683227 0
M  V30 3678 H 336.121 0.0272868 -1.8998 0
M  V30 3679 H 334.271 2.09438 -3.27212 0
M  V30 3680 H 335.943 -0.145922 -4.61069 0
M  V30 3681 H 334.186 -0.206576 -4.33308 0
M  V30 3682 H 334.857 1.0065 -5.42746 0
M  V30 3683 H 337.333 1.88209 -3.71102 0
M  V30 3684 H 336.209 2.87072 -4.67847 0
M  V30 3685 H 336.47 3.26049 -2.98571 0
M  V30 3686 N 335.529 1.53961 0.336706 0
M  V30 3687 C 336.459 1.85417 1.41925 0
M  V30 3688 C 337.44 0.709856 1.5458 0
M  V30 3689 O 338.625 0.962396 1.68676 0
M  V30 3690 C 335.755 2.06985 2.78881 0
M  V30 3691 C 334.709 3.22813 2.81026 0
M  V30 3692 C 334.035 3.29727 4.20932 0
M  V30 3693 C 335.335 4.60767 2.45949 0
M  V30 3694 H 337.029 2.76079 1.15848 0
M  V30 3695 H 334.575 1.32839 0.555859 0
M  V30 3696 H 336.528 2.27575 3.54665 0
M  V30 3697 H 335.252 1.13061 3.06406 0
M  V30 3698 H 333.911 3.0209 2.07695 0
M  V30 3699 H 333.559 2.33385 4.45579 0
M  V30 3700 H 333.259 4.07566 4.23277 0
M  V30 3701 H 334.783 3.52536 4.98549 0
M  V30 3702 H 336.197 4.81325 3.11446 0
M  V30 3703 H 334.594 5.4106 2.59566 0
M  V30 3704 H 335.664 4.6391 1.41122 0
M  V30 3705 N 337.007 -0.598083 1.45811 0
M  V30 3706 C 337.954 -1.7082 1.55207 0
M  V30 3707 C 338.924 -1.61278 0.39732 0
M  V30 3708 O 340.109 -1.80717 0.612038 0
M  V30 3709 C 337.249 -3.09144 1.53376 0
M  V30 3710 C 336.362 -3.29423 2.79472 0
M  V30 3711 C 335.497 -4.57907 2.69248 0
M  V30 3712 C 334.536 -4.71476 3.90354 0
M  V30 3713 N 333.673 -5.9127 3.78608 0
M  V30 3714 H 338.513 -1.62125 2.50039 0
M  V30 3715 H 336.05 -0.790389 1.24062 0
M  V30 3716 H 338.008 -3.89186 1.50301 0
M  V30 3717 H 336.638 -3.16773 0.620876 0
M  V30 3718 H 335.69 -2.43091 2.92594 0
M  V30 3719 H 337.002 -3.3532 3.69272 0
M  V30 3720 H 336.156 -5.46157 2.64192 0
M  V30 3721 H 334.895 -4.54423 1.77063 0
M  V30 3722 H 333.9 -3.81648 3.95759 0
M  V30 3723 H 335.125 -4.76751 4.83617 0
M  V30 3724 H 333.071 -5.88813 2.89199 0
M  V30 3725 H 332.988 -5.98369 4.6205 0
M  V30 3726 H 334.256 -6.81992 3.77501 0
M  V30 3727 N 338.485 -1.33259 -0.841409 0
M  V30 3728 C 339.418 -1.1764 -1.95541 0
M  V30 3729 C 340.396 -0.072501 -1.62438 0
M  V30 3730 O 341.58 -0.23427 -1.87039 0
M  V30 3731 C 338.707 -0.803794 -3.29024 0
M  V30 3732 C 337.753 -1.91482 -3.81099 0
M  V30 3733 S 338.586 -3.52538 -4.03085 0
M  V30 3734 C 339.742 -3.17279 -5.39523 0
M  V30 3735 H 339.975 -2.11941 -2.08491 0
M  V30 3736 H 337.508 -1.18072 -0.9949 0
M  V30 3737 H 339.466 -0.595592 -4.06156 0
M  V30 3738 H 338.127 0.120574 -3.13868 0
M  V30 3739 H 337.32 -1.60742 -4.7768 0
M  V30 3740 H 336.922 -2.07956 -3.10854 0
M  V30 3741 H 339.214 -2.67946 -6.22263 0
M  V30 3742 H 340.157 -4.1293 -5.75234 0
M  V30 3743 H 340.565 -2.53943 -5.04156 0
M  V30 3744 N 339.963 1.05934 -1.16686 0
M  V30 3745 C 341.212 1.78188 -0.945085 0
M  V30 3746 C 341.525 1.88338 0.528021 0
M  V30 3747 O 342.731 2.57258 0.867799 0
M  V30 3748 C 341.187 3.20277 -1.64167 0
M  V30 3749 C 340.795 3.18281 -3.15279 0
M  V30 3750 C 342.539 3.97039 -1.502 0
M  V30 3751 C 340.446 4.55112 -3.7766 0
M  V30 3752 H 339.376 0.667866 -0.349959 0
M  V30 3753 H 342.027 1.18794 -1.39858 0
M  V30 3754 H 340.409 3.79952 -1.11589 0
M  V30 3755 H 341.583 2.68167 -3.74731 0
M  V30 3756 H 339.898 2.55018 -3.29173 0
M  V30 3757 H 342.495 4.98194 -1.94183 0
M  V30 3758 H 342.838 4.13845 -0.451461 0
M  V30 3759 H 343.371 3.43894 -1.99954 0
M  V30 3760 H 340.11 4.43512 -4.82677 0
M  V30 3761 H 339.63 5.05406 -3.22994 0
M  V30 3762 H 341.309 5.24064 -3.79428 0
M  V30 3763 N 341.441 0.965919 1.2453 0
M  V30 3764 C 342.688 0.626831 1.92554 0
M  V30 3765 C 343.016 -0.837739 1.75534 0
M  V30 3766 O 342.271 -1.61793 1.10098 0
M  V30 3767 C 342.57 0.945428 3.44669 0
M  V30 3768 C 342.236 2.39785 3.81856 0
M  V30 3769 C 340.898 2.79483 3.91718 0
M  V30 3770 C 343.25 3.34055 4.00071 0
M  V30 3771 C 340.578 4.12496 4.1721 0
M  V30 3772 C 342.93 4.66694 4.27059 0
M  V30 3773 C 341.594 5.06172 4.3514 0
M  V30 3774 H 340.864 0.229374 0.704605 0
M  V30 3775 H 343.511 1.21707 1.4785 0
M  V30 3776 H 341.816 0.272926 3.90848 0
M  V30 3777 H 343.513 0.661484 3.95507 0
M  V30 3778 H 340.103 2.08003 3.74743 0
M  V30 3779 H 344.287 3.04571 3.91855 0
M  V30 3780 H 339.543 4.42709 4.21685 0
M  V30 3781 H 343.717 5.3971 4.40097 0
M  V30 3782 H 341.344 6.09262 4.54646 0
M  V30 3783 N 342.919 -1.39368 0.735821 0
M  V30 3784 C 344.165 -2.00794 0.284544 0
M  V30 3785 C 344.498 -1.58255 -1.12557 0
M  V30 3786 O 343.773 -0.811819 -1.76748 0
M  V30 3787 C 344.056 -3.58011 0.387337 0
M  V30 3788 C 343.909 -4.10566 1.83728 0
M  V30 3789 C 345.228 -4.395 -0.22975 0
M  V30 3790 H 342.347 -0.729501 0.104866 0
M  V30 3791 H 344.989 -1.65564 0.93213 0
M  V30 3792 H 343.139 -3.88154 -0.164006 0
M  V30 3793 H 344.811 -3.91139 2.44556 0
M  V30 3794 H 343.054 -3.64095 2.35833 0
M  V30 3795 H 343.725 -5.19702 1.86047 0
M  V30 3796 H 346.201 -4.15406 0.240257 0
M  V30 3797 H 345.077 -5.48752 -0.127485 0
M  V30 3798 H 345.338 -4.22062 -1.3159 0
M  V30 3799 N 344.397 -0.483516 -1.5 0
M  V30 3800 C 345.347 0.32306 -2.257 0
M  V30 3801 C 346.331 0.950755 -1.29805 0
M  V30 3802 O 347.523 0.861247 -1.54634 0
M  V30 3803 C 344.652 1.39724 -3.13579 0
M  V30 3804 C 343.738 0.776663 -4.16928 0
M  V30 3805 N 344.129 -0.1104 -5.0568 0
M  V30 3806 C 342.427 1.03922 -4.33724 0
M  V30 3807 C 343.128 -0.46387 -5.79848 0
M  V30 3808 N 342.104 0.163987 -5.43353 0
M  V30 3809 H 345.906 -0.360086 -2.91686 0
M  V30 3810 H 343.42 -0.298456 -1.59634 0
M  V30 3811 H 345.417 1.98837 -3.66428 0
M  V30 3812 H 344.077 2.08225 -2.49143 0
M  V30 3813 H 345.088 -0.480069 -5.1567 0
M  V30 3814 H 341.765 1.71829 -3.80501 0
M  V30 3815 H 343.155 -1.18854 -6.61304 0
M  V30 3816 N 345.875 1.56104 -0.216619 0
M  V30 3817 C 346.805 2.23063 0.690296 0
M  V30 3818 C 347.786 1.20072 1.20485 0
M  V30 3819 O 348.971 1.48643 1.24976 0
M  V30 3820 C 346.101 2.90672 1.90072 0
M  V30 3821 C 345.055 4.00092 1.5202 0
M  V30 3822 C 344.381 4.54972 2.80899 0
M  V30 3823 C 345.681 5.17398 0.71391 0
M  V30 3824 H 347.375 2.99109 0.132038 0
M  V30 3825 H 344.921 1.43866 0.0620664 0
M  V30 3826 H 346.874 3.36204 2.54057 0
M  V30 3827 H 345.598 2.12066 2.48386 0
M  V30 3828 H 344.257 3.55283 0.903839 0
M  V30 3829 H 343.905 3.73102 3.37348 0
M  V30 3830 H 343.605 5.28817 2.56176 0
M  V30 3831 H 345.129 5.0322 3.45836 0
M  V30 3832 H 346.543 5.59342 1.25735 0
M  V30 3833 H 344.94 5.97444 0.563951 0
M  V30 3834 H 346.01 4.84088 -0.280527 0
M  V30 3835 N 347.353 -0.0568162 1.57498 0
M  V30 3836 C 348.602 -0.752001 1.87157 0
M  V30 3837 C 348.915 -1.77978 0.811375 0
M  V30 3838 O 350.121 -2.52559 0.996293 0
M  V30 3839 C 348.577 -1.38844 3.3204 0
M  V30 3840 C 348.185 -0.398456 4.46225 0
M  V30 3841 C 349.929 -2.06512 3.70882 0
M  V30 3842 C 347.836 -1.04166 5.82154 0
M  V30 3843 H 346.766 -0.28461 0.698222 0
M  V30 3844 H 349.417 -0.00561272 1.83499 0
M  V30 3845 H 347.799 -2.1836 3.30356 0
M  V30 3846 H 348.973 0.367977 4.59328 0
M  V30 3847 H 347.288 0.174592 4.16034 0
M  V30 3848 H 349.885 -2.55437 4.6974 0
M  V30 3849 H 350.228 -2.87117 3.01445 0
M  V30 3850 H 350.761 -1.33808 3.7462 0
M  V30 3851 H 347.5 -0.275614 6.5492 0
M  V30 3852 H 347.02 -1.7786 5.72823 0
M  V30 3853 H 348.699 -1.55715 6.27982 0
M  V30 3854 N 348.832 -1.54138 -0.328536 0
M  V30 3855 C 350.081 -1.71318 -1.06456 0
M  V30 3856 C 350.394 -0.491109 -1.89334 0
M  V30 3857 O 351.6 -0.54416 -2.65991 0
M  V30 3858 C 350.056 -3.03 -1.94214 0
M  V30 3859 C 349.664 -4.32595 -1.16471 0
M  V30 3860 C 351.408 -3.29544 -2.67583 0
M  V30 3861 C 349.315 -5.55341 -2.03347 0
M  V30 3862 H 348.245 -0.638429 -0.401155 0
M  V30 3863 H 350.896 -1.80633 -0.323106 0
M  V30 3864 H 349.278 -2.87579 -2.72239 0
M  V30 3865 H 350.452 -4.58766 -0.432525 0
M  V30 3866 H 348.767 -4.12777 -0.548063 0
M  V30 3867 H 351.364 -4.18444 -3.3288 0
M  V30 3868 H 351.707 -2.47206 -3.34955 0
M  V30 3869 H 352.24 -3.45809 -1.96623 0
M  V30 3870 H 348.979 -6.40268 -1.40491 0
M  V30 3871 H 348.499 -5.33397 -2.74313 0
M  V30 3872 H 350.178 -5.91557 -2.62049 0
M  V30 3873 N 350.31 0.590341 -1.46126 0
M  V30 3874 C 351.557 1.34882 -1.5104 0
M  V30 3875 C 351.885 1.93849 -0.159021 0
M  V30 3876 O 351.14 1.76544 0.844436 0
M  V30 3877 C 351.439 2.5032 -2.55097 0
M  V30 3878 C 351.105 2.09394 -3.99331 0
M  V30 3879 C 349.767 1.97947 -4.38601 0
M  V30 3880 C 352.119 1.77712 -4.89967 0
M  V30 3881 C 349.447 1.53065 -5.66381 0
M  V30 3882 C 351.799 1.34312 -6.18177 0
M  V30 3883 C 350.463 1.21436 -6.56361 0
M  V30 3884 H 349.733 0.493568 -0.552695 0
M  V30 3885 H 352.38 0.665539 -1.79563 0
M  V30 3886 H 350.685 3.24062 -2.20207 0
M  V30 3887 H 352.382 3.08541 -2.56132 0
M  V30 3888 H 348.972 2.19235 -3.68285 0
M  V30 3889 H 353.156 1.85445 -4.60352 0
M  V30 3890 H 348.412 1.41733 -5.94745 0
M  V30 3891 H 352.586 1.08849 -6.87841 0
M  V30 3892 H 350.213 0.864345 -7.5527 0
M  V30 3893 N 351.788 1.33704 0.83433 0
M  V30 3894 C 353.028 1.26754 1.60352 0
M  V30 3895 C 353.392 -0.163182 1.91305 0
M  V30 3896 O 354.593 -0.3567 2.66423 0
M  V30 3897 C 352.864 2.12262 2.8754 0
M  V30 3898 S 354.423 2.22549 3.78176 0
M  V30 3899 H 351.241 0.450879 0.549753 0
M  V30 3900 H 353.843 1.68788 0.986444 0
M  V30 3901 H 352.547 3.15238 2.62779 0
M  V30 3902 H 352.078 1.71082 3.54252 0
M  V30 3903 H 354.093 1.3899 4.76336 0
M  V30 3904 N 353.266 -1.05314 1.17247 0
M  V30 3905 C 354.513 -1.78293 0.960091 0
M  V30 3906 C 354.841 -1.87658 -0.51136 0
M  V30 3907 O 354.096 -1.3718 -1.39571 0
M  V30 3908 C 354.395 -3.2229 1.54479 0
M  V30 3909 C 354.061 -3.32987 3.04024 0
M  V30 3910 C 352.723 -3.35613 3.44844 0
M  V30 3911 C 355.075 -3.34102 4.00031 0
M  V30 3912 C 352.403 -3.36982 4.8027 0
M  V30 3913 C 354.755 -3.3701 5.35357 0
M  V30 3914 C 353.419 -3.37923 5.75642 0
M  V30 3915 H 352.689 -0.652422 0.351322 0
M  V30 3916 H 355.336 -1.23782 1.46117 0
M  V30 3917 H 353.641 -3.7972 0.965391 0
M  V30 3918 H 355.338 -3.77376 1.35603 0
M  V30 3919 H 351.928 -3.31655 2.71483 0
M  V30 3920 H 356.112 -3.31276 3.69554 0
M  V30 3921 H 351.368 -3.35999 5.10798 0
M  V30 3922 H 355.542 -3.36822 6.09528 0
M  V30 3923 H 353.169 -3.38738 6.80559 0
M  V30 3924 N 354.744 -0.972509 -1.24016 0
M  V30 3925 C 355.984 -0.644951 -1.93958 0
M  V30 3926 C 356.348 0.80559 -1.74282 0
M  V30 3927 O 357.549 1.2436 -2.38302 0
M  V30 3928 C 355.82 -1.01521 -3.42678 0
M  V30 3929 S 357.379 -0.802927 -4.31391 0
M  V30 3930 H 354.197 -0.236452 -0.670531 0
M  V30 3931 H 356.799 -1.25048 -1.50277 0
M  V30 3932 H 355.503 -2.06769 -3.54506 0
M  V30 3933 H 355.034 -0.400648 -3.91355 0
M  V30 3934 H 357.049 0.317256 -4.95185 0
M  V30 3935 N 356.222 1.38976 -0.743202 0
M  V30 3936 C 357.469 2.00343 -0.294752 0
M  V30 3937 C 357.797 1.58983 1.12047 0
M  V30 3938 O 357.052 0.813809 1.77977 0
M  V30 3939 C 357.351 3.55647 -0.353517 0
M  V30 3940 C 357.017 4.16685 -1.72292 0
M  V30 3941 C 355.679 4.3307 -2.09771 0
M  V30 3942 C 358.031 4.50464 -2.62168 0
M  V30 3943 C 355.359 4.80526 -3.36618 0
M  V30 3944 C 357.711 4.99332 -3.88395 0
M  V30 3945 C 356.375 5.13924 -4.25956 0
M  V30 3946 H 355.645 0.733108 -0.107857 0
M  V30 3947 H 358.292 1.6618 -0.951651 0
M  V30 3948 H 356.597 3.89884 0.386954 0
M  V30 3949 H 358.294 4.00998 0.0117269 0
M  V30 3950 H 354.884 4.04339 -1.42155 0
M  V30 3951 H 359.068 4.37416 -2.3448 0
M  V30 3952 H 354.324 4.90008 -3.65653 0
M  V30 3953 H 358.498 5.2444 -4.58187 0
M  V30 3954 H 356.125 5.50457 -5.2431 0
M  V30 3955 N 357.7 0.491464 1.49741 0
M  V30 3956 C 358.946 -0.0565092 2.02721 0
M  V30 3957 C 359.279 -1.37522 1.37118 0
M  V30 3958 O 358.554 -1.87866 0.503645 0
M  V30 3959 C 358.837 -0.219051 3.59433 0
M  V30 3960 C 358.69 1.12211 4.35579 0
M  V30 3961 C 360.009 -0.964157 4.29409 0
M  V30 3962 H 357.128 -0.0190627 0.736753 0
M  V30 3963 H 359.77 0.641021 1.7886 0
M  V30 3964 H 357.92 -0.813165 3.79895 0
M  V30 3965 H 359.592 1.75437 4.26637 0
M  V30 3966 H 357.835 1.71377 3.98513 0
M  V30 3967 H 358.506 0.961794 5.43556 0
M  V30 3968 H 360.982 -0.460378 4.13545 0
M  V30 3969 H 359.858 -1.04671 5.38828 0
M  V30 3970 H 360.119 -2.00563 3.93988 0
M  V30 3971 N 359.178 -1.55987 0.224894 0
M  V30 3972 C 360.589 -1.84553 -0.282345 0
M  V30 3973 C 360.94 -1.14634 -1.59227 0
M  V30 3974 O 360.065 -0.417155 -2.12341 0
M  V30 3975 C 360.66 -3.348 -0.519062 0
M  V30 3976 C 359.219 -3.63671 -0.970604 0
M  V30 3977 C 358.366 -2.77277 -0.0355261 0
M  V30 3978 H 361.317 -1.52245 0.448006 0
M  V30 3979 H 361.338 -3.55187 -1.36463 0
M  V30 3980 H 360.85 -3.8566 0.43449 0
M  V30 3981 H 358.951 -3.1827 -1.9374 0
M  V30 3982 H 359.064 -4.71631 -0.842698 0
M  V30 3983 H 357.428 -2.48846 -0.542927 0
M  V30 3984 H 358.211 -3.30937 0.913003 0
M  V30 3985 N 360.656 0.0484629 -1.57525 0
M  V30 3986 C 361.886 0.754326 -1.92337 0
M  V30 3987 C 362.294 1.70443 -0.82132 0
M  V30 3988 O 361.637 1.82466 0.21254 0
M  V30 3989 C 361.699 1.58231 -3.22805 0
M  V30 3990 C 361.363 0.799074 -4.4996 0
M  V30 3991 C 362.36 0.1079 -5.19788 0
M  V30 3992 C 360.045 0.759345 -4.96527 0
M  V30 3993 C 362.039 -0.612516 -6.3445 0
M  V30 3994 C 359.726 0.0351713 -6.1109 0
M  V30 3995 C 360.724 -0.649537 -6.79904 0
M  V30 3996 O 360.412 -1.36199 -7.92278 0
M  V30 3997 H 360.144 0.218257 -0.639797 0
M  V30 3998 H 362.698 0.0159295 -2.05394 0
M  V30 3999 H 360.928 2.36406 -3.06021 0
M  V30 4000 H 362.617 2.16898 -3.43089 0
M  V30 4001 H 363.383 0.129748 -4.84826 0
M  V30 4002 H 359.262 1.28177 -4.42822 0
M  V30 4003 H 362.806 -1.14751 -6.88097 0
M  V30 4004 H 358.703 0.0113314 -6.45499 0
M  V30 4005 H 359.471 -1.27366 -8.0853 0
M  V30 4006 N 362.134 1.5431 0.320358 0
M  V30 4007 C 363.082 1.84647 1.4145 0
M  V30 4008 C 364.076 0.718624 1.53402 0
M  V30 4009 O 365.282 0.902335 1.5575 0
M  V30 4010 H 361.657 0.585349 0.472091 0
M  V30 4011 H 363.628 2.7614 1.13089 0
M  V30 4012 C 362.377 2.09341 2.77617 0
M  V30 4013 H 361.7 2.9559 2.69196 0
M  V30 4014 H 363.14 2.3452 3.53237 0
M  V30 4015 C 361.599 0.885939 3.25043 0
M  V30 4016 O 362.129 0.0967891 4.01583 0
M  V30 4017 N 360.335 0.696682 2.82125 0
M  V30 4018 H 359.882 1.34006 2.2 0
M  V30 4019 H 359.84 -0.109712 3.14209 0
M  V30 4020 N 363.613 -0.582584 1.46437 0
M  V30 4021 C 364.862 -1.337 1.5102 0
M  V30 4022 C 365.175 -1.94891 0.166359 0
M  V30 4023 O 366.381 -2.71351 0.0899954 0
M  V30 4024 C 364.837 -2.42315 2.66104 0
M  V30 4025 C 364.445 -1.87427 4.06909 0
M  V30 4026 C 366.189 -3.19099 2.79958 0
M  V30 4027 C 364.096 -2.93672 5.13333 0
M  V30 4028 H 363.026 -0.502619 0.562041 0
M  V30 4029 H 365.677 -0.621701 1.72647 0
M  V30 4030 H 364.059 -3.16645 2.37807 0
M  V30 4031 H 365.233 -1.19639 4.44998 0
M  V30 4032 H 363.548 -1.2331 3.97723 0
M  V30 4033 H 366.145 -3.9839 3.56636 0
M  V30 4034 H 366.488 -3.71695 1.87479 0
M  V30 4035 H 367.021 -2.51875 3.07902 0
M  V30 4036 H 363.76 -2.45962 6.07604 0
M  V30 4037 H 363.28 -3.59948 4.79789 0
M  V30 4038 H 364.959 -3.5762 5.39182 0
M  V30 4039 N 365.091 -1.34144 -0.827227 0
M  V30 4040 C 366.039 -1.25364 -1.95925 0
M  V30 4041 C 367.033 -0.152608 -1.68711 0
M  V30 4042 O 368.239 -0.317311 -1.77181 0
M  V30 4043 H 364.614 -0.389342 -0.643364 0
M  V30 4044 H 366.585 -2.21045 -2.00454 0
M  V30 4045 C 365.334 -1.02158 -3.32354 0
M  V30 4046 H 364.657 -1.86111 -3.5384 0
M  V30 4047 H 366.097 -1.00048 -4.12027 0
M  V30 4048 C 364.556 0.275244 -3.35774 0
M  V30 4049 O 365.086 1.27806 -3.80826 0
M  V30 4050 N 363.292 0.306853 -2.88975 0
M  V30 4051 H 362.839 -0.509777 -2.52506 0
M  V30 4052 H 362.797 1.17432 -2.91646 0
M  V30 4053 N 366.569 1.04691 -1.17803 0
M  V30 4054 C 367.499 2.14494 -0.92275 0
M  V30 4055 C 368.48 1.69546 0.137179 0
M  V30 4056 O 369.665 1.94195 -0.0141108 0
M  V30 4057 C 366.795 3.44491 -0.440803 0
M  V30 4058 C 365.749 4.03031 -1.4405 0
M  V30 4059 C 365.075 5.28432 -0.81631 0
M  V30 4060 C 366.375 4.39932 -2.81527 0
M  V30 4061 H 368.069 2.36107 -1.84103 0
M  V30 4062 H 365.615 1.1347 -0.886599 0
M  V30 4063 H 367.568 4.2066 -0.249602 0
M  V30 4064 H 366.292 3.22546 0.513025 0
M  V30 4065 H 364.951 3.28937 -1.61853 0
M  V30 4066 H 364.599 5.02792 0.144511 0
M  V30 4067 H 364.299 5.68559 -1.48371 0
M  V30 4068 H 365.823 6.07284 -0.635496 0
M  V30 4069 H 367.237 5.07113 -2.67412 0
M  V30 4070 H 365.634 4.9109 -3.44892 0
M  V30 4071 H 366.704 3.50045 -3.35554 0
M  V30 4072 N 368.047 0.979072 1.23499 0
M  V30 4073 C 369.296 0.642751 1.91185 0
M  V30 4074 C 369.609 -0.827253 1.77245 0
M  V30 4075 O 370.815 -1.27458 2.39722 0
M  V30 4076 C 369.271 1.09901 3.42709 0
M  V30 4077 C 368.879 2.59327 3.65313 0
M  V30 4078 C 370.623 0.836371 4.16179 0
M  V30 4079 C 368.53 2.98627 5.10467 0
M  V30 4080 H 367.46 0.236698 0.715884 0
M  V30 4081 H 370.111 1.1868 1.39955 0
M  V30 4082 H 368.493 0.48319 3.93041 0
M  V30 4083 H 369.667 3.26136 3.25533 0
M  V30 4084 H 367.982 2.83323 3.05151 0
M  V30 4085 H 370.579 1.10586 5.23139 0
M  V30 4086 H 370.922 -0.227509 4.15678 0
M  V30 4087 H 371.455 1.41371 3.71832 0
M  V30 4088 H 368.194 4.04133 5.16098 0
M  V30 4089 H 367.714 2.3651 5.51201 0
M  V30 4090 H 369.393 2.89159 5.78788 0
M  V30 4091 N 369.525 -1.3858 0.750561 0
M  V30 4092 C 370.455 -2.33102 0.136237 0
M  V30 4093 C 371.436 -1.54713 -0.706965 0
M  V30 4094 O 372.621 -1.83043 -0.648769 0
M  V30 4095 C 369.751 -3.38882 -0.760017 0
M  V30 4096 C 368.705 -4.27995 -0.0197785 0
M  V30 4097 C 368.031 -5.24605 -1.03408 0
M  V30 4098 C 369.331 -5.09554 1.14684 0
M  V30 4099 H 371.025 -2.84726 0.925822 0
M  V30 4100 H 368.571 -1.36898 0.446654 0
M  V30 4101 H 370.524 -4.0397 -1.19943 0
M  V30 4102 H 369.248 -2.85734 -1.58189 0
M  V30 4103 H 367.907 -3.64409 0.400184 0
M  V30 4104 H 367.555 -4.67746 -1.84994 0
M  V30 4105 H 367.255 -5.85081 -0.543464 0
M  V30 4106 H 368.779 -5.9257 -1.47288 0
M  V30 4107 H 370.193 -5.67899 0.785118 0
M  V30 4108 H 368.59 -5.7925 1.56812 0
M  V30 4109 H 369.66 -4.4347 1.96118 0
M  V30 4110 N 371.003 -0.499398 -1.49478 0
M  V30 4111 C 372.233 0.0424839 -2.06556 0
M  V30 4112 C 372.641 1.31514 -1.36018 0
M  V30 4113 O 371.984 1.78555 -0.431718 0
M  V30 4114 C 372.046 0.368074 -3.57611 0
M  V30 4115 C 371.71 -0.806631 -4.49825 0
M  V30 4116 C 372.707 -1.69667 -4.91436 0
M  V30 4117 C 370.392 -1.00498 -4.92144 0
M  V30 4118 C 372.386 -2.76923 -5.74101 0
M  V30 4119 C 370.073 -2.08072 -5.74586 0
M  V30 4120 C 371.071 -2.96119 -6.15469 0
M  V30 4121 O 370.759 -4.01836 -6.96264 0
M  V30 4122 H 370.491 -0.0165165 -0.675798 0
M  V30 4123 H 373.045 -0.695497 -1.93267 0
M  V30 4124 H 371.275 1.15963 -3.68903 0
M  V30 4125 H 372.964 0.848381 -3.96935 0
M  V30 4126 H 373.73 -1.55524 -4.59388 0
M  V30 4127 H 369.609 -0.329036 -4.59824 0
M  V30 4128 H 373.153 -3.45676 -6.05932 0
M  V30 4129 H 369.05 -2.22211 -6.06047 0
M  V30 4130 H 369.818 -3.9917 -7.14567 0
M  V30 4131 N 372.481 1.55866 -0.233164 0
M  V30 4132 C 373.706 2.03449 0.402906 0
M  V30 4133 C 374.131 1.11166 1.51736 0
M  V30 4134 O 373.489 0.101996 1.81013 0
M  V30 4135 C 373.537 3.49165 0.9009 0
M  V30 4136 O 372.641 3.60019 2.01147 0
M  V30 4137 H 371.982 0.657913 0.0897025 0
M  V30 4138 H 374.512 2.01493 -0.355201 0
M  V30 4139 H 374.522 3.89716 1.2077 0
M  V30 4140 H 373.197 4.15813 0.0852889 0
M  V30 4141 H 371.774 3.3136 1.71042 0
M  V30 4142 N 373.959 -0.0401083 1.57549 0
M  V30 4143 C 374.889 -1.04384 2.08869 0
M  V30 4144 C 375.87 -1.38407 0.988817 0
M  V30 4145 O 377.055 -1.47483 1.26342 0
M  V30 4146 C 374.185 -2.34808 2.55895 0
M  V30 4147 C 373.139 -2.15057 3.70047 0
M  V30 4148 C 372.465 -3.51145 4.03239 0
M  V30 4149 C 373.765 -1.54576 4.98902 0
M  V30 4150 H 375.459 -0.616666 2.92981 0
M  V30 4151 H 373.005 -0.295184 1.40942 0
M  V30 4152 H 374.958 -3.05346 2.90417 0
M  V30 4153 H 373.682 -2.79565 1.68853 0
M  V30 4154 H 372.341 -1.46954 3.35857 0
M  V30 4155 H 371.989 -3.93529 3.13279 0
M  V30 4156 H 371.689 -3.38758 4.80122 0
M  V30 4157 H 373.213 -4.23062 4.40285 0
M  V30 4158 H 374.627 -2.15017 5.31451 0
M  V30 4159 H 373.024 -1.52796 5.80322 0
M  V30 4160 H 374.094 -0.51039 4.82206 0
M  V30 4161 N 375.437 -1.54477 -0.31217 0
M  V30 4162 C 376.683 -1.73483 -1.0503 0
M  V30 4163 C 377.016 -0.513125 -1.87298 0
M  V30 4164 O 376.291 0.489864 -1.8823 0
M  V30 4165 C 376.574 -3.01723 -1.96558 0
M  V30 4166 C 376.427 -4.3417 -1.17545 0
M  V30 4167 C 377.746 -3.25772 -2.95907 0
M  V30 4168 H 374.865 -0.631222 -0.380432 0
M  V30 4169 H 377.507 -1.87184 -0.325932 0
M  V30 4170 H 375.657 -2.90174 -2.58324 0
M  V30 4171 H 377.329 -4.5762 -0.581513 0
M  V30 4172 H 375.572 -4.31159 -0.477925 0
M  V30 4173 H 376.243 -5.20143 -1.84811 0
M  V30 4174 H 378.719 -3.36857 -2.44267 0
M  V30 4175 H 377.595 -4.16838 -3.57123 0
M  V30 4176 H 377.856 -2.43537 -3.68974 0
M  V30 4177 N 376.915 0.57481 -1.46744 0
M  V30 4178 C 378.331 0.898981 -1.31873 0
M  V30 4179 C 378.531 1.99313 -0.29605 0
M  V30 4180 O 377.587 2.50728 0.298621 0
M  V30 4181 C 378.9 1.30886 -2.7072 0
M  V30 4182 C 380.448 1.42127 -2.78871 0
M  V30 4183 C 380.923 1.86478 -4.18318 0
M  V30 4184 N 382.414 1.93658 -4.20774 0
M  V30 4185 C 383.149 2.29267 -5.2557 0
M  V30 4186 N 382.645 2.63612 -6.40688 0
M  V30 4187 N 384.438 2.29889 -5.1294 0
M  V30 4188 H 376.589 -0.147839 -2.11885 0
M  V30 4189 H 378.852 -0.00347013 -0.947994 0
M  V30 4190 H 378.558 0.578853 -3.46904 0
M  V30 4191 H 378.432 2.26874 -3.01343 0
M  V30 4192 H 380.819 2.14213 -2.0297 0
M  V30 4193 H 380.9 0.443705 -2.51922 0
M  V30 4194 H 380.544 1.14968 -4.94717 0
M  V30 4195 H 380.474 2.85207 -4.42679 0
M  V30 4196 H 382.965 1.69574 -3.37718 0
M  V30 4197 H 383.278 2.89759 -7.16421 0
M  V30 4198 H 381.623 2.61232 -6.44036 0
M  V30 4199 H 384.814 2.02485 -4.22039 0
M  V30 4200 H 384.987 2.57312 -5.94722 0
M  V30 4201 N 378.394 1.34581 0.820102 0
M  V30 4202 C 379.622 1.3018 1.60813 0
M  V30 4203 C 380.037 -0.123551 1.88395 0
M  V30 4204 O 379.394 -1.07148 1.47735 0
M  V30 4205 C 379.445 2.09312 2.94739 0
M  V30 4206 O 379.166 3.46288 2.68358 0
M  V30 4207 C 380.667 2.1234 3.89136 0
M  V30 4208 H 377.887 0.447726 0.499782 0
M  V30 4209 H 380.431 1.77237 1.02017 0
M  V30 4210 H 378.586 1.65889 3.50085 0
M  V30 4211 H 379 3.87227 3.53774 0
M  V30 4212 H 380.474 2.72126 4.80262 0
M  V30 4213 H 380.951 1.11854 4.24718 0
M  V30 4214 H 381.557 2.55864 3.39726 0
M  V30 4215 N 379.872 -1.04064 1.18357 0
M  V30 4216 C 380.804 -2.12114 0.868358 0
M  V30 4217 C 381.817 -1.62247 -0.134045 0
M  V30 4218 O 383.006 -1.78253 0.0937933 0
M  V30 4219 C 380.106 -3.37773 0.276132 0
M  V30 4220 C 379.279 -4.16874 1.3242 0
M  V30 4221 C 378.338 -5.20861 0.747662 0
M  V30 4222 O 377.364 -5.51141 1.42239 0
M  V30 4223 N 378.566 -5.78715 -0.454823 0
M  V30 4224 H 381.331 -2.39748 1.79836 0
M  V30 4225 H 378.892 -1.20258 1.08396 0
M  V30 4226 H 380.884 -4.04513 -0.123133 0
M  V30 4227 H 379.454 -3.07581 -0.557895 0
M  V30 4228 H 378.674 -3.45456 1.89878 0
M  V30 4229 H 379.962 -4.66516 2.03078 0
M  V30 4230 H 379.36 -5.56415 -1.02073 0
M  V30 4231 H 377.917 -6.46921 -0.79601 0
M  V30 4232 N 381.35 -0.985608 -1.22978 0
M  V30 4233 C 382.578 -0.675582 -1.95559 0
M  V30 4234 C 382.993 0.758413 -1.72897 0
M  V30 4235 O 382.35 1.51094 -1.02357 0
M  V30 4236 C 382.401 -0.96293 -3.48439 0
M  V30 4237 O 382.122 -2.34057 -3.70336 0
M  V30 4238 C 383.623 -0.669585 -4.38214 0
M  V30 4239 H 380.843 -0.250523 -0.622478 0
M  V30 4240 H 383.387 -1.3184 -1.56328 0
M  V30 4241 H 381.542 -0.366033 -3.85667 0
M  V30 4242 H 381.956 -2.43424 -4.64591 0
M  V30 4243 H 383.43 -0.920967 -5.44263 0
M  V30 4244 H 383.907 0.396383 -4.37408 0
M  V30 4245 H 384.513 -1.2472 -4.06602 0
M  V30 4246 N 382.828 1.3818 -0.7579 0
M  V30 4247 C 384.075 2.00019 -0.315985 0
M  V30 4248 C 384.403 1.60163 1.10355 0
M  V30 4249 O 383.658 0.83264 1.77103 0
M  V30 4250 C 383.957 3.55252 -0.391218 0
M  V30 4251 C 383.623 4.14834 -1.76702 0
M  V30 4252 C 382.285 4.30821 -2.14353 0
M  V30 4253 C 384.637 4.47658 -2.66931 0
M  V30 4254 C 381.965 4.76928 -3.41696 0
M  V30 4255 C 384.317 4.95184 -3.93669 0
M  V30 4256 C 382.981 5.09377 -4.31383 0
M  V30 4257 H 382.251 0.731923 -0.115627 0
M  V30 4258 H 384.898 1.65161 -0.969223 0
M  V30 4259 H 383.203 3.90273 0.34558 0
M  V30 4260 H 384.9 4.00988 -0.030805 0
M  V30 4261 H 381.49 4.02808 -1.46435 0
M  V30 4262 H 385.674 4.34904 -2.39106 0
M  V30 4263 H 380.93 4.86103 -3.70829 0
M  V30 4264 H 385.104 5.19551 -4.63724 0
M  V30 4265 H 382.731 5.44865 -5.30119 0
M  V30 4266 N 384.306 0.507319 1.49211 0
M  V30 4267 C 385.552 -0.0350047 2.0277 0
M  V30 4268 C 385.885 -1.3606 1.38569 0
M  V30 4269 O 385.16 -1.87321 0.523542 0
M  V30 4270 C 385.443 -0.180916 3.59645 0
M  V30 4271 C 385.296 1.16825 4.34364 0
M  V30 4272 C 386.615 -0.918558 4.30407 0
M  V30 4273 H 383.734 -0.0112473 0.736914 0
M  V30 4274 H 386.376 0.659956 1.7817 0
M  V30 4275 H 384.526 -0.772826 3.80736 0
M  V30 4276 H 386.198 1.79952 4.24753 0
M  V30 4277 H 384.441 1.75594 3.96673 0
M  V30 4278 H 385.112 1.01939 5.42506 0
M  V30 4279 H 387.588 -0.41649 4.1401 0
M  V30 4280 H 386.464 -0.989505 5.39907 0
M  V30 4281 H 386.725 -1.96373 3.96093 0
M  V30 4282 N 385.784 -1.5574 0.241426 0
M  V30 4283 C 386.732 -2.22538 -0.676718 0
M  V30 4284 C 387.726 -1.21117 -1.18436 0
M  V30 4285 O 388.932 -1.39144 -1.14188 0
M  V30 4286 H 385.307 -0.713776 -0.236701 0
M  V30 4287 H 387.278 -2.98264 -0.0901187 0
M  V30 4288 C 386.027 -2.93439 -1.86518 0
M  V30 4289 H 385.35 -3.7125 -1.4837 0
M  V30 4290 H 386.79 -3.43549 -2.48495 0
M  V30 4291 C 385.249 -1.97008 -2.73294 0
M  V30 4292 O 385.779 -1.49965 -3.72657 0
M  V30 4293 N 383.985 -1.64227 -2.39745 0
M  V30 4294 H 383.532 -2.02677 -1.58996 0
M  V30 4295 H 383.49 -0.999708 -2.98083 0
M  V30 4296 N 387.262 0.0317525 -1.57568 0
M  V30 4297 C 388.502 0.727979 -1.90997 0
M  V30 4298 C 388.866 1.72664 -0.839708 0
M  V30 4299 O 390.067 2.47092 -1.05825 0
M  V30 4300 C 388.338 1.38239 -3.29583 0
M  V30 4301 S 389.897 2.10814 -3.84841 0
M  V30 4302 H 386.715 0.241226 -0.668828 0
M  V30 4303 H 389.317 -0.0173037 -1.95492 0
M  V30 4304 H 388.021 0.642288 -4.05343 0
M  V30 4305 H 387.552 2.16628 -3.28384 0
M  V30 4306 H 389.567 3.3792 -3.63352 0
M  V30 4307 N 388.74 1.54641 0.303973 0
M  V30 4308 C 389.965 1.78092 1.06292 0
M  V30 4309 C 390.39 0.537342 1.80262 0
M  V30 4310 O 389.748 -0.511993 1.7392 0
M  V30 4311 C 389.796 2.98612 2.02147 0
M  V30 4312 O 388.9 2.71528 3.10397 0
M  V30 4313 H 388.241 0.589548 0.305497 0
M  V30 4314 H 390.771 2.01716 0.3423 0
M  V30 4315 H 390.781 3.265 2.44667 0
M  V30 4316 H 389.456 3.88785 1.47714 0
M  V30 4317 H 388.033 2.54648 2.72413 0
M  V30 4318 N 390.218 -0.567019 1.47046 0
M  V30 4319 C 391.464 -1.32658 1.53394 0
M  V30 4320 C 391.797 -1.93254 0.19148 0
M  V30 4321 O 391.072 -1.77338 -0.798844 0
M  V30 4322 C 391.355 -2.44412 2.64452 0
M  V30 4323 C 391.208 -1.88749 4.08282 0
M  V30 4324 C 392.527 -3.46387 2.71485 0
M  V30 4325 H 389.646 -0.48098 0.558415 0
M  V30 4326 H 392.288 -0.635481 1.79058 0
M  V30 4327 H 390.438 -3.03363 2.427 0
M  V30 4328 H 392.11 -1.34134 4.41368 0
M  V30 4329 H 390.353 -1.19481 4.17021 0
M  V30 4330 H 391.024 -2.69491 4.81745 0
M  V30 4331 H 393.5 -2.9734 2.91081 0
M  V30 4332 H 392.376 -4.2202 3.50985 0
M  V30 4333 H 392.637 -4.04616 1.78153 0
M  V30 4334 N 391.696 -1.35014 -0.812953 0
M  V30 4335 C 392.942 -1.2812 -1.57204 0
M  V30 4336 C 393.275 0.145869 -1.93651 0
M  V30 4337 O 392.55 1.0937 -1.60836 0
M  V30 4338 C 392.833 -2.18162 -2.86492 0
M  V30 4339 C 392.686 -3.69454 -2.56561 0
M  V30 4340 C 394.005 -2.07439 -3.88145 0
M  V30 4341 H 391.124 -0.466746 -0.570366 0
M  V30 4342 H 393.766 -1.65357 -0.935783 0
M  V30 4343 H 391.916 -1.86535 -3.40789 0
M  V30 4344 H 393.588 -4.11493 -2.08497 0
M  V30 4345 H 391.831 -3.9005 -1.89851 0
M  V30 4346 H 392.502 -4.27835 -3.48799 0
M  V30 4347 H 394.978 -2.35228 -3.4323 0
M  V30 4348 H 393.854 -2.7265 -4.76396 0
M  V30 4349 H 394.115 -1.05439 -4.29343 0
M  V30 4350 N 393.175 1.03435 -1.18907 0
M  V30 4351 C 394.138 2.09756 -0.923844 0
M  V30 4352 C 395.138 1.60528 0.093416 0
M  V30 4353 O 396.328 1.73631 -0.140727 0
M  V30 4354 C 393.46 3.38692 -0.387354 0
M  V30 4355 H 394.653 2.34719 -1.86674 0
M  V30 4356 H 392.206 1.19959 -1.00197 0
M  V30 4357 H 392.941 3.19396 0.561845 0
M  V30 4358 H 392.726 3.75742 -1.12074 0
M  V30 4359 H 394.216 4.17016 -0.220694 0
M  V30 4360 N 394.653 0.992116 1.22453 0
M  V30 4361 C 395.616 0.546883 2.2258 0
M  V30 4362 C 396.616 -0.369829 1.56489 0
M  V30 4363 O 397.806 -0.161896 1.73446 0
M  V30 4364 C 394.938 -0.204659 3.40285 0
M  V30 4365 H 396.131 1.43234 2.63484 0
M  V30 4366 H 393.684 0.779239 1.3549 0
M  V30 4367 H 394.419 -1.10614 3.04853 0
M  V30 4368 H 394.204 0.45354 3.89468 0
M  V30 4369 H 395.694 -0.504358 4.14543 0
M  V30 4370 N 396.131 -1.37776 0.765217 0
M  V30 4371 C 397.377 -2.00145 0.327072 0
M  V30 4372 C 397.71 -1.60607 -1.09175 0
M  V30 4373 O 396.985 -0.849127 -1.74986 0
M  V30 4374 C 397.268 -3.57109 0.46319 0
M  V30 4375 C 397.121 -4.06576 1.92395 0
M  V30 4376 C 398.44 -4.39888 -0.136473 0
M  V30 4377 H 395.559 -0.727113 0.120316 0
M  V30 4378 H 398.201 -1.63549 0.967039 0
M  V30 4379 H 396.351 -3.88414 -0.0816358 0
M  V30 4380 H 398.023 -3.85864 2.52798 0
M  V30 4381 H 396.266 -3.59011 2.43503 0
M  V30 4382 H 396.937 -5.15639 1.97028 0
M  V30 4383 H 399.413 -4.14803 0.328317 0
M  V30 4384 H 398.289 -5.48899 -0.0110582 0
M  V30 4385 H 398.55 -4.24758 -1.22608 0
M  V30 4386 N 397.609 -0.515225 -1.4894 0
M  V30 4387 C 399.025 -0.172099 -1.58669 0
M  V30 4388 C 399.225 1.32405 -1.51892 0
M  V30 4389 O 398.281 2.10116 -1.40027 0
M  V30 4390 C 399.594 -0.761533 -2.90897 0
M  V30 4391 C 401.142 -0.728926 -3.04394 0
M  V30 4392 C 401.617 -1.29667 -4.39261 0
M  V30 4393 N 403.108 -1.25799 -4.4579 0
M  V30 4394 C 403.843 -1.66733 -5.48623 0
M  V30 4395 N 403.339 -2.15327 -6.58488 0
M  V30 4396 N 405.132 -1.58061 -5.39419 0
M  V30 4397 H 397.283 -1.48778 -1.51588 0
M  V30 4398 H 399.546 -0.617968 -0.718901 0
M  V30 4399 H 399.252 -1.81136 -3.01468 0
M  V30 4400 H 399.126 -0.230106 -3.76497 0
M  V30 4401 H 401.513 0.312098 -2.93445 0
M  V30 4402 H 401.594 -1.29766 -2.20442 0
M  V30 4403 H 401.238 -2.33655 -4.50963 0
M  V30 4404 H 401.168 -0.703752 -5.21876 0
M  V30 4405 H 403.659 -0.902102 -3.66975 0
M  V30 4406 H 403.972 -2.44594 -7.33071 0
M  V30 4407 H 402.317 -2.19311 -6.59491 0
M  V30 4408 H 405.508 -1.19906 -4.52482 0
M  V30 4409 H 405.681 -1.90284 -6.19432 0
M  V30 4410 N 399.087 1.5561 -0.249682 0
M  V30 4411 C 400.315 2.03411 0.378352 0
M  V30 4412 C 400.73 1.12886 1.51335 0
M  V30 4413 O 400.087 0.143833 1.81932 0
M  V30 4414 C 400.138 3.50537 0.88351 0
M  V30 4415 O 399.859 4.37614 -0.20626 0
M  V30 4416 C 401.36 4.14113 1.58195 0
M  V30 4417 H 398.58 0.664994 0.08958 0
M  V30 4418 H 401.124 2.01044 -0.374357 0
M  V30 4419 H 399.279 3.5343 1.58639 0
M  V30 4420 H 399.693 5.24199 0.177782 0
M  V30 4421 H 401.167 5.18741 1.8871 0
M  V30 4422 H 401.644 3.60767 2.50487 0
M  V30 4423 H 402.25 4.15151 0.923573 0
M  V30 4424 N 400.565 -0.0233959 1.57583 0
M  V30 4425 C 401.498 -1.05549 2.02323 0
M  V30 4426 C 402.476 -1.34843 0.908626 0
M  V30 4427 O 403.66 -1.47404 1.17491 0
M  V30 4428 C 400.787 -2.38885 2.40108 0
M  V30 4429 C 399.833 -2.2541 3.62067 0
M  V30 4430 S 400.666 -1.60217 5.1097 0
M  V30 4431 C 401.822 -2.95032 5.52003 0
M  V30 4432 H 402.055 -0.674435 2.89549 0
M  V30 4433 H 399.588 -0.23355 1.52623 0
M  V30 4434 H 401.546 -3.15562 2.62547 0
M  V30 4435 H 400.207 -2.74137 1.53323 0
M  V30 4436 H 399.4 -3.23854 3.86179 0
M  V30 4437 H 399.002 -1.56876 3.39508 0
M  V30 4438 H 401.294 -3.91357 5.53033 0
M  V30 4439 H 402.237 -2.75646 6.52246 0
M  V30 4440 H 402.645 -2.97865 4.79517 0
M  V30 4441 N 402.043 -1.548 -0.295768 0
M  V30 4442 C 403.273 -1.78069 -1.04762 0
M  V30 4443 C 403.681 -0.542847 -1.81245 0
M  V30 4444 O 403.024 0.497051 -1.76848 0
M  V30 4445 C 403.086 -2.93881 -2.07061 0
M  V30 4446 C 402.75 -4.31777 -1.49725 0
M  V30 4447 C 403.747 -5.11613 -0.924581 0
M  V30 4448 C 401.432 -4.78389 -1.5313 0
M  V30 4449 C 403.426 -6.36184 -0.393594 0
M  V30 4450 C 401.113 -6.02921 -0.996447 0
M  V30 4451 C 402.111 -6.81654 -0.428569 0
M  V30 4452 O 401.799 -8.0384 0.0981593 0
M  V30 4453 H 401.531 -0.597475 -0.316226 0
M  V30 4454 H 404.085 -2.02584 -0.338973 0
M  V30 4455 H 402.315 -2.65003 -2.81621 0
M  V30 4456 H 404.004 -3.04679 -2.6819 0
M  V30 4457 H 404.77 -4.76743 -0.891136 0
M  V30 4458 H 400.649 -4.17132 -1.9627 0
M  V30 4459 H 404.193 -6.97582 0.0503014 0
M  V30 4460 H 400.09 -6.37277 -1.02706 0
M  V30 4461 H 400.858 -8.18499 -0.0146455 0
M  V30 4462 N 403.521 0.559213 -1.47345 0
M  V30 4463 C 404.932 1.14134 -1.47751 0
M  V30 4464 C 405.283 1.94834 -0.231103 0
M  V30 4465 O 404.408 2.05957 0.664137 0
M  V30 4466 C 405.003 2.07653 -2.67705 0
M  V30 4467 C 403.562 2.61141 -2.71076 0
M  V30 4468 C 402.709 1.3748 -2.40821 0
M  V30 4469 H 405.66 0.345917 -1.54884 0
M  V30 4470 H 405.681 2.91497 -2.44561 0
M  V30 4471 H 405.193 1.4889 -3.58404 0
M  V30 4472 H 403.294 3.23707 -1.84511 0
M  V30 4473 H 403.407 3.02272 -3.7171 0
M  V30 4474 H 401.771 1.68086 -1.91362 0
M  V30 4475 H 402.554 0.805135 -3.33725 0
M  V30 4476 N 404.999 1.35443 0.805782 0
M  V30 4477 C 406.248 1.28097 1.55801 0
M  V30 4478 C 406.561 -0.142428 1.95081 0
M  V30 4479 O 407.767 -0.33817 2.69386 0
M  V30 4480 C 406.223 2.24653 2.81174 0
M  V30 4481 C 405.831 3.72342 2.49129 0
M  V30 4482 C 407.575 2.2625 3.59181 0
M  V30 4483 C 405.482 4.60719 3.70799 0
M  V30 4484 H 404.412 0.475937 0.584808 0
M  V30 4485 H 407.063 1.60712 0.885661 0
M  V30 4486 H 405.445 1.85011 3.50124 0
M  V30 4487 H 406.619 4.20624 1.88181 0
M  V30 4488 H 404.934 3.73361 1.84366 0
M  V30 4489 H 407.531 2.89495 4.49552 0
M  V30 4490 H 407.874 1.26647 3.96568 0
M  V30 4491 H 408.407 2.64426 2.97193 0
M  V30 4492 H 405.146 5.61324 3.3852 0
M  V30 4493 H 404.666 4.17163 4.3097 0
M  V30 4494 H 406.345 4.76182 4.38018 0
M  V30 4495 N 406.477 -1.02803 1.19454 0
M  V30 4496 C 407.705 -1.79841 1.02297 0
M  V30 4497 C 408.12 -1.83879 -0.428259 0
M  V30 4498 O 407.477 -1.28345 -1.29745 0
M  V30 4499 C 407.528 -3.24852 1.58598 0
M  V30 4500 O 407.249 -3.21097 2.98041 0
M  V30 4501 C 408.75 -4.18485 1.46236 0
M  V30 4502 H 405.97 -0.565936 0.360496 0
M  V30 4503 H 408.514 -1.2948 1.58288 0
M  V30 4504 H 406.669 -3.72401 1.06753 0
M  V30 4505 H 407.083 -4.12033 3.24545 0
M  V30 4506 H 408.557 -5.18121 1.90407 0
M  V30 4507 H 409.034 -4.37254 0.41301 0
M  V30 4508 H 409.64 -3.76811 1.97215 0
M  V30 4509 N 407.956 -0.998596 -1.21925 0
M  V30 4510 C 408.886 -0.573688 -2.26343 0
M  V30 4511 C 409.867 0.402296 -1.65274 0
M  V30 4512 O 411.052 0.291683 -1.91997 0
M  V30 4513 C 408.182 0.106839 -3.47136 0
M  V30 4514 C 407.136 -0.788269 -4.20678 0
M  V30 4515 C 406.462 0.0254927 -5.34694 0
M  V30 4516 C 407.762 -2.08784 -4.78755 0
M  V30 4517 H 409.456 -1.44651 -2.62138 0
M  V30 4518 H 407.002 -0.696975 -1.26009 0
M  V30 4519 H 408.955 0.415531 -4.19346 0
M  V30 4520 H 407.679 1.01424 -3.10452 0
M  V30 4521 H 406.338 -1.08069 -3.50309 0
M  V30 4522 H 405.986 0.933989 -4.94253 0
M  V30 4523 H 405.686 -0.570437 -5.84825 0
M  V30 4524 H 407.21 0.328147 -6.09718 0
M  V30 4525 H 408.624 -1.84272 -5.42878 0
M  V30 4526 H 407.021 -2.63307 -5.39249 0
M  V30 4527 H 408.091 -2.76284 -3.98491 0
M  V30 4528 N 409.434 1.37368 -0.772513 0
M  V30 4529 C 410.674 2.01512 -0.342361 0
M  V30 4530 C 411.038 1.59997 1.06136 0
M  V30 4531 O 412.239 2.16609 1.59167 0
M  V30 4532 C 410.51 3.54134 -0.482048 0
M  V30 4533 S 412.069 4.38585 -0.137272 0
M  V30 4534 H 408.887 0.698699 -0.131686 0
M  V30 4535 H 411.489 1.67552 -1.0073 0
M  V30 4536 H 410.193 3.81837 -1.50428 0
M  V30 4537 H 409.724 3.92894 0.199413 0
M  V30 4538 H 411.739 4.84594 1.06692 0
M  V30 4539 N 410.912 0.523116 1.48665 0
M  V30 4540 C 412.161 -0.01544 2.01694 0
M  V30 4541 C 412.474 -1.35975 1.40606 0
M  V30 4542 O 413.68 -1.98627 1.85093 0
M  V30 4543 C 412.136 -0.0779303 3.59816 0
M  V30 4544 C 411.744 1.26107 4.29885 0
M  V30 4545 C 413.488 -0.565678 4.20714 0
M  V30 4546 C 411.395 1.15954 5.79921 0
M  V30 4547 H 410.325 -0.00954163 0.75394 0
M  V30 4548 H 412.976 0.665865 1.70993 0
M  V30 4549 H 411.358 -0.824165 3.87329 0
M  V30 4550 H 412.532 2.02233 4.14051 0
M  V30 4551 H 410.847 1.68401 3.80828 0
M  V30 4552 H 413.444 -0.6595 5.30617 0
M  V30 4553 H 413.787 -1.56984 3.85567 0
M  V30 4554 H 414.32 0.12467 3.97605 0
M  V30 4555 H 411.059 2.13864 6.19631 0
M  V30 4556 H 410.579 0.439529 5.98187 0
M  V30 4557 H 412.258 0.847361 6.41427 0
M  V30 4558 N 412.39 -1.55475 0.257931 0
M  V30 4559 C 413.353 -2.20551 -0.623706 0
M  V30 4560 C 414.353 -1.17809 -1.09443 0
M  V30 4561 O 415.543 -1.42823 -0.997362 0
M  V30 4562 C 412.675 -2.85784 -1.8585 0
M  V30 4563 H 413.868 -2.99848 -0.0557743 0
M  V30 4564 H 411.421 -1.56298 0.0084422 0
M  V30 4565 H 412.156 -2.10453 -2.46739 0
M  V30 4566 H 411.941 -3.61057 -1.52907 0
M  V30 4567 H 413.431 -3.35553 -2.48584 0
M  V30 4568 N 413.868 0.0150385 -1.57593 0
M  V30 4569 C 415.114 0.704043 -1.90187 0
M  V30 4570 C 415.447 1.74249 -0.857366 0
M  V30 4571 O 414.722 1.94092 0.125843 0
M  V30 4572 C 415.005 1.36087 -3.33395 0
M  V30 4573 C 414.858 0.334981 -4.48551 0
M  V30 4574 C 416.177 2.29112 -3.7576 0
M  V30 4575 H 413.296 0.254475 -0.691673 0
M  V30 4576 H 415.938 -0.0331678 -1.89971 0
M  V30 4577 H 414.088 1.98922 -3.3371 0
M  V30 4578 H 415.76 -0.292534 -4.60372 0
M  V30 4579 H 414.003 -0.344325 -4.32431 0
M  V30 4580 H 414.674 0.833316 -5.45674 0
M  V30 4581 H 417.15 1.76308 -3.76902 0
M  V30 4582 H 416.026 2.72043 -4.76743 0
M  V30 4583 H 416.287 3.16385 -3.08793 0
M  V30 4584 N 415.346 1.54954 0.287554 0
M  V30 4585 C 416.571 1.79209 1.04397 0
M  V30 4586 C 416.996 0.556431 1.79682 0
M  V30 4587 O 416.354 -0.493518 1.74454 0
M  V30 4588 C 416.402 3.00739 1.98969 0
M  V30 4589 O 415.506 2.74805 3.075 0
M  V30 4590 H 414.847 0.592755 0.299227 0
M  V30 4591 H 417.377 2.02068 0.320886 0
M  V30 4592 H 417.387 3.29077 2.4119 0
M  V30 4593 H 416.062 3.90329 1.43582 0
M  V30 4594 H 414.639 2.57523 2.69697 0
M  V30 4595 N 416.824 -0.551391 1.4764 0
M  V30 4596 C 417.772 -1.67896 1.60978 0
M  V30 4597 C 418.766 -1.62549 0.476877 0
M  V30 4598 O 419.972 -1.67664 0.654878 0
M  V30 4599 H 416.347 -0.555649 0.506713 0
M  V30 4600 H 418.318 -1.53784 2.55721 0
M  V30 4601 C 417.067 -3.06234 1.64669 0
M  V30 4602 H 416.39 -3.11033 2.51194 0
M  V30 4603 H 417.83 -3.84804 1.7805 0
M  V30 4604 C 416.289 -3.34737 0.381115 0
M  V30 4605 O 416.819 -3.98381 -0.515297 0
M  V30 4606 N 415.025 -2.8944 0.259354 0
M  V30 4607 H 414.572 -2.37827 0.98976 0
M  V30 4608 H 414.53 -3.08882 -0.586464 0
M  V30 4609 N 418.302 -1.35869 -0.798587 0
M  V30 4610 C 419.542 -1.30961 -1.56935 0
M  V30 4611 C 419.906 0.112404 -1.91671 0
M  V30 4612 O 421.107 0.285937 -2.67275 0
M  V30 4613 C 419.378 -2.19811 -2.81811 0
M  V30 4614 S 420.937 -2.32498 -3.72143 0
M  V30 4615 H 417.755 -0.465297 -0.537606 0
M  V30 4616 H 420.357 -1.71344 -0.941346 0
M  V30 4617 H 419.061 -3.22095 -2.54329 0
M  V30 4618 H 418.592 -1.80415 -3.49591 0
M  V30 4619 H 420.607 -1.5157 -4.72484 0
M  V30 4620 N 419.78 1.02168 -1.19998 0
M  V30 4621 C 421.02 1.77232 -1.01825 0
M  V30 4622 C 421.384 1.86833 0.442428 0
M  V30 4623 O 422.585 2.58293 0.744189 0
M  V30 4624 C 420.856 3.15601 -1.67722 0
M  V30 4625 S 422.415 4.06765 -1.64584 0
M  V30 4626 H 419.233 0.610021 -0.365233 0
M  V30 4627 H 421.835 1.22368 -1.52467 0
M  V30 4628 H 420.539 3.06235 -2.73218 0
M  V30 4629 H 420.07 3.7554 -1.17189 0
M  V30 4630 H 422.085 4.91586 -0.67511 0
M  V30 4631 N 421.258 1.00505 1.21394 0
M  V30 4632 C 422.505 0.687774 1.90462 0
M  V30 4633 C 422.833 -0.78147 1.7811 0
M  V30 4634 O 422.088 -1.58208 1.1519 0
M  V30 4635 C 422.387 1.0546 3.41486 0
M  V30 4636 C 422.053 2.51812 3.74034 0
M  V30 4637 C 420.715 2.91804 3.82628 0
M  V30 4638 C 423.067 3.46614 3.8924 0
M  V30 4639 C 420.395 4.2556 4.03876 0
M  V30 4640 C 422.747 4.80044 4.11995 0
M  V30 4641 C 421.411 5.19759 4.18816 0
M  V30 4642 H 420.681 0.251674 0.696951 0
M  V30 4643 H 423.328 1.26349 1.43903 0
M  V30 4644 H 421.633 0.397133 3.89782 0
M  V30 4645 H 423.33 0.786976 3.93202 0
M  V30 4646 H 419.92 2.1982 3.67936 0
M  V30 4647 H 424.104 3.16883 3.81967 0
M  V30 4648 H 419.36 4.55901 4.07387 0
M  V30 4649 H 423.534 5.53439 4.22704 0
M  V30 4650 H 421.161 6.23418 4.35033 0
M  V30 4651 N 422.737 -1.36956 0.779787 0
M  V30 4652 C 424.014 -1.93697 0.272156 0
M  V30 4653 C 424.394 -1.71267 -1.23413 0
M  V30 4654 O 423.742 -1.06607 -2.02107 0
M  V30 4655 C 423.952 -3.42812 0.654291 0
M  V30 4656 C 425.3 -4.19921 0.628602 0
M  V30 4657 O 426.324 -3.51209 0.594172 0
M  V30 4658 O 425.183 -5.42465 0.662864 0
M  V30 4659 H 422.277 -0.824447 0.0649286 0
M  V30 4660 H 424.823 -1.46196 0.861682 0
M  V30 4661 H 423.595 -3.52754 1.69353 0
M  V30 4662 H 423.218 -3.97582 0.0381369 0
M  V30 4663 N 424.215 -0.530993 -1.48385 0
M  V30 4664 C 425.626 -0.0907905 -1.86479 0
M  V30 4665 C 425.977 1.33213 -1.44044 0
M  V30 4666 O 425.102 1.99783 -0.831615 0
M  V30 4667 C 425.697 -0.157987 -3.38431 0
M  V30 4668 C 424.256 0.227026 -3.75715 0
M  V30 4669 C 423.403 -0.5173 -2.72432 0
M  V30 4670 H 426.354 -0.742186 -1.40276 0
M  V30 4671 H 426.375 0.630053 -3.75247 0
M  V30 4672 H 425.887 -1.19372 -3.69286 0
M  V30 4673 H 423.988 1.26486 -3.50474 0
M  V30 4674 H 424.101 -0.113288 -4.78966 0
M  V30 4675 H 422.465 0.0365527 -2.54674 0
M  V30 4676 H 423.248 -1.55368 -3.0613 0
M  V30 4677 N 425.693 1.55336 -0.266172 0
M  V30 4678 C 426.942 1.98574 0.353749 0
M  V30 4679 C 427.255 1.15789 1.57646 0
M  V30 4680 O 428.461 1.49129 2.26876 0
M  V30 4681 C 426.917 3.53403 0.680747 0
M  V30 4682 C 426.525 4.44953 -0.52165 0
M  V30 4683 C 428.269 4.05251 1.26379 0
M  V30 4684 C 426.176 5.91156 -0.169736 0
M  V30 4685 H 425.106 0.741643 0.135949 0
M  V30 4686 H 427.757 1.79743 -0.369421 0
M  V30 4687 H 426.139 3.68001 1.46257 0
M  V30 4688 H 427.313 4.42121 -1.29869 0
M  V30 4689 H 425.628 4.03691 -1.02093 0
M  V30 4690 H 428.225 5.12021 1.54074 0
M  V30 4691 H 428.568 3.53749 2.19471 0
M  V30 4692 H 429.101 3.94057 0.544447 0
M  V30 4693 H 425.84 6.46736 -1.0683 0
M  V30 4694 H 425.36 5.97079 0.570717 0
M  V30 4695 H 427.039 6.4655 0.241245 0
M  V30 4696 N 427.171 -0.0066808 1.57599 0
M  V30 4697 C 428.417 -0.693947 1.90558 0
M  V30 4698 C 428.75 -1.73792 0.866594 0
M  V30 4699 O 428.025 -1.94156 -0.115548 0
M  V30 4700 C 428.308 -1.34317 3.34112 0
M  V30 4701 C 428.161 -0.311189 4.48722 0
M  V30 4702 C 429.48 -2.27116 3.7697 0
M  V30 4703 H 426.599 -0.250803 0.693013 0
M  V30 4704 H 429.241 0.043242 1.89951 0
M  V30 4705 H 427.391 -1.9715 3.3476 0
M  V30 4706 H 429.063 0.316944 4.6021 0
M  V30 4707 H 427.306 0.367253 4.32243 0
M  V30 4708 H 427.977 -0.804366 5.46108 0
M  V30 4709 H 430.453 -1.74306 3.77831 0
M  V30 4710 H 429.329 -2.69511 4.78179 0
M  V30 4711 H 429.59 -3.14743 3.10466 0
M  V30 4712 N 428.649 -1.55105 -0.279332 0
M  V30 4713 C 429.879 -1.7917 -1.02867 0
M  V30 4714 C 430.287 -0.56204 -1.80659 0
M  V30 4715 O 429.63 0.478266 -1.77365 0
M  V30 4716 C 429.692 -2.96061 -2.03932 0
M  V30 4717 C 429.356 -4.33341 -1.45137 0
M  V30 4718 C 430.353 -5.12565 -0.870266 0
M  V30 4719 C 428.038 -4.79987 -1.48048 0
M  V30 4720 C 430.032 -6.36565 -0.326097 0
M  V30 4721 C 427.719 -6.03944 -0.932443 0
M  V30 4722 C 428.717 -6.8207 -0.356247 0
M  V30 4723 O 428.405 -8.03691 0.183412 0
M  V30 4724 H 428.137 -0.600796 -0.309872 0
M  V30 4725 H 430.691 -2.02932 -0.317468 0
M  V30 4726 H 428.921 -2.67975 -2.78794 0
M  V30 4727 H 430.61 -3.07506 -2.64943 0
M  V30 4728 H 431.376 -4.77661 -0.840521 0
M  V30 4729 H 427.255 -4.1919 -1.91835 0
M  V30 4730 H 430.799 -6.97489 0.124286 0
M  V30 4731 H 426.696 -6.3833 -0.959407 0
M  V30 4732 H 427.464 -8.18468 0.0721681 0
M  V30 4733 N 430.127 0.543554 -1.4793 0
M  V30 4734 C 431.357 1.32324 -1.58663 0
M  V30 4735 C 431.765 1.8766 -0.240896 0
M  V30 4736 O 431.108 1.66411 0.778011 0
M  V30 4737 C 431.17 2.52094 -2.56299 0
M  V30 4738 C 430.834 2.17944 -4.01683 0
M  V30 4739 C 431.831 1.74422 -4.89768 0
M  V30 4740 C 429.516 2.28884 -4.47121 0
M  V30 4741 C 431.51 1.42287 -6.21316 0
M  V30 4742 C 429.197 1.96361 -5.78693 0
M  V30 4743 C 430.195 1.53132 -6.65612 0
M  V30 4744 O 429.883 1.21029 -7.94737 0
M  V30 4745 H 429.615 0.409174 -0.538101 0
M  V30 4746 H 432.169 0.663887 -1.94375 0
M  V30 4747 H 430.399 3.20965 -2.15681 0
M  V30 4748 H 432.088 3.14165 -2.57012 0
M  V30 4749 H 432.854 1.65452 -4.55907 0
M  V30 4750 H 428.733 2.61488 -3.79664 0
M  V30 4751 H 432.277 1.08472 -6.89115 0
M  V30 4752 H 428.174 2.04967 -6.12094 0
M  V30 4753 H 428.942 1.34543 -8.07366 0
M  V30 4754 N 431.605 1.3629 0.791371 0
M  V30 4755 C 432.852 1.30412 1.54916 0
M  V30 4756 C 433.18 -0.117162 1.94147 0
M  V30 4757 O 432.435 -1.08599 1.62803 0
M  V30 4758 C 432.734 2.17068 2.8393 0
M  V30 4759 C 432.4 3.65645 2.63846 0
M  V30 4760 C 431.062 4.0614 2.58077 0
M  V30 4761 C 433.414 4.59855 2.45322 0
M  V30 4762 C 430.742 5.3899 2.31748 0
M  V30 4763 C 433.094 5.9292 2.2052 0
M  V30 4764 C 431.758 6.32542 2.13183 0
M  V30 4765 H 431.028 0.47721 0.566879 0
M  V30 4766 H 433.675 1.68325 0.913172 0
M  V30 4767 H 431.98 1.72085 3.51986 0
M  V30 4768 H 433.677 2.09846 3.4171 0
M  V30 4769 H 430.267 3.33518 2.69191 0
M  V30 4770 H 434.451 4.29443 2.48782 0
M  V30 4771 H 429.707 5.68672 2.24548 0
M  V30 4772 H 433.881 6.65487 2.05182 0
M  V30 4773 H 431.508 7.35412 1.92544 0
M  V30 4774 N 433.083 -1.0153 1.20538 0
M  V30 4775 C 434.311 -1.78746 1.04199 0
M  V30 4776 C 434.726 -1.84323 -0.408733 0
M  V30 4777 O 434.083 -1.29714 -1.28377 0
M  V30 4778 C 434.134 -3.23152 1.62035 0
M  V30 4779 O 433.855 -3.17918 3.0143 0
M  V30 4780 C 435.356 -4.16911 1.50666 0
M  V30 4781 H 432.576 -0.56208 0.366479 0
M  V30 4782 H 435.12 -1.27794 1.59653 0
M  V30 4783 H 433.275 -3.71248 1.10697 0
M  V30 4784 H 433.689 -4.08567 3.28897 0
M  V30 4785 H 435.163 -5.16072 1.95892 0
M  V30 4786 H 435.64 -4.36791 0.459363 0
M  V30 4787 H 436.246 -3.74698 2.01201 0
M  V30 4788 N 434.561 -1.01147 -1.20859 0
M  V30 4789 C 435.786 -0.716698 -1.94623 0
M  V30 4790 C 436.211 0.715415 -1.73964 0
M  V30 4791 O 435.569 1.49157 -1.03062 0
M  V30 4792 C 435.617 -1.0513 -3.44935 0
M  V30 4793 O 434.721 -0.160131 -4.12089 0
M  V30 4794 H 434.062 -0.266404 -0.608214 0
M  V30 4795 H 436.592 -1.35346 -1.53436 0
M  V30 4796 H 436.602 -1.00086 -3.95533 0
M  V30 4797 H 435.277 -2.09475 -3.59295 0
M  V30 4798 H 433.854 -0.267657 -3.71938 0
M  V30 4799 N 436.039 1.36541 -0.78704 0
M  V30 4800 C 437.316 1.9355 -0.282424 0
M  V30 4801 C 437.696 1.71919 1.22503 0
M  V30 4802 O 437.044 1.07677 2.01539 0
M  V30 4803 C 437.254 3.4246 -0.672462 0
M  V30 4804 C 438.602 4.19582 -0.650863 0
M  V30 4805 O 439.626 3.50889 -0.612789 0
M  V30 4806 O 438.485 5.42106 -0.691623 0
M  V30 4807 H 435.579 0.824091 -0.0693 0
M  V30 4808 H 438.125 1.45736 -0.869423 0
M  V30 4809 H 436.897 3.51851 -1.71221 0
M  V30 4810 H 436.52 3.97556 -0.0592211 0
M  V30 4811 N 437.518 0.538854 1.48102 0
M  V30 4812 C 438.746 0.0123136 2.06896 0
M  V30 4813 C 439.161 -1.27312 1.39417 0
M  V30 4814 O 438.518 -1.75949 0.484582 0
M  V30 4815 C 438.569 -0.206118 3.60912 0
M  V30 4816 O 438.29 1.0284 4.25859 0
M  V30 4817 C 439.791 -0.772033 4.36526 0
M  V30 4818 H 437.011 0.0375239 0.66995 0
M  V30 4819 H 439.555 0.747032 1.90367 0
M  V30 4820 H 437.71 -0.89091 3.77017 0
M  V30 4821 H 438.124 0.814654 5.18135 0
M  V30 4822 H 439.598 -0.874251 5.45033 0
M  V30 4823 H 440.075 -1.77904 4.01555 0
M  V30 4824 H 440.681 -0.123526 4.25121 0
M  V30 4825 N 438.996 -1.55193 0.274407 0
M  V30 4826 C 440.245 -1.98758 -0.343213 0
M  V30 4827 C 440.558 -1.16624 -1.5703 0
M  V30 4828 O 441.764 -1.5033 -2.26082 0
M  V30 4829 C 440.22 -3.53759 -0.661996 0
M  V30 4830 C 439.828 -4.4467 0.54524 0
M  V30 4831 C 441.572 -4.05916 -1.24228 0
M  V30 4832 C 439.479 -5.91058 0.201084 0
M  V30 4833 H 438.409 -0.742353 -0.132014 0
M  V30 4834 H 441.06 -1.79545 0.378948 0
M  V30 4835 H 439.442 -3.68772 -1.44304 0
M  V30 4836 H 440.616 -4.41426 1.32212 0
M  V30 4837 H 438.931 -4.03143 1.04232 0
M  V30 4838 H 441.528 -5.12831 -1.51357 0
M  V30 4839 H 441.871 -3.54908 -2.17592 0
M  V30 4840 H 442.404 -3.9434 -0.523542 0
M  V30 4841 H 439.143 -6.46161 1.10258 0
M  V30 4842 H 438.663 -5.97373 -0.539045 0
M  V30 4843 H 440.342 -6.46669 -0.206954 0
M  V30 4844 N 440.474 -0.00167713 -1.576 0
M  V30 4845 C 441.406 1.0174 -2.05382 0
M  V30 4846 C 442.419 1.30595 -0.972052 0
M  V30 4847 O 443.608 1.27542 -1.24882 0
M  V30 4848 C 440.708 2.35174 -2.44022 0
M  V30 4849 C 439.881 2.25234 -3.74951 0
M  V30 4850 C 438.94 3.4137 -4.00441 0
M  V30 4851 O 437.966 3.19483 -4.71083 0
M  V30 4852 N 439.168 4.64275 -3.48467 0
M  V30 4853 H 441.933 0.609902 -2.93428 0
M  V30 4854 H 439.494 0.185672 -1.60832 0
M  V30 4855 H 441.486 3.11643 -2.58187 0
M  V30 4856 H 440.056 2.67659 -1.61485 0
M  V30 4857 H 439.276 1.33664 -3.70847 0
M  V30 4858 H 440.564 2.15767 -4.60784 0
M  V30 4859 H 439.962 4.84955 -2.91264 0
M  V30 4860 H 438.519 5.38005 -3.67959 0
M  V30 4861 N 441.952 1.55251 0.271103 0
M  V30 4862 C 442.9 1.89054 1.35504 0
M  V30 4863 C 443.894 0.767064 1.51038 0
M  V30 4864 O 445.1 0.951429 1.528 0
M  V30 4865 H 441.475 0.600072 0.45323 0
M  V30 4866 H 443.446 2.79598 1.04247 0
M  V30 4867 C 442.195 2.18068 2.70817 0
M  V30 4868 H 441.518 3.04005 2.59656 0
M  V30 4869 H 442.958 2.4564 3.45597 0
M  V30 4870 C 441.417 0.988901 3.2206 0
M  V30 4871 O 441.947 0.224501 4.01072 0
M  V30 4872 N 440.153 0.786085 2.79766 0
M  V30 4873 H 439.7 1.40937 2.15626 0
M  V30 4874 H 439.658 -0.00969349 3.14399 0
M  V30 4875 N 443.43 -0.535701 1.48216 0
M  V30 4876 C 444.655 -1.32149 1.59848 0
M  V30 4877 C 445.08 -1.86338 0.256842 0
M  V30 4878 O 444.438 -1.64107 -0.770632 0
M  V30 4879 C 444.486 -2.45224 2.64381 0
M  V30 4880 O 443.59 -3.48093 2.21144 0
M  V30 4881 H 442.931 -0.391634 0.536208 0
M  V30 4882 H 445.461 -0.645202 1.94161 0
M  V30 4883 H 445.471 -2.91491 2.85476 0
M  V30 4884 H 444.146 -2.05143 3.61786 0
M  V30 4885 H 442.723 -3.07984 2.10239 0
M  V30 4886 N 444.908 -1.36708 -0.784132 0
M  V30 4887 C 446.157 -1.30559 -1.53744 0
M  V30 4888 C 446.47 0.111374 -1.95283 0
M  V30 4889 O 447.676 0.29527 -2.6989 0
M  V30 4890 C 446.132 -2.29098 -2.77565 0
M  V30 4891 C 445.74 -3.76258 -2.43174 0
M  V30 4892 C 447.484 -2.31936 -3.55536 0
M  V30 4893 C 445.391 -4.6656 -3.63422 0
M  V30 4894 H 444.321 -0.48518 -0.577162 0
M  V30 4895 H 446.972 -1.62101 -0.859981 0
M  V30 4896 H 445.354 -1.90557 -3.47137 0
M  V30 4897 H 446.528 -4.23565 -1.81465 0
M  V30 4898 H 444.843 -3.76246 -1.78403 0
M  V30 4899 H 447.44 -2.9661 -4.44889 0
M  V30 4900 H 447.783 -1.3294 -3.94503 0
M  V30 4901 H 448.316 -2.6912 -2.92949 0
M  V30 4902 H 445.055 -5.66638 -3.29547 0
M  V30 4903 H 444.575 -4.23966 -4.24279 0
M  V30 4904 H 446.254 -4.8309 -4.30387 0
M  V30 4905 N 446.386 1.0089 -1.21074 0
M  V30 4906 C 447.333 2.09588 -0.966512 0
M  V30 4907 C 448.303 1.65761 0.106089 0
M  V30 4908 O 449.488 1.90758 -0.0402287 0
M  V30 4909 C 446.628 3.40958 -0.533058 0
M  V30 4910 C 445.741 3.9822 -1.67467 0
M  V30 4911 C 444.876 5.17682 -1.19076 0
M  V30 4912 C 443.915 5.67043 -2.30496 0
M  V30 4913 N 443.052 6.77759 -1.83267 0
M  V30 4914 H 447.892 2.29815 -1.89708 0
M  V30 4915 H 445.429 1.12689 -0.945489 0
M  V30 4916 H 447.387 4.1637 -0.263019 0
M  V30 4917 H 446.017 3.20781 0.360505 0
M  V30 4918 H 445.069 3.1983 -2.05944 0
M  V30 4919 H 446.381 4.3085 -2.51336 0
M  V30 4920 H 445.535 6.00326 -0.877151 0
M  V30 4921 H 444.274 4.86635 -0.322066 0
M  V30 4922 H 443.279 4.82999 -2.62664 0
M  V30 4923 H 444.504 6.00121 -3.17855 0
M  V30 4924 H 442.45 6.48527 -0.987356 0
M  V30 4925 H 442.367 7.09624 -2.60711 0
M  V30 4926 H 443.635 7.63949 -1.54928 0
M  V30 4927 N 447.864 1.01787 1.20321 0
M  V30 4928 C 448.797 0.533882 2.21867 0
M  V30 4929 C 449.775 -0.419361 1.57099 0
M  V30 4930 O 450.959 -0.339062 1.85426 0
M  V30 4931 C 448.086 -0.222899 3.37966 0
M  V30 4932 C 447.132 0.680091 4.21043 0
M  V30 4933 S 447.965 2.14997 4.90445 0
M  V30 4934 C 449.121 1.40339 6.09964 0
M  V30 4935 H 449.354 1.39429 2.62577 0
M  V30 4936 H 446.887 0.826867 1.30393 0
M  V30 4937 H 448.845 -0.653425 4.05266 0
M  V30 4938 H 447.506 -1.0589 2.95713 0
M  V30 4939 H 446.699 0.0964704 5.03908 0
M  V30 4940 H 446.301 1.04845 3.59004 0
M  V30 4941 H 448.593 0.68407 6.74038 0
M  V30 4942 H 449.536 2.20823 6.72787 0
M  V30 4943 H 449.944 0.905716 5.57187 0
M  V30 4944 N 449.342 -1.36122 0.79427 0
M  V30 4945 C 450.289 -2.29982 0.194101 0
M  V30 4946 C 451.259 -1.52214 -0.664833 0
M  V30 4947 O 452.444 -1.80702 -0.612498 0
M  V30 4948 C 449.584 -3.38706 -0.661244 0
M  V30 4949 C 448.697 -4.31456 0.216766 0
M  V30 4950 C 447.832 -5.27265 -0.645411 0
M  V30 4951 C 446.871 -6.11653 0.233756 0
M  V30 4952 N 446.008 -6.99636 -0.587682 0
M  V30 4953 H 450.848 -2.80722 0.999965 0
M  V30 4954 H 448.385 -1.38172 0.504677 0
M  V30 4955 H 450.343 -4.00394 -1.17219 0
M  V30 4956 H 448.973 -2.89274 -1.43249 0
M  V30 4957 H 448.025 -3.7088 0.845724 0
M  V30 4958 H 449.337 -4.90724 0.893973 0
M  V30 4959 H 448.491 -5.94266 -1.22198 0
M  V30 4960 H 447.23 -4.68463 -1.35623 0
M  V30 4961 H 446.235 -5.4361 0.82269 0
M  V30 4962 H 447.46 -6.72531 0.942247 0
M  V30 4963 H 445.406 -6.43337 -1.2827 0
M  V30 4964 H 445.323 -7.55993 0.0317402 0
M  V30 4965 H 446.591 -7.71001 -1.14792 0
M  V30 4966 N 450.82 -0.546701 -1.47814 0
M  V30 4967 C 451.768 0.220048 -2.31557 0
M  V30 4968 C 452.762 0.919472 -1.42275 0
M  V30 4969 O 453.968 0.841953 -1.59095 0
M  V30 4970 H 450.343 0.0898334 -0.746615 0
M  V30 4971 H 452.314 -0.505589 -2.94086 0
M  V30 4972 C 451.063 1.24353 -3.24702 0
M  V30 4973 H 450.386 0.714758 -3.93359 0
M  V30 4974 H 451.826 1.75112 -3.8615 0
M  V30 4975 C 450.285 2.28593 -2.47481 0
M  V30 4976 O 450.815 3.35334 -2.21165 0
M  V30 4977 N 449.021 2.02244 -2.08676 0
M  V30 4978 H 448.568 1.15455 -2.30278 0
M  V30 4979 H 448.526 2.72207 -1.57323 0
M  V30 4980 N 452.299 1.55045 -0.282633 0
M  V30 4981 C 453.545 2.0078 0.325436 0
M  V30 4982 C 453.9 1.1676 1.52921 0
M  V30 4983 O 453.193 0.231475 1.90197 0
M  V30 4984 C 453.387 3.49422 0.750938 0
M  V30 4985 C 453.216 4.47827 -0.410056 0
M  V30 4986 C 451.986 4.97288 -0.896239 0
M  V30 4987 C 454.184 4.98903 -1.24902 0
M  V30 4988 N 452.166 5.79508 -2.02591 0
M  V30 4989 C 453.537 5.78644 -2.22646 0
M  V30 4990 C 455.592 4.81126 -1.2815 0
M  V30 4991 C 454.295 6.42502 -3.23393 0
M  V30 4992 C 456.321 5.45789 -2.27745 0
M  V30 4993 C 455.683 6.25348 -3.24222 0
M  V30 4994 H 451.782 0.77747 0.08405 0
M  V30 4995 H 454.366 1.90369 -0.408368 0
M  V30 4996 H 452.537 3.60159 1.45395 0
M  V30 4997 H 454.269 3.81978 1.33698 0
M  V30 4998 H 451.024 4.71219 -0.474277 0
M  V30 4999 H 451.448 6.25308 -2.59459 0
M  V30 5000 H 456.09 4.19215 -0.549397 0
M  V30 5001 H 453.808 7.03558 -3.97533 0
M  V30 5002 H 457.394 5.33972 -2.31009 0
M  V30 5003 H 456.274 6.74498 -4.00027 0
M  V30 5004 N 453.777 0.010035 1.57597 0
M  V30 5005 C 455.002 -0.687021 1.95691 0
M  V30 5006 C 455.427 -1.65952 0.885519 0
M  V30 5007 O 454.785 -1.80633 -0.15543 0
M  V30 5008 C 454.833 -1.3864 3.32884 0
M  V30 5009 O 453.937 -2.50115 3.27897 0
M  V30 5010 H 453.278 -0.181989 0.638573 0
M  V30 5011 H 455.808 0.0662122 2.04493 0
M  V30 5012 H 455.818 -1.74754 3.6868 0
M  V30 5013 H 454.493 -0.673411 4.10412 0
M  V30 5014 H 453.07 -2.16253 3.03791 0
M  V30 5015 N 455.255 -1.55392 -0.262866 0
M  V30 5016 C 456.501 -1.76737 -0.99458 0
M  V30 5017 C 456.834 -0.572453 -1.85571 0
M  V30 5018 O 456.109 0.429732 -1.89693 0
M  V30 5019 C 456.392 -3.07824 -1.8686 0
M  V30 5020 C 456.245 -4.3769 -1.03672 0
M  V30 5021 C 457.564 -3.35021 -2.85393 0
M  V30 5022 H 454.683 -0.643005 -0.360157 0
M  V30 5023 H 457.325 -1.88126 -0.266216 0
M  V30 5024 H 455.475 -2.98245 -2.48962 0
M  V30 5025 H 457.147 -4.59238 -0.43563 0
M  V30 5026 H 455.39 -4.32461 -0.340513 0
M  V30 5027 H 456.061 -5.25759 -1.6817 0
M  V30 5028 H 458.537 -3.44458 -2.33426 0
M  V30 5029 H 457.413 -4.27989 -3.43681 0
M  V30 5030 H 457.674 -2.55153 -3.61039 0
M  V30 5031 N 456.733 0.527833 -1.48498 0
M  V30 5032 C 458.149 0.856571 -1.34666 0
M  V30 5033 C 458.349 1.98271 -0.35931 0
M  V30 5034 O 457.405 2.51551 0.218703 0
M  V30 5035 C 458.718 1.22207 -2.74747 0
M  V30 5036 C 460.266 1.33183 -2.83251 0
M  V30 5037 C 460.741 1.73075 -4.24039 0
M  V30 5038 N 462.232 1.80174 -4.26722 0
M  V30 5039 C 462.967 2.1243 -5.32598 0
M  V30 5040 N 462.463 2.43096 -6.4875 0
M  V30 5041 N 464.256 2.13454 -5.19994 0
M  V30 5042 H 456.407 -0.215174 -2.11307 0
M  V30 5043 H 458.67 -0.0336281 -0.947403 0
M  V30 5044 H 458.376 0.468195 -3.4857 0
M  V30 5045 H 458.25 2.17173 -3.08409 0
M  V30 5046 H 460.637 2.07647 -2.09683 0
M  V30 5047 H 460.718 0.363333 -2.53206 0
M  V30 5048 H 460.362 0.991712 -4.98124 0
M  V30 5049 H 460.292 2.70979 -4.51529 0
M  V30 5050 H 462.783 1.58744 -3.42942 0
M  V30 5051 H 463.096 2.6682 -7.25277 0
M  V30 5052 H 461.441 2.40611 -6.52021 0
M  V30 5053 H 464.632 1.88956 -4.28268 0
M  V30 5054 H 464.805 2.38261 -6.02608 0
M  V30 5055 N 458.211 1.37122 0.776871 0
M  V30 5056 C 459.627 1.1781 1.07671 0
M  V30 5057 C 459.827 0.0107454 2.01497 0
M  V30 5058 O 458.883 -0.650756 2.4397 0
M  V30 5059 C 460.196 2.49451 1.67913 0
M  V30 5060 C 461.744 2.55927 1.80195 0
M  V30 5061 C 462.219 3.87686 2.43851 0
M  V30 5062 N 463.71 3.891 2.51307 0
M  V30 5063 C 464.445 4.87797 3.014 0
M  V30 5064 N 463.941 5.96888 3.51705 0
M  V30 5065 N 465.734 4.75205 3.00227 0
M  V30 5066 H 457.885 2.11843 0.153778 0
M  V30 5067 H 460.148 0.938927 0.130844 0
M  V30 5068 H 459.854 3.35207 1.06439 0
M  V30 5069 H 459.728 2.66169 2.67271 0
M  V30 5070 H 462.115 1.70582 2.40803 0
M  V30 5071 H 462.196 2.43097 0.796069 0
M  V30 5072 H 461.84 4.73444 1.83884 0
M  V30 5073 H 461.77 3.97817 3.45035 0
M  V30 5074 H 464.261 3.10293 2.157 0
M  V30 5075 H 464.574 6.68155 3.88316 0
M  V30 5076 H 462.919 6.0054 3.49824 0
M  V30 5077 H 466.11 3.89103 2.60224 0
M  V30 5078 H 466.283 5.52279 3.38957 0
M  V30 5079 N 459.689 -1.00246 1.21608 0
M  V30 5080 C 460.914 -1.78167 1.06167 0
M  V30 5081 C 461.339 -1.84138 -0.384035 0
M  V30 5082 O 460.697 -1.28683 -1.27712 0
M  V30 5083 C 460.745 -3.19786 1.66642 0
M  V30 5084 O 459.849 -4.02153 0.913613 0
M  V30 5085 H 459.19 -0.549 0.37349 0
M  V30 5086 H 461.72 -1.25994 1.61204 0
M  V30 5087 H 461.73 -3.70451 1.70969 0
M  V30 5088 H 460.405 -3.14754 2.7185 0
M  V30 5089 H 458.982 -3.60711 0.945635 0
M  V30 5090 N 461.167 -1.02423 -1.1978 0
M  V30 5091 C 462.444 -0.632802 -1.85081 0
M  V30 5092 C 462.824 0.888745 -1.9148 0
M  V30 5093 O 462.172 1.78357 -1.42832 0
M  V30 5094 C 462.382 -1.28947 -3.24305 0
M  V30 5095 C 463.73 -1.40976 -4.00513 0
M  V30 5096 O 464.754 -1.24628 -3.33686 0
M  V30 5097 O 463.613 -1.67467 -5.20209 0
M  V30 5098 H 460.707 -0.219348 -0.79738 0
M  V30 5099 H 463.253 -1.12209 -1.27307 0
M  V30 5100 H 462.025 -2.3288 -3.14456 0
M  V30 5101 H 461.648 -0.787748 -3.89718 0
M  V30 5102 N 462.645 1.35699 -0.801477 0
M  V30 5103 C 463.892 1.98913 -0.379459 0
M  V30 5104 C 464.22 1.63592 1.05204 0
M  V30 5105 O 463.475 0.888563 1.74365 0
M  V30 5106 C 463.774 3.53828 -0.504041 0
M  V30 5107 C 463.44 4.09002 -1.8981 0
M  V30 5108 C 462.102 4.23783 -2.27951 0
M  V30 5109 C 464.454 4.38939 -2.81038 0
M  V30 5110 C 461.782 4.65816 -3.56696 0
M  V30 5111 C 464.134 4.82409 -4.09224 0
M  V30 5112 C 462.798 4.95395 -4.4737 0
M  V30 5113 H 462.068 0.727874 -0.138854 0
M  V30 5114 H 464.715 1.61994 -1.02128 0
M  V30 5115 H 463.02 3.91175 0.221242 0
M  V30 5116 H 464.717 4.00687 -0.158361 0
M  V30 5117 H 461.307 3.97946 -1.59176 0
M  V30 5118 H 465.491 4.27077 -2.52821 0
M  V30 5119 H 460.747 4.74059 -3.86106 0
M  V30 5120 H 464.921 5.04535 -4.80018 0
M  V30 5121 H 462.548 5.27724 -5.47185 0
M  V30 5122 N 464.123 0.554532 1.47522 0
M  V30 5123 C 465.539 0.214107 1.58157 0
M  V30 5124 C 465.739 -1.28331 1.55349 0
M  V30 5125 O 464.795 -2.06329 1.45549 0
M  V30 5126 C 466.108 0.838391 2.88776 0
M  V30 5127 C 467.656 0.809374 3.02354 0
M  V30 5128 C 468.131 1.41268 4.35669 0
M  V30 5129 N 469.622 1.37574 4.42298 0
M  V30 5130 C 470.357 1.8122 5.4401 0
M  V30 5131 N 469.853 2.3271 6.52547 0
M  V30 5132 N 471.646 1.72307 5.35039 0
M  V30 5133 H 463.797 1.52744 1.4759 0
M  V30 5134 H 466.06 0.636812 0.702264 0
M  V30 5135 H 465.766 1.89065 2.96559 0
M  V30 5136 H 465.64 0.329847 3.75755 0
M  V30 5137 H 468.027 -0.234187 2.94169 0
M  V30 5138 H 468.108 1.35565 2.16924 0
M  V30 5139 H 467.752 2.45529 4.4461 0
M  V30 5140 H 467.682 0.841871 5.19827 0
M  V30 5141 H 470.173 0.999081 3.64454 0
M  V30 5142 H 470.486 2.63944 7.26329 0
M  V30 5143 H 468.831 2.36719 6.53444 0
M  V30 5144 H 472.022 1.3186 4.49144 0
M  V30 5145 H 472.195 2.06641 6.14169 0
M  V30 5146 N 465.601 -1.54893 0.290851 0
M  V30 5147 C 466.848 -1.99933 -0.321391 0
M  V30 5148 C 467.176 -1.17927 -1.54672 0
M  V30 5149 O 466.431 -0.240902 -1.94212 0
M  V30 5150 C 466.73 -3.49815 -0.732397 0
M  V30 5151 C 466.396 -4.4921 0.390056 0
M  V30 5152 C 465.058 -4.76107 0.698223 0
M  V30 5153 C 467.41 -5.08453 1.14562 0
M  V30 5154 C 464.738 -5.59514 1.76526 0
M  V30 5155 C 467.09 -5.9302 2.2025 0
M  V30 5156 C 465.754 -6.18232 2.51684 0
M  V30 5157 H 465.024 -0.731608 -0.117605 0
M  V30 5158 H 467.671 -1.87107 0.407839 0
M  V30 5159 H 465.976 -3.60199 -1.54155 0
M  V30 5160 H 467.673 -3.82083 -1.21712 0
M  V30 5161 H 464.263 -4.28372 0.13976 0
M  V30 5162 H 468.447 -4.87683 0.920801 0
M  V30 5163 H 463.703 -5.77289 2.01364 0
M  V30 5164 H 467.877 -6.37955 2.7926 0
M  V30 5165 H 465.504 -6.82653 3.34499 0
M  V30 5166 N 467.08 -0.0183926 -1.57589 0
M  V30 5167 C 468.305 0.676634 -1.96052 0
M  V30 5168 C 468.73 1.6548 -0.894307 0
M  V30 5169 O 468.088 1.80712 0.145849 0
M  V30 5170 C 468.136 1.36872 -3.33614 0
M  V30 5171 O 467.24 2.48372 -3.29219 0
M  V30 5172 H 466.581 0.1786 -0.63953 0
M  V30 5173 H 469.111 -0.077056 -2.04455 0
M  V30 5174 H 469.121 1.72797 -3.69601 0
M  V30 5175 H 467.796 0.651636 -4.10763 0
M  V30 5176 H 466.373 2.14639 -3.04934 0
M  V30 5177 N 468.558 1.5553 0.254621 0
M  V30 5178 C 469.468 1.92789 1.33677 0
M  V30 5179 C 470.484 0.827356 1.53071 0
M  V30 5180 O 471.66 1.12807 1.66843 0
M  V30 5181 C 468.725 2.20827 2.67275 0
M  V30 5182 C 467.786 3.4427 2.5647 0
M  V30 5183 C 467.019 3.70961 3.83697 0
M  V30 5184 O 467.242 2.99852 4.85227 0
M  V30 5185 O 466.176 4.64491 3.82794 0
M  V30 5186 H 470.002 2.84945 1.05071 0
M  V30 5187 H 467.587 1.42312 0.454723 0
M  V30 5188 H 469.469 2.40204 3.46237 0
M  V30 5189 H 468.144 1.31851 2.9563 0
M  V30 5190 H 467.051 3.30209 1.75821 0
M  V30 5191 H 468.384 4.33524 2.33062 0
M  V30 5192 N 470.036 -0.519951 1.48776 0
M  V30 5193 C 471.282 -1.27711 1.57536 0
M  V30 5194 C 471.615 -1.92547 0.252866 0
M  V30 5195 O 470.89 -1.7979 -0.742021 0
M  V30 5196 C 471.173 -2.35875 2.72094 0
M  V30 5197 C 471.026 -1.75664 4.1408 0
M  V30 5198 C 472.345 -3.37575 2.82367 0
M  V30 5199 H 469.464 -0.462971 0.573434 0
M  V30 5200 H 472.106 -0.578194 1.80989 0
M  V30 5201 H 470.256 -2.95488 2.52228 0
M  V30 5202 H 471.928 -1.20025 4.45412 0
M  V30 5203 H 470.171 -1.06154 4.20611 0
M  V30 5204 H 470.842 -2.54029 4.90075 0
M  V30 5205 H 473.318 -2.87929 3.00393 0
M  V30 5206 H 472.194 -4.1064 3.64233 0
M  V30 5207 H 472.455 -3.98743 1.90936 0
M  V30 5208 N 471.514 -1.37532 -0.769588 0
M  V30 5209 C 472.464 -1.29984 -1.87318 0
M  V30 5210 C 473.448 -0.187242 -1.59807 0
M  V30 5211 O 474.64 -0.421827 -1.719 0
M  V30 5212 C 471.769 -1.11126 -3.24817 0
M  V30 5213 C 470.855 -2.26939 -3.58273 0
M  V30 5214 N 471.246 -3.52336 -3.62895 0
M  V30 5215 C 469.544 -2.19141 -3.8845 0
M  V30 5216 C 470.245 -4.28719 -3.9316 0
M  V30 5217 N 469.221 -3.57884 -4.0917 0
M  V30 5218 H 473.023 -2.24946 -1.89147 0
M  V30 5219 H 470.537 -1.30535 -0.966143 0
M  V30 5220 H 472.534 -1.03803 -4.0377 0
M  V30 5221 H 471.194 -0.17083 -3.2425 0
M  V30 5222 H 472.205 -3.86216 -3.45048 0
M  V30 5223 H 468.882 -1.33167 -3.95693 0
M  V30 5224 H 470.272 -5.37254 -4.03494 0
M  V30 5225 N 472.992 0.995999 -1.22138 0
M  V30 5226 C 474.24 1.73167 -1.042 0
M  V30 5227 C 474.561 1.90329 0.42423 0
M  V30 5228 O 473.831 1.4607 1.30539 0
M  V30 5229 H 472.411 0.641593 -0.38258 0
M  V30 5230 H 475.073 1.19974 -1.53598 0
M  V30 5231 H 474.169 2.72734 -1.51731 0
M  V30 5232 N 474.47 1.03057 1.19235 0
M  V30 5233 C 475.433 0.617418 2.20727 0
M  V30 5234 C 476.433 -0.319856 1.57587 0
M  V30 5235 O 477.623 -0.106633 1.73873 0
M  V30 5236 C 474.755 -0.096296 3.40764 0
M  V30 5237 H 475.948 1.51544 2.58794 0
M  V30 5238 H 473.501 0.821949 1.32942 0
M  V30 5239 H 474.236 -1.00859 3.08217 0
M  V30 5240 H 474.021 0.577217 3.87828 0
M  V30 5241 H 475.511 -0.372219 4.15938 0
M  V30 5242 N 475.948 -1.35272 0.808662 0
M  V30 5243 C 476.858 -2.33546 0.222079 0
M  V30 5244 C 477.874 -1.6196 -0.636011 0
M  V30 5245 O 479.05 -1.93822 -0.547274 0
M  V30 5246 C 476.115 -3.41148 -0.61795 0
M  V30 5247 C 475.176 -4.28507 0.260875 0
M  V30 5248 C 474.409 -5.3097 -0.539156 0
M  V30 5249 O 474.632 -5.42123 -1.77367 0
M  V30 5250 O 473.566 -6.01858 0.0710526 0
M  V30 5251 H 477.392 -2.85515 1.03512 0
M  V30 5252 H 474.977 -1.38079 0.570495 0
M  V30 5253 H 476.859 -4.06889 -1.09634 0
M  V30 5254 H 475.534 -2.91447 -1.40855 0
M  V30 5255 H 474.441 -3.6574 0.786451 0
M  V30 5256 H 475.774 -4.81611 1.01547 0
M  V30 5257 N 477.426 -0.562348 -1.47226 0
M  V30 5258 C 478.374 0.195476 -2.31777 0
M  V30 5259 C 479.368 0.90433 -1.43242 0
M  V30 5260 O 480.574 0.825031 -1.59979 0
M  V30 5261 H 476.949 0.0819095 -0.747526 0
M  V30 5262 H 478.92 -0.536753 -2.93533 0
M  V30 5263 C 477.669 1.20902 -3.26003 0
M  V30 5264 H 476.992 0.672997 -3.94095 0
M  V30 5265 H 478.432 1.71006 -3.87986 0
M  V30 5266 C 476.891 2.25955 -2.49891 0
M  V30 5267 O 477.421 3.32969 -2.2471 0
M  V30 5268 N 475.627 2.00019 -2.1081 0
M  V30 5269 H 475.174 1.13006 -2.31489 0
M  V30 5270 H 475.132 2.70523 -1.60201 0
M  V30 5271 N 478.904 1.54736 -0.299062 0
M  V30 5272 C 480.151 2.00101 0.310784 0
M  V30 5273 C 480.479 1.18746 1.54045 0
M  V30 5274 O 479.734 0.251198 1.94081 0
M  V30 5275 C 480.033 3.50199 0.713835 0
M  V30 5276 C 479.699 4.48997 -0.413873 0
M  V30 5277 C 478.361 4.7573 -0.723462 0
M  V30 5278 C 480.713 5.07839 -1.17257 0
M  V30 5279 C 478.041 5.5857 -1.79491 0
M  V30 5280 C 480.393 5.91844 -2.23392 0
M  V30 5281 C 479.057 6.16889 -2.54959 0
M  V30 5282 H 478.327 0.732221 0.113724 0
M  V30 5283 H 480.974 1.86888 -0.417756 0
M  V30 5284 H 479.279 3.61012 1.52243 0
M  V30 5285 H 480.976 3.82723 1.19684 0
M  V30 5286 H 477.566 4.28292 -0.162476 0
M  V30 5287 H 481.75 4.87188 -0.946651 0
M  V30 5288 H 477.006 5.76213 -2.04423 0
M  V30 5289 H 481.18 6.36465 -2.8264 0
M  V30 5290 H 478.807 6.80869 -3.38114 0
M  V30 5291 N 480.382 0.0267497 1.57577 0
M  V30 5292 C 481.631 -0.651736 1.9088 0
M  V30 5293 C 481.944 -1.73427 0.904576 0
M  V30 5294 O 483.15 -2.46923 1.12877 0
M  V30 5295 C 481.606 -1.21048 3.38933 0
M  V30 5296 C 481.214 -0.161362 4.47709 0
M  V30 5297 C 482.958 -1.86562 3.81307 0
M  V30 5298 C 480.865 -0.731611 5.86857 0
M  V30 5299 H 479.795 -0.247198 0.712326 0
M  V30 5300 H 482.446 0.0916641 1.83271 0
M  V30 5301 H 480.828 -2.00542 3.41466 0
M  V30 5302 H 482.002 0.61094 4.56732 0
M  V30 5303 H 480.317 0.394877 4.14523 0
M  V30 5304 H 482.914 -2.30178 4.8262 0
M  V30 5305 H 483.257 -2.70735 3.16241 0
M  V30 5306 H 483.79 -1.13762 3.81186 0
M  V30 5307 H 480.529 0.0719329 6.55461 0
M  V30 5308 H 480.049 -1.47245 5.81445 0
M  V30 5309 H 481.728 -1.22208 6.35354 0
M  V30 5310 N 481.861 -1.55662 -0.24637 0
M  V30 5311 C 482.793 -1.86811 -1.32794 0
M  V30 5312 C 483.806 -0.754413 -1.44265 0
M  V30 5313 O 484.995 -1.03253 -1.45606 0
M  V30 5314 C 482.095 -2.0397 -2.70646 0
M  V30 5315 C 481.268 -3.34832 -2.81436 0
M  V30 5316 C 480.327 -3.41727 -4.00136 0
M  V30 5317 O 479.353 -4.14934 -3.89639 0
M  V30 5318 N 480.555 -2.71058 -5.1333 0
M  V30 5319 H 483.32 -2.80174 -1.06409 0
M  V30 5320 H 480.881 -1.55906 -0.43647 0
M  V30 5321 H 482.873 -2.05924 -3.48393 0
M  V30 5322 H 481.443 -1.1735 -2.89738 0
M  V30 5323 H 480.663 -3.4519 -1.90361 0
M  V30 5324 H 481.951 -4.21085 -2.85595 0
M  V30 5325 H 481.349 -2.11314 -5.2475 0
M  V30 5326 H 479.906 -2.78704 -5.89209 0
M  V30 5327 N 483.339 0.512053 -1.4905 0
M  V30 5328 C 484.289 1.61142 -1.61298 0
M  V30 5329 C 485.273 1.53908 -0.46916 0
M  V30 5330 O 486.465 1.61625 -0.721547 0
M  V30 5331 C 483.594 2.998 -1.67256 0
M  V30 5332 C 482.68 3.12072 -2.87179 0
M  V30 5333 N 483.071 2.94263 -4.11391 0
M  V30 5334 C 481.369 3.43156 -2.84886 0
M  V30 5335 C 482.07 3.10426 -4.91946 0
M  V30 5336 N 481.046 3.38808 -4.251 0
M  V30 5337 H 484.848 1.46011 -2.55065 0
M  V30 5338 H 482.362 0.717934 -1.45669 0
M  V30 5339 H 484.359 3.78794 -1.74128 0
M  V30 5340 H 483.019 3.1601 -0.746195 0
M  V30 5341 H 484.03 2.70661 -4.41546 0
M  V30 5342 H 480.707 3.65611 -2.01581 0
M  V30 5343 H 482.097 3.01243 -6.00585 0
M  V30 5344 N 484.817 1.37938 0.762283 0
M  V30 5345 C 485.765 1.34569 1.89721 0
M  V30 5346 C 486.759 0.232929 1.67791 0
M  V30 5347 O 487.965 0.401485 1.75465 0
M  V30 5348 H 484.34 0.419594 0.624055 0
M  V30 5349 H 486.311 2.30357 1.8968 0
M  V30 5350 C 485.06 1.17898 3.27101 0
M  V30 5351 H 484.383 2.02781 3.44558 0
M  V30 5352 H 485.823 1.19593 4.06784 0
M  V30 5353 C 484.282 -0.114728 3.36705 0
M  V30 5354 O 484.812 -1.0949 3.8649 0
M  V30 5355 N 483.018 -0.16863 2.9011 0
M  V30 5356 H 482.565 0.62967 2.49786 0
M  V30 5357 H 482.523 -1.03383 2.96916 0
M  V30 5358 N 486.295 -0.989507 1.22664 0
M  V30 5359 C 487.225 -2.09847 1.02404 0
M  V30 5360 C 488.206 -1.70007 -0.0561303 0
M  V30 5361 O 489.391 -1.93906 0.106748 0
M  V30 5362 C 486.521 -3.41996 0.604663 0
M  V30 5363 C 485.475 -3.95699 1.63115 0
M  V30 5364 C 484.801 -5.23936 1.0675 0
M  V30 5365 C 486.101 -4.25999 3.02196 0
M  V30 5366 H 487.795 -2.27054 1.95158 0
M  V30 5367 H 485.341 -1.09111 0.939727 0
M  V30 5368 H 487.294 -4.1899 0.45002 0
M  V30 5369 H 486.018 -3.24626 -0.35855 0
M  V30 5370 H 484.677 -3.2084 1.77362 0
M  V30 5371 H 484.325 -5.02909 0.0955422 0
M  V30 5372 H 484.025 -5.60833 1.75328 0
M  V30 5373 H 485.549 -6.0356 0.924516 0
M  V30 5374 H 486.963 -4.93777 2.91303 0
M  V30 5375 H 485.36 -4.74076 3.67929 0
M  V30 5376 H 486.43 -3.33636 3.51873 0
M  V30 5377 N 487.773 -1.03688 -1.18687 0
M  V30 5378 C 488.705 -0.582696 -2.21669 0
M  V30 5379 C 489.718 0.345656 -1.59088 0
M  V30 5380 O 490.907 0.140776 -1.77944 0
M  V30 5381 C 488.007 0.169204 -3.38477 0
M  V30 5382 C 487.18 -0.766079 -4.30639 0
M  V30 5383 C 486.239 -0.0581541 -5.26168 0
M  V30 5384 O 485.265 -0.687346 -5.65035 0
M  V30 5385 N 486.467 1.20981 -5.67753 0
M  V30 5386 H 489.232 -1.46843 -2.61261 0
M  V30 5387 H 486.793 -0.916896 -1.33434 0
M  V30 5388 H 488.785 0.652543 -3.99405 0
M  V30 5389 H 487.355 0.956435 -2.97609 0
M  V30 5390 H 486.575 -1.42935 -3.67373 0
M  V30 5391 H 487.863 -1.40146 -4.89118 0
M  V30 5392 H 487.261 1.74159 -5.38224 0
M  V30 5393 H 485.818 1.6375 -6.30896 0
M  V30 5394 N 489.251 1.34841 -0.815825 0
M  V30 5395 C 490.479 2.0273 -0.413294 0
M  V30 5396 C 490.894 1.61459 0.978599 0
M  V30 5397 O 490.251 0.816584 1.63212 0
M  V30 5398 C 490.302 3.58058 -0.497676 0
M  V30 5399 O 490.023 3.97832 -1.8347 0
M  V30 5400 C 491.524 4.4321 -0.0891339 0
M  V30 5401 H 488.744 0.649956 -0.166728 0
M  V30 5402 H 491.288 1.72267 -1.10201 0
M  V30 5403 H 489.443 3.87136 0.142886 0
M  V30 5404 H 489.857 4.92501 -1.80396 0
M  V30 5405 H 491.331 5.5164 -0.199274 0
M  V30 5406 H 491.808 4.28432 0.966571 0
M  V30 5407 H 492.414 4.19446 -0.703214 0
M  V30 5408 N 490.729 0.570148 1.46925 0
M  V30 5409 C 491.659 -0.158274 2.32963 0
M  V30 5410 C 492.64 -0.896093 1.44583 0
M  V30 5411 O 493.825 -0.874022 1.7342 0
M  V30 5412 C 490.955 -1.18055 3.26619 0
M  V30 5413 C 489.909 -0.558379 4.24342 0
M  V30 5414 C 489.235 -1.68623 5.07415 0
M  V30 5415 C 490.535 0.496295 5.19937 0
M  V30 5416 H 492.229 0.560046 2.94115 0
M  V30 5417 H 489.775 0.270775 1.41431 0
M  V30 5418 H 491.728 -1.69841 3.85658 0
M  V30 5419 H 490.452 -1.92899 2.63548 0
M  V30 5420 H 489.111 -0.0617157 3.66548 0
M  V30 5421 H 488.759 -2.42402 4.40738 0
M  V30 5422 H 488.459 -1.27564 5.73586 0
M  V30 5423 H 489.983 -2.20709 5.69315 0
M  V30 5424 H 491.397 0.0640052 5.73264 0
M  V30 5425 H 489.794 0.82649 5.94381 0
M  V30 5426 H 490.864 1.38735 4.6463 0
M  V30 5427 N 492.207 -1.54576 0.307264 0
M  V30 5428 C 493.154 -2.23751 -0.56604 0
M  V30 5429 C 494.124 -1.22235 -1.12462 0
M  V30 5430 O 495.309 -1.50873 -1.16799 0
M  V30 5431 C 492.449 -2.98661 -1.72903 0
M  V30 5432 C 491.562 -4.14963 -1.20124 0
M  V30 5433 C 490.697 -4.77441 -2.3286 0
M  V30 5434 C 489.736 -5.85875 -1.77247 0
M  V30 5435 N 488.873 -6.42282 -2.8358 0
M  V30 5436 H 493.713 -2.97984 0.0304578 0
M  V30 5437 H 491.25 -1.47076 0.0268015 0
M  V30 5438 H 493.208 -3.40329 -2.41313 0
M  V30 5439 H 491.838 -2.26793 -2.29706 0
M  V30 5440 H 490.89 -3.78193 -0.409198 0
M  V30 5441 H 492.202 -4.93066 -0.754171 0
M  V30 5442 H 491.356 -5.21993 -3.09205 0
M  V30 5443 H 490.095 -3.98684 -2.80896 0
M  V30 5444 H 489.1 -5.40741 -0.993926 0
M  V30 5445 H 490.325 -6.6652 -1.30107 0
M  V30 5446 H 488.271 -5.66406 -3.30939 0
M  V30 5447 H 488.188 -7.1575 -2.43388 0
M  V30 5448 H 489.456 -6.91492 -3.59804 0
M  V30 5449 N 493.685 -0.035106 -1.57561 0
M  V30 5450 C 494.91 0.655802 -1.96759 0
M  V30 5451 C 495.335 1.64523 -0.911809 0
M  V30 5452 O 494.693 1.80857 0.126673 0
M  V30 5453 C 494.741 1.33326 -3.35047 0
M  V30 5454 O 493.845 2.44866 -3.31835 0
M  V30 5455 H 493.186 0.171807 -0.641388 0
M  V30 5456 H 495.716 -0.0987369 -2.04362 0
M  V30 5457 H 495.726 1.68867 -3.71413 0
M  V30 5458 H 494.401 0.608033 -4.11431 0
M  V30 5459 H 492.978 2.11392 -3.07193 0
M  V30 5460 N 495.163 1.55791 0.238111 0
M  V30 5461 C 496.11 1.9105 1.29493 0
M  V30 5462 C 497.08 0.765733 1.47397 0
M  V30 5463 O 498.265 1.02017 1.61236 0
M  V30 5464 C 495.405 2.21826 2.64362 0
M  V30 5465 C 494.518 3.49153 2.54394 0
M  V30 5466 C 493.653 3.69455 3.81676 0
M  V30 5467 C 492.692 4.90353 3.66361 0
M  V30 5468 N 491.829 5.07131 4.85554 0
M  V30 5469 H 496.669 2.81172 0.987233 0
M  V30 5470 H 494.206 1.39179 0.476203 0
M  V30 5471 H 496.164 2.37675 3.4288 0
M  V30 5472 H 494.794 1.34897 2.93262 0
M  V30 5473 H 493.846 3.41587 1.67399 0
M  V30 5474 H 495.158 4.37818 2.38991 0
M  V30 5475 H 494.312 3.85311 4.68636 0
M  V30 5476 H 493.051 2.7904 3.99985 0
M  V30 5477 H 492.056 4.74464 2.77784 0
M  V30 5478 H 493.281 5.82237 3.49538 0
M  V30 5479 H 491.227 4.19654 5.04209 0
M  V30 5480 H 491.144 5.89899 4.72816 0
M  V30 5481 H 492.412 5.27407 5.73988 0
M  V30 5482 N 496.642 -0.504142 1.49319 0
M  V30 5483 C 497.891 -1.25507 1.57895 0
M  V30 5484 C 498.204 -1.93735 0.269433 0
M  V30 5485 O 499.41 -2.70492 0.233706 0
M  V30 5486 C 497.866 -2.27869 2.78574 0
M  V30 5487 C 497.474 -1.65594 4.16272 0
M  V30 5488 C 499.218 -3.0381 2.96479 0
M  V30 5489 C 497.125 -2.66048 5.28178 0
M  V30 5490 H 496.055 -0.47212 0.587894 0
M  V30 5491 H 498.706 -0.52931 1.757 0
M  V30 5492 H 497.088 -3.03594 2.54257 0
M  V30 5493 H 498.262 -0.958826 4.50714 0
M  V30 5494 H 496.577 -1.02055 4.037 0
M  V30 5495 H 499.174 -3.78925 3.77253 0
M  V30 5496 H 499.517 -3.61235 2.06918 0
M  V30 5497 H 500.05 -2.352 3.20821 0
M  V30 5498 H 496.789 -2.13408 6.19788 0
M  V30 5499 H 496.309 -3.34009 4.98195 0
M  V30 5500 H 497.988 -3.28536 5.57381 0
M  V30 5501 N 498.12 -1.38341 -0.754957 0
M  V30 5502 C 499.367 -1.34473 -1.51404 0
M  V30 5503 C 499.695 0.0656458 -1.94389 0
M  V30 5504 O 498.95 1.04244 -1.65625 0
M  V30 5505 C 499.249 -2.2452 -2.78075 0
M  V30 5506 C 498.915 -3.72512 -2.54059 0
M  V30 5507 C 497.577 -4.1284 -2.47218 0
M  V30 5508 C 499.929 -4.66197 -2.33044 0
M  V30 5509 C 497.257 -5.44945 -2.17376 0
M  V30 5510 C 499.609 -5.98558 -2.04723 0
M  V30 5511 C 498.273 -6.37972 -1.96337 0
M  V30 5512 H 497.543 -0.492072 -0.554027 0
M  V30 5513 H 500.19 -1.70687 -0.868223 0
M  V30 5514 H 498.495 -1.81357 -3.473 0
M  V30 5515 H 500.192 -2.18832 -3.36026 0
M  V30 5516 H 496.782 -3.40538 -2.60253 0
M  V30 5517 H 500.966 -4.35888 -2.37309 0
M  V30 5518 H 496.222 -5.74426 -2.09391 0
M  V30 5519 H 500.396 -6.70693 -1.87465 0
M  V30 5520 H 498.023 -7.40258 -1.72978 0
M  V30 5521 N 499.598 0.982988 -1.23187 0
M  V30 5522 C 500.875 1.69814 -0.970707 0
M  V30 5523 C 501.255 2.04811 0.511424 0
M  V30 5524 O 500.603 1.73924 1.48198 0
M  V30 5525 C 500.813 2.94143 -1.87831 0
M  V30 5526 C 502.161 3.66712 -2.14026 0
M  V30 5527 O 503.185 3.04171 -1.8536 0
M  V30 5528 O 502.044 4.79258 -2.62629 0
M  V30 5529 H 499.138 0.741659 -0.365884 0
M  V30 5530 H 501.684 1.03844 -1.34218 0
M  V30 5531 H 500.456 2.64858 -2.88038 0
M  V30 5532 H 500.079 3.6785 -1.50905 0
M  V30 5533 N 501.076 1.04316 1.18135 0
M  V30 5534 C 502.024 0.630175 2.23901 0
M  V30 5535 C 503.018 -0.344254 1.65865 0
M  V30 5536 O 504.224 -0.211273 1.78756 0
M  V30 5537 H 500.599 0.185578 0.728742 0
M  V30 5538 H 502.57 1.53253 2.56039 0
M  V30 5539 C 501.319 0.011666 3.47698 0
M  V30 5540 H 500.642 0.752526 3.92654 0
M  V30 5541 H 502.082 -0.240046 4.2332 0
M  V30 5542 C 500.541 -1.23913 3.13285 0
M  V30 5543 O 501.071 -2.32959 3.27251 0
M  V30 5544 N 499.277 -1.13338 2.67587 0
M  V30 5545 H 498.824 -0.246006 2.56423 0
M  V30 5546 H 498.782 -1.97116 2.44934 0
M  V30 5547 N 502.554 -1.34406 0.822964 0
M  V30 5548 C 503.464 -2.33298 0.246838 0
M  V30 5549 C 504.48 -1.62625 -0.618797 0
M  V30 5550 O 505.656 -1.94391 -0.526685 0
M  V30 5551 C 502.721 -3.41785 -0.581731 0
M  V30 5552 C 501.782 -4.28206 0.306309 0
M  V30 5553 C 501.015 -5.31512 -0.48281 0
M  V30 5554 O 501.238 -5.43973 -1.71607 0
M  V30 5555 O 500.172 -6.01749 0.134884 0
M  V30 5556 H 503.998 -2.84401 1.06534 0
M  V30 5557 H 501.583 -1.37466 0.585108 0
M  V30 5558 H 503.465 -4.08028 -1.05313 0
M  V30 5559 H 502.14 -2.92925 -1.37756 0
M  V30 5560 H 501.047 -3.64885 0.825199 0
M  V30 5561 H 502.38 -4.80507 1.06649 0
M  V30 5562 N 504.032 -0.577932 -1.46621 0
M  V30 5563 C 505.257 -0.0652536 -2.07297 0
M  V30 5564 C 505.682 1.22828 -1.4246 0
M  V30 5565 O 505.04 1.74075 -0.506718 0
M  V30 5566 C 505.088 0.0920589 -3.60482 0
M  V30 5567 O 504.192 1.14972 -3.96049 0
M  V30 5568 H 503.533 -0.06065 -0.661224 0
M  V30 5569 H 506.063 -0.799515 -1.88332 0
M  V30 5570 H 506.073 0.299741 -4.06897 0
M  V30 5571 H 504.748 -0.852612 -4.07067 0
M  V30 5572 H 503.325 0.920879 -3.61351 0
M  V30 5573 N 505.51 1.54411 -0.315457 0
M  V30 5574 C 506.473 2.22713 0.54142 0
M  V30 5575 C 507.473 1.2179 1.04995 0
M  V30 5576 O 508.663 1.46426 0.943667 0
M  V30 5577 C 505.795 2.92485 1.75116 0
M  V30 5578 H 506.988 2.99849 -0.0555508 0
M  V30 5579 H 504.541 1.56159 -0.0664453 0
M  V30 5580 H 505.276 2.19466 2.38758 0
M  V30 5581 H 505.061 3.66483 1.39401 0
M  V30 5582 H 506.551 3.44548 2.35959 0
M  V30 5583 N 506.988 0.0434614 1.5754 0
M  V30 5584 C 507.951 -0.918696 2.09982 0
M  V30 5585 C 508.951 -1.24488 1.01781 0
M  V30 5586 O 510.141 -1.18284 1.27885 0
M  V30 5587 C 507.273 -2.23093 2.57764 0
M  V30 5588 H 508.466 -0.464229 2.96285 0
M  V30 5589 H 506.019 -0.204818 1.54952 0
M  V30 5590 H 506.754 -2.73137 1.74832 0
M  V30 5591 H 506.539 -2.00724 3.36827 0
M  V30 5592 H 508.029 -2.92028 2.98512 0
M  V30 5593 O 508.505 -1.61203 -0.0978465 0
M  V30 5594 H 509.196 -1.79548 -0.726781 0
M  V30 END ATOM
M  V30 BEGIN BOND
M  V30 END BOND
M  V30 END CTAB
M  END
$$$$
