drugbank_target|P43886 Serine acetyltransferase (DB01992)
 OpenBabel12092120243D

  0  0  0     0  0            999 V3000
M  V30 BEGIN CTAB
M  V30 COUNTS 4112 4155 0 0 0
M  V30 BEGIN ATOM
M  V30 1 H -0.908 1.98254 -0.117106 0
M  V30 2 N 0 1.576 0 0
M  V30 3 C 0.933 2.03868 1.02534 0
M  V30 4 C 1.911 0.928543 1.3348 0
M  V30 5 O 3.095 1.19667 1.45644 0
M  V30 6 C 0.222 2.43627 2.35294 0
M  V30 7 C -0.732 3.65373 2.2001 0
M  V30 8 S 0.101 5.13292 1.52614 0
M  V30 9 C 1.257 5.56322 2.86805 0
M  V30 10 H 1.49 2.90518 0.631377 0
M  V30 11 H -0.977 1.52953 0.210867 0
M  V30 12 H 0.981 2.67203 3.11629 0
M  V30 13 H -0.358 1.57376 2.7183 0
M  V30 14 H -1.165 3.90944 3.18086 0
M  V30 15 H -1.563 3.418 1.51819 0
M  V30 16 H 0.729 5.58782 3.83104 0
M  V30 17 H 1.672 6.56266 2.65933 0
M  V30 18 H 2.08 4.83886 2.90714 0
M  V30 19 N 1.4781 -0.272755 1.55222 0
M  V30 20 C 2.7061 -1.02255 1.79865 0
M  V30 21 C 3.1211 -1.79924 0.572088 0
M  V30 22 O 2.4781 -1.76638 -0.458842 0
M  V30 23 C 2.5291 -1.98094 3.02392 0
M  V30 24 O 2.2501 -1.23572 4.20311 0
M  V30 25 C 3.7511 -2.84884 3.39641 0
M  V30 26 H 0.9711 -0.302057 0.599168 0
M  V30 27 H 3.5151 -0.303465 2.02236 0
M  V30 28 H 1.6701 -2.65465 2.82147 0
M  V30 29 H 2.0841 -1.88172 4.89583 0
M  V30 30 H 3.5581 -3.47927 4.28545 0
M  V30 31 H 4.0351 -3.54665 2.59055 0
M  V30 32 H 4.6411 -2.23003 3.62146 0
M  V30 33 N 2.9562 -1.48159 -0.537278 0
M  V30 34 C 3.8862 -1.65029 -1.6519 0
M  V30 35 C 4.8672 -0.499281 -1.62607 0
M  V30 36 O 6.0522 -0.730972 -1.79918 0
M  V30 37 C 3.1822 -1.68303 -3.03795 0
M  V30 38 C 2.1362 -2.8283 -3.21234 0
M  V30 39 C 1.4622 -2.71189 -4.60826 0
M  V30 40 C 2.7622 -4.24211 -3.04701 0
M  V30 41 H 4.4562 -2.58341 -1.51328 0
M  V30 42 H 2.0022 -1.24325 -0.726585 0
M  V30 43 H 3.9552 -1.78693 -3.81637 0
M  V30 44 H 2.6792 -0.715635 -3.18663 0
M  V30 45 H 1.3382 -2.71983 -2.45807 0
M  V30 46 H 0.9862 -1.72435 -4.7252 0
M  V30 47 H 0.6862 -3.48035 -4.7344 0
M  V30 48 H 2.2102 -2.83537 -5.40777 0
M  V30 49 H 3.6242 -4.3593 -3.72341 0
M  V30 50 H 2.0212 -5.01998 -3.28813 0
M  V30 51 H 3.0912 -4.41184 -2.01209 0
M  V30 52 N 4.4343 0.785586 -1.36625 0
M  V30 53 C 5.7113 1.53198 -1.21613 0
M  V30 54 C 6.0913 2.10187 0.196113 0
M  V30 55 O 5.4393 1.94318 1.20219 0
M  V30 56 C 5.6493 2.62388 -2.30116 0
M  V30 57 C 6.9973 3.30167 -2.66974 0
M  V30 58 O 8.0213 2.72674 -2.29188 0
M  V30 59 O 6.8803 4.34077 -3.32023 0
M  V30 60 H 3.9743 0.677865 -0.473738 0
M  V30 61 H 6.5203 0.823739 -1.48367 0
M  V30 62 H 5.2923 2.18299 -3.24748 0
M  V30 63 H 4.9153 3.40827 -2.0475 0
M  V30 64 N 5.9124 1.20967 1.01018 0
M  V30 65 C 7.1584 1.02526 1.74975 0
M  V30 66 C 7.4914 -0.4408 1.89131 0
M  V30 67 O 6.7664 -1.32718 1.42184 0
M  V30 68 C 7.0494 1.71699 3.1653 0
M  V30 69 C 6.9024 3.25791 3.10129 0
M  V30 70 C 8.2214 1.45531 4.15342 0
M  V30 71 H 5.3404 0.373863 0.635134 0
M  V30 72 H 7.9824 1.49071 1.17805 0
M  V30 73 H 6.1324 1.32128 3.65341 0
M  V30 74 H 7.8044 3.74697 2.69072 0
M  V30 75 H 6.0474 3.56363 2.47362 0
M  V30 76 H 6.7184 3.69353 4.10222 0
M  V30 77 H 9.1944 1.79872 3.75213 0
M  V30 78 H 8.0704 1.96453 5.1254 0
M  V30 79 H 8.3314 0.384237 4.40427 0
M  V30 80 N 7.3905 -1.2043 1.01659 0
M  V30 81 C 8.6365 -1.90356 0.716674 0
M  V30 82 C 8.9915 -1.77367 -0.745557 0
M  V30 83 O 8.2845 -1.1471 -1.53467 0
M  V30 84 C 8.4785 -3.40464 1.08714 0
M  V30 85 C 8.3075 -3.6806 2.58384 0
M  V30 86 C 7.0775 -3.86775 3.25167 0
M  V30 87 C 9.2755 -3.70623 3.56572 0
M  V30 88 N 7.2575 -4.01889 4.64067 0
M  V30 89 C 8.6285 -3.91161 4.81034 0
M  V30 90 C 10.6835 -3.53586 3.50544 0
M  V30 91 C 9.3865 -3.96428 6.00198 0
M  V30 92 C 11.4125 -3.60125 4.6911 0
M  V30 93 C 10.7745 -3.81135 5.92381 0
M  V30 94 H 6.8735 -0.716226 0.313918 0
M  V30 95 H 9.4575 -1.44815 1.30141 0
M  V30 96 H 7.6285 -3.84757 0.530745 0
M  V30 97 H 9.3605 -3.97863 0.740763 0
M  V30 98 H 6.1155 -3.85156 2.75594 0
M  V30 99 H 6.5395 -4.13323 5.36184 0
M  V30 100 H 11.1815 -3.36308 2.56235 0
M  V30 101 H 8.8995 -4.12502 6.94887 0
M  V30 102 H 12.4855 -3.4825 4.66062 0
M  V30 103 H 11.3655 -3.86054 6.82592 0
M  V30 104 N 8.8686 -0.792821 -1.36206 0
M  V30 105 C 9.8006 -0.151469 -2.28699 0
M  V30 106 C 10.8136 0.641262 -1.49638 0
M  V30 107 O 12.0026 0.475885 -1.72039 0
M  V30 108 C 9.1026 0.808424 -3.29117 0
M  V30 109 C 8.2756 0.0650202 -4.37352 0
M  V30 110 C 7.3346 0.941358 -5.17711 0
M  V30 111 O 6.3606 0.397352 -5.67811 0
M  V30 112 N 7.5626 2.2652 -5.3448 0
M  V30 113 H 10.3276 -0.945982 -2.84379 0
M  V30 114 H 7.8886 -0.647032 -1.48409 0
M  V30 115 H 9.8806 1.3986 -3.79765 0
M  V30 116 H 8.4506 1.5038 -2.74052 0
M  V30 117 H 7.6706 -0.706255 -3.87822 0
M  V30 118 H 8.9586 -0.447847 -5.06825 0
M  V30 119 H 8.3566 2.73128 -4.95396 0
M  V30 120 H 6.9136 2.80493 -5.88359 0
M  V30 121 N 10.3467 1.47872 -0.545128 0
M  V30 122 C 11.2967 2.26842 0.229456 0
M  V30 123 C 12.2807 1.33626 0.896267 0
M  V30 124 O 13.4727 1.58063 0.79657 0
M  V30 125 C 10.6017 3.19089 1.26638 0
M  V30 126 C 9.6877 4.19783 0.603598 0
M  V30 127 N 10.0787 5.0479 -0.319405 0
M  V30 128 C 8.3767 4.3765 0.858989 0
M  V30 129 C 9.0777 5.77433 -0.703241 0
M  V30 130 N 8.0537 5.43566 -0.0608309 0
M  V30 131 H 11.8557 2.89947 -0.480391 0
M  V30 132 H 9.3697 1.58263 -0.364209 0
M  V30 133 H 11.3667 3.74337 1.83515 0
M  V30 134 H 10.0267 2.5754 1.97745 0
M  V30 135 H 11.0377 5.13244 -0.692889 0
M  V30 136 H 7.7147 3.87281 1.55948 0
M  V30 137 H 9.1047 6.55824 -1.46098 0
M  V30 138 N 11.8248 0.280983 1.55075 0
M  V30 139 C 13.0738 -0.334784 1.98902 0
M  V30 140 C 13.3868 -1.56534 1.17288 0
M  V30 141 O 14.5928 -2.25443 1.51287 0
M  V30 142 C 13.0488 -0.646994 3.54037 0
M  V30 143 C 12.6568 0.564085 4.44435 0
M  V30 144 C 14.4008 -1.22506 4.06439 0
M  V30 145 C 12.3078 0.226137 5.90967 0
M  V30 146 H 11.2378 -0.128866 0.742906 0
M  V30 147 H 13.8888 0.386556 1.79382 0
M  V30 148 H 12.2708 -1.42739 3.6938 0
M  V30 149 H 13.4448 1.34082 4.40861 0
M  V30 150 H 11.7598 1.0594 4.02698 0
M  V30 151 H 14.3568 -1.49182 5.13468 0
M  V30 152 H 14.6998 -2.16085 3.55827 0
M  V30 153 H 15.2328 -0.50682 3.94558 0
M  V30 154 H 11.9718 1.12996 6.45687 0
M  V30 155 H 11.4918 -0.513717 5.97596 0
M  V30 156 H 13.1708 -0.179539 6.46751 0
M  V30 157 N 13.3029 -1.57598 0.00835791 0
M  V30 158 C 14.7189 -1.55764 -0.347822 0
M  V30 159 C 14.9189 -1.01186 -1.74252 0
M  V30 160 O 13.9749 -0.649371 -2.44007 0
M  V30 161 C 15.2879 -2.99927 -0.215407 0
M  V30 162 C 16.8359 -3.11656 -0.289725 0
M  V30 163 C 17.3109 -4.57621 -0.18634 0
M  V30 164 N 18.8019 -4.62557 -0.243978 0
M  V30 165 C 19.5369 -5.73094 -0.18745 0
M  V30 166 N 19.0329 -6.92753 -0.0810331 0
M  V30 167 N 20.8259 -5.61588 -0.239925 0
M  V30 168 H 12.9769 -1.91411 0.92062 0
M  V30 169 H 15.2399 -0.879562 0.353659 0
M  V30 170 H 14.9459 -3.43729 0.744512 0
M  V30 171 H 14.8199 -3.63865 -0.994097 0
M  V30 172 H 17.2069 -2.67779 -1.24009 0
M  V30 173 H 17.2879 -2.5048 0.51898 0
M  V30 174 H 16.9319 -5.02174 0.760519 0
M  V30 175 H 16.8619 -5.16752 -1.01364 0
M  V30 176 H 19.3529 -3.76481 -0.327217 0
M  V30 177 H 19.6659 -7.72787 -0.0440241 0
M  V30 178 H 18.0109 -6.94984 -0.0465419 0
M  V30 179 H 21.2019 -4.66996 -0.321317 0
M  V30 180 H 21.3749 -6.47714 -0.192407 0
M  V30 181 N 14.781 0.264519 -1.55364 0
M  V30 182 C 15.713 1.34965 -1.85248 0
M  V30 183 C 16.726 1.45136 -0.737525 0
M  V30 184 O 17.915 1.46801 -1.01547 0
M  V30 185 C 15.015 2.73008 -2.00797 0
M  V30 186 C 14.188 2.85324 -3.31525 0
M  V30 187 C 13.247 4.04097 -3.37034 0
M  V30 188 O 12.273 3.94455 -4.10358 0
M  V30 189 N 13.475 5.16458 -2.65049 0
M  V30 190 H 16.24 1.09672 -2.78913 0
M  V30 191 H 13.801 0.454635 -1.55386 0
M  V30 192 H 15.793 3.50772 -2.01844 0
M  V30 193 H 14.363 2.91087 -1.1396 0
M  V30 194 H 13.583 1.94377 -3.42945 0
M  V30 195 H 14.871 2.9049 -4.17724 0
M  V30 196 H 14.269 5.27181 -2.05175 0
M  V30 197 H 12.826 5.92422 -2.71809 0
M  V30 198 N 16.2591 1.48442 0.529413 0
M  V30 199 C 17.1691 1.6569 1.66084 0
M  V30 200 C 18.1851 0.539432 1.65427 0
M  V30 201 O 19.3611 0.810572 1.84368 0
M  V30 202 C 16.4261 1.69315 3.02545 0
M  V30 203 C 15.4871 2.92694 3.14052 0
M  V30 204 C 14.7201 2.96137 4.44003 0
M  V30 205 O 14.9431 2.07973 5.31134 0
M  V30 206 O 13.8771 3.88312 4.59888 0
M  V30 207 H 17.7031 2.61483 1.54469 0
M  V30 208 H 15.2881 1.3185 0.702567 0
M  V30 209 H 17.1701 1.74217 3.83701 0
M  V30 210 H 15.8451 0.766966 3.14483 0
M  V30 211 H 14.7521 2.93324 2.32189 0
M  V30 212 H 16.0851 3.84699 3.0703 0
M  V30 213 N 17.7372 -0.778329 1.37039 0
M  V30 214 C 18.7002 -1.87301 1.32102 0
M  V30 215 C 19.7002 -1.59198 0.226405 0
M  V30 216 O 20.8902 -1.67403 0.481861 0
M  V30 217 C 18.0222 -3.24309 1.05055 0
M  V30 218 H 19.2152 -1.93093 2.29467 0
M  V30 219 H 16.7682 -0.977358 1.21973 0
M  V30 220 H 17.5032 -3.24196 0.0819373 0
M  V30 221 H 17.2882 -3.46098 1.84279 0
M  V30 222 H 18.7782 -4.04382 1.04234 0
M  V30 223 N 19.2153 -1.21501 -1.00376 0
M  V30 224 C 20.1623 -0.975387 -2.09177 0
M  V30 225 C 21.1323 0.0990615 -1.65804 0
M  V30 226 O 22.3173 -0.0483147 -1.90739 0
M  V30 227 C 19.4573 -0.547507 -3.40729 0
M  V30 228 C 18.5703 -1.69153 -3.97506 0
M  V30 229 C 17.7053 -1.2127 -5.17172 0
M  V30 230 C 16.7443 -2.32897 -5.66061 0
M  V30 231 N 15.8813 -1.86138 -6.76976 0
M  V30 232 H 20.7213 -1.9068 -2.29009 0
M  V30 233 H 18.2583 -0.950257 -1.12288 0
M  V30 234 H 20.2163 -0.280667 -4.16255 0
M  V30 235 H 18.8463 0.346904 -3.20931 0
M  V30 236 H 17.8983 -2.07298 -3.18954 0
M  V30 237 H 19.2103 -2.5316 -4.29781 0
M  V30 238 H 18.3643 -0.902591 -5.99948 0
M  V30 239 H 17.1033 -0.342692 -4.86495 0
M  V30 240 H 16.1083 -2.64709 -4.81881 0
M  V30 241 H 17.3333 -3.20396 -5.98768 0
M  V30 242 H 15.2793 -1.01484 -6.48103 0
M  V30 243 H 15.1963 -2.63717 -7.08512 0
M  V30 244 H 16.4643 -1.58165 -7.63285 0
M  V30 245 N 20.6934 1.19889 -1.02296 0
M  V30 246 C 21.6034 2.26571 -0.608508 0
M  V30 247 C 22.6194 1.70299 0.356964 0
M  V30 248 O 23.7954 2.00235 0.216326 0
M  V30 249 C 20.8604 3.46677 0.0402814 0
M  V30 250 C 19.9214 4.18153 -0.97194 0
M  V30 251 C 19.1544 5.32525 -0.354016 0
M  V30 252 O 19.3774 5.64112 0.844604 0
M  V30 253 O 18.3114 5.92242 -1.07391 0
M  V30 254 H 22.1374 2.64251 -1.49684 0
M  V30 255 H 19.7224 1.26629 -0.792809 0
M  V30 256 H 21.6044 4.19475 0.402324 0
M  V30 257 H 20.2794 3.10858 0.902707 0
M  V30 258 H 19.1864 3.47499 -1.38546 0
M  V30 259 H 20.5194 4.57927 -1.80454 0
M  V30 260 N 22.1715 0.800033 1.35784 0
M  V30 261 C 23.1015 0.220184 2.3246 0
M  V30 262 C 24.0825 -0.65073 1.57161 0
M  V30 263 O 25.2675 -0.582359 1.85263 0
M  V30 264 C 22.3975 -0.637353 3.41402 0
M  V30 265 C 21.3515 0.134531 4.27789 0
M  V30 266 C 20.6775 -0.844285 5.27992 0
M  V30 267 C 21.9775 1.32979 5.05088 0
M  V30 268 H 23.6715 1.02787 2.81203 0
M  V30 269 H 21.2175 0.495717 1.35199 0
M  V30 270 H 23.1705 -1.05302 4.08031 0
M  V30 271 H 21.8945 -1.47785 2.91251 0
M  V30 272 H 20.5535 0.531296 3.6273 0
M  V30 273 H 20.2015 -1.68011 4.74111 0
M  V30 274 H 19.9015 -0.332184 5.8666 0
M  V30 275 H 21.4255 -1.2583 5.97494 0
M  V30 276 H 22.8395 0.98934 5.64699 0
M  V30 277 H 21.2365 1.77593 5.7322 0
M  V30 278 H 22.3065 2.11978 4.36111 0
M  V30 279 N 23.6496 -1.47581 0.552962 0
M  V30 280 C 24.6126 -2.28439 -0.186605 0
M  V30 281 C 25.6126 -1.36706 -0.84665 0
M  V30 282 O 26.8026 -1.59378 -0.703164 0
M  V30 283 C 23.9346 -3.16264 -1.2724 0
M  V30 284 H 25.1276 -2.95294 0.523609 0
M  V30 285 H 22.6806 -1.532 0.309745 0
M  V30 286 H 23.4156 -2.54091 -2.01514 0
M  V30 287 H 23.2006 -3.83769 -0.803968 0
M  V30 288 H 24.6906 -3.77198 -1.79196 0
M  V30 289 N 25.1277 -0.289203 -1.54924 0
M  V30 290 C 26.0377 0.601863 -2.26748 0
M  V30 291 C 27.0537 1.15834 -1.2984 0
M  V30 292 O 28.2297 1.18564 -1.62802 0
M  V30 293 C 25.2947 1.76299 -2.98529 0
M  V30 294 C 24.3557 1.24178 -4.10948 0
M  V30 295 C 23.5887 2.34757 -4.79296 0
M  V30 296 O 23.8117 3.54411 -4.46933 0
M  V30 297 O 22.7457 2.02115 -5.66951 0
M  V30 298 H 26.5717 0.0195879 -3.03694 0
M  V30 299 H 24.1567 -0.0560868 -1.49295 0
M  V30 300 H 26.0387 2.43973 -3.43592 0
M  V30 301 H 24.7137 2.33209 -2.24488 0
M  V30 302 H 23.6207 0.531104 -3.70311 0
M  V30 303 H 24.9537 0.718252 -4.86931 0
M  V30 304 N 26.6058 1.57591 -0.0167156 0
M  V30 305 C 27.5538 2.10604 0.987353 0
M  V30 306 C 28.5478 1.02977 1.34507 0
M  V30 307 O 29.7538 1.21425 1.32875 0
M  V30 308 H 26.1288 0.672695 0.336134 0
M  V30 309 H 28.0998 2.93925 0.514817 0
M  V30 310 C 26.8488 2.6382 2.26483 0
M  V30 311 H 26.1718 3.46278 1.99829 0
M  V30 312 H 27.6118 3.04573 2.94977 0
M  V30 313 C 26.0708 1.55992 2.9861 0
M  V30 314 O 26.6008 0.952521 3.90243 0
M  V30 315 N 24.8068 1.28335 2.60727 0
M  V30 316 H 24.3538 1.77914 1.86291 0
M  V30 317 H 24.3118 0.564115 3.09298 0
M  V30 318 N 28.0839 -0.256276 1.55502 0
M  V30 319 C 28.9939 -1.33882 1.92647 0
M  V30 320 C 30.0099 -1.53159 0.825727 0
M  V30 321 O 31.1859 -1.66963 1.12629 0
M  V30 322 C 28.2509 -2.6751 2.20543 0
M  V30 323 C 27.3119 -2.56836 3.43997 0
M  V30 324 C 26.5449 -3.84092 3.70553 0
M  V30 325 O 26.7679 -4.85545 2.99336 0
M  V30 326 O 25.7019 -3.83288 4.64084 0
M  V30 327 H 29.5279 -1.05374 2.84833 0
M  V30 328 H 27.1129 -0.456237 1.42263 0
M  V30 329 H 28.9949 -3.46492 2.39835 0
M  V30 330 H 27.6699 -2.9577 1.31536 0
M  V30 331 H 26.5769 -1.76172 3.30021 0
M  V30 332 H 27.9099 -2.33523 4.33275 0
M  V30 333 N 29.562 -1.4872 -0.521534 0
M  V30 334 C 30.973 -1.50607 -1.10337 0
M  V30 335 C 31.324 -0.280612 -1.94183 0
M  V30 336 O 30.449 0.611507 -2.0758 0
M  V30 337 C 31.044 -2.72903 -2.00772 0
M  V30 338 C 29.603 -2.77634 -2.54158 0
M  V30 339 C 28.75 -2.44241 -1.31307 0
M  V30 340 H 31.701 -1.55714 -0.306388 0
M  V30 341 H 31.722 -2.519 -2.85178 0
M  V30 342 H 31.234 -3.62077 -1.39721 0
M  V30 343 H 29.335 -1.92689 -3.18907 0
M  V30 344 H 29.448 -3.79283 -2.92714 0
M  V30 345 H 27.812 -1.95577 -1.63161 0
M  V30 346 H 28.595 -3.35666 -0.719943 0
M  V30 347 N 31.0401 0.771051 -1.3745 0
M  V30 348 C 31.9731 1.89166 -1.27638 0
M  V30 349 C 32.9511 1.61842 -0.156782 0
M  V30 350 O 34.1351 1.85569 -0.331111 0
M  V30 351 C 31.2621 3.24405 -0.973621 0
M  V30 352 C 30.3081 3.70638 -2.1102 0
M  V30 353 S 31.1411 3.84228 -3.73 0
M  V30 354 C 32.2971 5.22313 -3.44876 0
M  V30 355 H 32.5301 1.972 -2.22485 0
M  V30 356 H 30.0631 0.932224 -1.23081 0
M  V30 357 H 32.0211 4.02514 -0.805766 0
M  V30 358 H 30.6821 3.14071 -0.0426279 0
M  V30 359 H 29.8751 4.68685 -1.85338 0
M  V30 360 H 29.4771 2.99632 -2.23822 0
M  V30 361 H 31.7691 6.07505 -2.99908 0
M  V30 362 H 32.7121 5.53008 -4.42253 0
M  V30 363 H 33.1201 4.90284 -2.79789 0
M  V30 364 N 32.5182 1.22032 0.997298 0
M  V30 365 C 33.4482 1.01065 2.10495 0
M  V30 366 C 34.4292 -0.0669542 1.69968 0
M  V30 367 O 35.6142 0.0943987 1.9397 0
M  V30 368 C 32.7442 0.582874 3.42374 0
M  V30 369 C 31.6982 1.60592 3.96729 0
M  V30 370 C 31.0242 1.03412 5.24605 0
M  V30 371 C 32.3242 2.99478 4.27914 0
M  V30 372 H 34.0182 1.93708 2.28292 0
M  V30 373 H 31.5642 0.932761 1.09707 0
M  V30 374 H 33.5172 0.423332 4.19268 0
M  V30 375 H 32.2412 -0.379213 3.24391 0
M  V30 376 H 30.9002 1.75316 3.21963 0
M  V30 377 H 30.5482 0.063518 5.0296 0
M  V30 378 H 30.2482 1.71754 5.61938 0
M  V30 379 H 31.7722 0.886066 6.04137 0
M  V30 380 H 33.1862 2.88153 4.95622 0
M  V30 381 H 31.5832 3.64903 4.76409 0
M  V30 382 H 32.6532 3.49742 3.3587 0
M  V30 383 N 33.9963 -1.19345 1.0293 0
M  V30 384 C 34.9593 -2.20793 0.615069 0
M  V30 385 C 35.9593 -1.57553 -0.321533 0
M  V30 386 O 37.1493 -1.73862 -0.108483 0
M  V30 387 C 34.2813 -3.40754 -0.0999222 0
M  V30 388 H 35.4743 -2.58955 1.51269 0
M  V30 389 H 33.0273 -1.3303 0.820534 0
M  V30 390 H 33.7623 -3.0811 -1.01187 0
M  V30 391 H 33.5473 -3.87889 0.57309 0
M  V30 392 H 35.0373 -4.15898 -0.376645 0
M  V30 393 N 35.4744 -0.807222 -1.35358 0
M  V30 394 C 36.6994 -0.399309 -2.0352 0
M  V30 395 C 37.1244 0.981986 -1.60433 0
M  V30 396 O 36.4824 1.63601 -0.781299 0
M  V30 397 C 36.5304 -0.491552 -3.57234 0
M  V30 398 O 35.6344 0.494754 -4.09421 0
M  V30 399 H 34.9754 -0.166682 -0.642739 0
M  V30 400 H 37.5054 -1.09328 -1.72941 0
M  V30 401 H 37.5154 -0.361588 -4.06395 0
M  V30 402 H 36.1904 -1.49907 -3.87944 0
M  V30 403 H 34.7674 0.324977 -3.71481 0
M  V30 404 N 36.9525 1.47285 -0.560781 0
M  V30 405 C 38.1995 2.02464 -0.038062 0
M  V30 406 C 38.5275 1.43474 1.31322 0
M  V30 407 O 37.7825 0.581311 1.86867 0
M  V30 408 C 38.0815 3.57258 0.100784 0
M  V30 409 C 37.7475 4.35184 -1.18007 0
M  V30 410 C 36.4095 4.56194 -1.53103 0
M  V30 411 C 38.7615 4.80098 -2.02867 0
M  V30 412 C 36.0895 5.19367 -2.729 0
M  V30 413 C 38.4415 5.44593 -3.21871 0
M  V30 414 C 37.1055 5.63835 -3.57276 0
M  V30 415 H 36.3755 0.740869 -0.0139279 0
M  V30 416 H 39.0225 1.76916 -0.733012 0
M  V30 417 H 37.3275 3.81819 0.878724 0
M  V30 418 H 39.0245 3.97606 0.520639 0
M  V30 419 H 35.6145 4.19113 -0.8968 0
M  V30 420 H 39.7985 4.63642 -1.7706 0
M  V30 421 H 35.0545 5.32459 -3.00496 0
M  V30 422 H 39.2285 5.78358 -3.87911 0
M  V30 423 H 36.8555 6.12557 -4.50197 0
M  V30 424 N 38.4306 0.297415 1.54768 0
M  V30 425 C 39.6776 -0.312913 2.00068 0
M  V30 426 C 40.0056 -1.54171 1.18582 0
M  V30 427 O 39.2606 -1.94108 0.249133 0
M  V30 428 C 39.5596 -0.717561 3.50123 0
M  V30 429 C 39.2256 0.409095 4.4904 0
M  V30 430 C 37.8876 0.718399 4.75807 0
M  V30 431 C 40.2396 1.16717 5.07963 0
M  V30 432 C 37.5676 1.78896 5.5876 0
M  V30 433 C 39.9196 2.22762 5.92081 0
M  V30 434 C 38.5836 2.54303 6.1716 0
M  V30 435 H 37.8536 -0.114503 0.7321 0
M  V30 436 H 40.5006 0.415767 1.86932 0
M  V30 437 H 38.8056 -1.52627 3.60849 0
M  V30 438 H 40.5026 -1.20091 3.82595 0
M  V30 439 H 37.0926 0.157918 4.28309 0
M  V30 440 H 41.2766 0.941466 4.87289 0
M  V30 441 H 36.5326 2.0381 5.7643 0
M  V30 442 H 40.7066 2.81962 6.36765 0
M  V30 443 H 38.3336 3.3739 6.81229 0
M  V30 444 N 39.9087 -1.5758 0.0250728 0
M  V30 445 C 40.8587 -2.06468 -0.967201 0
M  V30 446 C 41.8427 -0.964376 -1.28797 0
M  V30 447 O 43.0347 -1.22797 -1.27475 0
M  V30 448 C 40.1637 -2.59203 -2.25097 0
M  V30 449 C 39.2497 -3.76157 -1.95874 0
M  V30 450 N 39.6407 -4.86919 -1.36905 0
M  V30 451 C 37.9387 -3.84566 -2.25887 0
M  V30 452 C 38.6397 -5.68172 -1.24724 0
M  V30 453 N 37.6157 -5.14953 -1.74138 0
M  V30 454 H 41.4177 -2.89508 -0.506176 0
M  V30 455 H 38.9317 -1.61399 -0.18004 0
M  V30 456 H 40.9287 -2.92517 -2.97052 0
M  V30 457 H 39.5887 -1.77592 -2.71829 0
M  V30 458 H 40.5997 -5.07256 -1.04459 0
M  V30 459 H 37.2767 -3.13854 -2.75321 0
M  V30 460 H 38.6667 -6.67221 -0.791605 0
M  V30 461 N 41.3868 0.248026 -1.55636 0
M  V30 462 C 42.6118 0.998028 -1.81808 0
M  V30 463 C 43.0368 1.78207 -0.601979 0
M  V30 464 O 42.3948 1.75653 0.448961 0
M  V30 465 C 42.4428 1.9125 -3.05705 0
M  V30 466 O 41.5468 3.00406 -2.82542 0
M  V30 467 H 40.8878 0.284045 -0.600179 0
M  V30 468 H 43.4178 0.269357 -2.02819 0
M  V30 469 H 43.4278 2.32737 -3.35108 0
M  V30 470 H 42.1028 1.33602 -3.93857 0
M  V30 471 H 40.6798 2.63056 -2.64303 0
M  V30 472 N 42.8649 1.48995 0.513639 0
M  V30 473 C 44.0929 1.61531 1.29288 0
M  V30 474 C 44.5079 0.281801 1.86685 0
M  V30 475 O 43.8649 -0.731111 1.67215 0
M  V30 476 C 43.9159 2.67449 2.43215 0
M  V30 477 O 43.6369 3.95626 1.88179 0
M  V30 478 C 45.1379 2.90575 3.34785 0
M  V30 479 H 42.3579 0.544165 0.392588 0
M  V30 480 H 44.9019 1.9494 0.617956 0
M  V30 481 H 43.0569 2.36853 3.0656 0
M  V30 482 H 43.4709 4.53868 2.62876 0
M  V30 483 H 44.9449 3.68449 4.11035 0
M  V30 484 H 45.4219 2.00011 3.91015 0
M  V30 485 H 46.0279 3.22538 2.77218 0
M  V30 486 N 44.343 -0.763751 1.37857 0
M  V30 487 C 45.592 -1.51789 1.32827 0
M  V30 488 C 45.905 -1.95426 -0.0823719 0
M  V30 489 O 47.111 -2.70298 -0.255172 0
M  V30 490 C 45.567 -2.74133 2.33193 0
M  V30 491 C 45.175 -2.37562 3.79827 0
M  V30 492 C 46.919 -3.52054 2.37188 0
M  V30 493 C 44.826 -3.56456 4.71904 0
M  V30 494 H 43.756 -0.569896 0.493695 0
M  V30 495 H 46.407 -0.835822 1.63359 0
M  V30 496 H 44.789 -3.4427 1.9569 0
M  V30 497 H 45.963 -1.75157 4.26212 0
M  V30 498 H 44.278 -1.72798 3.78853 0
M  V30 499 H 46.875 -4.40437 3.03182 0
M  V30 500 H 47.218 -3.92486 1.38782 0
M  V30 501 H 47.751 -2.88921 2.7344 0
M  V30 502 H 44.49 -3.21099 5.71468 0
M  V30 503 H 44.01 -4.17938 4.30218 0
M  V30 504 H 45.689 -4.23168 4.89426 0
M  V30 505 N 45.8211 -1.22559 -0.990812 0
M  V30 506 C 46.7511 -1.0218 -2.09956 0
M  V30 507 C 47.7321 0.0579394 -1.70001 0
M  V30 508 O 48.9171 -0.104684 -1.93918 0
M  V30 509 C 46.0471 -0.601023 -3.4206 0
M  V30 510 C 45.0011 -1.62694 -3.95872 0
M  V30 511 C 44.3271 -1.06193 -5.24049 0
M  V30 512 C 45.6271 -3.01743 -4.2632 0
M  V30 513 H 47.3211 -1.94916 -2.27262 0
M  V30 514 H 44.8671 -0.938566 -1.09211 0
M  V30 515 H 46.8201 -0.445561 -4.19038 0
M  V30 516 H 45.5441 0.362005 -3.24588 0
M  V30 517 H 44.2031 -1.77021 -3.21028 0
M  V30 518 H 43.8511 -0.0901903 -5.02919 0
M  V30 519 H 43.5511 -1.74732 -5.61019 0
M  V30 520 H 45.0751 -0.918092 -6.03658 0
M  V30 521 H 46.4891 -2.90777 -4.94087 0
M  V30 522 H 44.8861 -3.67425 -4.74467 0
M  V30 523 H 45.9561 -3.51518 -3.34011 0
M  V30 524 N 47.2992 1.18797 -1.03562 0
M  V30 525 C 48.2462 2.22253 -0.622259 0
M  V30 526 C 49.2162 1.61987 0.36736 0
M  V30 527 O 50.4012 1.88986 0.262492 0
M  V30 528 C 47.5412 3.45097 0.0138462 0
M  V30 529 C 46.6542 4.19722 -1.02263 0
M  V30 530 C 45.7892 5.30009 -0.355573 0
M  V30 531 C 44.8282 5.96399 -1.37749 0
M  V30 532 N 43.9652 6.98234 -0.735766 0
M  V30 533 H 48.8052 2.56968 -1.50903 0
M  V30 534 H 46.3422 1.26245 -0.755017 0
M  V30 535 H 48.3002 4.15279 0.399948 0
M  V30 536 H 46.9302 3.11018 0.864158 0
M  V30 537 H 45.9822 3.48418 -1.52673 0
M  V30 538 H 47.2942 4.65227 -1.79903 0
M  V30 539 H 46.4482 6.0664 0.0850095 0
M  V30 540 H 45.1872 4.85592 0.452967 0
M  V30 541 H 44.1922 5.18512 -1.82826 0
M  V30 542 H 45.4172 6.42899 -2.18764 0
M  V30 543 H 43.3632 6.55979 0.0525597 0
M  V30 544 H 43.2802 7.41965 -1.44995 0
M  V30 545 H 44.5482 7.78845 -0.31941 0
M  V30 546 N 48.7773 0.814389 1.34928 0
M  V30 547 C 49.7273 0.202752 2.27097 0
M  V30 548 C 50.7113 -0.62799 1.48139 0
M  V30 549 O 51.9033 -0.483969 1.70255 0
M  V30 550 C 49.0323 -0.64146 3.37254 0
M  V30 551 C 48.1183 0.19944 4.23631 0
M  V30 552 N 48.5093 1.26628 4.89693 0
M  V30 553 C 46.8073 -0.0176433 4.45997 0
M  V30 554 C 47.5083 1.78031 5.53787 0
M  V30 555 N 46.4843 1.08553 5.32651 0
M  V30 556 H 50.2863 1.01893 2.75672 0
M  V30 557 H 47.8003 0.656332 1.48546 0
M  V30 558 H 49.7973 -1.09575 4.02243 0
M  V30 559 H 48.4573 -1.4559 2.9023 0
M  V30 560 H 49.4683 1.64901 4.90946 0
M  V30 561 H 46.1453 -0.800601 4.09752 0
M  V30 562 H 47.5353 2.67236 6.16469 0
M  V30 563 N 50.2554 -1.46986 0.568584 0
M  V30 564 C 51.1874 -2.28233 -0.210337 0
M  V30 565 C 52.2004 -1.37682 -0.868767 0
M  V30 566 O 53.3894 -1.62406 -0.740705 0
M  V30 567 C 50.4894 -3.12293 -1.3163 0
M  V30 568 C 49.6624 -4.30878 -0.7525 0
M  V30 569 C 48.7214 -4.96445 -1.74439 0
M  V30 570 O 47.7474 -5.54482 -1.286 0
M  V30 571 N 48.9494 -4.92171 -3.07812 0
M  V30 572 H 51.7144 -2.95723 0.486648 0
M  V30 573 H 49.2754 -1.56742 0.405409 0
M  V30 574 H 51.2674 -3.53022 -1.97883 0
M  V30 575 H 49.8374 -2.46971 -1.91636 0
M  V30 576 H 49.0574 -3.94104 0.0871128 0
M  V30 577 H 50.3454 -5.07558 -0.35536 0
M  V30 578 H 49.7434 -4.46239 -3.47688 0
M  V30 579 H 48.3004 -5.36884 -3.69592 0
M  V30 580 N 51.7335 -0.305618 -1.54608 0
M  V30 581 C 52.6815 0.584119 -2.25146 0
M  V30 582 C 53.6755 1.13326 -1.25911 0
M  V30 583 O 54.8815 1.08337 -1.43747 0
M  V30 584 H 51.2565 0.206983 -0.722954 0
M  V30 585 H 53.2275 -0.033291 -2.98381 0
M  V30 586 C 51.9765 1.74225 -3.009 0
M  V30 587 H 51.2995 1.32892 -3.77067 0
M  V30 588 H 52.7395 2.34077 -3.53531 0
M  V30 589 C 51.1985 2.64914 -2.0814 0
M  V30 590 O 51.7285 3.66137 -1.65246 0
M  V30 591 N 49.9345 2.3275 -1.74 0
M  V30 592 H 49.4815 1.50479 -2.09078 0
M  V30 593 H 49.4395 2.93694 -1.12211 0
M  V30 594 N 53.2116 1.57565 -0.0334293 0
M  V30 595 C 54.1416 2.13511 0.945265 0
M  V30 596 C 55.1226 1.05231 1.33643 0
M  V30 597 O 56.3076 1.33084 1.41429 0
M  V30 598 C 53.4376 2.6657 2.22616 0
M  V30 599 C 52.3916 3.79676 1.97561 0
M  V30 600 C 51.7176 4.1918 3.31952 0
M  V30 601 C 53.0176 5.0557 1.31135 0
M  V30 602 H 54.7116 2.95538 0.479325 0
M  V30 603 H 52.2576 1.42166 0.229115 0
M  V30 604 H 54.2106 3.04344 2.91466 0
M  V30 605 H 52.9346 1.8171 2.71384 0
M  V30 606 H 51.5936 3.42347 1.31127 0
M  V30 607 H 51.2416 3.31296 3.78487 0
M  V30 608 H 50.9416 4.95402 3.15992 0
M  V30 609 H 52.4656 4.59541 4.02063 0
M  V30 610 H 53.8796 5.40903 1.89992 0
M  V30 611 H 52.2766 5.86818 1.25559 0
M  V30 612 H 53.3466 4.84062 0.284894 0
M  V30 613 N 54.6897 -0.239769 1.55765 0
M  V30 614 C 55.9377 -0.964892 1.77579 0
M  V30 615 C 56.2587 -1.85582 0.598699 0
M  V30 616 O 55.5287 -1.92075 -0.385226 0
M  V30 617 H 54.1087 -0.359265 0.654933 0
M  V30 618 H 56.7707 -0.256001 1.93211 0
M  V30 619 H 55.8667 -1.58243 2.69009 0
M  V30 620 N 56.1678 -1.49265 -0.50573 0
M  V30 621 C 57.4158 -1.582 -1.25766 0
M  V30 622 C 57.7368 -0.268482 -1.93143 0
M  V30 623 O 57.0068 0.711833 -1.8251 0
M  V30 624 H 55.5868 -0.582873 -0.467191 0
M  V30 625 H 58.2488 -1.85865 -0.586525 0
M  V30 626 H 57.3448 -2.37563 -2.02412 0
M  V30 627 N 57.6459 0.756429 -1.3826 0
M  V30 628 C 58.6089 1.85176 -1.35065 0
M  V30 629 C 59.6089 1.58818 -0.251703 0
M  V30 630 O 60.7989 1.66615 -0.508433 0
M  V30 631 C 57.9309 3.22596 -1.10201 0
M  V30 632 H 59.1239 1.89417 -2.3251 0
M  V30 633 H 56.6769 0.95783 -1.23512 0
M  V30 634 H 57.4119 3.24025 -0.133504 0
M  V30 635 H 57.1969 3.43122 -1.89762 0
M  V30 636 H 58.6869 4.02673 -1.10654 0
M  V30 637 N 59.124 1.23083 0.984299 0
M  V30 638 C 60.054 1.03292 2.09411 0
M  V30 639 C 61.035 -0.048923 1.7003 0
M  V30 640 O 62.22 0.114967 1.93859 0
M  V30 641 C 59.35 0.619155 3.41736 0
M  V30 642 C 58.304 1.64791 3.95004 0
M  V30 643 C 57.63 1.0897 5.23478 0
M  V30 644 C 58.93 3.03999 4.24714 0
M  V30 645 H 60.624 1.96119 2.26225 0
M  V30 646 H 58.17 0.944344 1.08711 0
M  V30 647 H 60.123 0.467777 4.18796 0
M  V30 648 H 58.847 -0.344786 3.24775 0
M  V30 649 H 57.506 1.78721 3.20085 0
M  V30 650 H 57.154 0.11686 5.02864 0
M  V30 651 H 56.854 1.77704 5.60085 0
M  V30 652 H 58.378 0.950093 6.03163 0
M  V30 653 H 59.792 2.93393 4.92538 0
M  V30 654 H 58.189 3.69936 4.72512 0
M  V30 655 H 59.259 3.53285 3.32142 0
M  V30 656 N 60.6021 -1.18246 1.0419 0
M  V30 657 C 61.8271 -1.92736 0.765996 0
M  V30 658 C 62.2521 -1.75728 -0.67091 0
M  V30 659 O 61.6101 -1.06825 -1.46486 0
M  V30 660 C 61.6581 -3.42148 1.13875 0
M  V30 661 O 60.7621 -4.11548 0.264954 0
M  V30 662 H 60.1031 -0.601238 0.281797 0
M  V30 663 H 62.6331 -1.49942 1.39207 0
M  V30 664 H 62.6431 -3.92858 1.1012 0
M  V30 665 H 61.3181 -3.53848 2.18551 0
M  V30 666 H 59.8951 -3.71137 0.362226 0
M  V30 667 N 62.0802 -0.821533 -1.34494 0
M  V30 668 C 63.3102 -0.421272 -2.02259 0
M  V30 669 C 63.7182 0.977047 -1.6202 0
M  V30 670 O 63.0612 1.64348 -0.820703 0
M  V30 671 C 63.1232 -0.44231 -3.56769 0
M  V30 672 C 62.7872 -1.79372 -4.20327 0
M  V30 673 C 63.7842 -2.75435 -4.40944 0
M  V30 674 C 61.4692 -2.08182 -4.57127 0
M  V30 675 C 63.4632 -3.98482 -4.97484 0
M  V30 676 C 61.1502 -3.31489 -5.13379 0
M  V30 677 C 62.1482 -4.26457 -5.33501 0
M  V30 678 O 61.8362 -5.47585 -5.88562 0
M  V30 679 H 61.5682 -0.167473 -0.654927 0
M  V30 680 H 64.1222 -1.11073 -1.72777 0
M  V30 681 H 62.3522 0.303836 -3.85505 0
M  V30 682 H 64.0412 -0.0622925 -4.05852 0
M  V30 683 H 64.8072 -2.54473 -4.12878 0
M  V30 684 H 60.6862 -1.35066 -4.4077 0
M  V30 685 H 64.2302 -4.72618 -5.13106 0
M  V30 686 H 60.1272 -3.52316 -5.40873 0
M  V30 687 H 60.8952 -5.49086 -6.06998 0
M  V30 688 N 63.5583 1.46682 -0.576371 0
M  V30 689 C 64.4883 2.33028 0.148397 0
M  V30 690 C 65.4693 1.44961 0.889956 0
M  V30 691 O 66.6543 1.73789 0.866662 0
M  V30 692 C 63.7843 3.27117 1.1667 0
M  V30 693 C 62.7383 4.24575 0.540386 0
M  V30 694 C 62.0643 5.08126 1.6647 0
M  V30 695 C 63.3643 5.19722 -0.518331 0
M  V30 696 H 65.0583 2.93875 -0.572509 0
M  V30 697 H 62.6043 1.41315 -0.276768 0
M  V30 698 H 64.5573 3.86374 1.68204 0
M  V30 699 H 63.2813 2.64364 1.9178 0
M  V30 700 H 61.9403 3.66571 0.0461769 0
M  V30 701 H 61.5883 4.41762 2.40531 0
M  V30 702 H 61.2883 5.74122 1.25131 0
M  V30 703 H 62.8123 5.70246 2.18293 0
M  V30 704 H 64.2263 5.73232 -0.0883058 0
M  V30 705 H 62.6233 5.94026 -0.851679 0
M  V30 706 H 63.6933 4.64037 -1.40703 0
M  V30 707 N 65.0364 0.313813 1.54444 0
M  V30 708 C 65.9664 -0.549454 2.26943 0
M  V30 709 C 66.9474 -1.12741 1.27372 0
M  V30 710 O 68.1324 -1.15436 1.56167 0
M  V30 711 C 65.2624 -1.71523 3.01989 0
M  V30 712 C 64.2164 -1.26703 4.08816 0
M  V30 713 C 63.5424 -2.51898 4.71647 0
M  V30 714 C 64.8424 -0.388962 5.2085 0
M  V30 715 H 66.5364 0.0552661 2.99349 0
M  V30 716 H 64.0824 0.0280207 1.43973 0
M  V30 717 H 66.0354 -2.32535 3.51433 0
M  V30 718 H 64.7594 -2.34639 2.27183 0
M  V30 719 H 63.4184 -0.679896 3.6024 0
M  V30 720 H 63.0664 -3.13356 3.93468 0
M  V30 721 H 62.7664 -2.22605 5.43802 0
M  V30 722 H 64.2904 -3.1369 5.23861 0
M  V30 723 H 65.7044 -0.905107 5.6611 0
M  V30 724 H 64.1014 -0.18924 5.99802 0
M  V30 725 H 65.1714 0.582699 4.81386 0
M  V30 726 N 66.5145 -1.57545 0.0417849 0
M  V30 727 C 67.4775 -2.09885 -0.92093 0
M  V30 728 C 68.4775 -1.01648 -1.24596 0
M  V30 729 O 69.6675 -1.27759 -1.1842 0
M  V30 730 C 66.7995 -2.57527 -2.23367 0
M  V30 731 H 67.9925 -2.96236 -0.467382 0
M  V30 732 H 65.5455 -1.5493 -0.206467 0
M  V30 733 H 66.2805 -1.74542 -2.73323 0
M  V30 734 H 66.0655 -3.36613 -2.01083 0
M  V30 735 H 67.5555 -2.98201 -2.92346 0
M  V30 736 N 67.9926 0.231505 -1.5589 0
M  V30 737 C 68.9406 1.30649 -1.92441 0
M  V30 738 C 69.9346 1.49037 -0.805254 0
M  V30 739 O 71.1406 1.50329 -0.990007 0
M  V30 740 H 67.5156 0.437812 -0.611412 0
M  V30 741 H 69.4866 0.970973 -2.82161 0
M  V30 742 C 68.2356 2.65179 -2.24889 0
M  V30 743 H 67.5586 2.51835 -3.10514 0
M  V30 744 H 68.9986 3.39234 -2.54355 0
M  V30 745 C 67.4576 3.19439 -1.07054 0
M  V30 746 O 67.9876 4.00371 -0.326499 0
M  V30 747 N 66.1936 2.77675 -0.85703 0
M  V30 748 H 65.7406 2.11969 -1.46379 0
M  V30 749 H 65.6986 3.14321 -0.0703223 0
M  V30 750 N 69.4707 1.49531 0.497807 0
M  V30 751 C 70.4177 1.66436 1.59899 0
M  V30 752 C 71.3877 0.505793 1.58212 0
M  V30 753 O 72.5727 0.733202 1.7615 0
M  V30 754 C 69.7127 1.7399 2.98029 0
M  V30 755 C 68.8257 3.01172 3.09708 0
M  V30 756 C 67.9607 2.99686 4.38591 0
M  V30 757 C 66.9997 4.21434 4.43914 0
M  V30 758 N 66.1367 4.1784 5.64229 0
M  V30 759 H 70.9767 2.60459 1.44793 0
M  V30 760 H 68.5137 1.29137 0.704423 0
M  V30 761 H 70.4717 1.76352 3.78095 0
M  V30 762 H 69.1017 0.834301 3.11832 0
M  V30 763 H 68.1537 3.08408 2.22685 0
M  V30 764 H 69.4657 3.91165 3.09502 0
M  V30 765 H 68.6197 3.00628 5.2698 0
M  V30 766 H 67.3587 2.07477 4.41367 0
M  V30 767 H 66.3637 4.20733 3.53926 0
M  V30 768 H 67.5887 5.14839 4.42851 0
M  V30 769 H 65.5347 3.28469 5.67841 0
M  V30 770 H 65.4517 5.01571 5.65652 0
M  V30 771 H 66.7197 4.22889 6.54817 0
M  V30 772 N 70.9488 -0.749086 1.3866 0
M  V30 773 C 71.8788 -1.8764 1.38973 0
M  V30 774 C 72.8598 -1.68178 0.255004 0
M  V30 775 O 74.0448 -1.88704 0.458754 0
M  V30 776 C 71.1748 -3.25222 1.21851 0
M  V30 777 C 70.1288 -3.59295 2.32575 0
M  V30 778 C 69.4548 -4.95663 2.00555 0
M  V30 779 C 70.7548 -3.63709 3.7485 0
M  V30 780 H 72.4488 -1.87635 2.3331 0
M  V30 781 H 69.9948 -0.901329 1.12303 0
M  V30 782 H 71.9478 -4.03746 1.20695 0
M  V30 783 H 70.6718 -3.25719 0.239775 0
M  V30 784 H 69.3308 -2.83093 2.32925 0
M  V30 785 H 68.9788 -4.92724 1.01154 0
M  V30 786 H 68.6788 -5.19429 2.74714 0
M  V30 787 H 70.2028 -5.7656 2.01024 0
M  V30 788 H 71.6168 -4.32338 3.76506 0
M  V30 789 H 70.0138 -3.98986 4.48252 0
M  V30 790 H 71.0838 -2.63834 4.06841 0
M  V30 791 N 72.4269 -1.23603 -0.977757 0
M  V30 792 C 73.3899 -1.02069 -2.05218 0
M  V30 793 C 74.3899 0.0184305 -1.60789 0
M  V30 794 O 75.5799 -0.221569 -1.72785 0
M  V30 795 C 72.7119 -0.544926 -3.36517 0
M  V30 796 H 73.9049 -1.9742 -2.25755 0
M  V30 797 H 71.4579 -1.05684 -1.15155 0
M  V30 798 H 72.1929 0.412241 -3.21669 0
M  V30 799 H 71.9779 -1.2948 -3.70105 0
M  V30 800 H 73.4679 -0.414985 -4.15533 0
M  V30 801 N 73.905 1.17692 -1.04816 0
M  V30 802 C 74.853 2.23632 -0.63966 0
M  V30 803 C 75.847 1.6601 0.337219 0
M  V30 804 O 77.053 1.78844 0.203693 0
M  V30 805 H 73.428 0.727949 -0.188665 0
M  V30 806 H 75.399 2.55387 -1.54337 0
M  V30 807 C 74.148 3.4769 -0.0264051 0
M  V30 808 H 73.471 3.92331 -0.769164 0
M  V30 809 H 74.911 4.23418 0.222098 0
M  V30 810 C 73.37 3.13807 1.22584 0
M  V30 811 O 73.9 3.28236 2.31569 0
M  V30 812 N 72.106 2.68065 1.12202 0
M  V30 813 H 71.653 2.56525 0.235133 0
M  V30 814 H 71.611 2.45767 1.96076 0
M  V30 815 N 75.3831 0.828654 1.34056 0
M  V30 816 C 76.7941 0.477534 1.8049 0
M  V30 817 C 77.1451 -1.00258 1.6865 0
M  V30 818 O 76.2701 -1.78057 1.22982 0
M  V30 819 C 76.8651 0.860018 3.27703 0
M  V30 820 C 75.4241 0.561185 3.72193 0
M  V30 821 C 74.5711 1.07385 2.55663 0
M  V30 822 H 77.5221 1.0183 1.21722 0
M  V30 823 H 77.5431 0.166038 3.80138 0
M  V30 824 H 77.0551 1.93731 3.36288 0
M  V30 825 H 75.1561 -0.506465 3.69142 0
M  V30 826 H 75.2691 1.10926 4.66082 0
M  V30 827 H 73.6331 0.495149 2.49841 0
M  V30 828 H 74.4161 2.15771 2.67016 0
M  V30 829 N 76.8612 -1.46375 0.584142 0
M  V30 830 C 78.1102 -2.01585 0.0679741 0
M  V30 831 C 78.4232 -1.46109 -1.30045 0
M  V30 832 O 79.6292 -1.93148 -1.90804 0
M  V30 833 C 78.0852 -3.5983 0.0709207 0
M  V30 834 C 77.6932 -4.24303 1.43775 0
M  V30 835 C 79.4372 -4.22693 -0.391228 0
M  V30 836 C 77.3442 -5.74631 1.39834 0
M  V30 837 H 76.2742 -0.753689 0.0216421 0
M  V30 838 H 78.9252 -1.68093 0.736001 0
M  V30 839 H 77.3072 -3.90405 -0.663299 0
M  V30 840 H 78.4812 -4.05335 2.19181 0
M  V30 841 H 76.7962 -3.73539 1.84004 0
M  V30 842 H 79.3932 -5.3289 -0.439524 0
M  V30 843 H 79.7362 -3.91728 -1.40906 0
M  V30 844 H 80.2692 -3.96749 0.288974 0
M  V30 845 H 77.0082 -6.10258 2.39303 0
M  V30 846 H 76.5282 -5.95858 0.686505 0
M  V30 847 H 78.2072 -6.37375 1.11187 0
M  V30 848 N 78.3393 -0.321999 -1.54275 0
M  V30 849 C 79.2723 0.58718 -2.20516 0
M  V30 850 C 80.2503 1.11693 -1.18167 0
M  V30 851 O 81.4343 1.18122 -1.46899 0
M  V30 852 C 78.5613 1.80554 -2.86562 0
M  V30 853 C 77.6073 1.40718 -4.02617 0
M  V30 854 S 78.4403 0.445218 -5.33646 0
M  V30 855 C 79.5963 1.6709 -6.03185 0
M  V30 856 H 79.8293 0.0244875 -2.9729 0
M  V30 857 H 77.3623 -0.106087 -1.54035 0
M  V30 858 H 79.3203 2.50462 -3.25237 0
M  V30 859 H 77.9813 2.33942 -2.09595 0
M  V30 860 H 77.1743 2.31501 -4.47687 0
M  V30 861 H 76.7763 0.78782 -3.65608 0
M  V30 862 H 79.0683 2.60856 -6.25268 0
M  V30 863 H 80.0113 1.26239 -6.96756 0
M  V30 864 H 80.4193 1.85716 -5.33076 0
M  V30 865 N 79.8174 1.5752 -0.0501392 0
M  V30 866 C 81.2284 1.80271 0.485705 0
M  V30 867 C 81.5794 0.96228 1.70981 0
M  V30 868 O 80.7044 0.178578 2.15662 0
M  V30 869 C 81.2994 3.26957 0.887938 0
M  V30 870 C 79.8584 3.5063 1.36877 0
M  V30 871 C 79.0054 2.75165 0.343468 0
M  V30 872 H 81.9564 1.56281 -0.276028 0
M  V30 873 H 81.9774 3.37821 1.75093 0
M  V30 874 H 81.4894 3.881 -0.0031809 0
M  V30 875 H 79.5904 2.94766 2.27911 0
M  V30 876 H 79.7034 4.59343 1.36164 0
M  V30 877 H 78.0674 2.4127 0.816128 0
M  V30 878 H 78.8504 3.39034 -0.539548 0
M  V30 879 N 81.2955 -0.223234 1.56011 0
M  V30 880 C 82.2585 -1.26014 1.9145 0
M  V30 881 C 83.2585 -1.3989 0.792937 0
M  V30 882 O 84.4485 -1.38184 1.0607 0
M  V30 883 C 81.5805 -2.63422 2.16383 0
M  V30 884 H 82.7735 -0.95796 2.84189 0
M  V30 885 H 80.3265 -0.463576 1.49267 0
M  V30 886 H 81.0615 -2.98741 1.2619 0
M  V30 887 H 80.8465 -2.54728 2.98088 0
M  V30 888 H 82.3365 -3.38249 2.44903 0
M  V30 889 N 82.7736 -1.49793 -0.48987 0
M  V30 890 C 84.0226 -1.59085 -1.23995 0
M  V30 891 C 84.3356 -0.287907 -1.9347 0
M  V30 892 O 85.5416 -0.259506 -2.70257 0
M  V30 893 C 83.9976 -2.80736 -2.252 0
M  V30 894 C 83.6056 -4.17833 -1.61614 0
M  V30 895 C 85.3496 -2.99364 -3.00967 0
M  V30 896 C 83.2566 -5.30693 -2.60996 0
M  V30 897 H 82.1866 -0.592372 -0.466488 0
M  V30 898 H 84.8376 -1.76197 -0.51252 0
M  V30 899 H 83.2196 -2.57142 -3.01154 0
M  V30 900 H 84.3936 -4.51608 -0.915774 0
M  V30 901 H 82.7086 -4.04656 -0.981977 0
M  V30 902 H 85.3056 -3.80851 -3.75308 0
M  V30 903 H 85.6486 -2.10356 -3.59244 0
M  V30 904 H 86.1816 -3.2305 -2.32128 0
M  V30 905 H 82.9206 -6.21796 -2.07485 0
M  V30 906 H 82.4406 -5.01359 -3.2924 0
M  V30 907 H 84.1196 -5.6049 -3.23202 0
M  V30 908 N 84.2517 0.741722 -1.39055 0
M  V30 909 C 85.4767 1.53607 -1.39354 0
M  V30 910 C 85.9017 1.88096 0.0116905 0
M  V30 911 O 85.2597 1.5143 0.996924 0
M  V30 912 C 85.3077 2.80441 -2.26682 0
M  V30 913 O 84.4117 3.76088 -1.69208 0
M  V30 914 H 83.7527 0.464142 -0.474835 0
M  V30 915 H 86.2827 0.915665 -1.82967 0
M  V30 916 H 86.2927 3.29246 -2.40959 0
M  V30 917 H 84.9677 2.5467 -3.2881 0
M  V30 918 H 83.5447 3.34833 -1.64138 0
M  V30 919 N 85.7298 1.2412 0.971189 0
M  V30 920 C 86.6598 1.05508 2.08304 0
M  V30 921 C 87.6408 -0.0308864 1.70072 0
M  V30 922 O 88.8258 0.135521 1.93727 0
M  V30 923 C 85.9558 0.655365 3.4106 0
M  V30 924 C 84.9098 1.68971 3.93234 0
M  V30 925 C 84.2358 1.14516 5.22293 0
M  V30 926 C 85.5358 3.08487 4.21465 0
M  V30 927 H 87.2298 1.98507 2.24132 0
M  V30 928 H 84.7758 0.955821 1.07704 0
M  V30 929 H 86.7288 0.51217 4.18276 0
M  V30 930 H 85.4528 -0.31032 3.25122 0
M  V30 931 H 84.1118 1.82106 3.18171 0
M  V30 932 H 83.7598 0.170189 5.02712 0
M  V30 933 H 83.4598 1.83635 5.58168 0
M  V30 934 H 84.9838 1.01401 6.02121 0
M  V30 935 H 86.3978 2.98601 4.89398 0
M  V30 936 H 84.7948 3.74926 4.68562 0
M  V30 937 H 85.8648 3.56787 3.28376 0
M  V30 938 N 87.2079 -1.17134 1.05439 0
M  V30 939 C 88.6239 -1.39454 0.776201 0
M  V30 940 C 88.8239 -1.91454 -0.628307 0
M  V30 941 O 87.8799 -2.10777 -1.39031 0
M  V30 942 C 89.1929 -2.38305 1.83388 0
M  V30 943 C 90.7409 -2.52006 1.85639 0
M  V30 944 C 91.2159 -3.54133 2.90437 0
M  V30 945 N 92.7069 -3.61653 2.89415 0
M  V30 946 C 93.4419 -4.4044 3.67152 0
M  V30 947 N 92.9379 -5.22721 4.54681 0
M  V30 948 N 94.7309 -4.35337 3.55581 0
M  V30 949 H 86.8819 -0.817134 1.96053 0
M  V30 950 H 89.1449 -0.421626 0.849079 0
M  V30 951 H 88.8509 -2.07173 2.84204 0
M  V30 952 H 88.7249 -3.37841 1.67761 0
M  V30 953 H 91.1119 -2.82447 0.85486 0
M  V30 954 H 91.1929 -1.52537 2.05344 0
M  V30 955 H 90.8369 -3.24431 3.90777 0
M  V30 956 H 90.7669 -4.53313 2.67983 0
M  V30 957 H 93.2579 -3.02909 2.25952 0
M  V30 958 H 93.5709 -5.80027 5.10674 0
M  V30 959 H 91.9159 -5.22093 4.58741 0
M  V30 960 H 95.1069 -3.70112 2.86592 0
M  V30 961 H 95.2799 -4.96494 4.1641 0
M  V30 962 N 88.686 -0.835752 -1.33615 0
M  V30 963 C 89.596 -0.269088 -2.33052 0
M  V30 964 C 90.612 0.603251 -1.63208 0
M  V30 965 O 91.788 0.508112 -1.94885 0
M  V30 966 C 88.853 0.549091 -3.42324 0
M  V30 967 C 87.914 -0.347156 -4.27894 0
M  V30 968 C 87.147 0.43207 -5.31948 0
M  V30 969 O 87.37 1.66409 -5.45586 0
M  V30 970 O 86.304 -0.192298 -6.01593 0
M  V30 971 H 90.13 -1.09243 -2.83372 0
M  V30 972 H 87.715 -0.598198 -1.36901 0
M  V30 973 H 89.597 1.01414 -4.09015 0
M  V30 974 H 88.272 1.34955 -2.94226 0
M  V30 975 H 87.179 -0.859979 -3.64081 0
M  V30 976 H 88.512 -1.1123 -4.79467 0
M  V30 977 N 90.1641 1.46063 -0.591896 0
M  V30 978 C 91.4131 2.01547 -0.0786637 0
M  V30 979 C 91.7261 1.46796 1.29268 0
M  V30 980 O 92.9321 1.94157 1.89777 0
M  V30 981 C 91.3881 3.59787 -0.0900024 0
M  V30 982 C 90.9961 4.23534 -1.46023 0
M  V30 983 C 92.7401 4.22895 0.368806 0
M  V30 984 C 90.6471 5.73881 -1.4288 0
M  V30 985 H 89.5771 0.753564 -0.0256388 0
M  V30 986 H 92.2281 1.677 -0.744905 0
M  V30 987 H 90.6101 3.90752 0.642586 0
M  V30 988 H 91.7841 4.04167 -2.21328 0
M  V30 989 H 90.0991 3.72558 -1.85982 0
M  V30 990 H 92.6961 5.33116 0.411258 0
M  V30 991 H 93.0391 3.9247 1.38827 0
M  V30 992 H 93.5721 3.9659 -0.31001 0
M  V30 993 H 90.3111 6.0898 -2.42536 0
M  V30 994 H 89.8311 5.95486 -0.718095 0
M  V30 995 H 91.5101 6.36776 -1.14565 0
M  V30 996 N 91.6422 0.330177 1.54103 0
M  V30 997 C 92.8912 -0.271336 1.99867 0
M  V30 998 C 93.2042 -1.52723 1.22209 0
M  V30 999 O 94.4102 -2.20515 1.58383 0
M  V30 1000 C 92.8662 -0.534032 3.55916 0
M  V30 1001 C 92.4742 0.705193 4.42415 0
M  V30 1002 C 94.2182 -1.09514 4.1013 0
M  V30 1003 C 92.1252 0.414035 5.89949 0
M  V30 1004 H 91.0552 -0.105166 0.74663 0
M  V30 1005 H 93.7062 0.443429 1.78062 0
M  V30 1006 H 92.0882 -1.30915 3.73734 0
M  V30 1007 H 93.2622 1.4804 4.36372 0
M  V30 1008 H 91.5772 1.18698 3.99124 0
M  V30 1009 H 94.1742 -1.3277 5.17954 0
M  V30 1010 H 94.5172 -2.04656 3.62521 0
M  V30 1011 H 95.0502 -0.381038 3.95971 0
M  V30 1012 H 91.7892 1.33481 6.41766 0
M  V30 1013 H 91.3092 -0.323336 5.98928 0
M  V30 1014 H 92.9882 0.0263105 6.46995 0
M  V30 1015 N 93.1203 -1.57491 0.0584922 0
M  V30 1016 C 94.0303 -2.15448 -0.928414 0
M  V30 1017 C 95.0463 -1.11416 -1.3365 0
M  V30 1018 O 96.2223 -1.4362 -1.41193 0
M  V30 1019 C 93.2873 -2.69393 -2.18239 0
M  V30 1020 C 92.3483 -3.88249 -1.83196 0
M  V30 1021 C 91.5813 -4.39613 -3.02616 0
M  V30 1022 O 91.8043 -3.90023 -4.16219 0
M  V30 1023 O 90.7383 -5.31111 -2.83204 0
M  V30 1024 H 94.5643 -3.00112 -0.465483 0
M  V30 1025 H 92.1493 -1.48499 -0.163826 0
M  V30 1026 H 94.0313 -3.04026 -2.91798 0
M  V30 1027 H 92.7063 -1.87796 -2.63656 0
M  V30 1028 H 91.6133 -3.58492 -1.06931 0
M  V30 1029 H 92.9463 -4.71098 -1.42573 0
M  V30 1030 N 94.5984 0.214957 -1.56127 0
M  V30 1031 C 95.5084 1.28727 -1.96129 0
M  V30 1032 C 96.5244 1.50916 -0.866044 0
M  V30 1033 O 97.7004 1.63918 -1.17016 0
M  V30 1034 C 94.7654 2.61569 -2.27558 0
M  V30 1035 C 93.8264 2.47625 -3.50685 0
M  V30 1036 C 93.0594 3.74132 -3.80606 0
M  V30 1037 O 93.2824 4.77438 -3.12104 0
M  V30 1038 O 92.2164 3.70849 -4.74083 0
M  V30 1039 H 96.0424 0.977855 -2.87527 0
M  V30 1040 H 93.6274 0.418358 -1.43423 0
M  V30 1041 H 95.5094 3.40012 -2.48938 0
M  V30 1042 H 94.1844 2.92178 -1.39332 0
M  V30 1043 H 93.0914 1.67361 -3.34576 0
M  V30 1044 H 94.4244 2.21954 -4.39315 0
M  V30 1045 N 96.0765 1.50051 0.48192 0
M  V30 1046 C 97.0395 1.67584 1.5636 0
M  V30 1047 C 98.0395 0.546894 1.51214 0
M  V30 1048 O 99.2295 0.813725 1.54026 0
M  V30 1049 C 96.3615 1.691 2.96003 0
M  V30 1050 H 97.5545 2.64078 1.42136 0
M  V30 1051 H 95.1075 1.39369 0.707533 0
M  V30 1052 H 95.8425 0.742589 3.15684 0
M  V30 1053 H 95.6275 2.51105 3.01146 0
M  V30 1054 H 97.1175 1.84656 3.74556 0
M  V30 1055 N 97.5546 -0.734337 1.39446 0
M  V30 1056 C 98.7846 -1.52137 1.39778 0
M  V30 1057 C 99.1926 -1.89198 -0.00929312 0
M  V30 1058 O 98.5356 -1.54666 -0.991168 0
M  V30 1059 C 98.5976 -2.83762 2.20724 0
M  V30 1060 C 98.2616 -2.69131 3.69347 0
M  V30 1061 C 99.2586 -2.37635 4.62413 0
M  V30 1062 C 96.9436 -2.85982 4.1294 0
M  V30 1063 C 98.9376 -2.23172 5.97054 0
M  V30 1064 C 96.6246 -2.71137 5.47657 0
M  V30 1065 C 97.6226 -2.39777 6.39528 0
M  V30 1066 O 97.3106 -2.25026 7.71763 0
M  V30 1067 H 97.0426 -0.476717 0.479288 0
M  V30 1068 H 99.5966 -0.915012 1.83893 0
M  V30 1069 H 97.8266 -3.4666 1.71359 0
M  V30 1070 H 99.5156 -3.45383 2.13226 0
M  V30 1071 H 100.282 -2.24267 4.30034 0
M  V30 1072 H 96.1606 -3.09383 3.41765 0
M  V30 1073 H 99.7046 -1.98617 6.68728 0
M  V30 1074 H 95.6016 -2.84083 5.79626 0
M  V30 1075 H 96.3696 -2.40091 7.82495 0
M  V30 1076 N 99.0327 -1.24633 -0.964593 0
M  V30 1077 C 99.9647 -0.999302 -2.06268 0
M  V30 1078 C 100.978 0.0323226 -1.62768 0
M  V30 1079 O 102.167 -0.205079 -1.77318 0
M  V30 1080 C 99.2667 -0.486816 -3.35385 0
M  V30 1081 C 98.4397 -1.5823 -4.07777 0
M  V30 1082 C 97.4987 -1.07191 -5.15166 0
M  V30 1083 O 96.5247 -1.76426 -5.41168 0
M  V30 1084 N 97.7267 0.0920373 -5.80427 0
M  V30 1085 H 100.492 -1.94477 -2.28033 0
M  V30 1086 H 98.0527 -1.15704 -1.13244 0
M  V30 1087 H 100.045 -0.130066 -4.04491 0
M  V30 1088 H 98.6147 0.364459 -3.10468 0
M  V30 1089 H 97.8347 -2.11109 -3.32906 0
M  V30 1090 H 99.1227 -2.31854 -4.52903 0
M  V30 1091 H 98.5207 0.670784 -5.61709 0
M  V30 1092 H 97.0777 0.389905 -6.50633 0
M  V30 1093 N 100.511 1.16574 -1.06058 0
M  V30 1094 C 101.736 1.91493 -0.796562 0
M  V30 1095 C 102.161 1.76773 0.642868 0
M  V30 1096 O 101.519 1.09142 1.44768 0
M  V30 1097 C 101.567 3.40293 -1.19303 0
M  V30 1098 O 100.671 4.11074 -0.330394 0
M  V30 1099 H 100.012 0.596678 -0.291326 0
M  V30 1100 H 102.542 1.47708 -1.41575 0
M  V30 1101 H 102.552 3.91057 -1.16356 0
M  V30 1102 H 101.227 3.50326 -2.24153 0
M  V30 1103 H 99.8038 3.70513 -0.421225 0
M  V30 1104 N 101.989 0.842826 1.3317 0
M  V30 1105 C 102.937 0.267495 2.31057 0
M  V30 1106 C 103.931 -0.602682 1.58316 0
M  V30 1107 O 105.137 -0.491803 1.73151 0
M  V30 1108 H 101.512 0.0677813 0.748939 0
M  V30 1109 H 103.483 1.10754 2.77085 0
M  V30 1110 C 102.232 -0.539331 3.43492 0
M  V30 1111 H 101.555 0.12095 3.99617 0
M  V30 1112 H 102.995 -0.90767 4.14171 0
M  V30 1113 C 101.454 -1.71981 2.89697 0
M  V30 1114 O 101.984 -2.81862 2.86211 0
M  V30 1115 N 100.19 -1.54299 2.46252 0
M  V30 1116 H 99.7369 -0.649143 2.49287 0
M  V30 1117 H 99.6949 -2.33431 2.10612 0
M  V30 1118 N 103.467 -1.45747 0.599634 0
M  V30 1119 C 104.878 -1.85853 0.177681 0
M  V30 1120 C 105.229 -1.50102 -1.26348 0
M  V30 1121 O 104.354 -0.923905 -1.95686 0
M  V30 1122 C 104.949 -3.37326 0.315688 0
M  V30 1123 C 103.508 -3.76365 -0.0515144 0
M  V30 1124 C 102.655 -2.69722 0.643822 0
M  V30 1125 H 105.606 -1.36661 0.806814 0
M  V30 1126 H 105.627 -3.77778 -0.454321 0
M  V30 1127 H 105.139 -3.63315 1.36468 0
M  V30 1128 H 103.24 -3.55993 -1.09999 0
M  V30 1129 H 103.353 -4.77916 0.336594 0
M  V30 1130 H 101.717 -2.54567 0.0822881 0
M  V30 1131 H 102.5 -2.98549 1.6948 0
M  V30 1132 N 104.945 -0.338344 -1.53925 0
M  V30 1133 C 106.17 0.263987 -2.05713 0
M  V30 1134 C 106.595 1.43847 -1.21201 0
M  V30 1135 O 105.953 1.79904 -0.224535 0
M  V30 1136 C 106.001 0.662 -3.54471 0
M  V30 1137 O 105.105 1.76265 -3.72833 0
M  V30 1138 H 104.446 0.0448722 -0.662482 0
M  V30 1139 H 106.976 -0.491048 -1.9862 0
M  V30 1140 H 106.986 0.940594 -3.9701 0
M  V30 1141 H 105.661 -0.196937 -4.15433 0
M  V30 1142 H 104.238 1.48173 -3.42198 0
M  V30 1143 N 106.423 1.57458 -0.0668435 0
M  V30 1144 C 107.672 1.92477 0.602947 0
M  V30 1145 C 107.985 0.948419 1.71068 0
M  V30 1146 O 109.191 1.19124 2.43971 0
M  V30 1147 C 107.647 3.41903 1.12383 0
M  V30 1148 C 107.255 4.47975 0.04737 0
M  V30 1149 C 108.999 3.85931 1.76797 0
M  V30 1150 C 106.906 5.88529 0.582022 0
M  V30 1151 H 105.836 0.718387 0.22899 0
M  V30 1152 H 108.487 1.82978 -0.138276 0
M  V30 1153 H 106.869 3.46459 1.91787 0
M  V30 1154 H 108.043 4.55029 -0.726978 0
M  V30 1155 H 106.358 4.13384 -0.500243 0
M  V30 1156 H 108.955 4.88322 2.17821 0
M  V30 1157 H 109.298 3.23029 2.62599 0
M  V30 1158 H 109.831 3.83958 1.04024 0
M  V30 1159 H 106.57 6.55065 -0.238721 0
M  V30 1160 H 106.09 5.85004 1.324 0
M  V30 1161 H 107.769 6.38258 1.05999 0
M  V30 1162 N 107.901 -0.206675 1.56239 0
M  V30 1163 C 109.15 -0.926964 1.79138 0
M  V30 1164 C 109.463 -1.84901 0.638043 0
M  V30 1165 O 110.669 -2.60906 0.751033 0
M  V30 1166 C 109.125 -1.6986 3.17294 0
M  V30 1167 C 108.733 -0.821956 4.40395 0
M  V30 1168 C 110.477 -2.40922 3.4951 0
M  V30 1169 C 108.384 -1.59179 5.69575 0
M  V30 1170 H 107.314 -0.349864 0.667915 0
M  V30 1171 H 109.965 -0.180487 1.8261 0
M  V30 1172 H 108.347 -2.48853 3.08039 0
M  V30 1173 H 109.521 -0.0715019 4.60745 0
M  V30 1174 H 107.836 -0.222741 4.15804 0
M  V30 1175 H 110.433 -2.99047 4.43255 0
M  V30 1176 H 110.776 -3.14542 2.72707 0
M  V30 1177 H 111.309 -1.68905 3.60161 0
M  V30 1178 H 108.048 -0.898589 6.49312 0
M  V30 1179 H 107.568 -2.31648 5.53262 0
M  V30 1180 H 109.247 -2.14862 6.10281 0
M  V30 1181 N 109.379 -1.50304 -0.473955 0
M  V30 1182 C 110.656 -1.51667 -1.23518 0
M  V30 1183 C 111.036 -0.259701 -2.09496 0
M  V30 1184 O 110.384 0.756986 -2.15597 0
M  V30 1185 C 110.594 -2.81082 -2.06868 0
M  V30 1186 C 111.942 -3.31631 -2.65153 0
M  V30 1187 O 112.966 -2.82384 -2.17113 0
M  V30 1188 O 111.825 -4.17471 -3.52675 0
M  V30 1189 H 108.919 -0.60822 -0.560355 0
M  V30 1190 H 111.465 -1.62592 -0.486011 0
M  V30 1191 H 110.237 -3.64041 -1.4349 0
M  V30 1192 H 109.86 -2.73146 -2.88924 0
M  V30 1193 N 110.857 0.726932 -1.39834 0
M  V30 1194 C 112.097 1.4992 -1.38936 0
M  V30 1195 C 112.461 1.91996 0.0126883 0
M  V30 1196 O 113.662 2.68399 0.146715 0
M  V30 1197 C 111.933 2.70013 -2.34153 0
M  V30 1198 S 113.492 3.59563 -2.51515 0
M  V30 1199 H 110.31 0.51271 -0.492595 0
M  V30 1200 H 112.912 0.85107 -1.76003 0
M  V30 1201 H 111.616 2.37254 -3.34871 0
M  V30 1202 H 111.147 3.39748 -1.98331 0
M  V30 1203 H 113.162 4.63973 -1.75909 0
M  V30 1204 N 112.336 1.25143 0.95797 0
M  V30 1205 C 113.299 1.05321 2.03569 0
M  V30 1206 C 114.299 0.007152 1.60798 0
M  V30 1207 O 115.489 0.24903 1.72411 0
M  V30 1208 C 112.621 0.598394 3.35607 0
M  V30 1209 H 113.814 2.00986 2.22586 0
M  V30 1210 H 111.367 1.07502 1.13459 0
M  V30 1211 H 112.102 -0.361014 3.22284 0
M  V30 1212 H 111.887 1.35351 3.67998 0
M  V30 1213 H 113.377 0.48104 4.1482 0
M  V30 1214 N 113.814 -1.1601 1.06675 0
M  V30 1215 C 114.777 -2.18724 0.685001 0
M  V30 1216 C 115.777 -1.58496 -0.271246 0
M  V30 1217 O 116.967 -1.74119 -0.0531156 0
M  V30 1218 C 114.099 -3.40899 0.00853648 0
M  V30 1219 H 115.292 -2.54011 1.59431 0
M  V30 1220 H 112.845 -1.30352 0.862441 0
M  V30 1221 H 113.58 -3.11173 -0.913337 0
M  V30 1222 H 113.365 -3.8587 0.696204 0
M  V30 1223 H 114.855 -4.16886 -0.24414 0
M  V30 1224 N 115.292 -0.849877 -1.32721 0
M  V30 1225 C 116.532 -0.457146 -1.99222 0
M  V30 1226 C 116.896 0.968038 -1.6581 0
M  V30 1227 O 118.097 1.46507 -2.25364 0
M  V30 1228 C 116.368 -0.683966 -3.50794 0
M  V30 1229 S 117.927 -0.388095 -4.3708 0
M  V30 1230 H 114.745 -0.171464 -0.690015 0
M  V30 1231 H 117.347 -1.10155 -1.61512 0
M  V30 1232 H 116.051 -1.72038 -3.726 0
M  V30 1233 H 115.582 -0.0258086 -3.93392 0
M  V30 1234 H 117.597 0.787791 -4.89906 0
M  V30 1235 N 116.77 1.45427 -0.607355 0
M  V30 1236 C 118.047 1.9557 -0.0344566 0
M  V30 1237 C 118.427 1.54979 1.43334 0
M  V30 1238 O 117.775 0.812241 2.13576 0
M  V30 1239 C 117.985 3.48226 -0.232321 0
M  V30 1240 C 119.333 4.2445 -0.113001 0
M  V30 1241 O 120.357 3.55829 -0.162431 0
M  V30 1242 O 119.216 5.465 0.00209442 0
M  V30 1243 H 116.31 0.826222 0.0358667 0
M  V30 1244 H 118.856 1.55594 -0.6774 0
M  V30 1245 H 117.628 3.70739 -1.25174 0
M  V30 1246 H 117.251 3.95092 0.445896 0
M  V30 1247 N 118.248 0.346503 1.53744 0
M  V30 1248 C 119.497 -0.250122 2.00143 0
M  V30 1249 C 119.81 -1.51418 1.23822 0
M  V30 1250 O 121.016 -2.18823 1.60713 0
M  V30 1251 C 119.472 -0.496252 3.56462 0
M  V30 1252 C 119.08 0.752077 4.41642 0
M  V30 1253 C 120.824 -1.05157 4.11269 0
M  V30 1254 C 118.731 0.476583 5.89477 0
M  V30 1255 H 117.661 -0.0972409 0.747703 0
M  V30 1256 H 120.312 0.46229 1.77581 0
M  V30 1257 H 118.694 -1.26944 3.75102 0
M  V30 1258 H 119.868 1.5266 4.34778 0
M  V30 1259 H 118.183 1.22925 3.97842 0
M  V30 1260 H 120.78 -1.27269 5.19333 0
M  V30 1261 H 121.123 -2.00799 3.64672 0
M  V30 1262 H 121.656 -0.339019 3.96353 0
M  V30 1263 H 118.395 1.4028 6.40314 0
M  V30 1264 H 117.915 -0.259794 5.99237 0
M  V30 1265 H 119.594 0.0949315 6.4693 0
M  V30 1266 N 119.726 -1.57421 0.075193 0
M  V30 1267 C 120.658 -2.09904 -0.920483 0
M  V30 1268 C 121.671 -1.03191 -1.25918 0
M  V30 1269 O 122.86 -1.30695 -1.21577 0
M  V30 1270 C 119.96 -2.54726 -2.23534 0
M  V30 1271 C 119.133 -3.8505 -2.07498 0
M  V30 1272 C 118.192 -4.15929 -3.22319 0
M  V30 1273 O 117.218 -4.85474 -2.9716 0
M  V30 1274 N 118.42 -3.69745 -4.47514 0
M  V30 1275 H 121.185 -2.95954 -0.472359 0
M  V30 1276 H 118.746 -1.61523 -0.110444 0
M  V30 1277 H 120.738 -2.72443 -2.9926 0
M  V30 1278 H 119.308 -1.73795 -2.59835 0
M  V30 1279 H 118.528 -3.76679 -1.16219 0
M  V30 1280 H 119.816 -4.70348 -1.94038 0
M  V30 1281 H 119.214 -3.13569 -4.7084 0
M  V30 1282 H 117.771 -3.92655 -5.20255 0
M  V30 1283 N 121.204 0.198386 -1.56346 0
M  V30 1284 C 122.167 1.22952 -1.93431 0
M  V30 1285 C 123.167 1.38611 -0.815092 0
M  V30 1286 O 124.357 1.36479 -1.08255 0
M  V30 1287 C 121.489 2.59946 -2.20546 0
M  V30 1288 H 122.682 0.912626 -2.85677 0
M  V30 1289 H 120.235 0.43977 -1.49986 0
M  V30 1290 H 120.97 2.96696 -1.30927 0
M  V30 1291 H 120.755 2.49953 -3.02102 0
M  V30 1292 H 122.245 3.3431 -2.50253 0
M  V30 1293 N 122.682 1.50554 0.465978 0
M  V30 1294 C 123.928 1.62038 1.21949 0
M  V30 1295 C 124.261 0.322116 1.9151 0
M  V30 1296 O 123.536 -0.676723 1.82348 0
M  V30 1297 C 123.819 2.80421 2.25912 0
M  V30 1298 C 123.672 4.20144 1.60622 0
M  V30 1299 C 124.991 2.94354 3.27176 0
M  V30 1300 H 122.11 0.589752 0.441998 0
M  V30 1301 H 124.752 1.82956 0.51257 0
M  V30 1302 H 122.902 2.62717 2.86203 0
M  V30 1303 H 124.574 4.49449 1.03889 0
M  V30 1304 H 122.817 4.24165 0.909211 0
M  V30 1305 H 123.488 4.98914 2.36196 0
M  V30 1306 H 125.964 3.10578 2.76913 0
M  V30 1307 H 124.84 3.788 3.97242 0
M  V30 1308 H 125.101 2.05186 3.916 0
M  V30 1309 N 124.16 -0.719506 1.40217 0
M  V30 1310 C 125.576 -1.02707 1.22161 0
M  V30 1311 C 125.776 -2.0128 0.0940557 0
M  V30 1312 O 124.832 -2.46452 -0.549318 0
M  V30 1313 C 126.145 -1.57454 2.56181 0
M  V30 1314 C 127.693 -1.69458 2.63159 0
M  V30 1315 C 128.168 -2.27611 3.97438 0
M  V30 1316 N 129.659 -2.35002 3.99159 0
M  V30 1317 C 130.394 -2.80972 4.99842 0
M  V30 1318 N 129.89 -3.26723 6.10921 0
M  V30 1319 N 131.683 -2.80321 4.87213 0
M  V30 1320 H 123.834 -0.0660492 2.12297 0
M  V30 1321 H 126.097 -0.0919077 0.943534 0
M  V30 1322 H 125.803 -0.924873 3.39321 0
M  V30 1323 H 125.677 -2.56036 2.76993 0
M  V30 1324 H 128.064 -2.33543 1.80393 0
M  V30 1325 H 128.145 -0.694867 2.46181 0
M  V30 1326 H 127.789 -1.6415 4.80643 0
M  V30 1327 H 127.719 -3.2829 4.11744 0
M  V30 1328 H 130.21 -2.02685 3.18947 0
M  V30 1329 H 130.523 -3.60355 6.8364 0
M  V30 1330 H 128.868 -3.24692 6.14492 0
M  V30 1331 H 132.059 -2.43912 3.9953 0
M  V30 1332 H 132.232 -3.15831 5.65822 0
M  V30 1333 N 125.638 -1.25649 -0.95132 0
M  V30 1334 C 126.588 -1.03004 -2.03406 0
M  V30 1335 C 127.572 0.034187 -1.60864 0
M  V30 1336 O 128.764 -0.181549 -1.76066 0
M  V30 1337 C 125.893 -0.654255 -3.37008 0
M  V30 1338 C 124.979 -1.75542 -3.86065 0
M  V30 1339 N 125.37 -2.99113 -4.07879 0
M  V30 1340 C 123.668 -1.63669 -4.14884 0
M  V30 1341 C 124.369 -3.70611 -4.48356 0
M  V30 1342 N 123.345 -2.98247 -4.54477 0
M  V30 1343 H 127.147 -1.96813 -2.1827 0
M  V30 1344 H 124.661 -1.16017 -1.13639 0
M  V30 1345 H 126.658 -0.473206 -4.14206 0
M  V30 1346 H 125.318 0.276468 -3.23521 0
M  V30 1347 H 126.329 -3.35124 -3.94857 0
M  V30 1348 H 123.006 -0.775161 -4.10241 0
M  V30 1349 H 124.396 -4.76695 -4.73509 0
M  V30 1350 N 127.117 1.15442 -1.07289 0
M  V30 1351 C 128.533 1.38201 -0.798288 0
M  V30 1352 C 128.733 1.92429 0.597769 0
M  V30 1353 O 127.789 2.12962 1.3566 0
M  V30 1354 C 129.102 2.35357 -1.87156 0
M  V30 1355 C 130.65 2.49021 -1.89624 0
M  V30 1356 C 131.125 3.49468 -2.96034 0
M  V30 1357 N 132.616 3.57003 -2.95132 0
M  V30 1358 C 133.351 4.34543 -3.74112 0
M  V30 1359 N 132.847 5.15421 -4.6294 0
M  V30 1360 N 134.64 4.29625 -3.62462 0
M  V30 1361 H 126.791 0.78584 -1.97328 0
M  V30 1362 H 129.054 0.408065 -0.855679 0
M  V30 1363 H 128.76 2.02626 -2.87464 0
M  V30 1364 H 128.634 3.35129 -1.73114 0
M  V30 1365 H 131.021 2.81051 -0.899687 0
M  V30 1366 H 131.102 1.4925 -2.07745 0
M  V30 1367 H 130.746 3.18173 -3.95889 0
M  V30 1368 H 130.676 4.48992 -2.75161 0
M  V30 1369 H 133.167 2.99276 -2.30743 0
M  V30 1370 H 133.48 5.7183 -5.19837 0
M  V30 1371 H 131.825 5.14729 -4.66989 0
M  V30 1372 H 135.016 3.65505 -2.92444 0
M  V30 1373 H 135.189 4.89807 -4.24256 0
M  V30 1374 N 128.595 0.856903 1.32268 0
M  V30 1375 C 129.872 0.382583 1.91822 0
M  V30 1376 C 130.252 -1.13407 1.78051 0
M  V30 1377 O 129.6 -1.95673 1.18001 0
M  V30 1378 C 129.81 0.849446 3.38505 0
M  V30 1379 C 131.158 0.867936 4.15634 0
M  V30 1380 O 132.182 0.794232 3.47232 0
M  V30 1381 O 131.041 0.972286 5.37781 0
M  V30 1382 H 128.135 0.112014 0.819379 0
M  V30 1383 H 130.681 0.943952 1.41024 0
M  V30 1384 H 129.453 1.89267 3.42482 0
M  V30 1385 H 129.076 0.265652 3.96712 0
M  V30 1386 N 130.073 -1.45103 0.615059 0
M  V30 1387 C 131.484 -1.85654 0.197383 0
M  V30 1388 C 131.835 -1.51433 -1.24749 0
M  V30 1389 O 130.96 -0.944608 -1.94695 0
M  V30 1390 C 131.555 -3.36972 0.351448 0
M  V30 1391 C 130.114 -3.76398 -0.011593 0
M  V30 1392 C 129.261 -2.69024 0.672394 0
M  V30 1393 H 132.212 -1.35797 0.821263 0
M  V30 1394 H 132.233 -3.78239 -0.414227 0
M  V30 1395 H 131.745 -3.61847 1.40314 0
M  V30 1396 H 129.846 -3.5714 -1.06217 0
M  V30 1397 H 129.959 -4.77532 0.387265 0
M  V30 1398 H 128.323 -2.54465 0.109284 0
M  V30 1399 H 129.106 -2.96735 1.72636 0
M  V30 1400 N 131.551 -0.354651 -1.53558 0
M  V30 1401 C 132.514 0.484566 -2.24019 0
M  V30 1402 C 133.514 1.01861 -1.24422 0
M  V30 1403 O 134.704 0.906097 -1.4878 0
M  V30 1404 C 131.836 1.67615 -2.96847 0
M  V30 1405 H 133.029 -0.131843 -2.9961 0
M  V30 1406 H 130.582 -0.106165 -1.55939 0
M  V30 1407 H 131.317 2.33095 -2.25471 0
M  V30 1408 H 131.102 1.30029 -3.69912 0
M  V30 1409 H 132.592 2.27114 -3.50441 0
M  V30 1410 N 133.029 1.57378 -0.0835403 0
M  V30 1411 C 134.275 1.94217 0.583733 0
M  V30 1412 C 134.608 0.964653 1.68547 0
M  V30 1413 O 133.883 -0.00422258 1.945 0
M  V30 1414 C 134.166 3.41253 1.14972 0
M  V30 1415 C 134.019 4.49768 0.0538277 0
M  V30 1416 C 135.338 3.89352 2.05166 0
M  V30 1417 H 132.457 0.706233 0.210724 0
M  V30 1418 H 135.099 1.89392 -0.1519 0
M  V30 1419 H 133.249 3.45496 1.77665 0
M  V30 1420 H 134.921 4.57641 -0.579851 0
M  V30 1421 H 133.164 4.29432 -0.614068 0
M  V30 1422 H 133.835 5.49817 0.490452 0
M  V30 1423 H 136.311 3.87189 1.52393 0
M  V30 1424 H 135.187 4.92822 2.41698 0
M  V30 1425 H 135.448 3.27973 2.96456 0
M  V30 1426 N 134.507 -0.190092 1.56449 0
M  V30 1427 C 135.417 -1.25591 1.98152 0
M  V30 1428 C 136.433 -1.49519 0.889944 0
M  V30 1429 O 137.609 -1.62036 1.19609 0
M  V30 1430 C 134.674 -2.57916 2.3169 0
M  V30 1431 C 133.735 -2.42015 3.5458 0
M  V30 1432 C 132.968 -3.6803 3.8651 0
M  V30 1433 O 133.191 -4.72413 3.1966 0
M  V30 1434 O 132.125 -3.6326 4.79923 0
M  V30 1435 H 135.951 -0.931988 2.89046 0
M  V30 1436 H 133.536 -0.395488 1.4407 0
M  V30 1437 H 135.418 -3.36008 2.54316 0
M  V30 1438 H 134.093 -2.89925 1.43963 0
M  V30 1439 H 133 -1.62017 3.37196 0
M  V30 1440 H 134.333 -2.14937 4.4279 0
M  V30 1441 N 135.985 -1.50799 -0.457987 0
M  V30 1442 C 136.915 -1.73553 -1.5621 0
M  V30 1443 C 137.896 -0.584774 -1.59732 0
M  V30 1444 O 139.081 -0.825314 -1.7579 0
M  V30 1445 C 136.211 -1.84169 -2.94447 0
M  V30 1446 C 135.165 -2.99461 -3.0579 0
M  V30 1447 C 134.491 -2.95235 -4.45803 0
M  V30 1448 C 135.791 -4.39766 -2.81786 0
M  V30 1449 H 137.485 -2.66 -1.37421 0
M  V30 1450 H 135.031 -1.28002 -0.659662 0
M  V30 1451 H 136.984 -1.98672 -3.71628 0
M  V30 1452 H 135.708 -0.883545 -3.14422 0
M  V30 1453 H 134.367 -2.8463 -2.31044 0
M  V30 1454 H 134.015 -1.97239 -4.62715 0
M  V30 1455 H 133.715 -3.72642 -4.54326 0
M  V30 1456 H 135.239 -3.11803 -5.24987 0
M  V30 1457 H 136.653 -4.55054 -3.4871 0
M  V30 1458 H 135.05 -5.18722 -3.0174 0
M  V30 1459 H 136.12 -4.51229 -1.7754 0
M  V30 1460 N 137.463 0.71206 -1.40597 0
M  V30 1461 C 138.709 1.47292 -1.40274 0
M  V30 1462 C 139.064 1.92399 -0.00576812 0
M  V30 1463 O 138.357 1.65507 0.965297 0
M  V30 1464 C 138.551 2.71039 -2.32965 0
M  V30 1465 C 138.38 2.38035 -3.81536 0
M  V30 1466 C 137.15 2.29203 -4.50327 0
M  V30 1467 C 139.348 2.02076 -4.72938 0
M  V30 1468 N 137.33 1.88911 -5.84111 0
M  V30 1469 C 138.701 1.72412 -5.95545 0
M  V30 1470 C 140.756 1.88742 -4.60739 0
M  V30 1471 C 139.459 1.30756 -7.07316 0
M  V30 1472 C 141.485 1.4849 -5.72455 0
M  V30 1473 C 140.847 1.19726 -6.94151 0
M  V30 1474 H 136.946 0.536919 -0.568544 0
M  V30 1475 H 139.53 0.825424 -1.76337 0
M  V30 1476 H 137.701 3.33533 -1.99023 0
M  V30 1477 H 139.433 3.37404 -2.23474 0
M  V30 1478 H 136.188 2.47059 -4.04053 0
M  V30 1479 H 136.612 1.71293 -6.54972 0
M  V30 1480 H 141.254 2.0964 -3.67166 0
M  V30 1481 H 138.972 1.08601 -8.00769 0
M  V30 1482 H 142.558 1.38747 -5.65014 0
M  V30 1483 H 141.438 0.890482 -7.79128 0
M  V30 1484 N 138.941 1.26152 0.944643 0
M  V30 1485 C 140.166 1.14363 1.7302 0
M  V30 1486 C 140.591 -0.29772 1.85729 0
M  V30 1487 O 139.949 -1.2157 1.34501 0
M  V30 1488 C 139.997 1.81378 3.11664 0
M  V30 1489 O 139.101 1.10022 3.97453 0
M  V30 1490 H 138.442 0.398694 0.53098 0
M  V30 1491 H 140.972 1.66906 1.18337 0
M  V30 1492 H 140.982 1.88064 3.62072 0
M  V30 1493 H 139.657 2.86237 3.0173 0
M  V30 1494 H 138.234 1.11287 3.55907 0
M  V30 1495 N 140.419 -1.14872 1.07899 0
M  V30 1496 C 141.647 -1.89661 0.82683 0
M  V30 1497 C 142.062 -1.78312 -0.620519 0
M  V30 1498 O 141.419 -1.13888 -1.42604 0
M  V30 1499 C 141.47 -3.39817 1.23316 0
M  V30 1500 O 141.191 -3.50845 2.62372 0
M  V30 1501 C 142.692 -4.31615 1.0111 0
M  V30 1502 H 139.912 -0.60092 0.298557 0
M  V30 1503 H 142.456 -1.4551 1.43691 0
M  V30 1504 H 140.611 -3.8161 0.667286 0
M  V30 1505 H 141.025 -4.44076 2.79101 0
M  V30 1506 H 142.499 -5.35367 1.34486 0
M  V30 1507 H 142.976 -4.39169 -0.0522168 0
M  V30 1508 H 143.582 -3.95572 1.56215 0
M  V30 1509 N 141.898 -0.863906 -1.31812 0
M  V30 1510 C 143.309 -0.52522 -1.7916 0
M  V30 1511 C 143.66 0.957518 -1.71248 0
M  V30 1512 O 142.785 1.74734 -1.27659 0
M  V30 1513 C 143.38 -0.9466 -3.25307 0
M  V30 1514 C 141.939 -0.659668 -3.70574 0
M  V30 1515 C 141.086 -1.14126 -2.52726 0
M  V30 1516 H 144.037 -1.05022 -1.1898 0
M  V30 1517 H 144.058 -0.266766 -3.79564 0
M  V30 1518 H 143.57 -2.02579 -3.31034 0
M  V30 1519 H 141.671 0.408416 -3.70355 0
M  V30 1520 H 141.784 -1.23245 -4.62977 0
M  V30 1521 H 140.148 -0.561216 -2.4844 0
M  V30 1522 H 140.931 -2.22775 -2.61201 0
M  V30 1523 N 143.376 1.44774 -0.622745 0
M  V30 1524 C 144.306 2.33382 0.0741861 0
M  V30 1525 C 145.287 1.47719 0.843387 0
M  V30 1526 O 146.472 1.76458 0.810934 0
M  V30 1527 C 143.602 3.30663 1.06204 0
M  V30 1528 C 142.556 4.26079 0.405037 0
M  V30 1529 C 141.882 5.13165 1.5022 0
M  V30 1530 C 143.182 5.1781 -0.683414 0
M  V30 1531 H 144.876 2.91905 -0.665713 0
M  V30 1532 H 142.422 1.40363 -0.321587 0
M  V30 1533 H 144.375 3.9153 1.55827 0
M  V30 1534 H 143.099 2.70331 1.83272 0
M  V30 1535 H 141.758 3.66532 -0.0704683 0
M  V30 1536 H 141.406 4.49191 2.26355 0
M  V30 1537 H 141.106 5.77812 1.06803 0
M  V30 1538 H 142.63 5.76902 2.00041 0
M  V30 1539 H 144.044 5.72661 -0.270631 0
M  V30 1540 H 142.441 5.91015 -1.04023 0
M  V30 1541 H 143.511 4.59326 -1.55395 0
M  V30 1542 N 144.854 0.36279 1.53368 0
M  V30 1543 C 145.784 -0.476976 2.28576 0
M  V30 1544 C 146.765 -1.08631 1.30894 0
M  V30 1545 O 147.95 -1.10409 1.59761 0
M  V30 1546 C 145.08 -1.61828 3.07293 0
M  V30 1547 C 144.034 -1.13633 4.1264 0
M  V30 1548 C 143.36 -2.36766 4.79423 0
M  V30 1549 C 144.66 -0.223061 5.21823 0
M  V30 1550 H 146.354 0.150474 2.99022 0
M  V30 1551 H 143.9 0.0738103 1.43811 0
M  V30 1552 H 145.853 -2.21237 3.58653 0
M  V30 1553 H 144.577 -2.27292 2.34533 0
M  V30 1554 H 143.236 -0.564945 3.62221 0
M  V30 1555 H 142.884 -3.0068 4.03238 0
M  V30 1556 H 142.584 -2.05192 5.50609 0
M  V30 1557 H 144.108 -2.96865 5.33576 0
M  V30 1558 H 145.522 -0.724545 5.68703 0
M  V30 1559 H 143.919 0.001678 6.001 0
M  V30 1560 H 144.989 0.735553 4.79289 0
M  V30 1561 N 146.332 -1.57332 0.0918853 0
M  V30 1562 C 147.562 -1.98286 -0.580205 0
M  V30 1563 C 147.97 -0.969713 -1.6246 0
M  V30 1564 O 147.313 0.0493501 -1.83634 0
M  V30 1565 C 147.375 -3.35603 -1.28882 0
M  V30 1566 C 147.039 -4.55285 -0.395559 0
M  V30 1567 C 148.036 -5.18687 0.355002 0
M  V30 1568 C 145.721 -5.01314 -0.314556 0
M  V30 1569 C 147.715 -6.26484 1.17458 0
M  V30 1570 C 145.402 -6.08979 0.508677 0
M  V30 1571 C 146.4 -6.71429 1.2519 0
M  V30 1572 O 146.088 -7.77018 2.06151 0
M  V30 1573 H 145.82 -0.656678 -0.160466 0
M  V30 1574 H 148.374 -2.04721 0.16688 0
M  V30 1575 H 146.604 -3.25842 -2.08241 0
M  V30 1576 H 148.293 -3.61026 -1.85512 0
M  V30 1577 H 149.059 -4.84058 0.302134 0
M  V30 1578 H 144.938 -4.5247 -0.882697 0
M  V30 1579 H 148.482 -6.75159 1.75518 0
M  V30 1580 H 144.379 -6.4304 0.563037 0
M  V30 1581 H 145.147 -7.93991 1.98799 0
M  V30 1582 N 147.81 0.181792 -1.56548 0
M  V30 1583 C 148.74 1.22765 -1.98623 0
M  V30 1584 C 149.721 1.46747 -0.860189 0
M  V30 1585 O 150.906 1.58259 -1.12551 0
M  V30 1586 C 148.036 2.56894 -2.33715 0
M  V30 1587 C 146.99 2.475 -3.49182 0
M  V30 1588 C 146.316 3.86023 -3.69986 0
M  V30 1589 C 147.616 1.98866 -4.82959 0
M  V30 1590 H 149.31 0.877942 -2.86239 0
M  V30 1591 H 146.856 0.42088 -1.37712 0
M  V30 1592 H 148.809 3.30253 -2.61746 0
M  V30 1593 H 147.533 2.93632 -1.42997 0
M  V30 1594 H 146.192 1.76596 -3.21262 0
M  V30 1595 H 145.84 4.20136 -2.76576 0
M  V30 1596 H 145.54 3.80609 -4.47672 0
M  V30 1597 H 147.064 4.60984 -4.00407 0
M  V30 1598 H 148.478 2.61992 -5.09934 0
M  V30 1599 H 146.875 2.04424 -5.64208 0
M  V30 1600 H 147.945 0.942465 -4.75653 0
M  V30 1601 N 149.288 1.51039 0.449983 0
M  V30 1602 C 150.235 1.71439 1.54523 0
M  V30 1603 C 151.205 0.555871 1.56522 0
M  V30 1604 O 152.39 0.788871 1.73728 0
M  V30 1605 C 149.53 1.83384 2.92343 0
M  V30 1606 C 148.643 3.10873 2.9997 0
M  V30 1607 C 147.778 3.13488 4.28834 0
M  V30 1608 C 146.817 4.35343 4.30282 0
M  V30 1609 N 145.954 4.35579 5.5065 0
M  V30 1610 H 150.794 2.64934 1.36433 0
M  V30 1611 H 148.331 1.31312 0.662982 0
M  V30 1612 H 150.289 1.88291 3.72293 0
M  V30 1613 H 148.919 0.933086 3.0902 0
M  V30 1614 H 147.971 3.15336 2.12761 0
M  V30 1615 H 149.283 4.00814 2.96901 0
M  V30 1616 H 148.437 3.17241 5.17149 0
M  V30 1617 H 147.176 2.21414 4.34543 0
M  V30 1618 H 146.181 4.3178 3.40362 0
M  V30 1619 H 147.406 5.28668 4.26248 0
M  V30 1620 H 145.352 3.46369 5.57104 0
M  V30 1621 H 145.269 5.19313 5.49409 0
M  V30 1622 H 146.537 4.43507 6.41032 0
M  V30 1623 N 150.766 -0.704594 1.40972 0
M  V30 1624 C 152.014 -1.46169 1.39568 0
M  V30 1625 C 152.335 -1.95 0.00253745 0
M  V30 1626 O 151.605 -1.71095 -0.954114 0
M  V30 1627 H 150.185 -0.542326 0.513704 0
M  V30 1628 H 152.847 -0.834553 1.76128 0
M  V30 1629 H 151.943 -2.32922 2.07735 0
M  V30 1630 N 152.244 -1.26651 -0.937939 0
M  V30 1631 C 153.491 -1.12387 -1.6845 0
M  V30 1632 C 153.819 0.332208 -1.91642 0
M  V30 1633 O 153.074 1.2602 -1.49725 0
M  V30 1634 C 153.373 -1.84168 -3.06295 0
M  V30 1635 C 153.039 -3.34056 -3.02849 0
M  V30 1636 C 151.701 -3.74942 -3.01616 0
M  V30 1637 C 154.053 -4.29741 -2.9491 0
M  V30 1638 C 151.381 -5.09894 -2.90215 0
M  V30 1639 C 153.733 -5.64738 -2.8505 0
M  V30 1640 C 152.397 -6.0493 -2.82162 0
M  V30 1641 H 151.667 -0.411252 -0.616403 0
M  V30 1642 H 154.314 -1.57134 -1.09459 0
M  V30 1643 H 152.619 -1.319 -3.6893 0
M  V30 1644 H 154.316 -1.70569 -3.62915 0
M  V30 1645 H 150.906 -3.01534 -3.0459 0
M  V30 1646 H 155.09 -3.99133 -2.94969 0
M  V30 1647 H 150.346 -5.40194 -2.86358 0
M  V30 1648 H 154.52 -6.38561 -2.77872 0
M  V30 1649 H 152.147 -7.09457 -2.73084 0
M  V30 1650 N 153.722 1.14298 -1.08507 0
M  V30 1651 C 154.672 2.17449 -0.685569 0
M  V30 1652 C 155.656 1.58167 0.295315 0
M  V30 1653 O 156.848 1.76675 0.107172 0
M  V30 1654 C 153.977 3.43161 -0.0975318 0
M  V30 1655 C 153.063 4.09471 -1.10426 0
M  V30 1656 N 153.454 4.51089 -2.28806 0
M  V30 1657 C 151.752 4.35976 -0.940258 0
M  V30 1658 C 152.453 5.02654 -2.9277 0
M  V30 1659 N 151.429 4.96927 -2.20374 0
M  V30 1660 H 155.231 2.47369 -1.587 0
M  V30 1661 H 152.745 1.30992 -0.959936 0
M  V30 1662 H 154.742 4.16388 0.20664 0
M  V30 1663 H 153.402 3.14719 0.798872 0
M  V30 1664 H 154.413 4.44097 -2.66455 0
M  V30 1665 H 151.09 4.17386 -0.0977441 0
M  V30 1666 H 152.48 5.44723 -3.93352 0
M  V30 1667 N 155.201 0.870884 1.31352 0
M  V30 1668 C 156.164 0.332243 2.26779 0
M  V30 1669 C 157.164 -0.517302 1.52252 0
M  V30 1670 O 158.354 -0.326477 1.71113 0
M  V30 1671 C 155.486 -0.528066 3.36785 0
M  V30 1672 H 156.679 1.17469 2.75937 0
M  V30 1673 H 154.232 0.64655 1.423 0
M  V30 1674 H 154.967 -1.39167 2.92922 0
M  V30 1675 H 154.752 0.0802582 3.92018 0
M  V30 1676 H 156.242 -0.897179 4.07849 0
M  V30 1677 N 156.679 -1.44442 0.630414 0
M  V30 1678 C 157.928 -2.01267 0.132073 0
M  V30 1679 C 158.241 -1.50172 -1.25331 0
M  V30 1680 O 159.447 -1.9912 -1.84562 0
M  V30 1681 C 157.903 -3.59422 0.185362 0
M  V30 1682 C 157.511 -4.19514 1.57201 0
M  V30 1683 C 159.255 -4.23724 -0.256553 0
M  V30 1684 C 157.162 -5.69891 1.58045 0
M  V30 1685 H 156.092 -0.752619 0.0456092 0
M  V30 1686 H 158.743 -1.65666 0.789106 0
M  V30 1687 H 157.125 -3.92318 -0.538759 0
M  V30 1688 H 158.299 -3.98156 2.31966 0
M  V30 1689 H 156.614 -3.67496 1.95795 0
M  V30 1690 H 159.211 -5.34019 -0.269767 0
M  V30 1691 H 159.554 -3.96013 -1.28372 0
M  V30 1692 H 160.087 -3.95629 0.41505 0
M  V30 1693 H 156.826 -6.02336 2.58597 0
M  V30 1694 H 156.346 -5.93373 0.875725 0
M  V30 1695 H 158.025 -6.33515 1.31408 0
M  V30 1696 N 158.157 -0.370918 -1.53173 0
M  V30 1697 C 159.089 0.507823 -2.23503 0
M  V30 1698 C 160.102 1.04182 -1.251 0
M  V30 1699 O 161.291 0.947286 -1.5129 0
M  V30 1700 C 158.391 1.71447 -2.92334 0
M  V30 1701 C 157.564 1.31105 -4.17289 0
M  V30 1702 C 156.623 2.38035 -4.69282 0
M  V30 1703 O 155.649 2.00204 -5.32829 0
M  V30 1704 N 156.851 3.69697 -4.47554 0
M  V30 1705 H 159.616 -0.0946382 -2.99551 0
M  V30 1706 H 157.177 -0.196358 -1.60705 0
M  V30 1707 H 159.169 2.42469 -3.24023 0
M  V30 1708 H 157.739 2.22368 -2.19707 0
M  V30 1709 H 156.959 0.430462 -3.91843 0
M  V30 1710 H 158.247 1.0179 -4.98514 0
M  V30 1711 H 157.645 4.03205 -3.9679 0
M  V30 1712 H 156.202 4.36807 -4.8378 0
M  V30 1713 N 159.635 1.57281 -0.100228 0
M  V30 1714 C 160.86 1.99302 0.573881 0
M  V30 1715 C 161.285 0.979059 1.60611 0
M  V30 1716 O 160.643 -0.0517803 1.81226 0
M  V30 1717 C 160.691 3.40274 1.19358 0
M  V30 1718 O 159.795 3.41676 2.30935 0
M  V30 1719 H 159.136 0.647944 0.145138 0
M  V30 1720 H 161.666 2.03779 -0.183156 0
M  V30 1721 H 161.676 3.78078 1.53365 0
M  V30 1722 H 160.351 4.13594 0.437385 0
M  V30 1723 H 158.928 3.15672 1.98509 0
M  V30 1724 N 161.113 -0.173488 1.56642 0
M  V30 1725 C 162.343 -0.904781 1.85734 0
M  V30 1726 C 162.751 -1.76431 0.68328 0
M  V30 1727 O 162.094 -1.802 -0.356865 0
M  V30 1728 C 162.156 -1.83382 3.09211 0
M  V30 1729 C 161.82 -1.15411 4.42187 0
M  V30 1730 C 162.817 -0.520609 5.17287 0
M  V30 1731 C 160.502 -1.15151 4.88923 0
M  V30 1732 C 162.496 0.106412 6.37311 0
M  V30 1733 C 160.183 -0.520664 6.08878 0
M  V30 1734 C 161.181 0.107196 6.82916 0
M  V30 1735 O 160.869 0.728102 8.00596 0
M  V30 1736 H 160.601 -0.268408 0.62043 0
M  V30 1737 H 163.155 -0.179096 2.04618 0
M  V30 1738 H 161.385 -2.59976 2.86268 0
M  V30 1739 H 163.074 -2.43476 3.24768 0
M  V30 1740 H 163.84 -0.514606 4.82262 0
M  V30 1741 H 159.719 -1.62961 4.31236 0
M  V30 1742 H 163.263 0.597081 6.9504 0
M  V30 1743 H 159.16 -0.524242 6.43368 0
M  V30 1744 H 159.928 0.627138 8.16094 0
M  V30 1745 N 162.591 -1.51276 -0.441967 0
M  V30 1746 C 164.007 -1.39349 -0.778083 0
M  V30 1747 C 164.207 -0.472212 -1.95889 0
M  V30 1748 O 163.263 0.0743551 -2.5239 0
M  V30 1749 C 164.576 -2.81292 -1.0628 0
M  V30 1750 C 166.124 -2.9041 -1.16751 0
M  V30 1751 C 166.599 -4.33251 -1.48519 0
M  V30 1752 N 168.09 -4.36336 -1.55453 0
M  V30 1753 C 168.825 -5.43885 -1.81596 0
M  V30 1754 N 168.321 -6.61601 -2.05562 0
M  V30 1755 N 170.114 -5.3136 -1.8334 0
M  V30 1756 H 162.265 -2.09729 0.335774 0
M  V30 1757 H 164.528 -0.943925 0.0878028 0
M  V30 1758 H 164.234 -3.50678 -0.267905 0
M  V30 1759 H 164.108 -3.20334 -1.99163 0
M  V30 1760 H 166.495 -2.21225 -1.95304 0
M  V30 1761 H 166.576 -2.54871 -0.217801 0
M  V30 1762 H 166.22 -5.02984 -0.704958 0
M  V30 1763 H 166.15 -4.66299 -2.44689 0
M  V30 1764 H 168.641 -3.51466 -1.38853 0
M  V30 1765 H 168.954 -7.39361 -2.24867 0
M  V30 1766 H 167.299 -6.64725 -2.02894 0
M  V30 1767 H 170.49 -4.38382 -1.64132 0
M  V30 1768 H 170.663 -6.15258 -2.03377 0
M  V30 1769 N 164.069 0.697108 -1.41344 0
M  V30 1770 C 165.318 1.45279 -1.39918 0
M  V30 1771 C 165.631 1.95597 -0.0109624 0
M  V30 1772 O 166.837 2.71208 0.125919 0
M  V30 1773 C 165.293 2.62695 -2.46007 0
M  V30 1774 C 164.901 2.19169 -3.90729 0
M  V30 1775 C 166.645 3.40336 -2.53715 0
M  V30 1776 C 164.552 3.33535 -4.88373 0
M  V30 1777 H 163.482 0.545692 -0.520323 0
M  V30 1778 H 166.133 0.756929 -1.67161 0
M  V30 1779 H 164.515 3.34541 -2.11892 0
M  V30 1780 H 165.689 1.54623 -4.34083 0
M  V30 1781 H 164.004 1.54525 -3.86666 0
M  V30 1782 H 166.601 4.2547 -3.2385 0
M  V30 1783 H 166.944 3.85418 -1.5735 0
M  V30 1784 H 167.477 2.75546 -2.86913 0
M  V30 1785 H 164.216 2.93468 -5.86137 0
M  V30 1786 H 163.736 3.96936 -4.49668 0
M  V30 1787 H 165.415 3.99335 -5.09059 0
M  V30 1788 N 165.547 1.27147 0.931209 0
M  V30 1789 C 166.775 1.16082 1.71267 0
M  V30 1790 C 167.19 -0.282772 1.8667 0
M  V30 1791 O 166.547 -1.19283 1.38122 0
M  V30 1792 C 166.598 1.8358 3.11417 0
M  V30 1793 O 166.319 3.22299 2.96741 0
M  V30 1794 C 167.82 1.78597 4.05732 0
M  V30 1795 H 165.04 0.403758 0.535929 0
M  V30 1796 H 167.584 1.67953 1.16671 0
M  V30 1797 H 165.739 1.35623 3.62885 0
M  V30 1798 H 166.153 3.55851 3.85319 0
M  V30 1799 H 167.627 2.30444 5.01597 0
M  V30 1800 H 168.104 0.754564 4.3267 0
M  V30 1801 H 168.71 2.26152 3.60188 0
M  V30 1802 N 167.025 -1.13721 1.09112 0
M  V30 1803 C 167.975 -2.17082 0.697091 0
M  V30 1804 C 168.959 -1.58321 -0.286923 0
M  V30 1805 O 170.151 -1.7673 -0.0978008 0
M  V30 1806 C 167.28 -3.43105 0.115729 0
M  V30 1807 C 166.366 -4.0888 1.12596 0
M  V30 1808 N 166.757 -4.4987 2.31195 0
M  V30 1809 C 165.055 -4.35471 0.963366 0
M  V30 1810 C 165.756 -5.01094 2.95431 0
M  V30 1811 N 164.732 -4.95751 2.23006 0
M  V30 1812 H 168.534 -2.46524 1.6001 0
M  V30 1813 H 166.048 -1.30481 0.966869 0
M  V30 1814 H 168.045 -4.16491 -0.184555 0
M  V30 1815 H 166.705 -3.15138 -0.78217 0
M  V30 1816 H 167.716 -4.42678 2.68806 0
M  V30 1817 H 164.393 -4.17328 0.119878 0
M  V30 1818 H 165.783 -5.4263 3.96236 0
M  V30 1819 N 168.503 -0.877838 -1.30888 0
M  V30 1820 C 169.733 -0.506678 -2.00291 0
M  V30 1821 C 170.141 0.907449 -1.66018 0
M  V30 1822 O 169.484 1.60719 -0.88967 0
M  V30 1823 C 169.546 -0.59323 -3.54572 0
M  V30 1824 C 169.21 -1.97038 -4.12341 0
M  V30 1825 C 170.207 -2.93889 -4.28865 0
M  V30 1826 C 167.892 -2.27383 -4.47886 0
M  V30 1827 C 169.886 -4.19224 -4.80136 0
M  V30 1828 C 167.573 -3.52965 -4.98857 0
M  V30 1829 C 168.571 -4.48701 -5.14934 0
M  V30 1830 O 168.259 -5.72056 -5.64808 0
M  V30 1831 H 167.991 -0.1951 -0.647234 0
M  V30 1832 H 170.545 -1.18301 -1.6791 0
M  V30 1833 H 168.775 0.140057 -3.86446 0
M  V30 1834 H 170.464 -0.234372 -4.05223 0
M  V30 1835 H 171.23 -2.71756 -4.01714 0
M  V30 1836 H 167.109 -1.53639 -4.34645 0
M  V30 1837 H 170.653 -4.93956 -4.92599 0
M  V30 1838 H 166.55 -3.74939 -5.25443 0
M  V30 1839 H 167.318 -5.74337 -5.83163 0
M  V30 1840 N 169.982 1.44106 -0.638065 0
M  V30 1841 C 170.912 2.33448 0.0494287 0
M  V30 1842 C 171.893 1.48606 0.827672 0
M  V30 1843 O 173.078 1.77308 0.792173 0
M  V30 1844 C 170.208 3.31771 1.02691 0
M  V30 1845 C 169.162 4.26485 0.359823 0
M  V30 1846 C 168.488 5.14729 1.44769 0
M  V30 1847 C 169.788 5.17056 -0.738296 0
M  V30 1848 H 171.482 2.91183 -0.696636 0
M  V30 1849 H 169.028 1.40014 -0.336456 0
M  V30 1850 H 170.981 3.93161 1.51666 0
M  V30 1851 H 169.705 2.7226 1.80395 0
M  V30 1852 H 168.364 3.66437 -0.10934 0
M  V30 1853 H 168.012 4.51566 2.21578 0
M  V30 1854 H 167.712 5.78913 1.00668 0
M  V30 1855 H 169.236 5.78991 1.93911 0
M  V30 1856 H 170.65 5.72342 -0.331354 0
M  V30 1857 H 169.047 5.89879 -1.10286 0
M  V30 1858 H 170.117 4.57652 -1.60258 0
M  V30 1859 N 171.46 0.379036 1.52974 0
M  V30 1860 C 172.706 -0.199244 2.02422 0
M  V30 1861 C 173.061 -1.4532 1.26095 0
M  V30 1862 O 172.354 -1.88377 0.34996 0
M  V30 1863 C 172.548 -0.53096 3.53434 0
M  V30 1864 C 172.377 0.689298 4.44386 0
M  V30 1865 C 171.147 1.20546 4.9071 0
M  V30 1866 C 173.345 1.55856 4.90116 0
M  V30 1867 N 171.327 2.38434 5.65705 0
M  V30 1868 C 172.698 2.58396 5.63588 0
M  V30 1869 C 174.753 1.57986 4.7217 0
M  V30 1870 C 173.456 3.62939 6.21022 0
M  V30 1871 C 175.482 2.6143 5.30479 0
M  V30 1872 C 174.844 3.62693 6.03849 0
M  V30 1873 H 170.943 -0.0352671 0.781204 0
M  V30 1874 H 173.527 0.526614 1.87443 0
M  V30 1875 H 171.698 -1.22588 3.68547 0
M  V30 1876 H 173.43 -1.0955 3.89591 0
M  V30 1877 H 170.185 0.768022 4.67331 0
M  V30 1878 H 170.609 2.98055 6.07859 0
M  V30 1879 H 175.251 0.810475 4.14959 0
M  V30 1880 H 172.969 4.40751 6.77321 0
M  V30 1881 H 176.555 2.63949 5.18481 0
M  V30 1882 H 175.435 4.41424 6.48163 0
M  V30 1883 N 172.938 -1.57226 0.108567 0
M  V30 1884 C 173.886 -2.16002 -0.862885 0
M  V30 1885 C 174.88 -1.10644 -1.28274 0
M  V30 1886 O 176.086 -1.28966 -1.2557 0
M  V30 1887 H 172.461 -0.691148 -0.296342 0
M  V30 1888 H 174.432 -2.96427 -0.342575 0
M  V30 1889 C 173.181 -2.76576 -2.10716 0
M  V30 1890 H 172.504 -3.5734 -1.793 0
M  V30 1891 H 173.944 -3.21253 -2.76717 0
M  V30 1892 C 172.403 -1.73137 -2.89007 0
M  V30 1893 O 172.933 -1.17842 -3.84026 0
M  V30 1894 N 171.139 -1.43317 -2.52801 0
M  V30 1895 H 170.686 -1.88473 -1.75601 0
M  V30 1896 H 170.644 -0.743485 -3.05483 0
M  V30 1897 N 174.416 0.165178 -1.56732 0
M  V30 1898 C 175.348 1.22911 -1.93457 0
M  V30 1899 C 176.361 1.40152 -0.828333 0
M  V30 1900 O 177.55 1.40046 -1.10677 0
M  V30 1901 C 174.65 2.59686 -2.17753 0
M  V30 1902 C 173.823 2.63663 -3.48999 0
M  V30 1903 C 172.882 3.81845 -3.62051 0
M  V30 1904 O 171.908 3.67559 -4.34613 0
M  V30 1905 N 173.11 4.98557 -2.97357 0
M  V30 1906 H 175.875 0.917118 -2.85323 0
M  V30 1907 H 173.436 0.354895 -1.57962 0
M  V30 1908 H 175.428 3.37225 -2.23743 0
M  V30 1909 H 173.998 2.83251 -1.32242 0
M  V30 1910 H 173.218 1.72173 -3.54612 0
M  V30 1911 H 174.506 2.63336 -4.35352 0
M  V30 1912 H 173.904 5.13065 -2.38287 0
M  V30 1913 H 172.461 5.73936 -3.08934 0
M  V30 1914 N 175.894 1.51508 0.433938 0
M  V30 1915 C 176.842 1.73646 1.54757 0
M  V30 1916 C 177.836 0.602854 1.5831 0
M  V30 1917 O 179.042 0.784318 1.62014 0
M  V30 1918 H 175.417 0.548718 0.51421 0
M  V30 1919 H 177.388 2.66991 1.33261 0
M  V30 1920 C 176.137 1.88172 2.92381 0
M  V30 1921 H 175.46 2.74808 2.90381 0
M  V30 1922 H 176.9 2.07672 3.6966 0
M  V30 1923 C 175.359 0.64239 3.30719 0
M  V30 1924 O 175.889 -0.201362 4.01195 0
M  V30 1925 N 174.095 0.485489 2.86516 0
M  V30 1926 H 173.642 1.17318 2.29334 0
M  V30 1927 H 173.6 -0.342482 3.12529 0
M  V30 1928 N 177.372 -0.689602 1.41712 0
M  V30 1929 C 178.788 -1.00093 1.24312 0
M  V30 1930 C 178.988 -2.01036 0.136729 0
M  V30 1931 O 178.044 -2.47562 -0.496918 0
M  V30 1932 C 179.357 -1.51985 2.59463 0
M  V30 1933 C 180.905 -1.63838 2.66695 0
M  V30 1934 C 181.38 -2.1913 4.02177 0
M  V30 1935 N 182.871 -2.26483 4.04054 0
M  V30 1936 C 183.606 -2.70306 5.0569 0
M  V30 1937 N 183.102 -3.13691 6.17713 0
M  V30 1938 N 184.895 -2.69923 4.9305 0
M  V30 1939 H 177.046 -0.0210029 2.1239 0
M  V30 1940 H 179.309 -0.0718733 0.945272 0
M  V30 1941 H 179.015 -0.85269 3.41207 0
M  V30 1942 H 178.889 -2.50103 2.82362 0
M  V30 1943 H 181.276 -2.29664 1.85306 0
M  V30 1944 H 181.357 -0.642492 2.476 0
M  V30 1945 H 181.001 -1.53918 4.84016 0
M  V30 1946 H 180.931 -3.19482 4.18615 0
M  V30 1947 H 183.422 -1.95874 3.23174 0
M  V30 1948 H 183.735 -3.45773 6.9113 0
M  V30 1949 H 182.08 -3.11585 6.21241 0
M  V30 1950 H 185.271 -2.35382 4.04614 0
M  V30 1951 H 185.444 -3.03758 5.72394 0
M  V30 1952 N 178.85 -1.27639 -0.924453 0
M  V30 1953 C 179.797 -1.10644 -2.0255 0
M  V30 1954 C 180.767 -0.00658438 -1.66099 0
M  V30 1955 O 181.952 -0.16952 -1.90045 0
M  V30 1956 C 179.092 -0.76309 -3.36557 0
M  V30 1957 C 178.205 -1.94091 -3.85944 0
M  V30 1958 C 177.34 -1.53914 -5.08413 0
M  V30 1959 C 176.379 -2.68425 -5.50104 0
M  V30 1960 N 175.516 -2.28815 -6.63768 0
M  V30 1961 H 180.356 -2.04858 -2.16419 0
M  V30 1962 H 177.893 -1.01974 -1.06017 0
M  V30 1963 H 179.851 -0.544822 -4.13627 0
M  V30 1964 H 178.481 0.142102 -3.22487 0
M  V30 1965 H 177.533 -2.27162 -3.05125 0
M  V30 1966 H 178.845 -2.7998 -4.12811 0
M  V30 1967 H 177.999 -1.28231 -5.92994 0
M  V30 1968 H 176.738 -0.651391 -4.8333 0
M  V30 1969 H 175.743 -2.94819 -4.64071 0
M  V30 1970 H 176.968 -3.57826 -5.7718 0
M  V30 1971 H 174.914 -1.42495 -6.40337 0
M  V30 1972 H 174.831 -3.08242 -6.90306 0
M  V30 1973 H 176.099 -2.06387 -7.51681 0
M  V30 1974 N 180.328 1.1314 -1.09713 0
M  V30 1975 C 181.553 1.88862 -0.857081 0
M  V30 1976 C 181.978 1.78729 0.586304 0
M  V30 1977 O 181.336 1.13692 1.41222 0
M  V30 1978 C 181.384 3.36325 -1.30069 0
M  V30 1979 O 180.488 4.09815 -0.461007 0
M  V30 1980 H 179.829 0.587108 -0.310162 0
M  V30 1981 H 182.359 1.43129 -1.46203 0
M  V30 1982 H 182.369 3.87157 -1.28738 0
M  V30 1983 H 181.044 3.43017 -2.35185 0
M  V30 1984 H 179.621 3.68986 -0.538888 0
M  V30 1985 N 181.806 0.884767 1.30421 0
M  V30 1986 C 182.736 0.367574 2.30589 0
M  V30 1987 C 183.717 -0.549464 1.60981 0
M  V30 1988 O 184.902 -0.46336 1.88591 0
M  V30 1989 C 182.032 -0.418944 3.44764 0
M  V30 1990 C 180.986 0.406316 4.26067 0
M  V30 1991 C 180.312 -0.506793 5.32293 0
M  V30 1992 C 181.612 1.64832 4.95608 0
M  V30 1993 H 183.306 1.20462 2.74097 0
M  V30 1994 H 180.852 0.580695 1.31772 0
M  V30 1995 H 182.805 -0.791395 4.13902 0
M  V30 1996 H 181.529 -1.28964 3.0006 0
M  V30 1997 H 180.188 0.760903 3.58617 0
M  V30 1998 H 179.836 -1.37519 4.83836 0
M  V30 1999 H 179.536 0.0415828 5.87585 0
M  V30 2000 H 181.06 -0.875764 6.04287 0
M  V30 2001 H 182.474 1.34646 5.57264 0
M  V30 2002 H 180.871 2.13688 5.60765 0
M  V30 2003 H 181.941 2.39284 4.21748 0
M  V30 2004 N 183.284 -1.43765 0.645699 0
M  V30 2005 C 184.247 -2.29163 -0.0409488 0
M  V30 2006 C 185.247 -1.41813 -0.757996 0
M  V30 2007 O 186.437 -1.63527 -0.600382 0
M  V30 2008 C 183.569 -3.23716 -1.06869 0
M  V30 2009 H 184.762 -2.91366 0.710345 0
M  V30 2010 H 182.315 -1.5092 0.406547 0
M  V30 2011 H 183.05 -2.66393 -1.84947 0
M  V30 2012 H 182.835 -3.88105 -0.558277 0
M  V30 2013 H 184.325 -3.87831 -1.54845 0
M  V30 2014 N 184.763 -0.387143 -1.52771 0
M  V30 2015 C 185.693 0.440551 -2.29306 0
M  V30 2016 C 186.674 1.06535 -1.32606 0
M  V30 2017 O 187.859 1.07853 -1.61497 0
M  V30 2018 C 184.989 1.56919 -3.09829 0
M  V30 2019 C 183.943 1.07054 -4.14395 0
M  V30 2020 C 183.269 2.29109 -4.83129 0
M  V30 2021 C 184.569 0.140015 -5.22112 0
M  V30 2022 H 186.263 -0.198026 -2.98744 0
M  V30 2023 H 183.809 -0.09668 -1.43675 0
M  V30 2024 H 185.762 2.15503 -3.62128 0
M  V30 2025 H 184.486 2.23532 -2.3812 0
M  V30 2026 H 183.145 0.507247 -3.63074 0
M  V30 2027 H 182.793 2.94227 -4.0797 0
M  V30 2028 H 182.493 1.96406 -5.53804 0
M  V30 2029 H 184.017 2.88339 -5.38231 0
M  V30 2030 H 185.431 0.633978 -5.69784 0
M  V30 2031 H 183.828 -0.0971485 -6.00021 0
M  V30 2032 H 184.898 -0.811711 -4.78058 0
M  V30 2033 N 186.241 1.57166 -0.116904 0
M  V30 2034 C 187.471 1.99184 0.548586 0
M  V30 2035 C 187.879 0.995436 1.60897 0
M  V30 2036 O 187.222 -0.0201293 1.83689 0
M  V30 2037 C 187.284 3.37611 1.23526 0
M  V30 2038 C 186.948 4.55857 0.323077 0
M  V30 2039 C 187.945 5.18056 -0.437476 0
M  V30 2040 C 185.63 5.01751 0.234761 0
M  V30 2041 C 187.624 6.24536 -1.2741 0
M  V30 2042 C 185.311 6.08093 -0.605496 0
M  V30 2043 C 186.309 6.69352 -1.35856 0
M  V30 2044 O 185.997 7.7364 -2.18487 0
M  V30 2045 H 185.729 0.659148 0.149999 0
M  V30 2046 H 188.283 2.0443 -0.199428 0
M  V30 2047 H 186.513 3.29113 2.0303 0
M  V30 2048 H 188.202 3.63932 1.79745 0
M  V30 2049 H 188.968 4.83516 -0.379105 0
M  V30 2050 H 184.847 4.53817 0.810601 0
M  V30 2051 H 188.391 6.72281 -1.86237 0
M  V30 2052 H 184.288 6.42063 -0.665268 0
M  V30 2053 H 185.056 7.90727 -2.11406 0
M  V30 2054 N 187.719 -0.156864 1.56817 0
M  V30 2055 C 188.649 -1.19589 2.00551 0
M  V30 2056 C 189.63 -1.4536 0.883426 0
M  V30 2057 O 190.815 -1.56449 1.15054 0
M  V30 2058 C 187.945 -2.53143 2.37773 0
M  V30 2059 C 186.899 -2.41913 3.53075 0
M  V30 2060 C 186.225 -3.80088 3.76081 0
M  V30 2061 C 187.525 -1.91157 4.86062 0
M  V30 2062 H 189.219 -0.832293 2.87599 0
M  V30 2063 H 186.765 -0.398918 1.38364 0
M  V30 2064 H 188.718 -3.26047 2.66967 0
M  V30 2065 H 187.442 -2.91319 1.4765 0
M  V30 2066 H 186.101 -1.71462 3.24031 0
M  V30 2067 H 185.749 -4.15683 2.83225 0
M  V30 2068 H 185.449 -3.73439 4.53671 0
M  V30 2069 H 186.973 -4.54556 4.0769 0
M  V30 2070 H 188.387 -2.53846 5.14038 0
M  V30 2071 H 186.784 -1.95422 5.67389 0
M  V30 2072 H 187.854 -0.866673 4.77092 0
M  V30 2073 N 189.197 -1.51736 -0.425897 0
M  V30 2074 C 190.129 -1.70083 -1.53638 0
M  V30 2075 C 191.142 -0.581349 -1.52066 0
M  V30 2076 O 192.331 -0.856017 -1.56635 0
M  V30 2077 C 189.431 -1.71078 -2.9255 0
M  V30 2078 C 188.604 -2.99795 -3.185 0
M  V30 2079 C 187.663 -2.92825 -4.37196 0
M  V30 2080 O 186.689 -3.66756 -4.35291 0
M  V30 2081 N 187.891 -2.0946 -5.41393 0
M  V30 2082 H 190.656 -2.65882 -1.383 0
M  V30 2083 H 188.217 -1.49765 -0.614988 0
M  V30 2084 H 190.209 -1.63969 -3.69995 0
M  V30 2085 H 188.779 -0.828242 -3.01428 0
M  V30 2086 H 187.999 -3.20684 -2.2925 0
M  V30 2087 H 189.287 -3.84977 -3.32671 0
M  V30 2088 H 188.685 -1.48792 -5.45781 0
M  V30 2089 H 187.242 -2.08221 -6.17647 0
M  V30 2090 N 190.675 0.682077 -1.42076 0
M  V30 2091 C 191.623 1.81707 -1.45208 0
M  V30 2092 C 192.617 1.66183 -0.328591 0
M  V30 2093 O 193.823 1.7288 -0.501264 0
M  V30 2094 H 190.198 0.599014 -0.454628 0
M  V30 2095 H 192.169 1.76183 -2.40836 0
M  V30 2096 C 190.918 3.19816 -1.36428 0
M  V30 2097 H 190.241 3.32385 -2.22171 0
M  V30 2098 H 191.681 3.99272 -1.42681 0
M  V30 2099 C 190.14 3.36809 -0.078191 0
M  V30 2100 O 190.67 3.92124 0.87188 0
M  V30 2101 N 188.876 2.906 0.00229266 0
M  V30 2102 H 188.423 2.45772 -0.771616 0
M  V30 2103 H 188.381 3.02347 0.862179 0
M  V30 2104 N 192.153 1.28127 0.917671 0
M  V30 2105 C 193.085 1.07517 2.02417 0
M  V30 2106 C 194.098 0.0281099 1.62776 0
M  V30 2107 O 195.287 0.270748 1.76435 0
M  V30 2108 C 192.387 0.610957 3.33347 0
M  V30 2109 C 191.56 1.73255 4.01624 0
M  V30 2110 C 190.619 1.26238 5.10833 0
M  V30 2111 O 189.645 1.96389 5.34247 0
M  V30 2112 N 190.847 0.123448 5.80369 0
M  V30 2113 H 193.612 2.02806 2.20658 0
M  V30 2114 H 191.173 1.19827 1.08871 0
M  V30 2115 H 193.165 0.280101 4.0373 0
M  V30 2116 H 191.735 -0.24898 3.11607 0
M  V30 2117 H 190.955 2.23319 3.24842 0
M  V30 2118 H 192.243 2.48503 4.43986 0
M  V30 2119 H 191.641 -0.461847 5.63812 0
M  V30 2120 H 190.198 -0.148158 6.51632 0
M  V30 2121 N 193.631 -1.12557 1.10312 0
M  V30 2122 C 194.88 -1.83395 0.839588 0
M  V30 2123 C 195.193 -1.84939 -0.636929 0
M  V30 2124 O 196.399 -2.51761 -1.01631 0
M  V30 2125 C 194.855 -3.29303 1.45215 0
M  V30 2126 C 194.463 -3.36122 2.96186 0
M  V30 2127 C 196.207 -4.05121 1.26796 0
M  V30 2128 C 194.114 -4.76357 3.50483 0
M  V30 2129 H 193.044 -0.687133 0.310425 0
M  V30 2130 H 195.695 -1.26746 1.32694 0
M  V30 2131 H 194.077 -3.85812 0.892469 0
M  V30 2132 H 195.251 -2.89559 3.58458 0
M  V30 2133 H 193.566 -2.73776 3.13745 0
M  V30 2134 H 196.163 -5.08668 1.64806 0
M  V30 2135 H 196.506 -4.15773 0.209409 0
M  V30 2136 H 197.039 -3.54967 1.79563 0
M  V30 2137 H 193.778 -4.70899 4.55998 0
M  V30 2138 H 193.298 -5.23377 2.92978 0
M  V30 2139 H 194.977 -5.45294 3.48228 0
M  V30 2140 N 195.109 -0.891671 -1.2995 0
M  V30 2141 C 196.334 -0.527932 -2.00568 0
M  V30 2142 C 196.759 0.877969 -1.66353 0
M  V30 2143 O 196.117 1.58301 -0.883762 0
M  V30 2144 C 196.165 -0.717745 -3.53385 0
M  V30 2145 O 195.269 0.233376 -4.11739 0
M  V30 2146 H 194.61 -0.20722 -0.630837 0
M  V30 2147 H 197.14 -1.20105 -1.65638 0
M  V30 2148 H 197.15 -0.619307 -4.03272 0
M  V30 2149 H 195.825 -1.74276 -3.77625 0
M  V30 2150 H 194.402 0.0880706 -3.72796 0
M  V30 2151 N 196.587 1.43421 -0.653314 0
M  V30 2152 C 197.833 2.02111 -0.166992 0
M  V30 2153 C 198.166 1.51423 1.21592 0
M  V30 2154 O 197.441 0.707389 1.8118 0
M  V30 2155 C 197.724 3.5966 -0.177948 0
M  V30 2156 C 197.577 4.20579 -1.59478 0
M  V30 2157 C 198.896 4.37413 0.4856 0
M  V30 2158 H 196.015 0.734374 -0.0621557 0
M  V30 2159 H 198.657 1.70717 -0.834016 0
M  V30 2160 H 196.807 3.86537 0.390032 0
M  V30 2161 H 198.479 4.04732 -2.21336 0
M  V30 2162 H 196.722 3.77226 -2.14204 0
M  V30 2163 H 197.393 5.29665 -1.5543 0
M  V30 2164 H 199.869 4.161 0.00234528 0
M  V30 2165 H 198.745 5.47075 0.447207 0
M  V30 2166 H 199.006 4.13672 1.55974 0
M  V30 2167 N 198.065 0.39524 1.52563 0
M  V30 2168 C 199.028 -0.425001 2.25225 0
M  V30 2169 C 200.028 -0.985266 1.27079 0
M  V30 2170 O 201.218 -0.866332 1.5113 0
M  V30 2171 C 198.35 -1.59686 3.01186 0
M  V30 2172 H 199.543 0.211233 2.99155 0
M  V30 2173 H 197.096 0.147472 1.55603 0
M  V30 2174 H 197.831 -2.27035 2.31572 0
M  V30 2175 H 197.616 -1.20176 3.73229 0
M  V30 2176 H 199.106 -2.17743 3.5634 0
M  V30 2177 N 199.544 -1.57102 0.125237 0
M  V30 2178 C 200.791 -1.95407 -0.531248 0
M  V30 2179 C 201.119 -1.0089 -1.66287 0
M  V30 2180 O 200.374 -0.0339431 -1.95671 0
M  V30 2181 C 200.673 -3.40096 -1.09862 0
M  V30 2182 C 200.339 -4.50815 -0.0876989 0
M  V30 2183 C 199.001 -4.80824 0.19026 0
M  V30 2184 C 201.353 -5.17724 0.600902 0
M  V30 2185 C 198.681 -5.75058 1.163 0
M  V30 2186 C 201.033 -6.13005 1.56231 0
M  V30 2187 C 199.697 -6.41403 1.8482 0
M  V30 2188 H 198.967 -0.715046 -0.194397 0
M  V30 2189 H 201.614 -1.90373 0.207463 0
M  V30 2190 H 199.919 -3.41855 -1.91422 0
M  V30 2191 H 201.616 -3.6705 -1.61478 0
M  V30 2192 H 198.206 -4.27444 -0.314528 0
M  V30 2193 H 202.39 -4.94691 0.399333 0
M  V30 2194 H 197.646 -5.95362 1.39117 0
M  V30 2195 H 201.82 -6.63934 2.10153 0
M  V30 2196 H 199.447 -7.14229 2.60349 0
M  V30 2197 N 201.022 0.148545 -1.56898 0
M  V30 2198 C 202.299 0.890019 -1.74178 0
M  V30 2199 C 202.679 1.99407 -0.692839 0
M  V30 2200 O 202.027 2.26671 0.288505 0
M  V30 2201 C 202.237 1.43389 -3.18183 0
M  V30 2202 C 203.585 1.89791 -3.79822 0
M  V30 2203 O 204.609 1.53134 -3.21603 0
M  V30 2204 O 203.468 2.57387 -4.82093 0
M  V30 2205 H 200.562 0.420496 -0.712118 0
M  V30 2206 H 203.108 0.134591 -1.69165 0
M  V30 2207 H 201.88 0.640383 -3.86024 0
M  V30 2208 H 201.503 2.25287 -3.27615 0
M  V30 2209 N 202.5 1.5196 0.417844 0
M  V30 2210 C 203.746 1.65836 1.16732 0
M  V30 2211 C 204.079 0.382881 1.90388 0
M  V30 2212 O 203.354 -0.618368 1.84408 0
M  V30 2213 C 203.637 2.87466 2.16876 0
M  V30 2214 C 203.49 4.25041 1.47174 0
M  V30 2215 C 204.809 3.04613 3.17646 0
M  V30 2216 H 201.928 0.603515 0.423011 0
M  V30 2217 H 204.57 1.84494 0.454105 0
M  V30 2218 H 202.72 2.71689 2.777 0
M  V30 2219 H 204.392 4.52527 0.895376 0
M  V30 2220 H 202.635 4.26843 0.773806 0
M  V30 2221 H 203.306 5.06176 2.20204 0
M  V30 2222 H 205.782 3.1923 2.66892 0
M  V30 2223 H 204.658 3.91247 3.8499 0
M  V30 2224 H 204.919 2.17541 3.84874 0
M  V30 2225 N 203.978 -0.674533 1.42435 0
M  V30 2226 C 205.255 -1.4305 1.33402 0
M  V30 2227 C 205.635 -2.11081 -0.0284674 0
M  V30 2228 O 204.983 -2.03257 -1.04397 0
M  V30 2229 C 205.193 -2.43272 2.50239 0
M  V30 2230 C 206.541 -3.07907 2.92367 0
M  V30 2231 O 207.565 -2.53599 2.50132 0
M  V30 2232 O 206.424 -4.0632 3.65467 0
M  V30 2233 H 203.518 -0.638076 0.526106 0
M  V30 2234 H 206.064 -0.703235 1.54443 0
M  V30 2235 H 204.836 -1.91803 3.41068 0
M  V30 2236 H 204.459 -3.23479 2.31186 0
M  V30 2237 N 205.456 -1.28612 -0.910864 0
M  V30 2238 C 206.705 -1.15311 -1.65488 0
M  V30 2239 C 207.018 0.296999 -1.93332 0
M  V30 2240 O 208.224 0.551168 -2.65847 0
M  V30 2241 C 206.68 -2.01599 -2.98137 0
M  V30 2242 C 206.288 -3.51367 -2.7793 0
M  V30 2243 C 208.032 -1.96993 -3.76024 0
M  V30 2244 C 205.939 -4.29797 -4.06237 0
M  V30 2245 H 204.869 -0.42796 -0.620779 0
M  V30 2246 H 207.52 -1.53166 -1.01057 0
M  V30 2247 H 205.902 -1.56603 -3.63719 0
M  V30 2248 H 207.076 -4.0434 -2.21011 0
M  V30 2249 H 205.391 -3.57529 -2.13452 0
M  V30 2250 H 207.988 -2.52856 -4.71135 0
M  V30 2251 H 208.331 -0.94733 -4.05378 0
M  V30 2252 H 208.864 -2.39973 -3.17266 0
M  V30 2253 H 205.603 -5.32648 -3.82055 0
M  V30 2254 H 205.123 -3.81596 -4.62757 0
M  V30 2255 H 206.802 -4.39869 -4.74473 0
M  V30 2256 N 206.934 1.1197 -1.10907 0
M  V30 2257 C 207.884 2.15946 -0.731538 0
M  V30 2258 C 208.868 1.58758 0.261699 0
M  V30 2259 O 210.06 1.76863 0.0696722 0
M  V30 2260 C 207.189 3.42877 -0.170299 0
M  V30 2261 C 206.275 4.07037 -1.19087 0
M  V30 2262 N 206.666 4.46135 -2.38322 0
M  V30 2263 C 204.964 4.33884 -1.03252 0
M  V30 2264 C 205.665 4.96331 -3.03366 0
M  V30 2265 N 204.641 4.9214 -2.30865 0
M  V30 2266 H 208.443 2.43947 -1.63912 0
M  V30 2267 H 205.957 1.28927 -0.987505 0
M  V30 2268 H 207.954 4.16732 0.118271 0
M  V30 2269 H 206.614 3.16343 0.731935 0
M  V30 2270 H 207.625 4.38345 -2.75815 0
M  V30 2271 H 204.302 4.17084 -0.186256 0
M  V30 2272 H 205.692 5.36257 -4.04818 0
M  V30 2273 N 208.412 0.89855 1.29475 0
M  V30 2274 C 209.823 0.572537 1.77705 0
M  V30 2275 C 210.174 -0.911778 1.73727 0
M  V30 2276 O 209.299 -1.71288 1.32247 0
M  V30 2277 C 209.894 1.03252 3.22683 0
M  V30 2278 C 208.453 0.757687 3.68695 0
M  V30 2279 C 207.6 1.20787 2.49612 0
M  V30 2280 H 210.551 1.08139 1.16153 0
M  V30 2281 H 210.572 0.367307 3.78723 0
M  V30 2282 H 210.084 2.11285 3.25546 0
M  V30 2283 H 208.185 -0.310079 3.71308 0
M  V30 2284 H 208.298 1.35476 4.59547 0
M  V30 2285 H 206.662 0.626888 2.46865 0
M  V30 2286 H 207.445 2.29622 2.55203 0
M  V30 2287 N 209.89 -1.43072 0.660911 0
M  V30 2288 C 210.853 -2.29194 -0.0166406 0
M  V30 2289 C 211.853 -1.42609 -0.742912 0
M  V30 2290 O 213.043 -1.64155 -0.583004 0
M  V30 2291 C 210.175 -3.24831 -1.0343 0
M  V30 2292 H 211.368 -2.90596 0.741208 0
M  V30 2293 H 208.921 -1.5048 0.422532 0
M  V30 2294 H 209.656 -2.68339 -1.82111 0
M  V30 2295 H 209.441 -3.88676 -0.517082 0
M  V30 2296 H 210.931 -3.89451 -1.50723 0
M  V30 2297 N 211.368 -0.403325 -1.52352 0
M  V30 2298 C 212.331 0.413051 -2.25447 0
M  V30 2299 C 213.331 0.978513 -1.276 0
M  V30 2300 O 214.521 0.858305 -1.51587 0
M  V30 2301 C 211.653 1.58087 -3.02029 0
M  V30 2302 H 212.846 -0.227094 -2.99039 0
M  V30 2303 H 210.399 -0.155722 -1.55522 0
M  V30 2304 H 211.134 2.25804 -2.32772 0
M  V30 2305 H 210.919 1.18195 -3.73861 0
M  V30 2306 H 212.409 2.1585 -3.57489 0
M  V30 2307 N 212.846 1.57033 -0.133567 0
M  V30 2308 C 213.793 2.16074 0.811208 0
M  V30 2309 C 214.763 1.08979 1.2535 0
M  V30 2310 O 215.948 1.36958 1.32843 0
M  V30 2311 C 213.088 2.77595 2.05024 0
M  V30 2312 C 212.201 3.99042 1.65498 0
M  V30 2313 C 211.336 4.48603 2.84479 0
M  V30 2314 C 210.375 5.62547 2.41262 0
M  V30 2315 N 209.512 6.06787 3.53206 0
M  V30 2316 H 214.352 2.96477 0.300906 0
M  V30 2317 H 211.889 1.46462 0.136822 0
M  V30 2318 H 213.847 3.11402 2.77642 0
M  V30 2319 H 212.477 1.99859 2.53488 0
M  V30 2320 H 211.529 3.71302 0.826981 0
M  V30 2321 H 212.841 4.81629 1.29748 0
M  V30 2322 H 211.995 4.84395 3.65303 0
M  V30 2323 H 210.734 3.64995 3.23465 0
M  V30 2324 H 209.739 5.26345 1.58874 0
M  V30 2325 H 210.964 6.47931 2.03377 0
M  V30 2326 H 208.91 5.26117 3.91838 0
M  V30 2327 H 208.827 6.84266 3.21427 0
M  V30 2328 H 210.095 6.4722 4.34427 0
M  V30 2329 N 214.325 -0.140222 1.56975 0
M  V30 2330 C 215.574 -0.850152 1.82908 0
M  V30 2331 C 215.887 -1.82028 0.715892 0
M  V30 2332 O 217.093 -2.57485 0.861016 0
M  V30 2333 C 215.549 -1.5625 3.24213 0
M  V30 2334 C 215.157 -0.63443 4.43485 0
M  V30 2335 C 216.901 -2.25881 3.59413 0
M  V30 2336 C 214.808 -1.34879 5.75814 0
M  V30 2337 H 213.738 -0.321221 0.682153 0
M  V30 2338 H 216.389 -0.102874 1.83211 0
M  V30 2339 H 214.771 -2.35565 3.18316 0
M  V30 2340 H 215.945 0.12398 4.60633 0
M  V30 2341 H 214.26 -0.0461836 4.16374 0
M  V30 2342 H 216.857 -2.79978 4.5554 0
M  V30 2343 H 217.2 -3.02693 2.85802 0
M  V30 2344 H 217.733 -1.53477 3.67001 0
M  V30 2345 H 214.472 -0.622385 6.52539 0
M  V30 2346 H 213.992 -2.07974 5.6259 0
M  V30 2347 H 215.671 -1.88784 6.18845 0
M  V30 2348 N 215.803 -1.52179 -0.40978 0
M  V30 2349 C 217.051 -1.65878 -1.15451 0
M  V30 2350 C 217.372 -0.390771 -1.91044 0
M  V30 2351 O 216.642 0.594323 -1.86667 0
M  V30 2352 H 215.222 -0.611405 -0.429177 0
M  V30 2353 H 217.884 -1.89219 -0.467134 0
M  V30 2354 H 216.98 -2.49954 -1.86894 0
M  V30 2355 N 217.281 0.66697 -1.42791 0
M  V30 2356 C 218.231 1.77313 -1.43332 0
M  V30 2357 C 219.215 1.5801 -0.303586 0
M  V30 2358 O 220.407 1.68356 -0.546385 0
M  V30 2359 C 217.536 3.15822 -1.34578 0
M  V30 2360 C 216.622 3.40721 -2.52528 0
M  V30 2361 N 217.013 3.36162 -3.77927 0
M  V30 2362 C 215.311 3.71387 -2.46956 0
M  V30 2363 C 216.012 3.60762 -4.56318 0
M  V30 2364 N 214.988 3.81908 -3.86843 0
M  V30 2365 H 218.79 1.72193 -2.38174 0
M  V30 2366 H 216.304 0.868114 -1.3725 0
M  V30 2367 H 218.301 3.951 -1.33048 0
M  V30 2368 H 216.961 3.22133 -0.407453 0
M  V30 2369 H 217.972 3.15885 -4.10411 0
M  V30 2370 H 214.649 3.84897 -1.61743 0
M  V30 2371 H 216.039 3.63132 -5.65318 0
M  V30 2372 N 218.759 1.29093 0.90403 0
M  V30 2373 C 220.007 1.16583 1.65085 0
M  V30 2374 C 220.328 -0.283933 1.92922 0
M  V30 2375 O 219.598 -1.19509 1.55224 0
M  V30 2376 H 218.178 0.428467 0.611903 0
M  V30 2377 H 220.84 1.61959 1.08422 0
M  V30 2378 H 219.936 1.71266 2.6091 0
M  V30 2379 N 220.237 -1.11381 1.11499 0
M  V30 2380 C 221.486 -1.82494 0.858993 0
M  V30 2381 C 221.799 -1.85605 -0.617278 0
M  V30 2382 O 223.005 -2.52824 -0.989552 0
M  V30 2383 C 221.461 -3.27745 1.48699 0
M  V30 2384 C 221.069 -3.32961 2.99735 0
M  V30 2385 C 222.813 -4.03754 1.31085 0
M  V30 2386 C 220.72 -4.72612 3.55516 0
M  V30 2387 H 219.65 -0.683802 0.317696 0
M  V30 2388 H 222.301 -1.25331 1.34031 0
M  V30 2389 H 220.683 -3.84844 0.933339 0
M  V30 2390 H 221.857 -2.85741 3.61509 0
M  V30 2391 H 220.172 -2.70433 3.16631 0
M  V30 2392 H 222.769 -5.06891 1.70192 0
M  V30 2393 H 223.112 -4.15527 0.253496 0
M  V30 2394 H 223.645 -3.53043 1.83318 0
M  V30 2395 H 220.384 -4.66036 4.60967 0
M  V30 2396 H 219.904 -5.2024 2.98513 0
M  V30 2397 H 221.583 -5.4157 3.53992 0
M  V30 2398 N 221.715 -0.905404 -1.28997 0
M  V30 2399 C 222.648 -0.331959 -2.25773 0
M  V30 2400 C 223.626 0.559099 -1.52685 0
M  V30 2401 O 224.81 0.50463 -1.8162 0
M  V30 2402 C 221.937 0.526276 -3.34586 0
M  V30 2403 C 220.983 -0.298249 -4.25456 0
M  V30 2404 S 221.816 -1.69968 -5.0781 0
M  V30 2405 C 222.972 -0.848519 -6.20122 0
M  V30 2406 H 223.205 -1.15222 -2.74064 0
M  V30 2407 H 220.738 -0.706112 -1.37308 0
M  V30 2408 H 222.696 1.01565 -3.97737 0
M  V30 2409 H 221.357 1.32084 -2.84978 0
M  V30 2410 H 220.55 0.357607 -5.0273 0
M  V30 2411 H 220.152 -0.720968 -3.66985 0
M  V30 2412 H 222.444 -0.0744325 -6.77459 0
M  V30 2413 H 223.387 -1.59353 -6.89937 0
M  V30 2414 H 223.795 -0.400383 -5.63078 0
M  V30 2415 N 223.193 1.4272 -0.668489 0
M  V30 2416 C 224.44 2.01624 -0.18814 0
M  V30 2417 C 224.768 1.5282 1.20317 0
M  V30 2418 O 224.023 0.718323 1.8204 0
M  V30 2419 C 224.322 3.57021 -0.164499 0
M  V30 2420 C 223.988 4.25232 -1.49962 0
M  V30 2421 C 222.65 4.4358 -1.8652 0
M  V30 2422 C 225.002 4.63727 -2.37921 0
M  V30 2423 C 222.33 4.97694 -3.10674 0
M  V30 2424 C 224.682 5.19218 -3.6138 0
M  V30 2425 C 223.346 5.3578 -3.98115 0
M  V30 2426 H 222.616 0.737795 -0.0688454 0
M  V30 2427 H 225.263 1.70991 -0.862225 0
M  V30 2428 H 223.568 3.87285 0.593079 0
M  V30 2429 H 225.265 4.00372 0.224271 0
M  V30 2430 H 221.855 4.11306 -1.20522 0
M  V30 2431 H 226.039 4.4923 -2.10964 0
M  V30 2432 H 221.295 5.08702 -3.39164 0
M  V30 2433 H 225.469 5.4799 -4.29743 0
M  V30 2434 H 223.096 5.77475 -4.94395 0
M  V30 2435 N 224.671 0.411399 1.52136 0
M  V30 2436 C 225.948 -0.222308 1.94333 0
M  V30 2437 C 226.328 -1.6242 1.34844 0
M  V30 2438 O 225.676 -2.22384 0.525145 0
M  V30 2439 C 225.886 -0.226345 3.48265 0
M  V30 2440 C 227.234 -0.444592 4.22266 0
M  V30 2441 O 228.258 -0.305602 3.54887 0
M  V30 2442 O 227.117 -0.718749 5.41753 0
M  V30 2443 H 224.211 -0.143907 0.814383 0
M  V30 2444 H 226.757 0.467506 1.63133 0
M  V30 2445 H 225.529 0.75475 3.83952 0
M  V30 2446 H 225.152 -0.960163 3.85832 0
M  V30 2447 N 226.149 -1.5696 0.141893 0
M  V30 2448 C 227.099 -2.13074 -0.811383 0
M  V30 2449 C 228.083 -1.05726 -1.21288 0
M  V30 2450 O 229.275 -1.31914 -1.18015 0
M  V30 2451 C 226.404 -2.75186 -2.0525 0
M  V30 2452 C 225.49 -3.8965 -1.67432 0
M  V30 2453 N 225.881 -4.95733 -1.0041 0
M  V30 2454 C 224.179 -4.00262 -1.96739 0
M  V30 2455 C 224.88 -5.75858 -0.822345 0
M  V30 2456 N 223.856 -5.26452 -1.3546 0
M  V30 2457 H 227.658 -2.92465 -0.290031 0
M  V30 2458 H 225.172 -1.6229 -0.0598218 0
M  V30 2459 H 227.169 -3.13745 -2.74535 0
M  V30 2460 H 225.829 -1.97266 -2.57907 0
M  V30 2461 H 226.84 -5.13607 -0.665441 0
M  V30 2462 H 223.517 -3.33412 -2.51282 0
M  V30 2463 H 224.907 -6.71254 -0.294496 0
M  V30 2464 N 227.627 0.131896 -1.57047 0
M  V30 2465 C 228.59 1.14638 -1.98471 0
M  V30 2466 C 229.59 1.35029 -0.873148 0
M  V30 2467 O 230.78 1.31764 -1.13946 0
M  V30 2468 C 227.912 2.50358 -2.31373 0
M  V30 2469 H 229.105 0.79064 -2.8929 0
M  V30 2470 H 226.658 0.375761 -1.51716 0
M  V30 2471 H 227.393 2.90876 -1.43393 0
M  V30 2472 H 227.178 2.36915 -3.12432 0
M  V30 2473 H 228.668 3.23395 -2.64207 0
M  V30 2474 N 229.106 1.52395 0.401703 0
M  V30 2475 C 230.334 1.70676 1.16949 0
M  V30 2476 C 230.749 0.419503 1.8408 0
M  V30 2477 O 230.106 -0.605061 1.72178 0
M  V30 2478 C 230.157 2.84753 2.22706 0
M  V30 2479 O 229.878 4.08495 1.58314 0
M  V30 2480 C 231.379 3.14608 3.12309 0
M  V30 2481 H 228.599 0.571787 0.351142 0
M  V30 2482 H 231.143 1.98987 0.471652 0
M  V30 2483 H 229.298 2.58941 2.88147 0
M  V30 2484 H 229.712 4.72117 2.28485 0
M  V30 2485 H 231.186 3.97923 3.82572 0
M  V30 2486 H 231.663 2.28464 3.75101 0
M  V30 2487 H 232.269 3.42212 2.52529 0
M  V30 2488 N 230.584 -0.659388 1.43143 0
M  V30 2489 C 231.832 -1.41654 1.44147 0
M  V30 2490 C 232.153 -1.94893 0.0645739 0
M  V30 2491 O 231.423 -1.74044 -0.899198 0
M  V30 2492 H 230.003 -0.525708 0.530697 0
M  V30 2493 H 232.665 -0.778097 1.78694 0
M  V30 2494 H 231.761 -2.26195 2.1504 0
M  V30 2495 N 232.062 -1.29571 -0.897171 0
M  V30 2496 C 233.311 -1.1706 -1.64256 0
M  V30 2497 C 233.624 0.276476 -1.93636 0
M  V30 2498 O 234.83 0.52294 -2.66416 0
M  V30 2499 C 233.286 -2.0475 -2.95982 0
M  V30 2500 C 232.894 -3.54295 -2.74187 0
M  V30 2501 C 234.638 -2.0097 -3.73914 0
M  V30 2502 C 232.545 -4.34081 -4.01656 0
M  V30 2503 H 231.475 -0.43452 -0.616205 0
M  V30 2504 H 234.126 -1.54229 -0.994268 0
M  V30 2505 H 232.508 -1.60452 -3.62038 0
M  V30 2506 H 233.682 -4.06662 -2.1671 0
M  V30 2507 H 231.997 -3.59773 -2.09648 0
M  V30 2508 H 234.594 -2.57838 -4.68427 0
M  V30 2509 H 234.937 -0.990273 -4.0435 0
M  V30 2510 H 235.47 -2.43325 -3.14703 0
M  V30 2511 H 232.209 -5.36671 -3.76384 0
M  V30 2512 H 231.729 -3.86483 -4.58684 0
M  V30 2513 H 233.408 -4.44877 -4.69781 0
M  V30 2514 N 233.54 1.10788 -1.12088 0
M  V30 2515 C 234.786 1.82942 -0.875226 0
M  V30 2516 C 235.119 1.84779 0.597538 0
M  V30 2517 O 234.394 1.30578 1.44152 0
M  V30 2518 C 234.677 3.29789 -1.44606 0
M  V30 2519 C 234.53 3.36307 -2.98693 0
M  V30 2520 C 235.849 4.26064 -1.10261 0
M  V30 2521 H 232.968 0.664195 -0.319397 0
M  V30 2522 H 235.61 1.29867 -1.38689 0
M  V30 2523 H 233.76 3.75118 -1.01089 0
M  V30 2524 H 235.432 2.99487 -3.50864 0
M  V30 2525 H 233.675 2.76318 -3.34411 0
M  V30 2526 H 234.346 4.39694 -3.33726 0
M  V30 2527 H 236.822 3.88951 -1.4784 0
M  V30 2528 H 235.698 5.27183 -1.52869 0
M  V30 2529 H 235.959 4.42098 -0.0142953 0
M  V30 2530 N 235.018 0.912232 1.28515 0
M  V30 2531 C 236.264 0.545405 1.95328 0
M  V30 2532 C 236.597 -0.908313 1.71649 0
M  V30 2533 O 235.872 -1.64575 1.03659 0
M  V30 2534 C 236.155 0.853483 3.4984 0
M  V30 2535 C 236.008 2.35982 3.82926 0
M  V30 2536 C 237.327 0.348589 4.38717 0
M  V30 2537 H 234.446 0.199626 0.709449 0
M  V30 2538 H 237.088 1.1412 1.5191 0
M  V30 2539 H 235.238 0.34643 3.86952 0
M  V30 2540 H 236.91 2.93738 3.55691 0
M  V30 2541 H 235.153 2.81543 3.30024 0
M  V30 2542 H 235.824 2.52593 4.90816 0
M  V30 2543 H 238.3 0.78294 4.08668 0
M  V30 2544 H 237.176 0.593242 5.45685 0
M  V30 2545 H 237.437 -0.751049 4.35674 0
M  V30 2546 N 236.496 -1.42363 0.676048 0
M  V30 2547 C 237.744 -2.01123 0.198437 0
M  V30 2548 C 238.065 -1.53731 -1.19966 0
M  V30 2549 O 237.335 -0.759518 -1.80577 0
M  V30 2550 H 235.915 -0.743678 0.0703721 0
M  V30 2551 H 238.577 -1.74263 0.872837 0
M  V30 2552 H 237.673 -3.11454 0.200686 0
M  V30 2553 N 237.974 -0.419461 -1.51915 0
M  V30 2554 C 238.884 0.407528 -2.31033 0
M  V30 2555 C 239.9 1.04413 -1.3919 0
M  V30 2556 O 241.076 1.0434 -1.72265 0
M  V30 2557 C 238.141 1.50365 -3.12396 0
M  V30 2558 C 237.202 0.889029 -4.19994 0
M  V30 2559 C 236.435 1.93291 -4.97468 0
M  V30 2560 O 236.658 3.15259 -4.75361 0
M  V30 2561 O 235.592 1.53339 -5.8204 0
M  V30 2562 H 239.418 -0.237865 -3.02767 0
M  V30 2563 H 237.003 -0.182413 -1.48282 0
M  V30 2564 H 238.885 2.13975 -3.63032 0
M  V30 2565 H 237.56 2.13345 -2.43445 0
M  V30 2566 H 236.467 0.215353 -3.7348 0
M  V30 2567 H 237.8 0.302991 -4.91267 0
M  V30 2568 N 239.452 1.56882 -0.150215 0
M  V30 2569 C 240.68 2.00593 0.506948 0
M  V30 2570 C 241.095 1.03033 1.58208 0
M  V30 2571 O 240.452 0.0278396 1.82479 0
M  V30 2572 C 240.503 3.44209 1.10465 0
M  V30 2573 O 240.224 4.3804 0.0724636 0
M  V30 2574 C 241.725 4.03214 1.84211 0
M  V30 2575 H 238.945 0.65795 0.13169 0
M  V30 2576 H 241.489 2.03018 -0.245743 0
M  V30 2577 H 239.644 3.42625 1.80795 0
M  V30 2578 H 240.058 5.22007 0.510793 0
M  V30 2579 H 241.532 5.0569 2.21318 0
M  V30 2580 H 242.009 3.44107 2.72923 0
M  V30 2581 H 242.615 4.08437 1.18572 0
M  V30 2582 N 240.93 -0.123565 1.57115 0
M  V30 2583 C 242.155 -0.850398 1.89164 0
M  V30 2584 C 242.58 -1.7286 0.741688 0
M  V30 2585 O 241.938 -1.78665 -0.307958 0
M  V30 2586 C 241.986 -1.66353 3.19936 0
M  V30 2587 O 241.09 -2.77004 3.0552 0
M  V30 2588 H 240.431 -0.235454 0.620852 0
M  V30 2589 H 242.961 -0.107335 2.04318 0
M  V30 2590 H 242.971 -2.05372 3.52543 0
M  V30 2591 H 241.646 -1.01881 4.03228 0
M  V30 2592 H 240.223 -2.41221 2.84371 0
M  V30 2593 N 242.408 -1.52605 -0.393616 0
M  V30 2594 C 243.654 -1.67672 -1.14079 0
M  V30 2595 C 243.987 -0.413121 -1.89755 0
M  V30 2596 O 243.262 0.588952 -1.85369 0
M  V30 2597 C 243.545 -2.9088 -2.12276 0
M  V30 2598 C 243.398 -4.27329 -1.40394 0
M  V30 2599 C 244.717 -3.09628 -3.12759 0
M  V30 2600 H 241.836 -0.610168 -0.413356 0
M  V30 2601 H 244.478 -1.85193 -0.424696 0
M  V30 2602 H 242.628 -2.76073 -2.73342 0
M  V30 2603 H 244.3 -4.53894 -0.82327 0
M  V30 2604 H 242.543 -4.2802 -0.705801 0
M  V30 2605 H 243.214 -5.09615 -2.12123 0
M  V30 2606 H 245.69 -3.23436 -2.61779 0
M  V30 2607 H 244.566 -3.97322 -3.78717 0
M  V30 2608 H 244.827 -2.23637 -3.81365 0
M  V30 2609 N 243.887 0.651787 -1.4349 0
M  V30 2610 C 245.136 1.40754 -1.44469 0
M  V30 2611 C 245.449 1.95463 -0.0731845 0
M  V30 2612 O 246.655 2.71471 0.0395721 0
M  V30 2613 C 245.111 2.54735 -2.5424 0
M  V30 2614 C 244.719 2.06628 -3.97504 0
M  V30 2615 C 246.463 3.32092 -2.64414 0
M  V30 2616 C 244.37 3.17829 -4.98737 0
M  V30 2617 H 243.3 0.528862 -0.53742 0
M  V30 2618 H 245.951 0.703365 -1.69485 0
M  V30 2619 H 244.333 3.2763 -2.22428 0
M  V30 2620 H 245.507 1.40734 -4.38783 0
M  V30 2621 H 243.822 1.42146 -3.91387 0
M  V30 2622 H 246.419 4.14952 -3.37223 0
M  V30 2623 H 246.762 3.80217 -1.69532 0
M  V30 2624 H 247.295 2.66279 -2.95534 0
M  V30 2625 H 244.034 2.74671 -5.95177 0
M  V30 2626 H 243.554 3.82429 -4.62069 0
M  V30 2627 H 245.233 3.82937 -5.21505 0
M  V30 2628 N 245.365 1.30045 0.890287 0
M  V30 2629 C 246.275 1.17885 2.02831 0
M  V30 2630 C 247.291 0.0999609 1.73713 0
M  V30 2631 O 248.467 0.313867 1.98939 0
M  V30 2632 C 245.532 0.866079 3.35708 0
M  V30 2633 C 244.593 2.02979 3.78283 0
M  V30 2634 C 243.826 1.73184 5.0482 0
M  V30 2635 O 244.049 0.657237 5.66601 0
M  V30 2636 O 242.983 2.58267 5.43674 0
M  V30 2637 H 246.809 2.13474 2.16015 0
M  V30 2638 H 244.394 1.09587 1.01543 0
M  V30 2639 H 246.276 0.706623 4.15433 0
M  V30 2640 H 244.951 -0.0599443 3.23644 0
M  V30 2641 H 243.858 2.24454 2.99285 0
M  V30 2642 H 245.191 2.93734 3.94944 0
M  V30 2643 N 246.843 -1.10192 1.12674 0
M  V30 2644 C 247.791 -2.18694 0.792196 0
M  V30 2645 C 248.785 -1.67938 -0.222058 0
M  V30 2646 O 249.991 -1.79822 -0.0800074 0
M  V30 2647 H 246.366 -0.713223 0.238364 0
M  V30 2648 H 248.337 -2.44149 1.71564 0
M  V30 2649 C 247.086 -3.46682 0.265859 0
M  V30 2650 H 246.409 -3.86101 1.03761 0
M  V30 2651 H 247.849 -4.23942 0.0701128 0
M  V30 2652 C 246.308 -3.21506 -1.00675 0
M  V30 2653 O 246.838 -3.43408 -2.08408 0
M  V30 2654 N 245.044 -2.75158 -0.934692 0
M  V30 2655 H 244.591 -2.57535 -0.0578604 0
M  V30 2656 H 244.549 -2.58691 -1.7868 0
M  V30 2657 N 248.321 -0.919034 -1.28029 0
M  V30 2658 C 249.598 -0.473668 -1.89778 0
M  V30 2659 C 249.978 1.04783 -1.83259 0
M  V30 2660 O 249.326 1.8982 -1.27202 0
M  V30 2661 C 249.536 -1.00998 -3.34066 0
M  V30 2662 C 250.884 -1.06525 -4.1102 0
M  V30 2663 O 251.908 -0.958996 -3.43048 0
M  V30 2664 O 250.767 -1.22776 -5.3253 0
M  V30 2665 H 247.861 -0.15098 -0.813101 0
M  V30 2666 H 250.407 -1.01016 -1.36359 0
M  V30 2667 H 249.179 -2.05392 -3.33061 0
M  V30 2668 H 248.802 -0.454626 -3.94992 0
M  V30 2669 N 249.799 1.42003 -0.683588 0
M  V30 2670 C 251.045 2.01712 -0.209825 0
M  V30 2671 C 251.378 1.53968 1.18353 0
M  V30 2672 O 250.653 0.745661 1.79639 0
M  V30 2673 C 250.936 3.59202 -0.254197 0
M  V30 2674 C 250.789 4.17102 -1.68363 0
M  V30 2675 C 252.108 4.38344 0.392709 0
M  V30 2676 H 249.227 0.732891 -0.0777189 0
M  V30 2677 H 251.869 1.68909 -0.87004 0
M  V30 2678 H 250.019 3.87278 0.307954 0
M  V30 2679 H 251.691 3.99946 -2.29871 0
M  V30 2680 H 249.934 3.72597 -2.22157 0
M  V30 2681 H 250.605 5.26249 -1.6663 0
M  V30 2682 H 253.081 4.16011 -0.0859162 0
M  V30 2683 H 251.957 5.47901 0.331063 0
M  V30 2684 H 252.218 4.16887 1.47164 0
M  V30 2685 N 251.277 0.427512 1.51691 0
M  V30 2686 C 252.502 -0.143601 2.06902 0
M  V30 2687 C 252.927 -1.36536 1.29382 0
M  V30 2688 O 252.285 -1.78289 0.329043 0
M  V30 2689 C 252.333 -0.454207 3.57728 0
M  V30 2690 O 251.437 -1.54228 3.82475 0
M  V30 2691 H 250.778 -0.00617128 0.663971 0
M  V30 2692 H 253.308 0.606014 1.95419 0
M  V30 2693 H 253.318 -0.707525 4.01818 0
M  V30 2694 H 251.993 0.438812 4.13579 0
M  V30 2695 H 250.57 -1.2797 3.50254 0
M  V30 2696 N 252.755 -1.56801 0.158532 0
M  V30 2697 C 254.004 -1.95665 -0.489702 0
M  V30 2698 C 254.317 -1.04654 -1.65248 0
M  V30 2699 O 255.523 -1.33146 -2.3661 0
M  V30 2700 C 253.979 -3.47874 -0.922582 0
M  V30 2701 C 253.587 -4.47489 0.213893 0
M  V30 2702 C 255.331 -3.95583 -1.53996 0
M  V30 2703 C 253.238 -5.90921 -0.237903 0
M  V30 2704 H 252.168 -0.730516 -0.186716 0
M  V30 2705 H 254.819 -1.81861 0.244722 0
M  V30 2706 H 253.201 -3.57051 -1.71261 0
M  V30 2707 H 254.375 -4.50017 0.991036 0
M  V30 2708 H 252.69 -4.09764 0.740407 0
M  V30 2709 H 255.287 -5.0019 -1.8898 0
M  V30 2710 H 255.63 -3.37789 -2.43319 0
M  V30 2711 H 256.163 -3.8937 -0.814611 0
M  V30 2712 H 252.902 -6.52559 0.620236 0
M  V30 2713 H 252.422 -5.91729 -0.980676 0
M  V30 2714 H 254.101 -6.43352 -0.686067 0
M  V30 2715 N 254.233 0.115231 -1.57178 0
M  V30 2716 C 255.163 1.1423 -2.03651 0
M  V30 2717 C 256.144 1.42967 -0.921655 0
M  V30 2718 O 257.329 1.53343 -1.19162 0
M  V30 2719 C 254.459 2.4675 -2.44401 0
M  V30 2720 C 253.413 2.32467 -3.59365 0
M  V30 2721 C 252.739 3.69984 -3.86026 0
M  V30 2722 C 254.039 1.78203 -4.90959 0
M  V30 2723 H 255.733 0.755749 -2.89705 0
M  V30 2724 H 253.279 0.362093 -1.39373 0
M  V30 2725 H 255.232 3.18854 -2.75517 0
M  V30 2726 H 253.956 2.87302 -1.55322 0
M  V30 2727 H 252.615 1.62811 -3.28463 0
M  V30 2728 H 252.263 4.08028 -2.94147 0
M  V30 2729 H 251.963 3.61279 -4.63412 0
M  V30 2730 H 253.487 4.43587 -4.19599 0
M  V30 2731 H 254.901 2.40128 -5.20587 0
M  V30 2732 H 253.298 1.8031 -5.72371 0
M  V30 2733 H 254.368 0.739876 -4.79222 0
M  V30 2734 N 255.711 1.52812 0.385517 0
M  V30 2735 C 256.643 1.74096 1.49074 0
M  V30 2736 C 257.656 0.621462 1.50472 0
M  V30 2737 O 258.845 0.897245 1.54311 0
M  V30 2738 C 255.945 1.78774 2.87911 0
M  V30 2739 C 255.118 3.08134 3.10439 0
M  V30 2740 C 254.177 3.04313 4.29278 0
M  V30 2741 O 253.203 3.78168 4.25415 0
M  V30 2742 N 254.405 2.23741 5.35649 0
M  V30 2743 H 257.17 2.69455 1.31202 0
M  V30 2744 H 254.731 1.51343 0.575065 0
M  V30 2745 H 256.723 1.73721 3.65518 0
M  V30 2746 H 255.293 0.907869 2.99126 0
M  V30 2747 H 254.513 3.26649 2.20667 0
M  V30 2748 H 255.801 3.93662 3.22347 0
M  V30 2749 H 255.199 1.63211 5.41645 0
M  V30 2750 H 253.756 2.24524 6.11909 0
M  V30 2751 N 257.189 -0.644168 1.43834 0
M  V30 2752 C 258.437 -1.40117 1.45642 0
M  V30 2753 C 258.758 -1.94814 0.0852413 0
M  V30 2754 O 258.028 -1.74988 -0.880688 0
M  V30 2755 H 256.608 -0.52005 0.536243 0
M  V30 2756 H 259.27 -0.7591 1.7951 0
M  V30 2757 H 258.366 -2.23902 2.17427 0
M  V30 2758 N 258.668 -1.30515 -0.883378 0
M  V30 2759 C 259.914 -1.19607 -1.63774 0
M  V30 2760 C 260.247 0.248314 -1.92606 0
M  V30 2761 O 259.522 1.17742 -1.54813 0
M  V30 2762 C 259.805 -2.02669 -2.97653 0
M  V30 2763 C 259.658 -3.55335 -2.75784 0
M  V30 2764 C 260.977 -1.86573 -3.98596 0
M  V30 2765 H 258.096 -0.435856 -0.594305 0
M  V30 2766 H 260.738 -1.60165 -1.02212 0
M  V30 2767 H 258.888 -1.68208 -3.50197 0
M  V30 2768 H 260.56 -3.99863 -2.30016 0
M  V30 2769 H 258.803 -3.79438 -2.1026 0
M  V30 2770 H 259.474 -4.08745 -3.70988 0
M  V30 2771 H 261.95 -2.16703 -3.55217 0
M  V30 2772 H 260.826 -2.47014 -4.90179 0
M  V30 2773 H 261.087 -0.825321 -4.34328 0
M  V30 2774 N 260.146 1.09593 -1.13257 0
M  V30 2775 C 261.374 1.855 -0.916378 0
M  V30 2776 C 261.789 1.81069 0.534738 0
M  V30 2777 O 261.146 1.20562 1.37007 0
M  V30 2778 C 261.197 3.33546 -1.39388 0
M  V30 2779 O 260.918 3.37927 -2.78813 0
M  V30 2780 C 262.419 4.26299 -1.21588 0
M  V30 2781 H 259.639 0.585991 -0.326887 0
M  V30 2782 H 262.183 1.38488 -1.5047 0
M  V30 2783 H 260.338 3.77992 -0.848597 0
M  V30 2784 H 260.752 4.30254 -2.9997 0
M  V30 2785 H 262.226 5.28341 -1.59876 0
M  V30 2786 H 262.703 4.38918 -0.157376 0
M  V30 2787 H 263.309 3.87668 -1.7491 0
M  V30 2788 N 261.624 0.925811 1.2754 0
M  V30 2789 C 262.554 0.440748 2.29303 0
M  V30 2790 C 263.535 -0.497971 1.62648 0
M  V30 2791 O 264.72 -0.403126 1.8997 0
M  V30 2792 C 261.85 -0.309048 3.45922 0
M  V30 2793 C 260.804 0.54166 4.24559 0
M  V30 2794 C 260.13 -0.337191 5.33636 0
M  V30 2795 C 261.43 1.80516 4.90114 0
M  V30 2796 H 263.124 1.29121 2.70126 0
M  V30 2797 H 260.67 0.622323 1.29858 0
M  V30 2798 H 262.623 -0.659315 4.1621 0
M  V30 2799 H 261.347 -1.19352 3.04011 0
M  V30 2800 H 260.006 0.874609 3.56014 0
M  V30 2801 H 259.654 -1.22056 4.87966 0
M  V30 2802 H 259.354 0.228497 5.87156 0
M  V30 2803 H 260.878 -0.683072 6.06767 0
M  V30 2804 H 262.292 1.52307 5.52698 0
M  V30 2805 H 260.689 2.3142 5.53683 0
M  V30 2806 H 261.759 2.52581 4.13921 0
M  V30 2807 N 263.102 -1.41638 0.69111 0
M  V30 2808 C 264.35 -2.00902 0.219758 0
M  V30 2809 C 264.671 -1.54994 -1.18329 0
M  V30 2810 O 263.941 -0.778628 -1.79762 0
M  V30 2811 H 262.521 -0.74289 0.0782558 0
M  V30 2812 H 265.183 -1.73327 0.891271 0
M  V30 2813 H 264.279 -3.11224 0.233708 0
M  V30 2814 N 264.58 -0.43555 -1.51462 0
M  V30 2815 C 265.828 0.131254 -2.01673 0
M  V30 2816 C 266.149 1.43368 -1.32177 0
M  V30 2817 O 265.419 1.90524 -0.455769 0
M  V30 2818 H 263.999 0.0514954 -0.745223 0
M  V30 2819 H 266.661 -0.577847 -1.86137 0
M  V30 2820 H 265.757 0.308446 -3.10572 0
M  V30 2821 N 266.058 1.56714 -0.166846 0
M  V30 2822 C 267.286 2.0112 0.485644 0
M  V30 2823 C 267.701 1.04705 1.57106 0
M  V30 2824 O 267.058 0.0471923 1.82439 0
M  V30 2825 C 267.109 3.45361 1.06808 0
M  V30 2826 O 266.83 4.38092 0.0259995 0
M  V30 2827 C 268.331 4.05145 1.79924 0
M  V30 2828 H 265.551 0.65931 0.124704 0
M  V30 2829 H 268.095 2.02746 -0.267262 0
M  V30 2830 H 266.25 3.44524 1.7715 0
M  V30 2831 H 266.664 5.22519 0.455398 0
M  V30 2832 H 268.138 5.08009 2.15942 0
M  V30 2833 H 268.615 3.46982 2.69258 0
M  V30 2834 H 269.221 4.09672 1.14234 0
M  V30 2835 N 267.536 -0.106894 1.57237 0
M  V30 2836 C 268.784 -0.810921 1.85117 0
M  V30 2837 C 269.105 -1.7984 0.753827 0
M  V30 2838 O 268.375 -1.94649 -0.221056 0
M  V30 2839 H 266.955 -0.302466 0.683025 0
M  V30 2840 H 269.617 -0.0913324 1.94686 0
M  V30 2841 H 268.713 -1.34875 2.81452 0
M  V30 2842 N 269.014 -1.53014 -0.377408 0
M  V30 2843 C 269.961 -1.78616 -1.46168 0
M  V30 2844 C 270.931 -0.629917 -1.53692 0
M  V30 2845 O 272.116 -0.870861 -1.69766 0
M  V30 2846 C 269.256 -1.97123 -2.8326 0
M  V30 2847 C 268.369 -3.24831 -2.84796 0
M  V30 2848 C 267.504 -3.33591 -4.13389 0
M  V30 2849 C 266.543 -4.55377 -4.09021 0
M  V30 2850 N 265.68 -4.61355 -5.29241 0
M  V30 2851 H 270.52 -2.71142 -1.23637 0
M  V30 2852 H 268.057 -1.34326 -0.599577 0
M  V30 2853 H 270.015 -2.05839 -3.62886 0
M  V30 2854 H 268.645 -1.07946 -3.04216 0
M  V30 2855 H 267.697 -3.25128 -1.97474 0
M  V30 2856 H 269.009 -4.14523 -2.77439 0
M  V30 2857 H 268.163 -3.41554 -5.01424 0
M  V30 2858 H 266.902 -2.41894 -4.23484 0
M  V30 2859 H 265.907 -4.47527 -3.19373 0
M  V30 2860 H 267.132 -5.48402 -4.00539 0
M  V30 2861 H 265.078 -3.72554 -5.39944 0
M  V30 2862 H 264.995 -5.44935 -5.24006 0
M  V30 2863 H 266.263 -4.73586 -6.19141 0
M  V30 2864 N 270.492 0.636531 -1.44174 0
M  V30 2865 C 271.402 1.77754 -1.53103 0
M  V30 2866 C 272.418 1.68928 -0.417034 0
M  V30 2867 O 273.594 1.89801 -0.6736 0
M  V30 2868 C 270.659 3.14115 -1.46741 0
M  V30 2869 C 269.72 3.34612 -2.68948 0
M  V30 2870 C 268.953 4.64467 -2.6288 0
M  V30 2871 O 269.176 5.44919 -1.68581 0
M  V30 2872 O 268.11 4.87049 -3.53648 0
M  V30 2873 H 271.936 1.73174 -2.49489 0
M  V30 2874 H 269.521 0.79709 -1.2636 0
M  V30 2875 H 271.403 3.95412 -1.45696 0
M  V30 2876 H 270.078 3.19249 -0.534975 0
M  V30 2877 H 268.985 2.53014 -2.75562 0
M  V30 2878 H 270.318 3.34336 -3.61221 0
M  V30 2879 N 271.97 1.30982 0.876444 0
M  V30 2880 C 273.195 1.23373 1.66715 0
M  V30 2881 C 273.62 -0.19885 1.87046 0
M  V30 2882 O 272.978 -1.1427 1.40756 0
M  V30 2883 C 273.026 1.97644 3.01611 0
M  V30 2884 O 272.13 1.30935 3.91062 0
M  V30 2885 H 271.471 0.426279 0.509099 0
M  V30 2886 H 274.001 1.72944 1.09323 0
M  V30 2887 H 274.011 2.06992 3.51594 0
M  V30 2888 H 272.686 3.01829 2.86133 0
M  V30 2889 H 271.263 1.29996 3.49507 0
M  V30 2890 N 273.449 -1.08991 1.13837 0
M  V30 2891 C 274.697 -1.80899 0.901098 0
M  V30 2892 C 275.018 -1.86356 -0.574134 0
M  V30 2893 O 274.288 -1.35235 -1.41733 0
M  V30 2894 H 272.868 -0.669966 0.330386 0
M  V30 2895 H 275.53 -1.318 1.43578 0
M  V30 2896 H 274.626 -2.83929 1.29578 0
M  V30 2897 N 274.927 -0.932562 -1.27047 0
M  V30 2898 C 276.204 -0.49377 -1.89265 0
M  V30 2899 C 276.584 1.02833 -1.8436 0
M  V30 2900 O 275.932 1.88461 -1.29209 0
M  V30 2901 C 276.142 -1.04536 -3.32976 0
M  V30 2902 C 277.49 -1.10879 -4.09867 0
M  V30 2903 O 278.514 -0.995327 -3.42011 0
M  V30 2904 O 277.373 -1.28417 -5.31198 0
M  V30 2905 H 274.467 -0.159596 -0.811454 0
M  V30 2906 H 277.013 -1.02457 -1.3528 0
M  V30 2907 H 275.785 -2.08913 -3.30864 0
M  V30 2908 H 275.408 -0.496494 -3.94488 0
M  V30 2909 N 276.405 1.4127 -0.698611 0
M  V30 2910 C 277.821 1.55241 -0.370462 0
M  V30 2911 C 278.021 1.67351 1.12231 0
M  V30 2912 O 277.077 1.65363 1.90818 0
M  V30 2913 C 278.39 2.78997 -1.12165 0
M  V30 2914 C 279.938 2.92797 -1.1063 0
M  V30 2915 C 280.413 4.19445 -1.8393 0
M  V30 2916 N 281.904 4.26409 -1.80914 0
M  V30 2917 C 282.639 5.23271 -2.34467 0
M  V30 2918 N 282.135 6.26145 -2.96504 0
M  V30 2919 N 283.928 5.15232 -2.24706 0
M  V30 2920 H 276.079 1.31654 -1.66676 0
M  V30 2921 H 278.342 0.635393 -0.703548 0
M  V30 2922 H 278.048 2.76268 -2.17644 0
M  V30 2923 H 277.922 3.70606 -0.702209 0
M  V30 2924 H 280.309 2.95039 -0.0597713 0
M  V30 2925 H 280.39 2.02353 -1.56483 0
M  V30 2926 H 280.034 4.17964 -2.88563 0
M  V30 2927 H 279.964 5.08866 -1.35509 0
M  V30 2928 H 282.455 3.527 -1.35687 0
M  V30 2929 H 282.768 6.96451 -3.34927 0
M  V30 2930 H 281.113 6.26638 -3.00583 0
M  V30 2931 H 284.304 4.33789 -1.7591 0
M  V30 2932 H 284.477 5.90552 -2.66745 0
M  V30 2933 N 277.883 0.443576 1.51229 0
M  V30 2934 C 278.833 -0.382787 2.24764 0
M  V30 2935 C 279.817 -0.984836 1.27239 0
M  V30 2936 O 281.009 -0.901943 1.52296 0
M  V30 2937 C 278.138 -1.47989 3.09765 0
M  V30 2938 C 277.224 -0.886931 4.14722 0
M  V30 2939 N 277.615 -0.0237103 5.05794 0
M  V30 2940 C 275.913 -1.15385 4.30816 0
M  V30 2941 C 276.614 0.309971 5.80874 0
M  V30 2942 N 275.59 -0.307989 5.42727 0
M  V30 2943 H 279.392 0.282624 2.92538 0
M  V30 2944 H 276.906 0.256027 1.60369 0
M  V30 2945 H 278.903 -2.08482 3.61027 0
M  V30 2946 H 277.563 -2.14758 2.43535 0
M  V30 2947 H 278.574 0.34318 5.16762 0
M  V30 2948 H 275.251 -1.81857 3.75812 0
M  V30 2949 H 276.641 1.01279 6.64223 0
M  V30 2950 N 279.361 -1.56624 0.175154 0
M  V30 2951 C 280.772 -1.83561 -0.340916 0
M  V30 2952 C 281.123 -1.09511 -1.62794 0
M  V30 2953 O 280.248 -0.349389 -2.13561 0
M  V30 2954 C 280.843 -3.32979 -0.625313 0
M  V30 2955 C 279.402 -3.60399 -1.08581 0
M  V30 2956 C 278.549 -2.77024 -0.123722 0
M  V30 2957 H 281.5 -1.53593 0.399344 0
M  V30 2958 H 281.521 -3.50666 -1.47694 0
M  V30 2959 H 281.033 -3.86847 0.311575 0
M  V30 2960 H 279.134 -3.11945 -2.03767 0
M  V30 2961 H 279.247 -4.68711 -0.992317 0
M  V30 2962 H 277.611 -2.46993 -0.621821 0
M  V30 2963 H 278.394 -3.33674 0.807256 0
M  V30 2964 N 280.839 0.0985539 -1.57292 0
M  V30 2965 C 281.786 1.11981 -2.01814 0
M  V30 2966 C 282.756 1.39999 -0.89384 0
M  V30 2967 O 283.941 1.5152 -1.15958 0
M  V30 2968 C 281.081 2.43577 -2.44467 0
M  V30 2969 C 280.194 2.2232 -3.70402 0
M  V30 2970 C 279.329 3.4729 -4.01949 0
M  V30 2971 C 278.368 3.2128 -5.21005 0
M  V30 2972 N 277.505 4.38507 -5.48321 0
M  V30 2973 H 282.345 0.733149 -2.88841 0
M  V30 2974 H 279.882 0.350482 -1.42864 0
M  V30 2975 H 281.84 3.20373 -2.6724 0
M  V30 2976 H 280.47 2.80097 -1.60455 0
M  V30 2977 H 279.522 1.36343 -3.55126 0
M  V30 2978 H 280.834 1.99089 -4.57345 0
M  V30 2979 H 279.988 4.32495 -4.25479 0
M  V30 2980 H 278.727 3.73572 -3.13521 0
M  V30 2981 H 277.732 2.34468 -4.97298 0
M  V30 2982 H 278.957 2.96348 -6.11028 0
M  V30 2983 H 276.903 4.64871 -4.62851 0
M  V30 2984 H 276.82 4.18455 -6.29628 0
M  V30 2985 H 278.088 5.24787 -5.76385 0
M  V30 2986 N 282.317 1.53212 0.369288 0
M  V30 2987 C 283.563 1.69466 1.11397 0
M  V30 2988 C 283.896 0.443257 1.89074 0
M  V30 2989 O 283.171 -0.559386 1.86282 0
M  V30 2990 C 283.454 2.9422 2.07621 0
M  V30 2991 C 283.307 4.29508 1.33577 0
M  V30 2992 C 284.626 3.14565 3.07794 0
M  V30 2993 H 281.745 0.616667 0.403597 0
M  V30 2994 H 284.387 1.85845 0.395179 0
M  V30 2995 H 282.537 2.80387 2.68916 0
M  V30 2996 H 284.209 4.55147 0.750955 0
M  V30 2997 H 282.452 4.29088 0.637618 0
M  V30 2998 H 283.123 5.12926 2.03989 0
M  V30 2999 H 285.599 3.2756 2.56601 0
M  V30 3000 H 284.475 4.03297 3.72348 0
M  V30 3001 H 284.736 2.29675 3.77759 0
M  V30 3002 N 283.795 -0.628877 1.44509 0
M  V30 3003 C 285.211 -0.947305 1.28446 0
M  V30 3004 C 285.411 -2.00275 0.221872 0
M  V30 3005 O 284.467 -2.49447 -0.391471 0
M  V30 3006 C 285.78 -1.40843 2.65676 0
M  V30 3007 C 287.328 -1.52379 2.73404 0
M  V30 3008 C 287.803 -2.01875 4.11109 0
M  V30 3009 N 289.294 -2.09142 4.13296 0
M  V30 3010 C 290.029 -2.48615 5.16699 0
M  V30 3011 N 289.525 -2.87209 6.30462 0
M  V30 3012 N 291.318 -2.48768 5.04054 0
M  V30 3013 H 283.469 0.0690977 2.12288 0
M  V30 3014 H 285.732 -0.0317164 0.947469 0
M  V30 3015 H 285.438 -0.707206 3.44516 0
M  V30 3016 H 285.312 -2.37902 2.92716 0
M  V30 3017 H 287.699 -2.21598 1.9488 0
M  V30 3018 H 287.78 -0.536898 2.50102 0
M  V30 3019 H 287.424 -1.3325 4.90109 0
M  V30 3020 H 287.354 -3.0144 4.31789 0
M  V30 3021 H 289.845 -1.81991 3.31191 0
M  V30 3022 H 290.158 -3.16149 7.05174 0
M  V30 3023 H 288.503 -2.84955 6.33897 0
M  V30 3024 H 291.694 -2.18009 4.14234 0
M  V30 3025 H 291.867 -2.79207 5.84763 0
M  V30 3026 N 285.273 -1.31445 -0.869486 0
M  V30 3027 C 286.183 -1.21097 -2.0093 0
M  V30 3028 C 287.199 -0.127584 -1.73532 0
M  V30 3029 O 288.375 -0.345477 -1.98415 0
M  V30 3030 C 285.44 -0.919378 -3.34288 0
M  V30 3031 C 284.501 -2.08971 -3.75006 0
M  V30 3032 C 283.734 -1.81194 -5.02001 0
M  V30 3033 O 283.957 -0.747296 -5.65484 0
M  V30 3034 O 282.891 -2.66883 -5.39497 0
M  V30 3035 H 286.717 -2.16883 -2.12592 0
M  V30 3036 H 284.302 -1.11189 -0.997868 0
M  V30 3037 H 286.184 -0.772625 -4.14257 0
M  V30 3038 H 284.859 0.00844772 -3.23699 0
M  V30 3039 H 283.766 -2.29187 -2.95676 0
M  V30 3040 H 285.099 -2.9998 -3.90221 0
M  V30 3041 N 286.751 1.08385 -1.14413 0
M  V30 3042 C 287.999 1.80419 -0.910679 0
M  V30 3043 C 288.32 1.86658 0.564243 0
M  V30 3044 O 287.59 1.35985 1.41014 0
M  V30 3045 H 286.17 0.668204 -0.333934 0
M  V30 3046 H 288.832 1.31037 -1.44275 0
M  V30 3047 H 287.928 2.83238 -1.31082 0
M  V30 3048 N 288.23 0.939286 1.26551 0
M  V30 3049 C 289.476 0.586715 1.94128 0
M  V30 3050 C 289.809 -0.8717 1.73537 0
M  V30 3051 O 289.084 -1.62339 1.07127 0
M  V30 3052 C 289.367 0.927497 3.4795 0
M  V30 3053 C 289.22 2.44052 3.77834 0
M  V30 3054 C 290.539 0.441569 4.37879 0
M  V30 3055 H 287.658 0.21463 0.705055 0
M  V30 3056 H 290.3 1.17316 1.49455 0
M  V30 3057 H 288.45 0.428431 3.8613 0
M  V30 3058 H 290.122 3.01216 3.4938 0
M  V30 3059 H 288.365 2.8848 3.23978 0
M  V30 3060 H 289.036 2.62947 4.85348 0
M  V30 3061 H 291.512 0.869448 4.06915 0
M  V30 3062 H 290.388 0.708856 5.44304 0
M  V30 3063 H 290.649 -0.658467 4.37169 0
M  V30 3064 N 289.708 -1.40897 0.706093 0
M  V30 3065 C 290.641 -2.282 -0.00328781 0
M  V30 3066 C 291.619 -1.42816 -0.77732 0
M  V30 3067 O 292.803 -1.72237 -0.765944 0
M  V30 3068 C 289.93 -3.23226 -1.01205 0
M  V30 3069 C 288.976 -4.25222 -0.329955 0
M  V30 3070 S 289.809 -5.27269 0.935298 0
M  V30 3071 C 290.965 -6.25859 -0.0716061 0
M  V30 3072 H 291.198 -2.88016 0.737143 0
M  V30 3073 H 288.731 -1.46191 0.496756 0
M  V30 3074 H 290.689 -3.78503 -1.58888 0
M  V30 3075 H 289.35 -2.62485 -1.72513 0
M  V30 3076 H 288.543 -4.92023 -1.09221 0
M  V30 3077 H 288.145 -3.73595 0.174069 0
M  V30 3078 H 290.437 -6.71204 -0.921521 0
M  V30 3079 H 291.38 -7.0586 0.562765 0
M  V30 3080 H 291.788 -5.62852 -0.431088 0
M  V30 3081 N 291.186 -0.45159 -1.50991 0
M  V30 3082 C 292.435 0.111653 -2.01391 0
M  V30 3083 C 292.748 1.42529 -1.33959 0
M  V30 3084 O 293.954 2.07232 -1.75405 0
M  V30 3085 C 292.41 0.249514 -3.59034 0
M  V30 3086 C 292.018 -1.05453 -4.35412 0
M  V30 3087 C 293.762 0.765762 -4.17536 0
M  V30 3088 C 291.669 -0.881529 -5.84793 0
M  V30 3089 H 290.599 0.0455022 -0.752626 0
M  V30 3090 H 293.25 -0.583524 -1.73975 0
M  V30 3091 H 291.632 1.00803 -3.82955 0
M  V30 3092 H 292.806 -1.82248 -4.23229 0
M  V30 3093 H 291.121 -1.50039 -3.88429 0
M  V30 3094 H 293.718 0.911913 -5.26866 0
M  V30 3095 H 294.061 1.75201 -3.77638 0
M  V30 3096 H 294.594 0.0651744 -3.97747 0
M  V30 3097 H 291.333 -1.84057 -6.29129 0
M  V30 3098 H 290.853 -0.153625 -5.99603 0
M  V30 3099 H 292.532 -0.540363 -6.4474 0
M  V30 3100 N 292.664 1.56529 -0.183458 0
M  V30 3101 C 293.912 1.96855 0.457452 0
M  V30 3102 C 294.233 1.07104 1.62953 0
M  V30 3103 O 293.503 0.139887 1.954 0
M  V30 3104 H 292.083 0.72693 0.171992 0
M  V30 3105 H 294.745 1.93056 -0.267476 0
M  V30 3106 H 293.841 3.01423 0.809368 0
M  V30 3107 N 294.142 -0.090211 1.57342 0
M  V30 3108 C 295.105 -1.09335 2.01441 0
M  V30 3109 C 296.105 -1.32666 0.908641 0
M  V30 3110 O 297.295 -1.28697 1.174 0
M  V30 3111 C 294.427 -2.44136 2.3793 0
M  V30 3112 H 295.62 -0.713662 2.91285 0
M  V30 3113 H 293.173 -0.335404 1.52659 0
M  V30 3114 H 293.908 -2.86972 1.51055 0
M  V30 3115 H 293.693 -2.28548 3.18603 0
M  V30 3116 H 295.183 -3.16277 2.72688 0
M  V30 3117 N 295.62 -1.53406 -0.361157 0
M  V30 3118 C 296.868 -1.69467 -1.10115 0
M  V30 3119 C 297.189 -0.451352 -1.89705 0
M  V30 3120 O 296.459 0.534636 -1.88463 0
M  V30 3121 H 295.039 -0.624749 -0.409508 0
M  V30 3122 H 297.701 -1.90609 -0.406699 0
M  V30 3123 H 296.797 -2.55774 -1.78847 0
M  V30 3124 N 297.098 0.621204 -1.44841 0
M  V30 3125 C 298.061 1.71459 -1.521 0
M  V30 3126 C 299.061 1.55696 -0.401933 0
M  V30 3127 O 300.251 1.61011 -0.664925 0
M  V30 3128 C 297.383 3.10624 -1.40447 0
M  V30 3129 H 298.576 1.66394 -2.49506 0
M  V30 3130 H 296.129 0.835745 -1.3208 0
M  V30 3131 H 296.864 3.21277 -0.441737 0
M  V30 3132 H 296.649 3.23473 -2.21602 0
M  V30 3133 H 298.139 3.90293 -1.4853 0
M  V30 3134 N 298.576 1.31904 0.862503 0
M  V30 3135 C 299.523 1.20182 1.9704 0
M  V30 3136 C 300.493 0.0858247 1.65878 0
M  V30 3137 O 301.678 0.26 1.8902 0
M  V30 3138 C 298.818 0.922797 3.32533 0
M  V30 3139 C 297.931 2.12284 3.76244 0
M  V30 3140 C 297.066 1.77996 5.00491 0
M  V30 3141 C 296.105 2.94366 5.36671 0
M  V30 3142 N 295.242 2.60223 6.52095 0
M  V30 3143 H 300.082 2.14951 2.06398 0
M  V30 3144 H 297.619 1.06917 1.01031 0
M  V30 3145 H 299.577 0.741548 4.10557 0
M  V30 3146 H 298.207 0.0119227 3.22798 0
M  V30 3147 H 297.259 2.41461 2.9394 0
M  V30 3148 H 298.571 2.99357 3.98982 0
M  V30 3149 H 297.725 1.56377 5.862 0
M  V30 3150 H 296.464 0.881252 4.79672 0
M  V30 3151 H 295.469 3.16625 4.49476 0
M  V30 3152 H 296.694 3.84957 5.59451 0
M  V30 3153 H 294.64 1.72884 6.32809 0
M  V30 3154 H 294.557 3.40827 6.74814 0
M  V30 3155 H 295.825 2.42016 7.40978 0
M  V30 3156 N 300.054 -1.07777 1.14986 0
M  V30 3157 C 301.303 -1.79669 0.916617 0
M  V30 3158 C 301.616 -1.87474 -0.557917 0
M  V30 3159 O 302.822 -2.55845 -0.908617 0
M  V30 3160 C 301.278 -3.22848 1.59051 0
M  V30 3161 C 300.886 -3.23257 3.10176 0
M  V30 3162 C 302.63 -3.99379 1.43864 0
M  V30 3163 C 300.537 -4.61063 3.70372 0
M  V30 3164 H 299.467 -0.673349 0.33929 0
M  V30 3165 H 302.118 -1.21003 1.37951 0
M  V30 3166 H 300.5 -3.8168 1.0553 0
M  V30 3167 H 301.674 -2.74095 3.70417 0
M  V30 3168 H 299.989 -2.60222 3.25074 0
M  V30 3169 H 302.586 -5.0122 1.86232 0
M  V30 3170 H 302.929 -4.14511 0.385564 0
M  V30 3171 H 303.462 -3.47032 1.94457 0
M  V30 3172 H 300.201 -4.51135 4.7556 0
M  V30 3173 H 299.721 -5.1048 3.14913 0
M  V30 3174 H 301.4 -5.30034 3.71043 0
M  V30 3175 N 301.532 -0.945985 -1.26051 0
M  V30 3176 C 302.462 -0.477172 -2.28572 0
M  V30 3177 C 303.443 0.472032 -1.63419 0
M  V30 3178 O 304.628 0.372853 -1.90587 0
M  V30 3179 C 301.758 0.253975 -3.4637 0
M  V30 3180 C 300.712 -0.609135 -4.23643 0
M  V30 3181 C 300.038 0.252252 -5.34105 0
M  V30 3182 C 301.338 -1.8829 -4.8718 0
M  V30 3183 H 303.032 -1.33402 -2.68038 0
M  V30 3184 H 300.578 -0.642904 -1.28852 0
M  V30 3185 H 302.531 0.593016 -4.17207 0
M  V30 3186 H 301.255 1.145 -3.05871 0
M  V30 3187 H 299.914 -0.931138 -3.54578 0
M  V30 3188 H 299.562 1.14278 -4.89846 0
M  V30 3189 H 299.262 -0.32188 -5.86718 0
M  V30 3190 H 300.786 0.586454 -6.07777 0
M  V30 3191 H 302.2 -1.61081 -5.50205 0
M  V30 3192 H 300.597 -2.40199 -5.49931 0
M  V30 3193 H 301.667 -2.59134 -4.09851 0
M  V30 3194 N 303.011 1.40521 -0.713556 0
M  V30 3195 C 304.259 2.00527 -0.251692 0
M  V30 3196 C 304.58 1.56857 1.15848 0
M  V30 3197 O 303.85 0.807127 1.785 0
M  V30 3198 H 302.43 0.741551 -0.0900646 0
M  V30 3199 H 305.092 1.71887 -0.918733 0
M  V30 3200 H 304.188 3.10813 -0.283192 0
M  V30 3201 N 304.489 0.459591 1.5075 0
M  V30 3202 C 305.437 -0.354678 2.2988 0
M  V30 3203 C 306.431 -1.00086 1.36672 0
M  V30 3204 O 307.637 -0.933277 1.53915 0
M  V30 3205 H 304.012 -0.13321 0.740107 0
M  V30 3206 H 305.983 0.333269 2.96533 0
M  V30 3207 C 304.732 -1.43073 3.169 0
M  V30 3208 H 304.055 -0.942882 3.88523 0
M  V30 3209 H 305.495 -1.97328 3.75284 0
M  V30 3210 C 303.954 -2.42633 2.33732 0
M  V30 3211 O 304.484 -3.47658 2.01238 0
M  V30 3212 N 302.69 -2.14066 1.9653 0
M  V30 3213 H 302.237 -1.28685 2.23155 0
M  V30 3214 H 302.195 -2.80917 1.41185 0
M  V30 3215 N 305.967 -1.56429 0.191757 0
M  V30 3216 C 307.216 -1.9666 -0.448088 0
M  V30 3217 C 307.529 -1.08136 -1.62991 0
M  V30 3218 O 308.735 -1.38135 -2.33733 0
M  V30 3219 C 307.191 -3.49753 -0.848585 0
M  V30 3220 C 306.799 -4.46935 0.308764 0
M  V30 3221 C 308.543 -3.9876 -1.4557 0
M  V30 3222 C 306.45 -5.91293 -0.112506 0
M  V30 3223 H 305.38 -0.734312 -0.171179 0
M  V30 3224 H 308.031 -1.81301 0.283242 0
M  V30 3225 H 306.413 -3.60604 -1.63649 0
M  V30 3226 H 307.587 -4.47813 1.08627 0
M  V30 3227 H 305.902 -4.08102 0.827158 0
M  V30 3228 H 308.499 -5.04086 -1.78328 0
M  V30 3229 H 308.842 -3.42875 -2.36099 0
M  V30 3230 H 309.375 -3.9101 -0.731836 0
M  V30 3231 H 306.114 -6.51097 0.758514 0
M  V30 3232 H 305.634 -5.93676 -0.854941 0
M  V30 3233 H 307.313 -6.44663 -0.549448 0
M  V30 3234 N 307.445 0.0818655 -1.57387 0
M  V30 3235 C 308.355 1.11642 -2.06333 0
M  V30 3236 C 309.371 1.43033 -0.99083 0
M  V30 3237 O 310.547 1.53411 -1.30488 0
M  V30 3238 C 307.612 2.41342 -2.48907 0
M  V30 3239 C 306.673 2.17014 -3.7041 0
M  V30 3240 C 305.906 3.4053 -4.10944 0
M  V30 3241 O 306.129 4.4927 -3.51444 0
M  V30 3242 O 305.063 3.29336 -5.03807 0
M  V30 3243 H 308.889 0.730657 -2.9478 0
M  V30 3244 H 306.474 0.295301 -1.46452 0
M  V30 3245 H 308.356 3.17691 -2.76858 0
M  V30 3246 H 307.031 2.79319 -1.63593 0
M  V30 3247 H 305.938 1.38403 -3.47556 0
M  V30 3248 H 307.271 1.83923 -4.56545 0
M  V30 3249 N 308.923 1.53595 0.353017 0
M  V30 3250 C 310.169 1.70638 1.09593 0
M  V30 3251 C 310.502 0.463286 1.88593 0
M  V30 3252 O 309.777 -0.539597 1.86865 0
M  V30 3253 C 310.06 2.96406 2.04489 0
M  V30 3254 C 309.913 4.30901 1.29014 0
M  V30 3255 C 311.232 3.17812 3.0444 0
M  V30 3256 H 308.351 0.620913 0.397034 0
M  V30 3257 H 310.993 1.86254 0.375446 0
M  V30 3258 H 309.143 2.83223 2.65927 0
M  V30 3259 H 310.815 4.55917 0.702638 0
M  V30 3260 H 309.058 4.29741 0.592071 0
M  V30 3261 H 309.729 5.1506 1.98537 0
M  V30 3262 H 312.205 3.30263 2.53112 0
M  V30 3263 H 311.081 4.07223 3.6805 0
M  V30 3264 H 311.342 2.33669 3.75301 0
M  V30 3265 N 310.401 -0.613514 1.45168 0
M  V30 3266 C 311.649 -1.36997 1.48581 0
M  V30 3267 C 311.97 -1.94589 0.126545 0
M  V30 3268 O 311.24 -1.76816 -0.843372 0
M  V30 3269 H 309.82 -0.508558 0.547154 0
M  V30 3270 H 312.482 -0.720853 1.81079 0
M  V30 3271 H 311.578 -2.1924 2.22127 0
M  V30 3272 N 311.879 -1.3236 -0.855495 0
M  V30 3273 C 312.826 -1.21225 -1.964 0
M  V30 3274 C 313.796 -0.0946204 -1.6583 0
M  V30 3275 O 314.981 -0.27002 -1.8888 0
M  V30 3276 C 312.121 -0.940419 -3.32039 0
M  V30 3277 C 311.234 -2.14276 -3.75113 0
M  V30 3278 C 310.369 -1.80648 -4.9954 0
M  V30 3279 C 309.408 -2.97208 -5.35102 0
M  V30 3280 N 308.545 -2.63678 -6.50706 0
M  V30 3281 H 313.385 -2.16042 -2.05255 0
M  V30 3282 H 310.922 -1.07451 -1.00463 0
M  V30 3283 H 312.88 -0.763311 -4.10158 0
M  V30 3284 H 311.51 -0.0290413 -3.22787 0
M  V30 3285 H 310.562 -2.43017 -2.92655 0
M  V30 3286 H 311.874 -3.01468 -3.97389 0
M  V30 3287 H 311.028 -1.59484 -5.85363 0
M  V30 3288 H 309.767 -0.906678 -4.79198 0
M  V30 3289 H 308.772 -3.19004 -4.47791 0
M  V30 3290 H 309.997 -3.87918 -5.57401 0
M  V30 3291 H 307.943 -1.76238 -6.31883 0
M  V30 3292 H 307.86 -3.444 -6.72997 0
M  V30 3293 H 309.128 -2.45942 -7.39684 0
M  V30 3294 N 313.357 1.07166 -1.15556 0
M  V30 3295 C 314.587 1.83248 -0.954133 0
M  V30 3296 C 314.995 1.82449 0.500911 0
M  V30 3297 O 314.338 1.23575 1.35923 0
M  V30 3298 C 314.4 3.31393 -1.39351 0
M  V30 3299 C 314.064 3.5591 -2.86666 0
M  V30 3300 C 315.061 3.49695 -3.8472 0
M  V30 3301 C 312.746 3.83515 -3.24379 0
M  V30 3302 C 314.74 3.70737 -5.18491 0
M  V30 3303 C 312.427 4.04209 -4.58321 0
M  V30 3304 C 313.425 3.97815 -5.55186 0
M  V30 3305 O 313.113 4.17954 -6.86709 0
M  V30 3306 H 312.845 0.584941 -0.338851 0
M  V30 3307 H 315.399 1.36169 -1.53777 0
M  V30 3308 H 313.629 3.79292 -0.75329 0
M  V30 3309 H 315.318 3.88945 -1.16089 0
M  V30 3310 H 316.084 3.28368 -3.56931 0
M  V30 3311 H 311.963 3.87605 -2.49567 0
M  V30 3312 H 315.507 3.65663 -5.94085 0
M  V30 3313 H 311.404 4.25023 -4.85825 0
M  V30 3314 H 312.172 4.35291 -6.93155 0
M  V30 3315 N 314.835 0.952656 1.25548 0
M  V30 3316 C 315.798 0.475794 2.24207 0
M  V30 3317 C 316.798 -0.419428 1.55234 0
M  V30 3318 O 317.988 -0.216994 1.72843 0
M  V30 3319 C 315.12 -0.312814 3.39462 0
M  V30 3320 H 316.313 1.34779 2.67908 0
M  V30 3321 H 313.866 0.735739 1.37901 0
M  V30 3322 H 314.601 -1.20257 3.01179 0
M  V30 3323 H 314.386 0.329404 3.90714 0
M  V30 3324 H 315.876 -0.635986 4.12729 0
M  V30 3325 N 316.313 -1.40141 0.720998 0
M  V30 3326 C 317.26 -2.30688 0.071919 0
M  V30 3327 C 318.23 -1.48476 -0.744584 0
M  V30 3328 O 319.415 -1.77201 -0.707423 0
M  V30 3329 C 316.555 -3.34724 -0.839855 0
M  V30 3330 C 315.668 -4.31998 -0.0122438 0
M  V30 3331 C 314.803 -5.23102 -0.923995 0
M  V30 3332 C 313.842 -6.12033 -0.0907969 0
M  V30 3333 N 312.979 -6.95537 -0.957718 0
M  V30 3334 H 317.819 -2.85628 0.849755 0
M  V30 3335 H 315.356 -1.40653 0.430726 0
M  V30 3336 H 317.314 -3.93618 -1.38279 0
M  V30 3337 H 315.944 -2.81274 -1.58381 0
M  V30 3338 H 314.996 -3.74841 0.64794 0
M  V30 3339 H 316.308 -4.94772 0.632595 0
M  V30 3340 H 315.462 -5.86953 -1.53527 0
M  V30 3341 H 314.201 -4.60615 -1.60264 0
M  V30 3342 H 313.206 -5.47207 0.533377 0
M  V30 3343 H 314.431 -6.76581 0.584428 0
M  V30 3344 H 312.377 -6.35633 -1.62192 0
M  V30 3345 H 312.294 -7.55099 -0.36904 0
M  V30 3346 H 313.562 -7.63832 -1.555 0
M  V30 3347 N 317.792 -0.46758 -1.50504 0
M  V30 3348 C 319.041 0.0902868 -2.01498 0
M  V30 3349 C 319.354 1.411 -1.35463 0
M  V30 3350 O 320.56 2.0536 -1.77594 0
M  V30 3351 C 319.016 0.21142 -3.59278 0
M  V30 3352 C 318.624 -1.10065 -4.34269 0
M  V30 3353 C 320.368 0.721433 -4.18325 0
M  V30 3354 C 318.275 -0.943505 -5.83825 0
M  V30 3355 H 317.205 0.037517 -0.753066 0
M  V30 3356 H 319.856 -0.601943 -1.73346 0
M  V30 3357 H 318.238 0.967352 -3.84003 0
M  V30 3358 H 319.412 -1.86726 -4.21272 0
M  V30 3359 H 317.727 -1.5415 -3.86816 0
M  V30 3360 H 320.324 0.85598 -5.27804 0
M  V30 3361 H 320.667 1.71186 -3.79475 0
M  V30 3362 H 321.2 0.0229843 -3.97793 0
M  V30 3363 H 317.939 -1.90719 -6.27141 0
M  V30 3364 H 317.459 -0.217213 -5.99407 0
M  V30 3365 H 319.138 -0.608715 -6.4413 0
M  V30 3366 N 319.27 1.56325 -0.20005 0
M  V30 3367 C 320.518 1.97329 0.436547 0
M  V30 3368 C 320.839 1.08826 1.61808 0
M  V30 3369 O 320.109 0.160604 1.95241 0
M  V30 3370 H 318.689 0.728714 0.164272 0
M  V30 3371 H 321.351 1.92761 -0.287937 0
M  V30 3372 H 320.447 3.02264 0.777353 0
M  V30 3373 N 320.748 -0.0735177 1.57428 0
M  V30 3374 C 321.711 -1.07192 2.02589 0
M  V30 3375 C 322.711 -1.31695 0.922661 0
M  V30 3376 O 323.901 -1.27445 1.18758 0
M  V30 3377 C 321.033 -2.41599 2.40506 0
M  V30 3378 H 322.226 -0.682727 2.92025 0
M  V30 3379 H 319.779 -0.319193 1.53006 0
M  V30 3380 H 320.514 -2.85354 1.5409 0
M  V30 3381 H 320.299 -2.25156 3.21009 0
M  V30 3382 H 321.789 -3.13367 2.76027 0
M  V30 3383 N 322.226 -1.5378 -0.344866 0
M  V30 3384 C 323.174 -1.82373 -1.4437 0
M  V30 3385 C 324.168 -0.694128 -1.54526 0
M  V30 3386 O 325.374 -0.877442 -1.57165 0
M  V30 3387 H 321.749 -0.577765 -0.481344 0
M  V30 3388 H 323.72 -2.74306 -1.17468 0
M  V30 3389 C 322.469 -2.04898 -2.80913 0
M  V30 3390 H 321.792 -2.9127 -2.73865 0
M  V30 3391 H 323.232 -2.28871 -3.56923 0
M  V30 3392 C 321.691 -0.834116 -3.26411 0
M  V30 3393 O 322.221 -0.0328885 -4.01687 0
M  V30 3394 N 320.427 -0.65171 -2.83198 0
M  V30 3395 H 319.974 -1.30489 -2.22104 0
M  V30 3396 H 319.932 0.159686 -3.13994 0
M  V30 3397 N 323.704 0.605807 -1.45491 0
M  V30 3398 C 324.929 1.39625 -1.53361 0
M  V30 3399 C 325.354 1.87351 -0.167645 0
M  V30 3400 O 324.712 1.60243 0.848051 0
M  V30 3401 C 324.76 2.57559 -2.5238 0
M  V30 3402 O 323.864 3.58248 -2.04285 0
M  V30 3403 H 323.205 0.416771 -0.516912 0
M  V30 3404 H 325.735 0.737103 -1.90861 0
M  V30 3405 H 325.745 3.0478 -2.71244 0
M  V30 3406 H 324.42 2.22171 -3.51586 0
M  V30 3407 H 322.997 3.17664 -1.95305 0
M  V30 3408 N 325.182 1.32811 0.848464 0
M  V30 3409 C 326.428 1.23907 1.60546 0
M  V30 3410 C 326.761 -0.197161 1.93197 0
M  V30 3411 O 326.036 -1.13596 1.5788 0
M  V30 3412 C 326.319 2.10489 2.92175 0
M  V30 3413 C 326.172 3.62522 2.66266 0
M  V30 3414 C 327.491 1.97075 3.93509 0
M  V30 3415 H 324.61 0.451459 0.58254 0
M  V30 3416 H 327.252 1.62818 0.979296 0
M  V30 3417 H 325.402 1.77434 3.45614 0
M  V30 3418 H 327.074 4.05821 2.19334 0
M  V30 3419 H 325.317 3.84879 2.00126 0
M  V30 3420 H 325.988 4.18437 3.6002 0
M  V30 3421 H 328.464 2.26045 3.49346 0
M  V30 3422 H 327.34 2.59923 4.83457 0
M  V30 3423 H 327.601 0.940186 4.31987 0
M  V30 3424 N 326.66 -1.06551 1.16123 0
M  V30 3425 C 327.906 -1.79567 0.94252 0
M  V30 3426 C 328.239 -1.86869 -0.528547 0
M  V30 3427 O 327.514 -1.35838 -1.39206 0
M  V30 3428 C 327.797 -3.24195 1.56747 0
M  V30 3429 C 327.65 -3.24989 3.10969 0
M  V30 3430 C 328.969 -4.21678 1.25998 0
M  V30 3431 H 326.088 -0.651883 0.343828 0
M  V30 3432 H 328.73 -1.2463 1.43413 0
M  V30 3433 H 326.88 -3.71107 1.14942 0
M  V30 3434 H 328.552 -2.86258 3.61737 0
M  V30 3435 H 326.795 -2.63716 3.44436 0
M  V30 3436 H 327.466 -4.27005 3.49815 0
M  V30 3437 H 329.942 -3.83196 1.62174 0
M  V30 3438 H 328.818 -5.21146 1.7233 0
M  V30 3439 H 329.079 -4.4174 0.178367 0
M  V30 3440 N 328.138 -0.959301 -1.25041 0
M  V30 3441 C 329.068 -0.501388 -2.28053 0
M  V30 3442 C 330.049 0.454673 -1.63911 0
M  V30 3443 O 331.234 0.352618 -1.90972 0
M  V30 3444 C 328.364 0.217224 -3.4662 0
M  V30 3445 C 327.318 -0.654034 -4.22973 0
M  V30 3446 C 326.644 0.195589 -5.34342 0
M  V30 3447 C 327.944 -1.93447 -4.85155 0
M  V30 3448 H 329.638 -1.36238 -2.66608 0
M  V30 3449 H 327.184 -0.656534 -1.28163 0
M  V30 3450 H 329.137 0.548732 -4.17812 0
M  V30 3451 H 327.861 1.1125 -3.07068 0
M  V30 3452 H 326.52 -0.968693 -3.5357 0
M  V30 3453 H 326.168 1.09076 -4.91031 0
M  V30 3454 H 325.868 -0.384091 -5.86343 0
M  V30 3455 H 327.392 0.521958 -6.08365 0
M  V30 3456 H 328.806 -1.66908 -5.48466 0
M  V30 3457 H 327.203 -2.46018 -5.47353 0
M  V30 3458 H 328.273 -2.63466 -4.07079 0
M  V30 3459 N 329.616 1.39756 -0.72842 0
M  V30 3460 C 330.564 2.32485 -0.0731849 0
M  V30 3461 C 331.558 1.52717 0.733063 0
M  V30 3462 O 332.764 1.68428 0.634988 0
M  V30 3463 H 329.139 0.751984 -0.00486469 0
M  V30 3464 H 331.11 2.85382 -0.871761 0
M  V30 3465 C 329.859 3.37773 0.824908 0
M  V30 3466 H 329.182 3.99227 0.213915 0
M  V30 3467 H 330.622 4.05121 1.25111 0
M  V30 3468 C 329.081 2.74287 1.95622 0
M  V30 3469 O 329.611 2.61618 3.04826 0
M  V30 3470 N 327.817 2.32475 1.74367 0
M  V30 3471 H 327.364 2.4298 0.855494 0
M  V30 3472 H 327.322 1.90337 2.50238 0
M  V30 3473 N 331.094 0.475555 1.50254 0
M  V30 3474 C 332.505 0.0215174 1.86688 0
M  V30 3475 C 332.856 -1.38467 1.39001 0
M  V30 3476 O 331.981 -2.02732 0.756894 0
M  V30 3477 C 332.576 0.0322715 3.38785 0
M  V30 3478 C 331.135 -0.366314 3.74613 0
M  V30 3479 C 330.282 0.415832 2.74164 0
M  V30 3480 H 333.233 0.689612 1.42934 0
M  V30 3481 H 333.254 -0.76889 3.7265 0
M  V30 3482 H 332.766 1.05584 3.73462 0
M  V30 3483 H 330.867 -1.39406 3.45538 0
M  V30 3484 H 330.98 -0.064555 4.79057 0
M  V30 3485 H 329.344 -0.131048 2.54363 0
M  V30 3486 H 330.127 1.43899 3.11686 0
M  V30 3487 N 332.573 -1.56217 0.208337 0
M  V30 3488 C 333.819 -1.98242 -0.427552 0
M  V30 3489 C 334.152 -1.09554 -1.60348 0
M  V30 3490 O 333.427 -0.15035 -1.93918 0
M  V30 3491 C 333.71 -3.4931 -0.874907 0
M  V30 3492 C 333.563 -4.48773 0.303751 0
M  V30 3493 C 334.882 -4.04424 -1.73577 0
M  V30 3494 H 332.001 -0.720744 -0.153936 0
M  V30 3495 H 334.643 -1.87586 0.30192 0
M  V30 3496 H 332.793 -3.58522 -1.49648 0
M  V30 3497 H 334.465 -4.51586 0.941682 0
M  V30 3498 H 332.708 -4.23194 0.953375 0
M  V30 3499 H 333.379 -5.51976 -0.0519883 0
M  V30 3500 H 335.855 -3.98075 -1.21143 0
M  V30 3501 H 334.731 -5.1047 -2.01771 0
M  V30 3502 H 334.992 -3.50494 -2.69456 0
M  V30 3503 N 334.051 0.0651679 -1.57465 0
M  V30 3504 C 335.462 0.616213 -1.76238 0
M  V30 3505 C 335.813 1.7756 -0.834689 0
M  V30 3506 O 334.938 2.1639 -0.0204156 0
M  V30 3507 C 335.533 1.12462 -3.1959 0
M  V30 3508 C 334.092 1.62147 -3.39684 0
M  V30 3509 C 333.239 0.543739 -2.71917 0
M  V30 3510 H 336.19 -0.161022 -1.57881 0
M  V30 3511 H 336.211 1.99324 -3.24114 0
M  V30 3512 H 335.723 0.280592 -3.87084 0
M  V30 3513 H 333.824 2.48854 -2.77313 0
M  V30 3514 H 333.937 1.69385 -4.48158 0
M  V30 3515 H 332.301 0.990352 -2.34657 0
M  V30 3516 H 333.084 -0.290216 -3.42071 0
M  V30 3517 N 335.529 1.53961 0.336706 0
M  V30 3518 C 336.439 1.85432 1.43708 0
M  V30 3519 C 337.455 0.745053 1.57242 0
M  V30 3520 O 338.631 1.03804 1.72588 0
M  V30 3521 C 335.696 2.06349 2.78605 0
M  V30 3522 C 334.757 3.30191 2.74358 0
M  V30 3523 C 333.99 3.50101 4.02822 0
M  V30 3524 O 334.213 2.7371 5.00439 0
M  V30 3525 O 333.147 4.43547 4.06878 0
M  V30 3526 H 336.973 2.78975 1.20028 0
M  V30 3527 H 334.558 1.39701 0.52952 0
M  V30 3528 H 336.44 2.21513 3.58483 0
M  V30 3529 H 335.115 1.15995 3.02203 0
M  V30 3530 H 334.022 3.20425 1.93078 0
M  V30 3531 H 335.355 4.2056 2.55715 0
M  V30 3532 N 337.007 -0.598083 1.45811 0
M  V30 3533 C 338.237 -1.38121 1.53643 0
M  V30 3534 C 338.645 -1.88425 0.171081 0
M  V30 3535 O 337.988 -1.63409 -0.839237 0
M  V30 3536 C 338.05 -2.61432 2.46766 0
M  V30 3537 C 337.714 -2.32702 3.93318 0
M  V30 3538 C 338.711 -1.92479 4.82957 0
M  V30 3539 C 336.396 -2.45321 4.38318 0
M  V30 3540 C 338.39 -1.65248 6.15607 0
M  V30 3541 C 336.077 -2.17703 5.71007 0
M  V30 3542 C 337.075 -1.7773 6.5947 0
M  V30 3543 O 336.763 -1.50441 7.89698 0
M  V30 3544 H 336.495 -0.428863 0.522544 0
M  V30 3545 H 339.049 -0.73557 1.91777 0
M  V30 3546 H 337.279 -3.28749 2.0362 0
M  V30 3547 H 338.968 -3.23487 2.45175 0
M  V30 3548 H 339.734 -1.82258 4.49452 0
M  V30 3549 H 335.613 -2.75399 3.69697 0
M  V30 3550 H 339.157 -1.33973 6.84614 0
M  V30 3551 H 335.054 -2.27544 6.04065 0
M  V30 3552 H 335.822 -1.64415 8.01817 0
M  V30 3553 N 338.485 -1.33259 -0.841409 0
M  V30 3554 C 339.448 -1.23221 -1.9326 0
M  V30 3555 C 340.448 -0.151895 -1.60081 0
M  V30 3556 O 341.638 -0.403246 -1.69468 0
M  V30 3557 C 338.77 -0.898123 -3.28856 0
M  V30 3558 H 339.963 -2.2021 -2.03587 0
M  V30 3559 H 337.516 -1.17281 -1.03319 0
M  V30 3560 H 338.251 0.0693841 -3.24226 0
M  V30 3561 H 338.036 -1.67934 -3.54317 0
M  V30 3562 H 339.526 -0.852563 -4.08805 0
M  V30 3563 N 339.963 1.05934 -1.16686 0
M  V30 3564 C 341.191 1.8249 -0.974929 0
M  V30 3565 C 341.606 1.82679 0.476861 0
M  V30 3566 O 340.963 1.2486 1.33103 0
M  V30 3567 C 341.014 3.28943 -1.49929 0
M  V30 3568 O 340.735 3.28886 -2.89423 0
M  V30 3569 C 342.236 4.22215 -1.35089 0
M  V30 3570 H 339.456 0.575295 -0.345365 0
M  V30 3571 H 342 1.33631 -1.548 0
M  V30 3572 H 340.155 3.751 -0.968423 0
M  V30 3573 H 340.569 4.20493 -3.13506 0
M  V30 3574 H 342.043 5.22987 -1.76603 0
M  V30 3575 H 342.52 4.38195 -0.296935 0
M  V30 3576 H 343.126 3.81907 -1.87155 0
M  V30 3577 N 341.441 0.965919 1.2453 0
M  V30 3578 C 342.404 0.499547 2.2369 0
M  V30 3579 C 343.404 -0.40294 1.5567 0
M  V30 3580 O 344.594 -0.19865 1.73064 0
M  V30 3581 C 341.726 -0.276792 3.39774 0
M  V30 3582 H 342.919 1.37613 2.66463 0
M  V30 3583 H 340.472 0.750324 1.37112 0
M  V30 3584 H 341.207 -1.17055 3.02438 0
M  V30 3585 H 340.992 0.370826 3.90343 0
M  V30 3586 H 342.482 -0.592175 4.1338 0
M  V30 3587 N 342.919 -1.39368 0.735821 0
M  V30 3588 C 343.882 -2.2896 0.104874 0
M  V30 3589 C 344.882 -1.46347 -0.666274 0
M  V30 3590 O 346.072 -1.67014 -0.49517 0
M  V30 3591 C 343.204 -3.29857 -0.860656 0
M  V30 3592 H 344.397 -2.86259 0.894205 0
M  V30 3593 H 341.95 -1.48029 0.501704 0
M  V30 3594 H 342.685 -2.77615 -1.67631 0
M  V30 3595 H 342.47 -3.9087 -0.310327 0
M  V30 3596 H 343.96 -3.96893 -1.29867 0
M  V30 3597 N 344.397 -0.483516 -1.5 0
M  V30 3598 C 345.645 0.067027 -2.01989 0
M  V30 3599 C 345.966 1.3909 -1.36671 0
M  V30 3600 O 345.236 1.88978 -0.516152 0
M  V30 3601 H 343.816 0.0277606 -0.746484 0
M  V30 3602 H 346.478 -0.636773 -1.84204 0
M  V30 3603 H 345.574 0.209484 -3.11396 0
M  V30 3604 N 345.875 1.56104 -0.216619 0
M  V30 3605 C 347.121 1.98466 0.417033 0
M  V30 3606 C 347.454 1.10403 1.59765 0
M  V30 3607 O 346.729 0.160632 1.93836 0
M  V30 3608 C 347.012 3.49769 0.85637 0
M  V30 3609 C 346.865 4.48606 -0.327546 0
M  V30 3610 C 348.184 4.05339 1.7143 0
M  V30 3611 H 345.303 0.721551 0.150112 0
M  V30 3612 H 347.945 1.87423 -0.311864 0
M  V30 3613 H 346.095 3.5931 1.47745 0
M  V30 3614 H 347.767 4.5108 -0.965618 0
M  V30 3615 H 346.01 4.22682 -0.975805 0
M  V30 3616 H 346.681 5.51995 0.0227149 0
M  V30 3617 H 349.157 3.98712 1.19031 0
M  V30 3618 H 348.033 5.11533 1.99061 0
M  V30 3619 H 348.294 3.51918 2.67593 0
M  V30 3620 N 347.353 -0.0568162 1.57498 0
M  V30 3621 C 348.764 -0.606858 1.76562 0
M  V30 3622 C 349.115 -1.77114 0.844094 0
M  V30 3623 O 348.24 -2.16376 0.0318911 0
M  V30 3624 C 348.835 -1.10766 3.20182 0
M  V30 3625 C 347.394 -1.60344 3.40539 0
M  V30 3626 C 346.541 -0.529311 2.72201 0
M  V30 3627 H 349.492 0.169393 1.57793 0
M  V30 3628 H 349.513 -1.97602 3.25167 0
M  V30 3629 H 349.025 -0.26006 3.87228 0
M  V30 3630 H 347.126 -2.47379 2.78629 0
M  V30 3631 H 347.239 -1.67006 4.4905 0
M  V30 3632 H 345.603 -0.977893 2.35179 0
M  V30 3633 H 346.386 0.308352 3.41912 0
M  V30 3634 N 348.832 -1.54138 -0.328536 0
M  V30 3635 C 349.795 -1.82462 -1.38709 0
M  V30 3636 C 350.795 -0.696229 -1.44946 0
M  V30 3637 O 351.985 -0.964535 -1.4506 0
M  V30 3638 C 349.117 -1.98018 -2.77492 0
M  V30 3639 H 350.31 -2.77037 -1.14851 0
M  V30 3640 H 347.863 -1.45779 -0.563751 0
M  V30 3641 H 348.598 -1.05637 -3.06613 0
M  V30 3642 H 348.383 -2.80124 -2.74359 0
M  V30 3643 H 349.873 -2.21396 -3.54081 0
M  V30 3644 N 350.31 0.590341 -1.46126 0
M  V30 3645 C 351.726 0.912917 -1.30912 0
M  V30 3646 C 351.926 1.99616 -0.274893 0
M  V30 3647 O 350.982 2.50397 0.325197 0
M  V30 3648 C 352.295 1.3375 -2.69317 0
M  V30 3649 C 353.843 1.45077 -2.77348 0
M  V30 3650 C 354.318 1.90904 -4.16317 0
M  V30 3651 N 355.809 1.9811 -4.18696 0
M  V30 3652 C 356.544 2.34828 -5.23109 0
M  V30 3653 N 356.04 2.70393 -6.37856 0
M  V30 3654 N 357.833 2.35317 -5.10473 0
M  V30 3655 H 349.984 -0.125358 -2.1203 0
M  V30 3656 H 352.247 0.00658481 -0.947977 0
M  V30 3657 H 351.953 0.615614 -3.4627 0
M  V30 3658 H 351.827 2.30058 -2.9892 0
M  V30 3659 H 354.214 2.16353 -2.00687 0
M  V30 3660 H 354.295 0.4704 -2.51438 0
M  V30 3661 H 353.939 1.20209 -4.9347 0
M  V30 3662 H 353.869 2.89886 -4.39629 0
M  V30 3663 H 356.36 1.73146 -3.359 0
M  V30 3664 H 356.673 2.97341 -7.13308 0
M  V30 3665 H 355.018 2.68048 -6.41229 0
M  V30 3666 H 358.209 2.0695 -4.19868 0
M  V30 3667 H 358.382 2.63605 -5.9196 0
M  V30 3668 N 351.788 1.33704 0.83433 0
M  V30 3669 C 353.037 1.24763 1.58484 0
M  V30 3670 C 353.35 -0.183775 1.94735 0
M  V30 3671 O 354.556 -0.395234 2.68608 0
M  V30 3672 C 353.012 2.18638 2.85876 0
M  V30 3673 C 352.62 3.66974 2.56971 0
M  V30 3674 C 354.364 2.18581 3.63899 0
M  V30 3675 C 352.271 4.5275 3.80488 0
M  V30 3676 H 351.201 0.463425 0.594772 0
M  V30 3677 H 353.852 1.58797 0.919551 0
M  V30 3678 H 352.234 1.77542 3.5397 0
M  V30 3679 H 353.408 4.16538 1.9706 0
M  V30 3680 H 351.723 3.69366 1.92244 0
M  V30 3681 H 354.32 2.79894 4.55591 0
M  V30 3682 H 354.663 1.18207 3.99165 0
M  V30 3683 H 355.196 2.58062 3.02735 0
M  V30 3684 H 351.935 5.54017 3.5035 0
M  V30 3685 H 351.455 4.07927 4.39722 0
M  V30 3686 H 353.134 4.66784 4.4802 0
M  V30 3687 N 353.266 -1.05314 1.17247 0
M  V30 3688 C 354.512 -1.78557 0.961513 0
M  V30 3689 C 354.845 -1.87419 -0.508697 0
M  V30 3690 O 354.12 -1.37307 -1.37757 0
M  V30 3691 C 354.403 -3.22514 1.60176 0
M  V30 3692 C 354.256 -3.21673 3.14399 0
M  V30 3693 C 355.575 -4.20318 1.30463 0
M  V30 3694 H 352.694 -0.6482 0.350723 0
M  V30 3695 H 355.336 -1.23102 1.44727 0
M  V30 3696 H 353.486 -3.69867 1.18871 0
M  V30 3697 H 355.158 -2.82405 3.64753 0
M  V30 3698 H 353.401 -2.60048 3.47214 0
M  V30 3699 H 354.072 -4.23271 3.54324 0
M  V30 3700 H 356.548 -3.81454 1.66229 0
M  V30 3701 H 355.424 -5.19289 1.77848 0
M  V30 3702 H 355.685 -4.41526 0.22521 0
M  V30 3703 N 354.744 -0.972509 -1.24016 0
M  V30 3704 C 355.969 -0.654417 -1.96805 0
M  V30 3705 C 356.394 0.770398 -1.716 0
M  V30 3706 O 355.752 1.52361 -0.982647 0
M  V30 3707 C 355.8 -0.941031 -3.48105 0
M  V30 3708 O 354.904 -0.0289472 -4.1239 0
M  V30 3709 H 354.245 -0.24692 -0.616382 0
M  V30 3710 H 356.775 -1.30396 -1.57664 0
M  V30 3711 H 356.785 -0.87452 -3.98517 0
M  V30 3712 H 355.46 -1.97939 -3.65777 0
M  V30 3713 H 354.037 -0.149192 -3.72601 0
M  V30 3714 N 356.222 1.38976 -0.743202 0
M  V30 3715 C 357.154 2.29096 -0.0689228 0
M  V30 3716 C 358.167 1.47229 0.694791 0
M  V30 3717 O 359.356 1.70212 0.537597 0
M  V30 3718 C 356.456 3.25988 0.926548 0
M  V30 3719 C 355.629 4.36833 0.222647 0
M  V30 3720 C 354.688 5.13981 1.12739 0
M  V30 3721 O 353.714 5.6601 0.601795 0
M  V30 3722 N 354.916 5.25966 2.45641 0
M  V30 3723 H 357.681 2.87604 -0.842846 0
M  V30 3724 H 355.242 1.50645 -0.593109 0
M  V30 3725 H 357.234 3.74476 1.5346 0
M  V30 3726 H 355.804 2.68453 1.60162 0
M  V30 3727 H 355.024 3.90116 -0.565983 0
M  V30 3728 H 356.312 5.0811 -0.264841 0
M  V30 3729 H 355.71 4.85228 2.9081 0
M  V30 3730 H 354.267 5.77865 3.01522 0
M  V30 3731 N 357.7 0.491464 1.49741 0
M  V30 3732 C 358.977 -0.118984 1.95238 0
M  V30 3733 C 359.357 -1.55044 1.43264 0
M  V30 3734 O 358.705 -2.19287 0.642287 0
M  V30 3735 C 358.915 -0.0414187 3.48975 0
M  V30 3736 C 360.263 -0.220133 4.24029 0
M  V30 3737 O 361.287 -0.117055 3.56008 0
M  V30 3738 O 360.146 -0.430567 5.44801 0
M  V30 3739 H 357.24 -0.100536 0.820866 0
M  V30 3740 H 359.786 0.553322 1.60426 0
M  V30 3741 H 358.558 0.957214 3.79412 0
M  V30 3742 H 358.181 -0.754292 3.9038 0
M  V30 3743 N 359.178 -1.55987 0.224894 0
M  V30 3744 C 360.125 -2.20436 -0.68385 0
M  V30 3745 C 361.095 -1.16102 -1.18783 0
M  V30 3746 O 362.28 -1.4447 -1.24632 0
M  V30 3747 C 359.42 -2.89076 -1.88491 0
M  V30 3748 C 358.533 -4.08012 -1.41951 0
M  V30 3749 C 357.668 -4.64426 -2.5784 0
M  V30 3750 C 356.707 -5.75656 -2.08053 0
M  V30 3751 N 355.844 -6.26347 -3.17227 0
M  V30 3752 H 360.684 -2.97727 -0.12754 0
M  V30 3753 H 358.221 -1.47011 -0.0511978 0
M  V30 3754 H 360.179 -3.27059 -2.59014 0
M  V30 3755 H 358.809 -2.14298 -2.41405 0
M  V30 3756 H 357.861 -3.75492 -0.609095 0
M  V30 3757 H 359.173 -4.88375 -1.01447 0
M  V30 3758 H 358.327 -5.04869 -3.3644 0
M  V30 3759 H 357.066 -3.83233 -3.01635 0
M  V30 3760 H 356.071 -5.34712 -1.27916 0
M  V30 3761 H 357.296 -6.58686 -1.65255 0
M  V30 3762 H 355.242 -5.48067 -3.60497 0
M  V30 3763 H 355.159 -7.01843 -2.80986 0
M  V30 3764 H 356.427 -6.71447 -3.95953 0
M  V30 3765 N 360.656 0.0484629 -1.57525 0
M  V30 3766 C 361.619 1.03956 -2.04269 0
M  V30 3767 C 362.619 1.30211 -0.943496 0
M  V30 3768 O 363.809 1.25539 -1.20771 0
M  V30 3769 C 360.941 2.37742 -2.44319 0
M  V30 3770 H 362.134 0.636182 -2.93075 0
M  V30 3771 H 359.687 0.294811 -1.53494 0
M  V30 3772 H 360.422 2.82866 -1.5861 0
M  V30 3773 H 360.207 2.20021 -3.24551 0
M  V30 3774 H 361.697 3.08936 -2.80978 0
M  V30 3775 N 362.134 1.5431 0.320358 0
M  V30 3776 C 363.097 1.83195 1.3774 0
M  V30 3777 C 364.097 0.703906 1.44575 0
M  V30 3778 O 365.287 0.972214 1.44546 0
M  V30 3779 C 362.419 1.99487 2.76438 0
M  V30 3780 H 363.612 2.77642 1.1338 0
M  V30 3781 H 361.165 1.46076 0.556012 0
M  V30 3782 H 361.9 1.07262 3.06048 0
M  V30 3783 H 361.685 2.81575 2.7287 0
M  V30 3784 H 363.175 2.23271 3.52902 0
M  V30 3785 N 363.613 -0.582584 1.46437 0
M  V30 3786 C 364.56 -1.69164 1.5701 0
M  V30 3787 C 365.53 -1.60847 0.414403 0
M  V30 3788 O 366.715 -1.80058 0.631171 0
M  V30 3789 C 363.855 -3.075 1.56646 0
M  V30 3790 C 362.968 -3.2644 2.82951 0
M  V30 3791 C 362.103 -4.55026 2.7409 0
M  V30 3792 C 361.142 -4.6731 3.95333 0
M  V30 3793 N 360.279 -5.87221 3.84858 0
M  V30 3794 H 365.119 -1.59464 2.51744 0
M  V30 3795 H 362.656 -0.777186 1.24893 0
M  V30 3796 H 364.614 -3.8757 1.5442 0
M  V30 3797 H 363.244 -3.16096 0.654439 0
M  V30 3798 H 362.296 -2.39974 2.95155 0
M  V30 3799 H 363.608 -3.31385 3.72808 0
M  V30 3800 H 362.762 -5.43324 2.6997 0
M  V30 3801 H 361.501 -4.52519 1.81873 0
M  V30 3802 H 360.506 -3.77429 3.99784 0
M  V30 3803 H 361.731 -4.71595 4.88646 0
M  V30 3804 H 359.677 -5.85712 2.95427 0
M  V30 3805 H 359.594 -5.93435 4.6837 0
M  V30 3806 H 360.862 -6.7795 3.84713 0
M  V30 3807 N 365.091 -1.34144 -0.827227 0
M  V30 3808 C 366.502 -1.23557 -1.39966 0
M  V30 3809 C 366.853 0.140731 -1.95695 0
M  V30 3810 O 365.978 1.04087 -1.89723 0
M  V30 3811 C 366.573 -2.23708 -2.54441 0
M  V30 3812 C 365.132 -2.16924 -3.07605 0
M  V30 3813 C 364.279 -2.10549 -1.80456 0
M  V30 3814 H 367.23 -1.45573 -0.631991 0
M  V30 3815 H 367.251 -1.85157 -3.32411 0
M  V30 3816 H 366.763 -3.23866 -2.13851 0
M  V30 3817 H 364.864 -1.20107 -3.52711 0
M  V30 3818 H 364.977 -3.07988 -3.66988 0
M  V30 3819 H 363.341 -1.56203 -2.01178 0
M  V30 3820 H 364.124 -3.12535 -1.42046 0
M  V30 3821 N 366.569 1.04691 -1.17803 0
M  V30 3822 C 367.532 2.10724 -0.901545 0
M  V30 3823 C 368.532 1.6042 0.110437 0
M  V30 3824 O 369.722 1.7377 -0.122303 0
M  V30 3825 C 366.854 3.39084 -0.351409 0
M  V30 3826 H 368.047 2.36686 -1.84174 0
M  V30 3827 H 365.6 1.21015 -0.98919 0
M  V30 3828 H 366.335 3.18782 0.59569 0
M  V30 3829 H 366.12 3.76909 -1.08083 0
M  V30 3830 H 367.61 4.17227 -0.176451 0
M  V30 3831 N 368.047 0.979072 1.23499 0
M  V30 3832 C 369.294 0.647219 1.91878 0
M  V30 3833 C 369.622 -0.819074 1.76413 0
M  V30 3834 O 368.877 -1.60616 1.11808 0
M  V30 3835 C 369.176 0.981932 3.43646 0
M  V30 3836 C 368.842 2.43822 3.79291 0
M  V30 3837 C 367.504 2.83622 3.88731 0
M  V30 3838 C 369.856 3.3828 3.96505 0
M  V30 3839 C 367.184 4.16897 4.12812 0
M  V30 3840 C 369.536 4.71197 4.22085 0
M  V30 3841 C 368.2 5.10758 4.29747 0
M  V30 3842 H 367.47 0.236834 0.702133 0
M  V30 3843 H 370.117 1.23268 1.46551 0
M  V30 3844 H 368.422 0.314365 3.90537 0
M  V30 3845 H 370.119 0.703395 3.94783 0
M  V30 3846 H 366.709 2.11966 3.72516 0
M  V30 3847 H 370.893 3.0871 3.88603 0
M  V30 3848 H 366.149 4.47157 4.16966 0
M  V30 3849 H 370.323 5.44348 4.34348 0
M  V30 3850 H 367.95 6.1405 4.48159 0
M  V30 3851 N 369.525 -1.3858 0.750561 0
M  V30 3852 C 370.802 -1.94231 0.231009 0
M  V30 3853 C 371.182 -1.68611 -1.27018 0
M  V30 3854 O 370.53 -1.02296 -2.04323 0
M  V30 3855 C 370.74 -3.44123 0.581428 0
M  V30 3856 C 372.088 -4.2116 0.539389 0
M  V30 3857 O 373.112 -3.52391 0.519541 0
M  V30 3858 O 371.971 -5.43749 0.54765 0
M  V30 3859 H 369.065 -0.825639 0.0474263 0
M  V30 3860 H 371.611 -1.4799 0.830478 0
M  V30 3861 H 370.383 -3.56267 1.61833 0
M  V30 3862 H 370.006 -3.97573 -0.0462047 0
M  V30 3863 N 371.003 -0.499398 -1.49478 0
M  V30 3864 C 371.936 0.326491 -2.25852 0
M  V30 3865 C 372.914 0.971776 -1.30366 0
M  V30 3866 O 374.098 1.00219 -1.59651 0
M  V30 3867 C 371.225 1.45969 -3.05632 0
M  V30 3868 C 370.271 0.928938 -4.16261 0
M  V30 3869 S 371.104 -0.179012 -5.35201 0
M  V30 3870 C 372.26 0.957389 -6.18534 0
M  V30 3871 H 372.493 -0.321746 -2.95554 0
M  V30 3872 H 370.026 -0.284674 -1.51753 0
M  V30 3873 H 371.984 2.109 -3.52181 0
M  V30 3874 H 370.645 2.07953 -2.35402 0
M  V30 3875 H 369.838 1.77813 -4.71592 0
M  V30 3876 H 369.44 0.356869 -3.72293 0
M  V30 3877 H 371.732 1.86296 -6.51383 0
M  V30 3878 H 372.675 0.442733 -7.06715 0
M  V30 3879 H 373.083 1.224 -5.5107 0
M  V30 3880 N 372.481 1.55866 -0.233164 0
M  V30 3881 C 373.429 2.22176 0.68851 0
M  V30 3882 C 374.423 1.20487 1.19076 0
M  V30 3883 O 375.629 1.38536 1.14925 0
M  V30 3884 H 372.004 0.712511 0.240483 0
M  V30 3885 H 373.975 2.98212 0.105935 0
M  V30 3886 C 372.724 2.92446 1.88071 0
M  V30 3887 H 372.047 3.70458 1.50337 0
M  V30 3888 H 373.487 3.42226 2.50314 0
M  V30 3889 C 371.946 1.95555 2.74335 0
M  V30 3890 O 372.476 1.47986 3.73447 0
M  V30 3891 N 370.682 1.62953 2.40613 0
M  V30 3892 H 370.229 2.01831 1.60069 0
M  V30 3893 H 370.187 0.983886 2.98609 0
M  V30 3894 N 373.959 -0.0401083 1.57549 0
M  V30 3895 C 374.891 -1.07149 2.02612 0
M  V30 3896 C 375.904 -1.33126 0.937085 0
M  V30 3897 O 377.093 -1.30808 1.21456 0
M  V30 3898 C 374.193 -2.41561 2.37701 0
M  V30 3899 C 373.366 -2.35096 3.68848 0
M  V30 3900 C 372.425 -3.51867 3.91249 0
M  V30 3901 O 371.451 -3.3186 4.62447 0
M  V30 3902 N 372.653 -4.73351 3.36035 0
M  V30 3903 H 375.418 -0.687485 2.91708 0
M  V30 3904 H 372.979 -0.228248 1.60283 0
M  V30 3905 H 374.971 -3.18379 2.49833 0
M  V30 3906 H 373.541 -2.71846 1.54332 0
M  V30 3907 H 372.761 -1.4345 3.67173 0
M  V30 3908 H 374.049 -2.27908 4.54901 0
M  V30 3909 H 373.447 -4.92507 2.78304 0
M  V30 3910 H 372.004 -5.47572 3.53565 0
M  V30 3911 N 375.437 -1.54477 -0.31217 0
M  V30 3912 C 376.667 -1.76948 -1.06645 0
M  V30 3913 C 377.075 -0.523593 -1.81811 0
M  V30 3914 O 376.418 0.51578 -1.76311 0
M  V30 3915 C 376.48 -2.91668 -2.10166 0
M  V30 3916 C 376.144 -4.30165 -1.54296 0
M  V30 3917 C 377.141 -5.10603 -0.978793 0
M  V30 3918 C 374.826 -4.76738 -1.58196 0
M  V30 3919 C 376.82 -6.3573 -0.461048 0
M  V30 3920 C 374.507 -6.01831 -1.06034 0
M  V30 3921 C 375.505 -6.81161 -0.500844 0
M  V30 3922 O 375.193 -8.03899 0.0128958 0
M  V30 3923 H 374.925 -0.594088 -0.322546 0
M  V30 3924 H 377.479 -2.02213 -0.360441 0
M  V30 3925 H 375.709 -2.62001 -2.84416 0
M  V30 3926 H 377.398 -3.01817 -2.71406 0
M  V30 3927 H 378.164 -4.75771 -0.941651 0
M  V30 3928 H 374.043 -4.15027 -2.00683 0
M  V30 3929 H 377.587 -6.97596 -0.0236894 0
M  V30 3930 H 373.484 -6.36152 -1.09459 0
M  V30 3931 H 374.252 -8.18437 -0.101457 0
M  V30 3932 N 376.915 0.57481 -1.46744 0
M  V30 3933 C 378.162 1.33272 -1.52462 0
M  V30 3934 C 378.49 1.93669 -0.179572 0
M  V30 3935 O 377.745 1.7743 0.825664 0
M  V30 3936 C 378.044 2.476 -2.57738 0
M  V30 3937 C 377.71 2.05146 -4.01529 0
M  V30 3938 C 376.372 1.93284 -4.40676 0
M  V30 3939 C 378.724 1.72506 -4.91824 0
M  V30 3940 C 376.052 1.47049 -5.67973 0
M  V30 3941 C 378.404 1.27748 -6.19567 0
M  V30 3942 C 377.068 1.14468 -6.57612 0
M  V30 3943 H 376.338 0.487678 -0.557899 0
M  V30 3944 H 378.985 0.646456 -1.80259 0
M  V30 3945 H 377.29 3.21708 -2.23632 0
M  V30 3946 H 378.987 3.05807 -2.5939 0
M  V30 3947 H 375.577 2.15316 -3.7059 0
M  V30 3948 H 379.761 1.80552 -4.62293 0
M  V30 3949 H 375.017 1.35417 -5.96215 0
M  V30 3950 H 379.191 1.01547 -6.88957 0
M  V30 3951 H 376.818 0.78419 -7.56145 0
M  V30 3952 N 378.394 1.34581 0.820102 0
M  V30 3953 C 379.643 1.26437 1.57151 0
M  V30 3954 C 379.956 -0.163111 1.94919 0
M  V30 3955 O 381.162 -0.366722 2.69012 0
M  V30 3956 C 379.618 2.21658 2.83541 0
M  V30 3957 C 379.226 3.69679 2.53065 0
M  V30 3958 C 380.97 2.22428 3.61561 0
M  V30 3959 C 378.877 4.56761 3.75664 0
M  V30 3960 H 377.807 0.469707 0.589823 0
M  V30 3961 H 380.458 1.59763 0.902656 0
M  V30 3962 H 378.84 1.81287 3.52067 0
M  V30 3963 H 380.014 4.18605 1.92631 0
M  V30 3964 H 378.329 3.71384 1.88316 0
M  V30 3965 H 380.926 2.8471 4.52597 0
M  V30 3966 H 381.269 1.22434 3.97889 0
M  V30 3967 H 381.802 2.61259 2.99981 0
M  V30 3968 H 378.541 5.57702 3.44454 0
M  V30 3969 H 378.061 4.12568 4.35371 0
M  V30 3970 H 379.74 4.71509 4.43044 0
M  V30 3971 N 379.872 -1.04064 1.18357 0
M  V30 3972 C 381.12 -1.76915 0.977013 0
M  V30 3973 C 381.441 -1.88624 -0.494577 0
M  V30 3974 O 380.711 -1.41125 -1.3587 0
M  V30 3975 H 379.291 -0.65535 0.358504 0
M  V30 3976 H 381.953 -1.25592 1.49039 0
M  V30 3977 H 381.049 -2.78178 1.41504 0
M  V30 3978 N 381.35 -0.985608 -1.22978 0
M  V30 3979 C 382.599 -0.652881 -1.90841 0
M  V30 3980 C 382.912 0.817842 -1.77681 0
M  V30 3981 O 384.118 1.26185 -2.40395 0
M  V30 3982 C 382.574 -1.11717 -3.42122 0
M  V30 3983 C 382.182 -2.6126 -3.63933 0
M  V30 3984 C 383.926 -0.85843 -4.1573 0
M  V30 3985 C 381.833 -3.0133 -5.08876 0
M  V30 3986 H 380.763 -0.240491 -0.714619 0
M  V30 3987 H 383.414 -1.1942 -1.39324 0
M  V30 3988 H 381.796 -0.504027 -3.92779 0
M  V30 3989 H 382.97 -3.27858 -3.23799 0
M  V30 3990 H 381.285 -2.84937 -3.03644 0
M  V30 3991 H 383.882 -1.13359 -5.22546 0
M  V30 3992 H 384.225 0.205461 -4.15793 0
M  V30 3993 H 384.758 -1.43341 -3.71077 0
M  V30 3994 H 381.497 -4.06864 -5.13947 0
M  V30 3995 H 381.017 -2.3943 -5.49939 0
M  V30 3996 H 382.696 -2.92224 -5.77247 0
M  V30 3997 N 382.828 1.3818 -0.7579 0
M  V30 3998 C 384.105 1.94106 -0.241306 0
M  V30 3999 C 384.485 1.69282 1.26122 0
M  V30 4000 O 383.833 1.03378 2.03777 0
M  V30 4001 C 384.043 3.43809 -0.59967 0
M  V30 4002 C 385.391 4.20868 -0.561717 0
M  V30 4003 O 386.415 3.5211 -0.538222 0
M  V30 4004 O 385.274 5.43451 -0.576478 0
M  V30 4005 H 382.368 0.825376 -0.0518042 0
M  V30 4006 H 384.914 1.47548 -0.838315 0
M  V30 4007 H 383.686 3.55403 -1.6372 0
M  V30 4008 H 383.309 3.97592 0.0251197 0
M  V30 4009 N 384.306 0.507319 1.49211 0
M  V30 4010 C 385.583 -0.0982702 1.95353 0
M  V30 4011 C 385.963 -1.53516 1.449 0
M  V30 4012 O 385.311 -2.18594 0.66551 0
M  V30 4013 C 385.521 -0.00440283 3.49 0
M  V30 4014 C 386.869 -0.175147 4.24239 0
M  V30 4015 O 387.893 -0.0792891 3.56112 0
M  V30 4016 O 386.752 -0.37276 5.45227 0
M  V30 4017 H 383.846 -0.0918236 0.821887 0
M  V30 4018 H 386.392 0.570307 1.5983 0
M  V30 4019 H 385.164 0.997402 3.78375 0
M  V30 4020 H 384.787 -0.712845 3.91158 0
M  V30 4021 N 385.784 -1.5574 0.241426 0
M  V30 4022 C 387.032 -1.98417 -0.384075 0
M  V30 4023 C 387.353 -1.13078 -1.58866 0
M  V30 4024 O 386.623 -0.212312 -1.94746 0
M  V30 4025 H 385.203 -0.732813 -0.144894 0
M  V30 4026 H 387.865 -1.9193 0.338943 0
M  V30 4027 H 386.961 -3.04219 -0.696939 0
M  V30 4028 N 387.262 0.0317525 -1.57568 0
M  V30 4029 C 388.195 1.06621 -2.0176 0
M  V30 4030 C 389.173 1.35323 -0.901462 0
M  V30 4031 O 390.357 1.48025 -1.16708 0
M  V30 4032 C 387.484 2.40155 -2.38837 0
M  V30 4033 C 386.53 2.27327 -3.60867 0
M  V30 4034 S 387.363 1.62925 -5.10113 0
M  V30 4035 C 388.519 2.97955 -5.5043 0
M  V30 4036 H 388.752 0.689781 -2.89187 0
M  V30 4037 H 386.285 0.24164 -1.52497 0
M  V30 4038 H 388.243 3.1695 -2.6087 0
M  V30 4039 H 386.904 2.74946 -1.51867 0
M  V30 4040 H 386.097 3.25898 -3.84456 0
M  V30 4041 H 385.699 1.58675 -3.38671 0
M  V30 4042 H 387.991 3.94285 -5.5095 0
M  V30 4043 H 388.934 2.79102 -6.50775 0
M  V30 4044 H 389.342 3.00404 -4.77931 0
M  V30 4045 N 388.74 1.54641 0.303973 0
M  V30 4046 C 389.688 1.86137 1.39484 0
M  V30 4047 C 390.682 0.734854 1.52631 0
M  V30 4048 O 391.888 0.918803 1.54784 0
M  V30 4049 H 388.263 0.590324 0.465856 0
M  V30 4050 H 390.234 2.77324 1.10154 0
M  V30 4051 C 388.983 2.12274 2.75382 0
M  V30 4052 H 388.306 2.98429 2.66046 0
M  V30 4053 H 389.746 2.38254 3.5073 0
M  V30 4054 C 388.205 0.920365 3.24085 0
M  V30 4055 O 388.735 0.139377 4.01458 0
M  V30 4056 N 386.941 0.726566 2.81371 0
M  V30 4057 H 386.488 1.36332 2.18567 0
M  V30 4058 H 386.446 -0.0763799 3.14307 0
M  V30 4059 N 390.218 -0.567019 1.47046 0
M  V30 4060 C 391.148 -1.68482 1.61667 0
M  V30 4061 C 392.129 -1.6358 0.466418 0
M  V30 4062 O 393.314 -1.81354 0.694574 0
M  V30 4063 C 390.444 -3.07124 1.62148 0
M  V30 4064 C 389.398 -3.26867 2.76301 0
M  V30 4065 C 388.724 -4.66196 2.61849 0
M  V30 4066 C 390.024 -3.13186 4.17986 0
M  V30 4067 H 391.718 -1.56502 2.5524 0
M  V30 4068 H 389.264 -0.751486 1.22836 0
M  V30 4069 H 391.217 -3.8516 1.70968 0
M  V30 4070 H 389.941 -3.2004 0.651287 0
M  V30 4071 H 388.6 -2.51237 2.66975 0
M  V30 4072 H 388.248 -4.75898 1.62879 0
M  V30 4073 H 387.948 -4.80356 3.38425 0
M  V30 4074 H 389.472 -5.46379 2.72584 0
M  V30 4075 H 390.886 -3.81049 4.2834 0
M  V30 4076 H 389.283 -3.3886 4.95272 0
M  V30 4077 H 390.353 -2.10057 4.3704 0
M  V30 4078 N 391.696 -1.35014 -0.812953 0
M  V30 4079 C 392.644 -1.27435 -1.94585 0
M  V30 4080 C 393.638 -0.170494 -1.6854 0
M  V30 4081 O 394.844 -0.336085 -1.76835 0
M  V30 4082 H 391.219 -0.396144 -0.639198 0
M  V30 4083 H 393.19 -2.23158 -1.98098 0
M  V30 4084 C 391.939 -1.05677 -3.31252 0
M  V30 4085 H 391.262 -1.89853 -3.51846 0
M  V30 4086 H 392.702 -1.04413 -4.10943 0
M  V30 4087 C 391.161 0.239615 -3.36047 0
M  V30 4088 O 391.691 1.23759 -3.8216 0
M  V30 4089 N 389.897 0.276186 -2.89285 0
M  V30 4090 H 389.444 -0.53653 -2.51951 0
M  V30 4091 H 389.402 1.14332 -2.92875 0
M  V30 4092 N 393.175 1.03435 -1.18907 0
M  V30 4093 C 394.424 1.76143 -0.982669 0
M  V30 4094 C 394.737 1.89416 0.487953 0
M  V30 4095 O 395.943 2.59041 0.813036 0
M  V30 4096 C 394.399 3.16722 -1.70924 0
M  V30 4097 C 394.007 3.11522 -3.21959 0
M  V30 4098 C 395.751 3.93764 -1.58588 0
M  V30 4099 C 393.658 4.46999 -3.87228 0
M  V30 4100 H 392.588 0.660292 -0.364047 0
M  V30 4101 H 395.239 1.158 -1.42347 0
M  V30 4102 H 393.621 3.775 -1.19623 0
M  V30 4103 H 394.795 2.60158 -3.80335 0
M  V30 4104 H 393.11 2.47978 -3.34508 0
M  V30 4105 H 395.707 4.93963 -2.04707 0
M  V30 4106 H 396.05 4.12794 -0.539142 0
M  V30 4107 H 396.583 3.39576 -2.07203 0
M  V30 4108 H 393.322 4.33174 -4.91976 0
M  V30 4109 H 392.842 4.98441 -3.33642 0
M  V30 4110 H 394.521 5.15898 -3.90459 0
M  V30 4111 O 394.692 1.12039 1.16316 0
M  V30 4112 H 395.383 0.829719 1.7503 0
M  V30 END ATOM
M  V30 BEGIN BOND
M  V30 END BOND
M  V30 END CTAB
M  END
$$$$
