drugbank_target|P44345 50S ribosomal protein L4 (DB01321)
 OpenBabel12092120373D

  0  0  0     0  0            999 V3000
M  V30 BEGIN CTAB
M  V30 COUNTS 3165 3184 0 0 0
M  V30 BEGIN ATOM
M  V30 1 H -0.908 1.98254 -0.117106 0
M  V30 2 N 0 1.576 0 0
M  V30 3 C 0.933 2.03868 1.02534 0
M  V30 4 C 1.911 0.928543 1.3348 0
M  V30 5 O 3.095 1.19667 1.45644 0
M  V30 6 C 0.222 2.43627 2.35294 0
M  V30 7 C -0.732 3.65373 2.2001 0
M  V30 8 S 0.101 5.13292 1.52614 0
M  V30 9 C 1.257 5.56322 2.86805 0
M  V30 10 H 1.49 2.90518 0.631377 0
M  V30 11 H -0.977 1.52953 0.210867 0
M  V30 12 H 0.981 2.67203 3.11629 0
M  V30 13 H -0.358 1.57376 2.7183 0
M  V30 14 H -1.165 3.90944 3.18086 0
M  V30 15 H -1.563 3.418 1.51819 0
M  V30 16 H 0.729 5.58782 3.83104 0
M  V30 17 H 1.672 6.56266 2.65933 0
M  V30 18 H 2.08 4.83886 2.90714 0
M  V30 19 N 1.4781 -0.272755 1.55222 0
M  V30 20 C 2.3881 -1.35918 1.91216 0
M  V30 21 C 3.4041 -1.54026 0.809436 0
M  V30 22 O 4.5801 -1.68148 1.10852 0
M  V30 23 C 1.6451 -2.69834 2.17693 0
M  V30 24 C 0.7061 -2.6047 3.41253 0
M  V30 25 C -0.0609 -3.88 3.66458 0
M  V30 26 O 0.1621 -4.88693 2.94169 0
M  V30 27 O -0.9039 -3.88189 4.59992 0
M  V30 28 H 2.9221 -1.0839 2.83699 0
M  V30 29 H 0.5071 -0.471301 1.41771 0
M  V30 30 H 2.3891 -3.49017 2.36147 0
M  V30 31 H 1.0641 -2.97148 1.28392 0
M  V30 32 H -0.0289 -1.79663 3.28134 0
M  V30 33 H 1.3041 -2.38106 4.30774 0
M  V30 34 N 2.9562 -1.48159 -0.537278 0
M  V30 35 C 3.8862 -1.65029 -1.6519 0
M  V30 36 C 4.8672 -0.499281 -1.62607 0
M  V30 37 O 6.0522 -0.730972 -1.79918 0
M  V30 38 C 3.1822 -1.68303 -3.03795 0
M  V30 39 C 2.1362 -2.8283 -3.21234 0
M  V30 40 C 1.4622 -2.71189 -4.60826 0
M  V30 41 C 2.7622 -4.24211 -3.04701 0
M  V30 42 H 4.4562 -2.58341 -1.51328 0
M  V30 43 H 2.0022 -1.24325 -0.726585 0
M  V30 44 H 3.9552 -1.78693 -3.81637 0
M  V30 45 H 2.6792 -0.715635 -3.18663 0
M  V30 46 H 1.3382 -2.71983 -2.45807 0
M  V30 47 H 0.9862 -1.72435 -4.7252 0
M  V30 48 H 0.6862 -3.48035 -4.7344 0
M  V30 49 H 2.2102 -2.83537 -5.40777 0
M  V30 50 H 3.6242 -4.3593 -3.72341 0
M  V30 51 H 2.0212 -5.01998 -3.28813 0
M  V30 52 H 3.0912 -4.41184 -2.01209 0
M  V30 53 N 4.4343 0.785586 -1.36625 0
M  V30 54 C 5.3663 1.90711 -1.2713 0
M  V30 55 C 6.3793 1.61688 -0.189986 0
M  V30 56 O 7.5683 1.72864 -0.445014 0
M  V30 57 C 4.6683 3.25611 -0.939713 0
M  V30 58 C 3.8413 3.82385 -2.12369 0
M  V30 59 C 2.9003 4.95732 -1.76456 0
M  V30 60 O 1.9263 5.12047 -2.48589 0
M  V30 61 N 3.1283 5.76258 -0.700492 0
M  V30 62 H 5.8933 1.99376 -2.23762 0
M  V30 63 H 3.4543 0.964041 -1.30069 0
M  V30 64 H 5.4463 3.98937 -0.680554 0
M  V30 65 H 4.0163 3.12538 -0.0624074 0
M  V30 66 H 3.2363 3.01001 -2.54543 0
M  V30 67 H 4.5243 4.17047 -2.9146 0
M  V30 68 H 3.9223 5.65609 -0.101624 0
M  V30 69 H 2.4793 6.4987 -0.501165 0
M  V30 70 N 5.9124 1.20967 1.01018 0
M  V30 71 C 7.1584 1.02526 1.74975 0
M  V30 72 C 7.4914 -0.4408 1.89131 0
M  V30 73 O 6.7664 -1.32718 1.42184 0
M  V30 74 C 7.0494 1.71699 3.1653 0
M  V30 75 C 6.9024 3.25791 3.10129 0
M  V30 76 C 8.2214 1.45531 4.15342 0
M  V30 77 H 5.3404 0.373863 0.635134 0
M  V30 78 H 7.9824 1.49071 1.17805 0
M  V30 79 H 6.1324 1.32128 3.65341 0
M  V30 80 H 7.8044 3.74697 2.69072 0
M  V30 81 H 6.0474 3.56363 2.47362 0
M  V30 82 H 6.7184 3.69353 4.10222 0
M  V30 83 H 9.1944 1.79872 3.75213 0
M  V30 84 H 8.0704 1.96453 5.1254 0
M  V30 85 H 8.3314 0.384237 4.40427 0
M  V30 86 N 7.3905 -1.2043 1.01659 0
M  V30 87 C 8.6365 -1.90079 0.706963 0
M  V30 88 C 8.9695 -1.78648 -0.761474 0
M  V30 89 O 8.2445 -1.17069 -1.55323 0
M  V30 90 C 8.5275 -3.41469 1.14327 0
M  V30 91 C 8.3805 -3.61833 2.67201 0
M  V30 92 C 9.6995 -4.34261 0.714529 0
M  V30 93 H 6.8185 -0.690254 0.2583 0
M  V30 94 H 9.4605 -1.41826 1.26433 0
M  V30 95 H 7.6105 -3.82696 0.669056 0
M  V30 96 H 9.2825 -3.2986 3.22475 0
M  V30 97 H 7.5255 -3.05304 3.08175 0
M  V30 98 H 8.1965 -4.67955 2.92783 0
M  V30 99 H 10.6725 -4.00682 1.12221 0
M  V30 100 H 9.5485 -5.38806 1.04784 0
M  V30 101 H 9.8095 -4.40431 -0.383799 0
M  V30 102 N 8.8686 -0.792821 -1.36206 0
M  V30 103 C 10.1166 -0.366062 -1.98757 0
M  V30 104 C 10.4376 1.0668 -1.63231 0
M  V30 105 O 9.7076 1.73587 -0.907978 0
M  V30 106 H 8.2876 -0.132364 -0.735179 0
M  V30 107 H 10.9496 -1.01562 -1.66347 0
M  V30 108 H 10.0456 -0.460638 -3.08682 0
M  V30 109 N 10.3467 1.47872 -0.545128 0
M  V30 110 C 11.3097 2.28337 0.198717 0
M  V30 111 C 12.3097 1.36255 0.853888 0
M  V30 112 O 13.4997 1.59003 0.711606 0
M  V30 113 C 10.6317 3.15585 1.28915 0
M  V30 114 H 11.8247 2.95567 -0.507941 0
M  V30 115 H 9.3777 1.53362 -0.301616 0
M  V30 116 H 10.1127 2.53019 2.02859 0
M  V30 117 H 9.8977 3.83337 0.824309 0
M  V30 118 H 11.3877 3.76243 1.81194 0
M  V30 119 N 11.8248 0.280983 1.55075 0
M  V30 120 C 12.7728 -0.619864 2.24188 0
M  V30 121 C 13.7668 -1.15315 1.24092 0
M  V30 122 O 14.9728 -1.1061 1.42005 0
M  V30 123 H 11.3478 -0.218459 0.719569 0
M  V30 124 H 13.3188 -0.0141831 2.98397 0
M  V30 125 C 12.0678 -1.7899 2.98091 0
M  V30 126 H 11.3908 -1.38874 3.74905 0
M  V30 127 H 12.8308 -2.39672 3.49762 0
M  V30 128 C 11.2898 -2.68192 2.03899 0
M  V30 129 O 11.8198 -3.6872 1.594 0
M  V30 130 N 10.0258 -2.35488 1.70275 0
M  V30 131 H 9.5728 -1.53787 2.06658 0
M  V30 132 H 9.5308 -2.95442 1.07524 0
M  V30 133 N 13.3029 -1.57598 0.00835791 0
M  V30 134 C 14.2659 -2.07884 -0.965242 0
M  V30 135 C 15.2659 -0.989825 -1.26725 0
M  V30 136 O 16.4559 -1.25218 -1.21104 0
M  V30 137 C 13.5879 -2.52731 -2.28779 0
M  V30 138 H 14.7809 -2.95178 -0.530112 0
M  V30 139 H 12.3339 -1.54458 -0.239283 0
M  V30 140 H 13.0689 -1.68705 -2.76964 0
M  V30 141 H 12.8539 -3.32272 -2.08177 0
M  V30 142 H 14.3439 -2.91933 -2.98605 0
M  V30 143 N 14.781 0.264519 -1.55364 0
M  V30 144 C 15.711 1.33121 -1.91836 0
M  V30 145 C 16.692 1.51101 -0.781192 0
M  V30 146 O 17.877 1.64003 -1.04003 0
M  V30 147 C 15.007 2.68921 -2.19769 0
M  V30 148 C 13.961 2.65661 -3.35571 0
M  V30 149 C 13.287 4.05093 -3.49004 0
M  V30 150 C 14.587 2.24187 -4.71739 0
M  V30 151 H 16.281 1.02844 -2.81182 0
M  V30 152 H 13.827 0.493286 -1.35287 0
M  V30 153 H 15.78 3.43663 -2.43872 0
M  V30 154 H 14.504 3.00799 -1.27231 0
M  V30 155 H 13.163 1.93377 -3.1145 0
M  V30 156 H 12.811 4.34206 -2.53917 0
M  V30 157 H 12.511 4.03804 -4.26868 0
M  V30 158 H 14.035 4.81561 -3.75408 0
M  V30 159 H 15.449 2.88654 -4.9533 0
M  V30 160 H 13.846 2.34044 -5.52579 0
M  V30 161 H 14.916 1.19327 -4.69988 0
M  V30 162 N 16.2591 1.48442 0.529413 0
M  V30 163 C 17.4871 1.60151 1.30994 0
M  V30 164 C 17.9021 0.261985 1.86973 0
M  V30 165 O 17.2591 -0.748805 1.66431 0
M  V30 166 C 17.3101 2.64854 2.46038 0
M  V30 167 O 17.0311 3.93608 1.92365 0
M  V30 168 C 18.5321 2.87007 3.37849 0
M  V30 169 H 15.7521 0.539971 0.398338 0
M  V30 170 H 18.2961 1.94273 0.638597 0
M  V30 171 H 16.4511 2.33589 3.09055 0
M  V30 172 H 16.8651 4.51055 2.67675 0
M  V30 173 H 18.3391 3.64068 4.14919 0
M  V30 174 H 18.8161 1.95852 3.93114 0
M  V30 175 H 19.4221 3.19579 2.80623 0
M  V30 176 N 17.7372 -0.778329 1.37039 0
M  V30 177 C 18.9832 -1.53892 1.32079 0
M  V30 178 C 19.3162 -1.9396 -0.0965386 0
M  V30 179 O 18.5912 -1.63568 -1.05242 0
M  V30 180 C 18.8742 -2.80847 2.25382 0
M  V30 181 C 18.7272 -2.47076 3.75864 0
M  V30 182 C 20.0462 -3.82741 2.1725 0
M  V30 183 H 17.1652 -0.558303 0.48111 0
M  V30 184 H 19.8072 -0.893397 1.67685 0
M  V30 185 H 17.9572 -3.35931 1.95148 0
M  V30 186 H 19.6292 -1.97957 4.16666 0
M  V30 187 H 17.8722 -1.79863 3.94755 0
M  V30 188 H 18.5432 -3.37798 4.36574 0
M  V30 189 H 21.0192 -3.37133 2.43887 0
M  V30 190 H 19.8952 -4.69303 2.84686 0
M  V30 191 H 20.1562 -4.2652 1.16331 0
M  V30 192 N 19.2153 -1.21501 -1.00376 0
M  V30 193 C 20.4403 -1.05977 -1.78279 0
M  V30 194 C 20.8653 0.385994 -1.84097 0
M  V30 195 O 20.2233 1.27849 -1.28547 0
M  V30 196 C 20.2713 -1.66302 -3.19963 0
M  V30 197 O 19.3753 -0.909333 -4.0225 0
M  V30 198 H 18.7163 -0.372906 -0.549397 0
M  V30 199 H 21.2463 -1.6107 -1.26165 0
M  V30 200 H 21.2563 -1.70574 -3.70632 0
M  V30 201 H 19.9313 -2.71515 -3.15043 0
M  V30 202 H 18.5083 -0.941795 -3.60811 0
M  V30 203 N 20.6934 1.19889 -1.02296 0
M  V30 204 C 21.6034 2.26571 -0.608508 0
M  V30 205 C 22.6194 1.70299 0.356964 0
M  V30 206 O 23.7954 2.00235 0.216326 0
M  V30 207 C 20.8604 3.46677 0.0402814 0
M  V30 208 C 19.9214 4.18153 -0.97194 0
M  V30 209 C 19.1544 5.32525 -0.354016 0
M  V30 210 O 19.3774 5.64112 0.844604 0
M  V30 211 O 18.3114 5.92242 -1.07391 0
M  V30 212 H 22.1374 2.64251 -1.49684 0
M  V30 213 H 19.7224 1.26629 -0.792809 0
M  V30 214 H 21.6044 4.19475 0.402324 0
M  V30 215 H 20.2794 3.10858 0.902707 0
M  V30 216 H 19.1864 3.47499 -1.38546 0
M  V30 217 H 20.5194 4.57927 -1.80454 0
M  V30 218 N 22.1715 0.800033 1.35784 0
M  V30 219 C 23.3995 0.389606 2.03199 0
M  V30 220 C 23.8145 -0.997375 1.60306 0
M  V30 221 O 23.1715 -1.64154 0.797481 0
M  V30 222 C 23.2225 0.455855 3.58614 0
M  V30 223 O 22.9435 1.78815 3.99946 0
M  V30 224 C 24.4445 0.0374032 4.43284 0
M  V30 225 H 21.6645 0.159132 0.651857 0
M  V30 226 H 24.2085 1.08183 1.73541 0
M  V30 227 H 22.3635 -0.188057 3.86943 0
M  V30 228 H 22.7775 1.74636 4.94573 0
M  V30 229 H 24.2515 0.134882 5.51835 0
M  V30 230 H 24.7285 -1.01651 4.27275 0
M  V30 231 H 25.3345 0.654215 4.20238 0
M  V30 232 N 23.6496 -1.47581 0.552962 0
M  V30 233 C 24.8776 -2.06875 0.0320556 0
M  V30 234 C 25.2926 -1.40625 -1.25976 0
M  V30 235 O 24.6496 -0.501349 -1.75479 0
M  V30 236 C 24.7006 -3.61092 -0.17167 0
M  V30 237 O 24.4216 -4.24858 1.06899 0
M  V30 238 C 25.9226 -4.37242 -0.730344 0
M  V30 239 H 23.1426 -0.669561 0.043915 0
M  V30 240 H 25.6866 -1.89646 0.765163 0
M  V30 241 H 23.8416 -3.7785 -0.854894 0
M  V30 242 H 24.2556 -5.17334 0.864059 0
M  V30 243 H 25.7296 -5.45842 -0.822203 0
M  V30 244 H 26.2066 -4.03235 -1.74064 0
M  V30 245 H 26.8126 -4.25219 -0.0829543 0
M  V30 246 N 25.1277 -0.289203 -1.54924 0
M  V30 247 C 26.3747 0.323519 -1.99899 0
M  V30 248 C 26.7027 1.54797 -1.17762 0
M  V30 249 O 25.9577 1.94237 -0.238835 0
M  V30 250 C 26.2567 0.736119 -3.49737 0
M  V30 251 C 25.9227 -0.385276 -4.49251 0
M  V30 252 C 24.5847 -0.693156 -4.76181 0
M  V30 253 C 26.9367 -1.14021 -5.08575 0
M  V30 254 C 24.2647 -1.7593 -5.59701 0
M  V30 255 C 26.6167 -2.19619 -5.93254 0
M  V30 256 C 25.2807 -2.51026 -6.185 0
M  V30 257 H 24.5507 0.118384 -0.731482 0
M  V30 258 H 27.1977 -0.405847 -1.8715 0
M  V30 259 H 25.5027 1.54539 -3.60035 0
M  V30 260 H 27.1997 1.22118 -3.81953 0
M  V30 261 H 23.7897 -0.135202 -4.28387 0
M  V30 262 H 27.9737 -0.915611 -4.87781 0
M  V30 263 H 23.2297 -2.0075 -5.77503 0
M  V30 264 H 27.4037 -2.78581 -6.38252 0
M  V30 265 H 25.0307 -3.33772 -6.83008 0
M  V30 266 N 26.6058 1.57591 -0.0167156 0
M  V30 267 C 27.8538 1.90906 0.663285 0
M  V30 268 C 28.1748 0.892509 1.73376 0
M  V30 269 O 27.4448 -0.0677623 1.95783 0
M  V30 270 H 26.0248 0.704637 0.247983 0
M  V30 271 H 28.6868 1.94803 -0.0615909 0
M  V30 272 H 27.7828 2.9116 1.12393 0
M  V30 273 N 28.0839 -0.256276 1.55502 0
M  V30 274 C 29.4999 -0.604325 1.47716 0
M  V30 275 C 29.6999 -1.88763 0.705039 0
M  V30 276 O 28.7559 -2.51445 0.230613 0
M  V30 277 C 30.0689 -0.715756 2.92057 0
M  V30 278 C 31.6169 -0.808706 3.02372 0
M  V30 279 C 32.0919 -0.951777 4.48001 0
M  V30 280 N 33.5829 -1.01688 4.519 0
M  V30 281 C 34.3179 -1.14668 5.61817 0
M  V30 282 N 33.8139 -1.24261 6.81565 0
M  V30 283 N 35.6069 -1.1791 5.49594 0
M  V30 284 H 27.7579 0.586291 2.04148 0
M  V30 285 H 30.0209 0.201015 0.926443 0
M  V30 286 H 29.7269 0.157027 3.51349 0
M  V30 287 H 29.6009 -1.59071 3.42018 0
M  V30 288 H 31.9879 -1.67195 2.43166 0
M  V30 289 H 32.0689 0.0912063 2.55637 0
M  V30 290 H 31.7129 -0.0931291 5.07815 0
M  V30 291 H 31.6429 -1.86659 4.92408 0
M  V30 292 H 34.1339 -0.954468 3.65648 0
M  V30 293 H 34.4469 -1.34046 7.61086 0
M  V30 294 H 32.7919 -1.21236 6.84344 0
M  V30 295 H 35.9829 -1.10057 4.54978 0
M  V30 296 H 36.1559 -1.27681 6.35296 0
M  V30 297 N 29.562 -1.4872 -0.521534 0
M  V30 298 C 30.472 -1.66569 -1.65203 0
M  V30 299 C 31.488 -0.548197 -1.65139 0
M  V30 300 O 32.664 -0.820339 -1.83936 0
M  V30 301 C 29.729 -1.70917 -3.01642 0
M  V30 302 C 28.79 -2.94356 -3.12495 0
M  V30 303 C 28.023 -2.98487 -4.42426 0
M  V30 304 O 28.246 -2.10786 -5.30024 0
M  V30 305 O 27.18 -3.90746 -4.57822 0
M  V30 306 H 31.006 -2.62298 -1.5308 0
M  V30 307 H 28.591 -1.3222 -0.695565 0
M  V30 308 H 30.473 -1.7625 -3.82771 0
M  V30 309 H 29.148 -0.783633 -3.14071 0
M  V30 310 H 28.055 -2.94552 -2.3063 0
M  V30 311 H 29.388 -3.86322 -3.04986 0
M  V30 312 N 31.0401 0.771051 -1.3745 0
M  V30 313 C 32.2871 1.52963 -1.32697 0
M  V30 314 C 32.6151 1.94299 0.0883274 0
M  V30 315 O 31.8701 1.64397 1.0617 0
M  V30 316 C 32.1691 2.80676 -2.2126 0
M  V30 317 C 31.8351 2.58389 -3.69521 0
M  V30 318 C 30.4971 2.52019 -4.09927 0
M  V30 319 C 32.8491 2.38469 -4.63446 0
M  V30 320 C 30.1771 2.23721 -5.42371 0
M  V30 321 C 32.5291 2.11694 -5.96128 0
M  V30 322 C 31.1931 2.03769 -6.35637 0
M  V30 323 H 30.4631 0.559732 -0.485573 0
M  V30 324 H 33.1101 0.888083 -1.69662 0
M  V30 325 H 31.4151 3.49392 -1.77291 0
M  V30 326 H 33.1121 3.38557 -2.14895 0
M  V30 327 H 29.7021 2.6421 -3.37478 0
M  V30 328 H 33.8861 2.4238 -4.33089 0
M  V30 329 H 29.1421 2.16081 -5.71943 0
M  V30 330 H 33.3161 1.9528 -6.6846 0
M  V30 331 H 30.9431 1.81606 -7.38189 0
M  V30 332 N 32.5182 1.22032 0.997298 0
M  V30 333 C 33.4662 0.983634 2.10778 0
M  V30 334 C 34.4602 -0.0717564 1.69248 0
M  V30 335 O 35.6662 0.080304 1.79821 0
M  V30 336 H 32.0412 0.300877 0.689186 0
M  V30 337 H 34.0122 1.92606 2.27916 0
M  V30 338 C 32.7612 0.57326 3.42942 0
M  V30 339 H 32.0842 1.37702 3.75338 0
M  V30 340 H 33.5242 0.447031 4.21637 0
M  V30 341 C 31.9832 -0.7167 3.29188 0
M  V30 342 O 32.5132 -1.77027 3.60589 0
M  V30 343 N 30.7192 -0.686167 2.82383 0
M  V30 344 H 30.2662 0.171507 2.57028 0
M  V30 345 H 30.2242 -1.54955 2.73562 0
M  V30 346 N 33.9963 -1.19345 1.0293 0
M  V30 347 C 34.9063 -2.26245 0.620515 0
M  V30 348 C 35.9223 -1.70486 -0.347928 0
M  V30 349 O 37.0983 -2.00347 -0.205704 0
M  V30 350 C 34.1633 -3.46693 -0.0218957 0
M  V30 351 C 33.2243 -4.17632 0.994102 0
M  V30 352 C 32.4573 -5.32329 0.382253 0
M  V30 353 O 32.6803 -5.64552 -0.814676 0
M  V30 354 O 31.6143 -5.91664 1.10531 0
M  V30 355 H 35.4403 -2.63453 1.51083 0
M  V30 356 H 33.0253 -1.26207 0.799513 0
M  V30 357 H 34.9073 -4.19683 -0.380072 0
M  V30 358 H 33.5823 -3.11333 -0.886209 0
M  V30 359 H 32.4893 -3.4676 1.40387 0
M  V30 360 H 33.8223 -4.56964 1.8288 0
M  V30 361 N 35.4744 -0.807222 -1.35358 0
M  V30 362 C 36.4374 -0.223665 -2.28106 0
M  V30 363 C 37.4374 0.589354 -1.4961 0
M  V30 364 O 38.6274 0.407745 -1.69361 0
M  V30 365 C 35.7594 0.688149 -3.33882 0
M  V30 366 H 36.9524 -1.04169 -2.81227 0
M  V30 367 H 34.5054 -0.577921 -1.45223 0
M  V30 368 H 35.2404 1.52984 -2.85948 0
M  V30 369 H 35.0254 0.10687 -3.91954 0
M  V30 370 H 36.5154 1.09075 -4.03104 0
M  V30 371 N 36.9525 1.47285 -0.560781 0
M  V30 372 C 37.8825 2.32857 0.173105 0
M  V30 373 C 38.8635 1.44009 0.905281 0
M  V30 374 O 40.0485 1.7286 0.885046 0
M  V30 375 C 37.1785 3.25861 1.20133 0
M  V30 376 C 36.1325 4.23978 0.585388 0
M  V30 377 C 35.4585 5.06332 1.7185 0
M  V30 378 C 36.7585 5.20242 -0.463178 0
M  V30 379 H 38.4525 2.94466 -0.541307 0
M  V30 380 H 35.9985 1.41601 -0.261764 0
M  V30 381 H 37.9515 3.84569 1.72293 0
M  V30 382 H 36.6755 2.62315 1.94573 0
M  V30 383 H 35.3345 3.66501 0.085054 0
M  V30 384 H 34.9825 4.39186 2.45203 0
M  V30 385 H 34.6825 5.72762 1.31213 0
M  V30 386 H 36.2065 5.67899 2.24329 0
M  V30 387 H 37.6205 5.73293 -0.027502 0
M  V30 388 H 36.0175 5.94896 -0.788627 0
M  V30 389 H 37.0875 4.65504 -1.35773 0
M  V30 390 N 38.4306 0.297415 1.54768 0
M  V30 391 C 39.6796 -0.313669 1.99246 0
M  V30 392 C 39.9926 -1.55281 1.18942 0
M  V30 393 O 41.1986 -2.23825 1.5367 0
M  V30 394 C 39.6546 -0.609407 3.54703 0
M  V30 395 C 39.2626 0.611192 4.43811 0
M  V30 396 C 41.0066 -1.18188 4.07715 0
M  V30 397 C 38.9136 0.288805 5.90694 0
M  V30 398 H 37.8436 -0.120979 0.744231 0
M  V30 399 H 40.4946 0.40556 1.78962 0
M  V30 400 H 38.8766 -1.38813 3.70873 0
M  V30 401 H 40.0506 1.3875 4.39414 0
M  V30 402 H 38.3656 1.10205 4.01552 0
M  V30 403 H 40.9626 -1.43727 5.15021 0
M  V30 404 H 41.3056 -2.12299 3.58099 0
M  V30 405 H 41.8386 -0.464944 3.95074 0
M  V30 406 H 38.5776 1.19838 6.44453 0
M  V30 407 H 38.0976 -0.450305 5.98107 0
M  V30 408 H 39.7766 -0.110933 6.46905 0
M  V30 409 N 39.9087 -1.5758 0.0250728 0
M  V30 410 C 40.8587 -2.06468 -0.967201 0
M  V30 411 C 41.8427 -0.964376 -1.28797 0
M  V30 412 O 43.0347 -1.22797 -1.27475 0
M  V30 413 C 40.1637 -2.59203 -2.25097 0
M  V30 414 C 39.2497 -3.76157 -1.95874 0
M  V30 415 N 39.6407 -4.86919 -1.36905 0
M  V30 416 C 37.9387 -3.84566 -2.25887 0
M  V30 417 C 38.6397 -5.68172 -1.24724 0
M  V30 418 N 37.6157 -5.14953 -1.74138 0
M  V30 419 H 41.4177 -2.89508 -0.506176 0
M  V30 420 H 38.9317 -1.61399 -0.18004 0
M  V30 421 H 40.9287 -2.92517 -2.97052 0
M  V30 422 H 39.5887 -1.77592 -2.71829 0
M  V30 423 H 40.5997 -5.07256 -1.04459 0
M  V30 424 H 37.2767 -3.13854 -2.75321 0
M  V30 425 H 38.6667 -6.67221 -0.791605 0
M  V30 426 N 41.3868 0.248026 -1.55636 0
M  V30 427 C 42.3188 1.32993 -1.8667 0
M  V30 428 C 43.3318 1.44345 -0.752877 0
M  V30 429 O 44.5208 1.45715 -1.03098 0
M  V30 430 C 41.6208 2.70863 -2.03682 0
M  V30 431 C 40.7938 2.81792 -3.34532 0
M  V30 432 C 39.8528 4.005 -3.41301 0
M  V30 433 O 38.8788 3.9008 -4.14519 0
M  V30 434 N 40.0808 5.13618 -2.70512 0
M  V30 435 H 42.8458 1.06707 -2.8006 0
M  V30 436 H 40.4068 0.438129 -1.55859 0
M  V30 437 H 42.3988 3.48612 -2.05553 0
M  V30 438 H 40.9688 2.89862 -1.17041 0
M  V30 439 H 40.1888 1.90729 -3.44987 0
M  V30 440 H 41.4768 2.86043 -4.20781 0
M  V30 441 H 40.8748 5.24975 -2.10755 0
M  V30 442 H 39.4318 5.89505 -2.78077 0
M  V30 443 N 42.8649 1.48995 0.513639 0
M  V30 444 C 44.1109 1.58076 1.27042 0
M  V30 445 C 44.4439 0.261026 1.92438 0
M  V30 446 O 43.7189 -0.734393 1.80103 0
M  V30 447 C 44.0019 2.73091 2.34719 0
M  V30 448 C 43.8549 4.14821 1.73907 0
M  V30 449 C 45.1739 2.83796 3.36375 0
M  V30 450 H 42.2929 0.575391 0.460536 0
M  V30 451 H 44.9349 1.81232 0.570516 0
M  V30 452 H 43.0849 2.53479 2.94416 0
M  V30 453 H 44.7569 4.45917 1.18135 0
M  V30 454 H 42.9999 4.21058 1.0437 0
M  V30 455 H 43.6709 4.91147 2.51949 0
M  V30 456 H 46.1469 3.01611 2.86653 0
M  V30 457 H 45.0229 3.65971 4.09093 0
M  V30 458 H 45.2839 1.92624 3.9793 0
M  V30 459 N 44.343 -0.763751 1.37857 0
M  V30 460 C 45.589 -1.52483 1.33704 0
M  V30 461 C 45.922 -1.94051 -0.0759612 0
M  V30 462 O 45.197 -1.64675 -1.03501 0
M  V30 463 C 45.48 -2.78441 2.28348 0
M  V30 464 C 45.333 -2.43075 3.78463 0
M  V30 465 C 46.652 -3.80415 2.21298 0
M  V30 466 H 43.771 -0.553169 0.487005 0
M  V30 467 H 46.413 -0.875562 1.68624 0
M  V30 468 H 44.563 -3.33842 1.987 0
M  V30 469 H 46.235 -1.93527 4.18742 0
M  V30 470 H 44.478 -1.75666 3.96641 0
M  V30 471 H 45.149 -3.33149 4.40132 0
M  V30 472 H 47.625 -3.34527 2.47449 0
M  V30 473 H 46.501 -4.66257 2.89647 0
M  V30 474 H 46.762 -4.25262 1.20849 0
M  V30 475 N 45.8211 -1.22559 -0.990812 0
M  V30 476 C 47.0671 -1.05297 -1.73322 0
M  V30 477 C 47.4001 0.410655 -1.89808 0
M  V30 478 O 46.6751 1.30439 -1.44277 0
M  V30 479 C 46.9581 -1.76713 -3.13759 0
M  V30 480 C 46.8111 -3.30684 -3.04907 0
M  V30 481 C 48.1301 -1.52121 -4.12974 0
M  V30 482 H 45.2491 -0.38392 -0.629106 0
M  V30 483 H 47.8911 -1.50926 -1.15418 0
M  V30 484 H 46.0411 -1.37924 -3.63193 0
M  V30 485 H 47.7131 -3.7893 -2.63077 0
M  V30 486 H 45.9561 -3.60253 -2.41661 0
M  V30 487 H 46.6271 -3.75833 -4.04294 0
M  V30 488 H 49.1031 -1.85819 -3.72304 0
M  V30 489 H 47.9791 -2.04582 -5.0935 0
M  V30 490 H 48.2401 -0.454257 -4.3976 0
M  V30 491 N 47.2992 1.18797 -1.03562 0
M  V30 492 C 48.2622 2.20464 -0.626769 0
M  V30 493 C 49.2622 1.57721 0.313173 0
M  V30 494 O 50.4522 1.73917 0.0992615 0
M  V30 495 C 47.5842 3.40802 0.0818498 0
M  V30 496 H 48.7772 2.58149 -1.5264 0
M  V30 497 H 46.3302 1.32593 -0.827578 0
M  V30 498 H 47.0652 3.08642 0.995518 0
M  V30 499 H 46.8502 3.8758 -0.593652 0
M  V30 500 H 48.3402 4.16092 0.354584 0
M  V30 501 N 48.7773 0.814389 1.34928 0
M  V30 502 C 50.0073 0.41054 2.0248 0
M  V30 503 C 50.4153 -0.985625 1.61499 0
M  V30 504 O 49.7583 -1.64781 0.811976 0
M  V30 505 C 49.8203 0.423384 3.56998 0
M  V30 506 C 49.4843 1.77141 4.21272 0
M  V30 507 C 50.4813 2.73093 4.42398 0
M  V30 508 C 48.1663 2.05755 4.58225 0
M  V30 509 C 50.1603 3.95838 4.9959 0
M  V30 510 C 47.8473 3.28762 5.1513 0
M  V30 511 C 48.8453 4.23621 5.35755 0
M  V30 512 O 48.5333 5.44456 5.91458 0
M  V30 513 H 48.2653 0.163997 0.655806 0
M  V30 514 H 50.8193 1.10155 1.73364 0
M  V30 515 H 49.0493 -0.324276 3.85338 0
M  V30 516 H 50.7383 0.0407683 4.0588 0
M  V30 517 H 51.5043 2.5228 4.14222 0
M  V30 518 H 47.3833 1.32727 4.4148 0
M  V30 519 H 50.9273 4.69891 5.15605 0
M  V30 520 H 46.8243 3.49443 5.42734 0
M  V30 521 H 47.5923 5.4586 6.09901 0
M  V30 522 N 50.2554 -1.46986 0.568584 0
M  V30 523 C 51.2184 -2.28624 -0.162366 0
M  V30 524 C 52.2184 -1.37596 -0.832103 0
M  V30 525 O 53.4084 -1.60115 -0.68622 0
M  V30 526 C 50.5404 -3.17596 -1.23878 0
M  V30 527 H 51.7334 -2.94722 0.554899 0
M  V30 528 H 49.2864 -1.52863 0.325976 0
M  V30 529 H 50.0214 -2.56214 -1.98808 0
M  V30 530 H 49.8064 -3.846 -0.763219 0
M  V30 531 H 51.2964 -3.79078 -1.75185 0
M  V30 532 N 51.7335 -0.305618 -1.54608 0
M  V30 533 C 52.6965 0.555591 -2.22364 0
M  V30 534 C 53.6965 1.05768 -1.21119 0
M  V30 535 O 54.8865 0.952972 -1.45822 0
M  V30 536 C 52.0185 1.76974 -2.91364 0
M  V30 537 H 53.2115 -0.0364572 -2.99878 0
M  V30 538 H 50.7645 -0.0565007 -1.56198 0
M  V30 539 H 51.4995 2.40151 -2.17941 0
M  V30 540 H 51.2845 1.41732 -3.65588 0
M  V30 541 H 52.7745 2.38148 -3.43038 0
M  V30 542 N 53.2116 1.57565 -0.0334293 0
M  V30 543 C 54.4596 1.91598 0.642999 0
M  V30 544 C 54.7806 0.910847 1.7242 0
M  V30 545 O 54.0506 -0.0469931 1.95844 0
M  V30 546 H 52.6306 0.707228 0.240496 0
M  V30 547 H 55.2926 1.94726 -0.0822488 0
M  V30 548 H 54.3886 2.92336 1.09298 0
M  V30 549 N 54.6897 -0.239769 1.55765 0
M  V30 550 C 55.6527 -1.28038 1.90103 0
M  V30 551 C 56.6527 -1.40723 0.778055 0
M  V30 552 O 57.8427 -1.39301 1.04599 0
M  V30 553 C 54.9747 -2.65702 2.13577 0
M  V30 554 H 56.1677 -0.988048 2.83157 0
M  V30 555 H 53.7207 -0.479382 1.48767 0
M  V30 556 H 54.4557 -3.00063 1.23015 0
M  V30 557 H 54.2407 -2.57875 2.95369 0
M  V30 558 H 55.7307 -3.40828 2.41301 0
M  V30 559 N 56.1678 -1.49265 -0.50573 0
M  V30 560 C 57.5838 -1.35923 -0.836486 0
M  V30 561 C 57.7838 -0.388704 -1.97715 0
M  V30 562 O 56.8398 0.181336 -2.51848 0
M  V30 563 C 58.1528 -2.76531 -1.18115 0
M  V30 564 C 59.7008 -2.85197 -1.28964 0
M  V30 565 C 60.1758 -4.26561 -1.66761 0
M  V30 566 N 61.6668 -4.2935 -1.73819 0
M  V30 567 C 62.4018 -5.35693 -2.045 0
M  V30 568 N 61.8978 -6.52287 -2.33438 0
M  V30 569 N 63.6908 -5.23105 -2.05711 0
M  V30 570 H 55.8418 -2.10965 0.246519 0
M  V30 571 H 58.1048 -0.9468 0.0476887 0
M  V30 572 H 57.8108 -3.49226 -0.416398 0
M  V30 573 H 57.6848 -3.11599 -2.1257 0
M  V30 574 H 60.0718 -2.12742 -2.04511 0
M  V30 575 H 60.1528 -2.53718 -0.325704 0
M  V30 576 H 59.7968 -4.99541 -0.917656 0
M  V30 577 H 59.7268 -4.55502 -2.64246 0
M  V30 578 H 62.2178 -3.4526 -1.53635 0
M  V30 579 H 62.5308 -7.29158 -2.56024 0
M  V30 580 H 60.8758 -6.55521 -2.30905 0
M  V30 581 H 64.0668 -4.31026 -1.82577 0
M  V30 582 H 64.2398 -6.06078 -2.29289 0
M  V30 583 N 57.6459 0.756429 -1.3826 0
M  V30 584 C 58.5779 1.87971 -1.31147 0
M  V30 585 C 59.5909 1.61248 -0.224239 0
M  V30 586 O 60.7799 1.71881 -0.481581 0
M  V30 587 C 57.8799 3.23545 -1.00857 0
M  V30 588 C 57.0529 3.77794 -2.20432 0
M  V30 589 C 56.1119 4.91877 -1.86931 0
M  V30 590 O 55.1379 5.06659 -2.59395 0
M  V30 591 N 56.3399 5.74643 -0.822568 0
M  V30 592 H 59.1049 1.94585 -2.2794 0
M  V30 593 H 56.6659 0.936234 -1.32084 0
M  V30 594 H 58.6579 3.97403 -0.765021 0
M  V30 595 H 57.2279 3.12335 -0.128687 0
M  V30 596 H 56.4479 2.95534 -2.6087 0
M  V30 597 H 57.7359 4.10771 -3.00241 0
M  V30 598 H 57.1339 5.65266 -0.221575 0
M  V30 599 H 55.6909 6.48661 -0.638899 0
M  V30 600 N 59.124 1.23083 0.984299 0
M  V30 601 C 60.372 1.05848 1.72165 0
M  V30 602 C 60.693 -0.406049 1.90726 0
M  V30 603 O 59.963 -1.29139 1.47309 0
M  V30 604 H 58.543 0.388685 0.637913 0
M  V30 605 H 61.205 1.54736 1.18503 0
M  V30 606 H 60.301 1.54327 2.71274 0
M  V30 607 N 60.6021 -1.18246 1.0419 0
M  V30 608 C 61.8301 -1.92195 0.766072 0
M  V30 609 C 62.2451 -1.76247 -0.676933 0
M  V30 610 O 61.6021 -1.09293 -1.46155 0
M  V30 611 C 61.6531 -3.43568 1.12442 0
M  V30 612 O 61.3741 -3.59015 2.51078 0
M  V30 613 C 62.8751 -4.34613 0.873275 0
M  V30 614 H 60.0951 -0.610114 0.279288 0
M  V30 615 H 62.6391 -1.50007 1.38989 0
M  V30 616 H 60.7941 -3.8354 0.545542 0
M  V30 617 H 61.2081 -4.5273 2.64831 0
M  V30 618 H 62.6821 -5.39374 1.17385 0
M  V30 619 H 63.1591 -4.38781 -0.191909 0
M  V30 620 H 63.7651 -4.00341 1.43551 0
M  V30 621 N 62.0802 -0.821533 -1.34494 0
M  V30 622 C 63.4962 -0.507117 -1.51329 0
M  V30 623 C 63.6962 0.968964 -1.76673 0
M  V30 624 O 62.7522 1.75348 -1.81685 0
M  V30 625 C 64.0652 -1.36544 -2.67911 0
M  V30 626 C 65.6132 -1.36242 -2.81793 0
M  V30 627 C 66.0882 -2.2052 -4.01416 0
M  V30 628 N 67.5792 -2.18136 -4.08621 0
M  V30 629 C 68.3142 -2.80095 -5.00334 0
M  V30 630 N 67.8102 -3.51039 -5.9728 0
M  V30 631 N 69.6032 -2.69656 -4.93196 0
M  V30 632 H 61.7542 -1.77729 -1.16302 0
M  V30 633 H 64.0172 -0.757291 -0.570276 0
M  V30 634 H 63.7232 -2.41361 -2.55808 0
M  V30 635 H 63.5972 -1.02917 -3.62888 0
M  V30 636 H 65.9842 -0.322041 -2.93338 0
M  V30 637 H 66.0652 -1.73866 -1.87628 0
M  V30 638 H 65.7092 -3.24607 -3.90631 0
M  V30 639 H 65.6392 -1.80247 -4.94791 0
M  V30 640 H 68.1302 -1.6653 -3.39229 0
M  V30 641 H 68.4432 -3.95565 -6.63889 0
M  V30 642 H 66.7882 -3.55145 -5.97409 0
M  V30 643 H 69.9792 -2.13808 -4.16418 0
M  V30 644 H 70.1522 -3.1823 -5.64476 0
M  V30 645 N 63.5583 1.46682 -0.576371 0
M  V30 646 C 64.5213 2.28707 0.150239 0
M  V30 647 C 65.5213 1.38035 0.824794 0
M  V30 648 O 66.7113 1.60476 0.677719 0
M  V30 649 C 63.8433 3.18248 1.22192 0
M  V30 650 H 65.0363 2.94423 -0.570521 0
M  V30 651 H 62.5893 1.52688 -0.334078 0
M  V30 652 H 63.3243 2.57265 1.97447 0
M  V30 653 H 63.1093 3.85 0.742812 0
M  V30 654 H 64.5993 3.80001 1.73172 0
M  V30 655 N 65.0364 0.313813 1.54444 0
M  V30 656 C 65.9684 -0.590425 2.21465 0
M  V30 657 C 66.9814 -1.08753 1.21147 0
M  V30 658 O 68.1704 -1.00278 1.4767 0
M  V30 659 C 65.2704 -1.82179 2.85769 0
M  V30 660 C 64.4434 -1.46502 4.12136 0
M  V30 661 C 63.5024 -2.55288 4.60124 0
M  V30 662 O 62.5284 -2.19842 5.25032 0
M  V30 663 N 63.7304 -3.86053 4.33525 0
M  V30 664 H 66.4954 -0.0166033 2.99695 0
M  V30 665 H 64.0564 0.136578 1.61323 0
M  V30 666 H 66.0484 -2.54328 3.14801 0
M  V30 667 H 64.6184 -2.30369 2.11303 0
M  V30 668 H 63.8384 -0.575595 3.89975 0
M  V30 669 H 65.1264 -1.20221 4.94393 0
M  V30 670 H 64.5244 -4.17654 3.81552 0
M  V30 671 H 63.0814 -4.54461 4.67235 0
M  V30 672 N 66.5145 -1.57545 0.0417849 0
M  V30 673 C 67.4615 -2.10977 -0.935805 0
M  V30 674 C 68.4315 -1.01486 -1.31491 0
M  V30 675 O 69.6165 -1.2898 -1.40602 0
M  V30 676 C 66.7565 -2.65169 -2.2086 0
M  V30 677 C 65.8695 -3.88714 -1.88482 0
M  V30 678 C 65.0045 -4.31254 -3.1015 0
M  V30 679 C 64.0435 -5.47524 -2.7365 0
M  V30 680 N 63.1805 -5.85162 -3.87982 0
M  V30 681 H 68.0205 -2.94218 -0.473249 0
M  V30 682 H 65.5575 -1.45415 -0.221981 0
M  V30 683 H 67.5155 -2.94685 -2.95325 0
M  V30 684 H 66.1455 -1.8474 -2.64709 0
M  V30 685 H 65.1975 -3.65849 -1.04205 0
M  V30 686 H 66.5095 -4.73245 -1.57608 0
M  V30 687 H 65.6635 -4.62273 -3.92923 0
M  V30 688 H 64.4025 -3.45516 -3.44195 0
M  V30 689 H 63.4075 -5.16187 -1.89291 0
M  V30 690 H 64.6325 -6.34971 -2.40807 0
M  V30 691 H 62.5785 -5.02377 -4.21846 0
M  V30 692 H 62.4955 -6.64362 -3.60775 0
M  V30 693 H 63.7635 -6.20791 -4.71422 0
M  V30 694 N 67.9926 0.231505 -1.5589 0
M  V30 695 C 69.2206 0.974505 -1.82513 0
M  V30 696 C 69.6356 1.78344 -0.619591 0
M  V30 697 O 68.9926 1.77792 0.411848 0
M  V30 698 C 69.0436 1.90007 -3.07538 0
M  V30 699 O 68.7646 1.12385 -4.2344 0
M  V30 700 C 70.2656 2.75779 -3.47075 0
M  V30 701 H 67.4856 0.286065 -0.606966 0
M  V30 702 H 70.0296 0.249739 -2.02969 0
M  V30 703 H 68.1846 2.57891 -2.89086 0
M  V30 704 H 68.5986 1.75125 -4.944 0
M  V30 705 H 70.0726 3.36443 -4.37619 0
M  V30 706 H 70.5496 3.47672 -2.68367 0
M  V30 707 H 71.1556 2.13323 -3.67931 0
M  V30 708 N 69.4707 1.49531 0.497807 0
M  V30 709 C 70.8867 1.36365 0.829266 0
M  V30 710 C 71.0867 0.399184 1.97506 0
M  V30 711 O 70.1427 -0.167977 2.51941 0
M  V30 712 C 71.4557 2.77153 1.16647 0
M  V30 713 C 73.0037 2.85877 1.27449 0
M  V30 714 C 73.4787 4.2744 1.64497 0
M  V30 715 N 74.9697 4.30265 1.7154 0
M  V30 716 C 75.7047 5.3677 2.01656 0
M  V30 717 N 75.2007 6.53516 2.29976 0
M  V30 718 N 76.9937 5.24189 2.02934 0
M  V30 719 H 69.1447 2.10831 -0.257703 0
M  V30 720 H 71.4077 0.946534 -0.0527091 0
M  V30 721 H 71.1137 3.49442 0.397872 0
M  V30 722 H 70.9877 3.12722 2.10915 0
M  V30 723 H 73.3747 2.13824 2.0338 0
M  V30 724 H 73.4557 2.53887 0.312244 0
M  V30 725 H 73.0997 5.00021 0.891151 0
M  V30 726 H 73.0297 4.56896 2.61827 0
M  V30 727 H 75.5207 3.4607 1.51802 0
M  V30 728 H 75.8337 7.30506 2.52153 0
M  V30 729 H 74.1787 6.56737 2.27425 0
M  V30 730 H 77.3697 4.31988 1.80289 0
M  V30 731 H 77.5427 6.07286 2.26071 0
M  V30 732 N 70.9488 -0.749086 1.3866 0
M  V30 733 C 71.9118 -1.84457 1.36045 0
M  V30 734 C 72.9118 -1.58682 0.260122 0
M  V30 735 O 74.1018 -1.66343 0.517261 0
M  V30 736 C 71.2338 -3.22008 1.11911 0
M  V30 737 H 72.4268 -1.88182 2.33512 0
M  V30 738 H 69.9798 -0.951266 1.24019 0
M  V30 739 H 70.7148 -3.2395 0.150686 0
M  V30 740 H 70.4998 -3.42111 1.91579 0
M  V30 741 H 71.9898 -4.0208 1.12788 0
M  V30 742 N 72.4269 -1.23603 -0.977757 0
M  V30 743 C 73.3369 -1.03632 -2.1047 0
M  V30 744 C 74.3529 0.0199435 -1.73989 0
M  V30 745 O 75.5289 -0.176076 -2.00629 0
M  V30 746 C 72.5939 -0.63276 -3.40877 0
M  V30 747 C 71.6549 -1.76437 -3.91367 0
M  V30 748 C 70.8879 -1.37997 -5.15551 0
M  V30 749 O 71.1109 -0.265357 -5.69782 0
M  V30 750 O 70.0449 -2.20201 -5.60174 0
M  V30 751 H 73.8709 -1.98086 -2.30208 0
M  V30 752 H 71.4559 -1.02332 -1.08851 0
M  V30 753 H 73.3379 -0.418761 -4.19314 0
M  V30 754 H 72.0129 0.282754 -3.22463 0
M  V30 755 H 70.9199 -2.03304 -3.14036 0
M  V30 756 H 72.2529 -2.6583 -4.14241 0
M  V30 757 N 73.905 1.17692 -1.04816 0
M  V30 758 C 75.151 1.88137 -0.75711 0
M  V30 759 C 75.484 1.80604 0.713841 0
M  V30 760 O 74.759 1.21146 1.52164 0
M  V30 761 C 75.042 3.38318 -1.2334 0
M  V30 762 C 74.895 3.54622 -2.76701 0
M  V30 763 C 76.214 4.32214 -0.829415 0
M  V30 764 H 73.333 0.683163 -0.27651 0
M  V30 765 H 75.975 1.38424 -1.30149 0
M  V30 766 H 74.125 3.80787 -0.770286 0
M  V30 767 H 75.797 3.21194 -3.31107 0
M  V30 768 H 74.04 2.97026 -3.16161 0
M  V30 769 H 74.711 4.60028 -3.05088 0
M  V30 770 H 77.187 3.97565 -1.22805 0
M  V30 771 H 76.063 5.35838 -1.19033 0
M  V30 772 H 76.324 4.41294 0.266891 0
M  V30 773 N 75.3831 0.828654 1.34056 0
M  V30 774 C 76.6081 0.431637 2.02859 0
M  V30 775 C 77.0331 -0.956339 1.61975 0
M  V30 776 O 76.3911 -1.62338 0.807228 0
M  V30 777 C 76.4391 0.548323 3.56407 0
M  V30 778 O 75.5431 -0.429556 4.10157 0
M  V30 779 H 74.8841 0.176886 0.640006 0
M  V30 780 H 77.4141 1.12066 1.71179 0
M  V30 781 H 77.4241 0.426196 4.05768 0
M  V30 782 H 76.0991 1.5606 3.8551 0
M  V30 783 H 74.6761 -0.265836 3.71951 0
M  V30 784 N 76.8612 -1.46375 0.584142 0
M  V30 785 C 78.1092 -2.01978 0.0701287 0
M  V30 786 C 78.4302 -1.4579 -1.295 0
M  V30 787 O 77.7002 -0.64314 -1.85042 0
M  V30 788 H 76.2802 -0.746648 0.0229345 0
M  V30 789 H 78.9422 -1.79461 0.760245 0
M  V30 790 H 78.0382 -3.121 0.0022064 0
M  V30 791 N 78.3393 -0.321999 -1.54275 0
M  V30 792 C 79.5643 0.285791 -2.05422 0
M  V30 793 C 79.9893 1.45124 -1.19669 0
M  V30 794 O 79.3473 1.80132 -0.205441 0
M  V30 795 C 79.3953 0.69956 -3.53749 0
M  V30 796 O 78.4993 1.8021 -3.70942 0
M  V30 797 H 77.8403 0.0518962 -0.661969 0
M  V30 798 H 80.3703 -0.469954 -1.9913 0
M  V30 799 H 80.3803 0.982649 -3.9599 0
M  V30 800 H 79.0553 -0.152864 -4.15619 0
M  V30 801 H 77.6323 1.51794 -3.40607 0
M  V30 802 N 79.8174 1.5752 -0.0501392 0
M  V30 803 C 81.0654 1.9227 0.622642 0
M  V30 804 C 81.3864 0.929083 1.71444 0
M  V30 805 O 80.6564 -0.0262186 1.95882 0
M  V30 806 H 79.2364 0.709739 0.232981 0
M  V30 807 H 81.8984 1.94628 -0.102898 0
M  V30 808 H 80.9944 2.93479 1.06191 0
M  V30 809 N 81.2955 -0.223234 1.56011 0
M  V30 810 C 82.2425 -1.27664 1.92277 0
M  V30 811 C 83.2125 -1.46659 0.779763 0
M  V30 812 O 84.3975 -1.60256 1.03551 0
M  V30 813 C 81.5375 -2.62234 2.24338 0
M  V30 814 C 80.6505 -2.51051 3.51564 0
M  V30 815 C 79.7855 -3.78133 3.7308 0
M  V30 816 C 78.8245 -3.61665 4.93827 0
M  V30 817 N 77.9615 -4.80693 5.11741 0
M  V30 818 H 82.8015 -0.960358 2.82101 0
M  V30 819 H 80.3385 -0.462901 1.39627 0
M  V30 820 H 82.2965 -3.40596 2.40936 0
M  V30 821 H 80.9265 -2.91961 1.3769 0
M  V30 822 H 79.9785 -1.64132 3.43169 0
M  V30 823 H 81.2905 -2.34803 4.40079 0
M  V30 824 H 80.4445 -4.64938 3.89766 0
M  V30 825 H 79.1835 -3.97304 2.82844 0
M  V30 826 H 78.1885 -2.73244 4.77093 0
M  V30 827 H 79.4135 -3.43966 5.85546 0
M  V30 828 H 77.3595 -5.00181 4.24446 0
M  V30 829 H 77.2765 -4.67165 5.94384 0
M  V30 830 H 78.5445 -5.6893 5.3286 0
M  V30 831 N 82.7736 -1.49793 -0.48987 0
M  V30 832 C 83.7206 -1.67281 -1.59014 0
M  V30 833 C 84.6906 -0.514177 -1.57941 0
M  V30 834 O 85.8756 -0.742533 -1.75759 0
M  V30 835 C 83.0156 -1.75569 -2.97102 0
M  V30 836 C 82.1286 -3.0281 -3.08107 0
M  V30 837 C 81.2636 -3.02008 -4.36995 0
M  V30 838 C 80.3026 -4.23782 -4.41673 0
M  V30 839 N 79.4396 -4.20826 -5.62005 0
M  V30 840 H 84.2796 -2.61224 -1.43409 0
M  V30 841 H 81.8166 -1.29508 -0.697565 0
M  V30 842 H 83.7746 -1.78354 -3.77155 0
M  V30 843 H 82.4046 -0.850827 -3.11385 0
M  V30 844 H 81.4566 -3.09584 -2.21047 0
M  V30 845 H 82.7686 -3.92801 -3.07423 0
M  V30 846 H 81.9226 -3.03418 -5.25378 0
M  V30 847 H 80.6616 -2.09815 -4.4026 0
M  V30 848 H 79.6666 -4.22604 -3.5169 0
M  V30 849 H 80.8916 -5.17181 -4.40115 0
M  V30 850 H 78.8376 -3.31476 -5.66091 0
M  V30 851 H 78.7546 -5.04564 -5.62984 0
M  V30 852 H 80.0226 -4.26355 -6.52565 0
M  V30 853 N 84.2517 0.741722 -1.39055 0
M  V30 854 C 85.6627 1.31966 -1.32068 0
M  V30 855 C 86.0137 1.96192 0.0180797 0
M  V30 856 O 85.1387 1.95861 0.920196 0
M  V30 857 C 85.7337 2.39954 -2.39181 0
M  V30 858 C 84.2927 2.93438 -2.35735 0
M  V30 859 C 83.4397 1.66936 -2.21422 0
M  V30 860 H 86.3907 0.539721 -1.4924 0
M  V30 861 H 86.4117 3.20182 -2.05581 0
M  V30 862 H 85.9237 1.9318 -3.36605 0
M  V30 863 H 84.0247 3.4451 -1.41929 0
M  V30 864 H 84.1377 3.4701 -3.30335 0
M  V30 865 H 82.5017 1.91016 -1.68478 0
M  V30 866 H 83.2847 1.22224 -3.20806 0
M  V30 867 N 85.7298 1.2412 0.971189 0
M  V30 868 C 86.9758 1.09048 1.71698 0
M  V30 869 C 87.3308 -0.367442 1.88859 0
M  V30 870 O 86.6238 -1.26792 1.43646 0
M  V30 871 C 86.8178 1.75983 3.11071 0
M  V30 872 C 86.6468 3.28133 3.07504 0
M  V30 873 C 85.4168 3.97331 3.1218 0
M  V30 874 C 87.6148 4.24773 2.89952 0
M  V30 875 N 85.5968 5.3639 2.98596 0
M  V30 876 C 86.9678 5.50806 2.84627 0
M  V30 877 C 89.0228 4.15392 2.74506 0
M  V30 878 C 87.7258 6.68533 2.65437 0
M  V30 879 C 89.7518 5.32793 2.56682 0
M  V30 880 C 89.1138 6.57756 2.52063 0
M  V30 881 H 85.2128 0.453632 0.636979 0
M  V30 882 H 87.7968 1.56983 1.15171 0
M  V30 883 H 85.9678 1.30566 3.65796 0
M  V30 884 H 87.6998 1.53803 3.74335 0
M  V30 885 H 84.4548 3.48473 3.20724 0
M  V30 886 H 84.8788 6.09321 2.95054 0
M  V30 887 H 89.5208 3.19543 2.76861 0
M  V30 888 H 87.2388 7.64509 2.61825 0
M  V30 889 H 90.8248 5.27383 2.4568 0
M  V30 890 H 89.7048 7.4707 2.38446 0
M  V30 891 N 87.2079 -1.17134 1.05439 0
M  V30 892 C 88.6239 -1.39454 0.776201 0
M  V30 893 C 88.8239 -1.91454 -0.628307 0
M  V30 894 O 87.8799 -2.10777 -1.39031 0
M  V30 895 C 89.1929 -2.38305 1.83388 0
M  V30 896 C 90.7409 -2.52006 1.85639 0
M  V30 897 C 91.2159 -3.54133 2.90437 0
M  V30 898 N 92.7069 -3.61653 2.89415 0
M  V30 899 C 93.4419 -4.4044 3.67152 0
M  V30 900 N 92.9379 -5.22721 4.54681 0
M  V30 901 N 94.7309 -4.35337 3.55581 0
M  V30 902 H 86.8819 -0.817134 1.96053 0
M  V30 903 H 89.1449 -0.421626 0.849079 0
M  V30 904 H 88.8509 -2.07173 2.84204 0
M  V30 905 H 88.7249 -3.37841 1.67761 0
M  V30 906 H 91.1119 -2.82447 0.85486 0
M  V30 907 H 91.1929 -1.52537 2.05344 0
M  V30 908 H 90.8369 -3.24431 3.90777 0
M  V30 909 H 90.7669 -4.53313 2.67983 0
M  V30 910 H 93.2579 -3.02909 2.25952 0
M  V30 911 H 93.5709 -5.80027 5.10674 0
M  V30 912 H 91.9159 -5.22093 4.58741 0
M  V30 913 H 95.1069 -3.70112 2.86592 0
M  V30 914 H 95.2799 -4.96494 4.1641 0
M  V30 915 N 88.686 -0.835752 -1.33615 0
M  V30 916 C 89.618 -0.224151 -2.28101 0
M  V30 917 C 90.631 0.593331 -1.51603 0
M  V30 918 O 91.82 0.420911 -1.73466 0
M  V30 919 C 88.92 0.703309 -3.31522 0
M  V30 920 C 88.093 -0.0741528 -4.37337 0
M  V30 921 C 87.152 0.776176 -5.20444 0
M  V30 922 O 86.178 0.216506 -5.68788 0
M  V30 923 N 87.38 2.09401 -5.41416 0
M  V30 924 H 90.145 -1.03598 -2.81225 0
M  V30 925 H 87.706 -0.69392 -1.46275 0
M  V30 926 H 89.698 1.27707 -3.84022 0
M  V30 927 H 88.268 1.41585 -2.78698 0
M  V30 928 H 87.488 -0.82928 -3.85378 0
M  V30 929 H 88.776 -0.608863 -5.05144 0
M  V30 930 H 88.174 2.57229 -5.03835 0
M  V30 931 H 86.731 2.61633 -5.96985 0
M  V30 932 N 90.1641 1.46063 -0.591896 0
M  V30 933 C 91.1111 2.30399 0.136069 0
M  V30 934 C 92.0811 1.41169 0.875238 0
M  V30 935 O 93.2661 1.70112 0.86409 0
M  V30 936 C 90.4061 3.25804 1.13781 0
M  V30 937 C 89.5191 4.30134 0.401137 0
M  V30 938 C 88.6541 5.12659 1.39121 0
M  V30 939 C 87.6931 6.0873 0.641462 0
M  V30 940 N 86.8301 6.8409 1.58004 0
M  V30 941 H 91.6701 2.92118 -0.589144 0
M  V30 942 H 89.2071 1.43959 -0.302342 0
M  V30 943 H 91.1651 3.79569 1.73156 0
M  V30 944 H 89.7951 2.65872 1.83062 0
M  V30 945 H 88.8471 3.79152 -0.307826 0
M  V30 946 H 90.1591 4.98458 -0.184565 0
M  V30 947 H 89.3131 5.70747 2.05749 0
M  V30 948 H 88.0521 4.44316 2.01084 0
M  V30 949 H 87.0571 5.49786 -0.0385419 0
M  V30 950 H 88.2821 6.79095 0.0270945 0
M  V30 951 H 86.2281 6.18449 2.18761 0
M  V30 952 H 86.1451 7.48709 1.04738 0
M  V30 953 H 87.4131 7.4673 2.23639 0
M  V30 954 N 91.6422 0.330177 1.54103 0
M  V30 955 C 92.8902 -0.269871 2.0029 0
M  V30 956 C 93.2112 -1.52133 1.21986 0
M  V30 957 O 92.4812 -1.93212 0.323438 0
M  V30 958 H 91.0612 -0.10271 0.739905 0
M  V30 959 H 93.7232 0.448249 1.89675 0
M  V30 960 H 92.8192 -0.52166 3.07709 0
M  V30 961 N 93.1203 -1.57491 0.0584922 0
M  V30 962 C 94.3483 -1.97296 -0.623037 0
M  V30 963 C 94.7633 -0.936338 -1.63946 0
M  V30 964 O 94.1203 0.0785981 -1.82331 0
M  V30 965 C 94.1713 -3.37183 -1.30345 0
M  V30 966 O 93.8923 -4.36872 -0.32773 0
M  V30 967 C 95.3933 -3.91788 -2.07406 0
M  V30 968 H 92.6133 -0.649153 -0.169826 0
M  V30 969 H 95.1573 -2.04106 0.12696 0
M  V30 970 H 93.3123 -3.31502 -2.00463 0
M  V30 971 H 93.7263 -5.18141 -0.814269 0
M  V30 972 H 95.2003 -4.91926 -2.50425 0
M  V30 973 H 95.6773 -3.27609 -2.92521 0
M  V30 974 H 96.2833 -4.00829 -1.42184 0
M  V30 975 N 94.5984 0.214957 -1.56127 0
M  V30 976 C 95.8464 0.936518 -1.79091 0
M  V30 977 C 96.1674 1.84606 -0.628148 0
M  V30 978 O 95.4374 1.92664 0.35462 0
M  V30 979 H 94.0174 0.3488 -0.660566 0
M  V30 980 H 96.6794 0.22523 -1.93594 0
M  V30 981 H 95.7754 1.53943 -2.71492 0
M  V30 982 N 96.0765 1.50051 0.48192 0
M  V30 983 C 97.4925 1.37237 0.814756 0
M  V30 984 C 97.6925 0.420109 1.97072 0
M  V30 985 O 96.7485 -0.141246 2.52105 0
M  V30 986 C 98.0615 2.78375 1.13701 0
M  V30 987 C 99.6095 2.87213 1.2441 0
M  V30 988 C 100.084 4.29161 1.59954 0
M  V30 989 N 101.575 4.32061 1.66967 0
M  V30 990 C 102.31 5.38879 1.95952 0
M  V30 991 N 101.806 6.55918 2.23031 0
M  V30 992 N 103.599 5.26312 1.97363 0
M  V30 993 H 95.7505 2.10546 -0.28005 0
M  V30 994 H 98.0135 0.945921 -0.0627454 0
M  V30 995 H 97.7195 3.49845 0.360787 0
M  V30 996 H 97.5935 3.14941 2.07586 0
M  V30 997 H 99.9805 2.15969 2.01101 0
M  V30 998 H 100.061 2.54204 0.285299 0
M  V30 999 H 99.7055 5.00938 0.838067 0
M  V30 1000 H 99.6355 4.59648 2.56966 0
M  V30 1001 H 102.126 3.47661 1.48123 0
M  V30 1002 H 102.439 7.33139 2.44391 0
M  V30 1003 H 100.784 6.59112 2.20447 0
M  V30 1004 H 103.975 4.33876 1.75697 0
M  V30 1005 H 104.148 6.09649 2.19618 0
M  V30 1006 N 97.5546 -0.734337 1.39446 0
M  V30 1007 C 98.5176 -1.83004 1.37994 0
M  V30 1008 C 99.5176 -1.58397 0.276938 0
M  V30 1009 O 100.708 -1.65785 0.534875 0
M  V30 1010 C 97.8396 -3.20802 1.1532 0
M  V30 1011 H 99.0326 -1.85694 2.35494 0
M  V30 1012 H 96.5856 -0.938059 1.25021 0
M  V30 1013 H 97.3206 -3.23772 0.185036 0
M  V30 1014 H 97.1056 -3.4006 1.95197 0
M  V30 1015 H 98.5956 -4.00862 1.17046 0
M  V30 1016 N 99.0327 -1.24633 -0.964593 0
M  V30 1017 C 100.449 -1.01239 -1.2338 0
M  V30 1018 C 100.649 0.2769 -1.99588 0
M  V30 1019 O 99.7047 0.992241 -2.32187 0
M  V30 1020 C 101.018 -2.22937 -2.01791 0
M  V30 1021 C 102.566 -2.27594 -2.14872 0
M  V30 1022 C 103.041 -3.48921 -2.96678 0
M  V30 1023 N 104.532 -3.49257 -3.04259 0
M  V30 1024 C 105.267 -4.39795 -3.67924 0
M  V30 1025 N 104.763 -5.40591 -4.33281 0
M  V30 1026 N 106.556 -4.275 -3.64966 0
M  V30 1027 H 98.7067 -2.0748 -0.454502 0
M  V30 1028 H 100.97 -0.910647 -0.26349 0
M  V30 1029 H 100.676 -3.16587 -1.53184 0
M  V30 1030 H 100.55 -2.25306 -3.02518 0
M  V30 1031 H 102.937 -1.34473 -2.6268 0
M  V30 1032 H 103.018 -2.2925 -1.13482 0
M  V30 1033 H 102.662 -4.42359 -2.49562 0
M  V30 1034 H 102.592 -3.4451 -3.98272 0
M  V30 1035 H 105.083 -2.76337 -2.57771 0
M  V30 1036 H 105.396 -6.05904 -4.79687 0
M  V30 1037 H 103.741 -5.44475 -4.3194 0
M  V30 1038 H 106.932 -3.47987 -3.13086 0
M  V30 1039 H 107.105 -4.98258 -4.14298 0
M  V30 1040 N 100.511 1.16574 -1.06058 0
M  V30 1041 C 101.474 2.19085 -0.673392 0
M  V30 1042 C 102.474 1.5835 0.279648 0
M  V30 1043 O 103.664 1.74088 0.0623488 0
M  V30 1044 C 100.796 3.40899 0.00954234 0
M  V30 1045 H 101.989 2.54853 -1.58081 0
M  V30 1046 H 99.5418 1.30808 -0.855516 0
M  V30 1047 H 100.277 3.10684 0.929826 0
M  V30 1048 H 100.062 3.86233 -0.67573 0
M  V30 1049 H 101.552 4.1675 0.266245 0
M  V30 1050 N 101.989 0.842826 1.3317 0
M  V30 1051 C 103.237 0.439577 1.97262 0
M  V30 1052 C 103.558 -1.00548 1.67078 0
M  V30 1053 O 102.828 -1.70098 0.971779 0
M  V30 1054 H 101.408 0.159558 0.72976 0
M  V30 1055 H 104.07 1.07665 1.62463 0
M  V30 1056 H 103.166 0.574886 3.0676 0
M  V30 1057 N 103.467 -1.45747 0.599634 0
M  V30 1058 C 104.744 -1.95585 0.0240846 0
M  V30 1059 C 105.124 -1.54217 -1.44154 0
M  V30 1060 O 104.472 -0.800903 -2.14004 0
M  V30 1061 C 104.682 -3.48344 0.21385 0
M  V30 1062 C 106.03 -4.24504 0.0904902 0
M  V30 1063 O 107.054 -3.55911 0.143558 0
M  V30 1064 O 105.913 -5.46491 -0.0310766 0
M  V30 1065 H 103.007 -0.82602 -0.0402478 0
M  V30 1066 H 105.553 -1.55951 0.669139 0
M  V30 1067 H 104.325 -3.71397 1.23206 0
M  V30 1068 H 103.948 -3.9485 -0.466842 0
M  V30 1069 N 104.945 -0.338344 -1.53925 0
M  V30 1070 C 106.194 0.260732 -2.00008 0
M  V30 1071 C 106.507 1.52073 -1.23017 0
M  V30 1072 O 107.713 2.19672 -1.5955 0
M  V30 1073 C 106.169 0.51515 -3.56194 0
M  V30 1074 C 105.777 -0.728645 -4.42035 0
M  V30 1075 C 107.521 1.07337 -4.10706 0
M  V30 1076 C 105.428 -0.445315 -5.89721 0
M  V30 1077 H 104.358 0.101205 -0.747177 0
M  V30 1078 H 107.009 -0.452866 -1.77824 0
M  V30 1079 H 105.391 1.28932 -3.74423 0
M  V30 1080 H 106.565 -1.50352 -4.35581 0
M  V30 1081 H 104.88 -1.20813 -3.98489 0
M  V30 1082 H 107.477 1.30022 -5.18651 0
M  V30 1083 H 107.82 2.0273 -3.63602 0
M  V30 1084 H 108.353 0.360034 -3.96167 0
M  V30 1085 H 105.092 -1.36883 -6.41049 0
M  V30 1086 H 104.612 0.291569 -5.99091 0
M  V30 1087 H 106.291 -0.0606218 -6.46972 0
M  V30 1088 N 106.423 1.57458 -0.0668435 0
M  V30 1089 C 107.37 2.12439 0.902122 0
M  V30 1090 C 108.34 1.03565 1.2986 0
M  V30 1091 O 109.525 1.312 1.38532 0
M  V30 1092 C 106.665 2.6865 2.16614 0
M  V30 1093 C 105.778 3.91663 1.82274 0
M  V30 1094 C 104.913 4.36134 3.0325 0
M  V30 1095 C 103.952 5.51808 2.64904 0
M  V30 1096 N 103.089 5.9126 3.78624 0
M  V30 1097 H 107.929 2.94934 0.426382 0
M  V30 1098 H 105.466 1.4575 0.198819 0
M  V30 1099 H 107.424 2.99346 2.90599 0
M  V30 1100 H 106.054 1.88928 2.61737 0
M  V30 1101 H 105.106 3.6746 0.983719 0
M  V30 1102 H 106.418 4.75693 1.50059 0
M  V30 1103 H 105.572 4.68465 3.85519 0
M  V30 1104 H 104.311 3.50948 3.38655 0
M  V30 1105 H 103.316 5.19133 1.81055 0
M  V30 1106 H 104.541 6.38722 2.30675 0
M  V30 1107 H 102.487 5.09024 4.138 0
M  V30 1108 H 102.404 6.70018 3.5016 0
M  V30 1109 H 103.672 6.28212 4.61486 0
M  V30 1110 N 107.901 -0.206675 1.56239 0
M  V30 1111 C 109.126 -0.949474 1.8439 0
M  V30 1112 C 109.551 -1.76549 0.649016 0
M  V30 1113 O 108.909 -1.76782 -0.402231 0
M  V30 1114 C 108.957 -1.83078 3.10668 0
M  V30 1115 O 108.061 -2.9281 2.90407 0
M  V30 1116 H 107.402 -0.268033 0.607499 0
M  V30 1117 H 109.932 -0.215488 2.03462 0
M  V30 1118 H 109.942 -2.2377 3.41161 0
M  V30 1119 H 108.617 -1.23112 3.97261 0
M  V30 1120 H 107.194 -2.55956 2.71184 0
M  V30 1121 N 109.379 -1.50304 -0.473955 0
M  V30 1122 C 110.79 -1.54042 -1.0549 0
M  V30 1123 C 111.141 -0.342248 -1.93192 0
M  V30 1124 O 110.266 0.545157 -2.09421 0
M  V30 1125 C 110.861 -2.79152 -1.91989 0
M  V30 1126 C 109.42 -2.8558 -2.45196 0
M  V30 1127 C 108.567 -2.48295 -1.2347 0
M  V30 1128 H 111.518 -1.5661 -0.256693 0
M  V30 1129 H 111.539 -2.60845 -2.7702 0
M  V30 1130 H 111.051 -3.66339 -1.28131 0
M  V30 1131 H 109.152 -2.02738 -3.12615 0
M  V30 1132 H 109.265 -3.88403 -2.80499 0
M  V30 1133 H 107.629 -2.00669 -1.56856 0
M  V30 1134 H 108.412 -3.37787 -0.612789 0
M  V30 1135 N 110.857 0.726932 -1.39834 0
M  V30 1136 C 112.106 1.48214 -1.36805 0
M  V30 1137 C 112.419 1.95576 0.0305291 0
M  V30 1138 O 113.625 2.7088 0.183417 0
M  V30 1139 C 112.081 2.67854 -2.40379 0
M  V30 1140 C 111.689 2.27408 -3.85992 0
M  V30 1141 C 113.433 3.45641 -2.46439 0
M  V30 1142 C 111.34 3.43819 -4.81189 0
M  V30 1143 H 110.27 0.556606 -0.508631 0
M  V30 1144 H 112.921 0.792216 -1.65518 0
M  V30 1145 H 111.303 3.3896 -2.04749 0
M  V30 1146 H 112.477 1.63795 -4.30706 0
M  V30 1147 H 110.792 1.62692 -3.83302 0
M  V30 1148 H 113.389 4.32244 -3.14753 0
M  V30 1149 H 113.732 3.88669 -1.49139 0
M  V30 1150 H 114.265 2.8157 -2.81004 0
M  V30 1151 H 111.004 3.05834 -5.79781 0
M  V30 1152 H 110.524 4.06385 -4.41148 0
M  V30 1153 H 112.203 4.10043 -5.00474 0
M  V30 1154 N 112.336 1.25143 0.95797 0
M  V30 1155 C 113.582 1.10863 1.70531 0
M  V30 1156 C 113.937 -0.347391 1.89238 0
M  V30 1157 O 113.23 -1.25262 1.44983 0
M  V30 1158 C 113.424 1.79272 3.09187 0
M  V30 1159 C 113.253 3.31376 3.04006 0
M  V30 1160 C 112.023 4.0062 3.07948 0
M  V30 1161 C 114.221 4.27825 2.8543 0
M  V30 1162 N 112.203 5.39526 2.9289 0
M  V30 1163 C 113.574 5.53794 2.78769 0
M  V30 1164 C 115.629 4.1828 2.70085 0
M  V30 1165 C 114.332 6.7131 2.58331 0
M  V30 1166 C 116.358 5.35485 2.51017 0
M  V30 1167 C 115.72 6.60393 2.45073 0
M  V30 1168 H 111.819 0.460362 0.632132 0
M  V30 1169 H 114.403 1.58196 1.13499 0
M  V30 1170 H 112.574 1.34439 3.64391 0
M  V30 1171 H 114.306 1.57764 3.72683 0
M  V30 1172 H 111.061 3.51855 3.17009 0
M  V30 1173 H 111.485 6.12416 2.88574 0
M  V30 1174 H 116.127 3.22461 2.73457 0
M  V30 1175 H 113.845 7.67243 2.53701 0
M  V30 1176 H 117.431 5.29959 2.40073 0
M  V30 1177 H 116.311 7.49557 2.30509 0
M  V30 1178 N 113.814 -1.1601 1.06675 0
M  V30 1179 C 115.23 -1.38622 0.790948 0
M  V30 1180 C 115.43 -1.92109 -0.607965 0
M  V30 1181 O 114.486 -2.12239 -1.36787 0
M  V30 1182 C 115.799 -2.36347 1.85905 0
M  V30 1183 C 117.347 -2.50023 1.88301 0
M  V30 1184 C 117.822 -3.51033 2.94176 0
M  V30 1185 N 119.313 -3.58563 2.93235 0
M  V30 1186 C 120.048 -4.36521 3.71803 0
M  V30 1187 N 119.544 -5.17869 4.602 0
M  V30 1188 N 121.337 -4.31541 3.60178 0
M  V30 1189 H 113.488 -0.796294 1.96908 0
M  V30 1190 H 115.751 -0.412597 0.853503 0
M  V30 1191 H 115.457 -2.04147 2.86386 0
M  V30 1192 H 115.331 -3.36042 1.71334 0
M  V30 1193 H 117.718 -2.81524 0.884769 0
M  V30 1194 H 117.799 -1.5035 2.06951 0
M  V30 1195 H 117.443 -3.20268 3.94196 0
M  V30 1196 H 117.373 -4.50445 2.72776 0
M  V30 1197 H 119.864 -3.00496 2.29152 0
M  V30 1198 H 120.177 -5.74578 5.16797 0
M  V30 1199 H 118.522 -5.17199 4.64253 0
M  V30 1200 H 121.713 -3.67051 2.90502 0
M  V30 1201 H 121.886 -4.9205 4.21653 0
M  V30 1202 N 115.292 -0.849877 -1.32721 0
M  V30 1203 C 116.517 -0.463856 -2.02146 0
M  V30 1204 C 116.942 0.930449 -1.63476 0
M  V30 1205 O 116.3 1.61033 -0.832952 0
M  V30 1206 C 116.348 -0.604955 -3.55489 0
M  V30 1207 O 115.452 0.36425 -4.10788 0
M  V30 1208 H 114.793 -0.187046 -0.637111 0
M  V30 1209 H 117.323 -1.14775 -1.69375 0
M  V30 1210 H 117.333 -0.490696 -4.05038 0
M  V30 1211 H 116.008 -1.62174 -3.82978 0
M  V30 1212 H 114.585 0.206628 -3.72327 0
M  V30 1213 N 116.77 1.45427 -0.607355 0
M  V30 1214 C 118.018 2.01841 -0.102253 0
M  V30 1215 C 118.339 1.47832 1.27164 0
M  V30 1216 O 117.609 0.672497 1.83995 0
M  V30 1217 H 116.189 0.746188 -0.0348101 0
M  V30 1218 H 118.851 1.78229 -0.7887 0
M  V30 1219 H 117.947 3.12057 -0.0518585 0
M  V30 1220 N 118.248 0.346503 1.53744 0
M  V30 1221 C 119.496 -0.248612 2.00565 0
M  V30 1222 C 119.817 -1.5083 1.23593 0
M  V30 1223 O 119.087 -1.92858 0.343912 0
M  V30 1224 H 117.667 -0.0948564 0.740953 0
M  V30 1225 H 120.329 0.468341 1.89189 0
M  V30 1226 H 119.425 -0.488994 3.08245 0
M  V30 1227 N 119.726 -1.57421 0.075193 0
M  V30 1228 C 120.954 -1.97946 -0.602076 0
M  V30 1229 C 121.369 -0.953674 -1.62943 0
M  V30 1230 O 120.726 0.0592551 -1.82404 0
M  V30 1231 C 120.777 -3.38546 -1.26762 0
M  V30 1232 O 120.498 -4.37195 -0.281376 0
M  V30 1233 C 121.999 -3.93966 -2.03239 0
M  V30 1234 H 119.219 -0.650918 -0.162931 0
M  V30 1235 H 121.763 -2.03959 0.148601 0
M  V30 1236 H 119.918 -3.33609 -1.96936 0
M  V30 1237 H 120.332 -5.18975 -0.759267 0
M  V30 1238 H 121.806 -4.94555 -2.45193 0
M  V30 1239 H 122.283 -3.30693 -2.8903 0
M  V30 1240 H 122.889 -4.02315 -1.37924 0
M  V30 1241 N 121.204 0.198386 -1.56346 0
M  V30 1242 C 122.432 0.935572 -1.84539 0
M  V30 1243 C 122.847 1.76989 -0.657281 0
M  V30 1244 O 122.204 1.78626 0.374043 0
M  V30 1245 C 122.255 1.8344 -3.11499 0
M  V30 1246 O 121.976 1.03377 -4.25728 0
M  V30 1247 C 123.477 2.68355 -3.52846 0
M  V30 1248 H 120.697 0.273126 -0.612897 0
M  V30 1249 H 123.241 0.20663 -2.03453 0
M  V30 1250 H 121.396 2.51701 -2.94492 0
M  V30 1251 H 121.81 1.64599 -4.98003 0
M  V30 1252 H 123.284 3.27085 -4.44657 0
M  V30 1253 H 123.761 3.41901 -2.75681 0
M  V30 1254 H 124.367 2.05471 -3.72373 0
M  V30 1255 N 122.682 1.50554 0.465978 0
M  V30 1256 C 123.929 1.61798 1.21768 0
M  V30 1257 C 124.257 0.320696 1.91838 0
M  V30 1258 O 123.512 -0.693724 1.82992 0
M  V30 1259 C 123.811 2.75152 2.28093 0
M  V30 1260 C 123.477 4.15454 1.75239 0
M  V30 1261 C 122.139 4.53628 1.60546 0
M  V30 1262 C 124.491 5.03121 1.36083 0
M  V30 1263 C 121.819 5.77204 1.05128 0
M  V30 1264 C 124.171 6.27249 0.821056 0
M  V30 1265 C 122.835 6.64221 0.660795 0
M  V30 1266 H 122.105 0.592063 0.445582 0
M  V30 1267 H 124.752 1.84503 0.512927 0
M  V30 1268 H 123.057 2.46556 3.04496 0
M  V30 1269 H 124.754 2.81055 2.86023 0
M  V30 1270 H 121.344 3.85341 1.87644 0
M  V30 1271 H 125.528 4.74257 1.46267 0
M  V30 1272 H 120.784 6.0452 0.91462 0
M  V30 1273 H 124.958 6.94537 0.509018 0
M  V30 1274 H 122.585 7.59854 0.229226 0
M  V30 1275 N 124.16 -0.719506 1.40217 0
M  V30 1276 C 125.123 -1.8153 1.39927 0
M  V30 1277 C 126.123 -1.58095 0.293723 0
M  V30 1278 O 127.313 -1.65209 0.552429 0
M  V30 1279 C 124.445 -3.19561 1.18716 0
M  V30 1280 H 125.638 -1.83186 2.37451 0
M  V30 1281 H 123.191 -0.924746 1.26008 0
M  V30 1282 H 123.926 -3.23557 0.219366 0
M  V30 1283 H 123.711 -3.3797 1.98793 0
M  V30 1284 H 125.201 -3.99598 1.21291 0
M  V30 1285 N 125.638 -1.25649 -0.95132 0
M  V30 1286 C 126.601 -1.06399 -2.03007 0
M  V30 1287 C 127.601 -0.0156794 -1.60792 0
M  V30 1288 O 128.791 -0.25817 -1.72276 0
M  V30 1289 C 125.923 -0.616184 -3.35285 0
M  V30 1290 H 127.116 -2.02164 -2.21517 0
M  V30 1291 H 124.669 -1.08103 -1.12887 0
M  V30 1292 H 125.404 0.343917 -3.22471 0
M  V30 1293 H 125.189 -1.37301 -3.67275 0
M  V30 1294 H 126.679 -0.503032 -4.14559 0
M  V30 1295 N 127.117 1.15442 -1.07289 0
M  V30 1296 C 128.064 2.20161 -0.692653 0
M  V30 1297 C 129.034 1.63073 0.31564 0
M  V30 1298 O 130.219 1.89725 0.202235 0
M  V30 1299 C 127.359 3.44967 -0.0959509 0
M  V30 1300 C 126.472 4.16256 -1.15564 0
M  V30 1301 C 125.607 5.28609 -0.524011 0
M  V30 1302 C 124.646 5.91715 -1.56653 0
M  V30 1303 N 123.783 6.9554 -0.957531 0
M  V30 1304 H 128.623 2.52037 -1.59002 0
M  V30 1305 H 126.16 1.2378 -0.794798 0
M  V30 1306 H 128.118 4.16341 0.267628 0
M  V30 1307 H 126.748 3.1361 0.764772 0
M  V30 1308 H 125.8 3.43385 -1.6368 0
M  V30 1309 H 127.112 4.59268 -1.94613 0
M  V30 1310 H 126.266 6.06604 -0.108032 0
M  V30 1311 H 125.005 4.86787 0.29825 0
M  V30 1312 H 124.01 5.12433 -1.9923 0
M  V30 1313 H 125.235 6.35614 -2.39107 0
M  V30 1314 H 123.181 6.55814 -0.156162 0
M  V30 1315 H 123.098 7.36977 -1.68526 0
M  V30 1316 H 124.366 7.77435 -0.567032 0
M  V30 1317 N 128.595 0.856903 1.32268 0
M  V30 1318 C 130.006 0.515711 1.79436 0
M  V30 1319 C 130.357 -0.966586 1.70738 0
M  V30 1320 O 129.482 -1.75409 1.26731 0
M  V30 1321 C 130.077 0.929335 3.25805 0
M  V30 1322 C 128.636 0.640006 3.70919 0
M  V30 1323 C 127.783 1.12784 2.53328 0
M  V30 1324 H 130.734 1.04389 1.19535 0
M  V30 1325 H 130.755 0.246633 3.797 0
M  V30 1326 H 130.267 2.00821 3.32103 0
M  V30 1327 H 128.368 -0.428051 3.70133 0
M  V30 1328 H 128.481 1.20788 4.63624 0
M  V30 1329 H 126.845 0.548033 2.48734 0
M  V30 1330 H 127.628 2.21387 2.62379 0
M  V30 1331 N 130.073 -1.45103 0.615059 0
M  V30 1332 C 131.005 -2.28786 -0.13762 0
M  V30 1333 C 132.018 -1.40376 -0.824525 0
M  V30 1334 O 133.207 -1.64681 -0.688662 0
M  V30 1335 C 130.307 -3.16322 -1.21628 0
M  V30 1336 C 129.48 -4.33054 -0.615039 0
M  V30 1337 C 128.539 -5.01743 -1.58556 0
M  V30 1338 O 127.565 -5.58293 -1.10895 0
M  V30 1339 N 128.767 -5.01714 -2.91998 0
M  V30 1340 H 131.532 -2.94025 0.580483 0
M  V30 1341 H 129.093 -1.55373 0.45507 0
M  V30 1342 H 131.085 -3.59139 -1.86552 0
M  V30 1343 H 129.655 -2.52943 -1.83681 0
M  V30 1344 H 128.875 -3.93627 0.21245 0
M  V30 1345 H 130.163 -5.08431 -0.193704 0
M  V30 1346 H 129.561 -4.57075 -3.33316 0
M  V30 1347 H 128.118 -5.48371 -3.52325 0
M  V30 1348 N 131.551 -0.354651 -1.53558 0
M  V30 1349 C 132.828 0.294281 -1.93374 0
M  V30 1350 C 133.208 1.67313 -1.28723 0
M  V30 1351 O 132.556 2.24179 -0.442247 0
M  V30 1352 C 132.766 0.355445 -3.47185 0
M  V30 1353 C 134.114 0.601007 -4.20325 0
M  V30 1354 O 135.138 0.437106 -3.53508 0
M  V30 1355 O 133.997 0.919322 -5.38712 0
M  V30 1356 H 131.091 0.174033 -0.808481 0
M  V30 1357 H 133.637 -0.406638 -1.64756 0
M  V30 1358 H 132.409 -0.611729 -3.86489 0
M  V30 1359 H 132.032 1.1027 -3.82003 0
M  V30 1360 N 133.029 1.57378 -0.0835403 0
M  V30 1361 C 133.979 2.09916 0.889905 0
M  V30 1362 C 134.963 1.01151 1.25129 0
M  V30 1363 O 136.155 1.27443 1.2283 0
M  V30 1364 C 133.284 2.67379 2.15322 0
M  V30 1365 C 132.37 3.83167 1.81779 0
M  V30 1366 N 132.761 4.91665 1.18739 0
M  V30 1367 C 131.059 3.92685 2.11459 0
M  V30 1368 C 131.76 5.72409 1.0355 0
M  V30 1369 N 130.736 5.21062 1.54906 0
M  V30 1370 H 134.538 2.91188 0.398378 0
M  V30 1371 H 132.052 1.61956 0.120013 0
M  V30 1372 H 134.049 3.0334 2.8599 0
M  V30 1373 H 132.709 1.87558 2.65051 0
M  V30 1374 H 133.72 5.10784 0.855604 0
M  V30 1375 H 130.397 3.23856 2.63483 0
M  V30 1376 H 131.787 6.69699 0.543425 0
M  V30 1377 N 134.507 -0.190092 1.56449 0
M  V30 1378 C 135.732 -0.929864 1.85387 0
M  V30 1379 C 136.157 -1.7585 0.667704 0
M  V30 1380 O 135.515 -1.77198 -0.383459 0
M  V30 1381 C 135.563 -1.79773 3.12593 0
M  V30 1382 O 134.667 -2.89713 2.93496 0
M  V30 1383 H 134.008 -0.261574 0.610307 0
M  V30 1384 H 136.538 -0.193896 2.03679 0
M  V30 1385 H 136.548 -2.20139 3.43515 0
M  V30 1386 H 135.223 -1.18892 3.98544 0
M  V30 1387 H 133.8 -2.53065 2.73884 0
M  V30 1388 N 135.985 -1.50799 -0.457987 0
M  V30 1389 C 136.917 -1.66786 -1.57211 0
M  V30 1390 C 137.93 -0.548962 -1.53265 0
M  V30 1391 O 139.119 -0.8226 -1.58416 0
M  V30 1392 C 136.219 -1.64834 -2.96113 0
M  V30 1393 C 135.392 -2.92971 -3.24787 0
M  V30 1394 C 134.451 -2.83485 -4.43309 0
M  V30 1395 O 133.477 -3.5744 -4.42973 0
M  V30 1396 N 134.679 -1.97929 -5.45714 0
M  V30 1397 H 137.444 -2.62889 -1.43909 0
M  V30 1398 H 135.005 -1.48427 -0.646617 0
M  V30 1399 H 136.997 -1.56084 -3.7339 0
M  V30 1400 H 135.567 -0.764118 -3.03117 0
M  V30 1401 H 134.787 -3.15749 -2.36 0
M  V30 1402 H 136.075 -3.77834 -3.40762 0
M  V30 1403 H 135.473 -1.37182 -5.48815 0
M  V30 1404 H 134.03 -1.95073 -6.21924 0
M  V30 1405 N 137.463 0.71206 -1.40597 0
M  V30 1406 C 138.41 1.82613 -1.41142 0
M  V30 1407 C 139.38 1.63925 -0.267903 0
M  V30 1408 O 140.565 1.85009 -0.466495 0
M  V30 1409 C 137.705 3.20354 -1.28324 0
M  V30 1410 C 136.818 3.50589 -2.52411 0
M  V30 1411 C 135.953 4.77855 -2.32009 0
M  V30 1412 C 134.992 5.01005 -3.51654 0
M  V30 1413 N 134.129 6.19487 -3.30425 0
M  V30 1414 H 138.969 1.81482 -2.36365 0
M  V30 1415 H 136.506 0.886475 -1.17388 0
M  V30 1416 H 138.464 3.99899 -1.18899 0
M  V30 1417 H 137.094 3.20705 -0.367189 0
M  V30 1418 H 136.146 2.65573 -2.72351 0
M  V30 1419 H 137.458 3.63604 -3.41458 0
M  V30 1420 H 136.612 5.65424 -2.19956 0
M  V30 1421 H 135.351 4.67056 -1.40392 0
M  V30 1422 H 134.356 4.1189 -3.64179 0
M  V30 1423 H 135.581 5.13674 -4.44202 0
M  V30 1424 H 133.527 6.09932 -2.41494 0
M  V30 1425 H 133.444 6.33194 -4.13039 0
M  V30 1426 H 134.712 7.09834 -3.22113 0
M  V30 1427 N 138.941 1.26152 0.944643 0
M  V30 1428 C 140.187 1.11657 1.69294 0
M  V30 1429 C 140.52 -0.339926 1.91202 0
M  V30 1430 O 139.795 -1.24994 1.49019 0
M  V30 1431 C 140.078 1.88236 3.06984 0
M  V30 1432 C 139.931 3.41772 2.92424 0
M  V30 1433 C 141.25 1.67343 4.07043 0
M  V30 1434 H 138.369 0.407004 0.614424 0
M  V30 1435 H 141.011 1.55106 1.09737 0
M  V30 1436 H 139.161 1.51308 3.57824 0
M  V30 1437 H 140.833 3.88433 2.48832 0
M  V30 1438 H 139.076 3.68974 2.28124 0
M  V30 1439 H 139.747 3.90579 3.90067 0
M  V30 1440 H 142.223 1.99509 3.65151 0
M  V30 1441 H 141.099 2.23346 5.01406 0
M  V30 1442 H 141.36 0.617158 4.37771 0
M  V30 1443 N 140.419 -1.14872 1.07899 0
M  V30 1444 C 141.367 -2.21857 0.698727 0
M  V30 1445 C 142.361 -1.66845 -0.293086 0
M  V30 1446 O 143.567 -1.79321 -0.156204 0
M  V30 1447 H 139.942 -0.722691 0.207899 0
M  V30 1448 H 141.913 -2.51205 1.61054 0
M  V30 1449 C 140.662 -3.47498 0.11858 0
M  V30 1450 H 139.985 -3.90154 0.872914 0
M  V30 1451 H 141.425 -4.23858 -0.109759 0
M  V30 1452 C 139.884 -3.16947 -1.1422 0
M  V30 1453 O 140.414 -3.3426 -2.22785 0
M  V30 1454 N 138.62 -2.70946 -1.05055 0
M  V30 1455 H 138.167 -2.57058 -0.167038 0
M  V30 1456 H 138.125 -2.50879 -1.89491 0
M  V30 1457 N 141.898 -0.863906 -1.31812 0
M  V30 1458 C 142.845 -0.313303 -2.28664 0
M  V30 1459 C 143.815 0.584868 -1.55462 0
M  V30 1460 O 145 0.517805 -1.83639 0
M  V30 1461 C 142.14 0.48441 -3.41683 0
M  V30 1462 C 141.253 -0.440594 -4.29747 0
M  V30 1463 C 140.388 0.370652 -5.29905 0
M  V30 1464 C 139.427 -0.551164 -6.09613 0
M  V30 1465 N 138.564 0.223462 -7.01744 0
M  V30 1466 H 143.404 -1.14444 -2.75148 0
M  V30 1467 H 140.941 -0.575769 -1.35364 0
M  V30 1468 H 142.899 0.962627 -4.05943 0
M  V30 1469 H 141.529 1.28029 -2.96325 0
M  V30 1470 H 140.581 -1.03724 -3.65986 0
M  V30 1471 H 141.893 -1.14767 -4.85417 0
M  V30 1472 H 141.047 0.911638 -5.99812 0
M  V30 1473 H 139.786 1.11105 -4.74876 0
M  V30 1474 H 138.791 -1.10396 -5.38603 0
M  V30 1475 H 140.016 -1.29032 -6.66729 0
M  V30 1476 H 137.962 0.946787 -6.49132 0
M  V30 1477 H 137.879 -0.424399 -7.54808 0
M  V30 1478 H 139.147 0.745876 -7.75923 0
M  V30 1479 N 143.376 1.44774 -0.622745 0
M  V30 1480 C 144.323 2.30635 0.0871679 0
M  V30 1481 C 145.293 1.42994 0.845097 0
M  V30 1482 O 146.478 1.71907 0.827812 0
M  V30 1483 C 143.618 3.28144 1.06844 0
M  V30 1484 C 142.731 4.30888 0.309809 0
M  V30 1485 C 141.866 5.15494 1.28215 0
M  V30 1486 C 140.905 6.09953 0.512198 0
M  V30 1487 N 140.042 6.87287 1.43458 0
M  V30 1488 H 144.882 2.90803 -0.650974 0
M  V30 1489 H 142.419 1.43286 -0.33281 0
M  V30 1490 H 144.377 3.83157 1.65066 0
M  V30 1491 H 143.007 2.69695 1.77382 0
M  V30 1492 H 142.059 3.78414 -0.388181 0
M  V30 1493 H 143.371 4.97955 -0.290254 0
M  V30 1494 H 142.525 5.74983 1.93596 0
M  V30 1495 H 141.264 4.48481 1.91614 0
M  V30 1496 H 140.269 5.49581 -0.155151 0
M  V30 1497 H 141.494 6.78999 -0.116958 0
M  V30 1498 H 139.44 6.2295 2.05594 0
M  V30 1499 H 139.357 7.50763 0.888335 0
M  V30 1500 H 140.625 7.51306 2.07749 0
M  V30 1501 N 144.854 0.36279 1.53368 0
M  V30 1502 C 145.787 -0.528507 2.21996 0
M  V30 1503 C 146.765 -1.0852 1.21087 0
M  V30 1504 O 147.949 -1.14186 1.4998 0
M  V30 1505 C 145.076 -1.72893 2.91249 0
M  V30 1506 C 144.122 -1.29994 4.06207 0
M  V30 1507 S 144.955 -0.303575 5.34639 0
M  V30 1508 C 146.111 -1.51039 6.07403 0
M  V30 1509 H 146.344 0.0543423 2.9725 0
M  V30 1510 H 143.877 0.146889 1.537 0
M  V30 1511 H 145.835 -2.41751 3.31763 0
M  V30 1512 H 144.496 -2.28303 2.15724 0
M  V30 1513 H 143.689 -2.19549 4.53667 0
M  V30 1514 H 143.291 -0.690608 3.67569 0
M  V30 1515 H 145.583 -2.44186 6.31965 0
M  V30 1516 H 146.526 -1.07721 6.99858 0
M  V30 1517 H 146.934 -1.71518 5.37812 0
M  V30 1518 N 146.332 -1.57332 0.0918853 0
M  V30 1519 C 147.562 -1.98286 -0.580205 0
M  V30 1520 C 147.97 -0.969713 -1.6246 0
M  V30 1521 O 147.313 0.0493501 -1.83634 0
M  V30 1522 C 147.375 -3.35603 -1.28882 0
M  V30 1523 C 147.039 -4.55285 -0.395559 0
M  V30 1524 C 148.036 -5.18687 0.355002 0
M  V30 1525 C 145.721 -5.01314 -0.314556 0
M  V30 1526 C 147.715 -6.26484 1.17458 0
M  V30 1527 C 145.402 -6.08979 0.508677 0
M  V30 1528 C 146.4 -6.71429 1.2519 0
M  V30 1529 O 146.088 -7.77018 2.06151 0
M  V30 1530 H 145.82 -0.656678 -0.160466 0
M  V30 1531 H 148.374 -2.04721 0.16688 0
M  V30 1532 H 146.604 -3.25842 -2.08241 0
M  V30 1533 H 148.293 -3.61026 -1.85512 0
M  V30 1534 H 149.059 -4.84058 0.302134 0
M  V30 1535 H 144.938 -4.5247 -0.882697 0
M  V30 1536 H 148.482 -6.75159 1.75518 0
M  V30 1537 H 144.379 -6.4304 0.563037 0
M  V30 1538 H 145.147 -7.93991 1.98799 0
M  V30 1539 N 147.81 0.181792 -1.56548 0
M  V30 1540 C 149.226 0.53316 -1.50431 0
M  V30 1541 C 149.426 1.85184 -0.794297 0
M  V30 1542 O 148.482 2.50058 -0.350318 0
M  V30 1543 C 149.795 0.575597 -2.9514 0
M  V30 1544 C 151.343 0.663519 -3.05886 0
M  V30 1545 C 151.818 0.736946 -4.52032 0
M  V30 1546 N 153.309 0.800118 -4.56237 0
M  V30 1547 C 154.044 0.877327 -5.66649 0
M  V30 1548 N 153.54 0.916016 -6.86718 0
M  V30 1549 N 155.333 0.915542 -5.54594 0
M  V30 1550 H 147.484 -0.683025 -2.01118 0
M  V30 1551 H 149.747 -0.244988 -0.915797 0
M  V30 1552 H 149.453 -0.324482 -3.502 0
M  V30 1553 H 149.327 1.42572 -3.49218 0
M  V30 1554 H 151.714 1.55403 -2.50867 0
M  V30 1555 H 151.795 -0.21307 -2.54911 0
M  V30 1556 H 151.439 -0.149262 -5.07681 0
M  V30 1557 H 151.369 1.62953 -5.00753 0
M  V30 1558 H 153.86 0.778926 -3.69785 0
M  V30 1559 H 154.173 0.975813 -7.66614 0
M  V30 1560 H 152.518 0.884469 -6.89349 0
M  V30 1561 H 155.709 0.882245 -4.59711 0
M  V30 1562 H 155.882 0.972253 -6.40665 0
M  V30 1563 N 149.288 1.51039 0.449983 0
M  V30 1564 C 150.536 1.62759 1.19808 0
M  V30 1565 C 150.857 0.339981 1.92013 0
M  V30 1566 O 150.127 -0.643606 1.85026 0
M  V30 1567 H 148.707 0.599811 0.445237 0
M  V30 1568 H 151.369 1.87914 0.517138 0
M  V30 1569 H 150.465 2.44911 1.93455 0
M  V30 1570 N 150.766 -0.704594 1.40972 0
M  V30 1571 C 151.729 -1.80035 1.41845 0
M  V30 1572 C 152.729 -1.57774 0.310474 0
M  V30 1573 O 153.919 -1.64613 0.56992 0
M  V30 1574 C 151.051 -3.18284 1.22098 0
M  V30 1575 H 152.244 -1.80658 2.3938 0
M  V30 1576 H 149.797 -0.911329 1.26982 0
M  V30 1577 H 150.532 -3.23306 0.253672 0
M  V30 1578 H 150.317 -3.35843 2.02366 0
M  V30 1579 H 151.807 -3.98289 1.25522 0
M  V30 1580 N 152.244 -1.26651 -0.937939 0
M  V30 1581 C 153.493 -1.11775 -1.67897 0
M  V30 1582 C 153.806 0.33794 -1.92659 0
M  V30 1583 O 155.012 0.607434 -2.64618 0
M  V30 1584 C 153.468 -1.9523 -3.02346 0
M  V30 1585 C 153.076 -3.45393 -2.8532 0
M  V30 1586 C 154.82 -1.88972 -3.80118 0
M  V30 1587 C 152.727 -4.21083 -4.15263 0
M  V30 1588 H 151.657 -0.414696 -0.629717 0
M  V30 1589 H 154.308 -1.50988 -1.04283 0
M  V30 1590 H 152.69 -1.48853 -3.66959 0
M  V30 1591 H 153.864 -3.99561 -2.29537 0
M  V30 1592 H 152.179 -3.52921 -2.20988 0
M  V30 1593 H 154.776 -2.42805 -4.76392 0
M  V30 1594 H 155.119 -0.86113 -4.07296 0
M  V30 1595 H 155.652 -2.33189 -3.22285 0
M  V30 1596 H 152.391 -5.24425 -3.93267 0
M  V30 1597 H 151.911 -3.71695 -4.70747 0
M  V30 1598 H 153.59 -4.29706 -4.83696 0
M  V30 1599 N 153.722 1.14298 -1.08507 0
M  V30 1600 C 154.669 2.19414 -0.715965 0
M  V30 1601 C 155.639 1.63399 0.298326 0
M  V30 1602 O 156.824 1.89929 0.182101 0
M  V30 1603 C 153.964 3.44845 -0.132534 0
M  V30 1604 C 153.077 4.15007 -1.19973 0
M  V30 1605 C 152.212 5.28024 -0.580048 0
M  V30 1606 C 151.251 5.9002 -1.62921 0
M  V30 1607 N 150.388 6.94485 -1.03125 0
M  V30 1608 H 155.228 2.50336 -1.61666 0
M  V30 1609 H 152.765 1.2293 -0.807882 0
M  V30 1610 H 154.723 4.16601 0.223454 0
M  V30 1611 H 153.353 3.14403 0.731467 0
M  V30 1612 H 152.405 3.41629 -1.67313 0
M  V30 1613 H 153.717 4.57178 -1.99473 0
M  V30 1614 H 152.871 6.06455 -0.172364 0
M  V30 1615 H 151.61 4.87076 0.246603 0
M  V30 1616 H 150.615 5.10291 -2.04654 0
M  V30 1617 H 151.84 6.33042 -2.45835 0
M  V30 1618 H 149.786 6.55612 -0.225711 0
M  V30 1619 H 149.703 7.35148 -1.76334 0
M  V30 1620 H 150.971 7.7679 -0.649458 0
M  V30 1621 N 155.201 0.870884 1.31352 0
M  V30 1622 C 156.426 0.495957 2.01383 0
M  V30 1623 C 156.851 -0.904324 1.64935 0
M  V30 1624 O 156.209 -1.59687 0.858466 0
M  V30 1625 C 156.257 0.661433 3.54482 0
M  V30 1626 O 155.361 -0.298851 4.11316 0
M  V30 1627 H 154.702 0.197158 0.634054 0
M  V30 1628 H 157.232 1.17455 1.67527 0
M  V30 1629 H 157.242 0.555072 4.04207 0
M  V30 1630 H 155.917 1.68246 3.8035 0
M  V30 1631 H 154.494 -0.147368 3.72609 0
M  V30 1632 N 156.679 -1.44442 0.630414 0
M  V30 1633 C 157.928 -2.01267 0.132073 0
M  V30 1634 C 158.241 -1.50172 -1.25331 0
M  V30 1635 O 159.447 -1.9912 -1.84562 0
M  V30 1636 C 157.903 -3.59422 0.185362 0
M  V30 1637 C 157.511 -4.19514 1.57201 0
M  V30 1638 C 159.255 -4.23724 -0.256553 0
M  V30 1639 C 157.162 -5.69891 1.58045 0
M  V30 1640 H 156.092 -0.752619 0.0456092 0
M  V30 1641 H 158.743 -1.65666 0.789106 0
M  V30 1642 H 157.125 -3.92318 -0.538759 0
M  V30 1643 H 158.299 -3.98156 2.31966 0
M  V30 1644 H 156.614 -3.67496 1.95795 0
M  V30 1645 H 159.211 -5.34019 -0.269767 0
M  V30 1646 H 159.554 -3.96013 -1.28372 0
M  V30 1647 H 160.087 -3.95629 0.41505 0
M  V30 1648 H 156.826 -6.02336 2.58597 0
M  V30 1649 H 156.346 -5.93373 0.875725 0
M  V30 1650 H 158.025 -6.33515 1.31408 0
M  V30 1651 N 158.157 -0.370918 -1.53173 0
M  V30 1652 C 159.087 0.464847 -2.28826 0
M  V30 1653 C 160.068 1.07936 -1.31468 0
M  V30 1654 O 161.253 1.0956 -1.60344 0
M  V30 1655 C 158.383 1.60196 -3.08147 0
M  V30 1656 C 157.337 1.11443 -4.13237 0
M  V30 1657 C 156.663 2.3422 -4.80672 0
M  V30 1658 C 157.963 0.195384 -5.21934 0
M  V30 1659 H 159.657 -0.166329 -2.98938 0
M  V30 1660 H 157.203 -0.0814359 -1.4377 0
M  V30 1661 H 159.156 2.19332 -3.59822 0
M  V30 1662 H 157.88 2.26045 -2.35735 0
M  V30 1663 H 156.539 0.545727 -3.62515 0
M  V30 1664 H 156.187 2.98537 -4.04827 0
M  V30 1665 H 155.887 2.02269 -5.51689 0
M  V30 1666 H 157.411 2.94032 -5.35143 0
M  V30 1667 H 158.825 0.694375 -5.69079 0
M  V30 1668 H 157.222 -0.0335027 -6.00091 0
M  V30 1669 H 158.292 -0.760961 -4.78892 0
M  V30 1670 N 159.635 1.57281 -0.100228 0
M  V30 1671 C 160.86 1.99302 0.573881 0
M  V30 1672 C 161.285 0.979059 1.60611 0
M  V30 1673 O 160.643 -0.0517803 1.81226 0
M  V30 1674 C 160.691 3.40274 1.19358 0
M  V30 1675 O 159.795 3.41676 2.30935 0
M  V30 1676 H 159.136 0.647944 0.145138 0
M  V30 1677 H 161.666 2.03779 -0.183156 0
M  V30 1678 H 161.676 3.78078 1.53365 0
M  V30 1679 H 160.351 4.13594 0.437385 0
M  V30 1680 H 158.928 3.15672 1.98509 0
M  V30 1681 N 161.113 -0.173488 1.56642 0
M  V30 1682 C 162.023 -1.23482 1.99473 0
M  V30 1683 C 163.039 -1.48567 0.905752 0
M  V30 1684 O 164.215 -1.60758 1.21321 0
M  V30 1685 C 161.28 -2.55444 2.34413 0
M  V30 1686 C 160.341 -2.38241 3.57127 0
M  V30 1687 C 159.574 -3.63909 3.90392 0
M  V30 1688 O 159.797 -4.68996 3.24653 0
M  V30 1689 O 158.731 -3.58149 4.83749 0
M  V30 1690 H 162.557 -0.901279 2.90018 0
M  V30 1691 H 160.142 -0.380185 1.44482 0
M  V30 1692 H 162.024 -3.33292 2.57865 0
M  V30 1693 H 160.699 -2.88382 1.4703 0
M  V30 1694 H 159.606 -1.58431 3.38896 0
M  V30 1695 H 160.939 -2.10228 4.45045 0
M  V30 1696 N 162.591 -1.51276 -0.441967 0
M  V30 1697 C 163.521 -1.752 -1.54361 0
M  V30 1698 C 164.502 -0.601682 -1.59103 0
M  V30 1699 O 165.687 -0.843913 -1.74905 0
M  V30 1700 C 162.817 -1.87282 -2.92477 0
M  V30 1701 C 161.771 -3.02687 -3.02596 0
M  V30 1702 C 161.097 -2.99947 -4.42647 0
M  V30 1703 C 162.397 -4.4273 -2.77106 0
M  V30 1704 H 164.091 -2.67442 -1.34592 0
M  V30 1705 H 161.637 -1.28694 -0.646048 0
M  V30 1706 H 163.59 -2.02602 -3.695 0
M  V30 1707 H 162.314 -0.916844 -3.13467 0
M  V30 1708 H 160.973 -2.87065 -2.28012 0
M  V30 1709 H 160.621 -2.02136 -4.60597 0
M  V30 1710 H 160.321 -3.77439 -4.50348 0
M  V30 1711 H 161.845 -3.17354 -5.2165 0
M  V30 1712 H 163.259 -4.58727 -3.43864 0
M  V30 1713 H 161.656 -5.21893 -2.96222 0
M  V30 1714 H 162.726 -4.53087 -1.72744 0
M  V30 1715 N 164.069 0.697108 -1.41344 0
M  V30 1716 C 165.315 1.4593 -1.40827 0
M  V30 1717 C 165.648 1.94193 -0.0167098 0
M  V30 1718 O 164.923 1.69425 0.955263 0
M  V30 1719 C 165.206 2.67229 -2.41373 0
M  V30 1720 C 165.059 2.24741 -3.8963 0
M  V30 1721 C 166.378 3.69423 -2.39196 0
M  V30 1722 H 163.497 0.529303 -0.512842 0
M  V30 1723 H 166.139 0.794112 -1.72609 0
M  V30 1724 H 164.289 3.23982 -2.14401 0
M  V30 1725 H 165.961 1.73327 -4.27499 0
M  V30 1726 H 164.204 1.56542 -4.0457 0
M  V30 1727 H 164.875 3.1177 -4.55525 0
M  V30 1728 H 167.351 3.2234 -2.63128 0
M  V30 1729 H 166.227 4.51907 -3.11563 0
M  V30 1730 H 166.488 4.19012 -1.41001 0
M  V30 1731 N 165.547 1.27147 0.931209 0
M  V30 1732 C 166.963 1.04475 1.20653 0
M  V30 1733 C 167.163 -0.223885 2.00252 0
M  V30 1734 O 166.219 -0.930332 2.34736 0
M  V30 1735 C 167.532 2.28209 1.95809 0
M  V30 1736 C 169.08 2.33211 2.08762 0
M  V30 1737 C 169.555 3.56665 2.87323 0
M  V30 1738 N 171.046 3.57201 2.94892 0
M  V30 1739 C 171.781 4.49395 3.56134 0
M  V30 1740 N 171.277 5.51889 4.18796 0
M  V30 1741 N 173.07 4.37026 3.53504 0
M  V30 1742 H 165.221 2.08612 0.399333 0
M  V30 1743 H 167.484 0.917312 0.239253 0
M  V30 1744 H 167.19 3.20538 1.44736 0
M  V30 1745 H 167.064 2.33247 2.96438 0
M  V30 1746 H 169.451 1.41391 2.59023 0
M  V30 1747 H 169.532 2.32178 1.07364 0
M  V30 1748 H 169.176 4.4882 2.37746 0
M  V30 1749 H 169.106 3.54948 3.88998 0
M  V30 1750 H 171.597 2.83074 2.50354 0
M  V30 1751 H 171.91 6.18409 4.63454 0
M  V30 1752 H 170.255 5.55735 4.17353 0
M  V30 1753 H 173.446 3.56166 3.03749 0
M  V30 1754 H 173.619 5.09067 4.00942 0
M  V30 1755 N 167.025 -1.13721 1.09112 0
M  V30 1756 C 167.957 -2.1871 0.685467 0
M  V30 1757 C 168.97 -1.60527 -0.271068 0
M  V30 1758 O 170.159 -1.78407 -0.0576148 0
M  V30 1759 C 167.259 -3.38898 -0.0111255 0
M  V30 1760 C 166.432 -4.26597 0.966131 0
M  V30 1761 C 165.491 -5.25324 0.303539 0
M  V30 1762 O 164.517 -5.61213 0.950177 0
M  V30 1763 N 165.719 -5.72779 -0.943651 0
M  V30 1764 H 168.484 -2.54126 1.58871 0
M  V30 1765 H 166.045 -1.29012 0.978143 0
M  V30 1766 H 168.037 -4.02014 -0.465517 0
M  V30 1767 H 166.607 -3.01747 -0.816565 0
M  V30 1768 H 165.827 -3.60306 1.59917 0
M  V30 1769 H 167.115 -4.82048 1.6281 0
M  V30 1770 H 166.513 -5.45762 -1.48862 0
M  V30 1771 H 165.07 -6.37847 -1.34142 0
M  V30 1772 N 168.503 -0.877838 -1.30888 0
M  V30 1773 C 169.78 -0.413052 -1.91189 0
M  V30 1774 C 170.16 1.1056 -1.79832 0
M  V30 1775 O 169.508 1.93771 -1.21099 0
M  V30 1776 C 169.718 -0.903191 -3.3711 0
M  V30 1777 C 171.066 -0.93395 -4.14201 0
M  V30 1778 O 172.09 -0.849373 -3.45925 0
M  V30 1779 O 170.949 -1.05772 -5.36167 0
M  V30 1780 H 168.043 -0.125035 -0.817493 0
M  V30 1781 H 170.589 -0.966269 -1.39504 0
M  V30 1782 H 169.361 -1.94692 -3.39427 0
M  V30 1783 H 168.984 -0.328732 -3.96239 0
M  V30 1784 N 169.982 1.44106 -0.638065 0
M  V30 1785 C 171.398 1.56672 -0.304286 0
M  V30 1786 C 171.598 1.6244 1.19228 0
M  V30 1787 O 170.654 1.57121 1.9766 0
M  V30 1788 C 171.967 2.83503 -1.00231 0
M  V30 1789 C 173.515 2.97226 -0.981116 0
M  V30 1790 C 173.99 4.26868 -1.65974 0
M  V30 1791 N 175.481 4.33698 -1.62666 0
M  V30 1792 C 176.216 5.32745 -2.12063 0
M  V30 1793 N 175.712 6.38157 -2.6968 0
M  V30 1794 N 177.505 5.24299 -2.02651 0
M  V30 1795 H 169.656 1.38605 -1.60942 0
M  V30 1796 H 171.919 0.664661 -0.675965 0
M  V30 1797 H 171.625 2.85251 -2.0573 0
M  V30 1798 H 171.499 3.73251 -0.54439 0
M  V30 1799 H 173.886 2.95027 0.0654188 0
M  V30 1800 H 173.967 2.08808 -1.47759 0
M  V30 1801 H 173.611 4.29826 -2.70576 0
M  V30 1802 H 173.541 5.14156 -1.13804 0
M  V30 1803 H 176.032 3.58138 -1.20606 0
M  V30 1804 H 176.345 7.10029 -3.05087 0
M  V30 1805 H 174.69 6.38823 -2.73734 0
M  V30 1806 H 177.881 4.4086 -1.57353 0
M  V30 1807 H 178.054 6.01334 -2.41457 0
M  V30 1808 N 171.46 0.379036 1.52974 0
M  V30 1809 C 172.39 -0.452706 2.29069 0
M  V30 1810 C 173.371 -1.07237 1.32039 0
M  V30 1811 O 174.556 -1.08708 1.60923 0
M  V30 1812 C 171.686 -1.5856 3.08992 0
M  V30 1813 C 170.64 -1.0925 4.13822 0
M  V30 1814 C 169.966 -2.31668 4.81907 0
M  V30 1815 C 171.266 -0.167702 5.22031 0
M  V30 1816 H 172.96 0.182181 2.98845 0
M  V30 1817 H 170.506 0.0890592 1.43724 0
M  V30 1818 H 172.459 -2.1742 3.6098 0
M  V30 1819 H 171.183 -2.24792 2.36931 0
M  V30 1820 H 169.842 -0.526494 3.628 0
M  V30 1821 H 169.49 -2.96386 4.06404 0
M  V30 1822 H 169.19 -1.9934 5.52754 0
M  V30 1823 H 170.714 -2.91189 5.36695 0
M  V30 1824 H 172.128 -0.664186 5.6944 0
M  V30 1825 H 170.525 0.0653265 6.00064 0
M  V30 1826 H 171.595 0.786347 4.78482 0
M  V30 1827 N 172.938 -1.57226 0.108567 0
M  V30 1828 C 174.184 -1.95121 -0.552761 0
M  V30 1829 C 174.517 -0.991345 -1.66991 0
M  V30 1830 O 173.792 -0.0267211 -1.94482 0
M  V30 1831 C 174.075 -3.43039 -1.09528 0
M  V30 1832 C 173.928 -4.49797 0.0177332 0
M  V30 1833 C 175.247 -3.92567 -1.98945 0
M  V30 1834 H 172.366 -0.709496 -0.199461 0
M  V30 1835 H 175.008 -1.89126 0.182011 0
M  V30 1836 H 173.158 -3.48279 -1.72146 0
M  V30 1837 H 174.83 -4.56661 0.652584 0
M  V30 1838 H 173.073 -4.284 0.682309 0
M  V30 1839 H 173.744 -5.50528 -0.402919 0
M  V30 1840 H 176.22 -3.89565 -1.46214 0
M  V30 1841 H 175.096 -4.96605 -2.33827 0
M  V30 1842 H 175.357 -3.32648 -2.91201 0
M  V30 1843 N 174.416 0.165178 -1.56732 0
M  V30 1844 C 175.662 0.882112 -1.82611 0
M  V30 1845 C 175.995 1.81628 -0.687378 0
M  V30 1846 O 175.27 1.92009 0.310267 0
M  V30 1847 C 175.553 1.67245 -3.18906 0
M  V30 1848 C 175.406 0.760987 -4.43316 0
M  V30 1849 C 176.725 2.63884 -3.52212 0
M  V30 1850 H 173.844 0.319242 -0.664269 0
M  V30 1851 H 176.486 0.148052 -1.89422 0
M  V30 1852 H 174.636 2.29824 -3.1323 0
M  V30 1853 H 176.308 0.147596 -4.61064 0
M  V30 1854 H 174.551 0.0694102 -4.33744 0
M  V30 1855 H 175.222 1.34962 -5.35247 0
M  V30 1856 H 177.698 2.11429 -3.58381 0
M  V30 1857 H 176.574 3.16245 -4.48643 0
M  V30 1858 H 176.835 3.44377 -2.77231 0
M  V30 1859 N 175.894 1.51508 0.433938 0
M  V30 1860 C 177.14 1.64588 1.18484 0
M  V30 1861 C 177.473 0.362666 1.90784 0
M  V30 1862 O 176.748 -0.637892 1.83742 0
M  V30 1863 C 177.031 2.85149 2.19913 0
M  V30 1864 C 176.884 4.23456 1.51674 0
M  V30 1865 C 178.203 3.01227 3.20858 0
M  V30 1866 H 175.322 0.598994 0.429389 0
M  V30 1867 H 177.964 1.84002 0.473647 0
M  V30 1868 H 176.114 2.68729 2.80566 0
M  V30 1869 H 177.786 4.51552 0.943322 0
M  V30 1870 H 176.029 4.25998 0.819035 0
M  V30 1871 H 176.7 5.03812 2.2556 0
M  V30 1872 H 179.176 3.16382 2.70263 0
M  V30 1873 H 178.052 3.87141 3.89118 0
M  V30 1874 H 178.313 2.13447 3.8716 0
M  V30 1875 N 177.372 -0.689602 1.41712 0
M  V30 1876 C 178.282 -1.83314 1.46401 0
M  V30 1877 C 179.298 -1.7036 0.35405 0
M  V30 1878 O 180.474 -1.92171 0.602692 0
M  V30 1879 C 177.539 -3.19344 1.34982 0
M  V30 1880 C 176.6 -3.44363 2.56344 0
M  V30 1881 C 175.833 -4.73904 2.45461 0
M  V30 1882 O 176.056 -5.508 1.48241 0
M  V30 1883 O 174.99 -4.99839 3.35328 0
M  V30 1884 H 178.816 -1.82314 2.42889 0
M  V30 1885 H 176.401 -0.843438 1.23315 0
M  V30 1886 H 178.283 -4.00547 1.3092 0
M  V30 1887 H 176.958 -3.21014 0.41612 0
M  V30 1888 H 175.865 -2.63067 2.65982 0
M  V30 1889 H 177.198 -3.47512 3.48563 0
M  V30 1890 N 178.85 -1.27639 -0.924453 0
M  V30 1891 C 179.797 -1.10644 -2.0255 0
M  V30 1892 C 180.767 -0.00658438 -1.66099 0
M  V30 1893 O 181.952 -0.16952 -1.90045 0
M  V30 1894 C 179.092 -0.76309 -3.36557 0
M  V30 1895 C 178.205 -1.94091 -3.85944 0
M  V30 1896 C 177.34 -1.53914 -5.08413 0
M  V30 1897 C 176.379 -2.68425 -5.50104 0
M  V30 1898 N 175.516 -2.28815 -6.63768 0
M  V30 1899 H 180.356 -2.04858 -2.16419 0
M  V30 1900 H 177.893 -1.01974 -1.06017 0
M  V30 1901 H 179.851 -0.544822 -4.13627 0
M  V30 1902 H 178.481 0.142102 -3.22487 0
M  V30 1903 H 177.533 -2.27162 -3.05125 0
M  V30 1904 H 178.845 -2.7998 -4.12811 0
M  V30 1905 H 177.999 -1.28231 -5.92994 0
M  V30 1906 H 176.738 -0.651391 -4.8333 0
M  V30 1907 H 175.743 -2.94819 -4.64071 0
M  V30 1908 H 176.968 -3.57826 -5.7718 0
M  V30 1909 H 174.914 -1.42495 -6.40337 0
M  V30 1910 H 174.831 -3.08242 -6.90306 0
M  V30 1911 H 176.099 -2.06387 -7.51681 0
M  V30 1912 N 180.328 1.1314 -1.09713 0
M  V30 1913 C 181.575 1.84484 -0.834987 0
M  V30 1914 C 181.903 1.83689 0.639418 0
M  V30 1915 O 181.158 1.2724 1.4869 0
M  V30 1916 C 181.457 3.32167 -1.3191 0
M  V30 1917 C 181.123 3.53139 -2.80363 0
M  V30 1918 C 179.785 3.58571 -3.20905 0
M  V30 1919 C 182.137 3.60866 -3.76065 0
M  V30 1920 C 179.465 3.69267 -4.55916 0
M  V30 1921 C 181.817 3.73089 -5.10869 0
M  V30 1922 C 180.481 3.76775 -5.50996 0
M  V30 1923 H 179.751 0.675073 -0.305544 0
M  V30 1924 H 182.398 1.33554 -1.37243 0
M  V30 1925 H 180.703 3.85469 -0.701517 0
M  V30 1926 H 182.4 3.85821 -1.09284 0
M  V30 1927 H 178.99 3.49569 -2.47991 0
M  V30 1928 H 183.174 3.55946 -3.45855 0
M  V30 1929 H 178.43 3.70388 -4.86438 0
M  V30 1930 H 182.604 3.78011 -5.84877 0
M  V30 1931 H 180.231 3.84815 -6.55608 0
M  V30 1932 N 181.806 0.884767 1.30421 0
M  V30 1933 C 182.716 0.355398 2.31892 0
M  V30 1934 C 183.732 -0.542261 1.65335 0
M  V30 1935 O 184.908 -0.435432 1.96637 0
M  V30 1936 C 181.973 -0.421661 3.44126 0
M  V30 1937 C 181.034 0.505727 4.26311 0
M  V30 1938 C 180.267 -0.234343 5.33185 0
M  V30 1939 O 180.49 -1.46045 5.51386 0
M  V30 1940 O 179.424 0.415443 6.00465 0
M  V30 1941 H 183.25 1.19685 2.79122 0
M  V30 1942 H 180.835 0.648596 1.34587 0
M  V30 1943 H 182.717 -0.861641 4.12497 0
M  V30 1944 H 181.392 -1.23942 2.99032 0
M  V30 1945 H 180.299 0.994513 3.60639 0
M  V30 1946 H 181.632 1.28948 4.75009 0
M  V30 1947 N 183.284 -1.43765 0.645699 0
M  V30 1948 C 184.214 -2.33471 -0.0370477 0
M  V30 1949 C 185.195 -1.49042 -0.819779 0
M  V30 1950 O 186.38 -1.77726 -0.782758 0
M  V30 1951 C 183.51 -3.32311 -1.0093 0
M  V30 1952 C 182.464 -4.2667 -0.337201 0
M  V30 1953 C 181.79 -5.1549 -1.42037 0
M  V30 1954 C 183.09 -5.16657 0.765706 0
M  V30 1955 H 184.784 -2.90809 0.712069 0
M  V30 1956 H 182.33 -1.39834 0.343876 0
M  V30 1957 H 184.283 -3.9396 -1.49578 0
M  V30 1958 H 183.007 -2.73213 -1.78948 0
M  V30 1959 H 181.666 -3.66374 0.128771 0
M  V30 1960 H 181.314 -4.52735 -2.1918 0
M  V30 1961 H 181.014 -5.79438 -0.975966 0
M  V30 1962 H 182.538 -5.80012 -1.90838 0
M  V30 1963 H 183.952 -5.72158 0.361702 0
M  V30 1964 H 182.349 -5.89286 1.13413 0
M  V30 1965 H 183.419 -4.56796 1.62683 0
M  V30 1966 N 184.763 -0.387143 -1.52771 0
M  V30 1967 C 186.04 0.253197 -1.93954 0
M  V30 1968 C 186.42 1.64545 -1.32243 0
M  V30 1969 O 185.768 2.23191 -0.489699 0
M  V30 1970 C 185.978 0.281722 -3.47861 0
M  V30 1971 C 187.326 0.511715 -4.21505 0
M  V30 1972 O 188.35 0.362023 -3.54356 0
M  V30 1973 O 187.209 0.804847 -5.40541 0
M  V30 1974 H 184.303 0.156845 -0.811991 0
M  V30 1975 H 186.849 -0.441494 -1.63856 0
M  V30 1976 H 185.621 -0.693571 -3.85104 0
M  V30 1977 H 185.244 1.02142 -3.84256 0
M  V30 1978 N 186.241 1.57166 -0.116904 0
M  V30 1979 C 187.204 2.14039 0.819742 0
M  V30 1980 C 188.204 1.07477 1.19605 0
M  V30 1981 O 189.394 1.33263 1.1219 0
M  V30 1982 C 186.526 2.67891 2.10826 0
M  V30 1983 H 187.719 2.98128 0.325511 0
M  V30 1984 H 185.272 1.55739 0.132312 0
M  V30 1985 H 186.007 1.87384 2.64685 0
M  V30 1986 H 185.792 3.45823 1.84793 0
M  V30 1987 H 187.282 3.11809 2.77785 0
M  V30 1988 N 187.719 -0.156864 1.56817 0
M  V30 1989 C 189.13 -0.717916 1.72345 0
M  V30 1990 C 189.481 -1.82124 0.729747 0
M  V30 1991 O 188.606 -2.16141 -0.105781 0
M  V30 1992 C 189.201 -1.30904 3.12489 0
M  V30 1993 C 187.76 -1.81676 3.29653 0
M  V30 1994 C 186.907 -0.701349 2.68284 0
M  V30 1995 H 189.858 0.0686989 1.58551 0
M  V30 1996 H 189.879 -2.17882 3.11942 0
M  V30 1997 H 189.391 -0.505796 3.8479 0
M  V30 1998 H 187.492 -2.64598 2.62333 0
M  V30 1999 H 187.605 -1.95226 4.3752 0
M  V30 2000 H 185.969 -1.12548 2.28484 0
M  V30 2001 H 186.752 0.0902846 3.43181 0
M  V30 2002 N 189.197 -1.51736 -0.425897 0
M  V30 2003 C 190.144 -1.73875 -1.51776 0
M  V30 2004 C 191.114 -0.580702 -1.55618 0
M  V30 2005 O 192.299 -0.81641 -1.72451 0
M  V30 2006 C 189.439 -1.88012 -2.89388 0
M  V30 2007 C 188.552 -3.15606 -2.94986 0
M  V30 2008 C 187.687 -3.20271 -4.23793 0
M  V30 2009 C 186.726 -4.42134 -4.23302 0
M  V30 2010 N 185.863 -4.44284 -5.43651 0
M  V30 2011 H 190.703 -2.67071 -1.32201 0
M  V30 2012 H 188.24 -1.32351 -0.642008 0
M  V30 2013 H 190.198 -1.9419 -3.69251 0
M  V30 2014 H 188.828 -0.98213 -3.07496 0
M  V30 2015 H 187.88 -3.18681 -2.07717 0
M  V30 2016 H 189.192 -4.05486 -2.90486 0
M  V30 2017 H 188.346 -3.25428 -5.12036 0
M  V30 2018 H 187.085 -2.28299 -4.30965 0
M  V30 2019 H 186.09 -4.3714 -3.3345 0
M  V30 2020 H 187.315 -5.35382 -4.17783 0
M  V30 2021 H 185.261 -3.55188 -5.51523 0
M  V30 2022 H 185.178 -5.27988 -5.41078 0
M  V30 2023 H 186.446 -4.53649 -6.33895 0
M  V30 2024 N 190.675 0.682077 -1.42076 0
M  V30 2025 C 191.903 1.47057 -1.4554 0
M  V30 2026 C 192.318 1.8869 -0.0645779 0
M  V30 2027 O 191.675 1.57666 0.919115 0
M  V30 2028 C 191.726 2.72442 -2.37609 0
M  V30 2029 O 191.447 2.32559 -3.71279 0
M  V30 2030 C 192.948 3.66069 -2.50017 0
M  V30 2031 H 190.168 0.452737 -0.495248 0
M  V30 2032 H 192.712 0.838695 -1.8651 0
M  V30 2033 H 190.867 3.31835 -1.9991 0
M  V30 2034 H 191.281 3.13475 -4.20516 0
M  V30 2035 H 192.755 4.50792 -3.18576 0
M  V30 2036 H 193.232 4.11476 -1.53572 0
M  V30 2037 H 193.838 3.12572 -2.88407 0
M  V30 2038 N 192.153 1.28127 0.917671 0
M  V30 2039 C 193.1 1.11717 2.0196 0
M  V30 2040 C 194.07 0.0153929 1.66093 0
M  V30 2041 O 195.255 0.179596 1.89953 0
M  V30 2042 C 192.395 0.780927 3.36148 0
M  V30 2043 C 191.508 1.96135 3.84909 0
M  V30 2044 C 190.643 1.56609 5.0759 0
M  V30 2045 C 189.682 2.71339 5.48673 0
M  V30 2046 N 188.819 2.32332 6.62545 0
M  V30 2047 H 193.659 2.06003 2.15329 0
M  V30 2048 H 191.196 1.02535 1.05475 0
M  V30 2049 H 193.154 0.56675 4.13333 0
M  V30 2050 H 191.784 -0.124998 3.22558 0
M  V30 2051 H 190.836 2.28777 3.03916 0
M  V30 2052 H 192.148 2.82165 4.1132 0
M  V30 2053 H 191.302 1.31374 5.92305 0
M  V30 2054 H 190.041 0.677014 4.82978 0
M  V30 2055 H 189.046 2.97276 4.62501 0
M  V30 2056 H 190.271 3.60882 5.75274 0
M  V30 2057 H 188.217 1.45889 6.39572 0
M  V30 2058 H 188.134 3.11899 6.88662 0
M  V30 2059 H 189.402 2.10371 7.50576 0
M  V30 2060 N 193.631 -1.12557 1.10312 0
M  V30 2061 C 194.877 -1.84311 0.846011 0
M  V30 2062 C 195.21 -1.83805 -0.626859 0
M  V30 2063 O 194.485 -1.28268 -1.46211 0
M  V30 2064 C 194.768 -3.32048 1.39341 0
M  V30 2065 C 194.621 -3.41016 2.93305 0
M  V30 2066 C 195.94 -4.27764 1.03468 0
M  V30 2067 H 193.059 -0.669192 0.30879 0
M  V30 2068 H 195.701 -1.32057 1.36605 0
M  V30 2069 H 193.851 -3.76678 0.951087 0
M  V30 2070 H 195.523 -3.05031 3.46055 0
M  V30 2071 H 193.766 -2.81603 3.29973 0
M  V30 2072 H 194.437 -4.44948 3.26689 0
M  V30 2073 H 196.913 -3.91253 1.41633 0
M  V30 2074 H 195.789 -5.29549 1.44463 0
M  V30 2075 H 196.05 -4.42064 -0.0560404 0
M  V30 2076 N 195.109 -0.891671 -1.2995 0
M  V30 2077 C 196.039 -0.379797 -2.30391 0
M  V30 2078 C 197.02 0.540919 -1.6127 0
M  V30 2079 O 198.205 0.453352 -1.88834 0
M  V30 2080 C 195.335 0.400654 -3.44981 0
M  V30 2081 C 194.289 -0.428905 -4.25846 0
M  V30 2082 C 193.615 0.478557 -5.32554 0
M  V30 2083 C 194.915 -1.67458 -4.94727 0
M  V30 2084 H 196.609 -1.21914 -2.73454 0
M  V30 2085 H 194.155 -0.587675 -1.31462 0
M  V30 2086 H 196.108 0.769434 -4.14316 0
M  V30 2087 H 194.832 1.27371 -3.0074 0
M  V30 2088 H 193.491 -0.779911 -3.58208 0
M  V30 2089 H 193.139 1.34951 -4.84559 0
M  V30 2090 H 192.839 -0.0727433 -5.87555 0
M  V30 2091 H 194.363 0.843705 -6.04743 0
M  V30 2092 H 195.777 -1.376 -5.56542 0
M  V30 2093 H 194.174 -2.16659 -5.59624 0
M  V30 2094 H 195.244 -2.41518 -4.20473 0
M  V30 2095 N 196.587 1.43421 -0.653314 0
M  V30 2096 C 197.833 2.02111 -0.166992 0
M  V30 2097 C 198.166 1.51423 1.21592 0
M  V30 2098 O 197.441 0.707389 1.8118 0
M  V30 2099 C 197.724 3.5966 -0.177948 0
M  V30 2100 C 197.577 4.20579 -1.59478 0
M  V30 2101 C 198.896 4.37413 0.4856 0
M  V30 2102 H 196.015 0.734374 -0.0621557 0
M  V30 2103 H 198.657 1.70717 -0.834016 0
M  V30 2104 H 196.807 3.86537 0.390032 0
M  V30 2105 H 198.479 4.04732 -2.21336 0
M  V30 2106 H 196.722 3.77226 -2.14204 0
M  V30 2107 H 197.393 5.29665 -1.5543 0
M  V30 2108 H 199.869 4.161 0.00234528 0
M  V30 2109 H 198.745 5.47075 0.447207 0
M  V30 2110 H 199.006 4.13672 1.55974 0
M  V30 2111 N 198.065 0.39524 1.52563 0
M  V30 2112 C 198.997 -0.472201 2.24283 0
M  V30 2113 C 200.01 -1.02178 1.26742 0
M  V30 2114 O 201.199 -0.923097 1.52778 0
M  V30 2115 C 198.299 -1.66775 2.95024 0
M  V30 2116 C 197.472 -1.2445 4.19322 0
M  V30 2117 C 196.531 -2.30539 4.7301 0
M  V30 2118 O 195.557 -1.91702 5.35947 0
M  V30 2119 N 196.759 -3.6253 4.53379 0
M  V30 2120 H 199.524 0.142282 2.99362 0
M  V30 2121 H 197.085 0.2219 1.60372 0
M  V30 2122 H 199.077 -2.37283 3.27839 0
M  V30 2123 H 197.647 -2.18845 2.23217 0
M  V30 2124 H 196.867 -0.368069 3.92478 0
M  V30 2125 H 198.155 -0.938457 5.0007 0
M  V30 2126 H 197.553 -3.96841 4.03154 0
M  V30 2127 H 196.11 -4.29055 4.90668 0
M  V30 2128 N 199.544 -1.57102 0.125237 0
M  V30 2129 C 200.491 -2.15641 -0.822655 0
M  V30 2130 C 201.461 -1.08313 -1.25927 0
M  V30 2131 O 202.646 -1.36251 -1.33567 0
M  V30 2132 C 199.786 -2.76504 -2.06494 0
M  V30 2133 C 198.899 -3.98158 -1.67612 0
M  V30 2134 C 198.034 -4.47088 -2.86854 0
M  V30 2135 C 197.073 -5.6126 -2.44242 0
M  V30 2136 N 196.21 -6.04905 -3.56419 0
M  V30 2137 H 201.05 -2.96313 -0.316625 0
M  V30 2138 H 198.587 -1.46388 -0.144588 0
M  V30 2139 H 200.545 -3.09925 -2.79289 0
M  V30 2140 H 199.175 -1.98512 -2.54545 0
M  V30 2141 H 198.227 -3.70858 -0.846661 0
M  V30 2142 H 199.539 -4.80934 -1.32301 0
M  V30 2143 H 198.693 -4.82451 -3.67867 0
M  V30 2144 H 197.432 -3.63275 -3.25396 0
M  V30 2145 H 196.437 -5.25495 -1.61663 0
M  V30 2146 H 197.662 -6.46843 -2.0681 0
M  V30 2147 H 195.608 -5.24032 -3.94623 0
M  V30 2148 H 195.525 -6.82552 -3.25051 0
M  V30 2149 H 196.793 -6.44907 -4.37853 0
M  V30 2150 N 201.022 0.148545 -1.56898 0
M  V30 2151 C 201.952 1.18524 -2.01182 0
M  V30 2152 C 202.933 1.4489 -0.891123 0
M  V30 2153 O 204.118 1.55836 -1.15882 0
M  V30 2154 C 201.248 2.51879 -2.39112 0
M  V30 2155 C 200.202 2.40038 -3.54353 0
M  V30 2156 C 199.528 3.78089 -3.78091 0
M  V30 2157 C 200.828 1.88577 -4.87069 0
M  V30 2158 H 202.522 0.817029 -2.88036 0
M  V30 2159 H 200.068 0.391575 -1.38574 0
M  V30 2160 H 202.021 3.24627 -2.68692 0
M  V30 2161 H 200.745 2.90532 -1.49193 0
M  V30 2162 H 199.404 1.69742 -3.24936 0
M  V30 2163 H 199.052 4.14175 -2.85426 0
M  V30 2164 H 198.752 3.71028 -4.55645 0
M  V30 2165 H 200.276 4.52387 -4.10095 0
M  V30 2166 H 201.69 2.51117 -5.15377 0
M  V30 2167 H 200.087 1.9241 -5.68417 0
M  V30 2168 H 201.157 0.84136 -4.77545 0
M  V30 2169 N 202.5 1.5196 0.417844 0
M  V30 2170 C 203.447 1.74678 1.50852 0
M  V30 2171 C 204.417 0.588947 1.55308 0
M  V30 2172 O 205.602 0.825544 1.72016 0
M  V30 2173 C 202.742 1.89544 2.88387 0
M  V30 2174 C 201.855 3.17166 2.93309 0
M  V30 2175 C 200.99 3.22513 4.22088 0
M  V30 2176 C 200.029 4.44372 4.20951 0
M  V30 2177 N 199.166 4.47161 5.41287 0
M  V30 2178 H 204.006 2.67768 1.30783 0
M  V30 2179 H 201.543 1.32689 0.63498 0
M  V30 2180 H 203.501 1.96146 3.68216 0
M  V30 2181 H 202.131 0.998424 3.06971 0
M  V30 2182 H 201.183 3.19778 2.06024 0
M  V30 2183 H 202.495 4.07021 2.88332 0
M  V30 2184 H 201.649 3.28139 5.10303 0
M  V30 2185 H 200.388 2.30581 4.29748 0
M  V30 2186 H 199.393 4.38902 3.31127 0
M  V30 2187 H 200.618 5.3759 4.14938 0
M  V30 2188 H 198.564 3.58108 5.49632 0
M  V30 2189 H 198.481 5.3085 5.3827 0
M  V30 2190 H 199.749 4.57005 6.3148 0
M  V30 2191 N 203.978 -0.674533 1.42435 0
M  V30 2192 C 205.255 -1.4305 1.33402 0
M  V30 2193 C 205.635 -2.11081 -0.0284674 0
M  V30 2194 O 204.983 -2.03257 -1.04397 0
M  V30 2195 C 205.193 -2.43272 2.50239 0
M  V30 2196 C 206.541 -3.07907 2.92367 0
M  V30 2197 O 207.565 -2.53599 2.50132 0
M  V30 2198 O 206.424 -4.0632 3.65467 0
M  V30 2199 H 203.518 -0.638076 0.526106 0
M  V30 2200 H 206.064 -0.703235 1.54443 0
M  V30 2201 H 204.836 -1.91803 3.41068 0
M  V30 2202 H 204.459 -3.23479 2.31186 0
M  V30 2203 N 205.456 -1.28612 -0.910864 0
M  V30 2204 C 206.386 -1.15326 -2.03032 0
M  V30 2205 C 207.367 -0.0502924 -1.70026 0
M  V30 2206 O 208.552 -0.227797 -1.92859 0
M  V30 2207 C 205.682 -0.817343 -3.37545 0
M  V30 2208 C 204.636 -1.8754 -3.84724 0
M  V30 2209 C 203.962 -1.39305 -5.16235 0
M  V30 2210 C 205.262 -3.28244 -4.06267 0
M  V30 2211 H 206.956 -2.08975 -2.14406 0
M  V30 2212 H 204.502 -1.00612 -1.03021 0
M  V30 2213 H 206.455 -0.711151 -4.15356 0
M  V30 2214 H 205.179 0.154846 -3.26233 0
M  V30 2215 H 203.838 -1.97079 -3.09121 0
M  V30 2216 H 203.486 -0.409846 -5.01328 0
M  V30 2217 H 203.186 -2.10057 -5.48771 0
M  V30 2218 H 204.71 -1.30014 -5.96598 0
M  V30 2219 H 206.124 -3.21611 -4.74594 0
M  V30 2220 H 204.521 -3.96855 -4.5014 0
M  V30 2221 H 205.591 -3.72048 -3.10979 0
M  V30 2222 N 206.934 1.1197 -1.10907 0
M  V30 2223 C 207.897 2.16031 -0.765707 0
M  V30 2224 C 208.897 1.59393 0.212235 0
M  V30 2225 O 210.087 1.74196 -0.0115441 0
M  V30 2226 C 207.219 3.40632 -0.135053 0
M  V30 2227 H 208.412 2.47919 -1.68748 0
M  V30 2228 H 205.965 1.27061 -0.910226 0
M  V30 2229 H 206.7 3.14348 0.797218 0
M  V30 2230 H 206.485 3.8302 -0.838937 0
M  V30 2231 H 207.975 4.17505 0.0892469 0
M  V30 2232 N 208.412 0.89855 1.29475 0
M  V30 2233 C 209.658 0.524658 1.95896 0
M  V30 2234 C 209.991 -0.926468 1.70676 0
M  V30 2235 O 209.266 -1.65665 1.01908 0
M  V30 2236 C 209.549 0.81633 3.50725 0
M  V30 2237 C 209.402 2.31907 3.85408 0
M  V30 2238 C 210.721 0.302038 4.39062 0
M  V30 2239 H 207.84 0.19209 0.711527 0
M  V30 2240 H 210.482 1.12502 1.53112 0
M  V30 2241 H 208.632 0.305369 3.87298 0
M  V30 2242 H 210.304 2.89949 3.58786 0
M  V30 2243 H 208.547 2.78027 3.32992 0
M  V30 2244 H 209.218 2.47373 4.93468 0
M  V30 2245 H 211.694 0.739551 4.09475 0
M  V30 2246 H 210.57 0.535331 5.46283 0
M  V30 2247 H 210.831 -0.797216 4.34853 0
M  V30 2248 N 209.89 -1.43072 0.660911 0
M  V30 2249 C 210.8 -2.34585 -0.0264163 0
M  V30 2250 C 211.816 -1.54316 -0.803898 0
M  V30 2251 O 212.992 -1.86939 -0.749391 0
M  V30 2252 C 210.057 -3.32689 -0.975639 0
M  V30 2253 C 209.118 -4.2886 -0.194236 0
M  V30 2254 C 208.351 -5.22278 -1.09825 0
M  V30 2255 O 208.574 -5.20299 -2.33763 0
M  V30 2256 O 207.508 -5.99228 -0.566513 0
M  V30 2257 H 211.334 -2.94869 0.727034 0
M  V30 2258 H 208.919 -1.43342 0.42111 0
M  V30 2259 H 210.801 -3.92995 -1.52094 0
M  V30 2260 H 209.476 -2.74898 -1.70918 0
M  V30 2261 H 208.383 -3.72011 0.394835 0
M  V30 2262 H 209.716 -4.89655 0.499899 0
M  V30 2263 N 211.368 -0.403325 -1.52352 0
M  V30 2264 C 212.645 0.232611 -1.94212 0
M  V30 2265 C 213.025 1.63133 -1.33981 0
M  V30 2266 O 212.373 2.22659 -0.513344 0
M  V30 2267 C 212.583 0.244811 -3.4814 0
M  V30 2268 C 213.931 0.46698 -4.22024 0
M  V30 2269 O 214.955 0.324419 -3.5472 0
M  V30 2270 O 213.814 0.74747 -5.41364 0
M  V30 2271 H 210.908 0.148223 -0.813609 0
M  V30 2272 H 213.454 -0.458848 -1.63379 0
M  V30 2273 H 212.226 -0.734378 -3.84347 0
M  V30 2274 H 211.849 0.980611 -3.85318 0
M  V30 2275 N 212.846 1.57033 -0.133567 0
M  V30 2276 C 213.809 2.14897 0.796995 0
M  V30 2277 C 214.809 1.0874 1.18458 0
M  V30 2278 O 215.999 1.34446 1.1077 0
M  V30 2279 C 213.131 2.70112 2.07973 0
M  V30 2280 H 214.324 2.98457 0.293873 0
M  V30 2281 H 211.877 1.55871 0.115787 0
M  V30 2282 H 212.612 1.9018 2.62682 0
M  V30 2283 H 212.397 3.47764 1.81115 0
M  V30 2284 H 213.887 3.14738 2.74462 0
M  V30 2285 N 214.325 -0.140222 1.56975 0
M  V30 2286 C 215.255 -1.17456 2.01808 0
M  V30 2287 C 216.236 -1.44415 0.898794 0
M  V30 2288 O 217.421 -1.5522 1.16707 0
M  V30 2289 C 214.551 -2.50607 2.40444 0
M  V30 2290 C 213.505 -2.38155 3.55621 0
M  V30 2291 C 212.831 -3.76078 3.80091 0
M  V30 2292 C 214.131 -1.85991 4.88062 0
M  V30 2293 H 215.825 -0.801743 2.88466 0
M  V30 2294 H 213.371 -0.38422 1.38779 0
M  V30 2295 H 215.324 -3.23197 2.7041 0
M  V30 2296 H 214.048 -2.89737 1.50732 0
M  V30 2297 H 212.707 -1.68016 3.25832 0
M  V30 2298 H 212.355 -4.12656 2.87618 0
M  V30 2299 H 212.055 -3.68606 4.57606 0
M  V30 2300 H 213.579 -4.50206 4.12488 0
M  V30 2301 H 214.993 -2.4838 5.16701 0
M  V30 2302 H 213.39 -1.89393 5.6943 0
M  V30 2303 H 214.46 -0.816023 4.77984 0
M  V30 2304 N 215.803 -1.52179 -0.40978 0
M  V30 2305 C 217.052 -1.65434 -1.15388 0
M  V30 2306 C 217.365 -0.390056 -1.91671 0
M  V30 2307 O 218.571 -0.402399 -2.68501 0
M  V30 2308 C 217.027 -2.92279 -2.10003 0
M  V30 2309 C 216.635 -4.25813 -1.39239 0
M  V30 2310 C 218.379 -3.14897 -2.84675 0
M  V30 2311 C 216.286 -5.43782 -2.32498 0
M  V30 2312 H 215.216 -0.616267 -0.434432 0
M  V30 2313 H 217.867 -1.78666 -0.418401 0
M  V30 2314 H 216.249 -2.72744 -2.871 0
M  V30 2315 H 217.423 -4.55828 -0.675099 0
M  V30 2316 H 215.738 -4.09292 -0.766097 0
M  V30 2317 H 218.335 -4.0021 -3.54593 0
M  V30 2318 H 218.678 -2.29103 -3.47588 0
M  V30 2319 H 219.211 -3.34901 -2.14677 0
M  V30 2320 H 215.95 -6.3192 -1.74233 0
M  V30 2321 H 215.47 -5.18106 -3.02201 0
M  V30 2322 H 217.149 -5.76834 -2.93038 0
M  V30 2323 N 217.281 0.66697 -1.42791 0
M  V30 2324 C 218.53 1.42278 -1.42968 0
M  V30 2325 C 218.843 1.9553 -0.0524489 0
M  V30 2326 O 220.049 2.71414 0.068363 0
M  V30 2327 C 218.505 2.57418 -2.51524 0
M  V30 2328 C 218.113 2.10832 -3.9529 0
M  V30 2329 C 219.857 3.34878 -2.60877 0
M  V30 2330 C 217.764 3.23101 -4.95338 0
M  V30 2331 H 216.694 0.534533 -0.531781 0
M  V30 2332 H 219.345 0.721302 -1.68729 0
M  V30 2333 H 217.727 3.29971 -2.18941 0
M  V30 2334 H 218.901 1.4538 -4.37266 0
M  V30 2335 H 217.216 1.46289 -3.89857 0
M  V30 2336 H 219.813 4.18505 -3.32802 0
M  V30 2337 H 220.156 3.81993 -1.6549 0
M  V30 2338 H 220.689 2.69398 -2.92693 0
M  V30 2339 H 217.428 2.80969 -5.9223 0
M  V30 2340 H 216.948 3.87309 -4.57987 0
M  V30 2341 H 218.627 3.88447 -5.17415 0
M  V30 2342 N 218.759 1.29093 0.90403 0
M  V30 2343 C 219.987 1.19689 1.68766 0
M  V30 2344 C 220.402 -0.243113 1.87228 0
M  V30 2345 O 219.759 -1.16326 1.40621 0
M  V30 2346 C 219.81 1.90144 3.07453 0
M  V30 2347 O 219.531 3.2852 2.89838 0
M  V30 2348 C 221.032 1.87162 4.01852 0
M  V30 2349 H 218.252 0.415035 0.527244 0
M  V30 2350 H 220.796 1.7039 1.13082 0
M  V30 2351 H 218.951 1.43289 3.59926 0
M  V30 2352 H 219.365 3.63944 3.77684 0
M  V30 2353 H 220.839 2.41032 4.96596 0
M  V30 2354 H 221.316 0.84617 4.30972 0
M  V30 2355 H 221.922 2.33741 3.5531 0
M  V30 2356 N 220.237 -1.11381 1.11499 0
M  V30 2357 C 221.2 -2.15622 0.777153 0
M  V30 2358 C 222.2 -1.59504 -0.203779 0
M  V30 2359 O 223.39 -1.74188 0.020782 0
M  V30 2360 C 220.522 -3.40556 0.153116 0
M  V30 2361 H 221.715 -2.47021 1.70061 0
M  V30 2362 H 219.268 -1.26577 0.916952 0
M  V30 2363 H 220.003 -3.14767 -0.780536 0
M  V30 2364 H 219.788 -3.8257 0.859238 0
M  V30 2365 H 221.278 -4.17546 -0.0671044 0
M  V30 2366 N 221.715 -0.905404 -1.28997 0
M  V30 2367 C 222.94 -0.549175 -1.99997 0
M  V30 2368 C 223.365 0.860276 -1.67275 0
M  V30 2369 O 222.723 1.57355 -0.900502 0
M  V30 2370 C 222.771 -0.755185 -3.52604 0
M  V30 2371 O 221.875 0.189692 -4.11964 0
M  V30 2372 H 221.216 -0.213899 -0.628604 0
M  V30 2373 H 223.746 -1.21856 -1.64354 0
M  V30 2374 H 223.756 -0.662045 -4.02593 0
M  V30 2375 H 222.431 -1.78271 -3.75755 0
M  V30 2376 H 221.008 0.0485257 -3.72868 0
M  V30 2377 N 223.193 1.4272 -0.668489 0
M  V30 2378 C 224.123 2.335 -0.000100175 0
M  V30 2379 C 225.104 1.50328 0.795964 0
M  V30 2380 O 226.289 1.78949 0.754385 0
M  V30 2381 C 223.419 3.33874 0.956302 0
M  V30 2382 C 222.373 4.27152 0.269278 0
M  V30 2383 C 221.699 5.17684 1.33818 0
M  V30 2384 C 222.999 5.15373 -0.847805 0
M  V30 2385 H 224.693 2.89639 -0.758244 0
M  V30 2386 H 222.239 1.39269 -0.366079 0
M  V30 2387 H 224.192 3.9629 1.43292 0
M  V30 2388 H 222.916 2.76025 1.74579 0
M  V30 2389 H 221.575 3.66123 -0.187042 0
M  V30 2390 H 221.223 4.56165 2.1195 0
M  V30 2391 H 220.923 5.80918 0.883659 0
M  V30 2392 H 222.447 5.82974 1.81586 0
M  V30 2393 H 223.861 5.7151 -0.452681 0
M  V30 2394 H 222.258 5.87407 -1.22773 0
M  V30 2395 H 223.328 4.5415 -1.69929 0
M  V30 2396 N 224.671 0.411399 1.52136 0
M  V30 2397 C 225.948 -0.222308 1.94333 0
M  V30 2398 C 226.328 -1.6242 1.34844 0
M  V30 2399 O 225.676 -2.22384 0.525145 0
M  V30 2400 C 225.886 -0.226345 3.48265 0
M  V30 2401 C 227.234 -0.444592 4.22266 0
M  V30 2402 O 228.258 -0.305602 3.54887 0
M  V30 2403 O 227.117 -0.718749 5.41753 0
M  V30 2404 H 224.211 -0.143907 0.814383 0
M  V30 2405 H 226.757 0.467506 1.63133 0
M  V30 2406 H 225.529 0.75475 3.83952 0
M  V30 2407 H 225.152 -0.960163 3.85832 0
M  V30 2408 N 226.149 -1.5696 0.141893 0
M  V30 2409 C 227.059 -2.20066 -0.812905 0
M  V30 2410 C 228.075 -1.18344 -1.27557 0
M  V30 2411 O 229.251 -1.50902 -1.33381 0
M  V30 2412 C 226.316 -2.80583 -2.03652 0
M  V30 2413 C 225.377 -3.97414 -1.62359 0
M  V30 2414 C 224.61 -4.55036 -2.78887 0
M  V30 2415 O 224.833 -4.11538 -3.94959 0
M  V30 2416 O 223.767 -5.45376 -2.54653 0
M  V30 2417 H 227.593 -3.02157 -0.305746 0
M  V30 2418 H 225.178 -1.49159 -0.0848799 0
M  V30 2419 H 227.06 -3.19067 -2.75272 0
M  V30 2420 H 225.735 -2.01508 -2.5333 0
M  V30 2421 H 224.642 -3.63656 -0.877775 0
M  V30 2422 H 225.975 -4.77994 -1.17401 0
M  V30 2423 N 227.627 0.131896 -1.57047 0
M  V30 2424 C 228.575 1.18146 -2.0036 0
M  V30 2425 C 229.569 1.43614 -0.898406 0
M  V30 2426 O 230.775 1.43729 -1.08361 0
M  V30 2427 H 227.15 0.398042 -0.638018 0
M  V30 2428 H 229.121 0.789564 -2.87765 0
M  V30 2429 C 227.87 2.50341 -2.41298 0
M  V30 2430 H 227.193 2.31578 -3.25902 0
M  V30 2431 H 228.633 3.22371 -2.75414 0
M  V30 2432 C 227.092 3.11984 -1.27153 0
M  V30 2433 O 227.622 3.97484 -0.580459 0
M  V30 2434 N 225.828 2.71662 -1.03189 0
M  V30 2435 H 225.375 2.02231 -1.59564 0
M  V30 2436 H 225.333 3.13238 -0.270077 0
M  V30 2437 N 229.106 1.52395 0.401703 0
M  V30 2438 C 230.036 1.79231 1.49661 0
M  V30 2439 C 231.017 0.643654 1.57452 0
M  V30 2440 O 232.202 0.889989 1.72606 0
M  V30 2441 C 229.332 1.94971 2.87409 0
M  V30 2442 C 228.286 3.10604 2.94465 0
M  V30 2443 C 227.612 3.11577 4.34538 0
M  V30 2444 C 228.912 4.49921 2.6527 0
M  V30 2445 H 230.606 2.70917 1.27454 0
M  V30 2446 H 228.152 1.30362 0.6117 0
M  V30 2447 H 230.105 2.12328 3.63999 0
M  V30 2448 H 228.829 0.999632 3.10926 0
M  V30 2449 H 227.488 2.93009 2.20321 0
M  V30 2450 H 227.136 2.14277 4.55076 0
M  V30 2451 H 226.836 3.89247 4.40183 0
M  V30 2452 H 228.36 3.31073 5.13053 0
M  V30 2453 H 229.774 4.67683 3.31581 0
M  V30 2454 H 228.171 5.29564 2.82281 0
M  V30 2455 H 229.241 4.57507 1.60671 0
M  V30 2456 N 230.584 -0.659388 1.43143 0
M  V30 2457 C 231.831 -1.41935 1.44433 0
M  V30 2458 C 232.159 -1.94387 0.0663522 0
M  V30 2459 O 231.414 -1.72314 -0.927706 0
M  V30 2460 C 231.713 -2.62206 2.42864 0
M  V30 2461 C 231.379 -2.28208 3.88886 0
M  V30 2462 C 230.041 -2.18647 4.28657 0
M  V30 2463 C 232.393 -2.00887 4.8093 0
M  V30 2464 C 229.721 -1.79914 5.58433 0
M  V30 2465 C 232.073 -1.63653 6.11065 0
M  V30 2466 C 230.737 -1.52614 6.49819 0
M  V30 2467 H 230.007 -0.519376 0.528517 0
M  V30 2468 H 232.654 -0.750453 1.76183 0
M  V30 2469 H 230.959 -3.34199 2.04495 0
M  V30 2470 H 232.656 -3.2041 2.41119 0
M  V30 2471 H 229.246 -2.36557 3.57406 0
M  V30 2472 H 233.43 -2.07198 4.5098 0
M  V30 2473 H 228.686 -1.69948 5.87305 0
M  V30 2474 H 232.86 -1.41543 6.81864 0
M  V30 2475 H 230.487 -1.22371 7.50286 0
M  V30 2476 N 232.062 -1.29571 -0.897171 0
M  V30 2477 C 232.992 -1.17473 -2.01798 0
M  V30 2478 C 233.973 -0.068323 -1.69963 0
M  V30 2479 O 235.158 -0.248239 -1.92607 0
M  V30 2480 C 232.288 -0.853099 -3.36659 0
M  V30 2481 C 231.242 -1.9161 -3.82713 0
M  V30 2482 C 230.568 -1.44773 -5.14728 0
M  V30 2483 C 231.868 -3.32535 -4.02763 0
M  V30 2484 H 233.562 -2.11237 -2.12177 0
M  V30 2485 H 231.108 -1.01699 -1.01948 0
M  V30 2486 H 233.061 -0.755165 -4.14578 0
M  V30 2487 H 231.785 0.120236 -3.26379 0
M  V30 2488 H 230.444 -2.00346 -3.07013 0
M  V30 2489 H 230.092 -0.462995 -5.00865 0
M  V30 2490 H 229.792 -2.15865 -5.46513 0
M  V30 2491 H 231.316 -1.36334 -5.95185 0
M  V30 2492 H 232.73 -3.26626 -4.71156 0
M  V30 2493 H 231.127 -4.01607 -4.45905 0
M  V30 2494 H 232.197 -3.75326 -3.07016 0
M  V30 2495 N 233.54 1.10788 -1.12088 0
M  V30 2496 C 234.503 2.15207 -0.788577 0
M  V30 2497 C 235.503 1.59609 0.195317 0
M  V30 2498 O 236.693 1.74174 -0.0300193 0
M  V30 2499 C 233.825 3.4047 -0.171174 0
M  V30 2500 H 235.018 2.46116 -1.71368 0
M  V30 2501 H 232.571 1.26089 -0.923652 0
M  V30 2502 H 233.306 3.15176 0.763832 0
M  V30 2503 H 233.091 3.82109 -0.879514 0
M  V30 2504 H 234.581 4.17576 0.04496 0
M  V30 2505 N 235.018 0.912232 1.28515 0
M  V30 2506 C 235.981 0.404223 2.25607 0
M  V30 2507 C 236.981 -0.468602 1.53821 0
M  V30 2508 O 238.171 -0.271873 1.72065 0
M  V30 2509 C 235.303 -0.420653 3.38295 0
M  V30 2510 H 236.496 1.26188 2.7206 0
M  V30 2511 H 234.049 0.691495 1.40171 0
M  V30 2512 H 234.784 -1.29777 2.97201 0
M  V30 2513 H 234.569 0.204935 3.91564 0
M  V30 2514 H 236.059 -0.766971 4.10496 0
M  V30 2515 N 236.496 -1.42363 0.676048 0
M  V30 2516 C 237.912 -1.55811 0.345718 0
M  V30 2517 C 238.112 -1.65544 -1.14879 0
M  V30 2518 O 237.168 -1.62306 -1.93424 0
M  V30 2519 C 238.481 -2.80746 1.07713 0
M  V30 2520 C 240.029 -2.9452 1.05958 0
M  V30 2521 C 240.504 -4.22318 1.77233 0
M  V30 2522 N 241.995 -4.29233 1.74108 0
M  V30 2523 C 242.73 -5.26935 2.26113 0
M  V30 2524 N 242.226 -6.30783 2.86505 0
M  V30 2525 N 244.019 -5.18741 2.1648 0
M  V30 2526 H 236.17 -1.34289 1.6456 0
M  V30 2527 H 238.433 -0.646506 0.69335 0
M  V30 2528 H 238.139 -2.79696 2.13221 0
M  V30 2529 H 238.013 -3.71676 0.64316 0
M  V30 2530 H 240.4 -2.95097 0.0128255 0
M  V30 2531 H 240.481 -2.04817 1.53244 0
M  V30 2532 H 240.125 -4.22502 2.81877 0
M  V30 2533 H 240.055 -5.10958 1.27396 0
M  V30 2534 H 242.546 -3.54814 1.30059 0
M  V30 2535 H 242.859 -7.01691 3.23805 0
M  V30 2536 H 241.204 -6.31341 2.90575 0
M  V30 2537 H 244.395 -4.36533 1.68987 0
M  V30 2538 H 244.568 -5.94721 2.57316 0
M  V30 2539 N 237.974 -0.419461 -1.51915 0
M  V30 2540 C 238.922 0.415502 -2.28859 0
M  V30 2541 C 239.916 1.03674 -1.3397 0
M  V30 2542 O 241.122 0.973757 -1.51387 0
M  V30 2543 H 237.497 0.152786 -0.736315 0
M  V30 2544 H 239.468 -0.254531 -2.97312 0
M  V30 2545 C 238.217 1.51425 -3.12995 0
M  V30 2546 H 237.54 1.04556 -3.85886 0
M  V30 2547 H 238.98 2.07208 -3.6992 0
M  V30 2548 C 237.439 2.48745 -2.27217 0
M  V30 2549 O 237.969 3.52871 -1.9195 0
M  V30 2550 N 236.175 2.19202 -1.90785 0
M  V30 2551 H 235.722 1.34556 -2.19664 0
M  V30 2552 H 235.68 2.84561 -1.33687 0
M  V30 2553 N 239.452 1.56882 -0.150215 0
M  V30 2554 C 240.382 2.19935 0.784284 0
M  V30 2555 C 241.363 1.14854 1.25469 0
M  V30 2556 O 242.548 1.43209 1.31168 0
M  V30 2557 C 239.678 2.82349 2.02229 0
M  V30 2558 C 238.632 3.93285 1.68853 0
M  V30 2559 C 237.958 4.42649 2.99944 0
M  V30 2560 C 239.258 5.13904 0.932714 0
M  V30 2561 H 240.952 2.9828 0.258781 0
M  V30 2562 H 238.498 1.43473 0.123029 0
M  V30 2563 H 240.451 3.25126 2.68088 0
M  V30 2564 H 239.175 2.0134 2.57157 0
M  V30 2565 H 237.834 3.5113 1.05371 0
M  V30 2566 H 237.482 3.58458 3.52869 0
M  V30 2567 H 237.182 5.17476 2.78374 0
M  V30 2568 H 238.706 4.88099 3.66868 0
M  V30 2569 H 240.12 5.53506 1.49345 0
M  V30 2570 H 238.517 5.94515 0.81684 0
M  V30 2571 H 239.587 4.84842 -0.0749568 0
M  V30 2572 N 240.93 -0.123565 1.57115 0
M  V30 2573 C 242.16 -0.845233 1.88519 0
M  V30 2574 C 242.568 -1.74168 0.739064 0
M  V30 2575 O 241.911 -1.81244 -0.299355 0
M  V30 2576 C 241.973 -1.73452 3.14888 0
M  V30 2577 C 241.637 -1.01285 4.45635 0
M  V30 2578 C 242.634 -0.355774 5.18681 0
M  V30 2579 C 240.319 -0.99538 4.92339 0
M  V30 2580 C 242.313 0.309114 6.3665 0
M  V30 2581 C 240 -0.32669 6.10226 0
M  V30 2582 C 240.998 0.324406 6.82229 0
M  V30 2583 O 240.686 0.982437 7.97874 0
M  V30 2584 H 240.418 -0.248534 0.628655 0
M  V30 2585 H 242.972 -0.113907 2.05084 0
M  V30 2586 H 241.202 -2.50737 2.94394 0
M  V30 2587 H 242.891 -2.33021 3.32349 0
M  V30 2588 H 243.657 -0.360918 4.83655 0
M  V30 2589 H 239.536 -1.49159 4.36202 0
M  V30 2590 H 243.08 0.8179 6.92789 0
M  V30 2591 H 238.977 -0.319294 6.4471 0
M  V30 2592 H 239.745 0.886454 8.13686 0
M  V30 2593 N 242.408 -1.52605 -0.393616 0
M  V30 2594 C 243.355 -1.77055 -1.48054 0
M  V30 2595 C 244.325 -0.61358 -1.54352 0
M  V30 2596 O 245.51 -0.852806 -1.70681 0
M  V30 2597 C 242.65 -1.94108 -2.85335 0
M  V30 2598 C 241.763 -3.21792 -2.88226 0
M  V30 2599 C 240.898 -3.29188 -4.16904 0
M  V30 2600 C 239.937 -4.51013 -4.13828 0
M  V30 2601 N 239.074 -4.55716 -5.34105 0
M  V30 2602 H 243.914 -2.69815 -1.26506 0
M  V30 2603 H 241.451 -1.33683 -0.61379 0
M  V30 2604 H 243.409 -2.01979 -3.65049 0
M  V30 2605 H 242.039 -1.04713 -3.05344 0
M  V30 2606 H 241.091 -3.23015 -2.00911 0
M  V30 2607 H 242.403 -4.11557 -2.8182 0
M  V30 2608 H 241.557 -3.36216 -5.05018 0
M  V30 2609 H 240.296 -2.37389 -4.26026 0
M  V30 2610 H 239.301 -4.44115 -3.24102 0
M  V30 2611 H 240.526 -5.44123 -4.06333 0
M  V30 2612 H 238.472 -3.66807 -5.43865 0
M  V30 2613 H 238.389 -5.39346 -5.29756 0
M  V30 2614 H 239.657 -4.66993 -6.2413 0
M  V30 2615 N 243.887 0.651787 -1.4349 0
M  V30 2616 C 245.133 1.41376 -1.45398 0
M  V30 2617 C 245.466 1.94041 -0.0784823 0
M  V30 2618 O 244.741 1.72379 0.900878 0
M  V30 2619 C 245.024 2.59414 -2.49752 0
M  V30 2620 C 244.877 2.12232 -3.96582 0
M  V30 2621 C 246.196 3.61626 -2.50827 0
M  V30 2622 H 243.315 0.512719 -0.529422 0
M  V30 2623 H 245.957 0.738796 -1.75048 0
M  V30 2624 H 244.107 3.16997 -2.246 0
M  V30 2625 H 245.779 1.59639 -4.32797 0
M  V30 2626 H 244.022 1.43592 -4.09346 0
M  V30 2627 H 244.693 2.9712 -4.65214 0
M  V30 2628 H 247.169 3.13805 -2.7325 0
M  V30 2629 H 246.045 4.41766 -3.25783 0
M  V30 2630 H 246.306 4.14314 -1.5426 0
M  V30 2631 N 245.365 1.30045 0.890287 0
M  V30 2632 C 246.642 1.09227 1.62262 0
M  V30 2633 C 247.022 -0.360305 2.08002 0
M  V30 2634 O 246.37 -1.35084 1.84295 0
M  V30 2635 C 246.58 2.08835 2.79623 0
M  V30 2636 C 247.928 2.40266 3.50082 0
M  V30 2637 O 248.952 2.07104 2.89804 0
M  V30 2638 O 247.811 2.96967 4.58773 0
M  V30 2639 H 244.905 0.419132 0.712922 0
M  V30 2640 H 247.451 1.41451 0.937529 0
M  V30 2641 H 246.223 3.06633 2.43089 0
M  V30 2642 H 245.846 1.77397 3.55832 0
M  V30 2643 N 246.843 -1.10192 1.12674 0
M  V30 2644 C 248.089 -1.82475 0.884915 0
M  V30 2645 C 248.422 -1.85093 -0.58773 0
M  V30 2646 O 247.697 -1.3134 -1.43457 0
M  V30 2647 C 247.98 -3.29018 1.46353 0
M  V30 2648 C 247.833 -3.34718 3.00473 0
M  V30 2649 C 249.152 -4.25473 1.12519 0
M  V30 2650 H 246.271 -0.662492 0.322915 0
M  V30 2651 H 248.913 -1.2913 1.39375 0
M  V30 2652 H 247.063 -3.74576 1.03077 0
M  V30 2653 H 248.735 -2.97622 3.52447 0
M  V30 2654 H 246.978 -2.74541 3.35872 0
M  V30 2655 H 247.649 -4.37918 3.36053 0
M  V30 2656 H 250.125 -3.88161 1.499 0
M  V30 2657 H 249.001 -5.26365 1.55663 0
M  V30 2658 H 249.262 -4.42084 0.0377407 0
M  V30 2659 N 248.321 -0.919034 -1.28029 0
M  V30 2660 C 249.737 -0.617972 -1.4715 0
M  V30 2661 C 249.937 0.835242 -1.83374 0
M  V30 2662 O 248.993 1.61388 -1.94191 0
M  V30 2663 C 250.306 -1.56041 -2.57044 0
M  V30 2664 C 251.854 -1.56769 -2.7091 0
M  V30 2665 C 252.329 -2.49688 -3.83953 0
M  V30 2666 N 253.82 -2.47845 -3.91314 0
M  V30 2667 C 254.555 -3.16437 -4.78179 0
M  V30 2668 N 254.051 -3.94376 -5.69596 0
M  V30 2669 N 255.844 -3.05498 -4.71834 0
M  V30 2670 H 247.995 -1.85866 -1.02798 0
M  V30 2671 H 250.258 -0.797506 -0.512531 0
M  V30 2672 H 249.964 -2.59671 -2.372 0
M  V30 2673 H 249.838 -1.29551 -3.54255 0
M  V30 2674 H 252.225 -0.538745 -2.90141 0
M  V30 2675 H 252.306 -1.87305 -1.74214 0
M  V30 2676 H 251.95 -3.52688 -3.65477 0
M  V30 2677 H 251.88 -2.16453 -4.80058 0
M  V30 2678 H 254.371 -1.91234 -3.25941 0
M  V30 2679 H 254.684 -4.43721 -6.32718 0
M  V30 2680 H 253.029 -3.98481 -5.69419 0
M  V30 2681 H 256.22 -2.44108 -3.99411 0
M  V30 2682 H 256.393 -3.59225 -5.39316 0
M  V30 2683 N 249.799 1.42003 -0.683588 0
M  V30 2684 C 251.076 1.95112 -0.138075 0
M  V30 2685 C 251.456 1.62359 1.34918 0
M  V30 2686 O 250.804 0.924311 2.08971 0
M  V30 2687 C 251.014 3.46505 -0.416581 0
M  V30 2688 C 252.362 4.23254 -0.337834 0
M  V30 2689 O 253.386 3.54468 -0.35082 0
M  V30 2690 O 252.245 5.45743 -0.287596 0
M  V30 2691 H 249.339 0.826961 -0.00797996 0
M  V30 2692 H 251.885 1.51784 -0.758924 0
M  V30 2693 H 250.657 3.63582 -1.4465 0
M  V30 2694 H 250.28 3.969 0.235839 0
M  V30 2695 N 251.277 0.427512 1.51691 0
M  V30 2696 C 252.523 -0.142439 2.02299 0
M  V30 2697 C 252.856 -1.43214 1.31162 0
M  V30 2698 O 252.131 -1.89833 0.423511 0
M  V30 2699 C 252.414 -0.371301 3.58181 0
M  V30 2700 C 252.267 0.936358 4.39946 0
M  V30 2701 C 253.586 -1.14542 4.24933 0
M  V30 2702 H 250.705 -0.0502937 0.735282 0
M  V30 2703 H 253.347 0.564584 1.81418 0
M  V30 2704 H 251.497 -0.973559 3.76104 0
M  V30 2705 H 253.169 1.57184 4.33694 0
M  V30 2706 H 251.412 1.5432 4.05423 0
M  V30 2707 H 252.083 0.730388 5.47147 0
M  V30 2708 H 254.559 -0.635362 4.11221 0
M  V30 2709 H 253.435 -1.27431 5.33903 0
M  V30 2710 H 253.696 -2.17093 3.85127 0
M  V30 2711 N 252.755 -1.56801 0.158532 0
M  V30 2712 C 253.687 -2.14488 -0.807923 0
M  V30 2713 C 254.7 -1.09721 -1.20271 0
M  V30 2714 O 255.889 -1.36956 -1.14478 0
M  V30 2715 C 252.989 -2.66217 -2.09718 0
M  V30 2716 C 252.162 -3.95507 -1.86796 0
M  V30 2717 C 251.221 -4.3243 -2.99818 0
M  V30 2718 O 250.247 -5.00543 -2.71008 0
M  V30 2719 N 251.449 -3.92947 -4.27285 0
M  V30 2720 H 254.214 -2.98042 -0.314816 0
M  V30 2721 H 251.775 -1.61881 -0.0246692 0
M  V30 2722 H 253.767 -2.87924 -2.84398 0
M  V30 2723 H 252.337 -1.87324 -2.50257 0
M  V30 2724 H 251.557 -3.82309 -0.96089 0
M  V30 2725 H 252.845 -4.79972 -1.68833 0
M  V30 2726 H 252.243 -3.38087 -4.53557 0
M  V30 2727 H 250.8 -4.19681 -4.9871 0
M  V30 2728 N 254.233 0.115231 -1.57178 0
M  V30 2729 C 255.481 0.820727 -1.84685 0
M  V30 2730 C 255.802 1.80237 -0.744279 0
M  V30 2731 O 255.072 1.94529 0.231375 0
M  V30 2732 H 253.652 0.306084 -0.681411 0
M  V30 2733 H 256.314 0.101656 -1.94635 0
M  V30 2734 H 255.41 1.36366 -2.80733 0
M  V30 2735 N 255.711 1.52812 0.385517 0
M  V30 2736 C 256.96 1.67249 1.12741 0
M  V30 2737 C 257.273 0.4205 1.91027 0
M  V30 2738 O 258.479 0.445064 2.67827 0
M  V30 2739 C 256.935 2.95583 2.05326 0
M  V30 2740 C 256.543 4.27974 1.32447 0
M  V30 2741 C 258.287 3.19386 2.7963 0
M  V30 2742 C 256.194 5.47412 2.23818 0
M  V30 2743 H 255.124 0.6231 0.424573 0
M  V30 2744 H 257.775 1.79309 0.389924 0
M  V30 2745 H 256.157 2.77277 2.82725 0
M  V30 2746 H 257.331 4.56844 0.602495 0
M  V30 2747 H 255.646 4.10459 0.700885 0
M  V30 2748 H 258.243 4.05801 3.48181 0
M  V30 2749 H 258.586 2.34604 3.43899 0
M  V30 2750 H 259.119 3.38274 2.09322 0
M  V30 2751 H 255.858 6.34612 1.64157 0
M  V30 2752 H 255.378 5.22849 2.93921 0
M  V30 2753 H 257.057 5.81423 2.83824 0
M  V30 2754 N 257.189 -0.644168 1.43834 0
M  V30 2755 C 258.466 -1.40188 1.36406 0
M  V30 2756 C 258.846 -2.11094 0.0163124 0
M  V30 2757 O 258.194 -2.05426 -1.00062 0
M  V30 2758 C 258.404 -2.3791 2.55343 0
M  V30 2759 C 259.752 -3.01637 2.98832 0
M  V30 2760 O 260.776 -2.48237 2.55455 0
M  V30 2761 O 259.635 -3.98477 3.74003 0
M  V30 2762 H 256.729 -0.626773 0.539523 0
M  V30 2763 H 259.275 -0.670317 1.559 0
M  V30 2764 H 258.047 -1.84525 3.4506 0
M  V30 2765 H 257.67 -3.18503 2.37995 0
M  V30 2766 N 258.668 -1.30515 -0.883378 0
M  V30 2767 C 260.079 -1.17509 -1.45081 0
M  V30 2768 C 260.43 0.223605 -1.94922 0
M  V30 2769 O 259.555 1.12041 -1.85137 0
M  V30 2770 C 260.15 -2.12715 -2.63701 0
M  V30 2771 C 258.709 -2.03682 -3.16529 0
M  V30 2772 C 257.856 -2.02706 -1.89224 0
M  V30 2773 H 260.807 -1.42762 -0.693165 0
M  V30 2774 H 260.828 -1.70891 -3.39965 0
M  V30 2775 H 260.34 -3.14505 -2.27395 0
M  V30 2776 H 258.441 -1.05039 -3.57488 0
M  V30 2777 H 258.554 -2.92146 -3.7972 0
M  V30 2778 H 256.918 -1.4753 -2.07622 0
M  V30 2779 H 257.701 -3.06229 -1.55174 0
M  V30 2780 N 260.146 1.09593 -1.13257 0
M  V30 2781 C 261.392 1.82003 -0.89458 0
M  V30 2782 C 261.725 1.85402 0.577906 0
M  V30 2783 O 261 1.32099 1.42759 0
M  V30 2784 C 261.283 3.28237 -1.48096 0
M  V30 2785 C 261.136 3.3312 -3.02244 0
M  V30 2786 C 262.455 4.24871 -1.14774 0
M  V30 2787 H 259.574 0.66077 -0.326424 0
M  V30 2788 H 262.216 1.28389 -1.40058 0
M  V30 2789 H 260.366 3.74024 -1.05062 0
M  V30 2790 H 262.038 2.95748 -3.54021 0
M  V30 2791 H 260.281 2.72756 -3.37323 0
M  V30 2792 H 260.952 4.3613 -3.38371 0
M  V30 2793 H 263.428 3.87361 -1.51957 0
M  V30 2794 H 262.304 5.25532 -1.58452 0
M  V30 2795 H 262.565 4.42058 -0.0611849 0
M  V30 2796 N 261.624 0.925811 1.2754 0
M  V30 2797 C 262.849 0.580924 1.99098 0
M  V30 2798 C 263.274 -0.833555 1.68622 0
M  V30 2799 O 262.632 -1.55903 0.925422 0
M  V30 2800 C 262.68 0.811186 3.51358 0
M  V30 2801 O 261.784 -0.124129 4.12213 0
M  V30 2802 H 261.125 0.223873 0.625122 0
M  V30 2803 H 263.655 1.24455 1.62395 0
M  V30 2804 H 263.665 0.72601 4.01489 0
M  V30 2805 H 262.34 1.84227 3.72872 0
M  V30 2806 H 260.917 0.0108006 3.72898 0
M  V30 2807 N 263.102 -1.41638 0.69111 0
M  V30 2808 C 264.032 -2.3347 0.037248 0
M  V30 2809 C 265.013 -1.51575 -0.771947 0
M  V30 2810 O 266.198 -1.80126 -0.72582 0
M  V30 2811 C 263.328 -3.35354 -0.903064 0
M  V30 2812 C 262.282 -4.27526 -0.201288 0
M  V30 2813 C 261.608 -5.19747 -1.25565 0
M  V30 2814 C 262.908 -5.13959 0.929689 0
M  V30 2815 H 264.602 -2.88397 0.804227 0
M  V30 2816 H 262.148 -1.38669 0.388189 0
M  V30 2817 H 264.101 -3.98519 -1.36969 0
M  V30 2818 H 262.825 -2.78767 -1.70166 0
M  V30 2819 H 261.484 -3.65779 0.245265 0
M  V30 2820 H 261.132 -4.59479 -2.04666 0
M  V30 2821 H 260.832 -5.8225 -0.791128 0
M  V30 2822 H 262.356 -5.85789 -1.72288 0
M  V30 2823 H 263.77 -5.70718 0.543546 0
M  V30 2824 H 262.167 -5.85379 1.32103 0
M  V30 2825 H 263.237 -4.51389 1.77133 0
M  V30 2826 N 264.58 -0.43555 -1.51462 0
M  V30 2827 C 265.829 0.133007 -2.01261 0
M  V30 2828 C 266.142 1.43942 -1.32439 0
M  V30 2829 O 267.348 2.09081 -1.73198 0
M  V30 2830 C 265.804 0.287581 -3.58749 0
M  V30 2831 C 265.412 -1.00829 -4.36506 0
M  V30 2832 C 267.156 0.810004 -4.167 0
M  V30 2833 C 265.063 -0.819454 -5.85695 0
M  V30 2834 H 263.993 0.0534822 -0.752101 0
M  V30 2835 H 266.644 -0.565038 -1.74584 0
M  V30 2836 H 265.026 1.04859 -3.81865 0
M  V30 2837 H 266.2 -1.77749 -4.25138 0
M  V30 2838 H 264.515 -1.45911 -3.89999 0
M  V30 2839 H 267.112 0.967743 -5.2587 0
M  V30 2840 H 267.455 1.79196 -3.75758 0
M  V30 2841 H 267.988 0.107357 -3.97655 0
M  V30 2842 H 264.727 -1.77374 -6.31046 0
M  V30 2843 H 264.247 -0.0900208 -5.99732 0
M  V30 2844 H 265.926 -0.471949 -6.45276 0
M  V30 2845 N 266.058 1.56714 -0.166846 0
M  V30 2846 C 267.021 2.16539 0.751232 0
M  V30 2847 C 268.021 1.11228 1.16125 0
M  V30 2848 O 269.211 1.36765 1.07894 0
M  V30 2849 C 266.343 2.74462 2.02196 0
M  V30 2850 H 267.536 2.99013 0.230499 0
M  V30 2851 H 265.089 1.56081 0.0826982 0
M  V30 2852 H 265.824 1.95709 2.58589 0
M  V30 2853 H 265.609 3.51527 1.73698 0
M  V30 2854 H 267.099 3.20489 2.67725 0
M  V30 2855 N 267.536 -0.106894 1.57237 0
M  V30 2856 C 268.783 -0.812526 1.85484 0
M  V30 2857 C 269.111 -1.79304 0.753687 0
M  V30 2858 O 268.366 -1.94047 -0.253853 0
M  V30 2859 C 268.665 -1.58628 3.20268 0
M  V30 2860 C 268.331 -0.748967 4.44636 0
M  V30 2861 C 266.993 -0.518104 4.78403 0
M  V30 2862 C 269.345 -0.166122 5.20935 0
M  V30 2863 C 266.673 0.305659 5.85903 0
M  V30 2864 C 269.025 0.644899 6.29304 0
M  V30 2865 C 267.689 0.885965 6.61594 0
M  V30 2866 H 266.959 -0.297324 0.678734 0
M  V30 2867 H 269.606 -0.0744332 1.91355 0
M  V30 2868 H 267.911 -2.39562 3.10028 0
M  V30 2869 H 269.608 -2.13643 3.39349 0
M  V30 2870 H 266.198 -0.939006 4.18187 0
M  V30 2871 H 270.382 -0.33167 4.95191 0
M  V30 2872 H 265.638 0.501528 6.0934 0
M  V30 2873 H 269.812 1.10345 6.87602 0
M  V30 2874 H 267.439 1.52609 7.44725 0
M  V30 2875 N 269.014 -1.53014 -0.377408 0
M  V30 2876 C 270.291 -1.59215 -1.13622 0
M  V30 2877 C 270.671 -0.392407 -2.07421 0
M  V30 2878 O 270.019 0.618342 -2.19975 0
M  V30 2879 C 270.229 -2.93669 -1.88573 0
M  V30 2880 C 271.577 -3.47822 -2.43526 0
M  V30 2881 O 272.601 -2.9562 -1.98715 0
M  V30 2882 O 271.46 -4.39055 -3.25412 0
M  V30 2883 H 268.554 -0.642625 -0.52054 0
M  V30 2884 H 271.1 -1.65353 -0.381625 0
M  V30 2885 H 269.872 -3.7243 -1.20048 0
M  V30 2886 H 269.495 -2.90968 -2.70968 0
M  V30 2887 N 270.492 0.636531 -1.44174 0
M  V30 2888 C 271.439 1.74875 -1.50624 0
M  V30 2889 C 272.409 1.62275 -0.35442 0
M  V30 2890 O 273.594 1.82276 -0.563908 0
M  V30 2891 C 270.734 3.13102 -1.45125 0
M  V30 2892 C 269.847 3.36717 -2.7064 0
M  V30 2893 C 268.982 4.64885 -2.57013 0
M  V30 2894 C 268.021 4.8166 -3.77717 0
M  V30 2895 N 267.158 6.01101 -3.62798 0
M  V30 2896 H 271.998 1.68697 -2.45653 0
M  V30 2897 H 269.535 0.823004 -1.21922 0
M  V30 2898 H 271.493 3.93034 -1.39929 0
M  V30 2899 H 270.123 3.18308 -0.536671 0
M  V30 2900 H 269.175 2.50763 -2.86046 0
M  V30 2901 H 270.487 3.44993 -3.60252 0
M  V30 2902 H 269.641 5.52969 -2.49619 0
M  V30 2903 H 268.38 4.58957 -1.64953 0
M  V30 2904 H 267.385 3.92007 -3.85501 0
M  V30 2905 H 268.61 4.89406 -4.70807 0
M  V30 2906 H 266.556 5.96273 -2.73486 0
M  V30 2907 H 266.473 6.10409 -4.46023 0
M  V30 2908 H 267.741 6.91761 -3.59286 0
M  V30 2909 N 271.97 1.30982 0.876444 0
M  V30 2910 C 273.216 1.20474 1.63138 0
M  V30 2911 C 273.549 -0.238096 1.92735 0
M  V30 2912 O 272.824 -1.1692 1.55435 0
M  V30 2913 C 273.107 2.04244 2.96574 0
M  V30 2914 C 272.96 3.56793 2.73896 0
M  V30 2915 C 274.279 1.88684 3.97601 0
M  V30 2916 H 271.398 0.439001 0.591985 0
M  V30 2917 H 274.04 1.60704 1.01361 0
M  V30 2918 H 272.19 1.70063 3.493 0
M  V30 2919 H 273.862 4.01077 2.27892 0
M  V30 2920 H 272.105 3.80548 2.08245 0
M  V30 2921 H 272.776 4.10706 3.68815 0
M  V30 2922 H 275.252 2.18584 3.54062 0
M  V30 2923 H 274.128 2.4961 4.88862 0
M  V30 2924 H 274.389 0.848343 4.33884 0
M  V30 2925 N 273.449 -1.08991 1.13837 0
M  V30 2926 C 274.698 -1.80631 0.897509 0
M  V30 2927 C 275.011 -1.86872 -0.57777 0
M  V30 2928 O 276.217 -2.54866 -0.935701 0
M  V30 2929 C 274.673 -3.24517 1.55618 0
M  V30 2930 C 274.281 -3.26529 3.0673 0
M  V30 2931 C 276.025 -4.00882 1.3962 0
M  V30 2932 C 273.932 -4.64965 3.65461 0
M  V30 2933 H 272.862 -0.67691 0.332129 0
M  V30 2934 H 275.513 -1.2246 1.3666 0
M  V30 2935 H 273.895 -3.82778 1.01476 0
M  V30 2936 H 275.069 -2.78008 3.67489 0
M  V30 2937 H 273.384 -2.63656 3.22296 0
M  V30 2938 H 275.981 -5.03167 1.80906 0
M  V30 2939 H 276.324 -4.14896 0.341578 0
M  V30 2940 H 276.857 -3.49075 1.90766 0
M  V30 2941 H 273.596 -4.56153 4.70749 0
M  V30 2942 H 273.116 -5.13792 3.09481 0
M  V30 2943 H 274.795 -5.3394 3.654 0
M  V30 2944 N 274.927 -0.932562 -1.27047 0
M  V30 2945 C 276.173 -0.576412 -1.94436 0
M  V30 2946 C 276.506 0.880891 -1.73072 0
M  V30 2947 O 275.781 1.62905 -1.06264 0
M  V30 2948 C 276.064 -0.909031 -3.48437 0
M  V30 2949 C 275.917 -2.42044 -3.79123 0
M  V30 2950 C 277.236 -0.418341 -4.38107 0
M  V30 2951 H 274.355 -0.210888 -0.706184 0
M  V30 2952 H 276.997 -1.16522 -1.50075 0
M  V30 2953 H 275.147 -0.407947 -3.86352 0
M  V30 2954 H 276.819 -2.99359 -3.50973 0
M  V30 2955 H 275.062 -2.86758 -3.25503 0
M  V30 2956 H 275.733 -2.6037 -4.86736 0
M  V30 2957 H 278.209 -0.847856 -4.0737 0
M  V30 2958 H 277.085 -0.679981 -5.44672 0
M  V30 2959 H 277.346 0.681642 -4.36814 0
M  V30 2960 N 276.405 1.4127 -0.698611 0
M  V30 2961 C 277.633 2.05503 -0.239992 0
M  V30 2962 C 278.048 1.52584 1.11191 0
M  V30 2963 O 277.405 0.675323 1.69545 0
M  V30 2964 C 277.456 3.60987 -0.192429 0
M  V30 2965 O 277.177 4.1195 -1.49094 0
M  V30 2966 C 278.678 4.42371 0.28681 0
M  V30 2967 H 275.898 0.661748 -0.111045 0
M  V30 2968 H 278.442 1.80987 -0.95205 0
M  V30 2969 H 276.597 3.84533 0.470472 0
M  V30 2970 H 277.011 5.06018 -1.38007 0
M  V30 2971 H 278.485 5.51344 0.26896 0
M  V30 2972 H 278.962 4.18699 1.32619 0
M  V30 2973 H 279.568 4.23897 -0.345201 0
M  V30 2974 N 277.883 0.443576 1.51229 0
M  V30 2975 C 279.129 -0.120975 2.02439 0
M  V30 2976 C 279.462 -1.41815 1.32674 0
M  V30 2977 O 278.737 -1.89373 0.443622 0
M  V30 2978 C 279.02 -0.333291 3.58554 0
M  V30 2979 C 278.873 0.982968 4.38928 0
M  V30 2980 C 280.192 -1.10028 4.26124 0
M  V30 2981 H 277.311 -0.0424923 0.735774 0
M  V30 2982 H 279.953 0.583794 1.80809 0
M  V30 2983 H 278.103 -0.933614 3.77115 0
M  V30 2984 H 279.775 1.61775 4.32003 0
M  V30 2985 H 278.018 1.58611 4.03763 0
M  V30 2986 H 278.689 0.788379 5.46341 0
M  V30 2987 H 281.165 -0.591711 4.11871 0
M  V30 2988 H 280.041 -1.21761 5.35225 0
M  V30 2989 H 280.302 -2.12996 3.87408 0
M  V30 2990 N 279.361 -1.56624 0.175154 0
M  V30 2991 C 280.638 -1.88688 -0.515373 0
M  V30 2992 C 281.018 -1.08564 -1.81044 0
M  V30 2993 O 280.366 -0.180703 -2.27784 0
M  V30 2994 C 280.576 -3.40768 -0.753552 0
M  V30 2995 C 281.924 -4.10587 -1.08184 0
M  V30 2996 O 282.948 -3.46106 -0.841961 0
M  V30 2997 O 281.807 -5.24512 -1.53459 0
M  V30 2998 H 278.901 -0.78301 -0.26613 0
M  V30 2999 H 281.447 -1.68347 0.213877 0
M  V30 3000 H 280.219 -3.90965 0.161829 0
M  V30 3001 H 279.842 -3.66733 -1.53598 0
M  V30 3002 N 280.839 0.0985539 -1.57292 0
M  V30 3003 C 281.802 1.10402 -2.00858 0
M  V30 3004 C 282.802 1.33146 -0.901593 0
M  V30 3005 O 283.992 1.29318 -1.16716 0
M  V30 3006 C 281.124 2.45394 -2.36632 0
M  V30 3007 H 282.317 0.729099 -2.90902 0
M  V30 3008 H 279.87 0.343495 -1.52479 0
M  V30 3009 H 280.605 2.87769 -1.49531 0
M  V30 3010 H 280.39 2.30235 -3.17387 0
M  V30 3011 H 281.88 3.17718 -2.71007 0
M  V30 3012 N 282.317 1.53212 0.369288 0
M  V30 3013 C 283.563 1.69466 1.11397 0
M  V30 3014 C 283.896 0.443257 1.89074 0
M  V30 3015 O 283.171 -0.559386 1.86282 0
M  V30 3016 C 283.454 2.9422 2.07621 0
M  V30 3017 C 283.307 4.29508 1.33577 0
M  V30 3018 C 284.626 3.14565 3.07794 0
M  V30 3019 H 281.745 0.616667 0.403597 0
M  V30 3020 H 284.387 1.85845 0.395179 0
M  V30 3021 H 282.537 2.80387 2.68916 0
M  V30 3022 H 284.209 4.55147 0.750955 0
M  V30 3023 H 282.452 4.29088 0.637618 0
M  V30 3024 H 283.123 5.12926 2.03989 0
M  V30 3025 H 285.599 3.2756 2.56601 0
M  V30 3026 H 284.475 4.03297 3.72348 0
M  V30 3027 H 284.736 2.29675 3.77759 0
M  V30 3028 N 283.795 -0.628877 1.44509 0
M  V30 3029 C 284.742 -1.74074 1.51549 0
M  V30 3030 C 285.712 -1.62084 0.363021 0
M  V30 3031 O 286.897 -1.81975 0.573567 0
M  V30 3032 C 284.037 -3.12328 1.46784 0
M  V30 3033 C 283.15 -3.35277 2.72422 0
M  V30 3034 C 282.285 -4.63515 2.59475 0
M  V30 3035 C 281.324 -4.7965 3.80266 0
M  V30 3036 N 280.461 -5.99168 3.65981 0
M  V30 3037 H 285.301 -1.67392 2.46544 0
M  V30 3038 H 282.838 -0.816527 1.22357 0
M  V30 3039 H 284.796 -3.92286 1.42012 0
M  V30 3040 H 283.426 -3.18018 0.553544 0
M  V30 3041 H 282.478 -2.49242 2.87372 0
M  V30 3042 H 283.79 -3.43078 3.62076 0
M  V30 3043 H 282.944 -5.51638 2.52548 0
M  V30 3044 H 281.683 -4.58076 1.67384 0
M  V30 3045 H 280.688 -3.89957 3.87574 0
M  V30 3046 H 281.913 -4.86902 4.73395 0
M  V30 3047 H 279.859 -5.94814 2.76644 0
M  V30 3048 H 279.776 -6.08035 4.49254 0
M  V30 3049 H 281.044 -6.89846 3.6295 0
M  V30 3050 N 285.273 -1.31445 -0.869486 0
M  V30 3051 C 286.205 -1.14955 -1.98287 0
M  V30 3052 C 287.218 -0.0885037 -1.62559 0
M  V30 3053 O 288.407 -0.336044 -1.75308 0
M  V30 3054 C 285.507 -0.734255 -3.3085 0
M  V30 3055 C 284.68 -1.88042 -3.94917 0
M  V30 3056 C 283.739 -1.4511 -5.05796 0
M  V30 3057 O 282.765 -2.16082 -5.2659 0
M  V30 3058 N 283.967 -0.338763 -5.79511 0
M  V30 3059 H 286.732 -2.10856 -2.12979 0
M  V30 3060 H 284.293 -1.23786 -1.04349 0
M  V30 3061 H 286.285 -0.42975 -4.02412 0
M  V30 3062 H 284.855 0.133158 -3.12316 0
M  V30 3063 H 284.075 -2.35222 -3.1633 0
M  V30 3064 H 285.363 -2.6481 -4.34457 0
M  V30 3065 H 284.761 0.252274 -5.65137 0
M  V30 3066 H 283.318 -0.0937925 -6.51733 0
M  V30 3067 N 286.751 1.08385 -1.14413 0
M  V30 3068 C 288 1.80153 -0.907076 0
M  V30 3069 C 288.313 1.87176 0.567851 0
M  V30 3070 O 289.519 2.55359 0.922172 0
M  V30 3071 C 287.975 3.23687 -1.57336 0
M  V30 3072 C 287.583 3.24897 -3.08457 0
M  V30 3073 C 289.327 4.00136 -1.41744 0
M  V30 3074 C 287.234 4.6302 -3.67921 0
M  V30 3075 H 286.164 0.675139 -0.335714 0
M  V30 3076 H 288.815 1.21733 -1.37307 0
M  V30 3077 H 287.197 3.82234 -1.03505 0
M  V30 3078 H 288.371 2.76055 -3.68958 0
M  V30 3079 H 286.686 2.61943 -3.2369 0
M  V30 3080 H 289.283 5.02201 -1.83572 0
M  V30 3081 H 289.626 4.14709 -0.363576 0
M  V30 3082 H 290.159 3.48058 -1.92614 0
M  V30 3083 H 286.898 4.5365 -4.73161 0
M  V30 3084 H 286.418 5.12143 -3.12201 0
M  V30 3085 H 288.097 5.31994 -3.68227 0
M  V30 3086 N 288.23 0.939286 1.26551 0
M  V30 3087 C 289.14 0.453432 2.30176 0
M  V30 3088 C 290.156 -0.471649 1.67486 0
M  V30 3089 O 291.332 -0.35164 1.98306 0
M  V30 3090 C 288.397 -0.275326 3.45605 0
M  V30 3091 C 287.458 0.686084 4.23782 0
M  V30 3092 C 286.691 -0.00798994 5.33699 0
M  V30 3093 O 286.914 -1.22528 5.57085 0
M  V30 3094 O 285.848 0.669746 5.98162 0
M  V30 3095 H 289.674 1.31416 2.73795 0
M  V30 3096 H 287.259 0.705095 1.31715 0
M  V30 3097 H 289.141 -0.685911 4.1578 0
M  V30 3098 H 287.816 -1.11147 3.0402 0
M  V30 3099 H 286.723 1.14658 3.56096 0
M  V30 3100 H 288.056 1.48979 4.69112 0
M  V30 3101 N 289.708 -1.40897 0.706093 0
M  V30 3102 C 290.618 -2.3455 0.0482286 0
M  V30 3103 C 291.634 -1.56796 -0.754396 0
M  V30 3104 O 292.81 -1.89228 -0.689538 0
M  V30 3105 C 289.875 -3.35625 -0.869303 0
M  V30 3106 C 288.936 -4.29261 -0.0576994 0
M  V30 3107 C 288.169 -5.25508 -0.931531 0
M  V30 3108 O 288.392 -5.27472 -2.17092 0
M  V30 3109 O 287.326 -6.00727 -0.375587 0
M  V30 3110 H 291.152 -2.92407 0.820476 0
M  V30 3111 H 288.737 -1.4193 0.4665 0
M  V30 3112 H 290.619 -3.97635 -1.39514 0
M  V30 3113 H 289.294 -2.80196 -1.62086 0
M  V30 3114 H 288.201 -3.70566 0.512988 0
M  V30 3115 H 289.534 -4.87817 0.655426 0
M  V30 3116 N 291.186 -0.45159 -1.50991 0
M  V30 3117 C 292.435 0.111653 -2.01391 0
M  V30 3118 C 292.748 1.42529 -1.33959 0
M  V30 3119 O 293.954 2.07232 -1.75405 0
M  V30 3120 C 292.41 0.249514 -3.59034 0
M  V30 3121 C 292.018 -1.05453 -4.35412 0
M  V30 3122 C 293.762 0.765762 -4.17536 0
M  V30 3123 C 291.669 -0.881529 -5.84793 0
M  V30 3124 H 290.599 0.0455022 -0.752626 0
M  V30 3125 H 293.25 -0.583524 -1.73975 0
M  V30 3126 H 291.632 1.00803 -3.82955 0
M  V30 3127 H 292.806 -1.82248 -4.23229 0
M  V30 3128 H 291.121 -1.50039 -3.88429 0
M  V30 3129 H 293.718 0.911913 -5.26866 0
M  V30 3130 H 294.061 1.75201 -3.77638 0
M  V30 3131 H 294.594 0.0651744 -3.97747 0
M  V30 3132 H 291.333 -1.84057 -6.29129 0
M  V30 3133 H 290.853 -0.153625 -5.99603 0
M  V30 3134 H 292.532 -0.540363 -6.4474 0
M  V30 3135 N 292.664 1.56529 -0.183458 0
M  V30 3136 C 293.594 2.21549 0.737456 0
M  V30 3137 C 294.575 1.17489 1.23005 0
M  V30 3138 O 295.76 1.45959 1.281 0
M  V30 3139 C 292.89 2.86575 1.96194 0
M  V30 3140 C 291.844 3.96778 1.60473 0
M  V30 3141 C 291.17 4.48911 2.90487 0
M  V30 3142 C 292.47 5.15767 0.823497 0
M  V30 3143 H 294.164 2.98761 0.195453 0
M  V30 3144 H 291.71 1.43702 0.0925686 0
M  V30 3145 H 293.663 3.30739 2.61131 0
M  V30 3146 H 292.387 2.06749 2.52828 0
M  V30 3147 H 291.046 3.53286 0.978997 0
M  V30 3148 H 290.694 3.65862 3.45186 0
M  V30 3149 H 290.394 5.23265 2.67335 0
M  V30 3150 H 291.918 4.95771 3.56432 0
M  V30 3151 H 293.332 5.56549 1.37571 0
M  V30 3152 H 291.729 5.96114 0.690551 0
M  V30 3153 H 292.799 4.84574 -0.177782 0
M  V30 3154 N 294.142 -0.090211 1.57342 0
M  V30 3155 C 295.105 -1.09335 2.01441 0
M  V30 3156 C 296.105 -1.32666 0.908641 0
M  V30 3157 O 297.295 -1.28697 1.174 0
M  V30 3158 C 294.427 -2.44136 2.3793 0
M  V30 3159 H 295.62 -0.713662 2.91285 0
M  V30 3160 H 293.173 -0.335404 1.52659 0
M  V30 3161 H 293.908 -2.86972 1.51055 0
M  V30 3162 H 293.693 -2.28548 3.18603 0
M  V30 3163 H 295.183 -3.16277 2.72688 0
M  V30 3164 O 295.659 -1.59794 -0.234115 0
M  V30 3165 H 296.35 -1.72743 -0.876335 0
M  V30 END ATOM
M  V30 BEGIN BOND
M  V30 END BOND
M  V30 END CTAB
M  END
$$$$
