drugbank_target|P44469 Penicillin-binding protein 2 (DB00303; DB00671)
 OpenBabel12092119243D

  0  0  0     0  0            999 V3000
M  V30 BEGIN CTAB
M  V30 COUNTS 10439 10557 0 0 0
M  V30 BEGIN ATOM
M  V30 1 H -0.908 1.98254 -0.117106 0
M  V30 2 N 0 1.576 0 0
M  V30 3 C 0.933 2.03868 1.02534 0
M  V30 4 C 1.911 0.928543 1.3348 0
M  V30 5 O 3.095 1.19667 1.45644 0
M  V30 6 C 0.222 2.43627 2.35294 0
M  V30 7 C -0.732 3.65373 2.2001 0
M  V30 8 S 0.101 5.13292 1.52614 0
M  V30 9 C 1.257 5.56322 2.86805 0
M  V30 10 H 1.49 2.90518 0.631377 0
M  V30 11 H -0.977 1.52953 0.210867 0
M  V30 12 H 0.981 2.67203 3.11629 0
M  V30 13 H -0.358 1.57376 2.7183 0
M  V30 14 H -1.165 3.90944 3.18086 0
M  V30 15 H -1.563 3.418 1.51819 0
M  V30 16 H 0.729 5.58782 3.83104 0
M  V30 17 H 1.672 6.56266 2.65933 0
M  V30 18 H 2.08 4.83886 2.90714 0
M  V30 19 N 1.4781 -0.272755 1.55222 0
M  V30 20 C 2.4261 -1.35705 1.88909 0
M  V30 21 C 3.4201 -1.5112 0.765456 0
M  V30 22 O 4.6261 -1.52901 0.949802 0
M  V30 23 H 1.0011 -0.453868 0.59959 0
M  V30 24 H 2.9721 -1.04544 2.79487 0
M  V30 25 C 1.7211 -2.71049 2.17779 0
M  V30 26 H 1.0441 -2.59979 3.03728 0
M  V30 27 H 2.4841 -3.45858 2.45272 0
M  V30 28 C 0.9431 -3.22165 0.985473 0
M  V30 29 O 1.4731 -4.01096 0.220233 0
M  V30 30 N -0.3209 -2.7985 0.783108 0
M  V30 31 H -0.7739 -2.15775 1.40708 0
M  V30 32 H -0.8159 -3.14397 -0.0130392 0
M  V30 33 N 2.9562 -1.48159 -0.537278 0
M  V30 34 C 3.8862 -1.65029 -1.6519 0
M  V30 35 C 4.8672 -0.499281 -1.62607 0
M  V30 36 O 6.0522 -0.730972 -1.79918 0
M  V30 37 C 3.1822 -1.68303 -3.03795 0
M  V30 38 C 2.1362 -2.8283 -3.21234 0
M  V30 39 C 1.4622 -2.71189 -4.60826 0
M  V30 40 C 2.7622 -4.24211 -3.04701 0
M  V30 41 H 4.4562 -2.58341 -1.51328 0
M  V30 42 H 2.0022 -1.24325 -0.726585 0
M  V30 43 H 3.9552 -1.78693 -3.81637 0
M  V30 44 H 2.6792 -0.715635 -3.18663 0
M  V30 45 H 1.3382 -2.71983 -2.45807 0
M  V30 46 H 0.9862 -1.72435 -4.7252 0
M  V30 47 H 0.6862 -3.48035 -4.7344 0
M  V30 48 H 2.2102 -2.83537 -5.40777 0
M  V30 49 H 3.6242 -4.3593 -3.72341 0
M  V30 50 H 2.0212 -5.01998 -3.28813 0
M  V30 51 H 3.0912 -4.41184 -2.01209 0
M  V30 52 N 4.4343 0.785586 -1.36625 0
M  V30 53 C 5.3813 1.89838 -1.31264 0
M  V30 54 C 6.3513 1.65115 -0.180633 0
M  V30 55 O 7.5363 1.87222 -0.36777 0
M  V30 56 C 4.6763 3.26706 -1.11163 0
M  V30 57 C 3.7893 3.63476 -2.33472 0
M  V30 58 C 2.9243 4.89481 -2.06353 0
M  V30 59 C 1.9633 5.18941 -3.24602 0
M  V30 60 N 1.1003 6.36131 -2.97123 0
M  V30 61 H 5.9403 1.93756 -2.26413 0
M  V30 62 H 3.4773 0.947454 -1.12524 0
M  V30 63 H 5.4353 4.05639 -0.975337 0
M  V30 64 H 4.0653 3.222 -0.196674 0
M  V30 65 H 3.1173 2.79636 -2.57891 0
M  V30 66 H 4.4293 3.81193 -3.21704 0
M  V30 67 H 3.5833 5.76288 -1.89675 0
M  V30 68 H 2.3223 4.73841 -1.15437 0
M  V30 69 H 1.3273 4.30615 -3.41834 0
M  V30 70 H 2.5523 5.36498 -4.16349 0
M  V30 71 H 0.4983 6.21875 -2.08823 0
M  V30 72 H 0.4153 6.54198 -3.78894 0
M  V30 73 H 1.6833 7.2591 -2.84033 0
M  V30 74 N 5.9124 1.20967 1.01018 0
M  V30 75 C 6.8594 0.964281 2.09691 0
M  V30 76 C 7.8294 -0.107853 1.65749 0
M  V30 77 O 9.0144 0.0381987 1.90762 0
M  V30 78 C 6.1544 0.52943 3.41015 0
M  V30 79 C 5.2674 1.67043 3.98398 0
M  V30 80 C 4.4024 1.18525 5.17808 0
M  V30 81 C 3.4414 2.29892 5.67288 0
M  V30 82 N 2.5784 1.82546 6.77954 0
M  V30 83 H 7.4184 1.89463 2.30017 0
M  V30 84 H 4.9554 0.944289 1.1279 0
M  V30 85 H 6.9134 0.258588 4.16398 0
M  V30 86 H 5.5434 -0.363919 3.20742 0
M  V30 87 H 4.5954 2.05603 3.20049 0
M  V30 88 H 5.9074 2.50877 4.31117 0
M  V30 89 H 5.0614 0.870762 6.00419 0
M  V30 90 H 3.8004 0.316887 4.86669 0
M  V30 91 H 2.8054 2.6215 4.83278 0
M  V30 92 H 4.0304 3.17216 6.00459 0
M  V30 93 H 1.9764 0.980454 6.48632 0
M  V30 94 H 1.8934 2.59956 7.09901 0
M  V30 95 H 3.1614 1.54115 7.64113 0
M  V30 96 N 7.3905 -1.2043 1.01659 0
M  V30 97 C 8.6375 -1.89797 0.705917 0
M  V30 98 C 8.9655 -1.78848 -0.764439 0
M  V30 99 O 8.2205 -1.16694 -1.57102 0
M  V30 100 C 8.5195 -3.40464 1.08714 0
M  V30 101 C 8.1855 -3.71614 2.5537 0
M  V30 102 C 6.8475 -3.79826 2.95441 0
M  V30 103 C 9.1995 -3.85915 3.50313 0
M  V30 104 C 6.5275 -3.99797 4.29394 0
M  V30 105 C 8.8795 -4.07396 4.83954 0
M  V30 106 C 7.5435 -4.13837 5.23732 0
M  V30 107 H 6.8135 -0.694518 0.258313 0
M  V30 108 H 9.4605 -1.42691 1.27717 0
M  V30 109 H 7.7655 -3.89385 0.434309 0
M  V30 110 H 9.4625 -3.92433 0.824461 0
M  V30 111 H 6.0525 -3.65822 2.23321 0
M  V30 112 H 10.2365 -3.78926 3.20513 0
M  V30 113 H 5.4925 -4.03018 4.59768 0
M  V30 114 H 9.6665 -4.17404 5.57447 0
M  V30 115 H 7.2935 -4.29064 6.27541 0
M  V30 116 N 8.8686 -0.792821 -1.36206 0
M  V30 117 C 10.1156 -0.366786 -1.99151 0
M  V30 118 C 10.4436 1.06243 -1.62919 0
M  V30 119 O 9.6986 1.74927 -0.877442 0
M  V30 120 C 9.9976 -0.481501 -3.54142 0
M  V30 121 C 9.6636 -1.87202 -4.10203 0
M  V30 122 C 8.3256 -2.25248 -4.25226 0
M  V30 123 C 10.6776 -2.78237 -4.40719 0
M  V30 124 C 8.0056 -3.53723 -4.68078 0
M  V30 125 C 10.3576 -4.06144 -4.85005 0
M  V30 126 C 9.0216 -4.44207 -4.98234 0
M  V30 127 H 8.2916 -0.134217 -0.728743 0
M  V30 128 H 10.9386 -1.01094 -1.62641 0
M  V30 129 H 9.2436 0.246146 -3.91026 0
M  V30 130 H 10.9406 -0.132844 -4.0078 0
M  V30 131 H 7.5306 -1.56639 -3.98951 0
M  V30 132 H 11.7146 -2.50097 -4.28679 0
M  V30 133 H 6.9706 -3.8308 -4.76508 0
M  V30 134 H 11.1446 -4.76796 -5.07581 0
M  V30 135 H 8.7716 -5.43814 -5.31197 0
M  V30 136 N 10.3467 1.47872 -0.545128 0
M  V30 137 C 11.2947 2.31533 0.222512 0
M  V30 138 C 12.2887 1.42177 0.920985 0
M  V30 139 O 13.4947 1.59005 0.843645 0
M  V30 140 H 9.8697 0.746519 0.0906278 0
M  V30 141 H 11.8407 2.94139 -0.50246 0
M  V30 142 C 10.5897 3.2457 1.24699 0
M  V30 143 H 9.9127 3.93283 0.718944 0
M  V30 144 H 11.3527 3.85963 1.75523 0
M  V30 145 C 9.8117 2.47237 2.28856 0
M  V30 146 O 10.3417 2.20808 3.35569 0
M  V30 147 N 8.5477 2.08461 2.02466 0
M  V30 148 H 8.0947 2.30155 1.157 0
M  V30 149 H 8.0527 1.57033 2.72375 0
M  V30 150 N 11.8248 0.280983 1.55075 0
M  V30 151 C 13.0528 -0.337293 2.04132 0
M  V30 152 C 13.4678 -1.4903 1.15912 0
M  V30 153 O 12.8248 -1.81606 0.180459 0
M  V30 154 C 12.8758 -0.812706 3.52246 0
M  V30 155 O 12.5968 0.294387 4.3711 0
M  V30 156 C 14.0978 -1.4982 4.17216 0
M  V30 157 H 11.3178 -0.0761638 0.666663 0
M  V30 158 H 13.8618 0.414787 2.00249 0
M  V30 159 H 12.0168 -1.51486 3.56554 0
M  V30 160 H 12.4308 -0.0721325 5.2445 0
M  V30 161 H 13.9048 -1.7822 5.22438 0
M  V30 162 H 14.3818 -2.43168 3.65741 0
M  V30 163 H 14.9878 -0.839742 4.16927 0
M  V30 164 N 13.3029 -1.57598 0.00835791 0
M  V30 165 C 14.7139 -1.7892 -0.53333 0
M  V30 166 C 15.0649 -0.916609 -1.73473 0
M  V30 167 O 14.1899 -0.121336 -2.1606 0
M  V30 168 C 14.7849 -3.24488 -0.974313 0
M  V30 169 C 13.3439 -3.46878 -1.46125 0
M  V30 170 C 12.4909 -2.74157 -0.416302 0
M  V30 171 H 15.4419 -1.56958 0.234495 0
M  V30 172 H 15.4629 -3.3306 -1.83988 0
M  V30 173 H 14.9749 -3.87972 -0.099718 0
M  V30 174 H 13.0759 -2.8862 -2.35646 0
M  V30 175 H 13.1889 -4.55572 -1.48295 0
M  V30 176 H 11.5529 -2.39022 -0.87981 0
M  V30 177 H 12.3359 -3.40345 0.44947 0
M  V30 178 N 14.781 0.264519 -1.55364 0
M  V30 179 C 16.009 1.013 -1.80405 0
M  V30 180 C 16.424 1.79618 -0.581622 0
M  V30 181 O 15.781 1.76879 0.449468 0
M  V30 182 C 15.832 1.96487 -3.03439 0
M  V30 183 O 15.553 1.21341 -4.20961 0
M  V30 184 C 17.054 2.83079 -3.41147 0
M  V30 185 H 14.274 0.298875 -0.600762 0
M  V30 186 H 16.818 0.292736 -2.02394 0
M  V30 187 H 14.973 2.63965 -2.83551 0
M  V30 188 H 15.387 1.85573 -4.90574 0
M  V30 189 H 16.861 3.4565 -4.30384 0
M  V30 190 H 17.338 3.53286 -2.60932 0
M  V30 191 H 17.944 2.2108 -3.63323 0
M  V30 192 N 16.2591 1.48442 0.529413 0
M  V30 193 C 17.2091 1.59407 1.63014 0
M  V30 194 C 18.1931 0.451166 1.54445 0
M  V30 195 O 19.3851 0.702635 1.62456 0
M  V30 196 C 16.5141 1.63746 3.01732 0
M  V30 197 C 15.6001 2.83518 3.15402 0
M  V30 198 N 15.9911 4.07929 2.99045 0
M  V30 199 C 14.2891 2.80862 3.46457 0
M  V30 200 C 14.9901 4.8829 3.16146 0
M  V30 201 N 13.9661 4.21117 3.43746 0
M  V30 202 H 17.7681 2.53343 1.48978 0
M  V30 203 H 15.2821 1.44821 0.734885 0
M  V30 204 H 17.2791 1.69695 3.80801 0
M  V30 205 H 15.9391 0.709264 3.16859 0
M  V30 206 H 16.9501 4.38357 2.75796 0
M  V30 207 H 13.6271 1.97301 3.67938 0
M  V30 208 H 15.0171 5.97028 3.08232 0
M  V30 209 N 17.7372 -0.778329 1.37039 0
M  V30 210 C 18.6472 -1.92253 1.34446 0
M  V30 211 C 19.6632 -1.72267 0.244991 0
M  V30 212 O 20.8392 -1.95615 0.479258 0
M  V30 213 C 17.9042 -3.27282 1.144 0
M  V30 214 C 16.9652 -3.59969 2.33925 0
M  V30 215 C 16.1982 -4.88555 2.14825 0
M  V30 216 O 16.4212 -5.59113 1.12912 0
M  V30 217 O 15.3552 -5.20153 3.02861 0
M  V30 218 H 19.1812 -1.97392 2.30803 0
M  V30 219 H 16.7662 -0.920154 1.17701 0
M  V30 220 H 18.6482 -4.08062 1.05182 0
M  V30 221 H 17.3232 -3.23011 0.211124 0
M  V30 222 H 16.2302 -2.7945 2.48714 0
M  V30 223 H 17.5632 -3.68976 3.25757 0
M  V30 224 N 19.2153 -1.21501 -1.00376 0
M  V30 225 C 20.6263 -1.03146 -1.55621 0
M  V30 226 C 20.9773 0.408375 -1.91903 0
M  V30 227 O 20.1023 1.29177 -1.73616 0
M  V30 228 C 20.6973 -1.86612 -2.82775 0
M  V30 229 C 19.2563 -1.72586 -3.34501 0
M  V30 230 C 18.4033 -1.83747 -2.07683 0
M  V30 231 H 21.3543 -1.35505 -0.826081 0
M  V30 232 H 21.3753 -1.3771 -3.54706 0
M  V30 233 H 20.8873 -2.91399 -2.56336 0
M  V30 234 H 18.9883 -0.704877 -3.65872 0
M  V30 235 H 19.1013 -2.54623 -4.05837 0
M  V30 236 H 17.4653 -1.27069 -2.20739 0
M  V30 237 H 18.2483 -2.90044 -1.83655 0
M  V30 238 N 20.6934 1.19889 -1.02296 0
M  V30 239 C 21.9404 1.8942 -0.715972 0
M  V30 240 C 22.2684 1.79251 0.754944 0
M  V30 241 O 21.5234 1.17526 1.56481 0
M  V30 242 C 21.8224 3.39883 -1.10518 0
M  V30 243 C 21.4884 3.70254 -2.57337 0
M  V30 244 C 20.1504 3.78254 -2.97452 0
M  V30 245 C 22.5024 3.84052 -3.52354 0
M  V30 246 C 19.8304 3.97514 -4.31509 0
M  V30 247 C 22.1824 4.04824 -4.86108 0
M  V30 248 C 20.8464 4.11054 -5.25919 0
M  V30 249 H 20.1164 0.693138 -0.261993 0
M  V30 250 H 22.7634 1.42012 -1.28472 0
M  V30 251 H 21.0684 3.8915 -0.454953 0
M  V30 252 H 22.7654 3.9199 -0.845261 0
M  V30 253 H 19.3554 3.64632 -2.25258 0
M  V30 254 H 23.5394 3.77221 -3.22518 0
M  V30 255 H 18.7954 4.00574 -4.61898 0
M  V30 256 H 22.9694 4.14442 -5.59653 0
M  V30 257 H 20.5964 4.2573 -6.29808 0
M  V30 258 N 22.1715 0.800033 1.35784 0
M  V30 259 C 23.5875 0.482977 1.52117 0
M  V30 260 C 23.7875 -0.996948 1.75109 0
M  V30 261 O 22.8435 -1.78216 1.78872 0
M  V30 262 C 24.1565 1.32264 2.70049 0
M  V30 263 C 25.7045 1.31742 2.83924 0
M  V30 264 C 26.1795 2.14106 4.04874 0
M  V30 265 N 27.6705 2.11607 4.12039 0
M  V30 266 C 28.4055 2.72099 5.04727 0
M  V30 267 N 27.9015 3.41492 6.02789 0
M  V30 268 N 29.6945 2.61776 4.97423 0
M  V30 269 H 21.8455 1.75856 1.19115 0
M  V30 270 H 24.1085 0.748122 0.582252 0
M  V30 271 H 23.8145 2.37261 2.59616 0
M  V30 272 H 23.6885 0.971303 3.6448 0
M  V30 273 H 26.0755 0.275333 2.93813 0
M  V30 274 H 26.1565 1.70859 1.9037 0
M  V30 275 H 25.8005 3.18351 3.95746 0
M  V30 276 H 25.7305 1.72353 4.97596 0
M  V30 277 H 28.2215 1.61112 3.41835 0
M  V30 278 H 28.5345 3.84953 6.70098 0
M  V30 279 H 26.8795 3.45596 6.02983 0
M  V30 280 H 30.0705 2.07157 4.19766 0
M  V30 281 H 30.2435 3.0921 5.69468 0
M  V30 282 N 23.6496 -1.47581 0.552962 0
M  V30 283 C 24.9266 -1.95563 -0.0381515 0
M  V30 284 C 25.3066 -1.49552 -1.48988 0
M  V30 285 O 24.6546 -0.732414 -2.16444 0
M  V30 286 C 24.8646 -3.48848 0.102919 0
M  V30 287 C 26.2126 -4.24577 -0.0446082 0
M  V30 288 O 27.2366 -3.56187 0.0302548 0
M  V30 289 O 26.0956 -5.46116 -0.204923 0
M  V30 290 H 23.1896 -0.824321 -0.0665067 0
M  V30 291 H 25.7356 -1.58001 0.619186 0
M  V30 292 H 24.5076 -3.75129 1.11328 0
M  V30 293 H 24.1306 -3.93165 -0.592224 0
M  V30 294 N 25.1277 -0.289203 -1.54924 0
M  V30 295 C 26.0747 0.592115 -2.23075 0
M  V30 296 C 27.0447 1.13881 -1.20915 0
M  V30 297 O 28.2297 1.18551 -1.495 0
M  V30 298 C 25.3697 1.76376 -2.96623 0
M  V30 299 C 24.4827 1.24959 -4.13533 0
M  V30 300 C 23.6177 2.38416 -4.74691 0
M  V30 301 C 22.6567 1.84072 -5.83767 0
M  V30 302 N 21.7937 2.91057 -6.38929 0
M  V30 303 H 26.6337 0.00432038 -2.98 0
M  V30 304 H 24.1707 -0.00963529 -1.47097 0
M  V30 305 H 26.1287 2.45268 -3.3749 0
M  V30 306 H 24.7587 2.32337 -2.24097 0
M  V30 307 H 23.8107 0.453307 -3.77689 0
M  V30 308 H 25.1227 0.811662 -4.92152 0
M  V30 309 H 24.2767 3.15276 -5.18349 0
M  V30 310 H 23.0157 2.8553 -3.95378 0
M  V30 311 H 22.0207 1.05697 -5.39545 0
M  V30 312 H 23.2457 1.37877 -6.64956 0
M  V30 313 H 21.1917 3.37526 -5.62505 0
M  V30 314 H 21.1087 2.51724 -7.12861 0
M  V30 315 H 22.3767 3.6785 -6.87246 0
M  V30 316 N 26.6058 1.57591 -0.0167156 0
M  V30 317 C 27.5528 2.09462 0.969251 0
M  V30 318 C 28.5228 0.99381 1.33089 0
M  V30 319 O 29.7078 1.26726 1.42636 0
M  V30 320 C 26.8478 2.61622 2.25051 0
M  V30 321 C 25.9608 3.85666 1.94642 0
M  V30 322 C 25.0958 4.26266 3.16972 0
M  V30 323 C 24.1348 5.43101 2.82326 0
M  V30 324 N 23.2718 5.78915 3.97243 0
M  V30 325 H 28.1118 2.93428 0.519997 0
M  V30 326 H 25.6488 1.45044 0.245087 0
M  V30 327 H 27.6068 2.89949 2.99976 0
M  V30 328 H 26.2368 1.80505 2.67615 0
M  V30 329 H 25.2888 3.64145 1.10013 0
M  V30 330 H 26.6008 4.70678 1.65117 0
M  V30 331 H 25.7548 4.55963 4.00228 0
M  V30 332 H 24.4938 3.39996 3.49648 0
M  V30 333 H 23.4988 5.1311 1.97479 0
M  V30 334 H 24.7238 6.3106 2.50879 0
M  V30 335 H 22.6698 4.95602 4.29785 0
M  V30 336 H 22.5868 6.58539 3.71299 0
M  V30 337 H 23.8548 6.13212 4.81239 0
M  V30 338 N 28.0839 -0.256276 1.55502 0
M  V30 339 C 29.0469 -1.30047 1.88734 0
M  V30 340 C 30.0469 -1.4154 0.763086 0
M  V30 341 O 31.2369 -1.40403 1.03115 0
M  V30 342 C 28.3689 -2.67953 2.10747 0
M  V30 343 H 29.5619 -1.01802 2.82093 0
M  V30 344 H 27.1149 -0.495134 1.4825 0
M  V30 345 H 27.8499 -3.01351 1.19825 0
M  V30 346 H 27.6349 -2.60993 2.92617 0
M  V30 347 H 29.1249 -3.43368 2.37673 0
M  V30 348 N 29.562 -1.4872 -0.521534 0
M  V30 349 C 30.472 -1.66569 -1.65203 0
M  V30 350 C 31.488 -0.548197 -1.65139 0
M  V30 351 O 32.664 -0.820339 -1.83936 0
M  V30 352 C 29.729 -1.70917 -3.01642 0
M  V30 353 C 28.79 -2.94356 -3.12495 0
M  V30 354 C 28.023 -2.98487 -4.42426 0
M  V30 355 O 28.246 -2.10786 -5.30024 0
M  V30 356 O 27.18 -3.90746 -4.57822 0
M  V30 357 H 31.006 -2.62298 -1.5308 0
M  V30 358 H 28.591 -1.3222 -0.695565 0
M  V30 359 H 30.473 -1.7625 -3.82771 0
M  V30 360 H 29.148 -0.783633 -3.14071 0
M  V30 361 H 28.055 -2.94552 -2.3063 0
M  V30 362 H 29.388 -3.86322 -3.04986 0
M  V30 363 N 31.0401 0.771051 -1.3745 0
M  V30 364 C 32.4561 1.07171 -1.18265 0
M  V30 365 C 32.6561 2.01491 -0.019287 0
M  V30 366 O 31.7121 2.44244 0.640408 0
M  V30 367 C 33.0251 1.66854 -2.50161 0
M  V30 368 C 34.5731 1.79109 -2.56689 0
M  V30 369 C 35.0481 2.42205 -3.88717 0
M  V30 370 N 36.5391 2.49655 -3.90162 0
M  V30 371 C 37.2741 2.9933 -4.8907 0
M  V30 372 N 36.7701 3.49172 -5.98374 0
M  V30 373 N 38.5631 2.9821 -4.76474 0
M  V30 374 H 30.7141 0.144796 -2.11906 0
M  V30 375 H 32.9771 0.126863 -0.939473 0
M  V30 376 H 32.6831 1.05017 -3.35655 0
M  V30 377 H 32.5571 2.6614 -2.673 0
M  V30 378 H 34.9441 2.40077 -1.71601 0
M  V30 379 H 35.0251 0.785757 -2.43433 0
M  V30 380 H 34.6691 1.81875 -4.74219 0
M  V30 381 H 34.5991 3.43345 -3.99276 0
M  V30 382 H 37.0901 2.14383 -3.11205 0
M  V30 383 H 37.4031 3.8548 -6.69795 0
M  V30 384 H 35.7481 3.47275 -6.02018 0
M  V30 385 H 38.9391 2.58572 -3.90203 0
M  V30 386 H 39.1121 3.36613 -5.53711 0
M  V30 387 N 32.5182 1.22032 0.997298 0
M  V30 388 C 33.4662 0.983634 2.10778 0
M  V30 389 C 34.4602 -0.0717564 1.69248 0
M  V30 390 O 35.6662 0.080304 1.79821 0
M  V30 391 H 32.0412 0.300877 0.689186 0
M  V30 392 H 34.0122 1.92606 2.27916 0
M  V30 393 C 32.7612 0.57326 3.42942 0
M  V30 394 H 32.0842 1.37702 3.75338 0
M  V30 395 H 33.5242 0.447031 4.21637 0
M  V30 396 C 31.9832 -0.7167 3.29188 0
M  V30 397 O 32.5132 -1.77027 3.60589 0
M  V30 398 N 30.7192 -0.686167 2.82383 0
M  V30 399 H 30.2662 0.171507 2.57028 0
M  V30 400 H 30.2242 -1.54955 2.73562 0
M  V30 401 N 33.9963 -1.19345 1.0293 0
M  V30 402 C 34.9263 -2.2481 0.631105 0
M  V30 403 C 35.9073 -1.66245 -0.360104 0
M  V30 404 O 37.0923 -1.92677 -0.242726 0
M  V30 405 C 34.2223 -3.47295 -0.0184607 0
M  V30 406 C 33.1763 -4.18536 0.895073 0
M  V30 407 C 32.5023 -5.34586 0.110592 0
M  V30 408 C 33.8023 -4.73287 2.209 0
M  V30 409 H 35.4963 -2.58372 1.51275 0
M  V30 410 H 33.0423 -1.24194 0.728818 0
M  V30 411 H 34.9953 -4.20268 -0.308675 0
M  V30 412 H 33.7193 -3.12933 -0.934907 0
M  V30 413 H 32.3783 -3.47446 1.16949 0
M  V30 414 H 32.0263 -4.96469 -0.807902 0
M  V30 415 H 31.7263 -5.83183 0.719087 0
M  V30 416 H 33.2503 -6.10355 -0.172871 0
M  V30 417 H 34.6643 -5.38013 1.98028 0
M  V30 418 H 33.0613 -5.32373 2.76946 0
M  V30 419 H 34.1313 -3.91331 2.86336 0
M  V30 420 N 35.4744 -0.807222 -1.35358 0
M  V30 421 C 36.7214 -0.387888 -1.9875 0
M  V30 422 C 37.0494 1.04509 -1.64037 0
M  V30 423 O 36.3044 1.73986 -0.895946 0
M  V30 424 C 36.6034 -0.519036 -3.53611 0
M  V30 425 C 36.2694 -1.91542 -4.08194 0
M  V30 426 C 34.9314 -2.29745 -4.22813 0
M  V30 427 C 37.2834 -2.82896 -4.37744 0
M  V30 428 C 34.6114 -3.58668 -4.643 0
M  V30 429 C 36.9634 -4.11265 -4.8067 0
M  V30 430 C 35.6274 -4.49466 -4.93494 0
M  V30 431 H 34.8974 -0.141938 -0.727279 0
M  V30 432 H 37.5444 -1.02814 -1.6156 0
M  V30 433 H 35.8494 0.204658 -3.91265 0
M  V30 434 H 37.5464 -0.175345 -4.00616 0
M  V30 435 H 34.1364 -1.60862 -3.97268 0
M  V30 436 H 38.3204 -2.54629 -4.26002 0
M  V30 437 H 33.5764 -3.88113 -4.72418 0
M  V30 438 H 37.7504 -4.82153 -5.02496 0
M  V30 439 H 35.3774 -5.49418 -5.25399 0
M  V30 440 N 36.9525 1.47285 -0.560781 0
M  V30 441 C 37.9155 2.28535 0.174488 0
M  V30 442 C 38.9155 1.37153 0.839388 0
M  V30 443 O 40.1055 1.59748 0.694702 0
M  V30 444 C 37.2375 3.16934 1.25561 0
M  V30 445 H 38.4305 2.95012 -0.539262 0
M  V30 446 H 35.9835 1.53034 -0.317865 0
M  V30 447 H 36.7185 2.55157 2.00164 0
M  V30 448 H 36.5035 3.8419 0.783604 0
M  V30 449 H 37.9935 3.78143 1.77193 0
M  V30 450 N 38.4306 0.297415 1.54768 0
M  V30 451 C 39.8466 -0.0560823 1.59501 0
M  V30 452 C 40.0466 -1.52725 1.31444 0
M  V30 453 O 39.1026 -2.27947 1.08611 0
M  V30 454 C 40.4156 0.338631 2.98787 0
M  V30 455 C 41.9636 0.287097 3.11681 0
M  V30 456 C 42.4386 0.656579 4.53269 0
M  V30 457 N 43.9296 0.608977 4.59179 0
M  V30 458 C 44.6646 0.867385 5.66802 0
M  V30 459 N 44.1606 1.19157 6.82476 0
M  V30 460 N 45.9536 0.794687 5.56454 0
M  V30 461 H 38.1046 1.25624 1.71267 0
M  V30 462 H 40.3676 0.509057 0.799728 0
M  V30 463 H 40.0736 1.36263 3.2423 0
M  V30 464 H 39.9476 -0.309508 3.75928 0
M  V30 465 H 42.3346 -0.727649 2.85988 0
M  V30 466 H 42.4156 0.969809 2.36703 0
M  V30 467 H 42.0596 1.66912 4.7969 0
M  V30 468 H 41.9896 -0.0481649 5.26578 0
M  V30 469 H 44.4806 0.369198 3.76092 0
M  V30 470 H 44.7936 1.37482 7.60473 0
M  V30 471 H 43.1386 1.22958 6.84037 0
M  V30 472 H 46.3296 0.541098 4.64962 0
M  V30 473 H 46.5026 0.999445 6.40246 0
M  V30 474 N 39.9087 -1.5758 0.0250728 0
M  V30 475 C 41.3247 -1.56124 -0.331282 0
M  V30 476 C 41.5247 -1.03029 -1.73169 0
M  V30 477 O 40.5807 -0.675215 -2.43305 0
M  V30 478 C 41.8937 -3.00139 -0.183584 0
M  V30 479 C 43.4417 -3.11946 -0.256654 0
M  V30 480 C 43.9167 -4.57793 -0.137792 0
M  V30 481 N 45.4077 -4.6279 -0.194904 0
M  V30 482 C 46.1427 -5.7326 -0.126655 0
M  V30 483 N 45.6387 -6.928 -0.00755288 0
M  V30 484 N 47.4317 -5.61811 -0.180348 0
M  V30 485 H 39.5827 -1.90424 0.94087 0
M  V30 486 H 41.8457 -0.875761 0.362968 0
M  V30 487 H 41.5517 -3.4292 0.780927 0
M  V30 488 H 41.4257 -3.64899 -0.955448 0
M  V30 489 H 43.8127 -2.69079 -1.21162 0
M  V30 490 H 43.8937 -2.49915 0.545517 0
M  V30 491 H 43.5377 -5.01339 0.813739 0
M  V30 492 H 43.4677 -5.17798 -0.958775 0
M  V30 493 H 45.9587 -3.76807 -0.287267 0
M  V30 494 H 46.2717 -7.72791 0.0379428 0
M  V30 495 H 44.6167 -6.94995 0.0271731 0
M  V30 496 H 47.8077 -4.6731 -0.271767 0
M  V30 497 H 47.9807 -6.47882 -0.123697 0
M  V30 498 N 41.3868 0.248026 -1.55636 0
M  V30 499 C 42.6148 0.993808 -1.81469 0
M  V30 500 C 43.0298 1.78991 -0.60064 0
M  V30 501 O 42.3868 1.77345 0.430682 0
M  V30 502 C 42.4378 1.93258 -3.05506 0
M  V30 503 O 42.1588 1.16869 -4.22224 0
M  V30 504 C 43.6598 2.79444 -3.4413 0
M  V30 505 H 40.8798 0.292486 -0.603898 0
M  V30 506 H 43.4238 0.271253 -2.02693 0
M  V30 507 H 41.5788 2.60943 -2.86335 0
M  V30 508 H 41.9928 1.80359 -4.92515 0
M  V30 509 H 43.4668 3.41066 -4.34026 0
M  V30 510 H 43.9438 3.50499 -2.64665 0
M  V30 511 H 44.5498 2.17214 -3.65648 0
M  V30 512 N 42.8649 1.48995 0.513639 0
M  V30 513 C 43.7949 1.67636 1.62544 0
M  V30 514 C 44.7759 0.525087 1.61793 0
M  V30 515 O 45.9609 0.759502 1.78732 0
M  V30 516 C 43.0909 1.73114 3.01079 0
M  V30 517 C 42.0449 2.87905 3.16693 0
M  V30 518 C 41.3709 2.78486 4.56453 0
M  V30 519 C 42.6709 4.29005 2.97913 0
M  V30 520 H 44.3649 2.60716 1.47198 0
M  V30 521 H 41.9109 1.25465 0.706714 0
M  V30 522 H 43.8639 1.84742 3.78746 0
M  V30 523 H 42.5879 0.766241 3.17484 0
M  V30 524 H 41.2469 2.75859 2.41448 0
M  V30 525 H 40.8949 1.7993 4.69717 0
M  V30 526 H 40.5949 3.55523 4.67843 0
M  V30 527 H 42.1189 2.92104 5.36197 0
M  V30 528 H 43.5329 4.41798 3.65359 0
M  V30 529 H 41.9299 5.07166 3.20785 0
M  V30 530 H 42.9999 4.44329 1.94165 0
M  V30 531 N 44.343 -0.763751 1.37857 0
M  V30 532 C 45.589 -1.52483 1.33704 0
M  V30 533 C 45.922 -1.94051 -0.0759612 0
M  V30 534 O 45.197 -1.64675 -1.03501 0
M  V30 535 C 45.48 -2.78441 2.28348 0
M  V30 536 C 45.333 -2.43075 3.78463 0
M  V30 537 C 46.652 -3.80415 2.21298 0
M  V30 538 H 43.771 -0.553169 0.487005 0
M  V30 539 H 46.413 -0.875562 1.68624 0
M  V30 540 H 44.563 -3.33842 1.987 0
M  V30 541 H 46.235 -1.93527 4.18742 0
M  V30 542 H 44.478 -1.75666 3.96641 0
M  V30 543 H 45.149 -3.33149 4.40132 0
M  V30 544 H 47.625 -3.34527 2.47449 0
M  V30 545 H 46.501 -4.66257 2.89647 0
M  V30 546 H 46.762 -4.25262 1.20849 0
M  V30 547 N 45.8211 -1.22559 -0.990812 0
M  V30 548 C 46.7841 -0.998863 -2.0629 0
M  V30 549 C 47.7841 0.0354834 -1.60761 0
M  V30 550 O 48.9741 -0.203231 -1.7301 0
M  V30 551 C 46.1061 -0.509203 -3.37076 0
M  V30 552 H 47.2991 -1.95014 -2.27837 0
M  V30 553 H 44.8521 -1.04456 -1.16269 0
M  V30 554 H 45.5871 0.446335 -3.21214 0
M  V30 555 H 45.3721 -1.25547 -3.71457 0
M  V30 556 H 46.8621 -0.370888 -4.1595 0
M  V30 557 N 47.2992 1.18797 -1.03562 0
M  V30 558 C 48.5462 1.8865 -0.736023 0
M  V30 559 C 48.8742 1.80041 0.735889 0
M  V30 560 O 48.1292 1.19179 1.55225 0
M  V30 561 C 48.4282 3.38692 -1.14117 0
M  V30 562 C 48.0942 3.67504 -2.6125 0
M  V30 563 C 46.7562 3.75078 -3.01447 0
M  V30 564 C 49.1082 3.80293 -3.56408 0
M  V30 565 C 46.4362 3.92915 -4.35701 0
M  V30 566 C 48.7882 3.99645 -4.90374 0
M  V30 567 C 47.4522 4.05453 -5.30249 0
M  V30 568 H 46.7222 0.690321 -0.26933 0
M  V30 569 H 49.3692 1.40641 -1.29971 0
M  V30 570 H 47.6742 3.88645 -0.496202 0
M  V30 571 H 49.3712 3.91072 -0.886789 0
M  V30 572 H 45.9612 3.62223 -2.29113 0
M  V30 573 H 50.1452 3.73779 -3.26501 0
M  V30 574 H 45.4012 3.95653 -4.66121 0
M  V30 575 H 49.5752 4.08482 -5.64017 0
M  V30 576 H 47.2022 4.19027 -6.34288 0
M  V30 577 N 48.7773 0.814389 1.34928 0
M  V30 578 C 49.7073 0.244827 2.32213 0
M  V30 579 C 50.6883 -0.634024 1.57842 0
M  V30 580 O 51.8733 -0.562676 1.8587 0
M  V30 581 C 49.0033 -0.601106 3.42058 0
M  V30 582 C 47.9573 0.179896 4.27622 0
M  V30 583 C 47.2833 -0.788237 5.28858 0
M  V30 584 C 48.5833 1.38329 5.03649 0
M  V30 585 H 50.2773 1.05763 2.80097 0
M  V30 586 H 47.8233 0.510029 1.34665 0
M  V30 587 H 49.7763 -1.00968 4.09125 0
M  V30 588 H 48.5003 -1.44688 2.92802 0
M  V30 589 H 47.1593 0.569739 3.62146 0
M  V30 590 H 46.8073 -1.62973 4.75866 0
M  V30 591 H 46.5073 -0.269942 5.8698 0
M  V30 592 H 48.0313 -1.19485 5.98795 0
M  V30 593 H 49.4453 1.04918 5.63618 0
M  V30 594 H 47.8423 1.83662 5.71304 0
M  V30 595 H 48.9123 2.16592 4.33839 0
M  V30 596 N 50.2554 -1.46986 0.568584 0
M  V30 597 C 51.5034 -2.02041 0.0487022 0
M  V30 598 C 51.8244 -1.44408 -1.31039 0
M  V30 599 O 51.0944 -0.623477 -1.85714 0
M  V30 600 H 49.6744 -0.746849 0.015014 0
M  V30 601 H 52.3364 -1.80257 0.741168 0
M  V30 602 H 51.4324 -3.12085 -0.0308961 0
M  V30 603 N 51.7335 -0.305618 -1.54608 0
M  V30 604 C 52.9825 0.303098 -1.9941 0
M  V30 605 C 53.2955 1.54648 -1.19764 0
M  V30 606 O 54.5015 2.23007 -1.54855 0
M  V30 607 C 52.9575 0.590588 -3.55021 0
M  V30 608 C 52.5655 -0.634719 -4.43481 0
M  V30 609 C 54.3095 1.16025 -4.08336 0
M  V30 610 C 52.2165 -0.320126 -5.90533 0
M  V30 611 H 51.1465 0.117031 -0.744862 0
M  V30 612 H 53.7975 -0.415045 -1.78745 0
M  V30 613 H 52.1795 1.36845 -3.71604 0
M  V30 614 H 53.3535 -1.41079 -4.38672 0
M  V30 615 H 51.6685 -1.12333 -4.00962 0
M  V30 616 H 54.2655 1.40994 -5.15776 0
M  V30 617 H 54.6085 2.10397 -3.5922 0
M  V30 618 H 55.1415 0.443985 -3.95315 0
M  V30 619 H 51.8805 -1.23254 -6.43808 0
M  V30 620 H 51.4005 0.418579 -5.98338 0
M  V30 621 H 53.0795 0.0766241 -6.46955 0
M  V30 622 N 53.2116 1.57565 -0.0334293 0
M  V30 623 C 54.1416 2.13511 0.945265 0
M  V30 624 C 55.1226 1.05231 1.33643 0
M  V30 625 O 56.3076 1.33084 1.41429 0
M  V30 626 C 53.4376 2.6657 2.22616 0
M  V30 627 C 52.3916 3.79676 1.97561 0
M  V30 628 C 51.7176 4.1918 3.31952 0
M  V30 629 C 53.0176 5.0557 1.31135 0
M  V30 630 H 54.7116 2.95538 0.479325 0
M  V30 631 H 52.2576 1.42166 0.229115 0
M  V30 632 H 54.2106 3.04344 2.91466 0
M  V30 633 H 52.9346 1.8171 2.71384 0
M  V30 634 H 51.5936 3.42347 1.31127 0
M  V30 635 H 51.2416 3.31296 3.78487 0
M  V30 636 H 50.9416 4.95402 3.15992 0
M  V30 637 H 52.4656 4.59541 4.02063 0
M  V30 638 H 53.8796 5.40903 1.89992 0
M  V30 639 H 52.2766 5.86818 1.25559 0
M  V30 640 H 53.3466 4.84062 0.284894 0
M  V30 641 N 54.6897 -0.239769 1.55765 0
M  V30 642 C 55.6197 -1.30052 1.9393 0
M  V30 643 C 56.6007 -1.49839 0.805132 0
M  V30 644 O 57.7857 -1.62328 1.06599 0
M  V30 645 C 54.9157 -2.65391 2.2402 0
M  V30 646 C 53.8697 -2.60289 3.39755 0
M  V30 647 C 53.1957 -3.99489 3.55405 0
M  V30 648 C 54.4957 -2.16654 4.75246 0
M  V30 649 H 56.1897 -0.983573 2.82783 0
M  V30 650 H 53.7357 -0.471701 1.36055 0
M  V30 651 H 55.6887 -3.3974 2.49308 0
M  V30 652 H 54.4127 -2.98736 1.32 0
M  V30 653 H 53.0717 -1.88398 3.14487 0
M  V30 654 H 52.7197 -4.30112 2.60793 0
M  V30 655 H 52.4197 -3.96962 4.33238 0
M  V30 656 H 53.9437 -4.75528 3.83022 0
M  V30 657 H 55.3577 -2.80737 4.99859 0
M  V30 658 H 53.7547 -2.25223 5.56232 0
M  V30 659 H 54.8247 -1.11835 4.71827 0
M  V30 660 N 56.1678 -1.49265 -0.50573 0
M  V30 661 C 57.0978 -1.68495 -1.61653 0
M  V30 662 C 58.0788 -0.53366 -1.61512 0
M  V30 663 O 59.2638 -0.76897 -1.78327 0
M  V30 664 C 56.3938 -1.74709 -3.00157 0
M  V30 665 C 55.3478 -2.89581 -3.15162 0
M  V30 666 C 54.6738 -2.80903 -4.5497 0
M  V30 667 C 55.9738 -4.30578 -2.95634 0
M  V30 668 H 57.6678 -2.61493 -1.45814 0
M  V30 669 H 55.2138 -1.25838 -0.70005 0
M  V30 670 H 57.1668 -1.86748 -3.77761 0
M  V30 671 H 55.8908 -0.783067 -3.17074 0
M  V30 672 H 54.5498 -2.77136 -2.39982 0
M  V30 673 H 54.1978 -1.82419 -4.68756 0
M  V30 674 H 53.8978 -3.57999 -4.65951 0
M  V30 675 H 55.4218 -2.94944 -5.34641 0
M  V30 676 H 56.8358 -4.4373 -3.63011 0
M  V30 677 H 55.2328 -5.0886 -3.18091 0
M  V30 678 H 56.3028 -4.45352 -1.91806 0
M  V30 679 N 57.6459 0.756429 -1.3826 0
M  V30 680 C 58.8739 1.54565 -1.3754 0
M  V30 681 C 59.2889 1.88767 0.0355331 0
M  V30 682 O 58.6459 1.52572 1.0014 0
M  V30 683 C 58.6969 2.84654 -2.22833 0
M  V30 684 O 58.4179 2.51912 -3.5843 0
M  V30 685 C 59.9189 3.78807 -2.30261 0
M  V30 686 H 57.1389 0.478353 -0.470553 0
M  V30 687 H 59.6829 0.936381 -1.81803 0
M  V30 688 H 57.8379 3.41965 -1.8204 0
M  V30 689 H 58.2519 3.35325 -4.03308 0
M  V30 690 H 59.7259 4.67045 -2.94233 0
M  V30 691 H 60.2029 4.19038 -1.31545 0
M  V30 692 H 60.8089 3.2742 -2.71433 0
M  V30 693 N 59.124 1.23083 0.984299 0
M  V30 694 C 60.372 1.05848 1.72165 0
M  V30 695 C 60.693 -0.406049 1.90726 0
M  V30 696 O 59.963 -1.29139 1.47309 0
M  V30 697 H 58.543 0.388685 0.637913 0
M  V30 698 H 61.205 1.54736 1.18503 0
M  V30 699 H 60.301 1.54327 2.71274 0
M  V30 700 N 60.6021 -1.18246 1.0419 0
M  V30 701 C 61.8481 -1.88536 0.747122 0
M  V30 702 C 62.1811 -1.80223 -0.723409 0
M  V30 703 O 61.4561 -1.20337 -1.52804 0
M  V30 704 C 61.7391 -3.38968 1.21544 0
M  V30 705 C 61.5921 -3.56084 2.74816 0
M  V30 706 C 62.9111 -4.32648 0.806482 0
M  V30 707 H 60.0301 -0.684619 0.272883 0
M  V30 708 H 62.6721 -1.39113 1.29413 0
M  V30 709 H 60.8221 -3.8119 0.750081 0
M  V30 710 H 62.4941 -3.22946 3.29399 0
M  V30 711 H 60.7371 -2.98699 3.14582 0
M  V30 712 H 61.4081 -4.61639 3.02644 0
M  V30 713 H 63.8841 -3.98211 1.20695 0
M  V30 714 H 62.7601 -5.36462 1.1619 0
M  V30 715 H 63.0211 -4.41146 -0.29029 0
M  V30 716 N 62.0802 -0.821533 -1.34494 0
M  V30 717 C 63.0102 -0.257138 -2.3208 0
M  V30 718 C 63.9912 0.625645 -1.58176 0
M  V30 719 O 65.1762 0.552811 -1.86166 0
M  V30 720 C 62.3062 0.582958 -3.42372 0
M  V30 721 C 61.2602 -0.202571 -4.2752 0
M  V30 722 C 60.5862 0.760179 -5.29269 0
M  V30 723 C 61.8862 -1.40998 -5.02908 0
M  V30 724 H 63.5802 -1.07247 -2.79532 0
M  V30 725 H 61.1262 -0.517163 -1.34393 0
M  V30 726 H 63.0792 0.987972 -4.09655 0
M  V30 727 H 61.8032 1.43133 -2.93565 0
M  V30 728 H 60.4622 -0.588936 -3.61838 0
M  V30 729 H 60.1102 1.60447 -4.76724 0
M  V30 730 H 59.8102 0.238809 -5.87115 0
M  V30 731 H 61.3342 1.16308 -5.9942 0
M  V30 732 H 62.7482 -1.07905 -5.63054 0
M  V30 733 H 61.1452 -1.86689 -5.70322 0
M  V30 734 H 62.2152 -2.1889 -4.32684 0
M  V30 735 N 63.5583 1.46682 -0.576371 0
M  V30 736 C 64.8053 2.02412 -0.0595339 0
M  V30 737 C 65.1333 1.44859 1.29793 0
M  V30 738 O 64.3883 0.601099 1.8624 0
M  V30 739 C 64.6873 3.57345 0.062886 0
M  V30 740 C 64.3533 4.33908 -1.22616 0
M  V30 741 C 63.0153 4.54544 -1.57933 0
M  V30 742 C 65.3673 4.77919 -2.07948 0
M  V30 743 C 62.6953 5.16444 -2.78393 0
M  V30 744 C 65.0473 5.41149 -3.27629 0
M  V30 745 C 63.7113 5.60014 -3.63236 0
M  V30 746 H 62.9813 0.74068 -0.021785 0
M  V30 747 H 65.6283 1.76128 -0.751735 0
M  V30 748 H 63.9333 3.82729 0.838178 0
M  V30 749 H 65.6303 3.98136 0.478439 0
M  V30 750 H 62.2203 4.18138 -0.941202 0
M  V30 751 H 66.4043 4.61738 -1.81967 0
M  V30 752 H 61.6603 5.29242 -3.06126 0
M  V30 753 H 65.8343 5.74211 -3.94023 0
M  V30 754 H 63.4613 6.07748 -4.56669 0
M  V30 755 N 65.0364 0.313813 1.54444 0
M  V30 756 C 66.2644 -0.293918 2.04802 0
M  V30 757 C 66.6794 -1.46537 1.19047 0
M  V30 758 O 66.0364 -1.81182 0.218939 0
M  V30 759 C 66.0874 -0.737806 3.53891 0
M  V30 760 O 65.8084 0.387038 4.36387 0
M  V30 761 C 67.3094 -1.40936 4.203 0
M  V30 762 H 64.5294 -0.0620057 0.668129 0
M  V30 763 H 67.0734 0.457169 1.99324 0
M  V30 764 H 65.2284 -1.43889 3.59687 0
M  V30 765 H 65.6424 0.0391274 5.24485 0
M  V30 766 H 67.1164 -1.67099 5.26101 0
M  V30 767 H 67.5934 -2.35355 3.70816 0
M  V30 768 H 68.1994 -0.751117 4.18615 0
M  V30 769 N 66.5145 -1.57545 0.0417849 0
M  V30 770 C 67.4625 -2.12148 -0.953723 0
M  V30 771 C 68.4565 -1.05104 -1.32852 0
M  V30 772 O 69.6625 -1.23524 -1.30927 0
M  V30 773 H 66.0375 -0.677957 -0.325389 0
M  V30 774 H 68.0085 -2.94707 -0.467991 0
M  V30 775 C 66.7575 -2.6739 -2.22257 0
M  V30 776 H 66.0805 -3.49413 -1.94295 0
M  V30 777 H 67.5205 -3.09227 -2.90094 0
M  V30 778 C 65.9795 -1.60723 -2.96091 0
M  V30 779 O 66.5095 -1.01449 -3.88679 0
M  V30 780 N 64.7155 -1.32466 -2.58652 0
M  V30 781 H 64.2625 -1.80856 -1.83437 0
M  V30 782 H 64.2205 -0.61325 -3.08361 0
M  V30 783 N 67.9926 0.231505 -1.5589 0
M  V30 784 C 69.2416 0.955346 -1.7764 0
M  V30 785 C 69.5546 1.85893 -0.608546 0
M  V30 786 O 70.7606 2.62067 -0.70943 0
M  V30 787 C 69.2166 1.74886 -3.14552 0
M  V30 788 C 68.8246 0.891915 -4.39032 0
M  V30 789 C 70.5686 2.46452 -3.45633 0
M  V30 790 C 68.4756 1.68221 -5.66971 0
M  V30 791 H 67.4056 0.360446 -0.662265 0
M  V30 792 H 70.0566 0.209516 -1.823 0
M  V30 793 H 68.4386 2.53723 -3.04041 0
M  V30 794 H 69.6126 0.144793 -4.60572 0
M  V30 795 H 67.9276 0.288863 -4.15397 0
M  V30 796 H 70.5246 3.06061 -4.38441 0
M  V30 797 H 70.8676 3.18841 -2.67668 0
M  V30 798 H 71.4006 1.74613 -3.57428 0
M  V30 799 H 68.1396 1.00178 -6.478 0
M  V30 800 H 67.6596 2.4042 -5.49507 0
M  V30 801 H 69.3386 2.24544 -6.06786 0
M  V30 802 N 69.4707 1.49531 0.497807 0
M  V30 803 C 70.7007 1.62657 1.27382 0
M  V30 804 C 71.1087 0.298488 1.86831 0
M  V30 805 O 70.4517 -0.72647 1.68725 0
M  V30 806 C 70.5137 2.6393 2.44093 0
M  V30 807 C 70.1777 4.08195 2.05489 0
M  V30 808 C 71.1747 4.949 1.59279 0
M  V30 809 C 68.8597 4.53948 2.15026 0
M  V30 810 C 70.8537 6.25397 1.23113 0
M  V30 811 C 68.5407 5.84458 1.78473 0
M  V30 812 C 69.5387 6.70006 1.32591 0
M  V30 813 O 69.2267 7.98083 0.965327 0
M  V30 814 H 68.9587 0.550429 0.392434 0
M  V30 815 H 71.5127 1.96325 0.603801 0
M  V30 816 H 69.7427 2.25449 3.14181 0
M  V30 817 H 71.4317 2.66552 3.06113 0
M  V30 818 H 72.1977 4.60779 1.51354 0
M  V30 819 H 68.0767 3.87525 2.4969 0
M  V30 820 H 71.6207 6.92125 0.872299 0
M  V30 821 H 67.5177 6.18107 1.86048 0
M  V30 822 H 68.2857 8.11122 1.09652 0
M  V30 823 N 70.9488 -0.749086 1.3866 0
M  V30 824 C 71.8808 -1.87273 1.32142 0
M  V30 825 C 72.8938 -1.61127 0.232787 0
M  V30 826 O 74.0828 -1.71623 0.49069 0
M  V30 827 C 71.1828 -3.23005 1.02571 0
M  V30 828 C 70.3558 -3.7662 2.22433 0
M  V30 829 C 69.4148 -4.90879 1.89537 0
M  V30 830 O 68.4408 -5.05276 2.62078 0
M  V30 831 N 69.6428 -5.74198 0.853031 0
M  V30 832 H 72.4078 -1.93373 2.28969 0
M  V30 833 H 69.9688 -0.929216 1.32579 0
M  V30 834 H 71.9608 -3.96992 0.786085 0
M  V30 835 H 70.5308 -3.12262 0.145249 0
M  V30 836 H 69.7508 -2.94147 2.62434 0
M  V30 837 H 71.0388 -4.09173 3.02415 0
M  V30 838 H 70.4368 -5.6514 0.25155 0
M  V30 839 H 68.9938 -6.48313 0.67329 0
M  V30 840 N 72.4269 -1.23603 -0.977757 0
M  V30 841 C 73.3569 -1.04401 -2.0886 0
M  V30 842 C 74.3379 0.0399052 -1.70053 0
M  V30 843 O 75.5229 -0.125246 -1.93796 0
M  V30 844 C 72.6529 -0.637269 -3.41403 0
M  V30 845 C 71.6069 -1.66883 -3.94124 0
M  V30 846 C 70.9329 -1.11745 -5.22893 0
M  V30 847 C 72.2329 -3.06247 -4.23096 0
M  V30 848 H 73.9269 -1.97316 -2.25182 0
M  V30 849 H 71.4729 -0.950096 -1.08209 0
M  V30 850 H 73.4259 -0.48998 -4.18542 0
M  V30 851 H 72.1499 0.327557 -3.24953 0
M  V30 852 H 70.8089 -1.80416 -3.19133 0
M  V30 853 H 70.4569 -0.143527 -5.02795 0
M  V30 854 H 70.1569 -1.80672 -5.59134 0
M  V30 855 H 71.6809 -0.982067 -6.02651 0
M  V30 856 H 73.0949 -2.96001 -4.90975 0
M  V30 857 H 71.4919 -3.72436 -4.70544 0
M  V30 858 H 72.5619 -3.55041 -3.30263 0
M  V30 859 N 73.905 1.17692 -1.04816 0
M  V30 860 C 74.837 2.21103 -0.603822 0
M  V30 861 C 75.85 1.59411 0.33046 0
M  V30 862 O 77.039 1.7807 0.12379 0
M  V30 863 C 74.139 3.38623 0.136898 0
M  V30 864 C 73.312 4.29888 -0.807137 0
M  V30 865 C 72.371 5.26088 -0.10836 0
M  V30 866 O 71.397 5.64353 -0.741232 0
M  V30 867 N 72.599 5.68882 1.15558 0
M  V30 868 H 75.364 2.59848 -1.49329 0
M  V30 869 H 72.925 1.32553 -0.929587 0
M  V30 870 H 74.917 4.00009 0.614401 0
M  V30 871 H 73.487 2.98508 0.927993 0
M  V30 872 H 72.707 3.65993 -1.46434 0
M  V30 873 H 73.995 4.87759 -1.44807 0
M  V30 874 H 73.393 5.39861 1.69015 0
M  V30 875 H 71.95 6.32429 1.57722 0
M  V30 876 N 75.3831 0.828654 1.34056 0
M  V30 877 C 76.6321 0.415828 1.97367 0
M  V30 878 C 76.9451 -1.02796 1.6641 0
M  V30 879 O 78.1511 -1.54497 2.23255 0
M  V30 880 C 76.6071 0.692601 3.53173 0
M  V30 881 C 76.2151 2.15038 3.93017 0
M  V30 882 C 77.9591 0.346222 4.23086 0
M  V30 883 C 75.8661 2.37174 5.41758 0
M  V30 884 H 74.7961 0.151755 0.738571 0
M  V30 885 H 77.4471 1.01581 1.52819 0
M  V30 886 H 75.8291 0.0223764 3.95994 0
M  V30 887 H 77.0031 2.86024 3.61285 0
M  V30 888 H 75.3181 2.45875 3.36057 0
M  V30 889 H 77.9151 0.48937 5.32456 0
M  V30 890 H 78.2581 -0.709842 4.10204 0
M  V30 891 H 78.7911 0.971258 3.85761 0
M  V30 892 H 75.5301 3.41308 5.59633 0
M  V30 893 H 75.0501 1.70738 5.74986 0
M  V30 894 H 76.7291 2.19818 6.08514 0
M  V30 895 N 76.8612 -1.46375 0.584142 0
M  V30 896 C 78.1072 -2.02678 0.0703716 0
M  V30 897 C 78.4402 -1.4545 -1.28678 0
M  V30 898 O 77.7152 -0.62014 -1.84349 0
M  V30 899 C 77.9982 -3.60099 0.00614674 0
M  V30 900 C 77.8512 -4.27709 1.3923 0
M  V30 901 C 79.1702 -4.34598 -0.693742 0
M  V30 902 H 76.2892 -0.736504 0.027047 0
M  V30 903 H 78.9312 -1.74501 0.751615 0
M  V30 904 H 77.0812 -3.84236 -0.574009 0
M  V30 905 H 78.7532 -4.14832 2.01773 0
M  V30 906 H 76.9962 -3.87016 1.95962 0
M  V30 907 H 77.6672 -5.36478 1.29982 0
M  V30 908 H 80.1432 -4.15615 -0.200869 0
M  V30 909 H 79.0192 -5.44318 -0.707714 0
M  V30 910 H 79.2802 -4.05759 -1.75533 0
M  V30 911 N 78.3393 -0.321999 -1.54275 0
M  V30 912 C 79.2873 0.560206 -2.25753 0
M  V30 913 C 80.2813 1.11984 -1.27106 0
M  V30 914 O 81.4873 1.06806 -1.44888 0
M  V30 915 H 77.8623 0.199304 -0.725108 0
M  V30 916 H 79.8333 -0.0649365 -2.98329 0
M  V30 917 C 78.5823 1.71023 -3.02731 0
M  V30 918 H 77.9053 1.28885 -3.78456 0
M  V30 919 H 79.3453 2.30314 -3.55993 0
M  V30 920 C 77.8043 2.62692 -2.10938 0
M  V30 921 O 78.3343 3.64364 -1.6912 0
M  V30 922 N 76.5403 2.30891 -1.76459 0
M  V30 923 H 76.0873 1.48253 -2.10663 0
M  V30 924 H 76.0453 2.92487 -1.1532 0
M  V30 925 N 79.8174 1.5752 -0.0501392 0
M  V30 926 C 81.0644 1.9265 0.623874 0
M  V30 927 C 81.3924 0.928411 1.70912 0
M  V30 928 O 80.6474 -0.0594525 1.9561 0
M  V30 929 C 80.9464 3.34467 1.25963 0
M  V30 930 C 80.6124 4.49883 0.302689 0
M  V30 931 C 79.2744 4.81184 0.0393636 0
M  V30 932 C 81.6264 5.20002 -0.353205 0
M  V30 933 C 78.9544 5.79951 -0.887308 0
M  V30 934 C 81.3064 6.1976 -1.26806 0
M  V30 935 C 79.9704 6.49491 -1.54007 0
M  V30 936 H 79.2404 0.704957 0.228292 0
M  V30 937 H 81.8874 1.91146 -0.116398 0
M  V30 938 H 80.1924 3.32333 2.07514 0
M  V30 939 H 81.8894 3.58928 1.78806 0
M  V30 940 H 78.4794 4.25457 0.518109 0
M  V30 941 H 82.6634 4.96033 -0.162854 0
M  V30 942 H 77.9194 6.01322 -1.10553 0
M  V30 943 H 82.0934 6.73205 -1.78236 0
M  V30 944 H 79.7204 7.25837 -2.25976 0
M  V30 945 N 81.2955 -0.223234 1.56011 0
M  V30 946 C 82.5725 -0.972108 1.69733 0
M  V30 947 C 82.9525 -2.02485 0.59691 0
M  V30 948 O 82.3005 -2.25037 -0.396324 0
M  V30 949 C 82.5105 -1.58407 3.10979 0
M  V30 950 C 83.8585 -2.07696 3.70334 0
M  V30 951 O 84.8825 -1.68304 3.1393 0
M  V30 952 O 83.7415 -2.80096 4.69264 0
M  V30 953 H 80.8355 -0.453993 0.691245 0
M  V30 954 H 83.3815 -0.215149 1.68331 0
M  V30 955 H 82.1535 -0.823831 3.82529 0
M  V30 956 H 81.7765 -2.40661 3.16493 0
M  V30 957 N 82.7736 -1.49793 -0.48987 0
M  V30 958 C 84.0016 -1.63568 -1.26701 0
M  V30 959 C 84.4166 -0.311465 -1.86213 0
M  V30 960 O 83.7736 0.704416 -1.68357 0
M  V30 961 C 83.8246 -2.71284 -2.38929 0
M  V30 962 O 83.5456 -3.9857 -1.81861 0
M  V30 963 C 85.0466 -2.95864 -3.3012 0
M  V30 964 H 82.2666 -0.550342 -0.383881 0
M  V30 965 H 84.8106 -1.95898 -0.586864 0
M  V30 966 H 82.9656 -2.417 -3.02753 0
M  V30 967 H 83.3796 -4.57993 -2.55622 0
M  V30 968 H 84.8536 -3.74941 -4.05121 0
M  V30 969 H 85.3306 -2.06206 -3.87783 0
M  V30 970 H 85.9366 -3.26907 -2.72051 0
M  V30 971 N 84.2517 0.741722 -1.39055 0
M  V30 972 C 85.4817 1.52876 -1.3897 0
M  V30 973 C 85.8897 1.8919 0.0193266 0
M  V30 974 O 85.2327 1.54138 0.999356 0
M  V30 975 C 85.2947 2.84929 -2.19216 0
M  V30 976 C 84.9587 2.71086 -3.67915 0
M  V30 977 C 85.9557 2.40084 -4.61146 0
M  V30 978 C 83.6407 2.88168 -4.11418 0
M  V30 979 C 85.6347 2.26335 -5.95862 0
M  V30 980 C 83.3217 2.74037 -5.46211 0
M  V30 981 C 84.3197 2.43166 -6.38247 0
M  V30 982 O 84.0077 2.29115 -7.70559 0
M  V30 983 H 83.7397 0.479252 -0.476753 0
M  V30 984 H 86.2937 0.924751 -1.83405 0
M  V30 985 H 84.5237 3.47564 -1.69518 0
M  V30 986 H 86.2127 3.46509 -2.11392 0
M  V30 987 H 86.9787 2.26545 -4.28838 0
M  V30 988 H 82.8577 3.11191 -3.40119 0
M  V30 989 H 86.4017 2.0216 -6.67665 0
M  V30 990 H 82.2987 2.87153 -5.78112 0
M  V30 991 H 83.0667 2.44237 -7.81211 0
M  V30 992 N 85.7298 1.2412 0.971189 0
M  V30 993 C 86.6618 0.988349 2.06795 0
M  V30 994 C 87.6748 -0.0409541 1.62748 0
M  V30 995 O 88.8638 0.195673 1.77424 0
M  V30 996 C 85.9638 0.469023 3.35639 0
M  V30 997 C 85.1368 1.56065 4.08611 0
M  V30 998 C 84.1958 1.04458 5.15728 0
M  V30 999 O 83.2218 1.73553 5.42096 0
M  V30 1000 N 84.4238 -0.122817 5.8037 0
M  V30 1001 H 87.1888 1.93265 2.29061 0
M  V30 1002 H 84.7498 1.15102 1.13856 0
M  V30 1003 H 86.7418 0.108613 4.04554 0
M  V30 1004 H 85.3118 -0.380919 3.1027 0
M  V30 1005 H 84.5318 2.09341 3.34021 0
M  V30 1006 H 85.8198 2.29449 4.54126 0
M  V30 1007 H 85.2178 -0.700563 5.61345 0
M  V30 1008 H 83.7748 -0.424404 6.50417 0
M  V30 1009 N 87.2079 -1.17134 1.05439 0
M  V30 1010 C 88.4359 -1.91372 0.786414 0
M  V30 1011 C 88.8509 -1.76955 -0.658202 0
M  V30 1012 O 88.2079 -1.10838 -1.44987 0
M  V30 1013 C 88.2589 -3.42356 1.1608 0
M  V30 1014 O 87.9799 -3.56332 2.54871 0
M  V30 1015 C 89.4809 -4.33663 0.919322 0
M  V30 1016 H 86.7009 -0.607118 0.285743 0
M  V30 1017 H 89.2449 -1.48525 1.40572 0
M  V30 1018 H 87.3999 -3.82939 0.586191 0
M  V30 1019 H 87.8139 -4.49896 2.69618 0
M  V30 1020 H 89.2879 -5.38099 1.231 0
M  V30 1021 H 89.7649 -4.38959 -0.145359 0
M  V30 1022 H 90.3709 -3.98796 1.47789 0
M  V30 1023 N 88.686 -0.835752 -1.33615 0
M  V30 1024 C 90.102 -0.523139 -1.50783 0
M  V30 1025 C 90.302 0.950171 -1.77691 0
M  V30 1026 O 89.358 1.73411 -1.83534 0
M  V30 1027 C 90.671 -1.39378 -2.66448 0
M  V30 1028 C 92.219 -1.39223 -2.80332 0
M  V30 1029 C 92.694 -2.24765 -3.99055 0
M  V30 1030 N 94.185 -2.22458 -4.06284 0
M  V30 1031 C 94.92 -2.85386 -4.97336 0
M  V30 1032 N 94.416 -3.57354 -5.93523 0
M  V30 1033 N 96.209 -2.74872 -4.90308 0
M  V30 1034 H 88.36 -1.78952 -1.14411 0
M  V30 1035 H 90.623 -0.763297 -0.562212 0
M  V30 1036 H 90.329 -2.44061 -2.53234 0
M  V30 1037 H 90.203 -1.0676 -3.61776 0
M  V30 1038 H 92.59 -0.353136 -2.92979 0
M  V30 1039 H 92.671 -1.75846 -1.85773 0
M  V30 1040 H 92.315 -3.28732 -3.87167 0
M  V30 1041 H 92.245 -1.85485 -4.92852 0
M  V30 1042 H 94.736 -1.70119 -3.37443 0
M  V30 1043 H 95.049 -4.02584 -6.59656 0
M  V30 1044 H 93.394 -3.61461 -5.93608 0
M  V30 1045 H 96.585 -2.18213 -4.14126 0
M  V30 1046 H 96.758 -3.24199 -5.61069 0
M  V30 1047 N 90.1641 1.46063 -0.591896 0
M  V30 1048 C 91.3891 2.07226 -0.0850314 0
M  V30 1049 C 91.8141 1.43625 1.21463 0
M  V30 1050 O 91.1721 0.523305 1.73583 0
M  V30 1051 C 91.2201 3.60554 0.0576567 0
M  V30 1052 O 90.3241 3.97128 1.11188 0
M  V30 1053 H 89.6651 0.660615 -0.0669568 0
M  V30 1054 H 92.1951 1.8756 -0.81745 0
M  V30 1055 H 92.2051 4.07165 0.2609 0
M  V30 1056 H 90.8801 4.06235 -0.891416 0
M  V30 1057 H 89.4571 3.62213 0.886356 0
M  V30 1058 N 91.6422 0.330177 1.54103 0
M  V30 1059 C 92.5902 -0.548226 2.26047 0
M  V30 1060 C 93.5842 -1.11309 1.27698 0
M  V30 1061 O 94.7902 -1.06036 1.45452 0
M  V30 1062 H 91.1652 -0.195456 0.726155 0
M  V30 1063 H 93.1362 0.0807567 2.98291 0
M  V30 1064 C 91.8852 -1.69415 3.03634 0
M  V30 1065 H 91.2082 -1.26876 3.79134 0
M  V30 1066 H 92.6482 -2.28423 3.5721 0
M  V30 1067 C 91.1072 -2.61569 2.12328 0
M  V30 1068 O 91.6372 -3.63462 1.7105 0
M  V30 1069 N 89.8432 -2.29952 1.77681 0
M  V30 1070 H 89.3902 -1.47134 2.11446 0
M  V30 1071 H 89.3482 -2.91871 1.16869 0
M  V30 1072 N 93.1203 -1.57491 0.0584922 0
M  V30 1073 C 94.3683 -1.92597 -0.612436 0
M  V30 1074 C 94.6893 -0.938162 -1.70949 0
M  V30 1075 O 93.9593 0.0158301 -1.95894 0
M  V30 1076 H 92.5393 -0.710964 -0.229214 0
M  V30 1077 H 95.2013 -1.94571 0.113218 0
M  V30 1078 H 94.2973 -2.94038 -1.04633 0
M  V30 1079 N 94.5984 0.214957 -1.56127 0
M  V30 1080 C 95.5464 1.28601 -1.93816 0
M  V30 1081 C 96.5404 1.48175 -0.821016 0
M  V30 1082 O 97.7464 1.49271 -1.0059 0
M  V30 1083 H 94.1214 0.431302 -0.616022 0
M  V30 1084 H 96.0924 0.940991 -2.83175 0
M  V30 1085 C 94.8414 2.62779 -2.27689 0
M  V30 1086 H 94.1644 2.48527 -3.13168 0
M  V30 1087 H 95.6044 3.36517 -2.57939 0
M  V30 1088 C 94.0634 3.18285 -1.10436 0
M  V30 1089 O 94.5934 4.00002 -0.368945 0
M  V30 1090 N 92.7994 2.7675 -0.886433 0
M  V30 1091 H 92.3464 2.10404 -1.48619 0
M  V30 1092 H 92.3044 3.14229 -0.103656 0
M  V30 1093 N 96.0765 1.50051 0.48192 0
M  V30 1094 C 97.4925 1.37237 0.814756 0
M  V30 1095 C 97.6925 0.420109 1.97072 0
M  V30 1096 O 96.7485 -0.141246 2.52105 0
M  V30 1097 C 98.0615 2.78375 1.13701 0
M  V30 1098 C 99.6095 2.87213 1.2441 0
M  V30 1099 C 100.084 4.29161 1.59954 0
M  V30 1100 N 101.575 4.32061 1.66967 0
M  V30 1101 C 102.31 5.38879 1.95952 0
M  V30 1102 N 101.806 6.55918 2.23031 0
M  V30 1103 N 103.599 5.26312 1.97363 0
M  V30 1104 H 95.7505 2.10546 -0.28005 0
M  V30 1105 H 98.0135 0.945921 -0.0627454 0
M  V30 1106 H 97.7195 3.49845 0.360787 0
M  V30 1107 H 97.5935 3.14941 2.07586 0
M  V30 1108 H 99.9805 2.15969 2.01101 0
M  V30 1109 H 100.061 2.54204 0.285299 0
M  V30 1110 H 99.7055 5.00938 0.838067 0
M  V30 1111 H 99.6355 4.59648 2.56966 0
M  V30 1112 H 102.126 3.47661 1.48123 0
M  V30 1113 H 102.439 7.33139 2.44391 0
M  V30 1114 H 100.784 6.59112 2.20447 0
M  V30 1115 H 103.975 4.33876 1.75697 0
M  V30 1116 H 104.148 6.09649 2.19618 0
M  V30 1117 N 97.5546 -0.734337 1.39446 0
M  V30 1118 C 98.8036 -1.48937 1.36017 0
M  V30 1119 C 99.1166 -1.95557 -0.0409005 0
M  V30 1120 O 100.323 -2.70779 -0.19778 0
M  V30 1121 C 98.7786 -2.69125 2.38955 0
M  V30 1122 C 98.3866 -2.29452 3.8478 0
M  V30 1123 C 100.131 -3.46944 2.44603 0
M  V30 1124 C 98.0376 -3.46366 4.79358 0
M  V30 1125 H 96.9676 -0.559296 0.505672 0
M  V30 1126 H 99.6186 -0.800983 1.65095 0
M  V30 1127 H 98.0006 -3.40041 2.02948 0
M  V30 1128 H 99.1746 -1.66077 4.29831 0
M  V30 1129 H 97.4896 -1.64723 3.82433 0
M  V30 1130 H 100.087 -4.33907 3.12456 0
M  V30 1131 H 100.43 -3.89454 1.47076 0
M  V30 1132 H 100.963 -2.83056 2.79507 0
M  V30 1133 H 97.7016 -3.08905 5.78151 0
M  V30 1134 H 97.2216 -4.08719 4.38986 0
M  V30 1135 H 98.9006 -4.12691 4.98292 0
M  V30 1136 N 99.0327 -1.24633 -0.964593 0
M  V30 1137 C 99.9797 -1.04144 -2.05968 0
M  V30 1138 C 100.95 0.046262 -1.66036 0
M  V30 1139 O 102.135 -0.108972 -1.90489 0
M  V30 1140 C 99.2747 -0.65563 -3.38815 0
M  V30 1141 C 98.3877 -1.81714 -3.91923 0
M  V30 1142 C 97.5227 -1.37662 -5.13052 0
M  V30 1143 C 96.5617 -2.50788 -5.58365 0
M  V30 1144 N 95.6987 -2.07582 -6.70712 0
M  V30 1145 H 100.539 -1.9787 -2.22827 0
M  V30 1146 H 98.0757 -0.9855 -1.09208 0
M  V30 1147 H 100.034 -0.412954 -4.15151 0
M  V30 1148 H 98.6637 0.244627 -3.21872 0
M  V30 1149 H 97.7157 -2.1734 -3.12198 0
M  V30 1150 H 99.0277 -2.66705 -4.21509 0
M  V30 1151 H 98.1817 -1.093 -5.96773 0
M  V30 1152 H 96.9207 -0.497293 -4.85158 0
M  V30 1153 H 95.9257 -2.79906 -4.73215 0
M  V30 1154 H 97.1507 -3.39283 -5.88272 0
M  V30 1155 H 95.0967 -1.22051 -6.44546 0
M  V30 1156 H 95.0137 -2.86125 -6.99763 0
M  V30 1157 H 96.2817 -1.82369 -7.57867 0
M  V30 1158 N 100.511 1.16574 -1.06058 0
M  V30 1159 C 101.441 2.23057 -0.690488 0
M  V30 1160 C 102.422 1.67141 0.315901 0
M  V30 1161 O 103.607 1.93253 0.191556 0
M  V30 1162 C 100.737 3.47222 -0.073625 0
M  V30 1163 C 99.6908 4.16016 -1.00573 0
M  V30 1164 C 99.0168 5.34104 -0.252289 0
M  V30 1165 C 100.317 4.67264 -2.33371 0
M  V30 1166 H 102.011 2.54271 -1.58072 0
M  V30 1167 H 99.5568 1.22218 -0.76149 0
M  V30 1168 H 101.51 4.20939 0.19714 0
M  V30 1169 H 100.234 3.15302 0.85161 0
M  V30 1170 H 98.8928 3.44223 -1.2612 0
M  V30 1171 H 98.5408 4.98437 0.675988 0
M  V30 1172 H 98.2408 5.81072 -0.873455 0
M  V30 1173 H 99.7648 6.10599 0.0109857 0
M  V30 1174 H 101.179 5.32573 -2.12223 0
M  V30 1175 H 99.5758 5.24843 -2.90963 0
M  V30 1176 H 100.646 3.83602 -2.96611 0
M  V30 1177 N 101.989 0.842826 1.3317 0
M  V30 1178 C 102.919 0.294028 2.31641 0
M  V30 1179 C 103.9 -0.600401 1.59151 0
M  V30 1180 O 105.085 -0.523124 1.87022 0
M  V30 1181 C 102.215 -0.528416 3.43257 0
M  V30 1182 C 101.169 0.27056 4.27144 0
M  V30 1183 C 100.495 -0.675881 5.30411 0
M  V30 1184 C 101.795 1.48981 5.00602 0
M  V30 1185 H 103.489 1.11681 2.77791 0
M  V30 1186 H 101.035 0.538478 1.33553 0
M  V30 1187 H 102.988 -0.922674 4.11175 0
M  V30 1188 H 101.712 -1.38445 2.95805 0
M  V30 1189 H 100.371 0.646427 3.60856 0
M  V30 1190 H 100.019 -1.52842 4.79216 0
M  V30 1191 H 99.7189 -0.145374 5.8742 0
M  V30 1192 H 101.243 -1.06757 6.01195 0
M  V30 1193 H 102.657 1.16849 5.61266 0
M  V30 1194 H 101.054 1.95739 5.6728 0
M  V30 1195 H 102.124 2.25746 4.29147 0
M  V30 1196 N 103.467 -1.45747 0.599634 0
M  V30 1197 C 104.878 -1.85853 0.177681 0
M  V30 1198 C 105.229 -1.50102 -1.26348 0
M  V30 1199 O 104.354 -0.923905 -1.95686 0
M  V30 1200 C 104.949 -3.37326 0.315688 0
M  V30 1201 C 103.508 -3.76365 -0.0515144 0
M  V30 1202 C 102.655 -2.69722 0.643822 0
M  V30 1203 H 105.606 -1.36661 0.806814 0
M  V30 1204 H 105.627 -3.77778 -0.454321 0
M  V30 1205 H 105.139 -3.63315 1.36468 0
M  V30 1206 H 103.24 -3.55993 -1.09999 0
M  V30 1207 H 103.353 -4.77916 0.336594 0
M  V30 1208 H 101.717 -2.54567 0.0822881 0
M  V30 1209 H 102.5 -2.98549 1.6948 0
M  V30 1210 N 104.945 -0.338344 -1.53925 0
M  V30 1211 C 105.875 0.51328 -2.27789 0
M  V30 1212 C 106.856 1.107 -1.29149 0
M  V30 1213 O 108.041 1.12937 -1.57984 0
M  V30 1214 C 105.171 1.66697 -3.04679 0
M  V30 1215 C 104.125 1.20183 -4.1078 0
M  V30 1216 C 103.451 2.44363 -4.75595 0
M  V30 1217 C 104.751 0.30605 -5.21403 0
M  V30 1218 H 106.445 -0.102883 -2.99223 0
M  V30 1219 H 103.991 -0.0509219 -1.4391 0
M  V30 1220 H 105.944 2.26915 -3.55088 0
M  V30 1221 H 104.668 2.30995 -2.30887 0
M  V30 1222 H 103.327 0.622499 -3.61276 0
M  V30 1223 H 102.975 3.07057 -3.98403 0
M  V30 1224 H 102.675 2.13925 -5.47275 0
M  V30 1225 H 104.199 3.05317 -5.28786 0
M  V30 1226 H 105.613 0.814929 -5.67478 0
M  V30 1227 H 104.01 0.0937929 -6.00027 0
M  V30 1228 H 105.08 -0.65921 -4.80398 0
M  V30 1229 N 106.423 1.57458 -0.0668435 0
M  V30 1230 C 107.834 1.80776 0.466558 0
M  V30 1231 C 108.185 0.980361 1.69951 0
M  V30 1232 O 107.31 0.201441 2.1546 0
M  V30 1233 C 107.905 3.27881 0.85321 0
M  V30 1234 C 106.464 3.52062 1.3315 0
M  V30 1235 C 105.611 2.75513 0.314264 0
M  V30 1236 H 108.562 1.5598 -0.292588 0
M  V30 1237 H 108.583 3.39659 1.715 0
M  V30 1238 H 108.095 3.88075 -0.0443439 0
M  V30 1239 H 106.196 2.97167 2.24772 0
M  V30 1240 H 106.309 4.60762 1.31285 0
M  V30 1241 H 104.673 2.42123 0.790492 0
M  V30 1242 H 105.456 3.38442 -0.575477 0
M  V30 1243 N 107.901 -0.206675 1.56239 0
M  V30 1244 C 109.312 -0.772383 1.69974 0
M  V30 1245 C 109.663 -1.84353 0.671436 0
M  V30 1246 O 108.788 -2.15695 -0.174491 0
M  V30 1247 C 109.383 -1.40779 3.08167 0
M  V30 1248 C 107.942 -1.92072 3.23706 0
M  V30 1249 C 107.089 -0.786347 2.65917 0
M  V30 1250 H 110.04 0.0182223 1.5869 0
M  V30 1251 H 110.061 -2.27696 3.04852 0
M  V30 1252 H 109.573 -0.627958 3.82986 0
M  V30 1253 H 107.674 -2.7281 2.53782 0
M  V30 1254 H 107.787 -2.09046 4.31087 0
M  V30 1255 H 106.151 -1.1976 2.24788 0
M  V30 1256 H 106.934 -0.0189416 3.43295 0
M  V30 1257 N 109.379 -1.50304 -0.473955 0
M  V30 1258 C 110.607 -1.64902 -1.24959 0
M  V30 1259 C 111.022 -0.331198 -1.85872 0
M  V30 1260 O 110.379 0.68652 -1.69095 0
M  V30 1261 C 110.43 -2.73803 -2.36038 0
M  V30 1262 O 110.151 -4.00477 -1.77624 0
M  V30 1263 C 111.652 -2.99349 -3.26964 0
M  V30 1264 H 108.872 -0.554383 -0.378022 0
M  V30 1265 H 111.416 -1.9651 -0.566054 0
M  V30 1266 H 109.571 -2.44898 -3.00173 0
M  V30 1267 H 109.985 -4.60678 -2.5075 0
M  V30 1268 H 111.459 -3.79217 -4.01121 0
M  V30 1269 H 111.936 -2.10307 -3.85574 0
M  V30 1270 H 112.542 -3.29774 -2.68569 0
M  V30 1271 N 110.857 0.726932 -1.39834 0
M  V30 1272 C 112.273 1.03354 -1.21615 0
M  V30 1273 C 112.473 2.01327 -0.08338 0
M  V30 1274 O 111.529 2.46158 0.56238 0
M  V30 1275 C 112.842 1.58811 -2.55342 0
M  V30 1276 C 114.39 1.70851 -2.62257 0
M  V30 1277 C 114.865 2.29716 -3.96225 0
M  V30 1278 N 116.356 2.37116 -3.97907 0
M  V30 1279 C 117.091 2.83619 -4.98345 0
M  V30 1280 N 116.587 3.29958 -6.09179 0
M  V30 1281 N 118.38 2.82901 -4.8572 0
M  V30 1282 H 110.531 0.0773069 -2.12259 0
M  V30 1283 H 112.794 0.0969102 -0.943034 0
M  V30 1284 H 112.5 0.942855 -3.38826 0
M  V30 1285 H 112.374 2.57502 -2.75632 0
M  V30 1286 H 114.761 2.34497 -1.79152 0
M  V30 1287 H 114.842 0.707913 -2.45809 0
M  V30 1288 H 114.486 1.66696 -4.79765 0
M  V30 1289 H 114.416 3.30469 -4.09997 0
M  V30 1290 H 116.907 2.04374 -3.17868 0
M  V30 1291 H 117.22 3.63976 -6.8172 0
M  V30 1292 H 115.565 3.27946 -6.12761 0
M  V30 1293 H 118.756 2.46027 -3.98231 0
M  V30 1294 H 118.929 3.18827 -5.6414 0
M  V30 1295 N 112.336 1.25143 0.95797 0
M  V30 1296 C 113.584 1.09476 1.69881 0
M  V30 1297 C 113.905 -0.365502 1.91544 0
M  V30 1298 O 113.175 -1.25985 1.50015 0
M  V30 1299 H 111.755 0.402128 0.629525 0
M  V30 1300 H 114.417 1.57214 1.15194 0
M  V30 1301 H 113.513 1.60046 2.6794 0
M  V30 1302 N 113.814 -1.1601 1.06675 0
M  V30 1303 C 114.744 -2.22688 0.702307 0
M  V30 1304 C 115.725 -1.67306 -0.307032 0
M  V30 1305 O 116.91 -1.93352 -0.181305 0
M  V30 1306 C 114.04 -3.47178 0.092038 0
M  V30 1307 C 112.994 -4.15477 1.02777 0
M  V30 1308 C 112.32 -5.33963 0.28061 0
M  V30 1309 C 113.62 -4.66019 2.35846 0
M  V30 1310 H 115.314 -2.53429 1.59419 0
M  V30 1311 H 112.86 -1.21813 0.767961 0
M  V30 1312 H 114.813 -4.21037 -0.174814 0
M  V30 1313 H 113.537 -3.15749 -0.834877 0
M  V30 1314 H 112.196 -3.43549 1.27944 0
M  V30 1315 H 111.844 -4.98788 -0.649545 0
M  V30 1316 H 111.544 -5.806 0.904258 0
M  V30 1317 H 113.068 -6.10596 0.021396 0
M  V30 1318 H 114.482 -5.3144 2.15045 0
M  V30 1319 H 112.879 -5.23293 2.93743 0
M  V30 1320 H 113.949 -3.82023 2.98641 0
M  V30 1321 N 115.292 -0.849877 -1.32721 0
M  V30 1322 C 116.541 -0.447175 -1.96681 0
M  V30 1323 C 116.854 1.00135 -1.68025 0
M  V30 1324 O 118.06 1.50926 -2.25685 0
M  V30 1325 C 116.516 -0.7487 -3.52026 0
M  V30 1326 C 116.124 -2.21264 -3.89546 0
M  V30 1327 C 117.868 -0.413487 -4.22481 0
M  V30 1328 C 115.775 -2.45763 -5.37917 0
M  V30 1329 H 114.705 -0.163486 -0.736063 0
M  V30 1330 H 117.356 -1.03999 -1.51183 0
M  V30 1331 H 115.738 -0.0853727 -3.95908 0
M  V30 1332 H 116.912 -2.91736 -3.56689 0
M  V30 1333 H 115.227 -2.5119 -3.32103 0
M  V30 1334 H 117.824 -0.574017 -5.3161 0
M  V30 1335 H 118.167 0.644492 -4.11281 0
M  V30 1336 H 118.7 -1.03251 -3.84167 0
M  V30 1337 H 115.439 -3.50168 -5.54132 0
M  V30 1338 H 114.959 -1.79864 -5.72197 0
M  V30 1339 H 116.638 -2.29471 -6.0494 0
M  V30 1340 N 116.77 1.45427 -0.607355 0
M  V30 1341 C 118 2.06314 -0.108656 0
M  V30 1342 C 118.408 1.45269 1.21217 0
M  V30 1343 O 117.751 0.561115 1.74921 0
M  V30 1344 C 117.813 3.59345 0.105618 0
M  V30 1345 C 117.477 4.42723 -1.13337 0
M  V30 1346 C 118.474 4.77715 -2.05145 0
M  V30 1347 C 116.159 4.83478 -1.36213 0
M  V30 1348 C 118.153 5.52317 -3.18158 0
M  V30 1349 C 115.84 5.57835 -2.49527 0
M  V30 1350 C 116.838 5.92171 -3.40327 0
M  V30 1351 O 116.526 6.65019 -4.51669 0
M  V30 1352 H 116.258 0.672782 -0.0658842 0
M  V30 1353 H 118.812 1.87664 -0.834945 0
M  V30 1354 H 117.042 3.76394 0.886796 0
M  V30 1355 H 118.731 4.02076 0.555886 0
M  V30 1356 H 119.497 4.46787 -1.88697 0
M  V30 1357 H 115.376 4.56188 -0.664362 0
M  V30 1358 H 118.92 5.79036 -3.89054 0
M  V30 1359 H 114.817 5.88177 -2.65928 0
M  V30 1360 H 115.585 6.83469 -4.50348 0
M  V30 1361 N 118.248 0.346503 1.53744 0
M  V30 1362 C 119.525 -0.304532 1.93215 0
M  V30 1363 C 119.905 -1.67993 1.27834 0
M  V30 1364 O 119.253 -2.24411 0.430352 0
M  V30 1365 C 119.463 -0.373852 3.46992 0
M  V30 1366 C 120.811 -0.62329 4.2 0
M  V30 1367 O 121.835 -0.455847 3.53271 0
M  V30 1368 O 120.694 -0.947879 5.38217 0
M  V30 1369 H 117.788 -0.178318 0.807547 0
M  V30 1370 H 120.334 0.397895 1.64969 0
M  V30 1371 H 119.106 0.591224 3.86808 0
M  V30 1372 H 118.729 -1.12294 3.81413 0
M  V30 1373 N 119.726 -1.57421 0.075193 0
M  V30 1374 C 121.142 -1.57099 -0.281444 0
M  V30 1375 C 121.342 -1.08486 -1.69803 0
M  V30 1376 O 120.398 -0.752279 -2.41033 0
M  V30 1377 C 121.711 -3.00571 -0.0880041 0
M  V30 1378 C 123.259 -3.12605 -0.157281 0
M  V30 1379 C 123.734 -4.57999 0.0079207 0
M  V30 1380 N 125.225 -4.63176 -0.0475725 0
M  V30 1381 C 125.96 -5.73373 0.0557876 0
M  V30 1382 N 125.456 -6.92473 0.21286 0
M  V30 1383 N 127.249 -5.621 -0.00152098 0
M  V30 1384 H 119.4 -1.87335 1.00098 0
M  V30 1385 H 121.663 -0.86377 0.390646 0
M  V30 1386 H 121.369 -3.40262 0.889629 0
M  V30 1387 H 121.243 -3.67754 -0.838875 0
M  V30 1388 H 123.63 -2.72798 -1.1254 0
M  V30 1389 H 123.711 -2.48053 0.62475 0
M  V30 1390 H 123.355 -4.98496 0.972824 0
M  V30 1391 H 123.285 -5.20586 -0.793556 0
M  V30 1392 H 125.776 -3.7753 -0.167244 0
M  V30 1393 H 126.089 -7.72279 0.283781 0
M  V30 1394 H 124.434 -6.94556 0.248267 0
M  V30 1395 H 127.625 -4.67938 -0.122958 0
M  V30 1396 H 127.798 -6.47948 0.0824844 0
M  V30 1397 N 121.204 0.198386 -1.56346 0
M  V30 1398 C 122.434 0.934215 -1.84271 0
M  V30 1399 C 122.842 1.77496 -0.655125 0
M  V30 1400 O 122.185 1.7961 0.385488 0
M  V30 1401 C 122.247 1.88278 -3.06254 0
M  V30 1402 C 121.911 1.22431 -4.40295 0
M  V30 1403 C 122.908 0.602839 -5.16393 0
M  V30 1404 C 120.593 1.22915 -4.87029 0
M  V30 1405 C 122.587 -0.0050083 -6.374 0
M  V30 1406 C 120.274 0.617465 -6.07973 0
M  V30 1407 C 121.272 0.00146341 -6.83 0
M  V30 1408 O 120.96 -0.600642 -8.01653 0
M  V30 1409 H 120.692 0.278245 -0.616081 0
M  V30 1410 H 123.246 0.211626 -2.04307 0
M  V30 1411 H 121.476 2.64498 -2.82095 0
M  V30 1412 H 123.165 2.48612 -3.20853 0
M  V30 1413 H 123.931 0.591265 -4.81382 0
M  V30 1414 H 119.81 1.69801 -4.28589 0
M  V30 1415 H 123.354 -0.48643 -6.95902 0
M  V30 1416 H 119.251 0.62653 -6.42452 0
M  V30 1417 H 120.019 -0.497225 -8.16988 0
M  V30 1418 N 122.682 1.50554 0.465978 0
M  V30 1419 C 123.93 1.61479 1.21528 0
M  V30 1420 C 124.251 0.319596 1.92363 0
M  V30 1421 O 123.521 -0.663194 1.84333 0
M  V30 1422 H 122.101 0.595055 0.451573 0
M  V30 1423 H 124.763 1.87355 0.53704 0
M  V30 1424 H 123.859 2.42846 1.96042 0
M  V30 1425 N 124.16 -0.719506 1.40217 0
M  V30 1426 C 125.107 -1.83359 1.40172 0
M  V30 1427 C 126.077 -1.64065 0.259206 0
M  V30 1428 O 127.262 -1.85254 0.456677 0
M  V30 1429 C 124.402 -3.2103 1.26624 0
M  V30 1430 C 123.515 -3.51923 2.50548 0
M  V30 1431 C 122.65 -4.79079 2.29471 0
M  V30 1432 C 121.689 -5.02863 3.48992 0
M  V30 1433 N 120.826 -6.2123 3.27135 0
M  V30 1434 H 125.666 -1.82733 2.35399 0
M  V30 1435 H 123.203 -0.892688 1.16917 0
M  V30 1436 H 125.161 -4.00524 1.16776 0
M  V30 1437 H 123.791 -3.20895 0.350176 0
M  V30 1438 H 122.843 -2.67014 2.70939 0
M  V30 1439 H 124.155 -3.6541 3.39525 0
M  V30 1440 H 123.309 -5.66582 2.16955 0
M  V30 1441 H 122.048 -4.67794 1.37913 0
M  V30 1442 H 121.053 -4.13816 3.6199 0
M  V30 1443 H 122.278 -5.16023 4.41472 0
M  V30 1444 H 120.224 -6.11204 2.38256 0
M  V30 1445 H 120.141 -6.35375 4.09675 0
M  V30 1446 H 121.409 -7.11532 3.18344 0
M  V30 1447 N 125.638 -1.25649 -0.95132 0
M  V30 1448 C 126.568 -1.08808 -2.06599 0
M  V30 1449 C 127.549 0.00382547 -1.701 0
M  V30 1450 O 128.734 -0.166325 -1.93486 0
M  V30 1451 C 125.864 -0.709542 -3.39975 0
M  V30 1452 C 124.818 -1.75206 -3.90496 0
M  V30 1453 C 124.144 -1.22811 -5.20405 0
M  V30 1454 C 125.444 -3.15153 -4.16504 0
M  V30 1455 H 127.138 -2.02048 -2.20946 0
M  V30 1456 H 124.684 -0.972835 -1.06169 0
M  V30 1457 H 126.637 -0.578649 -4.17408 0
M  V30 1458 H 125.361 0.258556 -3.25575 0
M  V30 1459 H 124.02 -1.87145 -3.15234 0
M  V30 1460 H 123.668 -0.250145 -5.02378 0
M  V30 1461 H 123.368 -1.92492 -5.55176 0
M  V30 1462 H 124.892 -1.10968 -6.00432 0
M  V30 1463 H 126.306 -3.06349 -4.84586 0
M  V30 1464 H 124.703 -3.82333 -4.62538 0
M  V30 1465 H 125.773 -3.61966 -3.22658 0
M  V30 1466 N 127.117 1.15442 -1.07289 0
M  V30 1467 C 128.047 2.22312 -0.714107 0
M  V30 1468 C 129.028 1.67467 0.298155 0
M  V30 1469 O 130.213 1.93445 0.171048 0
M  V30 1470 C 127.343 3.47124 -0.110448 0
M  V30 1471 C 126.297 4.14926 -1.04979 0
M  V30 1472 C 125.623 5.33807 -0.308924 0
M  V30 1473 C 126.923 4.64762 -2.38314 0
M  V30 1474 H 128.617 2.5258 -1.6076 0
M  V30 1475 H 126.163 1.21404 -0.77441 0
M  V30 1476 H 128.116 4.21124 0.152482 0
M  V30 1477 H 126.84 3.16187 0.81812 0
M  V30 1478 H 125.499 3.42866 -1.29764 0
M  V30 1479 H 125.147 4.99126 0.623084 0
M  V30 1480 H 124.847 5.80113 -0.935036 0
M  V30 1481 H 126.371 6.10576 -0.0537771 0
M  V30 1482 H 127.785 5.30292 -2.1786 0
M  V30 1483 H 126.182 5.21728 -2.96514 0
M  V30 1484 H 127.252 3.80434 -3.00663 0
M  V30 1485 N 128.595 0.856903 1.32268 0
M  V30 1486 C 129.558 0.308171 2.27119 0
M  V30 1487 C 130.558 -0.533421 1.51695 0
M  V30 1488 O 131.748 -0.344607 1.70757 0
M  V30 1489 C 128.88 -0.563757 3.36206 0
M  V30 1490 H 130.073 1.14535 2.77167 0
M  V30 1491 H 127.626 0.631421 1.42978 0
M  V30 1492 H 128.361 -1.42266 2.91429 0
M  V30 1493 H 128.146 0.0386749 3.92081 0
M  V30 1494 H 129.636 -0.940386 4.06874 0
M  V30 1495 N 130.073 -1.45103 0.615059 0
M  V30 1496 C 130.983 -2.34382 -0.101034 0
M  V30 1497 C 131.999 -1.51681 -0.852585 0
M  V30 1498 O 133.175 -1.8446 -0.808484 0
M  V30 1499 C 130.24 -3.29417 -1.08099 0
M  V30 1500 C 129.301 -4.28025 -0.330577 0
M  V30 1501 C 128.534 -5.1852 -1.26385 0
M  V30 1502 O 128.757 -5.12598 -2.50198 0
M  V30 1503 O 127.691 -5.97122 -0.756866 0
M  V30 1504 H 131.517 -2.97033 0.632855 0
M  V30 1505 H 129.102 -1.4461 0.375293 0
M  V30 1506 H 130.984 -3.87958 -1.6452 0
M  V30 1507 H 129.659 -2.69321 -1.79577 0
M  V30 1508 H 128.566 -3.73078 0.276283 0
M  V30 1509 H 129.899 -4.90997 0.343866 0
M  V30 1510 N 131.551 -0.354651 -1.53558 0
M  V30 1511 C 132.499 0.512195 -2.26891 0
M  V30 1512 C 133.493 1.09263 -1.29452 0
M  V30 1513 O 134.699 1.03709 -1.47121 0
M  V30 1514 H 131.074 0.183878 -0.729173 0
M  V30 1515 H 133.045 -0.128202 -2.98124 0
M  V30 1516 C 131.794 1.64563 -3.06291 0
M  V30 1517 H 131.117 1.20829 -3.81104 0
M  V30 1518 H 132.557 2.22711 -3.60799 0
M  V30 1519 C 131.016 2.58158 -2.16462 0
M  V30 1520 O 131.546 3.60695 -1.76811 0
M  V30 1521 N 129.752 2.27096 -1.81317 0
M  V30 1522 H 129.299 1.43751 -2.1376 0
M  V30 1523 H 129.257 2.89975 -1.21498 0
M  V30 1524 N 133.029 1.57378 -0.0835403 0
M  V30 1525 C 133.959 2.1641 0.87686 0
M  V30 1526 C 134.94 1.09429 1.30228 0
M  V30 1527 O 136.125 1.37516 1.37124 0
M  V30 1528 C 133.255 2.73517 2.14022 0
M  V30 1529 C 132.209 3.85769 1.85381 0
M  V30 1530 C 131.535 4.29529 3.18448 0
M  V30 1531 C 132.835 5.09486 1.14984 0
M  V30 1532 H 134.529 2.96914 0.385059 0
M  V30 1533 H 132.075 1.42823 0.18377 0
M  V30 1534 H 134.028 3.13463 2.81636 0
M  V30 1535 H 132.752 1.90252 2.65465 0
M  V30 1536 H 131.411 3.46345 1.20169 0
M  V30 1537 H 131.059 3.43169 3.67755 0
M  V30 1538 H 130.759 5.05204 3.00071 0
M  V30 1539 H 132.283 4.72099 3.8724 0
M  V30 1540 H 133.697 5.46674 1.72687 0
M  V30 1541 H 132.094 5.90515 1.06826 0
M  V30 1542 H 133.164 4.84724 0.130749 0
M  V30 1543 N 134.507 -0.190092 1.56449 0
M  V30 1544 C 135.735 -0.925772 1.85033 0
M  V30 1545 C 136.15 -1.76638 0.666658 0
M  V30 1546 O 135.507 -1.78822 -0.364565 0
M  V30 1547 C 135.558 -1.81786 3.12468 0
M  V30 1548 O 135.279 -1.01118 4.26271 0
M  V30 1549 C 136.78 -2.6648 3.54265 0
M  V30 1550 H 134 -0.269872 0.614337 0
M  V30 1551 H 136.544 -0.195837 2.0356 0
M  V30 1552 H 134.699 -2.50136 2.95822 0
M  V30 1553 H 135.113 -1.61956 4.98869 0
M  V30 1554 H 136.587 -3.24722 4.46385 0
M  V30 1555 H 137.064 -3.40434 2.77491 0
M  V30 1556 H 137.67 -2.03493 3.73458 0
M  V30 1557 N 135.985 -1.50799 -0.457987 0
M  V30 1558 C 137.232 -1.62442 -1.20908 0
M  V30 1559 C 137.56 -0.330865 -1.91665 0
M  V30 1560 O 136.815 0.68401 -1.83357 0
M  V30 1561 C 137.114 -2.76358 -2.2663 0
M  V30 1562 C 136.78 -4.16378 -1.73033 0
M  V30 1563 C 135.442 -4.54473 -1.58138 0
M  V30 1564 C 137.794 -5.03836 -1.33413 0
M  V30 1565 C 135.122 -5.77754 -1.02065 0
M  V30 1566 C 137.474 -6.27676 -0.78778 0
M  V30 1567 C 136.138 -6.64562 -0.625561 0
M  V30 1568 H 135.408 -0.594417 -0.442435 0
M  V30 1569 H 138.055 -1.84772 -0.503136 0
M  V30 1570 H 136.36 -2.48167 -3.03184 0
M  V30 1571 H 138.057 -2.82568 -2.84528 0
M  V30 1572 H 134.647 -3.86331 -1.85598 0
M  V30 1573 H 138.831 -4.75026 -1.4375 0
M  V30 1574 H 134.087 -6.04997 -0.882547 0
M  V30 1575 H 138.261 -6.94797 -0.472177 0
M  V30 1576 H 135.888 -7.59965 -0.188926 0
M  V30 1577 N 137.463 0.71206 -1.40597 0
M  V30 1578 C 138.71 1.47197 -1.39065 0
M  V30 1579 C 139.038 1.94499 0.00583891 0
M  V30 1580 O 138.293 1.68752 0.99102 0
M  V30 1581 C 138.592 2.71039 -2.32965 0
M  V30 1582 C 138.258 2.42484 -3.80148 0
M  V30 1583 C 136.92 2.34406 -4.20247 0
M  V30 1584 C 139.272 2.18598 -4.73143 0
M  V30 1585 C 136.6 2.00516 -5.51371 0
M  V30 1586 C 138.952 1.8622 -6.0457 0
M  V30 1587 C 137.616 1.76626 -6.43708 0
M  V30 1588 H 136.886 0.538634 -0.508876 0
M  V30 1589 H 139.533 0.815325 -1.73276 0
M  V30 1590 H 137.838 3.41558 -1.91951 0
M  V30 1591 H 139.535 3.29138 -2.29061 0
M  V30 1592 H 136.125 2.49659 -3.4838 0
M  V30 1593 H 140.309 2.23793 -4.42979 0
M  V30 1594 H 135.565 1.91628 -5.80593 0
M  V30 1595 H 139.739 1.66752 -6.76141 0
M  V30 1596 H 137.366 1.50133 -7.45228 0
M  V30 1597 N 138.941 1.26152 0.944643 0
M  V30 1598 C 140.189 1.11271 1.6871 0
M  V30 1599 C 140.51 -0.345166 1.91921 0
M  V30 1600 O 139.78 -1.24387 1.51343 0
M  V30 1601 H 138.36 0.408783 0.625224 0
M  V30 1602 H 141.022 1.58427 1.1352 0
M  V30 1603 H 140.118 1.62879 2.66227 0
M  V30 1604 N 140.419 -1.14872 1.07899 0
M  V30 1605 C 141.349 -2.2193 0.725887 0
M  V30 1606 C 142.33 -1.67622 -0.28927 0
M  V30 1607 O 143.515 -1.93533 -0.160787 0
M  V30 1608 C 140.645 -3.47061 0.128856 0
M  V30 1609 C 139.599 -4.14363 1.07178 0
M  V30 1610 C 138.925 -5.33636 0.337229 0
M  V30 1611 C 140.225 -4.63492 2.40775 0
M  V30 1612 H 141.919 -2.51724 1.62097 0
M  V30 1613 H 139.465 -1.20991 0.780838 0
M  V30 1614 H 141.418 -4.21199 -0.130147 0
M  V30 1615 H 140.142 -3.16617 -0.80134 0
M  V30 1616 H 138.801 -3.42173 1.3158 0
M  V30 1617 H 138.449 -4.99449 -0.596606 0
M  V30 1618 H 138.149 -5.79609 0.965788 0
M  V30 1619 H 139.673 -6.10539 0.0861567 0
M  V30 1620 H 141.087 -5.2913 2.20669 0
M  V30 1621 H 139.484 -5.20148 2.99276 0
M  V30 1622 H 140.554 -3.78834 3.02676 0
M  V30 1623 N 141.898 -0.863906 -1.31812 0
M  V30 1624 C 143.128 -0.485406 -2.00817 0
M  V30 1625 C 143.536 0.925007 -1.65046 0
M  V30 1626 O 142.879 1.61653 -0.872574 0
M  V30 1627 C 142.941 -0.555589 -3.55181 0
M  V30 1628 C 142.605 -1.92654 -4.14407 0
M  V30 1629 C 143.602 -2.89324 -4.31958 0
M  V30 1630 C 141.287 -2.2262 -4.50273 0
M  V30 1631 C 143.281 -4.14108 -4.84555 0
M  V30 1632 C 140.968 -3.47654 -5.02573 0
M  V30 1633 C 141.966 -4.43214 -5.19664 0
M  V30 1634 O 141.654 -5.66033 -5.70843 0
M  V30 1635 H 141.386 -0.188224 -0.649267 0
M  V30 1636 H 143.94 -1.16514 -1.69156 0
M  V30 1637 H 142.17 0.181037 -3.86276 0
M  V30 1638 H 143.859 -0.19138 -4.05449 0
M  V30 1639 H 144.625 -2.6748 -4.04573 0
M  V30 1640 H 140.504 -1.4902 -4.3625 0
M  V30 1641 H 144.048 -4.88703 -4.9781 0
M  V30 1642 H 139.945 -3.69345 -5.29391 0
M  V30 1643 H 140.713 -5.6812 -5.89222 0
M  V30 1644 N 143.376 1.44774 -0.622745 0
M  V30 1645 C 144.625 2.01334 -0.121397 0
M  V30 1646 C 144.938 1.49505 1.26125 0
M  V30 1647 O 146.144 1.98139 1.85616 0
M  V30 1648 C 144.6 3.59516 -0.166298 0
M  V30 1649 C 144.208 4.20342 -1.54974 0
M  V30 1650 C 145.952 4.23582 0.279021 0
M  V30 1651 C 143.859 5.70721 -1.55021 0
M  V30 1652 H 142.789 0.752851 -0.0416172 0
M  V30 1653 H 145.44 1.66083 -0.780309 0
M  V30 1654 H 143.822 3.92027 0.559557 0
M  V30 1655 H 144.996 3.99381 -2.29851 0
M  V30 1656 H 143.311 3.68529 -1.93843 0
M  V30 1657 H 145.908 5.33868 0.298083 0
M  V30 1658 H 146.251 3.95327 1.30471 0
M  V30 1659 H 146.784 3.95843 -0.394063 0
M  V30 1660 H 143.523 6.03698 -2.55399 0
M  V30 1661 H 143.043 5.93829 -0.844245 0
M  V30 1662 H 144.722 6.34203 -1.28047 0
M  V30 1663 N 144.854 0.36279 1.53368 0
M  V30 1664 C 146.1 -0.228113 2.01513 0
M  V30 1665 C 146.433 -1.48648 1.2497 0
M  V30 1666 O 145.708 -1.91459 0.342616 0
M  V30 1667 C 145.991 -0.522884 3.56284 0
M  V30 1668 C 145.844 0.74892 4.43521 0
M  V30 1669 C 147.163 -1.32461 4.19693 0
M  V30 1670 H 144.282 -0.0814343 0.732487 0
M  V30 1671 H 146.924 0.48713 1.83649 0
M  V30 1672 H 145.074 -1.1322 3.71636 0
M  V30 1673 H 146.746 1.38648 4.39971 0
M  V30 1674 H 144.989 1.36986 4.11603 0
M  V30 1675 H 145.66 0.497667 5.49752 0
M  V30 1676 H 148.136 -0.809203 4.08156 0
M  V30 1677 H 147.012 -1.49961 5.28018 0
M  V30 1678 H 147.273 -2.33232 3.75573 0
M  V30 1679 N 146.332 -1.57332 0.0918853 0
M  V30 1680 C 147.743 -1.81496 -0.437739 0
M  V30 1681 C 148.094 -1.00727 -1.6837 0
M  V30 1682 O 147.219 -0.235694 -2.15113 0
M  V30 1683 C 147.814 -3.29197 -0.800939 0
M  V30 1684 C 146.373 -3.54136 -1.27532 0
M  V30 1685 C 145.52 -2.75979 -0.270392 0
M  V30 1686 H 148.471 -1.55494 0.317366 0
M  V30 1687 H 148.492 -3.42344 -1.66074 0
M  V30 1688 H 148.004 -3.87955 0.106078 0
M  V30 1689 H 146.105 -3.00705 -2.20016 0
M  V30 1690 H 146.218 -4.62792 -1.23938 0
M  V30 1691 H 144.582 -2.43349 -0.751872 0
M  V30 1692 H 145.365 -3.37484 0.629248 0
M  V30 1693 N 147.81 0.181792 -1.56548 0
M  V30 1694 C 148.72 1.24538 -1.98815 0
M  V30 1695 C 149.736 1.49045 -0.897861 0
M  V30 1696 O 150.912 1.61399 -1.20467 0
M  V30 1697 C 147.977 2.56683 -2.33055 0
M  V30 1698 C 147.038 2.40131 -3.55859 0
M  V30 1699 C 146.271 3.65975 -3.88456 0
M  V30 1700 O 146.494 4.70711 -3.22161 0
M  V30 1701 O 145.428 3.6071 -4.81842 0
M  V30 1702 H 149.254 0.916647 -2.89536 0
M  V30 1703 H 146.839 0.387842 -1.44278 0
M  V30 1704 H 148.721 3.34655 -2.56094 0
M  V30 1705 H 147.396 2.89157 -1.45498 0
M  V30 1706 H 146.303 1.60226 -3.38051 0
M  V30 1707 H 147.636 2.12585 -4.43924 0
M  V30 1708 N 149.288 1.51039 0.449983 0
M  V30 1709 C 150.235 1.71439 1.54523 0
M  V30 1710 C 151.205 0.555871 1.56522 0
M  V30 1711 O 152.39 0.788871 1.73728 0
M  V30 1712 C 149.53 1.83384 2.92343 0
M  V30 1713 C 148.643 3.10873 2.9997 0
M  V30 1714 C 147.778 3.13488 4.28834 0
M  V30 1715 C 146.817 4.35343 4.30282 0
M  V30 1716 N 145.954 4.35579 5.5065 0
M  V30 1717 H 150.794 2.64934 1.36433 0
M  V30 1718 H 148.331 1.31312 0.662982 0
M  V30 1719 H 150.289 1.88291 3.72293 0
M  V30 1720 H 148.919 0.933086 3.0902 0
M  V30 1721 H 147.971 3.15336 2.12761 0
M  V30 1722 H 149.283 4.00814 2.96901 0
M  V30 1723 H 148.437 3.17241 5.17149 0
M  V30 1724 H 147.176 2.21414 4.34543 0
M  V30 1725 H 146.181 4.3178 3.40362 0
M  V30 1726 H 147.406 5.28668 4.26248 0
M  V30 1727 H 145.352 3.46369 5.57104 0
M  V30 1728 H 145.269 5.19313 5.49409 0
M  V30 1729 H 146.537 4.43507 6.41032 0
M  V30 1730 N 150.766 -0.704594 1.40972 0
M  V30 1731 C 151.994 -1.49354 1.43182 0
M  V30 1732 C 152.409 -1.88768 0.0345508 0
M  V30 1733 O 151.766 -1.56184 -0.944081 0
M  V30 1734 C 151.817 -2.76187 2.33244 0
M  V30 1735 O 151.538 -2.38436 3.67532 0
M  V30 1736 C 153.039 -3.7 2.44162 0
M  V30 1737 H 150.259 -0.460559 0.487982 0
M  V30 1738 H 152.803 -0.868261 1.85153 0
M  V30 1739 H 150.958 -3.34974 1.94606 0
M  V30 1740 H 151.372 -3.20126 4.15475 0
M  V30 1741 H 152.846 -4.55803 3.11364 0
M  V30 1742 H 153.323 -4.13867 1.47006 0
M  V30 1743 H 153.929 -3.17121 2.83398 0
M  V30 1744 N 152.244 -1.26651 -0.937939 0
M  V30 1745 C 153.154 -1.10276 -2.07066 0
M  V30 1746 C 154.17 -0.0354197 -1.73964 0
M  V30 1747 O 155.346 -0.239816 -1.99967 0
M  V30 1748 C 152.411 -0.740887 -3.38691 0
M  V30 1749 C 151.472 -1.88799 -3.85556 0
M  V30 1750 C 150.705 -1.54329 -5.10899 0
M  V30 1751 O 150.928 -0.446494 -5.6865 0
M  V30 1752 O 149.862 -2.37911 -5.52885 0
M  V30 1753 H 153.688 -2.05309 -2.23789 0
M  V30 1754 H 151.273 -1.05743 -1.0554 0
M  V30 1755 H 153.155 -0.55195 -4.1777 0
M  V30 1756 H 151.83 0.180022 -3.23199 0
M  V30 1757 H 150.737 -2.13191 -3.07409 0
M  V30 1758 H 152.07 -2.78874 -4.05574 0
M  V30 1759 N 153.722 1.14298 -1.08507 0
M  V30 1760 C 154.67 2.21483 -0.710483 0
M  V30 1761 C 155.664 1.66998 0.284234 0
M  V30 1762 O 156.87 1.79401 0.146692 0
M  V30 1763 H 153.245 0.721578 -0.211729 0
M  V30 1764 H 155.216 2.50348 -1.62384 0
M  V30 1765 C 153.965 3.4743 -0.137007 0
M  V30 1766 H 153.288 3.89686 -0.893592 0
M  V30 1767 H 154.728 4.2391 0.0872789 0
M  V30 1768 C 153.187 3.17548 1.12538 0
M  V30 1769 O 153.717 3.35437 2.21009 0
M  V30 1770 N 151.923 2.71499 1.03617 0
M  V30 1771 H 151.47 2.57143 0.153403 0
M  V30 1772 H 151.428 2.51881 1.88158 0
M  V30 1773 N 155.201 0.870884 1.31352 0
M  V30 1774 C 156.131 0.343096 2.30966 0
M  V30 1775 C 157.112 -0.566507 1.60389 0
M  V30 1776 O 158.297 -0.483336 1.88089 0
M  V30 1777 C 155.427 -0.455487 3.443 0
M  V30 1778 C 154.381 0.361103 4.26474 0
M  V30 1779 C 153.707 -0.563221 5.31725 0
M  V30 1780 C 155.007 1.59566 4.97329 0
M  V30 1781 H 156.701 1.17548 2.75359 0
M  V30 1782 H 154.247 0.566686 1.32381 0
M  V30 1783 H 156.2 -0.83525 4.13039 0
M  V30 1784 H 154.924 -1.32139 2.98675 0
M  V30 1785 H 153.583 0.722825 3.59403 0
M  V30 1786 H 153.231 -1.42643 4.82351 0
M  V30 1787 H 152.931 -0.0207409 5.87596 0
M  V30 1788 H 154.455 -0.939808 6.03324 0
M  V30 1789 H 155.869 1.28728 5.58661 0
M  V30 1790 H 154.266 2.07728 5.63 0
M  V30 1791 H 155.336 2.34798 4.24262 0
M  V30 1792 N 156.679 -1.44442 0.630414 0
M  V30 1793 C 157.956 -1.9549 0.0655657 0
M  V30 1794 C 158.336 -1.5724 -1.40851 0
M  V30 1795 O 157.684 -0.846116 -2.12257 0
M  V30 1796 C 157.894 -3.47812 0.287691 0
M  V30 1797 C 159.242 -4.24216 0.180513 0
M  V30 1798 O 160.266 -3.55526 0.219019 0
M  V30 1799 O 159.125 -5.46434 0.0848493 0
M  V30 1800 H 156.219 -0.826688 -0.0227177 0
M  V30 1801 H 158.765 -1.54496 0.702068 0
M  V30 1802 H 157.537 -3.687 1.31056 0
M  V30 1803 H 157.16 -3.95751 -0.382984 0
M  V30 1804 N 158.157 -0.370918 -1.53173 0
M  V30 1805 C 159.573 -0.0200818 -1.59587 0
M  V30 1806 C 159.773 1.46279 -1.38581 0
M  V30 1807 O 158.829 2.22506 -1.19363 0
M  V30 1808 C 160.142 -0.4808 -2.96831 0
M  V30 1809 C 161.69 -0.435477 -3.09956 0
M  V30 1810 C 162.165 -0.872092 -4.4962 0
M  V30 1811 N 163.656 -0.827364 -4.55751 0
M  V30 1812 C 164.391 -1.13683 -5.62018 0
M  V30 1813 N 163.887 -1.51584 -6.76014 0
M  V30 1814 N 165.68 -1.05927 -5.52029 0
M  V30 1815 H 157.831 -1.33652 -1.65079 0
M  V30 1816 H 160.094 -0.546634 -0.774529 0
M  V30 1817 H 159.8 -1.51577 -3.1736 0
M  V30 1818 H 159.674 0.129796 -3.76977 0
M  V30 1819 H 162.061 0.590371 -2.89134 0
M  V30 1820 H 162.142 -1.08164 -2.31806 0
M  V30 1821 H 161.786 -1.89608 -4.71181 0
M  V30 1822 H 161.716 -0.203127 -5.26208 0
M  V30 1823 H 164.207 -0.548216 -3.73902 0
M  V30 1824 H 164.52 -1.73609 -7.53047 0
M  V30 1825 H 162.865 -1.55454 -6.77391 0
M  V30 1826 H 166.056 -0.762321 -4.61851 0
M  V30 1827 H 166.229 -1.30378 -6.34749 0
M  V30 1828 N 159.635 1.57281 -0.100228 0
M  V30 1829 C 160.863 1.98879 0.570509 0
M  V30 1830 C 161.278 0.979476 1.61405 0
M  V30 1831 O 160.635 -0.0302288 1.82475 0
M  V30 1832 C 160.686 3.4052 1.2136 0
M  V30 1833 O 160.407 4.37588 0.211786 0
M  V30 1834 C 161.908 3.97149 1.96945 0
M  V30 1835 H 159.128 0.653428 0.152555 0
M  V30 1836 H 161.672 2.03697 -0.18103 0
M  V30 1837 H 159.827 3.367 1.91603 0
M  V30 1838 H 160.241 5.20118 0.676607 0
M  V30 1839 H 161.715 4.98393 2.37294 0
M  V30 1840 H 162.192 3.3525 2.83733 0
M  V30 1841 H 162.798 4.04458 1.31506 0
M  V30 1842 N 161.113 -0.173488 1.56642 0
M  V30 1843 C 162.043 -1.2171 1.99271 0
M  V30 1844 C 163.024 -1.46289 0.867959 0
M  V30 1845 O 164.209 -1.5766 1.13388 0
M  V30 1846 C 161.339 -2.55651 2.35074 0
M  V30 1847 C 160.293 -2.45645 3.50489 0
M  V30 1848 C 159.619 -3.84056 3.72028 0
M  V30 1849 C 160.919 -1.96302 4.84007 0
M  V30 1850 H 162.613 -0.86275 2.867 0
M  V30 1851 H 160.159 -0.413571 1.37933 0
M  V30 1852 H 162.112 -3.2886 2.63494 0
M  V30 1853 H 160.836 -2.92869 1.44552 0
M  V30 1854 H 159.495 -1.7489 3.22194 0
M  V30 1855 H 159.143 -4.18664 2.788 0
M  V30 1856 H 158.843 -3.7823 4.49684 0
M  V30 1857 H 160.367 -4.58854 4.02846 0
M  V30 1858 H 161.781 -2.59284 5.11317 0
M  V30 1859 H 160.178 -2.01429 5.65284 0
M  V30 1860 H 161.248 -0.917226 4.76146 0
M  V30 1861 N 162.591 -1.51276 -0.441967 0
M  V30 1862 C 163.868 -1.54252 -1.20273 0
M  V30 1863 C 164.248 -0.30408 -2.08898 0
M  V30 1864 O 163.596 0.711084 -2.17154 0
M  V30 1865 C 163.806 -2.85406 -2.00859 0
M  V30 1866 C 165.154 -3.37181 -2.58059 0
M  V30 1867 O 166.178 -2.86925 -2.11074 0
M  V30 1868 O 165.037 -4.24858 -3.43741 0
M  V30 1869 H 162.131 -0.619969 -0.547328 0
M  V30 1870 H 164.677 -1.63586 -0.451413 0
M  V30 1871 H 163.449 -3.67003 -1.35736 0
M  V30 1872 H 163.072 -2.79213 -2.83065 0
M  V30 1873 N 164.069 0.697108 -1.41344 0
M  V30 1874 C 164.979 1.84088 -1.45427 0
M  V30 1875 C 165.995 1.70545 -0.34501 0
M  V30 1876 O 167.171 1.92488 -0.592492 0
M  V30 1877 C 164.236 3.20056 -1.33286 0
M  V30 1878 C 163.297 3.45718 -2.54514 0
M  V30 1879 C 162.53 4.75199 -2.42944 0
M  V30 1880 O 162.753 5.51579 -1.45318 0
M  V30 1881 O 161.687 5.0161 -3.32672 0
M  V30 1882 H 165.513 1.836 -2.41919 0
M  V30 1883 H 163.098 0.849966 -1.22866 0
M  V30 1884 H 164.98 4.01236 -1.28794 0
M  V30 1885 H 163.655 3.2123 -0.39909 0
M  V30 1886 H 162.562 2.64474 -2.64583 0
M  V30 1887 H 163.895 3.49356 -3.46715 0
M  V30 1888 N 165.547 1.27147 0.931209 0
M  V30 1889 C 166.477 1.12081 2.04842 0
M  V30 1890 C 167.458 0.0232364 1.70084 0
M  V30 1891 O 168.643 0.197085 1.93197 0
M  V30 1892 C 165.773 0.76354 3.38803 0
M  V30 1893 C 164.727 1.81396 3.87659 0
M  V30 1894 C 164.053 1.31075 5.18385 0
M  V30 1895 C 165.353 3.21739 4.11438 0
M  V30 1896 H 167.047 2.05537 2.17703 0
M  V30 1897 H 164.593 0.989603 1.04608 0
M  V30 1898 H 166.546 0.644982 4.16435 0
M  V30 1899 H 165.27 -0.206727 3.25945 0
M  V30 1900 H 163.929 1.92136 3.12217 0
M  V30 1901 H 163.577 0.330037 5.01916 0
M  V30 1902 H 163.277 2.013 5.52044 0
M  V30 1903 H 164.801 1.20506 5.98591 0
M  V30 1904 H 166.215 3.14019 4.79651 0
M  V30 1905 H 164.612 3.89644 4.56397 0
M  V30 1906 H 165.682 3.67054 3.16859 0
M  V30 1907 N 167.025 -1.13721 1.09112 0
M  V30 1908 C 168.441 -1.36914 0.820174 0
M  V30 1909 C 168.641 -1.93356 -0.567079 0
M  V30 1910 O 167.697 -2.15093 -1.32255 0
M  V30 1911 C 169.01 -2.3235 1.90877 0
M  V30 1912 C 170.558 -2.45973 1.93562 0
M  V30 1913 C 171.033 -3.44714 3.01556 0
M  V30 1914 N 172.524 -3.52263 3.00775 0
M  V30 1915 C 173.259 -4.28536 3.80978 0
M  V30 1916 N 172.755 -5.07991 4.71081 0
M  V30 1917 N 174.548 -4.23804 3.69251 0
M  V30 1918 H 166.699 -0.754348 1.98553 0
M  V30 1919 H 168.962 -0.3944 0.862063 0
M  V30 1920 H 168.668 -1.98027 2.90651 0
M  V30 1921 H 168.542 -3.32332 1.78424 0
M  V30 1922 H 170.929 -2.79584 0.944286 0
M  V30 1923 H 171.01 -1.45926 2.10093 0
M  V30 1924 H 170.654 -3.11835 4.00901 0
M  V30 1925 H 170.584 -4.44558 2.82269 0
M  V30 1926 H 173.075 -2.95567 2.35475 0
M  V30 1927 H 173.388 -5.63487 5.28869 0
M  V30 1928 H 171.733 -5.07235 4.75119 0
M  V30 1929 H 174.924 -3.60806 2.98222 0
M  V30 1930 H 175.097 -4.82995 4.31995 0
M  V30 1931 N 168.503 -0.877838 -1.30888 0
M  V30 1932 C 169.733 -0.506678 -2.00291 0
M  V30 1933 C 170.141 0.907449 -1.66018 0
M  V30 1934 O 169.484 1.60719 -0.88967 0
M  V30 1935 C 169.546 -0.59323 -3.54572 0
M  V30 1936 C 169.21 -1.97038 -4.12341 0
M  V30 1937 C 170.207 -2.93889 -4.28865 0
M  V30 1938 C 167.892 -2.27383 -4.47886 0
M  V30 1939 C 169.886 -4.19224 -4.80136 0
M  V30 1940 C 167.573 -3.52965 -4.98857 0
M  V30 1941 C 168.571 -4.48701 -5.14934 0
M  V30 1942 O 168.259 -5.72056 -5.64808 0
M  V30 1943 H 167.991 -0.1951 -0.647234 0
M  V30 1944 H 170.545 -1.18301 -1.6791 0
M  V30 1945 H 168.775 0.140057 -3.86446 0
M  V30 1946 H 170.464 -0.234372 -4.05223 0
M  V30 1947 H 171.23 -2.71756 -4.01714 0
M  V30 1948 H 167.109 -1.53639 -4.34645 0
M  V30 1949 H 170.653 -4.93956 -4.92599 0
M  V30 1950 H 166.55 -3.74939 -5.25443 0
M  V30 1951 H 167.318 -5.74337 -5.83163 0
M  V30 1952 N 169.982 1.44106 -0.638065 0
M  V30 1953 C 171.231 2.01194 -0.142744 0
M  V30 1954 C 171.544 1.50835 1.24532 0
M  V30 1955 O 172.75 2.00096 1.83504 0
M  V30 1956 C 171.206 3.59319 -0.20442 0
M  V30 1957 C 170.814 4.18674 -1.59423 0
M  V30 1958 C 172.558 4.23854 0.234079 0
M  V30 1959 C 170.465 5.69045 -1.61065 0
M  V30 1960 H 169.395 0.752367 -0.0495998 0
M  V30 1961 H 172.046 1.65246 -0.797881 0
M  V30 1962 H 170.428 3.92598 0.517946 0
M  V30 1963 H 171.602 3.96921 -2.34074 0
M  V30 1964 H 169.917 3.66453 -1.97741 0
M  V30 1965 H 172.514 5.34155 0.241443 0
M  V30 1966 H 172.857 3.96688 1.2627 0
M  V30 1967 H 173.39 3.95403 -0.436025 0
M  V30 1968 H 170.129 6.00956 -2.61787 0
M  V30 1969 H 169.649 5.929 -0.90718 0
M  V30 1970 H 171.328 6.32809 -1.34766 0
M  V30 1971 N 171.46 0.379036 1.52974 0
M  V30 1972 C 172.706 -0.206727 2.01744 0
M  V30 1973 C 173.039 -1.47314 1.26539 0
M  V30 1974 O 172.314 -1.91084 0.362903 0
M  V30 1975 C 172.597 -0.485066 3.56818 0
M  V30 1976 C 172.45 0.795919 4.42702 0
M  V30 1977 C 173.769 -1.28003 4.21074 0
M  V30 1978 H 170.888 -0.0736607 0.73331 0
M  V30 1979 H 173.53 0.506581 1.83122 0
M  V30 1980 H 171.68 -1.09272 3.72816 0
M  V30 1981 H 173.352 1.43307 4.38476 0
M  V30 1982 H 171.595 1.41344 4.10127 0
M  V30 1983 H 172.266 0.555947 5.49193 0
M  V30 1984 H 174.742 -0.765867 4.08991 0
M  V30 1985 H 173.618 -1.44352 5.29579 0
M  V30 1986 H 173.879 -2.29236 3.78026 0
M  V30 1987 N 172.938 -1.57226 0.108567 0
M  V30 1988 C 174.186 -1.94448 -0.550853 0
M  V30 1989 C 174.507 -0.992074 -1.67878 0
M  V30 1990 O 173.777 -0.0465 -1.95845 0
M  V30 1991 H 172.357 -0.717897 -0.206479 0
M  V30 1992 H 175.019 -1.94112 0.175062 0
M  V30 1993 H 174.115 -2.97218 -0.952259 0
M  V30 1994 N 174.416 0.165178 -1.56732 0
M  V30 1995 C 175.346 1.20651 -1.99914 0
M  V30 1996 C 176.327 1.45827 -0.875705 0
M  V30 1997 O 177.512 1.57057 -1.14223 0
M  V30 1998 C 174.642 2.54401 -2.36427 0
M  V30 1999 C 173.596 2.43782 -3.51787 0
M  V30 2000 C 172.922 3.82078 -3.7406 0
M  V30 2001 C 174.222 1.93732 -4.85041 0
M  V30 2002 H 175.916 0.847534 -2.87154 0
M  V30 2003 H 173.462 0.40625 -1.38151 0
M  V30 2004 H 175.415 3.27458 -2.65234 0
M  V30 2005 H 174.139 2.92098 -1.46103 0
M  V30 2006 H 172.798 1.73178 -3.23117 0
M  V30 2007 H 172.446 4.17179 -2.81017 0
M  V30 2008 H 172.146 3.7584 -4.51684 0
M  V30 2009 H 173.67 4.56712 -4.05274 0
M  V30 2010 H 175.084 2.56569 -5.12684 0
M  V30 2011 H 173.481 1.98428 -5.66345 0
M  V30 2012 H 174.551 0.891962 -4.76626 0
M  V30 2013 N 175.894 1.51508 0.433938 0
M  V30 2014 C 177.122 1.68157 1.20543 0
M  V30 2015 C 177.537 0.380362 1.84929 0
M  V30 2016 O 176.894 -0.641446 1.70856 0
M  V30 2017 C 176.945 2.79965 2.28696 0
M  V30 2018 O 176.666 4.05045 1.66943 0
M  V30 2019 C 178.167 3.07912 3.18912 0
M  V30 2020 H 175.387 0.56421 0.363191 0
M  V30 2021 H 177.931 1.97941 0.513754 0
M  V30 2022 H 176.086 2.5277 2.93574 0
M  V30 2023 H 176.5 4.67165 2.38448 0
M  V30 2024 H 177.974 3.89719 3.90926 0
M  V30 2025 H 178.451 2.20456 3.79863 0
M  V30 2026 H 179.057 3.36779 2.59731 0
M  V30 2027 N 177.372 -0.689602 1.41712 0
M  V30 2028 C 178.649 -1.44457 1.31877 0
M  V30 2029 C 179.029 -2.11039 -0.0508537 0
M  V30 2030 O 178.377 -2.02138 -1.06547 0
M  V30 2031 C 178.587 -2.45913 2.47645 0
M  V30 2032 C 179.935 -3.10991 2.89084 0
M  V30 2033 O 180.959 -2.56238 2.47428 0
M  V30 2034 O 179.818 -4.10174 3.61137 0
M  V30 2035 H 176.912 -0.64362 0.519309 0
M  V30 2036 H 179.458 -0.719576 1.53689 0
M  V30 2037 H 178.23 -1.95409 3.39015 0
M  V30 2038 H 177.853 -3.25913 2.27742 0
M  V30 2039 N 178.85 -1.27639 -0.924453 0
M  V30 2040 C 179.798 -1.10485 -2.04685 0
M  V30 2041 C 180.792 -0.0270421 -1.69378 0
M  V30 2042 O 181.998 -0.185008 -1.79047 0
M  V30 2043 H 178.373 -0.340546 -0.670472 0
M  V30 2044 H 180.344 -2.05566 -2.16298 0
M  V30 2045 C 179.093 -0.772229 -3.39016 0
M  V30 2046 H 178.416 -1.59351 -3.66671 0
M  V30 2047 H 179.856 -0.692097 -4.18313 0
M  V30 2048 C 178.315 0.523554 -3.32807 0
M  V30 2049 O 178.845 1.55702 -3.70297 0
M  V30 2050 N 177.051 0.520363 -2.85903 0
M  V30 2051 H 176.598 -0.32107 -2.55591 0
M  V30 2052 H 176.556 1.38742 -2.82131 0
M  V30 2053 N 180.328 1.1314 -1.09713 0
M  V30 2054 C 181.605 1.80762 -0.747302 0
M  V30 2055 C 181.985 1.96663 0.767265 0
M  V30 2056 O 181.333 1.53706 1.69076 0
M  V30 2057 C 181.543 3.15606 -1.48975 0
M  V30 2058 C 182.891 3.90914 -1.65746 0
M  V30 2059 O 183.915 3.25239 -1.45251 0
M  V30 2060 O 182.774 5.08718 -1.9967 0
M  V30 2061 H 179.868 0.782103 -0.268782 0
M  V30 2062 H 182.414 1.20041 -1.19951 0
M  V30 2063 H 181.186 2.99278 -2.52088 0
M  V30 2064 H 180.809 3.84029 -1.02991 0
M  V30 2065 N 181.806 0.884767 1.30421 0
M  V30 2066 C 183.055 0.499164 1.95426 0
M  V30 2067 C 183.368 -0.95645 1.70621 0
M  V30 2068 O 184.574 -1.44889 2.29607 0
M  V30 2069 C 183.03 0.84177 3.49917 0
M  V30 2070 C 182.638 2.31514 3.83543 0
M  V30 2071 C 184.382 0.525355 4.21237 0
M  V30 2072 C 182.289 2.59939 5.31212 0
M  V30 2073 H 181.219 0.182944 0.73147 0
M  V30 2074 H 183.87 1.07971 1.48373 0
M  V30 2075 H 182.252 0.190311 3.95542 0
M  V30 2076 H 183.426 3.0109 3.48829 0
M  V30 2077 H 181.741 2.59907 3.25326 0
M  V30 2078 H 184.338 0.714762 5.29901 0
M  V30 2079 H 184.681 -0.535222 4.12845 0
M  V30 2080 H 185.214 1.134 3.81294 0
M  V30 2081 H 181.953 3.64736 5.44654 0
M  V30 2082 H 181.473 1.94972 5.67227 0
M  V30 2083 H 183.152 2.45429 5.98643 0
M  V30 2084 N 183.284 -1.43765 0.645699 0
M  V30 2085 C 184.194 -2.34544 -0.0512957 0
M  V30 2086 C 185.21 -1.53455 -0.82022 0
M  V30 2087 O 186.386 -1.86133 -0.769176 0
M  V30 2088 C 183.451 -3.31636 -1.01087 0
M  V30 2089 C 182.512 -4.2863 -0.239712 0
M  V30 2090 C 181.745 -5.21084 -1.15358 0
M  V30 2091 O 181.968 -5.1779 -2.39269 0
M  V30 2092 O 180.902 -5.98593 -0.630038 0
M  V30 2093 H 184.728 -2.95624 0.695718 0
M  V30 2094 H 182.313 -1.43781 0.405882 0
M  V30 2095 H 184.195 -3.9136 -1.56254 0
M  V30 2096 H 182.87 -2.73069 -1.73824 0
M  V30 2097 H 181.777 -3.72408 0.355356 0
M  V30 2098 H 183.11 -4.90157 0.447936 0
M  V30 2099 N 184.763 -0.387143 -1.52771 0
M  V30 2100 C 185.711 0.463953 -2.27926 0
M  V30 2101 C 186.705 1.06493 -1.31741 0
M  V30 2102 O 187.911 1.00565 -1.49287 0
M  V30 2103 H 184.286 0.16837 -0.732909 0
M  V30 2104 H 186.257 -0.19141 -2.97785 0
M  V30 2105 C 185.006 1.5803 -3.09713 0
M  V30 2106 H 184.329 1.12718 -3.83581 0
M  V30 2107 H 185.769 2.15008 -3.65442 0
M  V30 2108 C 184.228 2.53509 -2.2189 0
M  V30 2109 O 184.758 3.56863 -1.84422 0
M  V30 2110 N 182.964 2.23199 -1.86093 0
M  V30 2111 H 182.511 1.39185 -2.16761 0
M  V30 2112 H 182.469 2.87333 -1.27621 0
M  V30 2113 N 186.241 1.57166 -0.116904 0
M  V30 2114 C 187.488 1.95123 0.541603 0
M  V30 2115 C 187.816 1.00006 1.6682 0
M  V30 2116 O 187.071 0.0235658 1.95686 0
M  V30 2117 C 187.37 3.39508 1.11664 0
M  V30 2118 C 187.036 4.50762 0.111606 0
M  V30 2119 C 185.698 4.80918 -0.164758 0
M  V30 2120 C 188.05 5.18036 -0.573438 0
M  V30 2121 C 185.378 5.75666 -1.13249 0
M  V30 2122 C 187.73 6.13824 -1.52978 0
M  V30 2123 C 186.394 6.42374 -1.81415 0
M  V30 2124 H 185.664 0.714005 0.198187 0
M  V30 2125 H 188.311 1.9048 -0.197365 0
M  V30 2126 H 186.616 3.40835 1.93232 0
M  V30 2127 H 188.313 3.66189 1.63422 0
M  V30 2128 H 184.903 4.27272 0.337192 0
M  V30 2129 H 189.087 4.94896 -0.373092 0
M  V30 2130 H 184.343 5.96092 -1.35958 0
M  V30 2131 H 188.517 6.65039 -2.06629 0
M  V30 2132 H 186.144 7.15599 -2.56557 0
M  V30 2133 N 187.719 -0.156864 1.56817 0
M  V30 2134 C 188.666 -1.19394 1.97519 0
M  V30 2135 C 189.636 -1.4322 0.841265 0
M  V30 2136 O 190.821 -1.55719 1.10255 0
M  V30 2137 C 187.961 -2.52483 2.35258 0
M  V30 2138 C 187.074 -2.35914 3.61896 0
M  V30 2139 C 186.209 -3.61969 3.88782 0
M  V30 2140 C 185.248 -3.40395 5.08722 0
M  V30 2141 N 184.385 -4.58556 5.31668 0
M  V30 2142 H 189.225 -0.839845 2.85921 0
M  V30 2143 H 186.762 -0.403264 1.41464 0
M  V30 2144 H 188.72 -3.30071 2.55165 0
M  V30 2145 H 187.35 -2.85859 1.49949 0
M  V30 2146 H 186.402 -1.49429 3.49821 0
M  V30 2147 H 187.714 -2.15926 4.49641 0
M  V30 2148 H 186.868 -4.47989 4.09135 0
M  V30 2149 H 185.607 -3.84951 2.9944 0
M  V30 2150 H 184.612 -2.52763 4.88253 0
M  V30 2151 H 185.837 -3.18822 5.99608 0
M  V30 2152 H 183.783 -4.81729 4.45279 0
M  V30 2153 H 183.7 -4.41535 6.13664 0
M  V30 2154 H 184.968 -5.45817 5.5651 0
M  V30 2155 N 189.197 -1.51736 -0.425897 0
M  V30 2156 C 190.144 -1.73875 -1.51776 0
M  V30 2157 C 191.114 -0.580702 -1.55618 0
M  V30 2158 O 192.299 -0.81641 -1.72451 0
M  V30 2159 C 189.439 -1.88012 -2.89388 0
M  V30 2160 C 188.552 -3.15606 -2.94986 0
M  V30 2161 C 187.687 -3.20271 -4.23793 0
M  V30 2162 C 186.726 -4.42134 -4.23302 0
M  V30 2163 N 185.863 -4.44284 -5.43651 0
M  V30 2164 H 190.703 -2.67071 -1.32201 0
M  V30 2165 H 188.24 -1.32351 -0.642008 0
M  V30 2166 H 190.198 -1.9419 -3.69251 0
M  V30 2167 H 188.828 -0.98213 -3.07496 0
M  V30 2168 H 187.88 -3.18681 -2.07717 0
M  V30 2169 H 189.192 -4.05486 -2.90486 0
M  V30 2170 H 188.346 -3.25428 -5.12036 0
M  V30 2171 H 187.085 -2.28299 -4.30965 0
M  V30 2172 H 186.09 -4.3714 -3.3345 0
M  V30 2173 H 187.315 -5.35382 -4.17783 0
M  V30 2174 H 185.261 -3.55188 -5.51523 0
M  V30 2175 H 185.178 -5.27988 -5.41078 0
M  V30 2176 H 186.446 -4.53649 -6.33895 0
M  V30 2177 N 190.675 0.682077 -1.42076 0
M  V30 2178 C 191.585 1.82535 -1.47371 0
M  V30 2179 C 192.601 1.7017 -0.363079 0
M  V30 2180 O 193.777 1.91848 -0.612875 0
M  V30 2181 C 190.842 3.18624 -1.36674 0
M  V30 2182 C 189.903 3.42999 -2.58167 0
M  V30 2183 C 189.136 4.72595 -2.4797 0
M  V30 2184 O 189.359 5.50006 -1.5116 0
M  V30 2185 O 188.293 4.98054 -3.37974 0
M  V30 2186 H 192.119 1.81023 -2.43853 0
M  V30 2187 H 189.704 0.836887 -1.2376 0
M  V30 2188 H 191.586 3.99847 -1.33043 0
M  V30 2189 H 190.261 3.20789 -0.433138 0
M  V30 2190 H 189.168 2.61653 -2.67373 0
M  V30 2191 H 190.501 3.45659 -3.50401 0
M  V30 2192 N 192.153 1.28127 0.917671 0
M  V30 2193 C 193.569 1.05749 1.19538 0
M  V30 2194 C 193.769 -0.202633 2.00479 0
M  V30 2195 O 192.825 -0.905382 2.3571 0
M  V30 2196 C 194.138 2.30273 1.93378 0
M  V30 2197 C 195.686 2.35412 2.06277 0
M  V30 2198 C 196.161 3.59692 2.83524 0
M  V30 2199 N 197.652 3.60309 2.91087 0
M  V30 2200 C 198.387 4.53147 3.51348 0
M  V30 2201 N 197.883 5.563 4.12919 0
M  V30 2202 N 199.676 4.40751 3.48849 0
M  V30 2203 H 191.827 2.09024 0.377184 0
M  V30 2204 H 194.09 0.919798 0.22951 0
M  V30 2205 H 193.796 3.22055 1.41328 0
M  V30 2206 H 193.67 2.36378 2.93947 0
M  V30 2207 H 196.057 1.4413 2.57508 0
M  V30 2208 H 196.138 2.33304 1.04895 0
M  V30 2209 H 195.782 4.51316 2.32973 0
M  V30 2210 H 195.712 3.59054 3.85211 0
M  V30 2211 H 198.203 2.85714 2.47338 0
M  V30 2212 H 198.516 6.2329 4.56869 0
M  V30 2213 H 196.861 5.60131 4.11435 0
M  V30 2214 H 200.052 3.59367 2.99955 0
M  V30 2215 H 200.225 5.13291 3.9552 0
M  V30 2216 N 193.631 -1.12557 1.10312 0
M  V30 2217 C 195.047 -1.36036 0.834649 0
M  V30 2218 C 195.247 -1.93946 -0.546539 0
M  V30 2219 O 194.303 -2.16484 -1.29966 0
M  V30 2220 C 195.616 -2.30312 1.9333 0
M  V30 2221 C 197.164 -2.43906 1.9616 0
M  V30 2222 C 197.639 -3.41496 3.05195 0
M  V30 2223 N 199.13 -3.49053 3.04494 0
M  V30 2224 C 199.865 -4.24471 3.85502 0
M  V30 2225 N 199.361 -5.02966 4.76442 0
M  V30 2226 N 201.154 -4.19864 3.73725 0
M  V30 2227 H 193.305 -0.733246 1.99342 0
M  V30 2228 H 195.568 -0.385234 0.866198 0
M  V30 2229 H 195.274 -1.94933 2.92735 0
M  V30 2230 H 195.148 -3.30421 1.81939 0
M  V30 2231 H 197.535 -2.78567 0.973886 0
M  V30 2232 H 197.616 -1.4369 2.11629 0
M  V30 2233 H 197.26 -3.07565 4.04186 0
M  V30 2234 H 197.19 -4.41539 2.86968 0
M  V30 2235 H 199.681 -2.93053 2.38596 0
M  V30 2236 H 199.994 -5.57846 5.34815 0
M  V30 2237 H 198.339 -5.02167 4.80472 0
M  V30 2238 H 201.53 -3.57623 3.02032 0
M  V30 2239 H 201.703 -4.78386 4.37093 0
M  V30 2240 N 195.109 -0.891671 -1.2995 0
M  V30 2241 C 196.525 -0.58662 -1.48428 0
M  V30 2242 C 196.725 0.873951 -1.81561 0
M  V30 2243 O 195.781 1.65471 -1.90724 0
M  V30 2244 C 197.094 -1.50553 -2.60296 0
M  V30 2245 C 198.642 -1.50988 -2.74175 0
M  V30 2246 C 199.117 -2.41488 -3.89163 0
M  V30 2247 N 200.608 -2.39489 -3.96483 0
M  V30 2248 C 201.343 -3.06223 -4.84784 0
M  V30 2249 N 200.839 -3.82206 -5.77833 0
M  V30 2250 N 202.632 -2.95421 -4.78208 0
M  V30 2251 H 194.783 -1.83644 -1.06718 0
M  V30 2252 H 197.046 -0.786455 -0.529332 0
M  V30 2253 H 196.752 -2.54581 -2.42654 0
M  V30 2254 H 196.626 -1.22008 -3.56923 0
M  V30 2255 H 199.013 -0.47708 -2.91218 0
M  V30 2256 H 199.094 -1.83567 -1.78148 0
M  V30 2257 H 198.738 -3.44857 -3.72876 0
M  V30 2258 H 198.668 -2.06222 -4.84541 0
M  V30 2259 H 201.159 -1.84278 -3.29924 0
M  V30 2260 H 201.472 -4.302 -6.41988 0
M  V30 2261 H 199.817 -3.86313 -5.77743 0
M  V30 2262 H 203.008 -2.35581 -4.04499 0
M  V30 2263 H 203.181 -3.47704 -5.46814 0
M  V30 2264 N 196.587 1.43421 -0.653314 0
M  V30 2265 C 197.835 2.01414 -0.166415 0
M  V30 2266 C 198.156 1.51803 1.22397 0
M  V30 2267 O 197.426 0.730693 1.81763 0
M  V30 2268 H 196.006 0.744703 -0.0585319 0
M  V30 2269 H 198.668 1.75629 -0.845003 0
M  V30 2270 H 197.764 3.11734 -0.151111 0
M  V30 2271 N 198.065 0.39524 1.52563 0
M  V30 2272 C 199.293 -0.184943 2.06072 0
M  V30 2273 C 199.708 -1.40021 1.26647 0
M  V30 2274 O 199.065 -1.79767 0.314672 0
M  V30 2275 C 199.116 -0.549179 3.57304 0
M  V30 2276 O 198.837 0.617813 4.33722 0
M  V30 2277 C 200.338 -1.18459 4.2718 0
M  V30 2278 H 197.558 -0.0265025 0.670476 0
M  V30 2279 H 200.102 0.562184 1.96621 0
M  V30 2280 H 198.257 -1.2462 3.66809 0
M  V30 2281 H 198.671 0.317091 5.23541 0
M  V30 2282 H 200.145 -1.38976 5.34219 0
M  V30 2283 H 200.622 -2.15368 3.82771 0
M  V30 2284 H 201.228 -0.528163 4.22008 0
M  V30 2285 N 199.544 -1.57102 0.125237 0
M  V30 2286 C 200.96 -1.57915 -0.231322 0
M  V30 2287 C 201.16 -1.13833 -1.66266 0
M  V30 2288 O 200.216 -0.828581 -2.38518 0
M  V30 2289 C 201.529 -3.00699 0.00766489 0
M  V30 2290 C 203.077 -3.12947 -0.0577483 0
M  V30 2291 C 203.552 -4.57742 0.153626 0
M  V30 2292 N 205.043 -4.63092 0.0998073 0
M  V30 2293 C 205.778 -5.72905 0.238174 0
M  V30 2294 N 205.274 -6.91445 0.433057 0
M  V30 2295 N 207.067 -5.6182 0.177308 0
M  V30 2296 H 199.218 -1.84055 1.06007 0
M  V30 2297 H 201.481 -0.850905 0.417929 0
M  V30 2298 H 201.187 -3.3726 0.997431 0
M  V30 2299 H 201.061 -3.70236 -0.721452 0
M  V30 2300 H 203.448 -2.7624 -1.03804 0
M  V30 2301 H 203.529 -2.4594 0.70335 0
M  V30 2302 H 203.173 -4.95149 1.13092 0
M  V30 2303 H 203.103 -5.22848 -0.627534 0
M  V30 2304 H 205.594 -3.77871 -0.047051 0
M  V30 2305 H 205.907 -7.70985 0.529332 0
M  V30 2306 H 204.252 -6.93415 0.469109 0
M  V30 2307 H 207.443 -4.68093 0.0259748 0
M  V30 2308 H 207.616 -6.47357 0.288582 0
M  V30 2309 N 201.022 0.148545 -1.56898 0
M  V30 2310 C 202.252 0.875118 -1.8715 0
M  V30 2311 C 202.66 1.75322 -0.711262 0
M  V30 2312 O 202.003 1.80745 0.328151 0
M  V30 2313 C 202.065 1.7844 -3.12089 0
M  V30 2314 C 201.729 1.08361 -4.43967 0
M  V30 2315 C 202.726 0.438247 -5.1805 0
M  V30 2316 C 200.411 1.07358 -4.90693 0
M  V30 2317 C 202.405 -0.20779 -6.37061 0
M  V30 2318 C 200.092 0.42373 -6.09629 0
M  V30 2319 C 201.09 -0.215829 -6.82659 0
M  V30 2320 O 200.778 -0.855378 -7.99336 0
M  V30 2321 H 200.51 0.258504 -0.624621 0
M  V30 2322 H 203.064 0.14652 -2.04877 0
M  V30 2323 H 201.294 2.55389 -2.90367 0
M  V30 2324 H 202.983 2.38279 -3.286 0
M  V30 2325 H 203.749 0.437817 -4.8302 0
M  V30 2326 H 199.628 1.5608 -4.33774 0
M  V30 2327 H 203.172 -0.70758 -6.94002 0
M  V30 2328 H 199.069 0.421822 -6.4412 0
M  V30 2329 H 199.837 -0.756892 -8.14993 0
M  V30 2330 N 202.5 1.5196 0.417844 0
M  V30 2331 C 203.728 1.69426 1.18753 0
M  V30 2332 C 204.143 0.399955 1.84515 0
M  V30 2333 O 203.5 -0.623288 1.71527 0
M  V30 2334 C 203.551 2.82375 2.25714 0
M  V30 2335 O 203.272 4.06793 1.62638 0
M  V30 2336 C 204.773 3.11277 3.15628 0
M  V30 2337 H 201.993 0.568031 0.357186 0
M  V30 2338 H 204.537 1.98475 0.49273 0
M  V30 2339 H 202.692 2.5587 2.90877 0
M  V30 2340 H 203.106 4.69667 2.3348 0
M  V30 2341 H 204.58 3.93843 3.86771 0
M  V30 2342 H 205.057 2.24473 3.77503 0
M  V30 2343 H 205.663 3.39515 2.56144 0
M  V30 2344 N 203.978 -0.674533 1.42435 0
M  V30 2345 C 205.389 -1.25514 1.38214 0
M  V30 2346 C 205.74 -1.96055 0.0755464 0
M  V30 2347 O 204.865 -2.00028 -0.8257 0
M  V30 2348 C 205.46 -2.28269 2.50357 0
M  V30 2349 C 204.019 -2.81856 2.49467 0
M  V30 2350 C 203.166 -1.56182 2.29134 0
M  V30 2351 H 206.117 -0.467902 1.51646 0
M  V30 2352 H 206.138 -3.10009 2.20624 0
M  V30 2353 H 205.65 -1.769 3.45439 0
M  V30 2354 H 203.751 -3.37346 1.58204 0
M  V30 2355 H 203.864 -3.30854 3.46515 0
M  V30 2356 H 202.228 -1.82761 1.774 0
M  V30 2357 H 203.011 -1.06778 3.26272 0
M  V30 2358 N 205.456 -1.28612 -0.910864 0
M  V30 2359 C 206.705 -1.15311 -1.65488 0
M  V30 2360 C 207.018 0.296999 -1.93332 0
M  V30 2361 O 208.224 0.551168 -2.65847 0
M  V30 2362 C 206.68 -2.01599 -2.98137 0
M  V30 2363 C 206.288 -3.51367 -2.7793 0
M  V30 2364 C 208.032 -1.96993 -3.76024 0
M  V30 2365 C 205.939 -4.29797 -4.06237 0
M  V30 2366 H 204.869 -0.42796 -0.620779 0
M  V30 2367 H 207.52 -1.53166 -1.01057 0
M  V30 2368 H 205.902 -1.56603 -3.63719 0
M  V30 2369 H 207.076 -4.0434 -2.21011 0
M  V30 2370 H 205.391 -3.57529 -2.13452 0
M  V30 2371 H 207.988 -2.52856 -4.71135 0
M  V30 2372 H 208.331 -0.94733 -4.05378 0
M  V30 2373 H 208.864 -2.39973 -3.17266 0
M  V30 2374 H 205.603 -5.32648 -3.82055 0
M  V30 2375 H 205.123 -3.81596 -4.62757 0
M  V30 2376 H 206.802 -4.39869 -4.74473 0
M  V30 2377 N 206.934 1.1197 -1.10907 0
M  V30 2378 C 207.864 2.19928 -0.784473 0
M  V30 2379 C 208.845 1.6833 0.244726 0
M  V30 2380 O 210.03 1.93892 0.109418 0
M  V30 2381 C 207.16 3.46597 -0.220827 0
M  V30 2382 C 206.114 4.11376 -1.18127 0
M  V30 2383 C 205.44 5.32554 -0.478594 0
M  V30 2384 C 206.74 4.56945 -2.52979 0
M  V30 2385 H 208.434 2.47337 -1.68715 0
M  V30 2386 H 205.98 1.18879 -0.812642 0
M  V30 2387 H 207.933 4.21396 0.0184278 0
M  V30 2388 H 206.657 3.1863 0.717113 0
M  V30 2389 H 205.316 3.38564 -1.40606 0
M  V30 2390 H 204.964 5.00856 0.463976 0
M  V30 2391 H 204.664 5.76844 -1.11912 0
M  V30 2392 H 206.188 6.10096 -0.248 0
M  V30 2393 H 207.602 5.23093 -2.3462 0
M  V30 2394 H 205.999 5.1203 -3.12962 0
M  V30 2395 H 207.069 3.70676 -3.12614 0
M  V30 2396 N 208.412 0.89855 1.29475 0
M  V30 2397 C 209.342 0.39201 2.30186 0
M  V30 2398 C 210.323 -0.532359 1.61555 0
M  V30 2399 O 211.508 -0.443331 1.89072 0
M  V30 2400 C 208.638 -0.382353 3.45189 0
M  V30 2401 C 207.592 0.451483 4.25612 0
M  V30 2402 C 206.918 -0.450307 5.328 0
M  V30 2403 C 208.218 1.70079 4.93832 0
M  V30 2404 H 209.912 1.23362 2.72804 0
M  V30 2405 H 207.458 0.594638 1.31149 0
M  V30 2406 H 209.411 -0.747451 4.14718 0
M  V30 2407 H 208.135 -1.25774 3.01411 0
M  V30 2408 H 206.794 0.798897 3.57789 0
M  V30 2409 H 206.442 -1.32379 4.85268 0
M  V30 2410 H 206.142 0.103902 5.87508 0
M  V30 2411 H 207.666 -0.811623 6.05182 0
M  V30 2412 H 209.08 1.40549 5.55805 0
M  V30 2413 H 207.477 2.19623 5.58467 0
M  V30 2414 H 208.547 2.43744 4.19186 0
M  V30 2415 N 209.89 -1.43072 0.660911 0
M  V30 2416 C 210.837 -2.30785 -0.0259884 0
M  V30 2417 C 211.807 -1.45184 -0.806888 0
M  V30 2418 O 212.992 -1.74041 -0.781943 0
M  V30 2419 C 210.132 -3.30861 -0.981067 0
M  V30 2420 C 209.245 -4.31558 -0.195458 0
M  V30 2421 C 208.38 -5.18712 -1.14503 0
M  V30 2422 C 207.419 -6.11097 -0.350299 0
M  V30 2423 N 206.556 -6.90849 -1.25186 0
M  V30 2424 H 211.396 -2.88975 0.727846 0
M  V30 2425 H 208.933 -1.42353 0.370682 0
M  V30 2426 H 210.891 -3.87399 -1.54849 0
M  V30 2427 H 209.521 -2.74304 -1.70169 0
M  V30 2428 H 208.573 -3.77252 0.488374 0
M  V30 2429 H 209.885 -4.9701 0.422176 0
M  V30 2430 H 209.039 -5.79914 -1.78284 0
M  V30 2431 H 207.778 -4.53404 -1.79656 0
M  V30 2432 H 206.783 -5.48976 0.300808 0
M  V30 2433 H 208.008 -6.7845 0.296941 0
M  V30 2434 H 205.954 -6.28182 -1.89005 0
M  V30 2435 H 205.871 -7.52854 -0.688971 0
M  V30 2436 H 207.139 -7.5655 -1.87757 0
M  V30 2437 N 211.368 -0.403325 -1.52352 0
M  V30 2438 C 212.779 0.0675782 -1.86578 0
M  V30 2439 C 213.13 1.44941 -1.32236 0
M  V30 2440 O 212.255 2.06112 -0.659307 0
M  V30 2441 C 212.85 0.129404 -3.38553 0
M  V30 2442 C 211.409 0.544629 -3.72439 0
M  V30 2443 C 210.556 -0.284551 -2.75836 0
M  V30 2444 H 213.507 -0.620631 -1.46061 0
M  V30 2445 H 213.528 0.94581 -3.68558 0
M  V30 2446 H 213.04 -0.87645 -3.78074 0
M  V30 2447 H 211.141 1.55734 -3.38493 0
M  V30 2448 H 211.254 0.293046 -4.78203 0
M  V30 2449 H 209.618 0.252258 -2.53448 0
M  V30 2450 H 210.401 -1.28865 -3.18196 0
M  V30 2451 N 212.846 1.57033 -0.133567 0
M  V30 2452 C 213.794 2.17348 0.828412 0
M  V30 2453 C 214.788 1.12671 1.26498 0
M  V30 2454 O 215.994 1.30947 1.23502 0
M  V30 2455 H 212.369 0.695775 0.285309 0
M  V30 2456 H 214.34 2.96935 0.295372 0
M  V30 2457 C 213.089 2.79893 2.06289 0
M  V30 2458 H 212.412 3.60147 1.73592 0
M  V30 2459 H 213.852 3.25615 2.71572 0
M  V30 2460 C 212.311 1.77713 2.86216 0
M  V30 2461 O 212.841 1.23937 3.82103 0
M  V30 2462 N 211.047 1.47321 2.50489 0
M  V30 2463 H 210.594 1.91243 1.7258 0
M  V30 2464 H 210.552 0.79199 3.04261 0
M  V30 2465 N 214.325 -0.140222 1.56975 0
M  V30 2466 C 215.255 -1.17456 2.01808 0
M  V30 2467 C 216.236 -1.44415 0.898794 0
M  V30 2468 O 217.421 -1.5522 1.16707 0
M  V30 2469 C 214.551 -2.50607 2.40444 0
M  V30 2470 C 213.505 -2.38155 3.55621 0
M  V30 2471 C 212.831 -3.76078 3.80091 0
M  V30 2472 C 214.131 -1.85991 4.88062 0
M  V30 2473 H 215.825 -0.801743 2.88466 0
M  V30 2474 H 213.371 -0.38422 1.38779 0
M  V30 2475 H 215.324 -3.23197 2.7041 0
M  V30 2476 H 214.048 -2.89737 1.50732 0
M  V30 2477 H 212.707 -1.68016 3.25832 0
M  V30 2478 H 212.355 -4.12656 2.87618 0
M  V30 2479 H 212.055 -3.68606 4.57606 0
M  V30 2480 H 213.579 -4.50206 4.12488 0
M  V30 2481 H 214.993 -2.4838 5.16701 0
M  V30 2482 H 213.39 -1.89393 5.6943 0
M  V30 2483 H 214.46 -0.816023 4.77984 0
M  V30 2484 N 215.803 -1.52179 -0.40978 0
M  V30 2485 C 217.031 -1.70054 -1.17853 0
M  V30 2486 C 217.446 -0.409735 -1.843 0
M  V30 2487 O 216.803 0.614183 -1.71855 0
M  V30 2488 C 216.854 -2.83568 -2.24213 0
M  V30 2489 O 216.575 -4.0765 -1.60478 0
M  V30 2490 C 218.076 -3.12947 -3.13973 0
M  V30 2491 H 215.296 -0.569917 -0.354169 0
M  V30 2492 H 217.84 -1.98734 -0.482198 0
M  V30 2493 H 215.995 -2.57409 -2.89516 0
M  V30 2494 H 216.409 -4.70899 -2.30986 0
M  V30 2495 H 217.883 -3.95889 -3.84677 0
M  V30 2496 H 218.36 -2.26472 -3.76307 0
M  V30 2497 H 218.966 -3.40868 -2.5434 0
M  V30 2498 N 217.281 0.66697 -1.42791 0
M  V30 2499 C 218.191 1.80962 -1.49299 0
M  V30 2500 C 219.207 1.69775 -0.381108 0
M  V30 2501 O 220.383 1.91188 -0.633188 0
M  V30 2502 C 217.448 3.17156 -1.40045 0
M  V30 2503 C 216.509 3.40242 -2.6179 0
M  V30 2504 C 215.742 4.69939 -2.52969 0
M  V30 2505 O 215.965 5.48372 -1.56985 0
M  V30 2506 O 214.899 4.94441 -3.43237 0
M  V30 2507 H 218.725 1.78427 -2.45759 0
M  V30 2508 H 216.31 0.823713 -1.24641 0
M  V30 2509 H 218.192 3.98413 -1.37276 0
M  V30 2510 H 216.867 3.20312 -0.467138 0
M  V30 2511 H 215.774 2.58802 -2.70134 0
M  V30 2512 H 217.107 3.41923 -3.54047 0
M  V30 2513 N 218.759 1.29093 0.90403 0
M  V30 2514 C 219.669 1.15727 2.0407 0
M  V30 2515 C 220.685 0.0815308 1.73809 0
M  V30 2516 O 221.861 0.292749 1.99261 0
M  V30 2517 C 218.926 0.830424 3.36608 0
M  V30 2518 C 217.987 1.98955 3.80415 0
M  V30 2519 C 217.22 1.6782 5.06628 0
M  V30 2520 O 217.443 0.597105 5.67266 0
M  V30 2521 O 216.377 2.52486 5.46383 0
M  V30 2522 H 220.203 2.11171 2.18267 0
M  V30 2523 H 217.788 1.08504 1.027 0
M  V30 2524 H 219.67 0.662521 4.16159 0
M  V30 2525 H 218.345 -0.0942678 3.23563 0
M  V30 2526 H 217.252 2.21267 3.01648 0
M  V30 2527 H 218.585 2.89529 3.98037 0
M  V30 2528 N 220.237 -1.11381 1.11499 0
M  V30 2529 C 221.169 -2.17207 0.731704 0
M  V30 2530 C 222.182 -1.61066 -0.236957 0
M  V30 2531 O 223.371 -1.78489 -0.0197591 0
M  V30 2532 C 220.471 -3.38846 0.0607624 0
M  V30 2533 C 219.644 -4.24451 1.0564 0
M  V30 2534 C 218.703 -5.24562 0.4149 0
M  V30 2535 O 217.729 -5.59071 1.069 0
M  V30 2536 N 218.931 -5.74651 -0.821943 0
M  V30 2537 H 221.696 -2.50699 1.64225 0
M  V30 2538 H 219.257 -1.26908 1.00529 0
M  V30 2539 H 221.249 -4.02911 -0.380139 0
M  V30 2540 H 219.819 -3.03411 -0.752376 0
M  V30 2541 H 219.039 -3.56833 1.67524 0
M  V30 2542 H 220.327 -4.78486 1.72998 0
M  V30 2543 H 219.725 -5.48797 -1.37252 0
M  V30 2544 H 218.282 -6.40549 -1.20582 0
M  V30 2545 N 221.715 -0.905404 -1.28997 0
M  V30 2546 C 222.964 -0.530191 -1.94607 0
M  V30 2547 C 223.277 0.929185 -1.72121 0
M  V30 2548 O 224.483 1.41218 -2.31883 0
M  V30 2549 C 222.939 -0.897333 -3.48534 0
M  V30 2550 C 222.547 -2.37587 -3.79811 0
M  V30 2551 C 224.291 -0.592304 -4.20347 0
M  V30 2552 C 222.198 -2.68357 -5.27009 0
M  V30 2553 H 221.128 -0.194558 -0.728466 0
M  V30 2554 H 223.779 -1.10318 -1.46636 0
M  V30 2555 H 222.161 -0.253214 -3.9519 0
M  V30 2556 H 223.335 -3.06602 -3.43994 0
M  V30 2557 H 221.65 -2.6505 -3.2115 0
M  V30 2558 H 224.247 -0.798975 -5.28697 0
M  V30 2559 H 224.59 0.469474 -4.13644 0
M  V30 2560 H 225.123 -1.19452 -3.79442 0
M  V30 2561 H 221.862 -3.73355 -5.38782 0
M  V30 2562 H 221.382 -2.03971 -5.64053 0
M  V30 2563 H 223.061 -2.54922 -5.94663 0
M  V30 2564 N 223.193 1.4272 -0.668489 0
M  V30 2565 C 224.418 2.06484 -0.194758 0
M  V30 2566 C 224.843 1.49862 1.13679 0
M  V30 2567 O 224.201 0.614582 1.70565 0
M  V30 2568 C 224.249 3.60353 -0.133546 0
M  V30 2569 O 223.353 4.02464 0.899806 0
M  V30 2570 H 222.694 0.656137 -0.10188 0
M  V30 2571 H 225.224 1.82964 -0.915722 0
M  V30 2572 H 225.234 4.07976 0.0447041 0
M  V30 2573 H 223.909 4.00938 -1.1055 0
M  V30 2574 H 222.486 3.66402 0.693109 0
M  V30 2575 N 224.671 0.411399 1.52136 0
M  V30 2576 C 226.087 0.0623865 1.59478 0
M  V30 2577 C 226.287 -1.42554 1.4241 0
M  V30 2578 O 225.343 -2.19263 1.2522 0
M  V30 2579 C 226.656 0.559331 2.95452 0
M  V30 2580 C 228.204 0.517503 3.08692 0
M  V30 2581 C 228.679 0.990994 4.4715 0
M  V30 2582 N 230.17 0.947908 4.53397 0
M  V30 2583 C 230.905 1.28544 5.58806 0
M  V30 2584 N 230.401 1.69454 6.71757 0
M  V30 2585 N 232.194 1.20526 5.49026 0
M  V30 2586 H 224.345 1.37982 1.61477 0
M  V30 2587 H 226.608 0.566977 0.759764 0
M  V30 2588 H 226.314 1.59938 3.1323 0
M  V30 2589 H 226.188 -0.0298014 3.77188 0
M  V30 2590 H 228.575 -0.513505 2.90598 0
M  V30 2591 H 228.656 1.14272 2.28857 0
M  V30 2592 H 228.3 2.02034 4.65988 0
M  V30 2593 H 228.23 0.34257 5.25485 0
M  V30 2594 H 230.721 0.647157 3.72317 0
M  V30 2595 H 231.034 1.93513 7.48179 0
M  V30 2596 H 229.379 1.73359 6.73032 0
M  V30 2597 H 232.57 0.884505 4.59667 0
M  V30 2598 H 232.743 1.47161 6.31069 0
M  V30 2599 N 226.149 -1.5696 0.141893 0
M  V30 2600 C 227.396 -1.9596 -0.510492 0
M  V30 2601 C 227.724 -1.02648 -1.65208 0
M  V30 2602 O 226.979 -0.0546947 -1.95624 0
M  V30 2603 C 227.278 -3.41242 -1.06249 0
M  V30 2604 C 226.944 -4.50882 -0.0398791 0
M  V30 2605 C 225.606 -4.80595 0.241247 0
M  V30 2606 C 227.958 -5.17058 0.65578 0
M  V30 2607 C 225.286 -5.73792 1.22393 0
M  V30 2608 C 227.638 -6.11313 1.62724 0
M  V30 2609 C 226.302 -6.39407 1.91612 0
M  V30 2610 H 225.572 -0.717068 -0.186802 0
M  V30 2611 H 228.219 -1.90142 0.227643 0
M  V30 2612 H 226.524 -3.43866 -1.87785 0
M  V30 2613 H 228.221 -3.68742 -1.57576 0
M  V30 2614 H 224.811 -4.27754 -0.269174 0
M  V30 2615 H 228.995 -4.94239 0.451779 0
M  V30 2616 H 224.251 -5.93853 1.45424 0
M  V30 2617 H 228.425 -6.61668 2.17183 0
M  V30 2618 H 226.052 -7.11427 2.6791 0
M  V30 2619 N 227.627 0.131896 -1.57047 0
M  V30 2620 C 228.59 1.14638 -1.98471 0
M  V30 2621 C 229.59 1.35029 -0.873148 0
M  V30 2622 O 230.78 1.31764 -1.13946 0
M  V30 2623 C 227.912 2.50358 -2.31373 0
M  V30 2624 H 229.105 0.79064 -2.8929 0
M  V30 2625 H 226.658 0.375761 -1.51716 0
M  V30 2626 H 227.393 2.90876 -1.43393 0
M  V30 2627 H 227.178 2.36915 -3.12432 0
M  V30 2628 H 228.668 3.23395 -2.64207 0
M  V30 2629 N 229.106 1.52395 0.401703 0
M  V30 2630 C 230.352 1.67065 1.14966 0
M  V30 2631 C 230.685 0.403052 1.89971 0
M  V30 2632 O 229.96 -0.598774 1.85054 0
M  V30 2633 C 230.243 2.8975 2.13815 0
M  V30 2634 C 230.096 4.26578 1.42658 0
M  V30 2635 C 231.415 3.07965 3.14397 0
M  V30 2636 H 228.534 0.607968 0.416587 0
M  V30 2637 H 231.176 1.84965 0.434511 0
M  V30 2638 H 229.326 2.74619 2.74803 0
M  V30 2639 H 230.998 4.53451 0.847329 0
M  V30 2640 H 229.241 4.27639 0.72849 0
M  V30 2641 H 229.912 5.08483 2.14823 0
M  V30 2642 H 232.388 3.22043 2.63491 0
M  V30 2643 H 231.264 3.95308 3.80819 0
M  V30 2644 H 231.525 2.21611 3.82545 0
M  V30 2645 N 230.584 -0.659388 1.43143 0
M  V30 2646 C 231.532 -1.79374 1.4808 0
M  V30 2647 C 232.526 -1.65639 0.354988 0
M  V30 2648 O 233.732 -1.7206 0.528704 0
M  V30 2649 H 230.107 -0.591705 0.4641 0
M  V30 2650 H 232.078 -1.72329 2.43609 0
M  V30 2651 C 230.827 -3.17606 1.41499 0
M  V30 2652 H 230.15 -3.28809 2.27431 0
M  V30 2653 H 231.59 -3.96951 1.49015 0
M  V30 2654 C 230.049 -3.36642 0.131765 0
M  V30 2655 O 230.579 -3.93461 -0.809386 0
M  V30 2656 N 228.785 -2.90567 0.0439396 0
M  V30 2657 H 228.332 -2.44513 0.810619 0
M  V30 2658 H 228.29 -3.03681 -0.813969 0
M  V30 2659 N 232.062 -1.29571 -0.897171 0
M  V30 2660 C 233.31 -1.17456 -1.64464 0
M  V30 2661 C 233.631 0.273698 -1.9307 0
M  V30 2662 O 232.901 1.18684 -1.55855 0
M  V30 2663 H 231.481 -0.431706 -0.609622 0
M  V30 2664 H 234.143 -1.62531 -1.07562 0
M  V30 2665 H 233.239 -1.72648 -2.59998 0
M  V30 2666 N 233.54 1.10788 -1.12088 0
M  V30 2667 C 234.77 1.86191 -0.895351 0
M  V30 2668 C 235.178 1.80763 0.558702 0
M  V30 2669 O 234.521 1.19188 1.39785 0
M  V30 2670 C 234.583 3.35659 -1.28737 0
M  V30 2671 C 234.247 3.64849 -2.75198 0
M  V30 2672 C 235.244 3.61757 -3.734 0
M  V30 2673 C 232.929 3.93641 -3.12013 0
M  V30 2674 C 234.923 3.87045 -5.06434 0
M  V30 2675 C 232.61 4.18585 -4.4523 0
M  V30 2676 C 233.608 4.15277 -5.42249 0
M  V30 2677 O 233.296 4.3959 -6.73065 0
M  V30 2678 H 233.028 0.595425 -0.32007 0
M  V30 2679 H 235.582 1.40992 -1.49367 0
M  V30 2680 H 233.812 3.81497 -0.63224 0
M  V30 2681 H 235.501 3.92441 -1.03656 0
M  V30 2682 H 236.267 3.39557 -3.46303 0
M  V30 2683 H 232.146 3.95348 -2.37109 0
M  V30 2684 H 235.69 3.84378 -5.82151 0
M  V30 2685 H 231.587 4.40264 -4.72057 0
M  V30 2686 H 232.355 4.57123 -6.78956 0
M  V30 2687 N 235.018 0.912232 1.28515 0
M  V30 2688 C 235.95 0.35676 2.26406 0
M  V30 2689 C 236.963 -0.503933 1.54804 0
M  V30 2690 O 238.152 -0.319059 1.75625 0
M  V30 2691 C 235.252 -0.508825 3.35058 0
M  V30 2692 C 234.425 0.329007 4.36161 0
M  V30 2693 C 233.484 -0.471422 5.24084 0
M  V30 2694 O 232.51 0.115482 5.69083 0
M  V30 2695 N 233.712 -1.77479 5.52704 0
M  V30 2696 H 236.477 1.19818 2.74707 0
M  V30 2697 H 234.038 0.778022 1.4198 0
M  V30 2698 H 236.03 -1.051 3.90815 0
M  V30 2699 H 234.6 -1.25095 2.86478 0
M  V30 2700 H 233.82 1.05256 3.79888 0
M  V30 2701 H 235.108 0.90234 5.00735 0
M  V30 2702 H 234.506 -2.27417 5.17975 0
M  V30 2703 H 233.063 -2.26382 6.11224 0
M  V30 2704 N 236.496 -1.42363 0.676048 0
M  V30 2705 C 237.726 -2.05561 0.206967 0
M  V30 2706 C 238.134 -1.50887 -1.14148 0
M  V30 2707 O 237.477 -0.643933 -1.72044 0
M  V30 2708 C 237.539 -3.5944 0.0659508 0
M  V30 2709 C 237.203 -4.36812 1.34331 0
M  V30 2710 C 238.2 -4.67383 2.27704 0
M  V30 2711 C 235.885 -4.76429 1.59125 0
M  V30 2712 C 237.879 -5.36509 3.44147 0
M  V30 2713 C 235.566 -5.45294 2.75857 0
M  V30 2714 C 236.564 -5.75259 3.68193 0
M  V30 2715 O 236.252 -6.42712 4.82883 0
M  V30 2716 H 235.984 -0.668872 0.0979084 0
M  V30 2717 H 238.538 -1.83467 0.923531 0
M  V30 2718 H 236.768 -3.80197 -0.706204 0
M  V30 2719 H 238.457 -4.0427 -0.363418 0
M  V30 2720 H 239.223 -4.37275 2.09799 0
M  V30 2721 H 235.102 -4.52498 0.881258 0
M  V30 2722 H 238.646 -5.59814 4.16238 0
M  V30 2723 H 234.543 -5.7482 2.93688 0
M  V30 2724 H 235.311 -6.61204 4.82444 0
M  V30 2725 N 237.974 -0.419461 -1.51915 0
M  V30 2726 C 239.385 0.0477853 -1.86639 0
M  V30 2727 C 239.736 1.43531 -1.33766 0
M  V30 2728 O 238.861 2.05401 -0.68113 0
M  V30 2729 C 239.456 0.0934885 -3.38671 0
M  V30 2730 C 238.015 0.505097 -3.72996 0
M  V30 2731 C 237.162 -0.313792 -2.75519 0
M  V30 2732 H 240.113 -0.636088 -1.45395 0
M  V30 2733 H 240.134 0.906667 -3.6954 0
M  V30 2734 H 239.646 -0.916501 -3.77123 0
M  V30 2735 H 237.747 1.52135 -3.40126 0
M  V30 2736 H 237.86 0.242309 -4.78487 0
M  V30 2737 H 236.224 0.225363 -2.53701 0
M  V30 2738 H 237.007 -1.32232 -3.16812 0
M  V30 2739 N 239.452 1.56882 -0.150215 0
M  V30 2740 C 240.677 2.01027 0.510184 0
M  V30 2741 C 241.102 1.02966 1.57415 0
M  V30 2742 O 240.46 0.00590158 1.81299 0
M  V30 2743 C 240.508 3.43899 1.08472 0
M  V30 2744 O 239.612 3.4885 2.19948 0
M  V30 2745 H 238.953 0.652233 0.124451 0
M  V30 2746 H 241.483 2.03093 -0.247894 0
M  V30 2747 H 241.493 3.82766 1.41259 0
M  V30 2748 H 240.168 4.14776 0.305582 0
M  V30 2749 H 238.745 3.21827 1.88366 0
M  V30 2750 N 240.93 -0.123565 1.57115 0
M  V30 2751 C 241.86 -1.15309 2.03042 0
M  V30 2752 C 242.841 -1.43454 0.914061 0
M  V30 2753 O 244.026 -1.53973 1.18347 0
M  V30 2754 C 241.156 -2.48043 2.43089 0
M  V30 2755 C 240.11 -2.3437 3.58127 0
M  V30 2756 C 239.436 -3.72026 3.84059 0
M  V30 2757 C 240.736 -1.80804 4.90007 0
M  V30 2758 H 242.43 -0.771102 2.893 0
M  V30 2759 H 239.976 -0.369479 1.39179 0
M  V30 2760 H 241.929 -3.20311 2.73823 0
M  V30 2761 H 240.653 -2.88122 1.53796 0
M  V30 2762 H 239.312 -1.64551 3.27595 0
M  V30 2763 H 238.96 -4.09582 2.91979 0
M  V30 2764 H 238.66 -3.63732 4.6149 0
M  V30 2765 H 240.184 -4.45806 4.1724 0
M  V30 2766 H 241.598 -2.42886 5.19307 0
M  V30 2767 H 239.995 -1.83343 5.71407 0
M  V30 2768 H 241.065 -0.76528 4.78823 0
M  V30 2769 N 242.408 -1.52605 -0.393616 0
M  V30 2770 C 243.318 -1.79971 -1.50492 0
M  V30 2771 C 244.334 -0.686181 -1.59899 0
M  V30 2772 O 245.51 -0.973274 -1.76322 0
M  V30 2773 C 242.575 -1.95867 -2.86072 0
M  V30 2774 C 241.636 -3.19781 -2.86424 0
M  V30 2775 C 240.869 -3.34909 -4.15538 0
M  V30 2776 O 241.092 -2.54948 -5.10253 0
M  V30 2777 O 240.026 -4.28141 -4.23059 0
M  V30 2778 H 243.852 -2.74328 -1.30299 0
M  V30 2779 H 241.437 -1.3764 -0.581005 0
M  V30 2780 H 243.319 -2.08056 -3.66457 0
M  V30 2781 H 241.994 -1.04699 -3.063 0
M  V30 2782 H 240.901 -3.13038 -2.04837 0
M  V30 2783 H 242.234 -4.1078 -2.71147 0
M  V30 2784 N 243.887 0.651787 -1.4349 0
M  V30 2785 C 245.133 1.41376 -1.45398 0
M  V30 2786 C 245.466 1.94041 -0.0784823 0
M  V30 2787 O 244.741 1.72379 0.900878 0
M  V30 2788 C 245.024 2.59414 -2.49752 0
M  V30 2789 C 244.877 2.12232 -3.96582 0
M  V30 2790 C 246.196 3.61626 -2.50827 0
M  V30 2791 H 243.315 0.512719 -0.529422 0
M  V30 2792 H 245.957 0.738796 -1.75048 0
M  V30 2793 H 244.107 3.16997 -2.246 0
M  V30 2794 H 245.779 1.59639 -4.32797 0
M  V30 2795 H 244.022 1.43592 -4.09346 0
M  V30 2796 H 244.693 2.9712 -4.65214 0
M  V30 2797 H 247.169 3.13805 -2.7325 0
M  V30 2798 H 246.045 4.41766 -3.25783 0
M  V30 2799 H 246.306 4.14314 -1.5426 0
M  V30 2800 N 245.365 1.30045 0.890287 0
M  V30 2801 C 246.781 1.08261 1.17268 0
M  V30 2802 C 246.981 -0.160063 2.00863 0
M  V30 2803 O 246.037 -0.855181 2.37577 0
M  V30 2804 C 247.35 2.34323 1.8845 0
M  V30 2805 C 248.898 2.39735 2.01237 0
M  V30 2806 C 249.373 3.65625 2.7583 0
M  V30 2807 N 250.864 3.66402 2.83379 0
M  V30 2808 C 251.599 4.60498 3.41657 0
M  V30 2809 N 251.095 5.64933 4.01026 0
M  V30 2810 N 252.888 4.48051 3.39421 0
M  V30 2811 H 245.039 2.09777 0.332762 0
M  V30 2812 H 247.302 0.92446 0.209948 0
M  V30 2813 H 247.008 3.2498 1.34465 0
M  V30 2814 H 246.882 2.4256 2.88867 0
M  V30 2815 H 249.269 1.4956 2.54393 0
M  V30 2816 H 249.35 2.35476 0.999232 0
M  V30 2817 H 248.994 4.56156 2.23347 0
M  V30 2818 H 248.924 3.67144 3.77509 0
M  V30 2819 H 251.415 2.90896 2.41222 0
M  V30 2820 H 251.728 6.32841 4.43545 0
M  V30 2821 H 250.073 5.68732 3.99461 0
M  V30 2822 H 253.264 3.65649 2.92264 0
M  V30 2823 H 253.437 5.21565 3.84544 0
M  V30 2824 N 246.843 -1.10192 1.12674 0
M  V30 2825 C 248.254 -1.63707 0.897604 0
M  V30 2826 C 248.605 -1.87812 -0.567546 0
M  V30 2827 O 247.73 -1.62196 -1.43253 0
M  V30 2828 C 248.325 -2.974 1.62292 0
M  V30 2829 C 246.884 -3.47772 1.43986 0
M  V30 2830 C 246.031 -2.22332 1.65722 0
M  V30 2831 H 248.982 -0.936587 1.28116 0
M  V30 2832 H 249.003 -3.64986 1.07541 0
M  V30 2833 H 248.515 -2.79824 2.68924 0
M  V30 2834 H 246.616 -3.70487 0.396206 0
M  V30 2835 H 246.729 -4.25723 2.19765 0
M  V30 2836 H 245.093 -2.30599 1.08149 0
M  V30 2837 H 245.876 -2.07285 2.73657 0
M  V30 2838 N 248.321 -0.919034 -1.28029 0
M  V30 2839 C 249.551 -0.570143 -1.98577 0
M  V30 2840 C 249.959 0.854172 -1.68821 0
M  V30 2841 O 249.302 1.57807 -0.940351 0
M  V30 2842 C 249.364 -0.705734 -3.52505 0
M  V30 2843 C 249.028 -2.10057 -4.05863 0
M  V30 2844 C 250.025 -3.07385 -4.19298 0
M  V30 2845 C 247.71 -2.41517 -4.40426 0
M  V30 2846 C 249.704 -4.34287 -4.66555 0
M  V30 2847 C 247.391 -3.68657 -4.87376 0
M  V30 2848 C 248.389 -4.64856 -5.00398 0
M  V30 2849 O 248.077 -5.89735 -5.46322 0
M  V30 2850 H 247.809 -0.215592 -0.6407 0
M  V30 2851 H 250.363 -1.23583 -1.64062 0
M  V30 2852 H 248.593 0.0170414 -3.86696 0
M  V30 2853 H 250.282 -0.363172 -4.04272 0
M  V30 2854 H 251.048 -2.84398 -3.92865 0
M  V30 2855 H 246.927 -1.67389 -4.29537 0
M  V30 2856 H 250.471 -5.09377 -4.76635 0
M  V30 2857 H 246.368 -3.91466 -5.13249 0
M  V30 2858 H 247.136 -5.92599 -5.64596 0
M  V30 2859 N 249.799 1.42003 -0.683588 0
M  V30 2860 C 251.046 2.01413 -0.209514 0
M  V30 2861 C 251.374 1.54088 1.1869 0
M  V30 2862 O 250.629 0.737591 1.81268 0
M  V30 2863 C 250.928 3.56827 -0.202357 0
M  V30 2864 C 250.594 4.23617 -1.54464 0
M  V30 2865 C 249.256 4.41577 -1.91215 0
M  V30 2866 C 251.608 4.61178 -2.42826 0
M  V30 2867 C 248.936 4.9437 -3.15935 0
M  V30 2868 C 251.288 5.15355 -3.66867 0
M  V30 2869 C 249.952 5.31528 -4.03776 0
M  V30 2870 H 249.222 0.737023 -0.0766668 0
M  V30 2871 H 251.869 1.70067 -0.880312 0
M  V30 2872 H 250.174 3.87892 0.551969 0
M  V30 2873 H 251.871 4.00588 0.181793 0
M  V30 2874 H 248.461 4.10004 -1.24877 0
M  V30 2875 H 252.645 4.46968 -2.15717 0
M  V30 2876 H 247.901 5.05076 -3.44541 0
M  V30 2877 H 252.075 5.43402 -4.35531 0
M  V30 2878 H 249.702 5.72199 -5.00492 0
M  V30 2879 N 251.277 0.427512 1.51691 0
M  V30 2880 C 252.224 -0.388867 2.275 0
M  V30 2881 C 253.194 -1.02532 1.30677 0
M  V30 2882 O 254.379 -1.0461 1.59566 0
M  V30 2883 C 251.519 -1.48954 3.11298 0
M  V30 2884 C 250.632 -0.872194 4.23104 0
M  V30 2885 C 249.767 -1.94709 4.94228 0
M  V30 2886 C 248.806 -1.30766 5.97969 0
M  V30 2887 N 247.943 -2.32349 6.62539 0
M  V30 2888 H 252.783 0.263997 2.96828 0
M  V30 2889 H 250.32 0.142033 1.46413 0
M  V30 2890 H 252.278 -2.13887 3.58201 0
M  V30 2891 H 250.908 -2.11217 2.44105 0
M  V30 2892 H 249.96 -0.111419 3.80237 0
M  V30 2893 H 251.272 -0.365264 4.97461 0
M  V30 2894 H 250.426 -2.67327 5.44629 0
M  V30 2895 H 249.165 -2.48773 4.1948 0
M  V30 2896 H 248.17 -0.566902 5.4687 0
M  V30 2897 H 249.395 -0.774483 6.74669 0
M  V30 2898 H 247.341 -2.85511 5.90609 0
M  V30 2899 H 247.258 -1.8652 7.3263 0
M  V30 2900 H 248.526 -3.04481 7.17574 0
M  V30 2901 N 252.755 -1.56801 0.158532 0
M  V30 2902 C 254.171 -1.5837 -0.197774 0
M  V30 2903 C 254.371 -1.17334 -1.63814 0
M  V30 2904 O 253.427 -0.878988 -2.36707 0
M  V30 2905 C 254.74 -3.00615 0.0714459 0
M  V30 2906 C 256.288 -3.12999 0.00864533 0
M  V30 2907 C 256.763 -4.57313 0.250685 0
M  V30 2908 N 258.254 -4.62777 0.198014 0
M  V30 2909 C 258.989 -5.72271 0.359642 0
M  V30 2910 N 258.485 -6.90371 0.579625 0
M  V30 2911 N 260.278 -5.61318 0.296438 0
M  V30 2912 H 252.429 -1.81765 1.09887 0
M  V30 2913 H 254.692 -0.841849 0.435884 0
M  V30 2914 H 254.398 -3.35068 1.06874 0
M  V30 2915 H 254.272 -3.71683 -0.642757 0
M  V30 2916 H 256.659 -2.7838 -0.979217 0
M  V30 2917 H 256.74 -2.44393 0.755359 0
M  V30 2918 H 256.384 -4.92639 1.2357 0
M  V30 2919 H 256.314 -5.24061 -0.516489 0
M  V30 2920 H 258.805 -3.77885 0.0331115 0
M  V30 2921 H 259.118 -7.69689 0.69275 0
M  V30 2922 H 257.463 -6.92264 0.616087 0
M  V30 2923 H 260.654 -4.67932 0.125258 0
M  V30 2924 H 260.827 -6.46599 0.425831 0
M  V30 2925 N 254.233 0.115231 -1.57178 0
M  V30 2926 C 255.183 1.14707 -1.97044 0
M  V30 2927 C 256.167 1.36866 -0.845957 0
M  V30 2928 O 257.359 1.37895 -1.10968 0
M  V30 2929 C 254.488 2.47266 -2.38148 0
M  V30 2930 C 253.574 2.28566 -3.57237 0
M  V30 2931 N 253.965 1.79685 -4.72807 0
M  V30 2932 C 252.263 2.59208 -3.62943 0
M  V30 2933 C 252.964 1.74781 -5.54821 0
M  V30 2934 N 251.94 2.19264 -4.97417 0
M  V30 2935 H 255.742 0.761754 -2.83857 0
M  V30 2936 H 253.256 0.322928 -1.59157 0
M  V30 2937 H 255.253 3.219 -2.64927 0
M  V30 2938 H 253.913 2.86552 -1.52702 0
M  V30 2939 H 254.924 1.49177 -4.9595 0
M  V30 2940 H 251.601 3.02154 -2.88113 0
M  V30 2941 H 252.991 1.38212 -6.57531 0
M  V30 2942 N 255.711 1.52812 0.385517 0
M  V30 2943 C 256.941 1.71658 1.14966 0
M  V30 2944 C 257.349 0.436253 1.84102 0
M  V30 2945 O 256.692 -0.599313 1.73649 0
M  V30 2946 C 256.754 2.81309 2.23843 0
M  V30 2947 C 256.418 4.22313 1.74644 0
M  V30 2948 C 257.415 5.05352 1.22129 0
M  V30 2949 C 255.1 4.68648 1.80761 0
M  V30 2950 C 257.094 6.32807 0.763838 0
M  V30 2951 C 254.781 5.96086 1.34627 0
M  V30 2952 C 255.779 6.77996 0.825264 0
M  V30 2953 O 255.467 8.03045 0.370669 0
M  V30 2954 H 255.199 0.578022 0.350523 0
M  V30 2955 H 257.753 2.00263 0.456509 0
M  V30 2956 H 255.983 2.48133 2.96592 0
M  V30 2957 H 257.672 2.88524 2.85497 0
M  V30 2958 H 258.438 4.70736 1.16758 0
M  V30 2959 H 254.317 4.04979 2.20256 0
M  V30 2960 H 257.861 6.96689 0.356494 0
M  V30 2961 H 253.758 6.30205 1.39686 0
M  V30 2962 H 254.526 8.17021 0.491829 0
M  V30 2963 N 257.189 -0.644168 1.43834 0
M  V30 2964 C 258.119 -1.76814 1.52509 0
M  V30 2965 C 259.1 -1.65823 0.379052 0
M  V30 2966 O 260.285 -1.84781 0.597466 0
M  V30 2967 C 257.415 -3.15288 1.4564 0
M  V30 2968 C 256.369 -3.41053 2.58586 0
M  V30 2969 C 255.695 -4.79421 2.36769 0
M  V30 2970 C 256.995 -3.34902 4.00797 0
M  V30 2971 H 258.689 -1.69812 2.46586 0
M  V30 2972 H 256.235 -0.815542 1.1868 0
M  V30 2973 H 258.188 -3.93681 1.50311 0
M  V30 2974 H 256.912 -3.23043 0.480725 0
M  V30 2975 H 255.571 -2.65035 2.53282 0
M  V30 2976 H 255.219 -4.83863 1.37424 0
M  V30 2977 H 254.919 -4.9762 3.12487 0
M  V30 2978 H 256.443 -5.6006 2.43238 0
M  V30 2979 H 257.857 -4.03218 4.07539 0
M  V30 2980 H 256.254 -3.64637 4.76613 0
M  V30 2981 H 257.324 -2.32928 4.25291 0
M  V30 2982 N 258.668 -1.30515 -0.883378 0
M  V30 2983 C 259.898 -1.22182 -1.66599 0
M  V30 2984 C 260.306 0.217507 -1.87946 0
M  V30 2985 O 259.649 1.1554 -1.42815 0
M  V30 2986 C 259.711 -1.88146 -3.06335 0
M  V30 2987 C 259.375 -3.37476 -3.08154 0
M  V30 2988 C 260.372 -4.33443 -2.87094 0
M  V30 2989 C 258.057 -3.7895 -3.29701 0
M  V30 2990 C 260.051 -5.68858 -2.8754 0
M  V30 2991 C 257.738 -5.14482 -3.29776 0
M  V30 2992 C 258.736 -6.09246 -3.0872 0
M  V30 2993 O 258.424 -7.42302 -3.08615 0
M  V30 2994 H 258.156 -0.423898 -0.52658 0
M  V30 2995 H 260.71 -1.72703 -1.11188 0
M  V30 2996 H 258.94 -1.32157 -3.63416 0
M  V30 2997 H 260.629 -1.7391 -3.66756 0
M  V30 2998 H 261.395 -4.02733 -2.70243 0
M  V30 2999 H 257.274 -3.05631 -3.45124 0
M  V30 3000 H 260.818 -6.428 -2.71024 0
M  V30 3001 H 256.715 -5.44832 -3.46163 0
M  V30 3002 H 257.483 -7.5131 -3.24769 0
M  V30 3003 N 260.146 1.09593 -1.13257 0
M  V30 3004 C 261.394 1.81375 -0.891492 0
M  V30 3005 C 261.715 1.86049 0.584009 0
M  V30 3006 O 260.985 1.34481 1.42449 0
M  V30 3007 H 259.565 0.671708 -0.326828 0
M  V30 3008 H 262.227 1.3256 -1.42877 0
M  V30 3009 H 261.323 2.84612 -1.28071 0
M  V30 3010 N 261.624 0.925811 1.2754 0
M  V30 3011 C 262.534 0.428993 2.30644 0
M  V30 3012 C 263.55 -0.489387 1.66976 0
M  V30 3013 O 264.726 -0.372653 1.97922 0
M  V30 3014 C 261.791 -0.311967 3.45294 0
M  V30 3015 C 260.852 0.641098 4.24486 0
M  V30 3016 C 260.085 -0.0645955 5.33661 0
M  V30 3017 O 260.308 -1.28429 5.55754 0
M  V30 3018 O 259.242 0.606265 5.98839 0
M  V30 3019 H 263.068 1.28504 2.75173 0
M  V30 3020 H 260.653 0.691086 1.32455 0
M  V30 3021 H 262.535 -0.729972 4.15029 0
M  V30 3022 H 261.21 -1.14365 3.02824 0
M  V30 3023 H 260.117 1.10874 3.57292 0
M  V30 3024 H 261.45 1.43995 4.70666 0
M  V30 3025 N 263.102 -1.41638 0.69111 0
M  V30 3026 C 264.33 -2.05628 0.22909 0
M  V30 3027 C 264.745 -1.51992 -1.11999 0
M  V30 3028 O 264.102 -0.666322 -1.69901 0
M  V30 3029 C 264.153 -3.61084 0.173283 0
M  V30 3030 O 263.874 -4.12735 1.46907 0
M  V30 3031 C 265.375 -4.42213 -0.310266 0
M  V30 3032 H 262.595 -0.662327 0.107534 0
M  V30 3033 H 265.139 -1.81489 0.942438 0
M  V30 3034 H 263.294 -3.84278 -0.490858 0
M  V30 3035 H 263.708 -5.06743 1.35322 0
M  V30 3036 H 265.182 -5.51194 -0.298196 0
M  V30 3037 H 265.659 -4.1799 -1.34838 0
M  V30 3038 H 266.265 -4.24074 0.322716 0
M  V30 3039 N 264.58 -0.43555 -1.51462 0
M  V30 3040 C 265.513 0.421989 -2.24264 0
M  V30 3041 C 266.491 1.02619 -1.26127 0
M  V30 3042 O 267.675 1.069 -1.55257 0
M  V30 3043 C 264.802 1.588 -2.99166 0
M  V30 3044 C 263.848 1.10465 -4.11946 0
M  V30 3045 S 264.681 0.048146 -5.35478 0
M  V30 3046 C 265.837 1.21887 -6.13917 0
M  V30 3047 H 266.07 -0.196102 -2.96653 0
M  V30 3048 H 263.603 -0.220054 -1.52824 0
M  V30 3049 H 265.561 2.25647 -3.42919 0
M  V30 3050 H 264.222 2.1775 -2.26371 0
M  V30 3051 H 263.415 1.97654 -4.63626 0
M  V30 3052 H 263.017 0.51445 -3.70445 0
M  V30 3053 H 265.309 2.13756 -6.42895 0
M  V30 3054 H 266.252 0.742076 -7.04201 0
M  V30 3055 H 266.66 1.45663 -5.45383 0
M  V30 3056 N 266.058 1.56714 -0.166846 0
M  V30 3057 C 267.021 2.16539 0.751232 0
M  V30 3058 C 268.021 1.11228 1.16125 0
M  V30 3059 O 269.211 1.36765 1.07894 0
M  V30 3060 C 266.343 2.74462 2.02196 0
M  V30 3061 H 267.536 2.99013 0.230499 0
M  V30 3062 H 265.089 1.56081 0.0826982 0
M  V30 3063 H 265.824 1.95709 2.58589 0
M  V30 3064 H 265.609 3.51527 1.73698 0
M  V30 3065 H 267.099 3.20489 2.67725 0
M  V30 3066 N 267.536 -0.106894 1.57237 0
M  V30 3067 C 268.486 -1.1366 1.9765 0
M  V30 3068 C 269.47 -1.36416 0.853203 0
M  V30 3069 O 270.662 -1.37305 1.11697 0
M  V30 3070 C 267.791 -2.46 2.39455 0
M  V30 3071 C 266.877 -2.26668 3.58445 0
M  V30 3072 N 267.268 -1.77176 4.73754 0
M  V30 3073 C 265.566 -2.57279 3.64312 0
M  V30 3074 C 266.267 -1.71836 5.5574 0
M  V30 3075 N 265.243 -2.16623 4.98573 0
M  V30 3076 H 269.045 -0.74669 2.84256 0
M  V30 3077 H 266.559 -0.314483 1.59326 0
M  V30 3078 H 268.556 -3.2049 2.6663 0
M  V30 3079 H 267.216 -2.85738 1.54219 0
M  V30 3080 H 268.227 -1.46545 4.96734 0
M  V30 3081 H 264.904 -3.00622 2.89711 0
M  V30 3082 H 266.294 -1.34723 6.58255 0
M  V30 3083 N 269.014 -1.53014 -0.377408 0
M  V30 3084 C 270.263 -1.67845 -1.11853 0
M  V30 3085 C 270.576 -0.430625 -1.90801 0
M  V30 3086 O 271.782 -0.459261 -2.67587 0
M  V30 3087 C 270.238 -2.96668 -2.03756 0
M  V30 3088 C 269.846 -4.28671 -1.30175 0
M  V30 3089 C 271.59 -3.20865 -2.77932 0
M  V30 3090 C 269.497 -5.48591 -2.20911 0
M  V30 3091 H 268.427 -0.625343 -0.421263 0
M  V30 3092 H 271.078 -1.79514 -0.380409 0
M  V30 3093 H 269.46 -2.78773 -2.8125 0
M  V30 3094 H 270.634 -4.57157 -0.578259 0
M  V30 3095 H 268.949 -4.10825 -0.679108 0
M  V30 3096 H 271.546 -4.07642 -3.46024 0
M  V30 3097 H 271.889 -2.36424 -3.4265 0
M  V30 3098 H 272.422 -3.39379 -2.07525 0
M  V30 3099 H 269.161 -6.35474 -1.6079 0
M  V30 3100 H 268.681 -5.244 -2.91144 0
M  V30 3101 H 270.36 -5.8292 -2.80736 0
M  V30 3102 N 270.492 0.636531 -1.44174 0
M  V30 3103 C 271.422 1.76003 -1.53444 0
M  V30 3104 C 272.403 1.65619 -0.387841 0
M  V30 3105 O 273.588 1.84461 -0.607257 0
M  V30 3106 C 270.718 3.14511 -1.4731 0
M  V30 3107 C 269.672 3.39677 -2.60391 0
M  V30 3108 C 268.998 4.78159 -2.39308 0
M  V30 3109 C 270.298 3.32772 -4.02567 0
M  V30 3110 H 271.992 1.68501 -2.47483 0
M  V30 3111 H 269.538 0.809237 -1.19111 0
M  V30 3112 H 271.491 3.92878 -1.52397 0
M  V30 3113 H 270.215 3.22783 -0.49785 0
M  V30 3114 H 268.874 2.63688 -2.54684 0
M  V30 3115 H 268.522 4.83128 -1.39988 0
M  V30 3116 H 268.222 4.95956 -3.15122 0
M  V30 3117 H 269.746 5.58762 -2.46205 0
M  V30 3118 H 271.16 4.01051 -4.09672 0
M  V30 3119 H 269.557 3.62104 -4.7854 0
M  V30 3120 H 270.627 2.30669 -4.2652 0
M  V30 3121 N 271.97 1.30982 0.876444 0
M  V30 3122 C 273.218 1.20058 1.62575 0
M  V30 3123 C 273.539 -0.242947 1.93481 0
M  V30 3124 O 272.809 -1.1619 1.57724 0
M  V30 3125 H 271.389 0.44135 0.602677 0
M  V30 3126 H 274.051 1.64222 1.04962 0
M  V30 3127 H 273.147 1.76762 2.57219 0
M  V30 3128 N 273.449 -1.08991 1.13837 0
M  V30 3129 C 274.679 -1.84743 0.924859 0
M  V30 3130 C 275.087 -1.81629 -0.529874 0
M  V30 3131 O 274.43 -1.21397 -1.37872 0
M  V30 3132 C 274.492 -3.33568 1.34061 0
M  V30 3133 C 274.156 -3.60425 2.80968 0
M  V30 3134 C 275.153 -3.55771 3.79108 0
M  V30 3135 C 272.838 -3.88627 3.18236 0
M  V30 3136 C 274.832 -3.78939 5.12527 0
M  V30 3137 C 272.519 -4.11449 4.51833 0
M  V30 3138 C 273.517 -4.06598 5.48787 0
M  V30 3139 O 273.205 -4.28826 6.79973 0
M  V30 3140 H 272.937 -0.590258 0.329502 0
M  V30 3141 H 275.491 -1.38598 1.51591 0
M  V30 3142 H 273.721 -3.80442 0.692853 0
M  V30 3143 H 275.41 -3.90743 1.09886 0
M  V30 3144 H 276.176 -3.34005 3.51661 0
M  V30 3145 H 272.055 -3.91526 2.43369 0
M  V30 3146 H 275.599 -3.75068 5.88192 0
M  V30 3147 H 271.496 -4.32698 4.79002 0
M  V30 3148 H 272.264 -4.46264 6.86142 0
M  V30 3149 N 274.927 -0.932562 -1.27047 0
M  V30 3150 C 276.173 -0.576412 -1.94436 0
M  V30 3151 C 276.506 0.880891 -1.73072 0
M  V30 3152 O 275.781 1.62905 -1.06264 0
M  V30 3153 C 276.064 -0.909031 -3.48437 0
M  V30 3154 C 275.917 -2.42044 -3.79123 0
M  V30 3155 C 277.236 -0.418341 -4.38107 0
M  V30 3156 H 274.355 -0.210888 -0.706184 0
M  V30 3157 H 276.997 -1.16522 -1.50075 0
M  V30 3158 H 275.147 -0.407947 -3.86352 0
M  V30 3159 H 276.819 -2.99359 -3.50973 0
M  V30 3160 H 275.062 -2.86758 -3.25503 0
M  V30 3161 H 275.733 -2.6037 -4.86736 0
M  V30 3162 H 278.209 -0.847856 -4.0737 0
M  V30 3163 H 277.085 -0.679981 -5.44672 0
M  V30 3164 H 277.346 0.681642 -4.36814 0
M  V30 3165 N 276.405 1.4127 -0.698611 0
M  V30 3166 C 277.653 2.00782 -0.230409 0
M  V30 3167 C 277.974 1.5562 1.17505 0
M  V30 3168 O 277.244 0.78815 1.79346 0
M  V30 3169 H 275.824 0.742464 -0.0821944 0
M  V30 3170 H 278.486 1.72852 -0.90045 0
M  V30 3171 H 277.582 3.11095 -0.25021 0
M  V30 3172 N 277.883 0.443576 1.51229 0
M  V30 3173 C 278.83 -0.364716 2.279 0
M  V30 3174 C 279.8 -1.0114 1.31757 0
M  V30 3175 O 280.985 -1.02912 1.60667 0
M  V30 3176 C 278.125 -1.45644 3.12861 0
M  V30 3177 C 277.238 -0.827269 4.24005 0
M  V30 3178 C 276.373 -1.89456 4.96266 0
M  V30 3179 C 275.412 -1.24416 5.99322 0
M  V30 3180 N 274.549 -2.25309 6.64966 0
M  V30 3181 H 279.389 0.295464 2.96532 0
M  V30 3182 H 276.926 0.157554 1.46254 0
M  V30 3183 H 278.884 -2.10076 3.6045 0
M  V30 3184 H 277.514 -2.08616 2.46331 0
M  V30 3185 H 276.566 -0.0710839 3.80334 0
M  V30 3186 H 277.878 -0.312481 4.9782 0
M  V30 3187 H 277.032 -2.61535 5.47434 0
M  V30 3188 H 275.771 -2.4431 4.22095 0
M  V30 3189 H 274.776 -0.508868 5.4744 0
M  V30 3190 H 276.001 -0.702882 6.75453 0
M  V30 3191 H 273.947 -2.79231 5.93604 0
M  V30 3192 H 273.864 -1.78739 7.34567 0
M  V30 3193 H 275.132 -2.96853 7.20763 0
M  V30 3194 N 279.361 -1.56624 0.175154 0
M  V30 3195 C 280.294 -2.14 -0.792412 0
M  V30 3196 C 281.272 -1.07114 -1.22333 0
M  V30 3197 O 282.456 -1.35112 -1.31442 0
M  V30 3198 C 279.583 -2.68268 -2.0676 0
M  V30 3199 C 278.629 -3.87562 -1.7804 0
M  V30 3200 S 279.462 -5.27074 -0.946222 0
M  V30 3201 C 280.618 -5.8475 -2.23199 0
M  V30 3202 H 280.851 -2.95736 -0.304588 0
M  V30 3203 H 278.384 -1.54349 -0.0395705 0
M  V30 3204 H 280.342 -3.00182 -2.80002 0
M  V30 3205 H 279.003 -1.86612 -2.52656 0
M  V30 3206 H 278.196 -4.23874 -2.72666 0
M  V30 3207 H 277.798 -3.56555 -1.12891 0
M  V30 3208 H 280.09 -5.97898 -3.18629 0
M  V30 3209 H 281.033 -6.81756 -1.91349 0
M  V30 3210 H 281.441 -5.13198 -2.35134 0
M  V30 3211 N 280.839 0.0985539 -1.57292 0
M  V30 3212 C 281.787 1.1387 -2.02821 0
M  V30 3213 C 282.781 1.41676 -0.928666 0
M  V30 3214 O 283.987 1.41398 -1.11385 0
M  V30 3215 H 280.362 0.384419 -0.646317 0
M  V30 3216 H 282.333 0.728347 -2.89375 0
M  V30 3217 C 281.082 2.45166 -2.46554 0
M  V30 3218 H 280.405 2.24613 -3.3074 0
M  V30 3219 H 281.845 3.16456 -2.8219 0
M  V30 3220 C 280.304 3.09216 -1.33742 0
M  V30 3221 O 280.834 3.96163 -0.66464 0
M  V30 3222 N 279.04 2.69413 -1.08928 0
M  V30 3223 H 278.587 1.98801 -1.63817 0
M  V30 3224 H 278.545 3.12594 -0.336458 0
M  V30 3225 N 282.317 1.53212 0.369288 0
M  V30 3226 C 283.594 1.59815 1.12776 0
M  V30 3227 C 283.974 0.403402 2.0721 0
M  V30 3228 O 283.322 -0.606667 2.20299 0
M  V30 3229 C 283.532 2.94664 1.87013 0
M  V30 3230 C 284.88 3.49109 2.41677 0
M  V30 3231 O 285.904 2.96669 1.97144 0
M  V30 3232 O 284.763 4.40775 3.23079 0
M  V30 3233 H 281.857 0.645376 0.517125 0
M  V30 3234 H 284.403 1.65553 0.37285 0
M  V30 3235 H 283.175 3.73061 1.18071 0
M  V30 3236 H 282.798 2.92401 2.69421 0
M  V30 3237 N 283.795 -0.628877 1.44509 0
M  V30 3238 C 284.742 -1.74074 1.51549 0
M  V30 3239 C 285.712 -1.62084 0.363021 0
M  V30 3240 O 286.897 -1.81975 0.573567 0
M  V30 3241 C 284.037 -3.12328 1.46784 0
M  V30 3242 C 283.15 -3.35277 2.72422 0
M  V30 3243 C 282.285 -4.63515 2.59475 0
M  V30 3244 C 281.324 -4.7965 3.80266 0
M  V30 3245 N 280.461 -5.99168 3.65981 0
M  V30 3246 H 285.301 -1.67392 2.46544 0
M  V30 3247 H 282.838 -0.816527 1.22357 0
M  V30 3248 H 284.796 -3.92286 1.42012 0
M  V30 3249 H 283.426 -3.18018 0.553544 0
M  V30 3250 H 282.478 -2.49242 2.87372 0
M  V30 3251 H 283.79 -3.43078 3.62076 0
M  V30 3252 H 282.944 -5.51638 2.52548 0
M  V30 3253 H 281.683 -4.58076 1.67384 0
M  V30 3254 H 280.688 -3.89957 3.87574 0
M  V30 3255 H 281.913 -4.86902 4.73395 0
M  V30 3256 H 279.859 -5.94814 2.76644 0
M  V30 3257 H 279.776 -6.08035 4.49254 0
M  V30 3258 H 281.044 -6.89846 3.6295 0
M  V30 3259 N 285.273 -1.31445 -0.869486 0
M  V30 3260 C 286.55 -1.11795 -1.60503 0
M  V30 3261 C 286.93 0.327168 -2.08549 0
M  V30 3262 O 286.278 1.32135 -1.8642 0
M  V30 3263 C 286.488 -2.13258 -2.76265 0
M  V30 3264 C 287.836 -2.45805 -3.46215 0
M  V30 3265 O 288.86 -2.11688 -2.86473 0
M  V30 3266 O 287.719 -3.04228 -4.5399 0
M  V30 3267 H 284.813 -0.430421 -0.706163 0
M  V30 3268 H 287.359 -1.42925 -0.914907 0
M  V30 3269 H 286.131 -3.10461 -2.3818 0
M  V30 3270 H 285.754 -1.83035 -3.52964 0
M  V30 3271 N 286.751 1.08385 -1.14413 0
M  V30 3272 C 287.997 1.81044 -0.913834 0
M  V30 3273 C 288.33 1.86004 0.558209 0
M  V30 3274 O 287.605 1.33606 1.4135 0
M  V30 3275 C 287.888 3.26648 -1.51569 0
M  V30 3276 C 287.741 3.29895 -3.0576 0
M  V30 3277 C 289.06 4.23629 -1.19273 0
M  V30 3278 H 286.179 0.65727 -0.333414 0
M  V30 3279 H 288.821 1.26896 -1.41412 0
M  V30 3280 H 286.971 3.72889 -1.09023 0
M  V30 3281 H 288.643 2.91977 -3.57137 0
M  V30 3282 H 286.886 2.69163 -3.40197 0
M  V30 3283 H 287.557 4.32516 -3.42977 0
M  V30 3284 H 290.033 3.85727 -1.56057 0
M  V30 3285 H 288.909 5.23822 -1.64017 0
M  V30 3286 H 289.17 4.41968 -0.108068 0
M  V30 3287 N 288.23 0.939286 1.26551 0
M  V30 3288 C 289.14 0.453432 2.30176 0
M  V30 3289 C 290.156 -0.471649 1.67486 0
M  V30 3290 O 291.332 -0.35164 1.98306 0
M  V30 3291 C 288.397 -0.275326 3.45605 0
M  V30 3292 C 287.458 0.686084 4.23782 0
M  V30 3293 C 286.691 -0.00798994 5.33699 0
M  V30 3294 O 286.914 -1.22528 5.57085 0
M  V30 3295 O 285.848 0.669746 5.98162 0
M  V30 3296 H 289.674 1.31416 2.73795 0
M  V30 3297 H 287.259 0.705095 1.31715 0
M  V30 3298 H 289.141 -0.685911 4.1578 0
M  V30 3299 H 287.816 -1.11147 3.0402 0
M  V30 3300 H 286.723 1.14658 3.56096 0
M  V30 3301 H 288.056 1.48979 4.69112 0
M  V30 3302 N 289.708 -1.40897 0.706093 0
M  V30 3303 C 291.124 -1.55042 0.37869 0
M  V30 3304 C 291.324 -1.67944 -1.11342 0
M  V30 3305 O 290.38 -1.66372 -1.89938 0
M  V30 3306 C 291.693 -2.78398 1.13643 0
M  V30 3307 C 293.241 -2.92206 1.12181 0
M  V30 3308 C 293.716 -4.18463 1.86152 0
M  V30 3309 N 295.207 -4.25443 1.83173 0
M  V30 3310 C 295.942 -5.2202 2.37239 0
M  V30 3311 N 295.438 -6.24563 2.99821 0
M  V30 3312 N 297.231 -5.14033 2.27435 0
M  V30 3313 H 289.382 -1.30769 1.67372 0
M  V30 3314 H 291.645 -0.631653 0.706907 0
M  V30 3315 H 291.351 -2.7511 2.19106 0
M  V30 3316 H 291.225 -3.70228 0.721853 0
M  V30 3317 H 293.612 -2.95004 0.0754171 0
M  V30 3318 H 293.693 -2.01521 1.57554 0
M  V30 3319 H 293.337 -4.16427 2.90776 0
M  V30 3320 H 293.267 -5.08141 1.38206 0
M  V30 3321 H 295.758 -3.51976 1.37556 0
M  V30 3322 H 296.071 -6.94665 3.38616 0
M  V30 3323 H 294.416 -6.25035 3.03902 0
M  V30 3324 H 297.607 -4.3285 1.78208 0
M  V30 3325 H 297.78 -5.89129 2.69873 0
M  V30 3326 N 291.186 -0.45159 -1.50991 0
M  V30 3327 C 292.116 0.342898 -2.30969 0
M  V30 3328 C 293.097 1.00815 -1.37005 0
M  V30 3329 O 294.282 1.00907 -1.65926 0
M  V30 3330 C 291.412 1.43637 -3.16205 0
M  V30 3331 C 290.366 0.893818 -4.18563 0
M  V30 3332 C 289.692 2.08411 -4.92411 0
M  V30 3333 C 290.992 -0.0815568 -5.22236 0
M  V30 3334 H 292.686 -0.324556 -2.97636 0
M  V30 3335 H 290.232 -0.157531 -1.43136 0
M  V30 3336 H 292.185 1.9995 -3.70942 0
M  V30 3337 H 290.909 2.13232 -2.47386 0
M  V30 3338 H 289.568 0.352798 -3.64898 0
M  V30 3339 H 289.216 2.76658 -4.20082 0
M  V30 3340 H 288.916 1.72741 -5.61636 0
M  V30 3341 H 290.44 2.65251 -5.49976 0
M  V30 3342 H 291.854 0.391742 -5.7196 0
M  V30 3343 H 290.251 -0.351551 -5.99069 0
M  V30 3344 H 291.321 -1.01374 -4.74185 0
M  V30 3345 N 292.664 1.56529 -0.183458 0
M  V30 3346 C 293.611 2.18546 0.742055 0
M  V30 3347 C 294.581 1.12912 1.2182 0
M  V30 3348 O 295.766 1.41115 1.28418 0
M  V30 3349 C 292.906 2.83977 1.96089 0
M  V30 3350 C 292.019 4.04105 1.52719 0
M  V30 3351 C 291.154 4.57427 2.70063 0
M  V30 3352 C 290.193 5.69938 2.23243 0
M  V30 3353 N 289.33 6.17717 3.33722 0
M  V30 3354 H 294.17 2.97284 0.206432 0
M  V30 3355 H 291.707 1.46823 0.0901571 0
M  V30 3356 H 293.665 3.20077 2.67594 0
M  V30 3357 H 292.295 2.07822 2.47002 0
M  V30 3358 H 291.347 3.73745 0.708436 0
M  V30 3359 H 292.659 4.85513 1.1436 0
M  V30 3360 H 291.813 4.95772 3.49708 0
M  V30 3361 H 290.552 3.75101 3.11689 0
M  V30 3362 H 289.557 5.31133 1.42048 0
M  V30 3363 H 290.782 6.54073 1.82661 0
M  V30 3364 H 288.728 5.38317 3.74902 0
M  V30 3365 H 288.645 6.94146 2.99495 0
M  V30 3366 H 289.913 6.60713 4.13616 0
M  V30 3367 N 294.142 -0.090211 1.57342 0
M  V30 3368 C 295.558 -0.444547 1.53284 0
M  V30 3369 C 295.758 -1.80238 0.900914 0
M  V30 3370 O 294.814 -2.4759 0.495513 0
M  V30 3371 C 296.127 -0.402543 2.97993 0
M  V30 3372 C 297.675 -0.48405 3.09234 0
M  V30 3373 C 298.15 -0.472144 4.5556 0
M  V30 3374 N 299.641 -0.532757 4.60126 0
M  V30 3375 C 300.376 -0.545462 5.708 0
M  V30 3376 N 299.872 -0.514082 6.9089 0
M  V30 3377 N 301.665 -0.59064 5.58988 0
M  V30 3378 H 293.816 0.799121 1.96794 0
M  V30 3379 H 296.079 0.297965 0.899956 0
M  V30 3380 H 295.785 0.528106 3.47712 0
M  V30 3381 H 295.659 -1.21969 3.56936 0
M  V30 3382 H 298.046 -1.40512 2.595 0
M  V30 3383 H 298.127 0.361328 2.53235 0
M  V30 3384 H 297.771 0.445 5.05947 0
M  V30 3385 H 297.701 -1.3348 5.09402 0
M  V30 3386 H 300.192 -0.562006 3.73698 0
M  V30 3387 H 300.505 -0.527195 7.71 0
M  V30 3388 H 298.85 -0.481054 6.93333 0
M  V30 3389 H 302.041 -0.61272 4.64073 0
M  V30 3390 H 302.214 -0.597073 6.45243 0
M  V30 3391 N 295.62 -1.53406 -0.361157 0
M  V30 3392 C 296.53 -1.83122 -1.4664 0
M  V30 3393 C 297.546 -0.719943 -1.58407 0
M  V30 3394 O 298.722 -1.01046 -1.74218 0
M  V30 3395 C 295.787 -2.01891 -2.81853 0
M  V30 3396 C 294.848 -3.25784 -2.79577 0
M  V30 3397 C 294.081 -3.43648 -4.0834 0
M  V30 3398 O 294.304 -2.65714 -5.0473 0
M  V30 3399 O 293.238 -4.37018 -4.13883 0
M  V30 3400 H 297.064 -2.7703 -1.24451 0
M  V30 3401 H 294.649 -1.38841 -0.551678 0
M  V30 3402 H 296.531 -2.15782 -3.61962 0
M  V30 3403 H 295.206 -1.11173 -3.0401 0
M  V30 3404 H 294.113 -3.17312 -1.98151 0
M  V30 3405 H 295.446 -4.16439 -2.62373 0
M  V30 3406 N 297.098 0.621204 -1.44841 0
M  V30 3407 C 298.375 1.38 -1.38619 0
M  V30 3408 C 298.755 2.11041 -0.0498935 0
M  V30 3409 O 298.103 2.06992 0.967816 0
M  V30 3410 C 298.313 2.33817 -2.59096 0
M  V30 3411 C 299.661 2.96844 -3.03593 0
M  V30 3412 O 300.685 2.44141 -2.59371 0
M  V30 3413 O 299.544 3.92476 -3.80296 0
M  V30 3414 H 296.638 0.61811 -0.549426 0
M  V30 3415 H 299.184 0.645429 -1.56947 0
M  V30 3416 H 297.956 1.79012 -3.47952 0
M  V30 3417 H 297.579 3.14676 -2.43032 0
M  V30 3418 N 298.576 1.31904 0.862503 0
M  V30 3419 C 299.523 1.20182 1.9704 0
M  V30 3420 C 300.493 0.0858247 1.65878 0
M  V30 3421 O 301.678 0.26 1.8902 0
M  V30 3422 C 298.818 0.922797 3.32533 0
M  V30 3423 C 297.931 2.12284 3.76244 0
M  V30 3424 C 297.066 1.77996 5.00491 0
M  V30 3425 C 296.105 2.94366 5.36671 0
M  V30 3426 N 295.242 2.60223 6.52095 0
M  V30 3427 H 300.082 2.14951 2.06398 0
M  V30 3428 H 297.619 1.06917 1.01031 0
M  V30 3429 H 299.577 0.741548 4.10557 0
M  V30 3430 H 298.207 0.0119227 3.22798 0
M  V30 3431 H 297.259 2.41461 2.9394 0
M  V30 3432 H 298.571 2.99357 3.98982 0
M  V30 3433 H 297.725 1.56377 5.862 0
M  V30 3434 H 296.464 0.881252 4.79672 0
M  V30 3435 H 295.469 3.16625 4.49476 0
M  V30 3436 H 296.694 3.84957 5.59451 0
M  V30 3437 H 294.64 1.72884 6.32809 0
M  V30 3438 H 294.557 3.40827 6.74814 0
M  V30 3439 H 295.825 2.42016 7.40978 0
M  V30 3440 N 300.054 -1.07777 1.14986 0
M  V30 3441 C 301.301 -1.8029 0.922056 0
M  V30 3442 C 301.629 -1.86531 -0.55105 0
M  V30 3443 O 300.884 -1.34189 -1.42449 0
M  V30 3444 C 301.183 -3.25495 1.47608 0
M  V30 3445 C 300.849 -3.39361 2.96893 0
M  V30 3446 C 299.511 -3.42852 3.37647 0
M  V30 3447 C 301.863 -3.42512 3.92854 0
M  V30 3448 C 299.191 -3.47094 4.73015 0
M  V30 3449 C 301.543 -3.4829 5.28088 0
M  V30 3450 C 300.207 -3.50058 5.68345 0
M  V30 3451 H 299.477 -0.659727 0.337404 0
M  V30 3452 H 302.124 -1.26854 1.43459 0
M  V30 3453 H 300.429 -3.81683 0.88463 0
M  V30 3454 H 302.126 -3.80168 1.27568 0
M  V30 3455 H 298.716 -3.37339 2.64387 0
M  V30 3456 H 302.9 -3.3904 3.62444 0
M  V30 3457 H 298.156 -3.46758 5.03556 0
M  V30 3458 H 302.33 -3.49675 6.02246 0
M  V30 3459 H 299.957 -3.53097 6.73221 0
M  V30 3460 N 301.532 -0.945985 -1.26051 0
M  V30 3461 C 302.495 -0.463897 -2.24456 0
M  V30 3462 C 303.495 0.427655 -1.55009 0
M  V30 3463 O 304.685 0.226157 -1.72726 0
M  V30 3464 C 301.817 0.330812 -3.39291 0
M  V30 3465 H 303.01 -1.33357 -2.68619 0
M  V30 3466 H 300.563 -0.728416 -1.38289 0
M  V30 3467 H 301.298 1.21852 -3.00537 0
M  V30 3468 H 301.083 -0.308679 -3.90883 0
M  V30 3469 H 302.573 0.657865 -4.12386 0
M  V30 3470 N 303.011 1.40521 -0.713556 0
M  V30 3471 C 303.959 2.32549 -0.0485227 0
M  V30 3472 C 304.953 1.51931 0.74922 0
M  V30 3473 O 306.159 1.67745 0.652816 0
M  V30 3474 H 302.534 0.751994 0.00311138 0
M  V30 3475 H 304.505 2.86291 -0.841443 0
M  V30 3476 C 303.254 3.36879 0.860687 0
M  V30 3477 H 302.577 3.98978 0.256246 0
M  V30 3478 H 304.017 4.03772 1.294 0
M  V30 3479 C 302.476 2.72197 1.9852 0
M  V30 3480 O 303.006 2.5837 3.07584 0
M  V30 3481 N 301.212 2.30612 1.76823 0
M  V30 3482 H 300.759 2.42059 0.881217 0
M  V30 3483 H 300.717 1.87672 2.52243 0
M  V30 3484 N 304.489 0.459591 1.5075 0
M  V30 3485 C 305.719 -0.0972338 2.06371 0
M  V30 3486 C 306.127 -1.35074 1.32483 0
M  V30 3487 O 305.47 -1.79637 0.384226 0
M  V30 3488 C 305.532 -0.462759 3.56509 0
M  V30 3489 C 305.196 0.687084 4.51805 0
M  V30 3490 C 306.193 1.56578 4.95761 0
M  V30 3491 C 303.878 0.874144 4.94635 0
M  V30 3492 C 305.872 2.61604 5.81242 0
M  V30 3493 C 303.559 1.92765 5.79901 0
M  V30 3494 C 304.557 2.79697 6.23104 0
M  V30 3495 O 304.245 3.83235 7.06673 0
M  V30 3496 H 303.977 -0.00140687 0.675999 0
M  V30 3497 H 306.531 0.644011 1.95043 0
M  V30 3498 H 304.761 -1.25703 3.65699 0
M  V30 3499 H 306.45 -0.953323 3.94546 0
M  V30 3500 H 307.216 1.4329 4.6335 0
M  V30 3501 H 303.095 0.207006 4.60535 0
M  V30 3502 H 306.639 3.29489 6.14884 0
M  V30 3503 H 302.536 2.06064 6.11725 0
M  V30 3504 H 303.304 3.80084 7.24899 0
M  V30 3505 N 305.967 -1.56429 0.191757 0
M  V30 3506 C 306.93 -2.17707 -0.716688 0
M  V30 3507 C 307.93 -1.13061 -1.14341 0
M  V30 3508 O 309.12 -1.38464 -1.05704 0
M  V30 3509 C 306.252 -2.77644 -1.97804 0
M  V30 3510 H 307.445 -2.99342 -0.1829 0
M  V30 3511 H 304.998 -1.56193 -0.0578566 0
M  V30 3512 H 305.733 -1.99799 -2.55443 0
M  V30 3513 H 305.518 -3.54246 -1.68083 0
M  V30 3514 H 307.008 -3.24708 -2.62592 0
M  V30 3515 N 307.445 0.0818655 -1.57387 0
M  V30 3516 C 308.693 0.781368 -1.86384 0
M  V30 3517 C 309.014 1.78618 -0.782342 0
M  V30 3518 O 308.284 1.94976 0.190061 0
M  V30 3519 H 306.864 0.291562 -0.687751 0
M  V30 3520 H 309.526 0.060348 -1.94807 0
M  V30 3521 H 308.622 1.3038 -2.83562 0
M  V30 3522 N 308.923 1.53595 0.353017 0
M  V30 3523 C 310.151 1.74311 1.1146 0
M  V30 3524 C 310.566 0.477854 1.82653 0
M  V30 3525 O 309.923 -0.549977 1.74016 0
M  V30 3526 C 309.974 2.91694 2.13534 0
M  V30 3527 O 309.695 4.13325 1.45238 0
M  V30 3528 C 311.196 3.24384 3.02142 0
M  V30 3529 H 308.416 0.582669 0.332773 0
M  V30 3530 H 310.96 2.00386 0.408107 0
M  V30 3531 H 309.115 2.67977 2.79763 0
M  V30 3532 H 309.529 4.79148 2.13349 0
M  V30 3533 H 311.003 4.09893 3.69718 0
M  V30 3534 H 311.48 2.40282 3.67643 0
M  V30 3535 H 312.086 3.50073 2.41514 0
M  V30 3536 N 310.401 -0.613514 1.45168 0
M  V30 3537 C 311.349 -1.74572 1.53712 0
M  V30 3538 C 312.343 -1.64426 0.407505 0
M  V30 3539 O 313.549 -1.70291 0.583176 0
M  V30 3540 H 309.924 -0.576641 0.48269 0
M  V30 3541 H 311.895 -1.64492 2.48968 0
M  V30 3542 C 310.644 -3.12943 1.51532 0
M  V30 3543 H 309.967 -3.21407 2.37776 0
M  V30 3544 H 311.407 -3.9201 1.61569 0
M  V30 3545 C 309.866 -3.36053 0.238798 0
M  V30 3546 O 310.396 -3.95837 -0.6838 0
M  V30 3547 N 308.602 -2.9028 0.136359 0
M  V30 3548 H 308.149 -2.41811 0.887999 0
M  V30 3549 H 308.107 -3.06116 -0.716944 0
M  V30 3550 N 311.879 -1.3236 -0.855495 0
M  V30 3551 C 313.156 -1.13491 -1.59309 0
M  V30 3552 C 313.536 0.30503 -2.08885 0
M  V30 3553 O 312.884 1.30151 -1.87811 0
M  V30 3554 C 313.094 -2.16176 -2.73987 0
M  V30 3555 C 314.442 -2.49463 -3.43589 0
M  V30 3556 O 315.466 -2.14715 -2.84211 0
M  V30 3557 O 314.325 -3.09027 -4.50738 0
M  V30 3558 H 311.419 -0.437887 -0.701559 0
M  V30 3559 H 313.965 -1.43887 -0.899696 0
M  V30 3560 H 312.737 -3.1297 -2.34873 0
M  V30 3561 H 312.36 -1.86769 -3.51003 0
M  V30 3562 N 313.357 1.07166 -1.15556 0
M  V30 3563 C 314.606 1.79181 -0.926132 0
M  V30 3564 C 314.919 1.87768 0.547967 0
M  V30 3565 O 316.125 2.56323 0.895036 0
M  V30 3566 C 314.581 3.22 -1.60761 0
M  V30 3567 C 314.189 3.21607 -3.11886 0
M  V30 3568 C 315.933 3.9861 -1.4598 0
M  V30 3569 C 313.84 4.59092 -3.72812 0
M  V30 3570 H 312.77 0.67154 -0.342856 0
M  V30 3571 H 315.421 1.2027 -1.3859 0
M  V30 3572 H 313.803 3.81115 -1.07553 0
M  V30 3573 H 314.977 2.72127 -3.71865 0
M  V30 3574 H 313.292 2.58495 -3.2645 0
M  V30 3575 H 315.889 5.00225 -1.88888 0
M  V30 3576 H 316.232 4.143 -0.407541 0
M  V30 3577 H 316.765 3.45996 -1.96295 0
M  V30 3578 H 313.504 4.48606 -4.77946 0
M  V30 3579 H 313.024 5.08803 -3.17616 0
M  V30 3580 H 314.703 5.28059 -3.73848 0
M  V30 3581 N 314.835 0.952656 1.25548 0
M  V30 3582 C 316.083 0.605176 1.92826 0
M  V30 3583 C 316.404 -0.860261 1.74999 0
M  V30 3584 O 315.674 -1.6125 1.11244 0
M  V30 3585 H 314.254 0.220832 0.713612 0
M  V30 3586 H 316.916 1.21047 1.52754 0
M  V30 3587 H 316.012 0.832798 3.00784 0
M  V30 3588 N 316.313 -1.40141 0.720998 0
M  V30 3589 C 317.26 -2.30688 0.071919 0
M  V30 3590 C 318.23 -1.48476 -0.744584 0
M  V30 3591 O 319.415 -1.77201 -0.707423 0
M  V30 3592 C 316.555 -3.34724 -0.839855 0
M  V30 3593 C 315.668 -4.31998 -0.0122438 0
M  V30 3594 C 314.803 -5.23102 -0.923995 0
M  V30 3595 C 313.842 -6.12033 -0.0907969 0
M  V30 3596 N 312.979 -6.95537 -0.957718 0
M  V30 3597 H 317.819 -2.85628 0.849755 0
M  V30 3598 H 315.356 -1.40653 0.430726 0
M  V30 3599 H 317.314 -3.93618 -1.38279 0
M  V30 3600 H 315.944 -2.81274 -1.58381 0
M  V30 3601 H 314.996 -3.74841 0.64794 0
M  V30 3602 H 316.308 -4.94772 0.632595 0
M  V30 3603 H 315.462 -5.86953 -1.53527 0
M  V30 3604 H 314.201 -4.60615 -1.60264 0
M  V30 3605 H 313.206 -5.47207 0.533377 0
M  V30 3606 H 314.431 -6.76581 0.584428 0
M  V30 3607 H 312.377 -6.35633 -1.62192 0
M  V30 3608 H 312.294 -7.55099 -0.36904 0
M  V30 3609 H 313.562 -7.63832 -1.555 0
M  V30 3610 N 317.792 -0.46758 -1.50504 0
M  V30 3611 C 318.722 0.318381 -2.31319 0
M  V30 3612 C 319.703 0.993564 -1.38066 0
M  V30 3613 O 320.888 0.991411 -1.66987 0
M  V30 3614 C 318.018 1.40275 -3.17711 0
M  V30 3615 C 316.972 0.849373 -4.19487 0
M  V30 3616 C 316.298 2.03177 -4.94594 0
M  V30 3617 C 317.598 -0.136942 -5.2212 0
M  V30 3618 H 319.292 -0.356106 -2.97275 0
M  V30 3619 H 316.838 -0.172703 -1.42961 0
M  V30 3620 H 318.791 1.96004 -3.73042 0
M  V30 3621 H 317.515 2.10596 -2.49634 0
M  V30 3622 H 316.174 0.314076 -3.65252 0
M  V30 3623 H 315.822 2.72187 -4.22993 0
M  V30 3624 H 315.522 1.66774 -5.63436 0
M  V30 3625 H 317.046 2.59403 -5.52759 0
M  V30 3626 H 318.46 0.331056 -5.72343 0
M  V30 3627 H 316.857 -0.41507 -5.98663 0
M  V30 3628 H 317.927 -1.06398 -4.73083 0
M  V30 3629 N 319.27 1.56325 -0.20005 0
M  V30 3630 C 320.518 1.97329 0.436547 0
M  V30 3631 C 320.839 1.08826 1.61808 0
M  V30 3632 O 320.109 0.160604 1.95241 0
M  V30 3633 H 318.689 0.728714 0.164272 0
M  V30 3634 H 321.351 1.92761 -0.287937 0
M  V30 3635 H 320.447 3.02264 0.777353 0
M  V30 3636 N 320.748 -0.0735177 1.57428 0
M  V30 3637 C 321.997 -0.771809 1.86349 0
M  V30 3638 C 322.31 -1.78828 0.792452 0
M  V30 3639 O 323.516 -2.53602 0.96945 0
M  V30 3640 C 321.972 -1.42358 3.30548 0
M  V30 3641 C 321.58 -0.445761 4.45777 0
M  V30 3642 C 323.324 -2.10434 3.6867 0
M  V30 3643 C 321.231 -1.10335 5.81016 0
M  V30 3644 H 320.161 -0.291999 0.695164 0
M  V30 3645 H 322.812 -0.0250749 1.83483 0
M  V30 3646 H 321.194 -2.21852 3.28021 0
M  V30 3647 H 322.368 0.319239 4.59693 0
M  V30 3648 H 320.683 0.130457 4.16196 0
M  V30 3649 H 323.28 -2.60405 4.67004 0
M  V30 3650 H 323.623 -2.90298 2.98383 0
M  V30 3651 H 324.156 -1.37773 3.7318 0
M  V30 3652 H 320.895 -0.345061 6.54591 0
M  V30 3653 H 320.415 -1.83925 5.70904 0
M  V30 3654 H 322.094 -1.62367 6.26295 0
M  V30 3655 N 322.226 -1.5378 -0.344866 0
M  V30 3656 C 323.136 -1.84667 -1.4469 0
M  V30 3657 C 324.152 -0.736704 -1.57635 0
M  V30 3658 O 325.328 -1.02888 -1.73136 0
M  V30 3659 C 322.393 -2.04869 -2.79696 0
M  V30 3660 C 321.454 -3.28731 -2.76106 0
M  V30 3661 C 320.687 -3.4796 -4.04673 0
M  V30 3662 O 320.91 -2.71052 -5.01883 0
M  V30 3663 O 319.844 -4.41383 -4.09224 0
M  V30 3664 H 323.67 -2.78334 -1.21506 0
M  V30 3665 H 321.255 -1.39418 -0.536921 0
M  V30 3666 H 323.137 -2.19609 -3.59652 0
M  V30 3667 H 321.812 -1.14391 -3.02814 0
M  V30 3668 H 320.719 -3.19396 -1.94774 0
M  V30 3669 H 322.052 -4.19198 -2.57941 0
M  V30 3670 N 323.704 0.605807 -1.45491 0
M  V30 3671 C 325.12 0.926751 -1.29936 0
M  V30 3672 C 325.32 1.99896 -0.253706 0
M  V30 3673 O 324.376 2.50038 0.351737 0
M  V30 3674 C 325.689 1.36599 -2.67883 0
M  V30 3675 C 327.237 1.4801 -2.75793 0
M  V30 3676 C 327.712 1.95309 -4.14268 0
M  V30 3677 N 329.203 2.0254 -4.16571 0
M  V30 3678 C 329.938 2.40363 -5.20589 0
M  V30 3679 N 329.434 2.77143 -6.34952 0
M  V30 3680 N 331.227 2.40718 -5.07948 0
M  V30 3681 H 323.378 -0.102862 -2.12151 0
M  V30 3682 H 325.641 0.016639 -0.947854 0
M  V30 3683 H 325.347 0.652306 -3.45598 0
M  V30 3684 H 325.221 2.33215 -2.96463 0
M  V30 3685 H 327.608 2.1847 -1.98381 0
M  V30 3686 H 327.689 0.497041 -2.50925 0
M  V30 3687 H 327.333 1.25436 -4.92167 0
M  V30 3688 H 327.263 2.94532 -4.3653 0
M  V30 3689 H 329.754 1.76699 -3.34045 0
M  V30 3690 H 330.067 3.0489 -7.10114 0
M  V30 3691 H 328.412 2.74834 -6.3835 0
M  V30 3692 H 331.603 2.11392 -4.1765 0
M  V30 3693 H 331.776 2.69869 -5.89131 0
M  V30 3694 N 325.182 1.32811 0.848464 0
M  V30 3695 C 326.412 1.26556 1.63301 0
M  V30 3696 C 326.82 -0.1676 1.88456 0
M  V30 3697 O 326.163 -1.11713 1.45828 0
M  V30 3698 C 326.225 1.96202 3.01239 0
M  V30 3699 C 325.889 3.45528 2.99098 0
M  V30 3700 C 326.886 4.40903 2.75501 0
M  V30 3701 C 324.571 3.87558 3.19537 0
M  V30 3702 C 326.565 5.76282 2.72356 0
M  V30 3703 C 324.252 5.23044 3.16019 0
M  V30 3704 C 325.25 6.17217 2.92458 0
M  V30 3705 O 324.938 7.50223 2.88825 0
M  V30 3706 H 324.67 0.43771 0.515156 0
M  V30 3707 H 327.224 1.7559 1.0657 0
M  V30 3708 H 325.454 1.41746 3.59785 0
M  V30 3709 H 327.143 1.83573 3.62016 0
M  V30 3710 H 327.909 4.09756 2.5947 0
M  V30 3711 H 323.788 3.14674 3.369 0
M  V30 3712 H 327.332 6.4976 2.53886 0
M  V30 3713 H 323.229 5.53818 3.31596 0
M  V30 3714 H 323.997 7.59657 3.04735 0
M  V30 3715 N 326.66 -1.06551 1.16123 0
M  V30 3716 C 327.89 -1.8274 0.963838 0
M  V30 3717 C 328.298 -1.82712 -0.491228 0
M  V30 3718 O 327.641 -1.24294 -1.35265 0
M  V30 3719 C 327.703 -3.3065 1.41106 0
M  V30 3720 C 327.367 -3.54384 2.88549 0
M  V30 3721 C 328.364 -3.4765 3.86569 0
M  V30 3722 C 326.049 -3.81789 3.26408 0
M  V30 3723 C 328.043 -3.67982 5.2045 0
M  V30 3724 C 325.73 -4.01772 4.60459 0
M  V30 3725 C 326.728 -3.94866 5.57288 0
M  V30 3726 O 326.416 -4.14306 6.88916 0
M  V30 3727 H 326.148 -0.583136 0.341948 0
M  V30 3728 H 328.702 -1.35351 1.54497 0
M  V30 3729 H 326.932 -3.78887 0.773394 0
M  V30 3730 H 328.621 -3.88324 1.1815 0
M  V30 3731 H 329.387 -3.2647 3.58667 0
M  V30 3732 H 325.266 -3.86276 2.51619 0
M  V30 3733 H 328.81 -3.62507 5.96015 0
M  V30 3734 H 324.707 -4.2244 4.88072 0
M  V30 3735 H 325.475 -4.31609 6.95454 0
M  V30 3736 N 328.138 -0.959301 -1.25041 0
M  V30 3737 C 329.048 -0.489994 -2.29426 0
M  V30 3738 C 330.064 0.444944 -1.68215 0
M  V30 3739 O 331.24 0.320046 -1.98841 0
M  V30 3740 C 328.305 0.220309 -3.45999 0
M  V30 3741 C 327.366 -0.753418 -4.22637 0
M  V30 3742 C 326.599 -0.076918 -5.33645 0
M  V30 3743 O 326.822 1.13649 -5.58963 0
M  V30 3744 O 325.756 -0.764824 -5.97021 0
M  V30 3745 H 329.582 -1.35755 -2.71669 0
M  V30 3746 H 327.167 -0.725961 -1.30576 0
M  V30 3747 H 329.049 0.619677 -4.16819 0
M  V30 3748 H 327.724 1.06296 -3.0575 0
M  V30 3749 H 326.631 -1.20308 -3.54227 0
M  V30 3750 H 327.964 -1.56423 -4.66683 0
M  V30 3751 N 329.616 1.39756 -0.72842 0
M  V30 3752 C 330.893 1.94574 -0.200079 0
M  V30 3753 C 331.273 1.66569 1.29684 0
M  V30 3754 O 330.621 0.990326 2.05924 0
M  V30 3755 C 330.831 3.45004 -0.526608 0
M  V30 3756 C 332.179 4.21965 -0.472318 0
M  V30 3757 O 333.203 3.53173 -0.463413 0
M  V30 3758 O 332.062 5.44552 -0.461075 0
M  V30 3759 H 329.156 0.826289 -0.0342851 0
M  V30 3760 H 331.702 1.49293 -0.806829 0
M  V30 3761 H 330.474 3.58796 -1.56144 0
M  V30 3762 H 330.097 3.97449 0.109449 0
M  V30 3763 N 331.094 0.475555 1.50254 0
M  V30 3764 C 332.343 -0.0795996 2.01543 0
M  V30 3765 C 332.656 -1.4038 1.36209 0
M  V30 3766 O 333.862 -2.04415 1.7868 0
M  V30 3767 C 332.318 -0.192363 3.59386 0
M  V30 3768 C 331.926 1.12367 4.33679 0
M  V30 3769 C 333.67 -0.699238 4.18701 0
M  V30 3770 C 331.577 0.974453 5.83317 0
M  V30 3771 H 330.507 -0.0335228 0.753254 0
M  V30 3772 H 333.158 0.611128 1.73025 0
M  V30 3773 H 331.54 -0.946974 3.84511 0
M  V30 3774 H 332.714 1.88958 4.20276 0
M  V30 3775 H 331.029 1.562 3.85993 0
M  V30 3776 H 333.626 -0.827978 5.28251 0
M  V30 3777 H 333.969 -1.69171 3.80377 0
M  V30 3778 H 334.502 -0.00188807 3.978 0
M  V30 3779 H 331.241 1.94042 6.26121 0
M  V30 3780 H 330.761 0.248998 5.99283 0
M  V30 3781 H 332.44 0.642867 6.43798 0
M  V30 3782 N 332.573 -1.56217 0.208337 0
M  V30 3783 C 333.503 -2.22694 -0.702116 0
M  V30 3784 C 334.484 -1.19432 -1.2112 0
M  V30 3785 O 335.669 -1.47978 -1.25762 0
M  V30 3786 C 332.799 -2.8966 -1.9161 0
M  V30 3787 C 331.753 -3.9928 -1.5414 0
M  V30 3788 C 331.079 -4.53476 -2.83308 0
M  V30 3789 C 332.379 -5.17012 -0.741339 0
M  V30 3790 H 334.073 -2.99034 -0.147898 0
M  V30 3791 H 331.619 -1.43831 -0.0696951 0
M  V30 3792 H 333.572 -3.34852 -2.55836 0
M  V30 3793 H 332.296 -2.10746 -2.49507 0
M  V30 3794 H 330.955 -3.54799 -0.922668 0
M  V30 3795 H 330.603 -3.71308 -3.39322 0
M  V30 3796 H 330.303 -5.27451 -2.58976 0
M  V30 3797 H 331.827 -5.01378 -3.485 0
M  V30 3798 H 333.241 -5.58667 -1.28699 0
M  V30 3799 H 331.638 -5.97137 -0.595627 0
M  V30 3800 H 332.708 -4.8423 0.254851 0
M  V30 3801 N 334.051 0.0651679 -1.57465 0
M  V30 3802 C 334.983 1.10359 -2.00882 0
M  V30 3803 C 335.996 1.346 -0.915788 0
M  V30 3804 O 337.185 1.32723 -1.1936 0
M  V30 3805 C 334.285 2.45312 -2.33828 0
M  V30 3806 C 333.458 2.40934 -3.65061 0
M  V30 3807 C 332.517 3.58047 -3.85602 0
M  V30 3808 O 331.543 3.39175 -4.57109 0
M  V30 3809 N 332.745 4.78637 -3.28462 0
M  V30 3810 H 335.51 0.733807 -2.90578 0
M  V30 3811 H 333.071 0.253719 -1.599 0
M  V30 3812 H 335.063 3.22314 -2.44737 0
M  V30 3813 H 333.633 2.74267 -1.49988 0
M  V30 3814 H 332.853 1.49273 -3.64844 0
M  V30 3815 H 334.141 2.35117 -4.51218 0
M  V30 3816 H 333.539 4.96872 -2.70433 0
M  V30 3817 H 332.096 5.53127 -3.44809 0
M  V30 3818 N 335.529 1.53961 0.336706 0
M  V30 3819 C 336.777 1.71197 1.07405 0
M  V30 3820 C 337.098 0.481475 1.88962 0
M  V30 3821 O 336.368 -0.504585 1.8929 0
M  V30 3822 H 334.948 0.631185 0.399517 0
M  V30 3823 H 337.61 1.91232 0.376323 0
M  V30 3824 H 336.706 2.58587 1.74755 0
M  V30 3825 N 337.007 -0.598083 1.45811 0
M  V30 3826 C 338.235 -1.38322 1.53866 0
M  V30 3827 C 338.65 -1.87992 0.174479 0
M  V30 3828 O 338.007 -1.62756 -0.825627 0
M  V30 3829 C 338.058 -2.58125 2.53089 0
M  V30 3830 O 337.779 -2.10516 3.84206 0
M  V30 3831 C 339.28 -3.50869 2.70935 0
M  V30 3832 H 336.5 -0.423093 0.520801 0
M  V30 3833 H 339.044 -0.728527 1.91083 0
M  V30 3834 H 337.199 -3.19615 2.18917 0
M  V30 3835 H 337.613 -2.88425 4.38077 0
M  V30 3836 H 339.087 -4.31451 3.44317 0
M  V30 3837 H 339.564 -4.01822 1.77301 0
M  V30 3838 H 340.17 -2.95225 3.06141 0
M  V30 3839 N 338.485 -1.33259 -0.841409 0
M  V30 3840 C 339.713 -1.27605 -1.62864 0
M  V30 3841 C 340.128 0.153507 -1.88175 0
M  V30 3842 O 339.485 1.09485 -1.46011 0
M  V30 3843 C 339.536 -2.04596 -2.98031 0
M  V30 3844 O 339.257 -3.41975 -2.73834 0
M  V30 3845 C 340.758 -2.06122 -3.92465 0
M  V30 3846 H 337.978 -0.439718 -0.506842 0
M  V30 3847 H 340.522 -1.75591 -1.04824 0
M  V30 3848 H 338.677 -1.60299 -3.5268 0
M  V30 3849 H 339.091 -3.81549 -3.59889 0
M  V30 3850 H 340.565 -2.64451 -4.84531 0
M  V30 3851 H 341.042 -1.05083 -4.26444 0
M  V30 3852 H 341.648 -2.50427 -3.43753 0
M  V30 3853 N 339.963 1.05934 -1.16686 0
M  V30 3854 C 341.211 1.78447 -0.948744 0
M  V30 3855 C 341.532 1.87813 0.524523 0
M  V30 3856 O 340.802 1.38945 1.38098 0
M  V30 3857 H 339.382 0.660971 -0.348033 0
M  V30 3858 H 342.044 1.27947 -1.47022 0
M  V30 3859 H 341.14 2.80394 -1.37061 0
M  V30 3860 N 341.441 0.965919 1.2453 0
M  V30 3861 C 342.688 0.626831 1.92554 0
M  V30 3862 C 343.016 -0.837739 1.75534 0
M  V30 3863 O 342.271 -1.61793 1.10098 0
M  V30 3864 C 342.57 0.945428 3.44669 0
M  V30 3865 C 342.236 2.39785 3.81856 0
M  V30 3866 C 340.898 2.79483 3.91718 0
M  V30 3867 C 343.25 3.34055 4.00071 0
M  V30 3868 C 340.578 4.12496 4.1721 0
M  V30 3869 C 342.93 4.66694 4.27059 0
M  V30 3870 C 341.594 5.06172 4.3514 0
M  V30 3871 H 340.864 0.229374 0.704605 0
M  V30 3872 H 343.511 1.21707 1.4785 0
M  V30 3873 H 341.816 0.272926 3.90848 0
M  V30 3874 H 343.513 0.661484 3.95507 0
M  V30 3875 H 340.103 2.08003 3.74743 0
M  V30 3876 H 344.287 3.04571 3.91855 0
M  V30 3877 H 339.543 4.42709 4.21685 0
M  V30 3878 H 343.717 5.3971 4.40097 0
M  V30 3879 H 341.344 6.09262 4.54646 0
M  V30 3880 N 342.919 -1.39368 0.735821 0
M  V30 3881 C 343.829 -2.34395 0.0979693 0
M  V30 3882 C 344.845 -1.58361 -0.720968 0
M  V30 3883 O 346.021 -1.90648 -0.649245 0
M  V30 3884 C 343.086 -3.37393 -0.797916 0
M  V30 3885 C 342.147 -4.29287 0.0333662 0
M  V30 3886 C 341.38 -5.27365 -0.819854 0
M  V30 3887 O 341.603 -5.31959 -2.05855 0
M  V30 3888 O 340.537 -6.01389 -0.248079 0
M  V30 3889 H 344.363 -2.90601 0.882315 0
M  V30 3890 H 341.948 -1.40909 0.4965 0
M  V30 3891 H 343.83 -4.00505 -1.31048 0
M  V30 3892 H 342.505 -2.83571 -1.56106 0
M  V30 3893 H 341.412 -3.69395 0.591475 0
M  V30 3894 H 342.745 -4.86317 0.758752 0
M  V30 3895 N 344.397 -0.483516 -1.5 0
M  V30 3896 C 345.307 0.309172 -2.32554 0
M  V30 3897 C 346.323 0.984159 -1.43493 0
M  V30 3898 O 347.499 0.969399 -1.76535 0
M  V30 3899 C 344.564 1.36979 -3.18493 0
M  V30 3900 C 343.625 0.710095 -4.23387 0
M  V30 3901 C 342.858 1.72018 -5.05218 0
M  V30 3902 O 343.081 2.94813 -4.88305 0
M  V30 3903 O 342.015 1.28515 -5.8802 0
M  V30 3904 H 345.841 -0.366064 -3.01486 0
M  V30 3905 H 343.426 -0.24514 -1.47375 0
M  V30 3906 H 345.308 1.98385 -3.71781 0
M  V30 3907 H 343.983 2.02828 -2.52275 0
M  V30 3908 H 342.89 0.0567539 -3.74057 0
M  V30 3909 H 344.223 0.0943557 -4.9211 0
M  V30 3910 N 345.875 1.56104 -0.216619 0
M  V30 3911 C 347.121 1.98466 0.417033 0
M  V30 3912 C 347.454 1.10403 1.59765 0
M  V30 3913 O 346.729 0.160632 1.93836 0
M  V30 3914 C 347.012 3.49769 0.85637 0
M  V30 3915 C 346.865 4.48606 -0.327546 0
M  V30 3916 C 348.184 4.05339 1.7143 0
M  V30 3917 H 345.303 0.721551 0.150112 0
M  V30 3918 H 347.945 1.87423 -0.311864 0
M  V30 3919 H 346.095 3.5931 1.47745 0
M  V30 3920 H 347.767 4.5108 -0.965618 0
M  V30 3921 H 346.01 4.22682 -0.975805 0
M  V30 3922 H 346.681 5.51995 0.0227149 0
M  V30 3923 H 349.157 3.98712 1.19031 0
M  V30 3924 H 348.033 5.11533 1.99061 0
M  V30 3925 H 348.294 3.51918 2.67593 0
M  V30 3926 N 347.353 -0.0568162 1.57498 0
M  V30 3927 C 348.263 -1.08346 2.08083 0
M  V30 3928 C 349.279 -1.41439 1.01346 0
M  V30 3929 O 350.455 -1.51316 1.32912 0
M  V30 3930 C 347.52 -2.37352 2.52715 0
M  V30 3931 C 346.581 -2.11093 3.73816 0
M  V30 3932 C 345.814 -3.33949 4.1631 0
M  V30 3933 O 346.037 -4.43622 3.58547 0
M  V30 3934 O 344.971 -3.21279 5.08983 0
M  V30 3935 H 348.797 -0.683667 2.95905 0
M  V30 3936 H 346.382 -0.271965 1.46904 0
M  V30 3937 H 348.264 -3.13246 2.81877 0
M  V30 3938 H 346.939 -2.76681 1.68016 0
M  V30 3939 H 345.846 -1.32856 3.49714 0
M  V30 3940 H 347.179 -1.76637 4.59413 0
M  V30 3941 N 348.832 -1.54138 -0.328536 0
M  V30 3942 C 350.081 -1.71318 -1.06456 0
M  V30 3943 C 350.394 -0.491109 -1.89334 0
M  V30 3944 O 351.6 -0.54416 -2.65991 0
M  V30 3945 C 350.056 -3.03 -1.94214 0
M  V30 3946 C 349.664 -4.32595 -1.16471 0
M  V30 3947 C 351.408 -3.29544 -2.67583 0
M  V30 3948 C 349.315 -5.55341 -2.03347 0
M  V30 3949 H 348.245 -0.638429 -0.401155 0
M  V30 3950 H 350.896 -1.80633 -0.323106 0
M  V30 3951 H 349.278 -2.87579 -2.72239 0
M  V30 3952 H 350.452 -4.58766 -0.432525 0
M  V30 3953 H 348.767 -4.12777 -0.548063 0
M  V30 3954 H 351.364 -4.18444 -3.3288 0
M  V30 3955 H 351.707 -2.47206 -3.34955 0
M  V30 3956 H 352.24 -3.45809 -1.96623 0
M  V30 3957 H 348.979 -6.40268 -1.40491 0
M  V30 3958 H 348.499 -5.33397 -2.74313 0
M  V30 3959 H 350.178 -5.91557 -2.62049 0
M  V30 3960 N 350.31 0.590341 -1.46126 0
M  V30 3961 C 351.258 1.72105 -1.5647 0
M  V30 3962 C 352.252 1.63756 -0.433612 0
M  V30 3963 O 353.458 1.69342 -0.610194 0
M  V30 3964 H 349.833 0.568889 -0.491802 0
M  V30 3965 H 351.804 1.6051 -2.51553 0
M  V30 3966 C 350.553 3.10493 -1.56491 0
M  V30 3967 H 349.876 3.17583 -2.4286 0
M  V30 3968 H 351.316 3.8939 -1.67785 0
M  V30 3969 C 349.775 3.3563 -0.292231 0
M  V30 3970 O 350.305 3.96875 0.620739 0
M  V30 3971 N 348.511 2.90026 -0.182523 0
M  V30 3972 H 348.058 2.40367 -0.926356 0
M  V30 3973 H 348.016 3.07218 0.668152 0
M  V30 3974 N 351.788 1.33704 0.83433 0
M  V30 3975 C 352.736 1.24323 1.96587 0
M  V30 3976 C 353.73 0.143659 1.6879 0
M  V30 3977 O 354.936 0.30791 1.77347 0
M  V30 3978 H 351.311 0.385925 0.645419 0
M  V30 3979 H 353.282 2.19978 2.01624 0
M  V30 3980 C 352.031 1.00394 3.32891 0
M  V30 3981 H 351.354 1.84231 3.54822 0
M  V30 3982 H 352.794 0.97862 4.12552 0
M  V30 3983 C 351.253 -0.293047 3.35623 0
M  V30 3984 O 351.783 -1.29823 3.80143 0
M  V30 3985 N 349.989 -0.322174 2.88809 0
M  V30 3986 H 349.536 0.496379 2.52772 0
M  V30 3987 H 349.494 -1.18977 2.91019 0
M  V30 3988 N 353.266 -1.05314 1.17247 0
M  V30 3989 C 354.682 -1.30452 0.919473 0
M  V30 3990 C 354.882 -1.9703 -0.42209 0
M  V30 3991 O 353.938 -2.24311 -1.15935 0
M  V30 3992 C 355.251 -2.17551 2.07586 0
M  V30 3993 C 356.799 -2.30937 2.11275 0
M  V30 3994 C 357.274 -3.21396 3.26296 0
M  V30 3995 N 358.765 -3.28981 3.26076 0
M  V30 3996 C 359.5 -3.99095 4.11716 0
M  V30 3997 N 358.996 -4.71648 5.07465 0
M  V30 3998 N 360.789 -3.95247 3.9967 0
M  V30 3999 H 352.94 -0.604988 2.03602 0
M  V30 4000 H 355.203 -0.329368 0.888944 0
M  V30 4001 H 354.909 -1.75921 3.0454 0
M  V30 4002 H 354.783 -3.18182 2.02584 0
M  V30 4003 H 357.17 -2.71809 1.14907 0
M  V30 4004 H 357.251 -1.2994 2.20339 0
M  V30 4005 H 356.895 -2.81238 4.22927 0
M  V30 4006 H 356.825 -4.22395 3.14467 0
M  V30 4007 H 359.316 -2.77286 2.5675 0
M  V30 4008 H 359.629 -5.22705 5.6921 0
M  V30 4009 H 357.974 -4.70594 5.11435 0
M  V30 4010 H 361.165 -3.37691 3.24164 0
M  V30 4011 H 361.338 -4.4962 4.66632 0
M  V30 4012 N 354.744 -0.972509 -1.24016 0
M  V30 4013 C 355.992 -0.635776 -1.91839 0
M  V30 4014 C 356.313 0.832312 -1.76345 0
M  V30 4015 O 355.583 1.5946 -1.13795 0
M  V30 4016 H 354.163 -0.232157 -0.710009 0
M  V30 4017 H 356.825 -1.23462 -1.50809 0
M  V30 4018 H 355.921 -0.880545 -2.99421 0
M  V30 4019 N 356.222 1.38976 -0.743202 0
M  V30 4020 C 357.169 2.30544 -0.10861 0
M  V30 4021 C 358.139 1.49642 0.720869 0
M  V30 4022 O 359.324 1.78304 0.679142 0
M  V30 4023 C 356.464 3.36018 0.786496 0
M  V30 4024 C 355.577 4.31963 -0.0564849 0
M  V30 4025 C 354.712 5.24506 0.840657 0
M  V30 4026 C 353.751 6.121 -0.00658363 0
M  V30 4027 N 352.888 6.96973 0.846943 0
M  V30 4028 H 357.728 2.8424 -0.895088 0
M  V30 4029 H 355.265 1.3995 -0.453048 0
M  V30 4030 H 357.223 3.95768 1.31999 0
M  V30 4031 H 355.853 2.83758 1.53887 0
M  V30 4032 H 354.905 3.73763 -0.707492 0
M  V30 4033 H 356.217 4.93703 -0.711229 0
M  V30 4034 H 355.371 5.89322 1.4417 0
M  V30 4035 H 354.11 4.63107 1.52916 0
M  V30 4036 H 353.115 5.46289 -0.620366 0
M  V30 4037 H 354.34 6.75565 -0.691992 0
M  V30 4038 H 352.286 6.38133 1.52059 0
M  V30 4039 H 352.203 7.5559 0.248864 0
M  V30 4040 H 353.471 7.6621 1.43328 0
M  V30 4041 N 357.7 0.491464 1.49741 0
M  V30 4042 C 358.946 -0.0565092 2.02721 0
M  V30 4043 C 359.279 -1.37522 1.37118 0
M  V30 4044 O 358.554 -1.87866 0.503645 0
M  V30 4045 C 358.837 -0.219051 3.59433 0
M  V30 4046 C 358.69 1.12211 4.35579 0
M  V30 4047 C 360.009 -0.964157 4.29409 0
M  V30 4048 H 357.128 -0.0190627 0.736753 0
M  V30 4049 H 359.77 0.641021 1.7886 0
M  V30 4050 H 357.92 -0.813165 3.79895 0
M  V30 4051 H 359.592 1.75437 4.26637 0
M  V30 4052 H 357.835 1.71377 3.98513 0
M  V30 4053 H 358.506 0.961794 5.43556 0
M  V30 4054 H 360.982 -0.460378 4.13545 0
M  V30 4055 H 359.858 -1.04671 5.38828 0
M  V30 4056 H 360.119 -2.00563 3.93988 0
M  V30 4057 N 359.178 -1.55987 0.224894 0
M  V30 4058 C 360.427 -1.97566 -0.406273 0
M  V30 4059 C 360.74 -1.11569 -1.6066 0
M  V30 4060 O 361.946 -1.43062 -2.3075 0
M  V30 4061 C 360.402 -3.51474 -0.774207 0
M  V30 4062 C 360.01 -4.46179 0.403496 0
M  V30 4063 C 361.754 -4.01758 -1.37079 0
M  V30 4064 C 359.661 -5.91399 0.0129412 0
M  V30 4065 H 358.591 -0.737777 -0.155565 0
M  V30 4066 H 361.242 -1.80659 0.321635 0
M  V30 4067 H 359.624 -3.63994 -1.55963 0
M  V30 4068 H 360.798 -4.45409 1.18101 0
M  V30 4069 H 359.113 -4.06255 0.913536 0
M  V30 4070 H 361.71 -5.07756 -1.67596 0
M  V30 4071 H 362.053 -3.47805 -2.28773 0
M  V30 4072 H 362.586 -3.92475 -0.648733 0
M  V30 4073 H 359.325 -6.49341 0.896451 0
M  V30 4074 H 358.845 -5.95356 -0.728821 0
M  V30 4075 H 360.524 -6.45683 -0.412582 0
M  V30 4076 N 360.656 0.0484629 -1.57525 0
M  V30 4077 C 362.072 0.40375 -1.54409 0
M  V30 4078 C 362.272 1.77786 -0.948384 0
M  V30 4079 O 361.328 2.46189 -0.560983 0
M  V30 4080 C 362.641 0.323394 -2.98956 0
M  V30 4081 C 364.189 0.401892 -3.10409 0
M  V30 4082 C 364.664 0.351195 -4.56652 0
M  V30 4083 N 366.155 0.410576 -4.61377 0
M  V30 4084 C 366.89 0.393933 -5.72045 0
M  V30 4085 N 366.386 0.330724 -6.9201 0
M  V30 4086 N 368.179 0.442227 -5.60358 0
M  V30 4087 H 360.33 -0.851016 -1.94606 0
M  V30 4088 H 362.593 -0.321721 -0.89174 0
M  V30 4089 H 362.299 -0.62011 -3.4619 0
M  V30 4090 H 362.173 1.12463 -3.60044 0
M  V30 4091 H 364.56 1.33582 -2.63134 0
M  V30 4092 H 364.641 -0.428342 -2.52188 0
M  V30 4093 H 364.285 -0.578987 -5.04589 0
M  V30 4094 H 364.215 1.19928 -5.12762 0
M  V30 4095 H 366.706 0.462729 -3.75056 0
M  V30 4096 H 367.019 0.322592 -7.72126 0
M  V30 4097 H 365.364 0.29706 -6.94365 0
M  V30 4098 H 368.555 0.489464 -4.65534 0
M  V30 4099 H 368.728 0.425788 -6.466 0
M  V30 4100 N 362.134 1.5431 0.320358 0
M  V30 4101 C 363.362 1.76636 1.07738 0
M  V30 4102 C 363.777 0.51649 1.81598 0
M  V30 4103 O 363.134 -0.512942 1.75143 0
M  V30 4104 C 363.185 2.96158 2.07299 0
M  V30 4105 O 362.906 4.16313 1.36438 0
M  V30 4106 C 364.407 3.3072 2.95193 0
M  V30 4107 H 361.627 0.589597 0.320339 0
M  V30 4108 H 364.171 2.01207 0.36551 0
M  V30 4109 H 362.326 2.73851 2.74016 0
M  V30 4110 H 362.74 4.83565 2.03138 0
M  V30 4111 H 364.214 4.17643 3.60941 0
M  V30 4112 H 364.691 2.48026 3.62463 0
M  V30 4113 H 365.297 3.55117 2.34034 0
M  V30 4114 N 363.613 -0.582584 1.46437 0
M  V30 4115 C 364.543 -1.70187 1.59871 0
M  V30 4116 C 365.524 -1.64066 0.449042 0
M  V30 4117 O 366.709 -1.82081 0.6753 0
M  V30 4118 C 363.839 -3.08827 1.58881 0
M  V30 4119 C 362.793 -3.29779 2.72819 0
M  V30 4120 C 362.119 -4.68947 2.5689 0
M  V30 4121 C 363.419 -3.17601 4.1464 0
M  V30 4122 H 365.113 -1.592 2.53566 0
M  V30 4123 H 362.659 -0.764472 1.22032 0
M  V30 4124 H 364.612 -3.86951 1.66873 0
M  V30 4125 H 363.336 -3.20713 0.617306 0
M  V30 4126 H 361.995 -2.54054 2.64296 0
M  V30 4127 H 361.643 -4.77599 1.57823 0
M  V30 4128 H 361.343 -4.83919 3.33312 0
M  V30 4129 H 362.867 -5.4924 2.66773 0
M  V30 4130 H 364.281 -3.8557 4.24274 0
M  V30 4131 H 362.678 -3.44094 4.9165 0
M  V30 4132 H 363.748 -2.14681 4.34788 0
M  V30 4133 N 365.091 -1.34144 -0.827227 0
M  V30 4134 C 366.507 -1.13732 -1.11969 0
M  V30 4135 C 366.707 0.0640463 -2.01398 0
M  V30 4136 O 365.763 0.740856 -2.41387 0
M  V30 4137 C 367.076 -2.43047 -1.77055 0
M  V30 4138 C 368.624 -2.49063 -1.89569 0
M  V30 4139 C 369.099 -3.78369 -2.58072 0
M  V30 4140 N 370.59 -3.79505 -2.65575 0
M  V30 4141 C 371.325 -4.76274 -3.19297 0
M  V30 4142 N 370.821 -5.83424 -3.73616 0
M  V30 4143 N 372.614 -4.63735 -3.17658 0
M  V30 4144 H 364.765 -2.11126 -0.232296 0
M  V30 4145 H 367.028 -0.933424 -0.165602 0
M  V30 4146 H 366.734 -3.31025 -1.18807 0
M  V30 4147 H 366.608 -2.56066 -2.76966 0
M  V30 4148 H 368.995 -1.61527 -2.46968 0
M  V30 4149 H 369.076 -2.39975 -0.885745 0
M  V30 4150 H 368.72 -4.66293 -2.01329 0
M  V30 4151 H 368.65 -3.84737 -3.59562 0
M  V30 4152 H 371.141 -3.02074 -2.27068 0
M  V30 4153 H 371.454 -6.53282 -4.12846 0
M  V30 4154 H 369.799 -5.87143 -3.71871 0
M  V30 4155 H 372.99 -3.79177 -2.74486 0
M  V30 4156 H 373.163 -5.39318 -3.59221 0
M  V30 4157 N 366.569 1.04691 -1.17803 0
M  V30 4158 C 367.794 1.81984 -0.994813 0
M  V30 4159 C 368.219 1.82586 0.452112 0
M  V30 4160 O 367.577 1.23854 1.324 0
M  V30 4161 C 367.625 3.2575 -1.54659 0
M  V30 4162 O 366.729 4.05267 -0.763728 0
M  V30 4163 H 366.07 0.562483 -0.352857 0
M  V30 4164 H 368.6 1.3189 -1.56417 0
M  V30 4165 H 368.61 3.76541 -1.57102 0
M  V30 4166 H 367.285 3.24627 -2.59981 0
M  V30 4167 H 365.862 3.63972 -0.811108 0
M  V30 4168 N 368.047 0.979072 1.23499 0
M  V30 4169 C 369.463 0.687475 1.44034 0
M  V30 4170 C 369.663 -0.746801 1.8715 0
M  V30 4171 O 368.719 -1.51939 2.0167 0
M  V30 4172 C 370.032 1.68127 2.49307 0
M  V30 4173 C 371.58 1.69516 2.63122 0
M  V30 4174 C 372.055 2.67723 3.71603 0
M  V30 4175 N 373.546 2.66233 3.79044 0
M  V30 4176 C 374.281 3.38891 4.62537 0
M  V30 4177 N 373.777 4.21103 5.50131 0
M  V30 4178 N 375.57 3.27661 4.56721 0
M  V30 4179 H 367.721 1.90559 0.938135 0
M  V30 4180 H 369.984 0.821051 0.473897 0
M  V30 4181 H 369.69 2.70693 2.2454 0
M  V30 4182 H 369.564 1.46306 3.4767 0
M  V30 4183 H 371.951 0.676561 2.8724 0
M  V30 4184 H 372.032 1.95404 1.65079 0
M  V30 4185 H 371.676 3.69724 3.48233 0
M  V30 4186 H 371.606 2.39111 4.69184 0
M  V30 4187 H 374.097 2.06568 3.16446 0
M  V30 4188 H 374.41 4.73403 6.10827 0
M  V30 4189 H 372.755 4.25195 5.49759 0
M  V30 4190 H 375.946 2.62887 3.87309 0
M  V30 4191 H 376.119 3.84547 5.21562 0
M  V30 4192 N 369.525 -1.3858 0.750561 0
M  V30 4193 C 370.936 -1.82927 0.373438 0
M  V30 4194 C 371.287 -1.62634 -1.09748 0
M  V30 4195 O 370.412 -1.12588 -1.84805 0
M  V30 4196 C 371.007 -3.32088 0.671029 0
M  V30 4197 C 369.566 -3.74795 0.34722 0
M  V30 4198 C 368.713 -2.61391 0.92575 0
M  V30 4199 H 371.664 -1.27351 0.946958 0
M  V30 4200 H 371.685 -3.80465 -0.0518269 0
M  V30 4201 H 371.197 -3.46826 1.74164 0
M  V30 4202 H 369.298 -3.65638 -0.716933 0
M  V30 4203 H 369.411 -4.71667 0.840656 0
M  V30 4204 H 367.775 -2.52265 0.351327 0
M  V30 4205 H 368.558 -2.78929 2.00133 0
M  V30 4206 N 371.003 -0.499398 -1.49478 0
M  V30 4207 C 371.966 0.268838 -2.27618 0
M  V30 4208 C 372.966 0.895383 -1.33565 0
M  V30 4209 O 374.156 0.760164 -1.56739 0
M  V30 4210 C 371.288 1.38559 -3.11471 0
M  V30 4211 H 372.481 -0.416812 -2.96989 0
M  V30 4212 H 370.034 -0.254313 -1.54217 0
M  V30 4213 H 370.769 2.10544 -2.46661 0
M  V30 4214 H 370.554 0.941797 -3.80621 0
M  V30 4215 H 372.044 1.92678 -3.70493 0
M  V30 4216 N 372.481 1.55866 -0.233164 0
M  V30 4217 C 373.727 1.98897 0.395959 0
M  V30 4218 C 374.06 1.12091 1.58585 0
M  V30 4219 O 373.335 0.181182 1.93654 0
M  V30 4220 C 373.618 3.50658 0.819224 0
M  V30 4221 C 373.471 4.48233 -0.375109 0
M  V30 4222 C 374.79 4.07135 1.67121 0
M  V30 4223 H 371.909 0.723102 0.142451 0
M  V30 4224 H 374.551 1.87082 -0.331725 0
M  V30 4225 H 372.701 3.60857 1.43925 0
M  V30 4226 H 374.373 4.50031 -1.01341 0
M  V30 4227 H 372.616 4.21624 -1.02058 0
M  V30 4228 H 373.287 5.51988 -0.0358328 0
M  V30 4229 H 375.763 3.99952 1.14795 0
M  V30 4230 H 374.639 5.13615 1.93625 0
M  V30 4231 H 374.9 3.54736 2.63846 0
M  V30 4232 N 373.959 -0.0401083 1.57549 0
M  V30 4233 C 374.922 -1.02871 2.04817 0
M  V30 4234 C 375.922 -1.29708 0.950388 0
M  V30 4235 O 377.112 -1.24897 1.21435 0
M  V30 4236 C 374.244 -2.36443 2.45576 0
M  V30 4237 H 375.437 -0.620631 2.93408 0
M  V30 4238 H 372.99 -0.286667 1.53649 0
M  V30 4239 H 373.725 -2.82021 1.60108 0
M  V30 4240 H 373.51 -2.18296 3.25713 0
M  V30 4241 H 375 -3.07441 2.82612 0
M  V30 4242 N 375.437 -1.54477 -0.31217 0
M  V30 4243 C 376.685 -1.72884 -1.04668 0
M  V30 4244 C 377.006 -0.511477 -1.88173 0
M  V30 4245 O 376.276 0.474407 -1.90069 0
M  V30 4246 H 374.856 -0.637461 -0.389425 0
M  V30 4247 H 377.518 -1.91807 -0.345852 0
M  V30 4248 H 376.614 -2.61334 -1.70619 0
M  V30 4249 N 376.915 0.57481 -1.46744 0
M  V30 4250 C 377.862 1.68329 -1.57905 0
M  V30 4251 C 378.832 1.60625 -0.422927 0
M  V30 4252 O 380.017 1.79721 -0.640711 0
M  V30 4253 C 377.157 3.06665 -1.58274 0
M  V30 4254 C 376.27 3.24935 -2.84678 0
M  V30 4255 C 375.405 4.53566 -2.76499 0
M  V30 4256 C 374.444 4.65207 -3.97806 0
M  V30 4257 N 373.581 5.85172 -3.87967 0
M  V30 4258 H 378.421 1.58127 -2.52587 0
M  V30 4259 H 375.958 0.770552 -1.25303 0
M  V30 4260 H 377.916 3.86745 -1.56473 0
M  V30 4261 H 376.546 3.15745 -0.671194 0
M  V30 4262 H 375.598 2.38405 -2.96424 0
M  V30 4263 H 376.91 3.29403 -3.7456 0
M  V30 4264 H 376.064 5.41885 -2.72848 0
M  V30 4265 H 374.803 4.51548 -1.8427 0
M  V30 4266 H 373.808 3.75304 -4.0178 0
M  V30 4267 H 375.033 4.68997 -4.9114 0
M  V30 4268 H 372.979 5.84137 -2.98529 0
M  V30 4269 H 372.896 5.90943 -4.71511 0
M  V30 4270 H 374.164 6.759 -3.88303 0
M  V30 4271 N 378.394 1.34581 0.820102 0
M  V30 4272 C 379.619 1.30333 1.61332 0
M  V30 4273 C 380.044 -0.119339 1.87721 0
M  V30 4274 O 379.402 -1.08197 1.45475 0
M  V30 4275 C 379.45 2.10258 2.92957 0
M  V30 4276 O 378.554 1.47404 3.85157 0
M  V30 4277 H 377.895 0.447488 0.490561 0
M  V30 4278 H 380.425 1.77425 1.01889 0
M  V30 4279 H 380.435 2.21718 3.42498 0
M  V30 4280 H 379.11 3.13693 2.73074 0
M  V30 4281 H 377.687 1.44703 3.43679 0
M  V30 4282 N 379.872 -1.04064 1.18357 0
M  V30 4283 C 381.121 -1.76662 0.973313 0
M  V30 4284 C 381.434 -1.89154 -0.497991 0
M  V30 4285 O 382.64 -2.58606 -0.826762 0
M  V30 4286 C 381.096 -3.17624 1.69242 0
M  V30 4287 C 380.704 -3.13225 3.20303 0
M  V30 4288 C 382.448 -3.946 1.56497 0
M  V30 4289 C 380.355 -4.49046 3.84853 0
M  V30 4290 H 379.285 -0.662214 0.36054 0
M  V30 4291 H 381.936 -1.16553 1.41731 0
M  V30 4292 H 380.318 -3.78129 1.1762 0
M  V30 4293 H 381.492 -2.62172 3.78949 0
M  V30 4294 H 379.807 -2.49749 3.33189 0
M  V30 4295 H 382.404 -4.95042 2.02084 0
M  V30 4296 H 382.747 -4.13074 0.517243 0
M  V30 4297 H 383.28 -3.4067 2.05399 0
M  V30 4298 H 380.019 -4.35777 4.89672 0
M  V30 4299 H 379.539 -5.00203 3.30994 0
M  V30 4300 H 381.218 -5.17961 3.87718 0
M  V30 4301 N 381.35 -0.985608 -1.22978 0
M  V30 4302 C 382.3 -0.50118 -2.22423 0
M  V30 4303 C 383.284 0.426649 -1.5514 0
M  V30 4304 O 384.476 0.254656 -1.75159 0
M  V30 4305 C 381.605 0.190003 -3.42774 0
M  V30 4306 C 380.691 -0.757703 -4.17276 0
M  V30 4307 N 381.082 -1.90251 -4.68656 0
M  V30 4308 C 379.38 -0.57209 -4.42316 0
M  V30 4309 C 380.081 -2.49676 -5.25392 0
M  V30 4310 N 379.057 -1.78013 -5.13627 0
M  V30 4311 H 382.859 -1.37441 -2.59783 0
M  V30 4312 H 380.373 -0.846941 -1.38567 0
M  V30 4313 H 382.37 0.55439 -4.13197 0
M  V30 4314 H 381.03 1.05946 -3.06929 0
M  V30 4315 H 382.041 -2.28354 -4.64839 0
M  V30 4316 H 378.718 0.251909 -4.16739 0
M  V30 4317 H 380.108 -3.46384 -5.75732 0
M  V30 4318 N 382.828 1.3818 -0.7579 0
M  V30 4319 C 383.758 2.33027 -0.148597 0
M  V30 4320 C 384.739 1.55085 0.69875 0
M  V30 4321 O 385.924 1.83384 0.639053 0
M  V30 4322 C 383.054 3.3928 0.742034 0
M  V30 4323 C 382.008 4.28 -0.00291946 0
M  V30 4324 C 381.334 5.25146 1.00625 0
M  V30 4325 C 382.634 5.08938 -1.17385 0
M  V30 4326 H 384.328 2.84231 -0.940909 0
M  V30 4327 H 381.874 1.36659 -0.453908 0
M  V30 4328 H 383.827 4.046 1.17799 0
M  V30 4329 H 382.551 2.86569 1.56671 0
M  V30 4330 H 381.21 3.64192 -0.419504 0
M  V30 4331 H 380.858 4.68721 1.8251 0
M  V30 4332 H 380.558 5.85361 0.512428 0
M  V30 4333 H 382.082 5.93342 1.44143 0
M  V30 4334 H 383.496 5.67474 -0.815224 0
M  V30 4335 H 381.893 5.7841 -1.59882 0
M  V30 4336 H 382.963 4.42424 -1.98468 0
M  V30 4337 N 384.306 0.507319 1.49211 0
M  V30 4338 C 385.534 -0.0315749 2.06876 0
M  V30 4339 C 385.949 -1.30241 1.36685 0
M  V30 4340 O 385.306 -1.76937 0.447152 0
M  V30 4341 C 385.357 -0.282627 3.60393 0
M  V30 4342 O 385.078 0.937835 4.27944 0
M  V30 4343 C 386.579 -0.864453 4.3479 0
M  V30 4344 H 383.799 0.0233048 0.670595 0
M  V30 4345 H 386.343 0.706484 1.91909 0
M  V30 4346 H 384.498 -0.97068 3.75042 0
M  V30 4347 H 384.912 0.704567 5.19746 0
M  V30 4348 H 386.386 -0.989664 5.43056 0
M  V30 4349 H 386.863 -1.86382 3.97692 0
M  V30 4350 H 387.469 -0.213672 4.24763 0
M  V30 4351 N 385.784 -1.5574 0.241426 0
M  V30 4352 C 387.033 -1.97986 -0.385295 0
M  V30 4353 C 387.346 -1.13267 -1.59468 0
M  V30 4354 O 388.552 -1.45501 -2.2922 0
M  V30 4355 C 387.008 -3.52275 -0.736884 0
M  V30 4356 C 386.616 -4.45726 0.450796 0
M  V30 4357 C 388.36 -4.03189 -1.3281 0
M  V30 4358 C 386.267 -5.91352 0.0756662 0
M  V30 4359 H 385.197 -0.739386 -0.147731 0
M  V30 4360 H 387.848 -1.80308 0.340779 0
M  V30 4361 H 386.23 -3.65628 -1.52094 0
M  V30 4362 H 387.404 -4.44131 1.22819 0
M  V30 4363 H 385.719 -4.05264 0.956573 0
M  V30 4364 H 388.316 -5.09505 -1.62201 0
M  V30 4365 H 388.659 -3.50212 -2.25071 0
M  V30 4366 H 389.192 -3.93141 -0.607069 0
M  V30 4367 H 385.931 -6.48354 0.965272 0
M  V30 4368 H 385.451 -5.96095 -0.665635 0
M  V30 4369 H 387.13 -6.46084 -0.344075 0
M  V30 4370 N 387.262 0.0317525 -1.57568 0
M  V30 4371 C 388.539 0.758366 -1.803 0
M  V30 4372 C 388.919 1.93718 -0.838845 0
M  V30 4373 O 388.267 2.28187 0.119571 0
M  V30 4374 C 388.477 1.19392 -3.27943 0
M  V30 4375 C 389.825 1.61094 -3.92854 0
M  V30 4376 O 390.849 1.28857 -3.32076 0
M  V30 4377 O 389.708 2.20918 -4.99858 0
M  V30 4378 H 386.802 0.366514 -0.741348 0
M  V30 4379 H 389.348 0.00873765 -1.69698 0
M  V30 4380 H 388.12 0.352275 -3.89711 0
M  V30 4381 H 387.743 2.00365 -3.43424 0
M  V30 4382 N 388.74 1.54641 0.303973 0
M  V30 4383 C 389.67 1.88386 1.3796 0
M  V30 4384 C 390.651 0.742485 1.5304 0
M  V30 4385 O 391.836 0.997959 1.66597 0
M  V30 4386 C 388.966 2.12854 2.74427 0
M  V30 4387 C 387.92 3.28702 2.74115 0
M  V30 4388 C 387.246 3.38582 4.13844 0
M  V30 4389 C 388.546 4.65881 2.3612 0
M  V30 4390 H 390.24 2.78474 1.09966 0
M  V30 4391 H 387.786 1.33988 0.527556 0
M  V30 4392 H 389.739 2.35047 3.49758 0
M  V30 4393 H 388.463 1.19535 3.03939 0
M  V30 4394 H 387.122 3.06428 2.0124 0
M  V30 4395 H 386.77 2.42784 4.40528 0
M  V30 4396 H 386.47 4.16453 4.14537 0
M  V30 4397 H 387.994 3.63031 4.90959 0
M  V30 4398 H 389.408 4.87823 3.01167 0
M  V30 4399 H 387.805 5.46444 2.48031 0
M  V30 4400 H 388.875 4.66799 1.3125 0
M  V30 4401 N 390.218 -0.567019 1.47046 0
M  V30 4402 C 391.181 -1.65696 1.58359 0
M  V30 4403 C 392.181 -1.54097 0.459441 0
M  V30 4404 O 393.371 -1.58432 0.724225 0
M  V30 4405 C 390.503 -3.05197 1.51879 0
M  V30 4406 H 391.696 -1.57019 2.5551 0
M  V30 4407 H 389.249 -0.786148 1.3509 0
M  V30 4408 H 389.984 -3.19417 0.560673 0
M  V30 4409 H 389.769 -3.15025 2.33455 0
M  V30 4410 H 391.259 -3.84511 1.62913 0
M  V30 4411 N 391.696 -1.35014 -0.812953 0
M  V30 4412 C 392.626 -1.30069 -1.93919 0
M  V30 4413 C 393.607 -0.176275 -1.69184 0
M  V30 4414 O 394.792 -0.370227 -1.90638 0
M  V30 4415 C 391.922 -1.06547 -3.30552 0
M  V30 4416 C 390.876 -2.15561 -3.69753 0
M  V30 4417 C 390.202 -1.77214 -5.04479 0
M  V30 4418 C 391.502 -3.57476 -3.808 0
M  V30 4419 H 393.196 -2.24303 -1.98314 0
M  V30 4420 H 390.742 -1.07977 -0.952736 0
M  V30 4421 H 392.695 -1.01729 -4.08937 0
M  V30 4422 H 391.419 -0.0875719 -3.26483 0
M  V30 4423 H 390.078 -2.19466 -2.9365 0
M  V30 4424 H 389.726 -0.780589 -4.96906 0
M  V30 4425 H 389.426 -2.50184 -5.31678 0
M  V30 4426 H 390.95 -1.7391 -5.8531 0
M  V30 4427 H 392.364 -3.55929 -4.4943 0
M  V30 4428 H 390.761 -4.29152 -4.19462 0
M  V30 4429 H 391.831 -3.94091 -2.82525 0
M  V30 4430 N 393.175 1.03435 -1.18907 0
M  V30 4431 C 394.107 2.1165 -0.879595 0
M  V30 4432 C 395.12 1.62316 0.125439 0
M  V30 4433 O 396.309 1.78201 -0.103245 0
M  V30 4434 C 393.409 3.37622 -0.294042 0
M  V30 4435 C 392.582 4.16166 -1.34629 0
M  V30 4436 C 391.641 5.20457 -0.775274 0
M  V30 4437 O 390.667 5.50379 -1.4516 0
M  V30 4438 N 391.869 5.78949 0.424126 0
M  V30 4439 H 394.634 2.38791 -1.81105 0
M  V30 4440 H 392.195 1.19681 -1.09032 0
M  V30 4441 H 394.187 4.04572 0.101679 0
M  V30 4442 H 392.757 3.07873 0.541575 0
M  V30 4443 H 391.977 3.44444 -1.91707 0
M  V30 4444 H 393.265 4.65432 -2.05549 0
M  V30 4445 H 392.663 5.56948 0.991209 0
M  V30 4446 H 391.22 6.47334 0.761691 0
M  V30 4447 N 394.653 0.992116 1.22453 0
M  V30 4448 C 396.069 0.702713 1.43297 0
M  V30 4449 C 396.269 -0.726909 1.87932 0
M  V30 4450 O 395.325 -1.49792 2.0327 0
M  V30 4451 C 396.638 1.70762 2.47509 0
M  V30 4452 C 398.186 1.72298 2.61309 0
M  V30 4453 C 398.661 2.71649 3.68742 0
M  V30 4454 N 400.152 2.70239 3.76199 0
M  V30 4455 C 400.887 3.43778 4.58917 0
M  V30 4456 N 400.383 4.26914 5.45633 0
M  V30 4457 N 402.176 3.32487 4.5322 0
M  V30 4458 H 394.327 1.91543 0.917871 0
M  V30 4459 H 396.59 0.826031 0.465162 0
M  V30 4460 H 396.296 2.73059 2.21657 0
M  V30 4461 H 396.17 1.49985 3.46099 0
M  V30 4462 H 398.557 0.706989 2.86506 0
M  V30 4463 H 398.638 1.97143 1.62997 0
M  V30 4464 H 398.282 3.73397 3.44292 0
M  V30 4465 H 398.212 2.44074 4.66622 0
M  V30 4466 H 400.703 2.09912 3.14237 0
M  V30 4467 H 401.016 4.79855 6.05771 0
M  V30 4468 H 399.361 4.31002 5.45218 0
M  V30 4469 H 402.552 2.6698 3.84499 0
M  V30 4470 H 402.725 3.90058 5.17454 0
M  V30 4471 N 396.131 -1.37776 0.765217 0
M  V30 4472 C 397.361 -2.03828 0.337277 0
M  V30 4473 C 397.769 -1.57841 -1.04321 0
M  V30 4474 O 397.112 -0.752043 -1.67601 0
M  V30 4475 C 397.174 -3.58292 0.294407 0
M  V30 4476 C 396.838 -4.27384 1.61838 0
M  V30 4477 C 397.835 -4.51956 2.56967 0
M  V30 4478 C 395.52 -4.65345 1.89102 0
M  V30 4479 C 397.514 -5.13536 3.77571 0
M  V30 4480 C 395.201 -5.26647 3.09978 0
M  V30 4481 C 396.199 -5.50679 4.04032 0
M  V30 4482 O 395.887 -6.10702 5.2278 0
M  V30 4483 H 395.619 -0.661292 0.140248 0
M  V30 4484 H 398.173 -1.77222 1.03834 0
M  V30 4485 H 396.403 -3.83918 -0.462983 0
M  V30 4486 H 398.092 -4.05763 -0.105581 0
M  V30 4487 H 398.858 -4.23048 2.37183 0
M  V30 4488 H 394.737 -4.45978 1.16725 0
M  V30 4489 H 398.281 -5.3221 4.50997 0
M  V30 4490 H 394.178 -5.54979 3.29649 0
M  V30 4491 H 394.946 -6.29183 5.23517 0
M  V30 4492 N 397.609 -0.515225 -1.4894 0
M  V30 4493 C 398.858 0.0261361 -2.01683 0
M  V30 4494 C 399.171 1.36719 -1.39883 0
M  V30 4495 O 400.377 1.99606 -1.84037 0
M  V30 4496 C 398.833 0.0970111 -3.59769 0
M  V30 4497 C 398.441 -1.23825 -4.30548 0
M  V30 4498 C 400.185 0.587981 -4.20408 0
M  V30 4499 C 398.092 -1.12877 -5.80528 0
M  V30 4500 H 397.022 0.0135398 -0.753878 0
M  V30 4501 H 399.673 -0.656787 -1.71343 0
M  V30 4502 H 398.055 0.844694 -3.86886 0
M  V30 4503 H 399.229 -2.00034 -4.15118 0
M  V30 4504 H 397.544 -1.66379 -3.81716 0
M  V30 4505 H 400.141 0.68763 -5.3026 0
M  V30 4506 H 400.484 1.59026 -3.84729 0
M  V30 4507 H 401.017 -0.103582 -3.97665 0
M  V30 4508 H 397.756 -2.10575 -6.20756 0
M  V30 4509 H 397.276 -0.407799 -5.98412 0
M  V30 4510 H 398.955 -0.813332 -6.41868 0
M  V30 4511 N 399.087 1.5561 -0.249682 0
M  V30 4512 C 400.315 2.03411 0.378352 0
M  V30 4513 C 400.73 1.12886 1.51335 0
M  V30 4514 O 400.087 0.143833 1.81932 0
M  V30 4515 C 400.138 3.50537 0.88351 0
M  V30 4516 O 399.859 4.37614 -0.20626 0
M  V30 4517 C 401.36 4.14113 1.58195 0
M  V30 4518 H 398.58 0.664994 0.08958 0
M  V30 4519 H 401.124 2.01044 -0.374357 0
M  V30 4520 H 399.279 3.5343 1.58639 0
M  V30 4521 H 399.693 5.24199 0.177782 0
M  V30 4522 H 401.167 5.18741 1.8871 0
M  V30 4523 H 401.644 3.60767 2.50487 0
M  V30 4524 H 402.25 4.15151 0.923573 0
M  V30 4525 N 400.565 -0.0233959 1.57583 0
M  V30 4526 C 401.475 -1.03907 2.10334 0
M  V30 4527 C 402.491 -1.39257 1.04323 0
M  V30 4528 O 403.667 -1.48462 1.36091 0
M  V30 4529 C 400.732 -2.31938 2.57693 0
M  V30 4530 C 399.793 -2.03117 3.78209 0
M  V30 4531 C 399.026 -3.25043 4.233 0
M  V30 4532 O 399.249 -4.35916 3.67876 0
M  V30 4533 O 398.183 -3.10411 5.15683 0
M  V30 4534 H 402.009 -0.620748 2.97288 0
M  V30 4535 H 399.594 -0.240743 1.47448 0
M  V30 4536 H 401.476 -3.07196 2.88458 0
M  V30 4537 H 400.151 -2.73055 1.73847 0
M  V30 4538 H 399.058 -1.25408 3.52454 0
M  V30 4539 H 400.391 -1.66852 4.63056 0
M  V30 4540 N 402.043 -1.548 -0.295768 0
M  V30 4541 C 402.973 -1.89115 -1.36959 0
M  V30 4542 C 403.954 -0.75059 -1.52644 0
M  V30 4543 O 405.139 -1.00678 -1.66065 0
M  V30 4544 C 402.269 -2.14307 -2.73295 0
M  V30 4545 C 401.223 -3.30151 -2.72368 0
M  V30 4546 C 400.549 -3.40772 -4.12042 0
M  V30 4547 C 401.849 -4.67126 -2.33646 0
M  V30 4548 H 403.543 -2.79053 -1.08488 0
M  V30 4549 H 401.089 -1.34266 -0.520443 0
M  V30 4550 H 403.042 -2.36898 -3.48507 0
M  V30 4551 H 401.766 -1.21145 -3.03301 0
M  V30 4552 H 400.425 -3.0749 -1.99613 0
M  V30 4553 H 400.073 -2.45117 -4.39234 0
M  V30 4554 H 399.773 -4.18645 -4.12322 0
M  V30 4555 H 401.297 -3.6563 -4.89027 0
M  V30 4556 H 402.711 -4.89414 -2.98575 0
M  V30 4557 H 401.108 -5.47751 -2.45129 0
M  V30 4558 H 402.178 -4.67489 -1.28772 0
M  V30 4559 N 403.521 0.559213 -1.47345 0
M  V30 4560 C 404.451 1.67622 -1.62558 0
M  V30 4561 C 405.432 1.63331 -0.475087 0
M  V30 4562 O 406.617 1.80983 -0.704182 0
M  V30 4563 C 403.747 3.0626 -1.63774 0
M  V30 4564 C 402.701 3.25397 -2.7803 0
M  V30 4565 C 402.027 4.64801 -2.64318 0
M  V30 4566 C 403.327 3.10965 -4.19641 0
M  V30 4567 H 405.021 1.55146 -2.56067 0
M  V30 4568 H 402.567 0.744961 -1.23233 0
M  V30 4569 H 404.52 3.84247 -1.73008 0
M  V30 4570 H 403.244 3.1969 -0.66825 0
M  V30 4571 H 401.903 2.49817 -2.68304 0
M  V30 4572 H 401.551 4.75028 -1.65401 0
M  V30 4573 H 401.251 4.78555 -3.40968 0
M  V30 4574 H 402.775 5.44926 -2.75478 0
M  V30 4575 H 404.189 3.78772 -4.30354 0
M  V30 4576 H 402.586 3.36229 -4.97062 0
M  V30 4577 H 403.656 2.07736 -4.38148 0
M  V30 4578 N 404.999 1.35443 0.805782 0
M  V30 4579 C 406.224 1.32037 1.59941 0
M  V30 4580 C 406.649 -0.0994215 1.87837 0
M  V30 4581 O 406.007 -1.06648 1.46615 0
M  V30 4582 C 406.055 2.13354 2.90711 0
M  V30 4583 O 405.159 1.5148 3.83572 0
M  V30 4584 H 404.5 0.452666 0.485787 0
M  V30 4585 H 407.03 1.78496 1.00002 0
M  V30 4586 H 407.04 2.25338 3.40128 0
M  V30 4587 H 405.715 3.16572 2.69732 0
M  V30 4588 H 404.292 1.4834 3.42125 0
M  V30 4589 N 406.477 -1.02803 1.19454 0
M  V30 4590 C 407.725 -1.75869 0.995722 0
M  V30 4591 C 408.046 -1.89138 -0.474543 0
M  V30 4592 O 407.316 -1.42558 -1.34366 0
M  V30 4593 H 405.896 -0.651511 0.365435 0
M  V30 4594 H 408.558 -1.24004 1.50363 0
M  V30 4595 H 407.654 -2.76661 1.44447 0
M  V30 4596 N 407.956 -0.998596 -1.21925 0
M  V30 4597 C 408.886 -0.573688 -2.26343 0
M  V30 4598 C 409.867 0.402296 -1.65274 0
M  V30 4599 O 411.052 0.291683 -1.91997 0
M  V30 4600 C 408.182 0.106839 -3.47136 0
M  V30 4601 C 407.136 -0.788269 -4.20678 0
M  V30 4602 C 406.462 0.0254927 -5.34694 0
M  V30 4603 C 407.762 -2.08784 -4.78755 0
M  V30 4604 H 409.456 -1.44651 -2.62138 0
M  V30 4605 H 407.002 -0.696975 -1.26009 0
M  V30 4606 H 408.955 0.415531 -4.19346 0
M  V30 4607 H 407.679 1.01424 -3.10452 0
M  V30 4608 H 406.338 -1.08069 -3.50309 0
M  V30 4609 H 405.986 0.933989 -4.94253 0
M  V30 4610 H 405.686 -0.570437 -5.84825 0
M  V30 4611 H 407.21 0.328147 -6.09718 0
M  V30 4612 H 408.624 -1.84272 -5.42878 0
M  V30 4613 H 407.021 -2.63307 -5.39249 0
M  V30 4614 H 408.091 -2.76284 -3.98491 0
M  V30 4615 N 409.434 1.37368 -0.772513 0
M  V30 4616 C 410.381 2.30262 -0.157488 0
M  V30 4617 C 411.351 1.51137 0.688965 0
M  V30 4618 O 412.536 1.79704 0.641168 0
M  V30 4619 C 409.676 3.37611 0.715045 0
M  V30 4620 C 408.789 4.31746 -0.148098 0
M  V30 4621 C 407.924 5.26171 0.729213 0
M  V30 4622 C 406.963 6.11948 -0.136418 0
M  V30 4623 N 406.1 6.98613 0.698914 0
M  V30 4624 H 410.94 2.82277 -0.955179 0
M  V30 4625 H 408.477 1.38957 -0.482631 0
M  V30 4626 H 410.435 3.98479 1.23575 0
M  V30 4627 H 409.065 2.86959 1.47833 0
M  V30 4628 H 408.117 3.72178 -0.786613 0
M  V30 4629 H 409.429 4.92084 -0.81579 0
M  V30 4630 H 408.583 5.92247 1.31637 0
M  V30 4631 H 407.322 4.66246 1.43059 0
M  V30 4632 H 406.327 5.4485 -0.736102 0
M  V30 4633 H 407.552 6.73945 -0.835134 0
M  V30 4634 H 405.498 6.41215 1.38489 0
M  V30 4635 H 405.415 7.55948 0.0885358 0
M  V30 4636 H 406.683 7.69077 1.27044 0
M  V30 4637 N 410.912 0.523116 1.48665 0
M  V30 4638 C 412.16 -0.0134497 2.02096 0
M  V30 4639 C 412.481 -1.35418 1.40311 0
M  V30 4640 O 411.751 -1.87543 0.566074 0
M  V30 4641 H 410.331 -0.00795915 0.746958 0
M  V30 4642 H 412.993 0.685388 1.82451 0
M  V30 4643 H 412.089 -0.126849 3.11842 0
M  V30 4644 N 412.39 -1.55475 0.257931 0
M  V30 4645 C 413.353 -2.20551 -0.623706 0
M  V30 4646 C 414.353 -1.17809 -1.09443 0
M  V30 4647 O 415.543 -1.42823 -0.997362 0
M  V30 4648 C 412.675 -2.85784 -1.8585 0
M  V30 4649 H 413.868 -2.99848 -0.0557743 0
M  V30 4650 H 411.421 -1.56298 0.0084422 0
M  V30 4651 H 412.156 -2.10453 -2.46739 0
M  V30 4652 H 411.941 -3.61057 -1.52907 0
M  V30 4653 H 413.431 -3.35553 -2.48584 0
M  V30 4654 N 413.868 0.0150385 -1.57593 0
M  V30 4655 C 415.114 0.704043 -1.90187 0
M  V30 4656 C 415.447 1.74249 -0.857366 0
M  V30 4657 O 414.722 1.94092 0.125843 0
M  V30 4658 C 415.005 1.36087 -3.33395 0
M  V30 4659 C 414.858 0.334981 -4.48551 0
M  V30 4660 C 416.177 2.29112 -3.7576 0
M  V30 4661 H 413.296 0.254475 -0.691673 0
M  V30 4662 H 415.938 -0.0331678 -1.89971 0
M  V30 4663 H 414.088 1.98922 -3.3371 0
M  V30 4664 H 415.76 -0.292534 -4.60372 0
M  V30 4665 H 414.003 -0.344325 -4.32431 0
M  V30 4666 H 414.674 0.833316 -5.45674 0
M  V30 4667 H 417.15 1.76308 -3.76902 0
M  V30 4668 H 416.026 2.72043 -4.76743 0
M  V30 4669 H 416.287 3.16385 -3.08793 0
M  V30 4670 N 415.346 1.54954 0.287554 0
M  V30 4671 C 416.592 1.75132 1.02257 0
M  V30 4672 C 416.925 0.542858 1.86458 0
M  V30 4673 O 416.2 -0.459856 1.88986 0
M  V30 4674 C 416.483 3.04812 1.91733 0
M  V30 4675 C 416.336 4.35985 1.10622 0
M  V30 4676 C 417.655 3.30438 2.90687 0
M  V30 4677 H 414.774 0.637194 0.370341 0
M  V30 4678 H 417.416 1.87678 0.296111 0
M  V30 4679 H 415.566 2.94247 2.53675 0
M  V30 4680 H 417.238 4.58487 0.508636 0
M  V30 4681 H 415.481 4.31865 0.409271 0
M  V30 4682 H 416.152 5.23017 1.76513 0
M  V30 4683 H 418.628 3.40701 2.38877 0
M  V30 4684 H 417.504 4.22467 3.50447 0
M  V30 4685 H 417.765 2.49377 3.65053 0
M  V30 4686 N 416.824 -0.551391 1.4764 0
M  V30 4687 C 418.07 -1.31024 1.54792 0
M  V30 4688 C 418.403 -1.9304 0.211967 0
M  V30 4689 O 417.678 -1.78175 -0.77999 0
M  V30 4690 C 417.961 -2.41593 2.67029 0
M  V30 4691 C 417.814 -1.84408 4.10261 0
M  V30 4692 C 419.133 -3.43488 2.75143 0
M  V30 4693 H 416.252 -0.475031 0.563485 0
M  V30 4694 H 418.894 -0.616454 1.79722 0
M  V30 4695 H 417.044 -3.00772 2.45904 0
M  V30 4696 H 418.716 -1.29445 4.42766 0
M  V30 4697 H 416.959 -1.15051 4.18265 0
M  V30 4698 H 417.63 -2.64367 4.84576 0
M  V30 4699 H 420.106 -2.94236 2.94218 0
M  V30 4700 H 418.982 -4.18274 3.55441 0
M  V30 4701 H 419.243 -4.02703 1.82435 0
M  V30 4702 N 418.302 -1.35869 -0.798587 0
M  V30 4703 C 419.232 -1.32118 -1.92528 0
M  V30 4704 C 420.213 -0.194209 -1.68988 0
M  V30 4705 O 421.398 -0.390426 -1.90235 0
M  V30 4706 C 418.528 -1.10047 -3.29404 0
M  V30 4707 C 417.482 -2.19471 -3.67446 0
M  V30 4708 C 416.808 -1.82555 -5.02571 0
M  V30 4709 C 418.108 -3.61495 -3.76987 0
M  V30 4710 H 419.802 -2.26394 -1.95924 0
M  V30 4711 H 417.348 -1.08981 -0.94123 0
M  V30 4712 H 419.301 -1.06061 -4.07835 0
M  V30 4713 H 418.025 -0.122195 -3.26371 0
M  V30 4714 H 416.684 -2.22568 -2.91306 0
M  V30 4715 H 416.332 -0.833249 -4.9605 0
M  V30 4716 H 416.032 -2.5581 -5.28995 0
M  V30 4717 H 417.556 -1.80108 -5.83432 0
M  V30 4718 H 418.97 -3.60676 -4.4563 0
M  V30 4719 H 417.367 -4.33577 -4.14887 0
M  V30 4720 H 418.437 -3.97065 -2.78329 0
M  V30 4721 N 419.78 1.02168 -1.19998 0
M  V30 4722 C 421.057 1.72816 -0.916191 0
M  V30 4723 C 421.437 2.03081 0.576325 0
M  V30 4724 O 420.785 1.69122 1.53656 0
M  V30 4725 C 420.995 2.9997 -1.78378 0
M  V30 4726 C 422.343 3.73336 -2.02251 0
M  V30 4727 O 423.367 3.09914 -1.75589 0
M  V30 4728 O 422.226 4.87371 -2.47249 0
M  V30 4729 H 419.32 0.752924 -0.342103 0
M  V30 4730 H 421.866 1.08062 -1.30846 0
M  V30 4731 H 420.638 2.73888 -2.79466 0
M  V30 4732 H 420.261 3.72464 -1.39126 0
M  V30 4733 N 421.258 1.00505 1.21394 0
M  V30 4734 C 422.669 0.721082 1.72213 0
M  V30 4735 C 423.02 -0.761263 1.80829 0
M  V30 4736 O 422.145 -1.59464 1.46288 0
M  V30 4737 C 422.74 1.30228 3.12772 0
M  V30 4738 C 421.299 1.06743 3.60947 0
M  V30 4739 C 420.446 1.41507 2.38477 0
M  V30 4740 H 423.397 1.17594 1.06571 0
M  V30 4741 H 423.418 0.686955 3.74247 0
M  V30 4742 H 422.93 2.38115 3.06468 0
M  V30 4743 H 421.031 0.00572162 3.726 0
M  V30 4744 H 421.144 1.73936 4.46411 0
M  V30 4745 H 419.508 0.833852 2.40664 0
M  V30 4746 H 420.291 2.50424 2.34824 0
M  V30 4747 N 422.737 -1.36956 0.779787 0
M  V30 4748 C 423.684 -2.30175 0.169697 0
M  V30 4749 C 424.654 -1.51501 -0.68094 0
M  V30 4750 O 425.839 -1.80042 -0.631629 0
M  V30 4751 C 422.979 -3.37985 -0.697131 0
M  V30 4752 C 422.092 -4.31661 0.170992 0
M  V30 4753 C 421.227 -5.2655 -0.701298 0
M  V30 4754 C 420.266 -6.11867 0.168869 0
M  V30 4755 N 419.403 -6.98973 -0.661855 0
M  V30 4756 H 424.243 -2.81767 0.970135 0
M  V30 4757 H 421.78 -1.38699 0.489994 0
M  V30 4758 H 423.738 -3.99128 -1.2146 0
M  V30 4759 H 422.368 -2.87739 -1.46309 0
M  V30 4760 H 421.42 -3.71756 0.80634 0
M  V30 4761 H 422.732 -4.91644 0.841875 0
M  V30 4762 H 421.886 -5.92937 -1.28494 0
M  V30 4763 H 420.625 -4.66998 -1.40584 0
M  V30 4764 H 419.63 -5.44452 0.764986 0
M  V30 4765 H 420.855 -6.73493 0.870863 0
M  V30 4766 H 418.801 -6.41941 -1.35086 0
M  V30 4767 H 418.718 -7.55984 -0.0484447 0
M  V30 4768 H 419.986 -7.6974 -1.22963 0
M  V30 4769 N 424.215 -0.530993 -1.48385 0
M  V30 4770 C 425.492 0.0671788 -1.95485 0
M  V30 4771 C 425.872 1.51191 -1.47324 0
M  V30 4772 O 425.22 2.17507 -0.700202 0
M  V30 4773 C 425.43 -0.0511206 -3.48963 0
M  V30 4774 C 426.778 0.107632 -4.24464 0
M  V30 4775 O 427.802 0.0226248 -3.56193 0
M  V30 4776 O 426.661 0.285972 -5.45751 0
M  V30 4777 H 423.755 0.0787365 -0.823243 0
M  V30 4778 H 426.301 -0.595662 -1.58902 0
M  V30 4779 H 425.073 -1.05747 -3.7674 0
M  V30 4780 H 424.696 0.650525 -3.92242 0
M  V30 4781 N 425.693 1.55336 -0.266172 0
M  V30 4782 C 426.918 2.04258 0.359661 0
M  V30 4783 C 427.343 1.14359 1.49344 0
M  V30 4784 O 426.701 0.140369 1.80756 0
M  V30 4785 C 426.749 3.50997 0.826635 0
M  V30 4786 O 425.853 3.64204 1.93466 0
M  V30 4787 H 425.194 0.659668 0.075727 0
M  V30 4788 H 427.724 2.00694 -0.39786 0
M  V30 4789 H 427.734 3.9219 1.12477 0
M  V30 4790 H 426.409 4.159 -0.00293032 0
M  V30 4791 H 424.986 3.34913 1.63974 0
M  V30 4792 N 427.171 -0.0066808 1.57599 0
M  V30 4793 C 428.396 -0.707738 1.94951 0
M  V30 4794 C 428.821 -1.66882 0.867868 0
M  V30 4795 O 428.179 -1.80457 -0.17458 0
M  V30 4796 C 428.227 -1.42162 3.31394 0
M  V30 4797 O 427.331 -2.53578 3.25226 0
M  V30 4798 H 426.672 -0.188752 0.636607 0
M  V30 4799 H 429.202 0.0445193 2.04552 0
M  V30 4800 H 429.212 -1.78655 3.66806 0
M  V30 4801 H 427.887 -0.716903 4.09675 0
M  V30 4802 H 426.464 -2.19463 3.01481 0
M  V30 4803 N 428.649 -1.55105 -0.279332 0
M  V30 4804 C 429.895 -1.75672 -1.01327 0
M  V30 4805 C 430.228 -0.552739 -1.86168 0
M  V30 4806 O 429.503 0.449827 -1.89227 0
M  V30 4807 C 429.786 -3.05825 -1.90114 0
M  V30 4808 C 429.639 -4.36565 -1.08309 0
M  V30 4809 C 430.958 -3.31975 -2.8893 0
M  V30 4810 H 428.077 -0.639149 -0.366957 0
M  V30 4811 H 430.719 -1.87833 -0.286154 0
M  V30 4812 H 428.869 -2.95588 -2.52111 0
M  V30 4813 H 430.541 -4.58751 -0.484314 0
M  V30 4814 H 428.784 -4.32076 -0.386362 0
M  V30 4815 H 429.455 -5.23946 -1.73737 0
M  V30 4816 H 431.931 -3.41963 -2.37067 0
M  V30 4817 H 430.807 -4.2432 -3.48201 0
M  V30 4818 H 431.068 -2.51309 -3.63725 0
M  V30 4819 N 430.127 0.543554 -1.4793 0
M  V30 4820 C 431.057 1.65888 -1.64327 0
M  V30 4821 C 432.038 1.62818 -0.492383 0
M  V30 4822 O 433.223 1.80226 -0.723338 0
M  V30 4823 C 430.353 3.04506 -1.67013 0
M  V30 4824 C 429.307 3.2243 -2.81466 0
M  V30 4825 C 428.633 4.61972 -2.69233 0
M  V30 4826 C 429.933 3.06496 -4.22915 0
M  V30 4827 H 431.627 1.52421 -2.57698 0
M  V30 4828 H 429.173 0.731849 -1.24016 0
M  V30 4829 H 431.126 3.82391 -1.77074 0
M  V30 4830 H 429.85 3.18964 -0.70212 0
M  V30 4831 H 428.509 2.46957 -2.70938 0
M  V30 4832 H 428.157 4.73247 -1.7043 0
M  V30 4833 H 427.857 4.74911 -3.46025 0
M  V30 4834 H 429.381 5.41974 -2.81242 0
M  V30 4835 H 430.795 3.74186 -4.34348 0
M  V30 4836 H 429.192 3.30938 -5.006 0
M  V30 4837 H 430.262 2.03077 -4.40327 0
M  V30 4838 N 431.605 1.3629 0.791371 0
M  V30 4839 C 432.568 1.30309 1.88553 0
M  V30 4840 C 433.568 0.211204 1.59407 0
M  V30 4841 O 434.758 0.465865 1.67855 0
M  V30 4842 C 431.89 1.01956 3.25297 0
M  V30 4843 H 433.083 2.27614 1.95273 0
M  V30 4844 H 430.636 1.21035 0.988953 0
M  V30 4845 H 431.371 0.050998 3.2426 0
M  V30 4846 H 431.156 1.80968 3.4784 0
M  V30 4847 H 432.646 1.0037 4.05359 0
M  V30 4848 N 433.083 -1.0153 1.20538 0
M  V30 4849 C 434.016 -2.09759 0.898695 0
M  V30 4850 C 434.994 -1.61909 -0.149733 0
M  V30 4851 O 436.178 -1.88486 -0.0230293 0
M  V30 4852 C 433.305 -3.36913 0.347512 0
M  V30 4853 C 432.351 -4.03655 1.37713 0
M  V30 4854 S 433.184 -4.47402 2.94265 0
M  V30 4855 C 434.34 -5.77756 2.40726 0
M  V30 4856 H 434.573 -2.3545 1.81523 0
M  V30 4857 H 432.106 -1.14665 1.03399 0
M  V30 4858 H 434.064 -4.10484 0.0360518 0
M  V30 4859 H 432.725 -3.09291 -0.547546 0
M  V30 4860 H 431.918 -4.9514 0.940872 0
M  V30 4861 H 431.52 -3.36313 1.63614 0
M  V30 4862 H 433.812 -6.52994 1.80569 0
M  V30 4863 H 434.755 -6.2618 3.30612 0
M  V30 4864 H 435.163 -5.34081 1.82806 0
M  V30 4865 N 434.561 -1.01147 -1.20859 0
M  V30 4866 C 435.807 -0.698899 -1.90377 0
M  V30 4867 C 436.14 0.76904 -1.78324 0
M  V30 4868 O 435.415 1.55817 -1.16409 0
M  V30 4869 C 435.698 -1.12878 -3.41951 0
M  V30 4870 C 435.551 -2.65665 -3.62963 0
M  V30 4871 C 436.87 -0.696114 -4.3456 0
M  V30 4872 H 433.989 -0.255372 -0.691342 0
M  V30 4873 H 436.631 -1.25831 -1.42361 0
M  V30 4874 H 434.781 -0.652827 -3.82976 0
M  V30 4875 H 436.453 -3.21074 -3.31224 0
M  V30 4876 H 434.696 -3.06878 -3.06608 0
M  V30 4877 H 435.367 -2.90797 -4.69192 0
M  V30 4878 H 437.843 -1.10521 -4.01154 0
M  V30 4879 H 436.719 -1.025 -5.39245 0
M  V30 4880 H 436.98 0.402465 -4.40264 0
M  V30 4881 N 436.039 1.36541 -0.78704 0
M  V30 4882 C 437.264 2.0409 -0.369053 0
M  V30 4883 C 437.689 1.58957 1.00569 0
M  V30 4884 O 437.047 0.756926 1.64743 0
M  V30 4885 C 437.095 3.57924 -0.438466 0
M  V30 4886 O 436.199 4.08642 0.555479 0
M  V30 4887 H 435.54 0.645142 -0.157122 0
M  V30 4888 H 438.07 1.74545 -1.06749 0
M  V30 4889 H 438.08 4.06887 -0.301218 0
M  V30 4890 H 436.755 3.90127 -1.44132 0
M  V30 4891 H 435.332 3.70958 0.380088 0
M  V30 4892 N 437.518 0.538854 1.48102 0
M  V30 4893 C 438.746 0.0123136 2.06896 0
M  V30 4894 C 439.161 -1.27312 1.39417 0
M  V30 4895 O 438.518 -1.75949 0.484582 0
M  V30 4896 C 438.569 -0.206118 3.60912 0
M  V30 4897 O 438.29 1.0284 4.25859 0
M  V30 4898 C 439.791 -0.772033 4.36526 0
M  V30 4899 H 437.011 0.0375239 0.66995 0
M  V30 4900 H 439.555 0.747032 1.90367 0
M  V30 4901 H 437.71 -0.89091 3.77017 0
M  V30 4902 H 438.124 0.814654 5.18135 0
M  V30 4903 H 439.598 -0.874251 5.45033 0
M  V30 4904 H 440.075 -1.77904 4.01555 0
M  V30 4905 H 440.681 -0.123526 4.25121 0
M  V30 4906 N 438.996 -1.55193 0.274407 0
M  V30 4907 C 440.407 -1.85358 -0.223488 0
M  V30 4908 C 440.758 -1.19642 -1.555 0
M  V30 4909 O 439.883 -0.484498 -2.10907 0
M  V30 4910 C 440.478 -3.36282 -0.412285 0
M  V30 4911 C 439.037 -3.66574 -0.854413 0
M  V30 4912 C 438.184 -2.7725 0.0527056 0
M  V30 4913 H 441.135 -1.50743 0.496215 0
M  V30 4914 H 441.156 -3.59349 -1.25094 0
M  V30 4915 H 440.668 -3.84083 0.556965 0
M  V30 4916 H 438.769 -3.24273 -1.83516 0
M  V30 4917 H 438.882 -4.74073 -0.692226 0
M  V30 4918 H 437.246 -2.50447 -0.463484 0
M  V30 4919 H 438.029 -3.27865 1.01783 0
M  V30 4920 N 440.474 -0.00167713 -1.576 0
M  V30 4921 C 441.699 0.69739 -1.95323 0
M  V30 4922 C 442.124 1.6642 -0.876706 0
M  V30 4923 O 441.482 1.80548 0.165007 0
M  V30 4924 C 441.53 1.40403 -3.32144 0
M  V30 4925 O 440.634 2.5185 -3.26566 0
M  V30 4926 H 439.975 0.185373 -0.637599 0
M  V30 4927 H 442.505 -0.0553665 -2.04525 0
M  V30 4928 H 442.515 1.76707 -3.67748 0
M  V30 4929 H 441.19 0.695167 -4.10049 0
M  V30 4930 H 439.767 2.17861 -3.0264 0
M  V30 4931 N 441.952 1.55251 0.271103 0
M  V30 4932 C 443.182 1.79713 1.01916 0
M  V30 4933 C 443.59 0.571613 1.80359 0
M  V30 4934 O 442.933 -0.468853 1.77616 0
M  V30 4935 C 442.995 2.97138 2.02359 0
M  V30 4936 C 442.659 4.34104 1.42837 0
M  V30 4937 C 443.656 5.13019 0.843071 0
M  V30 4938 C 441.341 4.80765 1.455 0
M  V30 4939 C 443.335 6.36729 0.292333 0
M  V30 4940 C 441.022 6.0443 0.900402 0
M  V30 4941 C 442.02 6.8225 0.32007 0
M  V30 4942 O 441.708 8.03582 -0.226031 0
M  V30 4943 H 441.44 0.602431 0.306681 0
M  V30 4944 H 443.994 2.03097 0.306701 0
M  V30 4945 H 442.224 2.6945 2.77369 0
M  V30 4946 H 443.913 3.08907 2.63309 0
M  V30 4947 H 444.679 4.781 0.815178 0
M  V30 4948 H 440.558 4.20202 1.89609 0
M  V30 4949 H 444.102 6.97414 -0.161274 0
M  V30 4950 H 439.999 6.3883 0.925541 0
M  V30 4951 H 440.767 8.18418 -0.115572 0
M  V30 4952 N 443.43 -0.535701 1.48216 0
M  V30 4953 C 444.707 -1.29683 1.46429 0
M  V30 4954 C 445.087 -2.10391 0.172852 0
M  V30 4955 O 444.435 -2.12282 -0.845488 0
M  V30 4956 C 444.645 -2.18313 2.72287 0
M  V30 4957 C 445.993 -2.78639 3.20383 0
M  V30 4958 O 447.017 -2.28604 2.73164 0
M  V30 4959 O 445.876 -3.69636 4.02531 0
M  V30 4960 H 442.97 -0.585026 0.584529 0
M  V30 4961 H 445.516 -0.552827 1.60443 0
M  V30 4962 H 444.288 -1.58421 3.57797 0
M  V30 4963 H 443.911 -2.99971 2.60966 0
M  V30 4964 N 444.908 -1.36708 -0.784132 0
M  V30 4965 C 445.856 -1.31533 -1.91838 0
M  V30 4966 C 446.85 -0.206205 -1.6814 0
M  V30 4967 O 448.056 -0.373519 -1.76082 0
M  V30 4968 H 444.431 -0.409613 -0.630651 0
M  V30 4969 H 446.402 -2.2731 -1.9332 0
M  V30 4970 C 445.151 -1.12679 -3.28936 0
M  V30 4971 H 444.474 -1.97274 -3.4774 0
M  V30 4972 H 445.914 -1.13106 -4.08636 0
M  V30 4973 C 444.373 0.168281 -3.36479 0
M  V30 4974 O 444.903 1.15625 -3.84699 0
M  V30 4975 N 443.109 0.214762 -2.89805 0
M  V30 4976 H 442.656 -0.589852 -2.50756 0
M  V30 4977 H 442.614 1.08094 -2.95234 0
M  V30 4978 N 446.386 1.0089 -1.21074 0
M  V30 4979 C 447.334 2.11707 -0.963476 0
M  V30 4980 C 448.328 1.69172 0.0879032 0
M  V30 4981 O 449.534 1.79889 -0.0631415 0
M  V30 4982 H 445.909 0.692026 -0.294287 0
M  V30 4983 H 447.88 2.29743 -1.90422 0
M  V30 4984 C 446.629 3.43473 -0.540509 0
M  V30 4985 H 445.952 3.76634 -1.34114 0
M  V30 4986 H 447.392 4.22044 -0.406777 0
M  V30 4987 C 445.851 3.2849 0.748079 0
M  V30 4988 O 446.381 3.58883 1.8046 0
M  V30 4989 N 444.587 2.81715 0.713081 0
M  V30 4990 H 444.134 2.5718 -0.146973 0
M  V30 4991 H 444.092 2.72071 1.57558 0
M  V30 4992 N 447.864 1.01787 1.20321 0
M  V30 4993 C 448.794 0.609625 2.25401 0
M  V30 4994 C 449.775 -0.375951 1.65893 0
M  V30 4995 O 450.96 -0.261101 1.92437 0
M  V30 4996 C 448.09 -0.0515995 3.47262 0
M  V30 4997 C 447.044 0.855095 4.19371 0
M  V30 4998 C 446.37 0.0595757 5.34667 0
M  V30 4999 C 447.67 2.16374 4.75373 0
M  V30 5000 H 449.364 1.48803 2.59804 0
M  V30 5001 H 446.91 0.716934 1.24884 0
M  V30 5002 H 448.863 -0.348764 4.19954 0
M  V30 5003 H 447.587 -0.964726 3.12027 0
M  V30 5004 H 446.246 1.13628 3.48546 0
M  V30 5005 H 445.894 -0.85524 4.95676 0
M  V30 5006 H 445.594 0.663406 5.83843 0
M  V30 5007 H 447.118 -0.231105 6.10162 0
M  V30 5008 H 448.532 1.92885 5.39878 0
M  V30 5009 H 446.929 2.71853 5.34991 0
M  V30 5010 H 447.999 2.82589 3.94045 0
M  V30 5011 N 449.342 -1.36122 0.79427 0
M  V30 5012 C 450.589 -1.99111 0.368905 0
M  V30 5013 C 450.917 -1.63032 -1.0607 0
M  V30 5014 O 450.172 -0.879303 -1.74833 0
M  V30 5015 C 450.471 -3.5409 0.48527 0
M  V30 5016 C 450.137 -4.10003 1.87638 0
M  V30 5017 C 448.799 -4.24986 2.257 0
M  V30 5018 C 451.151 -4.40423 2.78706 0
M  V30 5019 C 448.479 -4.67701 3.54221 0
M  V30 5020 C 450.831 -4.84573 4.0666 0
M  V30 5021 C 449.495 -4.97761 4.44737 0
M  V30 5022 H 448.765 -0.7286 0.134992 0
M  V30 5023 H 451.412 -1.62534 1.01267 0
M  V30 5024 H 449.717 -3.91052 -0.241984 0
M  V30 5025 H 451.414 -4.00766 0.137109 0
M  V30 5026 H 448.004 -3.98784 1.57064 0
M  V30 5027 H 452.188 -4.28412 2.50553 0
M  V30 5028 H 447.444 -4.761 3.83587 0
M  V30 5029 H 451.618 -5.07074 4.77336 0
M  V30 5030 H 449.245 -5.30618 5.44379 0
M  V30 5031 N 450.82 -0.546701 -1.47814 0
M  V30 5032 C 452.066 -0.0187684 -2.02791 0
M  V30 5033 C 452.399 1.32338 -1.42128 0
M  V30 5034 O 451.674 1.85867 -0.573023 0
M  V30 5035 C 451.957 0.0854985 -3.59998 0
M  V30 5036 C 451.81 -1.283 -4.31114 0
M  V30 5037 C 453.129 0.80412 -4.32691 0
M  V30 5038 H 450.248 -0.0082946 -0.736953 0
M  V30 5039 H 452.89 -0.706962 -1.76358 0
M  V30 5040 H 451.04 0.671609 -3.82651 0
M  V30 5041 H 452.712 -1.91151 -4.19832 0
M  V30 5042 H 450.955 -1.86049 -3.91878 0
M  V30 5043 H 451.626 -1.16287 -5.39612 0
M  V30 5044 H 454.102 0.306576 -4.14969 0
M  V30 5045 H 452.978 0.846011 -5.42341 0
M  V30 5046 H 453.239 1.85802 -4.01161 0
M  V30 5047 N 452.299 1.55045 -0.282633 0
M  V30 5048 C 453.576 1.9179 0.384166 0
M  V30 5049 C 453.956 1.20778 1.73136 0
M  V30 5050 O 453.304 0.33719 2.25998 0
M  V30 5051 C 453.514 3.45149 0.517014 0
M  V30 5052 C 454.862 4.17064 0.796427 0
M  V30 5053 O 455.886 3.51084 0.601535 0
M  V30 5054 O 454.745 5.33837 1.16962 0
M  V30 5055 H 451.839 0.799483 0.211558 0
M  V30 5056 H 454.385 1.66474 -0.32934 0
M  V30 5057 H 453.157 3.88922 -0.430772 0
M  V30 5058 H 452.78 3.76443 1.2797 0
M  V30 5059 N 453.777 0.010035 1.57597 0
M  V30 5060 C 455.025 -0.671371 1.90623 0
M  V30 5061 C 455.346 -1.73753 0.885151 0
M  V30 5062 O 454.616 -1.95752 -0.0760611 0
M  V30 5063 H 453.196 -0.250968 0.703579 0
M  V30 5064 H 455.858 0.0533325 1.94827 0
M  V30 5065 H 454.954 -1.13626 2.90681 0
M  V30 5066 N 455.255 -1.55392 -0.262866 0
M  V30 5067 C 456.504 -1.75679 -0.990943 0
M  V30 5068 C 456.817 -0.57097 -1.87081 0
M  V30 5069 O 458.023 -0.656486 -2.63444 0
M  V30 5070 C 456.479 -3.10964 -1.81188 0
M  V30 5071 C 456.087 -4.37146 -0.980188 0
M  V30 5072 C 457.831 -3.40597 -2.53365 0
M  V30 5073 C 455.738 -5.63466 -1.7961 0
M  V30 5074 H 454.668 -0.654868 -0.373716 0
M  V30 5075 H 457.319 -1.81841 -0.246203 0
M  V30 5076 H 455.701 -2.98867 -2.59797 0
M  V30 5077 H 456.875 -4.60187 -0.237558 0
M  V30 5078 H 455.19 -4.14731 -0.372497 0
M  V30 5079 H 457.787 -4.32186 -3.14833 0
M  V30 5080 H 458.13 -2.6119 -3.24169 0
M  V30 5081 H 458.663 -3.53838 -1.81779 0
M  V30 5082 H 455.402 -6.4565 -1.13209 0
M  V30 5083 H 454.922 -5.44552 -2.51443 0
M  V30 5084 H 456.601 -6.02139 -2.36723 0
M  V30 5085 N 456.733 0.527833 -1.48498 0
M  V30 5086 C 457.958 1.313 -1.60546 0
M  V30 5087 C 458.383 1.86199 -0.26672 0
M  V30 5088 O 457.741 1.64513 0.761918 0
M  V30 5089 C 457.789 2.43818 -2.65678 0
M  V30 5090 O 456.893 3.46916 -2.22987 0
M  V30 5091 H 456.234 0.388784 -0.538277 0
M  V30 5092 H 458.764 0.634896 -1.945 0
M  V30 5093 H 458.774 2.89973 -2.87018 0
M  V30 5094 H 457.449 2.03222 -3.62869 0
M  V30 5095 H 456.026 3.06864 -2.11869 0
M  V30 5096 N 458.211 1.37122 0.776871 0
M  V30 5097 C 459.436 1.354 1.57104 0
M  V30 5098 C 459.861 -0.0595562 1.88006 0
M  V30 5099 O 459.219 -1.03514 1.48844 0
M  V30 5100 C 459.267 2.19472 2.8612 0
M  V30 5101 O 458.371 1.59582 3.80273 0
M  V30 5102 H 457.712 0.462869 0.476076 0
M  V30 5103 H 460.242 1.80577 0.961932 0
M  V30 5104 H 460.252 2.32502 3.35271 0
M  V30 5105 H 458.927 3.22222 2.62956 0
M  V30 5106 H 457.504 1.55564 3.38902 0
M  V30 5107 N 459.689 -1.00246 1.21608 0
M  V30 5108 C 460.599 -2.12515 0.993709 0
M  V30 5109 C 461.615 -1.73913 -0.0549939 0
M  V30 5110 O 462.791 -2.00943 0.135619 0
M  V30 5111 C 459.856 -3.42083 0.563953 0
M  V30 5112 C 458.917 -3.94843 1.68516 0
M  V30 5113 C 458.15 -5.18226 1.27582 0
M  V30 5114 O 458.373 -5.70201 0.150506 0
M  V30 5115 O 457.307 -5.64497 2.0887 0
M  V30 5116 H 461.133 -2.34152 1.93407 0
M  V30 5117 H 458.718 -1.10891 1.00118 0
M  V30 5118 H 460.6 -4.20073 0.334194 0
M  V30 5119 H 459.275 -3.21828 -0.347665 0
M  V30 5120 H 458.182 -3.18068 1.96935 0
M  V30 5121 H 459.515 -4.19512 2.5743 0
M  V30 5122 N 461.167 -1.02423 -1.1978 0
M  V30 5123 C 462.444 -0.632802 -1.85081 0
M  V30 5124 C 462.824 0.888745 -1.9148 0
M  V30 5125 O 462.172 1.78357 -1.42832 0
M  V30 5126 C 462.382 -1.28947 -3.24305 0
M  V30 5127 C 463.73 -1.40976 -4.00513 0
M  V30 5128 O 464.754 -1.24628 -3.33686 0
M  V30 5129 O 463.613 -1.67467 -5.20209 0
M  V30 5130 H 460.707 -0.219348 -0.79738 0
M  V30 5131 H 463.253 -1.12209 -1.27307 0
M  V30 5132 H 462.025 -2.3288 -3.14456 0
M  V30 5133 H 461.648 -0.787748 -3.89718 0
M  V30 5134 N 462.645 1.35699 -0.801477 0
M  V30 5135 C 463.875 2.02862 -0.3912 0
M  V30 5136 C 464.283 1.60552 1.00099 0
M  V30 5137 O 463.626 0.796215 1.65548 0
M  V30 5138 C 463.688 3.57386 -0.389299 0
M  V30 5139 C 463.352 4.22943 -1.73113 0
M  V30 5140 C 464.349 4.44984 -2.68859 0
M  V30 5141 C 462.034 4.60167 -2.01373 0
M  V30 5142 C 464.028 5.03345 -3.91053 0
M  V30 5143 C 461.715 5.18243 -3.23832 0
M  V30 5144 C 462.713 5.39773 -4.1849 0
M  V30 5145 O 462.401 5.96626 -5.38788 0
M  V30 5146 H 462.133 0.657341 -0.157732 0
M  V30 5147 H 464.687 1.74407 -1.08496 0
M  V30 5148 H 462.917 3.85011 0.361031 0
M  V30 5149 H 464.606 4.059 -0.0020365 0
M  V30 5150 H 465.372 4.1661 -2.48316 0
M  V30 5151 H 461.251 4.42726 -1.28508 0
M  V30 5152 H 464.795 5.20065 -4.64949 0
M  V30 5153 H 460.692 5.46044 -3.44248 0
M  V30 5154 H 461.46 6.15082 -5.40015 0
M  V30 5155 N 464.123 0.554532 1.47522 0
M  V30 5156 C 465.07 -0.19466 2.29978 0
M  V30 5157 C 466.04 -0.910882 1.38896 0
M  V30 5158 O 467.225 -0.907102 1.67858 0
M  V30 5159 C 464.365 -1.22035 3.22802 0
M  V30 5160 C 463.478 -0.510474 4.28973 0
M  V30 5161 C 462.613 -1.52123 5.08952 0
M  V30 5162 C 461.652 -0.796173 6.069 0
M  V30 5163 N 460.789 -1.75363 6.79847 0
M  V30 5164 H 465.629 0.51461 2.93523 0
M  V30 5165 H 463.166 0.265607 1.44682 0
M  V30 5166 H 465.124 -1.8276 3.7504 0
M  V30 5167 H 463.754 -1.89769 2.61127 0
M  V30 5168 H 462.806 0.211234 3.79813 0
M  V30 5169 H 464.118 0.0576503 4.98767 0
M  V30 5170 H 463.272 -2.20207 5.65326 0
M  V30 5171 H 462.011 -2.12327 4.39054 0
M  V30 5172 H 461.016 -0.101388 5.49707 0
M  V30 5173 H 462.241 -0.199911 6.78806 0
M  V30 5174 H 460.187 -2.3443 6.12682 0
M  V30 5175 H 460.104 -1.23759 7.45801 0
M  V30 5176 H 461.372 -2.4257 7.40797 0
M  V30 5177 N 465.601 -1.54893 0.290851 0
M  V30 5178 C 467.017 -1.59476 -0.0628432 0
M  V30 5179 C 467.217 -1.30795 -1.5328 0
M  V30 5180 O 466.273 -1.07644 -2.28406 0
M  V30 5181 C 467.586 -2.98928 0.325962 0
M  V30 5182 C 469.134 -3.11799 0.273882 0
M  V30 5183 C 469.609 -4.53544 0.637359 0
M  V30 5184 N 471.1 -4.59433 0.589507 0
M  V30 5185 C 471.835 -5.67164 0.84335 0
M  V30 5186 N 471.331 -6.82975 1.16263 0
M  V30 5187 N 473.124 -5.56786 0.771091 0
M  V30 5188 H 465.275 -1.71798 1.24896 0
M  V30 5189 H 467.538 -0.801879 0.505663 0
M  V30 5190 H 467.244 -3.24805 1.34887 0
M  V30 5191 H 467.118 -3.75793 -0.325441 0
M  V30 5192 H 469.505 -2.85677 -0.739765 0
M  V30 5193 H 469.586 -2.37112 0.959766 0
M  V30 5194 H 469.23 -4.80394 1.64877 0
M  V30 5195 H 469.16 -5.26553 -0.0704866 0
M  V30 5196 H 471.651 -3.76245 0.353252 0
M  V30 5197 H 471.964 -7.61048 1.34257 0
M  V30 5198 H 470.309 -6.84552 1.20057 0
M  V30 5199 H 473.5 -4.65187 0.521383 0
M  V30 5200 H 473.673 -6.40664 0.972295 0
M  V30 5201 N 467.08 -0.0183926 -1.57589 0
M  V30 5202 C 468.01 0.965596 -2.12599 0
M  V30 5203 C 468.991 1.34641 -1.0395 0
M  V30 5204 O 470.176 1.42693 -1.31729 0
M  V30 5205 C 467.306 2.25149 -2.64434 0
M  V30 5206 C 466.26 2.01175 -3.77773 0
M  V30 5207 C 465.586 3.35937 -4.15994 0
M  V30 5208 C 466.886 1.35953 -5.04296 0
M  V30 5209 H 468.58 0.507504 -2.95067 0
M  V30 5210 H 466.126 0.242671 -1.41941 0
M  V30 5211 H 468.079 2.94357 -3.01549 0
M  V30 5212 H 466.803 2.73105 -1.79112 0
M  V30 5213 H 465.462 1.34388 -3.4108 0
M  V30 5214 H 465.11 3.81631 -3.27669 0
M  V30 5215 H 464.81 3.20705 -4.92364 0
M  V30 5216 H 466.334 4.0643 -4.55683 0
M  V30 5217 H 467.748 1.95144 -5.39065 0
M  V30 5218 H 466.145 1.31152 -5.85593 0
M  V30 5219 H 467.215 0.331071 -4.83768 0
M  V30 5220 N 468.558 1.5553 0.254621 0
M  V30 5221 C 469.488 1.9268 1.31897 0
M  V30 5222 C 470.469 0.790797 1.506 0
M  V30 5223 O 471.654 1.05045 1.63337 0
M  V30 5224 C 468.784 2.21477 2.67517 0
M  V30 5225 C 467.738 3.37256 2.63519 0
M  V30 5226 C 467.064 3.51576 4.02862 0
M  V30 5227 C 468.364 4.73157 2.21179 0
M  V30 5228 H 470.058 2.81832 1.01051 0
M  V30 5229 H 467.604 1.35599 0.484662 0
M  V30 5230 H 469.557 2.46055 3.42104 0
M  V30 5231 H 468.281 1.29144 2.99982 0
M  V30 5232 H 466.94 3.12675 1.9139 0
M  V30 5233 H 466.588 2.56676 4.32581 0
M  V30 5234 H 466.288 4.2943 4.01078 0
M  V30 5235 H 467.812 3.78467 4.79161 0
M  V30 5236 H 469.226 4.97158 2.85494 0
M  V30 5237 H 467.623 5.54058 2.30521 0
M  V30 5238 H 468.693 4.70739 1.16332 0
M  V30 5239 N 470.036 -0.519951 1.48776 0
M  V30 5240 C 470.984 -1.64443 1.64503 0
M  V30 5241 C 471.978 -1.61501 0.511248 0
M  V30 5242 O 473.184 -1.66238 0.690294 0
M  V30 5243 H 469.559 -0.544776 0.518385 0
M  V30 5244 H 471.53 -1.48325 2.58925 0
M  V30 5245 C 470.279 -3.02673 1.71127 0
M  V30 5246 H 469.602 -3.05635 2.57735 0
M  V30 5247 H 471.042 -3.80941 1.86172 0
M  V30 5248 C 469.501 -3.33854 0.452032 0
M  V30 5249 O 470.031 -3.99385 -0.430678 0
M  V30 5250 N 468.237 -2.88825 0.32069 0
M  V30 5251 H 467.784 -2.35674 1.03998 0
M  V30 5252 H 467.742 -3.10056 -0.520814 0
M  V30 5253 N 471.514 -1.37532 -0.769588 0
M  V30 5254 C 472.791 -1.23392 -1.51768 0
M  V30 5255 C 473.171 0.17157 -2.10402 0
M  V30 5256 O 472.519 1.17943 -1.95708 0
M  V30 5257 C 472.729 -2.33163 -2.59685 0
M  V30 5258 C 474.077 -2.70809 -3.27028 0
M  V30 5259 O 475.101 -2.32355 -2.69981 0
M  V30 5260 O 473.96 -3.37066 -4.30173 0
M  V30 5261 H 471.054 -0.481617 -0.67229 0
M  V30 5262 H 473.6 -1.49318 -0.806368 0
M  V30 5263 H 472.372 -3.27273 -2.14494 0
M  V30 5264 H 471.995 -2.08713 -3.38415 0
M  V30 5265 N 472.992 0.995999 -1.22138 0
M  V30 5266 C 473.922 2.10387 -1.01289 0
M  V30 5267 C 474.903 1.69975 0.0651454 0
M  V30 5268 O 476.088 1.9396 -0.0964628 0
M  V30 5269 C 473.218 3.42312 -0.586517 0
M  V30 5270 C 472.172 3.96558 -1.61014 0
M  V30 5271 C 471.498 5.24494 -1.0397 0
M  V30 5272 C 472.798 4.27595 -2.99933 0
M  V30 5273 H 474.492 2.28086 -1.93951 0
M  V30 5274 H 472.038 1.09607 -0.933928 0
M  V30 5275 H 473.991 4.19223 -0.427793 0
M  V30 5276 H 472.715 3.24431 0.375761 0
M  V30 5277 H 471.374 3.21776 -1.75658 0
M  V30 5278 H 471.022 5.02953 -0.0688703 0
M  V30 5279 H 470.722 5.61755 -1.72352 0
M  V30 5280 H 472.246 6.04042 -0.892494 0
M  V30 5281 H 473.66 4.95315 -2.8868 0
M  V30 5282 H 472.057 4.76021 -3.6541 0
M  V30 5283 H 473.127 3.35498 -3.50099 0
M  V30 5284 N 474.47 1.03057 1.19235 0
M  V30 5285 C 475.433 0.617418 2.20727 0
M  V30 5286 C 476.433 -0.319856 1.57587 0
M  V30 5287 O 477.623 -0.106633 1.73873 0
M  V30 5288 C 474.755 -0.096296 3.40764 0
M  V30 5289 H 475.948 1.51544 2.58794 0
M  V30 5290 H 473.501 0.821949 1.32942 0
M  V30 5291 H 474.236 -1.00859 3.08217 0
M  V30 5292 H 474.021 0.577217 3.87828 0
M  V30 5293 H 475.511 -0.372219 4.15938 0
M  V30 5294 N 475.948 -1.35272 0.808662 0
M  V30 5295 C 477.364 -1.51806 0.492653 0
M  V30 5296 C 477.564 -1.7574 -0.985778 0
M  V30 5297 O 476.62 -1.80003 -1.77074 0
M  V30 5298 C 477.933 -2.69202 1.33981 0
M  V30 5299 C 479.481 -2.8308 1.33547 0
M  V30 5300 C 479.956 -4.03502 2.16679 0
M  V30 5301 N 481.447 -4.10684 2.14227 0
M  V30 5302 C 482.182 -5.02984 2.75308 0
M  V30 5303 N 481.678 -6.00603 3.45323 0
M  V30 5304 N 483.471 -4.95746 2.64938 0
M  V30 5305 H 475.622 -1.17993 1.76611 0
M  V30 5306 H 477.885 -0.577476 0.751814 0
M  V30 5307 H 477.591 -2.581 2.38909 0
M  V30 5308 H 477.465 -3.63854 0.994491 0
M  V30 5309 H 479.852 -2.93631 0.294036 0
M  V30 5310 H 479.933 -1.89278 1.72068 0
M  V30 5311 H 479.577 -3.93711 3.20864 0
M  V30 5312 H 479.507 -4.96489 1.75517 0
M  V30 5313 H 481.998 -3.40802 1.63285 0
M  V30 5314 H 482.311 -6.67633 3.89212 0
M  V30 5315 H 480.656 -6.0077 3.49428 0
M  V30 5316 H 483.847 -4.18439 2.09825 0
M  V30 5317 H 484.02 -5.67487 3.12829 0
M  V30 5318 N 477.426 -0.562348 -1.47226 0
M  V30 5319 C 478.837 -0.130325 -1.86245 0
M  V30 5320 C 479.188 1.30128 -1.46838 0
M  V30 5321 O 478.313 1.97974 -0.873805 0
M  V30 5322 C 478.908 -0.229738 -3.3802 0
M  V30 5323 C 477.467 0.14728 -3.76112 0
M  V30 5324 C 476.614 -0.574971 -2.71274 0
M  V30 5325 H 479.565 -0.771773 -1.3867 0
M  V30 5326 H 479.586 0.550316 -3.76499 0
M  V30 5327 H 479.098 -1.27178 -3.66671 0
M  V30 5328 H 477.199 1.19023 -3.53078 0
M  V30 5329 H 477.312 -0.214858 -4.78618 0
M  V30 5330 H 475.676 -0.0174756 -2.54694 0
M  V30 5331 H 476.459 -1.61827 -3.02766 0
M  V30 5332 N 478.904 1.54736 -0.299062 0
M  V30 5333 C 479.834 2.26409 0.571085 0
M  V30 5334 C 480.815 1.2629 1.13951 0
M  V30 5335 O 482 1.55059 1.16921 0
M  V30 5336 C 479.13 3.00338 1.74396 0
M  V30 5337 C 478.084 4.07588 1.30599 0
M  V30 5338 C 477.41 4.69222 2.56387 0
M  V30 5339 C 478.71 5.20455 0.438645 0
M  V30 5340 H 480.404 2.99388 -0.0266991 0
M  V30 5341 H 477.95 1.43993 -0.0142812 0
M  V30 5342 H 479.903 3.49198 2.35878 0
M  V30 5343 H 478.627 2.24934 2.36796 0
M  V30 5344 H 477.286 3.59575 0.71424 0
M  V30 5345 H 476.934 3.9046 3.17097 0
M  V30 5346 H 476.634 5.41653 2.27784 0
M  V30 5347 H 478.158 5.20844 3.18675 0
M  V30 5348 H 479.572 5.65221 0.959085 0
M  V30 5349 H 477.969 5.99594 0.246466 0
M  V30 5350 H 479.039 4.8192 -0.536738 0
M  V30 5351 N 480.382 0.0267497 1.57577 0
M  V30 5352 C 481.612 -0.6617 1.95717 0
M  V30 5353 C 482.02 -1.66331 0.901706 0
M  V30 5354 O 481.363 -1.83273 -0.125241 0
M  V30 5355 C 481.425 -1.42649 3.29987 0
M  V30 5356 C 481.089 -0.583482 4.5326 0
M  V30 5357 C 482.086 0.140221 5.19711 0
M  V30 5358 C 479.771 -0.521581 4.99585 0
M  V30 5359 C 481.765 0.914523 6.30805 0
M  V30 5360 C 479.452 0.256428 6.10562 0
M  V30 5361 C 480.45 0.973189 6.76031 0
M  V30 5362 O 480.138 1.73845 7.84878 0
M  V30 5363 H 479.87 -0.187483 0.649481 0
M  V30 5364 H 482.424 0.0820847 2.05236 0
M  V30 5365 H 480.654 -2.21536 3.16952 0
M  V30 5366 H 482.343 -2.00282 3.53047 0
M  V30 5367 H 483.109 0.101716 4.84893 0
M  V30 5368 H 478.988 -1.06904 4.48433 0
M  V30 5369 H 482.532 1.4745 6.81839 0
M  V30 5370 H 478.429 0.296657 6.44818 0
M  V30 5371 H 479.197 1.65797 8.01532 0
M  V30 5372 N 481.861 -1.55662 -0.24637 0
M  V30 5373 C 483.086 -1.81914 -0.996093 0
M  V30 5374 C 483.511 -0.603875 -1.78143 0
M  V30 5375 O 482.869 0.447091 -1.75701 0
M  V30 5376 C 482.917 -3.05908 -1.90925 0
M  V30 5377 O 482.021 -2.82861 -3.00105 0
M  V30 5378 H 481.362 -0.600481 -0.283406 0
M  V30 5379 H 483.892 -2.02848 -0.267199 0
M  V30 5380 H 483.902 -3.35356 -2.3238 0
M  V30 5381 H 482.577 -3.93999 -1.33183 0
M  V30 5382 H 481.154 -2.64583 -2.62775 0
M  V30 5383 N 483.339 0.512053 -1.4905 0
M  V30 5384 C 484.755 0.84224 -1.35567 0
M  V30 5385 C 484.955 1.97878 -0.380319 0
M  V30 5386 O 484.011 2.51769 0.19201 0
M  V30 5387 C 485.324 1.19286 -2.76028 0
M  V30 5388 C 486.872 1.30171 -2.84648 0
M  V30 5389 C 487.347 1.68568 -4.25851 0
M  V30 5390 N 488.838 1.75638 -4.28609 0
M  V30 5391 C 489.573 2.06769 -5.34821 0
M  V30 5392 N 489.069 2.36201 -6.51292 0
M  V30 5393 N 490.862 2.07927 -5.22229 0
M  V30 5394 H 483.013 -0.237574 -2.11067 0
M  V30 5395 H 485.276 -0.0436747 -0.946993 0
M  V30 5396 H 484.982 0.431199 -3.49047 0
M  V30 5397 H 484.856 2.13889 -3.10695 0
M  V30 5398 H 487.243 2.05411 -2.11873 0
M  V30 5399 H 487.324 0.336457 -2.53578 0
M  V30 5400 H 486.968 0.938824 -4.99148 0
M  V30 5401 H 486.898 2.66174 -4.54377 0
M  V30 5402 H 489.389 1.55097 -3.44606 0
M  V30 5403 H 489.702 2.59112 -7.28066 0
M  V30 5404 H 488.047 2.33681 -6.54536 0
M  V30 5405 H 491.238 1.84403 -4.30248 0
M  V30 5406 H 491.411 2.31856 -6.05101 0
M  V30 5407 N 484.817 1.37938 0.762283 0
M  V30 5408 C 485.78 1.34279 1.85747 0
M  V30 5409 C 486.78 0.244969 1.58923 0
M  V30 5410 O 487.97 0.501365 1.66829 0
M  V30 5411 C 485.102 1.08833 3.23061 0
M  V30 5412 H 486.295 2.31705 1.90401 0
M  V30 5413 H 483.848 1.23105 0.963057 0
M  V30 5414 H 484.583 0.119767 3.24079 0
M  V30 5415 H 484.368 1.88306 3.43923 0
M  V30 5416 H 485.858 1.08946 4.03138 0
M  V30 5417 N 486.295 -0.989507 1.22664 0
M  V30 5418 C 487.523 -1.76496 1.07967 0
M  V30 5419 C 487.938 -1.85148 -0.369543 0
M  V30 5420 O 487.295 -1.32408 -1.25596 0
M  V30 5421 C 487.346 -3.19642 1.68853 0
M  V30 5422 O 487.067 -3.11453 3.08105 0
M  V30 5423 C 488.568 -4.13621 1.59475 0
M  V30 5424 H 485.788 -0.55418 0.378319 0
M  V30 5425 H 488.332 -1.24378 1.62328 0
M  V30 5426 H 486.487 -3.68816 1.18547 0
M  V30 5427 H 486.901 -4.01499 3.37489 0
M  V30 5428 H 488.375 -5.11801 2.06795 0
M  V30 5429 H 488.852 -4.35718 0.55191 0
M  V30 5430 H 489.458 -3.70346 2.09103 0
M  V30 5431 N 487.773 -1.03688 -1.18687 0
M  V30 5432 C 488.705 -0.582696 -2.21669 0
M  V30 5433 C 489.718 0.345656 -1.59088 0
M  V30 5434 O 490.907 0.140776 -1.77944 0
M  V30 5435 C 488.007 0.169204 -3.38477 0
M  V30 5436 C 487.18 -0.766079 -4.30639 0
M  V30 5437 C 486.239 -0.0581541 -5.26168 0
M  V30 5438 O 485.265 -0.687346 -5.65035 0
M  V30 5439 N 486.467 1.20981 -5.67753 0
M  V30 5440 H 489.232 -1.46843 -2.61261 0
M  V30 5441 H 486.793 -0.916896 -1.33434 0
M  V30 5442 H 488.785 0.652543 -3.99405 0
M  V30 5443 H 487.355 0.956435 -2.97609 0
M  V30 5444 H 486.575 -1.42935 -3.67373 0
M  V30 5445 H 487.863 -1.40146 -4.89118 0
M  V30 5446 H 487.261 1.74159 -5.38224 0
M  V30 5447 H 485.818 1.6375 -6.30896 0
M  V30 5448 N 489.251 1.34841 -0.815825 0
M  V30 5449 C 490.499 1.98107 -0.399744 0
M  V30 5450 C 490.82 1.65019 1.03894 0
M  V30 5451 O 490.09 0.937311 1.72021 0
M  V30 5452 H 488.67 0.732827 -0.144823 0
M  V30 5453 H 491.332 1.64599 -1.0437 0
M  V30 5454 H 490.428 3.07856 -0.512965 0
M  V30 5455 N 490.729 0.570148 1.46925 0
M  V30 5456 C 491.692 -0.159933 2.28641 0
M  V30 5457 C 492.692 -0.830638 1.37685 0
M  V30 5458 O 493.882 -0.684516 1.60187 0
M  V30 5459 C 491.014 -1.2354 3.17727 0
M  V30 5460 H 492.207 0.558035 2.94662 0
M  V30 5461 H 489.76 0.327603 1.52828 0
M  V30 5462 H 490.495 -1.98535 2.56426 0
M  V30 5463 H 490.28 -0.759125 3.84681 0
M  V30 5464 H 491.77 -1.74782 3.79264 0
M  V30 5465 N 492.207 -1.54576 0.307264 0
M  V30 5466 C 493.437 -2.04378 -0.302158 0
M  V30 5467 C 493.845 -1.18381 -1.47589 0
M  V30 5468 O 493.188 -0.20352 -1.82569 0
M  V30 5469 C 493.25 -3.50133 -0.815305 0
M  V30 5470 C 492.914 -4.56401 0.233977 0
M  V30 5471 C 493.911 -5.08884 1.06456 0
M  V30 5472 C 491.596 -5.0088 0.377478 0
M  V30 5473 C 493.59 -6.04394 2.02452 0
M  V30 5474 C 491.277 -5.96208 1.34088 0
M  V30 5475 C 492.275 -6.47849 2.16288 0
M  V30 5476 O 491.963 -7.41308 3.10994 0
M  V30 5477 H 491.695 -0.672502 -0.0686839 0
M  V30 5478 H 494.249 -2.00484 0.446682 0
M  V30 5479 H 492.479 -3.51371 -1.61478 0
M  V30 5480 H 494.168 -3.83098 -1.34129 0
M  V30 5481 H 494.934 -4.75311 0.964596 0
M  V30 5482 H 490.813 -4.60309 -0.252405 0
M  V30 5483 H 494.357 -6.44626 2.66652 0
M  V30 5484 H 490.254 -6.29198 1.44154 0
M  V30 5485 H 491.022 -7.5913 3.06045 0
M  V30 5486 N 493.685 -0.035106 -1.57561 0
M  V30 5487 C 495.096 0.502885 -1.798 0
M  V30 5488 C 495.447 1.71892 -0.945921 0
M  V30 5489 O 494.572 2.15822 -0.157991 0
M  V30 5490 C 495.167 0.919097 -3.26095 0
M  V30 5491 C 493.726 1.40216 -3.49308 0
M  V30 5492 C 492.873 0.369709 -2.74824 0
M  V30 5493 H 495.824 -0.261102 -1.56537 0
M  V30 5494 H 495.845 1.78308 -3.36135 0
M  V30 5495 H 495.357 0.0338526 -3.88085 0
M  V30 5496 H 493.458 2.30714 -2.92578 0
M  V30 5497 H 493.571 1.40541 -4.58023 0
M  V30 5498 H 491.935 0.839113 -2.40481 0
M  V30 5499 H 492.718 -0.507173 -3.39533 0
M  V30 5500 N 495.163 1.55791 0.238111 0
M  V30 5501 C 496.574 1.68383 0.806472 0
M  V30 5502 C 496.925 0.634157 1.85669 0
M  V30 5503 O 496.05 -0.217913 2.153 0
M  V30 5504 C 496.645 3.05268 1.46959 0
M  V30 5505 C 495.204 3.1977 1.98555 0
M  V30 5506 C 494.351 2.64279 0.839763 0
M  V30 5507 H 497.302 1.58694 0.0137535 0
M  V30 5508 H 497.323 3.00203 2.33792 0
M  V30 5509 H 496.835 3.81643 0.704993 0
M  V30 5510 H 494.936 2.48234 2.77868 0
M  V30 5511 H 495.049 4.26788 2.17689 0
M  V30 5512 H 493.413 2.22329 1.24265 0
M  V30 5513 H 494.196 3.43187 0.0881032 0
M  V30 5514 N 496.642 -0.504142 1.49319 0
M  V30 5515 C 497.605 -1.5883 1.65244 0
M  V30 5516 C 498.605 -1.52009 0.524386 0
M  V30 5517 O 499.795 -1.55218 0.79077 0
M  V30 5518 C 496.927 -2.98481 1.64687 0
M  V30 5519 H 498.12 -1.4604 2.61939 0
M  V30 5520 H 495.673 -0.728144 1.38303 0
M  V30 5521 H 496.408 -3.16751 0.695644 0
M  V30 5522 H 496.193 -3.0484 2.46607 0
M  V30 5523 H 497.683 -3.77256 1.79075 0
M  V30 5524 N 498.12 -1.38341 -0.754957 0
M  V30 5525 C 499.345 -1.37882 -1.5493 0
M  V30 5526 C 499.77 0.0296385 -1.88077 0
M  V30 5527 O 499.128 1.01133 -1.50472 0
M  V30 5528 C 499.176 -2.23996 -2.82592 0
M  V30 5529 O 498.28 -1.65612 -3.77686 0
M  V30 5530 H 497.621 -0.470384 -0.468652 0
M  V30 5531 H 500.151 -1.82084 -0.933082 0
M  V30 5532 H 500.161 -2.37806 -3.3153 0
M  V30 5533 H 498.836 -3.26365 -2.57796 0
M  V30 5534 H 497.413 -1.60936 -3.36384 0
M  V30 5535 N 499.598 0.982988 -1.23187 0
M  V30 5536 C 500.826 1.75921 -1.08901 0
M  V30 5537 C 501.241 1.85341 0.359719 0
M  V30 5538 O 500.598 1.33072 1.24892 0
M  V30 5539 C 500.649 3.18742 -1.70545 0
M  V30 5540 O 500.37 3.09814 -3.09753 0
M  V30 5541 C 501.871 4.1277 -1.61667 0
M  V30 5542 H 499.091 0.552166 -0.381252 0
M  V30 5543 H 501.635 1.23516 -1.62985 0
M  V30 5544 H 499.79 3.68182 -1.20501 0
M  V30 5545 H 500.204 3.99703 -3.39614 0
M  V30 5546 H 501.678 5.10697 -2.09506 0
M  V30 5547 H 502.155 4.3542 -0.575009 0
M  V30 5548 H 502.761 3.69232 -2.11064 0
M  V30 5549 N 501.076 1.04316 1.18135 0
M  V30 5550 C 502.322 0.749128 1.88457 0
M  V30 5551 C 502.655 -0.72149 1.803 0
M  V30 5552 O 501.93 -1.52676 1.205 0
M  V30 5553 C 502.213 1.21905 3.38838 0
M  V30 5554 C 502.066 2.75195 3.55792 0
M  V30 5555 C 503.385 0.811085 4.32561 0
M  V30 5556 H 500.504 0.273611 0.684329 0
M  V30 5557 H 503.146 1.29561 1.38975 0
M  V30 5558 H 501.296 0.754137 3.8111 0
M  V30 5559 H 502.968 3.29743 3.22595 0
M  V30 5560 H 501.211 3.14899 2.98364 0
M  V30 5561 H 501.882 3.03135 4.61317 0
M  V30 5562 H 504.358 1.21118 3.98082 0
M  V30 5563 H 503.234 1.16761 5.36338 0
M  V30 5564 H 503.495 -0.285596 4.41177 0
M  V30 5565 N 502.554 -1.34406 0.822964 0
M  V30 5566 C 503.501 -2.29519 0.24284 0
M  V30 5567 C 504.471 -1.5359 -0.632397 0
M  V30 5568 O 505.656 -1.8196 -0.57403 0
M  V30 5569 C 502.796 -3.40032 -0.58925 0
M  V30 5570 C 501.909 -4.30899 0.308236 0
M  V30 5571 C 501.044 -5.28515 -0.533425 0
M  V30 5572 C 500.083 -6.1102 0.363444 0
M  V30 5573 N 499.22 -7.00725 -0.439147 0
M  V30 5574 H 504.06 -2.78537 1.05929 0
M  V30 5575 H 501.597 -1.3707 0.533872 0
M  V30 5576 H 503.555 -4.0279 -1.087 0
M  V30 5577 H 502.185 -2.92248 -1.37081 0
M  V30 5578 H 501.237 -3.69002 0.924203 0
M  V30 5579 H 502.549 -4.88717 0.997862 0
M  V30 5580 H 501.703 -5.96725 -1.09565 0
M  V30 5581 H 500.442 -4.71235 -1.25656 0
M  V30 5582 H 499.447 -5.41743 0.937812 0
M  V30 5583 H 500.672 -6.70381 1.08469 0
M  V30 5584 H 498.618 -6.45913 -1.14595 0
M  V30 5585 H 498.535 -7.55756 0.19209 0
M  V30 5586 H 499.803 -7.73263 -0.984124 0
M  V30 5587 N 504.032 -0.577932 -1.46621 0
M  V30 5588 C 505.443 -0.150071 -1.86096 0
M  V30 5589 C 505.794 1.28563 -1.48209 0
M  V30 5590 O 504.919 1.97036 -0.894754 0
M  V30 5591 C 505.514 -0.265576 -3.37758 0
M  V30 5592 C 504.073 0.10738 -3.76247 0
M  V30 5593 C 503.22 -0.603711 -2.70649 0
M  V30 5594 H 506.171 -0.786438 -1.37844 0
M  V30 5595 H 506.192 0.510352 -3.77062 0
M  V30 5596 H 505.704 -1.3106 -3.65301 0
M  V30 5597 H 503.805 1.15272 -3.54321 0
M  V30 5598 H 503.918 -0.26561 -4.78363 0
M  V30 5599 H 502.282 -0.0444884 -2.54661 0
M  V30 5600 H 503.065 -1.65029 -3.01032 0
M  V30 5601 N 505.51 1.54411 -0.315457 0
M  V30 5602 C 506.757 2.00419 0.289543 0
M  V30 5603 C 507.085 1.20373 1.52776 0
M  V30 5604 O 506.34 0.271769 1.93804 0
M  V30 5605 C 506.639 3.50936 0.676652 0
M  V30 5606 C 506.305 4.48532 -0.461472 0
M  V30 5607 C 504.967 4.74936 -0.773879 0
M  V30 5608 C 507.319 5.06567 -1.22637 0
M  V30 5609 C 504.647 5.56634 -1.85405 0
M  V30 5610 C 506.999 5.89441 -2.29657 0
M  V30 5611 C 505.663 6.1415 -2.61488 0
M  V30 5612 H 504.933 0.733386 0.105951 0
M  V30 5613 H 507.58 1.86434 -0.437554 0
M  V30 5614 H 505.885 3.62606 1.48405 0
M  V30 5615 H 507.582 3.83971 1.15618 0
M  V30 5616 H 504.172 4.28096 -0.207893 0
M  V30 5617 H 508.356 4.86157 -0.998271 0
M  V30 5618 H 503.612 5.74012 -2.10523 0
M  V30 5619 H 507.786 6.33432 -2.89374 0
M  V30 5620 H 505.413 6.77245 -3.45317 0
M  V30 5621 N 506.988 0.0434614 1.5754 0
M  V30 5622 C 508.237 -0.631454 1.91561 0
M  V30 5623 C 508.55 -1.72457 0.92292 0
M  V30 5624 O 509.756 -2.45712 1.15489 0
M  V30 5625 C 508.212 -1.17447 3.40197 0
M  V30 5626 C 507.82 -0.113867 4.47855 0
M  V30 5627 C 509.564 -1.82507 3.83264 0
M  V30 5628 C 507.471 -0.669326 5.876 0
M  V30 5629 H 506.401 -0.239629 0.714908 0
M  V30 5630 H 509.052 0.111097 1.83163 0
M  V30 5631 H 507.434 -1.96909 3.43574 0
M  V30 5632 H 508.608 0.659348 4.56058 0
M  V30 5633 H 506.923 0.438821 4.14081 0
M  V30 5634 H 509.52 -2.25047 4.85034 0
M  V30 5635 H 509.863 -2.67365 3.19095 0
M  V30 5636 H 510.396 -1.09712 3.82372 0
M  V30 5637 H 507.135 0.141449 6.55347 0
M  V30 5638 H 506.655 -1.4107 5.82974 0
M  V30 5639 H 508.334 -1.15463 6.36614 0
M  V30 5640 N 508.466 -1.55915 -0.229846 0
M  V30 5641 C 509.429 -1.90914 -1.26824 0
M  V30 5642 C 510.429 -0.786999 -1.40225 0
M  V30 5643 O 511.619 -1.05484 -1.38632 0
M  V30 5644 C 508.751 -2.15264 -2.64337 0
M  V30 5645 H 509.944 -2.8378 -0.969998 0
M  V30 5646 H 507.497 -1.49069 -0.4699 0
M  V30 5647 H 508.232 -1.24923 -2.99274 0
M  V30 5648 H 508.017 -2.97005 -2.55989 0
M  V30 5649 H 509.507 -2.43467 -3.39284 0
M  V30 5650 N 509.944 0.496216 -1.49584 0
M  V30 5651 C 511.19 1.25189 -1.59548 0
M  V30 5652 C 511.523 1.9212 -0.283466 0
M  V30 5653 O 510.798 1.80947 0.713324 0
M  V30 5654 C 511.081 2.31516 -2.75812 0
M  V30 5655 C 510.934 1.69054 -4.16822 0
M  V30 5656 C 512.253 3.3304 -2.87702 0
M  V30 5657 H 509.372 0.45379 -0.580727 0
M  V30 5658 H 512.014 0.549327 -1.81886 0
M  V30 5659 H 510.164 2.91438 -2.56897 0
M  V30 5660 H 511.836 1.12923 -4.47265 0
M  V30 5661 H 510.079 0.994485 -4.22247 0
M  V30 5662 H 510.75 2.462 -4.94054 0
M  V30 5663 H 513.226 2.83114 -3.04936 0
M  V30 5664 H 512.102 4.04794 -3.7072 0
M  V30 5665 H 512.363 3.95655 -1.97255 0
M  V30 5666 N 511.423 1.38739 0.74761 0
M  V30 5667 C 512.386 1.36241 1.84312 0
M  V30 5668 C 513.386 0.261811 1.58654 0
M  V30 5669 O 514.576 0.519031 1.66288 0
M  V30 5670 C 511.708 1.12253 3.21888 0
M  V30 5671 H 512.901 2.33712 1.87933 0
M  V30 5672 H 510.454 1.2412 0.949946 0
M  V30 5673 H 511.189 0.154133 3.23934 0
M  V30 5674 H 510.974 1.91943 3.41907 0
M  V30 5675 H 512.464 1.13215 4.0196 0
M  V30 5676 N 512.901 -0.976442 1.23707 0
M  V30 5677 C 513.864 -2.0511 1.02287 0
M  V30 5678 C 514.864 -1.60791 -0.0167195 0
M  V30 5679 O 516.054 -1.72761 0.223408 0
M  V30 5680 C 513.186 -3.36458 0.548507 0
M  V30 5681 H 514.379 -2.25545 1.9766 0
M  V30 5682 H 511.932 -1.15042 1.05806 0
M  V30 5683 H 512.667 -3.21713 -0.408818 0
M  V30 5684 H 512.452 -3.69967 1.29874 0
M  V30 5685 H 513.942 -4.15489 0.419406 0
M  V30 5686 N 514.379 -1.04941 -1.1758 0
M  V30 5687 C 515.311 -0.606174 -2.21039 0
M  V30 5688 C 516.324 0.328763 -1.59446 0
M  V30 5689 O 517.513 0.121895 -1.78083 0
M  V30 5690 C 514.613 0.133294 -3.38638 0
M  V30 5691 C 513.786 -0.811711 -4.29802 0
M  V30 5692 C 512.845 -0.113958 -5.26077 0
M  V30 5693 O 511.871 -0.747237 -5.64274 0
M  V30 5694 N 513.073 1.14953 -5.69004 0
M  V30 5695 H 515.838 -1.49606 -2.59689 0
M  V30 5696 H 513.399 -0.930997 -1.32454 0
M  V30 5697 H 515.391 0.610144 -4.00074 0
M  V30 5698 H 513.961 0.924816 -2.98607 0
M  V30 5699 H 513.181 -1.46824 -3.65837 0
M  V30 5700 H 514.469 -1.45326 -4.87604 0
M  V30 5701 H 513.867 1.68441 -5.40041 0
M  V30 5702 H 512.424 1.57049 -6.32597 0
M  V30 5703 N 515.857 1.33968 -0.830081 0
M  V30 5704 C 517.085 2.0228 -0.434773 0
M  V30 5705 C 517.5 1.62487 0.961419 0
M  V30 5706 O 516.857 0.833849 1.62337 0
M  V30 5707 C 516.908 3.5751 -0.535625 0
M  V30 5708 O 516.629 3.95864 -1.87679 0
M  V30 5709 C 518.13 4.43091 -0.136137 0
M  V30 5710 H 515.35 0.648151 -0.173613 0
M  V30 5711 H 517.894 1.71089 -1.12022 0
M  V30 5712 H 516.049 3.87266 0.101817 0
M  V30 5713 H 516.463 4.9056 -1.85609 0
M  V30 5714 H 517.937 5.51398 -0.257772 0
M  V30 5715 H 518.414 4.29433 0.921076 0
M  V30 5716 H 519.02 4.18677 -0.747662 0
M  V30 5717 N 517.335 0.585699 1.46312 0
M  V30 5718 C 518.245 -0.148236 2.34131 0
M  V30 5719 C 519.261 -0.882972 1.49932 0
M  V30 5720 O 520.437 -0.845484 1.82794 0
M  V30 5721 C 517.502 -1.14714 3.27172 0
M  V30 5722 C 516.563 -0.416746 4.27272 0
M  V30 5723 C 515.796 -1.36806 5.15868 0
M  V30 5724 O 516.019 -2.60475 5.07454 0
M  V30 5725 O 514.953 -0.877018 5.95476 0
M  V30 5726 H 518.779 0.572882 2.98248 0
M  V30 5727 H 516.364 0.346082 1.45336 0
M  V30 5728 H 518.246 -1.72303 3.84564 0
M  V30 5729 H 516.921 -1.84967 2.65648 0
M  V30 5730 H 515.828 0.201061 3.73559 0
M  V30 5731 H 517.161 0.244872 4.9159 0
M  V30 5732 N 518.813 -1.54241 0.323641 0
M  V30 5733 C 519.761 -2.25813 -0.557804 0
M  V30 5734 C 520.755 -1.27225 -1.11849 0
M  V30 5735 O 521.961 -1.45001 -1.06652 0
M  V30 5736 H 518.336 -0.72532 -0.198532 0
M  V30 5737 H 520.307 -2.98322 0.0681112 0
M  V30 5738 C 519.056 -3.02913 -1.70701 0
M  V30 5739 H 518.379 -3.78593 -1.28482 0
M  V30 5740 H 519.819 -3.56238 -2.29935 0
M  V30 5741 C 518.278 -2.11217 -2.62467 0
M  V30 5742 O 518.808 -1.69508 -3.64184 0
M  V30 5743 N 517.014 -1.76704 -2.30703 0
M  V30 5744 H 516.561 -2.1082 -1.48029 0
M  V30 5745 H 516.519 -1.15631 -2.92364 0
M  V30 5746 N 520.291 -0.0518155 -1.57515 0
M  V30 5747 C 521.537 0.622745 -1.93002 0
M  V30 5748 C 521.87 1.70456 -0.930499 0
M  V30 5749 O 521.145 1.94452 0.0434086 0
M  V30 5750 C 521.428 1.21824 -3.38867 0
M  V30 5751 C 521.281 0.144434 -4.49568 0
M  V30 5752 C 522.6 2.12968 -3.8514 0
M  V30 5753 H 519.719 0.22491 -0.701844 0
M  V30 5754 H 522.361 -0.113711 -1.89659 0
M  V30 5755 H 520.511 1.8459 -3.41846 0
M  V30 5756 H 522.183 -0.48753 -4.58717 0
M  V30 5757 H 520.426 -0.527424 -4.30582 0
M  V30 5758 H 521.097 0.601127 -5.48717 0
M  V30 5759 H 523.573 1.60163 -3.8404 0
M  V30 5760 H 522.449 2.51578 -4.87852 0
M  V30 5761 H 522.71 3.03004 -3.21934 0
M  V30 5762 N 521.769 1.56035 0.221574 0
M  V30 5763 C 523.018 1.78245 0.944016 0
M  V30 5764 C 523.331 0.620371 1.85501 0
M  V30 5765 O 524.537 0.726103 2.6161 0
M  V30 5766 C 522.993 3.15659 1.7288 0
M  V30 5767 C 522.601 4.39591 0.863942 0
M  V30 5768 C 524.345 3.47195 2.44246 0
M  V30 5769 C 522.252 5.6803 1.64607 0
M  V30 5770 H 521.182 0.664547 0.356222 0
M  V30 5771 H 523.833 1.8243 0.197904 0
M  V30 5772 H 522.215 3.0565 2.51781 0
M  V30 5773 H 523.389 4.60655 0.115464 0
M  V30 5774 H 521.704 4.15572 0.262407 0
M  V30 5775 H 524.301 4.40381 3.03263 0
M  V30 5776 H 524.644 2.69693 3.1713 0
M  V30 5777 H 525.177 3.58533 1.72334 0
M  V30 5778 H 521.916 6.48425 0.960507 0
M  V30 5779 H 521.436 5.51027 2.36917 0
M  V30 5780 H 523.115 6.08203 2.20675 0
M  V30 5781 N 523.247 -0.488276 1.49845 0
M  V30 5782 C 524.475 -1.26527 1.63702 0
M  V30 5783 C 524.89 -1.8618 0.313447 0
M  V30 5784 O 524.247 -1.68432 -0.702624 0
M  V30 5785 C 524.298 -2.3864 2.71538 0
M  V30 5786 O 524.019 -1.81437 3.98763 0
M  V30 5787 C 525.52 -3.29805 2.96215 0
M  V30 5788 H 522.74 -0.383295 0.55075 0
M  V30 5789 H 525.284 -0.584779 1.95961 0
M  V30 5790 H 523.439 -3.02496 2.42023 0
M  V30 5791 H 523.853 -2.55135 4.58265 0
M  V30 5792 H 525.327 -4.04722 3.75372 0
M  V30 5793 H 525.804 -3.87563 2.06619 0
M  V30 5794 H 526.41 -2.71703 3.27196 0
M  V30 5795 N 524.725 -1.39134 -0.740242 0
M  V30 5796 C 526.136 -1.32208 -1.31825 0
M  V30 5797 C 526.487 0.0159919 -1.96193 0
M  V30 5798 O 525.612 0.918111 -1.95958 0
M  V30 5799 C 526.207 -2.39436 -2.39699 0
M  V30 5800 C 524.766 -2.36048 -2.93187 0
M  V30 5801 C 523.913 -2.21599 -1.66701 0
M  V30 5802 H 526.864 -1.49298 -0.538133 0
M  V30 5803 H 526.885 -2.05922 -3.19963 0
M  V30 5804 H 526.397 -3.36811 -1.92821 0
M  V30 5805 H 524.498 -1.42295 -3.44359 0
M  V30 5806 H 524.611 -3.30704 -3.46658 0
M  V30 5807 H 522.975 -1.68681 -1.90837 0
M  V30 5808 H 523.758 -3.20936 -1.21882 0
M  V30 5809 N 526.204 0.969867 -1.24223 0
M  V30 5810 C 527.152 2.08535 -1.03034 0
M  V30 5811 C 528.146 1.69366 0.0340379 0
M  V30 5812 O 529.352 1.79597 -0.12034 0
M  V30 5813 H 525.727 0.682313 -0.316154 0
M  V30 5814 H 527.698 2.23569 -1.97635 0
M  V30 5815 C 526.447 3.4158 -0.649509 0
M  V30 5816 H 525.77 3.72177 -1.46028 0
M  V30 5817 H 527.21 4.20536 -0.540841 0
M  V30 5818 C 525.669 3.30703 0.643194 0
M  V30 5819 O 526.199 3.64443 1.68951 0
M  V30 5820 N 524.405 2.83841 0.623095 0
M  V30 5821 H 523.952 2.56583 -0.228719 0
M  V30 5822 H 523.91 2.76946 1.48823 0
M  V30 5823 N 527.682 1.05563 1.17022 0
M  V30 5824 C 528.91 0.78845 1.91288 0
M  V30 5825 C 529.325 -0.656318 1.77025 0
M  V30 5826 O 528.682 -1.44869 1.10992 0
M  V30 5827 C 528.733 1.16444 3.42232 0
M  V30 5828 O 528.454 2.5525 3.5606 0
M  V30 5829 C 529.955 0.923937 4.33565 0
M  V30 5830 H 527.175 0.286389 0.606813 0
M  V30 5831 H 529.719 1.4073 1.48375 0
M  V30 5832 H 527.874 0.590266 3.82877 0
M  V30 5833 H 528.288 2.70097 4.49609 0
M  V30 5834 H 529.762 1.23672 5.37968 0
M  V30 5835 H 530.239 -0.140688 4.38975 0
M  V30 5836 H 530.845 1.48214 3.98639 0
M  V30 5837 N 529.16 -1.33526 0.837174 0
M  V30 5838 C 530.388 -2.02047 0.445494 0
M  V30 5839 C 530.803 -1.62995 -0.952788 0
M  V30 5840 O 530.16 -0.842447 -1.61892 0
M  V30 5841 C 530.211 -3.57221 0.554577 0
M  V30 5842 O 529.932 -3.94863 1.89776 0
M  V30 5843 C 531.433 -4.43012 0.159634 0
M  V30 5844 H 528.653 -0.647221 0.177048 0
M  V30 5845 H 531.197 -1.70492 1.12928 0
M  V30 5846 H 529.352 -3.87315 -0.0812781 0
M  V30 5847 H 529.766 -4.89569 1.88208 0
M  V30 5848 H 531.24 -5.51253 0.28701 0
M  V30 5849 H 531.717 -4.29916 -0.898289 0
M  V30 5850 H 532.323 -4.18274 0.769855 0
M  V30 5851 N 530.638 -0.59345 -1.46 0
M  V30 5852 C 531.887 -0.0808084 -2.01538 0
M  V30 5853 C 532.2 1.29112 -1.46934 0
M  V30 5854 O 533.406 1.8957 -1.94359 0
M  V30 5855 C 531.862 -0.0938311 -3.59778 0
M  V30 5856 C 531.47 -1.46474 -4.23379 0
M  V30 5857 C 533.214 0.364306 -4.22934 0
M  V30 5858 C 531.121 -1.4349 -5.73729 0
M  V30 5859 H 530.051 -0.0264407 -0.753536 0
M  V30 5860 H 532.702 -0.746689 -1.67621 0
M  V30 5861 H 531.084 0.638427 -3.9082 0
M  V30 5862 H 532.258 -2.21758 -4.03931 0
M  V30 5863 H 530.573 -1.86379 -3.7236 0
M  V30 5864 H 533.17 0.405584 -5.3316 0
M  V30 5865 H 533.513 1.38409 -3.92618 0
M  V30 5866 H 534.046 -0.31423 -3.96557 0
M  V30 5867 H 530.785 -2.43184 -6.08722 0
M  V30 5868 H 530.305 -0.724431 -5.95409 0
M  V30 5869 H 531.984 -1.15243 -6.36654 0
M  V30 5870 N 532.116 1.54067 -0.331816 0
M  V30 5871 C 533.363 2.00715 0.268269 0
M  V30 5872 C 533.691 1.21986 1.51491 0
M  V30 5873 O 532.946 0.292309 1.93505 0
M  V30 5874 C 533.245 3.51634 0.639392 0
M  V30 5875 C 532.911 4.48018 -0.509019 0
M  V30 5876 C 531.573 4.74089 -0.824209 0
M  V30 5877 C 533.925 5.05237 -1.28003 0
M  V30 5878 C 531.253 5.54637 -1.91298 0
M  V30 5879 C 533.605 5.86972 -2.35895 0
M  V30 5880 C 532.269 6.11342 -2.67987 0
M  V30 5881 H 531.539 0.734469 0.0981667 0
M  V30 5882 H 534.186 1.8596 -0.457304 0
M  V30 5883 H 532.491 3.6416 1.44551 0
M  V30 5884 H 534.188 3.85175 1.11539 0
M  V30 5885 H 530.778 4.27851 -0.253287 0
M  V30 5886 H 534.962 4.8507 -1.04978 0
M  V30 5887 H 530.218 5.71747 -2.16599 0
M  V30 5888 H 534.392 6.30327 -2.96076 0
M  V30 5889 H 532.019 6.73544 -3.5248 0
M  V30 5890 N 533.594 0.0601682 1.57485 0
M  V30 5891 C 534.871 -0.651956 1.84415 0
M  V30 5892 C 535.251 -1.88498 0.950361 0
M  V30 5893 O 534.599 -2.28496 0.0136719 0
M  V30 5894 C 534.809 -1.00069 3.34346 0
M  V30 5895 C 536.157 -1.37915 4.01578 0
M  V30 5896 O 537.181 -1.09277 3.39024 0
M  V30 5897 O 536.04 -1.91399 5.11887 0
M  V30 5898 H 533.134 -0.322668 0.761455 0
M  V30 5899 H 535.68 0.0902159 1.6946 0
M  V30 5900 H 534.452 -0.124463 3.91102 0
M  V30 5901 H 534.075 -1.80001 3.54521 0
M  V30 5902 N 535.072 -1.5615 -0.213296 0
M  V30 5903 C 536.483 -1.69645 -0.779582 0
M  V30 5904 C 536.834 -0.663615 -1.84636 0
M  V30 5905 O 535.959 0.183633 -2.15619 0
M  V30 5906 C 536.554 -3.07567 -1.42084 0
M  V30 5907 C 535.113 -3.22889 -1.93442 0
M  V30 5908 C 534.26 -2.65581 -0.797612 0
M  V30 5909 H 537.211 -1.58696 0.0114951 0
M  V30 5910 H 537.232 -3.03884 -2.28986 0
M  V30 5911 H 536.744 -3.82716 -0.644187 0
M  V30 5912 H 534.845 -2.52623 -2.73884 0
M  V30 5913 H 534.958 -4.30197 -2.10872 0
M  V30 5914 H 533.322 -2.24278 -1.20712 0
M  V30 5915 H 534.105 -3.43284 -0.033494 0
M  V30 5916 N 536.55 0.480323 -1.50102 0
M  V30 5917 C 537.798 1.23063 -1.60312 0
M  V30 5918 C 538.119 1.92659 -0.301226 0
M  V30 5919 O 537.389 1.83691 0.680753 0
M  V30 5920 H 535.969 0.457231 -0.590719 0
M  V30 5921 H 538.631 0.554893 -1.86834 0
M  V30 5922 H 537.727 1.9835 -2.40964 0
M  V30 5923 N 538.028 1.39524 0.732853 0
M  V30 5924 C 539.258 1.3994 1.51988 0
M  V30 5925 C 539.666 -0.00727973 1.89199 0
M  V30 5926 O 539.009 -0.989521 1.54771 0
M  V30 5927 C 539.071 2.21026 2.83527 0
M  V30 5928 C 538.735 3.69633 2.68738 0
M  V30 5929 C 539.732 4.62665 2.37143 0
M  V30 5930 C 537.417 4.13244 2.85542 0
M  V30 5931 C 539.411 5.97291 2.22536 0
M  V30 5932 C 537.098 5.47945 2.70554 0
M  V30 5933 C 538.096 6.39783 2.39097 0
M  V30 5934 O 537.784 7.72002 2.24204 0
M  V30 5935 H 537.516 0.479795 0.476206 0
M  V30 5936 H 540.07 1.8399 0.913054 0
M  V30 5937 H 538.3 1.71728 3.46477 0
M  V30 5938 H 539.989 2.13594 3.45156 0
M  V30 5939 H 540.755 4.30272 2.2381 0
M  V30 5940 H 536.634 3.42094 3.09019 0
M  V30 5941 H 540.178 6.68939 1.97905 0
M  V30 5942 H 536.075 5.79928 2.83466 0
M  V30 5943 H 536.843 7.8275 2.39258 0
M  V30 5944 N 539.506 -0.963266 1.24736 0
M  V30 5945 C 540.752 -1.71 1.10139 0
M  V30 5946 C 541.107 -1.89089 -0.35541 0
M  V30 5947 O 540.4 -1.44451 -1.25875 0
M  V30 5948 C 540.594 -3.09944 1.7796 0
M  V30 5949 C 540.423 -3.05408 3.30085 0
M  V30 5950 C 539.193 -3.09643 3.99311 0
M  V30 5951 C 541.391 -2.87241 4.26611 0
M  V30 5952 N 539.373 -2.95174 5.3828 0
M  V30 5953 C 540.744 -2.81114 5.52607 0
M  V30 5954 C 542.799 -2.71856 4.17132 0
M  V30 5955 C 541.502 -2.61174 6.70209 0
M  V30 5956 C 543.528 -2.53284 5.34417 0
M  V30 5957 C 542.89 -2.4787 6.59348 0
M  V30 5958 H 538.989 -0.634078 0.457678 0
M  V30 5959 H 541.573 -1.14169 1.57713 0
M  V30 5960 H 539.744 -3.64958 1.32893 0
M  V30 5961 H 541.476 -3.73348 1.56183 0
M  V30 5962 H 538.231 -3.18498 3.50508 0
M  V30 5963 H 538.655 -2.91168 6.11188 0
M  V30 5964 H 543.297 -2.74821 3.21299 0
M  V30 5965 H 541.015 -2.56952 7.6616 0
M  V30 5966 H 544.601 -2.42317 5.28936 0
M  V30 5967 H 543.481 -2.33685 7.48573 0
M  V30 5968 N 540.985 -1.06182 -1.16461 0
M  V30 5969 C 542.231 -0.779015 -1.87241 0
M  V30 5970 C 542.564 0.692715 -1.81425 0
M  V30 5971 O 541.839 1.5074 -1.22913 0
M  V30 5972 C 542.122 -1.2728 -3.36856 0
M  V30 5973 C 541.975 -2.80821 -3.51368 0
M  V30 5974 C 543.294 -0.879799 -4.31216 0
M  V30 5975 H 540.413 -0.284464 -0.679889 0
M  V30 5976 H 543.055 -1.31755 -1.36896 0
M  V30 5977 H 541.205 -0.814673 -3.79862 0
M  V30 5978 H 542.877 -3.34833 -3.17308 0
M  V30 5979 H 541.12 -3.19606 -2.93316 0
M  V30 5980 H 541.791 -3.10435 -4.56436 0
M  V30 5981 H 544.267 -1.27436 -3.96105 0
M  V30 5982 H 543.143 -1.25278 -5.34412 0
M  V30 5983 H 543.404 0.215372 -4.41575 0
M  V30 5984 N 542.463 1.3308 -0.844243 0
M  V30 5985 C 543.393 2.3161 -0.296493 0
M  V30 5986 C 544.374 1.59215 0.598707 0
M  V30 5987 O 545.559 1.87077 0.521134 0
M  V30 5988 C 542.689 3.43313 0.524762 0
M  V30 5989 C 541.643 4.27115 -0.275106 0
M  V30 5990 C 540.969 5.30483 0.670236 0
M  V30 5991 C 542.269 5.00443 -1.49514 0
M  V30 5992 H 543.963 2.77672 -1.11976 0
M  V30 5993 H 541.509 1.33496 -0.539899 0
M  V30 5994 H 543.462 4.11273 0.918298 0
M  V30 5995 H 542.186 2.95952 1.3813 0
M  V30 5996 H 540.845 3.60787 -0.650267 0
M  V30 5997 H 540.493 4.79379 1.52332 0
M  V30 5998 H 540.193 5.87435 0.139123 0
M  V30 5999 H 541.717 6.01308 1.06117 0
M  V30 6000 H 543.131 5.61141 -1.17447 0
M  V30 6001 H 541.528 5.67071 -1.96343 0
M  V30 6002 H 542.598 4.28906 -2.26202 0
M  V30 6003 N 543.941 0.601185 1.45683 0
M  V30 6004 C 545.352 0.179659 1.85834 0
M  V30 6005 C 545.703 -1.26189 1.50236 0
M  V30 6006 O 544.828 -1.95587 0.925987 0
M  V30 6007 C 545.423 0.319277 3.37292 0
M  V30 6008 C 543.982 -0.0475092 3.7637 0
M  V30 6009 C 543.129 0.646692 2.69654 0
M  V30 6010 H 546.08 0.808268 1.36575 0
M  V30 6011 H 546.101 -0.4503 3.77826 0
M  V30 6012 H 545.613 1.36855 3.6317 0
M  V30 6013 H 543.714 -1.0962 3.5611 0
M  V30 6014 H 543.827 0.34168 4.7788 0
M  V30 6015 H 542.191 0.0849971 2.54558 0
M  V30 6016 H 542.974 1.69797 2.98369 0
M  V30 6017 N 545.419 -1.53889 0.339982 0
M  V30 6018 C 546.367 -2.26391 -0.533822 0
M  V30 6019 C 547.361 -1.28404 -1.10493 0
M  V30 6020 O 548.567 -1.46124 -1.05108 0
M  V30 6021 H 544.942 -0.727385 -0.190828 0
M  V30 6022 H 546.913 -2.98233 0.0997484 0
M  V30 6023 C 545.662 -3.04707 -1.67479 0
M  V30 6024 H 544.985 -3.79934 -1.2446 0
M  V30 6025 H 546.425 -3.58657 -2.26144 0
M  V30 6026 C 544.884 -2.13989 -2.60212 0
M  V30 6027 O 545.414 -1.73361 -3.62366 0
M  V30 6028 N 543.62 -1.79141 -2.28816 0
M  V30 6029 H 543.167 -2.12378 -1.45785 0
M  V30 6030 H 543.125 -1.18725 -2.91121 0
M  V30 6031 N 546.897 -0.0685191 -1.57451 0
M  V30 6032 C 548.122 0.613919 -1.98106 0
M  V30 6033 C 548.547 1.62551 -0.946501 0
M  V30 6034 O 547.905 1.81085 0.0882824 0
M  V30 6035 C 547.953 1.26189 -3.378 0
M  V30 6036 O 547.057 2.37773 -3.36954 0
M  V30 6037 H 546.398 0.158163 -0.644888 0
M  V30 6038 H 548.928 -0.142063 -2.04106 0
M  V30 6039 H 548.938 1.60951 -3.74912 0
M  V30 6040 H 547.613 0.520625 -4.12629 0
M  V30 6041 H 546.19 2.04829 -3.11608 0
M  V30 6042 N 548.375 1.56261 0.205012 0
M  V30 6043 C 549.603 1.84141 0.943386 0
M  V30 6044 C 550.018 0.649772 1.77266 0
M  V30 6045 O 549.375 -0.381612 1.78466 0
M  V30 6046 C 549.426 3.10719 1.84759 0
M  V30 6047 O 549.147 4.25286 1.05181 0
M  V30 6048 C 550.648 3.51706 2.69848 0
M  V30 6049 H 547.868 0.611734 0.275721 0
M  V30 6050 H 550.412 2.03364 0.215253 0
M  V30 6051 H 548.567 2.93422 2.52947 0
M  V30 6052 H 548.981 4.97301 1.66709 0
M  V30 6053 H 550.455 4.43266 3.28967 0
M  V30 6054 H 550.932 2.7423 3.43067 0
M  V30 6055 H 551.538 3.71499 2.07047 0
M  V30 6056 N 549.853 -0.472356 1.50355 0
M  V30 6057 C 550.8 -1.57051 1.69126 0
M  V30 6058 C 551.77 -1.5733 0.532574 0
M  V30 6059 O 552.955 -1.7488 0.762994 0
M  V30 6060 C 550.095 -2.95033 1.79024 0
M  V30 6061 C 549.208 -3.04552 3.06386 0
M  V30 6062 C 548.343 -4.33441 3.07087 0
M  V30 6063 C 547.382 -4.36697 4.28908 0
M  V30 6064 N 546.519 -5.57056 4.27356 0
M  V30 6065 H 551.359 -1.40351 2.62879 0
M  V30 6066 H 548.896 -0.682403 1.30314 0
M  V30 6067 H 550.854 -3.75048 1.82744 0
M  V30 6068 H 549.484 -3.10371 0.887109 0
M  V30 6069 H 548.536 -2.17419 3.12143 0
M  V30 6070 H 549.848 -3.02818 3.96362 0
M  V30 6071 H 549.002 -5.21801 3.09529 0
M  V30 6072 H 547.741 -4.37782 2.14939 0
M  V30 6073 H 546.746 -3.46734 4.2668 0
M  V30 6074 H 547.971 -4.34049 5.22282 0
M  V30 6075 H 545.917 -5.62184 3.3806 0
M  V30 6076 H 545.834 -5.57058 5.111 0
M  V30 6077 H 547.102 -6.47545 4.33942 0
M  V30 6078 N 551.331 -1.39911 -0.725443 0
M  V30 6079 C 552.747 -1.21725 -1.03224 0
M  V30 6080 C 552.947 -0.0855224 -2.01318 0
M  V30 6081 O 552.003 0.55976 -2.46217 0
M  V30 6082 C 553.316 -2.55511 -1.58539 0
M  V30 6083 C 554.864 -2.62439 -1.70572 0
M  V30 6084 C 555.339 -3.9647 -2.29294 0
M  V30 6085 N 556.83 -3.98159 -2.36692 0
M  V30 6086 C 557.565 -4.98647 -2.83088 0
M  V30 6087 N 557.061 -6.0953 -3.2931 0
M  V30 6088 N 558.854 -4.8602 -2.82384 0
M  V30 6089 H 551.005 -2.12267 -0.075048 0
M  V30 6090 H 553.268 -0.943136 -0.0959066 0
M  V30 6091 H 552.974 -3.38926 -0.939249 0
M  V30 6092 H 552.848 -2.75905 -2.57208 0
M  V30 6093 H 555.235 -1.79401 -2.34306 0
M  V30 6094 H 555.316 -2.45885 -0.705297 0
M  V30 6095 H 554.96 -4.79942 -1.66186 0
M  V30 6096 H 554.89 -4.10349 -3.30032 0
M  V30 6097 H 557.381 -3.18085 -2.04035 0
M  V30 6098 H 557.694 -6.82106 -3.6325 0
M  V30 6099 H 556.039 -6.1311 -3.27294 0
M  V30 6100 H 559.23 -3.98493 -2.45603 0
M  V30 6101 H 559.403 -5.64478 -3.18226 0
M  V30 6102 N 552.809 0.956637 -1.25245 0
M  V30 6103 C 554.056 1.701 -1.09874 0
M  V30 6104 C 554.384 1.91128 0.36062 0
M  V30 6105 O 553.639 1.47837 1.28229 0
M  V30 6106 C 553.938 3.08996 -1.79601 0
M  V30 6107 C 553.604 3.07774 -3.29523 0
M  V30 6108 C 552.266 3.07149 -3.70423 0
M  V30 6109 C 554.618 3.01257 -4.25316 0
M  V30 6110 C 551.946 2.97752 -5.0553 0
M  V30 6111 C 554.298 2.93403 -5.60444 0
M  V30 6112 C 552.962 2.91111 -6.00675 0
M  V30 6113 H 552.232 0.62244 -0.402056 0
M  V30 6114 H 554.879 1.1178 -1.55491 0
M  V30 6115 H 553.184 3.70848 -1.26408 0
M  V30 6116 H 554.881 3.65407 -1.65162 0
M  V30 6117 H 551.471 3.09032 -2.9698 0
M  V30 6118 H 555.655 3.00861 -3.9471 0
M  V30 6119 H 550.911 2.94346 -5.35883 0
M  V30 6120 H 555.085 2.87321 -6.34366 0
M  V30 6121 H 552.712 2.83586 -7.05325 0
M  V30 6122 N 554.287 1.06798 1.15896 0
M  V30 6123 C 555.703 0.792423 1.38538 0
M  V30 6124 C 555.903 -0.60592 1.92174 0
M  V30 6125 O 554.959 -1.36561 2.12385 0
M  V30 6126 C 556.272 1.86157 2.36149 0
M  V30 6127 C 557.82 1.88567 2.49823 0
M  V30 6128 C 558.295 2.9455 3.5072 0
M  V30 6129 N 559.786 2.93616 3.58251 0
M  V30 6130 C 560.521 3.72267 4.36125 0
M  V30 6131 N 560.017 4.60751 5.17379 0
M  V30 6132 N 561.81 3.60637 4.31158 0
M  V30 6133 H 553.961 1.96993 0.794198 0
M  V30 6134 H 556.224 0.853942 0.411688 0
M  V30 6135 H 555.93 2.86603 2.03843 0
M  V30 6136 H 555.804 1.71692 3.3586 0
M  V30 6137 H 558.191 0.887765 2.8143 0
M  V30 6138 H 558.272 2.0711 1.5013 0
M  V30 6139 H 557.916 3.94537 3.19849 0
M  V30 6140 H 557.846 2.73255 4.50155 0
M  V30 6141 H 560.337 2.29472 3.00252 0
M  V30 6142 H 560.65 5.17408 5.74028 0
M  V30 6143 H 558.995 4.64803 5.16704 0
M  V30 6144 H 562.186 2.90892 3.66742 0
M  V30 6145 H 562.359 4.22176 4.91601 0
M  V30 6146 N 555.766 -1.3263 0.851289 0
M  V30 6147 C 557.043 -1.91982 0.374448 0
M  V30 6148 C 557.423 -1.77568 -1.14161 0
M  V30 6149 O 556.771 -1.1717 -1.96172 0
M  V30 6150 C 556.981 -3.38862 0.835088 0
M  V30 6151 C 558.329 -4.15999 0.850309 0
M  V30 6152 O 559.353 -3.47566 0.779505 0
M  V30 6153 O 558.212 -5.38189 0.949481 0
M  V30 6154 H 555.306 -0.819846 0.10854 0
M  V30 6155 H 557.852 -1.41422 0.937966 0
M  V30 6156 H 556.624 -3.43281 1.87814 0
M  V30 6157 H 556.247 -3.96821 0.248833 0
M  V30 6158 N 557.244 -0.608902 -1.45362 0
M  V30 6159 C 558.49 -0.113196 -2.03085 0
M  V30 6160 C 558.845 1.24288 -1.46868 0
M  V30 6161 O 558.138 1.80792 -0.634402 0
M  V30 6162 C 558.332 -0.0167296 -3.57396 0
M  V30 6163 C 558.161 -1.36191 -4.28581 0
M  V30 6164 C 556.931 -1.94295 -4.66452 0
M  V30 6165 C 559.129 -2.29097 -4.60455 0
M  V30 6166 N 557.111 -3.2228 -5.22503 0
M  V30 6167 C 558.482 -3.41681 -5.17353 0
M  V30 6168 C 560.537 -2.28453 -4.42395 0
M  V30 6169 C 559.24 -4.53789 -5.58093 0
M  V30 6170 C 561.266 -3.39608 -4.8417 0
M  V30 6171 C 560.628 -4.50915 -5.41161 0
M  V30 6172 H 556.727 -0.0848213 -0.777386 0
M  V30 6173 H 559.311 -0.807541 -1.77163 0
M  V30 6174 H 557.482 0.646839 -3.82976 0
M  V30 6175 H 559.214 0.485757 -4.01774 0
M  V30 6176 H 555.969 -1.47486 -4.5005 0
M  V30 6177 H 556.393 -3.87654 -5.55025 0
M  V30 6178 H 561.035 -1.43658 -3.97646 0
M  V30 6179 H 558.753 -5.39307 -6.01808 0
M  V30 6180 H 562.339 -3.40259 -4.71927 0
M  V30 6181 H 561.219 -5.35505 -5.72891 0
M  V30 6182 N 558.722 1.53707 -0.348139 0
M  V30 6183 C 559.669 2.25173 0.506518 0
M  V30 6184 C 560.639 1.25174 1.09182 0
M  V30 6185 O 561.824 1.53917 1.12757 0
M  V30 6186 C 558.964 3.03141 1.64923 0
M  V30 6187 C 558.077 4.18002 1.0908 0
M  V30 6188 C 557.212 4.83447 2.20119 0
M  V30 6189 C 556.251 5.90369 1.61651 0
M  V30 6190 N 555.388 6.49575 2.66451 0
M  V30 6191 H 560.228 2.97799 -0.109452 0
M  V30 6192 H 557.765 1.46953 -0.0657866 0
M  V30 6193 H 559.723 3.46607 2.32205 0
M  V30 6194 H 558.353 2.32803 2.23612 0
M  V30 6195 H 557.405 3.79145 0.308783 0
M  V30 6196 H 558.717 4.94892 0.623178 0
M  V30 6197 H 557.871 5.30008 2.95257 0
M  V30 6198 H 556.61 4.05991 2.70227 0
M  V30 6199 H 555.615 5.43186 0.850209 0
M  V30 6200 H 556.84 6.69735 1.1239 0
M  V30 6201 H 554.786 5.74981 3.15805 0
M  V30 6202 H 554.703 7.21952 2.24325 0
M  V30 6203 H 555.971 7.00789 3.41344 0
M  V30 6204 N 560.2 0.0768682 1.57412 0
M  V30 6205 C 561.147 -0.888577 2.13009 0
M  V30 6206 C 562.117 -1.29198 1.0439 0
M  V30 6207 O 563.302 -1.37694 1.3208 0
M  V30 6208 C 560.442 -2.14899 2.70023 0
M  V30 6209 C 559.555 -1.79777 3.92816 0
M  V30 6210 C 558.69 -3.00467 4.38056 0
M  V30 6211 C 557.729 -2.61385 5.53484 0
M  V30 6212 N 556.866 -3.74851 5.93659 0
M  V30 6213 H 561.706 -0.407593 2.95199 0
M  V30 6214 H 559.243 -0.189534 1.45874 0
M  V30 6215 H 561.201 -2.88688 3.0119 0
M  V30 6216 H 559.831 -2.60529 1.9059 0
M  V30 6217 H 558.883 -0.960301 3.68079 0
M  V30 6218 H 560.195 -1.47027 4.76639 0
M  V30 6219 H 559.349 -3.82529 4.7091 0
M  V30 6220 H 558.088 -3.36413 3.53097 0
M  V30 6221 H 557.093 -1.77746 5.20275 0
M  V30 6222 H 558.318 -2.26603 6.40178 0
M  V30 6223 H 556.264 -4.1055 5.11649 0
M  V30 6224 H 556.181 -3.45887 6.72234 0
M  V30 6225 H 557.449 -4.57477 6.31138 0
M  V30 6226 N 561.678 -1.56367 -0.196722 0
M  V30 6227 C 562.906 -1.84639 -0.933608 0
M  V30 6228 C 563.321 -0.659164 -1.76919 0
M  V30 6229 O 562.678 0.372142 -1.78665 0
M  V30 6230 C 562.729 -3.11694 -1.83109 0
M  V30 6231 O 562.45 -4.25838 -1.02924 0
M  V30 6232 C 563.951 -3.53132 -2.67979 0
M  V30 6233 H 561.171 -0.613188 -0.272473 0
M  V30 6234 H 563.715 -2.03475 -0.204465 0
M  V30 6235 H 561.87 -2.94759 -2.51387 0
M  V30 6236 H 562.284 -4.98178 -1.64069 0
M  V30 6237 H 563.758 -4.45005 -3.26611 0
M  V30 6238 H 564.235 -2.76045 -3.41608 0
M  V30 6239 H 564.841 -3.72592 -2.05074 0
M  V30 6240 N 563.156 0.464375 -1.50603 0
M  V30 6241 C 564.404 1.21356 -1.61608 0
M  V30 6242 C 564.725 1.92329 -0.321643 0
M  V30 6243 O 563.995 1.84403 0.661232 0
M  V30 6244 H 562.575 0.45094 -0.595535 0
M  V30 6245 H 565.237 0.535046 -1.87412 0
M  V30 6246 H 564.333 1.95783 -2.43054 0
M  V30 6247 N 564.634 1.40294 0.718013 0
M  V30 6248 C 565.584 1.36847 1.82365 0
M  V30 6249 C 566.568 0.246424 1.59002 0
M  V30 6250 O 567.76 0.485336 1.70216 0
M  V30 6251 C 564.889 1.23105 3.20469 0
M  V30 6252 C 563.975 2.4008 3.49603 0
M  V30 6253 N 564.366 3.65562 3.49568 0
M  V30 6254 C 562.664 2.33407 3.80049 0
M  V30 6255 C 563.365 4.43015 3.76978 0
M  V30 6256 N 562.341 3.72823 3.95606 0
M  V30 6257 H 566.143 2.31811 1.80668 0
M  V30 6258 H 563.657 1.34031 0.91703 0
M  V30 6259 H 565.654 1.18718 3.9964 0
M  V30 6260 H 564.314 0.291056 3.23393 0
M  V30 6261 H 565.325 3.98756 3.30476 0
M  V30 6262 H 562.002 1.47762 3.90478 0
M  V30 6263 H 563.392 5.51859 3.83276 0
M  V30 6264 N 566.112 -0.949982 1.2575 0
M  V30 6265 C 567.36 -1.6918 1.10555 0
M  V30 6266 C 567.681 -1.91773 -0.353298 0
M  V30 6267 O 566.951 -1.50814 -1.25027 0
M  V30 6268 H 565.531 -0.626952 0.406129 0
M  V30 6269 H 568.193 -1.1419 1.57945 0
M  V30 6270 H 567.289 -2.66915 1.61749 0
M  V30 6271 N 567.59 -1.07411 -1.15328 0
M  V30 6272 C 568.867 -0.710732 -1.82231 0
M  V30 6273 C 569.247 0.806732 -1.95077 0
M  V30 6274 O 568.595 1.72139 -1.50268 0
M  V30 6275 C 568.805 -1.42586 -3.18544 0
M  V30 6276 C 570.153 -1.57836 -3.94174 0
M  V30 6277 O 571.177 -1.38669 -3.281 0
M  V30 6278 O 570.036 -1.8938 -5.12638 0
M  V30 6279 H 567.13 -0.25297 -0.78736 0
M  V30 6280 H 569.676 -1.17508 -1.22434 0
M  V30 6281 H 568.448 -2.46008 -3.04296 0
M  V30 6282 H 568.071 -0.952332 -3.86026 0
M  V30 6283 N 569.068 1.32177 -0.85831 0
M  V30 6284 C 570.296 2.01313 -0.477582 0
M  V30 6285 C 570.711 1.6449 0.926736 0
M  V30 6286 O 570.068 0.868096 1.60531 0
M  V30 6287 C 570.119 3.56293 -0.611337 0
M  V30 6288 O 569.84 3.91794 -1.96034 0
M  V30 6289 C 571.341 4.42702 -0.230093 0
M  V30 6290 H 568.561 0.644323 -0.187322 0
M  V30 6291 H 571.105 1.68674 -1.15626 0
M  V30 6292 H 569.26 3.87395 0.0196494 0
M  V30 6293 H 569.674 4.86513 -1.95973 0
M  V30 6294 H 571.148 5.50727 -0.374674 0
M  V30 6295 H 571.625 4.3129 0.829779 0
M  V30 6296 H 572.231 4.16997 -0.836302 0
M  V30 6297 N 570.547 0.616602 1.45037 0
M  V30 6298 C 571.824 0.0469086 1.95544 0
M  V30 6299 C 572.204 -1.42345 1.55888 0
M  V30 6300 O 571.552 -2.13055 0.825824 0
M  V30 6301 C 571.762 0.254489 3.48071 0
M  V30 6302 C 573.11 0.140025 4.24369 0
M  V30 6303 O 574.134 0.185084 3.55719 0
M  V30 6304 O 572.993 0.0327034 5.4649 0
M  V30 6305 H 570.087 -0.0306051 0.826433 0
M  V30 6306 H 572.633 0.687293 1.55159 0
M  V30 6307 H 571.405 1.27532 3.69934 0
M  V30 6308 H 571.028 -0.42073 3.95368 0
M  V30 6309 N 572.025 -1.5352 0.356285 0
M  V30 6310 C 572.955 -2.28372 -0.486661 0
M  V30 6311 C 573.936 -1.30432 -1.09185 0
M  V30 6312 O 575.121 -1.59291 -1.11085 0
M  V30 6313 C 572.251 -3.06604 -1.63129 0
M  V30 6314 C 571.205 -4.12154 -1.15381 0
M  V30 6315 C 570.531 -4.78415 -2.38796 0
M  V30 6316 C 571.831 -5.21724 -0.245179 0
M  V30 6317 H 573.525 -2.99083 0.137797 0
M  V30 6318 H 571.071 -1.43841 0.0677134 0
M  V30 6319 H 573.024 -3.57712 -2.22755 0
M  V30 6320 H 571.748 -2.33568 -2.28284 0
M  V30 6321 H 570.407 -3.61978 -0.580294 0
M  V30 6322 H 570.055 -4.01959 -3.02387 0
M  V30 6323 H 569.755 -5.49734 -2.07524 0
M  V30 6324 H 571.279 -5.32313 -2.99125 0
M  V30 6325 H 572.693 -5.68391 -0.748646 0
M  V30 6326 H 571.09 -6.00095 -0.0237608 0
M  V30 6327 H 572.16 -4.79596 0.715229 0
M  V30 6328 N 573.503 -0.0852151 -1.57369 0
M  V30 6329 C 574.451 0.894856 -2.14698 0
M  V30 6330 C 575.445 1.29903 -1.08727 0
M  V30 6331 O 576.651 1.27471 -1.27088 0
M  V30 6332 H 573.026 0.306569 -0.686673 0
M  V30 6333 H 574.997 0.386542 -2.95886 0
M  V30 6334 C 573.746 2.14798 -2.73417 0
M  V30 6335 H 573.069 1.84585 -3.54638 0
M  V30 6336 H 574.509 2.81456 -3.1711 0
M  V30 6337 C 572.968 2.91546 -1.68828 0
M  V30 6338 O 573.498 3.85733 -1.12129 0
M  V30 6339 N 571.704 2.54901 -1.39549 0
M  V30 6340 H 571.251 1.7838 -1.85845 0
M  V30 6341 H 571.209 3.06553 -0.698054 0
M  V30 6342 N 574.981 1.5647 0.188427 0
M  V30 6343 C 575.928 1.95073 1.23349 0
M  V30 6344 C 576.898 0.812238 1.44886 0
M  V30 6345 O 578.083 1.07095 1.57909 0
M  V30 6346 C 575.223 2.30124 2.57171 0
M  V30 6347 C 574.336 3.57069 2.43157 0
M  V30 6348 C 573.471 3.81411 3.69729 0
M  V30 6349 C 572.51 5.0176 3.50575 0
M  V30 6350 N 571.647 5.22321 4.69175 0
M  V30 6351 H 576.487 2.84171 0.89728 0
M  V30 6352 H 574.024 1.40623 0.431683 0
M  V30 6353 H 575.982 2.48463 3.35145 0
M  V30 6354 H 574.612 1.44159 2.88822 0
M  V30 6355 H 573.664 3.4674 1.56447 0
M  V30 6356 H 574.976 4.452 2.24942 0
M  V30 6357 H 574.13 4.00026 4.56141 0
M  V30 6358 H 572.869 2.91624 3.90905 0
M  V30 6359 H 571.874 4.83061 2.62549 0
M  V30 6360 H 573.099 5.93063 3.30837 0
M  V30 6361 H 571.045 4.35483 4.90602 0
M  V30 6362 H 570.962 6.04643 4.53809 0
M  V30 6363 H 572.23 5.45401 5.56919 0
M  V30 6364 N 576.459 -0.456382 1.50847 0
M  V30 6365 C 577.422 -1.53493 1.70213 0
M  V30 6366 C 578.422 -1.50264 0.572481 0
M  V30 6367 O 579.612 -1.52623 0.839751 0
M  V30 6368 C 576.744 -2.93091 1.741 0
M  V30 6369 H 577.937 -1.37633 2.66453 0
M  V30 6370 H 575.49 -0.683776 1.4055 0
M  V30 6371 H 576.225 -3.14378 0.796063 0
M  V30 6372 H 576.01 -2.9684 2.5618 0
M  V30 6373 H 577.5 -3.71368 1.90987 0
M  V30 6374 N 577.937 -1.40673 -0.710563 0
M  V30 6375 C 579.186 -1.38525 -1.46607 0
M  V30 6376 C 579.499 0.0077024 -1.95598 0
M  V30 6377 O 580.705 0.151792 -2.71075 0
M  V30 6378 C 579.161 -2.43489 -2.6503 0
M  V30 6379 C 578.769 -3.88619 -2.22888 0
M  V30 6380 C 580.513 -2.50456 -3.42742 0
M  V30 6381 C 578.42 -4.85168 -3.3818 0
M  V30 6382 H 577.35 -0.515092 -0.550632 0
M  V30 6383 H 580.001 -1.66431 -0.772846 0
M  V30 6384 H 578.383 -2.0869 -3.36548 0
M  V30 6385 H 579.557 -4.32588 -1.58758 0
M  V30 6386 H 577.872 -3.85174 -1.58208 0
M  V30 6387 H 580.469 -3.19776 -4.28541 0
M  V30 6388 H 580.812 -1.53665 -3.86902 0
M  V30 6389 H 581.345 -2.84271 -2.78271 0
M  V30 6390 H 578.084 -5.8331 -2.99047 0
M  V30 6391 H 577.604 -4.4586 -4.01209 0
M  V30 6392 H 579.283 -5.05225 -4.04174 0
M  V30 6393 N 579.415 0.9433 -1.26252 0
M  V30 6394 C 580.643 1.72367 -1.14443 0
M  V30 6395 C 581.058 1.86392 0.300572 0
M  V30 6396 O 580.415 1.36978 1.20596 0
M  V30 6397 C 580.466 3.13155 -1.806 0
M  V30 6398 O 580.187 2.99803 -3.19452 0
M  V30 6399 C 581.688 4.07417 -1.74717 0
M  V30 6400 H 578.908 0.539758 -0.398626 0
M  V30 6401 H 581.452 1.18268 -1.66832 0
M  V30 6402 H 579.607 3.64162 -1.32154 0
M  V30 6403 H 580.021 3.88697 -3.52158 0
M  V30 6404 H 581.495 5.03773 -2.25647 0
M  V30 6405 H 581.972 4.3337 -0.713244 0
M  V30 6406 H 582.578 3.6233 -2.22704 0
M  V30 6407 N 580.893 1.08022 1.14757 0
M  V30 6408 C 581.803 0.718292 2.23333 0
M  V30 6409 C 582.819 -0.273477 1.71837 0
M  V30 6410 O 583.995 -0.118406 2.01052 0
M  V30 6411 C 581.06 0.128855 3.4646 0
M  V30 6412 C 580.121 1.17473 4.12915 0
M  V30 6413 C 579.354 0.61333 5.30164 0
M  V30 6414 O 579.577 -0.568458 5.6756 0
M  V30 6415 O 578.511 1.3615 5.86299 0
M  V30 6416 H 582.337 1.62394 2.56636 0
M  V30 6417 H 579.922 0.853628 1.22611 0
M  V30 6418 H 581.804 -0.197249 4.20938 0
M  V30 6419 H 580.479 -0.750014 3.14891 0
M  V30 6420 H 579.386 1.5533 3.40328 0
M  V30 6421 H 580.719 2.02574 4.48581 0
M  V30 6422 N 582.371 -1.3172 0.865308 0
M  V30 6423 C 583.596 -2.01591 0.487415 0
M  V30 6424 C 584.021 -1.6455 -0.911307 0
M  V30 6425 O 583.379 -0.851689 -1.6005 0
M  V30 6426 C 583.427 -3.54759 0.646401 0
M  V30 6427 O 582.531 -4.11185 -0.316284 0
M  V30 6428 H 581.872 -0.634884 0.194468 0
M  V30 6429 H 584.402 -1.68024 1.16744 0
M  V30 6430 H 584.412 -4.04438 0.537932 0
M  V30 6431 H 583.087 -3.8106 1.66632 0
M  V30 6432 H 581.664 -3.72543 -0.163162 0
M  V30 6433 N 583.85 -0.624285 -1.44708 0
M  V30 6434 C 585.075 -0.131171 -2.06985 0
M  V30 6435 C 585.5 1.18234 -1.46295 0
M  V30 6436 O 584.858 1.72375 -0.561842 0
M  V30 6437 C 584.906 -0.0226724 -3.60593 0
M  V30 6438 O 584.01 1.02314 -3.99507 0
M  V30 6439 H 583.351 -0.0816556 -0.65896 0
M  V30 6440 H 585.88 -0.859027 -1.85693 0
M  V30 6441 H 585.891 0.170138 -4.07645 0
M  V30 6442 H 584.566 -0.981685 -4.04148 0
M  V30 6443 H 583.143 0.805452 -3.64097 0
M  V30 6444 N 585.328 1.53329 -0.364422 0
M  V30 6445 C 586.605 1.93557 0.281962 0
M  V30 6446 C 586.985 1.29786 1.6649 0
M  V30 6447 O 586.333 0.456512 2.23893 0
M  V30 6448 C 586.543 3.47405 0.333331 0
M  V30 6449 C 587.891 4.20699 0.574231 0
M  V30 6450 O 588.915 3.53779 0.414588 0
M  V30 6451 O 587.774 5.39287 0.885002 0
M  V30 6452 H 584.868 0.809573 0.168881 0
M  V30 6453 H 587.414 1.64494 -0.417121 0
M  V30 6454 H 586.186 3.86091 -0.636326 0
M  V30 6455 H 585.809 3.82697 1.07836 0
M  V30 6456 N 586.806 0.0935595 1.57322 0
M  V30 6457 C 588.034 -0.578934 1.98635 0
M  V30 6458 C 588.449 -1.61819 0.972626 0
M  V30 6459 O 587.806 -1.82461 -0.0379638 0
M  V30 6460 C 587.857 -1.22802 3.40003 0
M  V30 6461 O 587.578 -0.230334 4.37494 0
M  V30 6462 C 589.079 -1.98627 3.96311 0
M  V30 6463 H 586.299 -0.155324 0.652775 0
M  V30 6464 H 588.843 0.172393 2.03772 0
M  V30 6465 H 586.998 -1.93029 3.35885 0
M  V30 6466 H 587.412 -0.698649 5.19826 0
M  V30 6467 H 588.886 -2.39405 4.97382 0
M  V30 6468 H 589.363 -2.85151 3.34044 0
M  V30 6469 H 589.969 -1.3322 4.03897 0
M  V30 6470 N 588.284 -1.56567 -0.180126 0
M  V30 6471 C 589.514 -1.85349 -0.912647 0
M  V30 6472 C 589.922 -0.675795 -1.76719 0
M  V30 6473 O 589.265 0.3645 -1.80047 0
M  V30 6474 C 589.327 -3.08431 -1.84691 0
M  V30 6475 C 588.991 -4.41694 -1.17284 0
M  V30 6476 C 589.988 -5.17062 -0.542532 0
M  V30 6477 C 587.673 -4.8843 -1.17223 0
M  V30 6478 C 589.667 -6.37351 0.0793953 0
M  V30 6479 C 587.354 -6.08652 -0.54647 0
M  V30 6480 C 588.352 -6.82955 0.0782458 0
M  V30 6481 O 588.04 -8.00897 0.694158 0
M  V30 6482 H 587.772 -0.619286 -0.271036 0
M  V30 6483 H 590.326 -2.0454 -0.187768 0
M  V30 6484 H 588.556 -2.85163 -2.61188 0
M  V30 6485 H 590.245 -3.23733 -2.44851 0
M  V30 6486 H 591.011 -4.8204 -0.535045 0
M  V30 6487 H 586.89 -4.30542 -1.64788 0
M  V30 6488 H 590.434 -6.95287 0.567612 0
M  V30 6489 H 586.331 -6.4314 -0.55151 0
M  V30 6490 H 587.099 -8.16352 0.592537 0
M  V30 6491 N 589.762 0.448376 -1.51087 0
M  V30 6492 C 591.009 1.19872 -1.63209 0
M  V30 6493 C 591.337 1.91451 -0.343062 0
M  V30 6494 O 590.592 1.83789 0.672321 0
M  V30 6495 C 590.891 2.24866 -2.77795 0
M  V30 6496 C 590.557 1.70378 -4.17471 0
M  V30 6497 C 589.219 1.55241 -4.55471 0
M  V30 6498 C 591.571 1.30203 -5.04675 0
M  V30 6499 C 588.899 0.983844 -5.78392 0
M  V30 6500 C 591.251 0.747798 -6.28165 0
M  V30 6501 C 589.915 0.583233 -6.64947 0
M  V30 6502 H 589.185 0.438642 -0.597222 0
M  V30 6503 H 591.832 0.49136 -1.85089 0
M  V30 6504 H 590.137 3.01598 -2.50092 0
M  V30 6505 H 591.834 2.82723 -2.84374 0
M  V30 6506 H 588.424 1.83134 -3.87505 0
M  V30 6507 H 592.608 1.40723 -4.75932 0
M  V30 6508 H 587.864 0.844007 -6.05546 0
M  V30 6509 H 592.038 0.427927 -6.95084 0
M  V30 6510 H 589.665 0.140532 -7.6007 0
M  V30 6511 N 591.24 1.41047 0.703093 0
M  V30 6512 C 592.47 1.43133 1.48985 0
M  V30 6513 C 592.878 0.0328537 1.89171 0
M  V30 6514 O 592.221 -0.956469 1.56835 0
M  V30 6515 C 592.283 2.26991 2.78775 0
M  V30 6516 C 591.947 3.7525 2.60837 0
M  V30 6517 C 592.944 4.67591 2.27276 0
M  V30 6518 C 590.629 4.19208 2.76712 0
M  V30 6519 C 592.623 6.01877 2.09817 0
M  V30 6520 C 590.31 5.53561 2.5887 0
M  V30 6521 C 591.308 6.4471 2.25472 0
M  V30 6522 O 590.996 7.76584 2.07778 0
M  V30 6523 H 590.728 0.489788 0.465922 0
M  V30 6524 H 593.282 1.85886 0.873822 0
M  V30 6525 H 591.512 1.79038 3.42757 0
M  V30 6526 H 593.201 2.20867 3.40547 0
M  V30 6527 H 593.967 4.34923 2.14633 0
M  V30 6528 H 589.846 3.48572 3.01693 0
M  V30 6529 H 593.39 6.72986 1.83671 0
M  V30 6530 H 589.287 5.85811 2.71102 0
M  V30 6531 H 590.055 7.87649 2.22601 0
M  V30 6532 N 592.718 -0.936591 1.26751 0
M  V30 6533 C 593.65 -2.03991 1.045 0
M  V30 6534 C 594.663 -1.628 0.00394261 0
M  V30 6535 O 595.852 -1.76817 0.244526 0
M  V30 6536 C 592.952 -3.34218 0.561403 0
M  V30 6537 C 592.125 -4.04151 1.67274 0
M  V30 6538 C 591.184 -5.12651 1.1864 0
M  V30 6539 O 590.21 -5.37104 1.88437 0
M  V30 6540 N 591.412 -5.80488 0.037278 0
M  V30 6541 H 594.177 -2.23644 1.99508 0
M  V30 6542 H 591.738 -1.10638 1.18198 0
M  V30 6543 H 593.73 -4.04101 0.220136 0
M  V30 6544 H 592.3 -3.11203 -0.295211 0
M  V30 6545 H 591.52 -3.28121 2.18472 0
M  V30 6546 H 592.808 -4.47626 2.41885 0
M  V30 6547 H 592.206 -5.63064 -0.545494 0
M  V30 6548 H 590.763 -6.5134 -0.244877 0
M  V30 6549 N 594.196 -1.08629 -1.14182 0
M  V30 6550 C 595.442 -0.818556 -1.85546 0
M  V30 6551 C 595.775 0.654076 -1.82854 0
M  V30 6552 O 595.05 1.48099 -1.26083 0
M  V30 6553 C 595.333 -1.34397 -3.3408 0
M  V30 6554 C 595.186 -2.8821 -3.45333 0
M  V30 6555 C 596.505 -0.971069 -4.29253 0
M  V30 6556 H 593.624 -0.298821 -0.673702 0
M  V30 6557 H 596.266 -1.34629 -1.34071 0
M  V30 6558 H 594.416 -0.895064 -3.78049 0
M  V30 6559 H 596.088 -3.41488 -3.10134 0
M  V30 6560 H 594.331 -3.25756 -2.86471 0
M  V30 6561 H 595.002 -3.20047 -4.49749 0
M  V30 6562 H 597.478 -1.35809 -3.93313 0
M  V30 6563 H 596.354 -1.36586 -5.31635 0
M  V30 6564 H 596.615 0.121659 -4.41933 0
M  V30 6565 N 595.674 1.31259 -0.872281 0
M  V30 6566 C 596.637 2.26744 -0.334656 0
M  V30 6567 C 597.637 1.52307 0.515681 0
M  V30 6568 O 598.827 1.71148 0.324656 0
M  V30 6569 C 595.959 3.36841 0.524482 0
M  V30 6570 H 597.152 2.75812 -1.17762 0
M  V30 6571 H 594.705 1.42232 -0.648064 0
M  V30 6572 H 595.44 2.93069 1.38855 0
M  V30 6573 H 595.225 3.92009 -0.0844299 0
M  V30 6574 H 596.715 4.07944 0.892838 0
M  V30 6575 N 597.152 0.631951 1.44375 0
M  V30 6576 C 598.382 0.143658 2.061 0
M  V30 6577 C 598.79 -1.18733 1.47306 0
M  V30 6578 O 598.133 -1.73943 0.590724 0
M  V30 6579 C 598.195 -0.0446102 3.59472 0
M  V30 6580 C 597.859 1.20835 4.40736 0
M  V30 6581 C 598.856 2.13224 4.74164 0
M  V30 6582 C 596.541 1.44399 4.81097 0
M  V30 6583 C 598.535 3.27487 5.46838 0
M  V30 6584 C 596.222 2.58959 5.53519 0
M  V30 6585 C 597.22 3.50329 5.86309 0
M  V30 6586 O 596.908 4.62891 6.57257 0
M  V30 6587 H 596.64 0.0772939 0.671567 0
M  V30 6588 H 599.194 0.866677 1.8622 0
M  V30 6589 H 597.424 -0.822783 3.77845 0
M  V30 6590 H 599.113 -0.487561 4.02961 0
M  V30 6591 H 599.879 1.96253 4.4352 0
M  V30 6592 H 595.758 0.741696 4.54994 0
M  V30 6593 H 599.302 3.98826 5.72349 0
M  V30 6594 H 595.199 2.75873 5.83579 0
M  V30 6595 H 595.967 4.61883 6.75726 0
M  V30 6596 N 598.631 -1.53133 0.372548 0
M  V30 6597 C 599.579 -2.27473 -0.485681 0
M  V30 6598 C 600.573 -1.30719 -1.07745 0
M  V30 6599 O 601.779 -1.48321 -1.01985 0
M  V30 6600 H 598.154 -0.731269 -0.175356 0
M  V30 6601 H 600.125 -2.97955 0.162986 0
M  V30 6602 C 598.874 -3.08191 -1.60978 0
M  V30 6603 H 598.197 -3.82488 -1.16373 0
M  V30 6604 H 599.637 -3.63373 -2.18485 0
M  V30 6605 C 598.096 -2.19461 -2.55614 0
M  V30 6606 O 598.626 -1.81008 -3.58607 0
M  V30 6607 N 596.832 -1.83955 -2.24965 0
M  V30 6608 H 596.379 -2.15423 -1.41247 0
M  V30 6609 H 596.337 -1.24874 -2.88538 0
M  V30 6610 N 600.109 -0.101901 -1.5727 0
M  V30 6611 C 601.042 0.891377 -2.10071 0
M  V30 6612 C 602.02 1.27197 -1.01291 0
M  V30 6613 O 603.204 1.37602 -1.28833 0
M  V30 6614 C 600.331 2.19049 -2.58331 0
M  V30 6615 C 599.377 1.95925 -3.78834 0
M  V30 6616 S 600.21 1.19106 -5.22086 0
M  V30 6617 C 601.366 2.50234 -5.73702 0
M  V30 6618 H 601.599 0.442212 -2.93993 0
M  V30 6619 H 599.132 0.111529 -1.53997 0
M  V30 6620 H 601.09 2.937 -2.86793 0
M  V30 6621 H 599.751 2.61086 -1.74622 0
M  V30 6622 H 598.944 2.92143 -4.10693 0
M  V30 6623 H 598.546 1.29401 -3.50901 0
M  V30 6624 H 600.838 3.46173 -5.82384 0
M  V30 6625 H 601.781 2.22944 -6.72088 0
M  V30 6626 H 602.189 2.58818 -5.01671 0
M  V30 6627 N 601.587 1.56661 0.17182 0
M  V30 6628 C 602.835 1.81606 0.886774 0
M  V30 6629 C 603.156 0.678818 1.82803 0
M  V30 6630 O 602.426 -0.301354 1.93568 0
M  V30 6631 H 601.006 0.669934 0.330451 0
M  V30 6632 H 603.668 1.94142 0.171757 0
M  V30 6633 H 602.764 2.75634 1.46398 0
M  V30 6634 N 603.065 -0.440357 1.51323 0
M  V30 6635 C 604.314 -1.18697 1.63076 0
M  V30 6636 C 604.627 -1.92418 0.35136 0
M  V30 6637 O 605.833 -2.69258 0.348221 0
M  V30 6638 C 604.289 -2.15849 2.87988 0
M  V30 6639 C 603.897 -1.47789 4.22921 0
M  V30 6640 C 605.641 -2.90962 3.09098 0
M  V30 6641 C 603.548 -2.43407 5.38987 0
M  V30 6642 H 602.478 -0.44676 0.607389 0
M  V30 6643 H 605.129 -0.454313 1.77787 0
M  V30 6644 H 603.511 -2.92537 2.66905 0
M  V30 6645 H 604.685 -0.7668 4.54375 0
M  V30 6646 H 603 -0.848404 4.07665 0
M  V30 6647 H 605.597 -3.62584 3.92985 0
M  V30 6648 H 605.94 -3.52133 2.22053 0
M  V30 6649 H 606.473 -2.21381 3.30507 0
M  V30 6650 H 603.212 -1.86929 6.28282 0
M  V30 6651 H 602.732 -3.12579 5.11913 0
M  V30 6652 H 604.411 -3.046 5.70813 0
M  V30 6653 N 604.543 -1.41418 -0.695603 0
M  V30 6654 C 605.82 -1.31264 -1.45014 0
M  V30 6655 C 606.2 0.0597994 -2.11015 0
M  V30 6656 O 605.548 1.07403 -2.01685 0
M  V30 6657 C 605.758 -2.466 -2.4696 0
M  V30 6658 C 607.106 -2.87763 -3.12214 0
M  V30 6659 O 608.13 -2.46339 -2.57285 0
M  V30 6660 O 606.989 -3.59395 -4.11701 0
M  V30 6661 H 604.083 -0.516576 -0.645816 0
M  V30 6662 H 606.629 -1.53382 -0.726084 0
M  V30 6663 H 605.401 -3.38183 -1.96845 0
M  V30 6664 H 605.024 -2.26358 -3.26876 0
M  V30 6665 N 606.021 0.929856 -1.27246 0
M  V30 6666 C 607.437 1.20542 -1.04603 0
M  V30 6667 C 607.637 2.00276 0.221754 0
M  V30 6668 O 606.693 2.34835 0.927833 0
M  V30 6669 C 608.006 1.95566 -2.28417 0
M  V30 6670 C 609.554 2.08513 -2.33433 0
M  V30 6671 C 610.029 2.86943 -3.5697 0
M  V30 6672 N 611.52 2.94512 -3.57515 0
M  V30 6673 C 612.255 3.55656 -4.49774 0
M  V30 6674 N 611.751 4.18209 -5.52334 0
M  V30 6675 N 613.544 3.53038 -4.37402 0
M  V30 6676 H 605.695 0.397113 -2.08655 0
M  V30 6677 H 607.958 0.238277 -0.917566 0
M  V30 6678 H 607.664 1.44395 -3.20691 0
M  V30 6679 H 607.538 2.9619 -2.33563 0
M  V30 6680 H 609.925 2.58872 -1.41666 0
M  V30 6681 H 610.006 1.07117 -2.32292 0
M  V30 6682 H 609.65 2.37268 -4.49072 0
M  V30 6683 H 609.58 3.8862 -3.55362 0
M  V30 6684 H 612.071 2.50053 -2.83341 0
M  V30 6685 H 612.384 4.62796 -6.18902 0
M  V30 6686 H 610.729 4.16761 -5.56179 0
M  V30 6687 H 613.92 3.0337 -3.56489 0
M  V30 6688 H 614.093 4.004 -5.09493 0
M  V30 6689 N 607.499 1.09233 1.13605 0
M  V30 6690 C 608.429 0.751738 2.21068 0
M  V30 6691 C 609.41 -0.269688 1.67948 0
M  V30 6692 O 610.595 -0.13819 1.93708 0
M  V30 6693 C 607.725 0.16935 3.46887 0
M  V30 6694 C 606.679 1.12007 4.13084 0
M  V30 6695 C 606.005 0.399483 5.33206 0
M  V30 6696 C 607.305 2.46168 4.6065 0
M  V30 6697 H 608.999 1.65024 2.49815 0
M  V30 6698 H 606.545 0.794905 1.20072 0
M  V30 6699 H 608.498 -0.0809824 4.21322 0
M  V30 6700 H 607.222 -0.764335 3.1753 0
M  V30 6701 H 605.881 1.35564 3.40614 0
M  V30 6702 H 605.529 -0.538277 5.00112 0
M  V30 6703 H 605.229 1.03337 5.78442 0
M  V30 6704 H 606.753 0.157403 6.10397 0
M  V30 6705 H 608.167 2.26829 5.26518 0
M  V30 6706 H 606.564 3.05326 5.1662 0
M  V30 6707 H 607.634 3.07076 3.75276 0
M  V30 6708 N 608.977 -1.30795 0.87923 0
M  V30 6709 C 610.202 -2.01063 0.508769 0
M  V30 6710 C 610.627 -1.65508 -0.893803 0
M  V30 6711 O 609.985 -0.868616 -1.59138 0
M  V30 6712 C 610.033 -3.54054 0.683991 0
M  V30 6713 O 609.137 -4.11498 -0.272654 0
M  V30 6714 H 608.478 -0.632786 0.201191 0
M  V30 6715 H 611.008 -1.66776 1.18519 0
M  V30 6716 H 611.018 -4.03845 0.580798 0
M  V30 6717 H 609.693 -3.79271 1.70665 0
M  V30 6718 H 608.27 -3.72695 -0.12364 0
M  V30 6719 N 610.455 -0.639598 -1.44038 0
M  V30 6720 C 611.403 0.0723409 -2.32487 0
M  V30 6721 C 612.397 0.827129 -1.47834 0
M  V30 6722 O 613.603 0.73907 -1.64127 0
M  V30 6723 H 609.978 0.0421696 -0.750817 0
M  V30 6724 H 611.949 -0.691593 -2.90275 0
M  V30 6725 C 610.698 1.03452 -3.31953 0
M  V30 6726 H 610.021 0.46315 -3.97108 0
M  V30 6727 H 611.461 1.502 -3.96505 0
M  V30 6728 C 609.92 2.12392 -2.61518 0
M  V30 6729 O 610.45 3.2059 -2.42044 0
M  V30 6730 N 608.656 1.88563 -2.21116 0
M  V30 6731 H 608.203 1.00577 -2.37154 0
M  V30 6732 H 608.161 2.61651 -1.74316 0
M  V30 6733 N 611.933 1.52934 -0.380664 0
M  V30 6734 C 613.179 2.02443 0.197089 0
M  V30 6735 C 613.534 1.26249 1.45186 0
M  V30 6736 O 612.827 0.351964 1.8834 0
M  V30 6737 C 613.021 3.5349 0.527199 0
M  V30 6738 C 612.85 4.44312 -0.694027 0
M  V30 6739 C 611.62 4.90582 -1.21068 0
M  V30 6740 C 613.818 4.8995 -1.56377 0
M  V30 6741 N 611.8 5.65451 -2.39036 0
M  V30 6742 C 613.171 5.63313 -2.58995 0
M  V30 6743 C 615.226 4.72002 -1.58488 0
M  V30 6744 C 613.929 6.20635 -3.63599 0
M  V30 6745 C 615.955 5.30201 -2.61995 0
M  V30 6746 C 615.317 6.03463 -3.63335 0
M  V30 6747 H 611.416 0.781241 0.0344357 0
M  V30 6748 H 614 1.87387 -0.528609 0
M  V30 6749 H 612.171 3.68677 1.22196 0
M  V30 6750 H 613.903 3.89707 1.09135 0
M  V30 6751 H 610.658 4.67249 -0.772995 0
M  V30 6752 H 611.082 6.07541 -2.98701 0
M  V30 6753 H 615.724 4.14873 -0.814891 0
M  V30 6754 H 613.442 6.76852 -4.41472 0
M  V30 6755 H 617.028 5.182 -2.645 0
M  V30 6756 H 615.908 6.47693 -4.42113 0
M  V30 6757 N 613.412 0.11024 1.57214 0
M  V30 6758 C 614.345 -0.880224 2.1054 0
M  V30 6759 C 615.323 -1.26658 1.01964 0
M  V30 6760 O 616.507 -1.36917 1.29561 0
M  V30 6761 C 613.634 -2.17676 2.59489 0
M  V30 6762 C 612.68 -1.93914 3.79868 0
M  V30 6763 S 613.513 -1.16336 5.2271 0
M  V30 6764 C 614.669 -2.47188 5.75021 0
M  V30 6765 H 614.902 -0.426614 2.94223 0
M  V30 6766 H 612.435 -0.10336 1.54054 0
M  V30 6767 H 614.393 -2.92175 2.88347 0
M  V30 6768 H 613.054 -2.60156 1.76005 0
M  V30 6769 H 612.247 -2.8996 4.12236 0
M  V30 6770 H 611.849 -1.27539 3.51582 0
M  V30 6771 H 614.141 -3.43079 5.84211 0
M  V30 6772 H 615.084 -2.19377 6.7326 0
M  V30 6773 H 615.492 -2.56154 5.03036 0
M  V30 6774 N 614.89 -1.56749 -0.16351 0
M  V30 6775 C 615.837 -1.97011 -1.2023 0
M  V30 6776 C 616.807 -0.835186 -1.43575 0
M  V30 6777 O 617.992 -1.09594 -1.56185 0
M  V30 6778 C 615.132 -2.34186 -2.53478 0
M  V30 6779 C 614.245 -3.60893 -2.37446 0
M  V30 6780 C 613.38 -3.87245 -3.63614 0
M  V30 6781 C 612.419 -5.07274 -3.42548 0
M  V30 6782 N 611.556 -5.29719 -4.60806 0
M  V30 6783 H 616.396 -2.85562 -0.851958 0
M  V30 6784 H 613.933 -1.41292 -0.409257 0
M  V30 6785 H 615.891 -2.53764 -3.31149 0
M  V30 6786 H 614.521 -1.48736 -2.86492 0
M  V30 6787 H 613.573 -3.49185 -1.50911 0
M  V30 6788 H 614.885 -4.48722 -2.1783 0
M  V30 6789 H 614.039 -4.07232 -4.49719 0
M  V30 6790 H 612.778 -2.97806 -3.86216 0
M  V30 6791 H 611.783 -4.87177 -2.5483 0
M  V30 6792 H 613.008 -5.98251 -3.2136 0
M  V30 6793 H 610.954 -4.43233 -4.83612 0
M  V30 6794 H 610.871 -6.11786 -4.44132 0
M  V30 6795 H 612.139 -5.54192 -5.48171 0
M  V30 6796 N 616.368 0.432326 -1.51554 0
M  V30 6797 C 617.645 1.19288 -1.55015 0
M  V30 6798 C 618.025 2.08701 -0.317375 0
M  V30 6799 O 617.373 2.17602 0.697243 0
M  V30 6800 C 617.583 1.99037 -2.86679 0
M  V30 6801 C 618.931 2.55907 -3.38817 0
M  V30 6802 O 619.955 2.09243 -2.88263 0
M  V30 6803 O 618.814 3.41029 -4.27038 0
M  V30 6804 H 615.908 0.543369 -0.623441 0
M  V30 6805 H 618.454 0.440988 -1.6387 0
M  V30 6806 H 617.226 1.33397 -3.6786 0
M  V30 6807 H 616.849 2.81281 -2.8101 0
M  V30 6808 N 617.846 1.41785 0.688094 0
M  V30 6809 C 619.093 1.41544 1.44816 0
M  V30 6810 C 619.421 0.0271746 1.94481 0
M  V30 6811 O 618.676 -0.962235 1.7041 0
M  V30 6812 C 618.975 2.37532 2.67046 0
M  V30 6813 C 618.641 3.84209 2.35996 0
M  V30 6814 C 617.303 4.24165 2.27239 0
M  V30 6815 C 619.655 4.76785 2.10536 0
M  V30 6816 C 616.983 5.54695 1.91128 0
M  V30 6817 C 619.335 6.07644 1.75931 0
M  V30 6818 C 617.999 6.46613 1.65675 0
M  V30 6819 H 617.269 0.517945 0.529919 0
M  V30 6820 H 619.916 1.74635 0.785797 0
M  V30 6821 H 618.221 1.9772 3.38251 0
M  V30 6822 H 619.918 2.34615 3.25203 0
M  V30 6823 H 616.508 3.52567 2.4371 0
M  V30 6824 H 620.692 4.46714 2.16242 0
M  V30 6825 H 615.948 5.83762 1.81746 0
M  V30 6826 H 620.122 6.78874 1.55252 0
M  V30 6827 H 617.749 7.47668 1.37463 0
M  V30 6828 N 619.324 -0.923095 1.27737 0
M  V30 6829 C 620.572 -1.66797 1.14119 0
M  V30 6830 C 620.893 -1.92479 -0.312541 0
M  V30 6831 O 620.163 -1.53432 -1.218 0
M  V30 6832 H 618.743 -0.618196 0.419336 0
M  V30 6833 H 621.405 -1.10815 1.60331 0
M  V30 6834 H 620.501 -2.63424 1.67374 0
M  V30 6835 N 620.802 -1.09834 -1.13024 0
M  V30 6836 C 622.049 -0.83695 -1.84395 0
M  V30 6837 C 622.377 0.637463 -1.83757 0
M  V30 6838 O 621.632 1.48554 -1.27398 0
M  V30 6839 C 621.931 -1.32263 -3.32026 0
M  V30 6840 C 621.597 -2.80739 -3.52841 0
M  V30 6841 C 620.259 -3.21286 -3.5823 0
M  V30 6842 C 622.611 -3.76449 -3.60466 0
M  V30 6843 C 619.939 -4.56308 -3.68781 0
M  V30 6844 C 622.291 -5.11266 -3.72546 0
M  V30 6845 C 620.955 -5.51397 -3.76189 0
M  V30 6846 H 620.225 -0.306262 -0.674748 0
M  V30 6847 H 622.872 -1.37385 -1.33408 0
M  V30 6848 H 621.177 -0.705618 -3.85394 0
M  V30 6849 H 622.874 -1.09695 -3.85705 0
M  V30 6850 H 619.464 -2.48363 -3.49305 0
M  V30 6851 H 623.648 -3.46234 -3.55578 0
M  V30 6852 H 618.904 -4.86832 -3.69871 0
M  V30 6853 H 623.078 -5.85279 -3.77388 0
M  V30 6854 H 620.705 -6.56017 -3.84117 0
M  V30 6855 N 622.28 1.30327 -0.886154 0
M  V30 6856 C 623.528 1.9571 -0.504195 0
M  V30 6857 C 623.849 1.70294 0.950003 0
M  V30 6858 O 623.119 1.02718 1.66811 0
M  V30 6859 H 621.699 0.72412 -0.183465 0
M  V30 6860 H 624.361 1.58835 -1.12949 0
M  V30 6861 H 623.457 3.04704 -0.675431 0
M  V30 6862 N 623.758 0.647228 1.43697 0
M  V30 6863 C 624.691 -0.097646 2.27991 0
M  V30 6864 C 625.669 -0.83571 1.3948 0
M  V30 6865 O 626.853 -0.836509 1.68922 0
M  V30 6866 C 623.98 -1.14484 3.18765 0
M  V30 6867 C 623.026 -0.505503 4.23494 0
M  V30 6868 S 623.859 0.716471 5.30685 0
M  V30 6869 C 625.015 -0.330339 6.25028 0
M  V30 6870 H 625.248 0.617417 2.90818 0
M  V30 6871 H 622.781 0.435881 1.4812 0
M  V30 6872 H 624.739 -1.74403 3.7161 0
M  V30 6873 H 623.4 -1.83219 2.55127 0
M  V30 6874 H 622.593 -1.29473 4.87086 0
M  V30 6875 H 622.195 0.0194377 3.73995 0
M  V30 6876 H 624.487 -1.19828 6.66819 0
M  V30 6877 H 625.43 0.270409 7.07583 0
M  V30 6878 H 625.838 -0.663459 5.60588 0
M  V30 6879 N 625.236 -1.5273 0.388769 0
M  V30 6880 C 626.647 -1.86505 -0.0853788 0
M  V30 6881 C 626.998 -1.30847 -1.46197 0
M  V30 6882 O 626.123 -0.639609 -2.06732 0
M  V30 6883 C 626.718 -3.38414 -0.161703 0
M  V30 6884 C 625.277 -3.71902 -0.580144 0
M  V30 6885 C 624.424 -2.76095 0.258218 0
M  V30 6886 H 627.375 -1.46647 0.606665 0
M  V30 6887 H 627.396 -3.67638 -0.980936 0
M  V30 6888 H 626.908 -3.78893 0.840333 0
M  V30 6889 H 625.009 -3.36992 -1.58957 0
M  V30 6890 H 625.122 -4.77902 -0.338663 0
M  V30 6891 H 623.486 -2.53195 -0.276432 0
M  V30 6892 H 624.269 -3.19411 1.25822 0
M  V30 6893 N 626.714 -0.118576 -1.57153 0
M  V30 6894 C 627.942 0.54726 -1.99531 0
M  V30 6895 C 628.357 1.60251 -0.998246 0
M  V30 6896 O 627.714 1.82498 0.00893106 0
M  V30 6897 C 627.765 1.17378 -3.41913 0
M  V30 6898 O 627.486 0.160703 -4.37805 0
M  V30 6899 C 628.987 1.92297 -3.9942 0
M  V30 6900 H 626.207 0.144919 -0.655164 0
M  V30 6901 H 628.751 -0.20479 -2.03472 0
M  V30 6902 H 626.906 1.87661 -3.38913 0
M  V30 6903 H 627.32 0.61586 -5.20872 0
M  V30 6904 H 628.794 2.31462 -5.01128 0
M  V30 6905 H 629.271 2.79801 -3.38538 0
M  V30 6906 H 629.877 1.26777 -4.05965 0
M  V30 6907 N 628.193 1.56834 0.155195 0
M  V30 6908 C 629.441 1.82536 0.867462 0
M  V30 6909 C 629.762 0.698168 1.82073 0
M  V30 6910 O 629.032 -0.280807 1.93877 0
M  V30 6911 H 627.612 0.673401 0.323327 0
M  V30 6912 H 630.274 1.94313 0.151156 0
M  V30 6913 H 629.37 2.77171 1.43466 0
M  V30 6914 N 629.671 -0.424282 1.51781 0
M  V30 6915 C 630.92 -1.16961 1.64326 0
M  V30 6916 C 631.233 -1.92035 0.371749 0
M  V30 6917 O 632.439 -2.68873 0.37676 0
M  V30 6918 C 630.895 -2.12782 2.90262 0
M  V30 6919 C 630.503 -1.43295 4.24465 0
M  V30 6920 C 632.247 -2.87667 3.12166 0
M  V30 6921 C 630.154 -2.37676 5.41538 0
M  V30 6922 H 629.084 -0.440293 0.612093 0
M  V30 6923 H 631.735 -0.435431 1.78259 0
M  V30 6924 H 630.117 -2.8969 2.69992 0
M  V30 6925 H 631.291 -0.718564 4.55163 0
M  V30 6926 H 629.606 -0.805118 4.08542 0
M  V30 6927 H 632.203 -3.58395 3.96808 0
M  V30 6928 H 632.546 -3.49758 2.25776 0
M  V30 6929 H 633.079 -2.17863 3.32837 0
M  V30 6930 H 629.818 -1.80255 6.30229 0
M  V30 6931 H 629.338 -3.07132 5.15199 0
M  V30 6932 H 631.017 -2.98529 5.74012 0
M  V30 6933 N 631.149 -1.42148 -0.680565 0
M  V30 6934 C 632.059 -1.47565 -1.82378 0
M  V30 6935 C 633.075 -0.36489 -1.70131 0
M  V30 6936 O 634.251 -0.614916 -1.91783 0
M  V30 6937 C 631.316 -1.37013 -3.18478 0
M  V30 6938 C 630.377 -2.58532 -3.42724 0
M  V30 6939 C 629.61 -2.48473 -4.72331 0
M  V30 6940 O 629.833 -1.51745 -5.49845 0
M  V30 6941 O 628.767 -3.38503 -4.97694 0
M  V30 6942 H 632.593 -2.44045 -1.80764 0
M  V30 6943 H 630.178 -1.23849 -0.835569 0
M  V30 6944 H 632.06 -1.33468 -3.99705 0
M  V30 6945 H 630.735 -0.436552 -3.20743 0
M  V30 6946 H 629.642 -2.67652 -2.61368 0
M  V30 6947 H 630.975 -3.50769 -3.45286 0
M  V30 6948 N 632.627 0.916307 -1.28225 0
M  V30 6949 C 633.876 1.65975 -1.14608 0
M  V30 6950 C 634.189 1.93204 0.305191 0
M  V30 6951 O 635.395 2.65611 0.562432 0
M  V30 6952 C 633.851 2.98989 -2.00333 0
M  V30 6953 C 633.459 2.79417 -3.50186 0
M  V30 6954 C 635.203 3.76856 -1.95397 0
M  V30 6955 C 633.11 4.08056 -4.28071 0
M  V30 6956 H 632.04 0.622587 -0.425324 0
M  V30 6957 H 634.691 1.01705 -1.52736 0
M  V30 6958 H 633.073 3.6438 -1.5506 0
M  V30 6959 H 634.247 2.22723 -4.034 0
M  V30 6960 H 632.562 2.14966 -3.56621 0
M  V30 6961 H 635.159 4.72203 -2.50856 0
M  V30 6962 H 635.502 4.05776 -0.930137 0
M  V30 6963 H 636.035 3.1828 -2.38626 0
M  V30 6964 H 632.774 3.8431 -5.31024 0
M  V30 6965 H 632.294 4.64371 -3.79631 0
M  V30 6966 H 633.973 4.76333 -4.37854 0
M  V30 6967 N 634.105 1.10431 1.1244 0
M  V30 6968 C 635.037 0.710945 2.17895 0
M  V30 6969 C 636.05 -0.252315 1.60833 0
M  V30 6970 O 637.239 -0.03679 1.78462 0
M  V30 6971 C 634.339 0.0284262 3.38888 0
M  V30 6972 C 633.512 1.01585 4.2544 0
M  V30 6973 C 632.571 0.364826 5.24934 0
M  V30 6974 O 631.597 1.01561 5.60066 0
M  V30 6975 N 632.799 -0.87674 5.73841 0
M  V30 6976 H 635.564 1.61826 2.52255 0
M  V30 6977 H 633.125 0.993132 1.27861 0
M  V30 6978 H 635.117 -0.418568 4.0253 0
M  V30 6979 H 633.687 -0.781294 3.02679 0
M  V30 6980 H 632.907 1.64111 3.58415 0
M  V30 6981 H 634.195 1.68425 4.80115 0
M  V30 6982 H 633.593 -1.42483 5.47462 0
M  V30 6983 H 632.15 -1.26688 6.39369 0
M  V30 6984 N 635.583 -1.29855 0.893053 0
M  V30 6985 C 636.493 -2.31661 0.370157 0
M  V30 6986 C 637.509 -1.65677 -0.531723 0
M  V30 6987 O 638.685 -1.9691 -0.422902 0
M  V30 6988 C 635.75 -3.44388 -0.399741 0
M  V30 6989 C 634.811 -4.2598 0.532861 0
M  V30 6990 C 634.044 -5.33324 -0.200388 0
M  V30 6991 O 634.267 -5.52305 -1.42531 0
M  V30 6992 O 633.201 -6.00188 0.453668 0
M  V30 6993 H 637.027 -2.78354 1.2146 0
M  V30 6994 H 634.612 -1.34171 0.657153 0
M  V30 6995 H 636.494 -4.13037 -0.835358 0
M  V30 6996 H 635.169 -2.99815 -1.22035 0
M  V30 6997 H 634.076 -3.59998 1.01746 0
M  V30 6998 H 635.409 -4.74178 1.3197 0
M  V30 6999 N 637.061 -0.65484 -1.43351 0
M  V30 7000 C 637.971 0.0363603 -2.34572 0
M  V30 7001 C 638.987 0.810432 -1.53974 0
M  V30 7002 O 640.163 0.757308 -1.86619 0
M  V30 7003 C 637.228 0.989733 -3.32273 0
M  V30 7004 C 636.289 0.212414 -4.28774 0
M  V30 7005 C 635.522 1.12038 -5.21808 0
M  V30 7006 O 635.745 2.35967 -5.19303 0
M  V30 7007 O 634.679 0.59191 -5.98982 0
M  V30 7008 H 638.505 -0.714527 -2.95175 0
M  V30 7009 H 636.09 -0.415029 -1.4352 0
M  V30 7010 H 637.972 1.53759 -3.92347 0
M  V30 7011 H 636.647 1.72082 -2.74171 0
M  V30 7012 H 635.554 -0.379062 -3.72175 0
M  V30 7013 H 636.887 -0.479138 -4.89862 0
M  V30 7014 N 638.539 1.52521 -0.396863 0
M  V30 7015 C 639.767 2.06091 0.18275 0
M  V30 7016 C 640.182 1.26796 1.39886 0
M  V30 7017 O 639.539 0.316585 1.79733 0
M  V30 7018 C 639.59 3.57362 0.545377 0
M  V30 7019 O 639.311 4.33656 -0.622428 0
M  V30 7020 C 640.812 4.27305 1.18004 0
M  V30 7021 H 638.032 0.670504 0.025789 0
M  V30 7022 H 640.576 1.96561 -0.564276 0
M  V30 7023 H 638.731 3.66941 1.2423 0
M  V30 7024 H 639.145 5.23507 -0.322662 0
M  V30 7025 H 640.619 5.34366 1.38408 0
M  V30 7026 H 641.096 3.83 2.1496 0
M  V30 7027 H 641.702 4.22064 0.523671 0
M  V30 7028 N 640.017 0.126909 1.57088 0
M  V30 7029 C 640.98 -0.806097 2.14557 0
M  V30 7030 C 641.98 -1.18918 1.08236 0
M  V30 7031 O 643.17 -1.11339 1.33975 0
M  V30 7032 C 640.302 -2.09116 2.69227 0
M  V30 7033 H 641.495 -0.306522 2.98329 0
M  V30 7034 H 639.048 -0.122393 1.5582 0
M  V30 7035 H 639.783 -2.63486 1.89065 0
M  V30 7036 H 639.568 -1.82588 3.46993 0
M  V30 7037 H 641.058 -2.75794 3.13572 0
M  V30 7038 N 641.495 -1.56914 -0.146875 0
M  V30 7039 C 642.458 -1.97368 -1.16526 0
M  V30 7040 C 643.458 -0.860223 -1.35856 0
M  V30 7041 O 644.648 -1.12684 -1.32846 0
M  V30 7042 C 641.78 -2.28974 -2.52555 0
M  V30 7043 H 642.973 -2.88523 -0.818209 0
M  V30 7044 H 640.526 -1.5135 -0.390221 0
M  V30 7045 H 641.261 -1.40611 -2.92231 0
M  V30 7046 H 641.046 -3.10157 -2.39886 0
M  V30 7047 H 642.536 -2.61109 -3.25902 0
M  V30 7048 N 642.974 0.416227 -1.52004 0
M  V30 7049 C 643.922 1.5272 -1.7544 0
M  V30 7050 C 644.916 1.57596 -0.621289 0
M  V30 7051 O 646.122 1.61087 -0.803172 0
M  V30 7052 H 642.497 0.507772 -0.554682 0
M  V30 7053 H 644.468 1.30136 -2.68528 0
M  V30 7054 C 643.217 2.90165 -1.91571 0
M  V30 7055 H 642.54 2.87154 -2.78178 0
M  V30 7056 H 643.98 3.67211 -2.11972 0
M  V30 7057 C 642.439 3.29947 -0.680942 0
M  V30 7058 O 642.969 4.01403 0.154527 0
M  V30 7059 N 641.175 2.8593 -0.518894 0
M  V30 7060 H 640.722 2.2795 -1.19986 0
M  V30 7061 H 640.68 3.12907 0.305985 0
M  V30 7062 N 644.452 1.42507 0.673017 0
M  V30 7063 C 645.701 1.42364 1.42883 0
M  V30 7064 C 646.014 0.0441598 1.9555 0
M  V30 7065 O 647.22 -0.0798679 2.71382 0
M  V30 7066 C 645.676 2.5043 2.58482 0
M  V30 7067 C 645.284 3.94392 2.12506 0
M  V30 7068 C 647.028 2.59455 3.35981 0
M  V30 7069 C 644.935 4.93964 3.25198 0
M  V30 7070 H 643.865 0.52951 0.536782 0
M  V30 7071 H 646.516 1.68422 0.728448 0
M  V30 7072 H 644.898 2.1754 3.30896 0
M  V30 7073 H 646.072 4.36645 1.47233 0
M  V30 7074 H 644.387 3.89233 1.4794 0
M  V30 7075 H 646.984 3.31025 4.19912 0
M  V30 7076 H 647.327 1.63869 3.82691 0
M  V30 7077 H 647.86 2.91549 2.70637 0
M  V30 7078 H 644.599 5.91034 2.83477 0
M  V30 7079 H 644.119 4.56341 3.89247 0
M  V30 7080 H 645.798 5.15763 3.90637 0
M  V30 7081 N 645.93 -0.909495 1.28709 0
M  V30 7082 C 647.341 -1.47419 1.14563 0
M  V30 7083 C 647.692 -1.94432 -0.262832 0
M  V30 7084 O 646.817 -1.82842 -1.15748 0
M  V30 7085 C 647.412 -2.67933 2.07358 0
M  V30 7086 C 645.971 -3.20568 1.97264 0
M  V30 7087 C 645.118 -1.93269 1.98852 0
M  V30 7088 H 648.069 -0.721787 1.41336 0
M  V30 7089 H 648.09 -3.43339 1.64007 0
M  V30 7090 H 647.602 -2.33685 3.09859 0
M  V30 7091 H 645.703 -3.59531 0.978157 0
M  V30 7092 H 645.816 -3.85529 2.84436 0
M  V30 7093 H 644.18 -2.10553 1.43317 0
M  V30 7094 H 644.963 -1.61312 3.0304 0
M  V30 7095 N 647.408 -1.11026 -1.11852 0
M  V30 7096 C 648.636 -0.878818 -1.87308 0
M  V30 7097 C 649.051 0.57111 -1.79955 0
M  V30 7098 O 648.408 1.39409 -1.17777 0
M  V30 7099 C 648.459 -1.3264 -3.36287 0
M  V30 7100 O 648.18 -2.71948 -3.43476 0
M  V30 7101 C 649.681 -1.12974 -4.28663 0
M  V30 7102 H 646.901 -0.315015 -0.592458 0
M  V30 7103 H 649.445 -1.47649 -1.41492 0
M  V30 7104 H 647.6 -0.772269 -3.79625 0
M  V30 7105 H 648.014 -2.91241 -4.3621 0
M  V30 7106 H 649.488 -1.49198 -5.31454 0
M  V30 7107 H 649.965 -0.0689127 -4.39146 0
M  V30 7108 H 650.571 -1.67064 -3.91113 0
M  V30 7109 N 648.886 1.2938 -0.899927 0
M  V30 7110 C 650.302 1.48052 -0.596059 0
M  V30 7111 C 650.502 1.82114 0.862372 0
M  V30 7112 O 649.558 1.91774 1.64253 0
M  V30 7113 C 650.871 2.59332 -1.52208 0
M  V30 7114 C 652.419 2.73208 -1.5273 0
M  V30 7115 C 652.894 3.87617 -2.43961 0
M  V30 7116 N 654.385 3.9495 -2.42009 0
M  V30 7117 C 655.12 4.82824 -3.09303 0
M  V30 7118 N 654.616 5.75387 -3.85877 0
M  V30 7119 N 656.409 4.76317 -2.98459 0
M  V30 7120 H 648.56 1.05546 -1.8432 0
M  V30 7121 H 650.823 0.524314 -0.78981 0
M  V30 7122 H 650.529 2.41029 -2.56121 0
M  V30 7123 H 650.403 3.56139 -1.24278 0
M  V30 7124 H 652.79 2.90908 -0.495614 0
M  V30 7125 H 652.871 1.76975 -1.84698 0
M  V30 7126 H 652.515 3.70672 -3.47224 0
M  V30 7127 H 652.445 4.83218 -2.09303 0
M  V30 7128 H 654.936 3.28744 -1.86375 0
M  V30 7129 H 655.249 6.39235 -4.34279 0
M  V30 7130 H 653.594 5.75272 -3.89984 0
M  V30 7131 H 656.785 4.0299 -2.38152 0
M  V30 7132 H 656.958 5.44589 -3.51179 0
M  V30 7133 N 650.364 0.662433 1.43002 0
M  V30 7134 C 651.274 -0.0239199 2.34588 0
M  V30 7135 C 652.29 -0.802255 1.54402 0
M  V30 7136 O 653.466 -0.747401 1.87018 0
M  V30 7137 C 650.531 -0.972098 3.32793 0
M  V30 7138 C 649.592 -0.189673 4.28881 0
M  V30 7139 C 648.825 -1.09269 5.22395 0
M  V30 7140 O 649.048 -2.33209 5.20547 0
M  V30 7141 O 647.982 -0.560136 5.99288 0
M  V30 7142 H 651.808 0.730171 2.94792 0
M  V30 7143 H 649.393 0.422635 1.43297 0
M  V30 7144 H 651.275 -1.51676 3.93157 0
M  V30 7145 H 649.95 -1.70626 2.75079 0
M  V30 7146 H 648.857 0.398794 3.71968 0
M  V30 7147 H 650.19 0.50511 4.89601 0
M  V30 7148 N 651.842 -1.52309 0.404946 0
M  V30 7149 C 653.088 -2.02731 -0.164857 0
M  V30 7150 C 653.443 -1.28543 -1.43159 0
M  V30 7151 O 652.736 -0.381883 -1.87756 0
M  V30 7152 C 652.93 -3.54284 -0.470895 0
M  V30 7153 C 652.759 -4.43152 0.764625 0
M  V30 7154 C 651.529 -4.88594 1.28858 0
M  V30 7155 C 653.727 -4.874 1.64152 0
M  V30 7156 N 651.709 -5.61577 2.48001 0
M  V30 7157 C 653.08 -5.59121 2.67924 0
M  V30 7158 C 655.135 -4.69421 1.65978 0
M  V30 7159 C 653.838 -6.14772 3.73427 0
M  V30 7160 C 655.864 -5.25966 2.70396 0
M  V30 7161 C 655.226 -5.97606 3.7289 0
M  V30 7162 H 651.325 -0.78169 -0.0220025 0
M  V30 7163 H 653.909 -1.86522 0.558354 0
M  V30 7164 H 652.08 -3.70574 -1.16315 0
M  V30 7165 H 653.812 -3.91394 -1.02921 0
M  V30 7166 H 650.567 -4.6596 0.847232 0
M  V30 7167 H 650.991 -6.02712 3.08329 0
M  V30 7168 H 655.633 -4.13524 0.88079 0
M  V30 7169 H 653.351 -6.69743 4.52184 0
M  V30 7170 H 656.937 -5.13926 2.72711 0
M  V30 7171 H 655.817 -6.40577 4.52361 0
M  V30 7172 N 653.32 -0.135238 -1.57019 0
M  V30 7173 C 654.267 0.808908 -2.1616 0
M  V30 7174 C 655.237 1.25234 -1.09113 0
M  V30 7175 O 656.422 1.32697 -1.37099 0
M  V30 7176 C 653.562 2.04729 -2.77813 0
M  V30 7177 C 652.675 1.65074 -3.99218 0
M  V30 7178 C 651.81 2.84002 -4.48906 0
M  V30 7179 C 650.849 2.40663 -5.62803 0
M  V30 7180 N 649.986 3.5256 -6.07162 0
M  V30 7181 H 654.826 0.297751 -2.96509 0
M  V30 7182 H 652.363 0.135264 -1.46477 0
M  V30 7183 H 654.321 2.7731 -3.11697 0
M  V30 7184 H 652.951 2.53275 -2.00128 0
M  V30 7185 H 652.003 0.823029 -3.7139 0
M  V30 7186 H 653.315 1.29236 -4.81767 0
M  V30 7187 H 652.469 3.64788 -4.84783 0
M  V30 7188 H 651.208 3.23076 -3.65339 0
M  V30 7189 H 650.213 1.58314 -5.26514 0
M  V30 7190 H 651.438 2.02687 -6.48147 0
M  V30 7191 H 649.384 3.91278 -5.26534 0
M  V30 7192 H 649.301 3.20699 -6.84608 0
M  V30 7193 H 650.569 4.33738 -6.47682 0
M  V30 7194 N 654.798 1.5699 0.138552 0
M  V30 7195 C 655.73 1.95515 1.1961 0
M  V30 7196 C 656.743 0.852002 1.38726 0
M  V30 7197 O 657.932 1.13038 1.38147 0
M  V30 7198 C 655.032 2.2213 2.55952 0
M  V30 7199 C 654.205 3.53424 2.57702 0
M  V30 7200 C 653.264 3.6848 3.75645 0
M  V30 7201 O 652.29 4.4079 3.60129 0
M  V30 7202 N 653.492 3.05777 4.93438 0
M  V30 7203 H 656.257 2.86838 0.868557 0
M  V30 7204 H 653.818 1.58542 0.328033 0
M  V30 7205 H 655.81 2.29435 3.33379 0
M  V30 7206 H 654.38 1.3703 2.80965 0
M  V30 7207 H 653.6 3.57484 1.6613 0
M  V30 7208 H 654.888 4.39759 2.55909 0
M  V30 7209 H 654.286 2.46961 5.08947 0
M  V30 7210 H 652.843 3.18631 5.6861 0
M  V30 7211 N 656.276 -0.40816 1.52223 0
M  V30 7212 C 657.223 -1.49737 1.75635 0
M  V30 7213 C 658.193 -1.5493 0.598824 0
M  V30 7214 O 659.378 -1.71487 0.83648 0
M  V30 7215 C 656.518 -2.87174 1.91376 0
M  V30 7216 C 655.631 -2.91283 3.19027 0
M  V30 7217 C 654.766 -4.20026 3.25195 0
M  V30 7218 C 653.805 -4.18113 4.47044 0
M  V30 7219 N 652.942 -5.38429 4.50598 0
M  V30 7220 H 657.782 -1.29075 2.68596 0
M  V30 7221 H 655.319 -0.626518 1.33091 0
M  V30 7222 H 657.277 -3.66959 1.98486 0
M  V30 7223 H 655.907 -3.06329 1.01795 0
M  V30 7224 H 654.959 -2.03984 3.21084 0
M  V30 7225 H 656.271 -2.85734 4.08849 0
M  V30 7226 H 655.425 -5.08204 3.31382 0
M  V30 7227 H 654.164 -4.28271 2.33313 0
M  V30 7228 H 653.169 -3.28325 4.41002 0
M  V30 7229 H 654.394 -4.11507 5.40221 0
M  V30 7230 H 652.34 -5.4734 3.616 0
M  V30 7231 H 652.257 -5.34879 5.34266 0
M  V30 7232 H 653.525 -6.28557 4.61016 0
M  V30 7233 N 657.755 -1.42862 -0.66545 0
M  V30 7234 C 659.171 -1.25993 -0.979687 0
M  V30 7235 C 659.371 -0.170831 -2.00775 0
M  V30 7236 O 658.427 0.454827 -2.4837 0
M  V30 7237 C 659.74 -2.62005 -1.47559 0
M  V30 7238 C 661.288 -2.69437 -1.59288 0
M  V30 7239 C 661.763 -4.05838 -2.12272 0
M  V30 7240 N 663.254 -4.0784 -2.19592 0
M  V30 7241 C 663.989 -5.10205 -2.61684 0
M  V30 7242 N 663.485 -6.22949 -3.03161 0
M  V30 7243 N 665.278 -4.9756 -2.61516 0
M  V30 7244 H 657.429 -2.12395 0.0150493 0
M  V30 7245 H 659.692 -0.946355 -0.0558187 0
M  V30 7246 H 659.398 -3.42605 -0.794654 0
M  V30 7247 H 659.272 -2.86566 -2.45275 0
M  V30 7248 H 661.659 -1.89178 -2.26486 0
M  V30 7249 H 661.74 -2.48655 -0.600374 0
M  V30 7250 H 661.384 -4.86559 -1.4568 0
M  V30 7251 H 661.314 -4.23977 -3.12331 0
M  V30 7252 H 663.805 -3.26452 -1.90361 0
M  V30 7253 H 664.118 -6.96899 -3.33993 0
M  V30 7254 H 662.463 -6.2644 -3.00995 0
M  V30 7255 H 665.654 -4.08551 -2.28481 0
M  V30 7256 H 665.827 -5.77468 -2.93999 0
M  V30 7257 N 659.233 0.902656 -1.29189 0
M  V30 7258 C 660.463 1.68394 -1.19695 0
M  V30 7259 C 660.871 1.87602 0.245384 0
M  V30 7260 O 660.214 1.41084 1.17648 0
M  V30 7261 C 660.276 3.09094 -1.83578 0
M  V30 7262 C 659.94 3.1313 -3.32864 0
M  V30 7263 C 660.937 2.93497 -4.29134 0
M  V30 7264 C 658.622 3.3529 -3.74013 0
M  V30 7265 C 660.616 2.95953 -5.64527 0
M  V30 7266 C 658.303 3.37377 -5.09529 0
M  V30 7267 C 659.301 3.1773 -6.04596 0
M  V30 7268 O 658.989 3.196 -7.37639 0
M  V30 7269 H 658.721 0.532815 -0.416034 0
M  V30 7270 H 661.275 1.1374 -1.71033 0
M  V30 7271 H 659.505 3.65338 -1.26747 0
M  V30 7272 H 661.194 3.69297 -1.68447 0
M  V30 7273 H 661.96 2.76192 -3.98677 0
M  V30 7274 H 657.839 3.49623 -3.00474 0
M  V30 7275 H 661.383 2.80536 -6.38706 0
M  V30 7276 H 657.28 3.54213 -5.39633 0
M  V30 7277 H 658.048 3.35887 -7.46406 0
M  V30 7278 N 660.711 1.11618 1.11262 0
M  V30 7279 C 661.658 0.7762 2.17356 0
M  V30 7280 C 662.628 -0.253152 1.6416 0
M  V30 7281 O 663.813 -0.129655 1.90359 0
M  V30 7282 C 660.953 0.227581 3.44349 0
M  V30 7283 C 660.066 1.31372 4.1154 0
M  V30 7284 C 659.201 0.72544 5.26223 0
M  V30 7285 C 658.24 1.7913 5.85302 0
M  V30 7286 N 657.377 1.22237 6.91377 0
M  V30 7287 H 662.217 1.68508 2.45783 0
M  V30 7288 H 659.754 0.841475 1.20655 0
M  V30 7289 H 661.712 -0.108483 4.17059 0
M  V30 7290 H 660.342 -0.644486 3.16301 0
M  V30 7291 H 659.394 1.7667 3.36885 0
M  V30 7292 H 660.706 2.12005 4.51504 0
M  V30 7293 H 659.86 0.339541 6.05749 0
M  V30 7294 H 658.599 -0.112188 4.87571 0
M  V30 7295 H 657.604 2.18648 5.04453 0
M  V30 7296 H 658.829 2.63199 6.26022 0
M  V30 7297 H 656.775 0.406423 6.5474 0
M  V30 7298 H 656.692 1.9654 7.30006 0
M  V30 7299 H 657.96 0.863426 7.74703 0
M  V30 7300 N 662.189 -1.289 0.906776 0
M  V30 7301 C 663.605 -1.47733 0.603902 0
M  V30 7302 C 663.805 -1.82568 -0.852702 0
M  V30 7303 O 662.861 -1.92642 -1.63234 0
M  V30 7304 C 664.174 -2.58522 1.53581 0
M  V30 7305 C 665.722 -2.72394 1.54177 0
M  V30 7306 C 666.197 -3.86318 2.46013 0
M  V30 7307 N 667.688 -3.93661 2.441 0
M  V30 7308 C 668.423 -4.81177 3.11859 0
M  V30 7309 N 667.919 -5.73333 3.88923 0
M  V30 7310 N 669.712 -4.74728 3.00981 0
M  V30 7311 H 661.863 -1.04567 1.84877 0
M  V30 7312 H 664.126 -0.520118 0.792579 0
M  V30 7313 H 663.832 -2.39667 2.57396 0
M  V30 7314 H 663.706 -3.55475 1.26165 0
M  V30 7315 H 666.093 -2.90641 0.511034 0
M  V30 7316 H 666.174 -1.75993 1.85634 0
M  V30 7317 H 665.818 -3.68826 3.49185 0
M  V30 7318 H 665.748 -4.82102 2.11862 0
M  V30 7319 H 668.239 -3.27751 1.88115 0
M  V30 7320 H 668.552 -6.36923 4.37663 0
M  V30 7321 H 666.897 -5.73196 3.93029 0
M  V30 7322 H 670.088 -4.01722 2.40286 0
M  V30 7323 H 670.261 -5.42719 3.54062 0
M  V30 7324 N 663.667 -0.670007 -1.42649 0
M  V30 7325 C 665.078 -0.268118 -1.84765 0
M  V30 7326 C 665.429 1.18877 -1.56086 0
M  V30 7327 O 664.554 1.90947 -1.01825 0
M  V30 7328 C 665.149 -0.47984 -3.35385 0
M  V30 7329 C 663.708 -0.132116 -3.76168 0
M  V30 7330 C 662.855 -0.774611 -2.66261 0
M  V30 7331 H 665.806 -0.872509 -1.32563 0
M  V30 7332 H 665.827 0.269522 -3.79544 0
M  V30 7333 H 665.339 -1.54026 -3.56227 0
M  V30 7334 H 663.44 0.92505 -3.60934 0
M  V30 7335 H 663.553 -0.569294 -4.75706 0
M  V30 7336 H 661.917 -0.206353 -2.53863 0
M  V30 7337 H 662.7 -1.83839 -2.89928 0
M  V30 7338 N 665.145 1.52092 -0.413018 0
M  V30 7339 C 666.391 2.02815 0.154104 0
M  V30 7340 C 666.746 1.293 1.42475 0
M  V30 7341 O 666.039 0.391835 1.87551 0
M  V30 7342 C 666.233 3.54529 0.4521 0
M  V30 7343 C 666.062 4.4274 -0.788116 0
M  V30 7344 C 664.832 4.87903 -1.31447 0
M  V30 7345 C 667.03 4.86522 -1.66735 0
M  V30 7346 N 665.012 5.60254 -2.50976 0
M  V30 7347 C 666.383 5.57692 -2.70886 0
M  V30 7348 C 668.438 4.68534 -1.68465 0
M  V30 7349 C 667.141 6.12783 -3.76682 0
M  V30 7350 C 669.167 5.24524 -2.73182 0
M  V30 7351 C 668.529 5.9562 -3.76054 0
M  V30 7352 H 664.628 0.781796 0.0178567 0
M  V30 7353 H 667.212 1.86223 -0.568237 0
M  V30 7354 H 665.383 3.71186 1.14348 0
M  V30 7355 H 667.115 3.91934 1.00844 0
M  V30 7356 H 663.87 4.65504 -0.871931 0
M  V30 7357 H 664.294 6.01069 -3.11521 0
M  V30 7358 H 668.936 4.13051 -0.902708 0
M  V30 7359 H 666.654 6.67335 -4.55729 0
M  V30 7360 H 670.24 5.12473 -2.75433 0
M  V30 7361 H 669.12 6.38169 -4.55752 0
M  V30 7362 N 666.623 0.143563 1.56945 0
M  V30 7363 C 667.869 -0.50916 1.96304 0
M  V30 7364 C 668.202 -1.64741 1.0283 0
M  V30 7365 O 667.477 -1.94374 0.0700361 0
M  V30 7366 C 667.76 -1.0186 3.45393 0
M  V30 7367 C 667.613 0.117923 4.49645 0
M  V30 7368 C 668.932 -1.90151 3.96901 0
M  V30 7369 H 666.051 -0.183608 0.713763 0
M  V30 7370 H 668.693 0.224095 1.88674 0
M  V30 7371 H 666.843 -1.64345 3.52027 0
M  V30 7372 H 668.515 0.754145 4.55094 0
M  V30 7373 H 666.758 0.777568 4.26774 0
M  V30 7374 H 667.429 -0.280187 5.51288 0
M  V30 7375 H 669.905 -1.375 3.92725 0
M  V30 7376 H 668.781 -2.22707 5.0169 0
M  V30 7377 H 669.042 -2.83718 3.39052 0
M  V30 7378 N 668.101 -1.57061 -0.130224 0
M  V30 7379 C 669.033 -1.96147 -1.18571 0
M  V30 7380 C 670.046 -0.859347 -1.38272 0
M  V30 7381 O 671.235 -1.13769 -1.37545 0
M  V30 7382 C 668.335 -2.23484 -2.54771 0
M  V30 7383 C 667.508 -3.54786 -2.55824 0
M  V30 7384 C 666.567 -3.70467 -3.73686 0
M  V30 7385 O 665.593 -4.42693 -3.57787 0
M  V30 7386 N 666.795 -3.08389 -4.91809 0
M  V30 7387 H 669.56 -2.87295 -0.853333 0
M  V30 7388 H 667.121 -1.58714 -0.319621 0
M  V30 7389 H 669.113 -2.312 -3.32158 0
M  V30 7390 H 667.683 -1.38518 -2.80235 0
M  V30 7391 H 666.903 -3.5836 -1.64232 0
M  V30 7392 H 668.191 -4.4111 -2.53573 0
M  V30 7393 H 667.589 -2.49656 -5.0763 0
M  V30 7394 H 666.146 -3.21642 -5.66912 0
M  V30 7395 N 669.579 0.400081 -1.52437 0
M  V30 7396 C 670.827 1.14392 -1.6661 0
M  V30 7397 C 671.148 1.90792 -0.402927 0
M  V30 7398 O 670.418 1.87042 0.582425 0
M  V30 7399 H 668.998 0.425275 -0.614125 0
M  V30 7400 H 671.66 0.455076 -1.89513 0
M  V30 7401 H 670.756 1.85298 -2.51139 0
M  V30 7402 N 671.057 1.43213 0.657864 0
M  V30 7403 C 672.334 1.35063 1.41483 0
M  V30 7404 C 672.714 -0.0038314 2.111 0
M  V30 7405 O 672.062 -1.02018 2.04462 0
M  V30 7406 C 672.272 2.53061 2.40335 0
M  V30 7407 C 673.62 2.9594 3.04474 0
M  V30 7408 O 674.644 2.53074 2.50663 0
M  V30 7409 O 673.503 3.70184 4.02027 0
M  V30 7410 H 670.597 0.533517 0.631893 0
M  V30 7411 H 673.143 1.55253 0.685162 0
M  V30 7412 H 671.915 3.43283 1.87809 0
M  V30 7413 H 671.538 2.34945 3.20759 0
M  V30 7414 N 672.536 -0.895792 1.29666 0
M  V30 7415 C 673.764 -1.68001 1.20761 0
M  V30 7416 C 674.179 -1.87379 -0.231187 0
M  V30 7417 O 673.536 -1.41359 -1.15429 0
M  V30 7418 C 673.587 -3.06236 1.92098 0
M  V30 7419 O 673.308 -2.8774 3.30359 0
M  V30 7420 C 674.809 -4.00652 1.89717 0
M  V30 7421 H 672.029 -0.524591 0.418384 0
M  V30 7422 H 674.573 -1.11995 1.71106 0
M  V30 7423 H 672.728 -3.59007 1.45578 0
M  V30 7424 H 673.142 -3.75359 3.66342 0
M  V30 7425 H 674.616 -4.95051 2.44189 0
M  V30 7426 H 675.093 -4.30424 0.873595 0
M  V30 7427 H 675.699 -3.53815 2.35998 0
M  V30 7428 N 674.014 -1.12206 -1.10668 0
M  V30 7429 C 675.263 -0.870595 -1.81944 0
M  V30 7430 C 675.576 0.605447 -1.85994 0
M  V30 7431 O 676.782 0.973433 -2.53449 0
M  V30 7432 C 675.238 -1.50783 -3.26791 0
M  V30 7433 C 674.846 -3.01849 -3.31046 0
M  V30 7434 C 676.59 -1.33653 -4.02911 0
M  V30 7435 C 674.497 -3.58518 -4.70339 0
M  V30 7436 H 673.427 -0.322043 -0.681765 0
M  V30 7437 H 676.078 -1.34827 -1.24475 0
M  V30 7438 H 674.46 -0.957825 -3.84242 0
M  V30 7439 H 675.634 -3.63321 -2.83433 0
M  V30 7440 H 673.949 -3.18346 -2.68411 0
M  V30 7441 H 676.546 -1.73416 -5.05797 0
M  V30 7442 H 676.889 -0.279949 -4.15358 0
M  V30 7443 H 677.422 -1.85562 -3.51868 0
M  V30 7444 H 674.161 -4.63925 -4.63091 0
M  V30 7445 H 673.681 -3.01819 -5.18329 0
M  V30 7446 H 675.36 -3.57434 -5.39305 0
M  V30 7447 N 675.492 1.28418 -0.913599 0
M  V30 7448 C 676.717 1.99643 -0.561899 0
M  V30 7449 C 677.142 1.67819 0.849608 0
M  V30 7450 O 676.5 0.910503 1.56779 0
M  V30 7451 C 676.548 3.52116 -0.777622 0
M  V30 7452 O 675.652 4.12076 0.163457 0
M  V30 7453 H 674.993 0.627229 -0.217898 0
M  V30 7454 H 677.523 1.63575 -1.229 0
M  V30 7455 H 677.533 4.02163 -0.687666 0
M  V30 7456 H 676.208 3.74613 -1.8066 0
M  V30 7457 H 674.785 3.72892 0.0247827 0
M  V30 7458 N 676.97 0.677563 1.42291 0
M  V30 7459 C 678.216 0.201272 2.01799 0
M  V30 7460 C 678.549 -1.19004 1.53465 0
M  V30 7461 O 677.824 -1.79953 0.738039 0
M  V30 7462 C 678.107 0.238968 3.59306 0
M  V30 7463 C 677.96 1.66594 4.17812 0
M  V30 7464 C 679.279 -0.411287 4.38174 0
M  V30 7465 H 676.398 0.0746114 0.733214 0
M  V30 7466 H 679.04 0.862872 1.69276 0
M  V30 7467 H 677.19 -0.324368 3.87144 0
M  V30 7468 H 678.862 2.28173 4.00917 0
M  V30 7469 H 677.105 2.20576 3.73536 0
M  V30 7470 H 677.776 1.64398 5.26951 0
M  V30 7471 H 680.252 0.0682804 4.16044 0
M  V30 7472 H 679.128 -0.354286 5.47755 0
M  V30 7473 H 679.389 -1.4893 4.1626 0
M  V30 7474 N 678.448 -1.51871 0.421078 0
M  V30 7475 C 679.696 -2.01539 -0.150492 0
M  V30 7476 C 680.017 -1.30803 -1.44623 0
M  V30 7477 O 679.287 -0.437568 -1.90951 0
M  V30 7478 H 677.867 -0.744698 -0.0586041 0
M  V30 7479 H 680.529 -1.8668 0.560059 0
M  V30 7480 H 679.625 -3.10264 -0.338068 0
M  V30 7481 N 679.926 -0.151884 -1.56866 0
M  V30 7482 C 681.175 0.497992 -1.95456 0
M  V30 7483 C 681.488 1.6569 -1.03953 0
M  V30 7484 O 682.694 2.37173 -1.32142 0
M  V30 7485 C 681.15 0.93732 -3.4748 0
M  V30 7486 C 680.758 -0.194921 -4.47576 0
M  V30 7487 C 682.502 1.55671 -3.94926 0
M  V30 7488 C 680.409 0.26295 -5.90815 0
M  V30 7489 H 679.339 0.189811 -0.729717 0
M  V30 7490 H 681.99 -0.237011 -1.81963 0
M  V30 7491 H 680.372 1.72773 -3.56322 0
M  V30 7492 H 681.546 -0.971951 -4.50433 0
M  V30 7493 H 679.861 -0.72303 -4.10075 0
M  V30 7494 H 682.458 1.91099 -4.99385 0
M  V30 7495 H 682.801 2.44748 -3.36755 0
M  V30 7496 H 683.334 0.831109 -3.89021 0
M  V30 7497 H 680.073 -0.592568 -6.52816 0
M  V30 7498 H 679.593 1.00575 -5.91308 0
M  V30 7499 H 681.272 0.713333 -6.43056 0
M  V30 7500 N 681.404 1.57128 0.121893 0
M  V30 7501 C 682.652 1.84335 0.828548 0
M  V30 7502 C 682.973 0.736632 1.80551 0
M  V30 7503 O 682.243 -0.23962 1.94429 0
M  V30 7504 H 680.823 0.680108 0.30897 0
M  V30 7505 H 683.485 1.9459 0.109906 0
M  V30 7506 H 682.581 2.80152 1.37554 0
M  V30 7507 N 682.882 -0.391992 1.52647 0
M  V30 7508 C 683.814 -1.49811 1.73463 0
M  V30 7509 C 684.827 -1.50734 0.615078 0
M  V30 7510 O 686.016 -1.5469 0.890696 0
M  V30 7511 C 683.116 -2.88667 1.77552 0
M  V30 7512 C 682.289 -3.11743 3.06815 0
M  V30 7513 C 681.348 -4.30564 3.02491 0
M  V30 7514 O 680.374 -4.27014 3.76361 0
M  V30 7515 N 681.576 -5.36593 2.21468 0
M  V30 7516 H 684.341 -1.32343 2.68897 0
M  V30 7517 H 681.902 -0.581475 1.51098 0
M  V30 7518 H 683.894 -3.66251 1.7217 0
M  V30 7519 H 682.464 -2.99508 0.895181 0
M  V30 7520 H 681.684 -2.2205 3.25711 0
M  V30 7521 H 682.972 -3.24013 3.92292 0
M  V30 7522 H 682.37 -5.42332 1.60913 0
M  V30 7523 H 680.927 -6.12855 2.21928 0
M  V30 7524 N 684.36 -1.4356 -0.65026 0
M  V30 7525 C 685.608 -1.45046 -1.40734 0
M  V30 7526 C 685.929 -0.0769822 -1.94848 0
M  V30 7527 O 685.199 0.888098 -1.74613 0
M  V30 7528 H 683.779 -0.534034 -0.522318 0
M  V30 7529 H 686.441 -1.79186 -0.766703 0
M  V30 7530 H 685.537 -2.16476 -2.24822 0
M  V30 7531 N 685.838 0.888903 -1.30139 0
M  V30 7532 C 687.068 1.67115 -1.21474 0
M  V30 7533 C 687.476 1.87852 0.225472 0
M  V30 7534 O 686.819 1.42324 1.16145 0
M  V30 7535 C 686.881 3.0713 -1.86846 0
M  V30 7536 C 686.545 3.09582 -3.36167 0
M  V30 7537 C 687.542 2.88929 -4.32222 0
M  V30 7538 C 685.227 3.31304 -3.77549 0
M  V30 7539 C 687.221 2.89949 -5.67634 0
M  V30 7540 C 684.908 3.31954 -5.13079 0
M  V30 7541 C 685.906 3.113 -6.07932 0
M  V30 7542 O 685.594 3.11758 -7.40987 0
M  V30 7543 H 685.326 0.528372 -0.421662 0
M  V30 7544 H 687.88 1.11919 -1.7223 0
M  V30 7545 H 686.11 3.63973 -1.30615 0
M  V30 7546 H 687.799 3.6749 -1.72354 0
M  V30 7547 H 688.565 2.71948 -4.01584 0
M  V30 7548 H 684.444 3.46417 -3.04165 0
M  V30 7549 H 687.988 2.73746 -6.41645 0
M  V30 7550 H 683.885 3.48469 -5.43359 0
M  V30 7551 H 684.653 3.27951 -7.49927 0
M  V30 7552 N 687.317 1.12792 1.10072 0
M  V30 7553 C 688.563 0.89679 1.82563 0
M  V30 7554 C 688.918 -0.571152 1.83727 0
M  V30 7555 O 688.211 -1.41697 1.28967 0
M  V30 7556 C 688.405 1.4102 3.28403 0
M  V30 7557 C 688.234 2.92652 3.41445 0
M  V30 7558 C 687.004 3.60928 3.53637 0
M  V30 7559 C 689.202 3.9063 3.34534 0
M  V30 7560 N 687.184 5.00638 3.55295 0
M  V30 7561 C 688.555 5.16492 3.42981 0
M  V30 7562 C 690.61 3.82989 3.18157 0
M  V30 7563 C 689.313 6.35609 3.3674 0
M  V30 7564 C 691.339 5.01633 3.13239 0
M  V30 7565 C 690.701 6.26355 3.22272 0
M  V30 7566 H 686.8 0.381482 0.682638 0
M  V30 7567 H 689.384 1.43491 1.31599 0
M  V30 7568 H 687.555 0.899077 3.77851 0
M  V30 7569 H 689.287 1.12075 3.88872 0
M  V30 7570 H 686.042 3.11429 3.56803 0
M  V30 7571 H 686.466 5.73521 3.59725 0
M  V30 7572 H 691.108 2.87454 3.10049 0
M  V30 7573 H 688.826 7.31407 3.43613 0
M  V30 7574 H 692.412 4.97454 3.01713 0
M  V30 7575 H 691.292 7.1662 3.18473 0
M  V30 7576 N 688.795 -1.27931 0.920396 0
M  V30 7577 C 690.023 -1.98805 0.573087 0
M  V30 7578 C 690.438 -1.68724 -0.847201 0
M  V30 7579 O 689.795 -0.943699 -1.56207 0
M  V30 7580 C 689.846 -3.52971 0.780633 0
M  V30 7581 O 689.567 -3.81994 2.14504 0
M  V30 7582 C 691.068 -4.411 0.44105 0
M  V30 7583 H 688.288 -0.634651 0.21785 0
M  V30 7584 H 690.832 -1.62965 1.23542 0
M  V30 7585 H 688.987 -3.87048 0.165204 0
M  V30 7586 H 689.401 -4.76609 2.18962 0
M  V30 7587 H 690.875 -5.48312 0.637006 0
M  V30 7588 H 691.352 -4.34758 -0.62306 0
M  V30 7589 H 691.958 -4.12532 1.0343 0
M  V30 7590 N 690.273 -0.685099 -1.4193 0
M  V30 7591 C 691.236 -0.0222632 -2.29189 0
M  V30 7592 C 692.236 0.7186 -1.4385 0
M  V30 7593 O 693.426 0.555058 -1.6512 0
M  V30 7594 C 690.558 0.979013 -3.2654 0
M  V30 7595 H 691.751 -0.790424 -2.89296 0
M  V30 7596 H 689.304 -0.448012 -1.49742 0
M  V30 7597 H 690.039 1.77531 -2.71392 0
M  V30 7598 H 689.824 0.451037 -3.89497 0
M  V30 7599 H 691.314 1.44091 -3.91954 0
M  V30 7600 N 691.751 1.51645 -0.429126 0
M  V30 7601 C 692.979 2.06433 0.138994 0
M  V30 7602 C 693.394 1.29735 1.37165 0
M  V30 7603 O 692.751 0.354638 1.79021 0
M  V30 7604 C 692.802 3.58439 0.469452 0
M  V30 7605 O 692.523 4.32238 -0.714273 0
M  V30 7606 C 694.024 4.29712 1.08914 0
M  V30 7607 H 691.244 0.6709 0.0115608 0
M  V30 7608 H 693.788 1.9532 -0.605843 0
M  V30 7609 H 691.943 3.69494 1.16419 0
M  V30 7610 H 692.357 5.22704 -0.433633 0
M  V30 7611 H 693.831 5.37182 1.27042 0
M  V30 7612 H 694.308 3.87473 2.06788 0
M  V30 7613 H 694.914 4.2308 0.434028 0
M  V30 7614 N 693.229 0.160201 1.56784 0
M  V30 7615 C 694.64 -0.358417 1.83227 0
M  V30 7616 C 694.991 -1.63831 1.07952 0
M  V30 7617 O 694.116 -2.13885 0.328995 0
M  V30 7618 C 694.711 -0.657058 3.32368 0
M  V30 7619 C 693.27 -1.12015 3.59346 0
M  V30 7620 C 692.417 -0.15015 2.76893 0
M  V30 7621 H 695.368 0.384669 1.53967 0
M  V30 7622 H 695.389 -1.51033 3.49241 0
M  V30 7623 H 694.901 0.274647 3.87127 0
M  V30 7624 H 693.002 -2.06734 3.09987 0
M  V30 7625 H 693.115 -1.037 4.67743 0
M  V30 7626 H 691.479 -0.645361 2.46388 0
M  V30 7627 H 692.262 0.775379 3.34429 0
M  V30 7628 N 694.707 -1.5719 -0.113559 0
M  V30 7629 C 695.637 -2.03772 -1.14013 0
M  V30 7630 C 696.618 -0.923176 -1.42869 0
M  V30 7631 O 697.803 -1.19325 -1.53216 0
M  V30 7632 C 694.933 -2.44663 -2.4649 0
M  V30 7633 C 693.887 -3.59612 -2.32085 0
M  V30 7634 C 693.213 -3.8642 -3.69573 0
M  V30 7635 C 694.513 -4.91149 -1.7768 0
M  V30 7636 H 696.207 -2.89785 -0.752665 0
M  V30 7637 H 693.753 -1.39412 -0.360609 0
M  V30 7638 H 695.706 -2.75857 -3.18561 0
M  V30 7639 H 694.43 -1.55628 -2.87137 0
M  V30 7640 H 693.089 -3.28636 -1.62461 0
M  V30 7641 H 692.737 -2.94581 -4.07715 0
M  V30 7642 H 692.437 -4.63797 -3.60786 0
M  V30 7643 H 693.961 -4.2007 -4.4314 0
M  V30 7644 H 695.375 -5.20843 -2.39574 0
M  V30 7645 H 693.772 -5.72562 -1.79701 0
M  V30 7646 H 694.842 -4.79301 -0.734776 0
M  V30 7647 N 696.185 0.383891 -1.52853 0
M  V30 7648 C 697.117 1.48889 -1.74255 0
M  V30 7649 C 698.13 1.50405 -0.623063 0
M  V30 7650 O 699.319 1.54215 -0.898887 0
M  V30 7651 C 696.419 2.87721 -1.79081 0
M  V30 7652 C 695.592 3.10111 -3.08464 0
M  V30 7653 C 694.651 4.28954 -3.0477 0
M  V30 7654 O 693.677 4.25012 -3.78621 0
M  V30 7655 N 694.879 5.35411 -2.24311 0
M  V30 7656 H 697.644 1.30915 -2.69595 0
M  V30 7657 H 695.205 0.573454 -1.51404 0
M  V30 7658 H 697.197 3.65333 -1.7411 0
M  V30 7659 H 695.767 2.99029 -0.911052 0
M  V30 7660 H 694.987 2.20319 -3.26884 0
M  V30 7661 H 696.275 3.21928 -3.94005 0
M  V30 7662 H 695.673 5.41471 -1.63787 0
M  V30 7663 H 694.23 6.1167 -2.25175 0
M  V30 7664 N 697.663 1.43903 0.642637 0
M  V30 7665 C 698.909 1.46296 1.40447 0
M  V30 7666 C 699.242 0.0908361 1.93987 0
M  V30 7667 O 698.517 -0.889884 1.72949 0
M  V30 7668 C 698.8 2.51399 2.57819 0
M  V30 7669 C 698.653 3.97926 2.09702 0
M  V30 7670 C 699.972 2.53125 3.60022 0
M  V30 7671 H 697.091 0.532676 0.509338 0
M  V30 7672 H 699.733 1.75515 0.727635 0
M  V30 7673 H 697.883 2.26614 3.1556 0
M  V30 7674 H 699.555 4.33804 1.5688 0
M  V30 7675 H 697.798 4.10252 1.40982 0
M  V30 7676 H 698.469 4.67096 2.94152 0
M  V30 7677 H 700.945 2.75242 3.12059 0
M  V30 7678 H 699.821 3.28589 4.39682 0
M  V30 7679 H 700.082 1.56895 4.13324 0
M  V30 7680 N 699.141 -0.881989 1.30609 0
M  V30 7681 C 700.104 -1.96957 1.1722 0
M  V30 7682 C 701.104 -1.60472 0.102598 0
M  V30 7683 O 702.294 -1.70628 0.350943 0
M  V30 7684 C 699.426 -3.31463 0.796572 0
M  V30 7685 H 700.619 -2.10262 2.13846 0
M  V30 7686 H 698.172 -1.06877 1.14048 0
M  V30 7687 H 698.907 -3.23859 -0.169053 0
M  V30 7688 H 698.692 -3.59314 1.56959 0
M  V30 7689 H 700.182 -4.11233 0.72645 0
M  V30 7690 N 700.619 -1.13374 -1.09472 0
M  V30 7691 C 701.566 -0.810682 -2.16094 0
M  V30 7692 C 702.536 0.227003 -1.64541 0
M  V30 7693 O 703.721 0.0993538 -1.90541 0
M  V30 7694 C 700.861 -0.282336 -3.43943 0
M  V30 7695 C 699.974 -1.37902 -4.09398 0
M  V30 7696 C 699.109 -0.809066 -5.25002 0
M  V30 7697 C 698.148 -1.88419 -5.82379 0
M  V30 7698 N 697.285 -1.33221 -6.89345 0
M  V30 7699 H 702.125 -1.72397 -2.43071 0
M  V30 7700 H 699.662 -0.860564 -1.19301 0
M  V30 7701 H 701.62 0.0421189 -4.17179 0
M  V30 7702 H 700.25 0.594083 -3.17286 0
M  V30 7703 H 699.302 -1.82008 -3.34032 0
M  V30 7704 H 700.614 -2.19161 -4.48074 0
M  V30 7705 H 699.768 -0.435867 -6.05132 0
M  V30 7706 H 698.507 0.0346058 -4.87688 0
M  V30 7707 H 697.512 -2.26646 -5.00911 0
M  V30 7708 H 698.737 -2.73125 -6.21755 0
M  V30 7709 H 696.683 -0.510535 -6.5401 0
M  V30 7710 H 696.6 -2.08129 -7.26786 0
M  V30 7711 H 697.868 -0.986565 -7.73232 0
M  V30 7712 N 702.098 1.27442 -0.927168 0
M  V30 7713 C 703.061 2.2512 -0.430525 0
M  V30 7714 C 704.061 1.54357 0.450619 0
M  V30 7715 O 705.251 1.72371 0.251774 0
M  V30 7716 C 702.383 3.38763 0.381144 0
M  V30 7717 H 703.576 2.70569 -1.29354 0
M  V30 7718 H 701.129 1.39355 -0.707806 0
M  V30 7719 H 701.864 2.98695 1.263 0
M  V30 7720 H 701.649 3.91298 -0.250618 0
M  V30 7721 H 703.139 4.11364 0.719012 0
M  V30 7722 N 703.576 0.692616 1.41565 0
M  V30 7723 C 704.804 0.231279 2.05603 0
M  V30 7724 C 705.219 -1.11837 1.52111 0
M  V30 7725 O 704.576 -1.6983 0.66813 0
M  V30 7726 C 704.627 0.177125 3.61066 0
M  V30 7727 O 704.348 1.47346 4.12578 0
M  V30 7728 C 705.849 -0.30556 4.42246 0
M  V30 7729 H 703.069 0.108238 0.662213 0
M  V30 7730 H 705.613 0.944369 1.81389 0
M  V30 7731 H 703.768 -0.486769 3.8433 0
M  V30 7732 H 704.182 1.35861 5.06599 0
M  V30 7733 H 705.656 -0.29233 5.51225 0
M  V30 7734 H 706.133 -1.34393 4.18133 0
M  V30 7735 H 706.739 0.327229 4.24039 0
M  V30 7736 N 705.054 -1.51416 0.437162 0
M  V30 7737 C 706.282 -2.06503 -0.128045 0
M  V30 7738 C 706.697 -1.30461 -1.36475 0
M  V30 7739 O 706.054 -0.364127 -1.78831 0
M  V30 7740 C 706.105 -3.58683 -0.450437 0
M  V30 7741 O 705.826 -4.31853 0.737186 0
M  V30 7742 C 707.327 -4.30284 -1.06633 0
M  V30 7743 H 704.547 -0.670952 -0.00800269 0
M  V30 7744 H 707.091 -1.94996 0.616193 0
M  V30 7745 H 705.246 -3.70106 -1.14457 0
M  V30 7746 H 705.66 -5.22467 0.461347 0
M  V30 7747 H 707.134 -5.37848 -1.24191 0
M  V30 7748 H 707.611 -3.88564 -2.0473 0
M  V30 7749 H 708.217 -4.23304 -0.411585 0
M  V30 7750 N 706.532 -0.168513 -1.56696 0
M  V30 7751 C 707.781 0.477233 -1.95973 0
M  V30 7752 C 708.094 1.64578 -1.05704 0
M  V30 7753 O 709.3 2.35758 -1.3465 0
M  V30 7754 C 707.756 0.900413 -3.48455 0
M  V30 7755 C 707.364 -0.242382 -4.47344 0
M  V30 7756 C 709.108 1.51474 -3.96555 0
M  V30 7757 C 707.015 0.200272 -5.91061 0
M  V30 7758 H 705.945 0.182061 -0.73169 0
M  V30 7759 H 708.596 -0.256297 -1.81701 0
M  V30 7760 H 706.978 1.68984 -3.58135 0
M  V30 7761 H 708.152 -1.01967 -4.49377 0
M  V30 7762 H 706.467 -0.766484 -4.09285 0
M  V30 7763 H 709.064 1.85792 -5.01384 0
M  V30 7764 H 709.407 2.41163 -3.39332 0
M  V30 7765 H 709.94 0.789802 -3.89881 0
M  V30 7766 H 706.679 -0.661775 -6.52151 0
M  V30 7767 H 706.199 0.942979 -5.92341 0
M  V30 7768 H 707.878 0.645088 -6.43776 0
M  V30 7769 N 708.01 1.57248 0.105221 0
M  V30 7770 C 708.94 2.04374 1.12931 0
M  V30 7771 C 709.921 0.93074 1.42377 0
M  V30 7772 O 711.106 1.20136 1.52581 0
M  V30 7773 C 708.236 2.45967 2.45189 0
M  V30 7774 C 707.19 3.60838 2.30174 0
M  V30 7775 C 706.516 3.88374 3.67518 0
M  V30 7776 C 707.816 4.92084 1.75073 0
M  V30 7777 H 709.51 2.9018 0.737287 0
M  V30 7778 H 707.056 1.39601 0.353211 0
M  V30 7779 H 709.009 2.77542 3.17094 0
M  V30 7780 H 707.733 1.57148 2.86308 0
M  V30 7781 H 706.392 3.29493 1.60716 0
M  V30 7782 H 706.04 2.96739 4.06147 0
M  V30 7783 H 705.74 4.65703 3.58321 0
M  V30 7784 H 707.264 4.22415 4.40906 0
M  V30 7785 H 708.678 5.22106 2.36809 0
M  V30 7786 H 707.075 5.73507 1.76662 0
M  V30 7787 H 708.145 4.79684 0.709347 0
M  V30 7788 N 709.488 -0.375779 1.53054 0
M  V30 7789 C 710.734 -1.12114 1.68992 0
M  V30 7790 C 711.067 -1.8926 0.435238 0
M  V30 7791 O 710.342 -1.86044 -0.567278 0
M  V30 7792 C 710.625 -2.08867 2.93337 0
M  V30 7793 C 710.478 -1.35397 4.28938 0
M  V30 7794 C 711.797 -3.09124 3.13257 0
M  V30 7795 H 708.916 -0.406207 0.614951 0
M  V30 7796 H 711.558 -0.403054 1.85676 0
M  V30 7797 H 709.708 -2.70102 2.79244 0
M  V30 7798 H 711.38 -0.770242 4.54824 0
M  V30 7799 H 709.623 -0.655801 4.28814 0
M  V30 7800 H 710.294 -2.06161 5.12056 0
M  V30 7801 H 712.77 -2.57987 3.26469 0
M  V30 7802 H 711.646 -3.74054 4.01715 0
M  V30 7803 H 711.907 -3.78729 2.28072 0
M  V30 7804 N 710.966 -1.44241 -0.634997 0
M  V30 7805 C 711.914 -1.51103 -1.76835 0
M  V30 7806 C 712.908 -0.383051 -1.65012 0
M  V30 7807 O 714.114 -0.557832 -1.71138 0
M  V30 7808 H 710.489 -0.474076 -0.583743 0
M  V30 7809 H 712.46 -2.46499 -1.68169 0
M  V30 7810 C 711.209 -1.4687 -3.15158 0
M  V30 7811 H 710.532 -2.32979 -3.24901 0
M  V30 7812 H 711.972 -1.55731 -3.94365 0
M  V30 7813 C 710.431 -0.188884 -3.3637 0
M  V30 7814 O 710.961 0.742487 -3.94778 0
M  V30 7815 N 709.167 -0.0932516 -2.9045 0
M  V30 7816 H 708.714 -0.852004 -2.43102 0
M  V30 7817 H 708.672 0.762308 -3.05018 0
M  V30 7818 N 712.444 0.87505 -1.31075 0
M  V30 7819 C 713.392 2.00317 -1.18219 0
M  V30 7820 C 714.386 1.69152 -0.0916872 0
M  V30 7821 O 715.592 1.7821 -0.253229 0
M  V30 7822 H 711.967 0.656981 -0.365895 0
M  V30 7823 H 713.938 2.08293 -2.13674 0
M  V30 7824 C 712.687 3.35821 -0.901095 0
M  V30 7825 H 712.01 3.6032 -1.73233 0
M  V30 7826 H 713.45 4.15366 -0.851295 0
M  V30 7827 C 711.909 3.34563 0.396114 0
M  V30 7828 O 712.439 3.75971 1.41452 0
M  V30 7829 N 710.645 2.87681 0.410832 0
M  V30 7830 H 710.192 2.54179 -0.418415 0
M  V30 7831 H 710.15 2.87223 1.27869 0
M  V30 7832 N 713.922 1.13953 1.08869 0
M  V30 7833 C 715.17 0.903023 1.80803 0
M  V30 7834 C 715.491 -0.572151 1.86417 0
M  V30 7835 O 714.761 -1.41589 1.35386 0
M  V30 7836 H 713.341 0.331099 0.669614 0
M  V30 7837 H 716.003 1.43719 1.31647 0
M  V30 7838 H 715.099 1.29881 2.83791 0
M  V30 7839 N 715.4 -1.26948 0.933913 0
M  V30 7840 C 716.347 -2.26635 0.436484 0
M  V30 7841 C 717.317 -1.58397 -0.499953 0
M  V30 7842 O 718.502 -1.86171 -0.417753 0
M  V30 7843 C 715.642 -3.43803 -0.298951 0
M  V30 7844 C 714.755 -4.26736 0.672316 0
M  V30 7845 C 713.89 -5.31134 -0.0835872 0
M  V30 7846 C 712.929 -6.05742 0.879979 0
M  V30 7847 N 712.066 -7.01926 0.156301 0
M  V30 7848 H 716.906 -2.68558 1.29154 0
M  V30 7849 H 714.443 -1.32052 0.648118 0
M  V30 7850 H 716.401 -4.10554 -0.741723 0
M  V30 7851 H 715.031 -3.02814 -1.1182 0
M  V30 7852 H 714.083 -3.59842 1.23361 0
M  V30 7853 H 715.395 -4.78502 1.40846 0
M  V30 7854 H 714.549 -6.03863 -0.585984 0
M  V30 7855 H 713.288 -4.80188 -0.852661 0
M  V30 7856 H 712.293 -5.31846 1.39357 0
M  V30 7857 H 713.518 -6.58777 1.64894 0
M  V30 7858 H 711.464 -6.53301 -0.594413 0
M  V30 7859 H 711.381 -7.51409 0.831906 0
M  V30 7860 H 712.649 -7.78821 -0.325239 0
M  V30 7861 N 716.879 -0.700114 -1.41195 0
M  V30 7862 C 718.125 -0.233351 -2.01453 0
M  V30 7863 C 718.458 1.16548 -1.55339 0
M  V30 7864 O 717.733 1.78756 -0.766575 0
M  V30 7865 C 718.016 -0.2961 -3.58881 0
M  V30 7866 C 717.869 -1.7322 -4.15108 0
M  V30 7867 C 719.188 0.341525 -4.38773 0
M  V30 7868 H 716.307 -0.0862667 -0.731934 0
M  V30 7869 H 718.949 -0.889693 -1.67882 0
M  V30 7870 H 717.099 0.262736 -3.87611 0
M  V30 7871 H 718.771 -2.34523 -3.97236 0
M  V30 7872 H 717.014 -2.2649 -3.69979 0
M  V30 7873 H 717.685 -1.7276 -5.24269 0
M  V30 7874 H 720.161 -0.134461 -4.15883 0
M  V30 7875 H 719.037 0.267098 -5.4825 0
M  V30 7876 H 719.298 1.42289 -4.18577 0
M  V30 7877 N 718.357 1.51182 -0.445186 0
M  V30 7878 C 719.305 2.29531 0.376597 0
M  V30 7879 C 720.299 1.35711 1.01385 0
M  V30 7880 O 721.505 1.53018 0.947922 0
M  V30 7881 H 717.88 0.738803 0.140267 0
M  V30 7882 H 719.851 2.96838 -0.304958 0
M  V30 7883 C 718.6 3.1552 1.4609 0
M  V30 7884 H 717.923 3.87605 0.979912 0
M  V30 7885 H 719.363 3.73384 2.009 0
M  V30 7886 C 717.822 2.31406 2.44852 0
M  V30 7887 O 718.352 1.97912 3.49562 0
M  V30 7888 N 716.558 1.94478 2.15932 0
M  V30 7889 H 716.105 2.21917 1.30808 0
M  V30 7890 H 716.063 1.38498 2.82251 0
M  V30 7891 N 719.835 0.176821 1.56605 0
M  V30 7892 C 721.063 -0.472828 2.01425 0
M  V30 7893 C 721.478 -1.56436 1.05703 0
M  V30 7894 O 720.835 -1.82405 0.058808 0
M  V30 7895 C 720.886 -1.04607 3.46034 0
M  V30 7896 O 720.607 0.00189608 4.381 0
M  V30 7897 C 722.108 -1.7734 4.06282 0
M  V30 7898 H 719.328 -0.120503 0.660091 0
M  V30 7899 H 721.872 0.280166 2.02572 0
M  V30 7900 H 720.027 -1.74953 3.45645 0
M  V30 7901 H 720.441 -0.422118 5.22799 0
M  V30 7902 H 721.915 -2.12703 5.09374 0
M  V30 7903 H 722.392 -2.67043 3.4869 0
M  V30 7904 H 722.998 -1.11623 4.10391 0
M  V30 7905 N 721.313 -1.57302 -0.09688 0
M  V30 7906 C 722.724 -1.7496 -0.651595 0
M  V30 7907 C 723.075 -0.798746 -1.79205 0
M  V30 7908 O 722.2 0.0231858 -2.16388 0
M  V30 7909 C 722.795 -3.17259 -1.18878 0
M  V30 7910 C 721.354 -3.36348 -1.68958 0
M  V30 7911 C 720.501 -2.70766 -0.598413 0
M  V30 7912 H 723.452 -1.58173 0.12918 0
M  V30 7913 H 723.473 -3.20033 -2.05814 0
M  V30 7914 H 722.985 -3.8644 -0.358523 0
M  V30 7915 H 721.086 -2.72243 -2.5439 0
M  V30 7916 H 721.199 -4.44654 -1.7838 0
M  V30 7917 H 719.563 -2.32615 -1.03743 0
M  V30 7918 H 720.346 -3.42586 0.221238 0
M  V30 7919 N 722.791 0.367657 -1.53252 0
M  V30 7920 C 723.741 1.45035 -1.75923 0
M  V30 7921 C 724.725 1.48736 -0.613719 0
M  V30 7922 O 725.917 1.54012 -0.872313 0
M  V30 7923 C 723.046 2.82493 -1.9507 0
M  V30 7924 C 722.132 2.83279 -3.15617 0
M  V30 7925 N 722.523 2.53712 -4.37566 0
M  V30 7926 C 720.821 3.1444 -3.16297 0
M  V30 7927 C 721.522 2.62123 -5.19294 0
M  V30 7928 N 720.498 2.96747 -4.55458 0
M  V30 7929 H 724.3 1.21035 -2.6782 0
M  V30 7930 H 721.814 0.575822 -1.51849 0
M  V30 7931 H 723.811 3.60473 -2.0944 0
M  V30 7932 H 722.471 3.07459 -1.044 0
M  V30 7933 H 723.482 2.27344 -4.65333 0
M  V30 7934 H 720.159 3.44733 -2.35511 0
M  V30 7935 H 721.549 2.42628 -6.26563 0
M  V30 7936 N 724.269 1.44576 0.627338 0
M  V30 7937 C 725.199 1.54562 1.75022 0
M  V30 7938 C 726.18 0.398378 1.65369 0
M  V30 7939 O 727.365 0.61899 1.84071 0
M  V30 7940 C 724.495 1.49309 3.13567 0
M  V30 7941 C 723.449 2.62549 3.38012 0
M  V30 7942 C 722.775 2.42348 4.76625 0
M  V30 7943 C 724.075 4.04678 3.30202 0
M  V30 7944 H 725.769 2.4855 1.66922 0
M  V30 7945 H 723.315 1.19624 0.801636 0
M  V30 7946 H 725.268 1.54895 3.919 0
M  V30 7947 H 723.992 0.518392 3.2246 0
M  V30 7948 H 722.651 2.56358 2.62061 0
M  V30 7949 H 722.299 1.43062 4.82226 0
M  V30 7950 H 721.999 3.18273 4.93939 0
M  V30 7951 H 723.523 2.49758 5.57183 0
M  V30 7952 H 724.937 4.12217 3.98435 0
M  V30 7953 H 723.334 4.80836 3.5905 0
M  V30 7954 H 724.404 4.2798 2.27949 0
M  V30 7955 N 725.747 -0.868086 1.31537 0
M  V30 7956 C 726.68 -1.97871 1.13676 0
M  V30 7957 C 727.658 -1.62551 0.0397589 0
M  V30 7958 O 728.842 -1.87473 0.196539 0
M  V30 7959 C 725.969 -3.30577 0.73734 0
M  V30 7960 C 725.015 -3.8488 1.83765 0
M  V30 7961 S 725.848 -4.10106 3.44345 0
M  V30 7962 C 727.004 -5.45806 3.06344 0
M  V30 7963 H 727.237 -2.12719 2.07697 0
M  V30 7964 H 724.77 -1.01849 1.16044 0
M  V30 7965 H 726.728 -4.07274 0.513641 0
M  V30 7966 H 725.389 -3.13562 -0.183787 0
M  V30 7967 H 724.582 -4.80821 1.51085 0
M  V30 7968 H 724.184 -3.14981 2.01651 0
M  V30 7969 H 726.476 -6.27535 2.55354 0
M  V30 7970 H 727.419 -5.83437 4.01257 0
M  V30 7971 H 727.827 -5.0917 2.43734 0
M  V30 7972 N 727.225 -1.14528 -1.08264 0
M  V30 7973 C 728.172 -0.833556 -2.15222 0
M  V30 7974 C 729.142 0.209539 -1.64773 0
M  V30 7975 O 730.327 0.0791388 -1.90636 0
M  V30 7976 C 727.467 -0.318799 -3.43624 0
M  V30 7977 C 726.58 -1.42237 -4.07913 0
M  V30 7978 C 725.715 -0.864704 -5.24115 0
M  V30 7979 C 724.754 -1.94585 -5.80347 0
M  V30 7980 N 723.891 -1.40525 -6.87893 0
M  V30 7981 H 728.731 -1.74965 -2.41228 0
M  V30 7982 H 726.268 -0.873169 -1.18381 0
M  V30 7983 H 728.226 -0.00213088 -4.172 0
M  V30 7984 H 726.856 0.560397 -3.17898 0
M  V30 7985 H 725.908 -1.8554 -3.32083 0
M  V30 7986 H 727.22 -2.23901 -4.45724 0
M  V30 7987 H 726.374 -0.500025 -6.04636 0
M  V30 7988 H 725.113 -0.0171219 -4.87697 0
M  V30 7989 H 724.118 -2.31946 -4.98479 0
M  V30 7990 H 725.343 -2.79704 -6.18823 0
M  V30 7991 H 723.289 -0.579873 -6.53432 0
M  V30 7992 H 723.206 -2.15825 -7.24538 0
M  V30 7993 H 724.474 -1.06852 -7.72142 0
M  V30 7994 N 728.703 1.26451 -0.940633 0
M  V30 7995 C 729.666 2.24651 -0.454378 0
M  V30 7996 C 730.666 1.54826 0.434222 0
M  V30 7997 O 731.856 1.72628 0.233477 0
M  V30 7998 C 728.988 3.39148 0.345192 0
M  V30 7999 H 730.181 2.69182 -1.32217 0
M  V30 8000 H 727.734 1.38596 -0.722547 0
M  V30 8001 H 728.469 3.00018 1.23125 0
M  V30 8002 H 728.254 3.9101 -0.292107 0
M  V30 8003 H 729.744 4.12103 0.675341 0
M  V30 8004 N 730.181 0.707592 1.40822 0
M  V30 8005 C 731.43 0.240705 2.00259 0
M  V30 8006 C 731.743 -1.17027 1.56729 0
M  V30 8007 O 732.949 -1.73526 2.08809 0
M  V30 8008 C 731.405 0.379432 3.57894 0
M  V30 8009 C 731.013 1.79654 4.104 0
M  V30 8010 C 732.757 -0.0270684 4.24491 0
M  V30 8011 C 730.664 1.88628 5.60512 0
M  V30 8012 H 729.594 0.0862369 0.749052 0
M  V30 8013 H 732.245 0.877528 1.61157 0
M  V30 8014 H 730.627 -0.325842 3.94657 0
M  V30 8015 H 731.801 2.53155 3.85032 0
M  V30 8016 H 730.116 2.15379 3.56372 0
M  V30 8017 H 732.713 0.0193743 5.34696 0
M  V30 8018 H 733.056 -1.06772 4.02375 0
M  V30 8019 H 733.589 0.628361 3.92806 0
M  V30 8020 H 730.328 2.90787 5.87472 0
M  V30 8021 H 729.848 1.19528 5.8777 0
M  V30 8022 H 731.527 1.6547 6.25483 0
M  V30 8023 N 731.66 -1.50943 0.453197 0
M  V30 8024 C 732.57 -2.31884 -0.355963 0
M  V30 8025 C 733.586 -1.41481 -1.01287 0
M  V30 8026 O 734.762 -1.74546 -1.00477 0
M  V30 8027 C 731.827 -3.15668 -1.43369 0
M  V30 8028 C 730.888 -4.2187 -0.795253 0
M  V30 8029 C 730.121 -5.0165 -1.82162 0
M  V30 8030 O 730.344 -4.82266 -3.04592 0
M  V30 8031 O 729.278 -5.85311 -1.40336 0
M  V30 8032 H 733.104 -3.02162 0.305248 0
M  V30 8033 H 730.689 -1.47839 0.215398 0
M  V30 8034 H 732.571 -3.67709 -2.05836 0
M  V30 8035 H 731.246 -2.48137 -2.07869 0
M  V30 8036 H 730.153 -3.73867 -0.132106 0
M  V30 8037 H 731.486 -4.9182 -0.193484 0
M  V30 8038 N 733.138 -0.185124 -1.56509 0
M  V30 8039 C 734.386 0.455357 -1.96903 0
M  V30 8040 C 734.707 1.62839 -1.07277 0
M  V30 8041 O 733.977 1.95385 -0.141966 0
M  V30 8042 H 732.557 0.171218 -0.727113 0
M  V30 8043 H 735.219 -0.26953 -1.93027 0
M  V30 8044 H 734.315 0.80616 -3.01509 0
M  V30 8045 N 734.616 1.57351 0.0885366 0
M  V30 8046 C 735.579 2.01557 1.09121 0
M  V30 8047 C 736.579 0.910052 1.3257 0
M  V30 8048 O 737.769 1.17537 1.28572 0
M  V30 8049 C 734.901 2.38189 2.43883 0
M  V30 8050 H 736.094 2.91361 0.710562 0
M  V30 8051 H 733.647 1.52694 0.333779 0
M  V30 8052 H 734.382 1.5136 2.86811 0
M  V30 8053 H 734.167 3.18846 2.28209 0
M  V30 8054 H 735.657 2.73025 3.15986 0
M  V30 8055 N 736.094 -0.359525 1.53444 0
M  V30 8056 C 737.34 -1.10315 1.70172 0
M  V30 8057 C 737.673 -1.88788 0.455287 0
M  V30 8058 O 736.948 -1.86635 -0.547514 0
M  V30 8059 C 737.231 -2.05744 2.95536 0
M  V30 8060 C 737.084 -1.3084 4.3035 0
M  V30 8061 C 738.403 -3.05784 3.16518 0
M  V30 8062 H 735.522 -0.399662 0.619225 0
M  V30 8063 H 738.164 -0.383338 1.86093 0
M  V30 8064 H 736.314 -2.67125 2.82093 0
M  V30 8065 H 737.986 -0.721959 4.55615 0
M  V30 8066 H 736.229 -0.610283 4.29486 0
M  V30 8067 H 736.9 -2.00718 5.14214 0
M  V30 8068 H 739.376 -2.5451 3.29187 0
M  V30 8069 H 738.252 -3.69772 4.05659 0
M  V30 8070 H 738.513 -3.76289 2.32076 0
M  V30 8071 N 737.572 -1.44907 -0.619662 0
M  V30 8072 C 738.502 -1.55488 -1.742 0
M  V30 8073 C 739.483 -0.407143 -1.65156 0
M  V30 8074 O 740.668 -0.628743 -1.8374 0
M  V30 8075 C 737.798 -1.5097 -3.1277 0
M  V30 8076 C 736.752 -2.64337 -3.36615 0
M  V30 8077 C 736.078 -2.44872 -4.75333 0
M  V30 8078 C 737.378 -4.06423 -3.28051 0
M  V30 8079 H 739.072 -2.49432 -1.65602 0
M  V30 8080 H 736.618 -1.20047 -0.795281 0
M  V30 8081 H 738.571 -1.56971 -3.91073 0
M  V30 8082 H 737.295 -0.535486 -3.2218 0
M  V30 8083 H 735.954 -2.57744 -2.60698 0
M  V30 8084 H 735.602 -1.45617 -4.81461 0
M  V30 8085 H 735.302 -3.20888 -4.92244 0
M  V30 8086 H 736.826 -2.52709 -5.55851 0
M  V30 8087 H 738.24 -4.14324 -3.96243 0
M  V30 8088 H 736.637 -4.82733 -3.56495 0
M  V30 8089 H 737.707 -4.29183 -2.25676 0
M  V30 8090 N 739.05 0.861098 -1.31996 0
M  V30 8091 C 739.96 2.00154 -1.22374 0
M  V30 8092 C 740.976 1.73447 -0.138631 0
M  V30 8093 O 742.152 1.98191 -0.358104 0
M  V30 8094 C 739.217 3.33696 -0.940645 0
M  V30 8095 C 738.278 3.73668 -2.11355 0
M  V30 8096 C 737.511 5.00837 -1.84386 0
M  V30 8097 O 737.734 5.64996 -0.783287 0
M  V30 8098 O 736.668 5.37787 -2.70313 0
M  V30 8099 H 740.494 2.11207 -2.18233 0
M  V30 8100 H 738.079 0.990768 -1.11822 0
M  V30 8101 H 739.961 4.13756 -0.798987 0
M  V30 8102 H 738.636 3.23698 -0.0121636 0
M  V30 8103 H 737.543 2.94211 -2.31065 0
M  V30 8104 H 738.876 3.88303 -3.02459 0
M  V30 8105 N 740.528 1.15101 1.07655 0
M  V30 8106 C 741.939 0.933848 1.61667 0
M  V30 8107 C 742.29 -0.525569 1.8903 0
M  V30 8108 O 741.415 -1.39605 1.65346 0
M  V30 8109 C 742.01 1.68876 2.93711 0
M  V30 8110 C 740.569 1.51697 3.44478 0
M  V30 8111 C 739.716 1.70633 2.18586 0
M  V30 8112 H 742.667 1.30171 0.907816 0
M  V30 8113 H 742.688 1.15645 3.625 0
M  V30 8114 H 742.2 2.7509 2.73764 0
M  V30 8115 H 740.301 0.478635 3.69513 0
M  V30 8116 H 740.414 2.29194 4.20722 0
M  V30 8117 H 738.778 1.13259 2.28132 0
M  V30 8118 H 739.561 2.78206 2.01137 0
M  V30 8119 N 742.006 -1.2595 0.947325 0
M  V30 8120 C 743.236 -1.97258 0.614235 0
M  V30 8121 C 743.644 -1.70682 -0.816355 0
M  V30 8122 O 742.987 -0.97527 -1.55673 0
M  V30 8123 C 743.049 -3.50845 0.784081 0
M  V30 8124 C 742.713 -4.01084 2.19045 0
M  V30 8125 C 743.71 -4.12347 3.16648 0
M  V30 8126 C 741.395 -4.34936 2.51268 0
M  V30 8127 C 743.389 -4.56766 4.44572 0
M  V30 8128 C 741.076 -4.79043 3.79422 0
M  V30 8129 C 742.074 -4.89919 4.75887 0
M  V30 8130 O 741.762 -5.3305 6.01758 0
M  V30 8131 H 741.494 -0.635738 0.22981 0
M  V30 8132 H 744.048 -1.61268 1.27207 0
M  V30 8133 H 742.278 -3.86638 0.069101 0
M  V30 8134 H 743.967 -4.03363 0.453135 0
M  V30 8135 H 744.733 -3.86432 2.93079 0
M  V30 8136 H 740.612 -4.25702 1.76916 0
M  V30 8137 H 744.156 -4.6517 5.19868 0
M  V30 8138 H 740.053 -5.04402 4.02802 0
M  V30 8139 H 740.821 -5.51255 6.05029 0
M  V30 8140 N 743.484 -0.715051 -1.40445 0
M  V30 8141 C 744.394 -0.0631624 -2.34515 0
M  V30 8142 C 745.41 0.744397 -1.57273 0
M  V30 8143 O 746.586 0.677475 -1.89663 0
M  V30 8144 C 743.651 0.847915 -3.36172 0
M  V30 8145 C 742.712 0.0303655 -4.29289 0
M  V30 8146 C 741.945 0.898051 -5.2609 0
M  V30 8147 O 742.168 2.13729 -5.28844 0
M  V30 8148 O 741.102 0.337328 -6.00954 0
M  V30 8149 H 744.928 -0.839078 -2.91879 0
M  V30 8150 H 742.513 -0.475527 -1.4163 0
M  V30 8151 H 744.395 1.3698 -3.98515 0
M  V30 8152 H 743.07 1.60299 -2.81222 0
M  V30 8153 H 741.977 -0.536573 -3.70232 0
M  V30 8154 H 743.31 -0.686474 -4.87389 0
M  V30 8155 N 744.962 1.50701 -0.461195 0
M  V30 8156 C 746.239 1.94958 0.158296 0
M  V30 8157 C 746.619 1.40111 1.57899 0
M  V30 8158 O 745.967 0.597976 2.20537 0
M  V30 8159 C 746.177 3.48821 0.11172 0
M  V30 8160 C 747.525 4.23499 0.30552 0
M  V30 8161 O 748.549 3.557 0.188758 0
M  V30 8162 O 747.408 5.43823 0.540244 0
M  V30 8163 H 744.502 0.818674 0.117054 0
M  V30 8164 H 747.048 1.61508 -0.520888 0
M  V30 8165 H 745.82 3.81263 -0.880577 0
M  V30 8166 H 745.443 3.88781 0.832791 0
M  V30 8167 N 746.441 0.193421 1.56409 0
M  V30 8168 C 747.852 -0.319471 1.83946 0
M  V30 8169 C 748.203 -1.61505 1.11403 0
M  V30 8170 O 747.328 -2.13139 0.374289 0
M  V30 8171 C 747.923 -0.586411 3.33686 0
M  V30 8172 C 746.482 -1.04368 3.61641 0
M  V30 8173 C 745.629 -0.0913834 2.77149 0
M  V30 8174 H 748.58 0.417242 1.53117 0
M  V30 8175 H 748.601 -1.43591 3.52366 0
M  V30 8176 H 748.113 0.356701 3.86457 0
M  V30 8177 H 746.214 -2.00113 3.14302 0
M  V30 8178 H 746.327 -0.937549 4.69837 0
M  V30 8179 H 744.691 -0.592954 2.47702 0
M  V30 8180 H 745.474 0.846142 3.32709 0
M  V30 8181 N 747.919 -1.57396 -0.0801906 0
M  V30 8182 C 748.849 -2.06145 -1.09665 0
M  V30 8183 C 749.83 -0.953273 -1.40878 0
M  V30 8184 O 751.015 -1.22548 -1.50651 0
M  V30 8185 C 748.145 -2.49836 -2.41245 0
M  V30 8186 C 747.099 -3.64454 -2.24405 0
M  V30 8187 C 746.425 -3.94172 -3.61293 0
M  V30 8188 C 747.725 -4.94807 -1.67223 0
M  V30 8189 H 749.419 -2.91316 -0.691028 0
M  V30 8190 H 746.965 -1.40145 -0.330957 0
M  V30 8191 H 748.918 -2.82552 -3.12638 0
M  V30 8192 H 747.642 -1.61683 -2.83771 0
M  V30 8193 H 746.301 -3.32008 -1.55454 0
M  V30 8194 H 745.949 -3.03163 -4.01374 0
M  V30 8195 H 745.649 -4.71345 -3.50867 0
M  V30 8196 H 747.173 -4.29376 -4.3413 0
M  V30 8197 H 748.587 -5.25807 -2.28472 0
M  V30 8198 H 746.984 -5.76245 -1.67515 0
M  V30 8199 H 748.054 -4.80751 -0.632944 0
M  V30 8200 N 749.397 0.351382 -1.53633 0
M  V30 8201 C 750.327 1.43688 -1.84055 0
M  V30 8202 C 751.308 1.55251 -0.695073 0
M  V30 8203 O 752.493 1.69587 -0.946257 0
M  V30 8204 C 749.623 2.80843 -2.04315 0
M  V30 8205 C 748.577 2.84094 -3.20117 0
M  V30 8206 C 747.903 4.2406 -3.25696 0
M  V30 8207 C 749.203 2.50334 -4.58399 0
M  V30 8208 H 750.897 1.18478 -2.74961 0
M  V30 8209 H 748.443 0.568509 -1.32303 0
M  V30 8210 H 750.396 3.56821 -2.2418 0
M  V30 8211 H 749.12 3.07471 -1.10132 0
M  V30 8212 H 747.779 2.10568 -3.00094 0
M  V30 8213 H 747.427 4.47785 -2.29123 0
M  V30 8214 H 747.127 4.27147 -4.03509 0
M  V30 8215 H 748.651 5.0189 -3.47762 0
M  V30 8216 H 750.065 3.16025 -4.78332 0
M  V30 8217 H 748.462 2.64717 -5.38558 0
M  V30 8218 H 749.532 1.45542 -4.62543 0
M  V30 8219 N 750.875 1.45233 0.611969 0
M  V30 8220 C 752.105 1.52318 1.39581 0
M  V30 8221 C 752.513 0.153093 1.8858 0
M  V30 8222 O 751.856 -0.854792 1.62601 0
M  V30 8223 C 751.918 2.4426 2.63775 0
M  V30 8224 C 751.582 3.91079 2.36445 0
M  V30 8225 C 752.579 4.81099 1.97079 0
M  V30 8226 C 750.264 4.35958 2.49492 0
M  V30 8227 C 752.258 6.14002 1.71115 0
M  V30 8228 C 749.945 5.68903 2.23142 0
M  V30 8229 C 750.943 6.57744 1.84015 0
M  V30 8230 O 750.631 7.88226 1.5797 0
M  V30 8231 H 750.363 0.518428 0.43383 0
M  V30 8232 H 752.917 1.91067 0.753837 0
M  V30 8233 H 751.147 2.00474 3.30677 0
M  V30 8234 H 752.836 2.42077 3.25812 0
M  V30 8235 H 753.602 4.47692 1.86539 0
M  V30 8236 H 749.481 3.67053 2.78914 0
M  V30 8237 H 753.025 6.83305 1.405 0
M  V30 8238 H 748.922 6.01866 2.33297 0
M  V30 8239 H 749.69 8.00211 1.72058 0
M  V30 8240 N 752.353 -0.854086 1.3245 0
M  V30 8241 C 753.764 -1.42427 1.20712 0
M  V30 8242 C 754.115 -1.95371 -0.18013 0
M  V30 8243 O 753.24 -1.87587 -1.07889 0
M  V30 8244 C 753.835 -2.58897 2.18536 0
M  V30 8245 C 752.394 -3.11913 2.10683 0
M  V30 8246 C 751.541 -1.84661 2.06871 0
M  V30 8247 H 754.492 -0.661192 1.4427 0
M  V30 8248 H 754.513 -3.36074 1.78422 0
M  V30 8249 H 754.025 -2.20333 3.19492 0
M  V30 8250 H 752.126 -3.55059 1.12977 0
M  V30 8251 H 752.239 -3.73119 3.00532 0
M  V30 8252 H 750.603 -2.04285 1.52118 0
M  V30 8253 H 751.386 -1.48314 3.09609 0
M  V30 8254 N 753.831 -1.1567 -1.07043 0
M  V30 8255 C 755.108 -0.843948 -1.76456 0
M  V30 8256 C 755.488 0.659806 -2.00524 0
M  V30 8257 O 754.836 1.60518 -1.62623 0
M  V30 8258 C 755.046 -1.65822 -3.0709 0
M  V30 8259 C 756.394 -1.8664 -3.8138 0
M  V30 8260 O 757.418 -1.62624 -3.1691 0
M  V30 8261 O 756.277 -2.26884 -4.97178 0
M  V30 8262 H 753.371 -0.310677 -0.766426 0
M  V30 8263 H 755.917 -1.26266 -1.1338 0
M  V30 8264 H 754.689 -2.67902 -2.85209 0
M  V30 8265 H 754.312 -1.23605 -3.77899 0
M  V30 8266 N 755.309 1.25446 -0.953992 0
M  V30 8267 C 756.558 1.92441 -0.604101 0
M  V30 8268 C 756.871 1.75543 0.862796 0
M  V30 8269 O 758.077 2.37106 1.32262 0
M  V30 8270 C 756.533 3.44854 -1.02974 0
M  V30 8271 C 756.141 3.70464 -2.51914 0
M  V30 8272 C 757.885 4.1778 -0.752352 0
M  V30 8273 C 755.792 5.1638 -2.88281 0
M  V30 8274 H 754.722 0.720508 -0.222227 0
M  V30 8275 H 757.373 1.42318 -1.15836 0
M  V30 8276 H 755.755 3.93935 -0.403904 0
M  V30 8277 H 756.929 3.32038 -3.19511 0
M  V30 8278 H 755.244 3.10797 -2.77117 0
M  V30 8279 H 757.841 5.25261 -1.00024 0
M  V30 8280 H 758.184 4.15135 0.311212 0
M  V30 8281 H 758.717 3.74605 -1.33851 0
M  V30 8282 H 755.456 5.24135 -3.93653 0
M  V30 8283 H 754.976 5.55855 -2.25357 0
M  V30 8284 H 756.655 5.84497 -2.77439 0
M  V30 8285 N 756.787 0.722489 1.40064 0
M  V30 8286 C 757.735 0.063329 2.32514 0
M  V30 8287 C 758.729 -0.73953 1.52405 0
M  V30 8288 O 759.935 -0.642122 1.68157 0
M  V30 8289 H 756.31 0.00167692 0.751998 0
M  V30 8290 H 758.281 0.859656 2.85749 0
M  V30 8291 C 757.03 -0.839219 3.3742 0
M  V30 8292 H 756.353 -0.230836 3.99133 0
M  V30 8293 H 757.793 -1.26827 4.04587 0
M  V30 8294 C 756.252 -1.96783 2.73456 0
M  V30 8295 O 756.782 -3.05933 2.60323 0
M  V30 8296 N 754.988 -1.75351 2.31734 0
M  V30 8297 H 754.535 -0.865787 2.42615 0
M  V30 8298 H 754.493 -2.51043 1.89275 0
M  V30 8299 N 758.265 -1.50454 0.469181 0
M  V30 8300 C 759.493 -2.06729 -0.0842134 0
M  V30 8301 C 759.908 -1.33326 -1.33677 0
M  V30 8302 O 759.265 -0.401977 -1.78018 0
M  V30 8303 C 759.316 -3.59557 -0.374253 0
M  V30 8304 O 759.037 -4.30192 0.828622 0
M  V30 8305 C 760.538 -4.32449 -0.974824 0
M  V30 8306 H 757.758 -0.670971 0.006231 0
M  V30 8307 H 760.302 -1.93645 0.657415 0
M  V30 8308 H 758.457 -3.7245 -1.06581 0
M  V30 8309 H 758.871 -5.21371 0.572066 0
M  V30 8310 H 760.345 -5.40361 -1.12755 0
M  V30 8311 H 760.822 -3.92819 -1.96442 0
M  V30 8312 H 761.428 -4.24082 -0.321703 0
M  V30 8313 N 759.743 -0.201713 -1.56304 0
M  V30 8314 C 761.154 0.309711 -1.84113 0
M  V30 8315 C 761.505 1.60912 -1.12258 0
M  V30 8316 O 760.63 2.12937 -0.385587 0
M  V30 8317 C 761.225 0.568706 -3.33993 0
M  V30 8318 C 759.784 1.02448 -3.6219 0
M  V30 8319 C 758.931 0.0766842 -2.77194 0
M  V30 8320 H 761.882 -0.425356 -1.52893 0
M  V30 8321 H 761.903 1.41721 -3.53122 0
M  V30 8322 H 761.415 -0.37719 -3.86263 0
M  V30 8323 H 759.516 1.98443 -3.15359 0
M  V30 8324 H 759.629 0.912619 -4.70328 0
M  V30 8325 H 757.993 0.579809 -2.48013 0
M  V30 8326 H 758.776 -0.863774 -3.32256 0
M  V30 8327 N 761.222 1.57436 0.0718424 0
M  V30 8328 C 762.169 2.03686 1.08539 0
M  V30 8329 C 763.139 0.917474 1.38462 0
M  V30 8330 O 764.324 1.18513 1.4953 0
M  V30 8331 C 761.464 2.48566 2.39393 0
M  V30 8332 C 760.577 3.74122 2.16001 0
M  V30 8333 C 759.712 4.07786 3.40418 0
M  V30 8334 C 758.751 5.26383 3.1239 0
M  V30 8335 N 757.888 5.55685 4.29138 0
M  V30 8336 H 762.728 2.90043 0.684018 0
M  V30 8337 H 760.265 1.43438 0.326183 0
M  V30 8338 H 762.223 2.72639 3.15791 0
M  V30 8339 H 760.853 1.65186 2.77333 0
M  V30 8340 H 759.905 3.57389 1.30296 0
M  V30 8341 H 761.217 4.60659 1.91298 0
M  V30 8342 H 760.371 4.32759 4.25211 0
M  V30 8343 H 759.11 3.19817 3.68197 0
M  V30 8344 H 758.115 5.01206 2.25993 0
M  V30 8345 H 759.34 6.1597 2.85934 0
M  V30 8346 H 757.286 4.70675 4.56948 0
M  V30 8347 H 757.203 6.3664 4.07708 0
M  V30 8348 H 758.471 5.85209 5.14928 0
M  V30 8349 N 762.7 -0.34323 1.53817 0
M  V30 8350 C 763.946 -1.08504 1.71332 0
M  V30 8351 C 764.279 -1.88294 0.475285 0
M  V30 8352 O 763.554 -1.87205 -0.527688 0
M  V30 8353 C 763.837 -2.02597 2.97702 0
M  V30 8354 C 763.69 -1.26268 4.31713 0
M  V30 8355 C 765.009 -3.0241 3.19744 0
M  V30 8356 H 762.128 -0.393072 0.623429 0
M  V30 8357 H 764.77 -0.363579 1.86489 0
M  V30 8358 H 762.92 -2.64118 2.8491 0
M  V30 8359 H 764.592 -0.673594 4.56356 0
M  V30 8360 H 762.835 -0.564696 4.30109 0
M  V30 8361 H 763.506 -1.95253 5.16314 0
M  V30 8362 H 765.982 -2.51004 3.31868 0
M  V30 8363 H 764.858 -3.65449 4.09558 0
M  V30 8364 H 765.119 -3.73806 2.36054 0
M  V30 8365 N 764.178 -1.45556 -0.604258 0
M  V30 8366 C 765.141 -1.54091 -1.69672 0
M  V30 8367 C 766.141 -0.420076 -1.55216 0
M  V30 8368 O 767.331 -0.683671 -1.60224 0
M  V30 8369 C 764.463 -1.44063 -3.08964 0
M  V30 8370 H 765.656 -2.51431 -1.6347 0
M  V30 8371 H 763.209 -1.33046 -0.820273 0
M  V30 8372 H 763.944 -0.479201 -3.2074 0
M  V30 8373 H 763.729 -2.25362 -3.20865 0
M  V30 8374 H 765.219 -1.53075 -3.88533 0
M  V30 8375 N 765.656 0.84705 -1.32902 0
M  V30 8376 C 766.619 1.9378 -1.224 0
M  V30 8377 C 767.619 1.60144 -0.145108 0
M  V30 8378 O 768.809 1.69638 -0.396058 0
M  V30 8379 C 765.941 3.29234 -0.884174 0
M  V30 8380 H 767.134 2.04518 -2.19345 0
M  V30 8381 H 764.687 1.03816 -1.16842 0
M  V30 8382 H 765.422 3.24193 0.0831277 0
M  V30 8383 H 765.207 3.55026 -1.6643 0
M  V30 8384 H 766.697 4.09162 -0.835226 0
M  V30 8385 N 767.134 1.16236 1.06428 0
M  V30 8386 C 768.38 0.954417 1.79617 0
M  V30 8387 C 768.735 -0.512411 1.85451 0
M  V30 8388 O 768.028 -1.37523 1.33409 0
M  V30 8389 C 768.222 1.51396 3.2375 0
M  V30 8390 C 768.051 3.03367 3.31962 0
M  V30 8391 C 766.821 3.71996 3.41975 0
M  V30 8392 C 769.019 4.01075 3.21937 0
M  V30 8393 N 767.001 5.11688 3.39187 0
M  V30 8394 C 768.372 5.27142 3.26376 0
M  V30 8395 C 770.427 3.92917 3.05812 0
M  V30 8396 C 769.13 6.46 3.16348 0
M  V30 8397 C 771.156 5.11344 2.97121 0
M  V30 8398 C 770.518 6.36291 3.02181 0
M  V30 8399 H 766.617 0.403007 0.670156 0
M  V30 8400 H 769.201 1.47605 1.26968 0
M  V30 8401 H 767.372 1.01883 3.74799 0
M  V30 8402 H 769.104 1.2439 3.85109 0
M  V30 8403 H 765.859 3.22623 3.46715 0
M  V30 8404 H 766.283 5.84676 3.41297 0
M  V30 8405 H 770.925 2.97172 3.00746 0
M  V30 8406 H 768.643 7.41968 3.2017 0
M  V30 8407 H 772.229 5.06801 2.85734 0
M  V30 8408 H 771.109 7.26389 2.95513 0
M  V30 8409 N 768.612 -1.24939 0.960631 0
M  V30 8410 C 769.522 -2.29374 0.492435 0
M  V30 8411 C 770.538 -1.68262 -0.443154 0
M  V30 8412 O 771.714 -1.98875 -0.31793 0
M  V30 8413 C 768.779 -3.46023 -0.216626 0
M  V30 8414 C 767.84 -4.22557 0.757915 0
M  V30 8415 C 767.073 -5.33636 0.0825969 0
M  V30 8416 O 767.296 -5.59084 -1.13054 0
M  V30 8417 O 766.23 -5.96939 0.771177 0
M  V30 8418 H 770.056 -2.71525 1.36044 0
M  V30 8419 H 767.641 -1.30499 0.72735 0
M  V30 8420 H 769.523 -4.16885 -0.615241 0
M  V30 8421 H 768.198 -3.05862 -1.05971 0
M  V30 8422 H 767.105 -3.54099 1.20685 0
M  V30 8423 H 768.438 -4.66516 1.5692 0
M  V30 8424 N 770.09 -0.729906 -1.39679 0
M  V30 8425 C 771.053 -0.0951668 -2.29002 0
M  V30 8426 C 772.053 0.672471 -1.46063 0
M  V30 8427 O 773.243 0.502245 -1.66803 0
M  V30 8428 C 770.375 0.874631 -3.29489 0
M  V30 8429 H 771.568 -0.882062 -2.86635 0
M  V30 8430 H 769.121 -0.495424 -1.4824 0
M  V30 8431 H 769.856 1.68807 -2.76902 0
M  V30 8432 H 769.641 0.326893 -3.90735 0
M  V30 8433 H 771.131 1.31548 -3.96339 0
M  V30 8434 N 771.568 1.50203 -0.477153 0
M  V30 8435 C 772.531 2.27194 0.302599 0
M  V30 8436 C 773.531 1.32221 0.915112 0
M  V30 8437 O 774.721 1.55593 0.783348 0
M  V30 8438 C 771.853 3.0938 1.43167 0
M  V30 8439 H 773.046 2.97575 -0.372678 0
M  V30 8440 H 770.599 1.54578 -0.231392 0
M  V30 8441 H 771.334 2.43509 2.14182 0
M  V30 8442 H 771.119 3.79181 0.998197 0
M  V30 8443 H 772.609 3.67592 1.98157 0
M  V30 8444 N 773.046 0.209999 1.56195 0
M  V30 8445 C 773.993 -0.704854 2.19774 0
M  V30 8446 C 774.963 -1.19886 1.14964 0
M  V30 8447 O 776.148 -1.26005 1.43274 0
M  V30 8448 C 773.288 -1.91241 2.87265 0
M  V30 8449 C 772.401 -1.45838 4.06639 0
M  V30 8450 C 771.536 -2.6226 4.61945 0
M  V30 8451 C 770.575 -2.13537 5.73645 0
M  V30 8452 N 769.712 -3.2319 6.23292 0
M  V30 8453 H 774.552 -0.155944 2.97592 0
M  V30 8454 H 772.089 -0.0652235 1.46955 0
M  V30 8455 H 774.047 -2.62123 3.24573 0
M  V30 8456 H 772.677 -2.43439 2.11985 0
M  V30 8457 H 771.729 -0.644897 3.74894 0
M  V30 8458 H 773.041 -1.06103 4.87384 0
M  V30 8459 H 772.195 -3.41243 5.01636 0
M  V30 8460 H 770.934 -3.05278 3.80338 0
M  V30 8461 H 769.939 -1.33013 5.33468 0
M  V30 8462 H 771.164 -1.71533 6.57079 0
M  V30 8463 H 769.11 -3.65711 5.44602 0
M  V30 8464 H 769.027 -2.8767 6.99129 0
M  V30 8465 H 770.295 -4.02342 6.67639 0
M  V30 8466 N 774.524 -1.57472 -0.0634922 0
M  V30 8467 C 775.94 -1.54016 -0.418466 0
M  V30 8468 C 776.14 -0.931376 -1.78683 0
M  V30 8469 O 775.196 -0.537465 -2.46714 0
M  V30 8470 C 776.509 -2.98634 -0.351906 0
M  V30 8471 C 778.057 -3.10012 -0.431494 0
M  V30 8472 C 778.532 -4.56296 -0.394754 0
M  V30 8473 N 780.023 -4.60964 -0.454583 0
M  V30 8474 C 780.758 -5.71643 -0.448501 0
M  V30 8475 N 780.254 -6.91663 -0.396742 0
M  V30 8476 N 782.047 -5.5991 -0.495677 0
M  V30 8477 H 774.198 -1.95409 0.832408 0
M  V30 8478 H 776.461 -0.894769 0.313197 0
M  V30 8479 H 776.167 -3.46766 0.587048 0
M  V30 8480 H 776.041 -3.58955 -1.15893 0
M  V30 8481 H 778.428 -2.61848 -1.36087 0
M  V30 8482 H 778.509 -2.52585 0.404258 0
M  V30 8483 H 778.153 -5.05119 0.530811 0
M  V30 8484 H 778.083 -5.11594 -1.24815 0
M  V30 8485 H 780.574 -3.74598 -0.498496 0
M  V30 8486 H 780.887 -7.71783 -0.396256 0
M  V30 8487 H 779.232 -6.9405 -0.363304 0
M  V30 8488 H 782.423 -4.65046 -0.533864 0
M  V30 8489 H 782.596 -6.46164 -0.487469 0
M  V30 8490 N 776.003 0.335068 -1.53997 0
M  V30 8491 C 777.251 1.07223 -1.71312 0
M  V30 8492 C 777.572 1.88911 -0.483486 0
M  V30 8493 O 776.842 1.89344 0.50257 0
M  V30 8494 H 775.422 0.398846 -0.63161 0
M  V30 8495 H 778.084 0.374288 -1.91272 0
M  V30 8496 H 777.18 1.7448 -2.58772 0
M  V30 8497 N 777.481 1.45874 0.596531 0
M  V30 8498 C 778.414 1.49889 1.72071 0
M  V30 8499 C 779.392 0.354224 1.58695 0
M  V30 8500 O 780.576 0.556355 1.80103 0
M  V30 8501 C 777.703 1.3644 3.10003 0
M  V30 8502 C 776.749 2.54913 3.41938 0
M  V30 8503 S 777.582 4.17336 3.35545 0
M  V30 8504 C 778.738 4.06372 4.76039 0
M  V30 8505 H 778.971 2.45005 1.68404 0
M  V30 8506 H 776.504 1.33592 0.77412 0
M  V30 8507 H 778.462 1.29368 3.89582 0
M  V30 8508 H 777.123 0.427762 3.11174 0
M  V30 8509 H 776.316 2.41458 4.42396 0
M  V30 8510 H 775.918 2.58904 2.69898 0
M  V30 8511 H 778.21 3.72199 5.66105 0
M  V30 8512 H 779.153 5.0678 4.9455 0
M  V30 8513 H 779.561 3.37846 4.52239 0
M  V30 8514 N 778.959 -0.83999 1.33349 0
M  V30 8515 C 780.189 -1.62492 1.27593 0
M  V30 8516 C 780.597 -1.88559 -0.155597 0
M  V30 8517 O 779.94 -1.46537 -1.10782 0
M  V30 8518 C 780.002 -2.99984 1.98116 0
M  V30 8519 C 779.666 -2.96892 3.47425 0
M  V30 8520 C 780.663 -2.72688 4.42648 0
M  V30 8521 C 778.348 -3.17063 3.89585 0
M  V30 8522 C 780.342 -2.68681 5.78004 0
M  V30 8523 C 778.029 -3.12682 5.25046 0
M  V30 8524 C 779.027 -2.88522 6.19067 0
M  V30 8525 O 778.715 -2.84042 7.52047 0
M  V30 8526 H 778.447 -0.512358 0.440982 0
M  V30 8527 H 781.001 -1.0545 1.76265 0
M  V30 8528 H 779.231 -3.58875 1.44034 0
M  V30 8529 H 780.92 -3.6084 1.85875 0
M  V30 8530 H 781.686 -2.56856 4.114 0
M  V30 8531 H 777.565 -3.34889 3.16813 0
M  V30 8532 H 781.109 -2.49743 6.51363 0
M  V30 8533 H 777.006 -3.28063 5.55918 0
M  V30 8534 H 777.774 -2.99892 7.61582 0
M  V30 8535 N 780.437 -1.16799 -1.0581 0
M  V30 8536 C 781.385 -0.875111 -2.1551 0
M  V30 8537 C 782.379 0.157781 -1.68664 0
M  V30 8538 O 783.585 0.011297 -1.79996 0
M  V30 8539 H 779.96 -0.26542 -0.703602 0
M  V30 8540 H 781.931 -1.8076 -2.37421 0
M  V30 8541 C 780.68 -0.39802 -3.45414 0
M  V30 8542 H 780.003 -1.18425 -3.81858 0
M  V30 8543 H 781.443 -0.231913 -4.23365 0
M  V30 8544 C 779.902 0.88327 -3.25115 0
M  V30 8545 O 780.432 1.95145 -3.51114 0
M  V30 8546 N 778.638 0.828961 -2.78526 0
M  V30 8547 H 778.185 -0.0405029 -2.57568 0
M  V30 8548 H 778.143 1.68673 -2.65324 0
M  V30 8549 N 781.915 1.24427 -0.967243 0
M  V30 8550 C 783.161 1.92772 -0.629812 0
M  V30 8551 C 783.494 1.75436 0.832827 0
M  V30 8552 O 782.769 1.10716 1.59913 0
M  V30 8553 C 783.052 3.45798 -1.00477 0
M  V30 8554 C 782.905 3.72304 -2.52407 0
M  V30 8555 C 784.224 4.36787 -0.538999 0
M  V30 8556 H 781.343 0.700099 -0.230282 0
M  V30 8557 H 783.985 1.46805 -1.20616 0
M  V30 8558 H 782.135 3.8508 -0.514336 0
M  V30 8559 H 783.807 3.42584 -3.08924 0
M  V30 8560 H 782.05 3.17472 -2.95625 0
M  V30 8561 H 782.721 4.7937 -2.73693 0
M  V30 8562 H 785.197 4.04877 -0.959874 0
M  V30 8563 H 784.073 5.4259 -0.829926 0
M  V30 8564 H 784.334 4.38527 0.560923 0
M  V30 8565 N 783.393 0.737304 1.3929 0
M  V30 8566 C 784.639 0.286681 2.00763 0
M  V30 8567 C 784.972 -1.12388 1.58375 0
M  V30 8568 O 784.247 -1.76661 0.813699 0
M  V30 8569 C 784.53 0.391147 3.57969 0
M  V30 8570 C 784.383 1.84165 4.1037 0
M  V30 8571 C 785.702 -0.225072 4.39524 0
M  V30 8572 H 782.821 0.105642 0.729389 0
M  V30 8573 H 785.463 0.933892 1.65464 0
M  V30 8574 H 783.613 -0.159875 3.88171 0
M  V30 8575 H 785.285 2.44972 3.90879 0
M  V30 8576 H 783.528 2.3622 3.63844 0
M  V30 8577 H 784.199 1.866 5.19504 0
M  V30 8578 H 786.675 0.244677 4.1538 0
M  V30 8579 H 785.551 -0.121646 5.48765 0
M  V30 8580 H 785.812 -1.31141 4.22202 0
M  V30 8581 N 784.871 -1.49948 0.485112 0
M  V30 8582 C 785.819 -2.30449 -0.315609 0
M  V30 8583 C 786.813 -1.38351 -0.977516 0
M  V30 8584 O 788.019 -1.55477 -0.907019 0
M  V30 8585 H 784.394 -0.742262 -0.120629 0
M  V30 8586 H 786.365 -2.95925 0.383552 0
M  V30 8587 C 785.114 -3.19283 -1.37673 0
M  V30 8588 H 784.437 -3.90067 -0.876801 0
M  V30 8589 H 785.877 -3.78579 -1.90929 0
M  V30 8590 C 784.336 -2.37817 -2.38631 0
M  V30 8591 O 784.866 -2.0711 -3.44192 0
M  V30 8592 N 783.072 -2.00135 -2.107 0
M  V30 8593 H 782.619 -2.25307 -1.24878 0
M  V30 8594 H 782.577 -1.45933 -2.7848 0
M  V30 8595 N 786.349 -0.21828 -1.56081 0
M  V30 8596 C 787.312 0.679633 -2.18892 0
M  V30 8597 C 788.312 1.12405 -1.14986 0
M  V30 8598 O 789.502 1.03339 -1.40238 0
M  V30 8599 C 786.634 1.93063 -2.80962 0
M  V30 8600 H 787.827 0.132066 -2.99609 0
M  V30 8601 H 785.38 0.0313374 -1.56269 0
M  V30 8602 H 786.115 2.52015 -2.04106 0
M  V30 8603 H 785.9 1.62046 -3.57048 0
M  V30 8604 H 787.39 2.57043 -3.29118 0
M  V30 8605 N 787.827 1.57504 0.0551401 0
M  V30 8606 C 788.79 2.03826 1.04821 0
M  V30 8607 C 789.79 0.937968 1.30609 0
M  V30 8608 O 790.98 1.20237 1.2605 0
M  V30 8609 C 788.112 2.43309 2.38775 0
M  V30 8610 H 789.305 2.92802 0.6486 0
M  V30 8611 H 786.858 1.53368 0.301315 0
M  V30 8612 H 787.593 1.5741 2.83536 0
M  V30 8613 H 787.378 3.23615 2.21395 0
M  V30 8614 H 788.868 2.79666 3.10124 0
M  V30 8615 N 789.305 -0.326896 1.54172 0
M  V30 8616 C 790.253 -1.42232 1.84046 0
M  V30 8617 C 791.247 -1.53705 0.712115 0
M  V30 8618 O 792.453 -1.56131 0.895724 0
M  V30 8619 H 788.828 -0.474568 0.583343 0
M  V30 8620 H 790.799 -1.14259 2.75658 0
M  V30 8621 C 789.548 -2.78502 2.08163 0
M  V30 8622 H 788.871 -2.70447 2.94446 0
M  V30 8623 H 790.311 -3.54228 2.33021 0
M  V30 8624 C 788.77 -3.25415 0.872152 0
M  V30 8625 O 789.3 -4.01621 0.0797648 0
M  V30 8626 N 787.506 -2.82418 0.684716 0
M  V30 8627 H 787.053 -2.20566 1.33072 0
M  V30 8628 H 787.011 -3.14159 -0.123031 0
M  V30 8629 N 790.784 -1.46188 -0.588786 0
M  V30 8630 C 792.032 -1.50885 -1.34455 0
M  V30 8631 C 792.353 -0.159555 -1.94346 0
M  V30 8632 O 791.623 0.813239 -1.78222 0
M  V30 8633 H 790.203 -0.555707 -0.499198 0
M  V30 8634 H 792.865 -1.82277 -0.690014 0
M  V30 8635 H 791.961 -2.25816 -2.15438 0
M  V30 8636 N 792.262 0.832906 -1.33792 0
M  V30 8637 C 793.49 1.62048 -1.28639 0
M  V30 8638 C 793.905 1.88269 0.141522 0
M  V30 8639 O 793.262 1.46706 1.08553 0
M  V30 8640 C 793.313 2.96722 -2.0649 0
M  V30 8641 O 793.034 2.7165 -3.43712 0
M  V30 8642 C 794.535 3.91144 -2.08617 0
M  V30 8643 H 791.755 0.504032 -0.442937 0
M  V30 8644 H 794.299 1.03704 -1.76255 0
M  V30 8645 H 792.454 3.51652 -1.62541 0
M  V30 8646 H 792.868 3.57453 -3.83833 0
M  V30 8647 H 794.342 4.82837 -2.67531 0
M  V30 8648 H 794.819 4.25766 -1.07796 0
M  V30 8649 H 795.425 3.42152 -2.52611 0
M  V30 8650 N 793.74 1.17359 1.05189 0
M  V30 8651 C 794.988 0.960087 1.77839 0
M  V30 8652 C 795.309 -0.512554 1.88143 0
M  V30 8653 O 794.579 -1.3721 1.39822 0
M  V30 8654 H 793.159 0.352234 0.658741 0
M  V30 8655 H 795.821 1.47834 1.27008 0
M  V30 8656 H 794.917 1.38843 2.79516 0
M  V30 8657 N 795.218 -1.23913 0.973828 0
M  V30 8658 C 796.634 -1.44325 0.681363 0
M  V30 8659 C 796.834 -1.86832 -0.754728 0
M  V30 8660 O 795.89 -2.01024 -1.52793 0
M  V30 8661 C 797.203 -2.50017 1.67069 0
M  V30 8662 C 798.751 -2.63838 1.68399 0
M  V30 8663 C 799.226 -3.72734 2.66145 0
M  V30 8664 N 800.717 -3.80169 2.64624 0
M  V30 8665 C 801.452 -4.6397 3.36927 0
M  V30 8666 N 800.948 -5.51911 4.18767 0
M  V30 8667 N 802.741 -4.58106 3.25722 0
M  V30 8668 H 794.892 -0.946204 1.9016 0
M  V30 8669 H 797.155 -0.477374 0.819035 0
M  V30 8670 H 796.861 -2.25686 2.69738 0
M  V30 8671 H 796.735 -3.48287 1.4483 0
M  V30 8672 H 799.122 -2.87524 0.664379 0
M  V30 8673 H 799.203 -1.65906 1.94702 0
M  V30 8674 H 798.847 -3.49797 3.68245 0
M  V30 8675 H 798.777 -4.70193 2.3712 0
M  V30 8676 H 801.268 -3.17319 2.05224 0
M  V30 8677 H 801.581 -6.12828 4.70809 0
M  V30 8678 H 799.926 -5.51556 4.2286 0
M  V30 8679 H 803.117 -3.8842 2.61242 0
M  V30 8680 H 803.29 -5.23188 3.82333 0
M  V30 8681 N 796.696 -0.74468 -1.38897 0
M  V30 8682 C 797.643 -0.111064 -2.30533 0
M  V30 8683 C 798.613 0.719276 -1.49719 0
M  V30 8684 O 799.798 0.677244 -1.78376 0
M  V30 8685 C 796.938 0.78292 -3.36102 0
M  V30 8686 C 796.051 -0.0610817 -4.31957 0
M  V30 8687 C 795.186 0.835075 -5.24595 0
M  V30 8688 C 794.225 -0.0130974 -6.12099 0
M  V30 8689 N 793.362 0.839525 -6.97063 0
M  V30 8690 H 798.202 -0.898113 -2.84144 0
M  V30 8691 H 795.739 -0.454537 -1.39901 0
M  V30 8692 H 797.697 1.31578 -3.95908 0
M  V30 8693 H 796.327 1.53585 -2.83922 0
M  V30 8694 H 795.379 -0.711469 -3.73687 0
M  V30 8695 H 796.691 -0.716482 -4.93627 0
M  V30 8696 H 795.845 1.43542 -5.89475 0
M  V30 8697 H 794.584 1.52423 -4.63269 0
M  V30 8698 H 793.589 -0.626179 -5.46223 0
M  V30 8699 H 794.814 -0.699181 -6.75491 0
M  V30 8700 H 792.76 1.5138 -6.38295 0
M  V30 8701 H 792.677 0.240823 -7.55616 0
M  V30 8702 H 793.945 1.42513 -7.66362 0
M  V30 8703 N 798.174 1.49689 -0.493057 0
M  V30 8704 C 799.137 2.27502 0.278485 0
M  V30 8705 C 800.137 1.33184 0.901037 0
M  V30 8706 O 801.327 1.56415 0.766801 0
M  V30 8707 C 798.459 3.10881 1.39878 0
M  V30 8708 H 799.652 2.97163 -0.404219 0
M  V30 8709 H 797.205 1.54324 -0.247774 0
M  V30 8710 H 797.94 2.45767 2.11587 0
M  V30 8711 H 797.725 3.80219 0.957924 0
M  V30 8712 H 799.215 3.69673 1.94247 0
M  V30 8713 N 799.652 0.226554 1.55963 0
M  V30 8714 C 800.899 -0.403789 1.98433 0
M  V30 8715 C 801.227 -1.59416 1.1143 0
M  V30 8716 O 800.482 -1.95042 0.160389 0
M  V30 8717 C 800.781 -0.87642 3.46488 0
M  V30 8718 C 800.447 0.203973 4.50438 0
M  V30 8719 C 799.109 0.500754 4.78587 0
M  V30 8720 C 801.461 0.934396 5.12756 0
M  V30 8721 C 798.789 1.53239 5.66334 0
M  V30 8722 C 801.141 1.9554 6.0162 0
M  V30 8723 C 799.805 2.25905 6.28111 0
M  V30 8724 H 799.075 -0.147757 0.726119 0
M  V30 8725 H 801.722 0.330121 1.88633 0
M  V30 8726 H 800.027 -1.68918 3.53517 0
M  V30 8727 H 801.724 -1.37407 3.76723 0
M  V30 8728 H 798.314 -0.0374917 4.28584 0
M  V30 8729 H 802.498 0.718355 4.91074 0
M  V30 8730 H 797.754 1.77321 5.85122 0
M  V30 8731 H 801.928 2.52642 6.48957 0
M  V30 8732 H 799.555 3.05985 6.959 0
M  V30 8733 N 801.13 -1.57531 -0.0467866 0
M  V30 8734 C 802.093 -2.04379 -1.03738 0
M  V30 8735 C 803.093 -0.944881 -1.3011 0
M  V30 8736 O 804.283 -1.20904 -1.25411 0
M  V30 8737 C 801.415 -2.44572 -2.37482 0
M  V30 8738 H 802.608 -2.93142 -0.633063 0
M  V30 8739 H 800.161 -1.53526 -0.293177 0
M  V30 8740 H 800.896 -1.58911 -2.82697 0
M  V30 8741 H 800.681 -3.24785 -2.19675 0
M  V30 8742 H 802.171 -2.81307 -3.08636 0
M  V30 8743 N 802.608 0.318715 -1.54344 0
M  V30 8744 C 803.885 1.07461 -1.63437 0
M  V30 8745 C 804.265 2.05771 -0.47131 0
M  V30 8746 O 803.613 2.22175 0.53391 0
M  V30 8747 C 803.823 1.77224 -3.00654 0
M  V30 8748 C 805.171 2.30069 -3.56866 0
M  V30 8749 O 806.195 1.87284 -3.0299 0
M  V30 8750 O 805.054 3.08412 -4.51159 0
M  V30 8751 H 802.148 0.495627 -0.66203 0
M  V30 8752 H 804.694 0.318218 -1.6669 0
M  V30 8753 H 803.466 1.05742 -3.76742 0
M  V30 8754 H 803.089 2.59662 -3.01101 0
M  V30 8755 N 804.086 1.46499 0.581025 0
M  V30 8756 C 805.049 1.5677 1.672 0
M  V30 8757 C 806.049 0.444716 1.54528 0
M  V30 8758 O 807.239 0.709074 1.59116 0
M  V30 8759 C 804.371 1.4896 3.06633 0
M  V30 8760 H 805.564 2.54 1.5945 0
M  V30 8761 H 803.117 1.34334 0.799003 0
M  V30 8762 H 803.852 0.530168 3.19937 0
M  V30 8763 H 803.637 2.30439 3.17239 0
M  V30 8764 H 805.127 1.59237 3.86048 0
M  V30 8765 N 805.565 -0.825799 1.34232 0
M  V30 8766 C 806.513 -1.95792 1.25572 0
M  V30 8767 C 807.507 -1.68695 0.154404 0
M  V30 8768 O 808.713 -1.77147 0.319196 0
M  V30 8769 H 805.088 -0.642949 0.390027 0
M  V30 8770 H 807.059 -2.00219 2.21258 0
M  V30 8771 C 805.808 -3.32245 1.02511 0
M  V30 8772 H 805.131 -3.53642 1.86487 0
M  V30 8773 H 806.571 -4.1192 1.00487 0
M  V30 8774 C 805.03 -3.35803 -0.27167 0
M  V30 8775 O 805.56 -3.80962 -1.274 0
M  V30 8776 N 803.766 -2.89008 -0.303778 0
M  V30 8777 H 803.313 -2.52451 0.512464 0
M  V30 8778 H 803.271 -2.9177 -1.17121 0
M  V30 8779 N 807.043 -1.17915 -1.04565 0
M  V30 8780 C 808.273 -0.994716 -1.81077 0
M  V30 8781 C 808.681 0.460146 -1.83519 0
M  V30 8782 O 808.024 1.33136 -1.26572 0
M  V30 8783 C 808.086 -1.46698 -3.28207 0
M  V30 8784 C 807.75 -2.94523 -3.49436 0
M  V30 8785 C 808.747 -3.92414 -3.41038 0
M  V30 8786 C 806.432 -3.32841 -3.76194 0
M  V30 8787 C 808.426 -5.2662 -3.59096 0
M  V30 8788 C 806.113 -4.67212 -3.93899 0
M  V30 8789 C 807.111 -5.6391 -3.8535 0
M  V30 8790 O 806.799 -6.95849 -4.02554 0
M  V30 8791 H 806.531 -0.351797 -0.577248 0
M  V30 8792 H 809.085 -1.56772 -1.32709 0
M  V30 8793 H 807.315 -0.837592 -3.7752 0
M  V30 8794 H 809.004 -1.24724 -3.86263 0
M  V30 8795 H 809.77 -3.64157 -3.20336 0
M  V30 8796 H 805.649 -2.58139 -3.81949 0
M  V30 8797 H 809.193 -6.02082 -3.52339 0
M  V30 8798 H 805.09 -4.95172 -4.14095 0
M  V30 8799 H 805.858 -7.02679 -4.19743 0
M  V30 8800 N 808.521 1.23394 -0.980386 0
M  V30 8801 C 809.937 1.43961 -0.689008 0
M  V30 8802 C 810.137 1.87229 0.744809 0
M  V30 8803 O 809.193 2.01831 1.51725 0
M  V30 8804 C 810.506 2.49128 -1.68392 0
M  V30 8805 C 812.054 2.62941 -1.69796 0
M  V30 8806 C 812.529 3.71317 -2.68118 0
M  V30 8807 N 814.02 3.7876 -2.66636 0
M  V30 8808 C 814.755 4.62176 -3.39383 0
M  V30 8809 N 814.251 5.49682 -4.21688 0
M  V30 8810 N 816.044 4.56372 -3.28147 0
M  V30 8811 H 808.195 0.936106 -1.90659 0
M  V30 8812 H 810.458 0.473023 -0.821555 0
M  V30 8813 H 810.164 2.24252 -2.70931 0
M  V30 8814 H 810.038 3.47514 -1.46675 0
M  V30 8815 H 812.425 2.87168 -0.679617 0
M  V30 8816 H 812.506 1.64871 -1.95579 0
M  V30 8817 H 812.15 3.4784 -3.70095 0
M  V30 8818 H 812.08 4.68929 -2.3961 0
M  V30 8819 H 814.571 3.16226 -2.06904 0
M  V30 8820 H 814.884 6.10323 -4.74053 0
M  V30 8821 H 813.229 5.49306 -4.25779 0
M  V30 8822 H 816.42 3.87029 -2.63299 0
M  V30 8823 H 816.593 5.21153 -3.85102 0
M  V30 8824 N 809.999 0.752036 1.385 0
M  V30 8825 C 811.245 0.307958 2.00448 0
M  V30 8826 C 811.578 -1.10702 1.59558 0
M  V30 8827 O 810.853 -1.75788 0.832391 0
M  V30 8828 C 811.136 0.429092 3.57534 0
M  V30 8829 C 810.989 1.88507 4.08393 0
M  V30 8830 C 812.308 -0.178442 4.39738 0
M  V30 8831 H 809.427 0.113373 0.728228 0
M  V30 8832 H 812.069 0.951389 1.64465 0
M  V30 8833 H 810.219 -0.118695 3.88319 0
M  V30 8834 H 811.891 2.49104 3.88259 0
M  V30 8835 H 810.134 2.40066 3.61318 0
M  V30 8836 H 810.805 1.92099 5.17496 0
M  V30 8837 H 813.281 0.28872 4.15097 0
M  V30 8838 H 812.157 -0.0634349 5.48863 0
M  V30 8839 H 812.418 -1.26655 4.23569 0
M  V30 8840 N 811.477 -1.49425 0.500989 0
M  V30 8841 C 812.44 -2.27646 -0.266416 0
M  V30 8842 C 813.44 -1.3366 -0.893961 0
M  V30 8843 O 814.63 -1.5682 -0.758495 0
M  V30 8844 C 811.762 -3.11618 -1.38227 0
M  V30 8845 H 812.955 -2.96945 0.419973 0
M  V30 8846 H 810.508 -1.5419 0.255954 0
M  V30 8847 H 811.243 -2.46885 -2.10281 0
M  V30 8848 H 811.028 -3.80721 -0.937746 0
M  V30 8849 H 812.518 -3.70698 -1.92283 0
M  V30 8850 N 812.955 -0.234822 -1.55841 0
M  V30 8851 C 814.203 0.392483 -1.98252 0
M  V30 8852 C 814.524 1.59344 -1.12404 0
M  V30 8853 O 813.794 1.94834 -0.204055 0
M  V30 8854 H 812.374 0.147999 -0.732192 0
M  V30 8855 H 815.036 -0.330804 -1.92072 0
M  V30 8856 H 814.132 0.709829 -3.03921 0
M  V30 8857 N 814.433 1.57553 0.0384317 0
M  V30 8858 C 815.38 2.05942 1.04194 0
M  V30 8859 C 816.35 0.946637 1.36484 0
M  V30 8860 O 817.535 1.21658 1.46983 0
M  V30 8861 C 814.675 2.53588 2.34066 0
M  V30 8862 C 813.788 3.7862 2.08017 0
M  V30 8863 C 812.923 4.14915 3.31692 0
M  V30 8864 C 811.962 5.32891 3.01155 0
M  V30 8865 N 811.099 5.64662 4.17254 0
M  V30 8866 H 815.939 2.91429 0.622341 0
M  V30 8867 H 813.476 1.44098 0.295684 0
M  V30 8868 H 815.434 2.79276 3.09937 0
M  V30 8869 H 814.064 1.71031 2.73767 0
M  V30 8870 H 813.116 3.60073 1.22686 0
M  V30 8871 H 814.428 4.64613 1.81484 0
M  V30 8872 H 813.582 4.41681 4.15936 0
M  V30 8873 H 812.321 3.27555 3.6133 0
M  V30 8874 H 811.326 5.05887 2.15311 0
M  V30 8875 H 812.551 6.21896 2.72804 0
M  V30 8876 H 810.497 4.80261 4.46861 0
M  V30 8877 H 810.414 6.45145 3.94112 0
M  V30 8878 H 811.682 5.96 5.02399 0
M  V30 8879 N 815.911 -0.310526 1.54511 0
M  V30 8880 C 817.136 -1.07046 1.7764 0
M  V30 8881 C 817.561 -1.80488 0.529696 0
M  V30 8882 O 816.919 -1.73702 -0.519361 0
M  V30 8883 C 816.967 -2.03411 2.97752 0
M  V30 8884 O 816.071 -3.11545 2.7021 0
M  V30 8885 H 815.412 -0.307994 0.588248 0
M  V30 8886 H 817.942 -0.350848 2.01569 0
M  V30 8887 H 817.952 -2.46048 3.2546 0
M  V30 8888 H 816.627 -1.49361 3.88155 0
M  V30 8889 H 815.204 -2.7349 2.53491 0
M  V30 8890 N 817.389 -1.46805 -0.573248 0
M  V30 8891 C 818.637 -1.52302 -1.32847 0
M  V30 8892 C 818.958 -0.180159 -1.94166 0
M  V30 8893 O 818.228 0.794291 -1.79075 0
M  V30 8894 H 816.808 -0.56097 -0.493276 0
M  V30 8895 H 819.47 -1.82998 -0.670642 0
M  V30 8896 H 818.566 -2.28089 -2.13031 0
M  V30 8897 N 818.867 0.818669 -1.34668 0
M  V30 8898 C 820.095 1.60674 -1.30351 0
M  V30 8899 C 820.51 1.88408 0.121546 0
M  V30 8900 O 819.867 1.47849 1.06991 0
M  V30 8901 C 819.918 2.94516 -2.09625 0
M  V30 8902 O 819.639 2.6799 -3.46573 0
M  V30 8903 C 821.14 3.8891 -2.12754 0
M  V30 8904 H 818.36 0.499306 -0.448258 0
M  V30 8905 H 820.904 1.01828 -1.77345 0
M  V30 8906 H 819.059 3.49908 -1.66262 0
M  V30 8907 H 819.473 3.53361 -3.87603 0
M  V30 8908 H 820.947 4.79972 -2.72637 0
M  V30 8909 H 821.424 4.24599 -1.12306 0
M  V30 8910 H 822.03 3.39453 -2.56225 0
M  V30 8911 N 820.346 1.18468 1.03938 0
M  V30 8912 C 821.309 0.914944 2.10146 0
M  V30 8913 C 822.309 -0.10022 1.60487 0
M  V30 8914 O 823.499 0.133365 1.73689 0
M  V30 8915 C 820.631 0.372993 3.38853 0
M  V30 8916 H 821.824 1.85677 2.35508 0
M  V30 8917 H 819.377 0.996876 1.20383 0
M  V30 8918 H 820.112 -0.57538 3.19155 0
M  V30 8919 H 819.897 1.1048 3.76213 0
M  V30 8920 H 821.387 0.203014 4.17106 0
M  V30 8921 N 821.824 -1.22873 0.986916 0
M  V30 8922 C 822.756 -2.23889 0.490537 0
M  V30 8923 C 823.769 -1.57523 -0.411144 0
M  V30 8924 O 824.958 -1.7721 -0.214236 0
M  V30 8925 C 822.058 -3.37488 -0.30902 0
M  V30 8926 C 821.231 -4.33438 0.587354 0
M  V30 8927 C 820.29 -5.25958 -0.159467 0
M  V30 8928 O 819.316 -5.67394 0.453115 0
M  V30 8929 N 820.518 -5.62265 -1.44355 0
M  V30 8930 H 823.283 -2.67109 1.35914 0
M  V30 8931 H 820.844 -1.37111 0.860937 0
M  V30 8932 H 822.836 -3.96365 -0.817139 0
M  V30 8933 H 821.406 -2.934 -1.07868 0
M  V30 8934 H 820.626 -3.72969 1.27622 0
M  V30 8935 H 821.914 -4.94495 1.19801 0
M  V30 8936 H 821.312 -5.30562 -1.96266 0
M  V30 8937 H 819.869 -6.23585 -1.89698 0
M  V30 8938 N 823.302 -0.75937 -1.38099 0
M  V30 8939 C 824.548 -0.318584 -2.00282 0
M  V30 8940 C 824.881 1.09854 -1.60143 0
M  V30 8941 O 824.156 1.75344 -0.841702 0
M  V30 8942 C 824.439 -0.448047 -3.57302 0
M  V30 8943 C 824.292 -1.9067 -4.07388 0
M  V30 8944 C 825.611 0.155119 -4.39827 0
M  V30 8945 H 822.73 -0.117233 -0.727616 0
M  V30 8946 H 825.372 -0.960097 -1.63958 0
M  V30 8947 H 823.522 0.0981003 -3.88376 0
M  V30 8948 H 825.194 -2.5116 -3.86932 0
M  V30 8949 H 823.437 -2.41979 -3.6004 0
M  V30 8950 H 824.108 -1.94841 -5.1647 0
M  V30 8951 H 826.584 -0.31073 -4.14938 0
M  V30 8952 H 825.46 0.0343264 -5.48889 0
M  V30 8953 H 825.721 1.24407 -4.24235 0
M  V30 8954 N 824.78 1.49157 -0.508906 0
M  V30 8955 C 826.027 2.02473 0.0327983 0
M  V30 8956 C 826.355 1.38792 1.36261 0
M  V30 8957 O 825.61 0.515576 1.88786 0
M  V30 8958 C 825.909 3.56687 0.225717 0
M  V30 8959 C 825.575 4.39046 -1.02708 0
M  V30 8960 C 824.237 4.61271 -1.37048 0
M  V30 8961 C 826.589 4.86902 -1.85946 0
M  V30 8962 C 823.917 5.28598 -2.54562 0
M  V30 8963 C 826.269 5.55521 -3.0262 0
M  V30 8964 C 824.933 5.7599 -3.3733 0
M  V30 8965 H 824.203 0.740903 0.0120017 0
M  V30 8966 H 826.85 1.79372 -0.670665 0
M  V30 8967 H 825.155 3.78511 1.01177 0
M  V30 8968 H 826.852 3.95541 0.659433 0
M  V30 8969 H 823.442 4.21994 -0.749615 0
M  V30 8970 H 827.626 4.69553 -1.6073 0
M  V30 8971 H 822.882 5.42646 -2.81682 0
M  V30 8972 H 827.056 5.91576 -3.67438 0
M  V30 8973 H 824.683 6.27934 -4.2849 0
M  V30 8974 N 826.258 0.243083 1.55714 0
M  V30 8975 C 827.483 -0.389944 2.03701 0
M  V30 8976 C 827.908 -1.51025 1.12129 0
M  V30 8977 O 827.266 -1.80944 0.11352 0
M  V30 8978 C 827.314 -0.878649 3.49731 0
M  V30 8979 O 826.418 -1.98851 3.61292 0
M  V30 8980 H 825.759 -0.0855115 0.658471 0
M  V30 8981 H 828.289 0.368023 2.01263 0
M  V30 8982 H 828.299 -1.18287 3.90477 0
M  V30 8983 H 826.974 -0.0588107 4.15858 0
M  V30 8984 H 825.551 -1.68928 3.32442 0
M  V30 8985 N 827.736 -1.57571 -0.0300757 0
M  V30 8986 C 828.666 -2.0953 -1.03051 0
M  V30 8987 C 829.647 -0.99761 -1.37774 0
M  V30 8988 O 830.832 -1.27279 -1.46676 0
M  V30 8989 C 827.962 -2.57385 -2.33174 0
M  V30 8990 C 826.916 -3.71409 -2.12696 0
M  V30 8991 C 826.242 -4.05467 -3.4857 0
M  V30 8992 C 827.542 -4.99877 -1.51396 0
M  V30 8993 H 829.236 -2.93367 -0.597999 0
M  V30 8994 H 826.782 -1.41127 -0.286203 0
M  V30 8995 H 828.735 -2.92355 -3.03491 0
M  V30 8996 H 827.459 -1.70629 -2.78484 0
M  V30 8997 H 826.118 -3.36786 -1.44813 0
M  V30 8998 H 825.766 -3.15779 -3.91526 0
M  V30 8999 H 825.466 -4.82269 -3.35694 0
M  V30 9000 H 826.99 -4.4297 -4.2025 0
M  V30 9001 H 828.404 -5.3281 -2.11629 0
M  V30 9002 H 826.801 -5.81283 -1.49098 0
M  V30 9003 H 827.871 -4.82522 -0.479676 0
M  V30 9004 N 829.214 0.302327 -1.54673 0
M  V30 9005 C 830.161 1.37282 -1.85532 0
M  V30 9006 C 831.131 1.50437 -0.704129 0
M  V30 9007 O 832.316 1.65317 -0.952627 0
M  V30 9008 C 829.456 2.73309 -2.10704 0
M  V30 9009 C 828.569 2.68614 -3.38335 0
M  V30 9010 C 827.704 3.96626 -3.53357 0
M  V30 9011 C 826.743 3.86324 -4.74784 0
M  V30 9012 N 825.88 5.06109 -4.86619 0
M  V30 9013 H 830.72 1.10265 -2.76849 0
M  V30 9014 H 828.257 0.533346 -1.37091 0
M  V30 9015 H 830.215 3.52414 -2.23294 0
M  V30 9016 H 828.845 2.98589 -1.22656 0
M  V30 9017 H 827.897 1.81381 -3.34373 0
M  V30 9018 H 829.209 2.56891 -4.27561 0
M  V30 9019 H 828.363 4.84168 -3.65604 0
M  V30 9020 H 827.102 4.11182 -2.62261 0
M  V30 9021 H 826.107 2.97166 -4.62572 0
M  V30 9022 H 827.332 3.73315 -5.67286 0
M  V30 9023 H 825.278 5.2113 -3.98446 0
M  V30 9024 H 825.195 4.96804 -5.69844 0
M  V30 9025 H 826.463 5.95306 -5.03221 0
M  V30 9026 N 830.692 1.47107 0.565454 0
M  V30 9027 C 831.602 1.61591 1.70075 0
M  V30 9028 C 832.618 0.498931 1.66693 0
M  V30 9029 O 833.794 0.765372 1.8629 0
M  V30 9030 C 830.859 1.61887 3.06583 0
M  V30 9031 C 829.92 2.84949 3.21096 0
M  V30 9032 C 829.153 2.85221 4.51093 0
M  V30 9033 O 829.376 1.94959 5.36048 0
M  V30 9034 O 828.31 3.76982 4.69221 0
M  V30 9035 H 832.136 2.57638 1.60799 0
M  V30 9036 H 829.721 1.30097 0.73451 0
M  V30 9037 H 831.603 1.64809 3.87835 0
M  V30 9038 H 830.278 0.69005 3.16259 0
M  V30 9039 H 829.185 2.87575 2.39273 0
M  V30 9040 H 830.518 3.77098 3.1632 0
M  V30 9041 N 832.17 -0.811516 1.35101 0
M  V30 9042 C 833.118 -1.94449 1.27642 0
M  V30 9043 C 834.112 -1.68522 0.172287 0
M  V30 9044 O 835.318 -1.76799 0.337967 0
M  V30 9045 H 831.693 -0.638776 0.396824 0
M  V30 9046 H 833.664 -1.97861 2.23369 0
M  V30 9047 C 832.413 -3.31139 1.06029 0
M  V30 9048 H 831.736 -3.51644 1.90227 0
M  V30 9049 H 833.176 -4.10831 1.0485 0
M  V30 9050 C 831.635 -3.36072 -0.236039 0
M  V30 9051 O 832.165 -3.82292 -1.23353 0
M  V30 9052 N 830.371 -2.89314 -0.273107 0
M  V30 9053 H 829.918 -2.51893 0.539211 0
M  V30 9054 H 829.876 -2.92996 -1.1402 0
M  V30 9055 N 833.648 -1.19017 -1.03309 0
M  V30 9056 C 834.558 -0.939303 -2.14975 0
M  V30 9057 C 835.574 0.0992359 -1.73717 0
M  V30 9058 O 836.75 -0.0844362 -2.01223 0
M  V30 9059 C 833.815 -0.476712 -3.43407 0
M  V30 9060 C 832.876 -1.58413 -3.99003 0
M  V30 9061 C 832.109 -1.14352 -5.21305 0
M  V30 9062 O 832.332 -0.00534408 -5.704 0
M  V30 9063 O 831.266 -1.94436 -5.6963 0
M  V30 9064 H 835.092 -1.87386 -2.38998 0
M  V30 9065 H 832.677 -0.972635 -1.13403 0
M  V30 9066 H 834.559 -0.22718 -4.20787 0
M  V30 9067 H 833.234 0.429455 -3.20839 0
M  V30 9068 H 832.141 -1.88777 -3.22977 0
M  V30 9069 H 833.474 -2.4667 -4.25928 0
M  V30 9070 N 835.127 1.22348 -0.993418 0
M  V30 9071 C 836.074 2.24294 -0.544118 0
M  V30 9072 C 837.044 1.60602 0.42381 0
M  V30 9073 O 838.229 1.87952 0.328453 0
M  V30 9074 C 835.369 3.44837 0.134578 0
M  V30 9075 C 834.482 4.23043 -0.875151 0
M  V30 9076 C 833.617 5.30928 -0.169919 0
M  V30 9077 C 832.656 6.00853 -1.16798 0
M  V30 9078 N 831.793 7.00381 -0.491021 0
M  V30 9079 H 836.633 2.6209 -1.4182 0
M  V30 9080 H 834.17 1.2881 -0.710384 0
M  V30 9081 H 836.128 4.13625 0.544998 0
M  V30 9082 H 834.758 3.07804 0.972446 0
M  V30 9083 H 833.81 3.53546 -1.40389 0
M  V30 9084 H 835.122 4.71237 -1.63516 0
M  V30 9085 H 834.276 6.05972 0.297205 0
M  V30 9086 H 833.015 4.8371 0.622586 0
M  V30 9087 H 832.02 5.24591 -1.64573 0
M  V30 9088 H 833.245 6.50159 -1.96137 0
M  V30 9089 H 831.191 6.55393 0.282037 0
M  V30 9090 H 831.108 7.46584 -1.18947 0
M  V30 9091 H 832.376 7.79486 -0.0467169 0
M  V30 9092 N 836.605 0.766683 1.37694 0
M  V30 9093 C 837.835 0.339446 2.03792 0
M  V30 9094 C 838.243 -1.04153 1.57952 0
M  V30 9095 O 837.586 -1.67521 0.753826 0
M  V30 9096 C 837.648 0.29822 3.58261 0
M  V30 9097 C 837.312 1.62293 4.27212 0
M  V30 9098 C 838.309 2.57447 4.51682 0
M  V30 9099 C 835.994 1.89597 4.65143 0
M  V30 9100 C 837.988 3.78117 5.13134 0
M  V30 9101 C 835.675 3.10538 5.26317 0
M  V30 9102 C 836.673 4.04617 5.50249 0
M  V30 9103 O 836.361 5.23429 6.10145 0
M  V30 9104 H 836.093 0.140952 0.661142 0
M  V30 9105 H 838.647 1.04022 1.77111 0
M  V30 9106 H 836.877 -0.458897 3.83967 0
M  V30 9107 H 838.566 -0.101263 4.05774 0
M  V30 9108 H 839.332 2.37633 4.22795 0
M  V30 9109 H 835.211 1.17199 4.45854 0
M  V30 9110 H 838.755 4.51563 5.3173 0
M  V30 9111 H 834.652 3.3024 5.54628 0
M  V30 9112 H 835.42 5.24187 6.28626 0
M  V30 9113 N 838.083 -1.48885 0.516809 0
M  V30 9114 C 839.031 -2.31066 -0.266656 0
M  V30 9115 C 840.025 -1.40393 -0.94795 0
M  V30 9116 O 841.231 -1.57366 -0.873836 0
M  V30 9117 H 837.606 -0.744654 -0.104858 0
M  V30 9118 H 839.577 -2.95045 0.446236 0
M  V30 9119 C 838.326 -3.22131 -1.3087 0
M  V30 9120 H 837.649 -3.91839 -0.793865 0
M  V30 9121 H 839.089 -3.82544 -1.82856 0
M  V30 9122 C 837.548 -2.42825 -2.33533 0
M  V30 9123 O 838.078 -2.14364 -3.39722 0
M  V30 9124 N 836.284 -2.04559 -2.06407 0
M  V30 9125 H 835.831 -2.27905 -1.20071 0
M  V30 9126 H 835.789 -1.51807 -2.75322 0
M  V30 9127 N 839.561 -0.251338 -1.55583 0
M  V30 9128 C 840.789 0.376187 -2.03451 0
M  V30 9129 C 841.204 1.51215 -1.13047 0
M  V30 9130 O 840.561 1.81917 -0.145769 0
M  V30 9131 C 840.612 0.879779 -3.50631 0
M  V30 9132 O 840.333 -0.210917 -4.37592 0
M  V30 9133 C 841.834 1.57754 -4.14281 0
M  V30 9134 H 839.054 0.0888722 -0.665089 0
M  V30 9135 H 841.598 -0.376497 -2.01004 0
M  V30 9136 H 839.753 1.58263 -3.53598 0
M  V30 9137 H 840.167 0.172203 -5.24217 0
M  V30 9138 H 841.641 1.88158 -5.18942 0
M  V30 9139 H 842.118 2.50103 -3.61034 0
M  V30 9140 H 842.724 0.919154 -4.15249 0
M  V30 9141 N 841.039 1.57585 0.0217189 0
M  V30 9142 C 842.002 2.06004 1.00474 0
M  V30 9143 C 843.002 0.965461 1.2859 0
M  V30 9144 O 844.192 1.22884 1.23471 0
M  V30 9145 C 841.324 2.48319 2.33561 0
M  V30 9146 H 842.517 2.94112 0.586346 0
M  V30 9147 H 840.07 1.53973 0.268716 0
M  V30 9148 H 840.805 1.63389 2.80133 0
M  V30 9149 H 840.59 3.28239 2.1448 0
M  V30 9150 H 842.08 2.86181 3.04122 0
M  V30 9151 N 842.517 -0.29412 1.54831 0
M  V30 9152 C 843.765 -1.02643 1.74094 0
M  V30 9153 C 844.086 -1.87563 0.533402 0
M  V30 9154 O 843.356 -1.9061 -0.452192 0
M  V30 9155 H 841.936 -0.381959 0.641963 0
M  V30 9156 H 844.598 -0.323444 1.92197 0
M  V30 9157 H 843.694 -1.67558 2.63307 0
M  V30 9158 N 843.995 -1.47404 -0.557645 0
M  V30 9159 C 844.925 -1.62736 -1.67449 0
M  V30 9160 C 845.906 -0.476824 -1.6328 0
M  V30 9161 O 847.091 -0.706108 -1.80908 0
M  V30 9162 C 844.221 -1.641 -3.06086 0
M  V30 9163 C 843.175 -2.78377 -3.25101 0
M  V30 9164 C 842.501 -2.64812 -4.6452 0
M  V30 9165 C 843.801 -4.19971 -3.10518 0
M  V30 9166 H 845.495 -2.56232 -1.54873 0
M  V30 9167 H 843.041 -1.23312 -0.743649 0
M  V30 9168 H 844.994 -1.73417 -3.84063 0
M  V30 9169 H 843.718 -0.671652 -3.19619 0
M  V30 9170 H 842.377 -2.6857 -2.49531 0
M  V30 9171 H 842.025 -1.65906 -4.74852 0
M  V30 9172 H 841.725 -3.41477 -4.78191 0
M  V30 9173 H 843.249 -2.76057 -5.44633 0
M  V30 9174 H 844.663 -4.30757 -3.78313 0
M  V30 9175 H 843.06 -4.97419 -3.35699 0
M  V30 9176 H 844.13 -4.38369 -2.0727 0
M  V30 9177 N 845.473 0.80434 -1.35529 0
M  V30 9178 C 846.42 1.91629 -1.28635 0
M  V30 9179 C 847.39 1.65348 -0.157862 0
M  V30 9180 O 848.575 1.87711 -0.341934 0
M  V30 9181 C 845.715 3.28207 -1.0665 0
M  V30 9182 C 844.828 3.66659 -2.28441 0
M  V30 9183 C 843.963 4.92279 -1.99588 0
M  V30 9184 C 843.002 5.23365 -3.1742 0
M  V30 9185 N 842.139 6.40165 -2.88328 0
M  V30 9186 H 846.979 1.96858 -2.23721 0
M  V30 9187 H 844.516 0.962871 -1.11208 0
M  V30 9188 H 846.474 4.06945 -0.919343 0
M  V30 9189 H 845.104 3.22441 -0.152253 0
M  V30 9190 H 844.156 2.83164 -2.54013 0
M  V30 9191 H 845.468 3.8559 -3.1642 0
M  V30 9192 H 844.622 5.78847 -1.81715 0
M  V30 9193 H 843.361 4.75387 -1.08896 0
M  V30 9194 H 842.366 4.35285 -3.35867 0
M  V30 9195 H 843.591 5.42185 -4.08916 0
M  V30 9196 H 841.537 6.24694 -2.00233 0
M  V30 9197 H 841.454 6.59357 -3.69843 0
M  V30 9198 H 842.722 7.29755 -2.74002 0
M  V30 9199 N 846.951 1.19563 1.02676 0
M  V30 9200 C 847.898 0.935291 2.11 0
M  V30 9201 C 848.868 -0.130685 1.65585 0
M  V30 9202 O 850.053 0.0119062 1.90796 0
M  V30 9203 C 847.193 0.482384 3.41712 0
M  V30 9204 C 846.306 1.61537 4.00662 0
M  V30 9205 C 845.441 1.11378 5.19392 0
M  V30 9206 C 844.48 2.22052 5.70403 0
M  V30 9207 N 843.617 1.73185 6.80405 0
M  V30 9208 H 848.457 1.86275 2.32606 0
M  V30 9209 H 845.994 0.928656 1.14081 0
M  V30 9210 H 847.952 0.20118 4.16715 0
M  V30 9211 H 846.582 -0.408086 3.2021 0
M  V30 9212 H 845.634 2.01173 3.22852 0
M  V30 9213 H 846.946 2.44912 4.34534 0
M  V30 9214 H 846.1 0.787935 6.01562 0
M  V30 9215 H 844.839 0.249789 4.8706 0
M  V30 9216 H 843.844 2.55465 4.86845 0
M  V30 9217 H 845.069 3.08911 6.04774 0
M  V30 9218 H 843.015 0.890973 6.49921 0
M  V30 9219 H 842.932 2.50148 7.13416 0
M  V30 9220 H 844.2 1.4357 7.66164 0
M  V30 9221 N 848.429 -1.21819 0.999893 0
M  V30 9222 C 849.339 -2.27691 0.565159 0
M  V30 9223 C 850.355 -1.69587 -0.389398 0
M  V30 9224 O 851.531 -1.99786 -0.254499 0
M  V30 9225 C 848.596 -3.46537 -0.106432 0
M  V30 9226 C 847.657 -4.19932 0.891964 0
M  V30 9227 C 846.89 -5.33103 0.252327 0
M  V30 9228 O 847.113 -5.62398 -0.952103 0
M  V30 9229 O 846.047 -5.94184 0.960698 0
M  V30 9230 H 849.873 -2.67059 1.44613 0
M  V30 9231 H 847.458 -1.28119 0.768499 0
M  V30 9232 H 849.34 -4.18631 -0.482301 0
M  V30 9233 H 848.015 -3.09079 -0.961865 0
M  V30 9234 H 846.922 -3.5008 1.3189 0
M  V30 9235 H 848.255 -4.61287 1.71682 0
M  V30 9236 N 849.908 -0.773975 -1.37286 0
M  V30 9237 C 850.838 -0.175782 -2.32837 0
M  V30 9238 C 851.819 0.680603 -1.5589 0
M  V30 9239 O 853.004 0.617607 -1.84117 0
M  V30 9240 C 850.134 0.702388 -3.40123 0
M  V30 9241 C 849.088 -0.0528687 -4.27967 0
M  V30 9242 C 848.414 0.944891 -5.26285 0
M  V30 9243 C 849.714 -1.23316 -5.07534 0
M  V30 9244 H 851.408 -0.974016 -2.83114 0
M  V30 9245 H 848.954 -0.469826 -1.3612 0
M  V30 9246 H 850.907 1.13069 -4.05947 0
M  V30 9247 H 849.631 1.53316 -2.88378 0
M  V30 9248 H 848.29 -0.461978 -3.63678 0
M  V30 9249 H 847.938 1.77028 -4.70819 0
M  V30 9250 H 847.638 0.444079 -5.8592 0
M  V30 9251 H 849.162 1.37209 -5.94984 0
M  V30 9252 H 850.576 -0.881395 -5.66484 0
M  V30 9253 H 848.973 -1.66621 -5.76504 0
M  V30 9254 H 850.043 -2.03617 -4.40077 0
M  V30 9255 N 851.386 1.48609 -0.524698 0
M  V30 9256 C 852.336 2.26505 0.260696 0
M  V30 9257 C 853.32 1.32378 0.914597 0
M  V30 9258 O 854.512 1.5695 0.818277 0
M  V30 9259 C 851.641 3.17313 1.31024 0
M  V30 9260 C 850.727 4.18911 0.661391 0
M  V30 9261 N 851.118 5.05183 -0.24981 0
M  V30 9262 C 849.416 4.36425 0.91922 0
M  V30 9263 C 850.117 5.78348 -0.623598 0
M  V30 9264 N 849.093 5.43598 0.0140839 0
M  V30 9265 H 852.895 2.90582 -0.440388 0
M  V30 9266 H 850.409 1.5875 -0.342364 0
M  V30 9267 H 852.406 3.71772 1.88656 0
M  V30 9268 H 851.066 2.54791 2.01275 0
M  V30 9269 H 852.077 5.1415 -0.622093 0
M  V30 9270 H 848.754 3.85095 1.6127 0
M  V30 9271 H 850.144 6.57775 -1.37046 0
M  V30 9272 N 852.864 0.259585 1.55447 0
M  V30 9273 C 854.141 -0.412595 1.91199 0
M  V30 9274 C 854.521 -1.74909 1.18194 0
M  V30 9275 O 853.869 -2.26474 0.303603 0
M  V30 9276 C 854.079 -0.568195 3.44344 0
M  V30 9277 C 855.427 -0.858253 4.15836 0
M  V30 9278 O 856.451 -0.653588 3.50152 0
M  V30 9279 O 855.31 -1.24874 5.32042 0
M  V30 9280 H 852.404 -0.223403 0.796254 0
M  V30 9281 H 854.95 0.30459 1.66944 0
M  V30 9282 H 853.722 0.372989 3.89518 0
M  V30 9283 H 853.345 -1.33544 3.74502 0
M  V30 9284 N 854.342 -1.57594 -0.0133615 0
M  V30 9285 C 855.292 -2.04048 -1.01726 0
M  V30 9286 C 856.276 -0.932682 -1.3111 0
M  V30 9287 O 857.468 -1.19652 -1.30432 0
M  V30 9288 C 854.597 -2.53637 -2.31351 0
M  V30 9289 C 853.683 -3.71269 -2.04989 0
M  V30 9290 N 854.074 -4.83436 -1.48739 0
M  V30 9291 C 852.372 -3.78943 -2.35198 0
M  V30 9292 C 853.073 -5.64961 -1.38542 0
M  V30 9293 N 852.049 -5.10554 -1.86643 0
M  V30 9294 H 855.851 -2.88188 -0.576623 0
M  V30 9295 H 853.365 -1.60912 -0.219344 0
M  V30 9296 H 855.362 -2.85186 -3.04096 0
M  V30 9297 H 854.022 -1.7091 -2.76079 0
M  V30 9298 H 855.033 -5.04558 -1.16798 0
M  V30 9299 H 851.71 -3.07047 -2.82893 0
M  V30 9300 H 853.1 -6.65092 -0.954075 0
M  V30 9301 N 855.82 0.285905 -1.54985 0
M  V30 9302 C 856.783 1.33625 -1.86218 0
M  V30 9303 C 857.783 1.42971 -0.735936 0
M  V30 9304 O 858.973 1.42345 -1.00417 0
M  V30 9305 C 856.105 2.71926 -2.05595 0
M  V30 9306 H 857.298 1.07167 -2.80099 0
M  V30 9307 H 854.851 0.523335 -1.47278 0
M  V30 9308 H 855.586 3.03583 -1.14053 0
M  V30 9309 H 855.371 2.6653 -2.87583 0
M  V30 9310 H 856.861 3.47841 -2.31077 0
M  V30 9311 N 857.298 1.47698 0.54982 0
M  V30 9312 C 858.544 1.55914 1.30624 0
M  V30 9313 C 858.899 0.221596 1.9112 0
M  V30 9314 O 858.192 -0.77351 1.75292 0
M  V30 9315 C 858.386 2.61903 2.4319 0
M  V30 9316 C 858.215 4.05833 1.93725 0
M  V30 9317 C 856.985 4.73199 1.77231 0
M  V30 9318 C 859.183 4.92624 1.47738 0
M  V30 9319 N 857.165 6.01618 1.22183 0
M  V30 9320 C 858.536 6.11129 1.04505 0
M  V30 9321 C 860.591 4.79006 1.35857 0
M  V30 9322 C 859.294 7.1752 0.505722 0
M  V30 9323 C 861.32 5.85501 0.833254 0
M  V30 9324 C 860.682 7.03201 0.410894 0
M  V30 9325 H 856.781 0.625194 0.469741 0
M  V30 9326 H 859.365 1.84485 0.622369 0
M  V30 9327 H 857.536 2.35188 3.09098 0
M  V30 9328 H 859.268 2.59919 3.102 0
M  V30 9329 H 856.023 4.29221 2.00166 0
M  V30 9330 H 856.447 6.70054 0.967263 0
M  V30 9331 H 861.089 3.88369 1.67122 0
M  V30 9332 H 858.807 8.07898 0.180721 0
M  V30 9333 H 862.393 5.77013 0.744781 0
M  V30 9334 H 861.273 7.84199 0.0107086 0
M  V30 9335 N 858.776 -0.797141 1.35954 0
M  V30 9336 C 860.023 -1.55468 1.29754 0
M  V30 9337 C 860.351 -1.94095 -0.125391 0
M  V30 9338 O 859.606 -1.62341 -1.09288 0
M  V30 9339 C 859.905 -2.84847 2.15863 0
M  V30 9340 C 859.571 -2.65394 3.64523 0
M  V30 9341 C 858.233 -2.59796 4.05042 0
M  V30 9342 C 860.585 -2.4727 4.58811 0
M  V30 9343 C 857.913 -2.3403 5.38002 0
M  V30 9344 C 860.265 -2.23032 5.91979 0
M  V30 9345 C 858.929 -2.15862 6.31633 0
M  V30 9346 H 858.199 -0.568897 0.474803 0
M  V30 9347 H 860.846 -0.920299 1.67937 0
M  V30 9348 H 859.151 -3.52712 1.70591 0
M  V30 9349 H 860.848 -3.42597 2.08395 0
M  V30 9350 H 857.438 -2.70602 3.32374 0
M  V30 9351 H 861.622 -2.506 4.28384 0
M  V30 9352 H 856.878 -2.26956 5.67715 0
M  V30 9353 H 861.052 -2.08001 6.64612 0
M  V30 9354 H 858.679 -1.9566 7.34589 0
M  V30 9355 N 860.254 -1.20106 -1.0204 0
M  V30 9356 C 861.482 -1.0344 -1.79186 0
M  V30 9357 C 861.897 0.416542 -1.84148 0
M  V30 9358 O 861.254 1.28925 -1.29168 0
M  V30 9359 C 861.305 -1.60663 -3.23836 0
M  V30 9360 O 861.026 -3.00079 -3.19193 0
M  V30 9361 C 862.527 -1.48897 -4.17546 0
M  V30 9362 H 859.747 -0.364093 -0.563629 0
M  V30 9363 H 862.291 -1.5911 -1.28469 0
M  V30 9364 H 860.446 -1.09122 -3.71714 0
M  V30 9365 H 860.86 -3.27162 -4.09958 0
M  V30 9366 H 862.334 -1.93703 -5.16898 0
M  V30 9367 H 862.811 -0.440843 -4.36982 0
M  V30 9368 H 863.417 -1.9961 -3.75547 0
M  V30 9369 N 861.732 1.21287 -1.00634 0
M  V30 9370 C 862.695 2.21927 -0.572821 0
M  V30 9371 C 863.695 1.5691 0.351541 0
M  V30 9372 O 864.885 1.73623 0.141643 0
M  V30 9373 C 862.017 3.40501 0.164932 0
M  V30 9374 H 863.21 2.61795 -1.463 0
M  V30 9375 H 860.763 1.34571 -0.794998 0
M  V30 9376 H 861.498 3.06123 1.07049 0
M  V30 9377 H 861.283 3.88912 -0.498962 0
M  V30 9378 H 862.773 4.15103 0.455945 0
M  V30 9379 N 863.21 0.781244 1.36873 0
M  V30 9380 C 864.44 0.361042 2.03421 0
M  V30 9381 C 864.848 -1.02471 1.59048 0
M  V30 9382 O 864.191 -1.66712 0.771552 0
M  V30 9383 C 864.253 0.336202 3.57924 0
M  V30 9384 C 863.917 1.66815 4.25467 0
M  V30 9385 C 864.914 2.62224 4.48926 0
M  V30 9386 C 862.599 1.9452 4.63106 0
M  V30 9387 C 864.593 3.83538 5.09095 0
M  V30 9388 C 862.28 3.16103 5.22994 0
M  V30 9389 C 863.278 4.10431 5.45926 0
M  V30 9390 O 862.966 5.29871 6.04559 0
M  V30 9391 H 862.698 0.147956 0.65961 0
M  V30 9392 H 865.252 1.05895 1.75998 0
M  V30 9393 H 863.482 -0.418147 3.84433 0
M  V30 9394 H 865.171 -0.0582199 4.05858 0
M  V30 9395 H 865.937 2.42104 4.20251 0
M  V30 9396 H 861.816 1.21921 4.44585 0
M  V30 9397 H 865.36 4.57178 5.2691 0
M  V30 9398 H 861.257 3.36104 5.51094 0
M  V30 9399 H 862.025 5.30825 6.23031 0
M  V30 9400 N 864.689 -1.48329 0.532571 0
M  V30 9401 C 865.652 -2.2816 -0.218069 0
M  V30 9402 C 866.652 -1.35526 -0.865409 0
M  V30 9403 O 867.842 -1.58394 -0.725061 0
M  V30 9404 C 864.974 -3.1448 -1.31586 0
M  V30 9405 H 866.167 -2.95987 0.482865 0
M  V30 9406 H 863.72 -1.53612 0.288603 0
M  V30 9407 H 864.455 -2.5129 -2.04997 0
M  V30 9408 H 864.24 -3.82625 -0.856779 0
M  V30 9409 H 865.73 -3.74693 -1.84377 0
M  V30 9410 N 866.167 -0.267825 -1.55308 0
M  V30 9411 C 867.578 0.231344 -1.85261 0
M  V30 9412 C 867.929 1.56006 -1.18982 0
M  V30 9413 O 867.054 2.1111 -0.475554 0
M  V30 9414 C 867.649 0.426537 -3.36104 0
M  V30 9415 C 866.208 0.869945 -3.66209 0
M  V30 9416 C 865.355 -0.0409522 -2.7727 0
M  V30 9417 H 868.306 -0.489821 -1.50952 0
M  V30 9418 H 868.327 1.26616 -3.58816 0
M  V30 9419 H 867.839 -0.540678 -3.84315 0
M  V30 9420 H 865.94 1.84889 -3.23492 0
M  V30 9421 H 866.053 0.712316 -4.73775 0
M  V30 9422 H 864.417 0.474097 -2.50249 0
M  V30 9423 H 865.2 -1.00392 -3.28293 0
M  V30 9424 N 867.645 1.57599 0.00500368 0
M  V30 9425 C 868.875 1.94344 0.700998 0
M  V30 9426 C 869.283 0.868011 1.68114 0
M  V30 9427 O 868.626 -0.16214 1.82983 0
M  V30 9428 C 868.688 3.27046 1.49268 0
M  V30 9429 C 868.352 4.51992 0.674684 0
M  V30 9430 C 869.349 5.19888 -0.0354833 0
M  V30 9431 C 867.034 4.98432 0.622129 0
M  V30 9432 C 869.028 6.3252 -0.787246 0
M  V30 9433 C 866.715 6.10954 -0.133362 0
M  V30 9434 C 867.713 6.77855 -0.836788 0
M  V30 9435 O 867.401 7.88221 -1.57996 0
M  V30 9436 H 867.133 0.645572 0.20053 0
M  V30 9437 H 869.687 2.0536 -0.040718 0
M  V30 9438 H 867.917 3.12424 2.27877 0
M  V30 9439 H 869.606 3.4894 2.07355 0
M  V30 9440 H 870.372 4.85 -0.00400159 0
M  V30 9441 H 866.251 4.46189 1.15917 0
M  V30 9442 H 869.795 6.84671 -1.33683 0
M  V30 9443 H 865.692 6.45285 -0.166682 0
M  V30 9444 H 866.46 8.0471 -1.49615 0
M  V30 9445 N 869.123 -0.277682 1.55134 0
M  V30 9446 C 870.4 -1.0309 1.66228 0
M  V30 9447 C 870.78 -2.0445 0.525701 0
M  V30 9448 O 870.128 -2.23512 -0.474816 0
M  V30 9449 C 870.338 -1.6919 3.05247 0
M  V30 9450 C 871.686 -2.20526 3.62841 0
M  V30 9451 O 872.71 -1.79185 3.07849 0
M  V30 9452 O 871.569 -2.96342 4.59177 0
M  V30 9453 H 868.663 -0.4779 0.674937 0
M  V30 9454 H 871.209 -0.273912 1.67475 0
M  V30 9455 H 869.981 -0.957163 3.79413 0
M  V30 9456 H 869.604 -2.51587 3.07879 0
M  V30 9457 N 870.601 -1.47988 -0.541979 0
M  V30 9458 C 871.549 -1.62044 -1.66867 0
M  V30 9459 C 872.543 -0.487217 -1.62242 0
M  V30 9460 O 873.749 -0.66554 -1.67244 0
M  V30 9461 H 870.124 -0.51024 -0.552412 0
M  V30 9462 H 872.095 -2.56695 -1.52153 0
M  V30 9463 C 870.844 -1.66615 -3.0518 0
M  V30 9464 H 870.167 -2.5317 -3.09427 0
M  V30 9465 H 871.607 -1.80496 -3.83663 0
M  V30 9466 C 870.066 -0.402421 -3.34488 0
M  V30 9467 O 870.596 0.48992 -3.98701 0
M  V30 9468 N 868.802 -0.277778 -2.89269 0
M  V30 9469 H 868.349 -1.00488 -2.37192 0
M  V30 9470 H 868.307 0.566784 -3.09249 0
M  V30 9471 N 872.079 0.78992 -1.36375 0
M  V30 9472 C 873.49 1.36506 -1.2737 0
M  V30 9473 C 873.841 1.96008 0.086711 0
M  V30 9474 O 872.966 1.92521 0.988159 0
M  V30 9475 C 873.561 2.48175 -2.30639 0
M  V30 9476 C 872.12 3.01506 -2.25325 0
M  V30 9477 C 871.267 1.74581 -2.15445 0
M  V30 9478 H 874.218 0.591606 -1.47261 0
M  V30 9479 H 874.239 3.27179 -1.94253 0
M  V30 9480 H 873.751 2.04838 -3.2964 0
M  V30 9481 H 871.852 3.49265 -1.29788 0
M  V30 9482 H 871.965 3.58355 -3.17992 0
M  V30 9483 H 870.329 1.96794 -1.61692 0
M  V30 9484 H 871.112 1.33373 -3.16333 0
M  V30 9485 N 873.557 1.20646 1.01402 0
M  V30 9486 C 874.504 0.957618 2.09996 0
M  V30 9487 C 875.474 -0.113115 1.65714 0
M  V30 9488 O 876.659 0.032142 1.90773 0
M  V30 9489 C 873.799 0.5186 3.41181 0
M  V30 9490 C 872.912 1.65777 3.98926 0
M  V30 9491 C 872.047 1.16881 5.18182 0
M  V30 9492 C 871.086 2.2809 5.68015 0
M  V30 9493 N 870.223 1.80392 6.7853 0
M  V30 9494 H 875.063 1.88732 2.30617 0
M  V30 9495 H 872.6 0.940703 1.13089 0
M  V30 9496 H 874.558 0.245367 4.16478 0
M  V30 9497 H 873.188 -0.3741 3.20625 0
M  V30 9498 H 872.24 2.04586 3.207 0
M  V30 9499 H 873.552 2.49507 4.31912 0
M  V30 9500 H 872.706 0.851694 6.00692 0
M  V30 9501 H 871.445 0.301434 4.86768 0
M  V30 9502 H 870.45 2.60614 4.84108 0
M  V30 9503 H 871.675 3.15308 6.01463 0
M  V30 9504 H 869.621 0.959856 6.4894 0
M  V30 9505 H 869.538 2.57701 7.10722 0
M  V30 9506 H 870.806 1.51688 7.64598 0
M  V30 9507 N 875.035 -1.20752 1.01276 0
M  V30 9508 C 875.965 -2.25658 0.600064 0
M  V30 9509 C 876.946 -1.65733 -0.38298 0
M  V30 9510 O 878.131 -1.92324 -0.269256 0
M  V30 9511 C 875.261 -3.47237 -0.0663197 0
M  V30 9512 C 874.215 -4.1973 0.83731 0
M  V30 9513 C 873.541 -5.34687 0.0369102 0
M  V30 9514 C 874.841 -4.76286 2.14357 0
M  V30 9515 H 876.535 -2.60432 1.477 0
M  V30 9516 H 874.081 -1.25187 0.711634 0
M  V30 9517 H 876.034 -4.19803 -0.366563 0
M  V30 9518 H 874.758 -3.11615 -0.977944 0
M  V30 9519 H 873.417 -3.49024 1.1215 0
M  V30 9520 H 873.065 -4.95309 -0.876244 0
M  V30 9521 H 872.765 -5.84119 0.63865 0
M  V30 9522 H 874.289 -6.10059 -0.256968 0
M  V30 9523 H 875.703 -5.40691 1.90595 0
M  V30 9524 H 874.1 -5.36139 2.69583 0
M  V30 9525 H 875.17 -3.9524 2.80916 0
M  V30 9526 N 876.513 -0.788492 -1.36457 0
M  V30 9527 C 877.759 -0.360995 -1.99561 0
M  V30 9528 C 878.092 1.06433 -1.62437 0
M  V30 9529 O 877.367 1.7352 -0.878705 0
M  V30 9530 C 877.65 -0.523735 -3.56271 0
M  V30 9531 C 877.503 -1.99268 -4.03252 0
M  V30 9532 C 878.822 0.0617908 -4.40057 0
M  V30 9533 H 875.941 -0.13264 -0.724966 0
M  V30 9534 H 878.583 -0.994659 -1.61884 0
M  V30 9535 H 876.733 0.0156979 -3.88497 0
M  V30 9536 H 878.405 -2.59311 -3.81518 0
M  V30 9537 H 876.648 -2.49561 -3.54826 0
M  V30 9538 H 877.319 -2.05752 -5.12221 0
M  V30 9539 H 879.795 -0.398674 -4.14186 0
M  V30 9540 H 878.671 -0.0821089 -5.48839 0
M  V30 9541 H 878.932 1.15381 -4.26778 0
M  V30 9542 N 877.991 1.48044 -0.54043 0
M  V30 9543 C 879.237 2.02797 -0.0101718 0
M  V30 9544 C 879.57 1.41565 1.32939 0
M  V30 9545 O 878.845 0.565139 1.86109 0
M  V30 9546 C 879.128 3.59959 0.100758 0
M  V30 9547 C 878.981 4.31654 -1.26471 0
M  V30 9548 C 880.3 4.32347 0.822455 0
M  V30 9549 H 877.419 0.736982 -0.00517052 0
M  V30 9550 H 880.061 1.76656 -0.69948 0
M  V30 9551 H 878.211 3.82363 0.687824 0
M  V30 9552 H 879.883 4.20639 -1.89369 0
M  V30 9553 H 878.126 3.92663 -1.84386 0
M  V30 9554 H 878.797 5.401 -1.13998 0
M  V30 9555 H 881.273 4.14835 0.324164 0
M  V30 9556 H 880.149 5.41978 0.868993 0
M  V30 9557 H 880.41 4.00369 1.87501 0
M  V30 9558 N 879.47 0.276058 1.55163 0
M  V30 9559 C 880.698 -0.343772 2.04024 0
M  V30 9560 C 881.113 -1.49397 1.15438 0
M  V30 9561 O 880.47 -1.81662 0.174692 0
M  V30 9562 C 880.521 -0.823885 3.51986 0
M  V30 9563 O 880.242 0.280507 4.37201 0
M  V30 9564 C 881.743 -1.51143 4.16738 0
M  V30 9565 H 878.963 -0.07828 0.666418 0
M  V30 9566 H 881.507 0.408427 2.0038 0
M  V30 9567 H 879.662 -1.52617 3.56071 0
M  V30 9568 H 880.076 -0.0887831 5.24425 0
M  V30 9569 H 881.55 -1.79878 5.2187 0
M  V30 9570 H 882.027 -2.44327 3.64967 0
M  V30 9571 H 882.633 -0.852975 4.16659 0
M  V30 9572 N 880.948 -1.576 0.00335426 0
M  V30 9573 C 882.194 -1.90996 -0.681799 0
M  V30 9574 C 882.527 -0.877643 -1.73237 0
M  V30 9575 O 881.802 0.103183 -1.94226 0
M  V30 9576 C 882.085 -3.34961 -1.32187 0
M  V30 9577 C 881.938 -4.48911 -0.28261 0
M  V30 9578 C 883.257 -3.78408 -2.24711 0
M  V30 9579 H 880.376 -0.694596 -0.246386 0
M  V30 9580 H 883.018 -1.89919 0.055336 0
M  V30 9581 H 881.168 -3.36008 -1.95014 0
M  V30 9582 H 882.84 -4.59999 0.346241 0
M  V30 9583 H 881.083 -4.32 0.394768 0
M  V30 9584 H 881.754 -5.46609 -0.769576 0
M  V30 9585 H 884.23 -3.78934 -1.71897 0
M  V30 9586 H 883.106 -4.79885 -2.66461 0
M  V30 9587 H 883.367 -3.12464 -3.1276 0
M  V30 9588 N 882.426 0.269451 -1.5528 0
M  V30 9589 C 883.675 0.998381 -1.75258 0
M  V30 9590 C 883.988 1.87321 -0.563034 0
M  V30 9591 O 885.194 2.63719 -0.645313 0
M  V30 9592 C 883.65 1.82505 -3.10193 0
M  V30 9593 C 883.258 0.99871 -4.36726 0
M  V30 9594 C 885.002 2.54807 -3.3952 0
M  V30 9595 C 882.909 1.81997 -5.627 0
M  V30 9596 H 881.839 0.376488 -0.653278 0
M  V30 9597 H 884.49 0.253909 -1.81735 0
M  V30 9598 H 882.872 2.61061 -2.97763 0
M  V30 9599 H 884.046 0.257064 -4.60082 0
M  V30 9600 H 882.361 0.390074 -4.14569 0
M  V30 9601 H 884.958 3.16662 -4.30847 0
M  V30 9602 H 885.301 3.25273 -2.59813 0
M  V30 9603 H 885.834 1.83278 -3.53064 0
M  V30 9604 H 882.573 1.15945 -6.45164 0
M  V30 9605 H 882.093 2.53749 -5.43481 0
M  V30 9606 H 883.772 2.39274 -6.0113 0
M  V30 9607 N 883.904 1.48273 0.534124 0
M  V30 9608 C 884.834 1.6538 1.64839 0
M  V30 9609 C 885.815 0.502741 1.62501 0
M  V30 9610 O 887 0.734799 1.79762 0
M  V30 9611 C 884.13 1.68949 3.03436 0
M  V30 9612 C 883.084 2.83513 3.20631 0
M  V30 9613 C 882.41 2.72169 4.60248 0
M  V30 9614 C 883.71 4.24858 3.03797 0
M  V30 9615 H 885.404 2.58663 1.50777 0
M  V30 9616 H 882.95 1.24479 0.723937 0
M  V30 9617 H 884.903 1.79505 3.81256 0
M  V30 9618 H 883.627 0.722415 3.1851 0
M  V30 9619 H 882.286 2.72505 2.45227 0
M  V30 9620 H 881.934 1.7344 4.72152 0
M  V30 9621 H 881.634 3.49042 4.72698 0
M  V30 9622 H 883.158 2.84687 5.40172 0
M  V30 9623 H 884.572 4.36721 3.71413 0
M  V30 9624 H 882.969 5.02697 3.27743 0
M  V30 9625 H 884.039 4.41611 2.0027 0
M  V30 9626 N 885.382 -0.782676 1.36792 0
M  V30 9627 C 886.292 -1.92679 1.33835 0
M  V30 9628 C 887.308 -1.72344 0.23952 0
M  V30 9629 O 888.484 -1.95766 0.473045 0
M  V30 9630 C 885.549 -3.27644 1.1336 0
M  V30 9631 C 884.61 -3.6071 2.32781 0
M  V30 9632 C 883.843 -4.89234 2.13273 0
M  V30 9633 O 884.066 -5.59468 1.11136 0
M  V30 9634 O 883 -5.21112 3.01208 0
M  V30 9635 H 886.826 -1.98124 2.30175 0
M  V30 9636 H 884.411 -0.923887 1.17408 0
M  V30 9637 H 886.293 -4.08394 1.03886 0
M  V30 9638 H 884.968 -3.23076 0.200868 0
M  V30 9639 H 883.875 -2.80238 2.47825 0
M  V30 9640 H 885.208 -3.70008 3.24584 0
M  V30 9641 N 886.86 -1.21182 -1.00761 0
M  V30 9642 C 887.808 -0.965728 -2.11604 0
M  V30 9643 C 888.802 0.0861028 -1.69181 0
M  V30 9644 O 890.008 -0.0650558 -1.79882 0
M  V30 9645 H 886.383 -0.295023 -0.691712 0
M  V30 9646 H 888.354 -1.90667 -2.2954 0
M  V30 9647 C 887.103 -0.544164 -3.43415 0
M  V30 9648 H 886.426 -1.34515 -3.76491 0
M  V30 9649 H 887.866 -0.411268 -4.22001 0
M  V30 9650 C 886.325 0.744583 -3.28569 0
M  V30 9651 O 886.855 1.80078 -3.59075 0
M  V30 9652 N 885.061 0.710083 -2.81791 0
M  V30 9653 H 884.608 -0.14971 -2.57165 0
M  V30 9654 H 884.566 1.57268 -2.72239 0
M  V30 9655 N 888.338 1.20213 -1.01915 0
M  V30 9656 C 889.301 2.21307 -0.596327 0
M  V30 9657 C 890.301 1.57274 0.334879 0
M  V30 9658 O 891.491 1.73764 0.12322 0
M  V30 9659 C 888.623 3.40657 0.128808 0
M  V30 9660 H 889.816 2.60228 -1.49068 0
M  V30 9661 H 887.369 1.33721 -0.809226 0
M  V30 9662 H 888.104 3.07241 1.03796 0
M  V30 9663 H 887.889 3.88361 -0.540183 0
M  V30 9664 H 889.379 4.15564 0.411892 0
M  V30 9665 N 889.816 0.795718 1.36037 0
M  V30 9666 C 891.064 0.370291 1.98679 0
M  V30 9667 C 891.385 -1.06332 1.63458 0
M  V30 9668 O 890.655 -1.73394 0.911671 0
M  V30 9669 H 889.235 0.133928 0.734896 0
M  V30 9670 H 891.897 1.01915 1.6613 0
M  V30 9671 H 890.993 0.467207 3.08583 0
M  V30 9672 N 891.294 -1.47756 0.548274 0
M  V30 9673 C 892.542 -2.02089 0.0208542 0
M  V30 9674 C 892.863 -1.42589 -1.33017 0
M  V30 9675 O 892.133 -0.597825 -1.86555 0
M  V30 9676 H 890.713 -0.746985 0.00472023 0
M  V30 9677 H 893.375 -1.81262 0.716257 0
M  V30 9678 H 892.471 -3.12012 -0.0739016 0
M  V30 9679 N 892.772 -0.284283 -1.55015 0
M  V30 9680 C 894.02 0.329212 -1.99401 0
M  V30 9681 C 894.341 1.55687 -1.17416 0
M  V30 9682 O 893.611 1.94087 -0.265937 0
M  V30 9683 H 892.191 0.12463 -0.73653 0
M  V30 9684 H 894.853 -0.391743 -1.90922 0
M  V30 9685 H 893.949 0.61278 -3.06025 0
M  V30 9686 N 894.251 1.57596 -0.0117121 0
M  V30 9687 C 895.476 1.95764 0.684938 0
M  V30 9688 C 895.901 0.887285 1.65858 0
M  V30 9689 O 895.259 -0.153508 1.80649 0
M  V30 9690 C 895.307 3.33031 1.38285 0
M  V30 9691 O 894.411 3.28163 2.49765 0
M  V30 9692 H 893.752 0.638767 0.181309 0
M  V30 9693 H 896.282 2.04486 -0.0683883 0
M  V30 9694 H 896.292 3.68866 1.74362 0
M  V30 9695 H 894.967 4.10483 0.669043 0
M  V30 9696 H 893.544 3.04021 2.15929 0
M  V30 9697 N 895.729 -0.261212 1.5542 0
M  V30 9698 C 896.954 -1.01341 1.80955 0
M  V30 9699 C 897.379 -1.78711 0.586849 0
M  V30 9700 O 896.737 -1.75266 -0.463837 0
M  V30 9701 C 896.785 -1.93835 3.04073 0
M  V30 9702 O 895.889 -3.02791 2.79985 0
M  V30 9703 H 895.23 -0.289123 0.597749 0
M  V30 9704 H 897.76 -0.286543 2.02584 0
M  V30 9705 H 897.77 -2.3557 3.33123 0
M  V30 9706 H 896.445 -1.36936 3.9271 0
M  V30 9707 H 895.022 -2.65287 2.62063 0
M  V30 9708 N 897.207 -1.48554 -0.526253 0
M  V30 9709 C 898.155 -1.63804 -1.65139 0
M  V30 9710 C 899.149 -0.504398 -1.61716 0
M  V30 9711 O 900.355 -0.683241 -1.66529 0
M  V30 9712 H 896.73 -0.516071 -0.546969 0
M  V30 9713 H 898.701 -2.58294 -1.49421 0
M  V30 9714 C 897.45 -1.69843 -3.03395 0
M  V30 9715 H 896.773 -2.56438 -3.06724 0
M  V30 9716 H 898.213 -1.84555 -3.81727 0
M  V30 9717 C 896.672 -0.437875 -3.34042 0
M  V30 9718 O 897.202 0.447604 -3.99198 0
M  V30 9719 N 895.408 -0.308444 -2.88958 0
M  V30 9720 H 894.955 -1.02998 -2.36112 0
M  V30 9721 H 894.913 0.533952 -3.09833 0
M  V30 9722 N 898.685 0.775411 -1.37205 0
M  V30 9723 C 899.648 1.8702 -1.325 0
M  V30 9724 C 900.648 1.5915 -0.229793 0
M  V30 9725 O 901.838 1.673 -0.485423 0
M  V30 9726 C 898.97 3.24085 -1.05745 0
M  V30 9727 H 900.163 1.92604 -2.29878 0
M  V30 9728 H 897.716 0.97476 -1.22181 0
M  V30 9729 H 898.451 3.24178 -0.0888371 0
M  V30 9730 H 898.236 3.45705 -1.85016 0
M  V30 9731 H 899.726 4.0416 -1.05094 0
M  V30 9732 N 900.163 1.21714 1.00117 0
M  V30 9733 C 901.126 0.981338 2.07129 0
M  V30 9734 C 902.126 -0.0491116 1.60725 0
M  V30 9735 O 903.316 0.188555 1.73177 0
M  V30 9736 C 900.448 0.480608 3.37495 0
M  V30 9737 H 901.641 1.93075 2.29482 0
M  V30 9738 H 899.194 1.03467 1.17151 0
M  V30 9739 H 899.929 -0.473552 3.20824 0
M  V30 9740 H 899.714 1.22393 3.72508 0
M  V30 9741 H 901.204 0.33561 4.16249 0
M  V30 9742 N 901.641 -1.19671 1.02551 0
M  V30 9743 C 903.052 -1.70964 0.750208 0
M  V30 9744 C 903.403 -1.82095 -0.730461 0
M  V30 9745 O 902.528 -1.48974 -1.56958 0
M  V30 9746 C 903.123 -3.10516 1.35518 0
M  V30 9747 C 901.682 -3.59083 1.12854 0
M  V30 9748 C 900.829 -2.36041 1.45534 0
M  V30 9749 H 903.78 -1.04559 1.19386 0
M  V30 9750 H 903.801 -3.73028 0.750378 0
M  V30 9751 H 903.313 -3.02383 2.43282 0
M  V30 9752 H 901.414 -3.72536 0.0689627 0
M  V30 9753 H 901.527 -4.43395 1.81488 0
M  V30 9754 H 899.891 -2.39214 0.87458 0
M  V30 9755 H 900.674 -2.3054 2.54374 0
M  V30 9756 N 903.119 -0.802921 -1.35613 0
M  V30 9757 C 904.049 -0.225131 -2.32412 0
M  V30 9758 C 905.03 0.647383 -1.57299 0
M  V30 9759 O 906.215 0.578414 -1.85386 0
M  V30 9760 C 903.345 0.630085 -3.41537 0
M  V30 9761 C 902.299 -0.143635 -4.27759 0
M  V30 9762 C 901.625 0.833046 -5.28171 0
M  V30 9763 C 902.925 -1.34054 -5.04804 0
M  V30 9764 H 904.619 -1.03385 -2.80984 0
M  V30 9765 H 902.165 -0.498593 -1.35093 0
M  V30 9766 H 904.118 1.04433 -4.08254 0
M  V30 9767 H 902.842 1.47165 -2.91565 0
M  V30 9768 H 901.501 -0.539015 -3.62616 0
M  V30 9769 H 901.149 1.67001 -4.74468 0
M  V30 9770 H 900.849 0.319697 -5.8673 0
M  V30 9771 H 902.373 1.24558 -5.97761 0
M  V30 9772 H 903.787 -1.00136 -5.64487 0
M  V30 9773 H 902.184 -1.78812 -5.72841 0
M  V30 9774 H 903.254 -2.12906 -4.35659 0
M  V30 9775 N 904.597 1.47463 -0.556102 0
M  V30 9776 C 905.56 2.28478 0.181743 0
M  V30 9777 C 906.56 1.36886 0.843738 0
M  V30 9778 O 907.75 1.59527 0.69977 0
M  V30 9779 C 904.882 3.16534 1.26566 0
M  V30 9780 H 906.075 2.95182 -0.529892 0
M  V30 9781 H 903.628 1.53134 -0.313005 0
M  V30 9782 H 904.363 2.5452 2.00973 0
M  V30 9783 H 904.148 3.83939 0.795798 0
M  V30 9784 H 905.638 3.77579 1.78393 0
M  V30 9785 N 906.075 0.2925 1.54862 0
M  V30 9786 C 907.491 -0.0611461 1.59483 0
M  V30 9787 C 907.691 -1.53141 1.30958 0
M  V30 9788 O 906.747 -2.28291 1.07887 0
M  V30 9789 C 908.06 0.329143 2.98893 0
M  V30 9790 C 909.608 0.2772 3.1177 0
M  V30 9791 C 910.083 0.642185 4.53475 0
M  V30 9792 N 911.574 0.594396 4.5937 0
M  V30 9793 C 912.309 0.849385 5.67074 0
M  V30 9794 N 911.805 1.1699 6.82851 0
M  V30 9795 N 913.598 0.777016 5.56704 0
M  V30 9796 H 905.749 1.25079 1.71665 0
M  V30 9797 H 908.012 0.506516 0.80134 0
M  V30 9798 H 907.718 1.35233 3.24661 0
M  V30 9799 H 907.592 -0.321442 3.75828 0
M  V30 9800 H 909.979 -0.736725 2.85756 0
M  V30 9801 H 910.06 0.962289 2.3701 0
M  V30 9802 H 909.704 1.65388 4.80218 0
M  V30 9803 H 909.634 -0.0648831 5.2656 0
M  V30 9804 H 912.125 0.357256 3.76208 0
M  V30 9805 H 912.438 1.35067 7.60905 0
M  V30 9806 H 910.783 1.20785 6.84424 0
M  V30 9807 H 913.974 0.526333 4.65132 0
M  V30 9808 H 914.147 0.979113 6.4056 0
M  V30 9809 N 907.553 -1.57587 0.0200696 0
M  V30 9810 C 908.5 -2.09667 -0.964791 0
M  V30 9811 C 909.47 -0.99664 -1.32877 0
M  V30 9812 O 910.655 -1.2703 -1.42366 0
M  V30 9813 C 907.795 -2.62101 -2.24493 0
M  V30 9814 C 906.908 -3.8608 -1.93821 0
M  V30 9815 C 906.043 -4.26939 -3.16064 0
M  V30 9816 C 905.082 -5.43701 -2.81169 0
M  V30 9817 N 904.219 -5.79759 -3.9601 0
M  V30 9818 H 909.059 -2.93538 -0.513751 0
M  V30 9819 H 906.596 -1.45096 -0.242 0
M  V30 9820 H 908.554 -2.90587 -2.99358 0
M  V30 9821 H 907.184 -1.81074 -2.6723 0
M  V30 9822 H 906.236 -3.64378 -1.09237 0
M  V30 9823 H 907.548 -4.71028 -1.64115 0
M  V30 9824 H 906.702 -4.56814 -3.99257 0
M  V30 9825 H 905.441 -3.40739 -3.48924 0
M  V30 9826 H 904.446 -5.13529 -1.96387 0
M  V30 9827 H 905.671 -6.31593 -2.49535 0
M  V30 9828 H 903.617 -4.96516 -4.28729 0
M  V30 9829 H 903.534 -6.59327 -3.69896 0
M  V30 9830 H 904.802 -6.14235 -4.79933 0
M  V30 9831 N 909.032 0.252966 -1.55557 0
M  V30 9832 C 910.278 0.983306 -1.77367 0
M  V30 9833 C 910.611 1.85203 -0.584258 0
M  V30 9834 O 909.886 1.89963 0.417644 0
M  V30 9835 C 910.169 1.84896 -3.09007 0
M  V30 9836 C 910.022 1.00883 -4.38341 0
M  V30 9837 C 911.341 2.83254 -3.36831 0
M  V30 9838 H 908.46 0.356056 -0.645286 0
M  V30 9839 H 911.102 0.254232 -1.88291 0
M  V30 9840 H 909.252 2.47058 -2.99825 0
M  V30 9841 H 910.924 0.40638 -4.59507 0
M  V30 9842 H 909.167 0.31297 -4.3267 0
M  V30 9843 H 909.838 1.64818 -5.2682 0
M  V30 9844 H 912.314 2.31228 -3.45937 0
M  V30 9845 H 911.19 3.40949 -4.30169 0
M  V30 9846 H 911.451 3.59407 -2.57447 0
M  V30 9847 N 910.51 1.48831 0.518367 0
M  V30 9848 C 911.443 1.588 1.63884 0
M  V30 9849 C 912.421 0.437847 1.56594 0
M  V30 9850 O 913.605 0.651042 1.769 0
M  V30 9851 C 910.732 1.52681 3.02335 0
M  V30 9852 C 909.778 2.7268 3.27945 0
M  V30 9853 S 910.611 4.34536 3.12951 0
M  V30 9854 C 911.767 4.31034 4.53828 0
M  V30 9855 H 912 2.53587 1.5518 0
M  V30 9856 H 909.533 1.37507 0.702218 0
M  V30 9857 H 911.491 1.49837 3.82177 0
M  V30 9858 H 910.152 0.592107 3.08469 0
M  V30 9859 H 909.345 2.64569 4.28974 0
M  V30 9860 H 908.947 2.72847 2.55794 0
M  V30 9861 H 911.239 4.01683 5.45579 0
M  V30 9862 H 912.182 5.32282 4.66991 0
M  V30 9863 H 912.59 3.61343 4.33695 0
M  V30 9864 N 911.988 -0.768124 1.37614 0
M  V30 9865 C 913.265 -1.51637 1.23554 0
M  V30 9866 C 913.645 -2.1042 -0.169331 0
M  V30 9867 O 912.993 -1.95834 -1.17735 0
M  V30 9868 C 913.203 -2.59436 2.33439 0
M  V30 9869 C 914.551 -3.2674 2.71157 0
M  V30 9870 O 915.575 -2.69733 2.32642 0
M  V30 9871 O 914.434 -4.29814 3.37524 0
M  V30 9872 H 911.528 -0.671778 0.482332 0
M  V30 9873 H 914.074 -0.804779 1.49403 0
M  V30 9874 H 912.846 -2.14146 3.27502 0
M  V30 9875 H 912.469 -3.38192 2.09073 0
M  V30 9876 N 913.466 -1.22244 -0.994698 0
M  V30 9877 C 914.696 -1.07062 -1.76695 0
M  V30 9878 C 915.104 0.381895 -1.85306 0
M  V30 9879 O 914.447 1.27648 -1.32105 0
M  V30 9880 C 914.509 -1.60487 -3.2169 0
M  V30 9881 C 914.173 -3.09079 -3.36629 0
M  V30 9882 C 915.17 -4.06526 -3.24088 0
M  V30 9883 C 912.855 -3.48497 -3.61739 0
M  V30 9884 C 914.849 -5.41377 -3.36437 0
M  V30 9885 C 912.536 -4.83498 -3.73729 0
M  V30 9886 C 913.534 -5.79747 -3.61086 0
M  V30 9887 O 913.222 -7.12297 -3.72678 0
M  V30 9888 H 912.954 -0.375963 -0.561807 0
M  V30 9889 H 915.508 -1.62259 -1.25941 0
M  V30 9890 H 913.738 -0.996957 -3.73628 0
M  V30 9891 H 915.427 -1.40994 -3.80625 0
M  V30 9892 H 916.193 -3.77415 -3.04602 0
M  V30 9893 H 912.072 -2.74106 -3.70657 0
M  V30 9894 H 915.616 -6.16485 -3.26485 0
M  V30 9895 H 911.513 -5.1229 -3.92721 0
M  V30 9896 H 912.281 -7.1985 -3.89562 0
M  V30 9897 N 914.944 1.19125 -1.03184 0
M  V30 9898 C 916.174 1.92558 -0.748663 0
M  V30 9899 C 916.582 1.759 0.696837 0
M  V30 9900 O 915.925 1.08019 1.48585 0
M  V30 9901 C 915.987 3.4461 -1.02391 0
M  V30 9902 C 915.651 3.85041 -2.46155 0
M  V30 9903 C 916.648 3.89554 -3.44302 0
M  V30 9904 C 914.333 4.16594 -2.80633 0
M  V30 9905 C 916.327 4.25055 -4.74981 0
M  V30 9906 C 914.014 4.51767 -4.11521 0
M  V30 9907 C 915.012 4.55972 -5.08506 0
M  V30 9908 O 914.7 4.9033 -6.37049 0
M  V30 9909 H 914.432 0.618397 -0.273059 0
M  V30 9910 H 916.986 1.52122 -1.38015 0
M  V30 9911 H 915.216 3.85244 -0.335284 0
M  V30 9912 H 916.905 3.99283 -0.729927 0
M  V30 9913 H 917.671 3.65324 -3.19003 0
M  V30 9914 H 913.55 4.12503 -2.05821 0
M  V30 9915 H 917.094 4.28252 -5.50678 0
M  V30 9916 H 912.991 4.75455 -4.36592 0
M  V30 9917 H 913.759 5.08266 -6.41566 0
M  V30 9918 N 916.422 0.810101 1.35185 0
M  V30 9919 C 917.352 0.237453 2.32289 0
M  V30 9920 C 918.333 -0.639032 1.5764 0
M  V30 9921 O 919.518 -0.568575 1.8569 0
M  V30 9922 C 916.648 -0.611964 3.41866 0
M  V30 9923 C 915.602 0.166318 4.27677 0
M  V30 9924 C 914.928 -0.805024 5.28605 0
M  V30 9925 C 916.228 1.36729 5.04086 0
M  V30 9926 H 917.922 1.04874 2.80432 0
M  V30 9927 H 915.468 0.505751 1.34826 0
M  V30 9928 H 917.421 -1.02267 4.08802 0
M  V30 9929 H 916.145 -1.45617 2.92341 0
M  V30 9930 H 914.804 0.558238 3.62325 0
M  V30 9931 H 914.452 -1.64483 4.75347 0
M  V30 9932 H 914.152 -0.288577 5.86891 0
M  V30 9933 H 915.676 -1.21386 5.98413 0
M  V30 9934 H 917.09 1.03128 5.63948 0
M  V30 9935 H 915.487 1.81848 5.71884 0
M  V30 9936 H 916.557 2.15214 4.34524 0
M  V30 9937 N 917.9 -1.47166 0.563914 0
M  V30 9938 C 918.848 -2.31798 -0.193009 0
M  V30 9939 C 919.842 -1.43338 -0.902805 0
M  V30 9940 O 921.048 -1.60067 -0.823328 0
M  V30 9941 H 917.423 -0.747613 -0.0811139 0
M  V30 9942 H 919.394 -2.93476 0.539876 0
M  V30 9943 C 918.143 -3.26131 -1.20555 0
M  V30 9944 H 917.466 -3.94166 -0.668803 0
M  V30 9945 H 918.906 -3.88167 -1.70593 0
M  V30 9946 C 917.365 -2.50132 -2.25689 0
M  V30 9947 O 917.895 -2.25064 -3.3273 0
M  V30 9948 N 916.101 -2.11022 -1.99795 0
M  V30 9949 H 915.648 -2.3161 -1.1276 0
M  V30 9950 H 915.606 -1.60489 -2.70353 0
M  V30 9951 N 919.378 -0.300708 -1.54705 0
M  V30 9952 C 920.31 0.609179 -2.20956 0
M  V30 9953 C 921.323 1.09776 -1.20221 0
M  V30 9954 O 922.512 1.01527 -1.46815 0
M  V30 9955 C 919.612 1.84595 -2.84214 0
M  V30 9956 C 918.785 1.49991 -4.10879 0
M  V30 9957 C 917.844 2.5918 -4.57943 0
M  V30 9958 O 916.87 2.24285 -5.23149 0
M  V30 9959 N 918.072 3.89714 -4.30236 0
M  V30 9960 H 920.837 0.0420111 -2.99671 0
M  V30 9961 H 918.398 -0.122896 -1.61433 0
M  V30 9962 H 920.39 2.56988 -3.12633 0
M  V30 9963 H 918.96 2.32152 -2.09342 0
M  V30 9964 H 918.18 0.608637 -3.89473 0
M  V30 9965 H 919.468 1.24409 -4.93356 0
M  V30 9966 H 918.866 4.20874 -3.77997 0
M  V30 9967 H 917.423 4.58406 -4.63365 0
M  V30 9968 N 920.856 1.57574 -0.0284266 0
M  V30 9969 C 922.272 1.56194 0.327958 0
M  V30 9970 C 922.472 1.03397 1.72949 0
M  V30 9971 O 921.528 0.680392 2.4316 0
M  V30 9972 C 922.841 3.00177 0.177196 0
M  V30 9973 C 924.389 3.12 0.250014 0
M  V30 9974 C 924.864 4.57821 0.128049 0
M  V30 9975 N 926.355 4.6283 0.185054 0
M  V30 9976 C 927.09 5.73286 0.114454 0
M  V30 9977 N 926.586 6.928 -0.00719225 0
M  V30 9978 N 928.379 5.61848 0.16839 0
M  V30 9979 H 920.53 1.90224 -0.944921 0
M  V30 9980 H 922.793 0.874987 -0.364832 0
M  V30 9981 H 922.499 3.42753 -0.788224 0
M  V30 9982 H 922.373 3.65101 0.94768 0
M  V30 9983 H 924.76 2.69337 1.20589 0
M  V30 9984 H 924.841 2.49799 -0.550835 0
M  V30 9985 H 924.485 5.01165 -0.824407 0
M  V30 9986 H 924.415 5.18001 0.947753 0
M  V30 9987 H 926.906 3.76867 0.279247 0
M  V30 9988 H 927.219 7.72781 -0.0543903 0
M  V30 9989 H 925.564 6.94987 -0.0419648 0
M  V30 9990 H 928.755 4.67367 0.261821 0
M  V30 9991 H 928.928 6.47907 0.109908 0
M  V30 9992 N 922.334 -0.244713 1.55689 0
M  V30 9993 C 923.264 -1.30667 1.93516 0
M  V30 9994 C 924.245 -1.50094 0.800371 0
M  V30 9995 O 925.43 -1.62665 1.06083 0
M  V30 9996 C 922.56 -2.66101 2.23176 0
M  V30 9997 C 921.514 -2.61366 3.38927 0
M  V30 9998 C 920.84 -4.00616 3.54134 0
M  V30 9999 C 922.14 -2.18161 4.74555 0
M  V30 10000 H 923.834 -0.992546 2.82469 0
M  V30 10001 H 921.38 -0.476018 1.35905 0
M  V30 10002 H 923.333 -3.4053 2.48228 0
M  V30 10003 H 922.057 -2.99154 1.31051 0
M  V30 10004 H 920.716 -1.89395 3.13887 0
M  V30 10005 H 920.364 -4.30938 2.59426 0
M  V30 10006 H 920.064 -3.98335 4.31975 0
M  V30 10007 H 921.588 -4.76741 3.8151 0
M  V30 10008 H 923.002 -2.82323 4.98965 0
M  V30 10009 H 921.399 -2.26988 5.55515 0
M  V30 10010 H 922.469 -1.13333 4.7147 0
M  V30 10011 N 923.813 -1.49104 -0.510467 0
M  V30 10012 C 925.224 -1.51423 -1.09215 0
M  V30 10013 C 925.575 -0.295035 -1.93969 0
M  V30 10014 O 924.7 0.596064 -2.08029 0
M  V30 10015 C 925.295 -2.74387 -1.98739 0
M  V30 10016 C 923.854 -2.79515 -2.52088 0
M  V30 10017 C 923.001 -2.4521 -1.29488 0
M  V30 10018 H 925.952 -1.55938 -0.294807 0
M  V30 10019 H 925.973 -2.54012 -2.83298 0
M  V30 10020 H 925.485 -3.63105 -1.37026 0
M  V30 10021 H 923.586 -1.95054 -3.17466 0
M  V30 10022 H 923.699 -3.81447 -2.89887 0
M  V30 10023 H 922.063 -1.96785 -1.61703 0
M  V30 10024 H 922.846 -3.36192 -0.694978 0
M  V30 10025 N 925.291 0.760815 -1.38019 0
M  V30 10026 C 926.223 1.88387 -1.30549 0
M  V30 10027 C 927.236 1.61319 -0.219119 0
M  V30 10028 O 928.425 1.72033 -0.476122 0
M  V30 10029 C 925.525 3.23863 -0.998291 0
M  V30 10030 C 924.698 3.78492 -2.19232 0
M  V30 10031 C 923.757 4.92468 -1.85368 0
M  V30 10032 O 922.783 5.0748 -2.57785 0
M  V30 10033 N 923.985 5.74901 -0.804319 0
M  V30 10034 H 926.75 1.95308 -2.27322 0
M  V30 10035 H 924.311 0.940423 -1.31786 0
M  V30 10036 H 926.303 3.97644 -0.7524 0
M  V30 10037 H 924.873 3.12374 -0.11877 0
M  V30 10038 H 924.093 2.96361 -2.5993 0
M  V30 10039 H 925.381 4.11722 -2.98935 0
M  V30 10040 H 924.779 5.65333 -0.203628 0
M  V30 10041 H 923.336 6.48861 -0.618301 0
M  V30 10042 N 926.769 1.22769 0.988202 0
M  V30 10043 C 928.015 1.05665 1.73097 0
M  V30 10044 C 928.348 -0.406615 1.89895 0
M  V30 10045 O 927.623 -1.30132 1.44554 0
M  V30 10046 C 927.906 1.77381 3.13382 0
M  V30 10047 C 927.759 3.31332 3.04203 0
M  V30 10048 C 929.078 1.52999 4.12649 0
M  V30 10049 H 926.197 0.385258 0.628288 0
M  V30 10050 H 928.839 1.51171 1.15097 0
M  V30 10051 H 926.989 1.38696 3.62899 0
M  V30 10052 H 928.661 3.79489 2.6227 0
M  V30 10053 H 926.904 3.60767 2.40894 0
M  V30 10054 H 927.575 3.76692 4.03493 0
M  V30 10055 H 930.051 1.86611 3.71908 0
M  V30 10056 H 928.927 2.05666 5.08913 0
M  V30 10057 H 929.188 0.463615 4.39662 0
M  V30 10058 N 928.247 -1.18576 1.03814 0
M  V30 10059 C 929.157 -2.25778 0.637311 0
M  V30 10060 C 930.173 -1.7074 -0.335248 0
M  V30 10061 O 931.349 -2.00494 -0.19081 0
M  V30 10062 C 928.414 -3.467 0.00386953 0
M  V30 10063 C 927.475 -4.16881 1.02511 0
M  V30 10064 C 926.708 -5.32031 0.421802 0
M  V30 10065 O 926.931 -5.65142 -0.772699 0
M  V30 10066 O 925.865 -5.90826 1.14925 0
M  V30 10067 H 929.691 -2.62323 1.53037 0
M  V30 10068 H 927.276 -1.25609 0.80887 0
M  V30 10069 H 929.158 -4.19953 -0.348873 0
M  V30 10070 H 927.833 -3.11983 -0.863047 0
M  V30 10071 H 926.74 -3.45707 1.4296 0
M  V30 10072 H 928.073 -4.55592 1.86271 0
M  V30 10073 N 929.725 -0.817259 -1.34754 0
M  V30 10074 C 930.672 -0.233108 -2.2962 0
M  V30 10075 C 931.642 0.638902 -1.53321 0
M  V30 10076 O 932.827 0.581739 -1.81715 0
M  V30 10077 C 929.967 0.603659 -3.39779 0
M  V30 10078 C 929.08 -0.289967 -4.31026 0
M  V30 10079 C 928.215 0.555825 -5.28284 0
M  V30 10080 C 927.254 -0.337539 -6.11169 0
M  V30 10081 N 926.391 0.468847 -7.00533 0
M  V30 10082 H 931.231 -1.04747 -2.78984 0
M  V30 10083 H 928.768 -0.528056 -1.37295 0
M  V30 10084 H 930.726 1.10407 -4.02326 0
M  V30 10085 H 929.356 1.38319 -2.91664 0
M  V30 10086 H 928.408 -0.908552 -3.69391 0
M  V30 10087 H 929.72 -0.977136 -4.89135 0
M  V30 10088 H 928.874 1.12094 -5.96255 0
M  V30 10089 H 927.613 1.27652 -4.70698 0
M  V30 10090 H 926.618 -0.914839 -5.42135 0
M  V30 10091 H 927.843 -1.05626 -6.70835 0
M  V30 10092 H 925.789 1.17332 -6.45422 0
M  V30 10093 H 925.706 -0.160052 -7.55831 0
M  V30 10094 H 926.974 1.01689 -7.72839 0
M  V30 10095 N 931.203 1.46865 -0.571711 0
M  V30 10096 C 932.433 2.06518 -0.0583129 0
M  V30 10097 C 932.841 1.4227 1.24723 0
M  V30 10098 O 932.184 0.518293 1.76237 0
M  V30 10099 C 932.246 3.5898 0.193214 0
M  V30 10100 C 931.91 4.45355 -1.02507 0
M  V30 10101 C 932.907 4.82575 -1.93435 0
M  V30 10102 C 930.592 4.86656 -1.24382 0
M  V30 10103 C 932.586 5.59912 -3.04595 0
M  V30 10104 C 930.273 5.63754 -2.35849 0
M  V30 10105 C 931.271 6.00294 -3.25785 0
M  V30 10106 O 930.959 6.75836 -4.35318 0
M  V30 10107 H 930.691 0.674188 -0.0494584 0
M  V30 10108 H 933.245 1.89644 -0.788934 0
M  V30 10109 H 931.475 3.7412 0.978319 0
M  V30 10110 H 933.164 4.006 0.653769 0
M  V30 10111 H 933.93 4.51256 -1.77745 0
M  V30 10112 H 929.809 4.57672 -0.55292 0
M  V30 10113 H 933.353 5.88351 -3.74818 0
M  V30 10114 H 929.25 5.94487 -2.51506 0
M  V30 10115 H 930.018 6.94247 -4.33547 0
M  V30 10116 N 932.681 0.308908 1.54543 0
M  V30 10117 C 933.629 -0.579326 2.2527 0
M  V30 10118 C 934.623 -1.13058 1.26152 0
M  V30 10119 O 935.829 -1.08031 1.43977 0
M  V30 10120 H 932.204 -0.205444 0.723392 0
M  V30 10121 H 934.175 0.0396415 2.98374 0
M  V30 10122 C 932.924 -1.73584 3.01271 0
M  V30 10123 H 932.247 -1.32089 3.77349 0
M  V30 10124 H 933.687 -2.33324 3.54028 0
M  V30 10125 C 932.146 -2.6447 2.08703 0
M  V30 10126 O 932.676 -3.65785 1.66025 0
M  V30 10127 N 930.882 -2.32379 1.74495 0
M  V30 10128 H 930.429 -1.50034 2.09398 0
M  V30 10129 H 930.387 -2.93454 1.12836 0
M  V30 10130 N 934.159 -1.57557 0.0367827 0
M  V30 10131 C 935.405 -1.92399 -0.641133 0
M  V30 10132 C 935.738 -0.914191 -1.71336 0
M  V30 10133 O 935.013 0.0619616 -1.94401 0
M  V30 10134 C 935.296 -3.37689 -1.25052 0
M  V30 10135 C 935.149 -4.4941 -0.187326 0
M  V30 10136 C 936.468 -3.8309 -2.16634 0
M  V30 10137 H 933.587 -0.699666 -0.231597 0
M  V30 10138 H 936.229 -1.89759 0.0956083 0
M  V30 10139 H 934.379 -3.40069 -1.87843 0
M  V30 10140 H 936.051 -4.59161 0.443736 0
M  V30 10141 H 934.294 -4.31065 0.486313 0
M  V30 10142 H 934.965 -5.48119 -0.653459 0
M  V30 10143 H 937.441 -3.82494 -1.63821 0
M  V30 10144 H 936.317 -4.85429 -2.56222 0
M  V30 10145 H 936.578 -3.19028 -3.06062 0
M  V30 10146 N 935.637 0.236453 -1.55816 0
M  V30 10147 C 937.048 0.80468 -1.68469 0
M  V30 10148 C 937.399 1.85601 -0.636133 0
M  V30 10149 O 936.524 2.15323 0.215622 0
M  V30 10150 C 937.119 1.46634 -3.05424 0
M  V30 10151 C 935.678 1.98214 -3.19981 0
M  V30 10152 C 934.825 0.83695 -2.64368 0
M  V30 10153 H 937.776 0.0120647 -1.58695 0
M  V30 10154 H 937.797 2.33472 -3.00451 0
M  V30 10155 H 937.309 0.700931 -3.81718 0
M  V30 10156 H 935.41 2.77604 -2.4853 0
M  V30 10157 H 935.523 2.17235 -4.2702 0
M  V30 10158 H 933.887 1.24028 -2.22462 0
M  V30 10159 H 934.67 0.084451 -3.43196 0
M  V30 10160 N 937.115 1.49373 0.502552 0
M  V30 10161 C 938.364 1.58028 1.25339 0
M  V30 10162 C 938.677 0.271494 1.93707 0
M  V30 10163 O 939.883 0.236584 2.70467 0
M  V30 10164 C 938.339 2.78817 2.27572 0
M  V30 10165 C 937.947 4.16448 1.65151 0
M  V30 10166 C 939.691 2.96802 3.03494 0
M  V30 10167 C 937.598 5.28461 2.65486 0
M  V30 10168 H 936.528 0.588396 0.471494 0
M  V30 10169 H 939.179 1.75756 0.52744 0
M  V30 10170 H 937.561 2.5458 3.03323 0
M  V30 10171 H 938.735 4.50816 0.954029 0
M  V30 10172 H 937.05 4.03809 1.01625 0
M  V30 10173 H 939.647 3.77656 3.78524 0
M  V30 10174 H 939.99 2.07303 3.61014 0
M  V30 10175 H 940.523 3.21071 2.34858 0
M  V30 10176 H 937.262 6.20015 2.12749 0
M  V30 10177 H 936.782 4.9855 3.33479 0
M  V30 10178 H 938.461 5.5773 3.27943 0
M  V30 10179 N 938.594 -0.753485 1.38421 0
M  V30 10180 C 939.526 -1.87692 1.31547 0
M  V30 10181 C 940.539 -1.612 0.227671 0
M  V30 10182 O 941.728 -1.71778 0.485238 0
M  V30 10183 C 938.828 -3.23329 1.01545 0
M  V30 10184 C 938.001 -3.77324 2.21236 0
M  V30 10185 C 937.06 -4.91478 1.87977 0
M  V30 10186 O 936.086 -5.06106 2.60472 0
M  V30 10187 N 937.288 -5.74466 0.834796 0
M  V30 10188 H 940.053 -1.94099 2.28354 0
M  V30 10189 H 937.614 -0.933421 1.32283 0
M  V30 10190 H 939.606 -3.9724 0.773477 0
M  V30 10191 H 938.176 -3.12307 0.135334 0
M  V30 10192 H 937.396 -2.94978 2.61498 0
M  V30 10193 H 938.684 -4.10131 3.01115 0
M  V30 10194 H 938.082 -5.65217 0.233606 0
M  V30 10195 H 936.639 -6.48524 0.652703 0
M  V30 10196 N 940.072 -1.23292 -0.981677 0
M  V30 10197 C 941.004 -0.970782 -2.07626 0
M  V30 10198 C 942.017 0.0547506 -1.62708 0
M  V30 10199 O 943.206 -0.180623 -1.77584 0
M  V30 10200 C 940.306 -0.44055 -3.36024 0
M  V30 10201 C 939.479 -1.52595 -4.09919 0
M  V30 10202 C 938.538 -1.00082 -5.16595 0
M  V30 10203 O 937.564 -1.68951 -5.43548 0
M  V30 10204 N 938.766 0.172017 -5.80245 0
M  V30 10205 H 941.531 -1.91316 -2.30691 0
M  V30 10206 H 939.092 -1.14133 -1.14828 0
M  V30 10207 H 941.084 -0.0743111 -4.04632 0
M  V30 10208 H 939.654 0.407211 -3.09936 0
M  V30 10209 H 938.874 -2.06501 -3.35784 0
M  V30 10210 H 940.162 -2.2559 -4.56055 0
M  V30 10211 H 939.56 0.748129 -5.60731 0
M  V30 10212 H 938.117 0.479532 -6.50034 0
M  V30 10213 N 941.55 1.18024 -1.04442 0
M  V30 10214 C 942.497 2.21785 -0.638759 0
M  V30 10215 C 943.467 1.62255 0.355312 0
M  V30 10216 O 944.652 1.89176 0.24844 0
M  V30 10217 C 941.792 3.45098 -0.0118002 0
M  V30 10218 C 940.905 4.1895 -1.05379 0
M  V30 10219 C 940.04 5.2973 -0.394951 0
M  V30 10220 C 939.079 5.95359 -1.42178 0
M  V30 10221 N 938.216 6.97668 -0.787635 0
M  V30 10222 H 943.056 2.55839 -1.52808 0
M  V30 10223 H 940.593 1.25681 -0.764378 0
M  V30 10224 H 942.551 4.15564 0.369075 0
M  V30 10225 H 941.181 3.11652 0.84102 0
M  V30 10226 H 940.233 3.47274 -1.55258 0
M  V30 10227 H 941.545 4.63877 -1.83355 0
M  V30 10228 H 940.699 6.06687 0.0399244 0
M  V30 10229 H 939.438 4.85915 0.416867 0
M  V30 10230 H 938.443 5.17139 -1.86675 0
M  V30 10231 H 939.668 6.41255 -2.23536 0
M  V30 10232 H 937.614 6.56 0.00380893 0
M  V30 10233 H 937.531 7.40867 -1.50505 0
M  V30 10234 H 938.799 7.78586 -0.377282 0
M  V30 10235 N 943.028 0.824394 1.34319 0
M  V30 10236 C 943.975 0.245282 2.29493 0
M  V30 10237 C 944.945 -0.630762 1.53657 0
M  V30 10238 O 946.13 -0.572094 1.82021 0
M  V30 10239 C 943.27 -0.585631 3.40095 0
M  V30 10240 C 942.383 0.312821 4.30866 0
M  V30 10241 C 941.518 -0.527801 5.28571 0
M  V30 10242 C 940.557 0.369946 6.10981 0
M  V30 10243 N 939.694 -0.43169 7.00772 0
M  V30 10244 H 944.534 1.06225 2.78425 0
M  V30 10245 H 942.071 0.53533 1.37013 0
M  V30 10246 H 944.029 -1.08271 4.02906 0
M  V30 10247 H 942.659 -1.3677 2.92393 0
M  V30 10248 H 941.711 0.928129 3.68904 0
M  V30 10249 H 943.023 1.00306 4.8861 0
M  V30 10250 H 942.177 -1.0893 5.96841 0
M  V30 10251 H 940.916 -1.25154 4.71368 0
M  V30 10252 H 939.921 0.943577 5.41643 0
M  V30 10253 H 941.146 1.09182 6.70266 0
M  V30 10254 H 939.092 -1.13908 6.46035 0
M  V30 10255 H 939.009 0.200133 7.55735 0
M  V30 10256 H 940.277 -0.975894 7.73367 0
M  V30 10257 N 944.506 -1.46559 0.579492 0
M  V30 10258 C 945.783 -1.956 -0.00287136 0
M  V30 10259 C 946.163 -1.52215 -1.46266 0
M  V30 10260 O 945.511 -0.771335 -2.15088 0
M  V30 10261 C 945.721 -3.48606 0.165824 0
M  V30 10262 C 947.069 -4.24588 0.0319807 0
M  V30 10263 O 948.093 -3.56075 0.094496 0
M  V30 10264 O 946.952 -5.46396 -0.106386 0
M  V30 10265 H 944.046 -0.825387 -0.0516274 0
M  V30 10266 H 946.592 -1.56858 0.647584 0
M  V30 10267 H 945.364 -3.7306 1.18076 0
M  V30 10268 H 944.987 -3.94169 -0.521212 0
M  V30 10269 N 945.984 -0.3171 -1.54377 0
M  V30 10270 C 946.914 0.544623 -2.2706 0
M  V30 10271 C 947.895 1.12469 -1.27611 0
M  V30 10272 O 949.08 1.15103 -1.56413 0
M  V30 10273 C 946.21 1.70879 -3.02353 0
M  V30 10274 C 945.164 1.25833 -4.09084 0
M  V30 10275 C 944.49 2.50894 -4.72182 0
M  V30 10276 C 945.79 0.377876 -5.20931 0
M  V30 10277 H 947.484 -0.0616372 -2.99337 0
M  V30 10278 H 945.03 -0.0310848 -1.43966 0
M  V30 10279 H 946.983 2.31787 -3.51927 0
M  V30 10280 H 945.707 2.34155 -2.27682 0
M  V30 10281 H 944.366 0.672228 -3.60384 0
M  V30 10282 H 944.014 3.12518 -3.94134 0
M  V30 10283 H 943.714 2.21447 -5.44275 0
M  V30 10284 H 945.238 3.12575 -5.24528 0
M  V30 10285 H 946.652 0.893056 -5.66302 0
M  V30 10286 H 945.049 0.176474 -5.9984 0
M  V30 10287 H 946.119 -0.592943 -4.81261 0
M  V30 10288 N 947.462 1.57535 -0.0451378 0
M  V30 10289 C 948.687 1.97172 0.64326 0
M  V30 10290 C 949.112 0.922266 1.63939 0
M  V30 10291 O 948.47 -0.115155 1.80934 0
M  V30 10292 C 948.518 3.35889 1.3119 0
M  V30 10293 O 947.622 3.33387 2.42748 0
M  V30 10294 H 946.963 0.642469 0.167719 0
M  V30 10295 H 949.493 2.04295 -0.111747 0
M  V30 10296 H 949.503 3.72481 1.66499 0
M  V30 10297 H 948.178 4.1181 0.581823 0
M  V30 10298 H 946.755 3.08533 2.09432 0
M  V30 10299 N 948.94 -0.228186 1.55939 0
M  V30 10300 C 949.872 -1.30605 1.88348 0
M  V30 10301 C 950.885 -1.43375 0.771198 0
M  V30 10302 O 952.074 -1.44391 1.04945 0
M  V30 10303 C 949.174 -2.68248 2.07115 0
M  V30 10304 C 948.347 -2.77509 3.38094 0
M  V30 10305 C 947.406 -3.96121 3.46373 0
M  V30 10306 O 946.432 -3.8477 4.19453 0
M  V30 10307 N 947.634 -5.10132 2.77031 0
M  V30 10308 H 950.399 -1.03132 2.81396 0
M  V30 10309 H 947.96 -0.418245 1.56404 0
M  V30 10310 H 949.952 -3.45966 2.09976 0
M  V30 10311 H 948.522 -2.88348 1.20723 0
M  V30 10312 H 947.742 -1.8632 3.47388 0
M  V30 10313 H 949.03 -2.80662 4.2439 0
M  V30 10314 H 948.428 -5.22249 2.17424 0
M  V30 10315 H 946.985 -5.85916 2.85561 0
M  V30 10316 N 950.418 -1.49637 -0.494624 0
M  V30 10317 C 951.328 -1.69522 -1.62172 0
M  V30 10318 C 952.344 -0.577894 -1.64123 0
M  V30 10319 O 953.52 -0.853382 -1.82426 0
M  V30 10320 C 950.585 -1.7633 -2.9851 0
M  V30 10321 C 949.646 -2.99944 -3.07135 0
M  V30 10322 C 948.879 -3.06419 -4.36971 0
M  V30 10323 O 949.102 -2.20312 -5.26136 0
M  V30 10324 O 948.036 -3.9894 -4.507 0
M  V30 10325 H 951.862 -2.65017 -1.48324 0
M  V30 10326 H 949.447 -1.33454 -0.671603 0
M  V30 10327 H 951.329 -1.83125 -3.7953 0
M  V30 10328 H 950.004 -0.840155 -3.12607 0
M  V30 10329 H 948.911 -2.98664 -2.2528 0
M  V30 10330 H 950.244 -3.9176 -2.97968 0
M  V30 10331 N 951.896 0.746133 -1.38819 0
M  V30 10332 C 953.121 1.54049 -1.38866 0
M  V30 10333 C 953.546 1.88092 0.0176624 0
M  V30 10334 O 952.904 1.51113 1.00173 0
M  V30 10335 C 952.952 2.8116 -2.25791 0
M  V30 10336 O 952.056 3.76623 -1.68014 0
M  V30 10337 H 951.397 0.465648 -0.473359 0
M  V30 10338 H 953.927 0.921469 -1.82675 0
M  V30 10339 H 953.937 3.30009 -2.39913 0
M  V30 10340 H 952.612 2.55713 -3.27999 0
M  V30 10341 H 951.189 3.35352 -1.63074 0
M  V30 10342 N 953.375 1.23811 0.975125 0
M  V30 10343 C 954.285 1.0408 2.10249 0
M  V30 10344 C 955.301 -0.0162404 1.73992 0
M  V30 10345 O 956.477 0.180346 2.00591 0
M  V30 10346 C 953.542 0.640013 3.40741 0
M  V30 10347 C 952.603 1.7727 3.90991 0
M  V30 10348 C 951.836 1.39094 5.15256 0
M  V30 10349 O 952.059 0.277483 5.69725 0
M  V30 10350 O 950.993 2.21392 5.59704 0
M  V30 10351 H 954.819 1.98575 2.29786 0
M  V30 10352 H 952.404 1.02563 1.08633 0
M  V30 10353 H 954.286 0.427684 4.19224 0
M  V30 10354 H 952.961 -0.27589 3.22522 0
M  V30 10355 H 951.868 2.03971 3.13602 0
M  V30 10356 H 953.201 2.66711 4.13674 0
M  V30 10357 N 954.853 -1.17469 1.05066 0
M  V30 10358 C 955.785 -2.20974 0.608526 0
M  V30 10359 C 956.798 -1.59481 -0.327066 0
M  V30 10360 O 957.987 -1.78096 -0.12 0
M  V30 10361 C 955.087 -3.38652 -0.12969 0
M  V30 10362 C 954.26 -4.29716 0.816285 0
M  V30 10363 C 953.319 -5.26064 0.119556 0
M  V30 10364 O 952.345 -5.64194 0.753241 0
M  V30 10365 N 953.547 -5.69126 -1.14347 0
M  V30 10366 H 956.312 -2.59529 1.49882 0
M  V30 10367 H 953.873 -1.32355 0.932406 0
M  V30 10368 H 955.865 -4.00139 -0.605886 0
M  V30 10369 H 954.435 -2.98705 -0.921638 0
M  V30 10370 H 953.655 -3.6568 1.47213 0
M  V30 10371 H 954.943 -4.87449 1.45845 0
M  V30 10372 H 954.341 -5.4022 -1.67866 0
M  V30 10373 H 952.898 -6.32764 -1.56376 0
M  V30 10374 N 956.331 -0.831506 -1.3388 0
M  V30 10375 C 957.58 -0.420028 -1.97278 0
M  V30 10376 C 957.893 1.02441 -1.66629 0
M  V30 10377 O 959.099 1.54021 -2.23584 0
M  V30 10378 C 957.555 -0.700116 -3.53025 0
M  V30 10379 C 957.163 -2.15874 -3.92559 0
M  V30 10380 C 958.907 -0.355226 -4.23011 0
M  V30 10381 C 956.814 -2.38327 -5.41252 0
M  V30 10382 H 955.744 -0.153326 -0.738246 0
M  V30 10383 H 958.395 -1.01906 -1.52602 0
M  V30 10384 H 956.777 -0.0308044 -3.95988 0
M  V30 10385 H 957.951 -2.86792 -3.60675 0
M  V30 10386 H 956.266 -2.4659 -3.35533 0
M  V30 10387 H 958.863 -0.500701 -5.32351 0
M  V30 10388 H 959.206 0.70111 -4.10354 0
M  V30 10389 H 959.739 -0.979466 -3.85553 0
M  V30 10390 H 956.478 -3.42498 -5.58906 0
M  V30 10391 H 955.998 -1.71962 -5.74621 0
M  V30 10392 H 957.677 -2.21113 -6.08045 0
M  V30 10393 N 957.809 1.4625 -0.587256 0
M  V30 10394 C 958.757 2.32076 0.156108 0
M  V30 10395 C 959.751 1.44756 0.879887 0
M  V30 10396 O 960.957 1.61356 0.797759 0
M  V30 10397 H 957.332 0.748808 0.0692098 0
M  V30 10398 H 959.303 2.9258 -0.586497 0
M  V30 10399 C 958.052 3.28008 1.15352 0
M  V30 10400 H 957.375 3.9518 0.60601 0
M  V30 10401 H 958.815 3.90832 1.64396 0
M  V30 10402 C 957.274 2.53691 2.21681 0
M  V30 10403 O 957.804 2.30329 3.29107 0
M  V30 10404 N 956.01 2.14174 1.96412 0
M  V30 10405 H 955.557 2.33374 1.09061 0
M  V30 10406 H 955.515 1.6477 2.67765 0
M  V30 10407 N 959.287 0.325282 1.54207 0
M  V30 10408 C 960.535 -0.276229 2.00203 0
M  V30 10409 C 960.856 -1.52519 1.21503 0
M  V30 10410 O 960.126 -1.93313 0.317302 0
M  V30 10411 H 958.706 -0.105059 0.739575 0
M  V30 10412 H 961.368 0.442225 1.89817 0
M  V30 10413 H 960.464 -0.531427 3.07542 0
M  V30 10414 N 960.765 -1.57509 0.0534917 0
M  V30 10415 C 962.181 -1.56696 -0.303067 0
M  V30 10416 C 962.381 -1.06135 -1.71282 0
M  V30 10417 O 961.437 -0.71899 -2.42047 0
M  V30 10418 C 962.75 -3.00421 -0.129418 0
M  V30 10419 C 964.298 -3.12358 -0.200346 0
M  V30 10420 C 964.773 -4.57967 -0.0551971 0
M  V30 10421 N 966.264 -4.63066 -0.111398 0
M  V30 10422 C 966.999 -5.73395 -0.0232344 0
M  V30 10423 N 966.495 -6.92701 0.11741 0
M  V30 10424 N 968.288 -5.62045 -0.078984 0
M  V30 10425 H 960.439 -1.88696 0.975064 0
M  V30 10426 H 962.702 -0.869072 0.378706 0
M  V30 10427 H 962.408 -3.41456 0.842653 0
M  V30 10428 H 962.282 -3.66563 -0.889476 0
M  V30 10429 H 964.669 -2.71221 -1.16289 0
M  V30 10430 H 964.75 -2.48891 0.590506 0
M  V30 10431 H 964.394 -4.9979 0.904034 0
M  V30 10432 H 964.324 -5.19443 -0.865223 0
M  V30 10433 H 966.815 -3.77263 -0.219256 0
M  V30 10434 H 967.128 -7.72597 0.177326 0
M  V30 10435 H 965.473 -6.94833 0.152526 0
M  V30 10436 H 968.664 -4.67725 -0.187434 0
M  V30 10437 H 968.837 -6.48 -0.00681731 0
M  V30 10438 O 962.282 0.08758 -1.61262 0
M  V30 10439 H 962.973 0.715334 -1.80007 0
M  V30 END ATOM
M  V30 BEGIN BOND
M  V30 END BOND
M  V30 END CTAB
M  END
$$$$
