drugbank_target|P44490 3-deoxy-manno-octulosonate cytidylyltransferase (DB04482)
 OpenBabel12092119583D

  0  0  0     0  0            999 V3000
M  V30 BEGIN CTAB
M  V30 COUNTS 4010 4045 0 0 0
M  V30 BEGIN ATOM
M  V30 1 H -0.908 1.98254 -0.117106 0
M  V30 2 N 0 1.576 0 0
M  V30 3 C 0.933 2.03868 1.02534 0
M  V30 4 C 1.911 0.928543 1.3348 0
M  V30 5 O 3.095 1.19667 1.45644 0
M  V30 6 C 0.222 2.43627 2.35294 0
M  V30 7 C -0.732 3.65373 2.2001 0
M  V30 8 S 0.101 5.13292 1.52614 0
M  V30 9 C 1.257 5.56322 2.86805 0
M  V30 10 H 1.49 2.90518 0.631377 0
M  V30 11 H -0.977 1.52953 0.210867 0
M  V30 12 H 0.981 2.67203 3.11629 0
M  V30 13 H -0.358 1.57376 2.7183 0
M  V30 14 H -1.165 3.90944 3.18086 0
M  V30 15 H -1.563 3.418 1.51819 0
M  V30 16 H 0.729 5.58782 3.83104 0
M  V30 17 H 1.672 6.56266 2.65933 0
M  V30 18 H 2.08 4.83886 2.90714 0
M  V30 19 N 1.4781 -0.272755 1.55222 0
M  V30 20 C 2.7031 -1.02683 1.80197 0
M  V30 21 C 3.1281 -1.79142 0.573551 0
M  V30 22 O 2.4861 -1.74917 -0.476849 0
M  V30 23 C 2.5341 -1.9609 3.02624 0
M  V30 24 O 1.6381 -3.04863 2.77727 0
M  V30 25 H 0.9791 -0.293557 0.595584 0
M  V30 26 H 3.5091 -0.30159 2.02365 0
M  V30 27 H 3.5191 -2.38039 3.31363 0
M  V30 28 H 2.1941 -1.39851 3.91682 0
M  V30 29 H 0.7711 -2.67228 2.60084 0
M  V30 30 N 2.9562 -1.48159 -0.537278 0
M  V30 31 C 4.2032 -1.55804 -1.29349 0
M  V30 32 C 4.5312 -0.228802 -1.9315 0
M  V30 33 O 3.7862 0.780242 -1.79473 0
M  V30 34 C 4.0852 -2.63956 -2.40961 0
M  V30 35 C 3.7512 -4.0662 -1.94861 0
M  V30 36 C 2.4132 -4.45452 -1.82006 0
M  V30 37 C 4.7652 -4.96055 -1.59933 0
M  V30 38 C 2.0932 -5.71531 -1.32547 0
M  V30 39 C 4.4452 -6.22617 -1.11939 0
M  V30 40 C 3.1092 -6.60312 -0.976951 0
M  V30 41 H 2.3792 -0.570129 -0.473322 0
M  V30 42 H 5.0262 -1.81845 -0.600372 0
M  V30 43 H 3.3312 -2.31747 -3.15912 0
M  V30 44 H 5.0282 -2.67089 -2.99107 0
M  V30 45 H 1.6182 -3.75949 -2.05815 0
M  V30 46 H 5.8022 -4.66738 -1.68728 0
M  V30 47 H 1.0582 -5.99468 -1.202 0
M  V30 48 H 5.2322 -6.91318 -0.839811 0
M  V30 49 H 2.8592 -7.57895 -0.591501 0
M  V30 50 N 4.4343 0.785586 -1.36625 0
M  V30 51 C 5.6623 1.57448 -1.3423 0
M  V30 52 C 6.0773 1.88649 0.0755653 0
M  V30 53 O 5.4343 1.50414 1.03354 0
M  V30 54 C 5.4853 2.89316 -2.16745 0
M  V30 55 O 5.2063 2.59459 -3.53005 0
M  V30 56 C 6.7073 3.83606 -2.22174 0
M  V30 57 H 3.9273 0.488226 -0.4603 0
M  V30 58 H 6.4713 0.974733 -1.79775 0
M  V30 59 H 4.6263 3.4575 -1.74745 0
M  V30 60 H 5.0403 3.43804 -3.96105 0
M  V30 61 H 6.5143 4.73181 -2.8426 0
M  V30 62 H 6.9913 4.21734 -1.22627 0
M  V30 63 H 7.5973 3.33104 -2.64427 0
M  V30 64 N 5.9124 1.20967 1.01018 0
M  V30 65 C 7.1584 1.02526 1.74975 0
M  V30 66 C 7.4914 -0.4408 1.89131 0
M  V30 67 O 6.7664 -1.32718 1.42184 0
M  V30 68 C 7.0494 1.71699 3.1653 0
M  V30 69 C 6.9024 3.25791 3.10129 0
M  V30 70 C 8.2214 1.45531 4.15342 0
M  V30 71 H 5.3404 0.373863 0.635134 0
M  V30 72 H 7.9824 1.49071 1.17805 0
M  V30 73 H 6.1324 1.32128 3.65341 0
M  V30 74 H 7.8044 3.74697 2.69072 0
M  V30 75 H 6.0474 3.56363 2.47362 0
M  V30 76 H 6.7184 3.69353 4.10222 0
M  V30 77 H 9.1944 1.79872 3.75213 0
M  V30 78 H 8.0704 1.96453 5.1254 0
M  V30 79 H 8.3314 0.384237 4.40427 0
M  V30 80 N 7.3905 -1.2043 1.01659 0
M  V30 81 C 8.6395 -1.89118 0.701237 0
M  V30 82 C 8.9525 -1.79705 -0.772358 0
M  V30 83 O 10.1585 -2.43528 -1.20026 0
M  V30 84 C 8.6145 -3.39168 1.20388 0
M  V30 85 C 8.2225 -3.57166 2.70438 0
M  V30 86 C 9.9665 -4.1341 0.963953 0
M  V30 87 C 7.8735 -5.01042 3.14183 0
M  V30 88 H 6.8035 -0.708267 0.2586 0
M  V30 89 H 9.4545 -1.36239 1.22927 0
M  V30 90 H 7.8365 -3.91369 0.603824 0
M  V30 91 H 9.0105 -3.15351 3.35992 0
M  V30 92 H 7.3255 -2.96294 2.92572 0
M  V30 93 H 9.9225 -5.19491 1.26621 0
M  V30 94 H 10.2655 -4.16181 -0.099578 0
M  V30 95 H 10.7985 -3.67309 1.52738 0
M  V30 96 H 7.5375 -5.03426 4.19812 0
M  V30 97 H 7.0575 -5.43668 2.53348 0
M  V30 98 H 8.7365 -5.69623 3.0682 0
M  V30 99 N 8.8686 -0.792821 -1.36206 0
M  V30 100 C 10.1176 -0.363353 -1.984 0
M  V30 101 C 10.4306 1.07172 -1.63626 0
M  V30 102 O 11.6366 1.60362 -2.19081 0
M  V30 103 C 10.0926 -0.59872 -3.54885 0
M  V30 104 C 9.7006 -2.04543 -3.9858 0
M  V30 105 C 11.4446 -0.233926 -4.23855 0
M  V30 106 C 9.3516 -2.22727 -5.47856 0
M  V30 107 H 8.2816 -0.13212 -0.742334 0
M  V30 108 H 10.9326 -0.974935 -1.55458 0
M  V30 109 H 9.3146 0.0826222 -3.95914 0
M  V30 110 H 10.4886 -2.76345 -3.68741 0
M  V30 111 H 8.8036 -2.36879 -3.42458 0
M  V30 112 H 11.4006 -0.348027 -5.33566 0
M  V30 113 H 11.7436 0.818351 -4.08177 0
M  V30 114 H 12.2766 -0.868639 -3.882 0
M  V30 115 H 9.0156 -3.2635 -5.68486 0
M  V30 116 H 8.5356 -1.55434 -5.7931 0
M  V30 117 H 10.2146 -2.03607 -6.14128 0
M  V30 118 N 10.3467 1.47872 -0.545128 0
M  V30 119 C 11.7577 1.86384 -0.108581 0
M  V30 120 C 12.1087 1.45309 1.31832 0
M  V30 121 O 11.2337 0.850641 1.9898 0
M  V30 122 C 11.8287 3.38265 -0.190274 0
M  V30 123 C 10.3877 3.75914 0.191164 0
M  V30 124 C 9.5347 2.71926 -0.543273 0
M  V30 125 H 12.4857 1.39561 -0.755537 0
M  V30 126 H 12.5067 3.75831 0.594217 0
M  V30 127 H 12.0187 3.6813 -1.2289 0
M  V30 128 H 10.1197 3.51665 1.23136 0
M  V30 129 H 10.2327 4.78836 -0.158987 0
M  V30 130 H 8.5967 2.54697 0.0122495 0
M  V30 131 H 9.3797 3.04634 -1.58282 0
M  V30 132 N 11.8248 0.280983 1.55075 0
M  V30 133 C 12.7878 -0.590896 2.21452 0
M  V30 134 C 13.7878 -1.07682 1.19421 0
M  V30 135 O 14.9778 -0.97605 1.44288 0
M  V30 136 C 12.1098 -1.81587 2.88511 0
M  V30 137 H 13.3028 -0.0112554 2.99898 0
M  V30 138 H 10.8558 0.0316438 1.56268 0
M  V30 139 H 11.5908 -2.43587 2.14093 0
M  V30 140 H 11.3758 -1.4753 3.63287 0
M  V30 141 H 12.8658 -2.43575 3.39206 0
M  V30 142 N 13.3029 -1.57598 0.00835791 0
M  V30 143 C 14.7189 -1.55764 -0.347822 0
M  V30 144 C 14.9189 -1.01186 -1.74252 0
M  V30 145 O 13.9749 -0.649371 -2.44007 0
M  V30 146 C 15.2879 -2.99927 -0.215407 0
M  V30 147 C 16.8359 -3.11656 -0.289725 0
M  V30 148 C 17.3109 -4.57621 -0.18634 0
M  V30 149 N 18.8019 -4.62557 -0.243978 0
M  V30 150 C 19.5369 -5.73094 -0.18745 0
M  V30 151 N 19.0329 -6.92753 -0.0810331 0
M  V30 152 N 20.8259 -5.61588 -0.239925 0
M  V30 153 H 12.9769 -1.91411 0.92062 0
M  V30 154 H 15.2399 -0.879562 0.353659 0
M  V30 155 H 14.9459 -3.43729 0.744512 0
M  V30 156 H 14.8199 -3.63865 -0.994097 0
M  V30 157 H 17.2069 -2.67779 -1.24009 0
M  V30 158 H 17.2879 -2.5048 0.51898 0
M  V30 159 H 16.9319 -5.02174 0.760519 0
M  V30 160 H 16.8619 -5.16752 -1.01364 0
M  V30 161 H 19.3529 -3.76481 -0.327217 0
M  V30 162 H 19.6659 -7.72787 -0.0440241 0
M  V30 163 H 18.0109 -6.94984 -0.0465419 0
M  V30 164 H 21.2019 -4.66996 -0.321317 0
M  V30 165 H 21.3749 -6.47714 -0.192407 0
M  V30 166 N 14.781 0.264519 -1.55364 0
M  V30 167 C 16.028 0.994986 -1.7637 0
M  V30 168 C 16.356 1.85976 -0.5695 0
M  V30 169 O 15.611 1.90509 0.44776 0
M  V30 170 C 15.91 1.9004 -3.02687 0
M  V30 171 C 15.576 1.19243 -4.34847 0
M  V30 172 C 14.238 0.996709 -4.70764 0
M  V30 173 C 16.59 0.689296 -5.16622 0
M  V30 174 C 13.918 0.285261 -5.86006 0
M  V30 175 C 16.27 -0.00860079 -6.32599 0
M  V30 176 C 14.934 -0.215963 -6.67151 0
M  V30 177 H 14.204 0.364091 -0.645383 0
M  V30 178 H 16.851 0.266543 -1.89636 0
M  V30 179 H 15.156 2.69533 -2.84357 0
M  V30 180 H 16.853 2.46695 -3.16137 0
M  V30 181 H 13.443 1.3549 -4.06621 0
M  V30 182 H 17.627 0.828108 -4.89342 0
M  V30 183 H 12.883 0.113961 -6.11294 0
M  V30 184 H 17.057 -0.406186 -6.95214 0
M  V30 185 H 14.684 -0.769217 -7.56298 0
M  V30 186 N 16.2591 1.48442 0.529413 0
M  V30 187 C 17.2221 1.62524 1.61612 0
M  V30 188 C 18.2221 0.498509 1.52877 0
M  V30 189 O 19.4121 0.76431 1.56537 0
M  V30 190 C 16.5441 1.59597 3.01233 0
M  V30 191 H 17.7371 2.59423 1.50465 0
M  V30 192 H 15.2901 1.37047 0.751514 0
M  V30 193 H 16.0251 0.641781 3.17886 0
M  V30 194 H 15.8101 2.41397 3.08982 0
M  V30 195 H 17.3001 1.72646 3.80241 0
M  V30 196 N 17.7372 -0.778329 1.37039 0
M  V30 197 C 18.9622 -1.57248 1.35233 0
M  V30 198 C 19.3872 -1.87999 -0.0615568 0
M  V30 199 O 18.7452 -1.48734 -1.03672 0
M  V30 200 C 18.7932 -2.86353 2.19167 0
M  V30 201 O 17.8972 -3.80442 1.59178 0
M  V30 202 H 17.2382 -0.476569 0.462362 0
M  V30 203 H 19.7682 -0.963853 1.80474 0
M  V30 204 H 19.7782 -3.35519 2.32145 0
M  V30 205 H 18.4532 -2.63299 3.21942 0
M  V30 206 H 17.0302 -3.39067 1.55203 0
M  V30 207 N 19.2153 -1.21501 -1.00376 0
M  V30 208 C 20.4403 -1.05977 -1.78279 0
M  V30 209 C 20.8653 0.385994 -1.84097 0
M  V30 210 O 20.2233 1.27849 -1.28547 0
M  V30 211 C 20.2713 -1.66302 -3.19963 0
M  V30 212 O 19.3753 -0.909333 -4.0225 0
M  V30 213 H 18.7163 -0.372906 -0.549397 0
M  V30 214 H 21.2463 -1.6107 -1.26165 0
M  V30 215 H 21.2563 -1.70574 -3.70632 0
M  V30 216 H 19.9313 -2.71515 -3.15043 0
M  V30 217 H 18.5083 -0.941795 -3.60811 0
M  V30 218 N 20.6934 1.19889 -1.02296 0
M  V30 219 C 22.1094 1.41462 -0.738954 0
M  V30 220 C 22.3094 1.89721 0.678846 0
M  V30 221 O 21.3654 2.07016 1.4457 0
M  V30 222 C 22.6784 2.43083 -1.77005 0
M  V30 223 C 24.2264 2.5684 -1.78892 0
M  V30 224 C 24.7014 3.61709 -2.80945 0
M  V30 225 N 26.1924 3.69199 -2.79725 0
M  V30 226 C 26.9274 4.50019 -3.55345 0
M  V30 227 N 26.4234 5.34592 -4.40662 0
M  V30 228 N 28.2164 4.44612 -3.43914 0
M  V30 229 H 20.3674 0.868827 -1.93817 0
M  V30 230 H 22.6304 0.44399 -0.837602 0
M  V30 231 H 22.3364 2.14636 -2.78612 0
M  V30 232 H 22.2104 3.4217 -1.58744 0
M  V30 233 H 24.5974 2.84614 -0.779674 0
M  V30 234 H 24.6784 1.57927 -2.01228 0
M  V30 235 H 24.3224 3.34678 -3.82038 0
M  V30 236 H 24.2524 4.60259 -2.5587 0
M  V30 237 H 26.7434 3.08794 -2.17842 0
M  V30 238 H 27.0564 5.93363 -4.95116 0
M  V30 239 H 25.4014 5.34073 -4.44737 0
M  V30 240 H 28.5924 3.7758 -2.76679 0
M  V30 241 H 28.7654 5.0736 -4.031 0
M  V30 242 N 22.1715 0.800033 1.35784 0
M  V30 243 C 23.1015 0.220184 2.3246 0
M  V30 244 C 24.0825 -0.65073 1.57161 0
M  V30 245 O 25.2675 -0.582359 1.85263 0
M  V30 246 C 22.3975 -0.637353 3.41402 0
M  V30 247 C 21.3515 0.134531 4.27789 0
M  V30 248 C 20.6775 -0.844285 5.27992 0
M  V30 249 C 21.9775 1.32979 5.05088 0
M  V30 250 H 23.6715 1.02787 2.81203 0
M  V30 251 H 21.2175 0.495717 1.35199 0
M  V30 252 H 23.1705 -1.05302 4.08031 0
M  V30 253 H 21.8945 -1.47785 2.91251 0
M  V30 254 H 20.5535 0.531296 3.6273 0
M  V30 255 H 20.2015 -1.68011 4.74111 0
M  V30 256 H 19.9015 -0.332184 5.8666 0
M  V30 257 H 21.4255 -1.2583 5.97494 0
M  V30 258 H 22.8395 0.98934 5.64699 0
M  V30 259 H 21.2365 1.77593 5.7322 0
M  V30 260 H 22.3065 2.11978 4.36111 0
M  V30 261 N 23.6496 -1.47581 0.552962 0
M  V30 262 C 25.0606 -1.86324 0.118463 0
M  V30 263 C 25.4116 -1.46006 -1.3106 0
M  V30 264 O 24.5366 -0.861182 -1.98526 0
M  V30 265 C 25.1316 -3.3816 0.20821 0
M  V30 266 C 23.6906 -3.7601 -0.171226 0
M  V30 267 C 22.8376 -2.71634 0.557686 0
M  V30 268 H 25.7886 -1.39159 0.762928 0
M  V30 269 H 25.8096 -3.76141 -0.574278 0
M  V30 270 H 25.3216 -3.67473 1.24841 0
M  V30 271 H 23.4226 -3.52313 -1.21269 0
M  V30 272 H 23.5356 -4.78745 0.184379 0
M  V30 273 H 21.8996 -2.547 0.00125792 0
M  V30 274 H 22.6826 -3.0379 1.59896 0
M  V30 275 N 25.1277 -0.289203 -1.54924 0
M  V30 276 C 26.3757 0.322879 -1.99504 0
M  V30 277 C 26.6967 1.55313 -1.1791 0
M  V30 278 O 25.9667 1.94001 -0.272097 0
M  V30 279 H 24.5467 0.122291 -0.736922 0
M  V30 280 H 27.2087 -0.397802 -1.90797 0
M  V30 281 H 26.3047 0.603061 -3.06218 0
M  V30 282 N 26.6058 1.57591 -0.0167156 0
M  V30 283 C 27.5528 2.09462 0.969251 0
M  V30 284 C 28.5228 0.99381 1.33089 0
M  V30 285 O 29.7078 1.26726 1.42636 0
M  V30 286 C 26.8478 2.61622 2.25051 0
M  V30 287 C 25.9608 3.85666 1.94642 0
M  V30 288 C 25.0958 4.26266 3.16972 0
M  V30 289 C 24.1348 5.43101 2.82326 0
M  V30 290 N 23.2718 5.78915 3.97243 0
M  V30 291 H 28.1118 2.93428 0.519997 0
M  V30 292 H 25.6488 1.45044 0.245087 0
M  V30 293 H 27.6068 2.89949 2.99976 0
M  V30 294 H 26.2368 1.80505 2.67615 0
M  V30 295 H 25.2888 3.64145 1.10013 0
M  V30 296 H 26.6008 4.70678 1.65117 0
M  V30 297 H 25.7548 4.55963 4.00228 0
M  V30 298 H 24.4938 3.39996 3.49648 0
M  V30 299 H 23.4988 5.1311 1.97479 0
M  V30 300 H 24.7238 6.3106 2.50879 0
M  V30 301 H 22.6698 4.95602 4.29785 0
M  V30 302 H 22.5868 6.58539 3.71299 0
M  V30 303 H 23.8548 6.13212 4.81239 0
M  V30 304 N 28.0839 -0.256276 1.55502 0
M  V30 305 C 29.4949 -0.826068 1.67431 0
M  V30 306 C 29.8459 -1.86396 0.612446 0
M  V30 307 O 28.9709 -2.15031 -0.243025 0
M  V30 308 C 29.5659 -1.50512 3.03532 0
M  V30 309 C 28.1249 -2.02273 3.17431 0
M  V30 310 C 27.2719 -0.870548 2.63281 0
M  V30 311 H 30.2229 -0.0322728 1.58667 0
M  V30 312 H 30.2439 -2.37279 2.97454 0
M  V30 313 H 29.7559 -0.749484 3.80794 0
M  V30 314 H 27.8569 -2.80746 2.44974 0
M  V30 315 H 27.9699 -2.22655 4.24219 0
M  V30 316 H 26.3339 -1.26851 2.20864 0
M  V30 317 H 27.1169 -0.128149 3.43061 0
M  V30 318 N 29.562 -1.4872 -0.521534 0
M  V30 319 C 30.492 -1.66771 -1.63431 0
M  V30 320 C 31.473 -0.516499 -1.62069 0
M  V30 321 O 32.658 -0.750013 -1.79132 0
M  V30 322 C 29.788 -1.71515 -3.01993 0
M  V30 323 C 28.742 -2.86222 -3.18216 0
M  V30 324 C 28.068 -2.76061 -4.57924 0
M  V30 325 C 29.368 -4.27419 -3.00184 0
M  V30 326 H 31.062 -2.59932 -1.48579 0
M  V30 327 H 28.608 -1.25089 -0.713358 0
M  V30 328 H 30.561 -1.82731 -3.7972 0
M  V30 329 H 29.285 -0.749393 -3.17886 0
M  V30 330 H 27.944 -2.74575 -2.42908 0
M  V30 331 H 27.592 -1.77437 -4.70665 0
M  V30 332 H 27.292 -3.53037 -4.69722 0
M  V30 333 H 28.816 -2.89256 -5.37739 0
M  V30 334 H 30.23 -4.39855 -3.67697 0
M  V30 335 H 28.627 -5.05458 -3.2347 0
M  V30 336 H 29.697 -4.43293 -1.96518 0
M  V30 337 N 31.0401 0.771051 -1.3745 0
M  V30 338 C 32.0031 1.86598 -1.33093 0
M  V30 339 C 33.0031 1.59076 -0.234845 0
M  V30 340 O 34.1931 1.67145 -0.490732 0
M  V30 341 C 31.3251 3.23747 -1.06773 0
M  V30 342 H 32.5181 1.91873 -2.30488 0
M  V30 343 H 30.0711 0.970876 -1.2249 0
M  V30 344 H 30.8061 3.24148 -0.099129 0
M  V30 345 H 30.5911 3.45115 -1.86112 0
M  V30 346 H 32.0811 4.03824 -1.06377 0
M  V30 347 N 32.5182 1.22032 0.997298 0
M  V30 348 C 33.7952 0.950823 1.70935 0
M  V30 349 C 34.1752 -0.535292 2.042 0
M  V30 350 O 33.5232 -1.50217 1.72183 0
M  V30 351 C 33.7332 1.84386 2.96315 0
M  V30 352 C 35.0812 2.09732 3.69185 0
M  V30 353 O 36.1052 1.81798 3.06314 0
M  V30 354 O 34.9642 2.57018 4.82291 0
M  V30 355 H 32.0582 0.357204 0.745878 0
M  V30 356 H 34.6042 1.32997 1.05404 0
M  V30 357 H 33.3762 2.84928 2.68201 0
M  V30 358 H 32.9992 1.46602 3.69586 0
M  V30 359 N 33.9963 -1.19345 1.0293 0
M  V30 360 C 35.2453 -1.88363 0.721256 0
M  V30 361 C 35.5583 -1.80514 -0.753254 0
M  V30 362 O 36.7643 -2.44788 -1.17436 0
M  V30 363 C 35.2203 -3.37872 1.23978 0
M  V30 364 C 34.8283 -3.54278 2.74211 0
M  V30 365 C 36.5723 -4.12365 1.00775 0
M  V30 366 C 34.4793 -4.97682 3.19479 0
M  V30 367 H 33.4093 -0.705484 0.266098 0
M  V30 368 H 36.0603 -1.34928 1.24365 0
M  V30 369 H 34.4423 -3.90707 0.6453 0
M  V30 370 H 35.6163 -3.11769 3.39318 0
M  V30 371 H 33.9313 -2.93174 2.95699 0
M  V30 372 H 36.5283 -5.18119 1.32123 0
M  V30 373 H 36.8713 -4.16263 -0.0554308 0
M  V30 374 H 37.4043 -3.65668 1.56625 0
M  V30 375 H 34.1433 -4.98945 4.25128 0
M  V30 376 H 33.6633 -5.4095 2.591 0
M  V30 377 H 35.3423 -5.66337 3.12845 0
M  V30 378 N 35.4744 -0.807222 -1.35358 0
M  V30 379 C 36.4214 -0.216037 -2.29787 0
M  V30 380 C 37.3914 0.650278 -1.52842 0
M  V30 381 O 38.5764 0.595227 -1.81278 0
M  V30 382 C 35.7164 0.628893 -3.39321 0
M  V30 383 C 34.8294 -0.257927 -4.31229 0
M  V30 384 C 33.9644 0.595069 -5.27856 0
M  V30 385 C 33.0034 -0.292111 -6.11403 0
M  V30 386 N 32.1404 0.520895 -7.00165 0
M  V30 387 H 36.9804 -1.02671 -2.79755 0
M  V30 388 H 34.5174 -0.517839 -1.37684 0
M  V30 389 H 36.4754 1.13393 -4.01494 0
M  V30 390 H 35.1054 1.40482 -2.90628 0
M  V30 391 H 34.1574 -0.881076 -3.70056 0
M  V30 392 H 35.4694 -0.940759 -4.89848 0
M  V30 393 H 34.6234 1.16522 -5.95405 0
M  V30 394 H 33.3624 1.31146 -4.69736 0
M  V30 395 H 32.3674 -0.874525 -5.428 0
M  V30 396 H 33.5924 -1.00638 -6.71602 0
M  V30 397 H 31.5384 1.22125 -6.44532 0
M  V30 398 H 31.4554 -0.103877 -7.55929 0
M  V30 399 H 32.7234 1.0743 -7.72062 0
M  V30 400 N 36.9525 1.47285 -0.560781 0
M  V30 401 C 38.2005 2.02064 -0.0379868 0
M  V30 402 C 38.5215 1.43711 1.31803 0
M  V30 403 O 37.7915 0.61362 1.86042 0
M  V30 404 H 36.3715 0.746918 -0.0110531 0
M  V30 405 H 39.0335 1.80648 -0.731598 0
M  V30 406 H 38.1295 3.12064 0.0474463 0
M  V30 407 N 38.4306 0.297415 1.54768 0
M  V30 408 C 39.3776 -0.580276 2.23386 0
M  V30 409 C 40.3476 -1.13238 1.21517 0
M  V30 410 O 41.5326 -1.17757 1.50126 0
M  V30 411 C 38.6726 -1.74801 2.97555 0
M  V30 412 C 37.7856 -1.22764 4.1419 0
M  V30 413 C 36.9206 -2.35895 4.75949 0
M  V30 414 C 35.9596 -1.80974 5.84735 0
M  V30 415 N 35.0966 -2.87664 6.40464 0
M  V30 416 H 39.9366 0.0114833 2.97998 0
M  V30 417 H 37.4736 0.0174361 1.4709 0
M  V30 418 H 39.4316 -2.43475 3.38786 0
M  V30 419 H 38.0616 -2.31145 2.25326 0
M  V30 420 H 37.1136 -0.433271 3.77924 0
M  V30 421 H 38.4256 -0.785551 4.92575 0
M  V30 422 H 37.5796 -3.12523 5.20014 0
M  V30 423 H 36.3186 -2.83429 3.96887 0
M  V30 424 H 35.3236 -1.02834 5.40097 0
M  V30 425 H 36.5486 -1.34348 6.65678 0
M  V30 426 H 34.4946 -3.34538 5.64287 0
M  V30 427 H 34.4116 -2.4794 7.14186 0
M  V30 428 H 35.6796 -3.642 6.89187 0
M  V30 429 N 39.9087 -1.5758 0.0250728 0
M  V30 430 C 41.3197 -1.79476 -0.514323 0
M  V30 431 C 41.6707 -0.934956 -1.72491 0
M  V30 432 O 40.7957 -0.144245 -2.15919 0
M  V30 433 C 41.3907 -3.25503 -0.939842 0
M  V30 434 C 39.9497 -3.48408 -1.42438 0
M  V30 435 C 39.0967 -2.74583 -0.387201 0
M  V30 436 H 42.0477 -1.567 0.25113 0
M  V30 437 H 42.0687 -3.34992 -1.80445 0
M  V30 438 H 41.5807 -3.88056 -0.0585628 0
M  V30 439 H 39.6817 -2.91103 -2.32572 0
M  V30 440 H 39.7947 -4.57119 -1.43455 0
M  V30 441 H 38.1587 -2.39942 -0.854409 0
M  V30 442 H 38.9417 -3.39849 0.485543 0
M  V30 443 N 41.3868 0.248026 -1.55636 0
M  V30 444 C 42.3198 1.3334 -1.85191 0
M  V30 445 C 43.2978 1.46429 -0.706906 0
M  V30 446 O 44.4818 1.62662 -0.952544 0
M  V30 447 C 41.6088 2.70703 -2.03562 0
M  V30 448 C 40.6548 2.7477 -3.26196 0
M  V30 449 S 41.4878 2.31493 -4.82878 0
M  V30 450 C 42.6438 3.70783 -5.04253 0
M  V30 451 H 42.8768 1.08072 -2.76962 0
M  V30 452 H 40.4098 0.448952 -1.47729 0
M  V30 453 H 42.3678 3.49798 -2.1483 0
M  V30 454 H 41.0288 2.9321 -1.12635 0
M  V30 455 H 40.2218 3.75648 -3.36013 0
M  V30 456 H 39.8238 2.03719 -3.13647 0
M  V30 457 H 42.1158 4.6627 -4.91527 0
M  V30 458 H 43.0588 3.65901 -6.06236 0
M  V30 459 H 43.4668 3.63244 -4.32105 0
M  V30 460 N 42.8649 1.48995 0.513639 0
M  V30 461 C 44.1139 1.57093 1.2651 0
M  V30 462 C 44.4269 0.257091 1.93903 0
M  V30 463 O 45.6329 0.216478 2.70636 0
M  V30 464 C 44.0889 2.77118 2.29638 0
M  V30 465 C 43.6969 4.15209 1.68241 0
M  V30 466 C 45.4409 2.94538 3.05692 0
M  V30 467 C 43.3479 5.26474 2.69406 0
M  V30 468 H 42.2779 0.584876 0.475854 0
M  V30 469 H 44.9289 1.7536 0.540487 0
M  V30 470 H 43.3109 2.52319 3.05207 0
M  V30 471 H 44.4849 4.50094 0.987505 0
M  V30 472 H 42.7999 4.03042 1.04623 0
M  V30 473 H 45.3969 3.74832 3.8132 0
M  V30 474 H 45.7399 2.04614 3.62545 0
M  V30 475 H 46.2729 3.19316 2.37238 0
M  V30 476 H 43.0119 6.18417 2.17351 0
M  V30 477 H 42.5319 4.96058 3.37175 0
M  V30 478 H 44.2109 5.55277 3.32078 0
M  V30 479 N 44.343 -0.763751 1.37857 0
M  V30 480 C 45.275 -1.88664 1.30148 0
M  V30 481 C 46.288 -1.61365 0.215685 0
M  V30 482 O 47.477 -1.72134 0.472459 0
M  V30 483 C 44.577 -3.24075 0.991396 0
M  V30 484 C 43.75 -3.78958 2.18426 0
M  V30 485 C 42.809 -4.92862 1.8432 0
M  V30 486 O 41.835 -5.08027 2.56704 0
M  V30 487 N 43.037 -5.75071 0.792081 0
M  V30 488 H 45.802 -1.95791 2.26905 0
M  V30 489 H 43.363 -0.943226 1.31586 0
M  V30 490 H 45.355 -3.97804 0.743935 0
M  V30 491 H 43.925 -3.12399 0.112122 0
M  V30 492 H 43.145 -2.96913 2.59299 0
M  V30 493 H 44.433 -4.12357 2.98058 0
M  V30 494 H 43.831 -5.65375 0.191595 0
M  V30 495 H 42.388 -6.48991 0.60449 0
M  V30 496 N 45.8211 -1.22559 -0.990812 0
M  V30 497 C 46.7711 -0.964807 -2.0658 0
M  V30 498 C 47.7551 0.0853472 -1.60673 0
M  V30 499 O 48.9471 -0.125443 -1.76555 0
M  V30 500 C 46.0761 -0.546707 -3.38919 0
M  V30 501 C 45.1621 -1.6317 -3.91454 0
M  V30 502 N 45.5531 -2.85985 -4.17189 0
M  V30 503 C 43.8511 -1.50387 -4.19881 0
M  V30 504 C 44.5521 -3.56159 -4.59919 0
M  V30 505 N 43.5281 -2.83637 -4.63736 0
M  V30 506 H 47.3301 -1.89769 -2.24421 0
M  V30 507 H 44.8441 -1.12343 -1.17273 0
M  V30 508 H 46.8411 -0.34119 -4.15502 0
M  V30 509 H 45.5011 0.379254 -3.22478 0
M  V30 510 H 46.5121 -3.22392 -4.05319 0
M  V30 511 H 43.1891 -0.644254 -4.12499 0
M  V30 512 H 44.5791 -4.6139 -4.88435 0
M  V30 513 N 47.2992 1.18797 -1.03562 0
M  V30 514 C 48.5452 1.8893 -0.737113 0
M  V30 515 C 48.8782 1.79837 0.732956 0
M  V30 516 O 48.1532 1.19525 1.5344 0
M  V30 517 C 48.4362 3.39607 -1.19745 0
M  V30 518 C 48.2892 3.57537 -2.72924 0
M  V30 519 C 49.6082 4.33069 -0.783526 0
M  V30 520 H 46.7272 0.686057 -0.269249 0
M  V30 521 H 49.3692 1.39797 -1.28673 0
M  V30 522 H 47.5192 3.81583 -0.729855 0
M  V30 523 H 49.1912 3.24688 -3.27682 0
M  V30 524 H 47.4342 3.00363 -3.12993 0
M  V30 525 H 48.1052 4.63238 -3.00191 0
M  V30 526 H 50.5812 3.98846 -1.18581 0
M  V30 527 H 49.4572 5.3707 -1.13343 0
M  V30 528 H 49.7182 4.40986 0.313681 0
M  V30 529 N 48.7773 0.814389 1.34928 0
M  V30 530 C 50.0243 0.398423 1.98542 0
M  V30 531 C 50.3523 -1.03638 1.64589 0
M  V30 532 O 49.6073 -1.73509 0.90516 0
M  V30 533 C 49.9063 0.537781 3.53331 0
M  V30 534 C 49.5723 1.93704 4.07172 0
M  V30 535 C 48.2343 2.31984 4.21589 0
M  V30 536 C 50.5863 2.85213 4.36237 0
M  V30 537 C 47.9143 3.61125 4.62391 0
M  V30 538 C 50.2663 4.13809 4.78482 0
M  V30 539 C 48.9303 4.52077 4.91104 0
M  V30 540 H 48.2003 0.145793 0.726516 0
M  V30 541 H 50.8473 1.03669 1.61012 0
M  V30 542 H 49.1523 -0.183906 3.91368 0
M  V30 543 H 50.8493 0.196588 4.00518 0
M  V30 544 H 47.4393 1.62966 3.96409 0
M  V30 545 H 51.6233 2.56885 4.24645 0
M  V30 546 H 46.8793 3.90612 4.70353 0
M  V30 547 H 51.0533 4.84811 4.99932 0
M  V30 548 H 48.6803 5.52196 5.22478 0
M  V30 549 N 50.2554 -1.46986 0.568584 0
M  V30 550 C 51.1654 -2.33942 -0.17555 0
M  V30 551 C 52.1814 -1.48891 -0.90041 0
M  V30 552 O 53.3574 -1.81794 -0.86676 0
M  V30 553 C 50.4224 -3.25811 -1.18524 0
M  V30 554 C 49.4834 -4.26757 -0.466582 0
M  V30 555 C 48.7164 -5.14236 -1.42817 0
M  V30 556 O 48.9394 -5.04379 -2.66379 0
M  V30 557 O 47.8734 -5.94412 -0.946453 0
M  V30 558 H 51.6994 -2.98896 0.538036 0
M  V30 559 H 49.2844 -1.4573 0.329097 0
M  V30 560 H 51.1664 -3.82527 -1.76779 0
M  V30 561 H 49.8414 -2.63471 -1.88055 0
M  V30 562 H 48.7484 -3.73769 0.157451 0
M  V30 563 H 50.0814 -4.91843 0.187485 0
M  V30 564 N 51.7335 -0.305618 -1.54608 0
M  V30 565 C 52.6805 0.568421 -2.23691 0
M  V30 566 C 53.6505 1.12592 -1.22116 0
M  V30 567 O 54.8355 1.16959 -1.50749 0
M  V30 568 C 51.9755 1.7322 -2.98477 0
M  V30 569 C 51.0885 1.20566 -4.14835 0
M  V30 570 C 50.2235 2.33368 -4.77193 0
M  V30 571 C 49.2625 1.7787 -5.85686 0
M  V30 572 N 48.3995 2.84263 -6.4198 0
M  V30 573 H 53.2395 -0.0272867 -2.97988 0
M  V30 574 H 50.7765 -0.0252363 -1.47078 0
M  V30 575 H 52.7345 2.41675 -3.40072 0
M  V30 576 H 51.3645 2.29947 -2.26548 0
M  V30 577 H 50.4165 0.413223 -3.78149 0
M  V30 578 H 51.7285 0.759417 -4.92985 0
M  V30 579 H 50.8825 3.09761 -5.21664 0
M  V30 580 H 49.6215 2.8132 -3.98385 0
M  V30 581 H 48.6265 0.99968 -5.40635 0
M  V30 582 H 49.8515 1.30816 -6.66381 0
M  V30 583 H 47.7975 3.31541 -5.66053 0
M  V30 584 H 47.7145 2.44149 -7.15491 0
M  V30 585 H 48.9825 3.6054 -6.91109 0
M  V30 586 N 53.2116 1.57565 -0.0334293 0
M  V30 587 C 54.1746 2.09393 0.932048 0
M  V30 588 C 55.1746 1.00986 1.25134 0
M  V30 589 O 56.3646 1.27129 1.19096 0
M  V30 590 C 53.4966 2.56338 2.2473 0
M  V30 591 H 54.6896 2.95984 0.483085 0
M  V30 592 H 52.2426 1.54819 0.21468 0
M  V30 593 H 52.9776 1.7309 2.74245 0
M  V30 594 H 52.7626 3.35542 2.02865 0
M  V30 595 H 54.2526 2.96646 2.93923 0
M  V30 596 N 54.6897 -0.239769 1.55765 0
M  V30 597 C 55.6197 -1.30052 1.9393 0
M  V30 598 C 56.6007 -1.49839 0.805132 0
M  V30 599 O 57.7857 -1.62328 1.06599 0
M  V30 600 C 54.9157 -2.65391 2.2402 0
M  V30 601 C 53.8697 -2.60289 3.39755 0
M  V30 602 C 53.1957 -3.99489 3.55405 0
M  V30 603 C 54.4957 -2.16654 4.75246 0
M  V30 604 H 56.1897 -0.983573 2.82783 0
M  V30 605 H 53.7357 -0.471701 1.36055 0
M  V30 606 H 55.6887 -3.3974 2.49308 0
M  V30 607 H 54.4127 -2.98736 1.32 0
M  V30 608 H 53.0717 -1.88398 3.14487 0
M  V30 609 H 52.7197 -4.30112 2.60793 0
M  V30 610 H 52.4197 -3.96962 4.33238 0
M  V30 611 H 53.9437 -4.75528 3.83022 0
M  V30 612 H 55.3577 -2.80737 4.99859 0
M  V30 613 H 53.7547 -2.25223 5.56232 0
M  V30 614 H 54.8247 -1.11835 4.71827 0
M  V30 615 N 56.1678 -1.49265 -0.50573 0
M  V30 616 C 57.0998 -1.617 -1.62437 0
M  V30 617 C 58.1128 -0.499924 -1.54934 0
M  V30 618 O 59.3018 -0.771785 -1.60953 0
M  V30 619 C 56.4018 -1.5533 -3.01207 0
M  V30 620 C 55.5748 -2.8249 -3.33943 0
M  V30 621 C 54.6338 -2.69238 -4.52103 0
M  V30 622 O 53.6598 -3.43167 -4.5412 0
M  V30 623 N 54.8618 -1.80468 -5.51735 0
M  V30 624 H 57.6268 -2.58177 -1.52199 0
M  V30 625 H 55.1878 -1.46294 -0.693511 0
M  V30 626 H 57.1798 -1.44125 -3.78167 0
M  V30 627 H 55.7498 -0.667297 -3.05395 0
M  V30 628 H 54.9698 -3.08081 -2.45926 0
M  V30 629 H 56.2578 -3.66802 -3.5261 0
M  V30 630 H 55.6558 -1.19653 -5.52901 0
M  V30 631 H 54.2128 -1.75188 -6.27816 0
M  V30 632 N 57.6459 0.756429 -1.3826 0
M  V30 633 C 58.8709 1.55077 -1.37717 0
M  V30 634 C 59.2959 1.88073 0.03164 0
M  V30 635 O 58.6539 1.50364 1.01293 0
M  V30 636 C 58.7019 2.8283 -2.23695 0
M  V30 637 O 57.8059 3.77862 -1.6521 0
M  V30 638 H 57.1469 0.469152 -0.469885 0
M  V30 639 H 59.6769 0.935019 -1.81985 0
M  V30 640 H 59.6869 3.31783 -2.37453 0
M  V30 641 H 58.3619 2.58144 -3.2609 0
M  V30 642 H 56.9389 3.36555 -1.60578 0
M  V30 643 N 59.124 1.23083 0.984299 0
M  V30 644 C 60.372 1.05848 1.72165 0
M  V30 645 C 60.693 -0.406049 1.90726 0
M  V30 646 O 59.963 -1.29139 1.47309 0
M  V30 647 H 58.543 0.388685 0.637913 0
M  V30 648 H 61.205 1.54736 1.18503 0
M  V30 649 H 60.301 1.54327 2.71274 0
M  V30 650 N 60.6021 -1.18246 1.0419 0
M  V30 651 C 61.5651 -2.20128 0.638452 0
M  V30 652 C 62.5651 -1.57885 -0.304805 0
M  V30 653 O 63.7551 -1.73967 -0.0900369 0
M  V30 654 C 60.8871 -3.4084 -0.0637751 0
M  V30 655 H 62.0801 -2.57336 1.54007 0
M  V30 656 H 59.6331 -1.32152 0.834598 0
M  V30 657 H 60.3681 -3.09166 -0.979136 0
M  V30 658 H 60.1531 -3.8726 0.614198 0
M  V30 659 H 61.6431 -4.16274 -0.332512 0
M  V30 660 N 62.0802 -0.821533 -1.34494 0
M  V30 661 C 63.3052 -0.420873 -2.03085 0
M  V30 662 C 63.7302 0.964915 -1.61465 0
M  V30 663 O 63.0882 1.62763 -0.798607 0
M  V30 664 C 63.1362 -0.529414 -3.56693 0
M  V30 665 O 62.2402 0.451302 -4.09923 0
M  V30 666 H 61.5812 -0.173489 -0.640935 0
M  V30 667 H 64.1112 -1.11157 -1.71771 0
M  V30 668 H 64.1212 -0.404671 -4.05988 0
M  V30 669 H 62.7962 -1.54014 -3.86332 0
M  V30 670 H 61.3732 0.285558 -3.71805 0
M  V30 671 N 63.5583 1.46682 -0.576371 0
M  V30 672 C 64.9743 1.57822 -0.237562 0
M  V30 673 C 65.1743 1.57237 1.26011 0
M  V30 674 O 64.2303 1.48596 2.04146 0
M  V30 675 C 65.5433 2.87499 -0.881168 0
M  V30 676 C 67.0913 3.01119 -0.85417 0
M  V30 677 C 67.5663 4.33524 -1.4772 0
M  V30 678 N 69.0573 4.40207 -1.44125 0
M  V30 679 C 69.7923 5.4126 -1.89276 0
M  V30 680 N 69.2883 6.49021 -2.42371 0
M  V30 681 N 71.0813 5.32422 -1.80231 0
M  V30 682 H 63.2323 1.45306 -1.54919 0
M  V30 683 H 65.4953 0.692733 -0.647167 0
M  V30 684 H 65.2013 2.9372 -1.93447 0
M  V30 685 H 65.0753 3.75224 -0.385592 0
M  V30 686 H 67.4623 2.94485 0.190491 0
M  V30 687 H 67.5433 2.14887 -1.3877 0
M  V30 688 H 67.1873 4.40916 -2.52103 0
M  V30 689 H 67.1173 5.1852 -0.918947 0
M  V30 690 H 69.6083 3.62931 -1.05307 0
M  V30 691 H 69.9213 7.2233 -2.74698 0
M  V30 692 H 68.2663 6.49858 -2.46393 0
M  V30 693 H 71.4573 4.47137 -1.38514 0
M  V30 694 H 71.6303 6.11034 -2.15735 0
M  V30 695 N 65.0364 0.313813 1.54444 0
M  V30 696 C 66.2824 -0.292108 2.00685 0
M  V30 697 C 66.6154 -1.52548 1.20177 0
M  V30 698 O 65.8904 -1.92452 0.281531 0
M  V30 699 C 66.1734 -0.635968 3.5444 0
M  V30 700 C 66.0264 0.607437 4.4568 0
M  V30 701 C 67.3454 -1.45747 4.15266 0
M  V30 702 H 64.4644 -0.104697 0.729526 0
M  V30 703 H 67.1064 0.428457 1.85106 0
M  V30 704 H 65.2564 -1.24986 3.67846 0
M  V30 705 H 66.9284 1.24581 4.44159 0
M  V30 706 H 65.1714 1.23822 4.15753 0
M  V30 707 H 65.8424 0.322515 5.51057 0
M  V30 708 H 68.3184 -0.938645 4.05375 0
M  V30 709 H 67.1944 -1.66683 5.2298 0
M  V30 710 H 67.4554 -2.45063 3.67963 0
M  V30 711 N 66.5145 -1.57545 0.0417849 0
M  V30 712 C 67.7635 -1.91494 -0.633492 0
M  V30 713 C 68.0765 -0.921084 -1.72556 0
M  V30 714 O 69.2825 -1.15228 -2.45835 0
M  V30 715 C 67.7385 -3.40072 -1.17808 0
M  V30 716 C 67.3465 -4.47843 -0.118633 0
M  V30 717 C 69.0905 -3.8307 -1.82915 0
M  V30 718 C 66.9975 -5.87529 -0.675578 0
M  V30 719 H 65.9275 -0.714653 -0.24039 0
M  V30 720 H 68.5785 -1.83175 0.109148 0
M  V30 721 H 66.9605 -3.43364 -1.97274 0
M  V30 722 H 68.1345 -4.56128 0.654494 0
M  V30 723 H 66.4495 -4.14128 0.434414 0
M  V30 724 H 69.0465 -4.84794 -2.25563 0
M  V30 725 H 69.3895 -3.1881 -2.67705 0
M  V30 726 H 69.9225 -3.82255 -1.10119 0
M  V30 727 H 66.6615 -6.55362 0.134475 0
M  V30 728 H 66.1815 -5.82824 -1.4169 0
M  V30 729 H 67.8605 -6.36491 -1.1614 0
M  V30 730 N 67.9926 0.231505 -1.5589 0
M  V30 731 C 69.2416 0.955346 -1.7764 0
M  V30 732 C 69.5546 1.85893 -0.608546 0
M  V30 733 O 70.7606 2.62067 -0.70943 0
M  V30 734 C 69.2166 1.74886 -3.14552 0
M  V30 735 C 68.8246 0.891915 -4.39032 0
M  V30 736 C 70.5686 2.46452 -3.45633 0
M  V30 737 C 68.4756 1.68221 -5.66971 0
M  V30 738 H 67.4056 0.360446 -0.662265 0
M  V30 739 H 70.0566 0.209516 -1.823 0
M  V30 740 H 68.4386 2.53723 -3.04041 0
M  V30 741 H 69.6126 0.144793 -4.60572 0
M  V30 742 H 67.9276 0.288863 -4.15397 0
M  V30 743 H 70.5246 3.06061 -4.38441 0
M  V30 744 H 70.8676 3.18841 -2.67668 0
M  V30 745 H 71.4006 1.74613 -3.57428 0
M  V30 746 H 68.1396 1.00178 -6.478 0
M  V30 747 H 67.6596 2.4042 -5.49507 0
M  V30 748 H 69.3386 2.24544 -6.06786 0
M  V30 749 N 69.4707 1.49531 0.497807 0
M  V30 750 C 70.4337 1.65916 1.58128 0
M  V30 751 C 71.4337 0.530825 1.51786 0
M  V30 752 O 72.6237 0.797342 1.54881 0
M  V30 753 C 69.7557 1.65951 2.9778 0
M  V30 754 H 70.9487 2.62556 1.44929 0
M  V30 755 H 68.5017 1.38611 0.722275 0
M  V30 756 H 69.2367 0.709065 3.16453 0
M  V30 757 H 69.0217 2.47897 3.03792 0
M  V30 758 H 70.5117 1.80673 3.76493 0
M  V30 759 N 70.9488 -0.749086 1.3866 0
M  V30 760 C 72.1768 -1.53834 1.38358 0
M  V30 761 C 72.5918 -1.88783 -0.0255219 0
M  V30 762 O 71.9488 -1.53101 -0.993292 0
M  V30 763 C 71.9998 -2.83468 2.2434 0
M  V30 764 O 71.7208 -2.50008 3.5976 0
M  V30 765 C 73.2218 -3.7758 2.32267 0
M  V30 766 H 70.4418 -0.47585 0.473083 0
M  V30 767 H 72.9858 -0.926726 1.82297 0
M  V30 768 H 71.1408 -3.40995 1.83851 0
M  V30 769 H 71.5548 -3.33182 4.05081 0
M  V30 770 H 73.0288 -4.65478 2.96706 0
M  V30 771 H 73.5058 -4.18334 1.33765 0
M  V30 772 H 74.1118 -3.25976 2.73166 0
M  V30 773 N 72.4269 -1.23603 -0.977757 0
M  V30 774 C 73.7039 -0.977897 -1.69401 0
M  V30 775 C 74.0839 0.502738 -2.05026 0
M  V30 776 O 73.4319 1.47459 -1.74551 0
M  V30 777 C 73.6419 -1.89077 -2.93345 0
M  V30 778 C 74.9899 -2.15579 -3.65802 0
M  V30 779 O 76.0139 -1.86648 -3.03383 0
M  V30 780 O 74.8729 -2.64658 -4.78141 0
M  V30 781 H 71.9669 -0.369025 -0.740101 0
M  V30 782 H 74.5129 -1.34657 -1.03274 0
M  V30 783 H 73.2849 -2.89158 -2.63634 0
M  V30 784 H 72.9079 -1.52463 -3.67207 0
M  V30 785 N 73.905 1.17692 -1.04816 0
M  V30 786 C 74.853 2.23632 -0.63966 0
M  V30 787 C 75.847 1.6601 0.337219 0
M  V30 788 O 77.053 1.78844 0.203693 0
M  V30 789 H 73.428 0.727949 -0.188665 0
M  V30 790 H 75.399 2.55387 -1.54337 0
M  V30 791 C 74.148 3.4769 -0.0264051 0
M  V30 792 H 73.471 3.92331 -0.769164 0
M  V30 793 H 74.911 4.23418 0.222098 0
M  V30 794 C 73.37 3.13807 1.22584 0
M  V30 795 O 73.9 3.28236 2.31569 0
M  V30 796 N 72.106 2.68065 1.12202 0
M  V30 797 H 71.653 2.56525 0.235133 0
M  V30 798 H 71.611 2.45767 1.96076 0
M  V30 799 N 75.3831 0.828654 1.34056 0
M  V30 800 C 76.2931 0.256725 2.33191 0
M  V30 801 C 77.3091 -0.611898 1.62886 0
M  V30 802 O 78.4851 -0.51844 1.94613 0
M  V30 803 C 75.5501 -0.567238 3.42028 0
M  V30 804 C 74.6111 0.324458 4.28072 0
M  V30 805 C 73.8441 -0.460274 5.31712 0
M  V30 806 O 74.0671 -1.693 5.44696 0
M  V30 807 O 73.0011 0.160391 6.01686 0
M  V30 808 H 76.8271 1.07739 2.83947 0
M  V30 809 H 74.4121 0.59093 1.37217 0
M  V30 810 H 76.2941 -1.03582 4.08471 0
M  V30 811 H 74.9691 -1.36513 2.93506 0
M  V30 812 H 73.8761 0.840659 3.64532 0
M  V30 813 H 75.2091 1.08685 4.8005 0
M  V30 814 N 76.8612 -1.46375 0.584142 0
M  V30 815 C 77.8092 -2.32042 -0.161047 0
M  V30 816 C 78.8032 -1.44569 -0.882966 0
M  V30 817 O 80.0092 -1.61186 -0.801191 0
M  V30 818 H 76.3842 -0.748659 -0.0708033 0
M  V30 819 H 78.3552 -2.92704 0.580269 0
M  V30 820 C 77.1042 -3.27762 -1.1605 0
M  V30 821 H 76.4272 -3.95051 -0.614419 0
M  V30 822 H 77.8672 -3.90481 -1.65228 0
M  V30 823 C 76.3262 -2.53218 -2.22221 0
M  V30 824 O 76.8562 -2.29628 -3.29597 0
M  V30 825 N 75.0622 -2.13756 -1.96868 0
M  V30 826 H 74.6092 -2.33142 -1.09557 0
M  V30 827 H 74.5672 -1.642 -2.68115 0
M  V30 828 N 78.3393 -0.321999 -1.54275 0
M  V30 829 C 79.5853 0.281461 -2.00837 0
M  V30 830 C 79.9183 1.51909 -1.20985 0
M  V30 831 O 79.1933 1.923 -0.291733 0
M  V30 832 C 79.4763 0.617162 -3.54772 0
M  V30 833 C 79.3293 -0.631064 -4.45351 0
M  V30 834 C 80.6483 1.43542 -4.16033 0
M  V30 835 H 77.7673 0.100826 -0.730071 0
M  V30 836 H 80.4093 -0.438268 -1.84876 0
M  V30 837 H 78.5593 1.23034 -3.68504 0
M  V30 838 H 80.2313 -1.26934 -4.43492 0
M  V30 839 H 78.4743 -1.26025 -4.15091 0
M  V30 840 H 79.1453 -0.351735 -5.50878 0
M  V30 841 H 81.6213 0.917134 -4.05867 0
M  V30 842 H 80.4973 1.63907 -5.23856 0
M  V30 843 H 80.7583 2.43108 -3.69257 0
M  V30 844 N 79.8174 1.5752 -0.0501392 0
M  V30 845 C 80.7804 2.1037 0.909786 0
M  V30 846 C 81.7804 1.02308 1.24056 0
M  V30 847 O 82.9704 1.28385 1.17741 0
M  V30 848 C 80.1024 2.58708 2.21998 0
M  V30 849 H 81.2954 2.96479 0.451665 0
M  V30 850 H 78.8484 1.55038 0.198248 0
M  V30 851 H 79.5834 1.75989 2.72394 0
M  V30 852 H 79.3684 3.37675 1.99295 0
M  V30 853 H 80.8584 2.99747 2.9076 0
M  V30 854 N 81.2955 -0.223234 1.56011 0
M  V30 855 C 82.5725 -0.972108 1.69733 0
M  V30 856 C 82.9525 -2.02485 0.59691 0
M  V30 857 O 82.3005 -2.25037 -0.396324 0
M  V30 858 C 82.5105 -1.58407 3.10979 0
M  V30 859 C 83.8585 -2.07696 3.70334 0
M  V30 860 O 84.8825 -1.68304 3.1393 0
M  V30 861 O 83.7415 -2.80096 4.69264 0
M  V30 862 H 80.8355 -0.453993 0.691245 0
M  V30 863 H 83.3815 -0.215149 1.68331 0
M  V30 864 H 82.1535 -0.823831 3.82529 0
M  V30 865 H 81.7765 -2.40661 3.16493 0
M  V30 866 N 82.7736 -1.49793 -0.48987 0
M  V30 867 C 84.0196 -1.60078 -1.24511 0
M  V30 868 C 84.3526 -0.291608 -1.91998 0
M  V30 869 O 83.6276 0.705647 -1.81248 0
M  V30 870 C 83.9106 -2.76791 -2.30345 0
M  V30 871 C 83.7636 -4.17535 -1.67286 0
M  V30 872 C 85.0826 -2.89111 -3.31817 0
M  V30 873 H 82.2016 -0.582645 -0.451324 0
M  V30 874 H 84.8436 -1.82117 -0.541612 0
M  V30 875 H 82.9936 -2.5813 -2.90346 0
M  V30 876 H 84.6656 -4.4774 -1.11026 0
M  V30 877 H 82.9086 -4.22665 -0.976577 0
M  V30 878 H 83.5796 -4.95094 -2.44103 0
M  V30 879 H 86.0556 -3.06133 -2.81819 0
M  V30 880 H 84.9316 -3.72433 -4.03219 0
M  V30 881 H 85.1926 -1.9893 -3.94815 0
M  V30 882 N 84.2517 0.741722 -1.39055 0
M  V30 883 C 85.2147 1.83733 -1.37021 0
M  V30 884 C 86.2147 1.58542 -0.268534 0
M  V30 885 O 87.4047 1.66067 -0.526076 0
M  V30 886 C 84.5367 3.2141 -1.13617 0
M  V30 887 H 85.7297 1.86941 -2.34506 0
M  V30 888 H 83.2827 0.944676 -1.24521 0
M  V30 889 H 84.0177 3.23865 -0.167863 0
M  V30 890 H 83.8027 3.4109 -1.93391 0
M  V30 891 H 85.2927 4.01477 -1.14918 0
M  V30 892 N 85.7298 1.2412 0.971189 0
M  V30 893 C 86.6768 1.0305 2.06517 0
M  V30 894 C 87.6468 -0.0550666 1.66009 0
M  V30 895 O 88.8318 0.0988688 1.90544 0
M  V30 896 C 85.9718 0.637653 3.39158 0
M  V30 897 C 85.0848 1.79633 3.92882 0
M  V30 898 C 84.2198 1.34939 5.13775 0
M  V30 899 C 83.2588 2.47823 5.59687 0
M  V30 900 N 82.3958 2.04022 6.71803 0
M  V30 901 H 87.2358 1.96685 2.23873 0
M  V30 902 H 84.7728 0.979694 1.09729 0
M  V30 903 H 86.7308 0.390931 4.15364 0
M  V30 904 H 85.3608 -0.261693 3.21737 0
M  V30 905 H 84.4128 2.15681 3.13346 0
M  V30 906 H 85.7248 2.64466 4.22918 0
M  V30 907 H 84.8788 1.06134 5.97345 0
M  V30 908 H 83.6178 0.471557 4.85415 0
M  V30 909 H 82.6228 2.77392 4.74693 0
M  V30 910 H 83.8478 3.36158 5.90063 0
M  V30 911 H 81.7938 1.18632 6.45184 0
M  V30 912 H 81.7108 2.82409 7.01271 0
M  V30 913 H 82.9788 1.78347 7.58823 0
M  V30 914 N 87.2079 -1.17134 1.05439 0
M  V30 915 C 88.4329 -1.91913 0.786396 0
M  V30 916 C 88.8579 -1.7643 -0.652234 0
M  V30 917 O 88.2159 -1.08372 -1.45345 0
M  V30 918 C 88.2639 -3.40921 1.17497 0
M  V30 919 O 87.3679 -4.11244 0.308589 0
M  V30 920 H 86.7089 -0.598215 0.288158 0
M  V30 921 H 89.2389 -1.48457 1.4079 0
M  V30 922 H 89.2489 -3.91668 1.14281 0
M  V30 923 H 87.9239 -3.5151 2.22292 0
M  V30 924 H 86.5009 -3.70731 0.40157 0
M  V30 925 N 88.686 -0.835752 -1.33615 0
M  V30 926 C 89.933 -0.429959 -1.97883 0
M  V30 927 C 90.261 1.01006 -1.66217 0
M  V30 928 O 89.516 1.72047 -0.93265 0
M  V30 929 C 89.815 -0.593925 -3.52431 0
M  V30 930 C 89.481 -2.00158 -4.04039 0
M  V30 931 C 88.143 -2.38662 -4.17844 0
M  V30 932 C 90.495 -2.92117 -4.31644 0
M  V30 933 C 87.823 -3.68435 -4.56588 0
M  V30 934 C 90.175 -4.21368 -4.71838 0
M  V30 935 C 88.839 -4.59833 -4.83849 0
M  V30 936 H 88.109 -0.157333 -0.724104 0
M  V30 937 H 90.756 -1.06217 -1.59343 0
M  V30 938 H 89.061 0.121619 -3.91611 0
M  V30 939 H 90.758 -0.260282 -4.00154 0
M  V30 940 H 87.348 -1.69252 -3.93766 0
M  V30 941 H 91.532 -2.63608 -4.20505 0
M  V30 942 H 86.788 -3.98046 -4.64079 0
M  V30 943 H 90.962 -4.92703 -4.92155 0
M  V30 944 H 88.589 -5.60438 -5.13627 0
M  V30 945 N 90.1641 1.46063 -0.591896 0
M  V30 946 C 91.4121 2.01938 -0.0808391 0
M  V30 947 C 91.7331 1.46475 1.28725 0
M  V30 948 O 91.0031 0.652944 1.84698 0
M  V30 949 H 89.5831 0.746516 -0.0268938 0
M  V30 950 H 92.2451 1.79055 -0.769752 0
M  V30 951 H 91.3411 3.12094 -0.0187578 0
M  V30 952 N 91.6422 0.330177 1.54103 0
M  V30 953 C 92.6052 -0.520144 2.2322 0
M  V30 954 C 93.6052 -1.03828 1.22786 0
M  V30 955 O 94.7952 -0.929652 1.4732 0
M  V30 956 C 91.9272 -1.72317 2.94142 0
M  V30 957 H 93.1202 0.0841605 2.99782 0
M  V30 958 H 90.6732 0.0813433 1.56088 0
M  V30 959 H 91.4082 -2.36653 2.21734 0
M  V30 960 H 91.1932 -1.35898 3.67796 0
M  V30 961 H 92.6832 -2.3266 3.46784 0
M  V30 962 N 93.1203 -1.57491 0.0584922 0
M  V30 963 C 94.0303 -2.15448 -0.928414 0
M  V30 964 C 95.0463 -1.11416 -1.3365 0
M  V30 965 O 96.2223 -1.4362 -1.41193 0
M  V30 966 C 93.2873 -2.69393 -2.18239 0
M  V30 967 C 92.3483 -3.88249 -1.83196 0
M  V30 968 C 91.5813 -4.39613 -3.02616 0
M  V30 969 O 91.8043 -3.90023 -4.16219 0
M  V30 970 O 90.7383 -5.31111 -2.83204 0
M  V30 971 H 94.5643 -3.00112 -0.465483 0
M  V30 972 H 92.1493 -1.48499 -0.163826 0
M  V30 973 H 94.0313 -3.04026 -2.91798 0
M  V30 974 H 92.7063 -1.87796 -2.63656 0
M  V30 975 H 91.6133 -3.58492 -1.06931 0
M  V30 976 H 92.9463 -4.71098 -1.42573 0
M  V30 977 N 94.5984 0.214957 -1.56127 0
M  V30 978 C 95.8444 0.939762 -1.79712 0
M  V30 979 C 96.1774 1.83723 -0.629247 0
M  V30 980 O 95.4524 1.90925 0.371197 0
M  V30 981 C 95.7354 1.77306 -3.13424 0
M  V30 982 C 95.5884 0.90164 -4.40671 0
M  V30 983 C 96.9074 2.74956 -3.43638 0
M  V30 984 H 94.0264 0.340214 -0.653776 0
M  V30 985 H 96.6684 0.20824 -1.88855 0
M  V30 986 H 94.8184 2.39673 -3.0576 0
M  V30 987 H 96.4904 0.294206 -4.60361 0
M  V30 988 H 94.7334 0.207368 -4.33304 0
M  V30 989 H 95.4044 1.51923 -5.30682 0
M  V30 990 H 97.8804 2.22724 -3.51473 0
M  V30 991 H 96.7564 3.30358 -4.38355 0
M  V30 992 H 97.0174 3.53023 -2.66134 0
M  V30 993 N 96.0765 1.50051 0.48192 0
M  V30 994 C 97.3165 1.62128 1.24474 0
M  V30 995 C 97.6805 0.309742 1.89485 0
M  V30 996 O 98.8815 0.305854 2.67054 0
M  V30 997 C 97.1525 2.76151 2.26882 0
M  V30 998 S 98.7115 3.08297 3.12247 0
M  V30 999 H 95.5295 0.571661 0.422759 0
M  V30 1000 H 98.1315 1.87791 0.54359 0
M  V30 1001 H 96.8355 3.69942 1.77683 0
M  V30 1002 H 96.3665 2.52541 3.0164 0
M  V30 1003 H 98.3815 2.51287 4.27866 0
M  V30 1004 N 97.5546 -0.734337 1.39446 0
M  V30 1005 C 98.4876 -1.85715 1.32609 0
M  V30 1006 C 99.4656 -1.6137 0.199636 0
M  V30 1007 O 100.65 -1.84626 0.380195 0
M  V30 1008 C 97.7766 -3.21709 1.05929 0
M  V30 1009 C 96.8226 -3.64913 2.20773 0
M  V30 1010 S 97.6556 -3.74203 3.83056 0
M  V30 1011 C 98.8116 -5.12986 3.58603 0
M  V30 1012 H 99.0446 -1.91232 2.27635 0
M  V30 1013 H 96.5776 -0.899263 1.25509 0
M  V30 1014 H 98.5356 -4.00236 0.912203 0
M  V30 1015 H 97.1966 -3.13848 0.125883 0
M  V30 1016 H 96.3896 -4.63606 1.97699 0
M  V30 1017 H 95.9916 -2.93593 2.31688 0
M  V30 1018 H 98.2836 -5.99339 3.15909 0
M  V30 1019 H 99.2266 -5.41088 4.5676 0
M  V30 1020 H 99.6346 -4.82694 2.9269 0
M  V30 1021 N 99.0327 -1.24633 -0.964593 0
M  V30 1022 C 100.261 -1.11501 -1.74285 0
M  V30 1023 C 100.676 0.332165 -1.85855 0
M  V30 1024 O 100.033 1.22903 -1.34911 0
M  V30 1025 C 100.084 -1.75258 -3.16175 0
M  V30 1026 O 99.8047 -3.14318 -3.05182 0
M  V30 1027 C 101.306 -1.67776 -4.10324 0
M  V30 1028 H 98.5257 -0.389407 -0.546446 0
M  V30 1029 H 101.07 -1.64801 -1.21083 0
M  V30 1030 H 99.2247 -1.25954 -3.66353 0
M  V30 1031 H 99.6387 -3.4551 -3.94618 0
M  V30 1032 H 101.113 -2.17064 -5.0753 0
M  V30 1033 H 101.59 -0.639584 -4.34518 0
M  V30 1034 H 102.196 -2.16522 -3.66058 0
M  V30 1035 N 100.511 1.16574 -1.06058 0
M  V30 1036 C 101.736 1.91493 -0.796562 0
M  V30 1037 C 102.161 1.76773 0.642868 0
M  V30 1038 O 101.519 1.09142 1.44768 0
M  V30 1039 C 101.567 3.40293 -1.19303 0
M  V30 1040 O 100.671 4.11074 -0.330394 0
M  V30 1041 H 100.012 0.596678 -0.291326 0
M  V30 1042 H 102.542 1.47708 -1.41575 0
M  V30 1043 H 102.552 3.91057 -1.16356 0
M  V30 1044 H 101.227 3.50326 -2.24153 0
M  V30 1045 H 99.8038 3.70513 -0.421225 0
M  V30 1046 N 101.989 0.842826 1.3317 0
M  V30 1047 C 103.235 0.441099 1.97945 0
M  V30 1048 C 103.568 -0.998024 1.66593 0
M  V30 1049 O 102.843 -1.69839 0.947898 0
M  V30 1050 C 103.126 0.666841 3.53872 0
M  V30 1051 C 102.979 2.15352 3.94897 0
M  V30 1052 C 104.298 0.115544 4.39948 0
M  V30 1053 H 101.417 0.161739 0.719034 0
M  V30 1054 H 104.059 1.05907 1.57746 0
M  V30 1055 H 102.209 0.140828 3.88245 0
M  V30 1056 H 103.881 2.7447 3.70761 0
M  V30 1057 H 102.124 2.63653 3.44484 0
M  V30 1058 H 102.795 2.26221 5.03516 0
M  V30 1059 H 105.271 0.565213 4.12243 0
M  V30 1060 H 104.147 0.303152 5.48062 0
M  V30 1061 H 104.408 -0.980935 4.3108 0
M  V30 1062 N 103.467 -1.45747 0.599634 0
M  V30 1063 C 104.415 -2.322 -0.136426 0
M  V30 1064 C 105.409 -1.45497 -0.867583 0
M  V30 1065 O 106.615 -1.62027 -0.78405 0
M  V30 1066 H 102.99 -0.749368 -0.0628588 0
M  V30 1067 H 104.961 -2.92072 0.611281 0
M  V30 1068 C 103.71 -3.28974 -1.12567 0
M  V30 1069 H 103.033 -3.9568 -0.572484 0
M  V30 1070 H 104.473 -3.92212 -1.61077 0
M  V30 1071 C 102.932 -2.55561 -2.19523 0
M  V30 1072 O 103.462 -2.33111 -3.27143 0
M  V30 1073 N 101.668 -2.15832 -1.94589 0
M  V30 1074 H 101.215 -2.3429 -1.07078 0
M  V30 1075 H 101.173 -1.67034 -2.66359 0
M  V30 1076 N 104.945 -0.338344 -1.53925 0
M  V30 1077 C 105.895 0.536712 -2.21593 0
M  V30 1078 C 106.879 1.07015 -1.20153 0
M  V30 1079 O 108.071 1.00471 -1.45721 0
M  V30 1080 C 105.2 1.68977 -2.98834 0
M  V30 1081 C 104.286 1.17052 -4.07627 0
M  V30 1082 N 104.677 0.372085 -5.0443 0
M  V30 1083 C 102.975 1.44789 -4.21844 0
M  V30 1084 C 103.676 0.0909171 -5.81629 0
M  V30 1085 N 102.652 0.681131 -5.39316 0
M  V30 1086 H 106.454 -0.0804298 -2.9379 0
M  V30 1087 H 103.968 -0.144943 -1.61752 0
M  V30 1088 H 105.965 2.32857 -3.45808 0
M  V30 1089 H 104.625 2.31024 -2.28162 0
M  V30 1090 H 105.636 0.0136217 -5.17898 0
M  V30 1091 H 102.313 2.07313 -3.62391 0
M  V30 1092 H 103.703 -0.552817 -6.69622 0
M  V30 1093 N 106.423 1.57458 -0.0668435 0
M  V30 1094 C 107.371 2.13639 0.919851 0
M  V30 1095 C 108.365 1.07204 1.31163 0
M  V30 1096 O 109.571 1.25591 1.28945 0
M  V30 1097 H 105.946 0.683048 0.314562 0
M  V30 1098 H 107.917 2.95415 0.421047 0
M  V30 1099 C 106.666 2.70892 2.17975 0
M  V30 1100 H 105.989 3.5246 1.88711 0
M  V30 1101 H 107.429 3.13803 2.85138 0
M  V30 1102 C 105.888 1.65414 2.93496 0
M  V30 1103 O 106.418 1.07619 3.87015 0
M  V30 1104 N 104.624 1.36564 2.56512 0
M  V30 1105 H 104.171 1.83751 1.80536 0
M  V30 1106 H 104.129 0.66223 3.07347 0
M  V30 1107 N 107.901 -0.206675 1.56239 0
M  V30 1108 C 109.126 -0.949474 1.8439 0
M  V30 1109 C 109.551 -1.76549 0.649016 0
M  V30 1110 O 108.909 -1.76782 -0.402231 0
M  V30 1111 C 108.957 -1.83078 3.10668 0
M  V30 1112 O 108.061 -2.9281 2.90407 0
M  V30 1113 H 107.402 -0.268033 0.607499 0
M  V30 1114 H 109.932 -0.215488 2.03462 0
M  V30 1115 H 109.942 -2.2377 3.41161 0
M  V30 1116 H 108.617 -1.23112 3.97261 0
M  V30 1117 H 107.194 -2.55956 2.71184 0
M  V30 1118 N 109.379 -1.50304 -0.473955 0
M  V30 1119 C 110.627 -1.60832 -1.22382 0
M  V30 1120 C 110.948 -0.30939 -1.9253 0
M  V30 1121 O 110.218 0.67296 -1.83978 0
M  V30 1122 H 108.798 -0.592652 -0.454723 0
M  V30 1123 H 111.46 -1.87068 -0.546968 0
M  V30 1124 H 110.556 -2.41803 -1.97327 0
M  V30 1125 N 110.857 0.726932 -1.39834 0
M  V30 1126 C 112.085 1.51613 -1.40787 0
M  V30 1127 C 112.5 1.88799 -0.00451505 0
M  V30 1128 O 111.857 1.54662 0.968809 0
M  V30 1129 C 111.908 2.79863 -2.28821 0
M  V30 1130 O 111.629 2.44253 -3.63692 0
M  V30 1131 C 113.13 3.73837 -2.38245 0
M  V30 1132 H 110.35 0.468264 -0.480593 0
M  V30 1133 H 112.894 0.897607 -1.83748 0
M  V30 1134 H 111.049 3.38027 -1.89252 0
M  V30 1135 H 111.463 3.26695 -4.1033 0
M  V30 1136 H 112.937 4.60699 -3.04073 0
M  V30 1137 H 113.414 4.16153 -1.40403 0
M  V30 1138 H 114.02 3.21589 -2.78317 0
M  V30 1139 N 112.336 1.25143 0.95797 0
M  V30 1140 C 113.246 1.06968 2.08794 0
M  V30 1141 C 114.262 0.00773911 1.73998 0
M  V30 1142 O 115.438 0.207972 2.00323 0
M  V30 1143 C 112.503 0.68691 3.39827 0
M  V30 1144 C 111.564 1.82641 3.88511 0
M  V30 1145 C 110.797 1.46181 5.1329 0
M  V30 1146 O 111.02 0.355971 5.69288 0
M  V30 1147 O 109.954 2.29085 5.566 0
M  V30 1148 H 113.78 2.01723 2.27027 0
M  V30 1149 H 111.365 1.04051 1.07209 0
M  V30 1150 H 113.247 0.485417 4.18595 0
M  V30 1151 H 111.922 -0.231417 3.22872 0
M  V30 1152 H 110.829 2.08274 3.10762 0
M  V30 1153 H 112.162 2.72386 4.09959 0
M  V30 1154 N 113.814 -1.1601 1.06675 0
M  V30 1155 C 115.23 -1.38622 0.790948 0
M  V30 1156 C 115.43 -1.92109 -0.607965 0
M  V30 1157 O 114.486 -2.12239 -1.36787 0
M  V30 1158 C 115.799 -2.36347 1.85905 0
M  V30 1159 C 117.347 -2.50023 1.88301 0
M  V30 1160 C 117.822 -3.51033 2.94176 0
M  V30 1161 N 119.313 -3.58563 2.93235 0
M  V30 1162 C 120.048 -4.36521 3.71803 0
M  V30 1163 N 119.544 -5.17869 4.602 0
M  V30 1164 N 121.337 -4.31541 3.60178 0
M  V30 1165 H 113.488 -0.796294 1.96908 0
M  V30 1166 H 115.751 -0.412597 0.853503 0
M  V30 1167 H 115.457 -2.04147 2.86386 0
M  V30 1168 H 115.331 -3.36042 1.71334 0
M  V30 1169 H 117.718 -2.81524 0.884769 0
M  V30 1170 H 117.799 -1.5035 2.06951 0
M  V30 1171 H 117.443 -3.20268 3.94196 0
M  V30 1172 H 117.373 -4.50445 2.72776 0
M  V30 1173 H 119.864 -3.00496 2.29152 0
M  V30 1174 H 120.177 -5.74578 5.16797 0
M  V30 1175 H 118.522 -5.17199 4.64253 0
M  V30 1176 H 121.713 -3.67051 2.90502 0
M  V30 1177 H 121.886 -4.9205 4.21653 0
M  V30 1178 N 115.292 -0.849877 -1.32721 0
M  V30 1179 C 116.222 -0.306308 -2.31482 0
M  V30 1180 C 117.203 0.591952 -1.59468 0
M  V30 1181 O 118.388 0.513199 -1.87296 0
M  V30 1182 C 115.518 0.510204 -3.43532 0
M  V30 1183 C 114.472 -0.293209 -4.26994 0
M  V30 1184 C 113.798 0.647743 -5.30762 0
M  V30 1185 C 115.098 -1.51634 -4.99804 0
M  V30 1186 H 116.792 -1.13153 -2.77195 0
M  V30 1187 H 114.338 -0.545553 -1.33266 0
M  V30 1188 H 116.291 0.900856 -4.11658 0
M  V30 1189 H 115.015 1.36874 -2.96535 0
M  V30 1190 H 113.674 -0.665555 -3.60508 0
M  V30 1191 H 113.322 1.50299 -4.8002 0
M  V30 1192 H 113.022 0.11422 -5.87489 0
M  V30 1193 H 114.546 1.03567 -6.01753 0
M  V30 1194 H 115.96 -1.19824 -5.60638 0
M  V30 1195 H 114.357 -1.98745 -5.66234 0
M  V30 1196 H 115.427 -2.28018 -4.27943 0
M  V30 1197 N 116.77 1.45427 -0.607355 0
M  V30 1198 C 117.733 2.28974 0.101693 0
M  V30 1199 C 118.733 1.39754 0.795329 0
M  V30 1200 O 119.923 1.61878 0.643527 0
M  V30 1201 C 117.055 3.20768 1.15414 0
M  V30 1202 H 118.248 2.93147 -0.632844 0
M  V30 1203 H 115.801 1.51945 -0.366391 0
M  V30 1204 H 116.536 2.61395 1.91945 0
M  V30 1205 H 116.321 3.86489 0.66098 0
M  V30 1206 H 117.811 3.83589 1.65073 0
M  V30 1207 N 118.248 0.346503 1.53744 0
M  V30 1208 C 119.158 -0.517293 2.28826 0
M  V30 1209 C 120.174 -1.10935 1.3405 0
M  V30 1210 O 121.35 -1.1244 1.6709 0
M  V30 1211 C 118.415 -1.65098 3.04866 0
M  V30 1212 C 117.476 -1.0884 4.15274 0
M  V30 1213 C 116.709 -2.16806 4.87679 0
M  V30 1214 O 116.932 -3.3758 4.59778 0
M  V30 1215 O 115.866 -1.80934 5.74061 0
M  V30 1216 H 119.692 0.0931396 3.03557 0
M  V30 1217 H 117.277 0.111458 1.48984 0
M  V30 1218 H 119.159 -2.31053 3.5241 0
M  V30 1219 H 117.834 -2.24717 2.32989 0
M  V30 1220 H 116.741 -0.3933 3.72027 0
M  V30 1221 H 118.074 -0.537036 4.89261 0
M  V30 1222 N 119.726 -1.57421 0.075193 0
M  V30 1223 C 120.972 -1.93905 -0.594025 0
M  V30 1224 C 121.305 -0.955701 -1.69056 0
M  V30 1225 O 120.58 0.0145373 -1.94495 0
M  V30 1226 C 120.863 -3.40638 -1.1678 0
M  V30 1227 C 120.716 -4.49733 -0.0776792 0
M  V30 1228 C 122.035 -3.88259 -2.07228 0
M  V30 1229 H 119.154 -0.705105 -0.214466 0
M  V30 1230 H 121.796 -1.8947 0.141854 0
M  V30 1231 H 119.946 -3.44549 -1.79494 0
M  V30 1232 H 121.618 -4.57942 0.555573 0
M  V30 1233 H 119.861 -4.29751 0.591286 0
M  V30 1234 H 120.532 -5.49549 -0.519603 0
M  V30 1235 H 123.008 -3.86376 -1.54445 0
M  V30 1236 H 121.884 -4.91533 -2.44308 0
M  V30 1237 H 122.145 -3.26396 -2.98191 0
M  V30 1238 N 121.204 0.198386 -1.56346 0
M  V30 1239 C 122.45 0.920648 -1.80698 0
M  V30 1240 C 122.783 1.83045 -0.648697 0
M  V30 1241 O 122.058 1.91308 0.350925 0
M  V30 1242 C 122.341 1.73971 -3.15287 0
M  V30 1243 C 122.194 0.85485 -4.41602 0
M  V30 1244 C 123.513 2.71296 -3.46535 0
M  V30 1245 H 120.632 0.333261 -0.657348 0
M  V30 1246 H 123.274 0.188198 -1.89066 0
M  V30 1247 H 121.424 2.36416 -3.08285 0
M  V30 1248 H 123.096 0.245362 -4.60647 0
M  V30 1249 H 121.339 0.161398 -4.335 0
M  V30 1250 H 122.01 1.46286 -5.32264 0
M  V30 1251 H 124.486 2.18983 -3.53816 0
M  V30 1252 H 123.362 3.2569 -4.41834 0
M  V30 1253 H 123.623 3.5018 -2.69864 0
M  V30 1254 N 122.682 1.50554 0.465978 0
M  V30 1255 C 123.592 1.72585 1.58907 0
M  V30 1256 C 124.608 0.60911 1.6299 0
M  V30 1257 O 125.784 0.88804 1.80765 0
M  V30 1258 C 122.849 1.81995 2.95091 0
M  V30 1259 C 121.91 3.05751 3.01355 0
M  V30 1260 C 121.143 3.14702 4.31043 0
M  V30 1261 O 121.366 2.30313 5.21835 0
M  V30 1262 O 120.3 4.07468 4.43005 0
M  V30 1263 H 124.126 2.67799 1.43239 0
M  V30 1264 H 121.711 1.34711 0.646013 0
M  V30 1265 H 123.593 1.90335 3.75966 0
M  V30 1266 H 122.268 0.899659 3.10947 0
M  V30 1267 H 121.175 3.02908 2.19539 0
M  V30 1268 H 122.508 3.97375 2.90437 0
M  V30 1269 N 124.16 -0.719506 1.40217 0
M  V30 1270 C 125.107 -1.83359 1.40172 0
M  V30 1271 C 126.077 -1.64065 0.259206 0
M  V30 1272 O 127.262 -1.85254 0.456677 0
M  V30 1273 C 124.402 -3.2103 1.26624 0
M  V30 1274 C 123.515 -3.51923 2.50548 0
M  V30 1275 C 122.65 -4.79079 2.29471 0
M  V30 1276 C 121.689 -5.02863 3.48992 0
M  V30 1277 N 120.826 -6.2123 3.27135 0
M  V30 1278 H 125.666 -1.82733 2.35399 0
M  V30 1279 H 123.203 -0.892688 1.16917 0
M  V30 1280 H 125.161 -4.00524 1.16776 0
M  V30 1281 H 123.791 -3.20895 0.350176 0
M  V30 1282 H 122.843 -2.67014 2.70939 0
M  V30 1283 H 124.155 -3.6541 3.39525 0
M  V30 1284 H 123.309 -5.66582 2.16955 0
M  V30 1285 H 122.048 -4.67794 1.37913 0
M  V30 1286 H 121.053 -4.13816 3.6199 0
M  V30 1287 H 122.278 -5.16023 4.41472 0
M  V30 1288 H 120.224 -6.11204 2.38256 0
M  V30 1289 H 120.141 -6.35375 4.09675 0
M  V30 1290 H 121.409 -7.11532 3.18344 0
M  V30 1291 N 125.638 -1.25649 -0.95132 0
M  V30 1292 C 126.568 -1.08808 -2.06599 0
M  V30 1293 C 127.549 0.00382547 -1.701 0
M  V30 1294 O 128.734 -0.166325 -1.93486 0
M  V30 1295 C 125.864 -0.709542 -3.39975 0
M  V30 1296 C 124.818 -1.75206 -3.90496 0
M  V30 1297 C 124.144 -1.22811 -5.20405 0
M  V30 1298 C 125.444 -3.15153 -4.16504 0
M  V30 1299 H 127.138 -2.02048 -2.20946 0
M  V30 1300 H 124.684 -0.972835 -1.06169 0
M  V30 1301 H 126.637 -0.578649 -4.17408 0
M  V30 1302 H 125.361 0.258556 -3.25575 0
M  V30 1303 H 124.02 -1.87145 -3.15234 0
M  V30 1304 H 123.668 -0.250145 -5.02378 0
M  V30 1305 H 123.368 -1.92492 -5.55176 0
M  V30 1306 H 124.892 -1.10968 -6.00432 0
M  V30 1307 H 126.306 -3.06349 -4.84586 0
M  V30 1308 H 124.703 -3.82333 -4.62538 0
M  V30 1309 H 125.773 -3.61966 -3.22658 0
M  V30 1310 N 127.117 1.15442 -1.07289 0
M  V30 1311 C 128.08 2.18358 -0.696591 0
M  V30 1312 C 129.08 1.58637 0.262837 0
M  V30 1313 O 130.27 1.74145 0.0438809 0
M  V30 1314 C 127.402 3.4089 -0.0266151 0
M  V30 1315 H 128.595 2.53162 -1.60776 0
M  V30 1316 H 126.148 1.29893 -0.869342 0
M  V30 1317 H 126.883 3.11653 0.896822 0
M  V30 1318 H 126.668 3.85495 -0.716657 0
M  V30 1319 H 128.158 4.17009 0.222028 0
M  V30 1320 N 128.595 0.856903 1.32268 0
M  V30 1321 C 129.844 0.457599 1.96441 0
M  V30 1322 C 130.157 -0.992426 1.68553 0
M  V30 1323 O 131.363 -1.49727 2.26482 0
M  V30 1324 C 129.819 0.767358 3.51624 0
M  V30 1325 C 129.427 2.23326 3.88367 0
M  V30 1326 C 131.171 0.435887 4.22256 0
M  V30 1327 C 129.078 2.48613 5.36606 0
M  V30 1328 H 128.008 0.167387 0.735185 0
M  V30 1329 H 130.659 1.048 1.5063 0
M  V30 1330 H 129.041 0.106367 3.95857 0
M  V30 1331 H 130.215 2.93623 3.55137 0
M  V30 1332 H 128.53 2.52948 3.30766 0
M  V30 1333 H 131.127 0.602202 5.31298 0
M  V30 1334 H 131.47 -0.622672 4.11617 0
M  V30 1335 H 132.003 1.05286 3.83614 0
M  V30 1336 H 128.742 3.53101 5.52268 0
M  V30 1337 H 128.262 1.82896 5.71235 0
M  V30 1338 H 129.941 2.32676 6.03714 0
M  V30 1339 N 130.073 -1.45103 0.615059 0
M  V30 1340 C 131.484 -1.85654 0.197383 0
M  V30 1341 C 131.835 -1.51433 -1.24749 0
M  V30 1342 O 130.96 -0.944608 -1.94695 0
M  V30 1343 C 131.555 -3.36972 0.351448 0
M  V30 1344 C 130.114 -3.76398 -0.011593 0
M  V30 1345 C 129.261 -2.69024 0.672394 0
M  V30 1346 H 132.212 -1.35797 0.821263 0
M  V30 1347 H 132.233 -3.78239 -0.414227 0
M  V30 1348 H 131.745 -3.61847 1.40314 0
M  V30 1349 H 129.846 -3.5714 -1.06217 0
M  V30 1350 H 129.959 -4.77532 0.387265 0
M  V30 1351 H 128.323 -2.54465 0.109284 0
M  V30 1352 H 129.106 -2.96735 1.72636 0
M  V30 1353 N 131.551 -0.354651 -1.53558 0
M  V30 1354 C 132.828 0.294281 -1.93374 0
M  V30 1355 C 133.208 1.67313 -1.28723 0
M  V30 1356 O 132.556 2.24179 -0.442247 0
M  V30 1357 C 132.766 0.355445 -3.47185 0
M  V30 1358 C 134.114 0.601007 -4.20325 0
M  V30 1359 O 135.138 0.437106 -3.53508 0
M  V30 1360 O 133.997 0.919322 -5.38712 0
M  V30 1361 H 131.091 0.174033 -0.808481 0
M  V30 1362 H 133.637 -0.406638 -1.64756 0
M  V30 1363 H 132.409 -0.611729 -3.86489 0
M  V30 1364 H 132.032 1.1027 -3.82003 0
M  V30 1365 N 133.029 1.57378 -0.0835403 0
M  V30 1366 C 133.977 2.14602 0.89714 0
M  V30 1367 C 134.971 1.08589 1.30018 0
M  V30 1368 O 136.177 1.26952 1.27606 0
M  V30 1369 H 132.552 0.686346 0.3073 0
M  V30 1370 H 134.523 2.95845 0.38969 0
M  V30 1371 C 133.272 2.73188 2.15089 0
M  V30 1372 H 132.595 3.54442 1.84962 0
M  V30 1373 H 134.035 3.1681 2.81793 0
M  V30 1374 C 132.494 1.68517 2.91725 0
M  V30 1375 O 133.024 1.11718 3.85852 0
M  V30 1376 N 131.23 1.39277 2.55049 0
M  V30 1377 H 130.777 1.85655 1.78577 0
M  V30 1378 H 130.735 0.694791 3.06627 0
M  V30 1379 N 134.507 -0.190092 1.56449 0
M  V30 1380 C 135.417 -1.25591 1.98152 0
M  V30 1381 C 136.433 -1.49519 0.889944 0
M  V30 1382 O 137.609 -1.62036 1.19609 0
M  V30 1383 C 134.674 -2.57916 2.3169 0
M  V30 1384 C 133.735 -2.42015 3.5458 0
M  V30 1385 C 132.968 -3.6803 3.8651 0
M  V30 1386 O 133.191 -4.72413 3.1966 0
M  V30 1387 O 132.125 -3.6326 4.79923 0
M  V30 1388 H 135.951 -0.931988 2.89046 0
M  V30 1389 H 133.536 -0.395488 1.4407 0
M  V30 1390 H 135.418 -3.36008 2.54316 0
M  V30 1391 H 134.093 -2.89925 1.43963 0
M  V30 1392 H 133 -1.62017 3.37196 0
M  V30 1393 H 134.333 -2.14937 4.4279 0
M  V30 1394 N 135.985 -1.50799 -0.457987 0
M  V30 1395 C 137.234 -1.6168 -1.20593 0
M  V30 1396 C 137.547 -0.32888 -1.92815 0
M  V30 1397 O 138.753 -0.316773 -2.69646 0
M  V30 1398 C 137.209 -2.8545 -2.19195 0
M  V30 1399 C 136.817 -4.21168 -1.52715 0
M  V30 1400 C 138.561 -3.05681 -2.94549 0
M  V30 1401 C 136.468 -5.3611 -2.4968 0
M  V30 1402 H 135.398 -0.602134 -0.453818 0
M  V30 1403 H 138.049 -1.77245 -0.475031 0
M  V30 1404 H 136.431 -2.63472 -2.95632 0
M  V30 1405 H 137.605 -4.53449 -0.819775 0
M  V30 1406 H 135.92 -4.06648 -0.895922 0
M  V30 1407 H 138.517 -3.88727 -3.67145 0
M  V30 1408 H 138.86 -2.17929 -3.54701 0
M  V30 1409 H 139.393 -3.27901 -2.25223 0
M  V30 1410 H 136.132 -6.26057 -1.94249 0
M  V30 1411 H 135.652 -5.0823 -3.18532 0
M  V30 1412 H 137.331 -5.6722 -3.11241 0
M  V30 1413 N 137.463 0.71206 -1.40597 0
M  V30 1414 C 138.712 1.46754 -1.38369 0
M  V30 1415 C 139.025 1.95598 0.0097839 0
M  V30 1416 O 140.231 2.71059 0.154677 0
M  V30 1417 C 138.687 2.65289 -2.43207 0
M  V30 1418 C 138.295 2.23301 -3.88382 0
M  V30 1419 C 140.039 3.43008 -2.50091 0
M  V30 1420 C 137.946 3.38696 -4.84808 0
M  V30 1421 H 136.876 0.55118 -0.514506 0
M  V30 1422 H 139.527 0.774616 -1.66349 0
M  V30 1423 H 137.909 3.36769 -2.08332 0
M  V30 1424 H 139.083 1.59218 -4.32419 0
M  V30 1425 H 137.398 1.58618 -3.85006 0
M  V30 1426 H 139.995 4.28881 -3.1932 0
M  V30 1427 H 140.338 3.87065 -1.53253 0
M  V30 1428 H 140.871 2.78574 -2.83974 0
M  V30 1429 H 137.61 2.99668 -5.82992 0
M  V30 1430 H 137.13 4.01683 -4.45433 0
M  V30 1431 H 138.809 4.04712 -5.04794 0
M  V30 1432 N 138.941 1.26152 0.944643 0
M  V30 1433 C 140.187 1.11657 1.69294 0
M  V30 1434 C 140.52 -0.339926 1.91202 0
M  V30 1435 O 139.795 -1.24994 1.49019 0
M  V30 1436 C 140.078 1.88236 3.06984 0
M  V30 1437 C 139.931 3.41772 2.92424 0
M  V30 1438 C 141.25 1.67343 4.07043 0
M  V30 1439 H 138.369 0.407004 0.614424 0
M  V30 1440 H 141.011 1.55106 1.09737 0
M  V30 1441 H 139.161 1.51308 3.57824 0
M  V30 1442 H 140.833 3.88433 2.48832 0
M  V30 1443 H 139.076 3.68974 2.28124 0
M  V30 1444 H 139.747 3.90579 3.90067 0
M  V30 1445 H 142.223 1.99509 3.65151 0
M  V30 1446 H 141.099 2.23346 5.01406 0
M  V30 1447 H 141.36 0.617158 4.37771 0
M  V30 1448 N 140.419 -1.14872 1.07899 0
M  V30 1449 C 141.367 -2.21857 0.698727 0
M  V30 1450 C 142.361 -1.66845 -0.293086 0
M  V30 1451 O 143.567 -1.79321 -0.156204 0
M  V30 1452 H 139.942 -0.722691 0.207899 0
M  V30 1453 H 141.913 -2.51205 1.61054 0
M  V30 1454 C 140.662 -3.47498 0.11858 0
M  V30 1455 H 139.985 -3.90154 0.872914 0
M  V30 1456 H 141.425 -4.23858 -0.109759 0
M  V30 1457 C 139.884 -3.16947 -1.1422 0
M  V30 1458 O 140.414 -3.3426 -2.22785 0
M  V30 1459 N 138.62 -2.70946 -1.05055 0
M  V30 1460 H 138.167 -2.57058 -0.167038 0
M  V30 1461 H 138.125 -2.50879 -1.89491 0
M  V30 1462 N 141.898 -0.863906 -1.31812 0
M  V30 1463 C 143.147 -0.46801 -1.96195 0
M  V30 1464 C 143.46 0.983474 -1.69077 0
M  V30 1465 O 144.666 1.48523 -2.27273 0
M  V30 1466 C 143.122 -0.785995 -3.51212 0
M  V30 1467 C 142.73 -2.25383 -3.87178 0
M  V30 1468 C 144.474 -0.458274 -4.22019 0
M  V30 1469 C 142.381 -2.51455 -5.3528 0
M  V30 1470 H 141.311 -0.171283 -0.734287 0
M  V30 1471 H 143.962 -1.05597 -1.50072 0
M  V30 1472 H 142.344 -0.127359 -3.95795 0
M  V30 1473 H 143.518 -2.95502 -3.53575 0
M  V30 1474 H 141.833 -2.54698 -3.2942 0
M  V30 1475 H 144.43 -0.630369 -5.30971 0
M  V30 1476 H 144.773 0.600834 -4.11941 0
M  V30 1477 H 145.306 -1.07319 -3.8305 0
M  V30 1478 H 142.045 -3.56025 -5.50387 0
M  V30 1479 H 141.565 -1.85923 -5.70257 0
M  V30 1480 H 143.244 -2.35874 -6.02472 0
M  V30 1481 N 143.376 1.44774 -0.622745 0
M  V30 1482 C 144.308 2.28856 0.125485 0
M  V30 1483 C 145.321 1.40811 0.817069 0
M  V30 1484 O 146.51 1.65044 0.679918 0
M  V30 1485 C 143.61 3.16963 1.19949 0
M  V30 1486 C 142.783 4.33374 0.592064 0
M  V30 1487 C 141.842 5.02577 1.55893 0
M  V30 1488 O 140.868 5.58873 1.07933 0
M  V30 1489 N 142.07 5.03256 2.89334 0
M  V30 1490 H 144.835 2.93713 -0.596068 0
M  V30 1491 H 142.396 1.55129 -0.463303 0
M  V30 1492 H 144.388 3.60123 1.84644 0
M  V30 1493 H 142.958 2.53913 1.82337 0
M  V30 1494 H 142.178 3.93509 -0.233322 0
M  V30 1495 H 143.466 5.08527 0.166738 0
M  V30 1496 H 142.864 4.58836 3.30887 0
M  V30 1497 H 141.421 5.50232 3.49412 0
M  V30 1498 N 144.854 0.36279 1.53368 0
M  V30 1499 C 146.102 -0.227326 2.00817 0
M  V30 1500 C 146.423 -1.49511 1.25186 0
M  V30 1501 O 145.693 -1.92482 0.364348 0
M  V30 1502 H 144.273 -0.0869923 0.741917 0
M  V30 1503 H 146.935 0.488381 1.88682 0
M  V30 1504 H 146.031 -0.456273 3.08747 0
M  V30 1505 N 146.332 -1.57332 0.0918853 0
M  V30 1506 C 147.609 -1.85691 -0.614668 0
M  V30 1507 C 147.989 -0.988146 -1.86545 0
M  V30 1508 O 147.337 -0.0597055 -2.28422 0
M  V30 1509 C 147.547 -3.36294 -0.933126 0
M  V30 1510 C 148.895 -4.04275 -1.29796 0
M  V30 1511 O 149.919 -3.41157 -1.02424 0
M  V30 1512 O 148.778 -5.1564 -1.81047 0
M  V30 1513 H 145.872 -0.767802 -0.307261 0
M  V30 1514 H 148.418 -1.69244 0.12434 0
M  V30 1515 H 147.19 -3.91273 -0.0456404 0
M  V30 1516 H 146.813 -3.58076 -1.72822 0
M  V30 1517 N 147.81 0.181792 -1.56548 0
M  V30 1518 C 148.72 1.24538 -1.98815 0
M  V30 1519 C 149.736 1.49045 -0.897861 0
M  V30 1520 O 150.912 1.61399 -1.20467 0
M  V30 1521 C 147.977 2.56683 -2.33055 0
M  V30 1522 C 147.038 2.40131 -3.55859 0
M  V30 1523 C 146.271 3.65975 -3.88456 0
M  V30 1524 O 146.494 4.70711 -3.22161 0
M  V30 1525 O 145.428 3.6071 -4.81842 0
M  V30 1526 H 149.254 0.916647 -2.89536 0
M  V30 1527 H 146.839 0.387842 -1.44278 0
M  V30 1528 H 148.721 3.34655 -2.56094 0
M  V30 1529 H 147.396 2.89157 -1.45498 0
M  V30 1530 H 146.303 1.60226 -3.38051 0
M  V30 1531 H 147.636 2.12585 -4.43924 0
M  V30 1532 N 149.288 1.51039 0.449983 0
M  V30 1533 C 150.699 1.557 1.03026 0
M  V30 1534 C 151.05 0.372939 1.92623 0
M  V30 1535 O 150.175 -0.511771 2.10261 0
M  V30 1536 C 150.77 2.82171 1.87523 0
M  V30 1537 C 149.329 2.89444 2.40622 0
M  V30 1538 C 148.476 2.50228 1.19504 0
M  V30 1539 H 151.427 1.56999 0.231745 0
M  V30 1540 H 151.448 2.65219 2.72835 0
M  V30 1541 H 150.96 3.68331 1.22286 0
M  V30 1542 H 149.061 2.07685 3.0935 0
M  V30 1543 H 149.174 3.92816 2.74285 0
M  V30 1544 H 147.538 2.03139 1.53644 0
M  V30 1545 H 148.321 3.38719 0.558972 0
M  V30 1546 N 150.766 -0.704594 1.40972 0
M  V30 1547 C 151.696 -1.83124 1.44872 0
M  V30 1548 C 152.677 -1.67281 0.30838 0
M  V30 1549 O 153.862 -1.87149 0.518556 0
M  V30 1550 C 150.992 -3.21181 1.32136 0
M  V30 1551 C 149.946 -3.51714 2.43888 0
M  V30 1552 C 149.272 -4.89032 2.16222 0
M  V30 1553 C 150.572 -3.516 3.86232 0
M  V30 1554 H 152.266 -1.80117 2.39161 0
M  V30 1555 H 149.812 -0.865145 1.15114 0
M  V30 1556 H 151.765 -3.99702 1.33479 0
M  V30 1557 H 150.489 -3.24791 0.343279 0
M  V30 1558 H 149.148 -2.75539 2.41813 0
M  V30 1559 H 148.796 -4.89256 1.16778 0
M  V30 1560 H 148.496 -5.10426 2.911 0
M  V30 1561 H 150.02 -5.69873 2.19265 0
M  V30 1562 H 151.434 -4.2014 3.9007 0
M  V30 1563 H 149.831 -3.84523 4.60719 0
M  V30 1564 H 150.901 -2.50757 4.15029 0
M  V30 1565 N 152.244 -1.26651 -0.937939 0
M  V30 1566 C 153.493 -1.11775 -1.67897 0
M  V30 1567 C 153.806 0.33794 -1.92659 0
M  V30 1568 O 155.012 0.607434 -2.64618 0
M  V30 1569 C 153.468 -1.9523 -3.02346 0
M  V30 1570 C 153.076 -3.45393 -2.8532 0
M  V30 1571 C 154.82 -1.88972 -3.80118 0
M  V30 1572 C 152.727 -4.21083 -4.15263 0
M  V30 1573 H 151.657 -0.414696 -0.629717 0
M  V30 1574 H 154.308 -1.50988 -1.04283 0
M  V30 1575 H 152.69 -1.48853 -3.66959 0
M  V30 1576 H 153.864 -3.99561 -2.29537 0
M  V30 1577 H 152.179 -3.52921 -2.20988 0
M  V30 1578 H 154.776 -2.42805 -4.76392 0
M  V30 1579 H 155.119 -0.86113 -4.07296 0
M  V30 1580 H 155.652 -2.33189 -3.22285 0
M  V30 1581 H 152.391 -5.24425 -3.93267 0
M  V30 1582 H 151.911 -3.71695 -4.70747 0
M  V30 1583 H 153.59 -4.29706 -4.83696 0
M  V30 1584 N 153.722 1.14298 -1.08507 0
M  V30 1585 C 155.133 1.66926 -0.836227 0
M  V30 1586 C 155.484 1.85576 0.63686 0
M  V30 1587 O 154.609 1.56767 1.49175 0
M  V30 1588 C 155.204 3.03219 -1.51142 0
M  V30 1589 C 153.763 3.52876 -1.30979 0
M  V30 1590 C 152.91 2.2833 -1.57356 0
M  V30 1591 H 155.861 0.983491 -1.24552 0
M  V30 1592 H 155.882 3.68726 -0.939211 0
M  V30 1593 H 155.394 2.89612 -2.58353 0
M  V30 1594 H 153.495 3.71703 -0.258429 0
M  V30 1595 H 153.608 4.33586 -2.03814 0
M  V30 1596 H 151.972 2.34454 -0.995164 0
M  V30 1597 H 152.755 2.17298 -2.65775 0
M  V30 1598 N 155.201 0.870884 1.31352 0
M  V30 1599 C 156.612 0.534714 1.78879 0
M  V30 1600 C 156.963 -0.948423 1.71754 0
M  V30 1601 O 156.088 -1.74055 1.28584 0
M  V30 1602 C 156.683 0.963839 3.24801 0
M  V30 1603 C 155.242 0.679311 3.70219 0
M  V30 1604 C 154.389 1.15465 2.52117 0
M  V30 1605 H 157.34 1.05651 1.18421 0
M  V30 1606 H 157.361 0.286892 3.79417 0
M  V30 1607 H 156.873 2.04332 3.29955 0
M  V30 1608 H 154.974 -0.388769 3.70566 0
M  V30 1609 H 155.087 1.25698 4.62317 0
M  V30 1610 H 153.451 0.574383 2.48139 0
M  V30 1611 H 154.234 2.24157 2.60016 0
M  V30 1612 N 156.679 -1.44442 0.630414 0
M  V30 1613 C 157.925 -2.02351 0.134816 0
M  V30 1614 C 158.258 -1.4947 -1.23986 0
M  V30 1615 O 157.533 -0.678475 -1.82283 0
M  V30 1616 C 157.816 -3.59898 0.120707 0
M  V30 1617 C 157.669 -4.23063 1.52767 0
M  V30 1618 C 158.988 -4.36585 -0.555127 0
M  V30 1619 H 156.107 -0.73527 0.0504646 0
M  V30 1620 H 158.749 -1.72022 0.806751 0
M  V30 1621 H 156.899 -3.85868 -0.451477 0
M  V30 1622 H 158.571 -4.08202 2.14869 0
M  V30 1623 H 156.814 -3.80586 2.08175 0
M  V30 1624 H 157.485 -5.32071 1.46984 0
M  V30 1625 H 159.961 -4.16044 -0.0685429 0
M  V30 1626 H 158.837 -5.46294 -0.534185 0
M  V30 1627 H 159.098 -4.11138 -1.62535 0
M  V30 1628 N 158.157 -0.370918 -1.53173 0
M  V30 1629 C 159.406 0.218249 -2.00516 0
M  V30 1630 C 159.719 1.49429 -1.26215 0
M  V30 1631 O 160.925 2.16239 -1.64174 0
M  V30 1632 C 159.381 0.43948 -3.57207 0
M  V30 1633 C 158.989 -0.822244 -4.4039 0
M  V30 1634 C 160.733 0.986012 -4.1289 0
M  V30 1635 C 158.64 -0.570304 -5.88644 0
M  V30 1636 H 157.57 0.0853333 -0.749156 0
M  V30 1637 H 160.221 -0.490483 -1.76823 0
M  V30 1638 H 158.603 1.20961 -3.77074 0
M  V30 1639 H 159.777 -1.59557 -4.32294 0
M  V30 1640 H 158.092 -1.29238 -3.95836 0
M  V30 1641 H 160.689 1.18991 -5.21292 0
M  V30 1642 H 161.032 1.94972 -3.6782 0
M  V30 1643 H 161.565 0.27592 -3.96842 0
M  V30 1644 H 158.304 -1.50449 -6.38001 0
M  V30 1645 H 157.824 0.164427 -5.99575 0
M  V30 1646 H 159.503 -0.19784 -6.46697 0
M  V30 1647 N 159.635 1.57281 -0.100228 0
M  V30 1648 C 160.881 1.94826 0.563101 0
M  V30 1649 C 161.214 0.982475 1.67514 0
M  V30 1650 O 160.489 0.0164069 1.94493 0
M  V30 1651 C 160.772 3.42453 1.11346 0
M  V30 1652 C 160.625 4.498 0.00612081 0
M  V30 1653 C 161.944 3.91506 2.01024 0
M  V30 1654 H 159.063 0.708428 0.203221 0
M  V30 1655 H 161.705 1.8922 -0.171979 0
M  V30 1656 H 159.855 3.47361 1.7399 0
M  V30 1657 H 161.527 4.57 -0.628357 0
M  V30 1658 H 159.77 4.28756 -0.659581 0
M  V30 1659 H 160.441 5.50306 0.432109 0
M  V30 1660 H 162.917 3.88784 1.48278 0
M  V30 1661 H 161.793 4.95358 2.36457 0
M  V30 1662 H 162.054 3.31099 2.92961 0
M  V30 1663 N 161.113 -0.173488 1.56642 0
M  V30 1664 C 162.529 -0.525174 1.50712 0
M  V30 1665 C 162.729 -1.8476 0.804107 0
M  V30 1666 O 161.785 -2.49869 0.363574 0
M  V30 1667 C 163.098 -0.559937 2.95441 0
M  V30 1668 C 164.646 -0.647288 3.06234 0
M  V30 1669 C 165.121 -0.712963 4.52417 0
M  V30 1670 N 166.612 -0.775911 4.56655 0
M  V30 1671 C 167.347 -0.847264 5.67106 0
M  V30 1672 N 166.843 -0.879585 6.87194 0
M  V30 1673 N 168.636 -0.886117 5.55071 0
M  V30 1674 H 160.787 0.693681 2.00753 0
M  V30 1675 H 163.05 0.249841 0.914485 0
M  V30 1676 H 162.756 0.343049 3.50023 0
M  V30 1677 H 162.63 -1.40718 3.49969 0
M  V30 1678 H 165.017 -1.5407 2.51687 0
M  V30 1679 H 165.098 0.226586 2.54794 0
M  V30 1680 H 164.742 0.176183 5.07594 0
M  V30 1681 H 164.672 -1.60295 5.0161 0
M  V30 1682 H 167.163 -0.759304 3.70193 0
M  V30 1683 H 167.476 -0.935144 7.67121 0
M  V30 1684 H 165.821 -0.847898 6.89808 0
M  V30 1685 H 169.012 -0.857853 4.60172 0
M  V30 1686 H 169.185 -0.938263 6.41171 0
M  V30 1687 N 162.591 -1.51276 -0.441967 0
M  V30 1688 C 163.523 -1.68444 -1.55433 0
M  V30 1689 C 164.536 -0.565187 -1.52674 0
M  V30 1690 O 165.725 -0.839356 -1.57534 0
M  V30 1691 C 162.825 -1.67966 -2.94348 0
M  V30 1692 C 161.998 -2.964 -3.21661 0
M  V30 1693 C 161.057 -2.88171 -4.40277 0
M  V30 1694 O 160.083 -3.62119 -4.39157 0
M  V30 1695 N 161.285 -2.03706 -5.43584 0
M  V30 1696 H 164.05 -2.644 -1.41112 0
M  V30 1697 H 161.611 -1.49104 -0.630838 0
M  V30 1698 H 163.603 -1.60035 -3.71713 0
M  V30 1699 H 162.173 -0.796225 -3.0229 0
M  V30 1700 H 161.393 -3.18234 -2.32638 0
M  V30 1701 H 162.681 -3.81427 -3.36736 0
M  V30 1702 H 162.079 -1.42995 -5.47329 0
M  V30 1703 H 160.636 -2.01658 -6.1982 0
M  V30 1704 N 164.069 0.697108 -1.41344 0
M  V30 1705 C 165.315 1.4593 -1.40827 0
M  V30 1706 C 165.648 1.94193 -0.0167098 0
M  V30 1707 O 164.923 1.69425 0.955263 0
M  V30 1708 C 165.206 2.67229 -2.41373 0
M  V30 1709 C 165.059 2.24741 -3.8963 0
M  V30 1710 C 166.378 3.69423 -2.39196 0
M  V30 1711 H 163.497 0.529303 -0.512842 0
M  V30 1712 H 166.139 0.794112 -1.72609 0
M  V30 1713 H 164.289 3.23982 -2.14401 0
M  V30 1714 H 165.961 1.73327 -4.27499 0
M  V30 1715 H 164.204 1.56542 -4.0457 0
M  V30 1716 H 164.875 3.1177 -4.55525 0
M  V30 1717 H 167.351 3.2234 -2.63128 0
M  V30 1718 H 166.227 4.51907 -3.11563 0
M  V30 1719 H 166.488 4.19012 -1.41001 0
M  V30 1720 N 165.547 1.27147 0.931209 0
M  V30 1721 C 166.51 1.09615 2.01289 0
M  V30 1722 C 167.51 0.0412581 1.60747 0
M  V30 1723 O 168.7 0.285545 1.71844 0
M  V30 1724 C 165.832 0.669447 3.34262 0
M  V30 1725 H 167.025 2.05662 2.18273 0
M  V30 1726 H 164.578 1.09885 1.11153 0
M  V30 1727 H 165.313 -0.292572 3.22978 0
M  V30 1728 H 165.098 1.43127 3.65044 0
M  V30 1729 H 166.588 0.568921 4.13706 0
M  V30 1730 N 167.025 -1.13721 1.09112 0
M  V30 1731 C 168.302 -1.81155 0.737706 0
M  V30 1732 C 168.682 -1.96253 -0.777683 0
M  V30 1733 O 168.03 -1.52807 -1.69889 0
M  V30 1734 C 168.24 -3.16392 1.47299 0
M  V30 1735 C 169.588 -3.91787 1.63671 0
M  V30 1736 O 170.612 -3.26005 1.43524 0
M  V30 1737 O 169.471 -5.0977 1.96969 0
M  V30 1738 H 166.565 -0.783518 0.26463 0
M  V30 1739 H 169.111 -1.20676 1.19312 0
M  V30 1740 H 167.883 -3.0061 2.50498 0
M  V30 1741 H 167.506 -3.8457 1.00953 0
M  V30 1742 N 168.503 -0.877838 -1.30888 0
M  V30 1743 C 169.451 -0.328662 -2.30266 0
M  V30 1744 C 170.445 0.560496 -1.59859 0
M  V30 1745 O 171.651 0.445722 -1.74394 0
M  V30 1746 H 168.026 -0.0876142 -0.746879 0
M  V30 1747 H 169.997 -1.18061 -2.74051 0
M  V30 1748 C 168.746 0.448071 -3.44801 0
M  V30 1749 H 168.069 -0.226859 -3.99156 0
M  V30 1750 H 169.509 0.797541 -4.16432 0
M  V30 1751 C 167.968 1.64239 -2.94155 0
M  V30 1752 O 168.498 2.74175 -2.93583 0
M  V30 1753 N 166.704 1.47716 -2.50256 0
M  V30 1754 H 166.251 0.582821 -2.5092 0
M  V30 1755 H 166.209 2.27765 -2.16727 0
M  V30 1756 N 169.982 1.44106 -0.638065 0
M  V30 1757 C 170.912 2.33448 0.0494287 0
M  V30 1758 C 171.893 1.48606 0.827672 0
M  V30 1759 O 173.078 1.77308 0.792173 0
M  V30 1760 C 170.208 3.31771 1.02691 0
M  V30 1761 C 169.162 4.26485 0.359823 0
M  V30 1762 C 168.488 5.14729 1.44769 0
M  V30 1763 C 169.788 5.17056 -0.738296 0
M  V30 1764 H 171.482 2.91183 -0.696636 0
M  V30 1765 H 169.028 1.40014 -0.336456 0
M  V30 1766 H 170.981 3.93161 1.51666 0
M  V30 1767 H 169.705 2.7226 1.80395 0
M  V30 1768 H 168.364 3.66437 -0.10934 0
M  V30 1769 H 168.012 4.51566 2.21578 0
M  V30 1770 H 167.712 5.78913 1.00668 0
M  V30 1771 H 169.236 5.78991 1.93911 0
M  V30 1772 H 170.65 5.72342 -0.331354 0
M  V30 1773 H 169.047 5.89879 -1.10286 0
M  V30 1774 H 170.117 4.57652 -1.60258 0
M  V30 1775 N 171.46 0.379036 1.52974 0
M  V30 1776 C 172.423 -0.448865 2.24762 0
M  V30 1777 C 173.423 -0.998689 1.26027 0
M  V30 1778 O 174.613 -0.882313 1.50203 0
M  V30 1779 C 171.745 -1.62872 2.99476 0
M  V30 1780 H 172.938 0.179491 2.99362 0
M  V30 1781 H 170.491 0.13096 1.5575 0
M  V30 1782 H 171.226 -2.29479 2.29151 0
M  V30 1783 H 171.011 -1.24128 3.71934 0
M  V30 1784 H 172.501 -2.2151 3.5401 0
M  V30 1785 N 172.938 -1.57226 0.108567 0
M  V30 1786 C 173.885 -2.14756 -0.845481 0
M  V30 1787 C 174.855 -1.06971 -1.27068 0
M  V30 1788 O 176.04 -1.34827 -1.35005 0
M  V30 1789 C 173.18 -2.74298 -2.09415 0
M  V30 1790 C 172.293 -3.96358 -1.71826 0
M  V30 1791 C 171.428 -4.44021 -2.9158 0
M  V30 1792 C 170.467 -5.58637 -2.50181 0
M  V30 1793 N 169.604 -6.01091 -3.62814 0
M  V30 1794 H 174.444 -2.95961 -0.348035 0
M  V30 1795 H 171.981 -1.46226 -0.160106 0
M  V30 1796 H 173.939 -3.06945 -2.82561 0
M  V30 1797 H 172.569 -1.95801 -2.56636 0
M  V30 1798 H 171.621 -3.69939 -0.885947 0
M  V30 1799 H 172.933 -4.79504 -1.37394 0
M  V30 1800 H 172.087 -4.78522 -3.72963 0
M  V30 1801 H 170.826 -3.59803 -3.29231 0
M  V30 1802 H 169.831 -5.23751 -1.67228 0
M  V30 1803 H 171.056 -6.44613 -2.13659 0
M  V30 1804 H 169.002 -5.19817 -4.00158 0
M  V30 1805 H 168.919 -6.79066 -3.32273 0
M  V30 1806 H 170.187 -6.40227 -4.44668 0
M  V30 1807 N 174.416 0.165178 -1.56732 0
M  V30 1808 C 175.663 0.880807 -1.8234 0
M  V30 1809 C 175.991 1.81977 -0.686621 0
M  V30 1810 O 175.246 1.92971 0.325697 0
M  V30 1811 C 175.545 1.70405 -3.1416 0
M  V30 1812 C 175.211 0.913475 -4.4155 0
M  V30 1813 C 173.873 0.695303 -4.7615 0
M  V30 1814 C 176.225 0.359349 -5.1996 0
M  V30 1815 C 173.553 -0.0879947 -5.86634 0
M  V30 1816 C 175.905 -0.410893 -6.31264 0
M  V30 1817 C 174.569 -0.639808 -6.64427 0
M  V30 1818 H 173.839 0.32231 -0.667231 0
M  V30 1819 H 176.486 0.145402 -1.90947 0
M  V30 1820 H 174.791 2.50903 -3.00923 0
M  V30 1821 H 176.488 2.26091 -3.31186 0
M  V30 1822 H 173.078 1.09357 -4.14414 0
M  V30 1823 H 177.262 0.515228 -4.93618 0
M  V30 1824 H 172.518 -0.27503 -6.10781 0
M  V30 1825 H 176.692 -0.847494 -6.91224 0
M  V30 1826 H 174.319 -1.24864 -7.49875 0
M  V30 1827 N 175.894 1.51508 0.433938 0
M  V30 1828 C 176.842 1.73646 1.54757 0
M  V30 1829 C 177.836 0.602854 1.5831 0
M  V30 1830 O 179.042 0.784318 1.62014 0
M  V30 1831 H 175.417 0.548718 0.51421 0
M  V30 1832 H 177.388 2.66991 1.33261 0
M  V30 1833 C 176.137 1.88172 2.92381 0
M  V30 1834 H 175.46 2.74808 2.90381 0
M  V30 1835 H 176.9 2.07672 3.6966 0
M  V30 1836 C 175.359 0.64239 3.30719 0
M  V30 1837 O 175.889 -0.201362 4.01195 0
M  V30 1838 N 174.095 0.485489 2.86516 0
M  V30 1839 H 173.642 1.17318 2.29334 0
M  V30 1840 H 173.6 -0.342482 3.12529 0
M  V30 1841 N 177.372 -0.689602 1.41712 0
M  V30 1842 C 178.618 -1.45181 1.41599 0
M  V30 1843 C 178.951 -1.94181 0.0270081 0
M  V30 1844 O 178.226 -1.6993 -0.946265 0
M  V30 1845 C 178.509 -2.65945 2.42787 0
M  V30 1846 C 178.362 -2.22672 3.90816 0
M  V30 1847 C 179.681 -3.68149 2.41151 0
M  V30 1848 H 176.8 -0.526576 0.515642 0
M  V30 1849 H 179.442 -0.784947 1.73028 0
M  V30 1850 H 177.592 -3.2284 2.16116 0
M  V30 1851 H 179.264 -1.71058 4.28412 0
M  V30 1852 H 177.507 -1.54394 4.05395 0
M  V30 1853 H 178.178 -3.0935 4.57172 0
M  V30 1854 H 180.654 -3.2094 2.64834 0
M  V30 1855 H 179.53 -4.50248 3.13955 0
M  V30 1856 H 179.791 -4.18259 1.43221 0
M  V30 1857 N 178.85 -1.27639 -0.924453 0
M  V30 1858 C 179.798 -1.10485 -2.04685 0
M  V30 1859 C 180.792 -0.0270421 -1.69378 0
M  V30 1860 O 181.998 -0.185008 -1.79047 0
M  V30 1861 H 178.373 -0.340546 -0.670472 0
M  V30 1862 H 180.344 -2.05566 -2.16298 0
M  V30 1863 C 179.093 -0.772229 -3.39016 0
M  V30 1864 H 178.416 -1.59351 -3.66671 0
M  V30 1865 H 179.856 -0.692097 -4.18313 0
M  V30 1866 C 178.315 0.523554 -3.32807 0
M  V30 1867 O 178.845 1.55702 -3.70297 0
M  V30 1868 N 177.051 0.520363 -2.85903 0
M  V30 1869 H 176.598 -0.32107 -2.55591 0
M  V30 1870 H 176.556 1.38742 -2.82131 0
M  V30 1871 N 180.328 1.1314 -1.09713 0
M  V30 1872 C 181.261 2.17735 -0.683137 0
M  V30 1873 C 182.239 1.59582 0.311841 0
M  V30 1874 O 183.423 1.87298 0.212514 0
M  V30 1875 C 180.55 3.38699 -0.00684324 0
M  V30 1876 C 179.596 4.1546 -0.964102 0
M  V30 1877 S 180.429 4.74733 -2.47767 0
M  V30 1878 C 181.585 5.9904 -1.81387 0
M  V30 1879 H 181.818 2.52515 -1.56918 0
M  V30 1880 H 179.351 1.24484 -0.913404 0
M  V30 1881 H 181.309 4.08765 0.377044 0
M  V30 1882 H 179.97 3.02214 0.85589 0
M  V30 1883 H 179.163 5.02093 -0.43803 0
M  V30 1884 H 178.765 3.51066 -1.28953 0
M  V30 1885 H 181.057 6.67846 -1.13967 0
M  V30 1886 H 182 6.56261 -2.65947 0
M  V30 1887 H 182.408 5.4976 -1.28155 0
M  V30 1888 N 181.806 0.884767 1.30421 0
M  V30 1889 C 182.769 0.356277 2.26414 0
M  V30 1890 C 183.769 -0.501124 1.52792 0
M  V30 1891 O 184.959 -0.30831 1.7145 0
M  V30 1892 C 182.091 -0.492316 3.37326 0
M  V30 1893 H 183.284 1.20389 2.74675 0
M  V30 1894 H 180.837 0.661607 1.41607 0
M  V30 1895 H 181.572 -1.36052 2.94381 0
M  V30 1896 H 181.357 0.121832 3.91911 0
M  V30 1897 H 182.847 -0.853871 4.08777 0
M  V30 1898 N 183.284 -1.43765 0.645699 0
M  V30 1899 C 184.509 -2.06767 0.161883 0
M  V30 1900 C 184.934 -1.48034 -1.16049 0
M  V30 1901 O 184.292 -0.587369 -1.71522 0
M  V30 1902 C 184.34 -3.60519 0.0762003 0
M  V30 1903 O 183.444 -4.00982 -0.963721 0
M  V30 1904 H 182.785 -0.657675 0.091429 0
M  V30 1905 H 185.315 -1.84397 0.886499 0
M  V30 1906 H 185.325 -4.07853 -0.109604 0
M  V30 1907 H 184 -4.02646 1.04157 0
M  V30 1908 H 182.577 -3.65253 -0.751312 0
M  V30 1909 N 184.763 -0.387143 -1.52771 0
M  V30 1910 C 185.693 0.440551 -2.29306 0
M  V30 1911 C 186.674 1.06535 -1.32606 0
M  V30 1912 O 187.859 1.07853 -1.61497 0
M  V30 1913 C 184.989 1.56919 -3.09829 0
M  V30 1914 C 183.943 1.07054 -4.14395 0
M  V30 1915 C 183.269 2.29109 -4.83129 0
M  V30 1916 C 184.569 0.140015 -5.22112 0
M  V30 1917 H 186.263 -0.198026 -2.98744 0
M  V30 1918 H 183.809 -0.09668 -1.43675 0
M  V30 1919 H 185.762 2.15503 -3.62128 0
M  V30 1920 H 184.486 2.23532 -2.3812 0
M  V30 1921 H 183.145 0.507247 -3.63074 0
M  V30 1922 H 182.793 2.94227 -4.0797 0
M  V30 1923 H 182.493 1.96406 -5.53804 0
M  V30 1924 H 184.017 2.88339 -5.38231 0
M  V30 1925 H 185.431 0.633978 -5.69784 0
M  V30 1926 H 183.828 -0.0971485 -6.00021 0
M  V30 1927 H 184.898 -0.811711 -4.78058 0
M  V30 1928 N 186.241 1.57166 -0.116904 0
M  V30 1929 C 187.204 2.14039 0.819742 0
M  V30 1930 C 188.204 1.07477 1.19605 0
M  V30 1931 O 189.394 1.33263 1.1219 0
M  V30 1932 C 186.526 2.67891 2.10826 0
M  V30 1933 H 187.719 2.98128 0.325511 0
M  V30 1934 H 185.272 1.55739 0.132312 0
M  V30 1935 H 186.007 1.87384 2.64685 0
M  V30 1936 H 185.792 3.45823 1.84793 0
M  V30 1937 H 187.282 3.11809 2.77785 0
M  V30 1938 N 187.719 -0.156864 1.56817 0
M  V30 1939 C 188.965 -0.872416 1.83076 0
M  V30 1940 C 189.298 -1.81261 0.697001 0
M  V30 1941 O 188.573 -1.92171 -0.30008 0
M  V30 1942 C 188.856 -1.65551 3.19789 0
M  V30 1943 C 188.709 -0.737467 4.43713 0
M  V30 1944 C 190.028 -2.62012 3.53606 0
M  V30 1945 H 187.147 -0.315715 0.665953 0
M  V30 1946 H 189.789 -0.138004 1.89498 0
M  V30 1947 H 187.939 -2.28159 3.14445 0
M  V30 1948 H 189.611 -0.123143 4.61136 0
M  V30 1949 H 187.854 -0.0464067 4.33775 0
M  V30 1950 H 188.525 -1.32122 5.35955 0
M  V30 1951 H 191.001 -2.09525 3.59497 0
M  V30 1952 H 189.877 -3.13861 4.50314 0
M  V30 1953 H 190.138 -3.42902 2.79053 0
M  V30 1954 N 189.197 -1.51736 -0.425897 0
M  V30 1955 C 190.144 -1.73875 -1.51776 0
M  V30 1956 C 191.114 -0.580702 -1.55618 0
M  V30 1957 O 192.299 -0.81641 -1.72451 0
M  V30 1958 C 189.439 -1.88012 -2.89388 0
M  V30 1959 C 188.552 -3.15606 -2.94986 0
M  V30 1960 C 187.687 -3.20271 -4.23793 0
M  V30 1961 C 186.726 -4.42134 -4.23302 0
M  V30 1962 N 185.863 -4.44284 -5.43651 0
M  V30 1963 H 190.703 -2.67071 -1.32201 0
M  V30 1964 H 188.24 -1.32351 -0.642008 0
M  V30 1965 H 190.198 -1.9419 -3.69251 0
M  V30 1966 H 188.828 -0.98213 -3.07496 0
M  V30 1967 H 187.88 -3.18681 -2.07717 0
M  V30 1968 H 189.192 -4.05486 -2.90486 0
M  V30 1969 H 188.346 -3.25428 -5.12036 0
M  V30 1970 H 187.085 -2.28299 -4.30965 0
M  V30 1971 H 186.09 -4.3714 -3.3345 0
M  V30 1972 H 187.315 -5.35382 -4.17783 0
M  V30 1973 H 185.261 -3.55188 -5.51523 0
M  V30 1974 H 185.178 -5.27988 -5.41078 0
M  V30 1975 H 186.446 -4.53649 -6.33895 0
M  V30 1976 N 190.675 0.682077 -1.42076 0
M  V30 1977 C 191.924 1.43786 -1.41451 0
M  V30 1978 C 192.237 1.95574 -0.0317074 0
M  V30 1979 O 193.443 2.71326 0.0971462 0
M  V30 1980 C 191.899 2.60071 -2.48779 0
M  V30 1981 C 191.507 2.15013 -3.93031 0
M  V30 1982 C 193.251 3.37626 -2.57311 0
M  V30 1983 C 191.158 3.28336 -4.91883 0
M  V30 1984 H 190.088 0.540143 -0.526082 0
M  V30 1985 H 192.739 0.739157 -1.67955 0
M  V30 1986 H 191.121 3.32275 -2.15429 0
M  V30 1987 H 192.295 1.5001 -4.35699 0
M  V30 1988 H 190.61 1.50416 -3.88284 0
M  V30 1989 H 193.207 4.22012 -3.28345 0
M  V30 1990 H 193.55 3.83727 -1.61429 0
M  V30 1991 H 194.083 2.72488 -2.89819 0
M  V30 1992 H 190.822 2.87234 -5.89217 0
M  V30 1993 H 190.342 3.92145 -4.53853 0
M  V30 1994 H 192.021 3.93913 -5.13265 0
M  V30 1995 N 192.153 1.28127 0.917671 0
M  V30 1996 C 193.103 1.08361 2.00604 0
M  V30 1997 C 194.087 0.00847518 1.60898 0
M  V30 1998 O 195.279 0.228167 1.75523 0
M  V30 1999 C 192.408 0.743376 3.35155 0
M  V30 2000 C 191.494 1.85716 3.81275 0
M  V30 2001 N 191.885 3.09822 3.99805 0
M  V30 2002 C 190.183 1.74612 4.10398 0
M  V30 2003 C 190.884 3.82368 4.38372 0
M  V30 2004 N 189.86 3.10192 4.4641 0
M  V30 2005 H 193.662 2.02531 2.12975 0
M  V30 2006 H 191.176 1.18989 1.10523 0
M  V30 2007 H 193.173 0.582859 4.12805 0
M  V30 2008 H 191.833 -0.190595 3.2414 0
M  V30 2009 H 192.844 3.45475 3.85833 0
M  V30 2010 H 189.521 0.883657 4.08041 0
M  V30 2011 H 190.911 4.89082 4.60704 0
M  V30 2012 N 193.631 -1.12557 1.10312 0
M  V30 2013 C 194.908 -1.80363 0.756878 0
M  V30 2014 C 195.288 -1.97067 -0.756824 0
M  V30 2015 O 194.636 -1.54601 -1.68259 0
M  V30 2016 C 194.846 -3.14812 1.50647 0
M  V30 2017 C 196.194 -3.90029 1.67817 0
M  V30 2018 O 197.218 -3.24464 1.46974 0
M  V30 2019 O 196.077 -5.07652 2.02365 0
M  V30 2020 H 193.171 -0.780667 0.272926 0
M  V30 2021 H 195.717 -1.19404 1.20586 0
M  V30 2022 H 194.489 -2.97936 2.53672 0
M  V30 2023 H 194.112 -3.83478 1.05026 0
M  V30 2024 N 195.109 -0.891671 -1.2995 0
M  V30 2025 C 196.072 -0.36828 -2.26222 0
M  V30 2026 C 197.072 0.493014 -1.53056 0
M  V30 2027 O 198.262 0.299213 -1.71611 0
M  V30 2028 C 195.394 0.47442 -3.37583 0
M  V30 2029 H 196.587 -1.21844 -2.74033 0
M  V30 2030 H 194.14 -0.669107 -1.41254 0
M  V30 2031 H 194.875 1.34489 -2.95099 0
M  V30 2032 H 194.66 -0.142615 -3.91841 0
M  V30 2033 H 196.15 0.83218 -4.09224 0
M  V30 2034 N 196.587 1.43421 -0.653314 0
M  V30 2035 C 197.497 2.34568 0.0388565 0
M  V30 2036 C 198.513 1.53888 0.81207 0
M  V30 2037 O 199.689 1.86539 0.759294 0
M  V30 2038 C 196.754 3.32167 0.993269 0
M  V30 2039 C 195.815 4.28751 0.216977 0
M  V30 2040 C 195.048 5.21688 1.12593 0
M  V30 2041 O 195.271 5.19052 2.36519 0
M  V30 2042 O 194.205 5.98919 0.598284 0
M  V30 2043 H 198.031 2.95251 -0.711386 0
M  V30 2044 H 195.616 1.43564 -0.413502 0
M  V30 2045 H 197.498 3.92183 1.54176 0
M  V30 2046 H 196.173 2.73987 1.72374 0
M  V30 2047 H 195.08 3.72215 -0.375101 0
M  V30 2048 H 196.413 4.89913 -0.473924 0
M  V30 2049 N 198.065 0.39524 1.52563 0
M  V30 2050 C 198.975 -0.444232 2.30356 0
M  V30 2051 C 199.991 -1.06615 1.37511 0
M  V30 2052 O 201.167 -1.07067 1.70583 0
M  V30 2053 C 198.232 -1.55315 3.09964 0
M  V30 2054 C 197.293 -0.955734 4.18526 0
M  V30 2055 C 196.526 -2.01181 4.9433 0
M  V30 2056 O 196.749 -3.22781 4.70285 0
M  V30 2057 O 195.683 -1.62579 5.79527 0
M  V30 2058 H 199.509 0.189667 3.03107 0
M  V30 2059 H 197.094 0.1588 1.48554 0
M  V30 2060 H 198.976 -2.19724 3.59582 0
M  V30 2061 H 197.651 -2.17191 2.4002 0
M  V30 2062 H 196.558 -0.274743 3.7309 0
M  V30 2063 H 197.891 -0.381109 4.90722 0
M  V30 2064 N 199.544 -1.57102 0.125237 0
M  V30 2065 C 200.474 -2.18659 -0.819174 0
M  V30 2066 C 201.455 -1.12843 -1.27281 0
M  V30 2067 O 202.64 -1.41104 -1.33429 0
M  V30 2068 C 199.77 -2.79096 -2.06695 0
M  V30 2069 C 198.724 -3.90548 -1.75088 0
M  V30 2070 C 198.05 -4.37821 -3.06948 0
M  V30 2071 C 199.35 -5.12356 -1.01435 0
M  V30 2072 H 201.044 -2.9783 -0.306202 0
M  V30 2073 H 198.59 -1.4326 -0.145839 0
M  V30 2074 H 200.543 -3.2082 -2.73226 0
M  V30 2075 H 199.267 -1.97223 -2.60328 0
M  V30 2076 H 197.926 -3.49409 -1.10944 0
M  V30 2077 H 197.574 -3.52799 -3.58527 0
M  V30 2078 H 197.274 -5.12982 -2.86571 0
M  V30 2079 H 198.798 -4.822 -3.74587 0
M  V30 2080 H 200.212 -5.5106 -1.58132 0
M  V30 2081 H 198.609 -5.9314 -0.911319 0
M  V30 2082 H 199.679 -4.849 -0.00218681 0
M  V30 2083 N 201.022 0.148545 -1.56898 0
M  V30 2084 C 202.269 0.861418 -1.83264 0
M  V30 2085 C 202.597 1.81239 -0.705883 0
M  V30 2086 O 201.852 1.93305 0.305212 0
M  V30 2087 C 202.151 1.67064 -3.1595 0
M  V30 2088 C 201.817 0.866591 -4.42494 0
M  V30 2089 C 200.479 0.644762 -4.76861 0
M  V30 2090 C 202.831 0.30418 -5.20312 0
M  V30 2091 C 200.159 -0.15021 -5.86508 0
M  V30 2092 C 202.511 -0.477824 -6.30793 0
M  V30 2093 C 201.175 -0.710244 -6.63711 0
M  V30 2094 H 200.445 0.315215 -0.670612 0
M  V30 2095 H 203.092 0.125142 -1.91091 0
M  V30 2096 H 201.397 2.47698 -3.03567 0
M  V30 2097 H 203.094 2.22566 -3.33565 0
M  V30 2098 H 199.684 1.04955 -4.15551 0
M  V30 2099 H 203.868 0.462844 -4.94137 0
M  V30 2100 H 199.124 -0.339796 -6.10455 0
M  V30 2101 H 203.298 -0.92076 -6.90286 0
M  V30 2102 H 200.925 -1.3281 -7.48509 0
M  V30 2103 N 202.5 1.5196 0.417844 0
M  V30 2104 C 203.448 1.75278 1.52907 0
M  V30 2105 C 204.442 0.619611 1.57662 0
M  V30 2106 O 205.648 0.801457 1.61173 0
M  V30 2107 H 202.023 0.554141 0.508362 0
M  V30 2108 H 203.994 2.68389 1.30422 0
M  V30 2109 C 202.743 1.91262 2.90369 0
M  V30 2110 H 202.066 2.77872 2.8745 0
M  V30 2111 H 203.506 2.11581 3.67436 0
M  V30 2112 C 201.965 0.677431 3.30019 0
M  V30 2113 O 202.495 -0.158799 4.01386 0
M  V30 2114 N 200.701 0.515851 2.85985 0
M  V30 2115 H 200.248 1.19744 2.28077 0
M  V30 2116 H 200.206 -0.309315 3.12875 0
M  V30 2117 N 203.978 -0.674533 1.42435 0
M  V30 2118 C 205.389 -1.25514 1.38214 0
M  V30 2119 C 205.74 -1.96055 0.0755464 0
M  V30 2120 O 204.865 -2.00028 -0.8257 0
M  V30 2121 C 205.46 -2.28269 2.50357 0
M  V30 2122 C 204.019 -2.81856 2.49467 0
M  V30 2123 C 203.166 -1.56182 2.29134 0
M  V30 2124 H 206.117 -0.467902 1.51646 0
M  V30 2125 H 206.138 -3.10009 2.20624 0
M  V30 2126 H 205.65 -1.769 3.45439 0
M  V30 2127 H 203.751 -3.37346 1.58204 0
M  V30 2128 H 203.864 -3.30854 3.46515 0
M  V30 2129 H 202.228 -1.82761 1.774 0
M  V30 2130 H 203.011 -1.06778 3.26272 0
M  V30 2131 N 205.456 -1.28612 -0.910864 0
M  V30 2132 C 206.404 -1.1265 -2.03501 0
M  V30 2133 C 207.398 -0.0450054 -1.6934 0
M  V30 2134 O 208.604 -0.203988 -1.7884 0
M  V30 2135 H 204.979 -0.347639 -0.666822 0
M  V30 2136 H 206.95 -2.07849 -2.14106 0
M  V30 2137 C 205.699 -0.808143 -3.38178 0
M  V30 2138 H 205.022 -1.63231 -3.6496 0
M  V30 2139 H 206.462 -0.736426 -4.17556 0
M  V30 2140 C 204.921 0.488226 -3.33344 0
M  V30 2141 O 205.451 1.51766 -3.71927 0
M  V30 2142 N 203.657 0.490009 -2.86439 0
M  V30 2143 H 203.204 -0.348161 -2.55236 0
M  V30 2144 H 203.162 1.35741 -2.83587 0
M  V30 2145 N 206.934 1.1197 -1.10907 0
M  V30 2146 C 207.897 2.16031 -0.765707 0
M  V30 2147 C 208.897 1.59393 0.212235 0
M  V30 2148 O 210.087 1.74196 -0.0115441 0
M  V30 2149 C 207.219 3.40632 -0.135053 0
M  V30 2150 H 208.412 2.47919 -1.68748 0
M  V30 2151 H 205.965 1.27061 -0.910226 0
M  V30 2152 H 206.7 3.14348 0.797218 0
M  V30 2153 H 206.485 3.8302 -0.838937 0
M  V30 2154 H 207.975 4.17505 0.0892469 0
M  V30 2155 N 208.412 0.89855 1.29475 0
M  V30 2156 C 209.658 0.524658 1.95896 0
M  V30 2157 C 209.991 -0.926468 1.70676 0
M  V30 2158 O 209.266 -1.65665 1.01908 0
M  V30 2159 C 209.549 0.81633 3.50725 0
M  V30 2160 C 209.402 2.31907 3.85408 0
M  V30 2161 C 210.721 0.302038 4.39062 0
M  V30 2162 H 207.84 0.19209 0.711527 0
M  V30 2163 H 210.482 1.12502 1.53112 0
M  V30 2164 H 208.632 0.305369 3.87298 0
M  V30 2165 H 210.304 2.89949 3.58786 0
M  V30 2166 H 208.547 2.78027 3.32992 0
M  V30 2167 H 209.218 2.47373 4.93468 0
M  V30 2168 H 211.694 0.739551 4.09475 0
M  V30 2169 H 210.57 0.535331 5.46283 0
M  V30 2170 H 210.831 -0.797216 4.34853 0
M  V30 2171 N 209.89 -1.43072 0.660911 0
M  V30 2172 C 210.837 -2.30785 -0.0259884 0
M  V30 2173 C 211.807 -1.45184 -0.806888 0
M  V30 2174 O 212.992 -1.74041 -0.781943 0
M  V30 2175 C 210.132 -3.30861 -0.981067 0
M  V30 2176 C 209.245 -4.31558 -0.195458 0
M  V30 2177 C 208.38 -5.18712 -1.14503 0
M  V30 2178 C 207.419 -6.11097 -0.350299 0
M  V30 2179 N 206.556 -6.90849 -1.25186 0
M  V30 2180 H 211.396 -2.88975 0.727846 0
M  V30 2181 H 208.933 -1.42353 0.370682 0
M  V30 2182 H 210.891 -3.87399 -1.54849 0
M  V30 2183 H 209.521 -2.74304 -1.70169 0
M  V30 2184 H 208.573 -3.77252 0.488374 0
M  V30 2185 H 209.885 -4.9701 0.422176 0
M  V30 2186 H 209.039 -5.79914 -1.78284 0
M  V30 2187 H 207.778 -4.53404 -1.79656 0
M  V30 2188 H 206.783 -5.48976 0.300808 0
M  V30 2189 H 208.008 -6.7845 0.296941 0
M  V30 2190 H 205.954 -6.28182 -1.89005 0
M  V30 2191 H 205.871 -7.52854 -0.688971 0
M  V30 2192 H 207.139 -7.5655 -1.87757 0
M  V30 2193 N 211.368 -0.403325 -1.52352 0
M  V30 2194 C 212.614 0.174605 -2.02047 0
M  V30 2195 C 212.947 1.45282 -1.28867 0
M  V30 2196 O 212.222 1.90483 -0.393257 0
M  V30 2197 C 212.505 0.428238 -3.57545 0
M  V30 2198 C 212.358 -0.866248 -4.4138 0
M  V30 2199 C 213.677 1.21287 -4.23057 0
M  V30 2200 H 210.796 0.0619851 -0.734389 0
M  V30 2201 H 213.438 -0.53565 -1.82293 0
M  V30 2202 H 211.588 1.03327 -3.74507 0
M  V30 2203 H 213.26 -1.50265 -4.3614 0
M  V30 2204 H 211.503 -1.47851 -4.07827 0
M  V30 2205 H 212.174 -0.643249 -5.48239 0
M  V30 2206 H 214.65 0.700703 -4.10158 0
M  V30 2207 H 213.526 1.35909 -5.31808 0
M  V30 2208 H 213.787 2.23193 -3.81625 0
M  V30 2209 N 212.846 1.57033 -0.133567 0
M  V30 2210 C 213.776 2.1909 0.807567 0
M  V30 2211 C 214.757 1.13517 1.26681 0
M  V30 2212 O 215.942 1.41809 1.32679 0
M  V30 2213 C 213.072 2.80188 2.05212 0
M  V30 2214 C 212.026 3.91471 1.73015 0
M  V30 2215 C 211.352 4.39443 3.04622 0
M  V30 2216 C 212.652 5.12886 0.987168 0
M  V30 2217 H 214.346 2.97988 0.290403 0
M  V30 2218 H 211.892 1.43335 0.138239 0
M  V30 2219 H 213.845 3.22264 2.71521 0
M  V30 2220 H 212.569 1.98601 2.59278 0
M  V30 2221 H 211.228 3.49993 1.0909 0
M  V30 2222 H 210.876 3.54695 3.56651 0
M  V30 2223 H 210.576 5.14495 2.83847 0
M  V30 2224 H 212.1 4.8418 3.72024 0
M  V30 2225 H 213.514 5.51891 1.55208 0
M  V30 2226 H 211.911 5.93615 0.87985 0
M  V30 2227 H 212.981 4.84894 -0.0235286 0
M  V30 2228 N 214.325 -0.140222 1.56975 0
M  V30 2229 C 215.553 -0.866437 1.87884 0
M  V30 2230 C 215.968 -1.74428 0.722517 0
M  V30 2231 O 215.325 -1.79891 -0.30749 0
M  V30 2232 C 215.376 -1.71753 3.18093 0
M  V30 2233 O 215.097 -0.875056 4.29272 0
M  V30 2234 C 216.598 -2.55074 3.62563 0
M  V30 2235 H 213.818 -0.25019 0.622612 0
M  V30 2236 H 216.362 -0.130977 2.0408 0
M  V30 2237 H 214.517 -2.40598 3.03631 0
M  V30 2238 H 214.931 -1.46002 5.03769 0
M  V30 2239 H 216.405 -3.10356 4.5649 0
M  V30 2240 H 216.882 -3.31434 2.88181 0
M  V30 2241 H 217.488 -1.91509 3.79743 0
M  V30 2242 N 215.803 -1.52179 -0.40978 0
M  V30 2243 C 217.08 -1.56769 -1.16974 0
M  V30 2244 C 217.46 -0.348322 -2.08206 0
M  V30 2245 O 216.808 0.664862 -2.18613 0
M  V30 2246 C 217.018 -2.89603 -1.9476 0
M  V30 2247 C 218.366 -3.42579 -2.50849 0
M  V30 2248 O 219.39 -2.91338 -2.04941 0
M  V30 2249 O 218.249 -4.32054 -3.34652 0
M  V30 2250 H 215.343 -0.631439 -0.534054 0
M  V30 2251 H 217.889 -1.64507 -0.416613 0
M  V30 2252 H 216.661 -3.698 -1.27921 0
M  V30 2253 H 216.284 -2.85155 -2.77079 0
M  V30 2254 N 217.281 0.66697 -1.42791 0
M  V30 2255 C 218.228 1.7803 -1.4688 0
M  V30 2256 C 219.198 1.6299 -0.319919 0
M  V30 2257 O 220.383 1.83432 -0.525118 0
M  V30 2258 C 217.523 3.1611 -1.38451 0
M  V30 2259 C 216.636 3.42381 -2.63437 0
M  V30 2260 C 215.771 4.70232 -2.47094 0
M  V30 2261 C 214.81 4.89564 -3.67415 0
M  V30 2262 N 213.947 6.08661 -3.49966 0
M  V30 2263 H 218.787 1.7387 -2.42019 0
M  V30 2264 H 216.324 0.84868 -1.20149 0
M  V30 2265 H 218.282 3.95914 -1.31561 0
M  V30 2266 H 216.912 3.19374 -0.469033 0
M  V30 2267 H 215.964 2.56774 -2.80662 0
M  V30 2268 H 217.276 3.52557 -3.52853 0
M  V30 2269 H 216.43 5.5814 -2.37834 0
M  V30 2270 H 215.169 4.62353 -1.5518 0
M  V30 2271 H 214.174 4.00096 -3.77099 0
M  V30 2272 H 215.399 4.99282 -4.6032 0
M  V30 2273 H 213.345 6.0194 -2.60776 0
M  V30 2274 H 213.262 6.19733 -4.32975 0
M  V30 2275 H 214.53 6.99226 -3.44532 0
M  V30 2276 N 218.759 1.29093 0.90403 0
M  V30 2277 C 220.036 1.075 1.63411 0
M  V30 2278 C 220.416 -0.382346 2.07609 0
M  V30 2279 O 219.764 -1.37031 1.82851 0
M  V30 2280 C 219.974 2.05858 2.81822 0
M  V30 2281 C 221.322 2.36539 3.52611 0
M  V30 2282 O 222.346 2.04019 2.91984 0
M  V30 2283 O 221.205 2.92085 4.61897 0
M  V30 2284 H 218.299 0.411547 0.717327 0
M  V30 2285 H 220.845 1.40449 0.952479 0
M  V30 2286 H 219.617 3.04037 2.46327 0
M  V30 2287 H 219.24 1.73613 3.57693 0
M  V30 2288 N 220.237 -1.11381 1.11499 0
M  V30 2289 C 221.485 -1.8277 0.862524 0
M  V30 2290 C 221.806 -1.85097 -0.613534 0
M  V30 2291 O 221.076 -1.32198 -1.4457 0
M  V30 2292 H 219.656 -0.676823 0.316101 0
M  V30 2293 H 222.318 -1.34816 1.4075 0
M  V30 2294 H 221.414 -2.86614 1.23527 0
M  V30 2295 N 221.715 -0.905404 -1.28997 0
M  V30 2296 C 222.945 -0.549049 -1.99171 0
M  V30 2297 C 223.353 0.87203 -1.67906 0
M  V30 2298 O 222.696 1.58796 -0.923561 0
M  V30 2299 C 222.758 -0.668306 -3.53234 0
M  V30 2300 C 222.422 -2.0574 -4.08069 0
M  V30 2301 C 223.419 -3.0292 -4.22534 0
M  V30 2302 C 221.104 -2.36833 -4.42962 0
M  V30 2303 C 223.098 -4.29314 -4.71135 0
M  V30 2304 C 220.785 -3.63467 -4.91258 0
M  V30 2305 C 221.783 -4.59522 -5.053 0
M  V30 2306 O 221.471 -5.83907 -5.52546 0
M  V30 2307 H 221.203 -0.208784 -0.64295 0
M  V30 2308 H 223.757 -1.21836 -1.65363 0
M  V30 2309 H 221.987 0.0580547 -3.86656 0
M  V30 2310 H 223.676 -0.320273 -4.04634 0
M  V30 2311 H 224.442 -2.80216 -3.95859 0
M  V30 2312 H 220.321 -1.62824 -4.31288 0
M  V30 2313 H 223.865 -5.04293 -4.8201 0
M  V30 2314 H 219.762 -3.86 -5.17372 0
M  V30 2315 H 220.53 -5.86578 -5.70849 0
M  V30 2316 N 223.193 1.4272 -0.668489 0
M  V30 2317 C 224.439 2.01923 -0.188419 0
M  V30 2318 C 224.772 1.52704 1.19979 0
M  V30 2319 O 224.047 0.726566 1.8042 0
M  V30 2320 C 224.33 3.59451 -0.216085 0
M  V30 2321 C 224.183 4.18864 -1.6393 0
M  V30 2322 C 225.502 4.37903 0.439179 0
M  V30 2323 H 222.621 0.733674 -0.0699412 0
M  V30 2324 H 225.263 1.69822 -0.852076 0
M  V30 2325 H 223.413 3.86929 0.349012 0
M  V30 2326 H 225.085 4.02362 -2.25616 0
M  V30 2327 H 223.328 3.74933 -2.18193 0
M  V30 2328 H 223.999 5.27987 -1.61039 0
M  V30 2329 H 226.475 4.16079 -0.0417878 0
M  V30 2330 H 225.351 5.47519 0.389157 0
M  V30 2331 H 225.612 4.15303 1.51577 0
M  V30 2332 N 224.671 0.411399 1.52136 0
M  V30 2333 C 225.601 -0.404015 2.29978 0
M  V30 2334 C 226.582 -1.04412 1.34284 0
M  V30 2335 O 227.767 -1.0527 1.63192 0
M  V30 2336 C 224.897 -1.5197 3.12286 0
M  V30 2337 C 223.851 -1.00448 4.16046 0
M  V30 2338 C 223.177 -2.21393 4.86712 0
M  V30 2339 C 224.477 -0.0569336 5.22269 0
M  V30 2340 H 226.171 0.245529 2.98392 0
M  V30 2341 H 223.717 0.119525 1.43503 0
M  V30 2342 H 225.67 -2.09715 3.6551 0
M  V30 2343 H 224.394 -2.19716 2.41646 0
M  V30 2344 H 223.053 -0.449421 3.63835 0
M  V30 2345 H 222.701 -2.87699 4.12599 0
M  V30 2346 H 222.401 -1.87571 5.56858 0
M  V30 2347 H 223.925 -2.7974 5.4275 0
M  V30 2348 H 225.339 -0.54325 5.7072 0
M  V30 2349 H 223.736 0.192594 5.99791 0
M  V30 2350 H 224.806 0.887663 4.76706 0
M  V30 2351 N 226.149 -1.5696 0.141893 0
M  V30 2352 C 227.379 -2.00031 -0.516828 0
M  V30 2353 C 227.787 -1.02091 -1.59293 0
M  V30 2354 O 227.13 -0.00909657 -1.83698 0
M  V30 2355 C 227.192 -3.39534 -1.1814 0
M  V30 2356 C 226.856 -4.56313 -0.250513 0
M  V30 2357 C 227.853 -5.17295 0.519839 0
M  V30 2358 C 225.538 -5.02061 -0.154907 0
M  V30 2359 C 227.532 -6.2243 1.3733 0
M  V30 2360 C 225.219 -6.07053 0.702161 0
M  V30 2361 C 226.217 -6.67106 1.46487 0
M  V30 2362 O 225.905 -7.70066 2.30767 0
M  V30 2363 H 225.637 -0.661451 -0.139493 0
M  V30 2364 H 228.191 -2.04086 0.231926 0
M  V30 2365 H 226.421 -3.32302 -1.97769 0
M  V30 2366 H 228.11 -3.66745 -1.73933 0
M  V30 2367 H 228.876 -4.82852 0.45598 0
M  V30 2368 H 224.755 -4.5505 -0.7383 0
M  V30 2369 H 228.299 -6.69233 1.96909 0
M  V30 2370 H 224.196 -6.40923 0.76733 0
M  V30 2371 H 224.964 -7.87264 2.23959 0
M  V30 2372 N 227.627 0.131896 -1.57047 0
M  V30 2373 C 228.874 0.841932 -1.84168 0
M  V30 2374 C 229.202 1.8048 -0.725066 0
M  V30 2375 O 228.457 1.93618 0.284692 0
M  V30 2376 C 228.756 1.63703 -3.17704 0
M  V30 2377 C 228.422 0.81961 -4.43388 0
M  V30 2378 C 227.084 0.594148 -4.77518 0
M  V30 2379 C 229.436 0.248977 -5.20605 0
M  V30 2380 C 226.764 -0.212409 -5.86315 0
M  V30 2381 C 229.116 -0.544701 -6.30251 0
M  V30 2382 C 227.78 -0.780599 -6.6292 0
M  V30 2383 H 227.05 0.308085 -0.673917 0
M  V30 2384 H 229.697 0.104867 -1.91213 0
M  V30 2385 H 228.002 2.44464 -3.06177 0
M  V30 2386 H 229.699 2.19015 -3.35907 0
M  V30 2387 H 226.289 1.00542 -4.16641 0
M  V30 2388 H 230.473 0.410408 -4.946 0
M  V30 2389 H 225.729 -0.404524 -6.1006 0
M  V30 2390 H 229.903 -0.993922 -6.89271 0
M  V30 2391 H 227.53 -1.40742 -7.47058 0
M  V30 2392 N 229.106 1.52395 0.401703 0
M  V30 2393 C 230.331 1.70972 1.17403 0
M  V30 2394 C 230.756 0.421615 1.83314 0
M  V30 2395 O 230.114 -0.621564 1.70312 0
M  V30 2396 C 230.162 2.85151 2.20728 0
M  V30 2397 O 229.266 2.51238 3.27037 0
M  V30 2398 H 228.607 0.568927 0.342372 0
M  V30 2399 H 231.137 1.99131 0.469891 0
M  V30 2400 H 231.147 3.10279 2.64936 0
M  V30 2401 H 229.822 3.78603 1.7214 0
M  V30 2402 H 228.399 2.36808 2.88057 0
M  V30 2403 N 230.584 -0.659388 1.43143 0
M  V30 2404 C 232 -0.974337 1.26407 0
M  V30 2405 C 232.2 -2.007 0.179341 0
M  V30 2406 O 231.256 -2.4856 -0.444295 0
M  V30 2407 C 232.569 -1.46447 2.62628 0
M  V30 2408 C 234.117 -1.58144 2.7011 0
M  V30 2409 C 234.592 -2.1055 4.06734 0
M  V30 2410 N 236.083 -2.17861 4.08767 0
M  V30 2411 C 236.818 -2.59519 5.1131 0
M  V30 2412 N 236.314 -3.00518 6.24228 0
M  V30 2413 N 238.107 -2.59404 4.98664 0
M  V30 2414 H 230.258 0.0240528 2.12386 0
M  V30 2415 H 232.521 -0.0518065 0.946583 0
M  V30 2416 H 232.227 -0.780123 3.42939 0
M  V30 2417 H 232.101 -2.44058 2.87603 0
M  V30 2418 H 234.488 -2.25682 1.90136 0
M  V30 2419 H 234.569 -0.589828 2.48907 0
M  V30 2420 H 234.213 -1.43616 4.87172 0
M  V30 2421 H 234.143 -3.10531 4.25298 0
M  V30 2422 H 236.634 -1.88975 3.27257 0
M  V30 2423 H 236.947 -3.31036 6.98309 0
M  V30 2424 H 235.292 -2.98337 6.2771 0
M  V30 2425 H 238.483 -2.26747 4.09516 0
M  V30 2426 H 238.656 -2.91548 5.78709 0
M  V30 2427 N 232.062 -1.29571 -0.897171 0
M  V30 2428 C 233.287 -1.20705 -1.68656 0
M  V30 2429 C 233.712 0.228582 -1.86706 0
M  V30 2430 O 233.07 1.16494 -1.3892 0
M  V30 2431 C 233.118 -1.9282 -3.04717 0
M  V30 2432 O 232.222 -1.24697 -3.93096 0
M  V30 2433 H 231.563 -0.418126 -0.515816 0
M  V30 2434 H 234.093 -1.71183 -1.12061 0
M  V30 2435 H 234.103 -2.01372 -3.54843 0
M  V30 2436 H 232.778 -2.97239 -2.90899 0
M  V30 2437 H 231.355 -1.2442 -3.51531 0
M  V30 2438 N 233.54 1.10788 -1.12088 0
M  V30 2439 C 234.786 1.82942 -0.875226 0
M  V30 2440 C 235.119 1.84779 0.597538 0
M  V30 2441 O 234.394 1.30578 1.44152 0
M  V30 2442 C 234.677 3.29789 -1.44606 0
M  V30 2443 C 234.53 3.36307 -2.98693 0
M  V30 2444 C 235.849 4.26064 -1.10261 0
M  V30 2445 H 232.968 0.664195 -0.319397 0
M  V30 2446 H 235.61 1.29867 -1.38689 0
M  V30 2447 H 233.76 3.75118 -1.01089 0
M  V30 2448 H 235.432 2.99487 -3.50864 0
M  V30 2449 H 233.675 2.76318 -3.34411 0
M  V30 2450 H 234.346 4.39694 -3.33726 0
M  V30 2451 H 236.822 3.88951 -1.4784 0
M  V30 2452 H 235.698 5.27183 -1.52869 0
M  V30 2453 H 235.959 4.42098 -0.0142953 0
M  V30 2454 N 235.018 0.912232 1.28515 0
M  V30 2455 C 236.267 0.540504 1.94323 0
M  V30 2456 C 236.58 -0.920044 1.72611 0
M  V30 2457 O 237.786 -1.39986 2.32629 0
M  V30 2458 C 236.242 0.915803 3.48053 0
M  V30 2459 C 235.85 2.39598 3.78546 0
M  V30 2460 C 237.594 0.614588 4.20027 0
M  V30 2461 C 235.501 2.71148 5.25578 0
M  V30 2462 H 234.431 0.198418 0.727424 0
M  V30 2463 H 237.082 1.11094 1.46049 0
M  V30 2464 H 235.464 0.274168 3.9505 0
M  V30 2465 H 236.638 3.08422 3.42364 0
M  V30 2466 H 234.953 2.66749 3.1974 0
M  V30 2467 H 237.55 0.827002 5.28266 0
M  V30 2468 H 237.893 -0.447531 4.13887 0
M  V30 2469 H 238.426 1.21462 3.78803 0
M  V30 2470 H 235.165 3.76207 5.36794 0
M  V30 2471 H 234.685 2.0696 5.62963 0
M  V30 2472 H 236.364 2.58072 5.93302 0
M  V30 2473 N 236.496 -1.42363 0.676048 0
M  V30 2474 C 237.907 -1.84649 0.275948 0
M  V30 2475 C 238.258 -1.56588 -1.18214 0
M  V30 2476 O 237.383 -1.02634 -1.90513 0
M  V30 2477 C 237.978 -3.35178 0.494053 0
M  V30 2478 C 236.537 -3.76109 0.148061 0
M  V30 2479 C 235.684 -2.65931 0.785891 0
M  V30 2480 H 238.635 -1.32192 0.878121 0
M  V30 2481 H 238.656 -3.79655 -0.25343 0
M  V30 2482 H 238.168 -3.55571 1.55535 0
M  V30 2483 H 236.269 -3.61323 -0.909742 0
M  V30 2484 H 236.382 -4.7546 0.589454 0
M  V30 2485 H 234.746 -2.53773 0.217113 0
M  V30 2486 H 235.529 -2.89146 1.85067 0
M  V30 2487 N 237.974 -0.419461 -1.51915 0
M  V30 2488 C 239.204 0.151915 -2.06041 0
M  V30 2489 C 239.612 1.38539 -1.28855 0
M  V30 2490 O 238.955 1.80592 -0.336463 0
M  V30 2491 C 239.017 0.557119 -3.55157 0
M  V30 2492 C 238.681 -0.567054 -4.53468 0
M  V30 2493 C 239.678 -1.43379 -4.99738 0
M  V30 2494 C 237.363 -0.742693 -4.96779 0
M  V30 2495 C 239.357 -2.46102 -5.87973 0
M  V30 2496 C 237.044 -1.77322 -5.84808 0
M  V30 2497 C 238.042 -2.63078 -6.30301 0
M  V30 2498 O 237.73 -3.64364 -7.16585 0
M  V30 2499 H 237.462 0.0193293 -0.675724 0
M  V30 2500 H 240.016 -0.592073 -1.96682 0
M  V30 2501 H 238.246 1.35355 -3.62238 0
M  V30 2502 H 239.935 1.05759 -3.9188 0
M  V30 2503 H 240.701 -1.30954 -4.66986 0
M  V30 2504 H 236.58 -0.0848307 -4.60922 0
M  V30 2505 H 240.124 -3.13071 -6.23404 0
M  V30 2506 H 236.021 -1.89773 -6.16974 0
M  V30 2507 H 236.789 -3.60731 -7.34721 0
M  V30 2508 N 239.452 1.56882 -0.150215 0
M  V30 2509 C 240.729 1.87844 0.545327 0
M  V30 2510 C 241.109 1.0567 1.82749 0
M  V30 2511 O 240.457 0.144442 2.28043 0
M  V30 2512 C 240.667 3.39526 0.80767 0
M  V30 2513 C 242.015 4.08814 1.14703 0
M  V30 2514 O 243.039 3.44723 0.896917 0
M  V30 2515 O 241.898 5.22004 1.61784 0
M  V30 2516 H 238.992 0.778677 0.278553 0
M  V30 2517 H 241.538 1.68666 -0.187068 0
M  V30 2518 H 240.31 3.91173 -0.0996096 0
M  V30 2519 H 239.933 3.64243 1.59413 0
M  V30 2520 N 240.93 -0.123565 1.57115 0
M  V30 2521 C 242.346 -0.476961 1.52306 0
M  V30 2522 C 242.546 -1.82109 0.86248 0
M  V30 2523 O 241.602 -2.48586 0.442884 0
M  V30 2524 C 242.915 -0.465661 2.97073 0
M  V30 2525 C 244.463 -0.549534 3.08138 0
M  V30 2526 C 244.938 -0.568669 4.54456 0
M  V30 2527 N 246.429 -0.630237 4.58892 0
M  V30 2528 C 247.164 -0.666415 5.69514 0
M  V30 2529 N 246.66 -0.660514 6.89644 0
M  V30 2530 N 248.453 -0.709077 5.5761 0
M  V30 2531 H 240.604 0.757198 1.98445 0
M  V30 2532 H 242.867 0.278808 0.906074 0
M  V30 2533 H 242.573 0.454232 3.48754 0
M  V30 2534 H 242.447 -1.29513 3.54269 0
M  V30 2535 H 244.834 -1.45985 2.56461 0
M  V30 2536 H 244.915 0.307532 2.53945 0
M  V30 2537 H 244.559 0.337581 5.06777 0
M  V30 2538 H 244.489 -1.44256 5.06456 0
M  V30 2539 H 246.98 -0.641146 3.72421 0
M  V30 2540 H 247.293 -0.690616 7.69708 0
M  V30 2541 H 245.638 -0.628012 6.92157 0
M  V30 2542 H 248.829 -0.711019 4.62668 0
M  V30 2543 H 249.002 -0.733804 6.43832 0
M  V30 2544 N 242.408 -1.52605 -0.393616 0
M  V30 2545 C 243.685 -1.58001 -1.15304 0
M  V30 2546 C 244.065 -0.370385 -2.07825 0
M  V30 2547 O 243.413 0.641638 -2.19306 0
M  V30 2548 C 243.623 -2.91652 -1.91677 0
M  V30 2549 C 244.971 -3.4522 -2.47201 0
M  V30 2550 O 245.995 -2.93495 -2.01839 0
M  V30 2551 O 244.854 -4.35579 -3.3005 0
M  V30 2552 H 241.948 -0.637068 -0.527327 0
M  V30 2553 H 244.494 -1.64939 -0.399141 0
M  V30 2554 H 243.266 -3.71136 -1.23992 0
M  V30 2555 H 242.889 -2.88077 -2.74039 0
M  V30 2556 N 243.887 0.651787 -1.4349 0
M  V30 2557 C 244.819 1.77725 -1.44729 0
M  V30 2558 C 245.832 1.59141 -0.343231 0
M  V30 2559 O 247.021 1.67835 -0.607751 0
M  V30 2560 C 244.121 3.15172 -1.24579 0
M  V30 2561 C 243.294 3.60402 -2.47849 0
M  V30 2562 C 242.353 4.76656 -2.22902 0
M  V30 2563 O 241.379 4.86022 -2.96263 0
M  V30 2564 N 242.581 5.66958 -1.24656 0
M  V30 2565 H 245.346 1.77141 -2.41746 0
M  V30 2566 H 242.907 0.835678 -1.38665 0
M  V30 2567 H 244.899 3.90634 -1.0577 0
M  V30 2568 H 243.469 3.1052 -0.360015 0
M  V30 2569 H 242.689 2.75369 -2.82073 0
M  V30 2570 H 243.977 3.87368 -3.29884 0
M  V30 2571 H 243.375 5.62065 -0.640265 0
M  V30 2572 H 241.932 6.42135 -1.1183 0
M  V30 2573 N 245.365 1.30045 0.890287 0
M  V30 2574 C 246.612 1.18561 1.64163 0
M  V30 2575 C 246.94 -0.260852 1.92743 0
M  V30 2576 O 246.195 -1.20376 1.54299 0
M  V30 2577 C 246.494 1.95409 2.99249 0
M  V30 2578 C 246.16 3.45066 2.90242 0
M  V30 2579 C 244.822 3.85878 2.87492 0
M  V30 2580 C 247.174 4.4039 2.78758 0
M  V30 2581 C 244.502 5.20314 2.7109 0
M  V30 2582 C 246.854 5.74928 2.63894 0
M  V30 2583 C 245.518 6.14986 2.59516 0
M  V30 2584 H 244.788 0.433846 0.600715 0
M  V30 2585 H 247.435 1.61088 1.03552 0
M  V30 2586 H 245.74 1.45501 3.63781 0
M  V30 2587 H 247.437 1.8392 3.56334 0
M  V30 2588 H 244.027 3.12631 2.93189 0
M  V30 2589 H 248.211 4.09806 2.79952 0
M  V30 2590 H 243.467 5.50449 2.66112 0
M  V30 2591 H 247.641 6.48434 2.53981 0
M  V30 2592 H 245.268 7.19104 2.46565 0
M  V30 2593 N 246.843 -1.10192 1.12674 0
M  V30 2594 C 247.776 -2.15847 0.740625 0
M  V30 2595 C 248.754 -1.60352 -0.269421 0
M  V30 2596 O 249.938 -1.87796 -0.16278 0
M  V30 2597 C 247.065 -3.38562 0.096641 0
M  V30 2598 C 246.111 -4.12758 1.07391 0
M  V30 2599 S 246.944 -4.67997 2.60267 0
M  V30 2600 C 248.1 -5.94021 1.97206 0
M  V30 2601 H 248.333 -2.48266 1.63558 0
M  V30 2602 H 245.866 -1.22019 0.946087 0
M  V30 2603 H 247.824 -4.09621 -0.268535 0
M  V30 2604 H 246.485 -3.04377 -0.775462 0
M  V30 2605 H 245.678 -5.00755 0.570997 0
M  V30 2606 H 245.28 -3.47523 1.38216 0
M  V30 2607 H 247.572 -6.64589 1.31634 0
M  V30 2608 H 248.515 -6.48979 2.83253 0
M  V30 2609 H 248.923 -5.46169 1.42686 0
M  V30 2610 N 248.321 -0.919034 -1.28029 0
M  V30 2611 C 249.269 -0.401753 -2.29104 0
M  V30 2612 C 250.263 0.509354 -1.61561 0
M  V30 2613 O 251.469 0.390014 -1.75724 0
M  V30 2614 H 247.844 -0.111331 -0.743713 0
M  V30 2615 H 249.815 -1.2672 -2.70156 0
M  V30 2616 C 248.564 0.338148 -3.46052 0
M  V30 2617 H 247.887 -0.353732 -3.98232 0
M  V30 2618 H 249.327 0.664653 -4.18758 0
M  V30 2619 C 247.786 1.54798 -2.99231 0
M  V30 2620 O 248.316 2.64696 -3.02157 0
M  V30 2621 N 246.522 1.3968 -2.54829 0
M  V30 2622 H 246.069 0.502698 -2.52647 0
M  V30 2623 H 246.027 2.20755 -2.23863 0
M  V30 2624 N 249.799 1.42003 -0.683588 0
M  V30 2625 C 250.729 2.33487 -0.024866 0
M  V30 2626 C 251.71 1.51163 0.779975 0
M  V30 2627 O 252.895 1.79739 0.735362 0
M  V30 2628 C 250.025 3.3487 0.920836 0
M  V30 2629 C 248.979 4.27414 0.223958 0
M  V30 2630 C 248.305 5.19074 1.2832 0
M  V30 2631 C 249.605 5.14445 -0.90242 0
M  V30 2632 H 251.299 2.88819 -0.788921 0
M  V30 2633 H 248.845 1.38873 -0.38083 0
M  V30 2634 H 250.798 3.97787 1.39081 0
M  V30 2635 H 249.522 2.77861 1.71642 0
M  V30 2636 H 248.181 3.65904 -0.225864 0
M  V30 2637 H 247.829 4.58387 2.071 0
M  V30 2638 H 247.529 5.81822 0.821995 0
M  V30 2639 H 249.053 5.84867 1.75392 0
M  V30 2640 H 250.467 5.70998 -0.513272 0
M  V30 2641 H 248.864 5.86072 -1.28997 0
M  V30 2642 H 249.934 4.52322 -1.74737 0
M  V30 2643 N 251.277 0.427512 1.51691 0
M  V30 2644 C 252.209 -0.424521 2.25234 0
M  V30 2645 C 253.222 -0.994671 1.2888 0
M  V30 2646 O 254.411 -0.890483 1.54702 0
M  V30 2647 C 251.511 -1.60479 2.98496 0
M  V30 2648 C 250.684 -1.15527 4.21868 0
M  V30 2649 C 249.743 -2.20454 4.77793 0
M  V30 2650 O 248.769 -1.8029 5.39893 0
M  V30 2651 N 249.971 -3.52831 4.60967 0
M  V30 2652 H 252.736 0.205749 2.98993 0
M  V30 2653 H 250.297 0.255867 1.59865 0
M  V30 2654 H 252.289 -2.30276 3.32799 0
M  V30 2655 H 250.859 -2.14061 2.27809 0
M  V30 2656 H 250.079 -0.284736 3.9317 0
M  V30 2657 H 251.367 -0.832173 5.01949 0
M  V30 2658 H 250.765 -3.88201 4.11481 0
M  V30 2659 H 249.322 -4.18551 4.99658 0
M  V30 2660 N 252.755 -1.56801 0.158532 0
M  V30 2661 C 254.032 -1.88131 -0.535357 0
M  V30 2662 C 254.412 -1.06638 -1.82186 0
M  V30 2663 O 253.76 -0.156533 -2.27963 0
M  V30 2664 C 253.97 -3.39949 -0.789653 0
M  V30 2665 C 255.318 -4.09416 -1.12533 0
M  V30 2666 O 256.342 -3.45194 -0.878622 0
M  V30 2667 O 255.201 -5.22855 -1.59014 0
M  V30 2668 H 252.295 -0.780143 -0.27442 0
M  V30 2669 H 254.841 -1.68564 0.19601 0
M  V30 2670 H 253.613 -3.91115 0.120353 0
M  V30 2671 H 253.236 -3.65084 -1.57479 0
M  V30 2672 N 254.233 0.115231 -1.57178 0
M  V30 2673 C 255.479 0.82357 -1.85325 0
M  V30 2674 C 255.812 1.79349 -0.744814 0
M  V30 2675 O 255.087 1.92899 0.249024 0
M  V30 2676 C 255.37 1.57014 -3.24066 0
M  V30 2677 C 255.223 0.619565 -4.45513 0
M  V30 2678 C 256.542 2.52545 -3.60429 0
M  V30 2679 H 253.661 0.297948 -0.674089 0
M  V30 2680 H 256.303 0.0877138 -1.89797 0
M  V30 2681 H 254.453 2.19742 -3.20383 0
M  V30 2682 H 256.125 0.000837639 -4.613 0
M  V30 2683 H 254.368 -0.0686174 -4.33746 0
M  V30 2684 H 255.039 1.17866 -5.3927 0
M  V30 2685 H 257.515 1.9992 -3.64926 0
M  V30 2686 H 256.391 3.01811 -4.58477 0
M  V30 2687 H 256.652 3.35383 -2.88047 0
M  V30 2688 N 255.711 1.52812 0.385517 0
M  V30 2689 C 256.643 1.74096 1.49074 0
M  V30 2690 C 257.656 0.621462 1.50472 0
M  V30 2691 O 258.845 0.897245 1.54311 0
M  V30 2692 C 255.945 1.78774 2.87911 0
M  V30 2693 C 255.118 3.08134 3.10439 0
M  V30 2694 C 254.177 3.04313 4.29278 0
M  V30 2695 O 253.203 3.78168 4.25415 0
M  V30 2696 N 254.405 2.23741 5.35649 0
M  V30 2697 H 257.17 2.69455 1.31202 0
M  V30 2698 H 254.731 1.51343 0.575065 0
M  V30 2699 H 256.723 1.73721 3.65518 0
M  V30 2700 H 255.293 0.907869 2.99126 0
M  V30 2701 H 254.513 3.26649 2.20667 0
M  V30 2702 H 255.801 3.93662 3.22347 0
M  V30 2703 H 255.199 1.63211 5.41645 0
M  V30 2704 H 253.756 2.24524 6.11909 0
M  V30 2705 N 257.189 -0.644168 1.43834 0
M  V30 2706 C 258.136 -1.75671 1.49694 0
M  V30 2707 C 259.106 -1.6246 0.345809 0
M  V30 2708 O 260.291 -1.82573 0.554234 0
M  V30 2709 C 257.431 -3.13867 1.43463 0
M  V30 2710 C 256.544 -3.38147 2.6885 0
M  V30 2711 C 255.679 -4.66241 2.54544 0
M  V30 2712 C 254.718 -4.83657 3.75157 0
M  V30 2713 N 253.855 -6.03016 3.59605 0
M  V30 2714 H 258.695 -1.69998 2.44754 0
M  V30 2715 H 256.232 -0.829458 1.21484 0
M  V30 2716 H 258.19 -3.9377 1.37843 0
M  V30 2717 H 256.82 -3.18588 0.519783 0
M  V30 2718 H 255.872 -2.52276 2.84712 0
M  V30 2719 H 257.184 -3.46899 3.58417 0
M  V30 2720 H 256.338 -5.54285 2.46683 0
M  V30 2721 H 255.077 -4.59826 1.62516 0
M  V30 2722 H 254.082 -3.94046 3.83416 0
M  V30 2723 H 255.307 -4.91896 4.68204 0
M  V30 2724 H 253.253 -5.97715 2.7032 0
M  V30 2725 H 253.17 -6.12766 4.42779 0
M  V30 2726 H 254.438 -6.93657 3.55613 0
M  V30 2727 N 258.668 -1.30515 -0.883378 0
M  V30 2728 C 259.914 -1.19607 -1.63774 0
M  V30 2729 C 260.247 0.248314 -1.92606 0
M  V30 2730 O 259.522 1.17742 -1.54813 0
M  V30 2731 C 259.805 -2.02669 -2.97653 0
M  V30 2732 C 259.658 -3.55335 -2.75784 0
M  V30 2733 C 260.977 -1.86573 -3.98596 0
M  V30 2734 H 258.096 -0.435856 -0.594305 0
M  V30 2735 H 260.738 -1.60165 -1.02212 0
M  V30 2736 H 258.888 -1.68208 -3.50197 0
M  V30 2737 H 260.56 -3.99863 -2.30016 0
M  V30 2738 H 258.803 -3.79438 -2.1026 0
M  V30 2739 H 259.474 -4.08745 -3.70988 0
M  V30 2740 H 261.95 -2.16703 -3.55217 0
M  V30 2741 H 260.826 -2.47014 -4.90179 0
M  V30 2742 H 261.087 -0.825321 -4.34328 0
M  V30 2743 N 260.146 1.09593 -1.13257 0
M  V30 2744 C 261.078 2.16015 -0.766167 0
M  V30 2745 C 262.091 1.61423 0.211303 0
M  V30 2746 O 263.28 1.78498 -0.00863946 0
M  V30 2747 C 260.38 3.38706 -0.114662 0
M  V30 2748 C 259.553 4.22717 -1.12379 0
M  V30 2749 C 258.612 5.23835 -0.498301 0
M  V30 2750 O 257.638 5.573 -1.15781 0
M  V30 2751 N 258.84 5.75886 0.730417 0
M  V30 2752 H 261.605 2.48055 -1.68193 0
M  V30 2753 H 259.166 1.25292 -1.02535 0
M  V30 2754 H 261.158 4.03464 0.315991 0
M  V30 2755 H 259.728 3.04569 0.704011 0
M  V30 2756 H 258.948 3.54122 -1.73179 0
M  V30 2757 H 260.236 4.75673 -1.80589 0
M  V30 2758 H 259.634 5.50911 1.28504 0
M  V30 2759 H 258.191 6.42387 1.10376 0
M  V30 2760 N 261.624 0.925811 1.2754 0
M  V30 2761 C 262.554 0.440748 2.29303 0
M  V30 2762 C 263.535 -0.497971 1.62648 0
M  V30 2763 O 264.72 -0.403126 1.8997 0
M  V30 2764 C 261.85 -0.309048 3.45922 0
M  V30 2765 C 260.804 0.54166 4.24559 0
M  V30 2766 C 260.13 -0.337191 5.33636 0
M  V30 2767 C 261.43 1.80516 4.90114 0
M  V30 2768 H 263.124 1.29121 2.70126 0
M  V30 2769 H 260.67 0.622323 1.29858 0
M  V30 2770 H 262.623 -0.659315 4.1621 0
M  V30 2771 H 261.347 -1.19352 3.04011 0
M  V30 2772 H 260.006 0.874609 3.56014 0
M  V30 2773 H 259.654 -1.22056 4.87966 0
M  V30 2774 H 259.354 0.228497 5.87156 0
M  V30 2775 H 260.878 -0.683072 6.06767 0
M  V30 2776 H 262.292 1.52307 5.52698 0
M  V30 2777 H 260.689 2.3142 5.53683 0
M  V30 2778 H 261.759 2.52581 4.13921 0
M  V30 2779 N 263.102 -1.41638 0.69111 0
M  V30 2780 C 264.327 -2.06148 0.227583 0
M  V30 2781 C 264.752 -1.51652 -1.11281 0
M  V30 2782 O 264.11 -0.64164 -1.69566 0
M  V30 2783 C 264.158 -3.60095 0.190858 0
M  V30 2784 O 263.262 -4.03845 -0.835664 0
M  V30 2785 H 262.603 -0.654434 0.112306 0
M  V30 2786 H 265.133 -1.81484 0.944714 0
M  V30 2787 H 265.143 -4.07995 0.020207 0
M  V30 2788 H 263.818 -3.99129 1.16915 0
M  V30 2789 H 262.395 -3.67458 -0.63473 0
M  V30 2790 N 264.58 -0.43555 -1.51462 0
M  V30 2791 C 265.857 0.191364 -1.94662 0
M  V30 2792 C 266.237 1.60254 -1.37411 0
M  V30 2793 O 265.585 2.2152 -0.560458 0
M  V30 2794 C 265.795 0.17091 -3.48581 0
M  V30 2795 C 267.143 0.377357 -4.2292 0
M  V30 2796 O 268.167 0.249104 -3.55328 0
M  V30 2797 O 267.026 0.63247 -5.42828 0
M  V30 2798 H 264.12 0.130932 -0.816569 0
M  V30 2799 H 266.666 -0.4934 -1.62369 0
M  V30 2800 H 265.438 -0.815738 -3.82703 0
M  V30 2801 H 265.061 0.898659 -3.87311 0
M  V30 2802 N 266.058 1.56714 -0.166846 0
M  V30 2803 C 267.021 2.16539 0.751232 0
M  V30 2804 C 268.021 1.11228 1.16125 0
M  V30 2805 O 269.211 1.36765 1.07894 0
M  V30 2806 C 266.343 2.74462 2.02196 0
M  V30 2807 H 267.536 2.99013 0.230499 0
M  V30 2808 H 265.089 1.56081 0.0826982 0
M  V30 2809 H 265.824 1.95709 2.58589 0
M  V30 2810 H 265.609 3.51527 1.73698 0
M  V30 2811 H 267.099 3.20489 2.67725 0
M  V30 2812 N 267.536 -0.106894 1.57237 0
M  V30 2813 C 268.766 -0.825191 1.89405 0
M  V30 2814 C 269.174 -1.73374 0.757496 0
M  V30 2815 O 268.517 -1.81552 -0.280115 0
M  V30 2816 C 268.579 -1.70102 3.1671 0
M  V30 2817 C 268.243 -0.965523 4.46684 0
M  V30 2818 C 269.24 -0.300741 5.19029 0
M  V30 2819 C 266.925 -0.943105 4.93367 0
M  V30 2820 C 268.919 0.376622 6.36286 0
M  V30 2821 C 266.606 -0.261949 6.10538 0
M  V30 2822 C 267.604 0.396748 6.81847 0
M  V30 2823 O 267.292 1.06701 7.96787 0
M  V30 2824 H 267.024 -0.241852 0.631255 0
M  V30 2825 H 269.578 -0.0921491 2.05193 0
M  V30 2826 H 267.808 -2.47601 2.97036 0
M  V30 2827 H 269.497 -2.29483 3.34802 0
M  V30 2828 H 270.263 -0.309599 4.84011 0
M  V30 2829 H 266.142 -1.44524 4.3776 0
M  V30 2830 H 269.686 0.891334 6.91882 0
M  V30 2831 H 265.583 -0.250896 6.45012 0
M  V30 2832 H 266.351 0.972707 8.127 0
M  V30 2833 N 269.014 -1.53014 -0.377408 0
M  V30 2834 C 269.944 -1.81589 -1.46791 0
M  V30 2835 C 270.925 -0.668622 -1.56408 0
M  V30 2836 O 272.11 -0.917337 -1.71168 0
M  V30 2837 C 269.24 -1.99519 -2.8427 0
M  V30 2838 C 268.194 -3.15249 -2.89486 0
M  V30 2839 C 267.52 -3.18451 -4.29527 0
M  V30 2840 C 268.82 -4.54084 -2.58079 0
M  V30 2841 H 270.514 -2.7291 -1.23127 0
M  V30 2842 H 268.06 -1.31319 -0.590883 0
M  V30 2843 H 270.013 -2.18092 -3.60575 0
M  V30 2844 H 268.737 -1.04897 -3.09296 0
M  V30 2845 H 267.396 -2.96477 -2.15631 0
M  V30 2846 H 267.044 -2.2149 -4.5161 0
M  V30 2847 H 266.744 -3.962 -4.33934 0
M  V30 2848 H 268.268 -3.39193 -5.07721 0
M  V30 2849 H 269.682 -4.72899 -3.24098 0
M  V30 2850 H 268.079 -5.33987 -2.7382 0
M  V30 2851 H 269.149 -4.60006 -1.53372 0
M  V30 2852 N 270.492 0.636531 -1.44174 0
M  V30 2853 C 271.908 0.954104 -1.27941 0
M  V30 2854 C 272.108 2.0039 -0.211248 0
M  V30 2855 O 271.164 2.49236 0.404695 0
M  V30 2856 C 272.477 1.4225 -2.64925 0
M  V30 2857 C 274.025 1.53827 -2.72592 0
M  V30 2858 C 274.5 2.04053 -4.10032 0
M  V30 2859 N 275.991 2.11331 -4.12182 0
M  V30 2860 C 276.726 2.51352 -5.15374 0
M  V30 2861 N 276.222 2.90549 -6.2893 0
M  V30 2862 N 278.015 2.51438 -5.02728 0
M  V30 2863 H 270.166 -0.0578386 -2.12321 0
M  V30 2864 H 272.429 0.0367406 -0.947288 0
M  V30 2865 H 272.135 0.725466 -3.44136 0
M  V30 2866 H 272.009 2.39451 -2.9145 0
M  V30 2867 H 274.396 2.22628 -1.93702 0
M  V30 2868 H 274.477 0.550154 -2.49814 0
M  V30 2869 H 274.121 1.35848 -4.89395 0
M  V30 2870 H 274.051 3.03726 -4.30184 0
M  V30 2871 H 276.542 1.83745 -3.30222 0
M  V30 2872 H 276.855 3.19884 -7.03487 0
M  V30 2873 H 275.2 2.88313 -6.32377 0
M  V30 2874 H 278.391 2.20203 -4.13072 0
M  V30 2875 H 278.564 2.82304 -5.83274 0
M  V30 2876 N 271.97 1.30982 0.876444 0
M  V30 2877 C 272.92 1.14688 1.97055 0
M  V30 2878 C 273.904 0.0596593 1.60789 0
M  V30 2879 O 275.096 0.283892 1.74708 0
M  V30 2880 C 272.225 0.849627 3.3262 0
M  V30 2881 C 271.311 1.97752 3.75173 0
M  V30 2882 N 271.702 3.22384 3.89746 0
M  V30 2883 C 270 1.8758 4.04635 0
M  V30 2884 C 270.701 3.96121 4.25985 0
M  V30 2885 N 269.677 3.24237 4.36315 0
M  V30 2886 H 273.479 2.09204 2.06424 0
M  V30 2887 H 270.993 1.22445 1.06682 0
M  V30 2888 H 272.99 0.713895 4.10742 0
M  V30 2889 H 271.65 -0.087376 3.24582 0
M  V30 2890 H 272.661 3.57575 3.74647 0
M  V30 2891 H 269.338 1.01303 4.05024 0
M  V30 2892 H 270.728 5.03491 4.44911 0
M  V30 2893 N 273.449 -1.08991 1.13837 0
M  V30 2894 C 274.698 -1.80631 0.897509 0
M  V30 2895 C 275.011 -1.86872 -0.57777 0
M  V30 2896 O 276.217 -2.54866 -0.935701 0
M  V30 2897 C 274.673 -3.24517 1.55618 0
M  V30 2898 C 274.281 -3.26529 3.0673 0
M  V30 2899 C 276.025 -4.00882 1.3962 0
M  V30 2900 C 273.932 -4.64965 3.65461 0
M  V30 2901 H 272.862 -0.67691 0.332129 0
M  V30 2902 H 275.513 -1.2246 1.3666 0
M  V30 2903 H 273.895 -3.82778 1.01476 0
M  V30 2904 H 275.069 -2.78008 3.67489 0
M  V30 2905 H 273.384 -2.63656 3.22296 0
M  V30 2906 H 275.981 -5.03167 1.80906 0
M  V30 2907 H 276.324 -4.14896 0.341578 0
M  V30 2908 H 276.857 -3.49075 1.90766 0
M  V30 2909 H 273.596 -4.56153 4.70749 0
M  V30 2910 H 273.116 -5.13792 3.09481 0
M  V30 2911 H 274.795 -5.3394 3.654 0
M  V30 2912 N 274.927 -0.932562 -1.27047 0
M  V30 2913 C 276.175 -0.574422 -1.93765 0
M  V30 2914 C 276.496 0.887993 -1.73608 0
M  V30 2915 O 275.766 1.62999 -1.08665 0
M  V30 2916 H 274.346 -0.209451 -0.717035 0
M  V30 2917 H 277.008 -1.18601 -1.5466 0
M  V30 2918 H 276.104 -0.784841 -3.02071 0
M  V30 2919 N 276.405 1.4127 -0.698611 0
M  V30 2920 C 277.654 2.00408 -0.227949 0
M  V30 2921 C 277.967 1.55981 1.18023 0
M  V30 2922 O 279.173 2.07699 1.74852 0
M  V30 2923 C 277.629 3.58129 -0.356636 0
M  V30 2924 C 277.237 4.11536 -1.77037 0
M  V30 2925 C 278.981 4.24466 0.0540969 0
M  V30 2926 C 276.888 5.61701 -1.85055 0
M  V30 2927 H 275.818 0.749586 -0.0814657 0
M  V30 2928 H 278.469 1.61713 -0.867249 0
M  V30 2929 H 276.851 3.94442 0.350965 0
M  V30 2930 H 278.025 3.86636 -2.50698 0
M  V30 2931 H 276.34 3.57736 -2.13105 0
M  V30 2932 H 278.937 5.34698 0.0146723 0
M  V30 2933 H 279.28 4.01687 1.09332 0
M  V30 2934 H 279.813 3.93198 -0.603337 0
M  V30 2935 H 276.552 5.89312 -2.8704 0
M  V30 2936 H 276.072 5.88519 -1.15783 0
M  V30 2937 H 277.751 6.26524 -1.61484 0
M  V30 2938 N 277.883 0.443576 1.51229 0
M  V30 2939 C 279.113 -0.119117 2.06256 0
M  V30 2940 C 279.521 -1.36471 1.31043 0
M  V30 2941 O 278.864 -1.80034 0.365151 0
M  V30 2942 C 278.926 -0.500546 3.55998 0
M  V30 2943 C 278.59 0.639125 4.52509 0
M  V30 2944 C 279.587 1.51311 4.97394 0
M  V30 2945 C 277.272 0.821632 4.95535 0
M  V30 2946 C 279.266 2.55425 5.83984 0
M  V30 2947 C 276.953 1.86603 5.81913 0
M  V30 2948 C 277.951 2.73072 6.26036 0
M  V30 2949 O 277.639 3.75718 7.10698 0
M  V30 2950 H 277.371 -0.00857665 0.675946 0
M  V30 2951 H 279.925 0.623288 1.95715 0
M  V30 2952 H 278.155 -1.29575 3.64345 0
M  V30 2953 H 279.844 -0.995116 3.93513 0
M  V30 2954 H 280.61 1.38367 4.64844 0
M  V30 2955 H 276.489 0.158149 4.60729 0
M  V30 2956 H 280.033 3.22949 6.18344 0
M  V30 2957 H 275.93 1.99564 6.13876 0
M  V30 2958 H 276.698 3.72374 7.2889 0
M  V30 2959 N 279.361 -1.56624 0.175154 0
M  V30 2960 C 280.324 -2.16934 -0.739738 0
M  V30 2961 C 281.324 -1.11842 -1.15533 0
M  V30 2962 O 282.514 -1.37335 -1.07167 0
M  V30 2963 C 279.646 -2.75531 -2.00738 0
M  V30 2964 H 280.839 -2.99131 -0.214639 0
M  V30 2965 H 278.392 -1.56123 -0.0744197 0
M  V30 2966 H 279.127 -1.97078 -2.57548 0
M  V30 2967 H 278.912 -3.52444 -1.71831 0
M  V30 2968 H 280.402 -3.21904 -2.66021 0
M  V30 2969 N 280.839 0.0985539 -1.57292 0
M  V30 2970 C 282.069 0.815135 -1.8984 0
M  V30 2971 C 282.477 1.7297 -0.766679 0
M  V30 2972 O 281.82 1.81698 0.270483 0
M  V30 2973 C 281.882 1.6842 -3.17608 0
M  V30 2974 C 281.546 0.94182 -4.4719 0
M  V30 2975 C 282.543 0.273212 -5.19182 0
M  V30 2976 C 280.228 0.916927 -4.9386 0
M  V30 2977 C 282.222 -0.410361 -6.36078 0
M  V30 2978 C 279.909 0.229567 -6.10669 0
M  V30 2979 C 280.907 -0.432902 -6.81627 0
M  V30 2980 O 280.595 -1.10925 -7.9621 0
M  V30 2981 H 280.327 0.238501 -0.632529 0
M  V30 2982 H 282.881 0.0812659 -2.05239 0
M  V30 2983 H 281.111 2.46022 -2.98345 0
M  V30 2984 H 282.8 2.27704 -3.36015 0
M  V30 2985 H 283.566 0.283927 -4.84168 0
M  V30 2986 H 279.445 1.42201 -4.3852 0
M  V30 2987 H 282.989 -0.928013 -6.914 0
M  V30 2988 H 278.886 0.216686 -6.45136 0
M  V30 2989 H 279.654 -1.01579 -8.12172 0
M  V30 2990 N 282.317 1.53212 0.369288 0
M  V30 2991 C 283.733 1.42902 0.710712 0
M  V30 2992 C 283.933 0.565135 1.93413 0
M  V30 2993 O 282.989 0.0461484 2.52458 0
M  V30 2994 C 284.302 2.86042 0.927382 0
M  V30 2995 C 285.85 2.9565 1.02762 0
M  V30 2996 C 286.325 4.39843 1.27679 0
M  V30 2997 N 287.816 4.43256 1.34457 0
M  V30 2998 C 288.551 5.51929 1.55439 0
M  V30 2999 N 288.047 6.70655 1.73762 0
M  V30 3000 N 289.84 5.39502 1.57779 0
M  V30 3001 H 281.991 2.07888 -0.435457 0
M  V30 3002 H 284.254 0.938661 -0.132739 0
M  V30 3003 H 283.96 3.51557 0.100287 0
M  V30 3004 H 283.834 3.29472 1.83653 0
M  V30 3005 H 286.221 2.30291 1.84527 0
M  V30 3006 H 286.302 2.5562 0.0959504 0
M  V30 3007 H 285.946 5.05774 0.464175 0
M  V30 3008 H 285.876 4.77443 2.22162 0
M  V30 3009 H 288.367 3.5769 1.21926 0
M  V30 3010 H 288.68 7.49248 1.89335 0
M  V30 3011 H 287.025 6.73648 1.70948 0
M  V30 3012 H 290.216 4.45713 1.43029 0
M  V30 3013 H 290.389 6.2426 1.7379 0
M  V30 3014 N 283.795 -0.628877 1.44509 0
M  V30 3015 C 284.758 -1.72263 1.51188 0
M  V30 3016 C 285.758 -1.55907 0.39367 0
M  V30 3017 O 286.948 -1.61361 0.656377 0
M  V30 3018 C 284.08 -3.11365 1.38798 0
M  V30 3019 H 285.273 -1.67714 2.4862 0
M  V30 3020 H 282.826 -0.842737 1.31634 0
M  V30 3021 H 283.561 -3.21507 0.424693 0
M  V30 3022 H 283.346 -3.24644 2.19884 0
M  V30 3023 H 284.836 -3.91075 1.46458 0
M  V30 3024 N 285.273 -1.31445 -0.869486 0
M  V30 3025 C 286.521 -1.20918 -1.61936 0
M  V30 3026 C 286.842 0.232683 -1.93607 0
M  V30 3027 O 286.112 1.15352 -1.58338 0
M  V30 3028 H 284.692 -0.44454 -0.600328 0
M  V30 3029 H 287.354 -1.64776 -1.0409 0
M  V30 3030 H 286.45 -1.78124 -2.56278 0
M  V30 3031 N 286.751 1.08385 -1.14413 0
M  V30 3032 C 287.998 1.80776 -0.912482 0
M  V30 3033 C 288.326 1.86236 0.560934 0
M  V30 3034 O 287.581 1.33431 1.43159 0
M  V30 3035 C 287.88 3.26273 -1.45879 0
M  V30 3036 C 287.546 3.4093 -2.95089 0
M  V30 3037 C 286.208 3.44638 -3.35824 0
M  V30 3038 C 288.56 3.44591 -3.91033 0
M  V30 3039 C 285.888 3.49597 -4.71167 0
M  V30 3040 C 288.24 3.51086 -5.26233 0
M  V30 3041 C 286.904 3.53067 -5.6648 0
M  V30 3042 H 286.174 0.661507 -0.333901 0
M  V30 3043 H 288.821 1.27613 -1.42784 0
M  V30 3044 H 287.126 3.82146 -0.864376 0
M  V30 3045 H 288.823 3.80839 -1.2555 0
M  V30 3046 H 285.413 3.38736 -2.62594 0
M  V30 3047 H 289.597 3.40957 -3.60641 0
M  V30 3048 H 284.853 3.49424 -5.0171 0
M  V30 3049 H 289.027 3.52864 -6.00383 0
M  V30 3050 H 286.654 3.56662 -6.71339 0
M  V30 3051 N 288.23 0.939286 1.26551 0
M  V30 3052 C 289.479 0.581601 1.93133 0
M  V30 3053 C 289.792 -0.883224 1.74524 0
M  V30 3054 O 290.998 -1.3502 2.35546 0
M  V30 3055 C 289.454 0.989425 3.46032 0
M  V30 3056 C 289.062 2.47573 3.73379 0
M  V30 3057 C 290.806 0.703544 4.18629 0
M  V30 3058 C 288.713 2.82235 5.19709 0
M  V30 3059 H 287.643 0.213803 0.723052 0
M  V30 3060 H 290.294 1.14167 1.4366 0
M  V30 3061 H 288.676 0.357902 3.94379 0
M  V30 3062 H 289.85 3.15614 3.35744 0
M  V30 3063 H 288.165 2.73471 3.1401 0
M  V30 3064 H 290.762 0.938869 5.26393 0
M  V30 3065 H 291.105 -0.359639 4.14744 0
M  V30 3066 H 291.638 1.2947 3.76141 0
M  V30 3067 H 288.377 3.87509 5.28694 0
M  V30 3068 H 287.897 2.18854 5.58447 0
M  V30 3069 H 289.576 2.70599 5.87695 0
M  V30 3070 N 289.708 -1.40897 0.706093 0
M  V30 3071 C 290.655 -2.30751 0.0474474 0
M  V30 3072 C 291.625 -1.47678 -0.76029 0
M  V30 3073 O 292.81 -1.76441 -0.726177 0
M  V30 3074 C 289.95 -3.33815 -0.875309 0
M  V30 3075 C 289.063 -4.31961 -0.0580623 0
M  V30 3076 C 288.198 -5.22093 -0.979425 0
M  V30 3077 C 287.237 -6.11902 -0.155706 0
M  V30 3078 N 286.374 -6.94482 -1.03144 0
M  V30 3079 H 291.214 -2.86513 0.819413 0
M  V30 3080 H 288.751 -1.41102 0.415783 0
M  V30 3081 H 290.709 -3.92129 -1.42446 0
M  V30 3082 H 289.339 -2.79579 -1.61356 0
M  V30 3083 H 288.391 -3.75507 0.608147 0
M  V30 3084 H 289.703 -4.95415 0.580082 0
M  V30 3085 H 288.857 -5.85292 -1.59744 0
M  V30 3086 H 287.596 -4.5889 -1.65141 0
M  V30 3087 H 286.601 -5.47742 0.475309 0
M  V30 3088 H 287.826 -6.77162 0.512635 0
M  V30 3089 H 285.772 -6.33877 -1.68924 0
M  V30 3090 H 285.689 -7.54665 -0.449108 0
M  V30 3091 H 286.957 -7.6214 -1.63593 0
M  V30 3092 N 291.186 -0.45159 -1.50991 0
M  V30 3093 C 292.118 0.388634 -2.25881 0
M  V30 3094 C 293.131 0.974041 -1.30446 0
M  V30 3095 O 294.32 0.865758 -1.56099 0
M  V30 3096 C 291.42 1.5571 -3.01011 0
M  V30 3097 C 290.593 1.08801 -4.23652 0
M  V30 3098 C 289.652 2.12825 -4.8124 0
M  V30 3099 O 288.678 1.71678 -5.42693 0
M  V30 3100 N 289.88 3.45453 -4.66522 0
M  V30 3101 H 292.645 -0.25329 -2.98628 0
M  V30 3102 H 290.206 -0.281268 -1.59438 0
M  V30 3103 H 292.198 2.24952 -3.3642 0
M  V30 3104 H 290.768 2.10409 -2.31186 0
M  V30 3105 H 289.988 0.22215 -3.93574 0
M  V30 3106 H 291.276 0.752213 -5.03209 0
M  V30 3107 H 290.674 3.81605 -4.17605 0
M  V30 3108 H 289.231 4.10549 -5.06254 0
M  V30 3109 N 292.664 1.56529 -0.183458 0
M  V30 3110 C 293.894 2.01331 0.463612 0
M  V30 3111 C 294.302 1.06278 1.5653 0
M  V30 3112 O 293.645 0.0577976 1.83609 0
M  V30 3113 C 293.707 3.42547 1.09096 0
M  V30 3114 C 293.371 4.56817 0.129442 0
M  V30 3115 C 294.368 5.15734 -0.656807 0
M  V30 3116 C 292.053 5.02295 0.02174 0
M  V30 3117 C 294.047 6.1857 -1.53784 0
M  V30 3118 C 291.734 6.04978 -0.862864 0
M  V30 3119 C 292.732 6.62988 -1.64123 0
M  V30 3120 O 292.42 7.63677 -2.51103 0
M  V30 3121 H 292.152 0.664917 0.121907 0
M  V30 3122 H 294.706 2.034 -0.285954 0
M  V30 3123 H 292.936 3.37428 1.88889 0
M  V30 3124 H 294.625 3.71228 1.64148 0
M  V30 3125 H 295.391 4.81473 -0.583839 0
M  V30 3126 H 291.27 4.56847 0.617392 0
M  V30 3127 H 294.814 6.63777 -2.14583 0
M  V30 3128 H 290.711 6.38663 -0.93699 0
M  V30 3129 H 291.479 7.81049 -2.44753 0
M  V30 3130 N 294.142 -0.090211 1.57342 0
M  V30 3131 C 295.388 -0.793982 1.86611 0
M  V30 3132 C 295.721 -1.78142 0.773252 0
M  V30 3133 O 294.996 -1.93271 -0.218304 0
M  V30 3134 C 295.279 -1.51839 3.26523 0
M  V30 3135 C 295.132 -0.548609 4.46442 0
M  V30 3136 C 296.451 -2.46779 3.64401 0
M  V30 3137 H 293.57 -0.287186 0.678744 0
M  V30 3138 H 296.212 -0.0575076 1.89913 0
M  V30 3139 H 294.362 -2.14617 3.23839 0
M  V30 3140 H 296.034 0.0725513 4.61243 0
M  V30 3141 H 294.277 0.137614 4.33582 0
M  V30 3142 H 294.948 -1.09271 5.41076 0
M  V30 3143 H 297.424 -1.94089 3.68061 0
M  V30 3144 H 296.3 -2.94479 4.63221 0
M  V30 3145 H 296.561 -3.30758 2.93346 0
M  V30 3146 N 295.62 -1.53406 -0.361157 0
M  V30 3147 C 296.552 -1.76446 -1.46286 0
M  V30 3148 C 297.565 -0.645322 -1.49464 0
M  V30 3149 O 298.754 -0.921681 -1.52864 0
M  V30 3150 C 295.854 -1.83332 -2.85031 0
M  V30 3151 C 295.027 -3.13033 -3.05498 0
M  V30 3152 C 294.086 -3.11104 -4.24383 0
M  V30 3153 O 293.112 -3.84888 -4.19344 0
M  V30 3154 N 294.314 -2.32234 -5.32022 0
M  V30 3155 H 297.079 -2.71508 -1.26899 0
M  V30 3156 H 294.64 -1.52238 -0.550915 0
M  V30 3157 H 296.632 -1.79514 -3.62708 0
M  V30 3158 H 295.202 -0.955342 -2.97644 0
M  V30 3159 H 294.422 -3.30119 -2.15442 0
M  V30 3160 H 295.71 -3.9874 -3.16044 0
M  V30 3161 H 295.108 -1.71807 -5.38979 0
M  V30 3162 H 293.665 -2.3423 -6.08259 0
M  V30 3163 N 297.098 0.621204 -1.44841 0
M  V30 3164 C 298.344 1.38073 -1.49357 0
M  V30 3165 C 298.699 1.91973 -0.128115 0
M  V30 3166 O 297.992 1.71311 0.858087 0
M  V30 3167 C 298.186 2.55675 -2.4973 0
M  V30 3168 C 298.015 2.13289 -3.95901 0
M  V30 3169 C 296.785 2.001 -4.63991 0
M  V30 3170 C 298.983 1.7159 -4.84831 0
M  V30 3171 N 296.965 1.51381 -5.94943 0
M  V30 3172 C 298.336 1.34188 -6.05304 0
M  V30 3173 C 300.391 1.59059 -4.7181 0
M  V30 3174 C 299.094 0.855085 -7.14199 0
M  V30 3175 C 301.12 1.11784 -5.8074 0
M  V30 3176 C 300.482 0.753385 -7.0036 0
M  V30 3177 H 296.581 0.499675 -0.601539 0
M  V30 3178 H 299.165 0.711609 -1.8123 0
M  V30 3179 H 297.336 3.20201 -2.19832 0
M  V30 3180 H 299.068 3.22509 -2.4448 0
M  V30 3181 H 295.823 2.20863 -4.18947 0
M  V30 3182 H 296.247 1.29293 -6.64539 0
M  V30 3183 H 300.889 1.85865 -3.79755 0
M  V30 3184 H 298.607 0.574552 -8.06055 0
M  V30 3185 H 302.193 1.02533 -5.72694 0
M  V30 3186 H 301.073 0.393183 -7.83214 0
M  V30 3187 N 298.576 1.31904 0.862503 0
M  V30 3188 C 299.539 1.20131 1.95195 0
M  V30 3189 C 300.539 0.126409 1.60302 0
M  V30 3190 O 301.729 0.376234 1.70089 0
M  V30 3191 C 298.861 0.845691 3.30244 0
M  V30 3192 H 300.054 2.16943 2.07064 0
M  V30 3193 H 297.607 1.15622 1.05172 0
M  V30 3194 H 298.342 -0.120957 3.24074 0
M  V30 3195 H 298.127 1.62276 3.56944 0
M  V30 3196 H 299.617 0.787418 4.10109 0
M  V30 3197 N 300.054 -1.07777 1.14986 0
M  V30 3198 C 301.465 -1.61766 0.932127 0
M  V30 3199 C 301.816 -1.88974 -0.527581 0
M  V30 3200 O 300.941 -1.65198 -1.39781 0
M  V30 3201 C 301.536 -2.93891 1.68563 0
M  V30 3202 C 300.095 -3.44639 1.5133 0
M  V30 3203 C 299.242 -2.18767 1.704 0
M  V30 3204 H 302.193 -0.909201 1.30074 0
M  V30 3205 H 302.214 -3.62623 1.15259 0
M  V30 3206 H 301.726 -2.74057 2.74799 0
M  V30 3207 H 299.827 -3.69564 0.474702 0
M  V30 3208 H 299.94 -4.20966 2.28746 0
M  V30 3209 H 298.304 -2.28253 1.13016 0
M  V30 3210 H 299.087 -2.01433 2.77992 0
M  V30 3211 N 301.532 -0.945985 -1.26051 0
M  V30 3212 C 302.76 -0.613025 -1.9761 0
M  V30 3213 C 303.175 0.813035 -1.70397 0
M  V30 3214 O 302.532 1.54274 -0.974979 0
M  V30 3215 C 302.583 -0.85159 -3.51326 0
M  V30 3216 O 302.304 -2.22157 -3.77595 0
M  V30 3217 C 303.805 -0.529831 -4.40122 0
M  V30 3218 H 301.025 -0.230593 -0.630133 0
M  V30 3219 H 303.569 -1.268 -1.60443 0
M  V30 3220 H 301.724 -0.243151 -3.86636 0
M  V30 3221 H 302.138 -2.2852 -4.721 0
M  V30 3222 H 303.612 -0.747348 -5.46917 0
M  V30 3223 H 304.089 0.535341 -4.35925 0
M  V30 3224 H 304.695 -1.11721 -4.10364 0
M  V30 3225 N 303.011 1.40521 -0.713556 0
M  V30 3226 C 303.943 2.29191 -0.0203126 0
M  V30 3227 C 304.956 1.45723 0.725864 0
M  V30 3228 O 306.145 1.69033 0.573581 0
M  V30 3229 C 303.245 3.2395 0.995486 0
M  V30 3230 C 302.418 4.36262 0.315256 0
M  V30 3231 C 301.477 5.11474 1.23616 0
M  V30 3232 O 300.503 5.64606 0.721719 0
M  V30 3233 N 301.705 5.20638 2.56743 0
M  V30 3234 H 304.47 2.89327 -0.781652 0
M  V30 3235 H 302.031 1.51869 -0.561022 0
M  V30 3236 H 304.023 3.71137 1.61368 0
M  V30 3237 H 302.593 2.64995 1.6582 0
M  V30 3238 H 301.813 3.91228 -0.483106 0
M  V30 3239 H 303.101 5.08558 -0.157004 0
M  V30 3240 H 302.499 4.7895 3.01037 0
M  V30 3241 H 301.056 5.71339 3.13712 0
M  V30 3242 N 304.489 0.459591 1.5075 0
M  V30 3243 C 305.419 -0.330644 2.31147 0
M  V30 3244 C 306.4 -1.00087 1.37538 0
M  V30 3245 O 307.585 -1.00025 1.66459 0
M  V30 3246 C 304.715 -1.41958 3.16962 0
M  V30 3247 C 303.669 -0.871608 4.19031 0
M  V30 3248 C 302.995 -2.05797 4.9351 0
M  V30 3249 C 304.295 0.109251 5.22186 0
M  V30 3250 H 305.989 0.340336 2.97459 0
M  V30 3251 H 303.535 0.165119 1.4305 0
M  V30 3252 H 305.488 -1.9798 3.71997 0
M  V30 3253 H 304.212 -2.11917 2.48513 0
M  V30 3254 H 302.871 -0.333442 3.6508 0
M  V30 3255 H 302.519 -2.74427 4.21544 0
M  V30 3256 H 302.219 -1.6976 5.62544 0
M  V30 3257 H 303.743 -2.62331 5.51375 0
M  V30 3258 H 305.157 -0.361405 5.7216 0
M  V30 3259 H 303.554 0.383316 5.98875 0
M  V30 3260 H 304.624 1.03887 4.73641 0
M  V30 3261 N 305.967 -1.56429 0.191757 0
M  V30 3262 C 306.877 -2.22541 -0.742481 0
M  V30 3263 C 307.893 -1.22342 -1.23727 0
M  V30 3264 O 309.069 -1.55069 -1.28513 0
M  V30 3265 C 306.134 -2.8692 -1.94623 0
M  V30 3266 C 305.195 -4.02378 -1.49633 0
M  V30 3267 C 304.428 -4.63678 -2.6427 0
M  V30 3268 O 304.651 -4.23895 -3.81666 0
M  V30 3269 O 303.585 -5.53202 -2.37174 0
M  V30 3270 H 307.411 -3.02977 -0.209462 0
M  V30 3271 H 304.996 -1.49353 -0.0373832 0
M  V30 3272 H 306.878 -3.27663 -2.64982 0
M  V30 3273 H 305.553 -2.09466 -2.46791 0
M  V30 3274 H 304.46 -3.66265 -0.761636 0
M  V30 3275 H 305.793 -4.81487 -1.02134 0
M  V30 3276 N 307.445 0.0818655 -1.57387 0
M  V30 3277 C 308.393 1.11712 -2.04018 0
M  V30 3278 C 309.387 1.40683 -0.94364 0
M  V30 3279 O 310.593 1.40209 -1.12878 0
M  V30 3280 H 306.968 0.377542 -0.650358 0
M  V30 3281 H 308.939 0.697614 -2.90131 0
M  V30 3282 C 307.688 2.42537 -2.49141 0
M  V30 3283 H 307.011 2.21092 -3.33104 0
M  V30 3284 H 308.451 3.13446 -2.85531 0
M  V30 3285 C 306.91 3.0778 -1.37014 0
M  V30 3286 O 307.44 3.95436 -0.706621 0
M  V30 3287 N 305.646 2.68242 -1.11779 0
M  V30 3288 H 305.193 1.97052 -1.65917 0
M  V30 3289 H 305.151 3.1222 -0.369594 0
M  V30 3290 N 308.923 1.53595 0.353017 0
M  V30 3291 C 309.853 1.83902 1.43883 0
M  V30 3292 C 310.834 0.693421 1.55324 0
M  V30 3293 O 312.019 0.944452 1.69687 0
M  V30 3294 C 309.149 2.04016 2.8106 0
M  V30 3295 C 308.103 3.19814 2.84434 0
M  V30 3296 C 307.429 3.25244 4.24406 0
M  V30 3297 C 308.729 4.58133 2.50822 0
M  V30 3298 H 310.423 2.74835 1.1877 0
M  V30 3299 H 307.969 1.32242 0.569917 0
M  V30 3300 H 309.922 2.238 3.57059 0
M  V30 3301 H 308.646 1.09804 3.07588 0
M  V30 3302 H 307.305 2.9987 2.10887 0
M  V30 3303 H 306.953 2.28646 4.48029 0
M  V30 3304 H 306.653 4.03054 4.27576 0
M  V30 3305 H 308.177 3.47228 5.0226 0
M  V30 3306 H 309.591 4.77995 3.16534 0
M  V30 3307 H 307.988 5.38276 2.6529 0
M  V30 3308 H 309.058 4.62387 1.46034 0
M  V30 3309 N 310.401 -0.613514 1.45168 0
M  V30 3310 C 311.311 -1.75296 1.55912 0
M  V30 3311 C 312.327 -1.68244 0.443856 0
M  V30 3312 O 313.503 -1.88706 0.70371 0
M  V30 3313 C 310.568 -3.1174 1.5172 0
M  V30 3314 C 309.629 -3.30291 2.74238 0
M  V30 3315 C 308.862 -4.60226 2.70236 0
M  V30 3316 O 309.085 -5.42168 1.77229 0
M  V30 3317 O 308.019 -4.81361 3.61352 0
M  V30 3318 H 311.845 -1.69183 2.52212 0
M  V30 3319 H 309.43 -0.776886 1.27612 0
M  V30 3320 H 311.312 -3.93044 1.51968 0
M  V30 3321 H 309.987 -3.18357 0.585697 0
M  V30 3322 H 308.894 -2.48598 2.79553 0
M  V30 3323 H 310.227 -3.28547 3.66494 0
M  V30 3324 N 311.879 -1.3236 -0.855495 0
M  V30 3325 C 312.826 -1.21225 -1.964 0
M  V30 3326 C 313.796 -0.0946204 -1.6583 0
M  V30 3327 O 314.981 -0.27002 -1.8888 0
M  V30 3328 C 312.121 -0.940419 -3.32039 0
M  V30 3329 C 311.234 -2.14276 -3.75113 0
M  V30 3330 C 310.369 -1.80648 -4.9954 0
M  V30 3331 C 309.408 -2.97208 -5.35102 0
M  V30 3332 N 308.545 -2.63678 -6.50706 0
M  V30 3333 H 313.385 -2.16042 -2.05255 0
M  V30 3334 H 310.922 -1.07451 -1.00463 0
M  V30 3335 H 312.88 -0.763311 -4.10158 0
M  V30 3336 H 311.51 -0.0290413 -3.22787 0
M  V30 3337 H 310.562 -2.43017 -2.92655 0
M  V30 3338 H 311.874 -3.01468 -3.97389 0
M  V30 3339 H 311.028 -1.59484 -5.85363 0
M  V30 3340 H 309.767 -0.906678 -4.79198 0
M  V30 3341 H 308.772 -3.19004 -4.47791 0
M  V30 3342 H 309.997 -3.87918 -5.57401 0
M  V30 3343 H 307.943 -1.76238 -6.31883 0
M  V30 3344 H 307.86 -3.444 -6.72997 0
M  V30 3345 H 309.128 -2.45942 -7.39684 0
M  V30 3346 N 313.357 1.07166 -1.15556 0
M  V30 3347 C 314.287 2.16403 -0.877046 0
M  V30 3348 C 315.268 1.69217 0.173111 0
M  V30 3349 O 316.453 1.94181 0.027084 0
M  V30 3350 C 313.583 3.45349 -0.367632 0
M  V30 3351 C 312.537 4.05995 -1.35468 0
M  V30 3352 C 311.863 5.30045 -0.704038 0
M  V30 3353 C 313.163 4.45804 -2.72132 0
M  V30 3354 H 314.857 2.39959 -1.79053 0
M  V30 3355 H 312.403 1.15325 -0.862331 0
M  V30 3356 H 314.356 4.21095 -0.160317 0
M  V30 3357 H 313.08 3.21385 0.581326 0
M  V30 3358 H 311.739 3.32296 -1.54839 0
M  V30 3359 H 311.387 5.02373 0.251128 0
M  V30 3360 H 311.087 5.71579 -1.36277 0
M  V30 3361 H 312.611 6.08495 -0.50654 0
M  V30 3362 H 314.025 5.12671 -2.56595 0
M  V30 3363 H 312.422 4.98296 -3.34397 0
M  V30 3364 H 313.492 3.57083 -3.28054 0
M  V30 3365 N 314.835 0.952656 1.25548 0
M  V30 3366 C 315.745 0.47782 2.29682 0
M  V30 3367 C 316.761 -0.453859 1.67977 0
M  V30 3368 O 317.937 -0.330587 1.98668 0
M  V30 3369 C 315.002 -0.238655 3.45878 0
M  V30 3370 C 314.063 0.730994 4.23031 0
M  V30 3371 C 313.296 0.0486165 5.33678 0
M  V30 3372 O 313.519 -1.16612 5.58353 0
M  V30 3373 O 312.453 0.733152 5.97418 0
M  V30 3374 H 316.279 1.34312 2.72386 0
M  V30 3375 H 313.864 0.719026 1.30959 0
M  V30 3376 H 315.746 -0.641774 4.16484 0
M  V30 3377 H 314.421 -1.07916 3.05181 0
M  V30 3378 H 313.328 1.18428 3.5486 0
M  V30 3379 H 314.661 1.53946 4.67506 0
M  V30 3380 N 316.313 -1.40141 0.720998 0
M  V30 3381 C 317.245 -2.29177 0.0324669 0
M  V30 3382 C 318.258 -1.46105 -0.718126 0
M  V30 3383 O 319.447 -1.69335 -0.564608 0
M  V30 3384 C 316.547 -3.24473 -0.978292 0
M  V30 3385 C 315.72 -4.36423 -0.292115 0
M  V30 3386 C 314.779 -5.12122 -1.20901 0
M  V30 3387 O 313.805 -5.64981 -0.691766 0
M  V30 3388 N 315.007 -5.21992 -2.53978 0
M  V30 3389 H 317.772 -2.88909 0.796984 0
M  V30 3390 H 315.333 -1.51569 0.569068 0
M  V30 3391 H 317.325 -3.71987 -1.59398 0
M  V30 3392 H 315.895 -2.65871 -1.64413 0
M  V30 3393 H 315.115 -3.90967 0.503847 0
M  V30 3394 H 316.403 -5.08467 0.183971 0
M  V30 3395 H 315.801 -4.8054 -2.98493 0
M  V30 3396 H 314.358 -5.72995 -3.10677 0
M  V30 3397 N 317.792 -0.46758 -1.50504 0
M  V30 3398 C 318.722 0.318381 -2.31319 0
M  V30 3399 C 319.703 0.993564 -1.38066 0
M  V30 3400 O 320.888 0.991411 -1.66987 0
M  V30 3401 C 318.018 1.40275 -3.17711 0
M  V30 3402 C 316.972 0.849373 -4.19487 0
M  V30 3403 C 316.298 2.03177 -4.94594 0
M  V30 3404 C 317.598 -0.136942 -5.2212 0
M  V30 3405 H 319.292 -0.356106 -2.97275 0
M  V30 3406 H 316.838 -0.172703 -1.42961 0
M  V30 3407 H 318.791 1.96004 -3.73042 0
M  V30 3408 H 317.515 2.10596 -2.49634 0
M  V30 3409 H 316.174 0.314076 -3.65252 0
M  V30 3410 H 315.822 2.72187 -4.22993 0
M  V30 3411 H 315.522 1.66774 -5.63436 0
M  V30 3412 H 317.046 2.59403 -5.52759 0
M  V30 3413 H 318.46 0.331056 -5.72343 0
M  V30 3414 H 316.857 -0.41507 -5.98663 0
M  V30 3415 H 317.927 -1.06398 -4.73083 0
M  V30 3416 N 319.27 1.56325 -0.20005 0
M  V30 3417 C 320.686 1.58839 0.155716 0
M  V30 3418 C 320.886 1.21636 1.60645 0
M  V30 3419 O 319.942 0.941437 2.34293 0
M  V30 3420 C 321.255 3.0032 -0.151124 0
M  V30 3421 C 322.803 3.12866 -0.0916284 0
M  V30 3422 C 323.278 4.56488 -0.371845 0
M  V30 3423 N 324.769 4.62089 -0.320641 0
M  V30 3424 C 325.504 5.71116 -0.511243 0
M  V30 3425 N 325 6.88592 -0.762461 0
M  V30 3426 N 326.793 5.60335 -0.445157 0
M  V30 3427 H 318.944 1.78788 -1.14668 0
M  V30 3428 H 321.207 0.829996 -0.458051 0
M  V30 3429 H 320.913 3.32117 -1.15721 0
M  V30 3430 H 320.787 3.73257 0.543986 0
M  V30 3431 H 323.174 2.80878 0.905065 0
M  V30 3432 H 323.255 2.42304 -0.81989 0
M  V30 3433 H 322.899 4.89189 -1.36588 0
M  V30 3434 H 322.829 5.25246 0.377362 0
M  V30 3435 H 325.32 3.77665 -0.13329 0
M  V30 3436 H 325.633 7.67581 -0.896576 0
M  V30 3437 H 323.978 6.90387 -0.799412 0
M  V30 3438 H 327.169 4.67436 -0.249278 0
M  V30 3439 H 327.342 6.45243 -0.597116 0
M  V30 3440 N 320.748 -0.0735177 1.57428 0
M  V30 3441 C 321.994 -0.774145 1.87443 0
M  V30 3442 C 322.327 -1.77311 0.792103 0
M  V30 3443 O 321.602 -1.93492 -0.197793 0
M  V30 3444 C 321.885 -1.48367 3.28115 0
M  V30 3445 C 321.738 -0.501227 4.46999 0
M  V30 3446 C 323.057 -2.429 3.66998 0
M  V30 3447 H 320.176 -0.279971 0.681752 0
M  V30 3448 H 322.818 -0.0373616 1.89963 0
M  V30 3449 H 320.968 -2.11171 3.26097 0
M  V30 3450 H 322.64 0.121468 4.6114 0
M  V30 3451 H 320.883 0.183593 4.33411 0
M  V30 3452 H 321.554 -1.03526 5.42205 0
M  V30 3453 H 324.03 -1.90175 3.70098 0
M  V30 3454 H 322.906 -2.89549 4.66318 0
M  V30 3455 H 323.167 -3.27628 2.96837 0
M  V30 3456 N 322.226 -1.5378 -0.344866 0
M  V30 3457 C 323.156 -1.84662 -1.42906 0
M  V30 3458 C 324.137 -0.701648 -1.54955 0
M  V30 3459 O 325.322 -0.953438 -1.69184 0
M  V30 3460 C 322.452 -2.05503 -2.79974 0
M  V30 3461 C 321.406 -3.21318 -2.82734 0
M  V30 3462 C 320.732 -3.2749 -4.22675 0
M  V30 3463 C 322.032 -4.59456 -2.48389 0
M  V30 3464 H 323.726 -2.75461 -1.17311 0
M  V30 3465 H 321.272 -1.32542 -0.562896 0
M  V30 3466 H 323.225 -2.25691 -3.55867 0
M  V30 3467 H 321.949 -1.11434 -3.07002 0
M  V30 3468 H 320.608 -3.00984 -2.09294 0
M  V30 3469 H 320.256 -2.31019 -4.4681 0
M  V30 3470 H 319.956 -4.05316 -4.25433 0
M  V30 3471 H 321.48 -3.49887 -5.00412 0
M  V30 3472 H 322.894 -4.79667 -3.13995 0
M  V30 3473 H 321.291 -5.39675 -2.62432 0
M  V30 3474 H 322.361 -4.63155 -1.4358 0
M  V30 3475 N 323.704 0.605807 -1.45491 0
M  V30 3476 C 324.934 1.38934 -1.52908 0
M  V30 3477 C 325.342 1.88513 -0.161086 0
M  V30 3478 O 324.685 1.62962 0.847891 0
M  V30 3479 C 324.747 2.62737 -2.45376 0
M  V30 3480 C 324.411 2.34785 -3.92078 0
M  V30 3481 C 325.408 1.95038 -4.8193 0
M  V30 3482 C 323.093 2.47642 -4.37011 0
M  V30 3483 C 325.087 1.68511 -6.14722 0
M  V30 3484 C 322.774 2.20728 -5.69844 0
M  V30 3485 C 323.772 1.81225 -6.58519 0
M  V30 3486 O 323.46 1.54627 -7.88889 0
M  V30 3487 H 323.192 0.431629 -0.520262 0
M  V30 3488 H 325.746 0.74573 -1.91384 0
M  V30 3489 H 323.976 3.29824 -2.01874 0
M  V30 3490 H 325.665 3.24783 -2.43456 0
M  V30 3491 H 326.431 1.84639 -4.48479 0
M  V30 3492 H 322.31 2.77356 -3.68232 0
M  V30 3493 H 325.854 1.37602 -6.83894 0
M  V30 3494 H 321.751 2.30744 -6.02849 0
M  V30 3495 H 322.519 1.68665 -8.00933 0
M  V30 3496 N 325.182 1.32811 0.848464 0
M  V30 3497 C 326.13 1.22231 1.97895 0
M  V30 3498 C 327.124 0.125749 1.68933 0
M  V30 3499 O 328.33 0.289083 1.77663 0
M  V30 3500 H 324.705 0.379058 0.649476 0
M  V30 3501 H 326.676 2.17828 2.03945 0
M  V30 3502 C 325.425 0.968572 3.33937 0
M  V30 3503 H 324.748 1.80458 3.56756 0
M  V30 3504 H 326.188 0.934808 4.13567 0
M  V30 3505 C 324.647 -0.328628 3.35293 0
M  V30 3506 O 325.177 -1.33848 3.78745 0
M  V30 3507 N 323.383 -0.352788 2.88451 0
M  V30 3508 H 322.93 0.469541 2.53285 0
M  V30 3509 H 322.888 -1.22057 2.89741 0
M  V30 3510 N 326.66 -1.06551 1.16123 0
M  V30 3511 C 327.908 -1.78947 0.939267 0
M  V30 3512 C 328.229 -1.87532 -0.534476 0
M  V30 3513 O 327.499 -1.38211 -1.38833 0
M  V30 3514 H 326.079 -0.662807 0.344523 0
M  V30 3515 H 328.741 -1.28725 1.46342 0
M  V30 3516 H 327.837 -2.81117 1.35572 0
M  V30 3517 N 328.138 -0.959301 -1.25041 0
M  V30 3518 C 329.048 -0.489994 -2.29426 0
M  V30 3519 C 330.064 0.444944 -1.68215 0
M  V30 3520 O 331.24 0.320046 -1.98841 0
M  V30 3521 C 328.305 0.220309 -3.45999 0
M  V30 3522 C 327.366 -0.753418 -4.22637 0
M  V30 3523 C 326.599 -0.076918 -5.33645 0
M  V30 3524 O 326.822 1.13649 -5.58963 0
M  V30 3525 O 325.756 -0.764824 -5.97021 0
M  V30 3526 H 329.582 -1.35755 -2.71669 0
M  V30 3527 H 327.167 -0.725961 -1.30576 0
M  V30 3528 H 329.049 0.619677 -4.16819 0
M  V30 3529 H 327.724 1.06296 -3.0575 0
M  V30 3530 H 326.631 -1.20308 -3.54227 0
M  V30 3531 H 327.964 -1.56423 -4.66683 0
M  V30 3532 N 329.616 1.39756 -0.72842 0
M  V30 3533 C 331.032 1.5442 -0.403308 0
M  V30 3534 C 331.232 1.69694 1.08656 0
M  V30 3535 O 330.288 1.69373 1.87267 0
M  V30 3536 C 331.601 2.76555 -1.18058 0
M  V30 3537 C 333.149 2.90384 -1.16815 0
M  V30 3538 C 333.624 4.15449 -1.92785 0
M  V30 3539 N 335.115 4.22475 -1.89918 0
M  V30 3540 C 335.85 5.1818 -2.45514 0
M  V30 3541 N 335.346 6.19714 -3.09719 0
M  V30 3542 N 337.139 5.1035 -2.35584 0
M  V30 3543 H 329.29 1.28089 -1.69431 0
M  V30 3544 H 331.553 0.620327 -0.716867 0
M  V30 3545 H 331.259 2.7159 -2.23455 0
M  V30 3546 H 331.133 3.69033 -0.780662 0
M  V30 3547 H 333.52 2.94846 -0.12234 0
M  V30 3548 H 333.601 1.98988 -1.6074 0
M  V30 3549 H 333.245 4.11749 -2.97364 0
M  V30 3550 H 333.175 5.05877 -1.46272 0
M  V30 3551 H 335.666 3.49743 -1.43138 0
M  V30 3552 H 335.979 6.8919 -3.49625 0
M  V30 3553 H 334.324 6.20121 -3.13807 0
M  V30 3554 H 337.515 4.2996 -1.85072 0
M  V30 3555 H 337.688 5.84761 -2.79211 0
M  V30 3556 N 331.094 0.475555 1.50254 0
M  V30 3557 C 332.343 -0.0795996 2.01543 0
M  V30 3558 C 332.656 -1.4038 1.36209 0
M  V30 3559 O 333.862 -2.04415 1.7868 0
M  V30 3560 C 332.318 -0.192363 3.59386 0
M  V30 3561 C 331.926 1.12367 4.33679 0
M  V30 3562 C 333.67 -0.699238 4.18701 0
M  V30 3563 C 331.577 0.974453 5.83317 0
M  V30 3564 H 330.507 -0.0335228 0.753254 0
M  V30 3565 H 333.158 0.611128 1.73025 0
M  V30 3566 H 331.54 -0.946974 3.84511 0
M  V30 3567 H 332.714 1.88958 4.20276 0
M  V30 3568 H 331.029 1.562 3.85993 0
M  V30 3569 H 333.626 -0.827978 5.28251 0
M  V30 3570 H 333.969 -1.69171 3.80377 0
M  V30 3571 H 334.502 -0.00188807 3.978 0
M  V30 3572 H 331.241 1.94042 6.26121 0
M  V30 3573 H 330.761 0.248998 5.99283 0
M  V30 3574 H 332.44 0.642867 6.43798 0
M  V30 3575 N 332.573 -1.56217 0.208337 0
M  V30 3576 C 333.523 -2.16324 -0.720281 0
M  V30 3577 C 334.507 -1.10775 -1.16695 0
M  V30 3578 O 335.699 -1.36801 -1.12314 0
M  V30 3579 C 332.828 -2.83644 -1.93393 0
M  V30 3580 C 331.914 -3.96401 -1.50755 0
M  V30 3581 N 332.305 -4.99546 -0.792937 0
M  V30 3582 C 330.603 -4.08246 -1.79585 0
M  V30 3583 C 331.304 -5.78828 -0.577364 0
M  V30 3584 N 330.28 -5.31723 -1.1301 0
M  V30 3585 H 334.082 -2.93432 -0.165725 0
M  V30 3586 H 331.596 -1.62397 0.00906463 0
M  V30 3587 H 333.593 -3.25107 -2.60981 0
M  V30 3588 H 332.253 -2.08027 -2.49308 0
M  V30 3589 H 333.264 -5.15967 -0.447004 0
M  V30 3590 H 329.941 -3.4377 -2.36915 0
M  V30 3591 H 331.331 -6.71899 -0.00952956 0
M  V30 3592 N 334.051 0.0651679 -1.57465 0
M  V30 3593 C 335.297 0.764193 -1.87851 0
M  V30 3594 C 335.63 1.76889 -0.801495 0
M  V30 3595 O 334.905 1.93594 0.187528 0
M  V30 3596 C 335.188 1.46625 -3.28897 0
M  V30 3597 C 335.041 0.477515 -4.47258 0
M  V30 3598 C 336.36 2.4095 -3.68281 0
M  V30 3599 H 333.479 0.276351 -0.683227 0
M  V30 3600 H 336.121 0.0272868 -1.8998 0
M  V30 3601 H 334.271 2.09438 -3.27212 0
M  V30 3602 H 335.943 -0.145922 -4.61069 0
M  V30 3603 H 334.186 -0.206576 -4.33308 0
M  V30 3604 H 334.857 1.0065 -5.42746 0
M  V30 3605 H 337.333 1.88209 -3.71102 0
M  V30 3606 H 336.209 2.87072 -4.67847 0
M  V30 3607 H 336.47 3.26049 -2.98571 0
M  V30 3608 N 335.529 1.53961 0.336706 0
M  V30 3609 C 336.439 1.85432 1.43708 0
M  V30 3610 C 337.455 0.745053 1.57242 0
M  V30 3611 O 338.631 1.03804 1.72588 0
M  V30 3612 C 335.696 2.06349 2.78605 0
M  V30 3613 C 334.757 3.30191 2.74358 0
M  V30 3614 C 333.99 3.50101 4.02822 0
M  V30 3615 O 334.213 2.7371 5.00439 0
M  V30 3616 O 333.147 4.43547 4.06878 0
M  V30 3617 H 336.973 2.78975 1.20028 0
M  V30 3618 H 334.558 1.39701 0.52952 0
M  V30 3619 H 336.44 2.21513 3.58483 0
M  V30 3620 H 335.115 1.15995 3.02203 0
M  V30 3621 H 334.022 3.20425 1.93078 0
M  V30 3622 H 335.355 4.2056 2.55715 0
M  V30 3623 N 337.007 -0.598083 1.45811 0
M  V30 3624 C 337.937 -1.71873 1.58057 0
M  V30 3625 C 338.918 -1.64533 0.431615 0
M  V30 3626 O 340.103 -1.82787 0.65595 0
M  V30 3627 C 337.233 -3.10495 1.55597 0
M  V30 3628 C 336.187 -3.32654 2.69305 0
M  V30 3629 C 335.513 -4.71646 2.51902 0
M  V30 3630 C 336.813 -3.21981 4.11248 0
M  V30 3631 H 338.507 -1.61881 2.51863 0
M  V30 3632 H 336.053 -0.777372 1.21214 0
M  V30 3633 H 338.006 -3.88699 1.6276 0
M  V30 3634 H 336.73 -3.2135 0.583255 0
M  V30 3635 H 335.389 -2.56843 2.61586 0
M  V30 3636 H 335.037 -4.79246 1.52748 0
M  V30 3637 H 334.737 -4.87426 3.2816 0
M  V30 3638 H 336.261 -5.52038 2.60933 0
M  V30 3639 H 337.675 -3.90049 4.20161 0
M  V30 3640 H 336.072 -3.49289 4.87972 0
M  V30 3641 H 337.142 -2.1928 4.32486 0
M  V30 3642 N 338.485 -1.33259 -0.841409 0
M  V30 3643 C 339.448 -1.23221 -1.9326 0
M  V30 3644 C 340.448 -0.151895 -1.60081 0
M  V30 3645 O 341.638 -0.403246 -1.69468 0
M  V30 3646 C 338.77 -0.898123 -3.28856 0
M  V30 3647 H 339.963 -2.2021 -2.03587 0
M  V30 3648 H 337.516 -1.17281 -1.03319 0
M  V30 3649 H 338.251 0.0693841 -3.24226 0
M  V30 3650 H 338.036 -1.67934 -3.54317 0
M  V30 3651 H 339.526 -0.852563 -4.08805 0
M  V30 3652 N 339.963 1.05934 -1.16686 0
M  V30 3653 C 340.91 2.13499 -0.876748 0
M  V30 3654 C 341.88 1.65162 0.176299 0
M  V30 3655 O 343.065 1.90757 0.0407143 0
M  V30 3656 C 340.205 3.42912 -0.387967 0
M  V30 3657 C 339.318 4.04964 -1.50426 0
M  V30 3658 C 338.453 5.22266 -0.970125 0
M  V30 3659 C 337.492 5.76309 -2.06238 0
M  V30 3660 N 336.629 6.84922 -1.54356 0
M  V30 3661 H 341.469 2.37654 -1.7979 0
M  V30 3662 H 339.006 1.16598 -0.896843 0
M  V30 3663 H 340.964 4.17111 -0.086186 0
M  V30 3664 H 339.594 3.18963 0.496235 0
M  V30 3665 H 338.646 3.28277 -1.92193 0
M  V30 3666 H 339.958 4.41122 -2.32836 0
M  V30 3667 H 339.112 6.03506 -0.621743 0
M  V30 3668 H 337.851 4.87564 -0.115377 0
M  V30 3669 H 336.856 4.93704 -2.41942 0
M  V30 3670 H 338.081 6.13062 -2.92115 0
M  V30 3671 H 336.027 6.52131 -0.711406 0
M  V30 3672 H 335.944 7.20043 -2.30379 0
M  V30 3673 H 337.212 7.69832 -1.22387 0
M  V30 3674 N 341.441 0.965919 1.2453 0
M  V30 3675 C 342.351 0.502154 2.29163 0
M  V30 3676 C 343.367 -0.436017 1.68448 0
M  V30 3677 O 344.543 -0.309497 1.99008 0
M  V30 3678 C 341.608 -0.201956 3.46111 0
M  V30 3679 C 340.669 0.775821 4.22232 0
M  V30 3680 C 339.902 0.105217 5.33596 0
M  V30 3681 O 340.125 -1.10683 5.59558 0
M  V30 3682 O 339.059 0.796475 5.96607 0
M  V30 3683 H 342.885 1.37194 2.70946 0
M  V30 3684 H 340.47 0.732875 1.30189 0
M  V30 3685 H 342.352 -0.597564 4.17142 0
M  V30 3686 H 341.027 -1.04673 3.06309 0
M  V30 3687 H 339.934 1.22185 3.53584 0
M  V30 3688 H 341.267 1.58896 4.65846 0
M  V30 3689 N 342.919 -1.39368 0.735821 0
M  V30 3690 C 344.165 -2.00794 0.284544 0
M  V30 3691 C 344.498 -1.58255 -1.12557 0
M  V30 3692 O 343.773 -0.811819 -1.76748 0
M  V30 3693 C 344.056 -3.58011 0.387337 0
M  V30 3694 C 343.909 -4.10566 1.83728 0
M  V30 3695 C 345.228 -4.395 -0.22975 0
M  V30 3696 H 342.347 -0.729501 0.104866 0
M  V30 3697 H 344.989 -1.65564 0.93213 0
M  V30 3698 H 343.139 -3.88154 -0.164006 0
M  V30 3699 H 344.811 -3.91139 2.44556 0
M  V30 3700 H 343.054 -3.64095 2.35833 0
M  V30 3701 H 343.725 -5.19702 1.86047 0
M  V30 3702 H 346.201 -4.15406 0.240257 0
M  V30 3703 H 345.077 -5.48752 -0.127485 0
M  V30 3704 H 345.338 -4.22062 -1.3159 0
M  V30 3705 N 344.397 -0.483516 -1.5 0
M  V30 3706 C 345.808 -0.0314176 -1.86674 0
M  V30 3707 C 346.159 1.37728 -1.39733 0
M  V30 3708 O 345.284 2.02327 -0.767635 0
M  V30 3709 C 345.879 -0.0502376 -3.38763 0
M  V30 3710 C 344.438 0.346442 -3.74802 0
M  V30 3711 C 343.585 -0.430366 -2.7394 0
M  V30 3712 H 346.536 -0.697182 -1.42566 0
M  V30 3713 H 346.557 0.749116 -3.73053 0
M  V30 3714 H 346.069 -1.07563 -3.72897 0
M  V30 3715 H 344.17 1.37572 -3.46273 0
M  V30 3716 H 344.283 0.0391486 -4.79084 0
M  V30 3717 H 342.647 0.117557 -2.54429 0
M  V30 3718 H 343.43 -1.4555 -3.10918 0
M  V30 3719 N 345.875 1.56104 -0.216619 0
M  V30 3720 C 346.838 2.18819 0.681962 0
M  V30 3721 C 347.838 1.14866 1.12528 0
M  V30 3722 O 349.028 1.40128 1.03488 0
M  V30 3723 C 346.16 2.80756 1.93362 0
M  V30 3724 H 347.353 2.99595 0.135254 0
M  V30 3725 H 344.906 1.56265 0.0330003 0
M  V30 3726 H 345.641 2.03837 2.52232 0
M  V30 3727 H 345.426 3.56876 1.62426 0
M  V30 3728 H 346.916 3.28844 2.57393 0
M  V30 3729 N 347.353 -0.0568162 1.57498 0
M  V30 3730 C 348.599 -0.75422 1.88253 0
M  V30 3731 C 348.932 -1.76461 0.810865 0
M  V30 3732 O 348.207 -1.93691 -0.177259 0
M  V30 3733 C 348.49 -1.44878 3.2967 0
M  V30 3734 C 348.343 -0.453789 4.47505 0
M  V30 3735 C 349.662 -2.38994 3.69554 0
M  V30 3736 H 346.781 -0.272724 0.684683 0
M  V30 3737 H 349.423 -0.0172113 1.89992 0
M  V30 3738 H 347.573 -2.077 3.28318 0
M  V30 3739 H 349.245 0.170371 4.60985 0
M  V30 3740 H 347.488 0.229552 4.33192 0
M  V30 3741 H 348.159 -0.977699 5.43273 0
M  V30 3742 H 350.635 -1.86239 3.72095 0
M  V30 3743 H 349.511 -2.84587 4.69363 0
M  V30 3744 H 349.772 -3.24461 3.00296 0
M  V30 3745 N 348.832 -1.54138 -0.328536 0
M  V30 3746 C 350.08 -1.71765 -1.06496 0
M  V30 3747 C 350.401 -0.49149 -1.88704 0
M  V30 3748 O 349.671 0.494539 -1.89555 0
M  V30 3749 H 348.251 -0.633295 -0.396164 0
M  V30 3750 H 350.913 -1.91429 -0.366176 0
M  V30 3751 H 350.009 -2.5951 -1.73381 0
M  V30 3752 N 350.31 0.590341 -1.46126 0
M  V30 3753 C 351.556 1.35082 -1.51264 0
M  V30 3754 C 351.889 1.93534 -0.160711 0
M  V30 3755 O 351.164 1.76045 0.826956 0
M  V30 3756 C 351.447 2.48588 -2.6053 0
M  V30 3757 C 351.3 1.95221 -4.05227 0
M  V30 3758 C 352.619 3.50662 -2.6594 0
M  V30 3759 H 349.738 0.489803 -0.550692 0
M  V30 3760 H 352.38 0.663887 -1.78024 0
M  V30 3761 H 350.53 3.07186 -2.37843 0
M  V30 3762 H 352.202 1.41139 -4.39178 0
M  V30 3763 H 350.445 1.26101 -4.15068 0
M  V30 3764 H 351.116 2.77121 -4.77397 0
M  V30 3765 H 353.592 3.01934 -2.86313 0
M  V30 3766 H 352.468 4.27551 -3.44226 0
M  V30 3767 H 352.729 4.07399 -1.71694 0
M  V30 3768 N 351.788 1.33704 0.83433 0
M  V30 3769 C 353.065 1.16011 1.57483 0
M  V30 3770 C 353.445 -0.27176 2.09343 0
M  V30 3771 O 352.793 -1.27146 1.89858 0
M  V30 3772 C 353.003 2.20507 2.70514 0
M  V30 3773 C 354.351 2.54898 3.39577 0
M  V30 3774 O 355.375 2.19209 2.80759 0
M  V30 3775 O 354.234 3.16158 4.45765 0
M  V30 3776 H 351.328 0.448992 0.694503 0
M  V30 3777 H 353.874 1.453 0.876691 0
M  V30 3778 H 352.646 3.16667 2.29865 0
M  V30 3779 H 352.269 1.92329 3.47987 0
M  V30 3780 N 353.266 -1.05314 1.17247 0
M  V30 3781 C 354.494 -1.81971 0.984593 0
M  V30 3782 C 354.909 -1.82929 -0.467166 0
M  V30 3783 O 354.266 -1.25564 -1.32438 0
M  V30 3784 C 354.317 -3.28143 1.51672 0
M  V30 3785 O 354.038 -3.27347 2.91163 0
M  V30 3786 C 355.539 -4.21493 1.37326 0
M  V30 3787 H 352.759 -0.573455 0.348411 0
M  V30 3788 H 355.303 -1.32808 1.55506 0
M  V30 3789 H 353.458 -3.74582 0.988302 0
M  V30 3790 H 353.872 -4.18824 3.15732 0
M  V30 3791 H 355.346 -5.22043 1.79375 0
M  V30 3792 H 355.823 -4.38031 0.320169 0
M  V30 3793 H 356.429 -3.80909 1.89178 0
M  V30 3794 N 354.744 -0.972509 -1.24016 0
M  V30 3795 C 355.707 -0.511403 -2.23422 0
M  V30 3796 C 356.707 0.394679 -1.55881 0
M  V30 3797 O 357.897 0.189469 -1.73167 0
M  V30 3798 C 355.029 0.258769 -3.39916 0
M  V30 3799 H 356.222 -1.39024 -2.6573 0
M  V30 3800 H 353.775 -0.757585 -1.36713 0
M  V30 3801 H 354.51 1.1545 -3.03054 0
M  V30 3802 H 354.295 -0.391522 -3.9014 0
M  V30 3803 H 355.785 0.570244 -4.13688 0
M  V30 3804 N 356.222 1.38976 -0.743202 0
M  V30 3805 C 357.132 2.3434 -0.110399 0
M  V30 3806 C 358.148 1.58741 0.712559 0
M  V30 3807 O 359.324 1.9099 0.639125 0
M  V30 3808 C 356.389 3.37812 0.780012 0
M  V30 3809 C 355.45 4.29263 -0.0561319 0
M  V30 3810 C 354.683 5.27793 0.791875 0
M  V30 3811 O 354.906 5.33043 2.03031 0
M  V30 3812 O 353.84 6.01512 0.216183 0
M  V30 3813 H 357.666 2.90129 -0.897714 0
M  V30 3814 H 355.251 1.40643 -0.503966 0
M  V30 3815 H 357.133 4.01194 1.28923 0
M  V30 3816 H 355.808 2.84395 1.546 0
M  V30 3817 H 354.715 3.69076 -0.611056 0
M  V30 3818 H 356.048 4.85907 -0.784531 0
M  V30 3819 N 357.7 0.491464 1.49741 0
M  V30 3820 C 358.977 -0.118984 1.95238 0
M  V30 3821 C 359.357 -1.55044 1.43264 0
M  V30 3822 O 358.705 -2.19287 0.642287 0
M  V30 3823 C 358.915 -0.0414187 3.48975 0
M  V30 3824 C 360.263 -0.220133 4.24029 0
M  V30 3825 O 361.287 -0.117055 3.56008 0
M  V30 3826 O 360.146 -0.430567 5.44801 0
M  V30 3827 H 357.24 -0.100536 0.820866 0
M  V30 3828 H 359.786 0.553322 1.60426 0
M  V30 3829 H 358.558 0.957214 3.79412 0
M  V30 3830 H 358.181 -0.754292 3.9038 0
M  V30 3831 N 359.178 -1.55987 0.224894 0
M  V30 3832 C 360.108 -2.23426 -0.678457 0
M  V30 3833 C 361.089 -1.20709 -1.19847 0
M  V30 3834 O 362.274 -1.49304 -1.24186 0
M  V30 3835 C 359.404 -2.91676 -1.88527 0
M  V30 3836 C 358.358 -4.00893 -1.49896 0
M  V30 3837 C 357.684 -4.56455 -2.78483 0
M  V30 3838 C 358.984 -5.17769 -0.686461 0
M  V30 3839 H 360.678 -2.99175 -0.116173 0
M  V30 3840 H 358.224 -1.43897 -0.054436 0
M  V30 3841 H 360.177 -3.37547 -2.5227 0
M  V30 3842 H 358.901 -2.1338 -2.47258 0
M  V30 3843 H 357.56 -3.55758 -0.884985 0
M  V30 3844 H 357.208 -3.74886 -3.35365 0
M  V30 3845 H 356.908 -5.30169 -2.53368 0
M  V30 3846 H 358.432 -5.05047 -3.43162 0
M  V30 3847 H 359.846 -5.60001 -1.22767 0
M  V30 3848 H 358.243 -5.97735 -0.532259 0
M  V30 3849 H 359.313 -4.83932 0.306196 0
M  V30 3850 N 360.656 0.0484629 -1.57525 0
M  V30 3851 C 361.566 1.07241 -2.08654 0
M  V30 3852 C 362.582 1.409 -1.02095 0
M  V30 3853 O 363.758 1.50609 -1.33712 0
M  V30 3854 C 360.823 2.36008 -2.5397 0
M  V30 3855 C 359.884 2.09108 -3.7493 0
M  V30 3856 C 359.117 3.31736 -4.18075 0
M  V30 3857 O 359.34 4.41714 -3.60895 0
M  V30 3858 O 358.274 3.18576 -5.10679 0
M  V30 3859 H 362.1 0.667965 -2.96263 0
M  V30 3860 H 359.685 0.26417 -1.47046 0
M  V30 3861 H 361.567 3.11747 -2.83535 0
M  V30 3862 H 360.242 2.75786 -1.69481 0
M  V30 3863 H 359.149 1.31 -3.50414 0
M  V30 3864 H 360.482 1.74198 -4.60343 0
M  V30 3865 N 362.134 1.5431 0.320358 0
M  V30 3866 C 363.081 1.83918 1.39438 0
M  V30 3867 C 364.051 0.686525 1.51248 0
M  V30 3868 O 365.236 0.933269 1.66417 0
M  V30 3869 C 362.376 2.075 2.75749 0
M  V30 3870 C 361.489 3.35177 2.72544 0
M  V30 3871 C 360.624 3.48704 4.00723 0
M  V30 3872 C 359.663 4.70244 3.91838 0
M  V30 3873 N 358.8 4.80679 5.11754 0
M  V30 3874 H 363.64 2.75544 1.13489 0
M  V30 3875 H 361.177 1.36459 0.549309 0
M  V30 3876 H 363.135 2.19166 3.54996 0
M  V30 3877 H 361.765 1.19163 3 0
M  V30 3878 H 360.817 3.32233 1.85271 0
M  V30 3879 H 362.129 4.24534 2.61863 0
M  V30 3880 H 361.283 3.59928 4.88402 0
M  V30 3881 H 360.022 2.57445 4.14214 0
M  V30 3882 H 359.027 4.59072 3.02544 0
M  V30 3883 H 360.252 5.6289 3.7991 0
M  V30 3884 H 358.198 3.92337 5.25745 0
M  V30 3885 H 358.115 5.64007 5.0342 0
M  V30 3886 H 359.383 4.96239 6.01138 0
M  V30 3887 N 363.613 -0.582584 1.46437 0
M  V30 3888 C 364.859 -1.34278 1.51978 0
M  V30 3889 C 365.192 -1.93446 0.170973 0
M  V30 3890 O 364.467 -1.76481 -0.817608 0
M  V30 3891 C 364.75 -2.47203 2.61845 0
M  V30 3892 C 364.603 -1.93069 4.06257 0
M  V30 3893 C 365.922 -3.49247 2.67795 0
M  V30 3894 H 363.041 -0.486876 0.553282 0
M  V30 3895 H 365.683 -0.654437 1.78374 0
M  V30 3896 H 363.833 -3.0592 2.39469 0
M  V30 3897 H 365.505 -1.38808 4.3992 0
M  V30 3898 H 363.748 -1.23898 4.1573 0
M  V30 3899 H 364.419 -2.74586 4.7886 0
M  V30 3900 H 366.895 -3.00411 2.8791 0
M  V30 3901 H 365.771 -4.25719 3.46489 0
M  V30 3902 H 366.032 -4.06482 1.73852 0
M  V30 3903 N 365.091 -1.34144 -0.827227 0
M  V30 3904 C 366.507 -1.13732 -1.11969 0
M  V30 3905 C 366.707 0.0640463 -2.01398 0
M  V30 3906 O 365.763 0.740856 -2.41387 0
M  V30 3907 C 367.076 -2.43047 -1.77055 0
M  V30 3908 C 368.624 -2.49063 -1.89569 0
M  V30 3909 C 369.099 -3.78369 -2.58072 0
M  V30 3910 N 370.59 -3.79505 -2.65575 0
M  V30 3911 C 371.325 -4.76274 -3.19297 0
M  V30 3912 N 370.821 -5.83424 -3.73616 0
M  V30 3913 N 372.614 -4.63735 -3.17658 0
M  V30 3914 H 364.765 -2.11126 -0.232296 0
M  V30 3915 H 367.028 -0.933424 -0.165602 0
M  V30 3916 H 366.734 -3.31025 -1.18807 0
M  V30 3917 H 366.608 -2.56066 -2.76966 0
M  V30 3918 H 368.995 -1.61527 -2.46968 0
M  V30 3919 H 369.076 -2.39975 -0.885745 0
M  V30 3920 H 368.72 -4.66293 -2.01329 0
M  V30 3921 H 368.65 -3.84737 -3.59562 0
M  V30 3922 H 371.141 -3.02074 -2.27068 0
M  V30 3923 H 371.454 -6.53282 -4.12846 0
M  V30 3924 H 369.799 -5.87143 -3.71871 0
M  V30 3925 H 372.99 -3.79177 -2.74486 0
M  V30 3926 H 373.163 -5.39318 -3.59221 0
M  V30 3927 N 366.569 1.04691 -1.17803 0
M  V30 3928 C 367.532 2.10724 -0.901545 0
M  V30 3929 C 368.532 1.6042 0.110437 0
M  V30 3930 O 369.722 1.7377 -0.122303 0
M  V30 3931 C 366.854 3.39084 -0.351409 0
M  V30 3932 H 368.047 2.36686 -1.84174 0
M  V30 3933 H 365.6 1.21015 -0.98919 0
M  V30 3934 H 366.335 3.18782 0.59569 0
M  V30 3935 H 366.12 3.76909 -1.08083 0
M  V30 3936 H 367.61 4.17227 -0.176451 0
M  V30 3937 N 368.047 0.979072 1.23499 0
M  V30 3938 C 369.296 0.642751 1.91185 0
M  V30 3939 C 369.609 -0.827253 1.77245 0
M  V30 3940 O 370.815 -1.27458 2.39722 0
M  V30 3941 C 369.271 1.09901 3.42709 0
M  V30 3942 C 368.879 2.59327 3.65313 0
M  V30 3943 C 370.623 0.836371 4.16179 0
M  V30 3944 C 368.53 2.98627 5.10467 0
M  V30 3945 H 367.46 0.236698 0.715884 0
M  V30 3946 H 370.111 1.1868 1.39955 0
M  V30 3947 H 368.493 0.48319 3.93041 0
M  V30 3948 H 369.667 3.26136 3.25533 0
M  V30 3949 H 367.982 2.83323 3.05151 0
M  V30 3950 H 370.579 1.10586 5.23139 0
M  V30 3951 H 370.922 -0.227509 4.15678 0
M  V30 3952 H 371.455 1.41371 3.71832 0
M  V30 3953 H 368.194 4.04133 5.16098 0
M  V30 3954 H 367.714 2.3651 5.51201 0
M  V30 3955 H 369.393 2.89159 5.78788 0
M  V30 3956 N 369.525 -1.3858 0.750561 0
M  V30 3957 C 370.455 -2.33102 0.136237 0
M  V30 3958 C 371.436 -1.54713 -0.706965 0
M  V30 3959 O 372.621 -1.83043 -0.648769 0
M  V30 3960 C 369.751 -3.38882 -0.760017 0
M  V30 3961 C 368.705 -4.27995 -0.0197785 0
M  V30 3962 C 368.031 -5.24605 -1.03408 0
M  V30 3963 C 369.331 -5.09554 1.14684 0
M  V30 3964 H 371.025 -2.84726 0.925822 0
M  V30 3965 H 368.571 -1.36898 0.446654 0
M  V30 3966 H 370.524 -4.0397 -1.19943 0
M  V30 3967 H 369.248 -2.85734 -1.58189 0
M  V30 3968 H 367.907 -3.64409 0.400184 0
M  V30 3969 H 367.555 -4.67746 -1.84994 0
M  V30 3970 H 367.255 -5.85081 -0.543464 0
M  V30 3971 H 368.779 -5.9257 -1.47288 0
M  V30 3972 H 370.193 -5.67899 0.785118 0
M  V30 3973 H 368.59 -5.7925 1.56812 0
M  V30 3974 H 369.66 -4.4347 1.96118 0
M  V30 3975 N 371.003 -0.499398 -1.49478 0
M  V30 3976 C 371.966 0.268838 -2.27618 0
M  V30 3977 C 372.966 0.895383 -1.33565 0
M  V30 3978 O 374.156 0.760164 -1.56739 0
M  V30 3979 C 371.288 1.38559 -3.11471 0
M  V30 3980 H 372.481 -0.416812 -2.96989 0
M  V30 3981 H 370.034 -0.254313 -1.54217 0
M  V30 3982 H 370.769 2.10544 -2.46661 0
M  V30 3983 H 370.554 0.941797 -3.80621 0
M  V30 3984 H 372.044 1.92678 -3.70493 0
M  V30 3985 N 372.481 1.55866 -0.233164 0
M  V30 3986 C 373.444 2.1953 0.658715 0
M  V30 3987 C 374.444 1.16053 1.11303 0
M  V30 3988 O 375.634 1.41218 1.01996 0
M  V30 3989 C 372.766 2.82791 1.90373 0
M  V30 3990 H 373.959 2.99721 0.10347 0
M  V30 3991 H 371.512 1.56291 0.0164245 0
M  V30 3992 H 372.247 2.06501 2.50056 0
M  V30 3993 H 372.032 3.58578 1.58632 0
M  V30 3994 H 373.522 3.31556 2.53891 0
M  V30 3995 N 373.959 -0.0401083 1.57549 0
M  V30 3996 C 374.907 -1.06264 2.06908 0
M  V30 3997 C 375.901 -1.38132 0.980608 0
M  V30 3998 O 377.107 -1.37167 1.16556 0
M  V30 3999 H 373.482 -0.360166 0.660139 0
M  V30 4000 H 375.453 -0.620445 2.91878 0
M  V30 4001 C 374.202 -2.35846 2.55483 0
M  V30 4002 H 373.525 -2.12183 3.38849 0
M  V30 4003 H 374.965 -3.05765 2.93741 0
M  V30 4004 C 373.424 -3.0404 1.45126 0
M  V30 4005 O 373.954 -3.93424 0.811216 0
M  V30 4006 N 372.16 -2.65184 1.18852 0
M  V30 4007 H 371.707 -1.92584 1.71083 0
M  V30 4008 H 371.665 -3.1113 0.452244 0
M  V30 4009 O 375.476 -1.60458 -0.183159 0
M  V30 4010 H 376.167 -1.75443 -0.820934 0
M  V30 END ATOM
M  V30 BEGIN BOND
M  V30 END BOND
M  V30 END CTAB
M  END
$$$$
