drugbank_target|P44886 Uncharacterized acyl-CoA thioester hydrolase HI_0827 (DB01992)
 OpenBabel12092120233D

  0  0  0     0  0            999 V3000
M  V30 BEGIN CTAB
M  V30 COUNTS 2369 2385 0 0 0
M  V30 BEGIN ATOM
M  V30 1 H -0.908 1.98254 -0.117106 0
M  V30 2 N 0 1.576 0 0
M  V30 3 C 0.933 2.03868 1.02534 0
M  V30 4 C 1.911 0.928543 1.3348 0
M  V30 5 O 3.095 1.19667 1.45644 0
M  V30 6 C 0.222 2.43627 2.35294 0
M  V30 7 C -0.732 3.65373 2.2001 0
M  V30 8 S 0.101 5.13292 1.52614 0
M  V30 9 C 1.257 5.56322 2.86805 0
M  V30 10 H 1.49 2.90518 0.631377 0
M  V30 11 H -0.977 1.52953 0.210867 0
M  V30 12 H 0.981 2.67203 3.11629 0
M  V30 13 H -0.358 1.57376 2.7183 0
M  V30 14 H -1.165 3.90944 3.18086 0
M  V30 15 H -1.563 3.418 1.51819 0
M  V30 16 H 0.729 5.58782 3.83104 0
M  V30 17 H 1.672 6.56266 2.65933 0
M  V30 18 H 2.08 4.83886 2.90714 0
M  V30 19 N 1.4781 -0.272755 1.55222 0
M  V30 20 C 2.7031 -1.02683 1.80197 0
M  V30 21 C 3.1281 -1.79142 0.573551 0
M  V30 22 O 2.4861 -1.74917 -0.476849 0
M  V30 23 C 2.5341 -1.9609 3.02624 0
M  V30 24 O 1.6381 -3.04863 2.77727 0
M  V30 25 H 0.9791 -0.293557 0.595584 0
M  V30 26 H 3.5091 -0.30159 2.02365 0
M  V30 27 H 3.5191 -2.38039 3.31363 0
M  V30 28 H 2.1941 -1.39851 3.91682 0
M  V30 29 H 0.7711 -2.67228 2.60084 0
M  V30 30 N 2.9562 -1.48159 -0.537278 0
M  V30 31 C 3.9192 -1.61665 -1.62472 0
M  V30 32 C 4.9192 -0.490395 -1.5314 0
M  V30 33 O 6.1092 -0.755998 -1.5694 0
M  V30 34 C 3.2412 -1.57997 -3.02076 0
M  V30 35 H 4.4342 -2.58621 -1.51839 0
M  V30 36 H 1.9872 -1.36647 -0.758771 0
M  V30 37 H 2.7222 -0.624913 -3.18222 0
M  V30 38 H 2.5072 -2.39755 -3.10258 0
M  V30 39 H 3.9972 -1.70627 -3.81151 0
M  V30 40 N 4.4343 0.785586 -1.36625 0
M  V30 41 C 5.3823 1.91978 -1.31329 0
M  V30 42 C 6.3763 1.68162 -0.204416 0
M  V30 43 O 7.5823 1.76122 -0.371645 0
M  V30 44 H 3.9573 0.631087 -0.408942 0
M  V30 45 H 5.9283 1.93562 -2.27104 0
M  V30 46 C 4.6773 3.29055 -1.12329 0
M  V30 47 H 4.0003 3.4795 -1.96903 0
M  V30 48 H 5.4403 4.08756 -1.12671 0
M  V30 49 C 3.8993 3.36461 0.171861 0
M  V30 50 O 4.4293 3.84576 1.16035 0
M  V30 51 N 2.6353 2.89782 0.217846 0
M  V30 52 H 2.1823 2.50819 -0.587183 0
M  V30 53 H 2.1403 2.95119 1.08408 0
M  V30 54 N 5.9124 1.20967 1.01018 0
M  V30 55 C 7.1594 1.02374 1.74716 0
M  V30 56 C 7.4874 -0.443375 1.89379 0
M  V30 57 O 6.7424 -1.34535 1.42123 0
M  V30 58 C 7.0414 1.65997 3.16512 0
M  V30 59 C 6.7074 3.15831 3.2181 0
M  V30 60 C 5.3694 3.56719 3.22963 0
M  V30 61 C 7.7214 4.11816 3.19464 0
M  V30 62 C 5.0494 4.92107 3.19449 0
M  V30 63 C 7.4014 5.47158 3.17491 0
M  V30 64 C 6.0654 5.87451 3.16951 0
M  V30 65 H 5.3354 0.374614 0.639332 0
M  V30 66 H 7.9824 1.50485 1.18434 0
M  V30 67 H 6.2874 1.10166 3.75993 0
M  V30 68 H 7.9844 1.49119 3.72242 0
M  V30 69 H 4.5744 2.83263 3.21652 0
M  V30 70 H 8.7584 3.81257 3.17737 0
M  V30 71 H 4.0144 5.22579 3.17366 0
M  V30 72 H 8.1884 6.21274 3.14629 0
M  V30 73 H 5.8154 6.92329 3.13983 0
M  V30 74 N 7.3905 -1.2043 1.01659 0
M  V30 75 C 8.6185 -1.93777 0.725132 0
M  V30 76 C 9.0335 -1.74772 -0.714166 0
M  V30 77 O 8.3905 -1.06169 -1.4844 0
M  V30 78 C 8.4415 -3.45876 1.05129 0
M  V30 79 O 8.1625 -3.6426 2.43406 0
M  V30 80 C 9.6635 -4.36368 0.780891 0
M  V30 81 H 6.8835 -0.615901 0.266284 0
M  V30 82 H 9.4275 -1.52922 1.35776 0
M  V30 83 H 7.5825 -3.8461 0.464065 0
M  V30 84 H 7.9965 -4.58246 2.55169 0
M  V30 85 H 9.4705 -5.41743 1.05918 0
M  V30 86 H 9.9475 -4.38275 -0.284937 0
M  V30 87 H 10.5535 -4.03296 1.35027 0
M  V30 88 N 8.8686 -0.792821 -1.36206 0
M  V30 89 C 10.1456 -0.290627 -1.93429 0
M  V30 90 C 10.5256 1.21773 -1.72437 0
M  V30 91 O 9.8736 2.0108 -1.08531 0
M  V30 92 C 10.0836 -0.686973 -3.42172 0
M  V30 93 C 11.4316 -0.668643 -4.19302 0
M  V30 94 O 12.4556 -0.627658 -3.50626 0
M  V30 95 O 11.3146 -0.714597 -5.41808 0
M  V30 96 H 8.4086 -0.0727927 -0.82379 0
M  V30 97 H 10.9546 -0.875593 -1.45367 0
M  V30 98 H 9.7266 -1.72711 -3.51122 0
M  V30 99 H 9.3496 -0.0760733 -3.97527 0
M  V30 100 N 10.3467 1.47872 -0.545128 0
M  V30 101 C 11.2937 2.29849 0.2093 0
M  V30 102 C 12.2637 1.38313 0.919707 0
M  V30 103 O 13.4487 1.67277 0.917772 0
M  V30 104 C 10.5887 3.22019 1.24088 0
M  V30 105 C 9.7017 4.2864 0.537778 0
M  V30 106 C 8.8367 5.07973 1.5536 0
M  V30 107 C 7.8757 6.06381 0.8348 0
M  V30 108 N 7.0127 6.78717 1.79688 0
M  V30 109 H 11.8527 2.93845 -0.49591 0
M  V30 110 H 9.3897 1.44848 -0.256389 0
M  V30 111 H 11.3477 3.73868 1.85144 0
M  V30 112 H 9.9777 2.59914 1.91428 0
M  V30 113 H 9.0297 3.7994 -0.187046 0
M  V30 114 H 10.3417 4.98793 -0.0258907 0
M  V30 115 H 9.4957 5.63912 2.23803 0
M  V30 116 H 8.2347 4.37693 2.15118 0
M  V30 117 H 7.2397 5.49631 0.136388 0
M  V30 118 H 8.4647 6.78665 0.24313 0
M  V30 119 H 6.4107 6.11177 2.38326 0
M  V30 120 H 6.3277 7.44998 1.28505 0
M  V30 121 H 7.5957 7.39237 2.47282 0
M  V30 122 N 11.8248 0.280983 1.55075 0
M  V30 123 C 12.7728 -0.619864 2.24188 0
M  V30 124 C 13.7668 -1.15315 1.24092 0
M  V30 125 O 14.9728 -1.1061 1.42005 0
M  V30 126 H 11.3478 -0.218459 0.719569 0
M  V30 127 H 13.3188 -0.0141831 2.98397 0
M  V30 128 C 12.0678 -1.7899 2.98091 0
M  V30 129 H 11.3908 -1.38874 3.74905 0
M  V30 130 H 12.8308 -2.39672 3.49762 0
M  V30 131 C 11.2898 -2.68192 2.03899 0
M  V30 132 O 11.8198 -3.6872 1.594 0
M  V30 133 N 10.0258 -2.35488 1.70275 0
M  V30 134 H 9.5728 -1.53787 2.06658 0
M  V30 135 H 9.5308 -2.95442 1.07524 0
M  V30 136 N 13.3029 -1.57598 0.00835791 0
M  V30 137 C 14.5509 -1.90551 -0.6734 0
M  V30 138 C 14.8719 -0.883301 -1.73847 0
M  V30 139 O 14.1419 0.0781442 -1.95744 0
M  V30 140 H 12.7219 -0.703312 -0.251717 0
M  V30 141 H 15.3839 -1.94833 0.0512592 0
M  V30 142 H 14.4799 -2.9056 -1.13935 0
M  V30 143 N 14.781 0.264519 -1.55364 0
M  V30 144 C 16.197 0.61215 -1.47394 0
M  V30 145 C 16.397 1.89134 -0.695018 0
M  V30 146 O 15.453 2.51563 -0.217275 0
M  V30 147 C 16.766 0.731235 -2.91674 0
M  V30 148 C 18.314 0.82473 -3.01939 0
M  V30 149 C 18.789 0.975522 -4.4749 0
M  V30 150 N 20.28 1.04083 -4.51354 0
M  V30 151 C 21.015 1.17646 -5.61201 0
M  V30 152 N 20.511 1.27874 -6.80896 0
M  V30 153 N 22.304 1.20823 -5.48961 0
M  V30 154 H 14.455 -0.575456 -2.04456 0
M  V30 155 H 16.718 -0.196099 -0.927496 0
M  V30 156 H 16.424 -0.138392 -3.51428 0
M  V30 157 H 16.298 1.60883 -3.41169 0
M  V30 158 H 18.685 1.68482 -2.42276 0
M  V30 159 H 18.766 -0.0776479 -2.55682 0
M  V30 160 H 18.41 0.120058 -5.07758 0
M  V30 161 H 18.34 1.89268 -4.91412 0
M  V30 162 H 20.831 0.973846 -3.65136 0
M  V30 163 H 21.144 1.38081 -7.60364 0
M  V30 164 H 19.489 1.24863 -6.83692 0
M  V30 165 H 22.68 1.12469 -4.54388 0
M  V30 166 H 22.853 1.31049 -6.3461 0
M  V30 167 N 16.2591 1.48442 0.529413 0
M  V30 168 C 17.1911 1.59095 1.64989 0
M  V30 169 C 18.2041 0.475212 1.5571 0
M  V30 170 O 19.3931 0.746081 1.6216 0
M  V30 171 C 16.4931 1.50518 3.0364 0
M  V30 172 C 15.6661 2.77142 3.38395 0
M  V30 173 C 14.7251 2.62012 4.56329 0
M  V30 174 O 13.7511 3.35898 4.59522 0
M  V30 175 N 14.9531 1.71667 5.54536 0
M  V30 176 H 17.7181 2.55723 1.56287 0
M  V30 177 H 15.2791 1.45173 0.716697 0
M  V30 178 H 17.2711 1.38091 3.80412 0
M  V30 179 H 15.8411 0.618627 3.06418 0
M  V30 180 H 15.0611 3.0413 2.50796 0
M  V30 181 H 16.3491 3.61146 3.58401 0
M  V30 182 H 15.7471 1.10841 5.54735 0
M  V30 183 H 14.3041 1.65178 6.30523 0
M  V30 184 N 17.7372 -0.778329 1.37039 0
M  V30 185 C 18.9622 -1.57248 1.35233 0
M  V30 186 C 19.3872 -1.87999 -0.0615568 0
M  V30 187 O 18.7452 -1.48734 -1.03672 0
M  V30 188 C 18.7932 -2.86353 2.19167 0
M  V30 189 O 17.8972 -3.80442 1.59178 0
M  V30 190 H 17.2382 -0.476569 0.462362 0
M  V30 191 H 19.7682 -0.963853 1.80474 0
M  V30 192 H 19.7782 -3.35519 2.32145 0
M  V30 193 H 18.4532 -2.63299 3.21942 0
M  V30 194 H 17.0302 -3.39067 1.55203 0
M  V30 195 N 19.2153 -1.21501 -1.00376 0
M  V30 196 C 20.1623 -0.975387 -2.09177 0
M  V30 197 C 21.1323 0.0990615 -1.65804 0
M  V30 198 O 22.3173 -0.0483147 -1.90739 0
M  V30 199 C 19.4573 -0.547507 -3.40729 0
M  V30 200 C 18.5703 -1.69153 -3.97506 0
M  V30 201 C 17.7053 -1.2127 -5.17172 0
M  V30 202 C 16.7443 -2.32897 -5.66061 0
M  V30 203 N 15.8813 -1.86138 -6.76976 0
M  V30 204 H 20.7213 -1.9068 -2.29009 0
M  V30 205 H 18.2583 -0.950257 -1.12288 0
M  V30 206 H 20.2163 -0.280667 -4.16255 0
M  V30 207 H 18.8463 0.346904 -3.20931 0
M  V30 208 H 17.8983 -2.07298 -3.18954 0
M  V30 209 H 19.2103 -2.5316 -4.29781 0
M  V30 210 H 18.3643 -0.902591 -5.99948 0
M  V30 211 H 17.1033 -0.342692 -4.86495 0
M  V30 212 H 16.1083 -2.64709 -4.81881 0
M  V30 213 H 17.3333 -3.20396 -5.98768 0
M  V30 214 H 15.2793 -1.01484 -6.48103 0
M  V30 215 H 15.1963 -2.63717 -7.08512 0
M  V30 216 H 16.4643 -1.58165 -7.63285 0
M  V30 217 N 20.6934 1.19889 -1.02296 0
M  V30 218 C 21.9414 1.89046 -0.714558 0
M  V30 219 C 22.2624 1.79636 0.758681 0
M  V30 220 O 21.5324 1.20292 1.54618 0
M  V30 221 H 20.1124 0.699802 -0.261317 0
M  V30 222 H 22.7744 1.45574 -1.29592 0
M  V30 223 H 21.8704 2.95524 -1.0036 0
M  V30 224 N 22.1715 0.800033 1.35784 0
M  V30 225 C 23.4175 0.377901 1.99248 0
M  V30 226 C 23.7505 -1.05052 1.63333 0
M  V30 227 O 23.0255 -1.72768 0.893385 0
M  V30 228 C 23.3085 0.553922 3.55814 0
M  V30 229 C 23.1615 2.0268 4.01548 0
M  V30 230 C 24.4805 -0.0244802 4.40093 0
M  V30 231 H 21.5995 0.138782 0.723815 0
M  V30 232 H 24.2415 1.00835 1.61035 0
M  V30 233 H 22.3915 0.0172398 3.88496 0
M  V30 234 H 24.0635 2.62536 3.79305 0
M  V30 235 H 22.3065 2.5256 3.52698 0
M  V30 236 H 22.9775 2.10087 5.10458 0
M  V30 237 H 25.4535 0.433775 4.13833 0
M  V30 238 H 24.3295 0.128637 5.48749 0
M  V30 239 H 24.5905 -1.11758 4.27741 0
M  V30 240 N 23.6496 -1.47581 0.552962 0
M  V30 241 C 24.5796 -2.32762 -0.185451 0
M  V30 242 C 25.5606 -1.43527 -0.912905 0
M  V30 243 O 26.7456 -1.72388 -0.894201 0
M  V30 244 C 23.8756 -3.25219 -1.21859 0
M  V30 245 C 22.8296 -4.23661 -0.607864 0
M  V30 246 C 22.1556 -5.05413 -1.74533 0
M  V30 247 C 23.4556 -5.20481 0.435582 0
M  V30 248 H 25.1496 -2.94749 0.525684 0
M  V30 249 H 22.6956 -1.41738 0.254251 0
M  V30 250 H 24.6486 -3.8365 -1.7433 0
M  V30 251 H 23.3726 -2.61279 -1.95961 0
M  V30 252 H 22.0316 -3.66451 -0.104489 0
M  V30 253 H 21.6796 -4.3788 -2.47529 0
M  V30 254 H 21.3796 -5.72059 -1.34249 0
M  V30 255 H 22.9036 -5.66701 -2.27338 0
M  V30 256 H 24.3176 -5.733 -0.00290157 0
M  V30 257 H 22.7146 -5.95305 0.757067 0
M  V30 258 H 23.7846 -4.66217 1.33303 0
M  V30 259 N 25.1277 -0.289203 -1.54924 0
M  V30 260 C 26.0577 0.58549 -2.2604 0
M  V30 261 C 27.0387 1.14753 -1.25562 0
M  V30 262 O 28.2237 1.17906 -1.54311 0
M  V30 263 C 25.3537 1.76305 -2.99222 0
M  V30 264 C 24.3077 1.33191 -4.06748 0
M  V30 265 C 23.6337 2.5937 -4.6758 0
M  V30 266 C 24.9337 0.471775 -5.20165 0
M  V30 267 H 26.6277 -0.00763532 -2.99399 0
M  V30 268 H 24.1737 -0.00511229 -1.43999 0
M  V30 269 H 26.1267 2.38097 -3.47689 0
M  V30 270 H 24.8507 2.38223 -2.23422 0
M  V30 271 H 23.5097 0.737121 -3.59113 0
M  V30 272 H 23.1577 3.19576 -3.88433 0
M  V30 273 H 22.8577 2.31228 -5.40192 0
M  V30 274 H 24.3817 3.21985 -5.18804 0
M  V30 275 H 25.7957 0.995056 -5.64599 0
M  V30 276 H 24.1927 0.284639 -5.99425 0
M  V30 277 H 25.2627 -0.506041 -4.82252 0
M  V30 278 N 26.6058 1.57591 -0.0167156 0
M  V30 279 C 27.5358 2.12496 0.967858 0
M  V30 280 C 28.5168 1.03807 1.34752 0
M  V30 281 O 29.7018 1.31577 1.42833 0
M  V30 282 C 26.8318 2.64194 2.25431 0
M  V30 283 C 25.7858 3.77559 2.01576 0
M  V30 284 C 25.1118 4.15636 3.36379 0
M  V30 285 C 26.4118 5.04151 1.36489 0
M  V30 286 H 28.1058 2.95013 0.510643 0
M  V30 287 H 25.6518 1.41915 0.244181 0
M  V30 288 H 27.6048 3.01236 2.94678 0
M  V30 289 H 26.3288 1.78821 2.73296 0
M  V30 290 H 24.9878 3.40937 1.34751 0
M  V30 291 H 24.6358 3.27263 3.81979 0
M  V30 292 H 24.3358 4.92022 3.21229 0
M  V30 293 H 25.8598 4.5525 4.06915 0
M  V30 294 H 27.2738 5.38857 1.95718 0
M  V30 295 H 25.6708 5.85453 1.31776 0
M  V30 296 H 26.7408 4.83733 0.336219 0
M  V30 297 N 28.0839 -0.256276 1.55502 0
M  V30 298 C 29.4999 -0.604325 1.47716 0
M  V30 299 C 29.6999 -1.88763 0.705039 0
M  V30 300 O 28.7559 -2.51445 0.230613 0
M  V30 301 C 30.0689 -0.715756 2.92057 0
M  V30 302 C 31.6169 -0.808706 3.02372 0
M  V30 303 C 32.0919 -0.951777 4.48001 0
M  V30 304 N 33.5829 -1.01688 4.519 0
M  V30 305 C 34.3179 -1.14668 5.61817 0
M  V30 306 N 33.8139 -1.24261 6.81565 0
M  V30 307 N 35.6069 -1.1791 5.49594 0
M  V30 308 H 27.7579 0.586291 2.04148 0
M  V30 309 H 30.0209 0.201015 0.926443 0
M  V30 310 H 29.7269 0.157027 3.51349 0
M  V30 311 H 29.6009 -1.59071 3.42018 0
M  V30 312 H 31.9879 -1.67195 2.43166 0
M  V30 313 H 32.0689 0.0912063 2.55637 0
M  V30 314 H 31.7129 -0.0931291 5.07815 0
M  V30 315 H 31.6429 -1.86659 4.92408 0
M  V30 316 H 34.1339 -0.954468 3.65648 0
M  V30 317 H 34.4469 -1.34046 7.61086 0
M  V30 318 H 32.7919 -1.21236 6.84344 0
M  V30 319 H 35.9829 -1.10057 4.54978 0
M  V30 320 H 36.1559 -1.27681 6.35296 0
M  V30 321 N 29.562 -1.4872 -0.521534 0
M  V30 322 C 30.79 -1.60843 -1.30142 0
M  V30 323 C 31.205 -0.271897 -1.86832 0
M  V30 324 O 30.562 0.739969 -1.66825 0
M  V30 325 C 30.613 -2.66155 -2.4463 0
M  V30 326 O 30.334 -3.94623 -1.90275 0
M  V30 327 C 31.835 -2.88795 -3.36322 0
M  V30 328 H 29.055 -0.542075 -0.395468 0
M  V30 329 H 31.599 -1.94609 -0.628285 0
M  V30 330 H 29.754 -2.35224 -3.07812 0
M  V30 331 H 30.168 -4.52468 -2.65279 0
M  V30 332 H 31.642 -3.66264 -4.12983 0
M  V30 333 H 32.119 -1.97934 -3.9207 0
M  V30 334 H 32.725 -3.21063 -2.78924 0
M  V30 335 N 31.0401 0.771051 -1.3745 0
M  V30 336 C 31.9701 1.89827 -1.3597 0
M  V30 337 C 32.9511 1.68562 -0.228216 0
M  V30 338 O 34.1361 1.8941 -0.428675 0
M  V30 339 C 31.2661 3.2712 -1.16662 0
M  V30 340 C 30.2201 3.6295 -2.2683 0
M  V30 341 C 29.5461 4.98791 -1.92644 0
M  V30 342 C 30.8461 3.69627 -3.69017 0
M  V30 343 H 32.5401 1.91323 -2.30295 0
M  V30 344 H 30.0861 0.919082 -1.10855 0
M  V30 345 H 32.0391 4.05615 -1.14256 0
M  V30 346 H 30.7631 3.26059 -0.187926 0
M  V30 347 H 29.4221 2.86763 -2.28392 0
M  V30 348 H 29.0701 4.94271 -0.933021 0
M  V30 349 H 28.7701 5.23733 -2.66416 0
M  V30 350 H 30.2941 5.79685 -1.91826 0
M  V30 351 H 31.7081 4.38273 -3.69581 0
M  V30 352 H 30.1051 4.06067 -4.41848 0
M  V30 353 H 31.1751 2.70273 -4.02592 0
M  V30 354 N 32.5182 1.22032 0.997298 0
M  V30 355 C 33.4812 0.987909 2.06816 0
M  V30 356 C 34.4812 -0.0440084 1.6074 0
M  V30 357 O 35.6712 0.194053 1.73116 0
M  V30 358 C 32.8032 0.49132 3.37341 0
M  V30 359 H 33.9962 1.93803 2.28868 0
M  V30 360 H 31.5492 1.03838 1.16822 0
M  V30 361 H 32.2842 -0.463364 3.20973 0
M  V30 362 H 32.0692 1.23575 3.72118 0
M  V30 363 H 33.5592 0.348824 4.16141 0
M  V30 364 N 33.9963 -1.19345 1.0293 0
M  V30 365 C 34.9293 -2.21347 0.555029 0
M  V30 366 C 35.9073 -1.57492 -0.404351 0
M  V30 367 O 37.0913 -1.85741 -0.321352 0
M  V30 368 C 34.2183 -3.38163 -0.19064 0
M  V30 369 C 33.2643 -4.20375 0.720236 0
M  V30 370 S 34.0973 -4.88371 2.19668 0
M  V30 371 C 35.2533 -6.08597 1.46153 0
M  V30 372 H 35.4863 -2.61235 1.41929 0
M  V30 373 H 33.0193 -1.29598 0.839272 0
M  V30 374 H 34.9773 -4.05871 -0.614724 0
M  V30 375 H 33.6383 -2.9671 -1.03063 0
M  V30 376 H 32.8313 -5.03793 0.14455 0
M  V30 377 H 32.4333 -3.57987 1.08266 0
M  V30 378 H 34.7253 -6.73354 0.748357 0
M  V30 379 H 35.6683 -6.7065 2.27233 0
M  V30 380 H 36.0763 -5.56297 0.958842 0
M  V30 381 N 35.4744 -0.807222 -1.35358 0
M  V30 382 C 36.8854 -0.44876 -1.81226 0
M  V30 383 C 37.2364 1.02929 -1.67033 0
M  V30 384 O 36.3614 1.79991 -1.20133 0
M  V30 385 C 36.9564 -0.807774 -3.2903 0
M  V30 386 C 35.5154 -0.501901 -3.73039 0
M  V30 387 C 34.6624 -1.03304 -2.57339 0
M  V30 388 H 37.6134 -0.998808 -1.23327 0
M  V30 389 H 37.6344 -0.10554 -3.80354 0
M  V30 390 H 37.1464 -1.88357 -3.39328 0
M  V30 391 H 35.2474 0.565128 -3.68289 0
M  V30 392 H 35.3604 -1.03497 -4.67787 0
M  V30 393 H 33.7244 -0.455339 -2.50597 0
M  V30 394 H 34.5074 -2.11496 -2.70415 0
M  V30 395 N 36.9525 1.47285 -0.560781 0
M  V30 396 C 38.1775 2.07359 -0.0410566 0
M  V30 397 C 38.6025 1.41017 1.24483 0
M  V30 398 O 37.9605 0.486368 1.74654 0
M  V30 399 C 38.0085 3.6035 0.134123 0
M  V30 400 O 37.1125 3.94681 1.19587 0
M  V30 401 H 36.4535 0.661887 -0.0529291 0
M  V30 402 H 38.9835 1.89252 -0.777482 0
M  V30 403 H 38.9935 4.0652 0.347207 0
M  V30 404 H 37.6685 4.08034 -0.805047 0
M  V30 405 H 36.2455 3.60251 0.962987 0
M  V30 406 N 38.4306 0.297415 1.54768 0
M  V30 407 C 39.7076 -0.365847 1.92148 0
M  V30 408 C 40.0876 -1.71975 1.22424 0
M  V30 409 O 39.4356 -2.25666 0.358739 0
M  V30 410 C 39.6456 -0.484056 3.45627 0
M  V30 411 C 40.9936 -0.756594 4.17805 0
M  V30 412 O 42.0176 -0.568007 3.51642 0
M  V30 413 O 40.8766 -1.11863 5.34929 0
M  V30 414 H 37.9706 -0.203919 0.801465 0
M  V30 415 H 40.5166 0.34521 1.66152 0
M  V30 416 H 39.2886 0.467865 3.88493 0
M  V30 417 H 38.9116 -1.24372 3.77647 0
M  V30 418 N 39.9087 -1.5758 0.0250728 0
M  V30 419 C 41.1367 -1.9593 -0.664747 0
M  V30 420 C 41.5517 -0.901352 -1.65895 0
M  V30 421 O 40.9087 0.117255 -1.82123 0
M  V30 422 C 40.9597 -3.34342 -1.37468 0
M  V30 423 O 40.6807 -4.36079 -0.420324 0
M  V30 424 C 42.1817 -3.873 -2.1567 0
M  V30 425 H 39.4017 -0.645405 -0.183557 0
M  V30 426 H 41.9457 -2.04329 0.0836372 0
M  V30 427 H 40.1007 -3.27175 -2.0745 0
M  V30 428 H 40.5147 -5.16297 -0.923991 0
M  V30 429 H 41.9887 -4.86504 -2.60803 0
M  V30 430 H 42.4657 -3.21331 -2.99405 0
M  V30 431 H 43.0717 -3.97723 -1.50654 0
M  V30 432 N 41.3868 0.248026 -1.55636 0
M  V30 433 C 42.3348 1.32683 -1.91045 0
M  V30 434 C 43.3288 1.49883 -0.789401 0
M  V30 435 O 44.5348 1.51371 -0.974007 0
M  V30 436 H 40.9098 0.444272 -0.606734 0
M  V30 437 H 42.8808 1.00085 -2.81115 0
M  V30 438 C 41.6298 2.6755 -2.22064 0
M  V30 439 H 40.9528 2.55114 -3.07826 0
M  V30 440 H 42.3928 3.41912 -2.50743 0
M  V30 441 C 40.8518 3.20556 -1.0366 0
M  V30 442 O 41.3818 4.00695 -0.284016 0
M  V30 443 N 39.5878 2.78568 -0.82753 0
M  V30 444 H 39.1348 2.1351 -1.44123 0
M  V30 445 H 39.0928 3.14378 -0.0369803 0
M  V30 446 N 42.8649 1.48995 0.513639 0
M  V30 447 C 43.8279 1.64229 1.59879 0
M  V30 448 C 44.8279 0.514696 1.5234 0
M  V30 449 O 46.0179 0.78087 1.55718 0
M  V30 450 C 43.1499 1.62783 2.99524 0
M  V30 451 H 44.3429 2.61004 1.47705 0
M  V30 452 H 41.8959 1.37837 0.736936 0
M  V30 453 H 42.6309 0.675461 3.17188 0
M  V30 454 H 42.4159 2.4466 3.06404 0
M  V30 455 H 43.9059 1.76669 3.78388 0
M  V30 456 N 44.343 -0.763751 1.37857 0
M  V30 457 C 45.291 -1.89864 1.34367 0
M  V30 458 C 46.285 -1.67816 0.231143 0
M  V30 459 O 47.491 -1.75508 0.399617 0
M  V30 460 H 43.866 -0.624501 0.41893 0
M  V30 461 H 45.837 -1.89925 2.30155 0
M  V30 462 C 44.586 -3.27227 1.1755 0
M  V30 463 H 43.909 -3.44773 2.02414 0
M  V30 464 H 45.349 -4.06911 1.1916 0
M  V30 465 C 43.808 -3.36692 -0.118311 0
M  V30 466 O 44.338 -3.86374 -1.09902 0
M  V30 467 N 42.544 -2.90092 -0.171717 0
M  V30 468 H 42.091 -2.49853 0.627012 0
M  V30 469 H 42.049 -2.96806 -1.03699 0
M  V30 470 N 45.8211 -1.22559 -0.990812 0
M  V30 471 C 47.0691 -1.04933 -1.72724 0
M  V30 472 C 47.3901 0.416158 -1.90508 0
M  V30 473 O 46.6601 1.29918 -1.46622 0
M  V30 474 H 45.2401 -0.385296 -0.639965 0
M  V30 475 H 47.9021 -1.54105 -1.19322 0
M  V30 476 H 46.9981 -1.52886 -2.72089 0
M  V30 477 N 47.2992 1.18797 -1.03562 0
M  V30 478 C 48.5762 1.84469 -0.650434 0
M  V30 479 C 48.9562 1.92319 0.870433 0
M  V30 480 O 48.3042 1.44528 1.76986 0
M  V30 481 C 48.5142 3.2306 -1.32036 0
M  V30 482 C 49.8622 3.9915 -1.44792 0
M  V30 483 O 50.8862 3.32481 -1.27806 0
M  V30 484 O 49.7452 5.18587 -1.72423 0
M  V30 485 H 46.8392 0.795251 -0.226946 0
M  V30 486 H 49.3852 1.26231 -1.13419 0
M  V30 487 H 48.1572 3.1222 -2.3587 0
M  V30 488 H 47.7802 3.88949 -0.8249 0
M  V30 489 N 48.7773 0.814389 1.34928 0
M  V30 490 C 50.0263 0.394871 1.97797 0
M  V30 491 C 50.3393 -1.04555 1.65311 0
M  V30 492 O 51.5453 -1.56856 2.21604 0
M  V30 493 C 50.0013 0.655103 3.53888 0
M  V30 494 C 49.6093 2.10858 3.95276 0
M  V30 495 C 51.3533 0.301329 4.23429 0
M  V30 496 C 49.2603 2.31415 5.44244 0
M  V30 497 H 48.1903 0.143913 0.740139 0
M  V30 498 H 50.8413 0.999544 1.53888 0
M  V30 499 H 49.2233 -0.0196253 3.95995 0
M  V30 500 H 50.3973 2.82176 3.64298 0
M  V30 501 H 48.7123 2.42297 3.38646 0
M  V30 502 H 51.3093 0.432869 5.32945 0
M  V30 503 H 51.6523 -0.75331 4.09428 0
M  V30 504 H 52.1853 0.930288 3.86769 0
M  V30 505 H 48.9243 3.35353 5.63222 0
M  V30 506 H 48.4443 1.6463 5.76764 0
M  V30 507 H 50.1233 2.13352 6.10811 0
M  V30 508 N 50.2554 -1.46986 0.568584 0
M  V30 509 C 51.5024 -2.02441 0.0487986 0
M  V30 510 C 51.8304 -1.44169 -1.30559 0
M  V30 511 O 51.0854 -0.591213 -1.86556 0
M  V30 512 C 51.3844 -3.57306 -0.081836 0
M  V30 513 C 51.0504 -4.34552 1.20313 0
M  V30 514 C 49.7124 -4.55376 1.5552 0
M  V30 515 C 52.0644 -4.79016 2.05411 0
M  V30 516 C 49.3924 -5.17913 2.7565 0
M  V30 517 C 51.7444 -5.42879 3.24754 0
M  V30 518 C 50.4084 -5.61933 3.60261 0
M  V30 519 H 49.6784 -0.740785 0.0178567 0
M  V30 520 H 52.3254 -1.76525 0.742384 0
M  V30 521 H 50.6304 -3.8228 -0.858463 0
M  V30 522 H 52.3274 -3.97876 -0.499546 0
M  V30 523 H 48.9174 -4.18631 0.919014 0
M  V30 524 H 53.1014 -4.62696 1.79516 0
M  V30 525 H 48.3574 -5.30858 3.03315 0
M  V30 526 H 52.5314 -5.76293 3.90973 0
M  V30 527 H 50.1584 -6.10161 4.53439 0
M  V30 528 N 51.7335 -0.305618 -1.54608 0
M  V30 529 C 52.9815 0.301701 -1.99835 0
M  V30 530 C 53.3025 1.54054 -1.19551 0
M  V30 531 O 52.5725 1.93702 -0.292658 0
M  V30 532 H 51.1525 0.114468 -0.738178 0
M  V30 533 H 53.8145 -0.418016 -1.90364 0
M  V30 534 H 52.9105 0.570548 -3.06841 0
M  V30 535 N 53.2116 1.57565 -0.0334293 0
M  V30 536 C 54.4596 1.91598 0.642999 0
M  V30 537 C 54.7806 0.910847 1.7242 0
M  V30 538 O 54.0506 -0.0469931 1.95844 0
M  V30 539 H 52.6306 0.707228 0.240496 0
M  V30 540 H 55.2926 1.94726 -0.0822488 0
M  V30 541 H 54.3886 2.92336 1.09298 0
M  V30 542 N 54.6897 -0.239769 1.55765 0
M  V30 543 C 55.9357 -0.963942 1.79108 0
M  V30 544 C 56.2907 -1.82689 0.60352 0
M  V30 545 O 55.5837 -1.87313 -0.403033 0
M  V30 546 C 55.7777 -1.852 3.05672 0
M  V30 547 C 55.6067 -1.07651 4.36625 0
M  V30 548 C 54.3767 -0.778738 4.99263 0
M  V30 549 C 56.5747 -0.45062 5.12322 0
M  V30 550 N 54.5567 0.0200708 6.13897 0
M  V30 551 C 55.9277 0.212429 6.19636 0
M  V30 552 C 57.9827 -0.361806 4.96584 0
M  V30 553 C 56.6857 0.955772 7.12922 0
M  V30 554 C 58.7117 0.368023 5.90254 0
M  V30 555 C 58.0737 1.01968 6.96981 0
M  V30 556 H 54.1727 -0.333601 0.707272 0
M  V30 557 H 56.7567 -0.236425 1.93259 0
M  V30 558 H 54.9277 -2.55149 2.92837 0
M  V30 559 H 56.6597 -2.51228 3.1728 0
M  V30 560 H 53.4147 -1.09229 4.60832 0
M  V30 561 H 53.8387 0.407777 6.75771 0
M  V30 562 H 58.4807 -0.851286 4.14141 0
M  V30 563 H 56.1987 1.45683 7.9486 0
M  V30 564 H 59.7847 0.437504 5.80153 0
M  V30 565 H 58.6647 1.5754 7.68213 0
M  V30 566 N 56.1678 -1.49265 -0.50573 0
M  V30 567 C 57.4168 -1.57761 -1.25675 0
M  V30 568 C 57.7298 -0.267371 -1.93764 0
M  V30 569 O 58.9358 -0.230827 -2.70517 0
M  V30 570 C 57.3918 -2.78332 -2.28165 0
M  V30 571 C 56.9998 -4.16096 -1.66037 0
M  V30 572 C 58.7438 -2.96155 -3.04125 0
M  V30 573 C 56.6508 -5.27895 -2.6661 0
M  V30 574 H 55.5808 -0.587391 -0.472745 0
M  V30 575 H 58.2318 -1.75644 -0.53118 0
M  V30 576 H 56.6138 -2.53934 -3.03865 0
M  V30 577 H 57.7878 -4.50612 -0.963622 0
M  V30 578 H 56.1028 -4.03591 -1.02484 0
M  V30 579 H 58.6998 -3.76849 -3.79327 0
M  V30 580 H 59.0428 -2.06534 -3.61455 0
M  V30 581 H 59.5758 -3.2057 -2.35541 0
M  V30 582 H 56.3148 -6.1956 -2.14068 0
M  V30 583 H 55.8348 -4.97839 -3.34539 0
M  V30 584 H 57.5138 -5.57031 -3.29129 0
M  V30 585 N 57.6459 0.756429 -1.3826 0
M  V30 586 C 58.5789 1.87802 -1.29637 0
M  V30 587 C 59.5569 1.61667 -0.173939 0
M  V30 588 O 60.7409 1.85208 -0.350775 0
M  V30 589 C 57.8679 3.23354 -1.00797 0
M  V30 590 C 56.9139 3.68379 -2.14939 0
M  V30 591 S 57.7469 3.8025 -3.77054 0
M  V30 592 C 58.9029 5.18626 -3.50396 0
M  V30 593 H 59.1359 1.94829 -2.24564 0
M  V30 594 H 56.6689 0.919117 -1.24063 0
M  V30 595 H 58.6269 4.01637 -0.848413 0
M  V30 596 H 57.2879 3.14008 -0.0759369 0
M  V30 597 H 56.4809 4.66693 -1.90299 0
M  V30 598 H 56.0829 2.97242 -2.26988 0
M  V30 599 H 58.3749 6.04289 -3.06334 0
M  V30 600 H 59.3179 5.48286 -4.48094 0
M  V30 601 H 59.7259 4.87289 -2.84973 0
M  V30 602 N 59.124 1.23083 0.984299 0
M  V30 603 C 60.349 1.088 1.76571 0
M  V30 604 C 60.774 -0.356657 1.84688 0
M  V30 605 O 60.132 -1.25788 1.30565 0
M  V30 606 C 60.18 1.71371 3.17277 0
M  V30 607 O 59.284 0.973213 4.00752 0
M  V30 608 H 58.625 0.381599 0.543395 0
M  V30 609 H 61.155 1.63057 1.23587 0
M  V30 610 H 61.165 1.76449 3.67872 0
M  V30 611 H 59.84 2.76493 3.10684 0
M  V30 612 H 58.417 0.999078 3.59267 0
M  V30 613 N 60.6021 -1.18246 1.0419 0
M  V30 614 C 61.5341 -2.2142 0.592088 0
M  V30 615 C 62.5471 -1.59233 -0.338909 0
M  V30 616 O 63.7361 -1.78002 -0.133231 0
M  V30 617 C 60.8361 -3.38546 -0.154854 0
M  V30 618 C 60.0091 -4.3031 0.784328 0
M  V30 619 C 59.0681 -5.26138 0.0804583 0
M  V30 620 O 58.0941 -5.64738 0.711292 0
M  V30 621 N 59.2961 -5.68261 -1.18574 0
M  V30 622 H 62.0611 -2.60636 1.47949 0
M  V30 623 H 59.6221 -1.33044 0.922544 0
M  V30 624 H 61.6141 -3.99678 -0.635606 0
M  V30 625 H 60.1841 -2.98012 -0.943811 0
M  V30 626 H 59.4041 -3.66764 1.44491 0
M  V30 627 H 60.6921 -4.8852 1.42218 0
M  V30 628 H 60.0901 -5.38957 -1.71876 0
M  V30 629 H 58.6471 -6.31584 -1.61074 0
M  V30 630 N 62.0802 -0.821533 -1.34494 0
M  V30 631 C 63.0132 -0.187704 -2.27427 0
M  V30 632 C 63.9912 0.65507 -1.48821 0
M  V30 633 O 65.1752 0.619111 -1.78043 0
M  V30 634 C 62.3022 0.737996 -3.30562 0
M  V30 635 C 61.3482 -0.0270713 -4.26491 0
M  V30 636 S 62.1812 -1.37329 -5.17592 0
M  V30 637 C 63.3372 -0.452427 -6.24263 0
M  V30 638 H 63.5702 -0.975598 -2.80837 0
M  V30 639 H 61.1032 -0.61736 -1.4152 0
M  V30 640 H 63.0612 1.26654 -3.90473 0
M  V30 641 H 61.7222 1.4994 -2.76001 0
M  V30 642 H 60.9152 0.6766 -4.99438 0
M  V30 643 H 60.5172 -0.48612 -3.70827 0
M  V30 644 H 62.8092 0.356557 -6.76561 0
M  V30 645 H 63.7522 -1.15153 -6.98674 0
M  V30 646 H 64.1602 -0.0414755 -5.64485 0
M  V30 647 N 63.5583 1.46682 -0.576371 0
M  V30 648 C 64.8353 1.95599 0.00703437 0
M  V30 649 C 65.2153 1.51904 1.46589 0
M  V30 650 O 64.5633 0.766755 2.15251 0
M  V30 651 C 64.7733 3.4864 -0.158404 0
M  V30 652 C 66.1213 4.24594 -0.0229439 0
M  V30 653 O 67.1453 3.56094 -0.0869173 0
M  V30 654 O 66.0043 5.46373 0.118015 0
M  V30 655 H 63.0983 0.825275 0.053384 0
M  V30 656 H 65.6443 1.56996 -0.644244 0
M  V30 657 H 64.4163 3.7331 -1.17282 0
M  V30 658 H 64.0393 3.94057 0.5296 0
M  V30 659 N 65.0364 0.313813 1.54444 0
M  V30 660 C 65.9694 -0.598866 2.20202 0
M  V30 661 C 66.9474 -1.12318 1.17573 0
M  V30 662 O 68.1314 -1.18899 1.46271 0
M  V30 663 C 65.2584 -1.82071 2.85601 0
M  V30 664 C 64.3044 -1.42851 4.01865 0
M  V30 665 S 65.1374 -0.473512 5.33402 0
M  V30 666 C 66.2934 -1.70286 6.0229 0
M  V30 667 H 66.5264 -0.0402532 2.97273 0
M  V30 668 H 64.0594 0.0979165 1.54089 0
M  V30 669 H 66.0174 -2.52184 3.23904 0
M  V30 670 H 64.6784 -2.3505 2.08351 0
M  V30 671 H 63.8714 -2.33871 4.46453 0
M  V30 672 H 63.4734 -0.807198 3.65185 0
M  V30 673 H 65.7654 -2.64168 6.23876 0
M  V30 674 H 66.7084 -1.29932 6.96077 0
M  V30 675 H 67.1164 -1.88541 5.32083 0
M  V30 676 N 66.5145 -1.57545 0.0417849 0
M  V30 677 C 67.7625 -1.91937 -0.632829 0
M  V30 678 C 68.0835 -0.919978 -1.71934 0
M  V30 679 O 67.3535 0.0366064 -1.95866 0
M  V30 680 H 65.9335 -0.708493 -0.236742 0
M  V30 681 H 68.5955 -1.9468 0.0925745 0
M  V30 682 H 67.6915 -2.92912 -1.07746 0
M  V30 683 N 67.9926 0.231505 -1.5589 0
M  V30 684 C 69.2406 0.955461 -1.78088 0
M  V30 685 C 69.5616 1.85262 -0.608533 0
M  V30 686 O 68.8316 1.92277 0.375035 0
M  V30 687 H 67.4116 0.355787 -0.656829 0
M  V30 688 H 70.0736 0.245751 -1.93344 0
M  V30 689 H 69.1696 1.56814 -2.69844 0
M  V30 690 N 69.4707 1.49531 0.497807 0
M  V30 691 C 70.4337 1.65916 1.58128 0
M  V30 692 C 71.4337 0.530825 1.51786 0
M  V30 693 O 72.6237 0.797342 1.54881 0
M  V30 694 C 69.7557 1.65951 2.9778 0
M  V30 695 H 70.9487 2.62556 1.44929 0
M  V30 696 H 68.5017 1.38611 0.722275 0
M  V30 697 H 69.2367 0.709065 3.16453 0
M  V30 698 H 69.0217 2.47897 3.03792 0
M  V30 699 H 70.5117 1.80673 3.76493 0
M  V30 700 N 70.9488 -0.749086 1.3866 0
M  V30 701 C 72.1978 -1.50371 1.3443 0
M  V30 702 C 72.5108 -1.95503 -0.0616397 0
M  V30 703 O 73.7168 -2.70554 -0.226489 0
M  V30 704 C 72.1728 -2.71644 2.36088 0
M  V30 705 C 71.7808 -2.3352 3.82325 0
M  V30 706 C 73.5248 -3.49518 2.40909 0
M  V30 707 C 71.4318 -3.51431 4.75658 0
M  V30 708 H 70.3618 -0.564628 0.499712 0
M  V30 709 H 73.0128 -0.818449 1.64237 0
M  V30 710 H 71.3948 -3.42175 1.9933 0
M  V30 711 H 72.5688 -1.70627 4.28046 0
M  V30 712 H 70.8838 -1.6877 3.80665 0
M  V30 713 H 73.4808 -4.37197 3.07836 0
M  V30 714 H 73.8238 -3.90992 1.42937 0
M  V30 715 H 74.3568 -2.86005 2.76489 0
M  V30 716 H 71.0958 -3.15019 5.74842 0
M  V30 717 H 70.6158 -4.13352 4.34627 0
M  V30 718 H 72.2948 -4.17953 4.93887 0
M  V30 719 N 72.4269 -1.23603 -0.977757 0
M  V30 720 C 73.3569 -1.04401 -2.0886 0
M  V30 721 C 74.3379 0.0399052 -1.70053 0
M  V30 722 O 75.5229 -0.125246 -1.93796 0
M  V30 723 C 72.6529 -0.637269 -3.41403 0
M  V30 724 C 71.6069 -1.66883 -3.94124 0
M  V30 725 C 70.9329 -1.11745 -5.22893 0
M  V30 726 C 72.2329 -3.06247 -4.23096 0
M  V30 727 H 73.9269 -1.97316 -2.25182 0
M  V30 728 H 71.4729 -0.950096 -1.08209 0
M  V30 729 H 73.4259 -0.48998 -4.18542 0
M  V30 730 H 72.1499 0.327557 -3.24953 0
M  V30 731 H 70.8089 -1.80416 -3.19133 0
M  V30 732 H 70.4569 -0.143527 -5.02795 0
M  V30 733 H 70.1569 -1.80672 -5.59134 0
M  V30 734 H 71.6809 -0.982067 -6.02651 0
M  V30 735 H 73.0949 -2.96001 -4.90975 0
M  V30 736 H 71.4919 -3.72436 -4.70544 0
M  V30 737 H 72.5619 -3.55041 -3.30263 0
M  V30 738 N 73.905 1.17692 -1.04816 0
M  V30 739 C 74.868 2.19787 -0.650117 0
M  V30 740 C 75.868 1.58044 0.296427 0
M  V30 741 O 77.058 1.74012 0.0808097 0
M  V30 742 C 74.19 3.40869 0.0456987 0
M  V30 743 H 75.383 2.56516 -1.5537 0
M  V30 744 H 72.936 1.31708 -0.841594 0
M  V30 745 H 73.671 3.09681 0.962726 0
M  V30 746 H 73.456 3.86928 -0.634727 0
M  V30 747 H 74.946 4.16445 0.310432 0
M  V30 748 N 75.3831 0.828654 1.34056 0
M  V30 749 C 76.3301 0.252567 2.29414 0
M  V30 750 C 77.3001 -0.62588 1.53857 0
M  V30 751 O 78.4851 -0.566312 1.82202 0
M  V30 752 C 75.6251 -0.574831 3.40279 0
M  V30 753 C 74.7381 0.326499 4.30764 0
M  V30 754 C 73.8731 -0.511016 5.28736 0
M  V30 755 C 72.9121 0.389342 6.1086 0
M  V30 756 N 72.0491 -0.409439 7.00905 0
M  V30 757 H 76.8891 1.07108 2.78086 0
M  V30 758 H 74.4261 0.539677 1.36843 0
M  V30 759 H 76.3841 -1.06992 4.03248 0
M  V30 760 H 75.0141 -1.35841 2.92826 0
M  V30 761 H 74.0661 0.939837 3.68607 0
M  V30 762 H 75.3781 1.01857 4.88289 0
M  V30 763 H 74.5321 -1.07035 5.97184 0
M  V30 764 H 73.2711 -1.23657 4.71763 0
M  V30 765 H 72.2761 0.960769 5.4134 0
M  V30 766 H 73.5011 1.1131 6.69916 0
M  V30 767 H 71.4471 -1.11856 6.46393 0
M  V30 768 H 71.3641 0.224126 7.55668 0
M  V30 769 H 72.6321 -0.951336 7.73673 0
M  V30 770 N 76.8612 -1.46375 0.584142 0
M  V30 771 C 77.7712 -2.34115 -0.150728 0
M  V30 772 C 78.7872 -1.49838 -0.884567 0
M  V30 773 O 79.9632 -1.82704 -0.847429 0
M  V30 774 C 77.0282 -3.2705 -1.15062 0
M  V30 775 C 76.0892 -4.27228 -0.421293 0
M  V30 776 C 75.3222 -5.15722 -1.37355 0
M  V30 777 O 75.5452 -5.07176 -2.61014 0
M  V30 778 O 74.4792 -5.95383 -0.883355 0
M  V30 779 H 78.3052 -2.98309 0.569708 0
M  V30 780 H 75.8902 -1.45373 0.344535 0
M  V30 781 H 77.7722 -3.84381 -1.72712 0
M  V30 782 H 76.4472 -2.65451 -1.8525 0
M  V30 783 H 75.3542 -3.7358 0.197085 0
M  V30 784 H 76.6872 -4.91616 0.239641 0
M  V30 785 N 78.3393 -0.321999 -1.54275 0
M  V30 786 C 79.5883 0.281931 -1.9972 0
M  V30 787 C 79.9013 1.53369 -1.21397 0
M  V30 788 O 81.1073 2.21352 -1.57211 0
M  V30 789 C 79.5633 0.5529 -3.55628 0
M  V30 790 C 79.1713 -0.681721 -4.42783 0
M  V30 791 C 80.9153 1.11687 -4.09544 0
M  V30 792 C 78.8223 -0.382742 -5.9016 0
M  V30 793 H 77.7523 0.109124 -0.746062 0
M  V30 794 H 80.4033 -0.43398 -1.78294 0
M  V30 795 H 78.7853 1.32896 -3.73035 0
M  V30 796 H 79.9593 -1.45723 -4.37151 0
M  V30 797 H 78.2743 -1.1658 -3.99748 0
M  V30 798 H 80.8713 1.35515 -5.17242 0
M  V30 799 H 81.2143 2.06575 -3.61431 0
M  V30 800 H 81.7473 0.402032 -3.95763 0
M  V30 801 H 78.4863 -1.30076 -6.42464 0
M  V30 802 H 78.0063 0.355094 -5.98748 0
M  V30 803 H 79.6853 0.00800157 -6.47 0
M  V30 804 N 79.8174 1.5752 -0.0501392 0
M  V30 805 C 80.7804 2.1037 0.909786 0
M  V30 806 C 81.7804 1.02308 1.24056 0
M  V30 807 O 82.9704 1.28385 1.17741 0
M  V30 808 C 80.1024 2.58708 2.21998 0
M  V30 809 H 81.2954 2.96479 0.451665 0
M  V30 810 H 78.8484 1.55038 0.198248 0
M  V30 811 H 79.5834 1.75989 2.72394 0
M  V30 812 H 79.3684 3.37675 1.99295 0
M  V30 813 H 80.8584 2.99747 2.9076 0
M  V30 814 N 81.2955 -0.223234 1.56011 0
M  V30 815 C 82.2455 -1.28008 1.88674 0
M  V30 816 C 83.2295 -1.42369 0.749663 0
M  V30 817 O 84.4215 -1.45212 1.01205 0
M  V30 818 C 81.5505 -2.63084 2.20548 0
M  V30 819 C 80.6365 -2.52632 3.40643 0
M  V30 820 N 81.0275 -2.11829 4.59306 0
M  V30 821 C 79.3255 -2.83594 3.44224 0
M  V30 822 C 80.0265 -2.12587 5.41463 0
M  V30 823 N 79.0025 -2.5301 4.81131 0
M  V30 824 H 82.8045 -0.955487 2.77935 0
M  V30 825 H 80.3185 -0.431801 1.56554 0
M  V30 826 H 82.3155 -3.39385 2.42122 0
M  V30 827 H 80.9755 -2.96391 1.32599 0
M  V30 828 H 81.9865 -1.82988 4.84496 0
M  V30 829 H 78.6635 -3.21284 2.66614 0
M  V30 830 H 80.0535 -1.83179 6.46448 0
M  V30 831 N 82.7736 -1.49793 -0.48987 0
M  V30 832 C 84.0216 -1.59525 -1.24081 0
M  V30 833 C 84.3426 -0.288953 -1.92847 0
M  V30 834 O 83.6126 0.692436 -1.83254 0
M  V30 835 H 82.1926 -0.587796 -0.460983 0
M  V30 836 H 84.8546 -1.86477 -0.566778 0
M  V30 837 H 83.9506 -2.39696 -1.99881 0
M  V30 838 N 84.2517 0.741722 -1.39055 0
M  V30 839 C 85.6677 1.04638 -1.20512 0
M  V30 840 C 85.8677 2.01405 -0.0620218 0
M  V30 841 O 84.9237 2.45547 0.588457 0
M  V30 842 C 86.2367 1.6151 -2.53643 0
M  V30 843 C 87.7847 1.73623 -2.6043 0
M  V30 844 C 88.2597 2.33906 -3.93767 0
M  V30 845 N 89.7507 2.41323 -3.9537 0
M  V30 846 C 90.4857 2.88888 -4.95309 0
M  V30 847 N 89.9817 3.36401 -6.05645 0
M  V30 848 N 91.7747 2.88037 -4.82692 0
M  V30 849 H 83.9257 0.0998155 -2.12165 0
M  V30 850 H 86.1887 0.106907 -0.941953 0
M  V30 851 H 85.8947 0.978739 -3.37807 0
M  V30 852 H 85.7687 2.60411 -2.72885 0
M  V30 853 H 88.1557 2.36384 -1.76655 0
M  V30 854 H 88.2367 0.733945 -2.45045 0
M  V30 855 H 87.8807 1.71776 -4.7797 0
M  V30 856 H 87.8107 3.34799 -4.06469 0
M  V30 857 H 90.3017 2.07734 -3.15682 0
M  V30 858 H 90.6147 3.71186 -6.77821 0
M  V30 859 H 88.9597 3.34427 -6.09248 0
M  V30 860 H 92.1507 2.50237 -3.95599 0
M  V30 861 H 92.3237 3.24792 -5.60726 0
M  V30 862 N 85.7298 1.2412 0.971189 0
M  V30 863 C 86.9758 1.08041 1.71625 0
M  V30 864 C 87.3088 -0.380407 1.90438 0
M  V30 865 O 86.5838 -1.28127 1.46334 0
M  V30 866 C 86.8668 1.81682 3.10908 0
M  V30 867 C 86.7198 3.35493 2.99608 0
M  V30 868 C 88.0388 1.58671 4.10501 0
M  V30 869 H 85.1578 0.39388 0.622919 0
M  V30 870 H 87.7998 1.52743 1.13003 0
M  V30 871 H 85.9498 1.43684 3.60953 0
M  V30 872 H 87.6218 3.83068 2.57015 0
M  V30 873 H 85.8648 3.64052 2.35899 0
M  V30 874 H 86.5358 3.82217 3.98264 0
M  V30 875 H 89.0118 1.91719 3.69301 0
M  V30 876 H 87.8878 2.1266 5.06031 0
M  V30 877 H 88.1488 0.524161 4.38982 0
M  V30 878 N 87.2079 -1.17134 1.05439 0
M  V30 879 C 88.4539 -1.87733 0.767077 0
M  V30 880 C 88.7869 -1.8098 -0.704253 0
M  V30 881 O 88.0619 -1.21951 -1.5152 0
M  V30 882 C 88.3449 -3.37659 1.25133 0
M  V30 883 C 88.1979 -3.53149 2.78578 0
M  V30 884 C 89.5169 -4.31768 0.852324 0
M  V30 885 H 86.6359 -0.681687 0.280129 0
M  V30 886 H 89.2779 -1.37732 1.30881 0
M  V30 887 H 87.4279 -3.80373 0.790469 0
M  V30 888 H 89.0999 -3.19434 3.32806 0
M  V30 889 H 87.3429 -2.95345 3.17732 0
M  V30 890 H 88.0139 -4.58403 3.07523 0
M  V30 891 H 90.4899 -3.96909 1.24911 0
M  V30 892 H 89.3659 -5.35199 1.21873 0
M  V30 893 H 89.6269 -4.41429 -0.243485 0
M  V30 894 N 88.686 -0.835752 -1.33615 0
M  V30 895 C 89.914 -0.443344 -2.02094 0
M  V30 896 C 90.329 0.954522 -1.62894 0
M  V30 897 O 89.686 1.61982 -0.840723 0
M  V30 898 C 89.737 -0.550775 -3.5728 0
M  V30 899 O 89.458 -1.89356 -3.95065 0
M  V30 900 C 90.959 -0.154919 -4.43029 0
M  V30 901 H 88.179 -0.176359 -0.647409 0
M  V30 902 H 90.723 -1.12746 -1.70612 0
M  V30 903 H 88.878 0.0853997 -3.87306 0
M  V30 904 H 89.292 -1.87687 -4.89769 0
M  V30 905 H 90.766 -0.281144 -5.51284 0
M  V30 906 H 91.243 0.902863 -4.2982 0
M  V30 907 H 91.849 -0.765404 -4.18356 0
M  V30 908 N 90.1641 1.46063 -0.591896 0
M  V30 909 C 91.4101 2.02638 -0.0811191 0
M  V30 910 C 91.7431 1.4613 1.27905 0
M  V30 911 O 91.0181 0.629908 1.84017 0
M  V30 912 C 91.3011 3.60091 -0.0252436 0
M  V30 913 C 91.1541 4.26965 -1.41496 0
M  V30 914 C 92.4731 4.3496 0.670685 0
M  V30 915 H 89.5921 0.73635 -0.0309524 0
M  V30 916 H 92.2341 1.741 -0.760859 0
M  V30 917 H 90.3841 3.84535 0.553624 0
M  V30 918 H 92.0561 4.13756 -2.0397 0
M  V30 919 H 90.2991 3.85971 -1.98011 0
M  V30 920 H 90.9701 5.35781 -1.32825 0
M  V30 921 H 93.4461 4.15716 0.178825 0
M  V30 922 H 92.3221 5.44686 0.678837 0
M  V30 923 H 92.5831 4.06685 1.73379 0
M  V30 924 N 91.6422 0.330177 1.54103 0
M  V30 925 C 92.6052 -0.520144 2.2322 0
M  V30 926 C 93.6052 -1.03828 1.22786 0
M  V30 927 O 94.7952 -0.929652 1.4732 0
M  V30 928 C 91.9272 -1.72317 2.94142 0
M  V30 929 H 93.1202 0.0841605 2.99782 0
M  V30 930 H 90.6732 0.0813433 1.56088 0
M  V30 931 H 91.4082 -2.36653 2.21734 0
M  V30 932 H 91.1932 -1.35898 3.67796 0
M  V30 933 H 92.6832 -2.3266 3.46784 0
M  V30 934 N 93.1203 -1.57491 0.0584922 0
M  V30 935 C 94.3663 -1.93264 -0.614558 0
M  V30 936 C 94.6993 -0.937717 -1.7006 0
M  V30 937 O 93.9743 0.0351652 -1.94468 0
M  V30 938 C 94.2573 -3.3938 -1.20386 0
M  V30 939 C 94.1103 -4.49625 -0.125375 0
M  V30 940 C 95.4293 -3.86039 -2.11334 0
M  V30 941 H 92.5483 -0.702791 -0.221933 0
M  V30 942 H 95.1903 -1.8961 0.12175 0
M  V30 943 H 93.3403 -3.42626 -1.83139 0
M  V30 944 H 95.0123 -4.58506 0.506971 0
M  V30 945 H 93.2553 -4.30354 0.545672 0
M  V30 946 H 93.9263 -5.48967 -0.577861 0
M  V30 947 H 96.4023 -3.84716 -1.58534 0
M  V30 948 H 95.2783 -4.88914 -2.49507 0
M  V30 949 H 95.5393 -3.23215 -3.01636 0
M  V30 950 N 94.5984 0.214957 -1.56127 0
M  V30 951 C 95.5084 1.28727 -1.96129 0
M  V30 952 C 96.5244 1.50916 -0.866044 0
M  V30 953 O 97.7004 1.63918 -1.17016 0
M  V30 954 C 94.7654 2.61569 -2.27558 0
M  V30 955 C 93.8264 2.47625 -3.50685 0
M  V30 956 C 93.0594 3.74132 -3.80606 0
M  V30 957 O 93.2824 4.77438 -3.12104 0
M  V30 958 O 92.2164 3.70849 -4.74083 0
M  V30 959 H 96.0424 0.977855 -2.87527 0
M  V30 960 H 93.6274 0.418358 -1.43423 0
M  V30 961 H 95.5094 3.40012 -2.48938 0
M  V30 962 H 94.1844 2.92178 -1.39332 0
M  V30 963 H 93.0914 1.67361 -3.34576 0
M  V30 964 H 94.4244 2.21954 -4.39315 0
M  V30 965 N 96.0765 1.50051 0.48192 0
M  V30 966 C 97.3015 1.64508 1.26301 0
M  V30 967 C 97.7265 0.323851 1.85291 0
M  V30 968 O 97.0845 -0.710969 1.66778 0
M  V30 969 C 97.1325 2.7305 2.35533 0
M  V30 970 O 96.2365 2.3355 3.39895 0
M  V30 971 H 95.5775 0.549978 0.372048 0
M  V30 972 H 98.1075 1.9636 0.574786 0
M  V30 973 H 98.1175 2.95799 2.8101 0
M  V30 974 H 96.7925 3.68946 1.91967 0
M  V30 975 H 95.3695 2.21205 3.00204 0
M  V30 976 N 97.5546 -0.734337 1.39446 0
M  V30 977 C 98.4876 -1.85715 1.32609 0
M  V30 978 C 99.4656 -1.6137 0.199636 0
M  V30 979 O 100.65 -1.84626 0.380195 0
M  V30 980 C 97.7766 -3.21709 1.05929 0
M  V30 981 C 96.8226 -3.64913 2.20773 0
M  V30 982 S 97.6556 -3.74203 3.83056 0
M  V30 983 C 98.8116 -5.12986 3.58603 0
M  V30 984 H 99.0446 -1.91232 2.27635 0
M  V30 985 H 96.5776 -0.899263 1.25509 0
M  V30 986 H 98.5356 -4.00236 0.912203 0
M  V30 987 H 97.1966 -3.13848 0.125883 0
M  V30 988 H 96.3896 -4.63606 1.97699 0
M  V30 989 H 95.9916 -2.93593 2.31688 0
M  V30 990 H 98.2836 -5.99339 3.15909 0
M  V30 991 H 99.2266 -5.41088 4.5676 0
M  V30 992 H 99.6346 -4.82694 2.9269 0
M  V30 993 N 99.0327 -1.24633 -0.964593 0
M  V30 994 C 99.9807 -1.03917 -2.08096 0
M  V30 995 C 100.975 0.0268581 -1.69379 0
M  V30 996 O 102.181 -0.127952 -1.79545 0
M  V30 997 H 98.5557 -0.319044 -0.680966 0
M  V30 998 H 100.527 -1.98581 -2.22729 0
M  V30 999 C 99.2757 -0.663983 -3.41301 0
M  V30 1000 H 98.5987 -1.47605 -3.71555 0
M  V30 1001 H 100.039 -0.558663 -4.20303 0
M  V30 1002 C 98.4977 0.629169 -3.30973 0
M  V30 1003 O 99.0277 1.67404 -3.65156 0
M  V30 1004 N 97.2337 0.611057 -2.84103 0
M  V30 1005 H 96.7807 -0.239593 -2.56483 0
M  V30 1006 H 96.7387 1.47647 -2.77575 0
M  V30 1007 N 100.511 1.16574 -1.06058 0
M  V30 1008 C 101.758 1.87047 -0.775873 0
M  V30 1009 C 102.086 1.81562 0.697534 0
M  V30 1010 O 101.341 1.22445 1.52662 0
M  V30 1011 C 101.64 3.36195 -1.21275 0
M  V30 1012 C 101.306 3.6188 -2.68986 0
M  V30 1013 C 99.9678 3.68599 -3.09335 0
M  V30 1014 C 102.32 3.72648 -3.64394 0
M  V30 1015 C 99.6478 3.83584 -4.43937 0
M  V30 1016 C 102 3.89154 -4.98741 0
M  V30 1017 C 100.664 3.94114 -5.3873 0
M  V30 1018 H 99.9338 0.684452 -0.283912 0
M  V30 1019 H 102.581 1.37853 -1.32925 0
M  V30 1020 H 100.886 3.87505 -0.578528 0
M  V30 1021 H 102.583 3.89103 -0.969542 0
M  V30 1022 H 99.1728 3.57281 -2.36744 0
M  V30 1023 H 103.357 3.66769 -3.34356 0
M  V30 1024 H 98.6128 3.85677 -4.74409 0
M  V30 1025 H 102.787 3.96427 -5.72554 0
M  V30 1026 H 100.414 4.05478 -6.43033 0
M  V30 1027 N 101.989 0.842826 1.3317 0
M  V30 1028 C 103.238 0.436738 1.96915 0
M  V30 1029 C 103.551 -1.01025 1.67491 0
M  V30 1030 O 104.757 -1.5212 2.24881 0
M  V30 1031 C 103.213 0.730021 3.52418 0
M  V30 1032 C 102.821 2.19195 3.90714 0
M  V30 1033 C 104.565 0.391076 4.22695 0
M  V30 1034 C 102.472 2.42907 5.39212 0
M  V30 1035 H 101.402 0.15958 0.736919 0
M  V30 1036 H 104.053 1.03196 1.51733 0
M  V30 1037 H 102.435 0.0643755 3.95948 0
M  V30 1038 H 103.609 2.8984 3.58231 0
M  V30 1039 H 101.924 2.49425 3.33431 0
M  V30 1040 H 104.521 0.545817 5.31907 0
M  V30 1041 H 104.864 -0.666294 4.10933 0
M  V30 1042 H 105.397 1.01212 3.84709 0
M  V30 1043 H 102.136 3.47224 5.55982 0
M  V30 1044 H 101.656 1.76827 5.73142 0
M  V30 1045 H 103.335 2.2626 6.06148 0
M  V30 1046 N 103.467 -1.45747 0.599634 0
M  V30 1047 C 104.414 -2.30467 -0.123849 0
M  V30 1048 C 105.384 -1.41632 -0.86774 0
M  V30 1049 O 106.569 -1.70568 -0.855056 0
M  V30 1050 C 103.709 -3.26402 -1.12051 0
M  V30 1051 C 102.822 -4.3034 -0.37832 0
M  V30 1052 C 101.957 -5.13389 -1.364 0
M  V30 1053 C 100.996 -6.09061 -0.609171 0
M  V30 1054 N 100.133 -6.84918 -1.54374 0
M  V30 1055 H 104.973 -2.91802 0.604627 0
M  V30 1056 H 102.51 -1.43797 0.309972 0
M  V30 1057 H 104.468 -3.80482 -1.7114 0
M  V30 1058 H 103.098 -2.66839 -1.8165 0
M  V30 1059 H 102.15 -3.78984 0.327929 0
M  V30 1060 H 103.462 -4.98354 0.210997 0
M  V30 1061 H 102.616 -5.7183 -2.02719 0
M  V30 1062 H 101.355 -4.45376 -1.98725 0
M  V30 1063 H 100.36 -5.49758 0.0676979 0
M  V30 1064 H 101.585 -6.79099 0.00891991 0
M  V30 1065 H 99.531 -6.19601 -2.15478 0
M  V30 1066 H 99.448 -7.49254 -1.00766 0
M  V30 1067 H 100.716 -7.47906 -2.19676 0
M  V30 1068 N 104.945 -0.338344 -1.53925 0
M  V30 1069 C 106.356 0.146651 -1.86123 0
M  V30 1070 C 106.707 1.5042 -1.2597 0
M  V30 1071 O 105.832 2.08723 -0.571294 0
M  V30 1072 C 106.427 0.272879 -3.37699 0
M  V30 1073 C 104.986 0.702103 -3.69794 0
M  V30 1074 C 104.133 -0.167304 -2.76795 0
M  V30 1075 H 107.084 -0.558123 -1.48562 0
M  V30 1076 H 107.105 1.10128 -3.64214 0
M  V30 1077 H 106.617 -0.715307 -3.81451 0
M  V30 1078 H 104.718 1.6995 -3.31584 0
M  V30 1079 H 104.831 0.495604 -4.7653 0
M  V30 1080 H 103.195 0.359527 -2.5215 0
M  V30 1081 H 103.978 -1.15253 -3.23375 0
M  V30 1082 N 106.423 1.57458 -0.0668435 0
M  V30 1083 C 107.672 1.92477 0.602947 0
M  V30 1084 C 107.985 0.948419 1.71068 0
M  V30 1085 O 109.191 1.19124 2.43971 0
M  V30 1086 C 107.647 3.41903 1.12383 0
M  V30 1087 C 107.255 4.47975 0.04737 0
M  V30 1088 C 108.999 3.85931 1.76797 0
M  V30 1089 C 106.906 5.88529 0.582022 0
M  V30 1090 H 105.836 0.718387 0.22899 0
M  V30 1091 H 108.487 1.82978 -0.138276 0
M  V30 1092 H 106.869 3.46459 1.91787 0
M  V30 1093 H 108.043 4.55029 -0.726978 0
M  V30 1094 H 106.358 4.13384 -0.500243 0
M  V30 1095 H 108.955 4.88322 2.17821 0
M  V30 1096 H 109.298 3.23029 2.62599 0
M  V30 1097 H 109.831 3.83958 1.04024 0
M  V30 1098 H 106.57 6.55065 -0.238721 0
M  V30 1099 H 106.09 5.85004 1.324 0
M  V30 1100 H 107.769 6.38258 1.05999 0
M  V30 1101 N 107.901 -0.206675 1.56239 0
M  V30 1102 C 109.126 -0.949474 1.8439 0
M  V30 1103 C 109.551 -1.76549 0.649016 0
M  V30 1104 O 108.909 -1.76782 -0.402231 0
M  V30 1105 C 108.957 -1.83078 3.10668 0
M  V30 1106 O 108.061 -2.9281 2.90407 0
M  V30 1107 H 107.402 -0.268033 0.607499 0
M  V30 1108 H 109.932 -0.215488 2.03462 0
M  V30 1109 H 109.942 -2.2377 3.41161 0
M  V30 1110 H 108.617 -1.23112 3.97261 0
M  V30 1111 H 107.194 -2.55956 2.71184 0
M  V30 1112 N 109.379 -1.50304 -0.473955 0
M  V30 1113 C 110.625 -1.61389 -1.22806 0
M  V30 1114 C 110.958 -0.311955 -1.91678 0
M  V30 1115 O 110.233 0.686384 -1.81986 0
M  V30 1116 C 110.516 -2.79219 -2.27396 0
M  V30 1117 C 110.369 -4.19286 -1.62848 0
M  V30 1118 C 111.688 -2.92614 -3.28732 0
M  V30 1119 H 108.807 -0.587399 -0.445119 0
M  V30 1120 H 111.449 -1.82681 -0.522265 0
M  V30 1121 H 109.599 -2.61195 -2.87592 0
M  V30 1122 H 111.271 -4.48892 -1.06271 0
M  V30 1123 H 109.514 -4.23677 -0.931693 0
M  V30 1124 H 110.185 -4.97655 -2.38838 0
M  V30 1125 H 112.661 -3.09105 -2.78556 0
M  V30 1126 H 111.537 -3.76688 -3.99246 0
M  V30 1127 H 111.798 -2.03107 -3.92683 0
M  V30 1128 N 110.857 0.726932 -1.39834 0
M  V30 1129 C 112.105 1.4837 -1.37225 0
M  V30 1130 C 112.426 1.94979 0.0284857 0
M  V30 1131 O 111.696 1.69555 0.981213 0
M  V30 1132 H 110.276 0.55043 -0.505011 0
M  V30 1133 H 112.938 0.862468 -1.74778 0
M  V30 1134 H 112.034 2.36198 -2.04003 0
M  V30 1135 N 112.336 1.25143 0.95797 0
M  V30 1136 C 113.613 1.00472 1.67823 0
M  V30 1137 C 113.993 -0.470056 2.058 0
M  V30 1138 O 113.341 -1.44663 1.76875 0
M  V30 1139 C 113.551 1.9372 2.90299 0
M  V30 1140 C 114.899 2.21371 3.62326 0
M  V30 1141 O 115.923 1.91451 3.00375 0
M  V30 1142 O 114.782 2.72231 4.7387 0
M  V30 1143 H 111.876 0.380752 0.734137 0
M  V30 1144 H 114.422 1.36283 1.01119 0
M  V30 1145 H 113.194 2.93316 2.59001 0
M  V30 1146 H 112.817 1.58286 3.64735 0
M  V30 1147 N 113.814 -1.1601 1.06675 0
M  V30 1148 C 115.06 -1.86909 0.786945 0
M  V30 1149 C 115.393 -1.81717 -0.685018 0
M  V30 1150 O 114.668 -1.23551 -1.50218 0
M  V30 1151 C 114.951 -3.36313 1.28707 0
M  V30 1152 C 114.804 -3.50175 2.82308 0
M  V30 1153 C 116.123 -4.3084 0.898071 0
M  V30 1154 H 113.242 -0.678677 0.287343 0
M  V30 1155 H 115.884 -1.36336 1.32334 0
M  V30 1156 H 114.034 -3.79513 0.830768 0
M  V30 1157 H 115.706 -3.15886 3.36175 0
M  V30 1158 H 113.949 -2.91959 3.20847 0
M  V30 1159 H 114.62 -4.55116 3.12368 0
M  V30 1160 H 117.096 -3.95561 1.29114 0
M  V30 1161 H 115.972 -5.33876 1.27543 0
M  V30 1162 H 116.233 -4.41662 -0.196651 0
M  V30 1163 N 115.292 -0.849877 -1.32721 0
M  V30 1164 C 116.538 -0.451591 -1.97708 0
M  V30 1165 C 116.871 0.989175 -1.6712 0
M  V30 1166 O 116.146 1.69334 -0.956891 0
M  V30 1167 C 116.429 -0.685598 -3.53513 0
M  V30 1168 C 116.282 -2.17444 -3.93749 0
M  V30 1169 C 117.601 -0.138874 -4.39881 0
M  V30 1170 H 114.72 -0.16555 -0.718166 0
M  V30 1171 H 117.362 -1.06742 -1.57182 0
M  V30 1172 H 115.512 -0.161416 -3.88165 0
M  V30 1173 H 117.184 -2.76433 -3.693 0
M  V30 1174 H 115.427 -2.65476 -3.43081 0
M  V30 1175 H 116.098 -2.28888 -5.02309 0
M  V30 1176 H 118.574 -0.587068 -4.11938 0
M  V30 1177 H 117.45 -0.332213 -5.47894 0
M  V30 1178 H 117.711 0.95806 -4.31594 0
M  V30 1179 N 116.77 1.45427 -0.607355 0
M  V30 1180 C 118.01 2.04128 -0.105458 0
M  V30 1181 C 118.374 1.46555 1.24039 0
M  V30 1182 O 119.575 1.96608 1.833 0
M  V30 1183 C 117.846 3.57338 -0.0665324 0
M  V30 1184 S 119.405 4.37201 0.374207 0
M  V30 1185 H 116.223 0.709278 -0.0494575 0
M  V30 1186 H 118.825 1.78139 -0.805404 0
M  V30 1187 H 117.529 3.96752 -1.04957 0
M  V30 1188 H 117.06 3.87902 0.655415 0
M  V30 1189 H 119.075 4.6888 1.62377 0
M  V30 1190 N 118.248 0.346503 1.53744 0
M  V30 1191 C 119.488 -0.249413 2.02873 0
M  V30 1192 C 119.852 -1.47532 1.22876 0
M  V30 1193 O 121.053 -2.1456 1.61918 0
M  V30 1194 C 119.324 -0.552909 3.53097 0
M  V30 1195 S 120.883 -1.12521 4.24128 0
M  V30 1196 H 117.701 -0.074042 0.707134 0
M  V30 1197 H 120.303 0.48495 1.8939 0
M  V30 1198 H 119.007 0.347083 4.0893 0
M  V30 1199 H 118.538 -1.31686 3.70705 0
M  V30 1200 H 120.553 -2.41075 4.33702 0
M  V30 1201 N 119.726 -1.57421 0.075193 0
M  V30 1202 C 120.956 -1.97659 -0.601203 0
M  V30 1203 C 121.364 -0.952427 -1.63479 0
M  V30 1204 O 120.707 0.0688241 -1.83571 0
M  V30 1205 C 120.769 -3.34218 -1.32434 0
M  V30 1206 C 120.433 -4.5484 -0.443826 0
M  V30 1207 C 121.43 -5.19034 0.299969 0
M  V30 1208 C 119.115 -5.00952 -0.367709 0
M  V30 1209 C 121.109 -6.27695 1.10807 0
M  V30 1210 C 118.796 -6.09484 0.444058 0
M  V30 1211 C 119.794 -6.72719 1.18061 0
M  V30 1212 O 119.482 -7.79161 1.97898 0
M  V30 1213 H 119.214 -0.65494 -0.167422 0
M  V30 1214 H 121.768 -2.04886 0.145157 0
M  V30 1215 H 119.998 -3.23615 -2.11685 0
M  V30 1216 H 121.687 -3.59038 -1.89331 0
M  V30 1217 H 122.453 -4.84351 0.250776 0
M  V30 1218 H 118.332 -4.51509 -0.930638 0
M  V30 1219 H 121.876 -6.76982 1.68347 0
M  V30 1220 H 117.773 -6.43601 0.494803 0
M  V30 1221 H 118.541 -7.96055 1.90367 0
M  V30 1222 N 121.204 0.198386 -1.56346 0
M  V30 1223 C 122.452 0.91747 -1.80075 0
M  V30 1224 C 122.773 1.83929 -0.647692 0
M  V30 1225 O 122.043 1.93029 0.334166 0
M  V30 1226 H 120.623 0.341774 -0.664228 0
M  V30 1227 H 123.285 0.204684 -1.93822 0
M  V30 1228 H 122.381 1.51055 -2.7311 0
M  V30 1229 N 122.682 1.50554 0.465978 0
M  V30 1230 C 123.614 1.65949 1.58093 0
M  V30 1231 C 124.627 0.540827 1.53554 0
M  V30 1232 O 125.816 0.814187 1.5885 0
M  V30 1233 C 122.916 1.63261 2.96983 0
M  V30 1234 C 122.089 2.91245 3.26336 0
M  V30 1235 C 121.148 2.8113 4.44806 0
M  V30 1236 O 120.174 3.55086 4.44862 0
M  V30 1237 N 121.376 1.95032 5.46756 0
M  V30 1238 H 124.141 2.62122 1.45301 0
M  V30 1239 H 121.702 1.48082 0.65448 0
M  V30 1240 H 123.694 1.54101 3.74212 0
M  V30 1241 H 122.264 0.748032 3.03518 0
M  V30 1242 H 121.484 3.14493 2.37672 0
M  V30 1243 H 122.772 3.76022 3.42761 0
M  V30 1244 H 122.17 1.3427 5.49534 0
M  V30 1245 H 120.727 1.91772 6.2295 0
M  V30 1246 N 124.16 -0.719506 1.40217 0
M  V30 1247 C 125.4 -1.49181 1.39729 0
M  V30 1248 C 125.764 -1.92 -0.00250614 0
M  V30 1249 O 126.965 -2.68473 -0.132479 0
M  V30 1250 C 125.236 -2.68767 2.35582 0
M  V30 1251 S 126.795 -3.58224 2.53418 0
M  V30 1252 H 123.613 -0.510091 0.495307 0
M  V30 1253 H 126.215 -0.841724 1.76452 0
M  V30 1254 H 124.919 -2.35475 3.36124 0
M  V30 1255 H 124.45 -3.38691 2.0013 0
M  V30 1256 H 126.465 -4.63033 1.78367 0
M  V30 1257 N 125.638 -1.25649 -0.95132 0
M  V30 1258 C 126.568 -1.08808 -2.06599 0
M  V30 1259 C 127.549 0.00382547 -1.701 0
M  V30 1260 O 128.734 -0.166325 -1.93486 0
M  V30 1261 C 125.864 -0.709542 -3.39975 0
M  V30 1262 C 124.818 -1.75206 -3.90496 0
M  V30 1263 C 124.144 -1.22811 -5.20405 0
M  V30 1264 C 125.444 -3.15153 -4.16504 0
M  V30 1265 H 127.138 -2.02048 -2.20946 0
M  V30 1266 H 124.684 -0.972835 -1.06169 0
M  V30 1267 H 126.637 -0.578649 -4.17408 0
M  V30 1268 H 125.361 0.258556 -3.25575 0
M  V30 1269 H 124.02 -1.87145 -3.15234 0
M  V30 1270 H 123.668 -0.250145 -5.02378 0
M  V30 1271 H 123.368 -1.92492 -5.55176 0
M  V30 1272 H 124.892 -1.10968 -6.00432 0
M  V30 1273 H 126.306 -3.06349 -4.84586 0
M  V30 1274 H 124.703 -3.82333 -4.62538 0
M  V30 1275 H 125.773 -3.61966 -3.22658 0
M  V30 1276 N 127.117 1.15442 -1.07289 0
M  V30 1277 C 128.064 2.20161 -0.692653 0
M  V30 1278 C 129.034 1.63073 0.31564 0
M  V30 1279 O 130.219 1.89725 0.202235 0
M  V30 1280 C 127.359 3.44967 -0.0959509 0
M  V30 1281 C 126.472 4.16256 -1.15564 0
M  V30 1282 C 125.607 5.28609 -0.524011 0
M  V30 1283 C 124.646 5.91715 -1.56653 0
M  V30 1284 N 123.783 6.9554 -0.957531 0
M  V30 1285 H 128.623 2.52037 -1.59002 0
M  V30 1286 H 126.16 1.2378 -0.794798 0
M  V30 1287 H 128.118 4.16341 0.267628 0
M  V30 1288 H 126.748 3.1361 0.764772 0
M  V30 1289 H 125.8 3.43385 -1.6368 0
M  V30 1290 H 127.112 4.59268 -1.94613 0
M  V30 1291 H 126.266 6.06604 -0.108032 0
M  V30 1292 H 125.005 4.86787 0.29825 0
M  V30 1293 H 124.01 5.12433 -1.9923 0
M  V30 1294 H 125.235 6.35614 -2.39107 0
M  V30 1295 H 123.181 6.55814 -0.156162 0
M  V30 1296 H 123.098 7.36977 -1.68526 0
M  V30 1297 H 124.366 7.77435 -0.567032 0
M  V30 1298 N 128.595 0.856903 1.32268 0
M  V30 1299 C 129.841 0.462069 1.97466 0
M  V30 1300 C 130.174 -0.980298 1.67642 0
M  V30 1301 O 129.449 -1.68824 0.965858 0
M  V30 1302 C 129.732 0.704336 3.53145 0
M  V30 1303 C 129.585 2.19529 3.9259 0
M  V30 1304 C 130.904 0.1622 4.39801 0
M  V30 1305 H 128.023 0.169357 0.717278 0
M  V30 1306 H 130.665 1.07574 1.56614 0
M  V30 1307 H 128.815 0.181999 3.88073 0
M  V30 1308 H 130.487 2.78387 3.67829 0
M  V30 1309 H 128.73 2.67292 3.41668 0
M  V30 1310 H 129.401 2.31549 5.01088 0
M  V30 1311 H 131.877 0.608905 4.11621 0
M  V30 1312 H 130.753 0.361265 5.4771 0
M  V30 1313 H 131.014 -0.935158 4.32096 0
M  V30 1314 N 130.073 -1.45103 0.615059 0
M  V30 1315 C 131.321 -2.01784 0.112955 0
M  V30 1316 C 131.642 -1.48504 -1.26378 0
M  V30 1317 O 130.912 -0.682245 -1.83636 0
M  V30 1318 H 129.492 -0.745993 0.0387668 0
M  V30 1319 H 132.154 -1.77808 0.798141 0
M  V30 1320 H 131.25 -3.12025 0.0684069 0
M  V30 1321 N 131.551 -0.354651 -1.53558 0
M  V30 1322 C 132.967 -0.00315426 -1.596 0
M  V30 1323 C 133.167 1.47741 -1.37021 0
M  V30 1324 O 132.223 2.23759 -1.16996 0
M  V30 1325 C 133.536 -0.44929 -2.97325 0
M  V30 1326 C 135.084 -0.402578 -3.104 0
M  V30 1327 C 135.559 -0.824355 -4.5052 0
M  V30 1328 N 137.05 -0.778979 -4.56603 0
M  V30 1329 C 137.785 -1.07715 -5.63192 0
M  V30 1330 N 137.281 -1.44405 -6.77583 0
M  V30 1331 N 139.074 -1.00066 -5.53121 0
M  V30 1332 H 131.225 -1.31893 -1.66487 0
M  V30 1333 H 133.488 -0.538388 -0.780284 0
M  V30 1334 H 133.194 -1.48202 -3.1895 0
M  V30 1335 H 133.068 0.169772 -3.76818 0
M  V30 1336 H 135.455 0.621004 -2.88492 0
M  V30 1337 H 135.536 -1.05699 -2.32941 0
M  V30 1338 H 135.18 -1.846 -4.73165 0
M  V30 1339 H 135.11 -0.147304 -5.26394 0
M  V30 1340 H 137.601 -0.508528 -3.74463 0
M  V30 1341 H 137.914 -1.65612 -7.54846 0
M  V30 1342 H 136.259 -1.4826 -6.79002 0
M  V30 1343 H 139.45 -0.713293 -4.62633 0
M  V30 1344 H 139.623 -1.23638 -6.36096 0
M  V30 1345 N 133.029 1.57378 -0.0835403 0
M  V30 1346 C 134.254 1.98682 0.594987 0
M  V30 1347 C 134.679 0.961969 1.61641 0
M  V30 1348 O 134.037 -0.0709989 1.81161 0
M  V30 1349 C 134.085 3.38988 1.2296 0
M  V30 1350 O 133.189 3.39208 2.34546 0
M  V30 1351 H 132.53 0.646368 0.152002 0
M  V30 1352 H 135.06 2.03961 -0.161533 0
M  V30 1353 H 135.07 3.76431 1.57366 0
M  V30 1354 H 133.745 4.13107 0.481228 0
M  V30 1355 H 132.322 3.13548 2.01846 0
M  V30 1356 N 134.507 -0.190092 1.56449 0
M  V30 1357 C 135.732 -0.929864 1.85387 0
M  V30 1358 C 136.157 -1.7585 0.667704 0
M  V30 1359 O 135.515 -1.77198 -0.383459 0
M  V30 1360 C 135.563 -1.79773 3.12593 0
M  V30 1361 O 134.667 -2.89713 2.93496 0
M  V30 1362 H 134.008 -0.261574 0.610307 0
M  V30 1363 H 136.538 -0.193896 2.03679 0
M  V30 1364 H 136.548 -2.20139 3.43515 0
M  V30 1365 H 135.223 -1.18892 3.98544 0
M  V30 1366 H 133.8 -2.53065 2.73884 0
M  V30 1367 N 135.985 -1.50799 -0.457987 0
M  V30 1368 C 137.234 -1.6168 -1.20593 0
M  V30 1369 C 137.547 -0.32888 -1.92815 0
M  V30 1370 O 138.753 -0.316773 -2.69646 0
M  V30 1371 C 137.209 -2.8545 -2.19195 0
M  V30 1372 C 136.817 -4.21168 -1.52715 0
M  V30 1373 C 138.561 -3.05681 -2.94549 0
M  V30 1374 C 136.468 -5.3611 -2.4968 0
M  V30 1375 H 135.398 -0.602134 -0.453818 0
M  V30 1376 H 138.049 -1.77245 -0.475031 0
M  V30 1377 H 136.431 -2.63472 -2.95632 0
M  V30 1378 H 137.605 -4.53449 -0.819775 0
M  V30 1379 H 135.92 -4.06648 -0.895922 0
M  V30 1380 H 138.517 -3.88727 -3.67145 0
M  V30 1381 H 138.86 -2.17929 -3.54701 0
M  V30 1382 H 139.393 -3.27901 -2.25223 0
M  V30 1383 H 136.132 -6.26057 -1.94249 0
M  V30 1384 H 135.652 -5.0823 -3.18532 0
M  V30 1385 H 137.331 -5.6722 -3.11241 0
M  V30 1386 N 137.463 0.71206 -1.40597 0
M  V30 1387 C 138.41 1.82613 -1.41142 0
M  V30 1388 C 139.38 1.63925 -0.267903 0
M  V30 1389 O 140.565 1.85009 -0.466495 0
M  V30 1390 C 137.705 3.20354 -1.28324 0
M  V30 1391 C 136.818 3.50589 -2.52411 0
M  V30 1392 C 135.953 4.77855 -2.32009 0
M  V30 1393 C 134.992 5.01005 -3.51654 0
M  V30 1394 N 134.129 6.19487 -3.30425 0
M  V30 1395 H 138.969 1.81482 -2.36365 0
M  V30 1396 H 136.506 0.886475 -1.17388 0
M  V30 1397 H 138.464 3.99899 -1.18899 0
M  V30 1398 H 137.094 3.20705 -0.367189 0
M  V30 1399 H 136.146 2.65573 -2.72351 0
M  V30 1400 H 137.458 3.63604 -3.41458 0
M  V30 1401 H 136.612 5.65424 -2.19956 0
M  V30 1402 H 135.351 4.67056 -1.40392 0
M  V30 1403 H 134.356 4.1189 -3.64179 0
M  V30 1404 H 135.581 5.13674 -4.44202 0
M  V30 1405 H 133.527 6.09932 -2.41494 0
M  V30 1406 H 133.444 6.33194 -4.13039 0
M  V30 1407 H 134.712 7.09834 -3.22113 0
M  V30 1408 N 138.941 1.26152 0.944643 0
M  V30 1409 C 140.19 1.10883 1.68487 0
M  V30 1410 C 140.503 -0.348153 1.92477 0
M  V30 1411 O 141.709 -0.621459 2.64292 0
M  V30 1412 C 140.165 1.93624 3.03377 0
M  V30 1413 C 139.773 3.43875 2.87148 0
M  V30 1414 C 141.517 1.86954 3.81115 0
M  V30 1415 C 139.424 4.18875 4.1749 0
M  V30 1416 H 138.354 0.41135 0.631907 0
M  V30 1417 H 141.005 1.50433 1.05082 0
M  V30 1418 H 139.387 1.46904 3.67743 0
M  V30 1419 H 140.561 3.98338 2.31653 0
M  V30 1420 H 138.876 3.51744 2.22856 0
M  V30 1421 H 141.473 2.40275 4.77673 0
M  V30 1422 H 141.816 0.839518 4.07747 0
M  V30 1423 H 142.349 2.31477 3.23517 0
M  V30 1424 H 139.088 5.22332 3.96043 0
M  V30 1425 H 138.608 3.69193 4.72712 0
M  V30 1426 H 140.287 4.27134 4.85968 0
M  V30 1427 N 140.419 -1.14872 1.07899 0
M  V30 1428 C 141.366 -2.19791 0.704319 0
M  V30 1429 C 142.336 -1.63238 -0.306987 0
M  V30 1430 O 143.521 -1.8983 -0.192171 0
M  V30 1431 C 140.661 -3.44911 0.114244 0
M  V30 1432 C 139.774 -4.15637 1.1777 0
M  V30 1433 C 138.909 -5.28324 0.552037 0
M  V30 1434 C 137.948 -5.90875 1.59789 0
M  V30 1435 N 137.085 -6.95022 0.994404 0
M  V30 1436 H 141.925 -2.5119 1.60336 0
M  V30 1437 H 139.462 -1.23356 0.801352 0
M  V30 1438 H 141.42 -4.16477 -0.245544 0
M  V30 1439 H 140.05 -3.14011 -0.74813 0
M  V30 1440 H 139.102 -3.42512 1.65499 0
M  V30 1441 H 140.414 -4.5823 1.97046 0
M  V30 1442 H 139.568 -6.06538 0.1402 0
M  V30 1443 H 138.307 -4.86939 -0.272431 0
M  V30 1444 H 137.312 -5.11369 2.01945 0
M  V30 1445 H 138.537 -6.34337 2.42474 0
M  V30 1446 H 136.483 -6.55722 0.190939 0
M  V30 1447 H 136.4 -7.36073 1.72432 0
M  V30 1448 H 137.668 -7.77123 0.608253 0
M  V30 1449 N 141.898 -0.863906 -1.31812 0
M  V30 1450 C 143.144 -0.472535 -1.97218 0
M  V30 1451 C 143.477 0.971394 -1.68159 0
M  V30 1452 O 142.752 1.68309 -0.974798 0
M  V30 1453 C 143.035 -0.723054 -3.52766 0
M  V30 1454 C 142.888 -2.21608 -3.91421 0
M  V30 1455 C 144.207 -0.185522 -4.39709 0
M  V30 1456 H 141.326 -0.173158 -0.71637 0
M  V30 1457 H 143.968 -1.08403 -1.56041 0
M  V30 1458 H 142.118 -0.202577 -3.87971 0
M  V30 1459 H 143.79 -2.80334 -3.66347 0
M  V30 1460 H 142.033 -2.691 -3.40246 0
M  V30 1461 H 142.704 -2.34203 -4.99853 0
M  V30 1462 H 145.18 -0.630726 -4.11292 0
M  V30 1463 H 144.056 -0.390306 -5.47511 0
M  V30 1464 H 144.317 0.912229 -4.32586 0
M  V30 1465 N 143.376 1.44774 -0.622745 0
M  V30 1466 C 144.286 2.34433 0.0886031 0
M  V30 1467 C 145.302 1.52131 0.844529 0
M  V30 1468 O 146.478 1.84886 0.798691 0
M  V30 1469 C 143.543 3.29986 1.0635 0
M  V30 1470 C 142.604 4.28195 0.307873 0
M  V30 1471 C 141.837 5.19183 1.23633 0
M  V30 1472 O 142.06 5.13918 2.47476 0
M  V30 1473 O 140.994 5.97515 0.725189 0
M  V30 1474 H 144.82 2.96693 -0.648599 0
M  V30 1475 H 142.405 1.44408 -0.382957 0
M  V30 1476 H 144.287 3.88825 1.6246 0
M  V30 1477 H 142.962 2.70269 1.78146 0
M  V30 1478 H 141.869 3.72927 -0.296064 0
M  V30 1479 H 143.202 4.90808 -0.3699 0
M  V30 1480 N 144.854 0.36279 1.53368 0
M  V30 1481 C 146.1 -0.228113 2.01513 0
M  V30 1482 C 146.433 -1.48648 1.2497 0
M  V30 1483 O 145.708 -1.91459 0.342616 0
M  V30 1484 C 145.991 -0.522884 3.56284 0
M  V30 1485 C 145.844 0.74892 4.43521 0
M  V30 1486 C 147.163 -1.32461 4.19693 0
M  V30 1487 H 144.282 -0.0814343 0.732487 0
M  V30 1488 H 146.924 0.48713 1.83649 0
M  V30 1489 H 145.074 -1.1322 3.71636 0
M  V30 1490 H 146.746 1.38648 4.39971 0
M  V30 1491 H 144.989 1.36986 4.11603 0
M  V30 1492 H 145.66 0.497667 5.49752 0
M  V30 1493 H 148.136 -0.809203 4.08156 0
M  V30 1494 H 147.012 -1.49961 5.28018 0
M  V30 1495 H 147.273 -2.33232 3.75573 0
M  V30 1496 N 146.332 -1.57332 0.0918853 0
M  V30 1497 C 147.578 -1.95328 -0.567313 0
M  V30 1498 C 147.933 -0.972866 -1.65991 0
M  V30 1499 O 147.226 0.00166256 -1.916 0
M  V30 1500 C 147.42 -3.37689 -1.17051 0
M  V30 1501 C 147.249 -4.49489 -0.137875 0
M  V30 1502 C 146.019 -5.04498 0.284515 0
M  V30 1503 C 148.217 -5.10393 0.63271 0
M  V30 1504 N 146.199 -5.99853 1.30576 0
M  V30 1505 C 147.57 -6.01435 1.50587 0
M  V30 1506 C 149.625 -4.93143 0.68658 0
M  V30 1507 C 148.328 -6.77077 2.42815 0
M  V30 1508 C 150.354 -5.69445 1.59645 0
M  V30 1509 C 149.716 -6.60151 2.45725 0
M  V30 1510 H 145.815 -0.761467 -0.178023 0
M  V30 1511 H 148.399 -1.93924 0.173706 0
M  V30 1512 H 146.57 -3.39793 -1.88136 0
M  V30 1513 H 148.302 -3.62872 -1.79181 0
M  V30 1514 H 145.057 -4.73489 -0.102593 0
M  V30 1515 H 145.481 -6.52231 1.81449 0
M  V30 1516 H 150.123 -4.22785 0.035244 0
M  V30 1517 H 147.841 -7.46699 3.08975 0
M  V30 1518 H 151.427 -5.58112 1.64323 0
M  V30 1519 H 150.307 -7.18159 3.14987 0
M  V30 1520 N 147.81 0.181792 -1.56548 0
M  V30 1521 C 149.056 0.901431 -1.81665 0
M  V30 1522 C 149.389 1.82347 -0.668075 0
M  V30 1523 O 148.664 1.91669 0.330615 0
M  V30 1524 C 148.947 1.70618 -3.17115 0
M  V30 1525 C 148.8 0.807964 -4.42484 0
M  V30 1526 C 150.119 2.67605 -3.49393 0
M  V30 1527 H 147.238 0.32627 -0.660846 0
M  V30 1528 H 149.88 0.168134 -1.89255 0
M  V30 1529 H 148.03 2.33133 -3.10775 0
M  V30 1530 H 149.702 0.19649 -4.60881 0
M  V30 1531 H 147.945 0.115411 -4.33646 0
M  V30 1532 H 148.616 1.40632 -5.33785 0
M  V30 1533 H 151.092 2.15218 -3.56118 0
M  V30 1534 H 149.968 3.20985 -4.45264 0
M  V30 1535 H 150.229 3.47298 -2.73563 0
M  V30 1536 N 149.288 1.51039 0.449983 0
M  V30 1537 C 150.235 1.71439 1.54523 0
M  V30 1538 C 151.205 0.555871 1.56522 0
M  V30 1539 O 152.39 0.788871 1.73728 0
M  V30 1540 C 149.53 1.83384 2.92343 0
M  V30 1541 C 148.643 3.10873 2.9997 0
M  V30 1542 C 147.778 3.13488 4.28834 0
M  V30 1543 C 146.817 4.35343 4.30282 0
M  V30 1544 N 145.954 4.35579 5.5065 0
M  V30 1545 H 150.794 2.64934 1.36433 0
M  V30 1546 H 148.331 1.31312 0.662982 0
M  V30 1547 H 150.289 1.88291 3.72293 0
M  V30 1548 H 148.919 0.933086 3.0902 0
M  V30 1549 H 147.971 3.15336 2.12761 0
M  V30 1550 H 149.283 4.00814 2.96901 0
M  V30 1551 H 148.437 3.17241 5.17149 0
M  V30 1552 H 147.176 2.21414 4.34543 0
M  V30 1553 H 146.181 4.3178 3.40362 0
M  V30 1554 H 147.406 5.28668 4.26248 0
M  V30 1555 H 145.352 3.46369 5.57104 0
M  V30 1556 H 145.269 5.19313 5.49409 0
M  V30 1557 H 146.537 4.43507 6.41032 0
M  V30 1558 N 150.766 -0.704594 1.40972 0
M  V30 1559 C 151.713 -1.81862 1.42109 0
M  V30 1560 C 152.683 -1.63781 0.276593 0
M  V30 1561 O 153.868 -1.84759 0.4763 0
M  V30 1562 C 151.008 -3.19669 1.30022 0
M  V30 1563 C 150.121 -3.49246 2.54267 0
M  V30 1564 C 149.256 -4.76618 2.3454 0
M  V30 1565 C 148.295 -4.99133 3.54306 0
M  V30 1566 N 147.432 -6.17726 3.33706 0
M  V30 1567 H 152.272 -1.80226 2.37324 0
M  V30 1568 H 149.809 -0.880238 1.17857 0
M  V30 1569 H 151.767 -3.99263 1.21018 0
M  V30 1570 H 150.397 -3.20506 0.384192 0
M  V30 1571 H 149.449 -2.64125 2.73756 0
M  V30 1572 H 150.761 -3.61788 3.43381 0
M  V30 1573 H 149.915 -5.64249 2.22952 0
M  V30 1574 H 148.654 -4.66305 1.42867 0
M  V30 1575 H 147.659 -4.09953 3.66359 0
M  V30 1576 H 148.884 -5.11311 4.4692 0
M  V30 1577 H 146.83 -6.08642 2.44725 0
M  V30 1578 H 146.747 -6.30995 4.16391 0
M  V30 1579 H 148.015 -7.08115 3.25873 0
M  V30 1580 N 152.244 -1.26651 -0.937939 0
M  V30 1581 C 153.49 -1.12553 -1.687 0
M  V30 1582 C 153.823 0.329782 -1.91379 0
M  V30 1583 O 153.098 1.24202 -1.4968 0
M  V30 1584 C 153.381 -1.89862 -3.05981 0
M  V30 1585 C 153.234 -3.43318 -2.90607 0
M  V30 1586 C 154.553 -1.69499 -4.0615 0
M  V30 1587 H 151.672 -0.410257 -0.612257 0
M  V30 1588 H 154.314 -1.55685 -1.08913 0
M  V30 1589 H 152.464 -1.53204 -3.57017 0
M  V30 1590 H 154.136 -3.89747 -2.46769 0
M  V30 1591 H 152.379 -3.70179 -2.26164 0
M  V30 1592 H 153.05 -3.92642 -3.8799 0
M  V30 1593 H 155.526 -2.01442 -3.64088 0
M  V30 1594 H 154.402 -2.26002 -5.00214 0
M  V30 1595 H 154.663 -0.640365 -4.37438 0
M  V30 1596 N 153.722 1.14298 -1.08507 0
M  V30 1597 C 154.685 2.17607 -0.719711 0
M  V30 1598 C 155.685 1.58907 0.245997 0
M  V30 1599 O 156.875 1.74181 0.0254081 0
M  V30 1600 C 154.007 3.40842 -0.0627695 0
M  V30 1601 H 155.2 2.51443 -1.63452 0
M  V30 1602 H 152.753 1.28963 -0.88307 0
M  V30 1603 H 153.488 3.12587 0.863716 0
M  V30 1604 H 153.273 3.84713 -0.757504 0
M  V30 1605 H 154.763 4.17221 0.177786 0
M  V30 1606 N 155.201 0.870884 1.31352 0
M  V30 1607 C 156.426 0.495957 2.01383 0
M  V30 1608 C 156.851 -0.904324 1.64935 0
M  V30 1609 O 156.209 -1.59687 0.858466 0
M  V30 1610 C 156.257 0.661433 3.54482 0
M  V30 1611 O 155.361 -0.298851 4.11316 0
M  V30 1612 H 154.702 0.197158 0.634054 0
M  V30 1613 H 157.232 1.17455 1.67527 0
M  V30 1614 H 157.242 0.555072 4.04207 0
M  V30 1615 H 155.917 1.68246 3.8035 0
M  V30 1616 H 154.494 -0.147368 3.72609 0
M  V30 1617 N 156.679 -1.44442 0.630414 0
M  V30 1618 C 157.589 -2.34476 -0.0761693 0
M  V30 1619 C 158.605 -1.52576 -0.836449 0
M  V30 1620 O 159.781 -1.85307 -0.788874 0
M  V30 1621 C 156.846 -3.30545 -1.04599 0
M  V30 1622 C 155.907 -4.28352 -0.28516 0
M  V30 1623 C 155.14 -5.19831 -1.20878 0
M  V30 1624 O 155.363 -5.15223 -2.44747 0
M  V30 1625 O 154.297 -5.97892 -0.693491 0
M  V30 1626 H 158.123 -2.96345 0.664324 0
M  V30 1627 H 155.708 -1.44203 0.39061 0
M  V30 1628 H 157.59 -3.89681 -1.60396 0
M  V30 1629 H 156.265 -2.7121 -1.76711 0
M  V30 1630 H 155.172 -3.72764 0.315837 0
M  V30 1631 H 156.505 -4.90605 0.395924 0
M  V30 1632 N 158.157 -0.370918 -1.53173 0
M  V30 1633 C 159.568 0.107139 -1.86392 0
M  V30 1634 C 159.919 1.47714 -1.29132 0
M  V30 1635 O 159.044 2.07464 -0.615439 0
M  V30 1636 C 159.639 0.201187 -3.38202 0
M  V30 1637 C 158.198 0.623507 -3.712 0
M  V30 1638 C 157.345 -0.225978 -2.76378 0
M  V30 1639 H 160.296 -0.58951 -1.47345 0
M  V30 1640 H 160.317 1.02377 -3.66468 0
M  V30 1641 H 159.829 -0.796058 -3.79848 0
M  V30 1642 H 157.93 1.62879 -3.35114 0
M  V30 1643 H 158.043 0.394414 -4.77474 0
M  V30 1644 H 156.407 0.305962 -2.52856 0
M  V30 1645 H 157.19 -1.22086 -3.20858 0
M  V30 1646 N 159.635 1.57281 -0.100228 0
M  V30 1647 C 160.884 1.93713 0.561984 0
M  V30 1648 C 161.197 0.984492 1.69018 0
M  V30 1649 O 162.403 1.24273 2.41389 0
M  V30 1650 C 160.859 3.4421 1.05106 0
M  V30 1651 C 160.467 4.47975 -0.0476628 0
M  V30 1652 C 162.211 3.89595 1.68571 0
M  V30 1653 C 160.118 5.89631 0.457055 0
M  V30 1654 H 159.048 0.723082 0.2137 0
M  V30 1655 H 161.699 1.82644 -0.177057 0
M  V30 1656 H 160.081 3.50449 1.84395 0
M  V30 1657 H 161.255 4.53385 -0.823333 0
M  V30 1658 H 159.57 4.1223 -0.587816 0
M  V30 1659 H 162.167 4.92832 2.07414 0
M  V30 1660 H 162.51 3.28526 2.55688 0
M  V30 1661 H 163.043 3.86078 0.958562 0
M  V30 1662 H 159.782 6.54411 -0.377616 0
M  V30 1663 H 159.302 5.87681 1.19962 0
M  V30 1664 H 160.981 6.40363 0.92437 0
M  V30 1665 N 161.113 -0.173488 1.56642 0
M  V30 1666 C 162.361 -0.888706 1.81512 0
M  V30 1667 C 162.682 -1.82875 0.676872 0
M  V30 1668 O 161.952 -1.93536 -0.303414 0
M  V30 1669 H 160.532 -0.331164 0.669582 0
M  V30 1670 H 163.194 -0.173823 1.94123 0
M  V30 1671 H 162.29 -1.46691 2.75478 0
M  V30 1672 N 162.591 -1.51276 -0.441967 0
M  V30 1673 C 163.501 -1.75092 -1.56141 0
M  V30 1674 C 164.517 -0.634963 -1.62001 0
M  V30 1675 O 165.693 -0.916686 -1.79329 0
M  V30 1676 C 162.758 -1.86666 -2.92158 0
M  V30 1677 C 161.819 -3.10506 -2.96453 0
M  V30 1678 C 161.052 -3.21519 -4.25982 0
M  V30 1679 O 161.275 -2.38586 -5.18105 0
M  V30 1680 O 160.209 -4.14465 -4.36466 0
M  V30 1681 H 164.035 -2.70044 -1.38961 0
M  V30 1682 H 161.62 -1.35722 -0.624499 0
M  V30 1683 H 163.502 -1.96292 -3.72891 0
M  V30 1684 H 162.177 -0.949014 -3.09476 0
M  V30 1685 H 161.084 -3.06363 -2.14692 0
M  V30 1686 H 162.417 -4.01945 -2.84079 0
M  V30 1687 N 164.069 0.697108 -1.41344 0
M  V30 1688 C 165.485 1.00751 -1.2378 0
M  V30 1689 C 165.685 2.01105 -0.126066 0
M  V30 1690 O 164.741 2.47295 0.51004 0
M  V30 1691 C 166.054 1.53359 -2.58653 0
M  V30 1692 C 167.602 1.6525 -2.65822 0
M  V30 1693 C 168.077 2.2126 -4.01009 0
M  V30 1694 N 169.568 2.28622 -4.02847 0
M  V30 1695 C 170.303 2.72984 -5.04249 0
M  V30 1696 N 169.799 3.16962 -6.16041 0
M  V30 1697 N 171.592 2.72534 -4.91611 0
M  V30 1698 H 163.743 0.0322662 -2.12375 0
M  V30 1699 H 166.006 0.0768853 -0.944877 0
M  V30 1700 H 165.712 0.870773 -3.4075 0
M  V30 1701 H 165.586 2.51597 -2.81032 0
M  V30 1702 H 167.973 2.30644 -1.84086 0
M  V30 1703 H 168.054 0.655614 -2.47256 0
M  V30 1704 H 167.698 1.56482 -4.83193 0
M  V30 1705 H 167.628 3.21698 -4.16915 0
M  V30 1706 H 170.119 1.97585 -3.22131 0
M  V30 1707 H 170.432 3.49434 -6.89287 0
M  V30 1708 H 168.777 3.14875 -6.1958 0
M  V30 1709 H 171.968 2.37525 -4.0336 0
M  V30 1710 H 172.141 3.06789 -5.70775 0
M  V30 1711 N 165.547 1.27147 0.931209 0
M  V30 1712 C 166.777 1.15914 1.71019 0
M  V30 1713 C 167.185 -0.287112 1.87009 0
M  V30 1714 O 166.528 -1.20761 1.38429 0
M  V30 1715 C 166.59 1.76647 3.13107 0
M  V30 1716 C 166.254 3.25807 3.20467 0
M  V30 1717 C 167.251 4.22489 3.02983 0
M  V30 1718 C 164.936 3.66452 3.43538 0
M  V30 1719 C 166.93 5.57794 3.08454 0
M  V30 1720 C 164.617 5.01888 3.48643 0
M  V30 1721 C 165.615 5.97369 3.31119 0
M  V30 1722 O 165.303 7.30337 3.35952 0
M  V30 1723 H 165.035 0.404062 0.54195 0
M  V30 1724 H 167.589 1.68457 1.17521 0
M  V30 1725 H 165.819 1.18578 3.68071 0
M  V30 1726 H 167.508 1.60179 3.72958 0
M  V30 1727 H 168.274 3.92425 2.85004 0
M  V30 1728 H 164.153 2.92611 3.5623 0
M  V30 1729 H 167.697 6.32298 2.94694 0
M  V30 1730 H 163.594 5.31609 3.66145 0
M  V30 1731 H 164.362 7.38739 3.5243 0
M  V30 1732 N 167.025 -1.13721 1.09112 0
M  V30 1733 C 168.265 -1.86576 0.834801 0
M  V30 1734 C 168.629 -1.81435 -0.628122 0
M  V30 1735 O 169.83 -2.49497 -1.00024 0
M  V30 1736 C 168.101 -3.30872 1.35124 0
M  V30 1737 S 169.66 -4.21257 1.22832 0
M  V30 1738 H 166.478 -0.643666 0.302017 0
M  V30 1739 H 169.08 -1.37085 1.39385 0
M  V30 1740 H 167.784 -3.32166 2.41027 0
M  V30 1741 H 167.315 -3.85423 0.788185 0
M  V30 1742 H 169.33 -4.95884 0.177191 0
M  V30 1743 N 168.503 -0.877838 -1.30888 0
M  V30 1744 C 169.749 -0.493426 -1.96706 0
M  V30 1745 C 170.082 0.953504 -1.6918 0
M  V30 1746 O 169.357 1.67266 -0.992594 0
M  V30 1747 C 169.64 -0.760429 -3.51979 0
M  V30 1748 C 169.493 -2.25747 -3.89048 0
M  V30 1749 C 170.812 -0.232148 -4.39487 0
M  V30 1750 H 167.931 -0.180746 -0.714493 0
M  V30 1751 H 170.573 -1.10052 -1.54882 0
M  V30 1752 H 168.723 -0.243715 -3.87735 0
M  V30 1753 H 170.395 -2.84204 -3.63354 0
M  V30 1754 H 168.638 -2.72694 -3.37373 0
M  V30 1755 H 169.309 -2.39491 -4.97341 0
M  V30 1756 H 171.785 -0.674314 -4.106 0
M  V30 1757 H 170.661 -0.448355 -5.47066 0
M  V30 1758 H 170.922 0.866297 -4.33529 0
M  V30 1759 N 169.982 1.44106 -0.638065 0
M  V30 1760 C 171.21 2.06336 -0.152615 0
M  V30 1761 C 171.625 1.47731 1.17563 0
M  V30 1762 O 170.982 0.602806 1.72257 0
M  V30 1763 C 171.033 3.61479 -0.0391491 0
M  V30 1764 O 170.754 4.17903 -1.31487 0
M  V30 1765 C 172.255 4.40757 0.474176 0
M  V30 1766 H 169.475 0.665862 -0.0828776 0
M  V30 1767 H 172.019 1.84862 -0.87443 0
M  V30 1768 H 170.174 3.82191 0.633142 0
M  V30 1769 H 170.588 5.11416 -1.16421 0
M  V30 1770 H 172.062 5.49707 0.502562 0
M  V30 1771 H 172.539 4.12697 1.50258 0
M  V30 1772 H 173.145 4.24979 -0.165102 0
M  V30 1773 N 171.46 0.379036 1.52974 0
M  V30 1774 C 172.737 -0.263479 1.93817 0
M  V30 1775 C 173.117 -1.65244 1.31368 0
M  V30 1776 O 172.465 -2.23448 0.477856 0
M  V30 1777 C 172.675 -0.300166 3.47707 0
M  V30 1778 C 174.023 -0.534061 4.21228 0
M  V30 1779 O 175.047 -0.38081 3.54159 0
M  V30 1780 O 173.906 -0.833501 5.40106 0
M  V30 1781 H 171 -0.161149 0.811147 0
M  V30 1782 H 173.546 0.432798 1.64088 0
M  V30 1783 H 172.318 0.673138 3.85467 0
M  V30 1784 H 171.941 -1.04179 3.83709 0
M  V30 1785 N 172.938 -1.57226 0.108567 0
M  V30 1786 C 173.901 -2.13602 -0.831082 0
M  V30 1787 C 174.901 -1.06841 -1.20173 0
M  V30 1788 O 176.091 -1.32666 -1.12895 0
M  V30 1789 C 173.223 -2.66769 -2.12243 0
M  V30 1790 H 174.416 -2.97951 -0.341317 0
M  V30 1791 H 171.969 -1.55667 -0.14057 0
M  V30 1792 H 172.704 -1.85977 -2.65675 0
M  V30 1793 H 172.489 -3.44839 -1.86625 0
M  V30 1794 H 173.979 -3.10332 -2.79435 0
M  V30 1795 N 174.416 0.165178 -1.56732 0
M  V30 1796 C 175.662 0.882112 -1.82611 0
M  V30 1797 C 175.995 1.81628 -0.687378 0
M  V30 1798 O 175.27 1.92009 0.310267 0
M  V30 1799 C 175.553 1.67245 -3.18906 0
M  V30 1800 C 175.406 0.760987 -4.43316 0
M  V30 1801 C 176.725 2.63884 -3.52212 0
M  V30 1802 H 173.844 0.319242 -0.664269 0
M  V30 1803 H 176.486 0.148052 -1.89422 0
M  V30 1804 H 174.636 2.29824 -3.1323 0
M  V30 1805 H 176.308 0.147596 -4.61064 0
M  V30 1806 H 174.551 0.0694102 -4.33744 0
M  V30 1807 H 175.222 1.34962 -5.35247 0
M  V30 1808 H 177.698 2.11429 -3.58381 0
M  V30 1809 H 176.574 3.16245 -4.48643 0
M  V30 1810 H 176.835 3.44377 -2.77231 0
M  V30 1811 N 175.894 1.51508 0.433938 0
M  V30 1812 C 177.141 1.64345 1.18309 0
M  V30 1813 C 177.469 0.361315 1.91115 0
M  V30 1814 O 176.724 -0.654753 1.84422 0
M  V30 1815 C 177.023 2.79928 2.22205 0
M  V30 1816 C 176.689 4.19078 1.66387 0
M  V30 1817 C 175.351 4.56932 1.50887 0
M  V30 1818 C 177.703 5.05894 1.25381 0
M  V30 1819 C 175.031 5.79305 0.928608 0
M  V30 1820 C 177.383 6.2885 0.687823 0
M  V30 1821 C 176.047 6.65473 0.519755 0
M  V30 1822 H 175.317 0.601381 0.432923 0
M  V30 1823 H 177.964 1.85549 0.473676 0
M  V30 1824 H 176.269 2.52959 2.99197 0
M  V30 1825 H 177.966 2.87059 2.79997 0
M  V30 1826 H 174.556 3.89234 1.79428 0
M  V30 1827 H 178.74 4.77253 1.36175 0
M  V30 1828 H 173.996 6.06324 0.786186 0
M  V30 1829 H 178.17 6.95461 0.361581 0
M  V30 1830 H 175.797 7.6017 0.0679979 0
M  V30 1831 N 177.372 -0.689602 1.41712 0
M  V30 1832 C 178.6 -1.47827 1.44758 0
M  V30 1833 C 179.015 -1.88721 0.0545703 0
M  V30 1834 O 178.372 -1.57176 -0.927463 0
M  V30 1835 C 178.423 -2.73698 2.3616 0
M  V30 1836 O 178.144 -2.34524 3.7004 0
M  V30 1837 C 179.645 -3.67389 2.48072 0
M  V30 1838 H 176.865 -0.455357 0.49284 0
M  V30 1839 H 179.409 -0.848574 1.86063 0
M  V30 1840 H 177.564 -3.32891 1.98148 0
M  V30 1841 H 177.978 -3.15701 4.18847 0
M  V30 1842 H 179.452 -4.52475 3.16181 0
M  V30 1843 H 179.929 -4.12284 1.51388 0
M  V30 1844 H 180.535 -3.14097 2.86746 0
M  V30 1845 N 178.85 -1.27639 -0.924453 0
M  V30 1846 C 180.097 -1.14167 -1.67249 0
M  V30 1847 C 180.425 0.311863 -1.91984 0
M  V30 1848 O 179.68 1.24425 -1.51053 0
M  V30 1849 C 179.979 -1.87407 -3.04325 0
M  V30 1850 C 179.645 -3.37249 -2.99289 0
M  V30 1851 C 178.307 -3.7812 -2.97622 0
M  V30 1852 C 180.659 -4.32845 -2.90336 0
M  V30 1853 C 177.987 -5.12944 -2.8479 0
M  V30 1854 C 180.339 -5.6773 -2.79045 0
M  V30 1855 C 179.003 -6.07889 -2.7573 0
M  V30 1856 H 178.273 -0.417766 -0.612007 0
M  V30 1857 H 180.92 -1.58286 -1.07786 0
M  V30 1858 H 179.225 -1.35805 -3.67511 0
M  V30 1859 H 180.922 -1.74408 -3.61086 0
M  V30 1860 H 177.512 -3.04748 -3.01374 0
M  V30 1861 H 181.696 -4.02239 -2.90719 0
M  V30 1862 H 176.952 -5.432 -2.80612 0
M  V30 1863 H 181.126 -6.41472 -2.71083 0
M  V30 1864 H 178.753 -7.12314 -2.65544 0
M  V30 1865 N 180.328 1.1314 -1.09713 0
M  V30 1866 C 181.574 1.84757 -0.836224 0
M  V30 1867 C 181.907 1.8347 0.636598 0
M  V30 1868 O 181.182 1.27491 1.46889 0
M  V30 1869 C 181.465 3.32782 -1.37578 0
M  V30 1870 C 181.318 3.42567 -2.91493 0
M  V30 1871 C 182.637 4.28307 -1.01198 0
M  V30 1872 H 179.756 0.67082 -0.305236 0
M  V30 1873 H 182.398 1.3278 -1.35903 0
M  V30 1874 H 180.548 3.77177 -0.931097 0
M  V30 1875 H 182.22 3.06862 -3.44432 0
M  V30 1876 H 180.463 2.83349 -3.28475 0
M  V30 1877 H 181.134 4.46674 -3.24324 0
M  V30 1878 H 183.61 3.91999 -1.39556 0
M  V30 1879 H 182.486 5.30307 -1.41653 0
M  V30 1880 H 182.747 4.42029 0.0794833 0
M  V30 1881 N 181.806 0.884767 1.30421 0
M  V30 1882 C 182.769 0.356277 2.26414 0
M  V30 1883 C 183.769 -0.501124 1.52792 0
M  V30 1884 O 184.959 -0.30831 1.7145 0
M  V30 1885 C 182.091 -0.492316 3.37326 0
M  V30 1886 H 183.284 1.20389 2.74675 0
M  V30 1887 H 180.837 0.661607 1.41607 0
M  V30 1888 H 181.572 -1.36052 2.94381 0
M  V30 1889 H 181.357 0.121832 3.91911 0
M  V30 1890 H 182.847 -0.853871 4.08777 0
M  V30 1891 N 183.284 -1.43765 0.645699 0
M  V30 1892 C 184.53 -2.02197 0.156271 0
M  V30 1893 C 184.863 -1.50776 -1.22393 0
M  V30 1894 O 184.138 -0.697771 -1.81553 0
M  V30 1895 C 184.421 -3.59749 0.158872 0
M  V30 1896 C 184.274 -4.21419 1.57245 0
M  V30 1897 C 185.593 -4.37149 -0.50879 0
M  V30 1898 H 182.712 -0.734694 0.0582602 0
M  V30 1899 H 185.354 -1.71157 0.824951 0
M  V30 1900 H 183.504 -3.86325 -0.410525 0
M  V30 1901 H 185.176 -4.059 2.19186 0
M  V30 1902 H 183.419 -3.78356 2.122 0
M  V30 1903 H 184.09 -5.30482 1.52619 0
M  V30 1904 H 186.566 -4.16093 -0.024412 0
M  V30 1905 H 185.442 -5.4683 -0.476213 0
M  V30 1906 H 185.703 -4.12839 -1.58165 0
M  V30 1907 N 184.763 -0.387143 -1.52771 0
M  V30 1908 C 186.04 0.253197 -1.93954 0
M  V30 1909 C 186.42 1.64545 -1.32243 0
M  V30 1910 O 185.768 2.23191 -0.489699 0
M  V30 1911 C 185.978 0.281722 -3.47861 0
M  V30 1912 C 187.326 0.511715 -4.21505 0
M  V30 1913 O 188.35 0.362023 -3.54356 0
M  V30 1914 O 187.209 0.804847 -5.40541 0
M  V30 1915 H 184.303 0.156845 -0.811991 0
M  V30 1916 H 186.849 -0.441494 -1.63856 0
M  V30 1917 H 185.621 -0.693571 -3.85104 0
M  V30 1918 H 185.244 1.02142 -3.84256 0
M  V30 1919 N 186.241 1.57166 -0.116904 0
M  V30 1920 C 187.189 2.16457 0.851418 0
M  V30 1921 C 188.183 1.11323 1.27686 0
M  V30 1922 O 189.389 1.2963 1.24884 0
M  V30 1923 H 185.764 0.69271 0.292672 0
M  V30 1924 H 187.735 2.96605 0.32685 0
M  V30 1925 C 186.484 2.77689 2.09246 0
M  V30 1926 H 185.807 3.58285 1.77402 0
M  V30 1927 H 187.247 3.22716 2.7501 0
M  V30 1928 C 185.706 1.74667 2.88085 0
M  V30 1929 O 186.236 1.19877 3.83396 0
M  V30 1930 N 184.442 1.44656 2.52038 0
M  V30 1931 H 183.989 1.89402 1.74599 0
M  V30 1932 H 183.947 0.759675 3.05084 0
M  V30 1933 N 187.719 -0.156864 1.56817 0
M  V30 1934 C 188.667 -1.21319 1.98455 0
M  V30 1935 C 189.661 -1.45025 0.875444 0
M  V30 1936 O 190.867 -1.45435 1.0606 0
M  V30 1937 H 187.242 -0.408142 0.631605 0
M  V30 1938 H 189.213 -0.835244 2.86472 0
M  V30 1939 C 187.962 -2.54148 2.37285 0
M  V30 1940 H 187.285 -2.36733 3.22176 0
M  V30 1941 H 188.725 -3.26712 2.70251 0
M  V30 1942 C 187.184 -3.13967 1.22173 0
M  V30 1943 O 187.714 -3.98357 0.517149 0
M  V30 1944 N 185.92 -2.7327 0.988536 0
M  V30 1945 H 185.467 -2.04744 1.56326 0
M  V30 1946 H 185.425 -3.13628 0.220209 0
M  V30 1947 N 189.197 -1.51736 -0.425897 0
M  V30 1948 C 190.445 -1.64644 -1.17204 0
M  V30 1949 C 190.766 -0.370486 -1.91448 0
M  V30 1950 O 190.036 0.614088 -1.86026 0
M  V30 1951 H 188.616 -0.606819 -0.435638 0
M  V30 1952 H 191.278 -1.88713 -0.487177 0
M  V30 1953 H 190.374 -2.47958 -1.89534 0
M  V30 1954 N 190.675 0.682077 -1.42076 0
M  V30 1955 C 192.091 0.994324 -1.24841 0
M  V30 1956 C 192.291 2.0096 -0.147389 0
M  V30 1957 O 191.347 2.47822 0.483782 0
M  V30 1958 C 192.66 1.50607 -2.60265 0
M  V30 1959 C 194.208 1.62421 -2.6756 0
M  V30 1960 C 194.683 2.16994 -4.03333 0
M  V30 1961 N 196.174 2.24337 -4.0525 0
M  V30 1962 C 196.909 2.67621 -5.07116 0
M  V30 1963 N 196.405 3.1041 -6.19368 0
M  V30 1964 N 198.198 2.67305 -4.94474 0
M  V30 1965 H 190.349 0.00973908 -2.12398 0
M  V30 1966 H 192.612 0.0668593 -0.945639 0
M  V30 1967 H 192.318 0.834583 -3.41654 0
M  V30 1968 H 192.192 2.48602 -2.83684 0
M  V30 1969 H 194.579 2.28678 -1.86521 0
M  V30 1970 H 194.66 0.629352 -2.47937 0
M  V30 1971 H 194.304 1.51349 -4.84826 0
M  V30 1972 H 194.234 3.17258 -4.20304 0
M  V30 1973 H 196.725 1.94158 -3.24209 0
M  V30 1974 H 197.038 3.42103 -6.92954 0
M  V30 1975 H 195.383 3.08286 -6.22884 0
M  V30 1976 H 198.574 2.33233 -4.05857 0
M  V30 1977 H 198.747 3.00718 -5.73997 0
M  V30 1978 N 192.153 1.28127 0.917671 0
M  V30 1979 C 193.378 1.18007 1.70555 0
M  V30 1980 C 193.803 -0.258257 1.86319 0
M  V30 1981 O 193.161 -1.1869 1.37049 0
M  V30 1982 C 193.209 1.87948 3.07746 0
M  V30 1983 O 192.313 1.18427 3.9503 0
M  V30 1984 H 191.654 0.409867 0.522403 0
M  V30 1985 H 194.184 1.69379 1.1477 0
M  V30 1986 H 194.194 1.95701 3.58001 0
M  V30 1987 H 192.869 2.92573 2.95591 0
M  V30 1988 H 191.446 1.18811 3.53466 0
M  V30 1989 N 193.631 -1.12557 1.10312 0
M  V30 1990 C 195.047 -1.36036 0.834649 0
M  V30 1991 C 195.247 -1.93946 -0.546539 0
M  V30 1992 O 194.303 -2.16484 -1.29966 0
M  V30 1993 C 195.616 -2.30312 1.9333 0
M  V30 1994 C 197.164 -2.43906 1.9616 0
M  V30 1995 C 197.639 -3.41496 3.05195 0
M  V30 1996 N 199.13 -3.49053 3.04494 0
M  V30 1997 C 199.865 -4.24471 3.85502 0
M  V30 1998 N 199.361 -5.02966 4.76442 0
M  V30 1999 N 201.154 -4.19864 3.73725 0
M  V30 2000 H 193.305 -0.733246 1.99342 0
M  V30 2001 H 195.568 -0.385234 0.866198 0
M  V30 2002 H 195.274 -1.94933 2.92735 0
M  V30 2003 H 195.148 -3.30421 1.81939 0
M  V30 2004 H 197.535 -2.78567 0.973886 0
M  V30 2005 H 197.616 -1.4369 2.11629 0
M  V30 2006 H 197.26 -3.07565 4.04186 0
M  V30 2007 H 197.19 -4.41539 2.86968 0
M  V30 2008 H 199.681 -2.93053 2.38596 0
M  V30 2009 H 199.994 -5.57846 5.34815 0
M  V30 2010 H 198.339 -5.02167 4.80472 0
M  V30 2011 H 201.53 -3.57623 3.02032 0
M  V30 2012 H 201.703 -4.78386 4.37093 0
M  V30 2013 N 195.109 -0.891671 -1.2995 0
M  V30 2014 C 196.337 -0.52866 -2.00032 0
M  V30 2015 C 196.752 0.884574 -1.66795 0
M  V30 2016 O 196.109 1.5827 -0.908669 0
M  V30 2017 C 196.16 -0.701814 -3.54622 0
M  V30 2018 O 195.881 -2.05942 -3.86678 0
M  V30 2019 C 197.382 -0.342683 -4.41973 0
M  V30 2020 H 194.602 -0.203659 -0.639347 0
M  V30 2021 H 197.146 -1.19881 -1.65677 0
M  V30 2022 H 195.301 -0.0789468 -3.8732 0
M  V30 2023 H 195.715 -2.08291 -4.81368 0
M  V30 2024 H 197.189 -0.514709 -5.49595 0
M  V30 2025 H 197.666 0.71975 -4.33262 0
M  V30 2026 H 198.272 -0.942154 -4.14733 0
M  V30 2027 N 196.587 1.43421 -0.653314 0
M  V30 2028 C 197.836 2.01032 -0.164076 0
M  V30 2029 C 198.149 1.52147 1.22926 0
M  V30 2030 O 199.355 2.02031 1.81371 0
M  V30 2031 C 197.811 3.59082 -0.24252 0
M  V30 2032 C 197.419 4.1696 -1.63855 0
M  V30 2033 C 199.163 4.24079 0.18911 0
M  V30 2034 C 197.07 5.67304 -1.67092 0
M  V30 2035 H 196 0.751798 -0.0575769 0
M  V30 2036 H 198.651 1.6439 -0.815362 0
M  V30 2037 H 197.033 3.93125 0.476276 0
M  V30 2038 H 198.207 3.94416 -2.38271 0
M  V30 2039 H 196.522 3.64335 -2.01616 0
M  V30 2040 H 199.119 5.34381 0.184775 0
M  V30 2041 H 199.462 3.98005 1.22056 0
M  V30 2042 H 199.995 3.94918 -0.477938 0
M  V30 2043 H 196.734 5.98145 -2.68146 0
M  V30 2044 H 196.254 5.91904 -0.970014 0
M  V30 2045 H 197.933 6.31344 -1.4147 0
M  V30 2046 N 198.065 0.39524 1.52563 0
M  V30 2047 C 199.476 -0.0774719 1.86539 0
M  V30 2048 C 199.827 -1.45641 1.31466 0
M  V30 2049 O 198.952 -2.06459 0.648367 0
M  V30 2050 C 199.547 -0.147356 3.38479 0
M  V30 2051 C 198.106 -0.564373 3.72145 0
M  V30 2052 C 197.253 0.269919 2.75983 0
M  V30 2053 H 200.204 0.612876 1.46388 0
M  V30 2054 H 200.225 -0.965343 3.68051 0
M  V30 2055 H 199.737 0.856387 3.78534 0
M  V30 2056 H 197.838 -1.57527 3.37663 0
M  V30 2057 H 197.951 -0.318402 4.78041 0
M  V30 2058 H 196.315 -0.265696 2.5331 0
M  V30 2059 H 197.098 1.27175 3.18875 0
M  V30 2060 N 199.544 -1.57102 0.125237 0
M  V30 2061 C 200.96 -1.57915 -0.231322 0
M  V30 2062 C 201.16 -1.13833 -1.66266 0
M  V30 2063 O 200.216 -0.828581 -2.38518 0
M  V30 2064 C 201.529 -3.00699 0.00766489 0
M  V30 2065 C 203.077 -3.12947 -0.0577483 0
M  V30 2066 C 203.552 -4.57742 0.153626 0
M  V30 2067 N 205.043 -4.63092 0.0998073 0
M  V30 2068 C 205.778 -5.72905 0.238174 0
M  V30 2069 N 205.274 -6.91445 0.433057 0
M  V30 2070 N 207.067 -5.6182 0.177308 0
M  V30 2071 H 199.218 -1.84055 1.06007 0
M  V30 2072 H 201.481 -0.850905 0.417929 0
M  V30 2073 H 201.187 -3.3726 0.997431 0
M  V30 2074 H 201.061 -3.70236 -0.721452 0
M  V30 2075 H 203.448 -2.7624 -1.03804 0
M  V30 2076 H 203.529 -2.4594 0.70335 0
M  V30 2077 H 203.173 -4.95149 1.13092 0
M  V30 2078 H 203.103 -5.22848 -0.627534 0
M  V30 2079 H 205.594 -3.77871 -0.047051 0
M  V30 2080 H 205.907 -7.70985 0.529332 0
M  V30 2081 H 204.252 -6.93415 0.469109 0
M  V30 2082 H 207.443 -4.68093 0.0259748 0
M  V30 2083 H 207.616 -6.47357 0.288582 0
M  V30 2084 N 201.022 0.148545 -1.56898 0
M  V30 2085 C 201.932 1.20293 -2.01412 0
M  V30 2086 C 202.948 1.47107 -0.929273 0
M  V30 2087 O 204.124 1.58807 -1.23863 0
M  V30 2088 C 201.189 2.51682 -2.38447 0
M  V30 2089 C 200.25 2.32529 -3.60872 0
M  V30 2090 C 199.483 3.57653 -3.96132 0
M  V30 2091 O 199.706 4.63771 -3.32073 0
M  V30 2092 O 198.64 3.50408 -4.89385 0
M  V30 2093 H 202.466 0.855025 -2.91416 0
M  V30 2094 H 200.051 0.357151 -1.45068 0
M  V30 2095 H 201.933 3.29147 -2.63135 0
M  V30 2096 H 200.608 2.86006 -1.51599 0
M  V30 2097 H 199.515 1.53019 -3.41373 0
M  V30 2098 H 200.848 2.03121 -4.48333 0
M  V30 2099 N 202.5 1.5196 0.417844 0
M  V30 2100 C 203.448 1.75278 1.52907 0
M  V30 2101 C 204.442 0.619611 1.57662 0
M  V30 2102 O 205.648 0.801457 1.61173 0
M  V30 2103 H 202.023 0.554141 0.508362 0
M  V30 2104 H 203.994 2.68389 1.30422 0
M  V30 2105 C 202.743 1.91262 2.90369 0
M  V30 2106 H 202.066 2.77872 2.8745 0
M  V30 2107 H 203.506 2.11581 3.67436 0
M  V30 2108 C 201.965 0.677431 3.30019 0
M  V30 2109 O 202.495 -0.158799 4.01386 0
M  V30 2110 N 200.701 0.515851 2.85985 0
M  V30 2111 H 200.248 1.19744 2.28077 0
M  V30 2112 H 200.206 -0.309315 3.12875 0
M  V30 2113 N 203.978 -0.674533 1.42435 0
M  V30 2114 C 204.926 -1.80934 1.46169 0
M  V30 2115 C 205.92 -1.66006 0.3374 0
M  V30 2116 O 207.126 -1.72611 0.510425 0
M  V30 2117 H 203.501 -0.596594 0.457798 0
M  V30 2118 H 205.472 -1.74903 2.41767 0
M  V30 2119 C 204.221 -3.19088 1.38123 0
M  V30 2120 H 203.544 -3.31203 2.23931 0
M  V30 2121 H 204.984 -3.9851 1.44797 0
M  V30 2122 C 203.443 -3.36763 0.0960517 0
M  V30 2123 O 203.973 -3.92581 -0.851073 0
M  V30 2124 N 202.179 -2.90597 0.0131186 0
M  V30 2125 H 201.726 -2.45359 0.784639 0
M  V30 2126 H 201.684 -3.028 -0.846133 0
M  V30 2127 N 205.456 -1.28612 -0.910864 0
M  V30 2128 C 206.388 -1.08589 -2.01844 0
M  V30 2129 C 207.401 -0.0367419 -1.62759 0
M  V30 2130 O 208.59 -0.280101 -1.76289 0
M  V30 2131 C 205.69 -0.628626 -3.33019 0
M  V30 2132 C 204.863 -1.75382 -4.00699 0
M  V30 2133 C 203.922 -1.28945 -5.10156 0
M  V30 2134 O 202.948 -1.9922 -5.33198 0
M  V30 2135 N 204.15 -0.154224 -5.80295 0
M  V30 2136 H 206.915 -2.03973 -2.19579 0
M  V30 2137 H 204.476 -1.20403 -1.08234 0
M  V30 2138 H 206.468 -0.301508 -4.03575 0
M  V30 2139 H 205.038 0.232451 -3.11735 0
M  V30 2140 H 204.258 -2.25039 -3.23653 0
M  V30 2141 H 205.546 -2.50854 -4.42662 0
M  V30 2142 H 204.944 0.43194 -5.64049 0
M  V30 2143 H 203.501 0.113599 -6.51701 0
M  V30 2144 N 206.934 1.1197 -1.10907 0
M  V30 2145 C 207.844 2.21433 -0.774896 0
M  V30 2146 C 208.86 1.72478 0.229657 0
M  V30 2147 O 210.036 2.01288 0.0672008 0
M  V30 2148 C 207.101 3.4602 -0.216986 0
M  V30 2149 C 206.162 4.09791 -1.27944 0
M  V30 2150 C 205.395 5.28431 -0.748055 0
M  V30 2151 O 205.618 5.68823 0.423833 0
M  V30 2152 O 204.552 5.82644 -1.51027 0
M  V30 2153 H 208.378 2.5242 -1.68873 0
M  V30 2154 H 205.963 1.20399 -0.884555 0
M  V30 2155 H 207.845 4.21304 0.090059 0
M  V30 2156 H 206.52 3.16698 0.669633 0
M  V30 2157 H 205.427 3.36265 -1.63941 0
M  V30 2158 H 206.76 4.4328 -2.13925 0
M  V30 2159 N 208.412 0.89855 1.29475 0
M  V30 2160 C 209.342 0.39201 2.30186 0
M  V30 2161 C 210.323 -0.532359 1.61555 0
M  V30 2162 O 211.508 -0.443331 1.89072 0
M  V30 2163 C 208.638 -0.382353 3.45189 0
M  V30 2164 C 207.592 0.451483 4.25612 0
M  V30 2165 C 206.918 -0.450307 5.328 0
M  V30 2166 C 208.218 1.70079 4.93832 0
M  V30 2167 H 209.912 1.23362 2.72804 0
M  V30 2168 H 207.458 0.594638 1.31149 0
M  V30 2169 H 209.411 -0.747451 4.14718 0
M  V30 2170 H 208.135 -1.25774 3.01411 0
M  V30 2171 H 206.794 0.798897 3.57789 0
M  V30 2172 H 206.442 -1.32379 4.85268 0
M  V30 2173 H 206.142 0.103902 5.87508 0
M  V30 2174 H 207.666 -0.811623 6.05182 0
M  V30 2175 H 209.08 1.40549 5.55805 0
M  V30 2176 H 207.477 2.19623 5.58467 0
M  V30 2177 H 208.547 2.43744 4.19186 0
M  V30 2178 N 209.89 -1.43072 0.660911 0
M  V30 2179 C 210.8 -2.34585 -0.0264163 0
M  V30 2180 C 211.816 -1.54316 -0.803898 0
M  V30 2181 O 212.992 -1.86939 -0.749391 0
M  V30 2182 C 210.057 -3.32689 -0.975639 0
M  V30 2183 C 209.118 -4.2886 -0.194236 0
M  V30 2184 C 208.351 -5.22278 -1.09825 0
M  V30 2185 O 208.574 -5.20299 -2.33763 0
M  V30 2186 O 207.508 -5.99228 -0.566513 0
M  V30 2187 H 211.334 -2.94869 0.727034 0
M  V30 2188 H 208.919 -1.43342 0.42111 0
M  V30 2189 H 210.801 -3.92995 -1.52094 0
M  V30 2190 H 209.476 -2.74898 -1.70918 0
M  V30 2191 H 208.383 -3.72011 0.394835 0
M  V30 2192 H 209.716 -4.89655 0.499899 0
M  V30 2193 N 211.368 -0.403325 -1.52352 0
M  V30 2194 C 212.315 0.425011 -2.26853 0
M  V30 2195 C 213.285 1.04598 -1.29029 0
M  V30 2196 O 214.47 1.07135 -1.57882 0
M  V30 2197 C 211.61 1.53888 -3.08889 0
M  V30 2198 C 210.723 0.939396 -4.21663 0
M  V30 2199 C 209.858 2.02547 -4.91068 0
M  V30 2200 C 208.897 1.40263 -5.95813 0
M  V30 2201 N 208.034 2.4286 -6.58759 0
M  V30 2202 H 212.874 -0.21674 -2.97211 0
M  V30 2203 H 210.411 -0.118722 -1.4662 0
M  V30 2204 H 212.369 2.19558 -3.54753 0
M  V30 2205 H 210.999 2.15074 -2.40714 0
M  V30 2206 H 210.051 0.171898 -3.80011 0
M  V30 2207 H 211.363 0.44436 -4.96817 0
M  V30 2208 H 210.517 2.75958 -5.40308 0
M  V30 2209 H 209.256 2.55415 -4.15469 0
M  V30 2210 H 208.261 0.653833 -5.45898 0
M  V30 2211 H 209.486 0.881719 -6.73352 0
M  V30 2212 H 207.432 2.94871 -5.85992 0
M  V30 2213 H 207.349 1.98152 -7.2957 0
M  V30 2214 H 208.617 3.15858 -7.12639 0
M  V30 2215 N 212.846 1.57033 -0.133567 0
M  V30 2216 C 213.809 2.14897 0.796995 0
M  V30 2217 C 214.809 1.0874 1.18458 0
M  V30 2218 O 215.999 1.34446 1.1077 0
M  V30 2219 C 213.131 2.70112 2.07973 0
M  V30 2220 H 214.324 2.98457 0.293873 0
M  V30 2221 H 211.877 1.55871 0.115787 0
M  V30 2222 H 212.612 1.9018 2.62682 0
M  V30 2223 H 212.397 3.47764 1.81115 0
M  V30 2224 H 213.887 3.14738 2.74462 0
M  V30 2225 N 214.325 -0.140222 1.56975 0
M  V30 2226 C 215.255 -1.17456 2.01808 0
M  V30 2227 C 216.236 -1.44415 0.898794 0
M  V30 2228 O 217.421 -1.5522 1.16707 0
M  V30 2229 C 214.551 -2.50607 2.40444 0
M  V30 2230 C 213.505 -2.38155 3.55621 0
M  V30 2231 C 212.831 -3.76078 3.80091 0
M  V30 2232 C 214.131 -1.85991 4.88062 0
M  V30 2233 H 215.825 -0.801743 2.88466 0
M  V30 2234 H 213.371 -0.38422 1.38779 0
M  V30 2235 H 215.324 -3.23197 2.7041 0
M  V30 2236 H 214.048 -2.89737 1.50732 0
M  V30 2237 H 212.707 -1.68016 3.25832 0
M  V30 2238 H 212.355 -4.12656 2.87618 0
M  V30 2239 H 212.055 -3.68606 4.57606 0
M  V30 2240 H 213.579 -4.50206 4.12488 0
M  V30 2241 H 214.993 -2.4838 5.16701 0
M  V30 2242 H 213.39 -1.89393 5.6943 0
M  V30 2243 H 214.46 -0.816023 4.77984 0
M  V30 2244 N 215.803 -1.52179 -0.40978 0
M  V30 2245 C 216.766 -1.74853 -1.48186 0
M  V30 2246 C 217.766 -0.618417 -1.48433 0
M  V30 2247 O 218.956 -0.886286 -1.49969 0
M  V30 2248 C 216.088 -1.8303 -2.87598 0
M  V30 2249 H 217.281 -2.70559 -1.29374 0
M  V30 2250 H 214.834 -1.42586 -0.640233 0
M  V30 2251 H 215.569 -0.89236 -3.11781 0
M  V30 2252 H 215.354 -2.65187 -2.88822 0
M  V30 2253 H 216.844 -2.02316 -3.65319 0
M  V30 2254 N 217.281 0.66697 -1.42791 0
M  V30 2255 C 218.211 1.79218 -1.49677 0
M  V30 2256 C 219.192 1.66405 -0.352623 0
M  V30 2257 O 220.377 1.85708 -0.567993 0
M  V30 2258 C 217.507 3.17565 -1.40605 0
M  V30 2259 C 216.461 3.45124 -2.53127 0
M  V30 2260 C 215.787 4.83127 -2.29112 0
M  V30 2261 C 217.087 3.41236 -3.95418 0
M  V30 2262 H 218.781 1.73713 -2.43853 0
M  V30 2263 H 216.327 0.83432 -1.17367 0
M  V30 2264 H 218.28 3.96022 -1.44029 0
M  V30 2265 H 217.004 3.23767 -0.429271 0
M  V30 2266 H 215.663 2.69031 -2.49034 0
M  V30 2267 H 215.311 4.85988 -1.29709 0
M  V30 2268 H 215.011 5.02528 -3.04531 0
M  V30 2269 H 216.535 5.63859 -2.34297 0
M  V30 2270 H 217.949 4.09651 -4.01073 0
M  V30 2271 H 216.346 3.72173 -4.70752 0
M  V30 2272 H 217.416 2.39665 -4.21532 0
M  V30 2273 N 218.759 1.29093 0.90403 0
M  V30 2274 C 220.008 1.16187 1.64874 0
M  V30 2275 C 220.321 -0.286742 1.93487 0
M  V30 2276 O 221.527 -0.537062 2.66135 0
M  V30 2277 C 219.983 2.03177 2.97064 0
M  V30 2278 C 219.591 3.52836 2.76062 0
M  V30 2279 C 221.335 1.98984 3.74974 0
M  V30 2280 C 219.242 4.31945 4.03952 0
M  V30 2281 H 218.172 0.431246 0.618501 0
M  V30 2282 H 220.823 1.53699 1.00243 0
M  V30 2283 H 219.205 1.5853 3.62883 0
M  V30 2284 H 220.379 4.05507 2.18863 0
M  V30 2285 H 218.694 3.58656 2.11553 0
M  V30 2286 H 221.291 2.55351 4.69787 0
M  V30 2287 H 221.634 0.968815 4.0487 0
M  V30 2288 H 222.167 2.41652 3.15989 0
M  V30 2289 H 218.906 5.34667 3.79225 0
M  V30 2290 H 218.426 3.84045 4.60727 0
M  V30 2291 H 220.105 4.42379 4.72133 0
M  V30 2292 N 220.237 -1.11381 1.11499 0
M  V30 2293 C 221.462 -1.87475 0.887019 0
M  V30 2294 C 221.887 -1.79639 -0.557796 0
M  V30 2295 O 221.245 -1.15924 -1.39396 0
M  V30 2296 C 221.293 -3.34213 1.35403 0
M  V30 2297 O 220.397 -4.0903 0.526146 0
M  V30 2298 H 219.738 -0.582099 0.319463 0
M  V30 2299 H 222.268 -1.40785 1.48461 0
M  V30 2300 H 222.278 -3.8506 1.34881 0
M  V30 2301 H 220.953 -3.39232 2.40612 0
M  V30 2302 H 219.53 -3.68082 0.597522 0
M  V30 2303 N 221.715 -0.905404 -1.28997 0
M  V30 2304 C 222.625 -0.392246 -2.31298 0
M  V30 2305 C 223.641 0.515889 -1.66176 0
M  V30 2306 O 224.817 0.404093 -1.97304 0
M  V30 2307 C 221.882 0.36686 -3.44754 0
M  V30 2308 C 220.943 -0.573485 -4.25452 0
M  V30 2309 C 220.176 0.149488 -5.33491 0
M  V30 2310 O 220.399 1.37255 -5.5364 0
M  V30 2311 O 219.333 -0.510919 -5.99728 0
M  V30 2312 H 223.159 -1.2411 -2.77183 0
M  V30 2313 H 220.744 -0.669926 -1.33538 0
M  V30 2314 H 222.626 0.795907 -4.13816 0
M  V30 2315 H 221.301 1.19169 -3.00966 0
M  V30 2316 H 220.208 -1.05176 -3.59011 0
M  V30 2317 H 221.541 -1.36489 -4.72897 0
M  V30 2318 N 223.193 1.4272 -0.668489 0
M  V30 2319 C 224.125 2.2914 0.052613 0
M  V30 2320 C 225.138 1.43339 0.771857 0
M  V30 2321 O 226.327 1.67123 0.627067 0
M  V30 2322 C 223.427 3.20618 1.09804 0
M  V30 2323 C 222.6 4.35039 0.45389 0
M  V30 2324 C 221.659 5.07282 1.39825 0
M  V30 2325 O 220.685 5.62024 0.900978 0
M  V30 2326 N 221.887 5.12206 2.73176 0
M  V30 2327 H 224.652 2.91668 -0.689209 0
M  V30 2328 H 222.213 1.53577 -0.512422 0
M  V30 2329 H 224.205 3.65815 1.73094 0
M  V30 2330 H 222.775 2.59585 1.74167 0
M  V30 2331 H 221.995 3.92567 -0.358396 0
M  V30 2332 H 223.283 5.088 0.00486972 0
M  V30 2333 H 222.681 4.6913 3.16122 0
M  V30 2334 H 221.238 5.61069 3.31729 0
M  V30 2335 N 224.671 0.411399 1.52136 0
M  V30 2336 C 226.082 -0.0576826 1.86611 0
M  V30 2337 C 226.433 -1.44238 1.33003 0
M  V30 2338 O 225.558 -2.05759 0.670228 0
M  V30 2339 C 226.153 -0.111448 3.38617 0
M  V30 2340 C 224.712 -0.52487 3.72723 0
M  V30 2341 C 223.859 0.299176 2.75681 0
M  V30 2342 H 226.81 0.628368 1.4573 0
M  V30 2343 H 226.831 -0.926252 3.69054 0
M  V30 2344 H 226.343 0.896488 3.77604 0
M  V30 2345 H 224.444 -1.53936 3.39315 0
M  V30 2346 H 224.557 -0.267681 4.78352 0
M  V30 2347 H 222.921 -0.238814 2.53578 0
M  V30 2348 H 223.704 1.3055 3.17508 0
M  V30 2349 N 226.149 -1.5696 0.141893 0
M  V30 2350 C 227.079 -2.19516 -0.795936 0
M  V30 2351 C 228.06 -1.14187 -1.26077 0
M  V30 2352 O 229.245 -1.42511 -1.31925 0
M  V30 2353 C 226.375 -2.81272 -2.03723 0
M  V30 2354 C 225.329 -3.92384 -1.70936 0
M  V30 2355 C 224.655 -4.41052 -3.02287 0
M  V30 2356 C 225.955 -5.13403 -0.959954 0
M  V30 2357 H 227.649 -2.98138 -0.274596 0
M  V30 2358 H 225.195 -1.43406 -0.130636 0
M  V30 2359 H 227.148 -3.237 -2.69808 0
M  V30 2360 H 225.872 -1.99973 -2.58221 0
M  V30 2361 H 224.531 -3.50566 -1.07232 0
M  V30 2362 H 224.179 -3.56582 -3.54765 0
M  V30 2363 H 223.879 -5.15993 -2.81114 0
M  V30 2364 H 225.403 -4.86146 -3.69451 0
M  V30 2365 H 226.817 -5.52706 -1.52279 0
M  V30 2366 H 225.214 -5.94073 -0.848357 0
M  V30 2367 H 226.284 -4.84875 0.0492434 0
M  V30 2368 O 227.666 -0.00315229 -1.615 0
M  V30 2369 H 228.357 0.61308 -1.83742 0
M  V30 END ATOM
M  V30 BEGIN BOND
M  V30 END BOND
M  V30 END CTAB
M  END
$$$$
