drugbank_target|P44868 tRNA (cytidine(34)-2'-O)-methyltransferase (DB01752)
 OpenBabel12092120223D

  0  0  0     0  0            999 V3000
M  V30 BEGIN CTAB
M  V30 COUNTS 3487 3713 0 0 0
M  V30 BEGIN ATOM
M  V30 1 H -2.588 8.49073 -0.0679273 0
M  V30 2 O -1.492 9.37262 0.0843559 0
M  V30 3 P 0 8.791 0 0
M  V30 4 O 1.422 9.31096 0.027933 0
M  V30 5 O -0.36 7.77869 -1.04071 0
M  V30 6 O -0.323 8.09533 1.41463 0
M  V30 7 C -0.483 9.0349 2.53943 0
M  V30 8 C 0.057 8.35226 3.79016 0
M  V30 9 O -0.999 7.57992 4.15078 0
M  V30 10 C 1.275 7.45087 3.67298 0
M  V30 11 O 2.013 7.27796 4.85194 0
M  V30 12 C 0.606 6.17323 3.12027 0
M  V30 13 O 1.405 5.04231 3.47188 0
M  V30 14 C -0.731 6.19961 3.81809 0
M  V30 15 H -0.699 5.58218 4.73051 0
M  V30 16 H 0.484 6.21726 2.02589 0
M  V30 17 H 1.968 7.86112 2.9231 0
M  V30 18 H 0.274 9.11627 4.55076 0
M  V30 19 H 0.084 9.9573 2.34194 0
M  V30 20 H -1.546 9.2792 2.67832 0
M  V30 21 H 1.093 4.67702 4.28772 0
M  V30 22 P 2.95057 7.39546 4.75277 0
M  V30 23 O 4.37257 7.81777 5.05738 0
M  V30 24 O 2.59057 7.1065 3.32998 0
M  V30 25 O 2.62757 6.04542 5.56673 0
M  V30 26 C 2.46757 6.22772 7.02095 0
M  V30 27 C 3.00757 4.97725 7.70406 0
M  V30 28 O 1.95157 4.13256 7.58987 0
M  V30 29 C 4.22557 4.28231 7.11815 0
M  V30 30 O 4.96357 3.49945 8.01648 0
M  V30 31 C 3.55657 3.5063 5.96244 0
M  V30 32 O 4.35557 2.36482 5.64681 0
M  V30 33 C 2.21957 3.15122 6.56374 0
M  V30 34 H 2.25157 2.13853 6.99751 0
M  V30 35 H 3.43457 4.13501 5.06559 0
M  V30 36 H 4.91857 5.03285 6.70911 0
M  V30 37 H 3.22457 5.20877 8.75697 0
M  V30 38 H 3.03457 7.11046 7.35349 0
M  V30 39 H 1.40457 6.35815 7.26986 0
M  V30 40 H 4.04357 1.61644 6.13565 0
M  V30 41 P 5.90114 3.65191 7.99657 0
M  V30 42 O 7.32314 3.8425 8.48115 0
M  V30 43 O 5.54114 4.17805 6.64342 0
M  V30 44 O 5.57814 2.07613 7.95143 0
M  V30 45 C 5.41814 1.44328 9.27336 0
M  V30 46 C 5.95814 0.0220036 9.17197 0
M  V30 47 O 4.90214 -0.626867 8.61923 0
M  V30 48 C 7.17614 -0.24586 8.30336 0
M  V30 49 O 7.91414 -1.39011 8.63583 0
M  V30 50 C 6.50714 -0.273849 6.91158 0
M  V30 51 O 7.30614 -1.06348 6.02892 0
M  V30 52 C 5.17014 -0.897649 7.22545 0
M  V30 53 H 5.20214 -1.9841 7.04286 0
M  V30 54 H 6.38514 0.739928 6.497 0
M  V30 55 H 7.86914 0.60668 8.36503 0
M  V30 56 H 6.17514 -0.352479 10.1829 0
M  V30 57 H 5.98514 2.00611 10.0304 0
M  V30 58 H 4.35514 1.41843 9.55327 0
M  V30 59 H 6.99414 -1.95734 6.03555 0
M  V30 60 P 8.85171 -1.25109 8.70152 0
M  V30 61 O 10.2737 -1.35274 9.21221 0
M  V30 62 O 8.49171 -0.0769065 7.84762 0
M  V30 63 O 8.52871 -2.55232 7.81161 0
M  V30 64 C 8.36871 -3.79939 8.58154 0
M  V30 65 C 8.90871 -4.94023 7.72785 0
M  V30 66 O 7.85271 -5.18726 6.91205 0
M  V30 67 C 10.1267 -4.69597 6.85231 0
M  V30 68 O 10.8647 -5.83832 6.51337 0
M  V30 69 C 9.45771 -3.96706 5.66633 0
M  V30 70 O 10.2567 -4.15414 4.49689 0
M  V30 71 C 8.12071 -4.66153 5.59313 0
M  V30 72 H 8.15271 -5.47679 4.85214 0
M  V30 73 H 9.33571 -2.89008 5.86566 0
M  V30 74 H 10.8197 -4.0121 7.36511 0
M  V30 75 H 9.12571 -5.80182 8.37584 0
M  V30 76 H 8.93571 -3.73517 9.52265 0
M  V30 77 H 7.30571 -3.97163 8.80359 0
M  V30 78 H 9.94471 -4.90969 4.01921 0
M  V30 79 P 11.8023 -5.75688 6.64379 0
M  V30 80 O 13.2243 -6.11849 7.01846 0
M  V30 81 O 11.4423 -4.30744 6.56026 0
M  V30 82 O 11.4793 -6.37042 5.19165 0
M  V30 83 C 11.3193 -7.83578 5.16515 0
M  V30 84 C 11.8593 -8.33398 3.83019 0
M  V30 85 O 10.8033 -8.10074 3.01034 0
M  V30 86 C 13.0773 -7.65514 3.2257 0
M  V30 87 O 13.8153 -8.4329 2.32297 0
M  V30 88 C 12.4083 -6.40075 2.62207 0
M  V30 89 O 13.2073 -5.92589 1.53712 0
M  V30 90 C 11.0713 -6.9454 2.18503 0
M  V30 91 H 11.1033 -7.23063 1.12091 0
M  V30 92 H 12.2863 -5.6025 3.37201 0
M  V30 93 H 13.7703 -7.35707 4.02681 0
M  V30 94 H 12.0763 -9.40912 3.9095 0
M  V30 95 H 11.8863 -8.29056 5.99158 0
M  V30 96 H 10.2563 -8.10073 5.25882 0
M  V30 97 H 12.8953 -6.30324 0.726794 0
M  V30 98 P 14.7528 -8.4349 2.47671 0
M  V30 99 O 16.1748 -8.94167 2.5964 0
M  V30 100 O 14.3928 -7.1704 3.19006 0
M  V30 101 O 14.4298 -8.16596 0.923387 0
M  V30 102 C 14.2698 -9.38437 0.108857 0
M  V30 103 C 14.8098 -9.08175 -1.28353 0
M  V30 104 O 13.7538 -8.44229 -1.84713 0
M  V30 105 C 16.0278 -8.18386 -1.42505 0
M  V30 106 O 16.7659 -8.3501 -2.60497 0
M  V30 107 C 15.3588 -6.80225 -1.25468 0
M  V30 108 O 16.1578 -5.81621 -1.91066 0
M  V30 109 C 14.0218 -7.02416 -1.9168 0
M  V30 110 H 14.0538 -6.6888 -2.96621 0
M  V30 111 H 15.2368 -6.53617 -0.192223 0
M  V30 112 H 16.7208 -8.36622 -0.589963 0
M  V30 113 H 15.0268 -10.0291 -1.79807 0
M  V30 114 H 14.8368 -10.2138 0.558219 0
M  V30 115 H 13.2068 -9.6579 0.0444202 0
M  V30 116 H 15.8458 -5.69556 -2.79637 0
M  V30 117 P 17.7034 -8.4349 -2.47671 0
M  V30 118 O 19.1044 -8.99283 -2.62101 0
M  V30 119 O 17.3254 -7.81195 -1.16947 0
M  V30 120 O 17.3804 -7.36797 -3.63761 0
M  V30 121 C 17.2204 -7.95349 -4.982 0
M  V30 122 C 17.7604 -6.94537 -5.98908 0
M  V30 123 O 16.7044 -6.10277 -6.11744 0
M  V30 124 C 18.9774 -6.11426 -5.62335 0
M  V30 125 O 19.7164 -5.6162 -6.70584 0
M  V30 126 C 18.3104 -5.04409 -4.73308 0
M  V30 127 O 19.1084 -3.85929 -4.75106 0
M  V30 128 C 16.9724 -4.8728 -5.41006 0
M  V30 129 N 15.9294 -4.65812 -4.42377 0
M  V30 130 C 14.8944 -3.81293 -4.74224 0
M  V30 131 O 14.9334 -3.20533 -5.83679 0
M  V30 132 N 13.8824 -3.6442 -3.86349 0
M  V30 133 C 13.9304 -4.2728 -2.6824 0
M  V30 134 C 15.0264 -5.10813 -2.3217 0
M  V30 135 C 15.9924 -5.27909 -3.22647 0
M  V30 136 H 17.0044 -4.02278 -6.11074 0
M  V30 137 H 18.1874 -5.39013 -3.70026 0
M  V30 138 H 19.6714 -6.71494 -5.02675 0
M  V30 139 H 17.9774 -7.45796 -6.94223 0
M  V30 140 H 17.7864 -8.89416 -5.05237 0
M  V30 141 H 16.1564 -8.14791 -5.18355 0
M  V30 142 H 15.0744 -5.58884 -1.34755 0
M  V30 143 H 16.8384 -5.92811 -2.9934 0
M  V30 144 H 18.8924 -3.3454 -5.51577 0
M  V30 145 P 20.654 -5.75688 -6.64379 0
M  V30 146 O 22.076 -6.07627 -7.05504 0
M  V30 147 O 20.294 -5.88047 -5.19722 0
M  V30 148 O 20.331 -4.2322 -7.04443 0
M  V30 149 C 20.171 -3.99743 -8.4911 0
M  V30 150 C 20.711 -2.60516 -8.79425 0
M  V30 151 O 19.655 -1.82684 -8.4467 0
M  V30 152 C 21.929 -2.10343 -8.03628 0
M  V30 153 O 22.667 -1.09919 -8.67766 0
M  V30 154 C 21.26 -1.68446 -6.70876 0
M  V30 155 O 22.059 -0.678137 -6.08433 0
M  V30 156 C 19.923 -1.17436 -7.18567 0
M  V30 157 H 19.955 -0.0804732 -7.31656 0
M  V30 158 H 21.138 -2.54037 -6.02537 0
M  V30 159 H 22.622 -2.93881 -7.85526 0
M  V30 160 H 20.928 -2.53065 -9.86973 0
M  V30 161 H 20.738 -4.75072 -9.05887 0
M  V30 162 H 19.108 -4.05244 -8.76668 0
M  V30 163 H 21.747 0.177647 -6.34251 0
M  V30 164 P 23.6046 -1.25109 -8.70152 0
M  V30 165 O 25.0266 -1.29744 -9.22016 0
M  V30 166 O 23.2446 -2.13714 -7.55141 0
M  V30 167 O 23.2816 0.248149 -8.21425 0
M  V30 168 C 23.1216 1.22779 -9.30434 0
M  V30 169 C 23.6616 2.56293 -8.80664 0
M  V30 170 O 22.6056 3.02979 -8.09349 0
M  V30 171 C 24.8796 2.57523 -7.89775 0
M  V30 172 O 25.6176 3.7668 -7.89438 0
M  V30 173 C 24.2106 2.20997 -6.55446 0
M  V30 174 O 25.0096 2.71895 -5.48509 0
M  V30 175 C 22.8736 2.89693 -6.67988 0
M  V30 176 H 22.9056 3.88793 -6.19859 0
M  V30 177 H 24.0886 1.12046 -6.44229 0
M  V30 178 H 25.5726 1.7746 -8.19711 0
M  V30 179 H 23.8786 3.20706 -9.67112 0
M  V30 180 H 23.6886 0.901032 -10.1892 0
M  V30 181 H 22.0586 1.33049 -9.56592 0
M  V30 182 H 24.6976 3.57847 -5.23962 0
M  V30 183 P 26.5551 3.65191 -7.99657 0
M  V30 184 O 27.9771 3.89332 -8.45794 0
M  V30 185 O 26.1951 2.28472 -7.50807 0
M  V30 186 O 26.2321 4.64972 -6.77611 0
M  V30 187 C 26.0721 6.06319 -7.16352 0
M  V30 188 C 26.6121 6.91731 -6.02299 0
M  V30 189 O 25.5561 6.92449 -5.17064 0
M  V30 190 C 27.8301 6.43627 -5.25174 0
M  V30 191 O 28.5681 7.43686 -4.60469 0
M  V30 192 C 27.1611 5.40275 -4.31916 0
M  V30 193 O 27.9601 5.25279 -3.14438 0
M  V30 194 C 25.8241 6.04847 -4.05327 0
M  V30 195 H 25.8561 6.62195 -3.11261 0
M  V30 196 H 27.0391 4.42556 -4.81383 0
M  V30 197 H 28.5231 5.92458 -5.93643 0
M  V30 198 H 26.8291 7.92655 -6.402 0
M  V30 199 H 26.6391 6.26671 -8.0846 0
M  V30 200 H 25.0091 6.29101 -7.32804 0
M  V30 201 H 27.6481 5.84315 -2.47318 0
M  V30 202 P 29.5057 7.39546 -4.75277 0
M  V30 203 O 30.9277 7.84798 -5.01039 0
M  V30 204 O 29.1457 5.9812 -5.08098 0
M  V30 205 O 29.1827 7.57503 -3.1866 0
M  V30 206 C 29.0227 8.97357 -2.74833 0
M  V30 207 C 29.5627 9.07548 -1.32709 0
M  V30 208 O 28.5067 8.62072 -0.606159 0
M  V30 209 C 30.7807 8.25383 -0.938334 0
M  V30 210 O 31.5187 8.74577 0.146954 0
M  V30 211 C 30.1117 6.8802 -0.712559 0
M  V30 212 O 30.9107 6.1189 0.194655 0
M  V30 213 C 28.7747 7.27966 -0.139777 0
M  V30 214 H 28.8067 7.25354 0.961601 0
M  V30 215 H 29.9897 6.32557 -1.65702 0
M  V30 216 H 31.4737 8.19355 -1.79097 0
M  V30 217 H 29.7797 10.1294 -1.10029 0
M  V30 218 H 29.5897 9.64276 -3.41316 0
M  V30 219 H 27.9597 9.25417 -2.76357 0
M  V30 220 H 30.5987 6.25267 1.07847 0
M  V30 221 P 32.4563 8.791 -9.96115e-15 0
M  V30 222 O 33.8783 9.31096 0.027933 0
M  V30 223 O 32.0963 7.77869 -1.04071 0
M  V30 224 O 32.1333 8.09533 1.41463 0
M  V30 225 C 31.9733 9.0349 2.53943 0
M  V30 226 C 32.5133 8.35226 3.79016 0
M  V30 227 O 31.4573 7.57992 4.15078 0
M  V30 228 C 33.7313 7.45087 3.67298 0
M  V30 229 O 34.4693 7.27796 4.85194 0
M  V30 230 C 33.0623 6.17323 3.12027 0
M  V30 231 O 33.8613 5.04231 3.47188 0
M  V30 232 C 31.7253 6.19961 3.81809 0
M  V30 233 H 31.7573 5.58218 4.73051 0
M  V30 234 H 32.9403 6.21726 2.02589 0
M  V30 235 H 34.4243 7.86112 2.9231 0
M  V30 236 H 32.7303 9.11627 4.55076 0
M  V30 237 H 32.5403 9.9573 2.34194 0
M  V30 238 H 30.9103 9.2792 2.67832 0
M  V30 239 H 33.5493 4.67702 4.28772 0
M  V30 240 P 35.4068 7.39546 4.75277 0
M  V30 241 O 36.8288 7.81777 5.05738 0
M  V30 242 O 35.0468 7.1065 3.32998 0
M  V30 243 O 35.0838 6.04542 5.56673 0
M  V30 244 C 34.9238 6.22772 7.02095 0
M  V30 245 C 35.4638 4.97725 7.70406 0
M  V30 246 O 34.4078 4.13256 7.58987 0
M  V30 247 C 36.6818 4.28231 7.11815 0
M  V30 248 O 37.4198 3.49945 8.01648 0
M  V30 249 C 36.0128 3.5063 5.96244 0
M  V30 250 O 36.8118 2.36482 5.64681 0
M  V30 251 C 34.6758 3.15122 6.56374 0
M  V30 252 H 34.7078 2.13853 6.99751 0
M  V30 253 H 35.8908 4.13501 5.06559 0
M  V30 254 H 37.3748 5.03285 6.70911 0
M  V30 255 H 35.6808 5.20877 8.75697 0
M  V30 256 H 35.4908 7.11046 7.35349 0
M  V30 257 H 33.8608 6.35815 7.26986 0
M  V30 258 H 36.4998 1.61644 6.13565 0
M  V30 259 P 38.3574 3.65191 7.99657 0
M  V30 260 O 39.7794 3.8425 8.48115 0
M  V30 261 O 37.9974 4.17805 6.64342 0
M  V30 262 O 38.0344 2.07613 7.95143 0
M  V30 263 C 37.8744 1.44328 9.27336 0
M  V30 264 C 38.4144 0.0220036 9.17197 0
M  V30 265 O 37.3584 -0.626867 8.61923 0
M  V30 266 C 39.6324 -0.24586 8.30336 0
M  V30 267 O 40.3704 -1.39011 8.63583 0
M  V30 268 C 38.9634 -0.273849 6.91158 0
M  V30 269 O 39.7624 -1.06348 6.02892 0
M  V30 270 C 37.6264 -0.897649 7.22545 0
M  V30 271 H 37.6584 -1.9841 7.04286 0
M  V30 272 H 38.8414 0.739928 6.497 0
M  V30 273 H 40.3254 0.60668 8.36503 0
M  V30 274 H 38.6314 -0.352479 10.1829 0
M  V30 275 H 38.4414 2.00611 10.0304 0
M  V30 276 H 36.8114 1.41843 9.55327 0
M  V30 277 H 39.4504 -1.95734 6.03555 0
M  V30 278 P 41.308 -1.25109 8.70152 0
M  V30 279 O 42.73 -1.35274 9.21221 0
M  V30 280 O 40.948 -0.0769065 7.84762 0
M  V30 281 O 40.985 -2.55232 7.81161 0
M  V30 282 C 40.825 -3.79939 8.58154 0
M  V30 283 C 41.365 -4.94023 7.72785 0
M  V30 284 O 40.309 -5.18726 6.91205 0
M  V30 285 C 42.583 -4.69597 6.85231 0
M  V30 286 O 43.321 -5.83832 6.51337 0
M  V30 287 C 41.914 -3.96706 5.66633 0
M  V30 288 O 42.713 -4.15414 4.49689 0
M  V30 289 C 40.577 -4.66153 5.59313 0
M  V30 290 H 40.609 -5.47679 4.85214 0
M  V30 291 H 41.792 -2.89008 5.86566 0
M  V30 292 H 43.276 -4.0121 7.36511 0
M  V30 293 H 41.582 -5.80182 8.37584 0
M  V30 294 H 41.392 -3.73517 9.52265 0
M  V30 295 H 39.762 -3.97163 8.80359 0
M  V30 296 H 42.401 -4.90969 4.01921 0
M  V30 297 P 44.2585 -5.75688 6.64379 0
M  V30 298 O 45.6805 -6.11981 7.01997 0
M  V30 299 O 43.8985 -4.30744 6.56026 0
M  V30 300 O 43.9355 -6.37042 5.19165 0
M  V30 301 C 43.7755 -7.83578 5.16515 0
M  V30 302 C 44.3155 -8.33307 3.82977 0
M  V30 303 O 43.2605 -8.10074 3.01034 0
M  V30 304 C 45.5335 -7.65514 3.2257 0
M  V30 305 O 46.2715 -8.4329 2.32297 0
M  V30 306 C 44.8655 -6.40075 2.62207 0
M  V30 307 O 45.6635 -5.92492 1.53687 0
M  V30 308 C 43.5275 -6.9454 2.18503 0
M  V30 309 N 42.4845 -5.95905 2.39948 0
M  V30 310 C 42.5465 -5.13994 3.44742 0
M  V30 311 N 41.5015 -4.30684 3.46712 0
M  V30 312 C 40.7675 -4.65583 2.41086 0
M  V30 313 C 39.4615 -4.20877 1.99581 0
M  V30 314 O 38.7285 -3.35913 2.52616 0
M  V30 315 N 39.0315 -4.83271 0.873406 0
M  V30 316 C 39.7805 -5.82006 0.185129 0
M  V30 317 N 39.1835 -6.30619 -0.95439 0
M  V30 318 N 40.9335 -6.28443 0.578524 0
M  V30 319 C 41.3905 -5.68486 1.70138 0
M  V30 320 H 43.5595 -7.23063 1.12091 0
M  V30 321 H 44.7425 -5.60165 3.3715 0
M  V30 322 H 46.2275 -7.3611 4.01946 0
M  V30 323 H 44.5325 -9.40912 3.9095 0
M  V30 324 H 44.3425 -8.29056 5.99158 0
M  V30 325 H 42.7115 -8.10073 5.25882 0
M  V30 326 H 38.1355 -4.58323 0.505262 0
M  V30 327 H 43.3425 -5.14564 4.1935 0
M  V30 328 H 38.2725 -5.93402 -1.25364 0
M  V30 329 H 39.6485 -7.0425 -1.50254 0
M  V30 330 H 45.3525 -6.30224 0.72668 0
M  V30 331 P 47.2091 -8.4349 2.47671 0
M  V30 332 O 48.6311 -8.94167 2.5964 0
M  V30 333 O 46.8491 -7.1704 3.19006 0
M  V30 334 O 46.8861 -8.16596 0.923387 0
M  V30 335 C 46.7261 -9.38437 0.108857 0
M  V30 336 C 47.2661 -9.08175 -1.28353 0
M  V30 337 O 46.2101 -8.44229 -1.84713 0
M  V30 338 C 48.4841 -8.18386 -1.42505 0
M  V30 339 O 49.2221 -8.3501 -2.60497 0
M  V30 340 C 47.8151 -6.80225 -1.25468 0
M  V30 341 O 48.6141 -5.81621 -1.91066 0
M  V30 342 C 46.4781 -7.02416 -1.9168 0
M  V30 343 H 46.5101 -6.6888 -2.96621 0
M  V30 344 H 47.6931 -6.53617 -0.192223 0
M  V30 345 H 49.1771 -8.36622 -0.589963 0
M  V30 346 H 47.4831 -10.0291 -1.79807 0
M  V30 347 H 47.2931 -10.2138 0.558219 0
M  V30 348 H 45.6631 -9.6579 0.0444202 0
M  V30 349 H 48.3021 -5.69556 -2.79637 0
M  V30 350 P 50.1597 -8.4349 -2.47671 0
M  V30 351 O 51.5817 -8.92593 -2.65 0
M  V30 352 O 49.7997 -7.7568 -1.19296 0
M  V30 353 O 49.8367 -7.36886 -3.63805 0
M  V30 354 C 49.6767 -7.95349 -4.982 0
M  V30 355 C 50.2167 -6.94612 -5.98974 0
M  V30 356 O 49.1607 -6.10347 -6.11815 0
M  V30 357 C 51.4347 -6.11426 -5.62335 0
M  V30 358 O 52.1727 -5.6162 -6.70584 0
M  V30 359 C 50.7657 -5.04409 -4.73308 0
M  V30 360 O 51.5647 -3.85992 -4.75183 0
M  V30 361 C 49.4287 -4.8728 -5.41006 0
M  V30 362 H 49.4607 -4.02333 -6.11157 0
M  V30 363 H 50.6437 -5.39466 -3.69543 0
M  V30 364 H 52.1277 -6.71916 -5.01943 0
M  V30 365 H 50.4337 -7.4649 -6.93477 0
M  V30 366 H 50.2437 -8.89416 -5.05237 0
M  V30 367 H 48.6137 -8.14876 -5.18409 0
M  V30 368 H 51.2527 -3.27957 -5.4317 0
M  V30 369 P 53.1103 -5.75688 -6.64379 0
M  V30 370 O 54.5323 -6.07627 -7.05504 0
M  V30 371 O 52.7503 -5.88047 -5.19722 0
M  V30 372 O 52.7873 -4.2322 -7.04443 0
M  V30 373 C 52.6273 -3.99743 -8.4911 0
M  V30 374 C 53.1673 -2.60516 -8.79425 0
M  V30 375 O 52.1113 -1.82684 -8.4467 0
M  V30 376 C 54.3853 -2.10343 -8.03628 0
M  V30 377 O 55.1233 -1.09919 -8.67766 0
M  V30 378 C 53.7163 -1.68446 -6.70876 0
M  V30 379 O 54.5153 -0.678137 -6.08433 0
M  V30 380 C 52.3793 -1.17436 -7.18567 0
M  V30 381 H 52.4113 -0.0804732 -7.31656 0
M  V30 382 H 53.5943 -2.54037 -6.02537 0
M  V30 383 H 55.0783 -2.93881 -7.85526 0
M  V30 384 H 53.3843 -2.53065 -9.86973 0
M  V30 385 H 53.1943 -4.75072 -9.05887 0
M  V30 386 H 51.5643 -4.05244 -8.76668 0
M  V30 387 H 54.2033 0.177647 -6.34251 0
M  V30 388 P 56.0608 -1.25109 -8.70152 0
M  V30 389 O 57.4818 -1.29758 -9.22115 0
M  V30 390 O 55.7008 -2.13714 -7.55141 0
M  V30 391 O 55.7378 0.248149 -8.21425 0
M  V30 392 C 55.5768 1.22792 -9.30533 0
M  V30 393 C 56.1178 2.56293 -8.80664 0
M  V30 394 O 55.0628 3.02944 -8.09255 0
M  V30 395 C 57.3358 2.57523 -7.89775 0
M  V30 396 O 58.0738 3.7668 -7.89438 0
M  V30 397 C 56.6678 2.20997 -6.55446 0
M  V30 398 O 57.4658 2.71302 -5.48691 0
M  V30 399 C 55.3298 2.89693 -6.67988 0
M  V30 400 N 54.2868 2.08895 -6.07487 0
M  V30 401 C 54.4558 0.753809 -5.94137 0
M  V30 402 N 53.4288 0.146592 -5.38801 0
M  V30 403 C 52.5438 1.1768 -5.13693 0
M  V30 404 C 51.2768 1.17563 -4.52477 0
M  V30 405 N 50.7118 2.41918 -4.45789 0
M  V30 406 C 51.3138 3.56493 -4.90792 0
M  V30 407 N 52.4908 3.61423 -5.47817 0
M  V30 408 C 53.0658 2.37779 -5.5588 0
M  V30 409 H 56.5448 1.12673 -6.44018 0
M  V30 410 H 58.0278 1.7746 -8.19711 0
M  V30 411 H 56.3338 3.21673 -9.66791 0
M  V30 412 H 56.1438 0.901032 -10.1892 0
M  V30 413 H 54.5138 1.33049 -9.56592 0
M  V30 414 H 55.3558 0.233081 -6.26266 0
M  V30 415 H 57.1538 3.5779 -5.23879 0
M  V30 416 P 59.0114 3.65191 -7.99657 0
M  V30 417 O 60.4334 3.89332 -8.45794 0
M  V30 418 O 58.6514 2.28472 -7.50807 0
M  V30 419 O 58.6884 4.64972 -6.77611 0
M  V30 420 C 58.5284 6.06319 -7.16352 0
M  V30 421 C 59.0684 6.91731 -6.02299 0
M  V30 422 O 58.0124 6.92449 -5.17064 0
M  V30 423 C 60.2864 6.43627 -5.25174 0
M  V30 424 O 61.0244 7.43686 -4.60469 0
M  V30 425 C 59.6174 5.40275 -4.31916 0
M  V30 426 O 60.4164 5.25279 -3.14438 0
M  V30 427 C 58.2804 6.04847 -4.05327 0
M  V30 428 H 58.3124 6.62195 -3.11261 0
M  V30 429 H 59.4954 4.42556 -4.81383 0
M  V30 430 H 60.9794 5.92458 -5.93643 0
M  V30 431 H 59.2854 7.92655 -6.402 0
M  V30 432 H 59.0954 6.26671 -8.0846 0
M  V30 433 H 57.4654 6.29101 -7.32804 0
M  V30 434 H 60.1044 5.84315 -2.47318 0
M  V30 435 P 61.962 7.39546 -4.75277 0
M  V30 436 O 63.363 7.86988 -5.07993 0
M  V30 437 O 61.584 5.99957 -5.13804 0
M  V30 438 O 61.639 7.57411 -3.18621 0
M  V30 439 C 61.479 8.97357 -2.74833 0
M  V30 440 C 62.019 9.0745 -1.32694 0
M  V30 441 O 60.963 8.61972 -0.606089 0
M  V30 442 C 63.236 8.25383 -0.938334 0
M  V30 443 O 63.975 8.74577 0.146954 0
M  V30 444 C 62.569 6.8802 -0.712559 0
M  V30 445 O 63.367 6.11791 0.194623 0
M  V30 446 C 61.231 7.27966 -0.139777 0
M  V30 447 N 60.188 6.39368 -0.623421 0
M  V30 448 C 59.153 6.08088 0.223886 0
M  V30 449 O 59.192 6.5102 1.39986 0
M  V30 450 N 58.141 5.30627 -0.224051 0
M  V30 451 C 58.189 4.82531 -1.47257 0
M  V30 452 N 57.179 4.07328 -1.89378 0
M  V30 453 C 59.285 5.09974 -2.34008 0
M  V30 454 C 60.251 5.89548 -1.87678 0
M  V30 455 H 61.263 7.25255 0.961469 0
M  V30 456 H 62.446 6.32625 -1.65044 0
M  V30 457 H 63.93 8.19631 -1.78299 0
M  V30 458 H 62.236 10.1305 -1.09016 0
M  V30 459 H 62.045 9.64276 -3.41316 0
M  V30 460 H 60.415 9.25321 -2.76328 0
M  V30 461 H 59.333 4.67832 -3.3413 0
M  V30 462 H 61.097 6.14434 -2.51991 0
M  V30 463 H 56.389 3.87329 -1.26296 0
M  V30 464 H 57.184 3.69014 -2.84741 0
M  V30 465 H 63.151 6.35931 1.08377 0
M  V30 466 P 64.9125 8.791 -3.55383e-14 0
M  V30 467 O 66.3335 9.31196 0.027936 0
M  V30 468 O 64.5525 7.77869 -1.04071 0
M  V30 469 O 64.5895 8.09533 1.41463 0
M  V30 470 C 64.4285 9.03587 2.5397 0
M  V30 471 C 64.9695 8.35226 3.79016 0
M  V30 472 O 63.9145 7.57904 4.1503 0
M  V30 473 C 66.1875 7.45087 3.67298 0
M  V30 474 O 66.9255 7.27796 4.85194 0
M  V30 475 C 65.5195 6.17323 3.12027 0
M  V30 476 O 66.3175 5.04496 3.46627 0
M  V30 477 C 64.1815 6.19961 3.81809 0
M  V30 478 N 63.1385 5.71575 2.93223 0
M  V30 479 C 63.3075 5.77362 1.59168 0
M  V30 480 N 62.2805 5.3123 0.911893 0
M  V30 481 C 61.3955 4.91717 1.89588 0
M  V30 482 C 60.1285 4.3114 1.8076 0
M  V30 483 N 59.5295 3.99821 0.632928 0
M  V30 484 N 59.5635 4.06823 3.02898 0
M  V30 485 C 60.1655 4.35062 4.22711 0
M  V30 486 N 61.3425 4.90805 4.35707 0
M  V30 487 C 61.9175 5.16382 3.14469 0
M  V30 488 H 64.2135 5.58142 4.72986 0
M  V30 489 H 65.3965 6.21428 2.0318 0
M  V30 490 H 66.8795 7.86112 2.9231 0
M  V30 491 H 65.1855 9.11171 4.55987 0
M  V30 492 H 64.9955 9.9573 2.34194 0
M  V30 493 H 63.3655 9.2792 2.67832 0
M  V30 494 H 59.6295 4.09052 5.13359 0
M  V30 495 H 64.2075 6.16575 1.12198 0
M  V30 496 H 58.5995 3.55423 0.632085 0
M  V30 497 H 60.0035 4.20317 -0.256712 0
M  V30 498 H 66.0055 4.67628 4.28704 0
M  V30 499 P 67.8631 7.39546 4.75277 0
M  V30 500 O 69.2851 7.81777 5.05738 0
M  V30 501 O 67.5031 7.1065 3.32998 0
M  V30 502 O 67.5401 6.04542 5.56673 0
M  V30 503 C 67.3801 6.22772 7.02095 0
M  V30 504 C 67.9201 4.97725 7.70406 0
M  V30 505 O 66.8641 4.13256 7.58987 0
M  V30 506 C 69.1381 4.28231 7.11815 0
M  V30 507 O 69.8761 3.49945 8.01648 0
M  V30 508 C 68.4691 3.5063 5.96244 0
M  V30 509 O 69.2681 2.36482 5.64681 0
M  V30 510 C 67.1321 3.15122 6.56374 0
M  V30 511 H 67.1641 2.13853 6.99751 0
M  V30 512 H 68.3471 4.13501 5.06559 0
M  V30 513 H 69.8311 5.03285 6.70911 0
M  V30 514 H 68.1371 5.20877 8.75697 0
M  V30 515 H 67.9471 7.11046 7.35349 0
M  V30 516 H 66.3171 6.35815 7.26986 0
M  V30 517 H 68.9561 1.61644 6.13565 0
M  V30 518 P 70.8137 3.65191 7.99657 0
M  V30 519 O 72.2357 3.8425 8.48115 0
M  V30 520 O 70.4537 4.17805 6.64342 0
M  V30 521 O 70.4907 2.07613 7.95143 0
M  V30 522 C 70.3307 1.44328 9.27336 0
M  V30 523 C 70.8707 0.0220036 9.17197 0
M  V30 524 O 69.8147 -0.626867 8.61923 0
M  V30 525 C 72.0887 -0.24586 8.30336 0
M  V30 526 O 72.8267 -1.39011 8.63583 0
M  V30 527 C 71.4197 -0.273849 6.91158 0
M  V30 528 O 72.2187 -1.06348 6.02892 0
M  V30 529 C 70.0827 -0.897649 7.22545 0
M  V30 530 H 70.1147 -1.9841 7.04286 0
M  V30 531 H 71.2977 0.739928 6.497 0
M  V30 532 H 72.7817 0.60668 8.36503 0
M  V30 533 H 71.0877 -0.352479 10.1829 0
M  V30 534 H 70.8977 2.00611 10.0304 0
M  V30 535 H 69.2677 1.41843 9.55327 0
M  V30 536 H 71.9067 -1.95734 6.03555 0
M  V30 537 P 73.7642 -1.25109 8.70152 0
M  V30 538 O 75.1862 -1.35303 9.21419 0
M  V30 539 O 73.4042 -0.0769065 7.84762 0
M  V30 540 O 73.4412 -2.55232 7.81161 0
M  V30 541 C 73.2812 -3.79939 8.58154 0
M  V30 542 C 73.8212 -4.93969 7.72701 0
M  V30 543 O 72.7662 -5.18726 6.91205 0
M  V30 544 C 75.0392 -4.69597 6.85231 0
M  V30 545 O 75.7772 -5.83832 6.51337 0
M  V30 546 C 74.3712 -3.96706 5.66633 0
M  V30 547 O 75.1692 -4.15346 4.49615 0
M  V30 548 C 73.0332 -4.66153 5.59313 0
M  V30 549 N 71.9902 -3.71582 5.24027 0
M  V30 550 C 72.0522 -2.46018 5.67902 0
M  V30 551 N 71.0072 -1.74868 5.24518 0
M  V30 552 C 70.2732 -2.61333 4.54528 0
M  V30 553 C 68.9672 -2.46162 3.95441 0
M  V30 554 O 68.2342 -1.46013 3.94122 0
M  V30 555 N 68.5372 -3.59334 3.34752 0
M  V30 556 C 69.2862 -4.79605 3.3023 0
M  V30 557 N 68.6892 -5.82109 2.6065 0
M  V30 558 N 70.4392 -4.97402 3.8843 0
M  V30 559 C 70.8962 -3.86258 4.50476 0
M  V30 560 H 73.0652 -5.47679 4.85214 0
M  V30 561 H 74.2482 -2.88964 5.86476 0
M  V30 562 H 75.7332 -4.01947 7.36109 0
M  V30 563 H 74.0382 -5.80182 8.37584 0
M  V30 564 H 73.8482 -3.73517 9.52265 0
M  V30 565 H 72.2172 -3.97163 8.80359 0
M  V30 566 H 67.6412 -3.5825 2.90294 0
M  V30 567 H 72.8482 -2.06161 6.30974 0
M  V30 568 H 67.7782 -5.66979 2.15354 0
M  V30 569 H 69.1542 -6.73686 2.54344 0
M  V30 570 H 74.8582 -4.90891 4.01857 0
M  V30 571 P 76.7148 -5.75688 6.64379 0
M  V30 572 O 78.1368 -6.11849 7.01846 0
M  V30 573 O 76.3548 -4.30744 6.56026 0
M  V30 574 O 76.3918 -6.37042 5.19165 0
M  V30 575 C 76.2318 -7.83578 5.16515 0
M  V30 576 C 76.7718 -8.33398 3.83019 0
M  V30 577 O 75.7158 -8.10074 3.01034 0
M  V30 578 C 77.9898 -7.65514 3.2257 0
M  V30 579 O 78.7278 -8.4329 2.32297 0
M  V30 580 C 77.3208 -6.40075 2.62207 0
M  V30 581 O 78.1198 -5.92589 1.53712 0
M  V30 582 C 75.9838 -6.9454 2.18503 0
M  V30 583 H 76.0158 -7.23063 1.12091 0
M  V30 584 H 77.1988 -5.6025 3.37201 0
M  V30 585 H 78.6828 -7.35707 4.02681 0
M  V30 586 H 76.9888 -9.40912 3.9095 0
M  V30 587 H 76.7988 -8.29056 5.99158 0
M  V30 588 H 75.1688 -8.10073 5.25882 0
M  V30 589 H 77.8078 -6.30324 0.726794 0
M  V30 590 P 79.6654 -8.4349 2.47671 0
M  V30 591 O 81.0864 -8.94263 2.59668 0
M  V30 592 O 79.3054 -7.1704 3.19006 0
M  V30 593 O 79.3424 -8.16596 0.923387 0
M  V30 594 C 79.1814 -9.38537 0.108869 0
M  V30 595 C 79.7224 -9.08175 -1.28353 0
M  V30 596 O 78.6674 -8.44131 -1.84692 0
M  V30 597 C 80.9404 -8.18386 -1.42505 0
M  V30 598 O 81.6784 -8.3501 -2.60497 0
M  V30 599 C 80.2724 -6.80225 -1.25468 0
M  V30 600 O 81.0704 -5.81716 -1.90454 0
M  V30 601 C 78.9344 -7.02416 -1.9168 0
M  V30 602 N 77.8914 -6.31033 -1.20314 0
M  V30 603 C 78.0604 -5.98817 0.0994088 0
M  V30 604 N 77.0334 -5.35403 0.621694 0
M  V30 605 C 76.1484 -5.25212 -0.43376 0
M  V30 606 C 74.8814 -4.64602 -0.519722 0
M  V30 607 N 74.3164 -4.7568 -1.76013 0
M  V30 608 C 74.9184 -5.3653 -2.83017 0
M  V30 609 N 76.0954 -5.93676 -2.79782 0
M  V30 610 C 76.6704 -5.84061 -1.56249 0
M  V30 611 H 80.1494 -6.53498 -0.198729 0
M  V30 612 H 81.6324 -8.36622 -0.589963 0
M  V30 613 H 79.9384 -10.0273 -1.8081 0
M  V30 614 H 79.7484 -10.2138 0.558219 0
M  V30 615 H 78.1184 -9.6579 0.0444202 0
M  V30 616 H 78.9604 -6.23209 0.660562 0
M  V30 617 H 80.7584 -5.69466 -2.79593 0
M  V30 618 P 82.616 -8.4349 -2.47671 0
M  V30 619 O 84.038 -8.92593 -2.65 0
M  V30 620 O 82.256 -7.7568 -1.19296 0
M  V30 621 O 82.293 -7.36886 -3.63805 0
M  V30 622 C 82.133 -7.95349 -4.982 0
M  V30 623 C 82.673 -6.94612 -5.98974 0
M  V30 624 O 81.617 -6.10347 -6.11815 0
M  V30 625 C 83.891 -6.11426 -5.62335 0
M  V30 626 O 84.629 -5.6162 -6.70584 0
M  V30 627 C 83.222 -5.04409 -4.73308 0
M  V30 628 O 84.021 -3.85992 -4.75183 0
M  V30 629 C 81.885 -4.8728 -5.41006 0
M  V30 630 H 81.917 -4.02333 -6.11157 0
M  V30 631 H 83.1 -5.39466 -3.69543 0
M  V30 632 H 84.584 -6.71916 -5.01943 0
M  V30 633 H 82.89 -7.4649 -6.93477 0
M  V30 634 H 82.7 -8.89416 -5.05237 0
M  V30 635 H 81.07 -8.14876 -5.18409 0
M  V30 636 H 83.709 -3.27957 -5.4317 0
M  V30 637 P 85.5665 -5.75688 -6.64379 0
M  V30 638 O 86.9885 -6.07627 -7.05504 0
M  V30 639 O 85.2065 -5.88047 -5.19722 0
M  V30 640 O 85.2435 -4.2322 -7.04443 0
M  V30 641 C 85.0835 -3.99743 -8.4911 0
M  V30 642 C 85.6235 -2.60516 -8.79425 0
M  V30 643 O 84.5675 -1.82684 -8.4467 0
M  V30 644 C 86.8415 -2.10343 -8.03628 0
M  V30 645 O 87.5795 -1.09919 -8.67766 0
M  V30 646 C 86.1725 -1.68446 -6.70876 0
M  V30 647 O 86.9715 -0.678137 -6.08433 0
M  V30 648 C 84.8355 -1.17436 -7.18567 0
M  V30 649 H 84.8675 -0.0804732 -7.31656 0
M  V30 650 H 86.0505 -2.54037 -6.02537 0
M  V30 651 H 87.5345 -2.93881 -7.85526 0
M  V30 652 H 85.8405 -2.53065 -9.86973 0
M  V30 653 H 85.6505 -4.75072 -9.05887 0
M  V30 654 H 84.0205 -4.05244 -8.76668 0
M  V30 655 H 86.6595 0.177647 -6.34251 0
M  V30 656 P 88.5171 -1.25109 -8.70152 0
M  V30 657 O 89.9391 -1.29744 -9.22016 0
M  V30 658 O 88.1571 -2.13714 -7.55141 0
M  V30 659 O 88.1941 0.248149 -8.21425 0
M  V30 660 C 88.0341 1.22779 -9.30434 0
M  V30 661 C 88.5741 2.56293 -8.80664 0
M  V30 662 O 87.5181 3.02979 -8.09349 0
M  V30 663 C 89.7921 2.57523 -7.89775 0
M  V30 664 O 90.5301 3.7668 -7.89438 0
M  V30 665 C 89.1231 2.20997 -6.55446 0
M  V30 666 O 89.9221 2.71895 -5.48509 0
M  V30 667 C 87.7861 2.89693 -6.67988 0
M  V30 668 H 87.8181 3.88793 -6.19859 0
M  V30 669 H 89.0011 1.12046 -6.44229 0
M  V30 670 H 90.4851 1.7746 -8.19711 0
M  V30 671 H 88.7911 3.20706 -9.67112 0
M  V30 672 H 88.6011 0.901032 -10.1892 0
M  V30 673 H 86.9711 1.33049 -9.56592 0
M  V30 674 H 89.6101 3.57847 -5.23962 0
M  V30 675 P 91.4677 3.65191 -7.99657 0
M  V30 676 O 92.8897 3.89332 -8.45794 0
M  V30 677 O 91.1077 2.28472 -7.50807 0
M  V30 678 O 91.1447 4.64972 -6.77611 0
M  V30 679 C 90.9847 6.06319 -7.16352 0
M  V30 680 C 91.5247 6.91731 -6.02299 0
M  V30 681 O 90.4687 6.92449 -5.17064 0
M  V30 682 C 92.7427 6.43627 -5.25174 0
M  V30 683 O 93.4807 7.43686 -4.60469 0
M  V30 684 C 92.0737 5.40275 -4.31916 0
M  V30 685 O 92.8727 5.25279 -3.14438 0
M  V30 686 C 90.7367 6.04847 -4.05327 0
M  V30 687 H 90.7687 6.62195 -3.11261 0
M  V30 688 H 91.9517 4.42556 -4.81383 0
M  V30 689 H 93.4357 5.92458 -5.93643 0
M  V30 690 H 91.7417 7.92655 -6.402 0
M  V30 691 H 91.5517 6.26671 -8.0846 0
M  V30 692 H 89.9217 6.29101 -7.32804 0
M  V30 693 H 92.5607 5.84315 -2.47318 0
M  V30 694 P 94.4182 7.39546 -4.75277 0
M  V30 695 O 95.8402 7.84798 -5.01039 0
M  V30 696 O 94.0582 5.9812 -5.08098 0
M  V30 697 O 94.0952 7.57503 -3.1866 0
M  V30 698 C 93.9352 8.97357 -2.74833 0
M  V30 699 C 94.4752 9.07548 -1.32709 0
M  V30 700 O 93.4192 8.62072 -0.606159 0
M  V30 701 C 95.6932 8.25383 -0.938334 0
M  V30 702 O 96.4312 8.74577 0.146954 0
M  V30 703 C 95.0242 6.8802 -0.712559 0
M  V30 704 O 95.8232 6.1189 0.194655 0
M  V30 705 C 93.6872 7.27966 -0.139777 0
M  V30 706 H 93.7192 7.25354 0.961601 0
M  V30 707 H 94.9022 6.32557 -1.65702 0
M  V30 708 H 96.3862 8.19355 -1.79097 0
M  V30 709 H 94.6922 10.1294 -1.10029 0
M  V30 710 H 94.5022 9.64276 -3.41316 0
M  V30 711 H 92.8722 9.25417 -2.76357 0
M  V30 712 H 95.5112 6.25267 1.07847 0
M  V30 713 P 97.3688 8.791 -6.89233e-14 0
M  V30 714 O 98.7908 9.31096 0.027933 0
M  V30 715 O 97.0088 7.77869 -1.04071 0
M  V30 716 O 97.0458 8.09533 1.41463 0
M  V30 717 C 96.8858 9.0349 2.53943 0
M  V30 718 C 97.4258 8.35226 3.79016 0
M  V30 719 O 96.3698 7.57992 4.15078 0
M  V30 720 C 98.6438 7.45087 3.67298 0
M  V30 721 O 99.3818 7.27796 4.85194 0
M  V30 722 C 97.9748 6.17323 3.12027 0
M  V30 723 O 98.7738 5.04231 3.47188 0
M  V30 724 C 96.6378 6.19961 3.81809 0
M  V30 725 H 96.6698 5.58218 4.73051 0
M  V30 726 H 97.8528 6.21726 2.02589 0
M  V30 727 H 99.3368 7.86112 2.9231 0
M  V30 728 H 97.6428 9.11627 4.55076 0
M  V30 729 H 97.4528 9.9573 2.34194 0
M  V30 730 H 95.8228 9.2792 2.67832 0
M  V30 731 H 98.4618 4.67702 4.28772 0
M  V30 732 P 100.319 7.39546 4.75277 0
M  V30 733 O 101.741 7.81777 5.05738 0
M  V30 734 O 99.9594 7.1065 3.32998 0
M  V30 735 O 99.9964 6.04542 5.56673 0
M  V30 736 C 99.8364 6.22772 7.02095 0
M  V30 737 C 100.376 4.97725 7.70406 0
M  V30 738 O 99.3204 4.13256 7.58987 0
M  V30 739 C 101.594 4.28231 7.11815 0
M  V30 740 O 102.332 3.49945 8.01648 0
M  V30 741 C 100.925 3.5063 5.96244 0
M  V30 742 O 101.724 2.36482 5.64681 0
M  V30 743 C 99.5884 3.15122 6.56374 0
M  V30 744 H 99.6204 2.13853 6.99751 0
M  V30 745 H 100.803 4.13501 5.06559 0
M  V30 746 H 102.287 5.03285 6.70911 0
M  V30 747 H 100.593 5.20877 8.75697 0
M  V30 748 H 100.403 7.11046 7.35349 0
M  V30 749 H 98.7734 6.35815 7.26986 0
M  V30 750 H 101.412 1.61644 6.13565 0
M  V30 751 P 103.27 3.65191 7.99657 0
M  V30 752 O 104.692 3.84333 8.48297 0
M  V30 753 O 102.91 4.17805 6.64342 0
M  V30 754 O 102.947 2.07613 7.95143 0
M  V30 755 C 102.787 1.44328 9.27336 0
M  V30 756 C 103.327 0.0220012 9.17097 0
M  V30 757 O 102.272 -0.626867 8.61923 0
M  V30 758 C 104.545 -0.24586 8.30336 0
M  V30 759 O 105.283 -1.39011 8.63583 0
M  V30 760 C 103.877 -0.273849 6.91158 0
M  V30 761 O 104.675 -1.06331 6.02794 0
M  V30 762 C 102.539 -0.897649 7.22545 0
M  V30 763 N 101.496 -0.292839 6.41732 0
M  V30 764 C 101.558 1.00068 6.10757 0
M  V30 765 N 100.513 1.36468 5.35794 0
M  V30 766 C 99.7789 0.258894 5.2366 0
M  V30 767 C 98.4729 0.0670682 4.65752 0
M  V30 768 O 97.7399 0.902443 4.10497 0
M  V30 769 N 98.0429 -1.2131 4.75881 0
M  V30 770 C 98.7919 -2.24934 5.37101 0
M  V30 771 N 98.1949 -3.48783 5.33984 0
M  V30 772 N 99.9449 -2.0844 5.95684 0
M  V30 773 C 100.402 -0.81395 5.87791 0
M  V30 774 H 102.571 -1.9841 7.04286 0
M  V30 775 H 103.754 0.739815 6.49601 0
M  V30 776 H 105.239 0.598315 8.36563 0
M  V30 777 H 103.544 -0.352479 10.1829 0
M  V30 778 H 103.354 2.00611 10.0304 0
M  V30 779 H 101.723 1.41843 9.55327 0
M  V30 780 H 97.1469 -1.44434 4.37895 0
M  V30 781 H 102.354 1.67697 6.42268 0
M  V30 782 H 97.2839 -3.60543 4.87699 0
M  V30 783 H 98.6599 -4.29232 5.7819 0
M  V30 784 H 104.364 -1.95704 6.0346 0
M  V30 785 P 106.221 -1.25109 8.70152 0
M  V30 786 O 107.643 -1.35274 9.21221 0
M  V30 787 O 105.861 -0.0769065 7.84762 0
M  V30 788 O 105.898 -2.55232 7.81161 0
M  V30 789 C 105.738 -3.79939 8.58154 0
M  V30 790 C 106.278 -4.94023 7.72785 0
M  V30 791 O 105.222 -5.18726 6.91205 0
M  V30 792 C 107.496 -4.69597 6.85231 0
M  V30 793 O 108.234 -5.83832 6.51337 0
M  V30 794 C 106.827 -3.96706 5.66633 0
M  V30 795 O 107.626 -4.15414 4.49689 0
M  V30 796 C 105.49 -4.66153 5.59313 0
M  V30 797 H 105.522 -5.47679 4.85214 0
M  V30 798 H 106.705 -2.89008 5.86566 0
M  V30 799 H 108.189 -4.0121 7.36511 0
M  V30 800 H 106.495 -5.80182 8.37584 0
M  V30 801 H 106.305 -3.73517 9.52265 0
M  V30 802 H 104.675 -3.97163 8.80359 0
M  V30 803 H 107.314 -4.90969 4.01921 0
M  V30 804 P 109.171 -5.75688 6.64379 0
M  V30 805 O 110.593 -6.11849 7.01846 0
M  V30 806 O 108.811 -4.30744 6.56026 0
M  V30 807 O 108.848 -6.37042 5.19165 0
M  V30 808 C 108.688 -7.83578 5.16515 0
M  V30 809 C 109.228 -8.33398 3.83019 0
M  V30 810 O 108.172 -8.10074 3.01034 0
M  V30 811 C 110.446 -7.65514 3.2257 0
M  V30 812 O 111.184 -8.4329 2.32297 0
M  V30 813 C 109.777 -6.40075 2.62207 0
M  V30 814 O 110.576 -5.92589 1.53712 0
M  V30 815 C 108.44 -6.9454 2.18503 0
M  V30 816 H 108.472 -7.23063 1.12091 0
M  V30 817 H 109.655 -5.6025 3.37201 0
M  V30 818 H 111.139 -7.35707 4.02681 0
M  V30 819 H 109.445 -9.40912 3.9095 0
M  V30 820 H 109.255 -8.29056 5.99158 0
M  V30 821 H 107.625 -8.10073 5.25882 0
M  V30 822 H 110.264 -6.30324 0.726794 0
M  V30 823 P 112.122 -8.4349 2.47671 0
M  V30 824 O 113.544 -8.94167 2.5964 0
M  V30 825 O 111.762 -7.1704 3.19006 0
M  V30 826 O 111.799 -8.16596 0.923387 0
M  V30 827 C 111.639 -9.38437 0.108857 0
M  V30 828 C 112.179 -9.08175 -1.28353 0
M  V30 829 O 111.123 -8.44229 -1.84713 0
M  V30 830 C 113.397 -8.18386 -1.42505 0
M  V30 831 O 114.135 -8.3501 -2.60497 0
M  V30 832 C 112.728 -6.80225 -1.25468 0
M  V30 833 O 113.527 -5.81621 -1.91066 0
M  V30 834 C 111.391 -7.02416 -1.9168 0
M  V30 835 H 111.423 -6.6888 -2.96621 0
M  V30 836 H 112.606 -6.53617 -0.192223 0
M  V30 837 H 114.09 -8.36622 -0.589963 0
M  V30 838 H 112.396 -10.0291 -1.79807 0
M  V30 839 H 112.206 -10.2138 0.558219 0
M  V30 840 H 110.576 -9.6579 0.0444202 0
M  V30 841 H 113.215 -5.69556 -2.79637 0
M  V30 842 P 115.072 -8.4349 -2.47671 0
M  V30 843 O 116.494 -8.92593 -2.65 0
M  V30 844 O 114.712 -7.7568 -1.19296 0
M  V30 845 O 114.749 -7.36886 -3.63805 0
M  V30 846 C 114.589 -7.95349 -4.982 0
M  V30 847 C 115.129 -6.94612 -5.98974 0
M  V30 848 O 114.073 -6.10347 -6.11815 0
M  V30 849 C 116.347 -6.11426 -5.62335 0
M  V30 850 O 117.085 -5.6162 -6.70584 0
M  V30 851 C 115.678 -5.04409 -4.73308 0
M  V30 852 O 116.477 -3.85992 -4.75183 0
M  V30 853 C 114.341 -4.8728 -5.41006 0
M  V30 854 H 114.373 -4.02333 -6.11157 0
M  V30 855 H 115.556 -5.39466 -3.69543 0
M  V30 856 H 117.04 -6.71916 -5.01943 0
M  V30 857 H 115.346 -7.4649 -6.93477 0
M  V30 858 H 115.156 -8.89416 -5.05237 0
M  V30 859 H 113.526 -8.14876 -5.18409 0
M  V30 860 H 116.165 -3.27957 -5.4317 0
M  V30 861 P 118.023 -5.75688 -6.64379 0
M  V30 862 O 119.445 -6.07627 -7.05504 0
M  V30 863 O 117.663 -5.88047 -5.19722 0
M  V30 864 O 117.7 -4.2322 -7.04443 0
M  V30 865 C 117.54 -3.99743 -8.4911 0
M  V30 866 C 118.08 -2.60516 -8.79425 0
M  V30 867 O 117.024 -1.82684 -8.4467 0
M  V30 868 C 119.298 -2.10343 -8.03628 0
M  V30 869 O 120.036 -1.09919 -8.67766 0
M  V30 870 C 118.629 -1.68446 -6.70876 0
M  V30 871 O 119.428 -0.678137 -6.08433 0
M  V30 872 C 117.292 -1.17436 -7.18567 0
M  V30 873 H 117.324 -0.0804732 -7.31656 0
M  V30 874 H 118.507 -2.54037 -6.02537 0
M  V30 875 H 119.991 -2.93881 -7.85526 0
M  V30 876 H 118.297 -2.53065 -9.86973 0
M  V30 877 H 118.107 -4.75072 -9.05887 0
M  V30 878 H 116.477 -4.05244 -8.76668 0
M  V30 879 H 119.116 0.177647 -6.34251 0
M  V30 880 P 120.973 -1.25109 -8.70152 0
M  V30 881 O 122.395 -1.29744 -9.22016 0
M  V30 882 O 120.613 -2.13714 -7.55141 0
M  V30 883 O 120.65 0.248149 -8.21425 0
M  V30 884 C 120.49 1.22779 -9.30434 0
M  V30 885 C 121.03 2.56293 -8.80664 0
M  V30 886 O 119.974 3.02979 -8.09349 0
M  V30 887 C 122.248 2.57523 -7.89775 0
M  V30 888 O 122.986 3.7668 -7.89438 0
M  V30 889 C 121.579 2.20997 -6.55446 0
M  V30 890 O 122.378 2.71895 -5.48509 0
M  V30 891 C 120.242 2.89693 -6.67988 0
M  V30 892 H 120.274 3.88793 -6.19859 0
M  V30 893 H 121.457 1.12046 -6.44229 0
M  V30 894 H 122.941 1.7746 -8.19711 0
M  V30 895 H 121.247 3.20706 -9.67112 0
M  V30 896 H 121.057 0.901032 -10.1892 0
M  V30 897 H 119.427 1.33049 -9.56592 0
M  V30 898 H 122.066 3.57847 -5.23962 0
M  V30 899 P 123.924 3.65191 -7.99657 0
M  V30 900 O 125.345 3.89374 -8.45885 0
M  V30 901 O 123.564 2.28472 -7.50807 0
M  V30 902 O 123.601 4.64972 -6.77611 0
M  V30 903 C 123.44 6.06383 -7.16428 0
M  V30 904 C 123.981 6.91731 -6.02299 0
M  V30 905 O 122.926 6.92369 -5.17005 0
M  V30 906 C 125.199 6.43627 -5.25174 0
M  V30 907 O 125.937 7.43686 -4.60469 0
M  V30 908 C 124.531 5.40275 -4.31916 0
M  V30 909 O 125.329 5.24878 -3.14911 0
M  V30 910 C 123.193 6.04847 -4.05327 0
M  V30 911 N 122.15 5.04166 -3.98114 0
M  V30 912 C 122.319 3.84629 -4.59066 0
M  V30 913 N 121.292 3.0363 -4.45343 0
M  V30 914 C 120.407 3.76722 -3.68523 0
M  V30 915 C 119.14 3.43528 -3.17088 0
M  V30 916 N 118.575 4.44526 -2.44231 0
M  V30 917 C 119.177 5.65243 -2.20146 0
M  V30 918 N 120.354 6.00221 -2.65453 0
M  V30 919 C 120.929 5.00564 -3.39083 0
M  V30 920 H 124.408 4.42969 -4.80867 0
M  V30 921 H 125.891 5.92458 -5.93643 0
M  V30 922 H 124.197 7.93295 -6.39407 0
M  V30 923 H 124.007 6.26671 -8.0846 0
M  V30 924 H 122.377 6.29101 -7.32804 0
M  V30 925 H 123.219 3.58193 -5.14248 0
M  V30 926 H 125.017 5.84223 -2.47279 0
M  V30 927 P 126.875 7.39546 -4.75277 0
M  V30 928 O 128.297 7.84798 -5.01039 0
M  V30 929 O 126.515 5.9812 -5.08098 0
M  V30 930 O 126.552 7.57503 -3.1866 0
M  V30 931 C 126.392 8.97357 -2.74833 0
M  V30 932 C 126.932 9.07548 -1.32709 0
M  V30 933 O 125.876 8.62072 -0.606159 0
M  V30 934 C 128.15 8.25383 -0.938334 0
M  V30 935 O 128.888 8.74577 0.146954 0
M  V30 936 C 127.481 6.8802 -0.712559 0
M  V30 937 O 128.28 6.1189 0.194655 0
M  V30 938 C 126.144 7.27966 -0.139777 0
M  V30 939 H 126.176 7.25354 0.961601 0
M  V30 940 H 127.359 6.32557 -1.65702 0
M  V30 941 H 128.843 8.19355 -1.79097 0
M  V30 942 H 127.149 10.1294 -1.10029 0
M  V30 943 H 126.959 9.64276 -3.41316 0
M  V30 944 H 125.329 9.25417 -2.76357 0
M  V30 945 H 127.968 6.25267 1.07847 0
M  V30 946 P 129.825 8.791 -1.02308e-13 0
M  V30 947 O 131.246 9.31196 0.027936 0
M  V30 948 O 129.465 7.77869 -1.04071 0
M  V30 949 O 129.502 8.09533 1.41463 0
M  V30 950 C 129.341 9.03587 2.5397 0
M  V30 951 C 129.882 8.35226 3.79016 0
M  V30 952 O 128.827 7.57904 4.1503 0
M  V30 953 C 131.1 7.45087 3.67298 0
M  V30 954 O 131.838 7.27796 4.85194 0
M  V30 955 C 130.432 6.17323 3.12027 0
M  V30 956 O 131.23 5.04496 3.46627 0
M  V30 957 C 129.094 6.19961 3.81809 0
M  V30 958 N 128.051 5.71575 2.93223 0
M  V30 959 C 128.22 5.77362 1.59168 0
M  V30 960 N 127.193 5.3123 0.911893 0
M  V30 961 C 126.308 4.91717 1.89588 0
M  V30 962 C 125.041 4.3114 1.8076 0
M  V30 963 N 124.476 4.06823 3.02898 0
M  V30 964 C 125.078 4.35062 4.22711 0
M  V30 965 N 126.255 4.90805 4.35707 0
M  V30 966 C 126.83 5.16382 3.14469 0
M  V30 967 H 130.309 6.21428 2.0318 0
M  V30 968 H 131.792 7.86112 2.9231 0
M  V30 969 H 130.098 9.11171 4.55987 0
M  V30 970 H 129.908 9.9573 2.34194 0
M  V30 971 H 128.278 9.2792 2.67832 0
M  V30 972 H 129.12 6.16575 1.12198 0
M  V30 973 H 130.918 4.67628 4.28704 0
M  V30 974 P 132.776 7.39546 4.75277 0
M  V30 975 O 134.197 7.81861 5.05793 0
M  V30 976 O 132.416 7.1065 3.32998 0
M  V30 977 O 132.453 6.04542 5.56673 0
M  V30 978 C 132.292 6.22839 7.02169 0
M  V30 979 C 132.833 4.97725 7.70406 0
M  V30 980 O 131.778 4.13208 7.58899 0
M  V30 981 C 134.051 4.28231 7.11815 0
M  V30 982 O 134.789 3.49945 8.01648 0
M  V30 983 C 133.383 3.5063 5.96244 0
M  V30 984 O 134.181 2.37008 5.64352 0
M  V30 985 C 132.045 3.15122 6.56374 0
M  V30 986 N 131.002 3.22311 5.55692 0
M  V30 987 C 131.171 3.99655 4.46046 0
M  V30 988 N 130.144 3.97599 3.63918 0
M  V30 989 C 129.259 3.11159 4.25334 0
M  V30 990 C 127.992 2.64972 3.85157 0
M  V30 991 N 127.427 1.78482 4.74759 0
M  V30 992 C 128.029 1.37463 5.90819 0
M  V30 993 N 129.206 1.7733 6.31889 0
M  V30 994 C 129.781 2.64393 5.43725 0
M  V30 995 H 133.26 4.12931 5.06895 0
M  V30 996 H 134.743 5.03285 6.70911 0
M  V30 997 H 133.049 5.20001 8.76217 0
M  V30 998 H 132.859 7.11046 7.35349 0
M  V30 999 H 131.229 6.35815 7.26986 0
M  V30 1000 H 132.071 4.58037 4.27732 0
M  V30 1001 H 133.869 1.61619 6.13468 0
M  V30 1002 P 135.726 3.65191 7.99657 0
M  V30 1003 O 137.148 3.8425 8.48115 0
M  V30 1004 O 135.366 4.17805 6.64342 0
M  V30 1005 O 135.403 2.07613 7.95143 0
M  V30 1006 C 135.243 1.44328 9.27336 0
M  V30 1007 C 135.783 0.0220036 9.17197 0
M  V30 1008 O 134.727 -0.626867 8.61923 0
M  V30 1009 C 137.001 -0.24586 8.30336 0
M  V30 1010 O 137.739 -1.39011 8.63583 0
M  V30 1011 C 136.332 -0.273849 6.91158 0
M  V30 1012 O 137.131 -1.06348 6.02892 0
M  V30 1013 C 134.995 -0.897649 7.22545 0
M  V30 1014 H 135.027 -1.9841 7.04286 0
M  V30 1015 H 136.21 0.739928 6.497 0
M  V30 1016 H 137.694 0.60668 8.36503 0
M  V30 1017 H 136 -0.352479 10.1829 0
M  V30 1018 H 135.81 2.00611 10.0304 0
M  V30 1019 H 134.18 1.41843 9.55327 0
M  V30 1020 H 136.819 -1.95734 6.03555 0
M  V30 1021 P 138.677 -1.25109 8.70152 0
M  V30 1022 O 140.099 -1.35303 9.21419 0
M  V30 1023 O 138.317 -0.0769065 7.84762 0
M  V30 1024 O 138.354 -2.55232 7.81161 0
M  V30 1025 C 138.194 -3.79939 8.58154 0
M  V30 1026 C 138.734 -4.93969 7.72701 0
M  V30 1027 O 137.679 -5.18726 6.91205 0
M  V30 1028 C 139.952 -4.69597 6.85231 0
M  V30 1029 O 140.69 -5.83832 6.51337 0
M  V30 1030 C 139.284 -3.96706 5.66633 0
M  V30 1031 O 140.082 -4.15346 4.49615 0
M  V30 1032 C 137.946 -4.66153 5.59313 0
M  V30 1033 N 136.903 -3.71582 5.24027 0
M  V30 1034 C 136.965 -2.46018 5.67902 0
M  V30 1035 N 135.92 -1.74868 5.24518 0
M  V30 1036 C 135.186 -2.61333 4.54528 0
M  V30 1037 C 133.88 -2.46162 3.95441 0
M  V30 1038 O 133.147 -1.46013 3.94122 0
M  V30 1039 N 133.45 -3.59334 3.34752 0
M  V30 1040 C 134.199 -4.79605 3.3023 0
M  V30 1041 N 133.602 -5.82109 2.6065 0
M  V30 1042 N 135.352 -4.97402 3.8843 0
M  V30 1043 C 135.809 -3.86258 4.50476 0
M  V30 1044 H 137.978 -5.47679 4.85214 0
M  V30 1045 H 139.161 -2.88964 5.86476 0
M  V30 1046 H 140.646 -4.01947 7.36109 0
M  V30 1047 H 138.951 -5.80182 8.37584 0
M  V30 1048 H 138.761 -3.73517 9.52265 0
M  V30 1049 H 137.13 -3.97163 8.80359 0
M  V30 1050 H 132.554 -3.5825 2.90294 0
M  V30 1051 H 137.761 -2.06161 6.30974 0
M  V30 1052 H 132.691 -5.66979 2.15354 0
M  V30 1053 H 134.067 -6.73686 2.54344 0
M  V30 1054 H 139.771 -4.90891 4.01857 0
M  V30 1055 P 141.627 -5.75688 6.64379 0
M  V30 1056 O 143.049 -6.11849 7.01846 0
M  V30 1057 O 141.267 -4.30744 6.56026 0
M  V30 1058 O 141.304 -6.37042 5.19165 0
M  V30 1059 C 141.144 -7.83578 5.16515 0
M  V30 1060 C 141.684 -8.33398 3.83019 0
M  V30 1061 O 140.628 -8.10074 3.01034 0
M  V30 1062 C 142.902 -7.65514 3.2257 0
M  V30 1063 O 143.64 -8.4329 2.32297 0
M  V30 1064 C 142.233 -6.40075 2.62207 0
M  V30 1065 O 143.032 -5.92589 1.53712 0
M  V30 1066 C 140.896 -6.9454 2.18503 0
M  V30 1067 H 140.928 -7.23063 1.12091 0
M  V30 1068 H 142.111 -5.6025 3.37201 0
M  V30 1069 H 143.595 -7.35707 4.02681 0
M  V30 1070 H 141.901 -9.40912 3.9095 0
M  V30 1071 H 141.711 -8.29056 5.99158 0
M  V30 1072 H 140.081 -8.10073 5.25882 0
M  V30 1073 H 142.72 -6.30324 0.726794 0
M  V30 1074 P 144.578 -8.4349 2.47671 0
M  V30 1075 O 146 -8.94167 2.5964 0
M  V30 1076 O 144.218 -7.1704 3.19006 0
M  V30 1077 O 144.255 -8.16596 0.923387 0
M  V30 1078 C 144.095 -9.38437 0.108857 0
M  V30 1079 C 144.635 -9.08175 -1.28353 0
M  V30 1080 O 143.579 -8.44229 -1.84713 0
M  V30 1081 C 145.853 -8.18386 -1.42505 0
M  V30 1082 O 146.591 -8.3501 -2.60497 0
M  V30 1083 C 145.184 -6.80225 -1.25468 0
M  V30 1084 O 145.983 -5.81621 -1.91066 0
M  V30 1085 C 143.847 -7.02416 -1.9168 0
M  V30 1086 H 143.879 -6.6888 -2.96621 0
M  V30 1087 H 145.062 -6.53617 -0.192223 0
M  V30 1088 H 146.546 -8.36622 -0.589963 0
M  V30 1089 H 144.852 -10.0291 -1.79807 0
M  V30 1090 H 144.662 -10.2138 0.558219 0
M  V30 1091 H 143.032 -9.6579 0.0444202 0
M  V30 1092 H 145.671 -5.69556 -2.79637 0
M  V30 1093 P 147.528 -8.4349 -2.47671 0
M  V30 1094 O 148.929 -8.99283 -2.62101 0
M  V30 1095 O 147.15 -7.81195 -1.16947 0
M  V30 1096 O 147.205 -7.36797 -3.63761 0
M  V30 1097 C 147.045 -7.95349 -4.982 0
M  V30 1098 C 147.585 -6.94537 -5.98908 0
M  V30 1099 O 146.529 -6.10277 -6.11744 0
M  V30 1100 C 148.802 -6.11426 -5.62335 0
M  V30 1101 O 149.541 -5.6162 -6.70584 0
M  V30 1102 C 148.135 -5.04409 -4.73308 0
M  V30 1103 O 148.933 -3.85929 -4.75106 0
M  V30 1104 C 146.797 -4.8728 -5.41006 0
M  V30 1105 N 145.754 -4.65812 -4.42377 0
M  V30 1106 C 144.719 -3.81293 -4.74224 0
M  V30 1107 O 144.758 -3.20533 -5.83679 0
M  V30 1108 N 143.707 -3.6442 -3.86349 0
M  V30 1109 C 143.755 -4.2728 -2.6824 0
M  V30 1110 C 144.851 -5.10813 -2.3217 0
M  V30 1111 C 145.817 -5.27909 -3.22647 0
M  V30 1112 H 146.829 -4.02278 -6.11074 0
M  V30 1113 H 148.012 -5.39013 -3.70026 0
M  V30 1114 H 149.496 -6.71494 -5.02675 0
M  V30 1115 H 147.802 -7.45796 -6.94223 0
M  V30 1116 H 147.611 -8.89416 -5.05237 0
M  V30 1117 H 145.981 -8.14791 -5.18355 0
M  V30 1118 H 144.899 -5.58884 -1.34755 0
M  V30 1119 H 146.663 -5.92811 -2.9934 0
M  V30 1120 H 148.717 -3.3454 -5.51577 0
M  V30 1121 P 150.479 -5.75688 -6.64379 0
M  V30 1122 O 151.901 -6.07627 -7.05504 0
M  V30 1123 O 150.119 -5.88047 -5.19722 0
M  V30 1124 O 150.156 -4.2322 -7.04443 0
M  V30 1125 C 149.996 -3.99743 -8.4911 0
M  V30 1126 C 150.536 -2.60516 -8.79425 0
M  V30 1127 O 149.48 -1.82684 -8.4467 0
M  V30 1128 C 151.754 -2.10343 -8.03628 0
M  V30 1129 O 152.492 -1.09919 -8.67766 0
M  V30 1130 C 151.085 -1.68446 -6.70876 0
M  V30 1131 O 151.884 -0.678137 -6.08433 0
M  V30 1132 C 149.748 -1.17436 -7.18567 0
M  V30 1133 H 149.78 -0.0804732 -7.31656 0
M  V30 1134 H 150.963 -2.54037 -6.02537 0
M  V30 1135 H 152.447 -2.93881 -7.85526 0
M  V30 1136 H 150.753 -2.53065 -9.86973 0
M  V30 1137 H 150.563 -4.75072 -9.05887 0
M  V30 1138 H 148.933 -4.05244 -8.76668 0
M  V30 1139 H 151.572 0.177647 -6.34251 0
M  V30 1140 P 153.43 -1.25109 -8.70152 0
M  V30 1141 O 154.852 -1.29744 -9.22016 0
M  V30 1142 O 153.07 -2.13714 -7.55141 0
M  V30 1143 O 153.107 0.248149 -8.21425 0
M  V30 1144 C 152.947 1.22779 -9.30434 0
M  V30 1145 C 153.487 2.56293 -8.80664 0
M  V30 1146 O 152.431 3.02979 -8.09349 0
M  V30 1147 C 154.705 2.57523 -7.89775 0
M  V30 1148 O 155.443 3.7668 -7.89438 0
M  V30 1149 C 154.036 2.20997 -6.55446 0
M  V30 1150 O 154.835 2.71895 -5.48509 0
M  V30 1151 C 152.699 2.89693 -6.67988 0
M  V30 1152 H 152.731 3.88793 -6.19859 0
M  V30 1153 H 153.914 1.12046 -6.44229 0
M  V30 1154 H 155.398 1.7746 -8.19711 0
M  V30 1155 H 153.704 3.20706 -9.67112 0
M  V30 1156 H 153.514 0.901032 -10.1892 0
M  V30 1157 H 151.884 1.33049 -9.56592 0
M  V30 1158 H 154.523 3.57847 -5.23962 0
M  V30 1159 P 156.38 3.65191 -7.99657 0
M  V30 1160 O 157.802 3.89332 -8.45794 0
M  V30 1161 O 156.02 2.28472 -7.50807 0
M  V30 1162 O 156.057 4.64972 -6.77611 0
M  V30 1163 C 155.897 6.06319 -7.16352 0
M  V30 1164 C 156.437 6.91731 -6.02299 0
M  V30 1165 O 155.381 6.92449 -5.17064 0
M  V30 1166 C 157.655 6.43627 -5.25174 0
M  V30 1167 O 158.393 7.43686 -4.60469 0
M  V30 1168 C 156.986 5.40275 -4.31916 0
M  V30 1169 O 157.785 5.25279 -3.14438 0
M  V30 1170 C 155.649 6.04847 -4.05327 0
M  V30 1171 H 155.681 6.62195 -3.11261 0
M  V30 1172 H 156.864 4.42556 -4.81383 0
M  V30 1173 H 158.348 5.92458 -5.93643 0
M  V30 1174 H 156.654 7.92655 -6.402 0
M  V30 1175 H 156.464 6.26671 -8.0846 0
M  V30 1176 H 154.834 6.29101 -7.32804 0
M  V30 1177 H 157.473 5.84315 -2.47318 0
M  V30 1178 P 159.331 7.39546 -4.75277 0
M  V30 1179 O 160.752 7.84882 -5.01092 0
M  V30 1180 O 158.971 5.9812 -5.08098 0
M  V30 1181 O 159.008 7.57503 -3.1866 0
M  V30 1182 C 158.847 8.97452 -2.74862 0
M  V30 1183 C 159.388 9.07548 -1.32709 0
M  V30 1184 O 158.333 8.61972 -0.606089 0
M  V30 1185 C 160.606 8.25383 -0.938334 0
M  V30 1186 O 161.344 8.74577 0.146954 0
M  V30 1187 C 159.938 6.8802 -0.712559 0
M  V30 1188 O 160.736 6.1181 0.188505 0
M  V30 1189 C 158.6 7.27966 -0.139777 0
M  V30 1190 N 157.557 6.39368 -0.623421 0
M  V30 1191 C 157.726 5.71761 -1.78245 0
M  V30 1192 N 156.699 4.962 -2.10491 0
M  V30 1193 C 155.814 5.16158 -1.0635 0
M  V30 1194 C 154.547 4.60425 -0.810266 0
M  V30 1195 N 153.948 3.7057 -1.62914 0
M  V30 1196 N 153.982 5.06 0.348685 0
M  V30 1197 C 154.584 5.94532 1.20395 0
M  V30 1198 N 155.761 6.48452 1.01191 0
M  V30 1199 C 156.336 6.04423 -0.146291 0
M  V30 1200 H 158.632 7.25255 0.961469 0
M  V30 1201 H 159.815 6.32625 -1.65044 0
M  V30 1202 H 161.298 8.19355 -1.79097 0
M  V30 1203 H 159.604 10.1305 -1.09016 0
M  V30 1204 H 159.414 9.64276 -3.41316 0
M  V30 1205 H 157.784 9.25417 -2.76357 0
M  V30 1206 H 154.048 6.21659 2.10714 0
M  V30 1207 H 158.626 5.79354 -2.38959 0
M  V30 1208 H 153.018 3.33174 -1.38982 0
M  V30 1209 H 154.422 3.39714 -2.48836 0
M  V30 1210 H 160.424 6.25169 1.0783 0
M  V30 1211 P 162.281 8.791 -1.35693e-13 0
M  V30 1212 O 163.703 9.31096 0.027933 0
M  V30 1213 O 161.921 7.77869 -1.04071 0
M  V30 1214 O 161.958 8.09533 1.41463 0
M  V30 1215 C 161.798 9.0349 2.53943 0
M  V30 1216 C 162.338 8.35226 3.79016 0
M  V30 1217 O 161.282 7.57992 4.15078 0
M  V30 1218 C 163.556 7.45087 3.67298 0
M  V30 1219 O 164.294 7.27796 4.85194 0
M  V30 1220 C 162.887 6.17323 3.12027 0
M  V30 1221 O 163.686 5.04231 3.47188 0
M  V30 1222 C 161.55 6.19961 3.81809 0
M  V30 1223 H 161.582 5.58218 4.73051 0
M  V30 1224 H 162.765 6.21726 2.02589 0
M  V30 1225 H 164.249 7.86112 2.9231 0
M  V30 1226 H 162.555 9.11627 4.55076 0
M  V30 1227 H 162.365 9.9573 2.34194 0
M  V30 1228 H 160.735 9.2792 2.67832 0
M  V30 1229 H 163.374 4.67702 4.28772 0
M  V30 1230 P 165.232 7.39546 4.75277 0
M  V30 1231 O 166.654 7.81777 5.05738 0
M  V30 1232 O 164.872 7.1065 3.32998 0
M  V30 1233 O 164.909 6.04542 5.56673 0
M  V30 1234 C 164.749 6.22772 7.02095 0
M  V30 1235 C 165.289 4.97725 7.70406 0
M  V30 1236 O 164.233 4.13256 7.58987 0
M  V30 1237 C 166.507 4.28231 7.11815 0
M  V30 1238 O 167.245 3.49945 8.01648 0
M  V30 1239 C 165.838 3.5063 5.96244 0
M  V30 1240 O 166.637 2.36482 5.64681 0
M  V30 1241 C 164.501 3.15122 6.56374 0
M  V30 1242 H 164.533 2.13853 6.99751 0
M  V30 1243 H 165.716 4.13501 5.06559 0
M  V30 1244 H 167.2 5.03285 6.70911 0
M  V30 1245 H 165.506 5.20877 8.75697 0
M  V30 1246 H 165.316 7.11046 7.35349 0
M  V30 1247 H 163.686 6.35815 7.26986 0
M  V30 1248 H 166.325 1.61644 6.13565 0
M  V30 1249 P 168.182 3.65191 7.99657 0
M  V30 1250 O 169.604 3.8425 8.48115 0
M  V30 1251 O 167.822 4.17805 6.64342 0
M  V30 1252 O 167.859 2.07613 7.95143 0
M  V30 1253 C 167.699 1.44328 9.27336 0
M  V30 1254 C 168.239 0.0220036 9.17197 0
M  V30 1255 O 167.183 -0.626867 8.61923 0
M  V30 1256 C 169.457 -0.24586 8.30336 0
M  V30 1257 O 170.195 -1.39011 8.63583 0
M  V30 1258 C 168.788 -0.273849 6.91158 0
M  V30 1259 O 169.587 -1.06348 6.02892 0
M  V30 1260 C 167.451 -0.897649 7.22545 0
M  V30 1261 H 167.483 -1.9841 7.04286 0
M  V30 1262 H 168.666 0.739928 6.497 0
M  V30 1263 H 170.15 0.60668 8.36503 0
M  V30 1264 H 168.456 -0.352479 10.1829 0
M  V30 1265 H 168.266 2.00611 10.0304 0
M  V30 1266 H 166.636 1.41843 9.55327 0
M  V30 1267 H 169.275 -1.95734 6.03555 0
M  V30 1268 P 171.133 -1.25109 8.70152 0
M  V30 1269 O 172.554 -1.35288 9.2132 0
M  V30 1270 O 170.773 -0.0769065 7.84762 0
M  V30 1271 O 170.81 -2.55232 7.81161 0
M  V30 1272 C 170.649 -3.79979 8.58246 0
M  V30 1273 C 171.19 -4.94023 7.72785 0
M  V30 1274 O 170.135 -5.18666 6.91125 0
M  V30 1275 C 172.408 -4.69597 6.85231 0
M  V30 1276 O 173.146 -5.83832 6.51337 0
M  V30 1277 C 171.74 -3.96706 5.66633 0
M  V30 1278 O 172.538 -4.14896 4.5003 0
M  V30 1279 C 170.402 -4.66153 5.59313 0
M  V30 1280 N 169.359 -3.71582 5.24027 0
M  V30 1281 C 169.528 -2.39715 5.48833 0
M  V30 1282 N 168.501 -1.65863 5.12845 0
M  V30 1283 C 167.616 -2.57637 4.5973 0
M  V30 1284 C 166.349 -2.40278 4.01027 0
M  V30 1285 N 165.784 -3.57711 3.59575 0
M  V30 1286 C 166.386 -4.80324 3.70476 0
M  V30 1287 N 167.563 -5.01121 4.23801 0
M  V30 1288 C 168.138 -3.84757 4.66372 0
M  V30 1289 H 171.617 -2.8955 5.86187 0
M  V30 1290 H 173.1 -4.0121 7.36511 0
M  V30 1291 H 171.406 -5.81019 8.37003 0
M  V30 1292 H 171.216 -3.73517 9.52265 0
M  V30 1293 H 169.586 -3.97163 8.80359 0
M  V30 1294 H 170.428 -1.98804 5.94332 0
M  V30 1295 H 172.226 -4.90891 4.01857 0
M  V30 1296 P 174.084 -5.75688 6.64379 0
M  V30 1297 O 175.506 -6.11849 7.01846 0
M  V30 1298 O 173.724 -4.30744 6.56026 0
M  V30 1299 O 173.761 -6.37042 5.19165 0
M  V30 1300 C 173.601 -7.83578 5.16515 0
M  V30 1301 C 174.141 -8.33398 3.83019 0
M  V30 1302 O 173.085 -8.10074 3.01034 0
M  V30 1303 C 175.359 -7.65514 3.2257 0
M  V30 1304 O 176.097 -8.4329 2.32297 0
M  V30 1305 C 174.69 -6.40075 2.62207 0
M  V30 1306 O 175.489 -5.92589 1.53712 0
M  V30 1307 C 173.353 -6.9454 2.18503 0
M  V30 1308 H 173.385 -7.23063 1.12091 0
M  V30 1309 H 174.568 -5.6025 3.37201 0
M  V30 1310 H 176.052 -7.35707 4.02681 0
M  V30 1311 H 174.358 -9.40912 3.9095 0
M  V30 1312 H 174.168 -8.29056 5.99158 0
M  V30 1313 H 172.538 -8.10073 5.25882 0
M  V30 1314 H 175.177 -6.30324 0.726794 0
M  V30 1315 P 177.034 -8.4349 2.47671 0
M  V30 1316 O 178.456 -8.94167 2.5964 0
M  V30 1317 O 176.674 -7.1704 3.19006 0
M  V30 1318 O 176.711 -8.16596 0.923387 0
M  V30 1319 C 176.551 -9.38437 0.108857 0
M  V30 1320 C 177.091 -9.08175 -1.28353 0
M  V30 1321 O 176.035 -8.44229 -1.84713 0
M  V30 1322 C 178.309 -8.18386 -1.42505 0
M  V30 1323 O 179.047 -8.3501 -2.60497 0
M  V30 1324 C 177.64 -6.80225 -1.25468 0
M  V30 1325 O 178.439 -5.81621 -1.91066 0
M  V30 1326 C 176.303 -7.02416 -1.9168 0
M  V30 1327 H 176.335 -6.6888 -2.96621 0
M  V30 1328 H 177.518 -6.53617 -0.192223 0
M  V30 1329 H 179.002 -8.36622 -0.589963 0
M  V30 1330 H 177.308 -10.0291 -1.79807 0
M  V30 1331 H 177.118 -10.2138 0.558219 0
M  V30 1332 H 175.488 -9.6579 0.0444202 0
M  V30 1333 H 178.127 -5.69556 -2.79637 0
M  V30 1334 P 179.985 -8.4349 -2.47671 0
M  V30 1335 O 181.407 -8.92593 -2.65 0
M  V30 1336 O 179.625 -7.7568 -1.19296 0
M  V30 1337 O 179.662 -7.36886 -3.63805 0
M  V30 1338 C 179.502 -7.95349 -4.982 0
M  V30 1339 C 180.042 -6.94612 -5.98974 0
M  V30 1340 O 178.986 -6.10347 -6.11815 0
M  V30 1341 C 181.26 -6.11426 -5.62335 0
M  V30 1342 O 181.998 -5.6162 -6.70584 0
M  V30 1343 C 180.591 -5.04409 -4.73308 0
M  V30 1344 O 181.39 -3.85992 -4.75183 0
M  V30 1345 C 179.254 -4.8728 -5.41006 0
M  V30 1346 H 179.286 -4.02333 -6.11157 0
M  V30 1347 H 180.469 -5.39466 -3.69543 0
M  V30 1348 H 181.953 -6.71916 -5.01943 0
M  V30 1349 H 180.259 -7.4649 -6.93477 0
M  V30 1350 H 180.069 -8.89416 -5.05237 0
M  V30 1351 H 178.439 -8.14876 -5.18409 0
M  V30 1352 H 181.078 -3.27957 -5.4317 0
M  V30 1353 P 182.935 -5.75688 -6.64379 0
M  V30 1354 O 184.357 -6.07627 -7.05504 0
M  V30 1355 O 182.575 -5.88047 -5.19722 0
M  V30 1356 O 182.612 -4.2322 -7.04443 0
M  V30 1357 C 182.452 -3.99743 -8.4911 0
M  V30 1358 C 182.992 -2.60516 -8.79425 0
M  V30 1359 O 181.936 -1.82684 -8.4467 0
M  V30 1360 C 184.21 -2.10343 -8.03628 0
M  V30 1361 O 184.948 -1.09919 -8.67766 0
M  V30 1362 C 183.541 -1.68446 -6.70876 0
M  V30 1363 O 184.34 -0.678137 -6.08433 0
M  V30 1364 C 182.204 -1.17436 -7.18567 0
M  V30 1365 H 182.236 -0.0804732 -7.31656 0
M  V30 1366 H 183.419 -2.54037 -6.02537 0
M  V30 1367 H 184.903 -2.93881 -7.85526 0
M  V30 1368 H 183.209 -2.53065 -9.86973 0
M  V30 1369 H 183.019 -4.75072 -9.05887 0
M  V30 1370 H 181.389 -4.05244 -8.76668 0
M  V30 1371 H 184.028 0.177647 -6.34251 0
M  V30 1372 P 185.886 -1.25109 -8.70152 0
M  V30 1373 O 187.308 -1.29744 -9.22016 0
M  V30 1374 O 185.526 -2.13714 -7.55141 0
M  V30 1375 O 185.563 0.248149 -8.21425 0
M  V30 1376 C 185.403 1.22779 -9.30434 0
M  V30 1377 C 185.943 2.56293 -8.80664 0
M  V30 1378 O 184.887 3.02979 -8.09349 0
M  V30 1379 C 187.161 2.57523 -7.89775 0
M  V30 1380 O 187.899 3.7668 -7.89438 0
M  V30 1381 C 186.492 2.20997 -6.55446 0
M  V30 1382 O 187.291 2.71895 -5.48509 0
M  V30 1383 C 185.155 2.89693 -6.67988 0
M  V30 1384 H 185.187 3.88793 -6.19859 0
M  V30 1385 H 186.37 1.12046 -6.44229 0
M  V30 1386 H 187.854 1.7746 -8.19711 0
M  V30 1387 H 186.16 3.20706 -9.67112 0
M  V30 1388 H 185.97 0.901032 -10.1892 0
M  V30 1389 H 184.34 1.33049 -9.56592 0
M  V30 1390 H 186.979 3.57847 -5.23962 0
M  V30 1391 P 188.836 3.65191 -7.99657 0
M  V30 1392 O 190.257 3.89374 -8.45885 0
M  V30 1393 O 188.476 2.28472 -7.50807 0
M  V30 1394 O 188.513 4.64972 -6.77611 0
M  V30 1395 C 188.352 6.06383 -7.16428 0
M  V30 1396 C 188.893 6.91731 -6.02299 0
M  V30 1397 O 187.838 6.92369 -5.17005 0
M  V30 1398 C 190.111 6.43627 -5.25174 0
M  V30 1399 O 190.849 7.43686 -4.60469 0
M  V30 1400 C 189.443 5.40275 -4.31916 0
M  V30 1401 O 190.241 5.24878 -3.14911 0
M  V30 1402 C 188.105 6.04847 -4.05327 0
M  V30 1403 N 187.062 5.04166 -3.98114 0
M  V30 1404 C 187.231 3.84629 -4.59066 0
M  V30 1405 N 186.204 3.0363 -4.45343 0
M  V30 1406 C 185.319 3.76722 -3.68523 0
M  V30 1407 C 184.052 3.43528 -3.17088 0
M  V30 1408 N 183.453 2.23665 -3.37397 0
M  V30 1409 N 183.487 4.44526 -2.44231 0
M  V30 1410 C 184.089 5.65243 -2.20146 0
M  V30 1411 N 185.266 6.00221 -2.65453 0
M  V30 1412 C 185.841 5.00564 -3.39083 0
M  V30 1413 H 188.137 6.62104 -3.11218 0
M  V30 1414 H 189.32 4.42969 -4.80867 0
M  V30 1415 H 190.803 5.92458 -5.93643 0
M  V30 1416 H 189.109 7.93295 -6.39407 0
M  V30 1417 H 188.919 6.26671 -8.0846 0
M  V30 1418 H 187.289 6.29101 -7.32804 0
M  V30 1419 H 183.553 6.36894 -1.5883 0
M  V30 1420 H 188.131 3.58193 -5.14248 0
M  V30 1421 H 182.523 2.05145 -2.97047 0
M  V30 1422 H 183.927 1.51255 -3.92998 0
M  V30 1423 H 189.929 5.84223 -2.47279 0
M  V30 1424 P 191.787 7.39546 -4.75277 0
M  V30 1425 O 193.209 7.84798 -5.01039 0
M  V30 1426 O 191.427 5.9812 -5.08098 0
M  V30 1427 O 191.464 7.57503 -3.1866 0
M  V30 1428 C 191.304 8.97357 -2.74833 0
M  V30 1429 C 191.844 9.07548 -1.32709 0
M  V30 1430 O 190.788 8.62072 -0.606159 0
M  V30 1431 C 193.062 8.25383 -0.938334 0
M  V30 1432 O 193.8 8.74577 0.146954 0
M  V30 1433 C 192.393 6.8802 -0.712559 0
M  V30 1434 O 193.192 6.1189 0.194655 0
M  V30 1435 C 191.056 7.27966 -0.139777 0
M  V30 1436 H 191.088 7.25354 0.961601 0
M  V30 1437 H 192.271 6.32557 -1.65702 0
M  V30 1438 H 193.755 8.19355 -1.79097 0
M  V30 1439 H 192.061 10.1294 -1.10029 0
M  V30 1440 H 191.871 9.64276 -3.41316 0
M  V30 1441 H 190.241 9.25417 -2.76357 0
M  V30 1442 H 192.88 6.25267 1.07847 0
M  V30 1443 P 194.738 8.791 1.12009e-13 0
M  V30 1444 O 196.16 9.31096 0.027933 0
M  V30 1445 O 194.378 7.77869 -1.04071 0
M  V30 1446 O 194.415 8.09533 1.41463 0
M  V30 1447 C 194.255 9.0349 2.53943 0
M  V30 1448 C 194.795 8.35226 3.79016 0
M  V30 1449 O 193.739 7.57992 4.15078 0
M  V30 1450 C 196.013 7.45087 3.67298 0
M  V30 1451 O 196.751 7.27796 4.85194 0
M  V30 1452 C 195.344 6.17323 3.12027 0
M  V30 1453 O 196.143 5.04231 3.47188 0
M  V30 1454 C 194.007 6.19961 3.81809 0
M  V30 1455 H 194.039 5.58218 4.73051 0
M  V30 1456 H 195.222 6.21726 2.02589 0
M  V30 1457 H 196.706 7.86112 2.9231 0
M  V30 1458 H 195.012 9.11627 4.55076 0
M  V30 1459 H 194.822 9.9573 2.34194 0
M  V30 1460 H 193.192 9.2792 2.67832 0
M  V30 1461 H 195.831 4.67702 4.28772 0
M  V30 1462 P 197.688 7.39546 4.75277 0
M  V30 1463 O 199.11 7.81777 5.05738 0
M  V30 1464 O 197.328 7.1065 3.32998 0
M  V30 1465 O 197.365 6.04542 5.56673 0
M  V30 1466 C 197.205 6.22772 7.02095 0
M  V30 1467 C 197.745 4.97725 7.70406 0
M  V30 1468 O 196.689 4.13256 7.58987 0
M  V30 1469 C 198.963 4.28231 7.11815 0
M  V30 1470 O 199.701 3.49945 8.01648 0
M  V30 1471 C 198.294 3.5063 5.96244 0
M  V30 1472 O 199.093 2.36482 5.64681 0
M  V30 1473 C 196.957 3.15122 6.56374 0
M  V30 1474 H 196.989 2.13853 6.99751 0
M  V30 1475 H 198.172 4.13501 5.06559 0
M  V30 1476 H 199.656 5.03285 6.70911 0
M  V30 1477 H 197.962 5.20877 8.75697 0
M  V30 1478 H 197.772 7.11046 7.35349 0
M  V30 1479 H 196.142 6.35815 7.26986 0
M  V30 1480 H 198.781 1.61644 6.13565 0
M  V30 1481 P 200.639 3.65191 7.99657 0
M  V30 1482 O 202.061 3.8425 8.48115 0
M  V30 1483 O 200.279 4.17805 6.64342 0
M  V30 1484 O 200.316 2.07613 7.95143 0
M  V30 1485 C 200.156 1.44328 9.27336 0
M  V30 1486 C 200.696 0.0220036 9.17197 0
M  V30 1487 O 199.64 -0.626867 8.61923 0
M  V30 1488 C 201.914 -0.24586 8.30336 0
M  V30 1489 O 202.652 -1.39011 8.63583 0
M  V30 1490 C 201.245 -0.273849 6.91158 0
M  V30 1491 O 202.044 -1.06348 6.02892 0
M  V30 1492 C 199.908 -0.897649 7.22545 0
M  V30 1493 H 199.94 -1.9841 7.04286 0
M  V30 1494 H 201.123 0.739928 6.497 0
M  V30 1495 H 202.607 0.60668 8.36503 0
M  V30 1496 H 200.913 -0.352479 10.1829 0
M  V30 1497 H 200.723 2.00611 10.0304 0
M  V30 1498 H 199.093 1.41843 9.55327 0
M  V30 1499 H 201.732 -1.95734 6.03555 0
M  V30 1500 P 203.589 -1.25109 8.70152 0
M  V30 1501 O 205.011 -1.35274 9.21221 0
M  V30 1502 O 203.229 -0.0769065 7.84762 0
M  V30 1503 O 203.266 -2.55232 7.81161 0
M  V30 1504 C 203.106 -3.79939 8.58154 0
M  V30 1505 C 203.646 -4.94023 7.72785 0
M  V30 1506 O 202.59 -5.18726 6.91205 0
M  V30 1507 C 204.864 -4.69597 6.85231 0
M  V30 1508 O 205.602 -5.83832 6.51337 0
M  V30 1509 C 204.195 -3.96706 5.66633 0
M  V30 1510 O 204.994 -4.15414 4.49689 0
M  V30 1511 C 202.858 -4.66153 5.59313 0
M  V30 1512 H 202.89 -5.47679 4.85214 0
M  V30 1513 H 204.073 -2.89008 5.86566 0
M  V30 1514 H 205.557 -4.0121 7.36511 0
M  V30 1515 H 203.863 -5.80182 8.37584 0
M  V30 1516 H 203.673 -3.73517 9.52265 0
M  V30 1517 H 202.043 -3.97163 8.80359 0
M  V30 1518 H 204.682 -4.90969 4.01921 0
M  V30 1519 P 206.54 -5.75688 6.64379 0
M  V30 1520 O 207.962 -6.11849 7.01846 0
M  V30 1521 O 206.18 -4.30744 6.56026 0
M  V30 1522 O 206.217 -6.37042 5.19165 0
M  V30 1523 C 206.057 -7.83578 5.16515 0
M  V30 1524 C 206.597 -8.33398 3.83019 0
M  V30 1525 O 205.541 -8.10074 3.01034 0
M  V30 1526 C 207.815 -7.65514 3.2257 0
M  V30 1527 O 208.553 -8.4329 2.32297 0
M  V30 1528 C 207.146 -6.40075 2.62207 0
M  V30 1529 O 207.945 -5.92589 1.53712 0
M  V30 1530 C 205.809 -6.9454 2.18503 0
M  V30 1531 H 205.841 -7.23063 1.12091 0
M  V30 1532 H 207.024 -5.6025 3.37201 0
M  V30 1533 H 208.508 -7.35707 4.02681 0
M  V30 1534 H 206.814 -9.40912 3.9095 0
M  V30 1535 H 206.624 -8.29056 5.99158 0
M  V30 1536 H 204.994 -8.10073 5.25882 0
M  V30 1537 H 207.633 -6.30324 0.726794 0
M  V30 1538 P 209.49 -8.4349 2.47671 0
M  V30 1539 O 210.912 -8.94167 2.5964 0
M  V30 1540 O 209.13 -7.1704 3.19006 0
M  V30 1541 O 209.167 -8.16596 0.923387 0
M  V30 1542 C 209.007 -9.38437 0.108857 0
M  V30 1543 C 209.547 -9.08175 -1.28353 0
M  V30 1544 O 208.491 -8.44229 -1.84713 0
M  V30 1545 C 210.765 -8.18386 -1.42505 0
M  V30 1546 O 211.503 -8.3501 -2.60497 0
M  V30 1547 C 210.096 -6.80225 -1.25468 0
M  V30 1548 O 210.895 -5.81621 -1.91066 0
M  V30 1549 C 208.759 -7.02416 -1.9168 0
M  V30 1550 H 208.791 -6.6888 -2.96621 0
M  V30 1551 H 209.974 -6.53617 -0.192223 0
M  V30 1552 H 211.458 -8.36622 -0.589963 0
M  V30 1553 H 209.764 -10.0291 -1.79807 0
M  V30 1554 H 209.574 -10.2138 0.558219 0
M  V30 1555 H 207.944 -9.6579 0.0444202 0
M  V30 1556 H 210.583 -5.69556 -2.79637 0
M  V30 1557 P 212.441 -8.4349 -2.47671 0
M  V30 1558 O 213.863 -8.92593 -2.65 0
M  V30 1559 O 212.081 -7.7568 -1.19296 0
M  V30 1560 O 212.118 -7.36886 -3.63805 0
M  V30 1561 C 211.958 -7.95349 -4.982 0
M  V30 1562 C 212.498 -6.94612 -5.98974 0
M  V30 1563 O 211.442 -6.10347 -6.11815 0
M  V30 1564 C 213.716 -6.11426 -5.62335 0
M  V30 1565 O 214.454 -5.6162 -6.70584 0
M  V30 1566 C 213.047 -5.04409 -4.73308 0
M  V30 1567 O 213.846 -3.85992 -4.75183 0
M  V30 1568 C 211.71 -4.8728 -5.41006 0
M  V30 1569 H 211.742 -4.02333 -6.11157 0
M  V30 1570 H 212.925 -5.39466 -3.69543 0
M  V30 1571 H 214.409 -6.71916 -5.01943 0
M  V30 1572 H 212.715 -7.4649 -6.93477 0
M  V30 1573 H 212.525 -8.89416 -5.05237 0
M  V30 1574 H 210.895 -8.14876 -5.18409 0
M  V30 1575 H 213.534 -3.27957 -5.4317 0
M  V30 1576 P 215.392 -5.75688 -6.64379 0
M  V30 1577 O 216.813 -6.07692 -7.0558 0
M  V30 1578 O 215.032 -5.88047 -5.19722 0
M  V30 1579 O 215.069 -4.2322 -7.04443 0
M  V30 1580 C 214.908 -3.99785 -8.49201 0
M  V30 1581 C 215.449 -2.60516 -8.79425 0
M  V30 1582 O 214.394 -1.82663 -8.44573 0
M  V30 1583 C 216.667 -2.10343 -8.03628 0
M  V30 1584 O 217.405 -1.09919 -8.67766 0
M  V30 1585 C 215.999 -1.68446 -6.70876 0
M  V30 1586 O 216.797 -0.684109 -6.08265 0
M  V30 1587 C 214.661 -1.17436 -7.18567 0
M  V30 1588 N 213.618 -1.52699 -6.23988 0
M  V30 1589 C 213.787 -2.578 -5.40574 0
M  V30 1590 N 212.76 -2.78966 -4.61193 0
M  V30 1591 C 211.875 -1.78725 -4.95769 0
M  V30 1592 C 210.608 -1.45727 -4.44207 0
M  V30 1593 N 210.043 -0.374977 -5.05812 0
M  V30 1594 C 210.645 0.345585 -6.05615 0
M  V30 1595 N 211.822 0.0787651 -6.56253 0
M  V30 1596 C 212.397 -1.00499 -5.96189 0
M  V30 1597 H 215.876 -2.53396 -6.02698 0
M  V30 1598 H 217.359 -2.93881 -7.85526 0
M  V30 1599 H 215.665 -2.52078 -9.87225 0
M  V30 1600 H 215.475 -4.75072 -9.05887 0
M  V30 1601 H 213.845 -4.05244 -8.76668 0
M  V30 1602 H 214.687 -3.18977 -5.3945 0
M  V30 1603 H 216.485 0.177619 -6.34151 0
M  V30 1604 P 218.342 -1.25109 -8.70152 0
M  V30 1605 O 219.764 -1.29744 -9.22016 0
M  V30 1606 O 217.982 -2.13714 -7.55141 0
M  V30 1607 O 218.019 0.248149 -8.21425 0
M  V30 1608 C 217.859 1.22779 -9.30434 0
M  V30 1609 C 218.399 2.56293 -8.80664 0
M  V30 1610 O 217.343 3.02979 -8.09349 0
M  V30 1611 C 219.617 2.57523 -7.89775 0
M  V30 1612 O 220.355 3.7668 -7.89438 0
M  V30 1613 C 218.948 2.20997 -6.55446 0
M  V30 1614 O 219.747 2.71895 -5.48509 0
M  V30 1615 C 217.611 2.89693 -6.67988 0
M  V30 1616 H 217.643 3.88793 -6.19859 0
M  V30 1617 H 218.826 1.12046 -6.44229 0
M  V30 1618 H 220.31 1.7746 -8.19711 0
M  V30 1619 H 218.616 3.20706 -9.67112 0
M  V30 1620 H 218.426 0.901032 -10.1892 0
M  V30 1621 H 216.796 1.33049 -9.56592 0
M  V30 1622 H 219.435 3.57847 -5.23962 0
M  V30 1623 P 221.293 3.65191 -7.99657 0
M  V30 1624 O 222.715 3.89332 -8.45794 0
M  V30 1625 O 220.933 2.28472 -7.50807 0
M  V30 1626 O 220.97 4.64972 -6.77611 0
M  V30 1627 C 220.81 6.06319 -7.16352 0
M  V30 1628 C 221.35 6.91731 -6.02299 0
M  V30 1629 O 220.294 6.92449 -5.17064 0
M  V30 1630 C 222.568 6.43627 -5.25174 0
M  V30 1631 O 223.306 7.43686 -4.60469 0
M  V30 1632 C 221.899 5.40275 -4.31916 0
M  V30 1633 O 222.698 5.25279 -3.14438 0
M  V30 1634 C 220.562 6.04847 -4.05327 0
M  V30 1635 H 220.594 6.62195 -3.11261 0
M  V30 1636 H 221.777 4.42556 -4.81383 0
M  V30 1637 H 223.261 5.92458 -5.93643 0
M  V30 1638 H 221.567 7.92655 -6.402 0
M  V30 1639 H 221.377 6.26671 -8.0846 0
M  V30 1640 H 219.747 6.29101 -7.32804 0
M  V30 1641 H 222.386 5.84315 -2.47318 0
M  V30 1642 P 224.243 7.39546 -4.75277 0
M  V30 1643 O 225.664 7.84882 -5.01092 0
M  V30 1644 O 223.883 5.9812 -5.08098 0
M  V30 1645 O 223.92 7.57503 -3.1866 0
M  V30 1646 C 223.759 8.97452 -2.74862 0
M  V30 1647 C 224.3 9.07548 -1.32709 0
M  V30 1648 O 223.245 8.61972 -0.606089 0
M  V30 1649 C 225.518 8.25383 -0.938334 0
M  V30 1650 O 226.256 8.74577 0.146954 0
M  V30 1651 C 224.85 6.8802 -0.712559 0
M  V30 1652 O 225.648 6.1181 0.188505 0
M  V30 1653 C 223.512 7.27966 -0.139777 0
M  V30 1654 N 222.469 6.39368 -0.623421 0
M  V30 1655 C 222.638 5.71761 -1.78245 0
M  V30 1656 N 221.611 4.962 -2.10491 0
M  V30 1657 C 220.726 5.16158 -1.0635 0
M  V30 1658 C 219.459 4.60425 -0.810266 0
M  V30 1659 N 218.86 3.7057 -1.62914 0
M  V30 1660 N 218.894 5.06 0.348685 0
M  V30 1661 C 219.496 5.94532 1.20395 0
M  V30 1662 N 220.673 6.48452 1.01191 0
M  V30 1663 C 221.248 6.04423 -0.146291 0
M  V30 1664 H 223.544 7.25255 0.961469 0
M  V30 1665 H 224.727 6.32625 -1.65044 0
M  V30 1666 H 226.21 8.19355 -1.79097 0
M  V30 1667 H 224.516 10.1305 -1.09016 0
M  V30 1668 H 224.326 9.64276 -3.41316 0
M  V30 1669 H 222.696 9.25417 -2.76357 0
M  V30 1670 H 218.96 6.21659 2.10714 0
M  V30 1671 H 223.538 5.79354 -2.38959 0
M  V30 1672 H 217.93 3.33174 -1.38982 0
M  V30 1673 H 219.334 3.39714 -2.48836 0
M  V30 1674 H 225.336 6.25169 1.0783 0
M  V30 1675 P 227.194 8.791 4.22174e-13 0
M  V30 1676 O 228.616 9.31096 0.027933 0
M  V30 1677 O 226.834 7.77869 -1.04071 0
M  V30 1678 O 226.871 8.09533 1.41463 0
M  V30 1679 C 226.711 9.0349 2.53943 0
M  V30 1680 C 227.251 8.35226 3.79016 0
M  V30 1681 O 226.195 7.57992 4.15078 0
M  V30 1682 C 228.469 7.45087 3.67298 0
M  V30 1683 O 229.207 7.27796 4.85194 0
M  V30 1684 C 227.8 6.17323 3.12027 0
M  V30 1685 O 228.599 5.04231 3.47188 0
M  V30 1686 C 226.463 6.19961 3.81809 0
M  V30 1687 H 226.495 5.58218 4.73051 0
M  V30 1688 H 227.678 6.21726 2.02589 0
M  V30 1689 H 229.162 7.86112 2.9231 0
M  V30 1690 H 227.468 9.11627 4.55076 0
M  V30 1691 H 227.278 9.9573 2.34194 0
M  V30 1692 H 225.648 9.2792 2.67832 0
M  V30 1693 H 228.287 4.67702 4.28772 0
M  V30 1694 P 230.144 7.39546 4.75277 0
M  V30 1695 O 231.566 7.81777 5.05738 0
M  V30 1696 O 229.784 7.1065 3.32998 0
M  V30 1697 O 229.821 6.04542 5.56673 0
M  V30 1698 C 229.661 6.22772 7.02095 0
M  V30 1699 C 230.201 4.97725 7.70406 0
M  V30 1700 O 229.145 4.13256 7.58987 0
M  V30 1701 C 231.419 4.28231 7.11815 0
M  V30 1702 O 232.157 3.49945 8.01648 0
M  V30 1703 C 230.75 3.5063 5.96244 0
M  V30 1704 O 231.549 2.36482 5.64681 0
M  V30 1705 C 229.413 3.15122 6.56374 0
M  V30 1706 H 229.445 2.13853 6.99751 0
M  V30 1707 H 230.628 4.13501 5.06559 0
M  V30 1708 H 232.112 5.03285 6.70911 0
M  V30 1709 H 230.418 5.20877 8.75697 0
M  V30 1710 H 230.228 7.11046 7.35349 0
M  V30 1711 H 228.598 6.35815 7.26986 0
M  V30 1712 H 231.237 1.61644 6.13565 0
M  V30 1713 P 233.095 3.65191 7.99657 0
M  V30 1714 O 234.517 3.8425 8.48115 0
M  V30 1715 O 232.735 4.17805 6.64342 0
M  V30 1716 O 232.772 2.07613 7.95143 0
M  V30 1717 C 232.612 1.44328 9.27336 0
M  V30 1718 C 233.152 0.0220036 9.17197 0
M  V30 1719 O 232.096 -0.626867 8.61923 0
M  V30 1720 C 234.37 -0.24586 8.30336 0
M  V30 1721 O 235.108 -1.39011 8.63583 0
M  V30 1722 C 233.701 -0.273849 6.91158 0
M  V30 1723 O 234.5 -1.06348 6.02892 0
M  V30 1724 C 232.364 -0.897649 7.22545 0
M  V30 1725 H 232.396 -1.9841 7.04286 0
M  V30 1726 H 233.579 0.739928 6.497 0
M  V30 1727 H 235.063 0.60668 8.36503 0
M  V30 1728 H 233.369 -0.352479 10.1829 0
M  V30 1729 H 233.179 2.00611 10.0304 0
M  V30 1730 H 231.549 1.41843 9.55327 0
M  V30 1731 H 234.188 -1.95734 6.03555 0
M  V30 1732 P 236.046 -1.25109 8.70152 0
M  V30 1733 O 237.468 -1.35274 9.21221 0
M  V30 1734 O 235.686 -0.0769065 7.84762 0
M  V30 1735 O 235.723 -2.55232 7.81161 0
M  V30 1736 C 235.563 -3.79939 8.58154 0
M  V30 1737 C 236.103 -4.94023 7.72785 0
M  V30 1738 O 235.047 -5.18726 6.91205 0
M  V30 1739 C 237.321 -4.69597 6.85231 0
M  V30 1740 O 238.059 -5.83832 6.51337 0
M  V30 1741 C 236.652 -3.96706 5.66633 0
M  V30 1742 O 237.451 -4.15414 4.49689 0
M  V30 1743 C 235.315 -4.66153 5.59313 0
M  V30 1744 H 235.347 -5.47679 4.85214 0
M  V30 1745 H 236.53 -2.89008 5.86566 0
M  V30 1746 H 238.014 -4.0121 7.36511 0
M  V30 1747 H 236.32 -5.80182 8.37584 0
M  V30 1748 H 236.13 -3.73517 9.52265 0
M  V30 1749 H 234.5 -3.97163 8.80359 0
M  V30 1750 H 237.139 -4.90969 4.01921 0
M  V30 1751 P 238.996 -5.75688 6.64379 0
M  V30 1752 O 240.418 -6.11981 7.01997 0
M  V30 1753 O 238.636 -4.30744 6.56026 0
M  V30 1754 O 238.673 -6.37042 5.19165 0
M  V30 1755 C 238.513 -7.83578 5.16515 0
M  V30 1756 C 239.053 -8.33307 3.82977 0
M  V30 1757 O 237.998 -8.10074 3.01034 0
M  V30 1758 C 240.271 -7.65514 3.2257 0
M  V30 1759 O 241.009 -8.4329 2.32297 0
M  V30 1760 C 239.603 -6.40075 2.62207 0
M  V30 1761 O 240.401 -5.92492 1.53687 0
M  V30 1762 C 238.265 -6.9454 2.18503 0
M  V30 1763 N 237.222 -5.95905 2.39948 0
M  V30 1764 C 237.284 -5.13994 3.44742 0
M  V30 1765 N 236.239 -4.30684 3.46712 0
M  V30 1766 C 235.505 -4.65583 2.41086 0
M  V30 1767 C 234.199 -4.20877 1.99581 0
M  V30 1768 O 233.466 -3.35913 2.52616 0
M  V30 1769 N 233.769 -4.83271 0.873406 0
M  V30 1770 C 234.518 -5.82006 0.185129 0
M  V30 1771 N 233.921 -6.30619 -0.95439 0
M  V30 1772 N 235.671 -6.28443 0.578524 0
M  V30 1773 C 236.128 -5.68486 1.70138 0
M  V30 1774 H 238.297 -7.23063 1.12091 0
M  V30 1775 H 239.48 -5.60165 3.3715 0
M  V30 1776 H 240.965 -7.3611 4.01946 0
M  V30 1777 H 239.27 -9.40912 3.9095 0
M  V30 1778 H 239.08 -8.29056 5.99158 0
M  V30 1779 H 237.449 -8.10073 5.25882 0
M  V30 1780 H 232.873 -4.58323 0.505262 0
M  V30 1781 H 238.08 -5.14564 4.1935 0
M  V30 1782 H 233.01 -5.93402 -1.25364 0
M  V30 1783 H 234.386 -7.0425 -1.50254 0
M  V30 1784 H 240.09 -6.30224 0.72668 0
M  V30 1785 P 241.947 -8.4349 2.47671 0
M  V30 1786 O 243.348 -8.98227 2.65696 0
M  V30 1787 O 241.569 -7.20409 3.23964 0
M  V30 1788 O 241.624 -8.16496 0.923275 0
M  V30 1789 C 241.464 -9.38437 0.108857 0
M  V30 1790 C 242.004 -9.08076 -1.28339 0
M  V30 1791 O 240.948 -8.44131 -1.84692 0
M  V30 1792 C 243.221 -8.18386 -1.42505 0
M  V30 1793 O 243.96 -8.3501 -2.60497 0
M  V30 1794 C 242.554 -6.80225 -1.25468 0
M  V30 1795 O 243.352 -5.81526 -1.91035 0
M  V30 1796 C 241.216 -7.02416 -1.9168 0
M  V30 1797 N 240.173 -6.31033 -1.20314 0
M  V30 1798 C 239.138 -5.77149 -1.928 0
M  V30 1799 O 239.177 -5.8521 -3.17729 0
M  V30 1800 N 238.126 -5.15445 -1.27997 0
M  V30 1801 C 238.174 -5.04472 0.0534726 0
M  V30 1802 N 237.164 -4.44183 0.669496 0
M  V30 1803 C 239.27 -5.55244 0.808522 0
M  V30 1804 C 240.236 -6.18542 0.13981 0
M  V30 1805 H 241.248 -6.68789 -2.9658 0
M  V30 1806 H 242.431 -6.53498 -0.198729 0
M  V30 1807 H 243.915 -8.36663 -0.5984 0
M  V30 1808 H 242.221 -10.0273 -1.8081 0
M  V30 1809 H 242.03 -10.2138 0.558219 0
M  V30 1810 H 240.4 -9.6569 0.0444156 0
M  V30 1811 H 239.318 -5.43017 1.88792 0
M  V30 1812 H 241.082 -6.60539 0.686773 0
M  V30 1813 H 236.374 -4.07222 0.12057 0
M  V30 1814 H 237.169 -4.34288 1.69244 0
M  V30 1815 H 243.136 -5.79638 -2.8315 0
M  V30 1816 P 244.897 -8.4349 -2.47671 0
M  V30 1817 O 246.319 -8.92593 -2.65 0
M  V30 1818 O 244.537 -7.7568 -1.19296 0
M  V30 1819 O 244.574 -7.36886 -3.63805 0
M  V30 1820 C 244.414 -7.95349 -4.982 0
M  V30 1821 C 244.954 -6.94612 -5.98974 0
M  V30 1822 O 243.898 -6.10347 -6.11815 0
M  V30 1823 C 246.172 -6.11426 -5.62335 0
M  V30 1824 O 246.91 -5.6162 -6.70584 0
M  V30 1825 C 245.503 -5.04409 -4.73308 0
M  V30 1826 O 246.302 -3.85992 -4.75183 0
M  V30 1827 C 244.166 -4.8728 -5.41006 0
M  V30 1828 H 244.198 -4.02333 -6.11157 0
M  V30 1829 H 245.381 -5.39466 -3.69543 0
M  V30 1830 H 246.865 -6.71916 -5.01943 0
M  V30 1831 H 245.171 -7.4649 -6.93477 0
M  V30 1832 H 244.981 -8.89416 -5.05237 0
M  V30 1833 H 243.351 -8.14876 -5.18409 0
M  V30 1834 H 245.99 -3.27957 -5.4317 0
M  V30 1835 P 247.848 -5.75688 -6.64379 0
M  V30 1836 O 249.269 -6.07692 -7.0558 0
M  V30 1837 O 247.488 -5.88047 -5.19722 0
M  V30 1838 O 247.525 -4.2322 -7.04443 0
M  V30 1839 C 247.364 -3.99785 -8.49201 0
M  V30 1840 C 247.905 -2.60516 -8.79425 0
M  V30 1841 O 246.85 -1.82663 -8.44573 0
M  V30 1842 C 249.123 -2.10343 -8.03628 0
M  V30 1843 O 249.861 -1.09919 -8.67766 0
M  V30 1844 C 248.455 -1.68446 -6.70876 0
M  V30 1845 O 249.253 -0.684109 -6.08265 0
M  V30 1846 C 247.117 -1.17436 -7.18567 0
M  V30 1847 N 246.074 -1.52699 -6.23988 0
M  V30 1848 C 246.243 -2.578 -5.40574 0
M  V30 1849 N 245.216 -2.78966 -4.61193 0
M  V30 1850 C 244.331 -1.78725 -4.95769 0
M  V30 1851 C 243.064 -1.45727 -4.44207 0
M  V30 1852 N 242.465 -2.13994 -3.43613 0
M  V30 1853 N 242.499 -0.374977 -5.05812 0
M  V30 1854 C 243.101 0.345585 -6.05615 0
M  V30 1855 N 244.278 0.0787651 -6.56253 0
M  V30 1856 C 244.853 -1.00499 -5.96189 0
M  V30 1857 H 247.149 -0.0804622 -7.31556 0
M  V30 1858 H 248.332 -2.53396 -6.02698 0
M  V30 1859 H 249.815 -2.93881 -7.85526 0
M  V30 1860 H 248.121 -2.52078 -9.87225 0
M  V30 1861 H 247.931 -4.75072 -9.05887 0
M  V30 1862 H 246.301 -4.05244 -8.76668 0
M  V30 1863 H 242.565 1.20098 -6.4532 0
M  V30 1864 H 247.143 -3.18977 -5.3945 0
M  V30 1865 H 241.535 -1.84983 -3.10004 0
M  V30 1866 H 242.939 -2.9465 -3.00843 0
M  V30 1867 H 248.941 0.177619 -6.34151 0
M  V30 1868 P 250.798 -1.25109 -8.70152 0
M  V30 1869 O 252.22 -1.29744 -9.22016 0
M  V30 1870 O 250.438 -2.13714 -7.55141 0
M  V30 1871 O 250.475 0.248149 -8.21425 0
M  V30 1872 C 250.315 1.22779 -9.30434 0
M  V30 1873 C 250.855 2.56293 -8.80664 0
M  V30 1874 O 249.799 3.02979 -8.09349 0
M  V30 1875 C 252.073 2.57523 -7.89775 0
M  V30 1876 O 252.811 3.7668 -7.89438 0
M  V30 1877 C 251.404 2.20997 -6.55446 0
M  V30 1878 O 252.203 2.71895 -5.48509 0
M  V30 1879 C 250.067 2.89693 -6.67988 0
M  V30 1880 H 250.099 3.88793 -6.19859 0
M  V30 1881 H 251.282 1.12046 -6.44229 0
M  V30 1882 H 252.766 1.7746 -8.19711 0
M  V30 1883 H 251.072 3.20706 -9.67112 0
M  V30 1884 H 250.882 0.901032 -10.1892 0
M  V30 1885 H 249.252 1.33049 -9.56592 0
M  V30 1886 H 251.891 3.57847 -5.23962 0
M  V30 1887 P 253.749 3.65191 -7.99657 0
M  V30 1888 O 255.171 3.89332 -8.45794 0
M  V30 1889 O 253.389 2.28472 -7.50807 0
M  V30 1890 O 253.426 4.64972 -6.77611 0
M  V30 1891 C 253.266 6.06319 -7.16352 0
M  V30 1892 C 253.806 6.91731 -6.02299 0
M  V30 1893 O 252.75 6.92449 -5.17064 0
M  V30 1894 C 255.024 6.43627 -5.25174 0
M  V30 1895 O 255.762 7.43686 -4.60469 0
M  V30 1896 C 254.355 5.40275 -4.31916 0
M  V30 1897 O 255.154 5.25279 -3.14438 0
M  V30 1898 C 253.018 6.04847 -4.05327 0
M  V30 1899 H 253.05 6.62195 -3.11261 0
M  V30 1900 H 254.233 4.42556 -4.81383 0
M  V30 1901 H 255.717 5.92458 -5.93643 0
M  V30 1902 H 254.023 7.92655 -6.402 0
M  V30 1903 H 253.833 6.26671 -8.0846 0
M  V30 1904 H 252.203 6.29101 -7.32804 0
M  V30 1905 H 254.842 5.84315 -2.47318 0
M  V30 1906 P 256.7 7.39546 -4.75277 0
M  V30 1907 O 258.122 7.84798 -5.01039 0
M  V30 1908 O 256.34 5.9812 -5.08098 0
M  V30 1909 O 256.377 7.57503 -3.1866 0
M  V30 1910 C 256.217 8.97357 -2.74833 0
M  V30 1911 C 256.757 9.07548 -1.32709 0
M  V30 1912 O 255.701 8.62072 -0.606159 0
M  V30 1913 C 257.975 8.25383 -0.938334 0
M  V30 1914 O 258.713 8.74577 0.146954 0
M  V30 1915 C 257.306 6.8802 -0.712559 0
M  V30 1916 O 258.105 6.1189 0.194655 0
M  V30 1917 C 255.969 7.27966 -0.139777 0
M  V30 1918 H 256.001 7.25354 0.961601 0
M  V30 1919 H 257.184 6.32557 -1.65702 0
M  V30 1920 H 258.668 8.19355 -1.79097 0
M  V30 1921 H 256.974 10.1294 -1.10029 0
M  V30 1922 H 256.784 9.64276 -3.41316 0
M  V30 1923 H 255.154 9.25417 -2.76357 0
M  V30 1924 H 257.793 6.25267 1.07847 0
M  V30 1925 P 259.65 8.791 7.3234e-13 0
M  V30 1926 O 261.072 9.31096 0.027933 0
M  V30 1927 O 259.29 7.77869 -1.04071 0
M  V30 1928 O 259.327 8.09533 1.41463 0
M  V30 1929 C 259.167 9.0349 2.53943 0
M  V30 1930 C 259.707 8.35226 3.79016 0
M  V30 1931 O 258.651 7.57992 4.15078 0
M  V30 1932 C 260.925 7.45087 3.67298 0
M  V30 1933 O 261.663 7.27796 4.85194 0
M  V30 1934 C 260.256 6.17323 3.12027 0
M  V30 1935 O 261.055 5.04231 3.47188 0
M  V30 1936 C 258.919 6.19961 3.81809 0
M  V30 1937 H 258.951 5.58218 4.73051 0
M  V30 1938 H 260.134 6.21726 2.02589 0
M  V30 1939 H 261.618 7.86112 2.9231 0
M  V30 1940 H 259.924 9.11627 4.55076 0
M  V30 1941 H 259.734 9.9573 2.34194 0
M  V30 1942 H 258.104 9.2792 2.67832 0
M  V30 1943 H 260.743 4.67702 4.28772 0
M  V30 1944 P 262.601 7.39546 4.75277 0
M  V30 1945 O 264.023 7.81777 5.05738 0
M  V30 1946 O 262.241 7.1065 3.32998 0
M  V30 1947 O 262.278 6.04542 5.56673 0
M  V30 1948 C 262.118 6.22772 7.02095 0
M  V30 1949 C 262.658 4.97725 7.70406 0
M  V30 1950 O 261.602 4.13256 7.58987 0
M  V30 1951 C 263.876 4.28231 7.11815 0
M  V30 1952 O 264.614 3.49945 8.01648 0
M  V30 1953 C 263.207 3.5063 5.96244 0
M  V30 1954 O 264.006 2.36482 5.64681 0
M  V30 1955 C 261.87 3.15122 6.56374 0
M  V30 1956 H 261.902 2.13853 6.99751 0
M  V30 1957 H 263.085 4.13501 5.06559 0
M  V30 1958 H 264.569 5.03285 6.70911 0
M  V30 1959 H 262.875 5.20877 8.75697 0
M  V30 1960 H 262.685 7.11046 7.35349 0
M  V30 1961 H 261.055 6.35815 7.26986 0
M  V30 1962 H 263.694 1.61644 6.13565 0
M  V30 1963 P 265.551 3.65191 7.99657 0
M  V30 1964 O 266.973 3.8425 8.48115 0
M  V30 1965 O 265.191 4.17805 6.64342 0
M  V30 1966 O 265.228 2.07613 7.95143 0
M  V30 1967 C 265.068 1.44328 9.27336 0
M  V30 1968 C 265.608 0.0220036 9.17197 0
M  V30 1969 O 264.552 -0.626867 8.61923 0
M  V30 1970 C 266.826 -0.24586 8.30336 0
M  V30 1971 O 267.564 -1.39011 8.63583 0
M  V30 1972 C 266.157 -0.273849 6.91158 0
M  V30 1973 O 266.956 -1.06348 6.02892 0
M  V30 1974 C 264.82 -0.897649 7.22545 0
M  V30 1975 H 264.852 -1.9841 7.04286 0
M  V30 1976 H 266.035 0.739928 6.497 0
M  V30 1977 H 267.519 0.60668 8.36503 0
M  V30 1978 H 265.825 -0.352479 10.1829 0
M  V30 1979 H 265.635 2.00611 10.0304 0
M  V30 1980 H 264.005 1.41843 9.55327 0
M  V30 1981 H 266.644 -1.95734 6.03555 0
M  V30 1982 P 268.502 -1.25109 8.70152 0
M  V30 1983 O 269.924 -1.35274 9.21221 0
M  V30 1984 O 268.142 -0.0769065 7.84762 0
M  V30 1985 O 268.179 -2.55232 7.81161 0
M  V30 1986 C 268.019 -3.79939 8.58154 0
M  V30 1987 C 268.559 -4.94023 7.72785 0
M  V30 1988 O 267.503 -5.18726 6.91205 0
M  V30 1989 C 269.777 -4.69597 6.85231 0
M  V30 1990 O 270.515 -5.83832 6.51337 0
M  V30 1991 C 269.108 -3.96706 5.66633 0
M  V30 1992 O 269.907 -4.15414 4.49689 0
M  V30 1993 C 267.771 -4.66153 5.59313 0
M  V30 1994 H 267.803 -5.47679 4.85214 0
M  V30 1995 H 268.986 -2.89008 5.86566 0
M  V30 1996 H 270.47 -4.0121 7.36511 0
M  V30 1997 H 268.776 -5.80182 8.37584 0
M  V30 1998 H 268.586 -3.73517 9.52265 0
M  V30 1999 H 266.956 -3.97163 8.80359 0
M  V30 2000 H 269.595 -4.90969 4.01921 0
M  V30 2001 P 271.452 -5.75688 6.64379 0
M  V30 2002 O 272.874 -6.11849 7.01846 0
M  V30 2003 O 271.092 -4.30744 6.56026 0
M  V30 2004 O 271.129 -6.37042 5.19165 0
M  V30 2005 C 270.969 -7.83578 5.16515 0
M  V30 2006 C 271.509 -8.33398 3.83019 0
M  V30 2007 O 270.453 -8.10074 3.01034 0
M  V30 2008 C 272.727 -7.65514 3.2257 0
M  V30 2009 O 273.465 -8.4329 2.32297 0
M  V30 2010 C 272.058 -6.40075 2.62207 0
M  V30 2011 O 272.857 -5.92589 1.53712 0
M  V30 2012 C 270.721 -6.9454 2.18503 0
M  V30 2013 H 270.753 -7.23063 1.12091 0
M  V30 2014 H 271.936 -5.6025 3.37201 0
M  V30 2015 H 273.42 -7.35707 4.02681 0
M  V30 2016 H 271.726 -9.40912 3.9095 0
M  V30 2017 H 271.536 -8.29056 5.99158 0
M  V30 2018 H 269.906 -8.10073 5.25882 0
M  V30 2019 H 272.545 -6.30324 0.726794 0
M  V30 2020 P 274.403 -8.4349 2.47671 0
M  V30 2021 O 275.825 -8.94359 2.59696 0
M  V30 2022 O 274.043 -7.1704 3.19006 0
M  V30 2023 O 274.08 -8.16596 0.923387 0
M  V30 2024 C 273.92 -9.38437 0.108857 0
M  V30 2025 C 274.46 -9.08076 -1.28339 0
M  V30 2026 O 273.405 -8.44229 -1.84713 0
M  V30 2027 C 275.678 -8.18386 -1.42505 0
M  V30 2028 O 276.416 -8.3501 -2.60497 0
M  V30 2029 C 275.01 -6.80225 -1.25468 0
M  V30 2030 O 275.808 -5.81526 -1.91035 0
M  V30 2031 C 273.672 -7.02416 -1.9168 0
M  V30 2032 N 272.629 -6.31033 -1.20314 0
M  V30 2033 C 272.691 -6.18781 0.121293 0
M  V30 2034 N 271.646 -5.49762 0.588272 0
M  V30 2035 C 270.912 -5.22015 -0.488988 0
M  V30 2036 C 269.606 -4.61966 -0.596448 0
M  V30 2037 O 268.873 -4.19162 0.309059 0
M  V30 2038 N 269.176 -4.53773 -1.878 0
M  V30 2039 C 269.925 -4.99623 -2.99082 0
M  V30 2040 N 269.328 -4.78912 -4.21227 0
M  V30 2041 N 271.078 -5.59957 -2.91093 0
M  V30 2042 C 271.535 -5.70225 -1.64218 0
M  V30 2043 H 273.704 -6.6888 -2.96621 0
M  V30 2044 H 274.887 -6.53517 -0.192194 0
M  V30 2045 H 276.372 -8.36563 -0.598329 0
M  V30 2046 H 274.677 -10.0291 -1.79807 0
M  V30 2047 H 274.487 -10.2138 0.558219 0
M  V30 2048 H 272.856 -9.6579 0.0444202 0
M  V30 2049 H 268.28 -4.12883 -2.05283 0
M  V30 2050 H 273.487 -6.59596 0.745856 0
M  V30 2051 H 268.417 -4.31425 -4.2628 0
M  V30 2052 H 269.793 -5.11219 -5.07148 0
M  V30 2053 H 275.497 -5.69466 -2.79593 0
M  V30 2054 P 277.354 -8.4349 -2.47671 0
M  V30 2055 O 278.776 -8.92593 -2.65 0
M  V30 2056 O 276.994 -7.7568 -1.19296 0
M  V30 2057 O 277.031 -7.36886 -3.63805 0
M  V30 2058 C 276.871 -7.95349 -4.982 0
M  V30 2059 C 277.411 -6.94612 -5.98974 0
M  V30 2060 O 276.355 -6.10347 -6.11815 0
M  V30 2061 C 278.629 -6.11426 -5.62335 0
M  V30 2062 O 279.367 -5.6162 -6.70584 0
M  V30 2063 C 277.96 -5.04409 -4.73308 0
M  V30 2064 O 278.759 -3.85992 -4.75183 0
M  V30 2065 C 276.623 -4.8728 -5.41006 0
M  V30 2066 H 276.655 -4.02333 -6.11157 0
M  V30 2067 H 277.838 -5.39466 -3.69543 0
M  V30 2068 H 279.322 -6.71916 -5.01943 0
M  V30 2069 H 277.628 -7.4649 -6.93477 0
M  V30 2070 H 277.438 -8.89416 -5.05237 0
M  V30 2071 H 275.808 -8.14876 -5.18409 0
M  V30 2072 H 278.447 -3.27957 -5.4317 0
M  V30 2073 P 280.304 -5.75688 -6.64379 0
M  V30 2074 O 281.705 -6.14823 -7.06682 0
M  V30 2075 O 279.926 -5.93957 -5.20728 0
M  V30 2076 O 279.981 -4.23169 -7.04357 0
M  V30 2077 C 279.821 -3.99743 -8.4911 0
M  V30 2078 C 280.361 -2.60487 -8.79329 0
M  V30 2079 O 279.305 -1.82663 -8.44573 0
M  V30 2080 C 281.578 -2.10343 -8.03628 0
M  V30 2081 O 282.317 -1.09919 -8.67766 0
M  V30 2082 C 280.911 -1.68446 -6.70876 0
M  V30 2083 O 281.709 -0.678026 -6.08333 0
M  V30 2084 C 279.573 -1.17436 -7.18567 0
M  V30 2085 N 278.53 -1.52699 -6.23988 0
M  V30 2086 C 277.495 -0.643793 -6.05085 0
M  V30 2087 O 277.534 0.459118 -6.64315 0
M  V30 2088 N 276.483 -0.976931 -5.22038 0
M  V30 2089 C 276.531 -2.14429 -4.56662 0
M  V30 2090 C 277.627 -3.04203 -4.71481 0
M  V30 2091 C 278.593 -2.69669 -5.56838 0
M  V30 2092 H 279.605 -0.0804622 -7.31556 0
M  V30 2093 H 280.788 -2.53396 -6.02698 0
M  V30 2094 H 282.272 -2.9313 -7.85914 0
M  V30 2095 H 280.578 -2.52078 -9.87225 0
M  V30 2096 H 280.387 -4.75072 -9.05887 0
M  V30 2097 H 278.757 -4.05202 -8.76577 0
M  V30 2098 H 277.675 -3.97309 -4.15519 0
M  V30 2099 H 279.439 -3.36869 -5.72318 0
M  V30 2100 H 281.493 0.167718 -6.44882 0
M  V30 2101 P 283.255 -1.25109 -8.70152 0
M  V30 2102 O 284.677 -1.29744 -9.22016 0
M  V30 2103 O 282.895 -2.13714 -7.55141 0
M  V30 2104 O 282.932 0.248149 -8.21425 0
M  V30 2105 C 282.772 1.22779 -9.30434 0
M  V30 2106 C 283.312 2.56293 -8.80664 0
M  V30 2107 O 282.256 3.02979 -8.09349 0
M  V30 2108 C 284.53 2.57523 -7.89775 0
M  V30 2109 O 285.268 3.7668 -7.89438 0
M  V30 2110 C 283.861 2.20997 -6.55446 0
M  V30 2111 O 284.66 2.71895 -5.48509 0
M  V30 2112 C 282.524 2.89693 -6.67988 0
M  V30 2113 H 282.556 3.88793 -6.19859 0
M  V30 2114 H 283.739 1.12046 -6.44229 0
M  V30 2115 H 285.223 1.7746 -8.19711 0
M  V30 2116 H 283.529 3.20706 -9.67112 0
M  V30 2117 H 283.339 0.901032 -10.1892 0
M  V30 2118 H 281.709 1.33049 -9.56592 0
M  V30 2119 H 284.348 3.57847 -5.23962 0
M  V30 2120 P 286.205 3.65191 -7.99657 0
M  V30 2121 O 287.627 3.89332 -8.45794 0
M  V30 2122 O 285.845 2.28472 -7.50807 0
M  V30 2123 O 285.882 4.64972 -6.77611 0
M  V30 2124 C 285.722 6.06319 -7.16352 0
M  V30 2125 C 286.262 6.91731 -6.02299 0
M  V30 2126 O 285.206 6.92449 -5.17064 0
M  V30 2127 C 287.48 6.43627 -5.25174 0
M  V30 2128 O 288.218 7.43686 -4.60469 0
M  V30 2129 C 286.811 5.40275 -4.31916 0
M  V30 2130 O 287.61 5.25279 -3.14438 0
M  V30 2131 C 285.474 6.04847 -4.05327 0
M  V30 2132 H 285.506 6.62195 -3.11261 0
M  V30 2133 H 286.689 4.42556 -4.81383 0
M  V30 2134 H 288.173 5.92458 -5.93643 0
M  V30 2135 H 286.479 7.92655 -6.402 0
M  V30 2136 H 286.289 6.26671 -8.0846 0
M  V30 2137 H 284.659 6.29101 -7.32804 0
M  V30 2138 H 287.298 5.84315 -2.47318 0
M  V30 2139 P 289.156 7.39546 -4.75277 0
M  V30 2140 O 290.578 7.84798 -5.01039 0
M  V30 2141 O 288.796 5.9812 -5.08098 0
M  V30 2142 O 288.833 7.57503 -3.1866 0
M  V30 2143 C 288.673 8.97357 -2.74833 0
M  V30 2144 C 289.213 9.07548 -1.32709 0
M  V30 2145 O 288.157 8.62072 -0.606159 0
M  V30 2146 C 290.431 8.25383 -0.938334 0
M  V30 2147 O 291.169 8.74577 0.146954 0
M  V30 2148 C 289.762 6.8802 -0.712559 0
M  V30 2149 O 290.561 6.1189 0.194655 0
M  V30 2150 C 288.425 7.27966 -0.139777 0
M  V30 2151 H 288.457 7.25354 0.961601 0
M  V30 2152 H 289.64 6.32557 -1.65702 0
M  V30 2153 H 291.124 8.19355 -1.79097 0
M  V30 2154 H 289.43 10.1294 -1.10029 0
M  V30 2155 H 289.24 9.64276 -3.41316 0
M  V30 2156 H 287.61 9.25417 -2.76357 0
M  V30 2157 H 290.249 6.25267 1.07847 0
M  V30 2158 P 292.106 8.791 1.04251e-12 0
M  V30 2159 O 293.528 9.31296 0.027939 0
M  V30 2160 O 291.746 7.77869 -1.04071 0
M  V30 2161 O 291.783 8.09533 1.41463 0
M  V30 2162 C 291.623 9.0349 2.53943 0
M  V30 2163 C 292.163 8.35135 3.78975 0
M  V30 2164 O 291.108 7.57992 4.15078 0
M  V30 2165 C 293.381 7.45087 3.67298 0
M  V30 2166 O 294.119 7.27796 4.85194 0
M  V30 2167 C 292.713 6.17323 3.12027 0
M  V30 2168 O 293.511 5.04149 3.47132 0
M  V30 2169 C 291.375 6.19961 3.81809 0
M  V30 2170 N 290.332 5.71575 2.93223 0
M  V30 2171 C 290.394 5.97133 1.62693 0
M  V30 2172 N 289.349 5.44066 0.984414 0
M  V30 2173 C 288.615 4.87093 1.93987 0
M  V30 2174 C 287.309 4.26449 1.8738 0
M  V30 2175 O 286.576 4.1089 0.884377 0
M  V30 2176 N 286.879 3.82483 3.08036 0
M  V30 2177 C 287.628 3.95124 4.27727 0
M  V30 2178 N 287.031 3.4084 5.39089 0
M  V30 2179 N 288.781 4.55264 4.3706 0
M  V30 2180 C 289.238 5.00861 3.18217 0
M  V30 2181 H 291.407 5.58218 4.73051 0
M  V30 2182 H 292.59 6.21631 2.02558 0
M  V30 2183 H 294.075 7.85819 2.93096 0
M  V30 2184 H 292.38 9.11627 4.55076 0
M  V30 2185 H 292.19 9.9573 2.34194 0
M  V30 2186 H 290.559 9.2792 2.67832 0
M  V30 2187 H 285.983 3.38323 3.1329 0
M  V30 2188 H 291.19 6.53891 1.14265 0
M  V30 2189 H 286.12 2.93852 5.30559 0
M  V30 2190 H 287.496 3.47631 6.30632 0
M  V30 2191 H 293.2 4.67628 4.28704 0
M  V30 2192 P 295.057 7.39546 4.75277 0
M  V30 2193 O 296.479 7.81777 5.05738 0
M  V30 2194 O 294.697 7.1065 3.32998 0
M  V30 2195 O 294.734 6.04542 5.56673 0
M  V30 2196 C 294.574 6.22772 7.02095 0
M  V30 2197 C 295.114 4.97725 7.70406 0
M  V30 2198 O 294.058 4.13256 7.58987 0
M  V30 2199 C 296.332 4.28231 7.11815 0
M  V30 2200 O 297.07 3.49945 8.01648 0
M  V30 2201 C 295.663 3.5063 5.96244 0
M  V30 2202 O 296.462 2.36482 5.64681 0
M  V30 2203 C 294.326 3.15122 6.56374 0
M  V30 2204 H 294.358 2.13853 6.99751 0
M  V30 2205 H 295.541 4.13501 5.06559 0
M  V30 2206 H 297.025 5.03285 6.70911 0
M  V30 2207 H 295.331 5.20877 8.75697 0
M  V30 2208 H 295.141 7.11046 7.35349 0
M  V30 2209 H 293.511 6.35815 7.26986 0
M  V30 2210 H 296.15 1.61644 6.13565 0
M  V30 2211 P 298.008 3.65191 7.99657 0
M  V30 2212 O 299.43 3.8425 8.48115 0
M  V30 2213 O 297.648 4.17805 6.64342 0
M  V30 2214 O 297.685 2.07613 7.95143 0
M  V30 2215 C 297.525 1.44328 9.27336 0
M  V30 2216 C 298.065 0.0220036 9.17197 0
M  V30 2217 O 297.009 -0.626867 8.61923 0
M  V30 2218 C 299.283 -0.24586 8.30336 0
M  V30 2219 O 300.021 -1.39011 8.63583 0
M  V30 2220 C 298.614 -0.273849 6.91158 0
M  V30 2221 O 299.413 -1.06348 6.02892 0
M  V30 2222 C 297.277 -0.897649 7.22545 0
M  V30 2223 H 297.309 -1.9841 7.04286 0
M  V30 2224 H 298.492 0.739928 6.497 0
M  V30 2225 H 299.976 0.60668 8.36503 0
M  V30 2226 H 298.282 -0.352479 10.1829 0
M  V30 2227 H 298.092 2.00611 10.0304 0
M  V30 2228 H 296.462 1.41843 9.55327 0
M  V30 2229 H 299.101 -1.95734 6.03555 0
M  V30 2230 P 300.958 -1.25109 8.70152 0
M  V30 2231 O 302.38 -1.35274 9.21221 0
M  V30 2232 O 300.598 -0.0769065 7.84762 0
M  V30 2233 O 300.635 -2.55232 7.81161 0
M  V30 2234 C 300.475 -3.79939 8.58154 0
M  V30 2235 C 301.015 -4.94023 7.72785 0
M  V30 2236 O 299.959 -5.18726 6.91205 0
M  V30 2237 C 302.233 -4.69597 6.85231 0
M  V30 2238 O 302.971 -5.83832 6.51337 0
M  V30 2239 C 301.564 -3.96706 5.66633 0
M  V30 2240 O 302.363 -4.15414 4.49689 0
M  V30 2241 C 300.227 -4.66153 5.59313 0
M  V30 2242 H 300.259 -5.47679 4.85214 0
M  V30 2243 H 301.442 -2.89008 5.86566 0
M  V30 2244 H 302.926 -4.0121 7.36511 0
M  V30 2245 H 301.232 -5.80182 8.37584 0
M  V30 2246 H 301.042 -3.73517 9.52265 0
M  V30 2247 H 299.412 -3.97163 8.80359 0
M  V30 2248 H 302.051 -4.90969 4.01921 0
M  V30 2249 P 303.909 -5.75688 6.64379 0
M  V30 2250 O 305.33 -6.11915 7.01921 0
M  V30 2251 O 303.549 -4.30744 6.56026 0
M  V30 2252 O 303.586 -6.37042 5.19165 0
M  V30 2253 C 303.425 -7.83662 5.1657 0
M  V30 2254 C 303.966 -8.33398 3.83019 0
M  V30 2255 O 302.911 -8.0998 3.00999 0
M  V30 2256 C 305.184 -7.65514 3.2257 0
M  V30 2257 O 305.922 -8.4329 2.32297 0
M  V30 2258 C 304.516 -6.40075 2.62207 0
M  V30 2259 O 305.314 -5.92338 1.5428 0
M  V30 2260 C 303.178 -6.9454 2.18503 0
M  V30 2261 N 302.135 -5.95905 2.39948 0
M  V30 2262 C 302.304 -4.98383 3.32108 0
M  V30 2263 N 301.277 -4.16798 3.41761 0
M  V30 2264 C 300.392 -4.65287 2.47461 0
M  V30 2265 C 299.125 -4.18946 2.07461 0
M  V30 2266 N 298.56 -4.95327 1.09101 0
M  V30 2267 C 299.162 -6.04369 0.519812 0
M  V30 2268 N 300.339 -6.50694 0.855982 0
M  V30 2269 C 300.914 -5.75818 1.84322 0
M  V30 2270 H 304.393 -5.60502 3.36589 0
M  V30 2271 H 305.876 -7.35707 4.02681 0
M  V30 2272 H 304.182 -9.41302 3.90009 0
M  V30 2273 H 303.992 -8.29056 5.99158 0
M  V30 2274 H 302.362 -8.10073 5.25882 0
M  V30 2275 H 303.204 -4.88564 3.92502 0
M  V30 2276 H 305.002 -6.30224 0.72668 0
M  V30 2277 P 306.859 -8.4349 2.47671 0
M  V30 2278 O 308.281 -8.94359 2.59696 0
M  V30 2279 O 306.499 -7.1704 3.19006 0
M  V30 2280 O 306.536 -8.16596 0.923387 0
M  V30 2281 C 306.376 -9.38437 0.108857 0
M  V30 2282 C 306.916 -9.08076 -1.28339 0
M  V30 2283 O 305.861 -8.44229 -1.84713 0
M  V30 2284 C 308.134 -8.18386 -1.42505 0
M  V30 2285 O 308.872 -8.3501 -2.60497 0
M  V30 2286 C 307.466 -6.80225 -1.25468 0
M  V30 2287 O 308.264 -5.81526 -1.91035 0
M  V30 2288 C 306.128 -7.02416 -1.9168 0
M  V30 2289 N 305.085 -6.31033 -1.20314 0
M  V30 2290 C 305.147 -6.18781 0.121293 0
M  V30 2291 N 304.102 -5.49762 0.588272 0
M  V30 2292 C 303.368 -5.22015 -0.488988 0
M  V30 2293 C 302.062 -4.61966 -0.596448 0
M  V30 2294 O 301.329 -4.19162 0.309059 0
M  V30 2295 N 301.632 -4.53773 -1.878 0
M  V30 2296 C 302.381 -4.99623 -2.99082 0
M  V30 2297 N 301.784 -4.78912 -4.21227 0
M  V30 2298 N 303.534 -5.59957 -2.91093 0
M  V30 2299 C 303.991 -5.70225 -1.64218 0
M  V30 2300 H 306.16 -6.6888 -2.96621 0
M  V30 2301 H 307.343 -6.53517 -0.192194 0
M  V30 2302 H 308.828 -8.36563 -0.598329 0
M  V30 2303 H 307.133 -10.0291 -1.79807 0
M  V30 2304 H 306.943 -10.2138 0.558219 0
M  V30 2305 H 305.312 -9.6579 0.0444202 0
M  V30 2306 H 300.736 -4.12883 -2.05283 0
M  V30 2307 H 305.943 -6.59596 0.745856 0
M  V30 2308 H 300.873 -4.31425 -4.2628 0
M  V30 2309 H 302.249 -5.11219 -5.07148 0
M  V30 2310 H 307.953 -5.69466 -2.79593 0
M  V30 2311 P 309.81 -8.4349 -2.47671 0
M  V30 2312 O 311.232 -8.92593 -2.65 0
M  V30 2313 O 309.45 -7.7568 -1.19296 0
M  V30 2314 O 309.487 -7.36886 -3.63805 0
M  V30 2315 C 309.327 -7.95349 -4.982 0
M  V30 2316 C 309.867 -6.94612 -5.98974 0
M  V30 2317 O 308.811 -6.10347 -6.11815 0
M  V30 2318 C 311.085 -6.11426 -5.62335 0
M  V30 2319 O 311.823 -5.6162 -6.70584 0
M  V30 2320 C 310.416 -5.04409 -4.73308 0
M  V30 2321 O 311.215 -3.85992 -4.75183 0
M  V30 2322 C 309.079 -4.8728 -5.41006 0
M  V30 2323 H 309.111 -4.02333 -6.11157 0
M  V30 2324 H 310.294 -5.39466 -3.69543 0
M  V30 2325 H 311.778 -6.71916 -5.01943 0
M  V30 2326 H 310.084 -7.4649 -6.93477 0
M  V30 2327 H 309.894 -8.89416 -5.05237 0
M  V30 2328 H 308.264 -8.14876 -5.18409 0
M  V30 2329 H 310.903 -3.27957 -5.4317 0
M  V30 2330 P 312.76 -5.75688 -6.64379 0
M  V30 2331 O 314.182 -6.07627 -7.05504 0
M  V30 2332 O 312.4 -5.88047 -5.19722 0
M  V30 2333 O 312.437 -4.2322 -7.04443 0
M  V30 2334 C 312.277 -3.99743 -8.4911 0
M  V30 2335 C 312.817 -2.60516 -8.79425 0
M  V30 2336 O 311.761 -1.82684 -8.4467 0
M  V30 2337 C 314.035 -2.10343 -8.03628 0
M  V30 2338 O 314.773 -1.09919 -8.67766 0
M  V30 2339 C 313.366 -1.68446 -6.70876 0
M  V30 2340 O 314.165 -0.678137 -6.08433 0
M  V30 2341 C 312.029 -1.17436 -7.18567 0
M  V30 2342 H 312.061 -0.0804732 -7.31656 0
M  V30 2343 H 313.244 -2.54037 -6.02537 0
M  V30 2344 H 314.728 -2.93881 -7.85526 0
M  V30 2345 H 313.034 -2.53065 -9.86973 0
M  V30 2346 H 312.844 -4.75072 -9.05887 0
M  V30 2347 H 311.214 -4.05244 -8.76668 0
M  V30 2348 H 313.853 0.177647 -6.34251 0
M  V30 2349 P 315.711 -1.25109 -8.70152 0
M  V30 2350 O 317.133 -1.29744 -9.22016 0
M  V30 2351 O 315.351 -2.13714 -7.55141 0
M  V30 2352 O 315.388 0.248149 -8.21425 0
M  V30 2353 C 315.228 1.22779 -9.30434 0
M  V30 2354 C 315.768 2.56293 -8.80664 0
M  V30 2355 O 314.712 3.02979 -8.09349 0
M  V30 2356 C 316.986 2.57523 -7.89775 0
M  V30 2357 O 317.724 3.7668 -7.89438 0
M  V30 2358 C 316.317 2.20997 -6.55446 0
M  V30 2359 O 317.116 2.71895 -5.48509 0
M  V30 2360 C 314.98 2.89693 -6.67988 0
M  V30 2361 H 315.012 3.88793 -6.19859 0
M  V30 2362 H 316.195 1.12046 -6.44229 0
M  V30 2363 H 317.679 1.7746 -8.19711 0
M  V30 2364 H 315.985 3.20706 -9.67112 0
M  V30 2365 H 315.795 0.901032 -10.1892 0
M  V30 2366 H 314.165 1.33049 -9.56592 0
M  V30 2367 H 316.804 3.57847 -5.23962 0
M  V30 2368 P 318.662 3.65191 -7.99657 0
M  V30 2369 O 320.084 3.89332 -8.45794 0
M  V30 2370 O 318.302 2.28472 -7.50807 0
M  V30 2371 O 318.339 4.64972 -6.77611 0
M  V30 2372 C 318.179 6.06319 -7.16352 0
M  V30 2373 C 318.719 6.91731 -6.02299 0
M  V30 2374 O 317.663 6.92449 -5.17064 0
M  V30 2375 C 319.937 6.43627 -5.25174 0
M  V30 2376 O 320.675 7.43686 -4.60469 0
M  V30 2377 C 319.268 5.40275 -4.31916 0
M  V30 2378 O 320.067 5.25279 -3.14438 0
M  V30 2379 C 317.931 6.04847 -4.05327 0
M  V30 2380 H 317.963 6.62195 -3.11261 0
M  V30 2381 H 319.146 4.42556 -4.81383 0
M  V30 2382 H 320.63 5.92458 -5.93643 0
M  V30 2383 H 318.936 7.92655 -6.402 0
M  V30 2384 H 318.746 6.26671 -8.0846 0
M  V30 2385 H 317.116 6.29101 -7.32804 0
M  V30 2386 H 319.755 5.84315 -2.47318 0
M  V30 2387 P 321.612 7.39546 -4.75277 0
M  V30 2388 O 323.034 7.84798 -5.01039 0
M  V30 2389 O 321.252 5.9812 -5.08098 0
M  V30 2390 O 321.289 7.57503 -3.1866 0
M  V30 2391 C 321.129 8.97357 -2.74833 0
M  V30 2392 C 321.669 9.07548 -1.32709 0
M  V30 2393 O 320.613 8.62072 -0.606159 0
M  V30 2394 C 322.887 8.25383 -0.938334 0
M  V30 2395 O 323.625 8.74577 0.146954 0
M  V30 2396 C 322.218 6.8802 -0.712559 0
M  V30 2397 O 323.017 6.1189 0.194655 0
M  V30 2398 C 320.881 7.27966 -0.139777 0
M  V30 2399 H 320.913 7.25354 0.961601 0
M  V30 2400 H 322.096 6.32557 -1.65702 0
M  V30 2401 H 323.58 8.19355 -1.79097 0
M  V30 2402 H 321.886 10.1294 -1.10029 0
M  V30 2403 H 321.696 9.64276 -3.41316 0
M  V30 2404 H 320.066 9.25417 -2.76357 0
M  V30 2405 H 322.705 6.25267 1.07847 0
M  V30 2406 P 324.563 8.791 1.35267e-12 0
M  V30 2407 O 325.985 9.31096 0.027933 0
M  V30 2408 O 324.203 7.77869 -1.04071 0
M  V30 2409 O 324.24 8.09533 1.41463 0
M  V30 2410 C 324.08 9.0349 2.53943 0
M  V30 2411 C 324.62 8.35226 3.79016 0
M  V30 2412 O 323.564 7.57992 4.15078 0
M  V30 2413 C 325.838 7.45087 3.67298 0
M  V30 2414 O 326.576 7.27796 4.85194 0
M  V30 2415 C 325.169 6.17323 3.12027 0
M  V30 2416 O 325.968 5.04231 3.47188 0
M  V30 2417 C 323.832 6.19961 3.81809 0
M  V30 2418 H 323.864 5.58218 4.73051 0
M  V30 2419 H 325.047 6.21726 2.02589 0
M  V30 2420 H 326.531 7.86112 2.9231 0
M  V30 2421 H 324.837 9.11627 4.55076 0
M  V30 2422 H 324.647 9.9573 2.34194 0
M  V30 2423 H 323.017 9.2792 2.67832 0
M  V30 2424 H 325.656 4.67702 4.28772 0
M  V30 2425 P 327.513 7.39546 4.75277 0
M  V30 2426 O 328.935 7.81777 5.05738 0
M  V30 2427 O 327.153 7.1065 3.32998 0
M  V30 2428 O 327.19 6.04542 5.56673 0
M  V30 2429 C 327.03 6.22772 7.02095 0
M  V30 2430 C 327.57 4.97725 7.70406 0
M  V30 2431 O 326.514 4.13256 7.58987 0
M  V30 2432 C 328.788 4.28231 7.11815 0
M  V30 2433 O 329.526 3.49945 8.01648 0
M  V30 2434 C 328.119 3.5063 5.96244 0
M  V30 2435 O 328.918 2.36482 5.64681 0
M  V30 2436 C 326.782 3.15122 6.56374 0
M  V30 2437 H 326.814 2.13853 6.99751 0
M  V30 2438 H 327.997 4.13501 5.06559 0
M  V30 2439 H 329.481 5.03285 6.70911 0
M  V30 2440 H 327.787 5.20877 8.75697 0
M  V30 2441 H 327.597 7.11046 7.35349 0
M  V30 2442 H 325.967 6.35815 7.26986 0
M  V30 2443 H 328.606 1.61644 6.13565 0
M  V30 2444 P 330.464 3.65191 7.99657 0
M  V30 2445 O 331.886 3.8425 8.48115 0
M  V30 2446 O 330.104 4.17805 6.64342 0
M  V30 2447 O 330.141 2.07613 7.95143 0
M  V30 2448 C 329.981 1.44328 9.27336 0
M  V30 2449 C 330.521 0.0220036 9.17197 0
M  V30 2450 O 329.465 -0.626867 8.61923 0
M  V30 2451 C 331.739 -0.24586 8.30336 0
M  V30 2452 O 332.477 -1.39011 8.63583 0
M  V30 2453 C 331.07 -0.273849 6.91158 0
M  V30 2454 O 331.869 -1.06348 6.02892 0
M  V30 2455 C 329.733 -0.897649 7.22545 0
M  V30 2456 H 329.765 -1.9841 7.04286 0
M  V30 2457 H 330.948 0.739928 6.497 0
M  V30 2458 H 332.432 0.60668 8.36503 0
M  V30 2459 H 330.738 -0.352479 10.1829 0
M  V30 2460 H 330.548 2.00611 10.0304 0
M  V30 2461 H 328.918 1.41843 9.55327 0
M  V30 2462 H 331.557 -1.95734 6.03555 0
M  V30 2463 P 333.414 -1.25109 8.70152 0
M  V30 2464 O 334.836 -1.35274 9.21221 0
M  V30 2465 O 333.054 -0.0769065 7.84762 0
M  V30 2466 O 333.091 -2.55232 7.81161 0
M  V30 2467 C 332.931 -3.79939 8.58154 0
M  V30 2468 C 333.471 -4.94023 7.72785 0
M  V30 2469 O 332.415 -5.18726 6.91205 0
M  V30 2470 C 334.689 -4.69597 6.85231 0
M  V30 2471 O 335.427 -5.83832 6.51337 0
M  V30 2472 C 334.02 -3.96706 5.66633 0
M  V30 2473 O 334.819 -4.15414 4.49689 0
M  V30 2474 C 332.683 -4.66153 5.59313 0
M  V30 2475 H 332.715 -5.47679 4.85214 0
M  V30 2476 H 333.898 -2.89008 5.86566 0
M  V30 2477 H 335.382 -4.0121 7.36511 0
M  V30 2478 H 333.688 -5.80182 8.37584 0
M  V30 2479 H 333.498 -3.73517 9.52265 0
M  V30 2480 H 331.868 -3.97163 8.80359 0
M  V30 2481 H 334.507 -4.90969 4.01921 0
M  V30 2482 P 336.365 -5.75688 6.64379 0
M  V30 2483 O 337.787 -6.11849 7.01846 0
M  V30 2484 O 336.005 -4.30744 6.56026 0
M  V30 2485 O 336.042 -6.37042 5.19165 0
M  V30 2486 C 335.882 -7.83578 5.16515 0
M  V30 2487 C 336.422 -8.33398 3.83019 0
M  V30 2488 O 335.366 -8.10074 3.01034 0
M  V30 2489 C 337.64 -7.65514 3.2257 0
M  V30 2490 O 338.378 -8.4329 2.32297 0
M  V30 2491 C 336.971 -6.40075 2.62207 0
M  V30 2492 O 337.77 -5.92589 1.53712 0
M  V30 2493 C 335.634 -6.9454 2.18503 0
M  V30 2494 H 335.666 -7.23063 1.12091 0
M  V30 2495 H 336.849 -5.6025 3.37201 0
M  V30 2496 H 338.333 -7.35707 4.02681 0
M  V30 2497 H 336.639 -9.40912 3.9095 0
M  V30 2498 H 336.449 -8.29056 5.99158 0
M  V30 2499 H 334.819 -8.10073 5.25882 0
M  V30 2500 H 337.458 -6.30324 0.726794 0
M  V30 2501 P 339.316 -8.4349 2.47671 0
M  V30 2502 O 340.738 -8.94167 2.5964 0
M  V30 2503 O 338.956 -7.1704 3.19006 0
M  V30 2504 O 338.993 -8.16596 0.923387 0
M  V30 2505 C 338.833 -9.38437 0.108857 0
M  V30 2506 C 339.373 -9.08175 -1.28353 0
M  V30 2507 O 338.317 -8.44229 -1.84713 0
M  V30 2508 C 340.591 -8.18386 -1.42505 0
M  V30 2509 O 341.329 -8.3501 -2.60497 0
M  V30 2510 C 339.922 -6.80225 -1.25468 0
M  V30 2511 O 340.721 -5.81621 -1.91066 0
M  V30 2512 C 338.585 -7.02416 -1.9168 0
M  V30 2513 H 338.617 -6.6888 -2.96621 0
M  V30 2514 H 339.8 -6.53617 -0.192223 0
M  V30 2515 H 341.284 -8.36622 -0.589963 0
M  V30 2516 H 339.59 -10.0291 -1.79807 0
M  V30 2517 H 339.4 -10.2138 0.558219 0
M  V30 2518 H 337.77 -9.6579 0.0444202 0
M  V30 2519 H 340.409 -5.69556 -2.79637 0
M  V30 2520 P 342.266 -8.4349 -2.47671 0
M  V30 2521 O 343.688 -8.92593 -2.65 0
M  V30 2522 O 341.906 -7.7568 -1.19296 0
M  V30 2523 O 341.943 -7.36886 -3.63805 0
M  V30 2524 C 341.783 -7.95349 -4.982 0
M  V30 2525 C 342.323 -6.94612 -5.98974 0
M  V30 2526 O 341.267 -6.10347 -6.11815 0
M  V30 2527 C 343.541 -6.11426 -5.62335 0
M  V30 2528 O 344.279 -5.6162 -6.70584 0
M  V30 2529 C 342.872 -5.04409 -4.73308 0
M  V30 2530 O 343.671 -3.85992 -4.75183 0
M  V30 2531 C 341.535 -4.8728 -5.41006 0
M  V30 2532 H 341.567 -4.02333 -6.11157 0
M  V30 2533 H 342.75 -5.39466 -3.69543 0
M  V30 2534 H 344.234 -6.71916 -5.01943 0
M  V30 2535 H 342.54 -7.4649 -6.93477 0
M  V30 2536 H 342.35 -8.89416 -5.05237 0
M  V30 2537 H 340.72 -8.14876 -5.18409 0
M  V30 2538 H 343.359 -3.27957 -5.4317 0
M  V30 2539 P 345.217 -5.75688 -6.64379 0
M  V30 2540 O 346.639 -6.07627 -7.05504 0
M  V30 2541 O 344.857 -5.88047 -5.19722 0
M  V30 2542 O 344.894 -4.2322 -7.04443 0
M  V30 2543 C 344.734 -3.99743 -8.4911 0
M  V30 2544 C 345.274 -2.60516 -8.79425 0
M  V30 2545 O 344.218 -1.82684 -8.4467 0
M  V30 2546 C 346.492 -2.10343 -8.03628 0
M  V30 2547 O 347.23 -1.09919 -8.67766 0
M  V30 2548 C 345.823 -1.68446 -6.70876 0
M  V30 2549 O 346.622 -0.678137 -6.08433 0
M  V30 2550 C 344.486 -1.17436 -7.18567 0
M  V30 2551 H 344.518 -0.0804732 -7.31656 0
M  V30 2552 H 345.701 -2.54037 -6.02537 0
M  V30 2553 H 347.185 -2.93881 -7.85526 0
M  V30 2554 H 345.491 -2.53065 -9.86973 0
M  V30 2555 H 345.301 -4.75072 -9.05887 0
M  V30 2556 H 343.671 -4.05244 -8.76668 0
M  V30 2557 H 346.31 0.177647 -6.34251 0
M  V30 2558 P 348.167 -1.25109 -8.70152 0
M  V30 2559 O 349.589 -1.29744 -9.22016 0
M  V30 2560 O 347.807 -2.13714 -7.55141 0
M  V30 2561 O 347.844 0.248149 -8.21425 0
M  V30 2562 C 347.684 1.22779 -9.30434 0
M  V30 2563 C 348.224 2.56293 -8.80664 0
M  V30 2564 O 347.168 3.02979 -8.09349 0
M  V30 2565 C 349.442 2.57523 -7.89775 0
M  V30 2566 O 350.18 3.7668 -7.89438 0
M  V30 2567 C 348.773 2.20997 -6.55446 0
M  V30 2568 O 349.572 2.71895 -5.48509 0
M  V30 2569 C 347.436 2.89693 -6.67988 0
M  V30 2570 H 347.468 3.88793 -6.19859 0
M  V30 2571 H 348.651 1.12046 -6.44229 0
M  V30 2572 H 350.135 1.7746 -8.19711 0
M  V30 2573 H 348.441 3.20706 -9.67112 0
M  V30 2574 H 348.251 0.901032 -10.1892 0
M  V30 2575 H 346.621 1.33049 -9.56592 0
M  V30 2576 H 349.26 3.57847 -5.23962 0
M  V30 2577 P 351.118 3.65191 -7.99657 0
M  V30 2578 O 352.54 3.89332 -8.45794 0
M  V30 2579 O 350.758 2.28472 -7.50807 0
M  V30 2580 O 350.795 4.64972 -6.77611 0
M  V30 2581 C 350.635 6.06319 -7.16352 0
M  V30 2582 C 351.175 6.91731 -6.02299 0
M  V30 2583 O 350.119 6.92449 -5.17064 0
M  V30 2584 C 352.393 6.43627 -5.25174 0
M  V30 2585 O 353.131 7.43686 -4.60469 0
M  V30 2586 C 351.724 5.40275 -4.31916 0
M  V30 2587 O 352.523 5.25279 -3.14438 0
M  V30 2588 C 350.387 6.04847 -4.05327 0
M  V30 2589 H 350.419 6.62195 -3.11261 0
M  V30 2590 H 351.602 4.42556 -4.81383 0
M  V30 2591 H 353.086 5.92458 -5.93643 0
M  V30 2592 H 351.392 7.92655 -6.402 0
M  V30 2593 H 351.202 6.26671 -8.0846 0
M  V30 2594 H 349.572 6.29101 -7.32804 0
M  V30 2595 H 352.211 5.84315 -2.47318 0
M  V30 2596 P 354.068 7.39546 -4.75277 0
M  V30 2597 O 355.489 7.84882 -5.01092 0
M  V30 2598 O 353.708 5.9812 -5.08098 0
M  V30 2599 O 353.745 7.57503 -3.1866 0
M  V30 2600 C 353.584 8.97452 -2.74862 0
M  V30 2601 C 354.125 9.07548 -1.32709 0
M  V30 2602 O 353.07 8.61972 -0.606089 0
M  V30 2603 C 355.343 8.25383 -0.938334 0
M  V30 2604 O 356.081 8.74577 0.146954 0
M  V30 2605 C 354.675 6.8802 -0.712559 0
M  V30 2606 O 355.473 6.1181 0.188505 0
M  V30 2607 C 353.337 7.27966 -0.139777 0
M  V30 2608 N 352.294 6.39368 -0.623421 0
M  V30 2609 C 352.463 5.71761 -1.78245 0
M  V30 2610 N 351.436 4.962 -2.10491 0
M  V30 2611 C 350.551 5.16158 -1.0635 0
M  V30 2612 C 349.284 4.60425 -0.810266 0
M  V30 2613 N 348.719 5.06 0.348685 0
M  V30 2614 C 349.321 5.94532 1.20395 0
M  V30 2615 N 350.498 6.48452 1.01191 0
M  V30 2616 C 351.073 6.04423 -0.146291 0
M  V30 2617 H 354.552 6.32625 -1.65044 0
M  V30 2618 H 356.035 8.19355 -1.79097 0
M  V30 2619 H 354.341 10.1305 -1.09016 0
M  V30 2620 H 354.151 9.64276 -3.41316 0
M  V30 2621 H 352.521 9.25417 -2.76357 0
M  V30 2622 H 353.363 5.79354 -2.38959 0
M  V30 2623 H 355.161 6.25169 1.0783 0
M  V30 2624 P 357.019 8.791 1.66284e-12 0
M  V30 2625 O 358.441 9.31096 0.027933 0
M  V30 2626 O 356.659 7.77869 -1.04071 0
M  V30 2627 O 356.696 8.09533 1.41463 0
M  V30 2628 C 356.536 9.0349 2.53943 0
M  V30 2629 C 357.076 8.35226 3.79016 0
M  V30 2630 O 356.02 7.57992 4.15078 0
M  V30 2631 C 358.294 7.45087 3.67298 0
M  V30 2632 O 359.032 7.27796 4.85194 0
M  V30 2633 C 357.625 6.17323 3.12027 0
M  V30 2634 O 358.424 5.04231 3.47188 0
M  V30 2635 C 356.288 6.19961 3.81809 0
M  V30 2636 H 356.32 5.58218 4.73051 0
M  V30 2637 H 357.503 6.21726 2.02589 0
M  V30 2638 H 358.987 7.86112 2.9231 0
M  V30 2639 H 357.293 9.11627 4.55076 0
M  V30 2640 H 357.103 9.9573 2.34194 0
M  V30 2641 H 355.473 9.2792 2.67832 0
M  V30 2642 H 358.112 4.67702 4.28772 0
M  V30 2643 P 359.97 7.39546 4.75277 0
M  V30 2644 O 361.392 7.81777 5.05738 0
M  V30 2645 O 359.61 7.1065 3.32998 0
M  V30 2646 O 359.647 6.04542 5.56673 0
M  V30 2647 C 359.487 6.22772 7.02095 0
M  V30 2648 C 360.027 4.97725 7.70406 0
M  V30 2649 O 358.971 4.13256 7.58987 0
M  V30 2650 C 361.245 4.28231 7.11815 0
M  V30 2651 O 361.983 3.49945 8.01648 0
M  V30 2652 C 360.576 3.5063 5.96244 0
M  V30 2653 O 361.375 2.36482 5.64681 0
M  V30 2654 C 359.239 3.15122 6.56374 0
M  V30 2655 H 359.271 2.13853 6.99751 0
M  V30 2656 H 360.454 4.13501 5.06559 0
M  V30 2657 H 361.938 5.03285 6.70911 0
M  V30 2658 H 360.244 5.20877 8.75697 0
M  V30 2659 H 360.054 7.11046 7.35349 0
M  V30 2660 H 358.424 6.35815 7.26986 0
M  V30 2661 H 361.063 1.61644 6.13565 0
M  V30 2662 P 362.92 3.65191 7.99657 0
M  V30 2663 O 364.342 3.8425 8.48115 0
M  V30 2664 O 362.56 4.17805 6.64342 0
M  V30 2665 O 362.597 2.07613 7.95143 0
M  V30 2666 C 362.437 1.44328 9.27336 0
M  V30 2667 C 362.977 0.0220036 9.17197 0
M  V30 2668 O 361.921 -0.626867 8.61923 0
M  V30 2669 C 364.195 -0.24586 8.30336 0
M  V30 2670 O 364.933 -1.39011 8.63583 0
M  V30 2671 C 363.526 -0.273849 6.91158 0
M  V30 2672 O 364.325 -1.06348 6.02892 0
M  V30 2673 C 362.189 -0.897649 7.22545 0
M  V30 2674 H 362.221 -1.9841 7.04286 0
M  V30 2675 H 363.404 0.739928 6.497 0
M  V30 2676 H 364.888 0.60668 8.36503 0
M  V30 2677 H 363.194 -0.352479 10.1829 0
M  V30 2678 H 363.004 2.00611 10.0304 0
M  V30 2679 H 361.374 1.41843 9.55327 0
M  V30 2680 H 364.013 -1.95734 6.03555 0
M  V30 2681 P 365.871 -1.25109 8.70152 0
M  V30 2682 O 367.293 -1.35274 9.21221 0
M  V30 2683 O 365.511 -0.0769065 7.84762 0
M  V30 2684 O 365.548 -2.55232 7.81161 0
M  V30 2685 C 365.388 -3.79939 8.58154 0
M  V30 2686 C 365.928 -4.94023 7.72785 0
M  V30 2687 O 364.872 -5.18726 6.91205 0
M  V30 2688 C 367.146 -4.69597 6.85231 0
M  V30 2689 O 367.884 -5.83832 6.51337 0
M  V30 2690 C 366.477 -3.96706 5.66633 0
M  V30 2691 O 367.276 -4.15414 4.49689 0
M  V30 2692 C 365.14 -4.66153 5.59313 0
M  V30 2693 H 365.172 -5.47679 4.85214 0
M  V30 2694 H 366.355 -2.89008 5.86566 0
M  V30 2695 H 367.839 -4.0121 7.36511 0
M  V30 2696 H 366.145 -5.80182 8.37584 0
M  V30 2697 H 365.955 -3.73517 9.52265 0
M  V30 2698 H 364.325 -3.97163 8.80359 0
M  V30 2699 H 366.964 -4.90969 4.01921 0
M  V30 2700 P 368.821 -5.75688 6.64379 0
M  V30 2701 O 370.242 -6.11915 7.01921 0
M  V30 2702 O 368.461 -4.30744 6.56026 0
M  V30 2703 O 368.498 -6.37042 5.19165 0
M  V30 2704 C 368.337 -7.83662 5.1657 0
M  V30 2705 C 368.878 -8.33398 3.83019 0
M  V30 2706 O 367.823 -8.0998 3.00999 0
M  V30 2707 C 370.096 -7.65514 3.2257 0
M  V30 2708 O 370.834 -8.4329 2.32297 0
M  V30 2709 C 369.428 -6.40075 2.62207 0
M  V30 2710 O 370.226 -5.92338 1.5428 0
M  V30 2711 C 368.09 -6.9454 2.18503 0
M  V30 2712 N 367.047 -5.95905 2.39948 0
M  V30 2713 C 367.216 -4.98383 3.32108 0
M  V30 2714 N 366.189 -4.16798 3.41761 0
M  V30 2715 C 365.304 -4.65287 2.47461 0
M  V30 2716 C 364.037 -4.18946 2.07461 0
M  V30 2717 N 363.438 -3.09661 2.60717 0
M  V30 2718 N 363.472 -4.95327 1.09101 0
M  V30 2719 C 364.074 -6.04369 0.519812 0
M  V30 2720 N 365.251 -6.50694 0.855982 0
M  V30 2721 C 365.826 -5.75818 1.84322 0
M  V30 2722 H 368.122 -7.22964 1.12076 0
M  V30 2723 H 369.305 -5.60502 3.36589 0
M  V30 2724 H 370.788 -7.35707 4.02681 0
M  V30 2725 H 369.094 -9.41302 3.90009 0
M  V30 2726 H 368.904 -8.29056 5.99158 0
M  V30 2727 H 367.274 -8.10073 5.25882 0
M  V30 2728 H 363.538 -6.55843 -0.270373 0
M  V30 2729 H 368.116 -4.88564 3.92502 0
M  V30 2730 H 362.508 -2.80523 2.27218 0
M  V30 2731 H 363.912 -2.55848 3.34465 0
M  V30 2732 H 369.914 -6.30224 0.72668 0
M  V30 2733 P 371.772 -8.4349 2.47671 0
M  V30 2734 O 373.194 -8.94167 2.5964 0
M  V30 2735 O 371.412 -7.1704 3.19006 0
M  V30 2736 O 371.449 -8.16596 0.923387 0
M  V30 2737 C 371.289 -9.38437 0.108857 0
M  V30 2738 C 371.829 -9.08175 -1.28353 0
M  V30 2739 O 370.773 -8.44229 -1.84713 0
M  V30 2740 C 373.047 -8.18386 -1.42505 0
M  V30 2741 O 373.785 -8.3501 -2.60497 0
M  V30 2742 C 372.378 -6.80225 -1.25468 0
M  V30 2743 O 373.177 -5.81621 -1.91066 0
M  V30 2744 C 371.041 -7.02416 -1.9168 0
M  V30 2745 H 371.073 -6.6888 -2.96621 0
M  V30 2746 H 372.256 -6.53617 -0.192223 0
M  V30 2747 H 373.74 -8.36622 -0.589963 0
M  V30 2748 H 372.046 -10.0291 -1.79807 0
M  V30 2749 H 371.856 -10.2138 0.558219 0
M  V30 2750 H 370.226 -9.6579 0.0444202 0
M  V30 2751 H 372.865 -5.69556 -2.79637 0
M  V30 2752 P 374.722 -8.4349 -2.47671 0
M  V30 2753 O 376.144 -8.92593 -2.65 0
M  V30 2754 O 374.362 -7.7568 -1.19296 0
M  V30 2755 O 374.399 -7.36886 -3.63805 0
M  V30 2756 C 374.239 -7.95349 -4.982 0
M  V30 2757 C 374.779 -6.94612 -5.98974 0
M  V30 2758 O 373.723 -6.10347 -6.11815 0
M  V30 2759 C 375.997 -6.11426 -5.62335 0
M  V30 2760 O 376.735 -5.6162 -6.70584 0
M  V30 2761 C 375.328 -5.04409 -4.73308 0
M  V30 2762 O 376.127 -3.85992 -4.75183 0
M  V30 2763 C 373.991 -4.8728 -5.41006 0
M  V30 2764 H 374.023 -4.02333 -6.11157 0
M  V30 2765 H 375.206 -5.39466 -3.69543 0
M  V30 2766 H 376.69 -6.71916 -5.01943 0
M  V30 2767 H 374.996 -7.4649 -6.93477 0
M  V30 2768 H 374.806 -8.89416 -5.05237 0
M  V30 2769 H 373.176 -8.14876 -5.18409 0
M  V30 2770 H 375.815 -3.27957 -5.4317 0
M  V30 2771 P 377.673 -5.75688 -6.64379 0
M  V30 2772 O 379.094 -6.07692 -7.0558 0
M  V30 2773 O 377.313 -5.88047 -5.19722 0
M  V30 2774 O 377.35 -4.2322 -7.04443 0
M  V30 2775 C 377.189 -3.99785 -8.49201 0
M  V30 2776 C 377.73 -2.60516 -8.79425 0
M  V30 2777 O 376.675 -1.82663 -8.44573 0
M  V30 2778 C 378.948 -2.10343 -8.03628 0
M  V30 2779 O 379.686 -1.09919 -8.67766 0
M  V30 2780 C 378.28 -1.68446 -6.70876 0
M  V30 2781 O 379.078 -0.684109 -6.08265 0
M  V30 2782 C 376.942 -1.17436 -7.18567 0
M  V30 2783 N 375.899 -1.52699 -6.23988 0
M  V30 2784 C 376.068 -2.578 -5.40574 0
M  V30 2785 N 375.041 -2.78966 -4.61193 0
M  V30 2786 C 374.156 -1.78725 -4.95769 0
M  V30 2787 C 372.889 -1.45727 -4.44207 0
M  V30 2788 N 372.324 -0.374977 -5.05812 0
M  V30 2789 C 372.926 0.345585 -6.05615 0
M  V30 2790 N 374.103 0.0787651 -6.56253 0
M  V30 2791 C 374.678 -1.00499 -5.96189 0
M  V30 2792 H 378.157 -2.53396 -6.02698 0
M  V30 2793 H 379.64 -2.93881 -7.85526 0
M  V30 2794 H 377.946 -2.52078 -9.87225 0
M  V30 2795 H 377.756 -4.75072 -9.05887 0
M  V30 2796 H 376.126 -4.05244 -8.76668 0
M  V30 2797 H 376.968 -3.18977 -5.3945 0
M  V30 2798 H 378.766 0.177619 -6.34151 0
M  V30 2799 P 380.624 -1.25109 -8.70152 0
M  V30 2800 O 382.046 -1.29744 -9.22016 0
M  V30 2801 O 380.264 -2.13714 -7.55141 0
M  V30 2802 O 380.301 0.248149 -8.21425 0
M  V30 2803 C 380.141 1.22779 -9.30434 0
M  V30 2804 C 380.681 2.56293 -8.80664 0
M  V30 2805 O 379.625 3.02979 -8.09349 0
M  V30 2806 C 381.899 2.57523 -7.89775 0
M  V30 2807 O 382.637 3.7668 -7.89438 0
M  V30 2808 C 381.23 2.20997 -6.55446 0
M  V30 2809 O 382.029 2.71895 -5.48509 0
M  V30 2810 C 379.893 2.89693 -6.67988 0
M  V30 2811 H 379.925 3.88793 -6.19859 0
M  V30 2812 H 381.108 1.12046 -6.44229 0
M  V30 2813 H 382.592 1.7746 -8.19711 0
M  V30 2814 H 380.898 3.20706 -9.67112 0
M  V30 2815 H 380.708 0.901032 -10.1892 0
M  V30 2816 H 379.078 1.33049 -9.56592 0
M  V30 2817 H 381.717 3.57847 -5.23962 0
M  V30 2818 P 383.574 3.65191 -7.99657 0
M  V30 2819 O 384.996 3.89332 -8.45794 0
M  V30 2820 O 383.214 2.28472 -7.50807 0
M  V30 2821 O 383.251 4.64972 -6.77611 0
M  V30 2822 C 383.091 6.06319 -7.16352 0
M  V30 2823 C 383.631 6.91731 -6.02299 0
M  V30 2824 O 382.575 6.92449 -5.17064 0
M  V30 2825 C 384.849 6.43627 -5.25174 0
M  V30 2826 O 385.587 7.43686 -4.60469 0
M  V30 2827 C 384.18 5.40275 -4.31916 0
M  V30 2828 O 384.979 5.25279 -3.14438 0
M  V30 2829 C 382.843 6.04847 -4.05327 0
M  V30 2830 H 382.875 6.62195 -3.11261 0
M  V30 2831 H 384.058 4.42556 -4.81383 0
M  V30 2832 H 385.542 5.92458 -5.93643 0
M  V30 2833 H 383.848 7.92655 -6.402 0
M  V30 2834 H 383.658 6.26671 -8.0846 0
M  V30 2835 H 382.028 6.29101 -7.32804 0
M  V30 2836 H 384.667 5.84315 -2.47318 0
M  V30 2837 P 386.525 7.39546 -4.75277 0
M  V30 2838 O 387.947 7.84798 -5.01039 0
M  V30 2839 O 386.165 5.9812 -5.08098 0
M  V30 2840 O 386.202 7.57503 -3.1866 0
M  V30 2841 C 386.042 8.97357 -2.74833 0
M  V30 2842 C 386.582 9.07548 -1.32709 0
M  V30 2843 O 385.526 8.62072 -0.606159 0
M  V30 2844 C 387.8 8.25383 -0.938334 0
M  V30 2845 O 388.538 8.74577 0.146954 0
M  V30 2846 C 387.131 6.8802 -0.712559 0
M  V30 2847 O 387.93 6.1189 0.194655 0
M  V30 2848 C 385.794 7.27966 -0.139777 0
M  V30 2849 H 385.826 7.25354 0.961601 0
M  V30 2850 H 387.009 6.32557 -1.65702 0
M  V30 2851 H 388.493 8.19355 -1.79097 0
M  V30 2852 H 386.799 10.1294 -1.10029 0
M  V30 2853 H 386.609 9.64276 -3.41316 0
M  V30 2854 H 384.979 9.25417 -2.76357 0
M  V30 2855 H 387.618 6.25267 1.07847 0
M  V30 2856 P 389.475 8.791 1.973e-12 0
M  V30 2857 O 390.897 9.31096 0.027933 0
M  V30 2858 O 389.115 7.77869 -1.04071 0
M  V30 2859 O 389.152 8.09533 1.41463 0
M  V30 2860 C 388.992 9.0349 2.53943 0
M  V30 2861 C 389.532 8.35226 3.79016 0
M  V30 2862 O 388.476 7.57992 4.15078 0
M  V30 2863 C 390.75 7.45087 3.67298 0
M  V30 2864 O 391.488 7.27796 4.85194 0
M  V30 2865 C 390.081 6.17323 3.12027 0
M  V30 2866 O 390.88 5.04231 3.47188 0
M  V30 2867 C 388.744 6.19961 3.81809 0
M  V30 2868 H 388.776 5.58218 4.73051 0
M  V30 2869 H 389.959 6.21726 2.02589 0
M  V30 2870 H 391.443 7.86112 2.9231 0
M  V30 2871 H 389.749 9.11627 4.55076 0
M  V30 2872 H 389.559 9.9573 2.34194 0
M  V30 2873 H 387.929 9.2792 2.67832 0
M  V30 2874 H 390.568 4.67702 4.28772 0
M  V30 2875 P 392.426 7.39546 4.75277 0
M  V30 2876 O 393.848 7.81777 5.05738 0
M  V30 2877 O 392.066 7.1065 3.32998 0
M  V30 2878 O 392.103 6.04542 5.56673 0
M  V30 2879 C 391.943 6.22772 7.02095 0
M  V30 2880 C 392.483 4.97725 7.70406 0
M  V30 2881 O 391.427 4.13256 7.58987 0
M  V30 2882 C 393.701 4.28231 7.11815 0
M  V30 2883 O 394.439 3.49945 8.01648 0
M  V30 2884 C 393.032 3.5063 5.96244 0
M  V30 2885 O 393.831 2.36482 5.64681 0
M  V30 2886 C 391.695 3.15122 6.56374 0
M  V30 2887 H 391.727 2.13853 6.99751 0
M  V30 2888 H 392.91 4.13501 5.06559 0
M  V30 2889 H 394.394 5.03285 6.70911 0
M  V30 2890 H 392.7 5.20877 8.75697 0
M  V30 2891 H 392.51 7.11046 7.35349 0
M  V30 2892 H 390.88 6.35815 7.26986 0
M  V30 2893 H 393.519 1.61644 6.13565 0
M  V30 2894 P 395.376 3.65191 7.99657 0
M  V30 2895 O 396.798 3.8425 8.48115 0
M  V30 2896 O 395.016 4.17805 6.64342 0
M  V30 2897 O 395.053 2.07613 7.95143 0
M  V30 2898 C 394.893 1.44328 9.27336 0
M  V30 2899 C 395.433 0.0220036 9.17197 0
M  V30 2900 O 394.377 -0.626867 8.61923 0
M  V30 2901 C 396.651 -0.24586 8.30336 0
M  V30 2902 O 397.389 -1.39011 8.63583 0
M  V30 2903 C 395.982 -0.273849 6.91158 0
M  V30 2904 O 396.781 -1.06348 6.02892 0
M  V30 2905 C 394.645 -0.897649 7.22545 0
M  V30 2906 H 394.677 -1.9841 7.04286 0
M  V30 2907 H 395.86 0.739928 6.497 0
M  V30 2908 H 397.344 0.60668 8.36503 0
M  V30 2909 H 395.65 -0.352479 10.1829 0
M  V30 2910 H 395.46 2.00611 10.0304 0
M  V30 2911 H 393.83 1.41843 9.55327 0
M  V30 2912 H 396.469 -1.95734 6.03555 0
M  V30 2913 P 398.327 -1.25109 8.70152 0
M  V30 2914 O 399.749 -1.35274 9.21221 0
M  V30 2915 O 397.967 -0.0769065 7.84762 0
M  V30 2916 O 398.004 -2.55232 7.81161 0
M  V30 2917 C 397.844 -3.79939 8.58154 0
M  V30 2918 C 398.384 -4.94023 7.72785 0
M  V30 2919 O 397.328 -5.18726 6.91205 0
M  V30 2920 C 399.602 -4.69597 6.85231 0
M  V30 2921 O 400.34 -5.83832 6.51337 0
M  V30 2922 C 398.933 -3.96706 5.66633 0
M  V30 2923 O 399.732 -4.15414 4.49689 0
M  V30 2924 C 397.596 -4.66153 5.59313 0
M  V30 2925 H 397.628 -5.47679 4.85214 0
M  V30 2926 H 398.811 -2.89008 5.86566 0
M  V30 2927 H 400.295 -4.0121 7.36511 0
M  V30 2928 H 398.601 -5.80182 8.37584 0
M  V30 2929 H 398.411 -3.73517 9.52265 0
M  V30 2930 H 396.781 -3.97163 8.80359 0
M  V30 2931 H 399.42 -4.90969 4.01921 0
M  V30 2932 P 401.278 -5.75688 6.64379 0
M  V30 2933 O 402.7 -6.11849 7.01846 0
M  V30 2934 O 400.918 -4.30744 6.56026 0
M  V30 2935 O 400.955 -6.37042 5.19165 0
M  V30 2936 C 400.795 -7.83578 5.16515 0
M  V30 2937 C 401.335 -8.33398 3.83019 0
M  V30 2938 O 400.279 -8.10074 3.01034 0
M  V30 2939 C 402.553 -7.65514 3.2257 0
M  V30 2940 O 403.291 -8.4329 2.32297 0
M  V30 2941 C 401.884 -6.40075 2.62207 0
M  V30 2942 O 402.683 -5.92589 1.53712 0
M  V30 2943 C 400.547 -6.9454 2.18503 0
M  V30 2944 H 400.579 -7.23063 1.12091 0
M  V30 2945 H 401.762 -5.6025 3.37201 0
M  V30 2946 H 403.246 -7.35707 4.02681 0
M  V30 2947 H 401.552 -9.40912 3.9095 0
M  V30 2948 H 401.362 -8.29056 5.99158 0
M  V30 2949 H 399.732 -8.10073 5.25882 0
M  V30 2950 H 402.371 -6.30324 0.726794 0
M  V30 2951 P 404.228 -8.4349 2.47671 0
M  V30 2952 O 405.649 -8.94263 2.59668 0
M  V30 2953 O 403.868 -7.1704 3.19006 0
M  V30 2954 O 403.905 -8.16596 0.923387 0
M  V30 2955 C 403.744 -9.38537 0.108869 0
M  V30 2956 C 404.285 -9.08175 -1.28353 0
M  V30 2957 O 403.23 -8.44131 -1.84692 0
M  V30 2958 C 405.503 -8.18386 -1.42505 0
M  V30 2959 O 406.241 -8.3501 -2.60497 0
M  V30 2960 C 404.835 -6.80225 -1.25468 0
M  V30 2961 O 405.633 -5.81716 -1.90454 0
M  V30 2962 C 403.497 -7.02416 -1.9168 0
M  V30 2963 N 402.454 -6.31033 -1.20314 0
M  V30 2964 C 402.623 -5.98817 0.0994088 0
M  V30 2965 N 401.596 -5.35403 0.621694 0
M  V30 2966 C 400.711 -5.25212 -0.43376 0
M  V30 2967 C 399.444 -4.64602 -0.519722 0
M  V30 2968 N 398.845 -4.01457 0.519136 0
M  V30 2969 N 398.879 -4.7568 -1.76013 0
M  V30 2970 C 399.481 -5.3653 -2.83017 0
M  V30 2971 N 400.658 -5.93676 -2.79782 0
M  V30 2972 C 401.233 -5.84061 -1.56249 0
M  V30 2973 H 403.529 -6.68789 -2.9658 0
M  V30 2974 H 404.712 -6.53498 -0.198729 0
M  V30 2975 H 406.195 -8.36622 -0.589963 0
M  V30 2976 H 404.501 -10.0273 -1.8081 0
M  V30 2977 H 404.311 -10.2138 0.558219 0
M  V30 2978 H 402.681 -9.6579 0.0444202 0
M  V30 2979 H 398.945 -5.37113 -3.77321 0
M  V30 2980 H 403.523 -6.23209 0.660562 0
M  V30 2981 H 397.915 -3.58834 0.394862 0
M  V30 2982 H 399.319 -3.96059 1.43048 0
M  V30 2983 H 405.321 -5.69466 -2.79593 0
M  V30 2984 P 407.179 -8.4349 -2.47671 0
M  V30 2985 O 408.601 -8.92593 -2.65 0
M  V30 2986 O 406.819 -7.7568 -1.19296 0
M  V30 2987 O 406.856 -7.36886 -3.63805 0
M  V30 2988 C 406.696 -7.95349 -4.982 0
M  V30 2989 C 407.236 -6.94612 -5.98974 0
M  V30 2990 O 406.18 -6.10347 -6.11815 0
M  V30 2991 C 408.454 -6.11426 -5.62335 0
M  V30 2992 O 409.192 -5.6162 -6.70584 0
M  V30 2993 C 407.785 -5.04409 -4.73308 0
M  V30 2994 O 408.584 -3.85992 -4.75183 0
M  V30 2995 C 406.448 -4.8728 -5.41006 0
M  V30 2996 H 406.48 -4.02333 -6.11157 0
M  V30 2997 H 407.663 -5.39466 -3.69543 0
M  V30 2998 H 409.147 -6.71916 -5.01943 0
M  V30 2999 H 407.453 -7.4649 -6.93477 0
M  V30 3000 H 407.263 -8.89416 -5.05237 0
M  V30 3001 H 405.633 -8.14876 -5.18409 0
M  V30 3002 H 408.272 -3.27957 -5.4317 0
M  V30 3003 P 410.129 -5.75688 -6.64379 0
M  V30 3004 O 411.551 -6.07627 -7.05504 0
M  V30 3005 O 409.769 -5.88047 -5.19722 0
M  V30 3006 O 409.806 -4.2322 -7.04443 0
M  V30 3007 C 409.646 -3.99743 -8.4911 0
M  V30 3008 C 410.186 -2.60516 -8.79425 0
M  V30 3009 O 409.13 -1.82684 -8.4467 0
M  V30 3010 C 411.404 -2.10343 -8.03628 0
M  V30 3011 O 412.142 -1.09919 -8.67766 0
M  V30 3012 C 410.735 -1.68446 -6.70876 0
M  V30 3013 O 411.534 -0.678137 -6.08433 0
M  V30 3014 C 409.398 -1.17436 -7.18567 0
M  V30 3015 H 409.43 -0.0804732 -7.31656 0
M  V30 3016 H 410.613 -2.54037 -6.02537 0
M  V30 3017 H 412.097 -2.93881 -7.85526 0
M  V30 3018 H 410.403 -2.53065 -9.86973 0
M  V30 3019 H 410.213 -4.75072 -9.05887 0
M  V30 3020 H 408.583 -4.05244 -8.76668 0
M  V30 3021 H 411.222 0.177647 -6.34251 0
M  V30 3022 P 413.08 -1.25109 -8.70152 0
M  V30 3023 O 414.502 -1.29744 -9.22016 0
M  V30 3024 O 412.72 -2.13714 -7.55141 0
M  V30 3025 O 412.757 0.248149 -8.21425 0
M  V30 3026 C 412.597 1.22779 -9.30434 0
M  V30 3027 C 413.137 2.56293 -8.80664 0
M  V30 3028 O 412.081 3.02979 -8.09349 0
M  V30 3029 C 414.355 2.57523 -7.89775 0
M  V30 3030 O 415.093 3.7668 -7.89438 0
M  V30 3031 C 413.686 2.20997 -6.55446 0
M  V30 3032 O 414.485 2.71895 -5.48509 0
M  V30 3033 C 412.349 2.89693 -6.67988 0
M  V30 3034 H 412.381 3.88793 -6.19859 0
M  V30 3035 H 413.564 1.12046 -6.44229 0
M  V30 3036 H 415.048 1.7746 -8.19711 0
M  V30 3037 H 413.354 3.20706 -9.67112 0
M  V30 3038 H 413.164 0.901032 -10.1892 0
M  V30 3039 H 411.534 1.33049 -9.56592 0
M  V30 3040 H 414.173 3.57847 -5.23962 0
M  V30 3041 P 416.03 3.65191 -7.99657 0
M  V30 3042 O 417.431 3.87414 -8.52829 0
M  V30 3043 O 415.652 2.26932 -7.566 0
M  V30 3044 O 415.707 4.64915 -6.77529 0
M  V30 3045 C 415.547 6.06319 -7.16352 0
M  V30 3046 C 416.087 6.91655 -6.02234 0
M  V30 3047 O 415.031 6.92369 -5.17005 0
M  V30 3048 C 417.304 6.43627 -5.25174 0
M  V30 3049 O 418.043 7.43686 -4.60469 0
M  V30 3050 C 416.637 5.40275 -4.31916 0
M  V30 3051 O 417.435 5.25193 -3.14386 0
M  V30 3052 C 415.299 6.04847 -4.05327 0
M  V30 3053 N 414.256 5.04166 -3.98114 0
M  V30 3054 C 413.221 5.2366 -3.09923 0
M  V30 3055 O 413.26 6.23355 -2.34204 0
M  V30 3056 N 412.209 4.34279 -3.05727 0
M  V30 3057 C 412.257 3.26317 -3.84756 0
M  V30 3058 C 413.353 3.02504 -4.72573 0
M  V30 3059 C 414.319 3.94493 -4.76618 0
M  V30 3060 H 415.331 6.62104 -3.11218 0
M  V30 3061 H 416.514 4.42969 -4.80867 0
M  V30 3062 H 417.998 5.93122 -5.93121 0
M  V30 3063 H 416.304 7.93295 -6.39407 0
M  V30 3064 H 416.113 6.26671 -8.0846 0
M  V30 3065 H 414.483 6.29036 -7.32728 0
M  V30 3066 H 413.401 2.12921 -5.34017 0
M  V30 3067 H 415.165 3.80658 -5.44176 0
M  V30 3068 H 417.219 5.93572 -2.52637 0
M  V30 3069 P 418.981 7.39546 -4.75277 0
M  V30 3070 O 420.403 7.84798 -5.01039 0
M  V30 3071 O 418.621 5.9812 -5.08098 0
M  V30 3072 O 418.658 7.57503 -3.1866 0
M  V30 3073 C 418.498 8.97357 -2.74833 0
M  V30 3074 C 419.038 9.07548 -1.32709 0
M  V30 3075 O 417.982 8.62072 -0.606159 0
M  V30 3076 C 420.256 8.25383 -0.938334 0
M  V30 3077 O 420.994 8.74577 0.146954 0
M  V30 3078 C 419.587 6.8802 -0.712559 0
M  V30 3079 O 420.386 6.1189 0.194655 0
M  V30 3080 C 418.25 7.27966 -0.139777 0
M  V30 3081 H 418.282 7.25354 0.961601 0
M  V30 3082 H 419.465 6.32557 -1.65702 0
M  V30 3083 H 420.949 8.19355 -1.79097 0
M  V30 3084 H 419.255 10.1294 -1.10029 0
M  V30 3085 H 419.065 9.64276 -3.41316 0
M  V30 3086 H 417.435 9.25417 -2.76357 0
M  V30 3087 H 420.074 6.25267 1.07847 0
M  V30 3088 P 421.932 8.791 2.28317e-12 0
M  V30 3089 O 423.353 9.31196 0.027936 0
M  V30 3090 O 421.572 7.77869 -1.04071 0
M  V30 3091 O 421.609 8.09533 1.41463 0
M  V30 3092 C 421.448 9.03587 2.5397 0
M  V30 3093 C 421.989 8.35226 3.79016 0
M  V30 3094 O 420.934 7.57904 4.1503 0
M  V30 3095 C 423.207 7.45087 3.67298 0
M  V30 3096 O 423.945 7.27796 4.85194 0
M  V30 3097 C 422.539 6.17323 3.12027 0
M  V30 3098 O 423.337 5.04496 3.46627 0
M  V30 3099 C 421.201 6.19961 3.81809 0
M  V30 3100 N 420.158 5.71575 2.93223 0
M  V30 3101 C 420.327 5.77362 1.59168 0
M  V30 3102 N 419.3 5.3123 0.911893 0
M  V30 3103 C 418.415 4.91717 1.89588 0
M  V30 3104 C 417.148 4.3114 1.8076 0
M  V30 3105 N 416.549 3.99821 0.632928 0
M  V30 3106 N 416.583 4.06823 3.02898 0
M  V30 3107 C 417.185 4.35062 4.22711 0
M  V30 3108 N 418.362 4.90805 4.35707 0
M  V30 3109 C 418.937 5.16382 3.14469 0
M  V30 3110 H 421.233 5.58142 4.72986 0
M  V30 3111 H 422.416 6.21428 2.0318 0
M  V30 3112 H 423.899 7.86112 2.9231 0
M  V30 3113 H 422.205 9.11171 4.55987 0
M  V30 3114 H 422.015 9.9573 2.34194 0
M  V30 3115 H 420.385 9.2792 2.67832 0
M  V30 3116 H 416.649 4.09052 5.13359 0
M  V30 3117 H 421.227 6.16575 1.12198 0
M  V30 3118 H 415.619 3.55423 0.632085 0
M  V30 3119 H 417.023 4.20317 -0.256712 0
M  V30 3120 H 423.025 4.67628 4.28704 0
M  V30 3121 P 424.882 7.39546 4.75277 0
M  V30 3122 O 426.304 7.81777 5.05738 0
M  V30 3123 O 424.522 7.1065 3.32998 0
M  V30 3124 O 424.559 6.04542 5.56673 0
M  V30 3125 C 424.399 6.22772 7.02095 0
M  V30 3126 C 424.939 4.97725 7.70406 0
M  V30 3127 O 423.883 4.13256 7.58987 0
M  V30 3128 C 426.157 4.28231 7.11815 0
M  V30 3129 O 426.895 3.49945 8.01648 0
M  V30 3130 C 425.488 3.5063 5.96244 0
M  V30 3131 O 426.287 2.36482 5.64681 0
M  V30 3132 C 424.151 3.15122 6.56374 0
M  V30 3133 H 424.183 2.13853 6.99751 0
M  V30 3134 H 425.366 4.13501 5.06559 0
M  V30 3135 H 426.85 5.03285 6.70911 0
M  V30 3136 H 425.156 5.20877 8.75697 0
M  V30 3137 H 424.966 7.11046 7.35349 0
M  V30 3138 H 423.336 6.35815 7.26986 0
M  V30 3139 H 425.975 1.61644 6.13565 0
M  V30 3140 P 427.833 3.65191 7.99657 0
M  V30 3141 O 429.254 3.84292 8.48206 0
M  V30 3142 O 427.473 4.17805 6.64342 0
M  V30 3143 O 427.51 2.07613 7.95143 0
M  V30 3144 C 427.349 1.44344 9.27435 0
M  V30 3145 C 427.89 0.0220036 9.17197 0
M  V30 3146 O 426.835 -0.626794 8.61824 0
M  V30 3147 C 429.108 -0.24586 8.30336 0
M  V30 3148 O 429.846 -1.39011 8.63583 0
M  V30 3149 C 428.44 -0.273849 6.91158 0
M  V30 3150 O 429.238 -1.05728 6.029 0
M  V30 3151 C 427.102 -0.897649 7.22545 0
M  V30 3152 N 426.059 -0.292839 6.41732 0
M  V30 3153 C 426.228 0.950603 5.91308 0
M  V30 3154 N 425.201 1.37732 5.21105 0
M  V30 3155 C 424.316 0.318109 5.26039 0
M  V30 3156 C 423.049 0.146766 4.6727 0
M  V30 3157 N 422.484 -1.06525 4.95887 0
M  V30 3158 C 423.086 -2.0378 5.71347 0
M  V30 3159 N 424.263 -1.92445 6.27451 0
M  V30 3160 C 424.838 -0.715382 6.00353 0
M  V30 3161 H 428.317 0.733318 6.49674 0
M  V30 3162 H 429.8 0.60668 8.36503 0
M  V30 3163 H 428.106 -0.362662 10.1825 0
M  V30 3164 H 427.916 2.00611 10.0304 0
M  V30 3165 H 426.286 1.41843 9.55327 0
M  V30 3166 H 427.128 1.54076 6.07465 0
M  V30 3167 H 428.926 -1.95704 6.0346 0
M  V30 3168 P 430.783 -1.25109 8.70152 0
M  V30 3169 O 432.205 -1.35274 9.21221 0
M  V30 3170 O 430.423 -0.0769065 7.84762 0
M  V30 3171 O 430.46 -2.55232 7.81161 0
M  V30 3172 C 430.3 -3.79939 8.58154 0
M  V30 3173 C 430.84 -4.94023 7.72785 0
M  V30 3174 O 429.784 -5.18726 6.91205 0
M  V30 3175 C 432.058 -4.69597 6.85231 0
M  V30 3176 O 432.796 -5.83832 6.51337 0
M  V30 3177 C 431.389 -3.96706 5.66633 0
M  V30 3178 O 432.188 -4.15414 4.49689 0
M  V30 3179 C 430.052 -4.66153 5.59313 0
M  V30 3180 H 430.084 -5.47679 4.85214 0
M  V30 3181 H 431.267 -2.89008 5.86566 0
M  V30 3182 H 432.751 -4.0121 7.36511 0
M  V30 3183 H 431.057 -5.80182 8.37584 0
M  V30 3184 H 430.867 -3.73517 9.52265 0
M  V30 3185 H 429.237 -3.97163 8.80359 0
M  V30 3186 H 431.876 -4.90969 4.01921 0
M  V30 3187 P 433.734 -5.75688 6.64379 0
M  V30 3188 O 435.156 -6.11849 7.01846 0
M  V30 3189 O 433.374 -4.30744 6.56026 0
M  V30 3190 O 433.411 -6.37042 5.19165 0
M  V30 3191 C 433.251 -7.83578 5.16515 0
M  V30 3192 C 433.791 -8.33398 3.83019 0
M  V30 3193 O 432.735 -8.10074 3.01034 0
M  V30 3194 C 435.009 -7.65514 3.2257 0
M  V30 3195 O 435.747 -8.4329 2.32297 0
M  V30 3196 C 434.34 -6.40075 2.62207 0
M  V30 3197 O 435.139 -5.92589 1.53712 0
M  V30 3198 C 433.003 -6.9454 2.18503 0
M  V30 3199 H 433.035 -7.23063 1.12091 0
M  V30 3200 H 434.218 -5.6025 3.37201 0
M  V30 3201 H 435.702 -7.35707 4.02681 0
M  V30 3202 H 434.008 -9.40912 3.9095 0
M  V30 3203 H 433.818 -8.29056 5.99158 0
M  V30 3204 H 432.188 -8.10073 5.25882 0
M  V30 3205 H 434.827 -6.30324 0.726794 0
M  V30 3206 P 436.684 -8.4349 2.47671 0
M  V30 3207 O 438.106 -8.94359 2.59696 0
M  V30 3208 O 436.324 -7.1704 3.19006 0
M  V30 3209 O 436.361 -8.16596 0.923387 0
M  V30 3210 C 436.201 -9.38437 0.108857 0
M  V30 3211 C 436.741 -9.08076 -1.28339 0
M  V30 3212 O 435.686 -8.44229 -1.84713 0
M  V30 3213 C 437.959 -8.18386 -1.42505 0
M  V30 3214 O 438.697 -8.3501 -2.60497 0
M  V30 3215 C 437.291 -6.80225 -1.25468 0
M  V30 3216 O 438.089 -5.81526 -1.91035 0
M  V30 3217 C 435.953 -7.02416 -1.9168 0
M  V30 3218 N 434.91 -6.31033 -1.20314 0
M  V30 3219 C 434.972 -6.18781 0.121293 0
M  V30 3220 N 433.927 -5.49762 0.588272 0
M  V30 3221 C 433.193 -5.22015 -0.488988 0
M  V30 3222 C 431.887 -4.61966 -0.596448 0
M  V30 3223 O 431.154 -4.19162 0.309059 0
M  V30 3224 N 431.457 -4.53773 -1.878 0
M  V30 3225 C 432.206 -4.99623 -2.99082 0
M  V30 3226 N 431.609 -4.78912 -4.21227 0
M  V30 3227 N 433.359 -5.59957 -2.91093 0
M  V30 3228 C 433.816 -5.70225 -1.64218 0
M  V30 3229 H 435.985 -6.6888 -2.96621 0
M  V30 3230 H 437.168 -6.53517 -0.192194 0
M  V30 3231 H 438.653 -8.36563 -0.598329 0
M  V30 3232 H 436.958 -10.0291 -1.79807 0
M  V30 3233 H 436.768 -10.2138 0.558219 0
M  V30 3234 H 435.137 -9.6579 0.0444202 0
M  V30 3235 H 430.561 -4.12883 -2.05283 0
M  V30 3236 H 435.768 -6.59596 0.745856 0
M  V30 3237 H 430.698 -4.31425 -4.2628 0
M  V30 3238 H 432.074 -5.11219 -5.07148 0
M  V30 3239 H 437.778 -5.69466 -2.79593 0
M  V30 3240 P 439.635 -8.4349 -2.47671 0
M  V30 3241 O 441.036 -8.99283 -2.62101 0
M  V30 3242 O 439.257 -7.81195 -1.16947 0
M  V30 3243 O 439.312 -7.36797 -3.63761 0
M  V30 3244 C 439.152 -7.95349 -4.982 0
M  V30 3245 C 439.692 -6.94537 -5.98908 0
M  V30 3246 O 438.636 -6.10277 -6.11744 0
M  V30 3247 C 440.909 -6.11426 -5.62335 0
M  V30 3248 O 441.648 -5.6162 -6.70584 0
M  V30 3249 C 440.242 -5.04409 -4.73308 0
M  V30 3250 O 441.04 -3.85929 -4.75106 0
M  V30 3251 C 438.904 -4.8728 -5.41006 0
M  V30 3252 N 437.861 -4.65812 -4.42377 0
M  V30 3253 C 436.826 -3.81293 -4.74224 0
M  V30 3254 O 436.865 -3.20533 -5.83679 0
M  V30 3255 N 435.814 -3.6442 -3.86349 0
M  V30 3256 C 435.862 -4.2728 -2.6824 0
M  V30 3257 C 436.958 -5.10813 -2.3217 0
M  V30 3258 C 437.924 -5.27909 -3.22647 0
M  V30 3259 H 438.936 -4.02278 -6.11074 0
M  V30 3260 H 440.119 -5.39013 -3.70026 0
M  V30 3261 H 441.603 -6.71494 -5.02675 0
M  V30 3262 H 439.909 -7.45796 -6.94223 0
M  V30 3263 H 439.718 -8.89416 -5.05237 0
M  V30 3264 H 438.088 -8.14791 -5.18355 0
M  V30 3265 H 437.006 -5.58884 -1.34755 0
M  V30 3266 H 438.77 -5.92811 -2.9934 0
M  V30 3267 H 440.824 -3.3454 -5.51577 0
M  V30 3268 P 442.586 -5.75688 -6.64379 0
M  V30 3269 O 444.008 -6.07627 -7.05504 0
M  V30 3270 O 442.226 -5.88047 -5.19722 0
M  V30 3271 O 442.263 -4.2322 -7.04443 0
M  V30 3272 C 442.103 -3.99743 -8.4911 0
M  V30 3273 C 442.643 -2.60516 -8.79425 0
M  V30 3274 O 441.587 -1.82684 -8.4467 0
M  V30 3275 C 443.861 -2.10343 -8.03628 0
M  V30 3276 O 444.599 -1.09919 -8.67766 0
M  V30 3277 C 443.192 -1.68446 -6.70876 0
M  V30 3278 O 443.991 -0.678137 -6.08433 0
M  V30 3279 C 441.855 -1.17436 -7.18567 0
M  V30 3280 H 441.887 -0.0804732 -7.31656 0
M  V30 3281 H 443.07 -2.54037 -6.02537 0
M  V30 3282 H 444.554 -2.93881 -7.85526 0
M  V30 3283 H 442.86 -2.53065 -9.86973 0
M  V30 3284 H 442.67 -4.75072 -9.05887 0
M  V30 3285 H 441.04 -4.05244 -8.76668 0
M  V30 3286 H 443.679 0.177647 -6.34251 0
M  V30 3287 P 445.536 -1.25109 -8.70152 0
M  V30 3288 O 446.958 -1.29772 -9.22214 0
M  V30 3289 O 445.176 -2.13714 -7.55141 0
M  V30 3290 O 445.213 0.248149 -8.21425 0
M  V30 3291 C 445.053 1.22779 -9.30434 0
M  V30 3292 C 445.593 2.56265 -8.80568 0
M  V30 3293 O 444.538 3.02979 -8.09349 0
M  V30 3294 C 446.811 2.57523 -7.89775 0
M  V30 3295 O 447.549 3.7668 -7.89438 0
M  V30 3296 C 446.143 2.20997 -6.55446 0
M  V30 3297 O 446.941 2.71851 -5.48419 0
M  V30 3298 C 444.805 2.89693 -6.67988 0
M  V30 3299 N 443.762 2.08895 -6.07487 0
M  V30 3300 C 443.824 0.760559 -6.14209 0
M  V30 3301 N 442.779 0.200108 -5.52538 0
M  V30 3302 C 442.045 1.22692 -5.09742 0
M  V30 3303 C 440.739 1.24782 -4.48775 0
M  V30 3304 O 440.006 0.290617 -4.19294 0
M  V30 3305 N 440.309 2.50468 -4.22428 0
M  V30 3306 C 441.058 3.67142 -4.51974 0
M  V30 3307 N 440.461 4.85096 -4.14091 0
M  V30 3308 N 442.211 3.67821 -5.12831 0
M  V30 3309 C 442.668 2.43698 -5.4105 0
M  V30 3310 H 444.837 3.88793 -6.19859 0
M  V30 3311 H 446.02 1.12029 -6.4413 0
M  V30 3312 H 447.505 1.78279 -8.19533 0
M  V30 3313 H 445.81 3.20706 -9.67112 0
M  V30 3314 H 445.62 0.901032 -10.1892 0
M  V30 3315 H 443.989 1.33049 -9.56592 0
M  V30 3316 H 439.413 2.61953 -3.79465 0
M  V30 3317 H 444.62 0.200439 -6.63497 0
M  V30 3318 H 439.55 4.8334 -3.66367 0
M  V30 3319 H 440.926 5.7474 -4.33841 0
M  V30 3320 H 446.63 3.5779 -5.23879 0
M  V30 3321 P 448.487 3.65191 -7.99657 0
M  V30 3322 O 449.908 3.89374 -8.45885 0
M  V30 3323 O 448.127 2.28472 -7.50807 0
M  V30 3324 O 448.164 4.64972 -6.77611 0
M  V30 3325 C 448.003 6.06383 -7.16428 0
M  V30 3326 C 448.544 6.91731 -6.02299 0
M  V30 3327 O 447.489 6.92369 -5.17005 0
M  V30 3328 C 449.762 6.43627 -5.25174 0
M  V30 3329 O 450.5 7.43686 -4.60469 0
M  V30 3330 C 449.094 5.40275 -4.31916 0
M  V30 3331 O 449.892 5.24878 -3.14911 0
M  V30 3332 C 447.756 6.04847 -4.05327 0
M  V30 3333 N 446.713 5.04166 -3.98114 0
M  V30 3334 C 446.882 3.84629 -4.59066 0
M  V30 3335 N 445.855 3.0363 -4.45343 0
M  V30 3336 C 444.97 3.76722 -3.68523 0
M  V30 3337 C 443.703 3.43528 -3.17088 0
M  V30 3338 N 443.104 2.23665 -3.37397 0
M  V30 3339 N 443.138 4.44526 -2.44231 0
M  V30 3340 C 443.74 5.65243 -2.20146 0
M  V30 3341 N 444.917 6.00221 -2.65453 0
M  V30 3342 C 445.492 5.00564 -3.39083 0
M  V30 3343 H 447.788 6.62104 -3.11218 0
M  V30 3344 H 448.971 4.42969 -4.80867 0
M  V30 3345 H 450.454 5.92458 -5.93643 0
M  V30 3346 H 448.76 7.93295 -6.39407 0
M  V30 3347 H 448.57 6.26671 -8.0846 0
M  V30 3348 H 446.94 6.29101 -7.32804 0
M  V30 3349 H 443.204 6.36894 -1.5883 0
M  V30 3350 H 447.782 3.58193 -5.14248 0
M  V30 3351 H 442.174 2.05145 -2.97047 0
M  V30 3352 H 443.578 1.51255 -3.92998 0
M  V30 3353 H 449.58 5.84223 -2.47279 0
M  V30 3354 P 451.437 7.39546 -4.75277 0
M  V30 3355 O 452.859 7.84798 -5.01039 0
M  V30 3356 O 451.077 5.9812 -5.08098 0
M  V30 3357 O 451.114 7.57503 -3.1866 0
M  V30 3358 C 450.954 8.97357 -2.74833 0
M  V30 3359 C 451.494 9.07548 -1.32709 0
M  V30 3360 O 450.438 8.62072 -0.606159 0
M  V30 3361 C 452.712 8.25383 -0.938334 0
M  V30 3362 O 453.45 8.74577 0.146954 0
M  V30 3363 C 452.043 6.8802 -0.712559 0
M  V30 3364 O 452.842 6.1189 0.194655 0
M  V30 3365 C 450.706 7.27966 -0.139777 0
M  V30 3366 H 450.738 7.25354 0.961601 0
M  V30 3367 H 451.921 6.32557 -1.65702 0
M  V30 3368 H 453.405 8.19355 -1.79097 0
M  V30 3369 H 451.711 10.1294 -1.10029 0
M  V30 3370 H 451.521 9.64276 -3.41316 0
M  V30 3371 H 449.891 9.25417 -2.76357 0
M  V30 3372 H 452.53 6.25267 1.07847 0
M  V30 3373 P 454.388 8.791 2.59334e-12 0
M  V30 3374 O 455.81 9.31096 0.027933 0
M  V30 3375 O 454.028 7.77869 -1.04071 0
M  V30 3376 O 454.065 8.09533 1.41463 0
M  V30 3377 C 453.905 9.0349 2.53943 0
M  V30 3378 C 454.445 8.35226 3.79016 0
M  V30 3379 O 453.389 7.57992 4.15078 0
M  V30 3380 C 455.663 7.45087 3.67298 0
M  V30 3381 O 456.401 7.27796 4.85194 0
M  V30 3382 C 454.994 6.17323 3.12027 0
M  V30 3383 O 455.793 5.04231 3.47188 0
M  V30 3384 C 453.657 6.19961 3.81809 0
M  V30 3385 H 453.689 5.58218 4.73051 0
M  V30 3386 H 454.872 6.21726 2.02589 0
M  V30 3387 H 456.356 7.86112 2.9231 0
M  V30 3388 H 454.662 9.11627 4.55076 0
M  V30 3389 H 454.472 9.9573 2.34194 0
M  V30 3390 H 452.842 9.2792 2.67832 0
M  V30 3391 H 455.481 4.67702 4.28772 0
M  V30 3392 P 457.338 7.39546 4.75277 0
M  V30 3393 O 458.76 7.81777 5.05738 0
M  V30 3394 O 456.978 7.1065 3.32998 0
M  V30 3395 O 457.015 6.04542 5.56673 0
M  V30 3396 C 456.855 6.22772 7.02095 0
M  V30 3397 C 457.395 4.97725 7.70406 0
M  V30 3398 O 456.339 4.13256 7.58987 0
M  V30 3399 C 458.613 4.28231 7.11815 0
M  V30 3400 O 459.351 3.49945 8.01648 0
M  V30 3401 C 457.944 3.5063 5.96244 0
M  V30 3402 O 458.743 2.36482 5.64681 0
M  V30 3403 C 456.607 3.15122 6.56374 0
M  V30 3404 H 456.639 2.13853 6.99751 0
M  V30 3405 H 457.822 4.13501 5.06559 0
M  V30 3406 H 459.306 5.03285 6.70911 0
M  V30 3407 H 457.612 5.20877 8.75697 0
M  V30 3408 H 457.422 7.11046 7.35349 0
M  V30 3409 H 455.792 6.35815 7.26986 0
M  V30 3410 H 458.431 1.61644 6.13565 0
M  V30 3411 P 460.289 3.65191 7.99657 0
M  V30 3412 O 461.711 3.8425 8.48115 0
M  V30 3413 O 459.929 4.17805 6.64342 0
M  V30 3414 O 459.966 2.07613 7.95143 0
M  V30 3415 C 459.806 1.44328 9.27336 0
M  V30 3416 C 460.346 0.0220036 9.17197 0
M  V30 3417 O 459.29 -0.626867 8.61923 0
M  V30 3418 C 461.564 -0.24586 8.30336 0
M  V30 3419 O 462.302 -1.39011 8.63583 0
M  V30 3420 C 460.895 -0.273849 6.91158 0
M  V30 3421 O 461.694 -1.06348 6.02892 0
M  V30 3422 C 459.558 -0.897649 7.22545 0
M  V30 3423 H 459.59 -1.9841 7.04286 0
M  V30 3424 H 460.773 0.739928 6.497 0
M  V30 3425 H 462.257 0.60668 8.36503 0
M  V30 3426 H 460.563 -0.352479 10.1829 0
M  V30 3427 H 460.373 2.00611 10.0304 0
M  V30 3428 H 458.743 1.41843 9.55327 0
M  V30 3429 H 461.382 -1.95734 6.03555 0
M  V30 3430 P 463.239 -1.25109 8.70152 0
M  V30 3431 O 464.661 -1.35274 9.21221 0
M  V30 3432 O 462.879 -0.0769065 7.84762 0
M  V30 3433 O 462.916 -2.55232 7.81161 0
M  V30 3434 C 462.756 -3.79939 8.58154 0
M  V30 3435 C 463.296 -4.94023 7.72785 0
M  V30 3436 O 462.24 -5.18726 6.91205 0
M  V30 3437 C 464.514 -4.69597 6.85231 0
M  V30 3438 O 465.252 -5.83832 6.51337 0
M  V30 3439 C 463.845 -3.96706 5.66633 0
M  V30 3440 O 464.644 -4.15414 4.49689 0
M  V30 3441 C 462.508 -4.66153 5.59313 0
M  V30 3442 H 462.54 -5.47679 4.85214 0
M  V30 3443 H 463.723 -2.89008 5.86566 0
M  V30 3444 H 465.207 -4.0121 7.36511 0
M  V30 3445 H 463.513 -5.80182 8.37584 0
M  V30 3446 H 463.323 -3.73517 9.52265 0
M  V30 3447 H 461.693 -3.97163 8.80359 0
M  V30 3448 H 464.332 -4.90969 4.01921 0
M  V30 3449 P 466.19 -5.75688 6.64379 0
M  V30 3450 O 467.612 -6.11849 7.01846 0
M  V30 3451 O 465.83 -4.30744 6.56026 0
M  V30 3452 O 465.867 -6.37042 5.19165 0
M  V30 3453 C 465.707 -7.83578 5.16515 0
M  V30 3454 C 466.247 -8.33398 3.83019 0
M  V30 3455 O 465.191 -8.10074 3.01034 0
M  V30 3456 C 467.465 -7.65514 3.2257 0
M  V30 3457 O 468.203 -8.4329 2.32297 0
M  V30 3458 C 466.796 -6.40075 2.62207 0
M  V30 3459 O 467.595 -5.92589 1.53712 0
M  V30 3460 C 465.459 -6.9454 2.18503 0
M  V30 3461 H 465.491 -7.23063 1.12091 0
M  V30 3462 H 466.674 -5.6025 3.37201 0
M  V30 3463 H 468.158 -7.35707 4.02681 0
M  V30 3464 H 466.464 -9.40912 3.9095 0
M  V30 3465 H 466.274 -8.29056 5.99158 0
M  V30 3466 H 464.644 -8.10073 5.25882 0
M  V30 3467 H 467.283 -6.30324 0.726794 0
M  V30 3468 P 469.141 -8.4349 2.47671 0
M  V30 3469 O 470.563 -8.94167 2.5964 0
M  V30 3470 O 468.781 -7.1704 3.19006 0
M  V30 3471 O 468.818 -8.16596 0.923387 0
M  V30 3472 C 468.658 -9.38437 0.108857 0
M  V30 3473 C 469.198 -9.08175 -1.28353 0
M  V30 3474 O 468.142 -8.44229 -1.84713 0
M  V30 3475 C 470.416 -8.18386 -1.42505 0
M  V30 3476 O 471.154 -8.3501 -2.60497 0
M  V30 3477 C 469.747 -6.80225 -1.25468 0
M  V30 3478 O 470.546 -5.81621 -1.91066 0
M  V30 3479 C 468.41 -7.02416 -1.9168 0
M  V30 3480 H 468.442 -6.6888 -2.96621 0
M  V30 3481 H 469.625 -6.53617 -0.192223 0
M  V30 3482 H 471.109 -8.36622 -0.589963 0
M  V30 3483 H 469.415 -10.0291 -1.79807 0
M  V30 3484 H 469.225 -10.2138 0.558219 0
M  V30 3485 H 467.595 -9.6579 0.0444202 0
M  V30 3486 H 470.234 -5.69556 -2.79637 0
M  V30 3487 H 472.787 -7.91782 -2.28882 0
M  V30 END ATOM
M  V30 BEGIN BOND
M  V30 END BOND
M  V30 END CTAB
M  END
$$$$
