drugbank_target|P45124 Ribosomal small subunit pseudouridine synthase A (DB01955)
 OpenBabel12092119513D

  0  0  0     0  0            999 V3000
M  V30 BEGIN CTAB
M  V30 COUNTS 3662 3697 0 0 0
M  V30 BEGIN ATOM
M  V30 1 H -0.908 1.98254 -0.117106 0
M  V30 2 N 0 1.576 0 0
M  V30 3 C 0.933 2.03868 1.02534 0
M  V30 4 C 1.911 0.928543 1.3348 0
M  V30 5 O 3.095 1.19667 1.45644 0
M  V30 6 C 0.222 2.43627 2.35294 0
M  V30 7 C -0.732 3.65373 2.2001 0
M  V30 8 S 0.101 5.13292 1.52614 0
M  V30 9 C 1.257 5.56322 2.86805 0
M  V30 10 H 1.49 2.90518 0.631377 0
M  V30 11 H -0.977 1.52953 0.210867 0
M  V30 12 H 0.981 2.67203 3.11629 0
M  V30 13 H -0.358 1.57376 2.7183 0
M  V30 14 H -1.165 3.90944 3.18086 0
M  V30 15 H -1.563 3.418 1.51819 0
M  V30 16 H 0.729 5.58782 3.83104 0
M  V30 17 H 1.672 6.56266 2.65933 0
M  V30 18 H 2.08 4.83886 2.90714 0
M  V30 19 N 1.4781 -0.272755 1.55222 0
M  V30 20 C 2.8941 -0.619959 1.47067 0
M  V30 21 C 3.0941 -1.895 0.684978 0
M  V30 22 O 2.1501 -2.51675 0.203931 0
M  V30 23 C 3.4631 -0.746693 2.91282 0
M  V30 24 C 5.0111 -0.840731 3.01497 0
M  V30 25 C 5.4861 -0.99924 4.46967 0
M  V30 26 N 6.9771 -1.06476 4.50796 0
M  V30 27 C 7.7121 -1.20621 5.6057 0
M  V30 28 N 7.2081 -1.31483 6.80209 0
M  V30 29 N 9.0011 -1.23733 5.48312 0
M  V30 30 H 1.1521 0.564606 2.04758 0
M  V30 31 H 3.4151 0.191177 0.928523 0
M  V30 32 H 3.1211 0.119753 3.51496 0
M  V30 33 H 2.9951 -1.6269 3.40311 0
M  V30 34 H 5.3821 -1.69764 2.41379 0
M  V30 35 H 5.4631 0.0640874 2.5572 0
M  V30 36 H 5.1071 -0.146984 5.07687 0
M  V30 37 H 5.0371 -1.91871 4.90401 0
M  V30 38 H 7.5281 -0.993196 3.64615 0
M  V30 39 H 7.8411 -1.42111 7.59621 0
M  V30 40 H 6.1861 -1.28487 6.8302 0
M  V30 41 H 9.3771 -1.14877 4.53785 0
M  V30 42 H 9.5501 -1.34412 6.33906 0
M  V30 43 N 2.9562 -1.48159 -0.537278 0
M  V30 44 C 3.8862 -1.65029 -1.6519 0
M  V30 45 C 4.8672 -0.499281 -1.62607 0
M  V30 46 O 6.0522 -0.730972 -1.79918 0
M  V30 47 C 3.1822 -1.68303 -3.03795 0
M  V30 48 C 2.1362 -2.8283 -3.21234 0
M  V30 49 C 1.4622 -2.71189 -4.60826 0
M  V30 50 C 2.7622 -4.24211 -3.04701 0
M  V30 51 H 4.4562 -2.58341 -1.51328 0
M  V30 52 H 2.0022 -1.24325 -0.726585 0
M  V30 53 H 3.9552 -1.78693 -3.81637 0
M  V30 54 H 2.6792 -0.715635 -3.18663 0
M  V30 55 H 1.3382 -2.71983 -2.45807 0
M  V30 56 H 0.9862 -1.72435 -4.7252 0
M  V30 57 H 0.6862 -3.48035 -4.7344 0
M  V30 58 H 2.2102 -2.83537 -5.40777 0
M  V30 59 H 3.6242 -4.3593 -3.72341 0
M  V30 60 H 2.0212 -5.01998 -3.28813 0
M  V30 61 H 3.0912 -4.41184 -2.01209 0
M  V30 62 N 4.4343 0.785586 -1.36625 0
M  V30 63 C 5.7113 1.53198 -1.21613 0
M  V30 64 C 6.0913 2.10187 0.196113 0
M  V30 65 O 5.4393 1.94318 1.20219 0
M  V30 66 C 5.6493 2.62388 -2.30116 0
M  V30 67 C 6.9973 3.30167 -2.66974 0
M  V30 68 O 8.0213 2.72674 -2.29188 0
M  V30 69 O 6.8803 4.34077 -3.32023 0
M  V30 70 H 3.9743 0.677865 -0.473738 0
M  V30 71 H 6.5203 0.823739 -1.48367 0
M  V30 72 H 5.2923 2.18299 -3.24748 0
M  V30 73 H 4.9153 3.40827 -2.0475 0
M  V30 74 N 5.9124 1.20967 1.01018 0
M  V30 75 C 6.8594 0.964281 2.09691 0
M  V30 76 C 7.8294 -0.107853 1.65749 0
M  V30 77 O 9.0144 0.0381987 1.90762 0
M  V30 78 C 6.1544 0.52943 3.41015 0
M  V30 79 C 5.2674 1.67043 3.98398 0
M  V30 80 C 4.4024 1.18525 5.17808 0
M  V30 81 C 3.4414 2.29892 5.67288 0
M  V30 82 N 2.5784 1.82546 6.77954 0
M  V30 83 H 7.4184 1.89463 2.30017 0
M  V30 84 H 4.9554 0.944289 1.1279 0
M  V30 85 H 6.9134 0.258588 4.16398 0
M  V30 86 H 5.5434 -0.363919 3.20742 0
M  V30 87 H 4.5954 2.05603 3.20049 0
M  V30 88 H 5.9074 2.50877 4.31117 0
M  V30 89 H 5.0614 0.870762 6.00419 0
M  V30 90 H 3.8004 0.316887 4.86669 0
M  V30 91 H 2.8054 2.6215 4.83278 0
M  V30 92 H 4.0304 3.17216 6.00459 0
M  V30 93 H 1.9764 0.980454 6.48632 0
M  V30 94 H 1.8934 2.59956 7.09901 0
M  V30 95 H 3.1614 1.54115 7.64113 0
M  V30 96 N 7.3905 -1.2043 1.01659 0
M  V30 97 C 8.6375 -1.89797 0.705917 0
M  V30 98 C 8.9655 -1.78848 -0.764439 0
M  V30 99 O 8.2205 -1.16694 -1.57102 0
M  V30 100 C 8.5195 -3.40464 1.08714 0
M  V30 101 C 8.1855 -3.71614 2.5537 0
M  V30 102 C 6.8475 -3.79826 2.95441 0
M  V30 103 C 9.1995 -3.85915 3.50313 0
M  V30 104 C 6.5275 -3.99797 4.29394 0
M  V30 105 C 8.8795 -4.07396 4.83954 0
M  V30 106 C 7.5435 -4.13837 5.23732 0
M  V30 107 H 6.8135 -0.694518 0.258313 0
M  V30 108 H 9.4605 -1.42691 1.27717 0
M  V30 109 H 7.7655 -3.89385 0.434309 0
M  V30 110 H 9.4625 -3.92433 0.824461 0
M  V30 111 H 6.0525 -3.65822 2.23321 0
M  V30 112 H 10.2365 -3.78926 3.20513 0
M  V30 113 H 5.4925 -4.03018 4.59768 0
M  V30 114 H 9.6665 -4.17404 5.57447 0
M  V30 115 H 7.2935 -4.29064 6.27541 0
M  V30 116 N 8.8686 -0.792821 -1.36206 0
M  V30 117 C 10.1176 -0.363353 -1.984 0
M  V30 118 C 10.4306 1.07172 -1.63626 0
M  V30 119 O 11.6366 1.60362 -2.19081 0
M  V30 120 C 10.0926 -0.59872 -3.54885 0
M  V30 121 C 9.7006 -2.04543 -3.9858 0
M  V30 122 C 11.4446 -0.233926 -4.23855 0
M  V30 123 C 9.3516 -2.22727 -5.47856 0
M  V30 124 H 8.2816 -0.13212 -0.742334 0
M  V30 125 H 10.9326 -0.974935 -1.55458 0
M  V30 126 H 9.3146 0.0826222 -3.95914 0
M  V30 127 H 10.4886 -2.76345 -3.68741 0
M  V30 128 H 8.8036 -2.36879 -3.42458 0
M  V30 129 H 11.4006 -0.348027 -5.33566 0
M  V30 130 H 11.7436 0.818351 -4.08177 0
M  V30 131 H 12.2766 -0.868639 -3.882 0
M  V30 132 H 9.0156 -3.2635 -5.68486 0
M  V30 133 H 8.5356 -1.55434 -5.7931 0
M  V30 134 H 10.2146 -2.03607 -6.14128 0
M  V30 135 N 10.3467 1.47872 -0.545128 0
M  V30 136 C 11.3097 2.28337 0.198717 0
M  V30 137 C 12.3097 1.36255 0.853888 0
M  V30 138 O 13.4997 1.59003 0.711606 0
M  V30 139 C 10.6317 3.15585 1.28915 0
M  V30 140 H 11.8247 2.95567 -0.507941 0
M  V30 141 H 9.3777 1.53362 -0.301616 0
M  V30 142 H 10.1127 2.53019 2.02859 0
M  V30 143 H 9.8977 3.83337 0.824309 0
M  V30 144 H 11.3877 3.76243 1.81194 0
M  V30 145 N 11.8248 0.280983 1.55075 0
M  V30 146 C 12.7348 -0.61388 2.26426 0
M  V30 147 C 13.7508 -1.16521 1.29224 0
M  V30 148 O 14.9268 -1.19426 1.62171 0
M  V30 149 C 11.9918 -1.7788 2.9759 0
M  V30 150 C 11.0528 -1.26355 4.10284 0
M  V30 151 C 10.2858 -2.37295 4.78045 0
M  V30 152 O 10.5088 -3.56777 4.45047 0
M  V30 153 O 9.4428 -2.05119 5.65871 0
M  V30 154 H 13.2688 -0.0356932 3.03679 0
M  V30 155 H 10.8538 0.0481686 1.49322 0
M  V30 156 H 12.7358 -2.45791 3.42293 0
M  V30 157 H 11.4108 -2.34397 2.23249 0
M  V30 158 H 10.3178 -0.550735 3.70024 0
M  V30 159 H 11.6508 -0.744065 4.86543 0
M  V30 160 N 13.3029 -1.57598 0.00835791 0
M  V30 161 C 14.2509 -2.10078 -0.998508 0
M  V30 162 C 15.2449 -1.02262 -1.35051 0
M  V30 163 O 16.4509 -1.20719 -1.33518 0
M  V30 164 H 12.8259 -0.670903 -0.339696 0
M  V30 165 H 14.7969 -2.93648 -0.530398 0
M  V30 166 C 13.5459 -2.62615 -2.27879 0
M  V30 167 H 12.8689 -3.45213 -2.01662 0
M  V30 168 H 14.3089 -3.03004 -2.96588 0
M  V30 169 C 12.7679 -1.54407 -2.99433 0
M  V30 170 O 13.2979 -0.931812 -3.90743 0
M  V30 171 N 11.5039 -1.2695 -2.61404 0
M  V30 172 H 11.0509 -1.76924 -1.87232 0
M  V30 173 H 11.0089 -0.547704 -3.09593 0
M  V30 174 N 14.781 0.264519 -1.55364 0
M  V30 175 C 16.027 0.99646 -1.76631 0
M  V30 176 C 16.36 1.85632 -0.570478 0
M  V30 177 O 15.635 1.89647 0.43175 0
M  V30 178 C 15.918 1.87187 -3.07625 0
M  V30 179 C 15.771 1.04138 -4.37579 0
M  V30 180 C 17.09 2.85749 -3.34717 0
M  V30 181 H 14.209 0.360841 -0.642622 0
M  V30 182 H 16.851 0.268218 -1.88097 0
M  V30 183 H 15.001 2.49279 -2.9798 0
M  V30 184 H 16.673 0.440517 -4.59192 0
M  V30 185 H 14.916 0.345115 -4.32425 0
M  V30 186 H 15.587 1.68729 -5.2558 0
M  V30 187 H 18.063 2.33793 -3.4421 0
M  V30 188 H 16.939 3.44136 -4.27623 0
M  V30 189 H 17.2 3.61311 -2.54768 0
M  V30 190 N 16.2591 1.48442 0.529413 0
M  V30 191 C 17.5071 1.56179 1.28267 0
M  V30 192 C 17.8281 0.237721 1.93546 0
M  V30 193 O 17.0981 -0.740779 1.81354 0
M  V30 194 H 15.6781 0.575367 0.476405 0
M  V30 195 H 18.3401 1.84909 0.61602 0
M  V30 196 H 17.4361 2.34312 2.06165 0
M  V30 197 N 17.7372 -0.778329 1.37039 0
M  V30 198 C 18.6672 -1.90546 1.34962 0
M  V30 199 C 19.6482 -1.68681 0.219274 0
M  V30 200 O 20.8332 -1.89634 0.418624 0
M  V30 201 C 17.9632 -3.27734 1.14925 0
M  V30 202 C 16.9172 -3.64147 2.24902 0
M  V30 203 C 16.2432 -4.99806 1.89996 0
M  V30 204 C 17.5432 -3.71579 3.67051 0
M  V30 205 H 19.2372 -1.92541 2.29277 0
M  V30 206 H 16.7832 -0.924948 1.10366 0
M  V30 207 H 18.7362 -4.06215 1.12104 0
M  V30 208 H 17.4602 -3.26154 0.170631 0
M  V30 209 H 16.1192 -2.8797 2.26868 0
M  V30 210 H 15.7672 -4.94759 0.906796 0
M  V30 211 H 15.4672 -5.25139 2.63634 0
M  V30 212 H 16.9912 -5.80694 1.88749 0
M  V30 213 H 18.4052 -4.40227 3.67251 0
M  V30 214 H 16.8022 -4.08405 4.39688 0
M  V30 215 H 17.8722 -2.72404 4.01154 0
M  V30 216 N 19.2153 -1.21501 -1.00376 0
M  V30 217 C 20.4433 -1.059 -1.77744 0
M  V30 218 C 20.8583 0.391125 -1.84704 0
M  V30 219 O 20.2153 1.27133 -1.30933 0
M  V30 220 C 20.2663 -1.65111 -3.21591 0
M  V30 221 O 19.9873 -3.0445 -3.15027 0
M  V30 222 C 21.4883 -1.54637 -4.15454 0
M  V30 223 H 18.7083 -0.371825 -0.558558 0
M  V30 224 H 21.2523 -1.60865 -1.26264 0
M  V30 225 H 19.4073 -1.14235 -3.70175 0
M  V30 226 H 19.8213 -3.3278 -4.0541 0
M  V30 227 H 21.2953 -2.00808 -5.14179 0
M  V30 228 H 21.7723 -0.501022 -4.36333 0
M  V30 229 H 22.3783 -2.04767 -3.72761 0
M  V30 230 N 20.6934 1.19889 -1.02296 0
M  V30 231 C 22.1094 1.41462 -0.738954 0
M  V30 232 C 22.3094 1.89721 0.678846 0
M  V30 233 O 21.3654 2.07016 1.4457 0
M  V30 234 C 22.6784 2.43083 -1.77005 0
M  V30 235 C 24.2264 2.5684 -1.78892 0
M  V30 236 C 24.7014 3.61709 -2.80945 0
M  V30 237 N 26.1924 3.69199 -2.79725 0
M  V30 238 C 26.9274 4.50019 -3.55345 0
M  V30 239 N 26.4234 5.34592 -4.40662 0
M  V30 240 N 28.2164 4.44612 -3.43914 0
M  V30 241 H 20.3674 0.868827 -1.93817 0
M  V30 242 H 22.6304 0.44399 -0.837602 0
M  V30 243 H 22.3364 2.14636 -2.78612 0
M  V30 244 H 22.2104 3.4217 -1.58744 0
M  V30 245 H 24.5974 2.84614 -0.779674 0
M  V30 246 H 24.6784 1.57927 -2.01228 0
M  V30 247 H 24.3224 3.34678 -3.82038 0
M  V30 248 H 24.2524 4.60259 -2.5587 0
M  V30 249 H 26.7434 3.08794 -2.17842 0
M  V30 250 H 27.0564 5.93363 -4.95116 0
M  V30 251 H 25.4014 5.34073 -4.44737 0
M  V30 252 H 28.5924 3.7758 -2.76679 0
M  V30 253 H 28.7654 5.0736 -4.031 0
M  V30 254 N 22.1715 0.800033 1.35784 0
M  V30 255 C 23.3965 0.388511 2.03729 0
M  V30 256 C 23.8215 -0.990481 1.5991 0
M  V30 257 O 23.1795 -1.64013 0.772612 0
M  V30 258 C 23.2275 0.4726 3.5749 0
M  V30 259 O 22.3315 -0.51646 4.09153 0
M  V30 260 H 21.6725 0.163271 0.643614 0
M  V30 261 H 24.2025 1.0841 1.73518 0
M  V30 262 H 24.2125 0.34003 4.06581 0
M  V30 263 H 22.8875 1.47848 3.88734 0
M  V30 264 H 21.4645 -0.344673 3.71304 0
M  V30 265 N 23.6496 -1.47581 0.552962 0
M  V30 266 C 24.5816 -2.27997 -0.234533 0
M  V30 267 C 25.5946 -1.36753 -0.883321 0
M  V30 268 O 26.7836 -1.61612 -0.757889 0
M  V30 269 C 23.8836 -3.10879 -1.34935 0
M  V30 270 C 23.0566 -4.30056 -0.798158 0
M  V30 271 C 22.1156 -4.94567 -1.79694 0
M  V30 272 O 21.1416 -5.53087 -1.34474 0
M  V30 273 N 22.3436 -4.88878 -3.13015 0
M  V30 274 H 25.1086 -2.96222 0.455255 0
M  V30 275 H 22.6696 -1.57163 0.388761 0
M  V30 276 H 24.6616 -3.50903 -2.01616 0
M  V30 277 H 23.2316 -2.44924 -1.94244 0
M  V30 278 H 22.4516 -3.94174 0.0453079 0
M  V30 279 H 23.7396 -5.07152 -0.409173 0
M  V30 280 H 23.1376 -4.42526 -3.52402 0
M  V30 281 H 21.6946 -5.32934 -3.75266 0
M  V30 282 N 25.1277 -0.289203 -1.54924 0
M  V30 283 C 26.0907 0.579144 -2.21762 0
M  V30 284 C 27.0907 1.07047 -1.1999 0
M  V30 285 O 28.2807 0.968384 -1.44803 0
M  V30 286 C 25.4127 1.80055 -2.8947 0
M  V30 287 H 26.6057 -0.00464908 -2.999 0
M  V30 288 H 24.1587 -0.0399306 -1.56249 0
M  V30 289 H 24.8937 2.42449 -2.15381 0
M  V30 290 H 24.6787 1.45602 -3.64064 0
M  V30 291 H 26.1687 2.41773 -3.40493 0
M  V30 292 N 26.6058 1.57591 -0.0167156 0
M  V30 293 C 27.8338 1.95575 0.675128 0
M  V30 294 C 28.2488 0.892542 1.6637 0
M  V30 295 O 27.6058 -0.126912 1.82058 0
M  V30 296 C 27.6568 3.33608 1.39239 0
M  V30 297 O 27.3778 4.3585 0.443444 0
M  V30 298 C 28.8788 3.86151 2.17721 0
M  V30 299 H 26.0988 0.644423 0.186978 0
M  V30 300 H 28.6428 2.0437 -0.0728 0
M  V30 301 H 26.7978 3.2607 2.09182 0
M  V30 302 H 27.2118 5.158 0.951358 0
M  V30 303 H 28.6858 4.85114 2.63379 0
M  V30 304 H 29.1628 3.19738 3.01105 0
M  V30 305 H 29.7688 3.96918 1.52761 0
M  V30 306 N 28.0839 -0.256276 1.55502 0
M  V30 307 C 29.0309 -1.31714 1.89526 0
M  V30 308 C 30.0009 -1.4828 0.748479 0
M  V30 309 O 31.1859 -1.62416 1.00128 0
M  V30 310 C 28.3259 -2.66933 2.18725 0
M  V30 311 C 27.4389 -2.58452 3.4616 0
M  V30 312 C 26.5739 -3.85961 3.64976 0
M  V30 313 C 25.6129 -3.72059 4.86044 0
M  V30 314 N 24.7499 -4.9144 5.01429 0
M  V30 315 H 29.5899 -1.01998 2.80001 0
M  V30 316 H 27.1269 -0.492413 1.38613 0
M  V30 317 H 29.0849 -3.4563 2.33657 0
M  V30 318 H 27.7149 -2.94816 1.31466 0
M  V30 319 H 26.7669 -1.71374 3.3961 0
M  V30 320 H 28.0789 -2.44085 4.34999 0
M  V30 321 H 27.2329 -4.73101 3.79816 0
M  V30 322 H 25.9719 -4.03215 2.74353 0
M  V30 323 H 24.9769 -2.83302 4.7119 0
M  V30 324 H 26.2019 -3.56309 5.78118 0
M  V30 325 H 24.1479 -5.09072 4.13741 0
M  V30 326 H 24.0649 -4.79668 5.84341 0
M  V30 327 H 25.3329 -5.80104 5.20672 0
M  V30 328 N 29.562 -1.4872 -0.521534 0
M  V30 329 C 30.525 -1.63379 -1.60748 0
M  V30 330 C 31.525 -0.50661 -1.52611 0
M  V30 331 O 32.715 -0.772601 -1.5613 0
M  V30 332 C 29.847 -1.61192 -3.00383 0
M  V30 333 H 31.04 -2.60217 -1.49087 0
M  V30 334 H 28.593 -1.37444 -0.744235 0
M  V30 335 H 29.328 -0.65863 -3.17541 0
M  V30 336 H 29.113 -2.43032 -3.07698 0
M  V30 337 H 30.603 -1.7466 -3.7932 0
M  V30 338 N 31.0401 0.771051 -1.3745 0
M  V30 339 C 32.2891 1.52491 -1.3202 0
M  V30 340 C 32.6021 1.9538 0.0927347 0
M  V30 341 O 33.8081 2.70159 0.269503 0
M  V30 342 C 32.2641 2.75366 -2.31736 0
M  V30 343 C 31.8721 2.39573 -3.78562 0
M  V30 344 C 33.6161 3.53307 -2.35318 0
M  V30 345 C 31.5231 3.58954 -4.70007 0
M  V30 346 H 30.4531 0.572506 -0.490666 0
M  V30 347 H 33.1041 0.844474 -1.62914 0
M  V30 348 H 31.4861 3.45303 -1.93861 0
M  V30 349 H 32.6601 1.77415 -4.25277 0
M  V30 350 H 30.9751 1.74805 -3.77932 0
M  V30 351 H 33.5721 4.42039 -3.00842 0
M  V30 352 H 33.9151 3.93217 -1.36698 0
M  V30 353 H 34.4481 2.90367 -2.71904 0
M  V30 354 H 31.1871 3.24125 -5.69757 0
M  V30 355 H 30.7071 4.20214 -4.27996 0
M  V30 356 H 32.3861 4.25758 -4.87175 0
M  V30 357 N 32.5182 1.22032 0.997298 0
M  V30 358 C 33.9342 0.979326 1.26021 0
M  V30 359 C 34.1342 -0.32972 1.98784 0
M  V30 360 O 33.1902 -1.05345 2.29475 0
M  V30 361 C 34.5032 2.17509 2.07631 0
M  V30 362 C 36.0512 2.21817 2.2083 0
M  V30 363 C 36.5262 3.40933 3.05825 0
M  V30 364 N 38.0172 3.41067 3.13412 0
M  V30 365 C 38.7522 4.29885 3.79455 0
M  V30 366 N 38.2482 5.28914 4.47462 0
M  V30 367 N 40.0412 4.17673 3.76173 0
M  V30 368 H 32.1922 2.06202 0.509352 0
M  V30 369 H 34.4552 0.90334 0.287541 0
M  V30 370 H 34.1612 3.12415 1.61524 0
M  V30 371 H 34.0352 2.17206 3.08385 0
M  V30 372 H 36.4222 1.27462 2.66153 0
M  V30 373 H 36.5032 2.2616 1.1952 0
M  V30 374 H 36.1472 4.35586 2.61203 0
M  V30 375 H 36.0772 3.33829 4.07266 0
M  V30 376 H 38.5682 2.69406 2.65007 0
M  V30 377 H 38.8812 5.92973 4.95583 0
M  V30 378 H 37.2262 5.32831 4.46224 0
M  V30 379 H 40.4172 3.39564 3.22202 0
M  V30 380 H 40.5902 4.87098 4.27363 0
M  V30 381 N 33.9963 -1.19345 1.0293 0
M  V30 382 C 34.9283 -2.22036 0.56857 0
M  V30 383 C 35.9413 -1.58865 -0.355779 0
M  V30 384 O 37.1303 -1.77851 -0.152103 0
M  V30 385 C 34.2303 -3.38363 -0.190752 0
M  V30 386 C 33.4033 -4.31118 0.738643 0
M  V30 387 C 32.4623 -5.26194 0.0246497 0
M  V30 388 O 31.4883 -5.65461 0.651354 0
M  V30 389 N 32.6903 -5.66971 -1.24594 0
M  V30 390 H 35.4553 -2.6219 1.45177 0
M  V30 391 H 33.0163 -1.34015 0.908381 0
M  V30 392 H 35.0083 -3.98981 -0.677961 0
M  V30 393 H 33.5783 -2.96994 -0.975366 0
M  V30 394 H 32.7983 -3.68276 1.40593 0
M  V30 395 H 34.0863 -4.90001 1.37029 0
M  V30 396 H 33.4843 -5.37104 -1.77583 0
M  V30 397 H 32.0413 -6.2984 -1.67764 0
M  V30 398 N 35.4744 -0.807222 -1.35358 0
M  V30 399 C 36.6994 -0.399309 -2.0352 0
M  V30 400 C 37.1244 0.981986 -1.60433 0
M  V30 401 O 36.4824 1.63601 -0.781299 0
M  V30 402 C 36.5304 -0.491552 -3.57234 0
M  V30 403 O 35.6344 0.494754 -4.09421 0
M  V30 404 H 34.9754 -0.166682 -0.642739 0
M  V30 405 H 37.5054 -1.09328 -1.72941 0
M  V30 406 H 37.5154 -0.361588 -4.06395 0
M  V30 407 H 36.1904 -1.49907 -3.87944 0
M  V30 408 H 34.7674 0.324977 -3.71481 0
M  V30 409 N 36.9525 1.47285 -0.560781 0
M  V30 410 C 37.9155 2.28535 0.174488 0
M  V30 411 C 38.9155 1.37153 0.839388 0
M  V30 412 O 40.1055 1.59748 0.694702 0
M  V30 413 C 37.2375 3.16934 1.25561 0
M  V30 414 H 38.4305 2.95012 -0.539262 0
M  V30 415 H 35.9835 1.53034 -0.317865 0
M  V30 416 H 36.7185 2.55157 2.00164 0
M  V30 417 H 36.5035 3.8419 0.783604 0
M  V30 418 H 37.9935 3.78143 1.77193 0
M  V30 419 N 38.4306 0.297415 1.54768 0
M  V30 420 C 39.6766 -0.313376 2.00364 0
M  V30 421 C 40.0096 -1.53815 1.18553 0
M  V30 422 O 39.2846 -1.92739 0.261103 0
M  V30 423 C 39.5676 -0.673525 3.53745 0
M  V30 424 C 39.4206 0.560133 4.46299 0
M  V30 425 C 40.7396 -1.50143 4.13697 0
M  V30 426 H 37.8586 -0.112428 0.728374 0
M  V30 427 H 40.5006 0.4088 1.8555 0
M  V30 428 H 38.6506 -1.28881 3.665 0
M  V30 429 H 40.3226 1.19863 4.45455 0
M  V30 430 H 38.5656 1.19405 4.17043 0
M  V30 431 H 39.2366 0.26405 5.51368 0
M  V30 432 H 41.7126 -0.981588 4.04356 0
M  V30 433 H 40.5886 -1.72221 5.21182 0
M  V30 434 H 40.8496 -2.48952 3.65343 0
M  V30 435 N 39.9087 -1.5758 0.0250728 0
M  V30 436 C 40.8557 -2.09973 -0.958129 0
M  V30 437 C 41.8257 -1.00085 -1.3256 0
M  V30 438 O 43.0107 -1.27481 -1.41962 0
M  V30 439 C 40.1507 -2.62812 -2.2366 0
M  V30 440 C 39.2637 -3.86693 -1.92594 0
M  V30 441 C 38.3987 -4.27941 -3.14707 0
M  V30 442 C 37.4377 -5.44591 -2.79442 0
M  V30 443 N 36.5747 -5.81014 -3.94167 0
M  V30 444 H 41.4147 -2.937 -0.504428 0
M  V30 445 H 38.9517 -1.45172 -0.237392 0
M  V30 446 H 40.9097 -2.91536 -2.98434 0
M  V30 447 H 39.5397 -1.81922 -2.66654 0
M  V30 448 H 38.5917 -3.64723 -1.0808 0
M  V30 449 H 39.9037 -4.71547 -1.62619 0
M  V30 450 H 39.0577 -4.58079 -3.97804 0
M  V30 451 H 37.7967 -3.41845 -3.4784 0
M  V30 452 H 36.8017 -5.1415 -1.94755 0
M  V30 453 H 38.0267 -6.32382 -2.47528 0
M  V30 454 H 35.9727 -4.97874 -4.2715 0
M  V30 455 H 35.8897 -6.60498 -3.67801 0
M  V30 456 H 37.1577 -6.15756 -4.7798 0
M  V30 457 N 41.3868 0.248026 -1.55636 0
M  V30 458 C 42.6358 0.974134 -1.76617 0
M  V30 459 C 42.9488 1.86528 -0.588796 0
M  V30 460 O 44.1548 2.62805 -0.681594 0
M  V30 461 C 42.6108 1.78213 -3.12679 0
M  V30 462 C 42.2188 0.93843 -4.38061 0
M  V30 463 C 43.9628 2.50104 -3.42999 0
M  V30 464 C 41.8698 1.74225 -5.65155 0
M  V30 465 H 40.7998 0.36745 -0.658405 0
M  V30 466 H 43.4508 0.22884 -1.82067 0
M  V30 467 H 41.8328 2.56933 -3.01333 0
M  V30 468 H 43.0068 0.193635 -4.60393 0
M  V30 469 H 41.3218 0.332905 -4.15067 0
M  V30 470 H 43.9188 3.10694 -4.3517 0
M  V30 471 H 44.2618 3.21662 -2.64271 0
M  V30 472 H 44.7948 1.78395 -3.55556 0
M  V30 473 H 41.5338 1.07043 -6.46701 0
M  V30 474 H 41.0538 2.46235 -5.46926 0
M  V30 475 H 42.7328 2.30967 -6.0437 0
M  V30 476 N 42.8649 1.48995 0.513639 0
M  V30 477 C 43.8129 1.65199 1.63744 0
M  V30 478 C 44.8069 0.51809 1.61283 0
M  V30 479 O 46.0129 0.697335 1.65943 0
M  V30 480 H 42.3879 0.52069 0.542574 0
M  V30 481 H 44.3589 2.59552 1.47226 0
M  V30 482 C 43.1079 1.72409 3.01945 0
M  V30 483 H 42.4309 2.59029 3.04539 0
M  V30 484 H 43.8709 1.87785 3.80148 0
M  V30 485 C 42.3299 0.46618 3.33659 0
M  V30 486 O 42.8599 -0.413744 3.99564 0
M  V30 487 N 41.0659 0.332931 2.88687 0
M  V30 488 H 40.6129 1.04996 2.35231 0
M  V30 489 H 40.5709 -0.507665 3.10274 0
M  V30 490 N 44.343 -0.763751 1.37857 0
M  V30 491 C 45.591 -1.51957 1.33243 0
M  V30 492 C 45.912 -1.94835 -0.0801709 0
M  V30 493 O 45.182 -1.66894 -1.02582 0
M  V30 494 H 43.762 -0.563626 0.49024 0
M  V30 495 H 46.424 -0.908504 1.7243 0
M  V30 496 H 45.52 -2.41523 1.97669 0
M  V30 497 N 45.8211 -1.22559 -0.990812 0
M  V30 498 C 46.7311 -1.01394 -2.11557 0
M  V30 499 C 47.7471 0.0383962 -1.73958 0
M  V30 500 O 48.9231 -0.154787 -2.00804 0
M  V30 501 C 45.9881 -0.596569 -3.41529 0
M  V30 502 C 45.0491 -1.72276 -3.93217 0
M  V30 503 C 44.2821 -1.32521 -5.16985 0
M  V30 504 O 44.5051 -0.204909 -5.70032 0
M  V30 505 O 43.4391 -2.14247 -5.62478 0
M  V30 506 H 47.2651 -1.95633 -2.32296 0
M  V30 507 H 44.8501 -1.01172 -1.0993 0
M  V30 508 H 46.7321 -0.374263 -4.19735 0
M  V30 509 H 45.4071 0.316939 -3.22145 0
M  V30 510 H 44.3141 -1.99961 -3.16174 0
M  V30 511 H 45.6471 -2.61421 -4.17037 0
M  V30 512 N 47.2992 1.18797 -1.03562 0
M  V30 513 C 48.5482 1.87978 -0.731235 0
M  V30 514 C 48.8612 1.80911 0.743671 0
M  V30 515 O 50.0672 2.45407 1.16137 0
M  V30 516 C 48.5232 3.3721 -1.25768 0
M  V30 517 C 48.1312 3.52818 -2.76085 0
M  V30 518 C 49.8752 4.11825 -1.0296 0
M  V30 519 C 47.7822 4.9598 -3.22114 0
M  V30 520 H 46.7122 0.704063 -0.269835 0
M  V30 521 H 49.3632 1.34266 -1.25079 0
M  V30 522 H 47.7452 3.90359 -0.666011 0
M  V30 523 H 48.9192 3.09965 -3.40966 0
M  V30 524 H 47.2342 2.91602 -2.97249 0
M  V30 525 H 49.8312 5.17411 -1.34869 0
M  V30 526 H 50.1742 4.16287 0.0333546 0
M  V30 527 H 50.7072 3.64833 -1.58562 0
M  V30 528 H 47.4462 4.96684 -4.27768 0
M  V30 529 H 46.9662 5.39569 -2.61965 0
M  V30 530 H 48.6452 5.6467 -3.15844 0
M  V30 531 N 48.7773 0.814389 1.34928 0
M  V30 532 C 50.0233 0.399013 1.98836 0
M  V30 533 C 50.3563 -1.03314 1.64438 0
M  V30 534 O 49.6313 -1.71811 0.911659 0
M  V30 535 C 49.9143 0.591629 3.55207 0
M  V30 536 C 49.7673 2.06928 3.99376 0
M  V30 537 C 51.0863 0.022199 4.40094 0
M  V30 538 H 48.2053 0.146451 0.722303 0
M  V30 539 H 50.8473 1.02537 1.59957 0
M  V30 540 H 48.9973 0.0584441 3.88456 0
M  V30 541 H 50.6693 2.66544 3.76499 0
M  V30 542 H 48.9123 2.56287 3.49999 0
M  V30 543 H 49.5833 2.1549 5.08201 0
M  V30 544 H 52.0593 0.477643 4.13349 0
M  V30 545 H 50.9353 0.186832 5.48582 0
M  V30 546 H 51.1963 -1.07215 4.28902 0
M  V30 547 N 50.2554 -1.46986 0.568584 0
M  V30 548 C 51.2024 -2.30153 -0.172707 0
M  V30 549 C 52.1724 -1.39759 -0.897586 0
M  V30 550 O 53.3574 -1.68716 -0.891044 0
M  V30 551 C 50.4974 -3.23952 -1.1895 0
M  V30 552 C 49.6104 -4.29441 -0.469517 0
M  V30 553 C 48.7454 -5.1038 -1.47259 0
M  V30 554 C 47.7844 -6.07632 -0.738225 0
M  V30 555 N 46.9214 -6.8149 -1.68868 0
M  V30 556 H 51.7614 -2.93019 0.542596 0
M  V30 557 H 49.2984 -1.44422 0.279401 0
M  V30 558 H 51.2564 -3.76767 -1.79173 0
M  V30 559 H 49.8864 -2.62926 -1.87269 0
M  V30 560 H 48.9384 -3.79594 0.247467 0
M  V30 561 H 50.2504 -4.98689 0.105241 0
M  V30 562 H 49.4044 -5.67402 -2.14803 0
M  V30 563 H 48.1434 -4.4106 -2.08128 0
M  V30 564 H 47.1484 -5.49778 -0.0489293 0
M  V30 565 H 48.3734 -6.78966 -0.135129 0
M  V30 566 H 46.3194 -6.14891 -2.28573 0
M  V30 567 H 46.2364 -7.46948 -1.16636 0
M  V30 568 H 47.5044 -7.43078 -2.3549 0
M  V30 569 N 51.7335 -0.305618 -1.54608 0
M  V30 570 C 52.9585 0.307562 -2.05107 0
M  V30 571 C 53.3835 1.46385 -1.18123 0
M  V30 572 O 52.7415 1.8034 -0.186324 0
M  V30 573 C 52.7895 0.73704 -3.52987 0
M  V30 574 O 51.8935 1.84134 -3.6901 0
M  V30 575 H 51.2345 0.0589143 -0.661381 0
M  V30 576 H 53.7645 -0.448807 -1.99617 0
M  V30 577 H 53.7745 1.02459 -3.94925 0
M  V30 578 H 52.4495 -0.108773 -4.15758 0
M  V30 579 H 51.0265 1.55398 -3.38978 0
M  V30 580 N 53.2116 1.57565 -0.0334293 0
M  V30 581 C 54.4596 1.91598 0.642999 0
M  V30 582 C 54.7806 0.910847 1.7242 0
M  V30 583 O 54.0506 -0.0469931 1.95844 0
M  V30 584 H 52.6306 0.707228 0.240496 0
M  V30 585 H 55.2926 1.94726 -0.0822488 0
M  V30 586 H 54.3886 2.92336 1.09298 0
M  V30 587 N 54.6897 -0.239769 1.55765 0
M  V30 588 C 55.9147 -0.988373 1.82335 0
M  V30 589 C 56.3397 -1.77886 0.611421 0
M  V30 590 O 55.6977 -1.75889 -0.439639 0
M  V30 591 C 55.7457 -1.89627 3.06715 0
M  V30 592 O 54.8497 -2.98904 2.84131 0
M  V30 593 H 54.1907 -0.280858 0.601677 0
M  V30 594 H 56.7207 -0.258597 2.02959 0
M  V30 595 H 56.7307 -2.30957 3.36338 0
M  V30 596 H 55.4057 -1.31511 3.9456 0
M  V30 597 H 53.9827 -2.61651 2.65694 0
M  V30 598 N 56.1678 -1.49265 -0.50573 0
M  V30 599 C 57.4138 -1.58748 -1.26202 0
M  V30 600 C 57.7468 -0.271227 -1.92297 0
M  V30 601 O 57.0218 0.724831 -1.80489 0
M  V30 602 C 57.3048 -2.74332 -2.33268 0
M  V30 603 C 57.1578 -4.15737 -1.71705 0
M  V30 604 C 58.4768 -2.85576 -3.34865 0
M  V30 605 H 55.5958 -0.577826 -0.457478 0
M  V30 606 H 58.2378 -1.81532 -0.560897 0
M  V30 607 H 56.3878 -2.55036 -2.93068 0
M  V30 608 H 58.0598 -4.46537 -1.15769 0
M  V30 609 H 56.3028 -4.21605 -1.02135 0
M  V30 610 H 56.9738 -4.92477 -2.49341 0
M  V30 611 H 59.4498 -3.03127 -2.8505 0
M  V30 612 H 58.3258 -3.68135 -4.07146 0
M  V30 613 H 58.5868 -1.94732 -3.96903 0
M  V30 614 N 57.6459 0.756429 -1.3826 0
M  V30 615 C 58.5779 1.87971 -1.31147 0
M  V30 616 C 59.5909 1.61248 -0.224239 0
M  V30 617 O 60.7799 1.71881 -0.481581 0
M  V30 618 C 57.8799 3.23545 -1.00857 0
M  V30 619 C 57.0529 3.77794 -2.20432 0
M  V30 620 C 56.1119 4.91877 -1.86931 0
M  V30 621 O 55.1379 5.06659 -2.59395 0
M  V30 622 N 56.3399 5.74643 -0.822568 0
M  V30 623 H 59.1049 1.94585 -2.2794 0
M  V30 624 H 56.6659 0.936234 -1.32084 0
M  V30 625 H 58.6579 3.97403 -0.765021 0
M  V30 626 H 57.2279 3.12335 -0.128687 0
M  V30 627 H 56.4479 2.95534 -2.6087 0
M  V30 628 H 57.7359 4.10771 -3.00241 0
M  V30 629 H 57.1339 5.65266 -0.221575 0
M  V30 630 H 55.6909 6.48661 -0.638899 0
M  V30 631 N 59.124 1.23083 0.984299 0
M  V30 632 C 60.373 1.05466 1.71929 0
M  V30 633 C 60.686 -0.409211 1.91272 0
M  V30 634 O 61.892 -0.705226 2.62181 0
M  V30 635 C 60.348 1.83874 3.09384 0
M  V30 636 C 59.956 3.34566 2.97943 0
M  V30 637 C 61.7 1.74734 3.8687 0
M  V30 638 C 59.607 4.05381 4.30605 0
M  V30 639 H 58.537 0.391039 0.644674 0
M  V30 640 H 61.188 1.47013 1.09815 0
M  V30 641 H 59.57 1.35131 3.72231 0
M  V30 642 H 60.744 3.90767 2.44209 0
M  V30 643 H 59.059 3.44476 2.33934 0
M  V30 644 H 61.656 2.24957 4.85076 0
M  V30 645 H 61.999 0.709372 4.10212 0
M  V30 646 H 62.532 2.21067 3.30717 0
M  V30 647 H 59.271 5.09467 4.1246 0
M  V30 648 H 58.791 3.53967 4.84218 0
M  V30 649 H 60.47 4.11458 4.99311 0
M  V30 650 N 60.6021 -1.18246 1.0419 0
M  V30 651 C 61.8271 -1.92736 0.765996 0
M  V30 652 C 62.2521 -1.75728 -0.67091 0
M  V30 653 O 61.6101 -1.06825 -1.46486 0
M  V30 654 C 61.6581 -3.42148 1.13875 0
M  V30 655 O 60.7621 -4.11548 0.264954 0
M  V30 656 H 60.1031 -0.601238 0.281797 0
M  V30 657 H 62.6331 -1.49942 1.39207 0
M  V30 658 H 62.6431 -3.92858 1.1012 0
M  V30 659 H 61.3181 -3.53848 2.18551 0
M  V30 660 H 59.8951 -3.71137 0.362226 0
M  V30 661 N 62.0802 -0.821533 -1.34494 0
M  V30 662 C 63.0122 -0.199946 -2.28326 0
M  V30 663 C 64.0252 0.609377 -1.50965 0
M  V30 664 O 65.2142 0.439285 -1.7301 0
M  V30 665 C 62.3142 0.738431 -3.30757 0
M  V30 666 C 61.4872 -0.0277632 -4.37391 0
M  V30 667 C 60.5462 0.831332 -5.19591 0
M  V30 668 O 59.5722 0.276822 -5.68526 0
M  V30 669 N 60.7742 2.15132 -5.39165 0
M  V30 670 H 63.5392 -1.00609 -2.82308 0
M  V30 671 H 61.1002 -0.678366 -1.47003 0
M  V30 672 H 63.0922 1.31773 -3.82646 0
M  V30 673 H 61.6622 1.44533 -2.7718 0
M  V30 674 H 60.8822 -0.788359 -3.86236 0
M  V30 675 H 62.1702 -0.555251 -5.05761 0
M  V30 676 H 61.5682 2.62559 -5.01078 0
M  V30 677 H 60.1252 2.6795 -5.94177 0
M  V30 678 N 63.5583 1.46682 -0.576371 0
M  V30 679 C 64.4683 2.34032 0.163141 0
M  V30 680 C 65.4843 1.49367 0.892501 0
M  V30 681 O 66.6603 1.82252 0.857106 0
M  V30 682 C 63.7253 3.26435 1.16795 0
M  V30 683 C 62.7863 4.26998 0.443944 0
M  V30 684 C 62.0193 5.14986 1.40088 0
M  V30 685 O 62.2423 5.05785 2.637 0
M  V30 686 O 61.1763 5.94906 0.914917 0
M  V30 687 H 65.0023 2.98607 -0.55388 0
M  V30 688 H 62.5873 1.45554 -0.336821 0
M  V30 689 H 64.4693 3.83459 1.74748 0
M  V30 690 H 63.1443 2.64465 1.86655 0
M  V30 691 H 62.0513 3.7368 -0.177271 0
M  V30 692 H 63.3843 4.91736 -0.213566 0
M  V30 693 N 65.0364 0.313813 1.54444 0
M  V30 694 C 66.3134 -0.345447 1.92525 0
M  V30 695 C 66.6934 -1.70667 1.24242 0
M  V30 696 O 66.0414 -2.25273 0.382654 0
M  V30 697 C 66.2514 -0.44737 3.46121 0
M  V30 698 C 67.5994 -0.712238 4.18584 0
M  V30 699 O 68.6234 -0.530678 3.52225 0
M  V30 700 O 67.4824 -1.06183 5.36085 0
M  V30 701 H 64.5764 -0.195407 0.803583 0
M  V30 702 H 67.1224 0.362813 1.65776 0
M  V30 703 H 65.8944 0.509043 3.87975 0
M  V30 704 H 65.5174 -1.20359 3.78945 0
M  V30 705 N 66.5145 -1.57545 0.0417849 0
M  V30 706 C 67.4245 -2.14451 -0.951213 0
M  V30 707 C 68.4405 -1.09992 -1.34825 0
M  V30 708 O 69.6165 -1.42114 -1.42708 0
M  V30 709 C 66.6815 -2.67063 -2.21084 0
M  V30 710 C 65.7425 -3.86284 -1.87304 0
M  V30 711 C 64.9755 -4.36378 -3.07261 0
M  V30 712 O 65.1985 -3.85587 -4.20332 0
M  V30 713 O 64.1325 -5.28077 -2.88822 0
M  V30 714 H 67.9585 -2.99601 -0.497287 0
M  V30 715 H 65.5435 -1.48317 -0.179567 0
M  V30 716 H 67.4255 -3.00914 -2.95006 0
M  V30 717 H 66.1005 -1.84989 -2.65633 0
M  V30 718 H 65.0075 -3.57338 -1.10727 0
M  V30 719 H 66.3405 -4.6956 -1.47562 0
M  V30 720 N 67.9926 0.231505 -1.5589 0
M  V30 721 C 69.2416 0.955346 -1.7764 0
M  V30 722 C 69.5546 1.85893 -0.608546 0
M  V30 723 O 70.7606 2.62067 -0.70943 0
M  V30 724 C 69.2166 1.74886 -3.14552 0
M  V30 725 C 68.8246 0.891915 -4.39032 0
M  V30 726 C 70.5686 2.46452 -3.45633 0
M  V30 727 C 68.4756 1.68221 -5.66971 0
M  V30 728 H 67.4056 0.360446 -0.662265 0
M  V30 729 H 70.0566 0.209516 -1.823 0
M  V30 730 H 68.4386 2.53723 -3.04041 0
M  V30 731 H 69.6126 0.144793 -4.60572 0
M  V30 732 H 67.9276 0.288863 -4.15397 0
M  V30 733 H 70.5246 3.06061 -4.38441 0
M  V30 734 H 70.8676 3.18841 -2.67668 0
M  V30 735 H 71.4006 1.74613 -3.57428 0
M  V30 736 H 68.1396 1.00178 -6.478 0
M  V30 737 H 67.6596 2.4042 -5.49507 0
M  V30 738 H 69.3386 2.24544 -6.06786 0
M  V30 739 N 69.4707 1.49531 0.497807 0
M  V30 740 C 70.7007 1.62657 1.27382 0
M  V30 741 C 71.1087 0.298488 1.86831 0
M  V30 742 O 70.4517 -0.72647 1.68725 0
M  V30 743 C 70.5137 2.6393 2.44093 0
M  V30 744 C 70.1777 4.08195 2.05489 0
M  V30 745 C 71.1747 4.949 1.59279 0
M  V30 746 C 68.8597 4.53948 2.15026 0
M  V30 747 C 70.8537 6.25397 1.23113 0
M  V30 748 C 68.5407 5.84458 1.78473 0
M  V30 749 C 69.5387 6.70006 1.32591 0
M  V30 750 O 69.2267 7.98083 0.965327 0
M  V30 751 H 68.9587 0.550429 0.392434 0
M  V30 752 H 71.5127 1.96325 0.603801 0
M  V30 753 H 69.7427 2.25449 3.14181 0
M  V30 754 H 71.4317 2.66552 3.06113 0
M  V30 755 H 72.1977 4.60779 1.51354 0
M  V30 756 H 68.0767 3.87525 2.4969 0
M  V30 757 H 71.6207 6.92125 0.872299 0
M  V30 758 H 67.5177 6.18107 1.86048 0
M  V30 759 H 68.2857 8.11122 1.09652 0
M  V30 760 N 70.9488 -0.749086 1.3866 0
M  V30 761 C 72.1958 -1.50833 1.35114 0
M  V30 762 C 72.5238 -1.94415 -0.0574049 0
M  V30 763 O 71.7788 -1.66065 -1.03541 0
M  V30 764 C 72.0778 -2.7712 2.25697 0
M  V30 765 C 71.7438 -2.52477 3.73585 0
M  V30 766 C 70.4058 -2.45466 4.13884 0
M  V30 767 C 72.7578 -2.31066 4.67181 0
M  V30 768 C 70.0858 -2.15064 5.45861 0
M  V30 769 C 72.4378 -2.02183 5.9942 0
M  V30 770 C 71.1018 -1.93631 6.38798 0
M  V30 771 H 70.3718 -0.551936 0.494416 0
M  V30 772 H 73.0188 -0.860979 1.71054 0
M  V30 773 H 71.3238 -3.46528 1.82827 0
M  V30 774 H 73.0208 -3.35096 2.20254 0
M  V30 775 H 69.6108 -2.58807 3.41638 0
M  V30 776 H 73.7948 -2.35459 4.3689 0
M  V30 777 H 69.0508 -2.06954 5.75308 0
M  V30 778 H 73.2248 -1.8462 6.71482 0
M  V30 779 H 70.8518 -1.69839 7.40985 0
M  V30 780 N 72.4269 -1.23603 -0.977757 0
M  V30 781 C 73.3369 -1.03632 -2.1047 0
M  V30 782 C 74.3529 0.0199435 -1.73989 0
M  V30 783 O 75.5289 -0.176076 -2.00629 0
M  V30 784 C 72.5939 -0.63276 -3.40877 0
M  V30 785 C 71.6549 -1.76437 -3.91367 0
M  V30 786 C 70.8879 -1.37997 -5.15551 0
M  V30 787 O 71.1109 -0.265357 -5.69782 0
M  V30 788 O 70.0449 -2.20201 -5.60174 0
M  V30 789 H 73.8709 -1.98086 -2.30208 0
M  V30 790 H 71.4559 -1.02332 -1.08851 0
M  V30 791 H 73.3379 -0.418761 -4.19314 0
M  V30 792 H 72.0129 0.282754 -3.22463 0
M  V30 793 H 70.9199 -2.03304 -3.14036 0
M  V30 794 H 72.2529 -2.6583 -4.14241 0
M  V30 795 N 73.905 1.17692 -1.04816 0
M  V30 796 C 75.182 1.83768 -0.669963 0
M  V30 797 C 75.562 1.93232 0.849986 0
M  V30 798 O 74.91 1.46397 1.75443 0
M  V30 799 C 75.12 3.21641 -1.35455 0
M  V30 800 C 76.468 3.97592 -1.49017 0
M  V30 801 O 77.492 3.31107 -1.31326 0
M  V30 802 O 76.351 5.16729 -1.77914 0
M  V30 803 H 73.445 0.792799 -0.235368 0
M  V30 804 H 75.991 1.25021 -1.14751 0
M  V30 805 H 74.763 3.097 -2.39168 0
M  V30 806 H 74.386 3.88052 -0.866107 0
M  V30 807 N 75.3831 0.828654 1.34056 0
M  V30 808 C 76.2931 0.256725 2.33191 0
M  V30 809 C 77.3091 -0.611898 1.62886 0
M  V30 810 O 78.4851 -0.51844 1.94613 0
M  V30 811 C 75.5501 -0.567238 3.42028 0
M  V30 812 C 74.6111 0.324458 4.28072 0
M  V30 813 C 73.8441 -0.460274 5.31712 0
M  V30 814 O 74.0671 -1.693 5.44696 0
M  V30 815 O 73.0011 0.160391 6.01686 0
M  V30 816 H 76.8271 1.07739 2.83947 0
M  V30 817 H 74.4121 0.59093 1.37217 0
M  V30 818 H 76.2941 -1.03582 4.08471 0
M  V30 819 H 74.9691 -1.36513 2.93506 0
M  V30 820 H 73.8761 0.840659 3.64532 0
M  V30 821 H 75.2091 1.08685 4.8005 0
M  V30 822 N 76.8612 -1.46375 0.584142 0
M  V30 823 C 77.7912 -2.33103 -0.136037 0
M  V30 824 C 78.7722 -1.45431 -0.882255 0
M  V30 825 O 79.9572 -1.74246 -0.857434 0
M  V30 826 C 77.0872 -3.27731 -1.14933 0
M  V30 827 C 76.0412 -4.24855 -0.517862 0
M  V30 828 C 75.3672 -5.09001 -1.63773 0
M  V30 829 C 76.6672 -5.19439 0.545886 0
M  V30 830 H 78.3612 -2.93568 0.588086 0
M  V30 831 H 75.9072 -1.41166 0.284259 0
M  V30 832 H 77.8602 -3.87261 -1.66153 0
M  V30 833 H 76.5842 -2.65377 -1.90375 0
M  V30 834 H 75.2432 -3.6659 -0.0267361 0
M  V30 835 H 74.8912 -4.43031 -2.38185 0
M  V30 836 H 74.5912 -5.74777 -1.22085 0
M  V30 837 H 76.1152 -5.71396 -2.15266 0
M  V30 838 H 77.5292 -5.73177 0.118704 0
M  V30 839 H 75.9262 -5.93566 0.88317 0
M  V30 840 H 76.9962 -4.63285 1.43162 0
M  V30 841 N 78.3393 -0.321999 -1.54275 0
M  V30 842 C 79.2693 0.537411 -2.27231 0
M  V30 843 C 80.2503 1.12064 -1.27968 0
M  V30 844 O 81.4353 1.14606 -1.56777 0
M  V30 845 C 78.5653 1.69919 -3.02894 0
M  V30 846 C 77.5193 1.24534 -4.09482 0
M  V30 847 C 76.8453 2.49394 -4.72977 0
M  V30 848 C 78.1453 0.361335 -5.21049 0
M  V30 849 H 79.8393 -0.0711406 -2.99315 0
M  V30 850 H 77.3853 -0.0356555 -1.43956 0
M  V30 851 H 79.3383 2.30668 -3.52662 0
M  V30 852 H 78.0623 2.33431 -2.28424 0
M  V30 853 H 76.7213 0.660782 -3.60596 0
M  V30 854 H 76.3693 3.11265 -3.95124 0
M  V30 855 H 76.0693 2.19718 -5.44975 0
M  V30 856 H 77.5933 3.10908 -5.25517 0
M  V30 857 H 79.0073 0.875072 -5.66582 0
M  V30 858 H 77.4043 0.157428 -5.99893 0
M  V30 859 H 78.4743 -0.60822 -4.8107 0
M  V30 860 N 79.8174 1.5752 -0.0501392 0
M  V30 861 C 81.0454 1.96963 0.633492 0
M  V30 862 C 81.4604 0.927631 1.6444 0
M  V30 863 O 80.8174 -0.0882665 1.82286 0
M  V30 864 C 80.8684 3.36487 1.32132 0
M  V30 865 O 80.5894 4.36693 0.350894 0
M  V30 866 C 82.0904 3.90682 2.09481 0
M  V30 867 H 79.3104 0.648244 0.173266 0
M  V30 868 H 81.8544 2.0417 -0.116134 0
M  V30 869 H 80.0094 3.30434 2.02218 0
M  V30 870 H 80.4234 5.17702 0.841735 0
M  V30 871 H 81.8974 4.90591 2.5303 0
M  V30 872 H 82.3744 3.26053 2.94255 0
M  V30 873 H 82.9804 4.00069 1.44307 0
M  V30 874 N 81.2955 -0.223234 1.56011 0
M  V30 875 C 82.5415 -0.944891 1.8012 0
M  V30 876 C 82.8965 -1.82039 0.622862 0
M  V30 877 O 82.1895 -1.8773 -0.383143 0
M  V30 878 C 82.3835 -1.81948 3.0762 0
M  V30 879 C 82.2125 -1.03014 4.37742 0
M  V30 880 C 80.9825 -0.72574 5.00061 0
M  V30 881 C 83.1805 -0.396256 5.12771 0
M  V30 882 N 81.1625 0.0851816 6.13841 0
M  V30 883 C 82.5335 0.278137 6.19376 0
M  V30 884 C 84.5885 -0.309117 4.9694 0
M  V30 885 C 83.2915 1.03133 7.11868 0
M  V30 886 C 85.3175 0.430607 5.8983 0
M  V30 887 C 84.6795 1.09355 6.9586 0
M  V30 888 H 80.7785 -0.326081 0.710771 0
M  V30 889 H 83.3625 -0.215914 1.93499 0
M  V30 890 H 81.5335 -2.52029 2.95527 0
M  V30 891 H 83.2655 -2.47848 3.19927 0
M  V30 892 H 80.0205 -1.04335 4.61964 0
M  V30 893 H 80.4445 0.479428 6.753 0
M  V30 894 H 85.0865 -0.807313 4.15021 0
M  V30 895 H 82.8045 1.54105 7.9327 0
M  V30 896 H 86.3905 0.499012 5.79656 0
M  V30 897 H 85.2705 1.65679 7.66499 0
M  V30 898 N 82.7736 -1.49793 -0.48987 0
M  V30 899 C 84.0226 -1.59085 -1.23995 0
M  V30 900 C 84.3356 -0.287907 -1.9347 0
M  V30 901 O 85.5416 -0.259506 -2.70257 0
M  V30 902 C 83.9976 -2.80736 -2.252 0
M  V30 903 C 83.6056 -4.17833 -1.61614 0
M  V30 904 C 85.3496 -2.99364 -3.00967 0
M  V30 905 C 83.2566 -5.30693 -2.60996 0
M  V30 906 H 82.1866 -0.592372 -0.466488 0
M  V30 907 H 84.8376 -1.76197 -0.51252 0
M  V30 908 H 83.2196 -2.57142 -3.01154 0
M  V30 909 H 84.3936 -4.51608 -0.915774 0
M  V30 910 H 82.7086 -4.04656 -0.981977 0
M  V30 911 H 85.3056 -3.80851 -3.75308 0
M  V30 912 H 85.6486 -2.10356 -3.59244 0
M  V30 913 H 86.1816 -3.2305 -2.32128 0
M  V30 914 H 82.9206 -6.21796 -2.07485 0
M  V30 915 H 82.4406 -5.01359 -3.2924 0
M  V30 916 H 84.1196 -5.6049 -3.23202 0
M  V30 917 N 84.2517 0.741722 -1.39055 0
M  V30 918 C 85.1617 1.88621 -1.39496 0
M  V30 919 C 86.1777 1.71557 -0.290578 0
M  V30 920 O 87.3537 1.94275 -0.530954 0
M  V30 921 C 84.4187 3.24134 -1.23037 0
M  V30 922 C 83.4797 3.5364 -2.43387 0
M  V30 923 C 82.7127 4.82687 -2.27703 0
M  V30 924 O 82.9357 5.55922 -1.27696 0
M  V30 925 O 81.8697 5.1194 -3.16545 0
M  V30 926 H 85.6957 1.91203 -2.35956 0
M  V30 927 H 83.2807 0.888625 -1.20099 0
M  V30 928 H 85.1627 4.0513 -1.15964 0
M  V30 929 H 83.8377 3.22337 -0.296691 0
M  V30 930 H 82.7447 2.72758 -2.56035 0
M  V30 931 H 84.0777 3.60209 -3.35425 0
M  V30 932 N 85.7298 1.2412 0.971189 0
M  V30 933 C 86.6398 1.04747 2.09917 0
M  V30 934 C 87.6558 -0.0107162 1.73997 0
M  V30 935 O 88.8318 0.186714 2.00533 0
M  V30 936 C 85.8968 0.650828 3.40537 0
M  V30 937 C 84.9578 1.7851 3.90426 0
M  V30 938 C 84.1908 1.40729 5.14812 0
M  V30 939 O 84.4138 0.29557 5.69634 0
M  V30 940 O 83.3478 2.23168 5.58999 0
M  V30 941 H 87.1738 1.99304 2.29154 0
M  V30 942 H 84.7588 1.02908 1.08307 0
M  V30 943 H 86.6408 0.440992 4.19086 0
M  V30 944 H 85.3158 -0.265649 3.22608 0
M  V30 945 H 84.2228 2.04966 3.12953 0
M  V30 946 H 85.5558 2.68023 4.12825 0
M  V30 947 N 87.2079 -1.17134 1.05439 0
M  V30 948 C 88.4559 -1.87085 0.764429 0
M  V30 949 C 88.7769 -1.81584 -0.710787 0
M  V30 950 O 88.0469 -1.24349 -1.51374 0
M  V30 951 H 86.6269 -0.692627 0.279779 0
M  V30 952 H 89.2889 -1.42087 1.33406 0
M  V30 953 H 88.3849 -2.92759 1.0816 0
M  V30 954 N 88.686 -0.835752 -1.33615 0
M  V30 955 C 89.618 -0.224151 -2.28101 0
M  V30 956 C 90.631 0.593331 -1.51603 0
M  V30 957 O 91.82 0.420911 -1.73466 0
M  V30 958 C 88.92 0.703309 -3.31522 0
M  V30 959 C 88.093 -0.0741528 -4.37337 0
M  V30 960 C 87.152 0.776176 -5.20444 0
M  V30 961 O 86.178 0.216506 -5.68788 0
M  V30 962 N 87.38 2.09401 -5.41416 0
M  V30 963 H 90.145 -1.03598 -2.81225 0
M  V30 964 H 87.706 -0.69392 -1.46275 0
M  V30 965 H 89.698 1.27707 -3.84022 0
M  V30 966 H 88.268 1.41585 -2.78698 0
M  V30 967 H 87.488 -0.82928 -3.85378 0
M  V30 968 H 88.776 -0.608863 -5.05144 0
M  V30 969 H 88.174 2.57229 -5.03835 0
M  V30 970 H 86.731 2.61633 -5.96985 0
M  V30 971 N 90.1641 1.46063 -0.591896 0
M  V30 972 C 91.3941 2.06418 -0.0867676 0
M  V30 973 C 91.8021 1.43975 1.22751 0
M  V30 974 O 91.1451 0.542531 1.75506 0
M  V30 975 C 91.2071 3.59213 0.143725 0
M  V30 976 C 90.8711 4.439 -1.08635 0
M  V30 977 C 91.8681 4.79864 -2.00067 0
M  V30 978 C 89.5531 4.84896 -1.31077 0
M  V30 979 C 91.5471 5.55661 -3.12282 0
M  V30 980 C 89.2341 5.6045 -2.43596 0
M  V30 981 C 90.2321 5.95747 -3.34027 0
M  V30 982 O 89.9201 6.69772 -4.4459 0
M  V30 983 H 89.6521 0.673443 -0.0587447 0
M  V30 984 H 92.2061 1.88539 -0.814994 0
M  V30 985 H 90.4361 3.75433 0.926668 0
M  V30 986 H 92.1251 4.01463 0.5985 0
M  V30 987 H 92.8911 4.48763 -1.83947 0
M  V30 988 H 88.7701 4.56867 -0.61594 0
M  V30 989 H 92.3141 5.8313 -3.82891 0
M  V30 990 H 88.2111 5.90965 -2.59674 0
M  V30 991 H 88.9791 6.88207 -4.43073 0
M  V30 992 N 91.6422 0.330177 1.54103 0
M  V30 993 C 92.8892 -0.270405 2.00686 0
M  V30 994 C 93.2172 -1.51621 1.21825 0
M  V30 995 O 92.4722 -1.93536 0.29025 0
M  V30 996 C 92.7712 -0.643134 3.51566 0
M  V30 997 C 92.4372 0.504251 4.48072 0
M  V30 998 C 91.0992 0.819163 4.74176 0
M  V30 999 C 93.4512 1.27465 5.05373 0
M  V30 1000 C 90.7792 1.90708 5.5484 0
M  V30 1001 C 93.1312 2.35271 5.87223 0
M  V30 1002 C 91.7952 2.67336 6.11627 0
M  V30 1003 H 91.0652 -0.0989482 0.734364 0
M  V30 1004 H 93.7122 0.455324 1.86008 0
M  V30 1005 H 92.0172 -1.44938 3.64006 0
M  V30 1006 H 93.7142 -1.11949 3.85056 0
M  V30 1007 H 90.3042 0.248733 4.27878 0
M  V30 1008 H 94.4882 1.04462 4.85182 0
M  V30 1009 H 89.7442 2.15991 5.71977 0
M  V30 1010 H 93.9182 2.95405 6.30641 0
M  V30 1011 H 91.5452 3.51763 6.73919 0
M  V30 1012 N 93.1203 -1.57491 0.0584922 0
M  V30 1013 C 94.0533 -2.07533 -0.948969 0
M  V30 1014 C 95.0313 -0.977444 -1.29942 0
M  V30 1015 O 96.2153 -1.2499 -1.41102 0
M  V30 1016 C 93.3423 -2.52192 -2.2609 0
M  V30 1017 C 92.3883 -3.73287 -2.06298 0
M  V30 1018 S 93.2213 -5.18603 -1.33459 0
M  V30 1019 C 94.3773 -5.66583 -2.65959 0
M  V30 1020 H 94.6103 -2.92662 -0.523118 0
M  V30 1021 H 92.1433 -1.53631 -0.153954 0
M  V30 1022 H 94.1013 -2.78585 -3.01498 0
M  V30 1023 H 92.7623 -1.67356 -2.65802 0
M  V30 1024 H 91.9553 -4.0248 -3.03357 0
M  V30 1025 H 91.5573 -3.47199 -1.39029 0
M  V30 1026 H 93.8493 -5.72616 -3.62101 0
M  V30 1027 H 94.7923 -6.65684 -2.41393 0
M  V30 1028 H 95.2003 -4.94342 -2.72554 0
M  V30 1029 N 94.5984 0.214957 -1.56127 0
M  V30 1030 C 95.5284 1.2695 -1.95974 0
M  V30 1031 C 96.5094 1.48539 -0.828868 0
M  V30 1032 O 97.6944 1.60611 -1.09168 0
M  V30 1033 C 94.8244 2.61794 -2.28214 0
M  V30 1034 C 93.7784 2.54851 -3.43853 0
M  V30 1035 C 93.1044 3.93785 -3.61715 0
M  V30 1036 C 94.4044 2.09065 -4.78632 0
M  V30 1037 H 96.0984 0.93846 -2.84312 0
M  V30 1038 H 93.6444 0.449996 -1.36788 0
M  V30 1039 H 95.5974 3.35731 -2.54682 0
M  V30 1040 H 94.3214 2.96599 -1.36736 0
M  V30 1041 H 92.9804 1.8337 -3.17444 0
M  V30 1042 H 92.6284 4.25908 -2.67602 0
M  V30 1043 H 92.3284 3.90019 -4.39498 0
M  V30 1044 H 93.8524 4.69374 -3.90539 0
M  V30 1045 H 95.2664 2.7275 -5.04262 0
M  V30 1046 H 93.6634 2.16346 -5.59745 0
M  V30 1047 H 94.7334 1.04315 -4.73547 0
M  V30 1048 N 96.0765 1.50051 0.48192 0
M  V30 1049 C 97.0245 1.68635 1.60203 0
M  V30 1050 C 98.0185 0.552184 1.60148 0
M  V30 1051 O 99.2245 0.732377 1.64427 0
M  V30 1052 H 95.5995 0.532081 0.531407 0
M  V30 1053 H 97.5705 2.62616 1.41688 0
M  V30 1054 C 96.3195 1.78775 2.9822 0
M  V30 1055 H 95.6425 2.6543 2.98976 0
M  V30 1056 H 97.0825 1.95806 3.7608 0
M  V30 1057 C 95.5415 0.536849 3.32595 0
M  V30 1058 O 96.0715 -0.328897 4.00351 0
M  V30 1059 N 94.2775 0.394091 2.87915 0
M  V30 1060 H 93.8245 1.09962 2.32951 0
M  V30 1061 H 93.7825 -0.441737 3.11281 0
M  V30 1062 N 97.5546 -0.734337 1.39446 0
M  V30 1063 C 98.5016 -1.84835 1.38219 0
M  V30 1064 C 99.4716 -1.64331 0.24179 0
M  V30 1065 O 100.657 -1.85728 0.437002 0
M  V30 1066 C 97.7966 -3.22355 1.23212 0
M  V30 1067 C 96.9096 -3.5456 2.46801 0
M  V30 1068 C 96.0446 -4.81485 2.24377 0
M  V30 1069 C 95.0836 -5.06536 3.43639 0
M  V30 1070 N 94.2206 -6.24665 3.20528 0
M  V30 1071 H 99.0606 -1.85219 2.33448 0
M  V30 1072 H 96.5976 -0.905039 1.15963 0
M  V30 1073 H 98.5556 -4.0174 1.12522 0
M  V30 1074 H 97.1856 -3.21248 0.316121 0
M  V30 1075 H 96.2376 -2.69872 2.68092 0
M  V30 1076 H 97.5496 -3.6899 3.3563 0
M  V30 1077 H 96.7036 -5.68852 2.10933 0
M  V30 1078 H 95.4426 -4.6923 1.32944 0
M  V30 1079 H 94.4476 -4.17632 3.5758 0
M  V30 1080 H 95.6726 -5.20676 4.35974 0
M  V30 1081 H 93.6186 -6.13696 2.3176 0
M  V30 1082 H 93.5356 -6.39685 4.02913 0
M  V30 1083 H 94.8036 -7.14868 3.10779 0
M  V30 1084 N 99.0327 -1.24633 -0.964593 0
M  V30 1085 C 100.444 -1.08045 -1.5226 0
M  V30 1086 C 100.795 0.347116 -1.93105 0
M  V30 1087 O 99.9197 1.23588 -1.77637 0
M  V30 1088 C 100.515 -1.95514 -2.76695 0
M  V30 1089 C 99.0737 -1.8314 -3.28841 0
M  V30 1090 C 98.2207 -1.90262 -2.01732 0
M  V30 1091 H 101.172 -1.38064 -0.782553 0
M  V30 1092 H 101.193 -1.48925 -3.50145 0
M  V30 1093 H 100.705 -2.99407 -2.46936 0
M  V30 1094 H 98.8057 -0.82092 -3.63444 0
M  V30 1095 H 98.9187 -2.67406 -3.97531 0
M  V30 1096 H 97.2827 -1.34027 -2.16584 0
M  V30 1097 H 98.0657 -2.9574 -1.74334 0
M  V30 1098 N 100.511 1.16574 -1.06058 0
M  V30 1099 C 101.443 2.2045 -0.627239 0
M  V30 1100 C 102.456 1.59752 0.313534 0
M  V30 1101 O 103.645 1.78192 0.104896 0
M  V30 1102 C 100.745 3.3875 0.100974 0
M  V30 1103 C 99.9178 4.29008 -0.852687 0
M  V30 1104 C 98.9768 5.25944 -0.164152 0
M  V30 1105 O 98.0028 5.63535 -0.801047 0
M  V30 1106 N 99.2048 5.70075 1.09518 0
M  V30 1107 H 101.97 2.58249 -1.52077 0
M  V30 1108 H 99.5308 1.3156 -0.943594 0
M  V30 1109 H 101.523 4.00638 0.57194 0
M  V30 1110 H 100.093 2.99476 0.89628 0
M  V30 1111 H 99.3128 3.64419 -1.50308 0
M  V30 1112 H 100.601 4.86195 -1.49972 0
M  V30 1113 H 99.9988 5.41624 1.6328 0
M  V30 1114 H 98.5558 6.34067 1.51006 0
M  V30 1115 N 101.989 0.842826 1.3317 0
M  V30 1116 C 103.237 0.439577 1.97262 0
M  V30 1117 C 103.558 -1.00548 1.67078 0
M  V30 1118 O 102.828 -1.70098 0.971779 0
M  V30 1119 H 101.408 0.159558 0.72976 0
M  V30 1120 H 104.07 1.07665 1.62463 0
M  V30 1121 H 103.166 0.574886 3.0676 0
M  V30 1122 N 103.467 -1.45747 0.599634 0
M  V30 1123 C 104.707 -2.04181 0.0946309 0
M  V30 1124 C 105.071 -1.45895 -1.24815 0
M  V30 1125 O 106.272 -1.95633 -1.8434 0
M  V30 1126 C 104.543 -3.57368 0.047581 0
M  V30 1127 S 106.102 -4.36997 -0.397387 0
M  V30 1128 H 102.92 -0.70953 0.0456954 0
M  V30 1129 H 105.522 -1.78564 0.795946 0
M  V30 1130 H 104.226 -3.97303 1.02852 0
M  V30 1131 H 103.757 -3.87549 -0.675977 0
M  V30 1132 H 105.772 -4.68012 -1.64862 0
M  V30 1133 N 104.945 -0.338344 -1.53925 0
M  V30 1134 C 106.191 0.260143 -2.01125 0
M  V30 1135 C 106.524 1.50617 -1.22589 0
M  V30 1136 O 105.799 1.91979 -0.312113 0
M  V30 1137 C 106.082 0.579499 -3.55407 0
M  V30 1138 C 105.935 -0.678264 -4.44657 0
M  V30 1139 C 107.254 1.39122 -4.17532 0
M  V30 1140 H 104.373 0.0930772 -0.731099 0
M  V30 1141 H 107.015 -0.457852 -1.84401 0
M  V30 1142 H 105.165 1.19118 -3.69788 0
M  V30 1143 H 106.837 -1.31631 -4.42121 0
M  V30 1144 H 105.08 -1.3042 -4.13731 0
M  V30 1145 H 105.751 -0.410143 -5.50474 0
M  V30 1146 H 108.227 0.874035 -4.06817 0
M  V30 1147 H 107.103 1.58342 -5.25565 0
M  V30 1148 H 107.364 2.39178 -3.71815 0
M  V30 1149 N 106.423 1.57458 -0.0668435 0
M  V30 1150 C 107.663 1.95175 0.607116 0
M  V30 1151 C 108.027 0.946039 1.67075 0
M  V30 1152 O 109.228 1.2107 2.39991 0
M  V30 1153 C 107.499 3.37582 1.17358 0
M  V30 1154 S 109.058 3.97271 1.86336 0
M  V30 1155 H 105.876 0.682604 0.19893 0
M  V30 1156 H 108.478 1.95002 -0.139519 0
M  V30 1157 H 107.182 4.08566 0.387553 0
M  V30 1158 H 106.713 3.41288 1.95669 0
M  V30 1159 H 108.728 3.83772 3.14537 0
M  V30 1160 N 107.901 -0.206675 1.56239 0
M  V30 1161 C 109.126 -0.949474 1.8439 0
M  V30 1162 C 109.551 -1.76549 0.649016 0
M  V30 1163 O 108.909 -1.76782 -0.402231 0
M  V30 1164 C 108.957 -1.83078 3.10668 0
M  V30 1165 O 108.061 -2.9281 2.90407 0
M  V30 1166 H 107.402 -0.268033 0.607499 0
M  V30 1167 H 109.932 -0.215488 2.03462 0
M  V30 1168 H 109.942 -2.2377 3.41161 0
M  V30 1169 H 108.617 -1.23112 3.97261 0
M  V30 1170 H 107.194 -2.55956 2.71184 0
M  V30 1171 N 109.379 -1.50304 -0.473955 0
M  V30 1172 C 110.327 -1.69482 -1.59307 0
M  V30 1173 C 111.321 -0.560669 -1.59853 0
M  V30 1174 O 112.527 -0.741087 -1.64036 0
M  V30 1175 H 108.902 -0.534892 -0.528578 0
M  V30 1176 H 110.873 -2.63364 -1.40293 0
M  V30 1177 C 109.622 -1.80354 -2.97267 0
M  V30 1178 H 108.945 -2.67012 -2.97564 0
M  V30 1179 H 110.385 -1.97798 -3.75036 0
M  V30 1180 C 108.844 -0.55448 -3.32306 0
M  V30 1181 O 109.374 0.307661 -4.0052 0
M  V30 1182 N 107.58 -0.409354 -2.87702 0
M  V30 1183 H 107.127 -1.11196 -2.32364 0
M  V30 1184 H 107.085 0.425223 -3.11511 0
M  V30 1185 N 110.857 0.726932 -1.39834 0
M  V30 1186 C 112.134 1.47902 -1.28001 0
M  V30 1187 C 112.514 2.1083 0.106789 0
M  V30 1188 O 111.862 1.99242 1.11869 0
M  V30 1189 C 112.072 2.52392 -2.41038 0
M  V30 1190 C 113.42 3.18546 -2.80737 0
M  V30 1191 O 114.444 2.62708 -2.40547 0
M  V30 1192 O 113.303 4.19604 -3.50135 0
M  V30 1193 H 110.397 0.657163 -0.502062 0
M  V30 1194 H 112.943 0.760071 -1.51727 0
M  V30 1195 H 111.715 2.04329 -3.33715 0
M  V30 1196 H 111.338 3.31837 -2.19021 0
M  V30 1197 N 112.336 1.25143 0.95797 0
M  V30 1198 C 113.613 1.00472 1.67823 0
M  V30 1199 C 113.993 -0.470056 2.058 0
M  V30 1200 O 113.341 -1.44663 1.76875 0
M  V30 1201 C 113.551 1.9372 2.90299 0
M  V30 1202 C 114.899 2.21371 3.62326 0
M  V30 1203 O 115.923 1.91451 3.00375 0
M  V30 1204 O 114.782 2.72231 4.7387 0
M  V30 1205 H 111.876 0.380752 0.734137 0
M  V30 1206 H 114.422 1.36283 1.01119 0
M  V30 1207 H 113.194 2.93316 2.59001 0
M  V30 1208 H 112.817 1.58286 3.64735 0
M  V30 1209 N 113.814 -1.1601 1.06675 0
M  V30 1210 C 115.062 -1.86264 0.784229 0
M  V30 1211 C 115.383 -1.82328 -0.691488 0
M  V30 1212 O 114.653 -1.25947 -1.50047 0
M  V30 1213 H 113.233 -0.689621 0.28711 0
M  V30 1214 H 115.895 -1.40664 1.34906 0
M  V30 1215 H 114.991 -2.91595 1.11259 0
M  V30 1216 N 115.292 -0.849877 -1.32721 0
M  V30 1217 C 116.569 -0.372405 -1.92022 0
M  V30 1218 C 116.949 1.1435 -1.77447 0
M  V30 1219 O 116.297 1.96296 -1.16962 0
M  V30 1220 C 116.507 -0.831482 -3.3895 0
M  V30 1221 C 117.855 -0.845882 -4.16089 0
M  V30 1222 O 118.879 -0.775806 -3.47649 0
M  V30 1223 O 117.738 -0.943753 -5.38289 0
M  V30 1224 H 114.832 -0.107667 -0.819961 0
M  V30 1225 H 117.378 -0.93646 -1.41522 0
M  V30 1226 H 116.15 -1.87448 -3.4348 0
M  V30 1227 H 115.773 -0.24461 -3.96847 0
M  V30 1228 N 116.77 1.45427 -0.607355 0
M  V30 1229 C 118 2.06314 -0.108656 0
M  V30 1230 C 118.408 1.45269 1.21217 0
M  V30 1231 O 117.751 0.561115 1.74921 0
M  V30 1232 C 117.813 3.59345 0.105618 0
M  V30 1233 C 117.477 4.42723 -1.13337 0
M  V30 1234 C 118.474 4.77715 -2.05145 0
M  V30 1235 C 116.159 4.83478 -1.36213 0
M  V30 1236 C 118.153 5.52317 -3.18158 0
M  V30 1237 C 115.84 5.57835 -2.49527 0
M  V30 1238 C 116.838 5.92171 -3.40327 0
M  V30 1239 O 116.526 6.65019 -4.51669 0
M  V30 1240 H 116.258 0.672782 -0.0658842 0
M  V30 1241 H 118.812 1.87664 -0.834945 0
M  V30 1242 H 117.042 3.76394 0.886796 0
M  V30 1243 H 118.731 4.02076 0.555886 0
M  V30 1244 H 119.497 4.46787 -1.88697 0
M  V30 1245 H 115.376 4.56188 -0.664362 0
M  V30 1246 H 118.92 5.79036 -3.89054 0
M  V30 1247 H 114.817 5.88177 -2.65928 0
M  V30 1248 H 115.585 6.83469 -4.50348 0
M  V30 1249 N 118.248 0.346503 1.53744 0
M  V30 1250 C 119.659 -0.136779 1.86198 0
M  V30 1251 C 120.01 -1.49749 1.26766 0
M  V30 1252 O 119.135 -2.08417 0.582355 0
M  V30 1253 C 119.73 -0.254966 3.37839 0
M  V30 1254 C 118.289 -0.682482 3.70161 0
M  V30 1255 C 117.436 0.181981 2.76702 0
M  V30 1256 H 120.387 0.565994 1.48264 0
M  V30 1257 H 120.408 -1.08195 3.64793 0
M  V30 1258 H 119.92 0.735526 3.81066 0
M  V30 1259 H 118.021 -1.68189 3.3248 0
M  V30 1260 H 118.134 -0.470326 4.76786 0
M  V30 1261 H 116.498 -0.34615 2.52337 0
M  V30 1262 H 117.281 1.16966 3.2276 0
M  V30 1263 N 119.726 -1.57421 0.075193 0
M  V30 1264 C 120.954 -1.97946 -0.602076 0
M  V30 1265 C 121.369 -0.953674 -1.62943 0
M  V30 1266 O 120.726 0.0592551 -1.82404 0
M  V30 1267 C 120.777 -3.38546 -1.26762 0
M  V30 1268 O 120.498 -4.37195 -0.281376 0
M  V30 1269 C 121.999 -3.93966 -2.03239 0
M  V30 1270 H 119.219 -0.650918 -0.162931 0
M  V30 1271 H 121.763 -2.03959 0.148601 0
M  V30 1272 H 119.918 -3.33609 -1.96936 0
M  V30 1273 H 120.332 -5.18975 -0.759267 0
M  V30 1274 H 121.806 -4.94555 -2.45193 0
M  V30 1275 H 122.283 -3.30693 -2.8903 0
M  V30 1276 H 122.889 -4.02315 -1.37924 0
M  V30 1277 N 121.204 0.198386 -1.56346 0
M  V30 1278 C 122.453 0.917451 -1.79627 0
M  V30 1279 C 122.766 1.8456 -0.64784 0
M  V30 1280 O 123.972 2.60504 -0.764859 0
M  V30 1281 C 122.428 1.68175 -3.18191 0
M  V30 1282 C 122.036 0.798589 -4.40825 0
M  V30 1283 C 123.78 2.39065 -3.50782 0
M  V30 1284 C 121.687 1.56157 -5.70411 0
M  V30 1285 H 120.617 0.346317 -0.669762 0
M  V30 1286 H 123.268 0.170801 -1.82703 0
M  V30 1287 H 121.65 2.47216 -3.09354 0
M  V30 1288 H 122.824 0.0470665 -4.60776 0
M  V30 1289 H 121.139 0.200686 -4.15916 0
M  V30 1290 H 123.736 2.96692 -4.44835 0
M  V30 1291 H 124.079 3.13091 -2.74371 0
M  V30 1292 H 124.612 1.66993 -3.61052 0
M  V30 1293 H 121.351 0.864142 -6.49779 0
M  V30 1294 H 120.871 2.2871 -5.54483 0
M  V30 1295 H 122.55 2.11622 -6.11412 0
M  V30 1296 N 122.682 1.50554 0.465978 0
M  V30 1297 C 123.912 1.65323 1.23903 0
M  V30 1298 C 124.32 0.338051 1.86155 0
M  V30 1299 O 123.663 -0.690518 1.70228 0
M  V30 1300 C 123.725 2.69048 2.3844 0
M  V30 1301 C 123.389 4.12462 1.96784 0
M  V30 1302 C 124.386 4.98168 1.48745 0
M  V30 1303 C 122.071 4.58407 2.05349 0
M  V30 1304 C 124.065 6.27868 1.0982 0
M  V30 1305 C 121.752 5.88112 1.66035 0
M  V30 1306 C 122.75 6.72668 1.18349 0
M  V30 1307 O 122.438 7.99951 0.795825 0
M  V30 1308 H 122.17 0.558629 0.38067 0
M  V30 1309 H 124.724 1.97561 0.562022 0
M  V30 1310 H 122.954 2.32062 3.09328 0
M  V30 1311 H 124.643 2.72985 3.0039 0
M  V30 1312 H 125.409 4.63885 1.41546 0
M  V30 1313 H 121.288 3.92735 2.41414 0
M  V30 1314 H 124.832 6.93819 0.725293 0
M  V30 1315 H 120.729 6.21914 1.72895 0
M  V30 1316 H 121.497 8.13265 0.924222 0
M  V30 1317 N 124.16 -0.719506 1.40217 0
M  V30 1318 C 125.092 -1.84428 1.36084 0
M  V30 1319 C 126.105 -1.60597 0.266913 0
M  V30 1320 O 127.294 -1.70544 0.526983 0
M  V30 1321 C 124.394 -3.20757 1.094 0
M  V30 1322 C 123.567 -3.71817 2.30372 0
M  V30 1323 C 122.626 -4.86748 1.99907 0
M  V30 1324 O 121.652 -4.99603 2.72737 0
M  V30 1325 N 122.854 -5.7226 0.974635 0
M  V30 1326 H 125.619 -1.88473 2.33019 0
M  V30 1327 H 123.18 -0.900885 1.3452 0
M  V30 1328 H 125.172 -3.95235 0.870116 0
M  V30 1329 H 123.742 -3.11884 0.211452 0
M  V30 1330 H 122.962 -2.88514 2.68614 0
M  V30 1331 H 124.25 -4.02666 3.11026 0
M  V30 1332 H 123.648 -5.6448 0.371368 0
M  V30 1333 H 122.205 -6.46739 0.810656 0
M  V30 1334 N 125.638 -1.25649 -0.95132 0
M  V30 1335 C 126.885 -1.10594 -1.69633 0
M  V30 1336 C 127.213 0.352515 -1.91279 0
M  V30 1337 O 126.468 1.27601 -1.4838 0
M  V30 1338 C 126.767 -1.80909 -3.08231 0
M  V30 1339 C 126.433 -3.30825 -3.06375 0
M  V30 1340 C 125.095 -3.71722 -3.05576 0
M  V30 1341 C 127.447 -4.26589 -2.99452 0
M  V30 1342 C 124.775 -5.06788 -2.95606 0
M  V30 1343 C 127.127 -5.61683 -2.91024 0
M  V30 1344 C 125.791 -6.01904 -2.88562 0
M  V30 1345 H 125.061 -0.404691 -0.620731 0
M  V30 1346 H 127.708 -1.55964 -1.11119 0
M  V30 1347 H 126.013 -1.27979 -3.70309 0
M  V30 1348 H 127.71 -1.6671 -3.64704 0
M  V30 1349 H 124.3 -2.98287 -3.07771 0
M  V30 1350 H 128.484 -3.95982 -2.99185 0
M  V30 1351 H 123.74 -5.37126 -2.92071 0
M  V30 1352 H 127.914 -6.35578 -2.84629 0
M  V30 1353 H 125.541 -7.06521 -2.80593 0
M  V30 1354 N 127.117 1.15442 -1.07289 0
M  V30 1355 C 128.364 1.86213 -0.795668 0
M  V30 1356 C 128.692 1.82291 0.678238 0
M  V30 1357 O 127.947 1.24057 1.51355 0
M  V30 1358 C 128.246 3.3489 -1.24834 0
M  V30 1359 C 127.912 3.59007 -2.72809 0
M  V30 1360 C 126.574 3.65298 -3.13227 0
M  V30 1361 C 128.926 3.68762 -3.68326 0
M  V30 1362 C 126.254 3.78854 -4.4798 0
M  V30 1363 C 128.606 3.83842 -5.0284 0
M  V30 1364 C 127.27 3.88378 -5.4288 0
M  V30 1365 H 126.54 0.681403 -0.291155 0
M  V30 1366 H 129.187 1.36435 -1.34379 0
M  V30 1367 H 127.492 3.8687 -0.619595 0
M  V30 1368 H 129.189 3.88052 -1.01076 0
M  V30 1369 H 125.779 3.5475 -2.40521 0
M  V30 1370 H 129.963 3.63202 -3.38227 0
M  V30 1371 H 125.219 3.80623 -4.78472 0
M  V30 1372 H 129.393 3.90332 -5.76727 0
M  V30 1373 H 127.02 3.98635 -6.47298 0
M  V30 1374 N 128.595 0.856903 1.32268 0
M  V30 1375 C 129.872 0.382583 1.91822 0
M  V30 1376 C 130.252 -1.13407 1.78051 0
M  V30 1377 O 129.6 -1.95673 1.18001 0
M  V30 1378 C 129.81 0.849446 3.38505 0
M  V30 1379 C 131.158 0.867936 4.15634 0
M  V30 1380 O 132.182 0.794232 3.47232 0
M  V30 1381 O 131.041 0.972286 5.37781 0
M  V30 1382 H 128.135 0.112014 0.819379 0
M  V30 1383 H 130.681 0.943952 1.41024 0
M  V30 1384 H 129.453 1.89267 3.42482 0
M  V30 1385 H 129.076 0.265652 3.96712 0
M  V30 1386 N 130.073 -1.45103 0.615059 0
M  V30 1387 C 131.303 -2.06254 0.119596 0
M  V30 1388 C 131.711 -1.4591 -1.20445 0
M  V30 1389 O 131.054 -0.570384 -1.7462 0
M  V30 1390 C 131.116 -3.59396 -0.0865591 0
M  V30 1391 C 130.78 -4.42116 1.15683 0
M  V30 1392 C 131.777 -4.7662 2.07676 0
M  V30 1393 C 129.462 -4.82749 1.38775 0
M  V30 1394 C 131.456 -5.50622 3.21082 0
M  V30 1395 C 129.143 -5.56504 2.52481 0
M  V30 1396 C 130.141 -5.90358 3.43463 0
M  V30 1397 O 129.829 -6.62615 4.55189 0
M  V30 1398 H 129.561 -0.672423 0.0694512 0
M  V30 1399 H 132.115 -1.87219 0.844885 0
M  V30 1400 H 130.345 -3.76859 -0.866823 0
M  V30 1401 H 132.034 -4.02365 -0.534555 0
M  V30 1402 H 132.8 -4.4578 1.91063 0
M  V30 1403 H 128.679 -4.55829 0.688545 0
M  V30 1404 H 132.223 -5.76965 3.92119 0
M  V30 1405 H 128.12 -5.86759 2.69043 0
M  V30 1406 H 128.888 -6.81071 4.53966 0
M  V30 1407 N 131.551 -0.354651 -1.53558 0
M  V30 1408 C 132.962 0.126902 -1.86268 0
M  V30 1409 C 133.313 1.49075 -1.27558 0
M  V30 1410 O 132.438 2.08105 -0.5934 0
M  V30 1411 C 133.033 0.237046 -3.3797 0
M  V30 1412 C 131.592 0.662842 -3.70518 0
M  V30 1413 C 130.739 -0.196652 -2.76602 0
M  V30 1414 H 133.69 -0.573849 -1.47962 0
M  V30 1415 H 133.711 1.06259 -3.65362 0
M  V30 1416 H 133.223 -0.755725 -3.80671 0
M  V30 1417 H 131.324 1.66424 -3.33367 0
M  V30 1418 H 131.437 0.445034 -4.77029 0
M  V30 1419 H 129.801 0.332763 -2.52517 0
M  V30 1420 H 130.584 -1.18676 -3.22135 0
M  V30 1421 N 133.029 1.57378 -0.0835403 0
M  V30 1422 C 133.959 2.1641 0.87686 0
M  V30 1423 C 134.94 1.09429 1.30228 0
M  V30 1424 O 136.125 1.37516 1.37124 0
M  V30 1425 C 133.255 2.73517 2.14022 0
M  V30 1426 C 132.209 3.85769 1.85381 0
M  V30 1427 C 131.535 4.29529 3.18448 0
M  V30 1428 C 132.835 5.09486 1.14984 0
M  V30 1429 H 134.529 2.96914 0.385059 0
M  V30 1430 H 132.075 1.42823 0.18377 0
M  V30 1431 H 134.028 3.13463 2.81636 0
M  V30 1432 H 132.752 1.90252 2.65465 0
M  V30 1433 H 131.411 3.46345 1.20169 0
M  V30 1434 H 131.059 3.43169 3.67755 0
M  V30 1435 H 130.759 5.05204 3.00071 0
M  V30 1436 H 132.283 4.72099 3.8724 0
M  V30 1437 H 133.697 5.46674 1.72687 0
M  V30 1438 H 132.094 5.90515 1.06826 0
M  V30 1439 H 133.164 4.84724 0.130749 0
M  V30 1440 N 134.507 -0.190092 1.56449 0
M  V30 1441 C 135.47 -1.21925 1.9408 0
M  V30 1442 C 136.47 -1.38176 0.822431 0
M  V30 1443 O 137.66 -1.35903 1.08977 0
M  V30 1444 C 134.792 -2.58773 2.21922 0
M  V30 1445 H 135.985 -0.897464 2.86157 0
M  V30 1446 H 133.538 -0.43181 1.50217 0
M  V30 1447 H 134.273 -2.95998 1.32499 0
M  V30 1448 H 134.058 -2.48348 3.03424 0
M  V30 1449 H 135.548 -3.32978 2.52022 0
M  V30 1450 N 135.985 -1.50799 -0.457987 0
M  V30 1451 C 137.233 -1.62121 -1.2067 0
M  V30 1452 C 137.554 -0.329793 -1.92191 0
M  V30 1453 O 136.824 0.653409 -1.84682 0
M  V30 1454 H 135.404 -0.597441 -0.448411 0
M  V30 1455 H 138.066 -1.87637 -0.527096 0
M  V30 1456 H 137.162 -2.43882 -1.94751 0
M  V30 1457 N 137.463 0.71206 -1.40597 0
M  V30 1458 C 138.41 1.82613 -1.41142 0
M  V30 1459 C 139.38 1.63925 -0.267903 0
M  V30 1460 O 140.565 1.85009 -0.466495 0
M  V30 1461 C 137.705 3.20354 -1.28324 0
M  V30 1462 C 136.818 3.50589 -2.52411 0
M  V30 1463 C 135.953 4.77855 -2.32009 0
M  V30 1464 C 134.992 5.01005 -3.51654 0
M  V30 1465 N 134.129 6.19487 -3.30425 0
M  V30 1466 H 138.969 1.81482 -2.36365 0
M  V30 1467 H 136.506 0.886475 -1.17388 0
M  V30 1468 H 138.464 3.99899 -1.18899 0
M  V30 1469 H 137.094 3.20705 -0.367189 0
M  V30 1470 H 136.146 2.65573 -2.72351 0
M  V30 1471 H 137.458 3.63604 -3.41458 0
M  V30 1472 H 136.612 5.65424 -2.19956 0
M  V30 1473 H 135.351 4.67056 -1.40392 0
M  V30 1474 H 134.356 4.1189 -3.64179 0
M  V30 1475 H 135.581 5.13674 -4.44202 0
M  V30 1476 H 133.527 6.09932 -2.41494 0
M  V30 1477 H 133.444 6.33194 -4.13039 0
M  V30 1478 H 134.712 7.09834 -3.22113 0
M  V30 1479 N 138.941 1.26152 0.944643 0
M  V30 1480 C 139.871 1.09902 2.06019 0
M  V30 1481 C 140.852 0.00519538 1.70099 0
M  V30 1482 O 142.037 0.176583 1.93396 0
M  V30 1483 C 139.167 0.727562 3.39594 0
M  V30 1484 C 138.121 1.77274 3.89561 0
M  V30 1485 C 137.447 1.25569 5.19747 0
M  V30 1486 C 138.747 3.17357 4.14827 0
M  V30 1487 H 140.441 2.03217 2.19871 0
M  V30 1488 H 137.987 0.978452 1.05652 0
M  V30 1489 H 139.94 0.600777 4.17095 0
M  V30 1490 H 138.664 -0.241287 3.25707 0
M  V30 1491 H 137.323 1.88814 3.14237 0
M  V30 1492 H 136.971 0.276783 5.02238 0
M  V30 1493 H 136.671 1.95433 5.54148 0
M  V30 1494 H 138.195 1.1415 5.99835 0
M  V30 1495 H 139.609 3.08914 4.82954 0
M  V30 1496 H 138.006 3.84781 4.60504 0
M  V30 1497 H 139.076 3.63673 3.20734 0
M  V30 1498 N 140.419 -1.14872 1.07899 0
M  V30 1499 C 141.369 -2.17809 0.674027 0
M  V30 1500 C 142.353 -1.58008 -0.303699 0
M  V30 1501 O 143.545 -1.76616 -0.11654 0
M  V30 1502 C 140.674 -3.43208 0.0793318 0
M  V30 1503 C 139.76 -4.10051 1.08253 0
M  V30 1504 N 140.151 -4.52296 2.2641 0
M  V30 1505 C 138.449 -4.36469 0.917124 0
M  V30 1506 C 139.15 -5.04199 2.901 0
M  V30 1507 N 138.126 -4.98088 2.17736 0
M  V30 1508 H 141.928 -2.48207 1.57386 0
M  V30 1509 H 139.442 -1.315 0.952976 0
M  V30 1510 H 141.439 -4.16272 -0.228719 0
M  V30 1511 H 140.099 -3.14291 -0.815551 0
M  V30 1512 H 141.11 -4.45504 2.64096 0
M  V30 1513 H 137.787 -4.17432 0.0756078 0
M  V30 1514 H 139.177 -5.46802 3.90458 0
M  V30 1515 N 141.898 -0.863906 -1.31812 0
M  V30 1516 C 143.123 -0.48527 -2.01643 0
M  V30 1517 C 143.548 0.913058 -1.64453 0
M  V30 1518 O 142.906 1.6014 -0.849985 0
M  V30 1519 C 142.954 -0.642625 -3.54828 0
M  V30 1520 O 142.058 0.320659 -4.11151 0
M  V30 1521 H 141.399 -0.193793 -0.635091 0
M  V30 1522 H 143.929 -1.16565 -1.68148 0
M  V30 1523 H 143.939 -0.533628 -4.04495 0
M  V30 1524 H 142.614 -1.66227 -3.81237 0
M  V30 1525 H 141.191 0.167126 -3.72525 0
M  V30 1526 N 143.376 1.44774 -0.622745 0
M  V30 1527 C 144.339 2.29069 0.0774015 0
M  V30 1528 C 145.339 1.4059 0.780461 0
M  V30 1529 O 146.529 1.62551 0.626322 0
M  V30 1530 C 143.661 3.21974 1.12006 0
M  V30 1531 H 144.854 2.92459 -0.663901 0
M  V30 1532 H 142.407 1.51548 -0.382486 0
M  V30 1533 H 143.142 2.63417 1.89162 0
M  V30 1534 H 142.927 3.87168 0.619951 0
M  V30 1535 H 144.417 3.85318 1.60995 0
M  V30 1536 N 144.854 0.36279 1.53368 0
M  V30 1537 C 146.102 -0.227326 2.00817 0
M  V30 1538 C 146.423 -1.49511 1.25186 0
M  V30 1539 O 145.693 -1.92482 0.364348 0
M  V30 1540 H 144.273 -0.0869923 0.741917 0
M  V30 1541 H 146.935 0.488381 1.88682 0
M  V30 1542 H 146.031 -0.456273 3.08747 0
M  V30 1543 N 146.332 -1.57332 0.0918853 0
M  V30 1544 C 147.748 -1.57389 -0.264766 0
M  V30 1545 C 147.948 -1.10281 -1.68643 0
M  V30 1546 O 147.004 -0.777801 -2.40222 0
M  V30 1547 C 148.317 -3.00648 -0.0561195 0
M  V30 1548 C 149.865 -3.12754 -0.124116 0
M  V30 1549 C 150.34 -4.57965 0.0564972 0
M  V30 1550 N 151.831 -4.632 0.00155611 0
M  V30 1551 C 152.566 -5.73281 0.116598 0
M  V30 1552 N 152.062 -6.92208 0.286294 0
M  V30 1553 N 153.855 -5.6207 0.0580973 0
M  V30 1554 H 146.006 -1.86262 1.02079 0
M  V30 1555 H 148.269 -0.859579 0.399786 0
M  V30 1556 H 147.975 -3.393 0.925669 0
M  V30 1557 H 147.849 -3.68623 -0.799823 0
M  V30 1558 H 150.236 -2.73976 -1.09641 0
M  V30 1559 H 150.317 -2.47377 0.651024 0
M  V30 1560 H 149.961 -4.97436 1.02564 0
M  V30 1561 H 149.891 -5.21399 -0.738297 0
M  V30 1562 H 152.382 -3.77686 -0.127192 0
M  V30 1563 H 152.695 -7.71934 0.365676 0
M  V30 1564 H 151.04 -6.94254 0.32192 0
M  V30 1565 H 154.231 -4.68043 -0.0733204 0
M  V30 1566 H 154.404 -6.47824 0.151203 0
M  V30 1567 N 147.81 0.181792 -1.56548 0
M  V30 1568 C 148.74 1.22765 -1.98623 0
M  V30 1569 C 149.721 1.46747 -0.860189 0
M  V30 1570 O 150.906 1.58259 -1.12551 0
M  V30 1571 C 148.036 2.56894 -2.33715 0
M  V30 1572 C 146.99 2.475 -3.49182 0
M  V30 1573 C 146.316 3.86023 -3.69986 0
M  V30 1574 C 147.616 1.98866 -4.82959 0
M  V30 1575 H 149.31 0.877942 -2.86239 0
M  V30 1576 H 146.856 0.42088 -1.37712 0
M  V30 1577 H 148.809 3.30253 -2.61746 0
M  V30 1578 H 147.533 2.93632 -1.42997 0
M  V30 1579 H 146.192 1.76596 -3.21262 0
M  V30 1580 H 145.84 4.20136 -2.76576 0
M  V30 1581 H 145.54 3.80609 -4.47672 0
M  V30 1582 H 147.064 4.60984 -4.00407 0
M  V30 1583 H 148.478 2.61992 -5.09934 0
M  V30 1584 H 146.875 2.04424 -5.64208 0
M  V30 1585 H 147.945 0.942465 -4.75653 0
M  V30 1586 N 149.288 1.51039 0.449983 0
M  V30 1587 C 150.565 1.53612 1.21089 0
M  V30 1588 C 150.945 0.292997 2.09057 0
M  V30 1589 O 150.293 -0.72259 2.16774 0
M  V30 1590 C 150.503 2.84337 2.0237 0
M  V30 1591 C 151.851 3.35807 2.59843 0
M  V30 1592 O 152.875 2.85802 2.12593 0
M  V30 1593 O 151.734 4.23029 3.45989 0
M  V30 1594 H 148.828 0.617057 0.550608 0
M  V30 1595 H 151.374 1.63344 0.460082 0
M  V30 1596 H 150.146 3.66278 1.37681 0
M  V30 1597 H 149.769 2.77708 2.84542 0
M  V30 1598 N 150.766 -0.704594 1.40972 0
M  V30 1599 C 152.012 -1.46675 1.40051 0
M  V30 1600 C 152.345 -1.94199 0.00641102 0
M  V30 1601 O 151.62 -1.68916 -0.964235 0
M  V30 1602 C 151.903 -2.68505 2.39952 0
M  V30 1603 C 151.756 -2.26805 3.88432 0
M  V30 1604 C 153.075 -3.70686 2.37233 0
M  V30 1605 H 150.194 -0.532015 0.510028 0
M  V30 1606 H 152.836 -0.803255 1.72185 0
M  V30 1607 H 150.986 -3.25114 2.1268 0
M  V30 1608 H 152.658 -1.75592 4.26574 0
M  V30 1609 H 150.901 -1.58685 4.03734 0
M  V30 1610 H 151.572 -3.14181 4.53866 0
M  V30 1611 H 154.048 -3.23731 2.61415 0
M  V30 1612 H 152.924 -4.53553 3.09162 0
M  V30 1613 H 153.185 -4.19754 1.38777 0
M  V30 1614 N 152.244 -1.26651 -0.937939 0
M  V30 1615 C 153.521 -1.0313 -1.66204 0
M  V30 1616 C 153.901 0.437256 -2.06522 0
M  V30 1617 O 153.249 1.41831 -1.79154 0
M  V30 1618 C 153.459 -1.98314 -2.87181 0
M  V30 1619 C 154.807 -2.27107 -3.58758 0
M  V30 1620 O 155.831 -1.96205 -2.97291 0
M  V30 1621 O 154.69 -2.79736 -4.69479 0
M  V30 1622 H 151.784 -0.392384 -0.727986 0
M  V30 1623 H 154.33 -1.37874 -0.989382 0
M  V30 1624 H 153.102 -2.97399 -2.54302 0
M  V30 1625 H 152.725 -1.64068 -3.6217 0
M  V30 1626 N 153.722 1.14298 -1.08507 0
M  V30 1627 C 154.95 1.89219 -0.836876 0
M  V30 1628 C 155.365 1.78638 0.611054 0
M  V30 1629 O 154.722 1.14643 1.41998 0
M  V30 1630 C 154.773 3.39158 -1.25116 0
M  V30 1631 O 154.494 3.49449 -2.64229 0
M  V30 1632 C 155.995 4.31073 -1.03398 0
M  V30 1633 H 153.215 0.599328 -0.301739 0
M  V30 1634 H 155.759 1.44746 -1.44461 0
M  V30 1635 H 153.914 3.81251 -0.687514 0
M  V30 1636 H 154.328 4.42589 -2.81452 0
M  V30 1637 H 155.802 5.34646 -1.37323 0
M  V30 1638 H 156.279 4.3919 0.0289259 0
M  V30 1639 H 156.885 3.94738 -1.58311 0
M  V30 1640 N 155.201 0.870884 1.31352 0
M  V30 1641 C 156.429 0.49677 2.00848 0
M  V30 1642 C 156.844 -0.910998 1.65367 0
M  V30 1643 O 156.201 -1.59696 0.883374 0
M  V30 1644 C 156.252 0.645308 3.55694 0
M  V30 1645 O 155.973 1.99764 3.89905 0
M  V30 1646 C 157.474 0.272326 4.42463 0
M  V30 1647 H 154.694 0.193462 0.642506 0
M  V30 1648 H 157.238 1.1723 1.67563 0
M  V30 1649 H 155.393 0.0173176 3.87396 0
M  V30 1650 H 155.807 2.00607 4.84621 0
M  V30 1651 H 157.281 0.427208 5.50344 0
M  V30 1652 H 157.758 -0.788587 4.32062 0
M  V30 1653 H 158.364 0.876054 4.1618 0
M  V30 1654 N 156.679 -1.44442 0.630414 0
M  V30 1655 C 157.927 -2.01653 0.134351 0
M  V30 1656 C 158.248 -1.49836 -1.24796 0
M  V30 1657 O 157.518 -0.701684 -1.82902 0
M  V30 1658 H 156.098 -0.74554 0.0466769 0
M  V30 1659 H 158.76 -1.76952 0.816955 0
M  V30 1660 H 157.856 -3.11935 0.101498 0
M  V30 1661 N 158.157 -0.370918 -1.53173 0
M  V30 1662 C 159.087 0.464847 -2.28826 0
M  V30 1663 C 160.068 1.07936 -1.31468 0
M  V30 1664 O 161.253 1.0956 -1.60344 0
M  V30 1665 C 158.383 1.60196 -3.08147 0
M  V30 1666 C 157.337 1.11443 -4.13237 0
M  V30 1667 C 156.663 2.3422 -4.80672 0
M  V30 1668 C 157.963 0.195384 -5.21934 0
M  V30 1669 H 159.657 -0.166329 -2.98938 0
M  V30 1670 H 157.203 -0.0814359 -1.4377 0
M  V30 1671 H 159.156 2.19332 -3.59822 0
M  V30 1672 H 157.88 2.26045 -2.35735 0
M  V30 1673 H 156.539 0.545727 -3.62515 0
M  V30 1674 H 156.187 2.98537 -4.04827 0
M  V30 1675 H 155.887 2.02269 -5.51689 0
M  V30 1676 H 157.411 2.94032 -5.35143 0
M  V30 1677 H 158.825 0.694375 -5.69079 0
M  V30 1678 H 157.222 -0.0335027 -6.00091 0
M  V30 1679 H 158.292 -0.760961 -4.78892 0
M  V30 1680 N 159.635 1.57281 -0.100228 0
M  V30 1681 C 160.881 1.94826 0.563101 0
M  V30 1682 C 161.214 0.982475 1.67514 0
M  V30 1683 O 160.489 0.0164069 1.94493 0
M  V30 1684 C 160.772 3.42453 1.11346 0
M  V30 1685 C 160.625 4.498 0.00612081 0
M  V30 1686 C 161.944 3.91506 2.01024 0
M  V30 1687 H 159.063 0.708428 0.203221 0
M  V30 1688 H 161.705 1.8922 -0.171979 0
M  V30 1689 H 159.855 3.47361 1.7399 0
M  V30 1690 H 161.527 4.57 -0.628357 0
M  V30 1691 H 159.77 4.28756 -0.659581 0
M  V30 1692 H 160.441 5.50306 0.432109 0
M  V30 1693 H 162.917 3.88784 1.48278 0
M  V30 1694 H 161.793 4.95358 2.36457 0
M  V30 1695 H 162.054 3.31099 2.92961 0
M  V30 1696 N 161.113 -0.173488 1.56642 0
M  V30 1697 C 162.043 -1.2171 1.99271 0
M  V30 1698 C 163.024 -1.46289 0.867959 0
M  V30 1699 O 164.209 -1.5766 1.13388 0
M  V30 1700 C 161.339 -2.55651 2.35074 0
M  V30 1701 C 160.293 -2.45645 3.50489 0
M  V30 1702 C 159.619 -3.84056 3.72028 0
M  V30 1703 C 160.919 -1.96302 4.84007 0
M  V30 1704 H 162.613 -0.86275 2.867 0
M  V30 1705 H 160.159 -0.413571 1.37933 0
M  V30 1706 H 162.112 -3.2886 2.63494 0
M  V30 1707 H 160.836 -2.92869 1.44552 0
M  V30 1708 H 159.495 -1.7489 3.22194 0
M  V30 1709 H 159.143 -4.18664 2.788 0
M  V30 1710 H 158.843 -3.7823 4.49684 0
M  V30 1711 H 160.367 -4.58854 4.02846 0
M  V30 1712 H 161.781 -2.59284 5.11317 0
M  V30 1713 H 160.178 -2.01429 5.65284 0
M  V30 1714 H 161.248 -0.917226 4.76146 0
M  V30 1715 N 162.591 -1.51276 -0.441967 0
M  V30 1716 C 163.521 -1.752 -1.54361 0
M  V30 1717 C 164.502 -0.601682 -1.59103 0
M  V30 1718 O 165.687 -0.843913 -1.74905 0
M  V30 1719 C 162.817 -1.87282 -2.92477 0
M  V30 1720 C 161.771 -3.02687 -3.02596 0
M  V30 1721 C 161.097 -2.99947 -4.42647 0
M  V30 1722 C 162.397 -4.4273 -2.77106 0
M  V30 1723 H 164.091 -2.67442 -1.34592 0
M  V30 1724 H 161.637 -1.28694 -0.646048 0
M  V30 1725 H 163.59 -2.02602 -3.695 0
M  V30 1726 H 162.314 -0.916844 -3.13467 0
M  V30 1727 H 160.973 -2.87065 -2.28012 0
M  V30 1728 H 160.621 -2.02136 -4.60597 0
M  V30 1729 H 160.321 -3.77439 -4.50348 0
M  V30 1730 H 161.845 -3.17354 -5.2165 0
M  V30 1731 H 163.259 -4.58727 -3.43864 0
M  V30 1732 H 161.656 -5.21893 -2.96222 0
M  V30 1733 H 162.726 -4.53087 -1.72744 0
M  V30 1734 N 164.069 0.697108 -1.41344 0
M  V30 1735 C 165.297 1.48593 -1.43972 0
M  V30 1736 C 165.712 1.88747 -0.0445612 0
M  V30 1737 O 165.069 1.56682 0.935785 0
M  V30 1738 C 165.12 2.74946 -2.34706 0
M  V30 1739 O 164.841 2.36484 -3.68791 0
M  V30 1740 C 166.342 3.687 -2.46121 0
M  V30 1741 H 163.562 0.457964 -0.490418 0
M  V30 1742 H 166.106 0.858429 -1.8561 0
M  V30 1743 H 164.261 3.33937 -1.9638 0
M  V30 1744 H 164.675 3.17918 -4.17167 0
M  V30 1745 H 166.149 4.54145 -3.13777 0
M  V30 1746 H 166.626 4.13081 -1.49199 0
M  V30 1747 H 167.232 3.15613 -2.85076 0
M  V30 1748 N 165.547 1.27147 0.931209 0
M  V30 1749 C 166.824 1.0401 1.65654 0
M  V30 1750 C 167.204 -0.426297 2.06751 0
M  V30 1751 O 166.552 -1.40879 1.79904 0
M  V30 1752 C 166.762 1.99834 2.86125 0
M  V30 1753 C 168.11 2.29007 3.57549 0
M  V30 1754 O 169.134 1.97779 2.96246 0
M  V30 1755 O 167.993 2.82222 4.67989 0
M  V30 1756 H 165.087 0.396239 0.725895 0
M  V30 1757 H 167.633 1.38397 0.982056 0
M  V30 1758 H 166.405 2.98744 2.52721 0
M  V30 1759 H 166.028 1.65987 3.61295 0
M  V30 1760 N 167.025 -1.13721 1.09112 0
M  V30 1761 C 168.302 -1.81155 0.737706 0
M  V30 1762 C 168.682 -1.96253 -0.777683 0
M  V30 1763 O 168.03 -1.52807 -1.69889 0
M  V30 1764 C 168.24 -3.16392 1.47299 0
M  V30 1765 C 169.588 -3.91787 1.63671 0
M  V30 1766 O 170.612 -3.26005 1.43524 0
M  V30 1767 O 169.471 -5.0977 1.96969 0
M  V30 1768 H 166.565 -0.783518 0.26463 0
M  V30 1769 H 169.111 -1.20676 1.19312 0
M  V30 1770 H 167.883 -3.0061 2.50498 0
M  V30 1771 H 167.506 -3.8457 1.00953 0
M  V30 1772 N 168.503 -0.877838 -1.30888 0
M  V30 1773 C 169.751 -0.491723 -1.96027 0
M  V30 1774 C 170.072 0.960827 -1.69685 0
M  V30 1775 O 169.342 1.67462 -1.01654 0
M  V30 1776 H 167.922 -0.17885 -0.725273 0
M  V30 1777 H 170.584 -1.11935 -1.59551 0
M  V30 1778 H 169.68 -0.656016 -3.05128 0
M  V30 1779 N 169.982 1.44106 -0.638065 0
M  V30 1780 C 170.914 2.28976 0.101205 0
M  V30 1781 C 171.927 1.4167 0.802088 0
M  V30 1782 O 173.116 1.65755 0.662375 0
M  V30 1783 C 170.216 3.18217 1.16581 0
M  V30 1784 C 169.389 4.33978 0.546066 0
M  V30 1785 C 168.448 5.04202 1.50554 0
M  V30 1786 O 167.474 5.59986 1.01999 0
M  V30 1787 N 168.676 5.06296 2.8398 0
M  V30 1788 H 171.441 2.93064 -0.627186 0
M  V30 1789 H 169.002 1.54629 -0.479731 0
M  V30 1790 H 170.994 3.62061 1.80815 0
M  V30 1791 H 169.564 2.55833 1.79634 0
M  V30 1792 H 168.784 3.93239 -0.275046 0
M  V30 1793 H 170.072 5.08675 0.112793 0
M  V30 1794 H 169.47 4.62319 3.26002 0
M  V30 1795 H 168.027 5.53907 3.43556 0
M  V30 1796 N 171.46 0.379036 1.52974 0
M  V30 1797 C 172.706 -0.199244 2.02422 0
M  V30 1798 C 173.061 -1.4532 1.26095 0
M  V30 1799 O 172.354 -1.88377 0.34996 0
M  V30 1800 C 172.548 -0.53096 3.53434 0
M  V30 1801 C 172.377 0.689298 4.44386 0
M  V30 1802 C 171.147 1.20546 4.9071 0
M  V30 1803 C 173.345 1.55856 4.90116 0
M  V30 1804 N 171.327 2.38434 5.65705 0
M  V30 1805 C 172.698 2.58396 5.63588 0
M  V30 1806 C 174.753 1.57986 4.7217 0
M  V30 1807 C 173.456 3.62939 6.21022 0
M  V30 1808 C 175.482 2.6143 5.30479 0
M  V30 1809 C 174.844 3.62693 6.03849 0
M  V30 1810 H 170.943 -0.0352671 0.781204 0
M  V30 1811 H 173.527 0.526614 1.87443 0
M  V30 1812 H 171.698 -1.22588 3.68547 0
M  V30 1813 H 173.43 -1.0955 3.89591 0
M  V30 1814 H 170.185 0.768022 4.67331 0
M  V30 1815 H 170.609 2.98055 6.07859 0
M  V30 1816 H 175.251 0.810475 4.14959 0
M  V30 1817 H 172.969 4.40751 6.77321 0
M  V30 1818 H 176.555 2.63949 5.18481 0
M  V30 1819 H 175.435 4.41424 6.48163 0
M  V30 1820 N 172.938 -1.57226 0.108567 0
M  V30 1821 C 174.163 -1.99604 -0.563303 0
M  V30 1822 C 174.588 -0.987563 -1.6009 0
M  V30 1823 O 173.946 0.0421687 -1.81251 0
M  V30 1824 C 173.994 -3.40902 -1.17552 0
M  V30 1825 O 173.098 -3.42896 -2.2912 0
M  V30 1826 H 172.439 -0.648704 -0.1417 0
M  V30 1827 H 174.969 -2.03679 0.193961 0
M  V30 1828 H 174.979 -3.78886 -1.51357 0
M  V30 1829 H 173.654 -4.1382 -0.415445 0
M  V30 1830 H 172.231 -3.1672 -1.96832 0
M  V30 1831 N 174.416 0.165178 -1.56732 0
M  V30 1832 C 175.366 1.20917 -1.93295 0
M  V30 1833 C 176.35 1.39488 -0.801985 0
M  V30 1834 O 177.542 1.41356 -1.06525 0
M  V30 1835 C 174.671 2.54718 -2.3016 0
M  V30 1836 C 173.757 2.39815 -3.49785 0
M  V30 1837 N 174.148 1.94637 -4.66851 0
M  V30 1838 C 172.446 2.70623 -3.54513 0
M  V30 1839 C 173.147 1.92344 -5.4898 0
M  V30 1840 N 172.123 2.34978 -4.9019 0
M  V30 1841 H 175.925 0.851675 -2.81289 0
M  V30 1842 H 173.439 0.373399 -1.58049 0
M  V30 1843 H 175.436 3.30165 -2.54552 0
M  V30 1844 H 174.096 2.91265 -1.43508 0
M  V30 1845 H 175.107 1.6488 -4.90953 0
M  V30 1846 H 171.784 3.11167 -2.78354 0
M  V30 1847 H 173.174 1.5906 -6.52801 0
M  V30 1848 N 175.894 1.51508 0.433938 0
M  V30 1849 C 177.31 1.39759 0.770682 0
M  V30 1850 C 177.51 0.482594 1.95636 0
M  V30 1851 O 176.566 -0.0609691 2.52426 0
M  V30 1852 C 177.879 2.81851 1.04787 0
M  V30 1853 C 179.427 2.91025 1.1521 0
M  V30 1854 C 179.902 4.34032 1.46219 0
M  V30 1855 N 181.393 4.37154 1.53136 0
M  V30 1856 C 182.128 5.4484 1.78709 0
M  V30 1857 N 181.624 6.62682 2.02051 0
M  V30 1858 N 183.417 5.32324 1.80519 0
M  V30 1859 H 175.568 2.09548 -0.346892 0
M  V30 1860 H 177.831 0.943446 -0.0928074 0
M  V30 1861 H 177.537 3.50815 0.249304 0
M  V30 1862 H 177.411 3.21386 1.97461 0
M  V30 1863 H 179.798 2.22257 1.94128 0
M  V30 1864 H 179.879 2.54983 0.204281 0
M  V30 1865 H 179.523 5.03351 0.678274 0
M  V30 1866 H 179.453 4.6759 2.42212 0
M  V30 1867 H 181.944 3.52197 1.36987 0
M  V30 1868 H 182.257 7.40543 2.20943 0
M  V30 1869 H 180.602 6.65791 1.99366 0
M  V30 1870 H 183.793 4.39246 1.61805 0
M  V30 1871 H 183.966 6.16328 2.00111 0
M  V30 1872 N 177.372 -0.689602 1.41712 0
M  V30 1873 C 178.621 -1.44534 1.40686 0
M  V30 1874 C 178.934 -1.95588 0.0213352 0
M  V30 1875 O 180.14 -2.71271 -0.111534 0
M  V30 1876 C 178.596 -2.61387 2.47396 0
M  V30 1877 C 178.204 -2.17094 3.91885 0
M  V30 1878 C 179.948 -3.38986 2.55517 0
M  V30 1879 C 177.855 -3.3094 4.90135 0
M  V30 1880 H 176.785 -0.542925 0.52321 0
M  V30 1881 H 179.436 -0.748054 1.6756 0
M  V30 1882 H 177.818 -3.33412 2.13664 0
M  V30 1883 H 178.992 -1.52318 4.34897 0
M  V30 1884 H 177.307 -1.52473 3.8748 0
M  V30 1885 H 179.904 -4.23747 3.26102 0
M  V30 1886 H 180.247 -3.84578 1.59391 0
M  V30 1887 H 180.78 -2.74021 2.8837 0
M  V30 1888 H 177.519 -2.90355 5.87685 0
M  V30 1889 H 177.039 -3.94546 4.51767 0
M  V30 1890 H 178.718 -3.9663 5.11169 0
M  V30 1891 N 178.85 -1.27639 -0.924453 0
M  V30 1892 C 180.078 -1.16989 -1.70649 0
M  V30 1893 C 180.493 0.272869 -1.86818 0
M  V30 1894 O 179.85 1.18549 -1.38753 0
M  V30 1895 C 179.901 -1.85229 -3.10439 0
M  V30 1896 O 179.622 -3.23868 -2.95028 0
M  V30 1897 C 181.123 -1.80746 -4.04779 0
M  V30 1898 H 178.343 -0.406595 -0.53378 0
M  V30 1899 H 180.887 -1.68569 -1.15778 0
M  V30 1900 H 179.042 -1.37545 -3.6216 0
M  V30 1901 H 179.456 -3.57889 -3.83426 0
M  V30 1902 H 180.93 -2.33101 -5.00368 0
M  V30 1903 H 181.407 -0.777499 -4.32263 0
M  V30 1904 H 182.013 -2.28059 -3.58984 0
M  V30 1905 N 180.328 1.1314 -1.09713 0
M  V30 1906 C 181.553 1.88862 -0.857081 0
M  V30 1907 C 181.978 1.78729 0.586304 0
M  V30 1908 O 181.336 1.13692 1.41222 0
M  V30 1909 C 181.384 3.36325 -1.30069 0
M  V30 1910 O 180.488 4.09815 -0.461007 0
M  V30 1911 H 179.829 0.587108 -0.310162 0
M  V30 1912 H 182.359 1.43129 -1.46203 0
M  V30 1913 H 182.369 3.87157 -1.28738 0
M  V30 1914 H 181.044 3.43017 -2.35185 0
M  V30 1915 H 179.621 3.68986 -0.538888 0
M  V30 1916 N 181.806 0.884767 1.30421 0
M  V30 1917 C 183.217 0.553656 1.78302 0
M  V30 1918 C 183.568 -0.930153 1.7275 0
M  V30 1919 O 182.693 -1.72681 1.30423 0
M  V30 1920 C 183.288 0.998234 3.2376 0
M  V30 1921 C 181.847 0.71854 3.69478 0
M  V30 1922 C 180.994 1.18132 2.50879 0
M  V30 1923 H 183.945 1.06901 1.17294 0
M  V30 1924 H 183.966 0.327118 3.79091 0
M  V30 1925 H 183.478 2.0782 3.27769 0
M  V30 1926 H 181.579 -0.349444 3.70958 0
M  V30 1927 H 181.692 1.30595 4.60958 0
M  V30 1928 H 180.056 0.600669 2.47516 0
M  V30 1929 H 180.839 2.26902 2.57624 0
M  V30 1930 N 183.284 -1.43765 0.645699 0
M  V30 1931 C 184.231 -2.30745 -0.0504648 0
M  V30 1932 C 185.201 -1.4432 -0.822241 0
M  V30 1933 O 186.386 -1.73202 -0.800358 0
M  V30 1934 C 183.526 -3.29802 -1.0161 0
M  V30 1935 C 182.639 -4.31326 -0.241219 0
M  V30 1936 C 181.774 -5.17469 -1.19998 0
M  V30 1937 C 180.813 -6.10691 -0.415094 0
M  V30 1938 N 179.95 -6.89483 -1.32506 0
M  V30 1939 H 184.79 -2.8973 0.697155 0
M  V30 1940 H 182.327 -1.42738 0.355563 0
M  V30 1941 H 184.285 -3.85734 -1.58949 0
M  V30 1942 H 182.915 -2.72483 -1.73069 0
M  V30 1943 H 181.967 -3.77749 0.448334 0
M  V30 1944 H 183.279 -4.9743 0.369437 0
M  V30 1945 H 182.433 -5.7799 -1.84424 0
M  V30 1946 H 181.172 -4.51473 -1.84455 0
M  V30 1947 H 180.177 -5.49265 0.242565 0
M  V30 1948 H 181.402 -6.78727 0.224966 0
M  V30 1949 H 179.348 -6.26142 -1.95657 0
M  V30 1950 H 179.265 -7.52081 -0.768783 0
M  V30 1951 H 180.533 -7.54516 -1.9577 0
M  V30 1952 N 184.763 -0.387143 -1.52771 0
M  V30 1953 C 185.713 0.465942 -2.23188 0
M  V30 1954 C 186.697 1.03138 -1.23496 0
M  V30 1955 O 187.889 0.957845 -1.48843 0
M  V30 1956 C 185.018 1.59384 -3.04059 0
M  V30 1957 C 184.104 1.04024 -4.11144 0
M  V30 1958 N 184.495 0.211416 -5.05358 0
M  V30 1959 C 182.793 1.31295 -4.26237 0
M  V30 1960 C 183.494 -0.0941698 -5.81624 0
M  V30 1961 N 182.47 0.509207 -5.4121 0
M  V30 1962 H 186.272 -0.173856 -2.93385 0
M  V30 1963 H 183.786 -0.19633 -1.61209 0
M  V30 1964 H 185.783 2.21738 -3.53041 0
M  V30 1965 H 184.443 2.23648 -2.35397 0
M  V30 1966 H 185.454 -0.151151 -5.17679 0
M  V30 1967 H 182.131 1.95679 -3.68803 0
M  V30 1968 H 183.521 -0.765572 -6.67524 0
M  V30 1969 N 186.241 1.57166 -0.116904 0
M  V30 1970 C 187.191 2.11756 0.845178 0
M  V30 1971 C 188.175 1.03783 1.22955 0
M  V30 1972 O 189.367 1.3002 1.20099 0
M  V30 1973 C 186.496 2.71886 2.09602 0
M  V30 1974 C 185.582 3.86937 1.7361 0
M  V30 1975 N 185.973 4.94073 1.08284 0
M  V30 1976 C 184.271 3.97082 2.03082 0
M  V30 1977 C 184.972 5.74477 0.913855 0
M  V30 1978 N 183.948 5.2423 1.43818 0
M  V30 1979 H 187.75 2.91967 0.336523 0
M  V30 1980 H 185.264 1.62174 0.0856332 0
M  V30 1981 H 187.261 3.09338 2.79492 0
M  V30 1982 H 185.921 1.93138 2.61013 0
M  V30 1983 H 186.932 5.12483 0.747067 0
M  V30 1984 H 183.609 3.29372 2.56554 0
M  V30 1985 H 184.999 6.70701 0.40125 0
M  V30 1986 N 187.719 -0.156864 1.56817 0
M  V30 1987 C 188.959 -0.877453 1.84608 0
M  V30 1988 C 189.323 -1.78791 0.699845 0
M  V30 1989 O 190.524 -2.5472 0.858553 0
M  V30 1990 C 188.795 -1.63992 3.17555 0
M  V30 1991 S 190.354 -2.40729 3.66872 0
M  V30 1992 H 187.172 -0.293612 0.647544 0
M  V30 1993 H 189.774 -0.138099 1.95012 0
M  V30 1994 H 188.478 -0.962363 3.98957 0
M  V30 1995 H 188.009 -2.42038 3.10131 0
M  V30 1996 H 190.024 -3.65725 3.3535 0
M  V30 1997 N 189.197 -1.51736 -0.425897 0
M  V30 1998 C 190.107 -1.76738 -1.54275 0
M  V30 1999 C 191.123 -0.65211 -1.61318 0
M  V30 2000 O 192.299 -0.935654 -1.78346 0
M  V30 2001 C 189.364 -1.89755 -2.90162 0
M  V30 2002 C 188.425 -3.13633 -2.93143 0
M  V30 2003 C 187.658 -3.2602 -4.22548 0
M  V30 2004 O 187.881 -2.44067 -5.15546 0
M  V30 2005 O 186.815 -4.19071 -4.32046 0
M  V30 2006 H 190.641 -2.71502 -1.36089 0
M  V30 2007 H 188.226 -1.36376 -0.610069 0
M  V30 2008 H 190.108 -2.00236 -3.70788 0
M  V30 2009 H 188.783 -0.981785 -3.08452 0
M  V30 2010 H 187.69 -3.08622 -2.11431 0
M  V30 2011 H 189.023 -4.04936 -2.798 0
M  V30 2012 N 190.675 0.682077 -1.42076 0
M  V30 2013 C 191.622 1.79578 -1.44984 0
M  V30 2014 C 192.592 1.6332 -0.302614 0
M  V30 2015 O 193.777 1.83978 -0.505633 0
M  V30 2016 C 190.917 3.1756 -1.35091 0
M  V30 2017 C 190.03 3.45156 -2.59791 0
M  V30 2018 C 189.165 4.72826 -2.42093 0
M  V30 2019 C 188.204 4.93433 -3.62202 0
M  V30 2020 N 187.341 6.12338 -3.43491 0
M  V30 2021 H 192.181 1.76427 -2.40161 0
M  V30 2022 H 189.718 0.861376 -1.19242 0
M  V30 2023 H 191.676 3.97287 -1.27354 0
M  V30 2024 H 190.306 3.19854 -0.435133 0
M  V30 2025 H 189.358 2.59736 -2.77923 0
M  V30 2026 H 190.67 3.5628 -3.49094 0
M  V30 2027 H 189.824 5.60631 -2.319 0
M  V30 2028 H 188.563 4.63973 -1.50268 0
M  V30 2029 H 187.568 4.04073 -3.72834 0
M  V30 2030 H 188.793 5.04136 -4.54998 0
M  V30 2031 H 186.739 6.04672 -2.54377 0
M  V30 2032 H 186.656 6.2429 -4.26377 0
M  V30 2033 H 187.924 7.02841 -3.37097 0
M  V30 2034 N 192.153 1.28127 0.917671 0
M  V30 2035 C 193.381 1.17892 1.70026 0
M  V30 2036 C 193.796 -0.262958 1.8696 0
M  V30 2037 O 193.153 -1.17811 1.3938 0
M  V30 2038 C 193.204 1.86872 3.09453 0
M  V30 2039 O 192.925 3.25428 2.93306 0
M  V30 2040 C 194.426 1.8289 4.03815 0
M  V30 2041 H 191.646 0.40942 0.531617 0
M  V30 2042 H 194.19 1.69181 1.14883 0
M  V30 2043 H 192.345 1.39464 3.61426 0
M  V30 2044 H 192.759 3.59918 3.81523 0
M  V30 2045 H 194.233 2.35751 4.99125 0
M  V30 2046 H 194.71 0.800412 4.31845 0
M  V30 2047 H 195.316 2.29959 3.57769 0
M  V30 2048 N 193.631 -1.12557 1.10312 0
M  V30 2049 C 194.861 -1.87592 0.865617 0
M  V30 2050 C 195.269 -1.79851 -0.587389 0
M  V30 2051 O 194.612 -1.16949 -1.41664 0
M  V30 2052 C 194.674 -3.37665 1.23381 0
M  V30 2053 C 194.338 -3.69181 2.69359 0
M  V30 2054 C 195.335 -3.67652 3.67597 0
M  V30 2055 C 193.02 -3.98555 3.05711 0
M  V30 2056 C 195.014 -3.95053 5.00212 0
M  V30 2057 C 192.701 -4.25616 4.38514 0
M  V30 2058 C 193.699 -4.23851 5.35574 0
M  V30 2059 O 193.387 -4.50242 6.65986 0
M  V30 2060 H 193.119 -0.600442 0.310557 0
M  V30 2061 H 195.673 -1.4335 1.47105 0
M  V30 2062 H 193.903 -3.82454 0.571467 0
M  V30 2063 H 195.592 -3.94041 0.973994 0
M  V30 2064 H 196.358 -3.45024 3.40857 0
M  V30 2065 H 192.237 -3.99071 2.30789 0
M  V30 2066 H 195.781 -3.93591 5.75962 0
M  V30 2067 H 191.678 -4.47718 4.64994 0
M  V30 2068 H 192.446 -4.67867 6.71597 0
M  V30 2069 N 195.109 -0.891671 -1.2995 0
M  V30 2070 C 196.039 -0.379797 -2.30391 0
M  V30 2071 C 197.02 0.540919 -1.6127 0
M  V30 2072 O 198.205 0.453352 -1.88834 0
M  V30 2073 C 195.335 0.400654 -3.44981 0
M  V30 2074 C 194.289 -0.428905 -4.25846 0
M  V30 2075 C 193.615 0.478557 -5.32554 0
M  V30 2076 C 194.915 -1.67458 -4.94727 0
M  V30 2077 H 196.609 -1.21914 -2.73454 0
M  V30 2078 H 194.155 -0.587675 -1.31462 0
M  V30 2079 H 196.108 0.769434 -4.14316 0
M  V30 2080 H 194.832 1.27371 -3.0074 0
M  V30 2081 H 193.491 -0.779911 -3.58208 0
M  V30 2082 H 193.139 1.34951 -4.84559 0
M  V30 2083 H 192.839 -0.0727433 -5.87555 0
M  V30 2084 H 194.363 0.843705 -6.04743 0
M  V30 2085 H 195.777 -1.376 -5.56542 0
M  V30 2086 H 194.174 -2.16659 -5.59624 0
M  V30 2087 H 195.244 -2.41518 -4.20473 0
M  V30 2088 N 196.587 1.43421 -0.653314 0
M  V30 2089 C 197.833 2.02111 -0.166992 0
M  V30 2090 C 198.166 1.51423 1.21592 0
M  V30 2091 O 197.441 0.707389 1.8118 0
M  V30 2092 C 197.724 3.5966 -0.177948 0
M  V30 2093 C 197.577 4.20579 -1.59478 0
M  V30 2094 C 198.896 4.37413 0.4856 0
M  V30 2095 H 196.015 0.734374 -0.0621557 0
M  V30 2096 H 198.657 1.70717 -0.834016 0
M  V30 2097 H 196.807 3.86537 0.390032 0
M  V30 2098 H 198.479 4.04732 -2.21336 0
M  V30 2099 H 196.722 3.77226 -2.14204 0
M  V30 2100 H 197.393 5.29665 -1.5543 0
M  V30 2101 H 199.869 4.161 0.00234528 0
M  V30 2102 H 198.745 5.47075 0.447207 0
M  V30 2103 H 199.006 4.13672 1.55974 0
M  V30 2104 N 198.065 0.39524 1.52563 0
M  V30 2105 C 199.293 -0.184943 2.06072 0
M  V30 2106 C 199.708 -1.40021 1.26647 0
M  V30 2107 O 199.065 -1.79767 0.314672 0
M  V30 2108 C 199.116 -0.549179 3.57304 0
M  V30 2109 O 198.837 0.617813 4.33722 0
M  V30 2110 C 200.338 -1.18459 4.2718 0
M  V30 2111 H 197.558 -0.0265025 0.670476 0
M  V30 2112 H 200.102 0.562184 1.96621 0
M  V30 2113 H 198.257 -1.2462 3.66809 0
M  V30 2114 H 198.671 0.317091 5.23541 0
M  V30 2115 H 200.145 -1.38976 5.34219 0
M  V30 2116 H 200.622 -2.15368 3.82771 0
M  V30 2117 H 201.228 -0.528163 4.22008 0
M  V30 2118 N 199.544 -1.57102 0.125237 0
M  V30 2119 C 200.474 -2.18659 -0.819174 0
M  V30 2120 C 201.455 -1.12843 -1.27281 0
M  V30 2121 O 202.64 -1.41104 -1.33429 0
M  V30 2122 C 199.77 -2.79096 -2.06695 0
M  V30 2123 C 198.724 -3.90548 -1.75088 0
M  V30 2124 C 198.05 -4.37821 -3.06948 0
M  V30 2125 C 199.35 -5.12356 -1.01435 0
M  V30 2126 H 201.044 -2.9783 -0.306202 0
M  V30 2127 H 198.59 -1.4326 -0.145839 0
M  V30 2128 H 200.543 -3.2082 -2.73226 0
M  V30 2129 H 199.267 -1.97223 -2.60328 0
M  V30 2130 H 197.926 -3.49409 -1.10944 0
M  V30 2131 H 197.574 -3.52799 -3.58527 0
M  V30 2132 H 197.274 -5.12982 -2.86571 0
M  V30 2133 H 198.798 -4.822 -3.74587 0
M  V30 2134 H 200.212 -5.5106 -1.58132 0
M  V30 2135 H 198.609 -5.9314 -0.911319 0
M  V30 2136 H 199.679 -4.849 -0.00218681 0
M  V30 2137 N 201.022 0.148545 -1.56898 0
M  V30 2138 C 201.985 1.16736 -1.97244 0
M  V30 2139 C 202.985 1.35947 -0.858777 0
M  V30 2140 O 204.175 1.32966 -1.12542 0
M  V30 2141 C 201.307 2.52798 -2.28705 0
M  V30 2142 H 202.5 0.821279 -2.88435 0
M  V30 2143 H 200.053 0.391831 -1.51309 0
M  V30 2144 H 200.788 2.92381 -1.403 0
M  V30 2145 H 200.573 2.40216 -3.09901 0
M  V30 2146 H 202.063 3.26179 -2.60762 0
M  V30 2147 N 202.5 1.5196 0.417844 0
M  V30 2148 C 203.777 1.56146 1.17803 0
M  V30 2149 C 204.157 0.337275 2.08388 0
M  V30 2150 O 203.505 -0.676447 2.18258 0
M  V30 2151 C 203.715 2.88566 1.96293 0
M  V30 2152 C 205.063 3.41244 2.52662 0
M  V30 2153 O 206.087 2.90247 2.06483 0
M  V30 2154 O 204.946 4.30273 3.36938 0
M  V30 2155 H 202.04 0.628598 0.537395 0
M  V30 2156 H 204.586 1.64283 0.425331 0
M  V30 2157 H 203.358 3.69116 1.2988 0
M  V30 2158 H 202.981 2.83681 2.78587 0
M  V30 2159 N 203.978 -0.674533 1.42435 0
M  V30 2160 C 205.389 -1.25514 1.38214 0
M  V30 2161 C 205.74 -1.96055 0.0755464 0
M  V30 2162 O 204.865 -2.00028 -0.8257 0
M  V30 2163 C 205.46 -2.28269 2.50357 0
M  V30 2164 C 204.019 -2.81856 2.49467 0
M  V30 2165 C 203.166 -1.56182 2.29134 0
M  V30 2166 H 206.117 -0.467902 1.51646 0
M  V30 2167 H 206.138 -3.10009 2.20624 0
M  V30 2168 H 205.65 -1.769 3.45439 0
M  V30 2169 H 203.751 -3.37346 1.58204 0
M  V30 2170 H 203.864 -3.30854 3.46515 0
M  V30 2171 H 202.228 -1.82761 1.774 0
M  V30 2172 H 203.011 -1.06778 3.26272 0
M  V30 2173 N 205.456 -1.28612 -0.910864 0
M  V30 2174 C 206.702 -1.16106 -1.66274 0
M  V30 2175 C 207.035 0.289113 -1.92036 0
M  V30 2176 O 206.31 1.21 -1.52281 0
M  V30 2177 C 206.593 -1.96309 -3.01885 0
M  V30 2178 C 206.446 -3.49405 -2.8326 0
M  V30 2179 C 207.765 -1.78076 -4.02463 0
M  V30 2180 H 204.884 -0.423152 -0.603417 0
M  V30 2181 H 207.526 -1.57961 -1.05586 0
M  V30 2182 H 205.676 -1.60742 -3.53687 0
M  V30 2183 H 207.348 -3.94894 -2.38446 0
M  V30 2184 H 205.591 -3.74893 -2.18261 0
M  V30 2185 H 206.262 -4.00784 -3.79574 0
M  V30 2186 H 208.738 -2.0912 -3.59733 0
M  V30 2187 H 207.614 -2.36561 -4.95308 0
M  V30 2188 H 207.875 -0.733008 -4.35981 0
M  V30 2189 N 206.934 1.1197 -1.10907 0
M  V30 2190 C 207.844 2.21433 -0.774896 0
M  V30 2191 C 208.86 1.72478 0.229657 0
M  V30 2192 O 210.036 2.01288 0.0672008 0
M  V30 2193 C 207.101 3.4602 -0.216986 0
M  V30 2194 C 206.162 4.09791 -1.27944 0
M  V30 2195 C 205.395 5.28431 -0.748055 0
M  V30 2196 O 205.618 5.68823 0.423833 0
M  V30 2197 O 204.552 5.82644 -1.51027 0
M  V30 2198 H 208.378 2.5242 -1.68873 0
M  V30 2199 H 205.963 1.20399 -0.884555 0
M  V30 2200 H 207.845 4.21304 0.090059 0
M  V30 2201 H 206.52 3.16698 0.669633 0
M  V30 2202 H 205.427 3.36265 -1.63941 0
M  V30 2203 H 206.76 4.4328 -2.13925 0
M  V30 2204 N 208.412 0.89855 1.29475 0
M  V30 2205 C 209.322 0.379974 2.31502 0
M  V30 2206 C 210.338 -0.524695 1.659 0
M  V30 2207 O 211.514 -0.414551 1.97087 0
M  V30 2208 C 208.579 -0.385138 3.44554 0
M  V30 2209 C 207.64 0.550914 4.2575 0
M  V30 2210 C 206.873 -0.177778 5.33404 0
M  V30 2211 O 207.096 -1.40189 5.52904 0
M  V30 2212 O 206.03 0.479106 5.9999 0
M  V30 2213 H 209.856 1.22639 2.77837 0
M  V30 2214 H 207.441 0.662834 1.33891 0
M  V30 2215 H 209.323 -0.817841 4.13388 0
M  V30 2216 H 207.998 -1.20763 3.0033 0
M  V30 2217 H 206.905 1.03271 3.59564 0
M  V30 2218 H 208.238 1.33979 4.73614 0
M  V30 2219 N 209.89 -1.43072 0.660911 0
M  V30 2220 C 210.838 -2.32569 -0.0378199 0
M  V30 2221 C 211.832 -1.49046 -0.805092 0
M  V30 2222 O 213.038 -1.65206 -0.714624 0
M  V30 2223 H 209.413 -0.75136 -0.031019 0
M  V30 2224 H 211.384 -2.89216 0.734609 0
M  V30 2225 C 210.133 -3.33453 -0.985124 0
M  V30 2226 H 209.456 -3.97752 -0.404147 0
M  V30 2227 H 210.896 -3.98691 -1.44297 0
M  V30 2228 C 209.355 -2.64642 -2.08486 0
M  V30 2229 O 209.885 -2.46776 -3.16961 0
M  V30 2230 N 208.091 -2.23891 -1.8526 0
M  V30 2231 H 207.638 -2.38621 -0.970449 0
M  V30 2232 H 207.596 -1.78181 -2.59034 0
M  V30 2233 N 211.368 -0.403325 -1.52352 0
M  V30 2234 C 212.598 0.17376 -2.05868 0
M  V30 2235 C 213.006 1.39898 -1.27378 0
M  V30 2236 O 212.349 1.80939 -0.31729 0
M  V30 2237 C 212.411 0.594756 -3.54546 0
M  V30 2238 C 212.075 -0.518926 -4.54044 0
M  V30 2239 C 213.072 -1.3807 -5.01231 0
M  V30 2240 C 210.757 -0.689961 -4.97539 0
M  V30 2241 C 212.751 -2.39852 -5.90551 0
M  V30 2242 C 210.438 -1.71109 -5.86656 0
M  V30 2243 C 211.436 -2.56378 -6.33056 0
M  V30 2244 O 211.124 -3.56743 -7.20409 0
M  V30 2245 H 210.856 0.0264951 -0.675481 0
M  V30 2246 H 213.41 -0.571179 -1.97299 0
M  V30 2247 H 211.64 1.39189 -3.60782 0
M  V30 2248 H 213.329 1.0991 -3.90736 0
M  V30 2249 H 214.095 -1.25994 -4.68349 0
M  V30 2250 H 209.974 -0.035939 -4.60986 0
M  V30 2251 H 213.518 -3.06441 -6.26689 0
M  V30 2252 H 209.415 -1.83218 -6.18952 0
M  V30 2253 H 210.183 -3.52918 -7.38506 0
M  V30 2254 N 212.846 1.57033 -0.133567 0
M  V30 2255 C 214.071 2.00475 0.531477 0
M  V30 2256 C 214.496 1.01291 1.58499 0
M  V30 2257 O 213.854 -0.0133279 1.81295 0
M  V30 2258 C 213.902 3.42729 1.12113 0
M  V30 2259 O 213.006 3.46498 2.23636 0
M  V30 2260 H 212.347 0.650876 0.131362 0
M  V30 2261 H 214.877 2.03344 -0.22634 0
M  V30 2262 H 214.887 3.81246 1.4531 0
M  V30 2263 H 213.562 4.14428 0.349557 0
M  V30 2264 H 212.139 3.19811 1.91769 0
M  V30 2265 N 214.325 -0.140222 1.56975 0
M  V30 2266 C 215.288 -1.15689 1.97861 0
M  V30 2267 C 216.288 -1.3549 0.865974 0
M  V30 2268 O 217.478 -1.32367 1.13246 0
M  V30 2269 C 214.61 -2.51582 2.30042 0
M  V30 2270 H 215.803 -0.805971 2.88867 0
M  V30 2271 H 213.356 -0.383801 1.51515 0
M  V30 2272 H 214.091 -2.91632 1.41849 0
M  V30 2273 H 213.876 -2.38569 3.11171 0
M  V30 2274 H 215.366 -3.24792 2.62488 0
M  V30 2275 N 215.803 -1.52179 -0.40978 0
M  V30 2276 C 216.766 -1.74853 -1.48186 0
M  V30 2277 C 217.766 -0.618417 -1.48433 0
M  V30 2278 O 218.956 -0.886286 -1.49969 0
M  V30 2279 C 216.088 -1.8303 -2.87598 0
M  V30 2280 H 217.281 -2.70559 -1.29374 0
M  V30 2281 H 214.834 -1.42586 -0.640233 0
M  V30 2282 H 215.569 -0.89236 -3.11781 0
M  V30 2283 H 215.354 -2.65187 -2.88822 0
M  V30 2284 H 216.844 -2.02316 -3.65319 0
M  V30 2285 N 217.281 0.66697 -1.42791 0
M  V30 2286 C 218.521 1.43892 -1.4517 0
M  V30 2287 C 218.885 1.91877 -0.0687551 0
M  V30 2288 O 220.086 2.6878 0.0327455 0
M  V30 2289 C 218.357 2.59839 -2.45395 0
M  V30 2290 S 219.916 3.48572 -2.66539 0
M  V30 2291 H 216.734 0.491356 -0.513897 0
M  V30 2292 H 219.336 0.775656 -1.79454 0
M  V30 2293 H 218.04 2.22838 -3.44632 0
M  V30 2294 H 217.571 3.3103 -2.12562 0
M  V30 2295 H 219.586 4.56094 -1.95429 0
M  V30 2296 N 218.759 1.29093 0.90403 0
M  V30 2297 C 219.722 1.1386 1.98919 0
M  V30 2298 C 220.722 0.0753457 1.60623 0
M  V30 2299 O 221.912 0.321931 1.71199 0
M  V30 2300 C 219.044 0.740198 3.32767 0
M  V30 2301 H 220.237 2.10246 2.13861 0
M  V30 2302 H 217.79 1.12218 1.08797 0
M  V30 2303 H 218.525 -0.223997 3.23525 0
M  V30 2304 H 218.31 1.50838 3.61926 0
M  V30 2305 H 219.8 0.656546 4.12407 0
M  V30 2306 N 220.237 -1.11381 1.11499 0
M  V30 2307 C 221.147 -2.21019 0.786628 0
M  V30 2308 C 222.163 -1.72597 -0.220507 0
M  V30 2309 O 223.339 -2.01321 -0.0565251 0
M  V30 2310 C 220.404 -3.459 0.235333 0
M  V30 2311 C 219.465 -4.09107 1.30115 0
M  V30 2312 C 218.698 -5.28027 0.776068 0
M  V30 2313 O 218.921 -5.6904 -0.393661 0
M  V30 2314 O 217.855 -5.81835 1.54114 0
M  V30 2315 H 221.681 -2.51521 1.70209 0
M  V30 2316 H 219.266 -1.19928 0.890928 0
M  V30 2317 H 221.148 -4.21346 -0.067715 0
M  V30 2318 H 219.823 -3.17049 -0.652828 0
M  V30 2319 H 218.73 -3.35391 1.65722 0
M  V30 2320 H 220.063 -4.42139 2.16273 0
M  V30 2321 N 221.715 -0.905404 -1.28997 0
M  V30 2322 C 222.963 -0.533192 -1.9494 0
M  V30 2323 C 223.284 0.924618 -1.71685 0
M  V30 2324 O 222.554 1.65268 -1.05183 0
M  V30 2325 H 221.134 -0.194194 -0.721317 0
M  V30 2326 H 223.796 -1.15294 -1.57141 0
M  V30 2327 H 222.892 -0.72059 -3.03667 0
M  V30 2328 N 223.193 1.4272 -0.668489 0
M  V30 2329 C 224.442 2.00846 -0.185389 0
M  V30 2330 C 224.755 1.53442 1.21305 0
M  V30 2331 O 225.961 2.03944 1.79218 0
M  V30 2332 C 224.417 3.58805 -0.280591 0
M  V30 2333 C 224.025 4.15198 -1.68268 0
M  V30 2334 C 225.769 4.24255 0.14412 0
M  V30 2335 C 223.676 5.655 -1.73099 0
M  V30 2336 H 222.606 0.751145 -0.0655475 0
M  V30 2337 H 225.257 1.63516 -0.832752 0
M  V30 2338 H 223.639 3.93608 0.434553 0
M  V30 2339 H 224.813 3.91866 -2.42441 0
M  V30 2340 H 223.128 3.62176 -2.05469 0
M  V30 2341 H 225.725 5.34547 0.128086 0
M  V30 2342 H 226.068 3.99277 1.17827 0
M  V30 2343 H 226.601 3.94389 -0.519798 0
M  V30 2344 H 223.34 5.95268 -2.74475 0
M  V30 2345 H 222.86 5.90842 -1.03274 0
M  V30 2346 H 224.539 6.29808 -1.48158 0
M  V30 2347 N 224.671 0.411399 1.52136 0
M  V30 2348 C 225.601 -0.404015 2.29978 0
M  V30 2349 C 226.582 -1.04412 1.34284 0
M  V30 2350 O 227.767 -1.0527 1.63192 0
M  V30 2351 C 224.897 -1.5197 3.12286 0
M  V30 2352 C 223.851 -1.00448 4.16046 0
M  V30 2353 C 223.177 -2.21393 4.86712 0
M  V30 2354 C 224.477 -0.0569336 5.22269 0
M  V30 2355 H 226.171 0.245529 2.98392 0
M  V30 2356 H 223.717 0.119525 1.43503 0
M  V30 2357 H 225.67 -2.09715 3.6551 0
M  V30 2358 H 224.394 -2.19716 2.41646 0
M  V30 2359 H 223.053 -0.449421 3.63835 0
M  V30 2360 H 222.701 -2.87699 4.12599 0
M  V30 2361 H 222.401 -1.87571 5.56858 0
M  V30 2362 H 223.925 -2.7974 5.4275 0
M  V30 2363 H 225.339 -0.54325 5.7072 0
M  V30 2364 H 223.736 0.192594 5.99791 0
M  V30 2365 H 224.806 0.887663 4.76706 0
M  V30 2366 N 226.149 -1.5696 0.141893 0
M  V30 2367 C 227.079 -2.19516 -0.795936 0
M  V30 2368 C 228.06 -1.14187 -1.26077 0
M  V30 2369 O 229.245 -1.42511 -1.31925 0
M  V30 2370 C 226.375 -2.81272 -2.03723 0
M  V30 2371 C 225.329 -3.92384 -1.70936 0
M  V30 2372 C 224.655 -4.41052 -3.02287 0
M  V30 2373 C 225.955 -5.13403 -0.959954 0
M  V30 2374 H 227.649 -2.98138 -0.274596 0
M  V30 2375 H 225.195 -1.43406 -0.130636 0
M  V30 2376 H 227.148 -3.237 -2.69808 0
M  V30 2377 H 225.872 -1.99973 -2.58221 0
M  V30 2378 H 224.531 -3.50566 -1.07232 0
M  V30 2379 H 224.179 -3.56582 -3.54765 0
M  V30 2380 H 223.879 -5.15993 -2.81114 0
M  V30 2381 H 225.403 -4.86146 -3.69451 0
M  V30 2382 H 226.817 -5.52706 -1.52279 0
M  V30 2383 H 225.214 -5.94073 -0.848357 0
M  V30 2384 H 226.284 -4.84875 0.0492434 0
M  V30 2385 N 227.627 0.131896 -1.57047 0
M  V30 2386 C 229.043 0.485031 -1.52051 0
M  V30 2387 C 229.243 1.82563 -0.85281 0
M  V30 2388 O 228.299 2.48817 -0.429694 0
M  V30 2389 C 229.612 0.481409 -2.96821 0
M  V30 2390 C 231.16 0.565868 -3.07842 0
M  V30 2391 C 231.635 0.592762 -4.54148 0
M  V30 2392 N 233.126 0.654564 -4.58552 0
M  V30 2393 C 233.861 0.696608 -5.69153 0
M  V30 2394 N 233.357 0.697078 -6.89284 0
M  V30 2395 N 235.15 0.738639 -5.57226 0
M  V30 2396 H 227.301 -0.746664 -1.98843 0
M  V30 2397 H 229.564 -0.273999 -0.90754 0
M  V30 2398 H 229.27 -0.435731 -3.4899 0
M  V30 2399 H 229.144 1.3139 -3.53577 0
M  V30 2400 H 231.531 1.47343 -2.55684 0
M  V30 2401 H 231.612 -0.29406 -2.54104 0
M  V30 2402 H 231.256 -0.310701 -5.06949 0
M  V30 2403 H 231.186 1.46939 -5.05684 0
M  V30 2404 H 233.677 0.660887 -3.72076 0
M  V30 2405 H 233.99 0.731426 -7.69331 0
M  V30 2406 H 232.335 0.66471 -6.91814 0
M  V30 2407 H 235.526 0.735545 -4.62285 0
M  V30 2408 H 235.699 0.767938 -6.43434 0
M  V30 2409 N 229.106 1.52395 0.401703 0
M  V30 2410 C 230.354 1.66488 1.14569 0
M  V30 2411 C 230.675 0.400897 1.90835 0
M  V30 2412 O 229.945 -0.584415 1.8698 0
M  V30 2413 H 228.525 0.613672 0.425929 0
M  V30 2414 H 231.187 1.89464 0.457093 0
M  V30 2415 H 230.283 2.50942 1.85566 0
M  V30 2416 N 230.584 -0.659388 1.43143 0
M  V30 2417 C 231.494 -1.80167 1.50256 0
M  V30 2418 C 232.51 -1.69571 0.390106 0
M  V30 2419 O 233.686 -1.90849 0.643319 0
M  V30 2420 C 230.751 -3.16409 1.41725 0
M  V30 2421 C 229.812 -3.38848 2.63591 0
M  V30 2422 C 229.045 -4.68591 2.55458 0
M  V30 2423 O 229.268 -5.47532 1.59891 0
M  V30 2424 O 228.202 -4.92614 3.45854 0
M  V30 2425 H 232.028 -1.77121 2.46702 0
M  V30 2426 H 229.613 -0.817092 1.25076 0
M  V30 2427 H 231.495 -3.9768 1.39387 0
M  V30 2428 H 230.17 -3.20059 0.484118 0
M  V30 2429 H 229.077 -2.57366 2.71502 0
M  V30 2430 H 230.41 -3.4004 3.55856 0
M  V30 2431 N 232.062 -1.29571 -0.897171 0
M  V30 2432 C 233.009 -1.14916 -2.00158 0
M  V30 2433 C 233.979 -0.0418149 -1.66047 0
M  V30 2434 O 235.164 -0.209793 -1.89643 0
M  V30 2435 C 232.304 -0.834307 -3.34863 0
M  V30 2436 C 231.417 -2.02234 -3.8174 0
M  V30 2437 C 230.552 -1.64664 -5.05034 0
M  V30 2438 C 229.591 -2.80033 -5.44286 0
M  V30 2439 N 228.728 -2.42843 -6.58765 0
M  V30 2440 H 233.568 -2.09403 -2.12025 0
M  V30 2441 H 231.105 -1.042 -1.0383 0
M  V30 2442 H 233.063 -0.632436 -4.12379 0
M  V30 2443 H 231.693 0.0736656 -3.22716 0
M  V30 2444 H 230.745 -2.33583 -3.00238 0
M  V30 2445 H 232.057 -2.88673 -4.06779 0
M  V30 2446 H 231.211 -1.4078 -5.9014 0
M  V30 2447 H 229.95 -0.753766 -4.8184 0
M  V30 2448 H 228.955 -3.04596 -4.57713 0
M  V30 2449 H 230.18 -3.69989 -5.6946 0
M  V30 2450 H 228.126 -1.56046 -6.3717 0
M  V30 2451 H 228.043 -3.22815 -6.83613 0
M  V30 2452 H 229.311 -2.22285 -7.47134 0
M  V30 2453 N 233.54 1.10788 -1.12088 0
M  V30 2454 C 234.45 2.20599 -0.798338 0
M  V30 2455 C 235.466 1.72712 0.21135 0
M  V30 2456 O 236.642 2.01348 0.0458477 0
M  V30 2457 C 233.707 3.45771 -0.253674 0
M  V30 2458 C 232.768 4.08411 -1.32283 0
M  V30 2459 C 232.001 5.27608 -0.80406 0
M  V30 2460 O 232.224 5.69241 0.363478 0
M  V30 2461 O 231.158 5.8101 -1.57198 0
M  V30 2462 H 234.984 2.50614 -1.7154 0
M  V30 2463 H 232.569 1.19454 -0.897275 0
M  V30 2464 H 234.451 4.21376 0.0453691 0
M  V30 2465 H 233.126 3.1739 0.636005 0
M  V30 2466 H 232.033 3.34507 -1.67499 0
M  V30 2467 H 233.366 4.40986 -2.18614 0
M  V30 2468 N 235.018 0.912232 1.28515 0
M  V30 2469 C 236.429 0.591352 1.77087 0
M  V30 2470 C 236.78 -0.8933 1.74684 0
M  V30 2471 O 235.905 -1.69876 1.34056 0
M  V30 2472 C 236.5 1.06668 3.2157 0
M  V30 2473 C 235.059 0.79675 3.67871 0
M  V30 2474 C 234.206 1.23427 2.48316 0
M  V30 2475 H 237.157 1.09365 1.15 0
M  V30 2476 H 237.178 0.407455 3.78312 0
M  V30 2477 H 236.69 2.14726 3.23287 0
M  V30 2478 H 234.791 -0.270679 3.71616 0
M  V30 2479 H 234.904 1.40343 4.58084 0
M  V30 2480 H 233.268 0.653036 2.46186 0
M  V30 2481 H 234.051 2.32316 2.52753 0
M  V30 2482 N 236.496 -1.42363 0.676048 0
M  V30 2483 C 237.724 -2.05859 0.207268 0
M  V30 2484 C 238.139 -1.50796 -1.13605 0
M  V30 2485 O 237.496 -0.648265 -1.70598 0
M  V30 2486 C 237.547 -3.61248 0.134975 0
M  V30 2487 O 237.268 -4.1427 1.42521 0
M  V30 2488 C 238.769 -4.41859 -0.357151 0
M  V30 2489 H 235.989 -0.663431 0.100503 0
M  V30 2490 H 238.533 -1.82479 0.923136 0
M  V30 2491 H 236.688 -3.83735 -0.531588 0
M  V30 2492 H 237.102 -5.0815 1.29939 0
M  V30 2493 H 238.576 -5.50847 -0.356641 0
M  V30 2494 H 239.053 -4.16536 -1.39264 0
M  V30 2495 H 239.659 -4.24392 0.27772 0
M  V30 2496 N 237.974 -0.419461 -1.51915 0
M  V30 2497 C 238.921 0.400927 -2.27291 0
M  V30 2498 C 239.891 1.03224 -1.30131 0
M  V30 2499 O 241.076 1.05455 -1.59009 0
M  V30 2500 C 238.216 1.50603 -3.10504 0
M  V30 2501 C 237.329 0.89462 -4.22635 0
M  V30 2502 C 236.464 1.97328 -4.93189 0
M  V30 2503 C 235.503 1.33935 -5.97267 0
M  V30 2504 N 234.64 2.3586 -6.61298 0
M  V30 2505 H 239.48 -0.248251 -2.96964 0
M  V30 2506 H 237.017 -0.134266 -1.46486 0
M  V30 2507 H 238.975 2.15783 -3.57062 0
M  V30 2508 H 237.605 2.12509 -2.42981 0
M  V30 2509 H 236.657 0.131583 -3.80172 0
M  V30 2510 H 237.969 0.391641 -4.9726 0
M  V30 2511 H 237.123 2.70211 -5.43204 0
M  V30 2512 H 235.862 2.50994 -4.18155 0
M  V30 2513 H 234.867 0.595896 -5.46561 0
M  V30 2514 H 236.092 0.810252 -6.74249 0
M  V30 2515 H 234.038 2.88639 -5.89087 0
M  V30 2516 H 233.955 1.90403 -7.3163 0
M  V30 2517 H 235.223 3.08282 -7.15949 0
M  V30 2518 N 239.452 1.56882 -0.150215 0
M  V30 2519 C 240.863 1.82995 0.370076 0
M  V30 2520 C 241.214 1.06907 1.64515 0
M  V30 2521 O 240.339 0.315369 2.1409 0
M  V30 2522 C 240.934 3.31942 0.678208 0
M  V30 2523 C 239.493 3.58625 1.14301 0
M  V30 2524 C 238.64 2.76792 0.167778 0
M  V30 2525 H 241.591 1.54209 -0.374858 0
M  V30 2526 H 241.612 3.48272 1.53254 0
M  V30 2527 H 241.124 3.87294 -0.249991 0
M  V30 2528 H 239.225 3.08664 2.08704 0
M  V30 2529 H 239.338 4.67073 1.06676 0
M  V30 2530 H 237.702 2.45972 0.661037 0
M  V30 2531 H 238.485 3.34916 -0.754069 0
M  V30 2532 N 240.93 -0.123565 1.57115 0
M  V30 2533 C 241.893 -1.13583 1.99076 0
M  V30 2534 C 242.893 -1.34564 0.880296 0
M  V30 2535 O 244.083 -1.31158 1.14644 0
M  V30 2536 C 241.215 -2.49128 2.32698 0
M  V30 2537 H 242.408 -0.775287 2.89706 0
M  V30 2538 H 239.961 -0.36771 1.51913 0
M  V30 2539 H 240.696 -2.90111 1.44934 0
M  V30 2540 H 240.481 -2.35255 3.13684 0
M  V30 2541 H 241.971 -3.2199 2.65918 0
M  V30 2542 N 242.408 -1.52605 -0.393616 0
M  V30 2543 C 243.355 -1.77055 -1.48054 0
M  V30 2544 C 244.325 -0.61358 -1.54352 0
M  V30 2545 O 245.51 -0.852806 -1.70681 0
M  V30 2546 C 242.65 -1.94108 -2.85335 0
M  V30 2547 C 241.763 -3.21792 -2.88226 0
M  V30 2548 C 240.898 -3.29188 -4.16904 0
M  V30 2549 C 239.937 -4.51013 -4.13828 0
M  V30 2550 N 239.074 -4.55716 -5.34105 0
M  V30 2551 H 243.914 -2.69815 -1.26506 0
M  V30 2552 H 241.451 -1.33683 -0.61379 0
M  V30 2553 H 243.409 -2.01979 -3.65049 0
M  V30 2554 H 242.039 -1.04713 -3.05344 0
M  V30 2555 H 241.091 -3.23015 -2.00911 0
M  V30 2556 H 242.403 -4.11557 -2.8182 0
M  V30 2557 H 241.557 -3.36216 -5.05018 0
M  V30 2558 H 240.296 -2.37389 -4.26026 0
M  V30 2559 H 239.301 -4.44115 -3.24102 0
M  V30 2560 H 240.526 -5.44123 -4.06333 0
M  V30 2561 H 238.472 -3.66807 -5.43865 0
M  V30 2562 H 238.389 -5.39346 -5.29756 0
M  V30 2563 H 239.657 -4.66993 -6.2413 0
M  V30 2564 N 243.887 0.651787 -1.4349 0
M  V30 2565 C 244.817 1.77621 -1.51569 0
M  V30 2566 C 245.798 1.66022 -0.370253 0
M  V30 2567 O 246.983 1.85095 -0.587658 0
M  V30 2568 C 244.113 3.16056 -1.43966 0
M  V30 2569 C 243.067 3.4242 -2.56774 0
M  V30 2570 C 242.393 4.8067 -2.34223 0
M  V30 2571 C 243.693 3.37023 -3.99015 0
M  V30 2572 H 245.387 1.71117 -2.45681 0
M  V30 2573 H 242.933 0.821825 -1.18246 0
M  V30 2574 H 244.886 3.94472 -1.48221 0
M  V30 2575 H 243.61 3.23293 -0.463586 0
M  V30 2576 H 242.269 2.66375 -2.51873 0
M  V30 2577 H 241.917 4.84585 -1.34856 0
M  V30 2578 H 241.617 4.9927 -3.09844 0
M  V30 2579 H 243.141 5.61342 -2.40265 0
M  V30 2580 H 244.555 4.05374 -4.05395 0
M  V30 2581 H 242.952 3.67159 -4.74673 0
M  V30 2582 H 244.022 2.3518 -4.2405 0
M  V30 2583 N 245.365 1.30045 0.890287 0
M  V30 2584 C 246.275 1.17885 2.02831 0
M  V30 2585 C 247.291 0.0999609 1.73713 0
M  V30 2586 O 248.467 0.313867 1.98939 0
M  V30 2587 C 245.532 0.866079 3.35708 0
M  V30 2588 C 244.593 2.02979 3.78283 0
M  V30 2589 C 243.826 1.73184 5.0482 0
M  V30 2590 O 244.049 0.657237 5.66601 0
M  V30 2591 O 242.983 2.58267 5.43674 0
M  V30 2592 H 246.809 2.13474 2.16015 0
M  V30 2593 H 244.394 1.09587 1.01543 0
M  V30 2594 H 246.276 0.706623 4.15433 0
M  V30 2595 H 244.951 -0.0599443 3.23644 0
M  V30 2596 H 243.858 2.24454 2.99285 0
M  V30 2597 H 245.191 2.93734 3.94944 0
M  V30 2598 N 246.843 -1.10192 1.12674 0
M  V30 2599 C 248.092 -1.81573 0.8783 0
M  V30 2600 C 248.405 -1.86249 -0.597557 0
M  V30 2601 O 249.611 -2.5386 -0.962681 0
M  V30 2602 C 248.067 -3.26149 1.52167 0
M  V30 2603 C 247.675 -3.29763 3.03249 0
M  V30 2604 C 249.419 -4.0234 1.3536 0
M  V30 2605 C 247.326 -4.68815 3.60508 0
M  V30 2606 H 246.256 -0.680394 0.324931 0
M  V30 2607 H 248.907 -1.23902 1.35353 0
M  V30 2608 H 247.289 -3.83832 0.974104 0
M  V30 2609 H 248.463 -2.8189 3.6452 0
M  V30 2610 H 246.778 -2.67059 3.19481 0
M  V30 2611 H 249.375 -5.05058 1.75559 0
M  V30 2612 H 249.718 -4.15235 0.297554 0
M  V30 2613 H 250.251 -3.51079 1.87052 0
M  V30 2614 H 246.99 -4.61121 4.65884 0
M  V30 2615 H 246.51 -5.17045 3.04014 0
M  V30 2616 H 248.189 -5.37785 3.59717 0
M  V30 2617 N 248.321 -0.919034 -1.28029 0
M  V30 2618 C 249.251 -0.428581 -2.29533 0
M  V30 2619 C 250.232 0.50659 -1.62381 0
M  V30 2620 O 251.417 0.413195 -1.89753 0
M  V30 2621 C 248.547 0.327388 -3.45753 0
M  V30 2622 C 247.501 -0.519137 -4.2484 0
M  V30 2623 C 246.827 0.365486 -5.33449 0
M  V30 2624 C 248.127 -1.77914 -4.91064 0
M  V30 2625 H 249.821 -1.27687 -2.70807 0
M  V30 2626 H 247.367 -0.615428 -1.30186 0
M  V30 2627 H 249.32 0.681378 -4.15855 0
M  V30 2628 H 248.044 1.20963 -3.03374 0
M  V30 2629 H 246.703 -0.855717 -3.56473 0
M  V30 2630 H 246.351 1.24642 -4.87312 0
M  V30 2631 H 246.051 -0.197356 -5.87268 0
M  V30 2632 H 247.575 0.715241 -6.06396 0
M  V30 2633 H 248.989 -1.49374 -5.53498 0
M  V30 2634 H 247.386 -2.2848 -5.54903 0
M  V30 2635 H 248.456 -2.50382 -4.15255 0
M  V30 2636 N 249.799 1.42003 -0.683588 0
M  V30 2637 C 251.076 1.95112 -0.138075 0
M  V30 2638 C 251.456 1.62359 1.34918 0
M  V30 2639 O 250.804 0.924311 2.08971 0
M  V30 2640 C 251.014 3.46505 -0.416581 0
M  V30 2641 C 252.362 4.23254 -0.337834 0
M  V30 2642 O 253.386 3.54468 -0.35082 0
M  V30 2643 O 252.245 5.45743 -0.287596 0
M  V30 2644 H 249.339 0.826961 -0.00797996 0
M  V30 2645 H 251.885 1.51784 -0.758924 0
M  V30 2646 H 250.657 3.63582 -1.4465 0
M  V30 2647 H 250.28 3.969 0.235839 0
M  V30 2648 N 251.277 0.427512 1.51691 0
M  V30 2649 C 252.554 -0.201684 1.94557 0
M  V30 2650 C 252.934 -1.60981 1.36559 0
M  V30 2651 O 252.282 -2.21814 0.548702 0
M  V30 2652 C 252.492 -0.189394 3.48486 0
M  V30 2653 C 253.84 -0.39978 4.22714 0
M  V30 2654 O 254.864 -0.267945 3.55191 0
M  V30 2655 O 253.723 -0.661249 5.42485 0
M  V30 2656 H 250.817 -0.135261 0.815864 0
M  V30 2657 H 253.363 0.484782 1.62628 0
M  V30 2658 H 252.135 0.795431 3.8313 0
M  V30 2659 H 251.758 -0.919187 3.86829 0
M  V30 2660 N 252.755 -1.56801 0.158532 0
M  V30 2661 C 253.985 -2.00568 -0.495583 0
M  V30 2662 C 254.393 -1.03774 -1.58201 0
M  V30 2663 O 253.736 -0.0285797 -1.83678 0
M  V30 2664 C 253.798 -3.40768 -1.14532 0
M  V30 2665 C 253.462 -4.56553 -0.202101 0
M  V30 2666 C 254.459 -5.16714 0.574675 0
M  V30 2667 C 252.144 -5.02197 -0.101648 0
M  V30 2668 C 254.138 -6.20939 1.43924 0
M  V30 2669 C 251.825 -6.06274 0.766508 0
M  V30 2670 C 252.823 -6.65515 1.53555 0
M  V30 2671 O 252.511 -7.67575 2.38922 0
M  V30 2672 H 252.243 -0.662893 -0.13247 0
M  V30 2673 H 254.797 -2.03829 0.253559 0
M  V30 2674 H 253.027 -3.34381 -1.94233 0
M  V30 2675 H 254.716 -3.6857 -1.70033 0
M  V30 2676 H 255.482 -4.82341 0.507167 0
M  V30 2677 H 251.361 -4.55807 -0.689994 0
M  V30 2678 H 254.905 -6.67107 2.03996 0
M  V30 2679 H 250.802 -6.40073 0.835266 0
M  V30 2680 H 251.57 -7.84844 2.32296 0
M  V30 2681 N 254.233 0.115231 -1.57178 0
M  V30 2682 C 255.181 1.16014 -2.01602 0
M  V30 2683 C 256.175 1.42653 -0.913587 0
M  V30 2684 O 257.381 1.42571 -1.09879 0
M  V30 2685 H 253.756 0.391252 -0.642204 0
M  V30 2686 H 255.727 0.758998 -2.88586 0
M  V30 2687 C 254.476 2.47767 -2.4394 0
M  V30 2688 H 253.799 2.28108 -3.28339 0
M  V30 2689 H 255.239 3.19432 -2.78818 0
M  V30 2690 C 253.698 3.10617 -1.30455 0
M  V30 2691 O 254.228 3.96846 -0.622585 0
M  V30 2692 N 252.434 2.70553 -1.06064 0
M  V30 2693 H 251.981 2.00527 -1.61699 0
M  V30 2694 H 251.939 3.12934 -0.303284 0
M  V30 2695 N 255.711 1.52812 0.385517 0
M  V30 2696 C 256.957 1.68275 1.13188 0
M  V30 2697 C 257.29 0.423179 1.89533 0
M  V30 2698 O 256.565 -0.579113 1.85679 0
M  V30 2699 C 256.848 2.92001 2.1073 0
M  V30 2700 C 256.701 4.28067 1.38125 0
M  V30 2701 C 258.02 3.11283 3.11113 0
M  V30 2702 H 255.139 0.612352 0.410115 0
M  V30 2703 H 257.781 1.85415 0.414869 0
M  V30 2704 H 255.931 2.77519 2.71874 0
M  V30 2705 H 257.603 4.54324 0.799187 0
M  V30 2706 H 255.846 4.28388 0.683092 0
M  V30 2707 H 256.517 5.10733 2.09417 0
M  V30 2708 H 258.993 3.2482 2.6006 0
M  V30 2709 H 257.869 3.99325 3.76605 0
M  V30 2710 H 258.13 2.25656 3.80173 0
M  V30 2711 N 257.189 -0.644168 1.43834 0
M  V30 2712 C 258.137 -1.77793 1.49974 0
M  V30 2713 C 259.131 -1.65253 0.372536 0
M  V30 2714 O 260.337 -1.7149 0.546924 0
M  V30 2715 H 256.712 -0.58675 0.47035 0
M  V30 2716 H 258.683 -1.69736 2.45423 0
M  V30 2717 C 257.432 -3.16087 1.4486 0
M  V30 2718 H 256.755 -3.26378 2.30905 0
M  V30 2719 H 258.195 -3.95349 1.53217 0
M  V30 2720 C 256.654 -3.36484 0.167463 0
M  V30 2721 O 257.184 -3.94298 -0.767609 0
M  V30 2722 N 255.39 -2.90504 0.0747556 0
M  V30 2723 H 254.937 -2.4364 0.836507 0
M  V30 2724 H 254.895 -3.04527 -0.781714 0
M  V30 2725 N 258.668 -1.30515 -0.883378 0
M  V30 2726 C 259.598 -1.19607 -2.00541 0
M  V30 2727 C 260.579 -0.086346 -1.69881 0
M  V30 2728 O 261.764 -0.268654 -1.92333 0
M  V30 2729 C 258.894 -0.888758 -3.35736 0
M  V30 2730 C 257.848 -1.95659 -3.8066 0
M  V30 2731 C 257.174 -1.50224 -5.13164 0
M  V30 2732 C 258.474 -3.36788 -3.99213 0
M  V30 2733 H 260.168 -2.13476 -2.09925 0
M  V30 2734 H 257.714 -1.02775 -1.00863 0
M  V30 2735 H 259.667 -0.799094 -4.13754 0
M  V30 2736 H 258.391 0.0856125 -3.26488 0
M  V30 2737 H 257.05 -2.03591 -3.04871 0
M  V30 2738 H 256.698 -0.516092 -5.00345 0
M  V30 2739 H 256.398 -2.2165 -5.44192 0
M  V30 2740 H 257.922 -1.42639 -5.93706 0
M  V30 2741 H 259.336 -3.31605 -4.67665 0
M  V30 2742 H 257.733 -4.06314 -4.41621 0
M  V30 2743 H 258.803 -3.78561 -3.03017 0
M  V30 2744 N 260.146 1.09593 -1.13257 0
M  V30 2745 C 261.374 1.855 -0.916378 0
M  V30 2746 C 261.789 1.81069 0.534738 0
M  V30 2747 O 261.146 1.20562 1.37007 0
M  V30 2748 C 261.197 3.33546 -1.39388 0
M  V30 2749 O 260.918 3.37927 -2.78813 0
M  V30 2750 C 262.419 4.26299 -1.21588 0
M  V30 2751 H 259.639 0.585991 -0.326887 0
M  V30 2752 H 262.183 1.38488 -1.5047 0
M  V30 2753 H 260.338 3.77992 -0.848597 0
M  V30 2754 H 260.752 4.30254 -2.9997 0
M  V30 2755 H 262.226 5.28341 -1.59876 0
M  V30 2756 H 262.703 4.38918 -0.157376 0
M  V30 2757 H 263.309 3.87668 -1.7491 0
M  V30 2758 N 261.624 0.925811 1.2754 0
M  V30 2759 C 262.873 0.561084 1.93739 0
M  V30 2760 C 263.186 -0.901685 1.73577 0
M  V30 2761 O 264.392 -1.37511 2.34101 0
M  V30 2762 C 262.848 0.952668 3.47062 0
M  V30 2763 C 262.456 2.43599 3.75983 0
M  V30 2764 C 264.2 0.659103 4.19352 0
M  V30 2765 C 262.107 2.76707 5.22673 0
M  V30 2766 H 261.037 0.206122 0.725279 0
M  V30 2767 H 263.688 1.12637 1.44863 0
M  V30 2768 H 262.07 0.316053 3.94737 0
M  V30 2769 H 263.244 3.12035 3.39073 0
M  V30 2770 H 261.559 2.70125 3.16893 0
M  V30 2771 H 264.156 0.882985 5.27359 0
M  V30 2772 H 264.499 -0.403607 4.14339 0
M  V30 2773 H 265.032 1.25473 3.77494 0
M  V30 2774 H 261.771 3.8188 5.32774 0
M  V30 2775 H 261.291 2.12919 5.60737 0
M  V30 2776 H 262.97 2.6435 5.90532 0
M  V30 2777 N 263.102 -1.41638 0.69111 0
M  V30 2778 C 264.327 -2.06148 0.227583 0
M  V30 2779 C 264.752 -1.51652 -1.11281 0
M  V30 2780 O 264.11 -0.64164 -1.69566 0
M  V30 2781 C 264.158 -3.60095 0.190858 0
M  V30 2782 O 263.262 -4.03845 -0.835664 0
M  V30 2783 H 262.603 -0.654434 0.112306 0
M  V30 2784 H 265.133 -1.81484 0.944714 0
M  V30 2785 H 265.143 -4.07995 0.020207 0
M  V30 2786 H 263.818 -3.99129 1.16915 0
M  V30 2787 H 262.395 -3.67458 -0.63473 0
M  V30 2788 N 264.58 -0.43555 -1.51462 0
M  V30 2789 C 265.49 0.383001 -2.31453 0
M  V30 2790 C 266.506 1.02931 -1.4029 0
M  V30 2791 O 267.682 1.02507 -1.73362 0
M  V30 2792 C 264.747 1.47043 -3.13973 0
M  V30 2793 C 263.808 0.844433 -4.20913 0
M  V30 2794 C 263.041 1.88004 -4.9949 0
M  V30 2795 O 263.264 3.10199 -4.78678 0
M  V30 2796 O 262.198 1.47157 -5.83634 0
M  V30 2797 H 266.024 -0.269964 -3.02498 0
M  V30 2798 H 263.609 -0.19813 -1.4808 0
M  V30 2799 H 265.491 2.10113 -3.65281 0
M  V30 2800 H 264.166 2.10751 -2.45695 0
M  V30 2801 H 263.073 0.175729 -3.73687 0
M  V30 2802 H 264.406 0.250869 -4.9156 0
M  V30 2803 N 266.058 1.56714 -0.166846 0
M  V30 2804 C 267.306 1.96358 0.478305 0
M  V30 2805 C 267.627 1.0537 1.6408 0
M  V30 2806 O 266.897 0.119154 1.95537 0
M  V30 2807 H 265.477 0.725065 0.179692 0
M  V30 2808 H 268.139 1.93329 -0.246985 0
M  V30 2809 H 267.235 3.00547 0.841292 0
M  V30 2810 N 267.536 -0.106894 1.57237 0
M  V30 2811 C 268.952 -0.46078 1.52804 0
M  V30 2812 C 269.152 -1.81184 0.881746 0
M  V30 2813 O 268.208 -2.48102 0.469224 0
M  V30 2814 C 269.521 -0.434127 2.9755 0
M  V30 2815 C 271.069 -0.516821 3.08704 0
M  V30 2816 C 271.544 -0.520436 4.55033 0
M  V30 2817 N 273.035 -0.58153 4.59535 0
M  V30 2818 C 273.77 -0.605973 5.70189 0
M  V30 2819 N 273.266 -0.587331 6.90306 0
M  V30 2820 N 275.059 -0.649895 5.5833 0
M  V30 2821 H 267.21 0.778203 1.9763 0
M  V30 2822 H 269.473 0.288403 0.903066 0
M  V30 2823 H 269.179 0.491197 3.48253 0
M  V30 2824 H 269.053 -1.25748 3.55622 0
M  V30 2825 H 271.44 -1.43256 2.57995 0
M  V30 2826 H 271.521 0.334449 2.53604 0
M  V30 2827 H 271.165 0.391313 5.0639 0
M  V30 2828 H 271.095 -1.38876 5.07958 0
M  V30 2829 H 273.586 -0.60161 3.73081 0
M  V30 2830 H 273.899 -0.60894 7.70397 0
M  V30 2831 H 272.244 -0.554564 6.92784 0
M  V30 2832 H 275.435 -0.661907 4.63397 0
M  V30 2833 H 275.608 -0.665476 6.44574 0
M  V30 2834 N 269.014 -1.53014 -0.377408 0
M  V30 2835 C 270.244 -1.72265 -1.14054 0
M  V30 2836 C 270.652 -0.44601 -1.83868 0
M  V30 2837 O 269.995 0.590095 -1.73964 0
M  V30 2838 C 270.057 -2.82492 -2.22348 0
M  V30 2839 C 269.721 -4.23233 -1.72402 0
M  V30 2840 C 270.718 -5.05992 -1.19448 0
M  V30 2841 C 268.403 -4.696 -1.78273 0
M  V30 2842 C 270.397 -6.33203 -0.730268 0
M  V30 2843 C 268.084 -5.96792 -1.31464 0
M  V30 2844 C 269.082 -6.78424 -0.789297 0
M  V30 2845 O 268.77 -8.0323 -0.328077 0
M  V30 2846 H 268.502 -0.579873 -0.347453 0
M  V30 2847 H 271.056 -2.00502 -0.445882 0
M  V30 2848 H 269.286 -2.49702 -2.95272 0
M  V30 2849 H 270.975 -2.90034 -2.83963 0
M  V30 2850 H 271.741 -4.71349 -1.14259 0
M  V30 2851 H 267.62 -4.06142 -2.18106 0
M  V30 2852 H 271.164 -6.96868 -0.319542 0
M  V30 2853 H 267.061 -6.30937 -1.36342 0
M  V30 2854 H 267.829 -8.1727 -0.448493 0
M  V30 2855 N 270.492 0.636531 -1.44174 0
M  V30 2856 C 271.442 1.74233 -1.47061 0
M  V30 2857 C 272.426 1.57331 -0.337034 0
M  V30 2858 O 273.618 1.67159 -0.581973 0
M  V30 2859 C 270.747 3.12897 -1.41246 0
M  V30 2860 C 269.833 3.35288 -2.59698 0
M  V30 2861 N 270.224 3.2807 -3.84972 0
M  V30 2862 C 268.522 3.66065 -2.54778 0
M  V30 2863 C 269.223 3.51001 -4.63867 0
M  V30 2864 N 268.199 3.73616 -3.94857 0
M  V30 2865 H 272.001 1.67103 -2.41773 0
M  V30 2866 H 269.515 0.838806 -1.3906 0
M  V30 2867 H 271.512 3.92189 -1.41398 0
M  V30 2868 H 270.172 3.21197 -0.47569 0
M  V30 2869 H 271.183 3.07109 -4.17019 0
M  V30 2870 H 267.86 3.81379 -1.6987 0
M  V30 2871 H 269.25 3.51059 -5.72894 0
M  V30 2872 N 271.97 1.30982 0.876444 0
M  V30 2873 C 272.902 1.13902 1.98894 0
M  V30 2874 C 273.915 0.0798815 1.62604 0
M  V30 2875 O 275.104 0.326743 1.75484 0
M  V30 2876 C 272.204 0.716699 3.31235 0
M  V30 2877 C 271.377 1.85945 3.95908 0
M  V30 2878 C 270.436 1.42426 5.06558 0
M  V30 2879 O 269.462 2.13287 5.27729 0
M  V30 2880 N 270.664 0.308025 5.79682 0
M  V30 2881 H 273.429 2.09724 2.14094 0
M  V30 2882 H 270.99 1.2323 1.05004 0
M  V30 2883 H 272.982 0.408403 4.02634 0
M  V30 2884 H 271.552 -0.149719 3.12241 0
M  V30 2885 H 270.772 2.33541 3.17573 0
M  V30 2886 H 272.06 2.62503 4.35855 0
M  V30 2887 H 271.458 -0.282241 5.64995 0
M  V30 2888 H 270.015 0.0592282 6.51773 0
M  V30 2889 N 273.449 -1.08991 1.13837 0
M  V30 2890 C 274.695 -1.81526 0.90422 0
M  V30 2891 C 275.028 -1.85706 -0.568066 0
M  V30 2892 O 274.303 -1.32855 -1.42056 0
M  V30 2893 C 274.586 -3.27447 1.49835 0
M  V30 2894 C 274.439 -3.31512 3.04006 0
M  V30 2895 C 275.758 -4.24256 1.17025 0
M  V30 2896 H 272.877 -0.659029 0.329923 0
M  V30 2897 H 275.519 -1.27644 1.40737 0
M  V30 2898 H 273.669 -3.73462 1.07044 0
M  V30 2899 H 275.341 -2.93867 3.55584 0
M  V30 2900 H 273.584 -2.70963 3.38765 0
M  V30 2901 H 274.255 -4.34329 3.40679 0
M  V30 2902 H 276.731 -3.86549 1.54009 0
M  V30 2903 H 275.607 -5.24684 1.61237 0
M  V30 2904 H 275.868 -4.42019 0.0846274 0
M  V30 2905 N 274.927 -0.932562 -1.27047 0
M  V30 2906 C 275.874 -0.434072 -2.26681 0
M  V30 2907 C 276.844 0.501639 -1.58344 0
M  V30 2908 O 278.029 0.419734 -1.86126 0
M  V30 2909 C 275.169 0.30261 -3.43771 0
M  V30 2910 C 274.282 -0.667774 -4.26808 0
M  V30 2911 C 273.417 0.0892393 -5.31125 0
M  V30 2912 C 272.456 -0.873532 -6.05835 0
M  V30 2913 N 271.593 -0.148832 -7.01942 0
M  V30 2914 H 276.433 -1.28868 -2.68695 0
M  V30 2915 H 273.97 -0.646713 -1.32121 0
M  V30 2916 H 275.928 0.746092 -4.10474 0
M  V30 2917 H 274.558 1.12142 -3.02695 0
M  V30 2918 H 273.61 -1.22978 -3.59973 0
M  V30 2919 H 274.922 -1.40337 -4.78651 0
M  V30 2920 H 274.076 0.592409 -6.03801 0
M  V30 2921 H 272.815 0.85777 -4.80097 0
M  V30 2922 H 271.82 -1.38791 -5.31994 0
M  V30 2923 H 273.045 -1.64193 -6.58952 0
M  V30 2924 H 270.991 0.601365 -6.53238 0
M  V30 2925 H 270.908 -0.82391 -7.51497 0
M  V30 2926 H 272.176 0.333527 -7.78786 0
M  V30 2927 N 276.405 1.4127 -0.698611 0
M  V30 2928 C 277.821 1.55241 -0.370462 0
M  V30 2929 C 278.021 1.67351 1.12231 0
M  V30 2930 O 277.077 1.65363 1.90818 0
M  V30 2931 C 278.39 2.78997 -1.12165 0
M  V30 2932 C 279.938 2.92797 -1.1063 0
M  V30 2933 C 280.413 4.19445 -1.8393 0
M  V30 2934 N 281.904 4.26409 -1.80914 0
M  V30 2935 C 282.639 5.23271 -2.34467 0
M  V30 2936 N 282.135 6.26145 -2.96504 0
M  V30 2937 N 283.928 5.15232 -2.24706 0
M  V30 2938 H 276.079 1.31654 -1.66676 0
M  V30 2939 H 278.342 0.635393 -0.703548 0
M  V30 2940 H 278.048 2.76268 -2.17644 0
M  V30 2941 H 277.922 3.70606 -0.702209 0
M  V30 2942 H 280.309 2.95039 -0.0597713 0
M  V30 2943 H 280.39 2.02353 -1.56483 0
M  V30 2944 H 280.034 4.17964 -2.88563 0
M  V30 2945 H 279.964 5.08866 -1.35509 0
M  V30 2946 H 282.455 3.527 -1.35687 0
M  V30 2947 H 282.768 6.96451 -3.34927 0
M  V30 2948 H 281.113 6.26638 -3.00583 0
M  V30 2949 H 284.304 4.33789 -1.7591 0
M  V30 2950 H 284.477 5.90552 -2.66745 0
M  V30 2951 N 277.883 0.443576 1.51229 0
M  V30 2952 C 278.816 -0.410089 2.24485 0
M  V30 2953 C 279.794 -1.01949 1.26669 0
M  V30 2954 O 280.978 -1.06075 1.55821 0
M  V30 2955 C 278.105 -1.57211 3.00004 0
M  V30 2956 C 277.151 -1.08279 4.12526 0
M  V30 2957 S 277.984 -0.0197476 5.35496 0
M  V30 2958 C 279.14 -1.18629 6.14555 0
M  V30 2959 H 279.373 0.211832 2.96544 0
M  V30 2960 H 276.906 0.228156 1.52705 0
M  V30 2961 H 278.864 -2.23825 3.44111 0
M  V30 2962 H 277.525 -2.16547 2.27522 0
M  V30 2963 H 276.718 -1.95193 4.64667 0
M  V30 2964 H 276.32 -0.494797 3.70713 0
M  V30 2965 H 278.612 -2.10344 6.4402 0
M  V30 2966 H 279.555 -0.70472 7.04584 0
M  V30 2967 H 279.963 -1.42768 5.46148 0
M  V30 2968 N 279.361 -1.56624 0.175154 0
M  V30 2969 C 280.608 -1.96999 -0.468811 0
M  V30 2970 C 280.936 -1.06129 -1.62994 0
M  V30 2971 O 280.191 -0.0961771 -1.95464 0
M  V30 2972 C 280.49 -3.43419 -0.989864 0
M  V30 2973 C 280.156 -4.50866 0.0557687 0
M  V30 2974 C 278.818 -4.79975 0.343134 0
M  V30 2975 C 281.17 -5.15551 0.765308 0
M  V30 2976 C 278.498 -5.71066 1.34536 0
M  V30 2977 C 280.85 -6.07724 1.75654 0
M  V30 2978 C 279.514 -6.35199 2.05132 0
M  V30 2979 H 278.784 -0.720869 -0.17155 0
M  V30 2980 H 281.431 -1.89616 0.267924 0
M  V30 2981 H 279.736 -3.47772 -1.80449 0
M  V30 2982 H 281.433 -3.72002 -1.49719 0
M  V30 2983 H 278.023 -4.28229 -0.178381 0
M  V30 2984 H 282.207 -4.9317 0.556513 0
M  V30 2985 H 277.463 -5.90635 1.57988 0
M  V30 2986 H 281.637 -6.56912 2.31169 0
M  V30 2987 H 279.264 -7.05584 2.8294 0
M  V30 2988 N 280.839 0.0985539 -1.57292 0
M  V30 2989 C 281.802 1.10402 -2.00858 0
M  V30 2990 C 282.802 1.33146 -0.901593 0
M  V30 2991 O 283.992 1.29318 -1.16716 0
M  V30 2992 C 281.124 2.45394 -2.36632 0
M  V30 2993 H 282.317 0.729099 -2.90902 0
M  V30 2994 H 279.87 0.343495 -1.52479 0
M  V30 2995 H 280.605 2.87769 -1.49531 0
M  V30 2996 H 280.39 2.30235 -3.17387 0
M  V30 2997 H 281.88 3.17718 -2.71007 0
M  V30 2998 N 282.317 1.53212 0.369288 0
M  V30 2999 C 283.28 1.7872 1.43498 0
M  V30 3000 C 284.28 0.657554 1.46741 0
M  V30 3001 O 285.47 0.925736 1.47566 0
M  V30 3002 C 282.602 1.90591 2.82645 0
M  V30 3003 H 283.795 2.73894 1.22156 0
M  V30 3004 H 281.348 1.44233 0.602203 0
M  V30 3005 H 282.083 0.974709 3.09306 0
M  V30 3006 H 281.868 2.72751 2.8169 0
M  V30 3007 H 283.358 2.11931 3.59826 0
M  V30 3008 N 283.795 -0.628877 1.44509 0
M  V30 3009 C 284.725 -1.75187 1.54376 0
M  V30 3010 C 285.706 -1.65411 0.396618 0
M  V30 3011 O 286.891 -1.84137 0.617031 0
M  V30 3012 C 284.021 -3.13725 1.48976 0
M  V30 3013 C 282.975 -3.38291 2.62189 0
M  V30 3014 C 282.301 -4.76883 2.41841 0
M  V30 3015 C 283.601 -3.30632 4.04326 0
M  V30 3016 H 285.295 -1.67187 2.48373 0
M  V30 3017 H 282.841 -0.802909 1.19538 0
M  V30 3018 H 284.794 -3.92064 1.54478 0
M  V30 3019 H 283.518 -3.22515 0.514961 0
M  V30 3020 H 282.177 -2.62334 2.56079 0
M  V30 3021 H 281.825 -4.82378 1.42548 0
M  V30 3022 H 281.525 -4.94278 3.17747 0
M  V30 3023 H 283.049 -5.57449 2.49165 0
M  V30 3024 H 284.463 -3.98873 4.11793 0
M  V30 3025 H 282.86 -3.59561 4.80454 0
M  V30 3026 H 283.93 -2.28404 4.27738 0
M  V30 3027 N 285.273 -1.31445 -0.869486 0
M  V30 3028 C 286.521 -1.20918 -1.61936 0
M  V30 3029 C 286.842 0.232683 -1.93607 0
M  V30 3030 O 286.112 1.15352 -1.58338 0
M  V30 3031 H 284.692 -0.44454 -0.600328 0
M  V30 3032 H 287.354 -1.64776 -1.0409 0
M  V30 3033 H 286.45 -1.78124 -2.56278 0
M  V30 3034 N 286.751 1.08385 -1.14413 0
M  V30 3035 C 287.699 2.17406 -0.826888 0
M  V30 3036 C 288.693 1.6827 0.195312 0
M  V30 3037 O 289.899 1.79927 0.0513892 0
M  V30 3038 H 286.274 0.70934 -0.249681 0
M  V30 3039 H 288.245 2.41388 -1.75426 0
M  V30 3040 C 286.994 3.46215 -0.320979 0
M  V30 3041 H 286.317 3.84401 -1.0989 0
M  V30 3042 H 287.757 4.23777 -0.137549 0
M  V30 3043 C 286.216 3.23067 0.955472 0
M  V30 3044 O 286.746 3.4668 2.02918 0
M  V30 3045 N 284.952 2.7661 0.890798 0
M  V30 3046 H 284.499 2.57594 0.0168815 0
M  V30 3047 H 284.457 2.61501 1.74542 0
M  V30 3048 N 288.23 0.939286 1.26551 0
M  V30 3049 C 289.177 0.446088 2.26448 0
M  V30 3050 C 290.147 -0.493234 1.58608 0
M  V30 3051 O 291.332 -0.409857 1.86346 0
M  V30 3052 C 288.472 -0.284375 3.43926 0
M  V30 3053 C 287.585 0.690399 4.26448 0
M  V30 3054 C 286.72 -0.0610712 5.31165 0
M  V30 3055 C 285.759 0.905649 6.05363 0
M  V30 3056 N 284.896 0.186055 7.01853 0
M  V30 3057 H 289.736 1.30291 2.68008 0
M  V30 3058 H 287.273 0.65371 1.31776 0
M  V30 3059 H 289.231 -0.724313 4.10864 0
M  V30 3060 H 287.861 -1.10535 3.03285 0
M  V30 3061 H 286.913 1.24885 3.59316 0
M  V30 3062 H 288.225 1.42873 4.779 0
M  V30 3063 H 287.379 -0.56038 6.04106 0
M  V30 3064 H 286.118 -0.832297 4.80546 0
M  V30 3065 H 285.123 1.4161 5.3125 0
M  V30 3066 H 286.348 1.67685 6.58072 0
M  V30 3067 H 284.294 -0.566714 6.53548 0
M  V30 3068 H 284.211 0.863752 7.51049 0
M  V30 3069 H 285.479 -0.292221 7.78952 0
M  V30 3070 N 289.708 -1.40897 0.706093 0
M  V30 3071 C 290.954 -2.01352 0.241889 0
M  V30 3072 C 291.287 -1.55832 -1.15888 0
M  V30 3073 O 290.562 -0.774145 -1.7843 0
M  V30 3074 C 290.845 -3.58752 0.311311 0
M  V30 3075 C 290.698 -4.1437 1.74978 0
M  V30 3076 C 292.017 -4.38914 -0.322922 0
M  V30 3077 H 289.136 -0.731562 0.0893687 0
M  V30 3078 H 291.778 -1.67504 0.896802 0
M  V30 3079 H 289.928 -3.87718 -0.246302 0
M  V30 3080 H 291.6 -3.96239 2.36205 0
M  V30 3081 H 289.843 -3.69016 2.28057 0
M  V30 3082 H 290.514 -5.23532 1.74981 0
M  V30 3083 H 292.99 -4.15822 0.152089 0
M  V30 3084 H 291.866 -5.48358 -0.243855 0
M  V30 3085 H 292.127 -4.19176 -1.40513 0
M  V30 3086 N 291.186 -0.45159 -1.50991 0
M  V30 3087 C 292.432 0.110237 -2.025 0
M  V30 3088 C 292.765 1.41109 -1.33424 0
M  V30 3089 O 292.04 1.89135 -0.453659 0
M  V30 3090 C 292.323 0.314271 -3.58726 0
M  V30 3091 C 292.176 -1.00623 -4.38401 0
M  V30 3092 C 293.495 1.07767 -4.26702 0
M  V30 3093 H 290.614 0.0385897 -0.735989 0
M  V30 3094 H 293.256 -0.593374 -1.80497 0
M  V30 3095 H 291.406 0.913601 -3.77605 0
M  V30 3096 H 293.078 -1.64064 -4.31139 0
M  V30 3097 H 291.321 -1.6075 -4.02917 0
M  V30 3098 H 291.992 -0.817341 -5.45915 0
M  V30 3099 H 294.468 0.56986 -4.12179 0
M  V30 3100 H 293.344 1.18921 -5.35863 0
M  V30 3101 H 293.605 2.10939 -3.88532 0
M  V30 3102 N 292.664 1.56529 -0.183458 0
M  V30 3103 C 293.912 1.96855 0.457452 0
M  V30 3104 C 294.233 1.07104 1.62953 0
M  V30 3105 O 293.503 0.139887 1.954 0
M  V30 3106 H 292.083 0.72693 0.171992 0
M  V30 3107 H 294.745 1.93056 -0.267476 0
M  V30 3108 H 293.841 3.01423 0.809368 0
M  V30 3109 N 294.142 -0.090211 1.57342 0
M  V30 3110 C 295.072 -1.10976 2.05443 0
M  V30 3111 C 296.053 -1.41482 0.944284 0
M  V30 3112 O 297.238 -1.51428 1.21586 0
M  V30 3113 C 294.368 -2.42831 2.48295 0
M  V30 3114 C 293.322 -2.26721 3.63018 0
M  V30 3115 C 292.648 -3.63796 3.91863 0
M  V30 3116 C 293.948 -1.7037 4.93732 0
M  V30 3117 H 295.642 -0.709564 2.9087 0
M  V30 3118 H 293.188 -0.339874 1.39932 0
M  V30 3119 H 295.141 -3.14431 2.80555 0
M  V30 3120 H 293.865 -2.84795 1.59873 0
M  V30 3121 H 292.524 -1.57565 3.31012 0
M  V30 3122 H 292.172 -4.03297 3.00601 0
M  V30 3123 H 291.872 -3.53861 4.69101 0
M  V30 3124 H 293.396 -4.36855 4.26603 0
M  V30 3125 H 294.81 -2.31816 5.24342 0
M  V30 3126 H 293.207 -1.71181 5.75167 0
M  V30 3127 H 294.277 -0.663542 4.80339 0
M  V30 3128 N 295.62 -1.53406 -0.361157 0
M  V30 3129 C 296.57 -1.76536 -1.44287 0
M  V30 3130 C 297.554 -0.620019 -1.48474 0
M  V30 3131 O 298.746 -0.878834 -1.53641 0
M  V30 3132 C 295.875 -1.96266 -2.81664 0
M  V30 3133 C 294.961 -3.16815 -2.81938 0
M  V30 3134 N 295.352 -4.38637 -2.51855 0
M  V30 3135 C 293.65 -3.17627 -3.13096 0
M  V30 3136 C 294.351 -5.20401 -2.59919 0
M  V30 3137 N 293.327 -4.56712 -2.94814 0
M  V30 3138 H 297.129 -2.68331 -1.19899 0
M  V30 3139 H 294.643 -1.52091 -0.56938 0
M  V30 3140 H 296.64 -2.10966 -3.59582 0
M  V30 3141 H 295.3 -1.05702 -3.07013 0
M  V30 3142 H 296.311 -4.66293 -2.25369 0
M  V30 3143 H 292.988 -2.36971 -3.43731 0
M  V30 3144 H 294.378 -6.27586 -2.39969 0
M  V30 3145 N 297.098 0.621204 -1.44841 0
M  V30 3146 C 298.514 0.94048 -1.28946 0
M  V30 3147 C 298.714 2.00154 -0.23249 0
M  V30 3148 O 297.77 2.49651 0.378237 0
M  V30 3149 C 299.083 1.39433 -2.66419 0
M  V30 3150 C 300.631 1.50927 -2.74208 0
M  V30 3151 C 301.106 1.99692 -4.12174 0
M  V30 3152 N 302.597 2.06947 -4.144 0
M  V30 3153 C 303.332 2.45871 -5.1801 0
M  V30 3154 N 302.828 2.83862 -6.31977 0
M  V30 3155 N 304.621 2.46092 -5.05366 0
M  V30 3156 H 296.772 -0.0803548 -2.12248 0
M  V30 3157 H 299.035 0.0266913 -0.947624 0
M  V30 3158 H 298.741 0.688925 -3.44887 0
M  V30 3159 H 298.615 2.36347 -2.93973 0
M  V30 3160 H 301.002 2.20561 -1.96053 0
M  V30 3161 H 301.083 0.523627 -2.50383 0
M  V30 3162 H 300.727 1.30649 -4.90809 0
M  V30 3163 H 300.657 2.99146 -4.33381 0
M  V30 3164 H 303.148 1.80232 -3.32152 0
M  V30 3165 H 303.461 3.12405 -7.0684 0
M  V30 3166 H 301.806 2.8159 -6.35399 0
M  V30 3167 H 304.997 2.1581 -4.15384 0
M  V30 3168 H 305.17 2.76102 -5.86235 0
M  V30 3169 N 298.576 1.31904 0.862503 0
M  V30 3170 C 299.822 1.23207 1.61838 0
M  V30 3171 C 300.177 -0.206062 1.91293 0
M  V30 3172 O 299.47 -1.14162 1.53875 0
M  V30 3173 C 299.664 2.01713 2.95037 0
M  V30 3174 C 299.493 3.53014 2.78588 0
M  V30 3175 C 298.263 4.22359 2.77382 0
M  V30 3176 C 300.461 4.47819 2.52909 0
M  V30 3177 N 298.443 5.59766 2.52062 0
M  V30 3178 C 299.814 5.72947 2.36922 0
M  V30 3179 C 301.869 4.37162 2.38314 0
M  V30 3180 C 300.572 6.88623 2.07823 0
M  V30 3181 C 302.598 5.5263 2.10604 0
M  V30 3182 C 301.96 6.76752 1.95411 0
M  V30 3183 H 298.059 0.505984 0.596242 0
M  V30 3184 H 300.643 1.66179 1.01452 0
M  V30 3185 H 298.814 1.61098 3.53415 0
M  V30 3186 H 300.546 1.84975 3.59953 0
M  V30 3187 H 297.301 3.74401 2.90036 0
M  V30 3188 H 297.725 6.32135 2.42352 0
M  V30 3189 H 302.367 3.41857 2.48784 0
M  V30 3190 H 300.085 7.83948 1.9609 0
M  V30 3191 H 303.671 5.46307 2.00101 0
M  V30 3192 H 302.551 7.6459 1.74274 0
M  V30 3193 N 300.054 -1.07777 1.14986 0
M  V30 3194 C 301.001 -2.14867 0.842672 0
M  V30 3195 C 301.971 -1.6486 -0.202552 0
M  V30 3196 O 303.156 -1.90668 -0.0710568 0
M  V30 3197 C 300.296 -3.43486 0.333363 0
M  V30 3198 C 299.409 -4.07306 1.43965 0
M  V30 3199 C 298.544 -5.23744 0.886914 0
M  V30 3200 C 297.583 -5.79517 1.97043 0
M  V30 3201 N 296.72 -6.87291 1.4344 0
M  V30 3202 H 301.56 -2.40485 1.75986 0
M  V30 3203 H 299.097 -1.1801 0.878179 0
M  V30 3204 H 301.055 -4.17195 0.0198163 0
M  V30 3205 H 299.685 -3.18133 -0.546916 0
M  V30 3206 H 298.737 -3.31293 1.86946 0
M  V30 3207 H 300.049 -4.44771 2.25788 0
M  V30 3208 H 299.203 -6.04419 0.525651 0
M  V30 3209 H 297.942 -4.87685 0.0377957 0
M  V30 3210 H 296.947 -4.97491 2.34057 0
M  V30 3211 H 298.172 -6.17632 2.82325 0
M  V30 3212 H 296.118 -6.5318 0.607567 0
M  V30 3213 H 296.035 -7.23617 2.18895 0
M  V30 3214 H 297.303 -7.71682 1.10124 0
M  V30 3215 N 301.532 -0.945985 -1.26051 0
M  V30 3216 C 302.781 -0.591836 -1.92822 0
M  V30 3217 C 303.094 0.873956 -1.7499 0
M  V30 3218 O 304.3 1.33769 -2.36259 0
M  V30 3219 C 302.756 -1.00776 -3.45503 0
M  V30 3220 C 302.364 -2.4955 -3.7206 0
M  V30 3221 C 304.108 -0.725735 -4.1825 0
M  V30 3222 C 302.015 -2.84988 -5.18205 0
M  V30 3223 H 300.945 -0.217635 -0.721908 0
M  V30 3224 H 303.596 -1.14927 -1.43052 0
M  V30 3225 H 301.978 -0.378812 -3.94184 0
M  V30 3226 H 303.152 -3.1739 -3.34066 0
M  V30 3227 H 301.467 -2.75133 -3.12555 0
M  V30 3228 H 304.064 -0.966771 -5.25887 0
M  V30 3229 H 304.407 0.337639 -4.14929 0
M  V30 3230 H 304.94 -1.31463 -3.7545 0
M  V30 3231 H 301.679 -3.90307 -5.26631 0
M  V30 3232 H 301.199 -2.21813 -5.57278 0
M  V30 3233 H 302.878 -2.73712 -5.86252 0
M  V30 3234 N 303.011 1.40521 -0.713556 0
M  V30 3235 C 304.259 2.00527 -0.251692 0
M  V30 3236 C 304.58 1.56857 1.15848 0
M  V30 3237 O 303.85 0.807127 1.785 0
M  V30 3238 H 302.43 0.741551 -0.0900646 0
M  V30 3239 H 305.092 1.71887 -0.918733 0
M  V30 3240 H 304.188 3.10813 -0.283192 0
M  V30 3241 N 304.489 0.459591 1.5075 0
M  V30 3242 C 305.766 -0.160371 1.94941 0
M  V30 3243 C 306.146 -1.58048 1.39943 0
M  V30 3244 O 305.494 -2.206 0.595629 0
M  V30 3245 C 305.704 -0.115432 3.48809 0
M  V30 3246 C 307.052 -0.310026 4.23467 0
M  V30 3247 O 308.076 -0.192543 3.55679 0
M  V30 3248 O 306.935 -0.546031 5.43765 0
M  V30 3249 H 304.029 -0.117925 0.818549 0
M  V30 3250 H 306.575 0.519169 1.61563 0
M  V30 3251 H 305.347 0.87652 3.81357 0
M  V30 3252 H 304.97 -0.836928 3.88692 0
M  V30 3253 N 305.967 -1.56429 0.191757 0
M  V30 3254 C 307.213 -1.97777 -0.448554 0
M  V30 3255 C 307.546 -1.07847 -1.61501 0
M  V30 3256 O 306.821 -0.129774 -1.94067 0
M  V30 3257 C 307.104 -3.48362 -0.911906 0
M  V30 3258 C 306.957 -4.4907 0.256136 0
M  V30 3259 C 308.276 -4.02561 -1.77857 0
M  V30 3260 H 305.395 -0.719071 -0.161572 0
M  V30 3261 H 308.037 -1.87896 0.282007 0
M  V30 3262 H 306.187 -3.56914 -1.53442 0
M  V30 3263 H 307.859 -4.5256 0.893733 0
M  V30 3264 H 306.102 -4.24181 0.908436 0
M  V30 3265 H 306.773 -5.51889 -0.11053 0
M  V30 3266 H 309.249 -3.96767 -1.25359 0
M  V30 3267 H 308.125 -5.08301 -2.07174 0
M  V30 3268 H 308.386 -3.47616 -2.73158 0
M  V30 3269 N 307.445 0.0818655 -1.57387 0
M  V30 3270 C 308.691 0.784074 -1.8703 0
M  V30 3271 C 309.024 1.77729 -0.782689 0
M  V30 3272 O 308.299 1.93384 0.208051 0
M  V30 3273 C 308.582 1.50105 -3.27323 0
M  V30 3274 C 308.435 0.524925 -4.46727 0
M  V30 3275 C 309.754 2.44843 -3.65705 0
M  V30 3276 H 306.873 0.283582 -0.680257 0
M  V30 3277 H 309.515 0.0474352 -1.89941 0
M  V30 3278 H 307.665 2.12897 -3.24972 0
M  V30 3279 H 309.337 -0.0970111 -4.61198 0
M  V30 3280 H 307.58 -0.160606 -4.33503 0
M  V30 3281 H 308.251 1.064 -5.41648 0
M  V30 3282 H 310.727 1.92135 -3.69085 0
M  V30 3283 H 309.603 2.92018 -4.64776 0
M  V30 3284 H 309.864 3.29197 -2.95096 0
M  V30 3285 N 308.923 1.53595 0.353017 0
M  V30 3286 C 309.853 1.83902 1.43883 0
M  V30 3287 C 310.834 0.693421 1.55324 0
M  V30 3288 O 312.019 0.944452 1.69687 0
M  V30 3289 C 309.149 2.04016 2.8106 0
M  V30 3290 C 308.103 3.19814 2.84434 0
M  V30 3291 C 307.429 3.25244 4.24406 0
M  V30 3292 C 308.729 4.58133 2.50822 0
M  V30 3293 H 310.423 2.74835 1.1877 0
M  V30 3294 H 307.969 1.32242 0.569917 0
M  V30 3295 H 309.922 2.238 3.57059 0
M  V30 3296 H 308.646 1.09804 3.07588 0
M  V30 3297 H 307.305 2.9987 2.10887 0
M  V30 3298 H 306.953 2.28646 4.48029 0
M  V30 3299 H 306.653 4.03054 4.27576 0
M  V30 3300 H 308.177 3.47228 5.0226 0
M  V30 3301 H 309.591 4.77995 3.16534 0
M  V30 3302 H 307.988 5.38276 2.6529 0
M  V30 3303 H 309.058 4.62387 1.46034 0
M  V30 3304 N 310.401 -0.613514 1.45168 0
M  V30 3305 C 311.678 -1.37263 1.39349 0
M  V30 3306 C 312.058 -2.11012 0.0610848 0
M  V30 3307 O 311.406 -2.07502 -0.956825 0
M  V30 3308 C 311.616 -2.3244 2.60332 0
M  V30 3309 C 312.964 -2.9523 3.05163 0
M  V30 3310 O 313.988 -2.42762 2.60663 0
M  V30 3311 O 312.847 -3.90454 3.82372 0
M  V30 3312 H 309.941 -0.615188 0.552696 0
M  V30 3313 H 312.487 -0.637097 1.57287 0
M  V30 3314 H 311.259 -1.77164 3.48896 0
M  V30 3315 H 310.882 -3.13383 2.44698 0
M  V30 3316 N 311.879 -1.3236 -0.855495 0
M  V30 3317 C 312.789 -1.23221 -1.99634 0
M  V30 3318 C 313.805 -0.145983 -1.73387 0
M  V30 3319 O 314.981 -0.366502 -1.98037 0
M  V30 3320 C 312.046 -0.954782 -3.33294 0
M  V30 3321 C 311.107 -2.12937 -3.72769 0
M  V30 3322 C 310.34 -1.86508 -5.00051 0
M  V30 3323 O 310.563 -0.807231 -5.64659 0
M  V30 3324 O 309.497 -2.72591 -5.36636 0
M  V30 3325 H 313.323 -2.19126 -2.1028 0
M  V30 3326 H 310.908 -1.12241 -0.986018 0
M  V30 3327 H 312.79 -0.816519 -4.13414 0
M  V30 3328 H 311.465 -0.0258854 -3.2369 0
M  V30 3329 H 310.372 -2.3231 -2.93228 0
M  V30 3330 H 311.705 -3.04102 -3.87018 0
M  V30 3331 N 313.357 1.07166 -1.15556 0
M  V30 3332 C 314.582 1.84053 -0.955988 0
M  V30 3333 C 315.007 1.81586 0.490739 0
M  V30 3334 O 314.365 1.21018 1.34997 0
M  V30 3335 C 314.413 3.28957 -1.47714 0
M  V30 3336 O 313.517 4.06795 -0.677593 0
M  V30 3337 H 312.858 0.569842 -0.340847 0
M  V30 3338 H 315.388 1.35178 -1.53584 0
M  V30 3339 H 315.398 3.79788 -1.4908 0
M  V30 3340 H 314.073 3.30068 -2.53037 0
M  V30 3341 H 312.65 3.6561 -0.733721 0
M  V30 3342 N 314.835 0.952656 1.25548 0
M  V30 3343 C 315.765 0.489287 2.28316 0
M  V30 3344 C 316.746 -0.463359 1.63667 0
M  V30 3345 O 317.931 -0.36274 1.90782 0
M  V30 3346 C 315.061 -0.235603 3.465 0
M  V30 3347 C 314.015 0.631593 4.23314 0
M  V30 3348 C 313.341 -0.223923 5.34231 0
M  V30 3349 C 314.641 1.90871 4.86174 0
M  V30 3350 H 316.335 1.34822 2.67326 0
M  V30 3351 H 313.881 0.649728 1.28509 0
M  V30 3352 H 315.834 -0.570882 4.17515 0
M  V30 3353 H 314.558 -1.12877 3.06474 0
M  V30 3354 H 313.217 0.949929 3.54079 0
M  V30 3355 H 312.865 -1.11678 4.90446 0
M  V30 3356 H 312.565 0.35299 5.86539 0
M  V30 3357 H 314.089 -0.554214 6.0808 0
M  V30 3358 H 315.503 1.63997 5.49343 0
M  V30 3359 H 313.9 2.43112 5.4865 0
M  V30 3360 H 314.97 2.61304 4.08471 0
M  V30 3361 N 316.313 -1.40141 0.720998 0
M  V30 3362 C 317.223 -2.34486 0.0731031 0
M  V30 3363 C 318.239 -1.57587 -0.737723 0
M  V30 3364 O 319.415 -1.89949 -0.669429 0
M  V30 3365 C 316.48 -3.36528 -0.833656 0
M  V30 3366 C 315.541 -4.29298 -0.0121673 0
M  V30 3367 C 314.774 -5.26466 -0.875742 0
M  V30 3368 O 314.997 -5.29745 -2.11485 0
M  V30 3369 O 313.931 -6.01092 -0.31185 0
M  V30 3370 H 317.757 -2.9152 0.851444 0
M  V30 3371 H 315.342 -1.41427 0.481527 0
M  V30 3372 H 317.224 -3.99093 -1.35289 0
M  V30 3373 H 315.899 -2.81899 -1.59105 0
M  V30 3374 H 314.806 -3.70001 0.552262 0
M  V30 3375 H 316.139 -4.87094 0.707129 0
M  V30 3376 N 317.792 -0.46758 -1.50504 0
M  V30 3377 C 318.702 0.33382 -2.32213 0
M  V30 3378 C 319.718 0.999323 -1.42441 0
M  V30 3379 O 320.894 0.988068 -1.75497 0
M  V30 3380 C 317.959 1.4035 -3.17022 0
M  V30 3381 C 317.02 0.754961 -4.2261 0
M  V30 3382 C 316.253 1.77367 -5.03365 0
M  V30 3383 O 316.476 2.99976 -4.8515 0
M  V30 3384 O 315.41 1.34744 -5.86624 0
M  V30 3385 H 319.236 -0.334067 -3.01857 0
M  V30 3386 H 316.821 -0.229496 -1.47627 0
M  V30 3387 H 318.703 2.02318 -3.69656 0
M  V30 3388 H 317.378 2.05492 -2.5011 0
M  V30 3389 H 316.285 0.0964244 -3.73976 0
M  V30 3390 H 317.618 0.146545 -4.91982 0
M  V30 3391 N 319.27 1.56325 -0.20005 0
M  V30 3392 C 320.518 1.97329 0.436547 0
M  V30 3393 C 320.839 1.08826 1.61808 0
M  V30 3394 O 320.109 0.160604 1.95241 0
M  V30 3395 H 318.689 0.728714 0.164272 0
M  V30 3396 H 321.351 1.92761 -0.287937 0
M  V30 3397 H 320.447 3.02264 0.777353 0
M  V30 3398 N 320.748 -0.0735177 1.57428 0
M  V30 3399 C 321.658 -1.10547 2.06922 0
M  V30 3400 C 322.674 -1.42506 0.998402 0
M  V30 3401 O 323.85 -1.52717 1.31299 0
M  V30 3402 C 320.915 -2.40019 2.50184 0
M  V30 3403 C 319.976 -2.15046 3.71556 0
M  V30 3404 C 319.209 -3.38345 4.12745 0
M  V30 3405 O 319.432 -4.47399 3.53822 0
M  V30 3406 O 318.366 -3.2666 5.05546 0
M  V30 3407 H 322.192 -0.715013 2.95163 0
M  V30 3408 H 319.777 -0.287531 1.46607 0
M  V30 3409 H 321.659 -3.16218 2.78539 0
M  V30 3410 H 320.334 -2.78447 1.65072 0
M  V30 3411 H 319.241 -1.36558 3.48285 0
M  V30 3412 H 320.574 -1.81499 4.57514 0
M  V30 3413 N 322.226 -1.5378 -0.344866 0
M  V30 3414 C 323.456 -1.74646 -1.10374 0
M  V30 3415 C 323.864 -0.48491 -1.8288 0
M  V30 3416 O 323.207 0.553062 -1.75177 0
M  V30 3417 C 323.269 -2.87145 -2.16306 0
M  V30 3418 C 322.933 -4.26795 -1.63386 0
M  V30 3419 C 323.93 -5.08412 -1.08688 0
M  V30 3420 C 321.615 -4.73276 -1.68272 0
M  V30 3421 C 323.609 -6.34609 -0.595792 0
M  V30 3422 C 321.296 -5.99446 -1.18776 0
M  V30 3423 C 322.294 -6.79946 -0.645215 0
M  V30 3424 O 321.982 -8.03745 -0.157626 0
M  V30 3425 H 321.714 -0.587112 -0.335075 0
M  V30 3426 H 324.268 -2.01403 -0.403252 0
M  V30 3427 H 322.498 -2.55909 -2.89909 0
M  V30 3428 H 324.187 -2.95992 -2.77747 0
M  V30 3429 H 324.953 -4.73666 -1.04236 0
M  V30 3430 H 320.832 -4.10677 -2.09442 0
M  V30 3431 H 324.376 -6.97389 -0.171654 0
M  V30 3432 H 320.273 -6.33687 -1.22928 0
M  V30 3433 H 321.041 -8.18038 -0.275037 0
M  V30 3434 N 323.704 0.605807 -1.45491 0
M  V30 3435 C 325.12 0.926751 -1.29936 0
M  V30 3436 C 325.32 1.99896 -0.253706 0
M  V30 3437 O 324.376 2.50038 0.351737 0
M  V30 3438 C 325.689 1.36599 -2.67883 0
M  V30 3439 C 327.237 1.4801 -2.75793 0
M  V30 3440 C 327.712 1.95309 -4.14268 0
M  V30 3441 N 329.203 2.0254 -4.16571 0
M  V30 3442 C 329.938 2.40363 -5.20589 0
M  V30 3443 N 329.434 2.77143 -6.34952 0
M  V30 3444 N 331.227 2.40718 -5.07948 0
M  V30 3445 H 323.378 -0.102862 -2.12151 0
M  V30 3446 H 325.641 0.016639 -0.947854 0
M  V30 3447 H 325.347 0.652306 -3.45598 0
M  V30 3448 H 325.221 2.33215 -2.96463 0
M  V30 3449 H 327.608 2.1847 -1.98381 0
M  V30 3450 H 327.689 0.497041 -2.50925 0
M  V30 3451 H 327.333 1.25436 -4.92167 0
M  V30 3452 H 327.263 2.94532 -4.3653 0
M  V30 3453 H 329.754 1.76699 -3.34045 0
M  V30 3454 H 330.067 3.0489 -7.10114 0
M  V30 3455 H 328.412 2.74834 -6.3835 0
M  V30 3456 H 331.603 2.11392 -4.1765 0
M  V30 3457 H 331.776 2.69869 -5.89131 0
M  V30 3458 N 325.182 1.32811 0.848464 0
M  V30 3459 C 326.593 1.21315 1.41914 0
M  V30 3460 C 326.944 -0.171847 1.95446 0
M  V30 3461 O 326.069 -1.07093 1.88043 0
M  V30 3462 C 326.664 2.19631 2.57968 0
M  V30 3463 C 325.223 2.12003 3.11017 0
M  V30 3464 C 324.37 2.07651 1.83783 0
M  V30 3465 H 327.321 1.44549 0.655071 0
M  V30 3466 H 327.342 1.79845 3.35315 0
M  V30 3467 H 326.854 3.20423 2.18976 0
M  V30 3468 H 324.955 1.14481 3.54577 0
M  V30 3469 H 325.068 3.02111 3.71841 0
M  V30 3470 H 323.432 1.52983 2.03638 0
M  V30 3471 H 324.215 3.10235 1.47 0
M  V30 3472 N 326.66 -1.06551 1.16123 0
M  V30 3473 C 327.59 -2.15935 0.88851 0
M  V30 3474 C 328.571 -1.69306 -0.164135 0
M  V30 3475 O 329.756 -1.94193 -0.0167857 0
M  V30 3476 C 326.886 -3.45149 0.385942 0
M  V30 3477 C 325.84 -4.05271 1.3762 0
M  V30 3478 C 325.166 -5.29664 0.732137 0
M  V30 3479 C 326.466 -4.44355 2.74493 0
M  V30 3480 H 328.16 -2.39006 1.80323 0
M  V30 3481 H 325.706 -1.14866 0.868435 0
M  V30 3482 H 327.659 -4.21004 0.182647 0
M  V30 3483 H 326.383 -3.21689 -0.564274 0
M  V30 3484 H 325.042 -3.3147 1.56599 0
M  V30 3485 H 324.69 -5.02499 -0.224483 0
M  V30 3486 H 324.39 -5.70848 1.39307 0
M  V30 3487 H 325.914 -6.08218 0.538802 0
M  V30 3488 H 327.328 -5.11303 2.59311 0
M  V30 3489 H 325.725 -4.96515 3.37035 0
M  V30 3490 H 326.795 -3.55339 3.29943 0
M  V30 3491 N 328.138 -0.959301 -1.25041 0
M  V30 3492 C 329.366 -0.633949 -1.96948 0
M  V30 3493 C 329.781 0.794916 -1.7125 0
M  V30 3494 O 329.138 1.53231 -0.991287 0
M  V30 3495 C 329.189 -0.888805 -3.50403 0
M  V30 3496 O 328.91 -2.26149 -3.75218 0
M  V30 3497 C 330.411 -0.576482 -4.39536 0
M  V30 3498 H 327.631 -0.237263 -0.627652 0
M  V30 3499 H 330.175 -1.28495 -1.59089 0
M  V30 3500 H 328.33 -0.284145 -3.86357 0
M  V30 3501 H 328.744 -2.33514 -4.6965 0
M  V30 3502 H 330.218 -0.805314 -5.46094 0
M  V30 3503 H 330.695 0.489075 -4.36468 0
M  V30 3504 H 331.301 -1.16067 -4.09156 0
M  V30 3505 N 329.616 1.39756 -0.72842 0
M  V30 3506 C 330.548 2.29157 -0.0446202 0
M  V30 3507 C 331.561 1.46484 0.710367 0
M  V30 3508 O 332.75 1.69632 0.55562 0
M  V30 3509 C 329.85 3.24987 0.961071 0
M  V30 3510 C 329.023 4.36572 0.268967 0
M  V30 3511 C 328.082 5.12756 1.18184 0
M  V30 3512 O 327.108 5.6534 0.661794 0
M  V30 3513 N 328.31 5.23331 2.51206 0
M  V30 3514 H 331.075 2.88482 -0.812295 0
M  V30 3515 H 328.636 1.51265 -0.577098 0
M  V30 3516 H 330.628 3.72827 1.57423 0
M  V30 3517 H 329.198 2.66739 1.63 0
M  V30 3518 H 328.418 3.90694 -0.524574 0
M  V30 3519 H 329.706 5.08363 -0.210934 0
M  V30 3520 H 329.104 4.82116 2.9594 0
M  V30 3521 H 327.661 5.74634 3.07634 0
M  V30 3522 N 331.094 0.475555 1.50254 0
M  V30 3523 C 332.319 -0.0777042 2.07254 0
M  V30 3524 C 332.744 -1.3235 1.3366 0
M  V30 3525 O 332.102 -1.77152 0.385597 0
M  V30 3526 C 332.15 -0.340169 3.58992 0
M  V30 3527 O 331.254 -1.41982 3.87188 0
M  V30 3528 H 330.595 0.0149556 0.663832 0
M  V30 3529 H 333.125 0.667878 1.93392 0
M  V30 3530 H 333.135 -0.579332 4.03866 0
M  V30 3531 H 331.81 0.570167 4.11973 0
M  V30 3532 H 330.387 -1.16762 3.54148 0
M  V30 3533 N 332.573 -1.56217 0.208337 0
M  V30 3534 C 333.483 -2.23316 -0.718836 0
M  V30 3535 C 334.499 -1.23648 -1.22422 0
M  V30 3536 O 335.675 -1.56423 -1.26861 0
M  V30 3537 C 332.74 -2.88968 -1.91568 0
M  V30 3538 C 331.801 -4.03943 -1.45357 0
M  V30 3539 C 331.034 -4.66455 -2.59337 0
M  V30 3540 O 331.257 -4.27919 -3.77149 0
M  V30 3541 O 330.191 -5.55686 -2.31293 0
M  V30 3542 H 334.017 -3.03182 -0.177315 0
M  V30 3543 H 331.602 -1.49384 -0.0215402 0
M  V30 3544 H 333.484 -3.30455 -2.61491 0
M  V30 3545 H 332.159 -2.12071 -2.44556 0
M  V30 3546 H 331.066 -3.67052 -0.722746 0
M  V30 3547 H 332.399 -4.82543 -0.970219 0
M  V30 3548 N 334.051 0.0651679 -1.57465 0
M  V30 3549 C 335.3 0.761916 -1.86756 0
M  V30 3550 C 335.613 1.78406 -0.801925 0
M  V30 3551 O 336.819 2.53084 -0.982885 0
M  V30 3552 C 335.275 1.40603 -3.31299 0
M  V30 3553 C 334.883 0.422115 -4.46007 0
M  V30 3554 C 336.627 2.08476 -3.69781 0
M  V30 3555 C 334.534 1.07252 -5.81593 0
M  V30 3556 H 333.464 0.288308 -0.696702 0
M  V30 3557 H 336.115 0.015344 -1.83494 0
M  V30 3558 H 334.497 2.20109 -3.29193 0
M  V30 3559 H 335.671 -0.343613 -4.59517 0
M  V30 3560 H 333.986 -0.152527 -4.16121 0
M  V30 3561 H 336.583 2.57925 -4.68379 0
M  V30 3562 H 336.926 2.88712 -2.99919 0
M  V30 3563 H 337.459 1.35792 -3.73905 0
M  V30 3564 H 334.198 0.310342 -6.54765 0
M  V30 3565 H 333.718 1.80895 -5.71872 0
M  V30 3566 H 335.397 1.59043 -6.27148 0
M  V30 3567 N 335.529 1.53961 0.336706 0
M  V30 3568 C 336.439 1.85432 1.43708 0
M  V30 3569 C 337.455 0.745053 1.57242 0
M  V30 3570 O 338.631 1.03804 1.72588 0
M  V30 3571 C 335.696 2.06349 2.78605 0
M  V30 3572 C 334.757 3.30191 2.74358 0
M  V30 3573 C 333.99 3.50101 4.02822 0
M  V30 3574 O 334.213 2.7371 5.00439 0
M  V30 3575 O 333.147 4.43547 4.06878 0
M  V30 3576 H 336.973 2.78975 1.20028 0
M  V30 3577 H 334.558 1.39701 0.52952 0
M  V30 3578 H 336.44 2.21513 3.58483 0
M  V30 3579 H 335.115 1.15995 3.02203 0
M  V30 3580 H 334.022 3.20425 1.93078 0
M  V30 3581 H 335.355 4.2056 2.55715 0
M  V30 3582 N 337.007 -0.598083 1.45811 0
M  V30 3583 C 337.954 -1.7082 1.55207 0
M  V30 3584 C 338.924 -1.61278 0.39732 0
M  V30 3585 O 340.109 -1.80717 0.612038 0
M  V30 3586 C 337.249 -3.09144 1.53376 0
M  V30 3587 C 336.362 -3.29423 2.79472 0
M  V30 3588 C 335.497 -4.57907 2.69248 0
M  V30 3589 C 334.536 -4.71476 3.90354 0
M  V30 3590 N 333.673 -5.9127 3.78608 0
M  V30 3591 H 338.513 -1.62125 2.50039 0
M  V30 3592 H 336.05 -0.790389 1.24062 0
M  V30 3593 H 338.008 -3.89186 1.50301 0
M  V30 3594 H 336.638 -3.16773 0.620876 0
M  V30 3595 H 335.69 -2.43091 2.92594 0
M  V30 3596 H 337.002 -3.3532 3.69272 0
M  V30 3597 H 336.156 -5.46157 2.64192 0
M  V30 3598 H 334.895 -4.54423 1.77063 0
M  V30 3599 H 333.9 -3.81648 3.95759 0
M  V30 3600 H 335.125 -4.76751 4.83617 0
M  V30 3601 H 333.071 -5.88813 2.89199 0
M  V30 3602 H 332.988 -5.98369 4.6205 0
M  V30 3603 H 334.256 -6.81992 3.77501 0
M  V30 3604 N 338.485 -1.33259 -0.841409 0
M  V30 3605 C 339.415 -1.25926 -1.96634 0
M  V30 3606 C 340.396 -0.140349 -1.6952 0
M  V30 3607 O 341.581 -0.329707 -1.91381 0
M  V30 3608 C 338.711 -0.99512 -3.32738 0
M  V30 3609 C 337.665 -2.0767 -3.74242 0
M  V30 3610 C 336.991 -1.66474 -5.08125 0
M  V30 3611 C 338.291 -3.49318 -3.88297 0
M  V30 3612 H 339.985 -2.20046 -2.03027 0
M  V30 3613 H 337.531 -1.05931 -0.975425 0
M  V30 3614 H 339.484 -0.930323 -4.11002 0
M  V30 3615 H 338.208 -0.0183004 -3.26595 0
M  V30 3616 H 336.867 -2.13187 -2.98239 0
M  V30 3617 H 336.515 -0.675012 -4.9845 0
M  V30 3618 H 336.215 -2.3885 -5.36865 0
M  V30 3619 H 337.739 -1.61455 -5.88867 0
M  V30 3620 H 339.153 -3.46316 -4.56879 0
M  V30 3621 H 337.55 -4.20158 -4.28471 0
M  V30 3622 H 338.62 -3.8801 -2.9082 0
M  V30 3623 N 339.963 1.05934 -1.16686 0
M  V30 3624 C 341.209 1.79065 -0.95203 0
M  V30 3625 C 341.542 1.87147 0.518629 0
M  V30 3626 O 340.817 1.36574 1.38484 0
M  V30 3627 C 341.1 3.23359 -1.58464 0
M  V30 3628 C 340.953 3.23336 -3.12689 0
M  V30 3629 C 342.272 4.21004 -1.28232 0
M  V30 3630 H 339.391 0.65005 -0.34728 0
M  V30 3631 H 342.033 1.23868 -1.44072 0
M  V30 3632 H 340.183 3.70493 -1.16908 0
M  V30 3633 H 341.855 2.84336 -3.6325 0
M  V30 3634 H 340.098 2.61886 -3.4583 0
M  V30 3635 H 340.769 4.25144 -3.52075 0
M  V30 3636 H 343.245 3.8233 -1.64203 0
M  V30 3637 H 342.121 5.20225 -1.75092 0
M  V30 3638 H 342.382 4.41639 -0.201791 0
M  V30 3639 N 341.441 0.965919 1.2453 0
M  V30 3640 C 342.388 0.49402 2.25451 0
M  V30 3641 C 343.358 -0.45948 1.59618 0
M  V30 3642 O 344.543 -0.370238 1.87173 0
M  V30 3643 C 341.683 -0.211359 3.44452 0
M  V30 3644 C 340.796 0.7807 4.24887 0
M  V30 3645 C 339.931 0.0516105 5.31175 0
M  V30 3646 C 338.97 1.03385 6.03306 0
M  V30 3647 N 338.107 0.334887 7.01301 0
M  V30 3648 H 342.947 1.35946 2.65184 0
M  V30 3649 H 340.484 0.681515 1.3036 0
M  V30 3650 H 342.442 -0.637 4.12308 0
M  V30 3651 H 341.072 -1.04077 3.05562 0
M  V30 3652 H 340.124 1.32479 3.56586 0
M  V30 3653 H 341.436 1.52978 4.74762 0
M  V30 3654 H 340.59 -0.432114 6.05159 0
M  V30 3655 H 339.329 -0.730179 4.82203 0
M  V30 3656 H 338.334 1.52847 5.28127 0
M  V30 3657 H 339.559 1.81606 6.54367 0
M  V30 3658 H 337.505 -0.427959 6.54603 0
M  V30 3659 H 337.422 1.02287 7.49048 0
M  V30 3660 H 338.69 -0.126928 7.79397 0
M  V30 3661 O 342.958 -1.35835 0.873561 0
M  V30 3662 H 343.649 -1.87797 0.474551 0
M  V30 END ATOM
M  V30 BEGIN BOND
M  V30 END BOND
M  V30 END CTAB
M  END
$$$$
