drugbank_target|P45314 3-deoxy-D-manno-octulosonate 8-phosphate phosphatase KdsC (DB03814)
 OpenBabel12092120283D

  0  0  0     0  0            999 V3000
M  V30 BEGIN CTAB
M  V30 COUNTS 2732 2751 0 0 0
M  V30 BEGIN ATOM
M  V30 1 H -0.908 1.98254 -0.117106 0
M  V30 2 N 0 1.576 0 0
M  V30 3 C 0.933 2.03868 1.02534 0
M  V30 4 C 1.911 0.928543 1.3348 0
M  V30 5 O 3.095 1.19667 1.45644 0
M  V30 6 C 0.222 2.43627 2.35294 0
M  V30 7 C -0.732 3.65373 2.2001 0
M  V30 8 S 0.101 5.13292 1.52614 0
M  V30 9 C 1.257 5.56322 2.86805 0
M  V30 10 H 1.49 2.90518 0.631377 0
M  V30 11 H -0.977 1.52953 0.210867 0
M  V30 12 H 0.981 2.67203 3.11629 0
M  V30 13 H -0.358 1.57376 2.7183 0
M  V30 14 H -1.165 3.90944 3.18086 0
M  V30 15 H -1.563 3.418 1.51819 0
M  V30 16 H 0.729 5.58782 3.83104 0
M  V30 17 H 1.672 6.56266 2.65933 0
M  V30 18 H 2.08 4.83886 2.90714 0
M  V30 19 N 1.4781 -0.272755 1.55222 0
M  V30 20 C 2.4101 -1.35946 1.8453 0
M  V30 21 C 3.4231 -1.45525 0.729818 0
M  V30 22 O 4.6121 -1.47337 1.00767 0
M  V30 23 C 1.7121 -2.74069 1.99347 0
M  V30 24 C 0.8851 -2.87079 3.30007 0
M  V30 25 C -0.0559 -4.05879 3.34886 0
M  V30 26 O -1.0299 -3.96626 4.08261 0
M  V30 27 N 0.1721 -5.17857 2.62307 0
M  V30 28 H 2.9371 -1.11149 2.78327 0
M  V30 29 H 0.4981 -0.462869 1.55142 0
M  V30 30 H 2.4901 -3.51838 1.99981 0
M  V30 31 H 1.0601 -2.91688 1.12415 0
M  V30 32 H 0.2801 -1.96193 3.41909 0
M  V30 33 H 1.5681 -2.92701 4.16177 0
M  V30 34 H 0.9661 -5.28261 2.02377 0
M  V30 35 H -0.4769 -5.93855 2.68663 0
M  V30 36 N 2.9562 -1.48159 -0.537278 0
M  V30 37 C 3.8882 -1.58218 -1.65831 0
M  V30 38 C 4.9012 -0.466948 -1.5596 0
M  V30 39 O 6.0902 -0.73747 -1.62553 0
M  V30 40 C 3.1902 -1.48906 -3.04434 0
M  V30 41 C 2.3632 -2.75343 -3.3986 0
M  V30 42 C 1.4222 -2.59588 -4.57712 0
M  V30 43 O 0.4482 -3.33457 -4.61297 0
M  V30 44 N 1.6502 -1.68724 -5.55439 0
M  V30 45 H 4.4152 -2.54891 -1.57641 0
M  V30 46 H 1.9762 -1.4479 -0.724386 0
M  V30 47 H 3.9682 -1.36072 -3.81139 0
M  V30 48 H 2.5382 -0.602368 -3.06741 0
M  V30 49 H 1.7582 -3.02795 -2.52406 0
M  V30 50 H 3.0462 -3.5924 -3.60311 0
M  V30 51 H 2.4442 -1.07898 -5.55315 0
M  V30 52 H 1.0012 -1.61832 -6.3139 0
M  V30 53 N 4.4343 0.785586 -1.36625 0
M  V30 54 C 5.3813 1.89838 -1.31264 0
M  V30 55 C 6.3513 1.65115 -0.180633 0
M  V30 56 O 7.5363 1.87222 -0.36777 0
M  V30 57 C 4.6763 3.26706 -1.11163 0
M  V30 58 C 3.7893 3.63476 -2.33472 0
M  V30 59 C 2.9243 4.89481 -2.06353 0
M  V30 60 C 1.9633 5.18941 -3.24602 0
M  V30 61 N 1.1003 6.36131 -2.97123 0
M  V30 62 H 5.9403 1.93756 -2.26413 0
M  V30 63 H 3.4773 0.947454 -1.12524 0
M  V30 64 H 5.4353 4.05639 -0.975337 0
M  V30 65 H 4.0653 3.222 -0.196674 0
M  V30 66 H 3.1173 2.79636 -2.57891 0
M  V30 67 H 4.4293 3.81193 -3.21704 0
M  V30 68 H 3.5833 5.76288 -1.89675 0
M  V30 69 H 2.3223 4.73841 -1.15437 0
M  V30 70 H 1.3273 4.30615 -3.41834 0
M  V30 71 H 2.5523 5.36498 -4.16349 0
M  V30 72 H 0.4983 6.21875 -2.08823 0
M  V30 73 H 0.4153 6.54198 -3.78894 0
M  V30 74 H 1.6833 7.2591 -2.84033 0
M  V30 75 N 5.9124 1.20967 1.01018 0
M  V30 76 C 6.8424 0.988272 2.11555 0
M  V30 77 C 7.8234 -0.0849778 1.69888 0
M  V30 78 O 9.0084 0.0738202 1.9406 0
M  V30 79 C 6.1384 0.546528 3.42973 0
M  V30 80 C 5.0924 1.56375 3.9841 0
M  V30 81 C 4.4184 0.97842 5.25672 0
M  V30 82 C 5.7184 2.94922 4.31066 0
M  V30 83 H 7.4124 1.91276 2.30334 0
M  V30 84 H 4.9584 0.921073 1.1069 0
M  V30 85 H 6.9114 0.378839 4.19694 0
M  V30 86 H 5.6354 -0.413598 3.23971 0
M  V30 87 H 4.2944 1.71891 3.23804 0
M  V30 88 H 3.9424 0.0101688 5.02999 0
M  V30 89 H 3.6424 1.65784 5.63728 0
M  V30 90 H 5.1664 0.821939 6.05043 0
M  V30 91 H 6.5804 2.8288 4.9865 0
M  V30 92 H 4.9774 3.5983 4.80253 0
M  V30 93 H 6.0474 3.4616 3.39561 0
M  V30 94 N 7.3905 -1.2043 1.01659 0
M  V30 95 C 8.3005 -2.2689 0.596484 0
M  V30 96 C 9.3165 -1.70107 -0.36599 0
M  V30 97 O 10.4925 -2.00117 -0.226942 0
M  V30 98 C 7.5575 -3.4665 -0.0586659 0
M  V30 99 C 6.6185 -4.18662 0.949751 0
M  V30 100 C 5.8515 -5.32705 0.32577 0
M  V30 101 O 6.0745 -5.63656 -0.874509 0
M  V30 102 O 5.0085 -5.92803 1.04249 0
M  V30 103 H 8.8345 -2.65041 1.4828 0
M  V30 104 H 6.4195 -1.27048 0.786082 0
M  V30 105 H 8.3015 -4.19256 -0.424564 0
M  V30 106 H 6.9765 -3.10375 -0.91918 0
M  V30 107 H 5.8835 -3.48229 1.36702 0
M  V30 108 H 7.2165 -4.58878 1.78023 0
M  V30 109 N 8.8686 -0.792821 -1.36206 0
M  V30 110 C 9.8166 -0.181555 -2.3189 0
M  V30 111 C 10.8106 0.661025 -1.55971 0
M  V30 112 O 12.0166 0.555728 -1.71206 0
M  V30 113 H 8.3916 -0.0399382 -0.750939 0
M  V30 114 H 10.3626 -1.00394 -2.81005 0
M  V30 115 C 9.1116 0.666444 -3.41253 0
M  V30 116 H 8.4346 0.0274489 -3.99791 0
M  V30 117 H 9.8746 1.06076 -4.10517 0
M  V30 118 C 8.3336 1.82614 -2.83114 0
M  V30 119 O 8.8636 2.9229 -2.75553 0
M  V30 120 N 7.0696 1.63333 -2.40356 0
M  V30 121 H 6.6166 0.741217 -2.46706 0
M  V30 122 H 6.5746 2.41087 -2.01803 0
M  V30 123 N 10.3467 1.47872 -0.545128 0
M  V30 124 C 11.5957 2.01695 -0.0145033 0
M  V30 125 C 11.9087 1.42609 1.33873 0
M  V30 126 O 13.1147 1.88021 1.95858 0
M  V30 127 C 11.5707 3.59892 0.0245068 0
M  V30 128 C 11.1787 4.27966 -1.32475 0
M  V30 129 C 12.9227 4.21507 0.50316 0
M  V30 130 C 10.8297 5.78136 -1.2455 0
M  V30 131 H 9.7597 0.753998 -0.00165172 0
M  V30 132 H 12.4107 1.69985 -0.691175 0
M  V30 133 H 10.7927 3.88509 0.766575 0
M  V30 134 H 11.9667 4.11003 -2.08357 0
M  V30 135 H 10.2817 3.78286 -1.74036 0
M  V30 136 H 12.8787 5.31538 0.580656 0
M  V30 137 H 13.2217 3.87855 1.51243 0
M  V30 138 H 13.7547 3.97376 -0.183681 0
M  V30 139 H 10.4937 6.16388 -2.23039 0
M  V30 140 H 10.0137 5.97469 -0.528282 0
M  V30 141 H 11.6927 6.40099 -0.942488 0
M  V30 142 N 11.8248 0.280983 1.55075 0
M  V30 143 C 12.7718 -0.603937 2.22758 0
M  V30 144 C 13.7418 -1.1452 1.20309 0
M  V30 145 O 14.9268 -1.19343 1.48869 0
M  V30 146 C 12.0668 -1.77947 2.95684 0
M  V30 147 C 11.1798 -1.2715 4.12864 0
M  V30 148 C 10.3148 -2.4093 4.7342 0
M  V30 149 C 9.3538 -1.87165 5.82783 0
M  V30 150 N 8.4908 -2.94441 6.37377 0
M  V30 151 H 13.3308 -0.020124 2.97993 0
M  V30 152 H 10.8678 0.00183425 1.471 0
M  V30 153 H 12.8258 -2.47055 3.36184 0
M  V30 154 H 11.4558 -2.33522 2.22861 0
M  V30 155 H 10.5078 -0.473331 3.77444 0
M  V30 156 H 11.8198 -0.837751 4.91715 0
M  V30 157 H 10.9738 -3.18021 5.1667 0
M  V30 158 H 9.7128 -2.87623 3.93859 0
M  V30 159 H 8.7178 -1.08556 5.38976 0
M  V30 160 H 9.9428 -1.41401 6.64216 0
M  V30 161 H 7.8888 -3.40505 5.60707 0
M  V30 162 H 7.8058 -2.55501 7.11516 0
M  V30 163 H 9.0738 -3.71489 6.85285 0
M  V30 164 N 13.3029 -1.57598 0.00835791 0
M  V30 165 C 14.5499 -1.90928 -0.674732 0
M  V30 166 C 14.8779 -0.88277 -1.73313 0
M  V30 167 O 14.1329 0.111294 -1.95383 0
M  V30 168 C 14.4319 -3.3101 -1.34787 0
M  V30 169 C 14.0979 -4.48922 -0.421861 0
M  V30 170 C 12.7599 -4.8091 -0.166927 0
M  V30 171 C 15.1119 -5.20755 0.215211 0
M  V30 172 C 12.4399 -5.821 0.733232 0
M  V30 173 C 14.7919 -6.22905 1.1033 0
M  V30 174 C 13.4559 -6.53346 1.36733 0
M  V30 175 H 12.7259 -0.698656 -0.246902 0
M  V30 176 H 15.3729 -1.91387 0.0656779 0
M  V30 177 H 13.6779 -3.26714 -2.16253 0
M  V30 178 H 15.3749 -3.54061 -1.8826 0
M  V30 179 H 11.9649 -4.23934 -0.630729 0
M  V30 180 H 16.1489 -4.9629 0.0312829 0
M  V30 181 H 11.4049 -6.04042 0.945712 0
M  V30 182 H 15.5789 -6.77694 1.60325 0
M  V30 183 H 13.2059 -7.31573 2.06652 0
M  V30 184 N 14.781 0.264519 -1.55364 0
M  V30 185 C 16.027 0.99646 -1.76631 0
M  V30 186 C 16.36 1.85632 -0.570478 0
M  V30 187 O 15.635 1.89647 0.43175 0
M  V30 188 C 15.918 1.87187 -3.07625 0
M  V30 189 C 15.771 1.04138 -4.37579 0
M  V30 190 C 17.09 2.85749 -3.34717 0
M  V30 191 H 14.209 0.360841 -0.642622 0
M  V30 192 H 16.851 0.268218 -1.88097 0
M  V30 193 H 15.001 2.49279 -2.9798 0
M  V30 194 H 16.673 0.440517 -4.59192 0
M  V30 195 H 14.916 0.345115 -4.32425 0
M  V30 196 H 15.587 1.68729 -5.2558 0
M  V30 197 H 18.063 2.33793 -3.4421 0
M  V30 198 H 16.939 3.44136 -4.27623 0
M  V30 199 H 17.2 3.61311 -2.54768 0
M  V30 200 N 16.2591 1.48442 0.529413 0
M  V30 201 C 17.5081 1.55742 1.28169 0
M  V30 202 C 17.8211 0.236511 1.94165 0
M  V30 203 O 19.0271 0.187761 2.7085 0
M  V30 204 C 17.4831 2.74667 2.32564 0
M  V30 205 C 17.0911 4.13402 1.72636 0
M  V30 206 C 18.8351 2.9128 3.08798 0
M  V30 207 C 16.7421 5.23587 2.74975 0
M  V30 208 H 15.6721 0.579796 0.48203 0
M  V30 209 H 18.3231 1.74776 0.559056 0
M  V30 210 H 16.7051 2.49067 3.07866 0
M  V30 211 H 17.8791 4.49022 1.03519 0
M  V30 212 H 16.1941 4.0191 1.08892 0
M  V30 213 H 18.7911 3.70767 3.85274 0
M  V30 214 H 19.1341 2.00757 3.64695 0
M  V30 215 H 19.6671 3.16782 2.40611 0
M  V30 216 H 16.4061 6.16076 2.23897 0
M  V30 217 H 15.9261 4.92454 3.42417 0
M  V30 218 H 17.6051 5.51724 3.37949 0
M  V30 219 N 17.7372 -0.778329 1.37039 0
M  V30 220 C 18.9652 -1.56734 1.35063 0
M  V30 221 C 19.3802 -1.88686 -0.0655597 0
M  V30 222 O 18.7372 -1.5096 -1.02554 0
M  V30 223 C 18.7882 -2.88163 2.18276 0
M  V30 224 O 18.5092 -2.57583 3.54376 0
M  V30 225 C 20.0102 -3.82422 2.24206 0
M  V30 226 H 17.2302 -0.485778 0.462883 0
M  V30 227 H 19.7742 -0.965185 1.8029 0
M  V30 228 H 17.9292 -3.44818 1.76576 0
M  V30 229 H 18.3432 -3.41699 3.97922 0
M  V30 230 H 19.8172 -4.71667 2.86765 0
M  V30 231 H 20.2942 -4.21078 1.24861 0
M  V30 232 H 20.9002 -3.31697 2.6619 0
M  V30 233 N 19.2153 -1.21501 -1.00376 0
M  V30 234 C 20.4923 -0.941745 -1.71437 0
M  V30 235 C 20.8723 0.546114 -2.03914 0
M  V30 236 O 20.2203 1.51128 -1.71384 0
M  V30 237 C 20.4303 -1.82812 -2.97289 0
M  V30 238 C 21.7783 -2.07771 -3.70292 0
M  V30 239 O 22.8023 -1.80171 -3.07273 0
M  V30 240 O 21.6613 -2.54456 -4.83647 0
M  V30 241 H 18.7553 -0.353243 -0.747762 0
M  V30 242 H 21.3013 -1.32436 -1.06108 0
M  V30 243 H 20.0733 -2.83501 -2.69709 0
M  V30 244 H 19.6963 -1.4464 -3.70358 0
M  V30 245 N 20.6934 1.19889 -1.02296 0
M  V30 246 C 21.9394 1.89701 -0.717033 0
M  V30 247 C 22.2724 1.7905 0.751989 0
M  V30 248 O 21.5474 1.17891 1.547 0
M  V30 249 C 21.8304 3.40858 -1.16136 0
M  V30 250 C 21.6834 3.60411 -2.69117 0
M  V30 251 C 23.0024 4.33876 -0.737549 0
M  V30 252 H 20.1214 0.688874 -0.261957 0
M  V30 253 H 22.7634 1.41154 -1.27183 0
M  V30 254 H 20.9134 3.82335 -0.689342 0
M  V30 255 H 22.5854 3.28145 -3.2422 0
M  V30 256 H 20.8284 3.03665 -3.0979 0
M  V30 257 H 21.4994 4.66396 -2.95261 0
M  V30 258 H 23.9754 4.00081 -1.14344 0
M  V30 259 H 22.8514 5.38242 -1.0764 0
M  V30 260 H 23.1124 4.40628 0.360436 0
M  V30 261 N 22.1715 0.800033 1.35784 0
M  V30 262 C 23.4485 0.30088 1.93272 0
M  V30 263 C 23.8285 -1.20857 1.73081 0
M  V30 264 O 23.1765 -2.00502 1.09596 0
M  V30 265 C 23.3865 0.70511 3.41803 0
M  V30 266 C 24.7345 0.690871 4.18942 0
M  V30 267 O 25.7585 0.646244 3.50289 0
M  V30 268 O 24.6175 0.74332 5.41421 0
M  V30 269 H 21.7115 0.0771605 0.823393 0
M  V30 270 H 24.2575 0.88329 1.449 0
M  V30 271 H 23.0295 1.74571 3.50201 0
M  V30 272 H 22.6525 0.0971541 3.97481 0
M  V30 273 N 23.6496 -1.47581 0.552962 0
M  V30 274 C 24.8976 -2.02082 0.0272703 0
M  V30 275 C 25.2186 -1.4301 -1.32563 0
M  V30 276 O 24.4886 -0.603745 -1.86365 0
M  V30 277 H 23.0686 -0.746966 0.00709182 0
M  V30 278 H 25.7306 -1.81033 0.722008 0
M  V30 279 H 24.8266 -3.12034 -0.0639951 0
M  V30 280 N 25.1277 -0.289203 -1.54924 0
M  V30 281 C 26.3737 0.323998 -2.00195 0
M  V30 282 C 26.7067 1.54441 -1.17735 0
M  V30 283 O 25.9817 1.92875 -0.250878 0
M  V30 284 C 26.2647 0.692276 -3.53383 0
M  V30 285 C 26.1177 -0.536457 -4.46589 0
M  V30 286 C 27.4367 1.52335 -4.12895 0
M  V30 287 H 24.5557 0.116289 -0.727768 0
M  V30 288 H 27.1977 -0.398954 -1.85764 0
M  V30 289 H 25.3477 1.30822 -3.65811 0
M  V30 290 H 27.0197 -1.17499 -4.46085 0
M  V30 291 H 25.2627 -1.17192 -4.1767 0
M  V30 292 H 25.9337 -0.234806 -5.515 0
M  V30 293 H 28.4097 1.00302 -4.0383 0
M  V30 294 H 27.2857 1.74982 -5.20262 0
M  V30 295 H 27.5467 2.50886 -3.64018 0
M  V30 296 N 26.6058 1.57591 -0.0167156 0
M  V30 297 C 27.5358 2.12496 0.967858 0
M  V30 298 C 28.5168 1.03807 1.34752 0
M  V30 299 O 29.7018 1.31577 1.42833 0
M  V30 300 C 26.8318 2.64194 2.25431 0
M  V30 301 C 25.7858 3.77559 2.01576 0
M  V30 302 C 25.1118 4.15636 3.36379 0
M  V30 303 C 26.4118 5.04151 1.36489 0
M  V30 304 H 28.1058 2.95013 0.510643 0
M  V30 305 H 25.6518 1.41915 0.244181 0
M  V30 306 H 27.6048 3.01236 2.94678 0
M  V30 307 H 26.3288 1.78821 2.73296 0
M  V30 308 H 24.9878 3.40937 1.34751 0
M  V30 309 H 24.6358 3.27263 3.81979 0
M  V30 310 H 24.3358 4.92022 3.21229 0
M  V30 311 H 25.8598 4.5525 4.06915 0
M  V30 312 H 27.2738 5.38857 1.95718 0
M  V30 313 H 25.6708 5.85453 1.31776 0
M  V30 314 H 26.7408 4.83733 0.336219 0
M  V30 315 N 28.0839 -0.256276 1.55502 0
M  V30 316 C 29.3119 -1.00342 1.8094 0
M  V30 317 C 29.7269 -1.79307 0.59114 0
M  V30 318 O 29.0839 -1.77114 -0.440081 0
M  V30 319 C 29.1349 -1.94875 3.04476 0
M  V30 320 O 28.8559 -1.19107 4.21598 0
M  V30 321 C 30.3569 -2.81266 3.42644 0
M  V30 322 H 27.5769 -0.295685 0.602338 0
M  V30 323 H 30.1209 -0.281998 2.02546 0
M  V30 324 H 28.2759 -2.62457 2.84947 0
M  V30 325 H 28.6899 -1.82969 4.91551 0
M  V30 326 H 30.1639 -3.43362 4.32211 0
M  V30 327 H 30.6409 -3.51897 2.62802 0
M  V30 328 H 31.2469 -2.1915 3.64491 0
M  V30 329 N 29.562 -1.4872 -0.521534 0
M  V30 330 C 30.839 -1.4766 -1.2828 0
M  V30 331 C 31.219 -0.19292 -2.10217 0
M  V30 332 O 30.567 0.825193 -2.13079 0
M  V30 333 C 30.777 -2.74358 -2.15705 0
M  V30 334 C 32.125 -3.23028 -2.75569 0
M  V30 335 O 33.149 -2.75333 -2.25987 0
M  V30 336 O 32.008 -4.0604 -3.65778 0
M  V30 337 H 29.102 -0.590085 -0.579421 0
M  V30 338 H 31.648 -1.60963 -0.537492 0
M  V30 339 H 30.42 -3.59292 -1.54999 0
M  V30 340 H 30.043 -2.63816 -2.97467 0
M  V30 341 N 31.0401 0.771051 -1.3745 0
M  V30 342 C 32.2881 1.52661 -1.32435 0
M  V30 343 C 32.6091 1.9479 0.0905024 0
M  V30 344 O 31.8791 1.66348 1.03466 0
M  V30 345 H 30.4591 0.566218 -0.487244 0
M  V30 346 H 33.1211 0.917636 -1.71946 0
M  V30 347 H 32.2171 2.42568 -1.96385 0
M  V30 348 N 32.5182 1.22032 0.997298 0
M  V30 349 C 33.4502 0.944263 2.08845 0
M  V30 350 C 34.4632 -0.0754663 1.62625 0
M  V30 351 O 35.6522 0.157994 1.77799 0
M  V30 352 C 32.7522 0.397723 3.36558 0
M  V30 353 C 31.9252 1.47362 4.11829 0
M  V30 354 C 30.9842 0.934951 5.17827 0
M  V30 355 O 30.0102 1.62016 5.45655 0
M  V30 356 N 31.2122 -0.245895 5.79979 0
M  V30 357 H 33.9772 1.88363 2.33109 0
M  V30 358 H 31.5382 1.12661 1.16272 0
M  V30 359 H 33.5302 0.0227771 4.04694 0
M  V30 360 H 32.1002 -0.446646 3.09393 0
M  V30 361 H 31.3202 2.02208 3.38386 0
M  V30 362 H 32.6082 2.19764 4.58891 0
M  V30 363 H 32.0062 -0.819475 5.59733 0
M  V30 364 H 30.5632 -0.562272 6.4937 0
M  V30 365 N 33.9963 -1.19345 1.0293 0
M  V30 366 C 34.9263 -2.2481 0.631105 0
M  V30 367 C 35.9073 -1.66245 -0.360104 0
M  V30 368 O 37.0923 -1.92677 -0.242726 0
M  V30 369 C 34.2223 -3.47295 -0.0184607 0
M  V30 370 C 33.1763 -4.18536 0.895073 0
M  V30 371 C 32.5023 -5.34586 0.110592 0
M  V30 372 C 33.8023 -4.73287 2.209 0
M  V30 373 H 35.4963 -2.58372 1.51275 0
M  V30 374 H 33.0423 -1.24194 0.728818 0
M  V30 375 H 34.9953 -4.20268 -0.308675 0
M  V30 376 H 33.7193 -3.12933 -0.934907 0
M  V30 377 H 32.3783 -3.47446 1.16949 0
M  V30 378 H 32.0263 -4.96469 -0.807902 0
M  V30 379 H 31.7263 -5.83183 0.719087 0
M  V30 380 H 33.2503 -6.10355 -0.172871 0
M  V30 381 H 34.6643 -5.38013 1.98028 0
M  V30 382 H 33.0613 -5.32373 2.76946 0
M  V30 383 H 34.1313 -3.91331 2.86336 0
M  V30 384 N 35.4744 -0.807222 -1.35358 0
M  V30 385 C 36.4244 -0.190706 -2.27201 0
M  V30 386 C 37.4084 0.635838 -1.47804 0
M  V30 387 O 38.6004 0.492991 -1.69996 0
M  V30 388 C 35.7294 0.659337 -3.36909 0
M  V30 389 C 34.8154 -0.176971 -4.23731 0
M  V30 390 N 35.2064 -1.24029 -4.90357 0
M  V30 391 C 33.5044 0.0412953 -4.45981 0
M  V30 392 C 34.2054 -1.75092 -5.54723 0
M  V30 393 N 33.1814 -1.05727 -5.33219 0
M  V30 394 H 36.9834 -1.0043 -2.76208 0
M  V30 395 H 34.4974 -0.648445 -1.48892 0
M  V30 396 H 36.4944 1.11706 -4.01656 0
M  V30 397 H 35.1544 1.47127 -2.89454 0
M  V30 398 H 36.1654 -1.62295 -4.91814 0
M  V30 399 H 32.8424 0.82232 -4.09322 0
M  V30 400 H 34.2324 -2.63963 -6.17878 0
M  V30 401 N 36.9525 1.47285 -0.560781 0
M  V30 402 C 38.1825 2.06555 -0.0429638 0
M  V30 403 C 38.5905 1.41339 1.25777 0
M  V30 404 O 37.9335 0.505182 1.76617 0
M  V30 405 C 37.9955 3.58827 0.219887 0
M  V30 406 C 37.6595 4.46105 -0.991944 0
M  V30 407 C 38.6565 4.84 -1.89843 0
M  V30 408 C 36.3415 4.87567 -1.20762 0
M  V30 409 C 38.3355 5.6216 -3.00425 0
M  V30 410 C 36.0225 5.65491 -2.31653 0
M  V30 411 C 37.0205 6.02699 -3.21315 0
M  V30 412 O 36.7085 6.79052 -4.30283 0
M  V30 413 H 36.4405 0.674537 -0.0444468 0
M  V30 414 H 38.9945 1.90225 -0.774818 0
M  V30 415 H 37.2245 3.73383 1.00609 0
M  V30 416 H 38.9135 4.00103 0.683522 0
M  V30 417 H 39.6795 4.52564 -1.74387 0
M  V30 418 H 35.5585 4.5807 -0.518893 0
M  V30 419 H 39.1025 5.9112 -3.70436 0
M  V30 420 H 34.9995 5.9634 -2.47081 0
M  V30 421 H 35.7675 6.9745 -4.28376 0
M  V30 422 N 38.4306 0.297415 1.54768 0
M  V30 423 C 39.7076 -0.365847 1.92148 0
M  V30 424 C 40.0876 -1.71975 1.22424 0
M  V30 425 O 39.4356 -2.25666 0.358739 0
M  V30 426 C 39.6456 -0.484056 3.45627 0
M  V30 427 C 40.9936 -0.756594 4.17805 0
M  V30 428 O 42.0176 -0.568007 3.51642 0
M  V30 429 O 40.8766 -1.11863 5.34929 0
M  V30 430 H 37.9706 -0.203919 0.801465 0
M  V30 431 H 40.5166 0.34521 1.66152 0
M  V30 432 H 39.2886 0.467865 3.88493 0
M  V30 433 H 38.9116 -1.24372 3.77647 0
M  V30 434 N 39.9087 -1.5758 0.0250728 0
M  V30 435 C 40.8717 -2.08896 -0.943139 0
M  V30 436 C 41.8717 -1.00321 -1.25668 0
M  V30 437 O 43.0617 -1.26495 -1.19769 0
M  V30 438 C 40.1937 -2.55143 -2.26086 0
M  V30 439 H 41.3867 -2.95723 -0.498775 0
M  V30 440 H 38.9397 -1.54703 -0.222888 0
M  V30 441 H 39.6747 -1.71633 -2.75159 0
M  V30 442 H 39.4597 -3.34461 -2.04641 0
M  V30 443 H 40.9497 -2.95083 -2.95492 0
M  V30 444 N 41.3868 0.248026 -1.55636 0
M  V30 445 C 42.3348 1.32683 -1.91045 0
M  V30 446 C 43.3288 1.49883 -0.789401 0
M  V30 447 O 44.5348 1.51371 -0.974007 0
M  V30 448 H 40.9098 0.444272 -0.606734 0
M  V30 449 H 42.8808 1.00085 -2.81115 0
M  V30 450 C 41.6298 2.6755 -2.22064 0
M  V30 451 H 40.9528 2.55114 -3.07826 0
M  V30 452 H 42.3928 3.41912 -2.50743 0
M  V30 453 C 40.8518 3.20556 -1.0366 0
M  V30 454 O 41.3818 4.00695 -0.284016 0
M  V30 455 N 39.5878 2.78568 -0.82753 0
M  V30 456 H 39.1348 2.1351 -1.44123 0
M  V30 457 H 39.0928 3.14378 -0.0369803 0
M  V30 458 N 42.8649 1.48995 0.513639 0
M  V30 459 C 44.1129 1.57531 1.26604 0
M  V30 460 C 44.4339 0.258236 1.93283 0
M  V30 461 O 43.7039 -0.721502 1.8213 0
M  V30 462 H 42.2839 0.580387 0.470276 0
M  V30 463 H 44.9459 1.85552 0.596373 0
M  V30 464 H 44.0419 2.36486 2.03669 0
M  V30 465 N 44.343 -0.763751 1.37857 0
M  V30 466 C 45.253 -1.90817 1.36478 0
M  V30 467 C 46.269 -1.71997 0.263248 0
M  V30 468 O 47.445 -1.95095 0.499979 0
M  V30 469 C 44.51 -3.2605 1.17864 0
M  V30 470 C 43.571 -3.57467 2.3773 0
M  V30 471 C 42.804 -4.86249 2.19995 0
M  V30 472 O 43.027 -5.57884 1.18836 0
M  V30 473 O 41.961 -5.16911 3.08361 0
M  V30 474 H 45.787 -1.94933 2.32884 0
M  V30 475 H 43.372 -0.907619 1.1867 0
M  V30 476 H 45.254 -4.06924 1.09504 0
M  V30 477 H 43.929 -3.22769 0.245372 0
M  V30 478 H 42.836 -2.76796 2.51664 0
M  V30 479 H 44.169 -3.655 3.29652 0
M  V30 480 N 45.8211 -1.22559 -0.990812 0
M  V30 481 C 46.7841 -0.998863 -2.0629 0
M  V30 482 C 47.7841 0.0354834 -1.60761 0
M  V30 483 O 48.9741 -0.203231 -1.7301 0
M  V30 484 C 46.1061 -0.509203 -3.37076 0
M  V30 485 H 47.2991 -1.95014 -2.27837 0
M  V30 486 H 44.8521 -1.04456 -1.16269 0
M  V30 487 H 45.5871 0.446335 -3.21214 0
M  V30 488 H 45.3721 -1.25547 -3.71457 0
M  V30 489 H 46.8621 -0.370888 -4.1595 0
M  V30 490 N 47.2992 1.18797 -1.03562 0
M  V30 491 C 48.5482 1.87978 -0.731235 0
M  V30 492 C 48.8612 1.80911 0.743671 0
M  V30 493 O 50.0672 2.45407 1.16137 0
M  V30 494 C 48.5232 3.3721 -1.25768 0
M  V30 495 C 48.1312 3.52818 -2.76085 0
M  V30 496 C 49.8752 4.11825 -1.0296 0
M  V30 497 C 47.7822 4.9598 -3.22114 0
M  V30 498 H 46.7122 0.704063 -0.269835 0
M  V30 499 H 49.3632 1.34266 -1.25079 0
M  V30 500 H 47.7452 3.90359 -0.666011 0
M  V30 501 H 48.9192 3.09965 -3.40966 0
M  V30 502 H 47.2342 2.91602 -2.97249 0
M  V30 503 H 49.8312 5.17411 -1.34869 0
M  V30 504 H 50.1742 4.16287 0.0333546 0
M  V30 505 H 50.7072 3.64833 -1.58562 0
M  V30 506 H 47.4462 4.96684 -4.27768 0
M  V30 507 H 46.9662 5.39569 -2.61965 0
M  V30 508 H 48.6452 5.6467 -3.15844 0
M  V30 509 N 48.7773 0.814389 1.34928 0
M  V30 510 C 49.7243 0.22822 2.29669 0
M  V30 511 C 50.6943 -0.642164 1.53184 0
M  V30 512 O 51.8793 -0.585605 1.81591 0
M  V30 513 C 49.0193 -0.61089 3.3965 0
M  V30 514 C 48.1323 0.280792 4.31086 0
M  V30 515 C 47.2673 -0.567067 5.28165 0
M  V30 516 C 46.3063 0.324531 6.11239 0
M  V30 517 N 45.4433 -0.483756 7.00431 0
M  V30 518 H 50.2833 1.04153 2.79206 0
M  V30 519 H 47.8203 0.525133 1.37407 0
M  V30 520 H 49.7783 -1.11263 4.0209 0
M  V30 521 H 48.4083 -1.38939 2.91369 0
M  V30 522 H 47.4603 0.900688 3.69583 0
M  V30 523 H 48.7723 0.966723 4.89342 0
M  V30 524 H 47.9263 -1.13363 5.96015 0
M  V30 525 H 46.6653 -1.28654 4.70425 0
M  V30 526 H 45.6703 0.903298 5.42329 0
M  V30 527 H 46.8953 1.04198 6.71059 0
M  V30 528 H 44.8413 -1.18706 6.45171 0
M  V30 529 H 44.7583 0.143965 7.55863 0
M  V30 530 H 46.0263 -1.03334 7.7262 0
M  V30 531 N 50.2554 -1.46986 0.568584 0
M  V30 532 C 51.4804 -2.07335 0.0520528 0
M  V30 533 C 51.9054 -1.41675 -1.23733 0
M  V30 534 O 51.2634 -0.495623 -1.74394 0
M  V30 535 C 51.3114 -3.60417 -0.11501 0
M  V30 536 O 50.4154 -3.95309 -1.17492 0
M  V30 537 H 49.7564 -0.661597 0.0564385 0
M  V30 538 H 52.2864 -1.88837 0.787507 0
M  V30 539 H 52.2964 -4.06698 -0.325644 0
M  V30 540 H 50.9714 -4.07601 0.826675 0
M  V30 541 H 49.5484 -3.60757 -0.943869 0
M  V30 542 N 51.7335 -0.305618 -1.54608 0
M  V30 543 C 52.9805 0.302298 -2.00231 0
M  V30 544 C 53.3085 1.5354 -1.19398 0
M  V30 545 O 52.5635 1.93973 -0.259423 0
M  V30 546 C 52.8625 0.698983 -3.50498 0
M  V30 547 C 52.5285 -0.432903 -4.48817 0
M  V30 548 C 51.1905 -0.743622 -4.75419 0
M  V30 549 C 53.5425 -1.19409 -5.07337 0
M  V30 550 C 50.8705 -1.81857 -5.57804 0
M  V30 551 C 53.2225 -2.25899 -5.90891 0
M  V30 552 C 51.8865 -2.57572 -6.15803 0
M  V30 553 H 51.1565 0.110619 -0.732697 0
M  V30 554 H 53.8035 -0.425674 -1.86709 0
M  V30 555 H 52.1085 1.50711 -3.61654 0
M  V30 556 H 53.8055 1.1806 -3.83227 0
M  V30 557 H 50.3955 -0.18063 -4.28219 0
M  V30 558 H 54.5795 -0.967295 -4.86782 0
M  V30 559 H 49.8355 -2.06864 -5.75341 0
M  V30 560 H 54.0095 -2.85335 -6.35261 0
M  V30 561 H 51.6365 -3.40998 -6.7943 0
M  V30 562 N 53.2116 1.57565 -0.0334293 0
M  V30 563 C 54.1616 2.06978 0.956237 0
M  V30 564 C 55.1456 0.971193 1.28283 0
M  V30 565 O 56.3376 1.23471 1.26822 0
M  V30 566 C 53.4666 2.60393 2.23719 0
M  V30 567 C 52.5526 3.7719 1.93877 0
M  V30 568 N 52.9436 4.87639 1.34321 0
M  V30 569 C 51.2416 3.85758 2.23845 0
M  V30 570 C 51.9426 5.68825 1.21709 0
M  V30 571 N 50.9186 5.1587 1.71404 0
M  V30 572 H 54.7206 2.89773 0.490815 0
M  V30 573 H 52.2346 1.61492 0.171478 0
M  V30 574 H 54.2316 2.94088 2.95496 0
M  V30 575 H 52.8916 1.79031 2.70884 0
M  V30 576 H 53.9026 5.07803 1.01767 0
M  V30 577 H 50.5796 3.1531 2.73653 0
M  V30 578 H 51.9696 6.67631 0.75621 0
M  V30 579 N 54.6897 -0.239769 1.55765 0
M  V30 580 C 55.9357 -0.968234 1.78194 0
M  V30 581 C 56.2687 -1.84701 0.599938 0
M  V30 582 O 55.5437 -1.9031 -0.401524 0
M  V30 583 C 55.8267 -1.8227 3.10564 0
M  V30 584 C 55.6797 -0.971633 4.3918 0
M  V30 585 C 56.9987 -2.80388 3.39221 0
M  V30 586 H 54.1177 -0.350572 0.648281 0
M  V30 587 H 56.7597 -0.238259 1.885 0
M  V30 588 H 54.9097 -2.44507 3.01908 0
M  V30 589 H 56.5817 -0.367408 4.59835 0
M  V30 590 H 54.8247 -0.276276 4.32919 0
M  V30 591 H 55.4957 -1.60346 5.28198 0
M  V30 592 H 57.9717 -2.28287 3.47885 0
M  V30 593 H 56.8477 -3.3729 4.33044 0
M  V30 594 H 57.1087 -3.57212 2.60484 0
M  V30 595 N 56.1678 -1.49265 -0.50573 0
M  V30 596 C 57.5838 -1.35923 -0.836486 0
M  V30 597 C 57.7838 -0.388704 -1.97715 0
M  V30 598 O 56.8398 0.181336 -2.51848 0
M  V30 599 C 58.1528 -2.76531 -1.18115 0
M  V30 600 C 59.7008 -2.85197 -1.28964 0
M  V30 601 C 60.1758 -4.26561 -1.66761 0
M  V30 602 N 61.6668 -4.2935 -1.73819 0
M  V30 603 C 62.4018 -5.35693 -2.045 0
M  V30 604 N 61.8978 -6.52287 -2.33438 0
M  V30 605 N 63.6908 -5.23105 -2.05711 0
M  V30 606 H 55.8418 -2.10965 0.246519 0
M  V30 607 H 58.1048 -0.9468 0.0476887 0
M  V30 608 H 57.8108 -3.49226 -0.416398 0
M  V30 609 H 57.6848 -3.11599 -2.1257 0
M  V30 610 H 60.0718 -2.12742 -2.04511 0
M  V30 611 H 60.1528 -2.53718 -0.325704 0
M  V30 612 H 59.7968 -4.99541 -0.917656 0
M  V30 613 H 59.7268 -4.55502 -2.64246 0
M  V30 614 H 62.2178 -3.4526 -1.53635 0
M  V30 615 H 62.5308 -7.29158 -2.56024 0
M  V30 616 H 60.8758 -6.55521 -2.30905 0
M  V30 617 H 64.0668 -4.31026 -1.82577 0
M  V30 618 H 64.2398 -6.06078 -2.29289 0
M  V30 619 N 57.6459 0.756429 -1.3826 0
M  V30 620 C 58.9229 1.50584 -1.24835 0
M  V30 621 C 59.3029 2.10556 0.151485 0
M  V30 622 O 58.6509 1.96825 1.1607 0
M  V30 623 C 58.8609 2.57448 -2.3563 0
M  V30 624 C 60.2089 3.24429 -2.73917 0
M  V30 625 O 61.2329 2.67751 -2.34921 0
M  V30 626 O 60.0919 4.26937 -3.41156 0
M  V30 627 H 57.1859 0.667664 -0.48801 0
M  V30 628 H 59.7319 0.792083 -1.5008 0
M  V30 629 H 58.5039 2.11362 -3.29305 0
M  V30 630 H 58.1269 3.36408 -2.11933 0
M  V30 631 N 59.124 1.23083 0.984299 0
M  V30 632 C 60.372 1.05848 1.72165 0
M  V30 633 C 60.693 -0.406049 1.90726 0
M  V30 634 O 59.963 -1.29139 1.47309 0
M  V30 635 H 58.543 0.388685 0.637913 0
M  V30 636 H 61.205 1.54736 1.18503 0
M  V30 637 H 60.301 1.54327 2.71274 0
M  V30 638 N 60.6021 -1.18246 1.0419 0
M  V30 639 C 61.5321 -2.24127 0.654914 0
M  V30 640 C 62.5131 -1.66617 -0.342451 0
M  V30 641 O 63.6981 -1.92924 -0.222277 0
M  V30 642 C 60.8281 -3.47295 0.0183757 0
M  V30 643 C 59.7821 -4.17563 0.939414 0
M  V30 644 C 59.1081 -5.34438 0.167286 0
M  V30 645 C 60.4081 -4.70917 2.25908 0
M  V30 646 H 62.1021 -2.56753 1.54007 0
M  V30 647 H 59.6481 -1.23414 0.74195 0
M  V30 648 H 61.6011 -4.20572 -0.264082 0
M  V30 649 H 60.3251 -3.13907 -0.901664 0
M  V30 650 H 58.9841 -3.46186 1.20628 0
M  V30 651 H 58.6321 -4.97298 -0.7552 0
M  V30 652 H 58.3321 -5.82388 0.780901 0
M  V30 653 H 59.8561 -6.10504 -0.108125 0
M  V30 654 H 61.2701 -5.35882 2.03724 0
M  V30 655 H 59.6671 -5.29406 2.82577 0
M  V30 656 H 60.7371 -3.88272 2.9047 0
M  V30 657 N 62.0802 -0.821533 -1.34494 0
M  V30 658 C 63.3282 -0.408139 -1.97936 0
M  V30 659 C 63.6492 1.03193 -1.65457 0
M  V30 660 O 62.9192 1.71622 -0.944595 0
M  V30 661 H 61.4992 -0.147928 -0.732206 0
M  V30 662 H 64.1612 -1.05067 -1.64155 0
M  V30 663 H 63.2572 -0.52601 -3.07635 0
M  V30 664 N 63.5583 1.46682 -0.576371 0
M  V30 665 C 64.8073 2.01619 -0.0572825 0
M  V30 666 C 65.1203 1.45417 1.30818 0
M  V30 667 O 66.3263 1.92133 1.91825 0
M  V30 668 C 64.7823 3.59863 -0.0518371 0
M  V30 669 C 64.3903 4.25059 -1.41523 0
M  V30 670 C 66.1343 4.2248 0.413639 0
M  V30 671 C 64.0413 5.75364 -1.36785 0
M  V30 672 H 62.9713 0.753794 -0.0176448 0
M  V30 673 H 65.6223 1.68481 -0.727076 0
M  V30 674 H 64.0043 3.90048 0.683994 0
M  V30 675 H 65.1783 4.06491 -2.17029 0
M  V30 676 H 63.4933 3.7451 -1.8202 0
M  V30 677 H 66.0903 5.3265 0.467779 0
M  V30 678 H 66.4333 3.90976 1.42982 0
M  V30 679 H 66.9663 3.96897 -0.267929 0
M  V30 680 H 63.7053 6.11518 -2.36063 0
M  V30 681 H 63.2253 5.96214 -0.654895 0
M  V30 682 H 64.9043 6.37955 -1.07805 0
M  V30 683 N 65.0364 0.313813 1.54444 0
M  V30 684 C 65.9834 -0.55655 2.23989 0
M  V30 685 C 66.9534 -1.11943 1.22711 0
M  V30 686 O 68.1384 -1.16158 1.51367 0
M  V30 687 C 65.2784 -1.71635 2.99392 0
M  V30 688 C 64.3914 -1.18364 4.15468 0
M  V30 689 C 63.5264 -2.30834 4.78424 0
M  V30 690 C 62.5654 -1.74762 5.86622 0
M  V30 691 N 61.7024 -2.80855 6.43479 0
M  V30 692 H 66.5424 0.0430893 2.97969 0
M  V30 693 H 64.0794 0.0330359 1.47063 0
M  V30 694 H 66.0374 -2.39868 3.41349 0
M  V30 695 H 64.6674 -2.28742 2.27765 0
M  V30 696 H 63.7194 -0.393163 3.78363 0
M  V30 697 H 65.0314 -0.733262 4.93381 0
M  V30 698 H 64.1854 -3.0699 5.23299 0
M  V30 699 H 62.9244 -2.79204 3.99871 0
M  V30 700 H 61.9294 -0.970995 5.41158 0
M  V30 701 H 63.1544 -1.2728 6.67066 0
M  V30 702 H 61.1004 -3.28535 5.67804 0
M  V30 703 H 61.0174 -2.40351 7.16776 0
M  V30 704 H 62.2854 -3.5687 6.93011 0
M  V30 705 N 66.5145 -1.57545 0.0417849 0
M  V30 706 C 67.4475 -2.06514 -0.970928 0
M  V30 707 C 68.4255 -0.963607 -1.30971 0
M  V30 708 O 69.6095 -1.23486 -1.4242 0
M  V30 709 C 66.7365 -2.4978 -2.28752 0
M  V30 710 C 65.7825 -3.71078 -2.10246 0
M  V30 711 S 66.6155 -5.17158 -1.38952 0
M  V30 712 C 67.7715 -5.6373 -2.71954 0
M  V30 713 H 68.0045 -2.9209 -0.554129 0
M  V30 714 H 65.5375 -1.53459 -0.17024 0
M  V30 715 H 67.4955 -2.75371 -3.04435 0
M  V30 716 H 66.1565 -1.64527 -2.67562 0
M  V30 717 H 65.3495 -3.9924 -3.07609 0
M  V30 718 H 64.9515 -3.45705 -1.42704 0
M  V30 719 H 67.2435 -5.68743 -3.68154 0
M  V30 720 H 68.1865 -6.63086 -2.4844 0
M  V30 721 H 68.5945 -4.91424 -2.77782 0
M  V30 722 N 67.9926 0.231505 -1.5589 0
M  V30 723 C 68.9226 1.29022 -1.94617 0
M  V30 724 C 69.9036 1.4941 -0.813067 0
M  V30 725 O 71.0886 1.6176 -1.07459 0
M  V30 726 C 68.2186 2.64199 -2.25424 0
M  V30 727 C 67.1726 2.58484 -3.41131 0
M  V30 728 C 66.4986 3.97599 -3.57518 0
M  V30 729 C 67.7986 2.1413 -4.76388 0
M  V30 730 H 69.4926 0.968563 -2.83301 0
M  V30 731 H 67.0386 0.464479 -1.36303 0
M  V30 732 H 68.9916 3.38413 -2.51107 0
M  V30 733 H 67.7156 2.98032 -1.33583 0
M  V30 734 H 66.3746 1.86727 -3.15481 0
M  V30 735 H 66.0226 4.28723 -2.6307 0
M  V30 736 H 65.7226 3.94659 -4.35337 0
M  V30 737 H 67.2466 4.7349 -3.85538 0
M  V30 738 H 68.6606 2.78083 -5.01341 0
M  V30 739 H 67.0576 2.2227 -5.57419 0
M  V30 740 H 68.1276 1.09331 -4.72414 0
M  V30 741 N 69.4707 1.49531 0.497807 0
M  V30 742 C 70.4037 1.61043 1.6168 0
M  V30 743 C 71.3817 0.459386 1.55976 0
M  V30 744 O 72.5657 0.675358 1.75986 0
M  V30 745 C 69.6927 1.56833 3.00202 0
M  V30 746 C 68.7387 2.77173 3.24156 0
M  V30 747 S 69.5717 4.38808 3.06933 0
M  V30 748 C 70.7277 4.37248 4.47845 0
M  V30 749 H 70.9607 2.55702 1.51671 0
M  V30 750 H 68.4937 1.38462 0.683201 0
M  V30 751 H 70.4517 1.55089 3.80076 0
M  V30 752 H 69.1127 0.634561 3.07623 0
M  V30 753 H 68.3057 2.70456 4.25288 0
M  V30 754 H 67.9077 2.76346 2.5201 0
M  V30 755 H 70.1997 4.09164 5.39992 0
M  V30 756 H 71.1427 5.38668 4.59612 0
M  V30 757 H 71.5507 3.67286 4.28674 0
M  V30 758 N 70.9488 -0.749086 1.3866 0
M  V30 759 C 72.2258 -1.4992 1.25632 0
M  V30 760 C 72.6058 -2.10633 -0.140317 0
M  V30 761 O 71.9538 -1.97437 -1.15025 0
M  V30 762 C 72.1638 -2.56195 2.36992 0
M  V30 763 C 73.5118 -3.22972 2.75634 0
M  V30 764 O 74.5358 -2.66502 2.36337 0
M  V30 765 O 73.3948 -4.25122 3.43415 0
M  V30 766 H 70.4888 -0.665067 0.491544 0
M  V30 767 H 73.0348 -0.784113 1.50498 0
M  V30 768 H 71.8068 -2.09612 3.30422 0
M  V30 769 H 71.4298 -3.35279 2.13714 0
M  V30 770 N 72.4269 -1.23603 -0.977757 0
M  V30 771 C 73.3899 -1.02069 -2.05218 0
M  V30 772 C 74.3899 0.0184305 -1.60789 0
M  V30 773 O 75.5799 -0.221569 -1.72785 0
M  V30 774 C 72.7119 -0.544926 -3.36517 0
M  V30 775 H 73.9049 -1.9742 -2.25755 0
M  V30 776 H 71.4579 -1.05684 -1.15155 0
M  V30 777 H 72.1929 0.412241 -3.21669 0
M  V30 778 H 71.9779 -1.2948 -3.70105 0
M  V30 779 H 73.4679 -0.414985 -4.15533 0
M  V30 780 N 73.905 1.17692 -1.04816 0
M  V30 781 C 75.182 1.83768 -0.669963 0
M  V30 782 C 75.562 1.93232 0.849986 0
M  V30 783 O 74.91 1.46397 1.75443 0
M  V30 784 C 75.12 3.21641 -1.35455 0
M  V30 785 C 76.468 3.97592 -1.49017 0
M  V30 786 O 77.492 3.31107 -1.31326 0
M  V30 787 O 76.351 5.16729 -1.77914 0
M  V30 788 H 73.445 0.792799 -0.235368 0
M  V30 789 H 75.991 1.25021 -1.14751 0
M  V30 790 H 74.763 3.097 -2.39168 0
M  V30 791 H 74.386 3.88052 -0.866107 0
M  V30 792 N 75.3831 0.828654 1.34056 0
M  V30 793 C 76.6321 0.415828 1.97367 0
M  V30 794 C 76.9451 -1.02796 1.6641 0
M  V30 795 O 78.1511 -1.54497 2.23255 0
M  V30 796 C 76.6071 0.692601 3.53173 0
M  V30 797 C 76.2151 2.15038 3.93017 0
M  V30 798 C 77.9591 0.346222 4.23086 0
M  V30 799 C 75.8661 2.37174 5.41758 0
M  V30 800 H 74.7961 0.151755 0.738571 0
M  V30 801 H 77.4471 1.01581 1.52819 0
M  V30 802 H 75.8291 0.0223764 3.95994 0
M  V30 803 H 77.0031 2.86024 3.61285 0
M  V30 804 H 75.3181 2.45875 3.36057 0
M  V30 805 H 77.9151 0.48937 5.32456 0
M  V30 806 H 78.2581 -0.709842 4.10204 0
M  V30 807 H 78.7911 0.971258 3.85761 0
M  V30 808 H 75.5301 3.41308 5.59633 0
M  V30 809 H 75.0501 1.70738 5.74986 0
M  V30 810 H 76.7291 2.19818 6.08514 0
M  V30 811 N 76.8612 -1.46375 0.584142 0
M  V30 812 C 77.7932 -2.28443 -0.186119 0
M  V30 813 C 78.8062 -1.38596 -0.854115 0
M  V30 814 O 79.9952 -1.63183 -0.723438 0
M  V30 815 C 77.0952 -3.13671 -1.28311 0
M  V30 816 C 76.2682 -4.31652 -0.706758 0
M  V30 817 C 75.3272 -4.98267 -1.69163 0
M  V30 818 O 74.3532 -5.55815 -1.22712 0
M  V30 819 N 75.5552 -4.95408 -3.02575 0
M  V30 820 H 78.3202 -2.9519 0.517986 0
M  V30 821 H 75.8812 -1.56303 0.42201 0
M  V30 822 H 77.8732 -3.55101 -1.94128 0
M  V30 823 H 76.4432 -2.48989 -1.89005 0
M  V30 824 H 75.6632 -3.93989 0.128908 0
M  V30 825 H 76.9512 -5.07906 -0.301506 0
M  V30 826 H 76.3492 -4.49902 -3.42936 0
M  V30 827 H 74.9062 -5.40774 -3.63877 0
M  V30 828 N 78.3393 -0.321999 -1.54275 0
M  V30 829 C 79.5853 0.281461 -2.00837 0
M  V30 830 C 79.9183 1.51909 -1.20985 0
M  V30 831 O 79.1933 1.923 -0.291733 0
M  V30 832 C 79.4763 0.617162 -3.54772 0
M  V30 833 C 79.3293 -0.631064 -4.45351 0
M  V30 834 C 80.6483 1.43542 -4.16033 0
M  V30 835 H 77.7673 0.100826 -0.730071 0
M  V30 836 H 80.4093 -0.438268 -1.84876 0
M  V30 837 H 78.5593 1.23034 -3.68504 0
M  V30 838 H 80.2313 -1.26934 -4.43492 0
M  V30 839 H 78.4743 -1.26025 -4.15091 0
M  V30 840 H 79.1453 -0.351735 -5.50878 0
M  V30 841 H 81.6213 0.917134 -4.05867 0
M  V30 842 H 80.4973 1.63907 -5.23856 0
M  V30 843 H 80.7583 2.43108 -3.69257 0
M  V30 844 N 79.8174 1.5752 -0.0501392 0
M  V30 845 C 80.7804 2.1037 0.909786 0
M  V30 846 C 81.7804 1.02308 1.24056 0
M  V30 847 O 82.9704 1.28385 1.17741 0
M  V30 848 C 80.1024 2.58708 2.21998 0
M  V30 849 H 81.2954 2.96479 0.451665 0
M  V30 850 H 78.8484 1.55038 0.198248 0
M  V30 851 H 79.5834 1.75989 2.72394 0
M  V30 852 H 79.3684 3.37675 1.99295 0
M  V30 853 H 80.8584 2.99747 2.9076 0
M  V30 854 N 81.2955 -0.223234 1.56011 0
M  V30 855 C 82.5415 -0.949279 1.79211 0
M  V30 856 C 82.8745 -1.84054 0.619494 0
M  V30 857 O 82.1495 -1.90726 -0.381317 0
M  V30 858 C 82.4325 -1.78965 3.12479 0
M  V30 859 C 82.2855 -0.924997 4.40186 0
M  V30 860 C 83.6045 -2.76774 3.42175 0
M  V30 861 H 80.7235 -0.343676 0.651963 0
M  V30 862 H 83.3655 -0.218253 1.88742 0
M  V30 863 H 81.5155 -2.41291 3.04485 0
M  V30 864 H 83.1875 -0.318615 4.60198 0
M  V30 865 H 81.4305 -0.230344 4.33188 0
M  V30 866 H 82.1015 -1.54735 5.29869 0
M  V30 867 H 84.5775 -2.24584 3.50287 0
M  V30 868 H 83.4535 -3.32678 4.36597 0
M  V30 869 H 83.7145 -3.54429 2.64258 0
M  V30 870 N 82.7736 -1.49793 -0.48987 0
M  V30 871 C 83.7036 -1.70201 -1.59856 0
M  V30 872 C 84.6846 -0.55076 -1.60937 0
M  V30 873 O 85.8696 -0.787841 -1.77501 0
M  V30 874 C 82.9996 -1.77882 -2.98287 0
M  V30 875 C 81.9536 -2.92907 -3.12073 0
M  V30 876 C 81.2796 -2.85712 -4.51965 0
M  V30 877 C 82.5796 -4.3369 -2.91051 0
M  V30 878 H 84.2736 -2.63025 -1.43032 0
M  V30 879 H 81.8196 -1.26574 -0.686664 0
M  V30 880 H 83.7726 -1.90744 -3.75759 0
M  V30 881 H 82.4966 -0.816653 -3.16225 0
M  V30 882 H 81.1556 -2.79665 -2.37029 0
M  V30 883 H 80.8036 -1.8738 -4.66795 0
M  V30 884 H 80.5036 -3.62921 -4.62128 0
M  V30 885 H 82.0276 -3.00598 -5.31482 0
M  V30 886 H 83.4416 -4.47555 -3.58284 0
M  V30 887 H 81.8386 -5.12205 -3.12675 0
M  V30 888 H 82.9086 -4.47362 -1.87071 0
M  V30 889 N 84.2517 0.741722 -1.39055 0
M  V30 890 C 85.4767 1.53607 -1.39354 0
M  V30 891 C 85.9017 1.88096 0.0116905 0
M  V30 892 O 85.2597 1.5143 0.996924 0
M  V30 893 C 85.3077 2.80441 -2.26682 0
M  V30 894 O 84.4117 3.76088 -1.69208 0
M  V30 895 H 83.7527 0.464142 -0.474835 0
M  V30 896 H 86.2827 0.915665 -1.82967 0
M  V30 897 H 86.2927 3.29246 -2.40959 0
M  V30 898 H 84.9677 2.5467 -3.2881 0
M  V30 899 H 83.5447 3.34833 -1.64138 0
M  V30 900 N 85.7298 1.2412 0.971189 0
M  V30 901 C 86.9778 1.07668 1.71032 0
M  V30 902 C 87.2988 -0.385797 1.91146 0
M  V30 903 O 86.5688 -1.27569 1.4867 0
M  V30 904 H 85.1488 0.395429 0.633755 0
M  V30 905 H 87.8108 1.55984 1.16855 0
M  V30 906 H 86.9068 1.57195 2.69622 0
M  V30 907 N 87.2079 -1.17134 1.05439 0
M  V30 908 C 88.6239 -1.39454 0.776201 0
M  V30 909 C 88.8239 -1.91454 -0.628307 0
M  V30 910 O 87.8799 -2.10777 -1.39031 0
M  V30 911 C 89.1929 -2.38305 1.83388 0
M  V30 912 C 90.7409 -2.52006 1.85639 0
M  V30 913 C 91.2159 -3.54133 2.90437 0
M  V30 914 N 92.7069 -3.61653 2.89415 0
M  V30 915 C 93.4419 -4.4044 3.67152 0
M  V30 916 N 92.9379 -5.22721 4.54681 0
M  V30 917 N 94.7309 -4.35337 3.55581 0
M  V30 918 H 86.8819 -0.817134 1.96053 0
M  V30 919 H 89.1449 -0.421626 0.849079 0
M  V30 920 H 88.8509 -2.07173 2.84204 0
M  V30 921 H 88.7249 -3.37841 1.67761 0
M  V30 922 H 91.1119 -2.82447 0.85486 0
M  V30 923 H 91.1929 -1.52537 2.05344 0
M  V30 924 H 90.8369 -3.24431 3.90777 0
M  V30 925 H 90.7669 -4.53313 2.67983 0
M  V30 926 H 93.2579 -3.02909 2.25952 0
M  V30 927 H 93.5709 -5.80027 5.10674 0
M  V30 928 H 91.9159 -5.22093 4.58741 0
M  V30 929 H 95.1069 -3.70112 2.86592 0
M  V30 930 H 95.2799 -4.96494 4.1641 0
M  V30 931 N 88.686 -0.835752 -1.33615 0
M  V30 932 C 89.963 -0.352017 -1.92406 0
M  V30 933 C 90.343 1.16225 -1.76224 0
M  V30 934 O 89.691 1.97526 -1.14873 0
M  V30 935 C 89.901 -0.795485 -3.39813 0
M  V30 936 C 91.249 -0.801703 -4.16963 0
M  V30 937 O 92.273 -0.738889 -3.48452 0
M  V30 938 O 91.132 -0.886607 -5.3926 0
M  V30 939 H 88.226 -0.0989641 -0.821057 0
M  V30 940 H 90.772 -0.921397 -1.42507 0
M  V30 941 H 89.544 -1.83795 -3.45449 0
M  V30 942 H 89.167 -0.202505 -3.97084 0
M  V30 943 N 90.1641 1.46063 -0.591896 0
M  V30 944 C 91.3891 2.07226 -0.0850314 0
M  V30 945 C 91.8141 1.43625 1.21463 0
M  V30 946 O 91.1721 0.523305 1.73583 0
M  V30 947 C 91.2201 3.60554 0.0576567 0
M  V30 948 O 90.3241 3.97128 1.11188 0
M  V30 949 H 89.6651 0.660615 -0.0669568 0
M  V30 950 H 92.1951 1.8756 -0.81745 0
M  V30 951 H 92.2051 4.07165 0.2609 0
M  V30 952 H 90.8801 4.06235 -0.891416 0
M  V30 953 H 89.4571 3.62213 0.886356 0
M  V30 954 N 91.6422 0.330177 1.54103 0
M  V30 955 C 93.0532 -0.15652 1.86043 0
M  V30 956 C 93.4042 -1.51086 1.2517 0
M  V30 957 O 92.5292 -2.09023 0.560217 0
M  V30 958 C 93.1242 -0.290784 3.3755 0
M  V30 959 C 91.6832 -0.721705 3.69416 0
M  V30 960 C 90.8302 0.152622 2.7688 0
M  V30 961 H 93.7812 0.550237 1.48856 0
M  V30 962 H 93.8022 -1.12058 3.63625 0
M  V30 963 H 93.3142 0.695068 3.81825 0
M  V30 964 H 91.4152 -1.71706 3.30678 0
M  V30 965 H 91.5282 -0.520869 4.7626 0
M  V30 966 H 89.8922 -0.372894 2.51956 0
M  V30 967 H 90.6752 1.13536 3.23982 0
M  V30 968 N 93.1203 -1.57491 0.0584922 0
M  V30 969 C 94.3693 -1.92155 -0.613146 0
M  V30 970 C 94.6823 -0.939334 -1.71569 0
M  V30 971 O 95.8883 -1.17829 -2.44599 0
M  V30 972 C 94.3443 -3.41303 -1.14195 0
M  V30 973 C 93.9523 -4.47944 -0.0711265 0
M  V30 974 C 95.6963 -3.84988 -1.78841 0
M  V30 975 C 93.6033 -5.88212 -0.613225 0
M  V30 976 H 92.5333 -0.717162 -0.232796 0
M  V30 977 H 95.1843 -1.83049 0.12857 0
M  V30 978 H 93.5663 -3.45437 -1.93621 0
M  V30 979 H 94.7403 -4.55408 0.702836 0
M  V30 980 H 93.0553 -4.13644 0.478313 0
M  V30 981 H 95.6523 -4.87159 -2.20408 0
M  V30 982 H 95.9953 -3.21632 -2.64308 0
M  V30 983 H 96.5283 -3.83401 -1.06059 0
M  V30 984 H 93.2673 -6.55183 0.203978 0
M  V30 985 H 92.7873 -5.84294 -1.35501 0
M  V30 986 H 94.4663 -6.37687 -1.09383 0
M  V30 987 N 94.5984 0.214957 -1.56127 0
M  V30 988 C 95.5284 1.2695 -1.95974 0
M  V30 989 C 96.5094 1.48539 -0.828868 0
M  V30 990 O 97.6944 1.60611 -1.09168 0
M  V30 991 C 94.8244 2.61794 -2.28214 0
M  V30 992 C 93.7784 2.54851 -3.43853 0
M  V30 993 C 93.1044 3.93785 -3.61715 0
M  V30 994 C 94.4044 2.09065 -4.78632 0
M  V30 995 H 96.0984 0.93846 -2.84312 0
M  V30 996 H 93.6444 0.449996 -1.36788 0
M  V30 997 H 95.5974 3.35731 -2.54682 0
M  V30 998 H 94.3214 2.96599 -1.36736 0
M  V30 999 H 92.9804 1.8337 -3.17444 0
M  V30 1000 H 92.6284 4.25908 -2.67602 0
M  V30 1001 H 92.3284 3.90019 -4.39498 0
M  V30 1002 H 93.8524 4.69374 -3.90539 0
M  V30 1003 H 95.2664 2.7275 -5.04262 0
M  V30 1004 H 93.6634 2.16346 -5.59745 0
M  V30 1005 H 94.7334 1.04315 -4.73547 0
M  V30 1006 N 96.0765 1.50051 0.48192 0
M  V30 1007 C 97.4925 1.37237 0.814756 0
M  V30 1008 C 97.6925 0.420109 1.97072 0
M  V30 1009 O 96.7485 -0.141246 2.52105 0
M  V30 1010 C 98.0615 2.78375 1.13701 0
M  V30 1011 C 99.6095 2.87213 1.2441 0
M  V30 1012 C 100.084 4.29161 1.59954 0
M  V30 1013 N 101.575 4.32061 1.66967 0
M  V30 1014 C 102.31 5.38879 1.95952 0
M  V30 1015 N 101.806 6.55918 2.23031 0
M  V30 1016 N 103.599 5.26312 1.97363 0
M  V30 1017 H 95.7505 2.10546 -0.28005 0
M  V30 1018 H 98.0135 0.945921 -0.0627454 0
M  V30 1019 H 97.7195 3.49845 0.360787 0
M  V30 1020 H 97.5935 3.14941 2.07586 0
M  V30 1021 H 99.9805 2.15969 2.01101 0
M  V30 1022 H 100.061 2.54204 0.285299 0
M  V30 1023 H 99.7055 5.00938 0.838067 0
M  V30 1024 H 99.6355 4.59648 2.56966 0
M  V30 1025 H 102.126 3.47661 1.48123 0
M  V30 1026 H 102.439 7.33139 2.44391 0
M  V30 1027 H 100.784 6.59112 2.20447 0
M  V30 1028 H 103.975 4.33876 1.75697 0
M  V30 1029 H 104.148 6.09649 2.19618 0
M  V30 1030 N 97.5546 -0.734337 1.39446 0
M  V30 1031 C 98.9706 -1.03997 1.21065 0
M  V30 1032 C 99.1706 -2.01369 0.0727019 0
M  V30 1033 O 98.2266 -2.45856 -0.575426 0
M  V30 1034 C 99.5396 -1.60163 2.54496 0
M  V30 1035 C 101.088 -1.7224 2.61347 0
M  V30 1036 C 101.563 -2.31814 3.95002 0
M  V30 1037 N 103.054 -2.39223 3.96644 0
M  V30 1038 C 103.789 -2.86258 4.96834 0
M  V30 1039 N 103.285 -3.33184 6.07421 0
M  V30 1040 N 105.078 -2.85473 4.84213 0
M  V30 1041 H 97.2286 -0.0885624 2.12215 0
M  V30 1042 H 99.4916 -0.10191 0.942506 0
M  V30 1043 H 99.1976 -0.960811 3.38321 0
M  V30 1044 H 99.0716 -2.5896 2.74262 0
M  V30 1045 H 101.459 -2.35443 1.77906 0
M  V30 1046 H 101.54 -0.720939 2.4543 0
M  V30 1047 H 101.184 -1.69238 4.78875 0
M  V30 1048 H 101.114 -3.32638 4.08239 0
M  V30 1049 H 103.605 -2.06057 3.16779 0
M  V30 1050 H 103.918 -3.67586 6.7978 0
M  V30 1051 H 102.263 -3.31191 6.11013 0
M  V30 1052 H 105.454 -2.48136 3.96921 0
M  V30 1053 H 105.627 -3.21814 5.62441 0
M  V30 1054 N 99.0327 -1.24633 -0.964593 0
M  V30 1055 C 100.449 -1.01239 -1.2338 0
M  V30 1056 C 100.649 0.2769 -1.99588 0
M  V30 1057 O 99.7047 0.992241 -2.32187 0
M  V30 1058 C 101.018 -2.22937 -2.01791 0
M  V30 1059 C 102.566 -2.27594 -2.14872 0
M  V30 1060 C 103.041 -3.48921 -2.96678 0
M  V30 1061 N 104.532 -3.49257 -3.04259 0
M  V30 1062 C 105.267 -4.39795 -3.67924 0
M  V30 1063 N 104.763 -5.40591 -4.33281 0
M  V30 1064 N 106.556 -4.275 -3.64966 0
M  V30 1065 H 98.7067 -2.0748 -0.454502 0
M  V30 1066 H 100.97 -0.910647 -0.26349 0
M  V30 1067 H 100.676 -3.16587 -1.53184 0
M  V30 1068 H 100.55 -2.25306 -3.02518 0
M  V30 1069 H 102.937 -1.34473 -2.6268 0
M  V30 1070 H 103.018 -2.2925 -1.13482 0
M  V30 1071 H 102.662 -4.42359 -2.49562 0
M  V30 1072 H 102.592 -3.4451 -3.98272 0
M  V30 1073 H 105.083 -2.76337 -2.57771 0
M  V30 1074 H 105.396 -6.05904 -4.79687 0
M  V30 1075 H 103.741 -5.44475 -4.3194 0
M  V30 1076 H 106.932 -3.47987 -3.13086 0
M  V30 1077 H 107.105 -4.98258 -4.14298 0
M  V30 1078 N 100.511 1.16574 -1.06058 0
M  V30 1079 C 101.76 1.86385 -0.770944 0
M  V30 1080 C 102.073 1.82448 0.705129 0
M  V30 1081 O 103.279 2.47815 1.10905 0
M  V30 1082 C 101.735 3.34466 -1.32893 0
M  V30 1083 C 101.343 3.46883 -2.83507 0
M  V30 1084 C 103.087 4.09548 -1.11672 0
M  V30 1085 C 100.994 4.89036 -3.32562 0
M  V30 1086 H 99.9238 0.698181 -0.284709 0
M  V30 1087 H 102.575 1.31583 -1.27899 0
M  V30 1088 H 100.957 3.88859 -0.748662 0
M  V30 1089 H 102.131 3.02663 -3.47465 0
M  V30 1090 H 100.446 2.85232 -3.03368 0
M  V30 1091 H 103.043 5.14434 -1.45814 0
M  V30 1092 H 103.386 4.16264 -0.0549535 0
M  V30 1093 H 103.919 3.61387 -1.66265 0
M  V30 1094 H 100.658 4.87499 -4.38207 0
M  V30 1095 H 100.178 5.3389 -2.73351 0
M  V30 1096 H 101.857 5.57843 -3.2775 0
M  V30 1097 N 101.989 0.842826 1.3317 0
M  V30 1098 C 102.952 0.284065 2.27433 0
M  V30 1099 C 103.952 -0.54948 1.5112 0
M  V30 1100 O 105.142 -0.362699 1.70382 0
M  V30 1101 C 102.274 -0.599384 3.35589 0
M  V30 1102 H 103.467 1.11589 2.78366 0
M  V30 1103 H 101.02 0.616221 1.4364 0
M  V30 1104 H 101.755 -1.45349 2.89904 0
M  V30 1105 H 101.54 -0.00291266 3.921 0
M  V30 1106 H 103.03 -0.983488 4.05854 0
M  V30 1107 N 103.467 -1.45747 0.599634 0
M  V30 1108 C 104.744 -1.95585 0.0240846 0
M  V30 1109 C 105.124 -1.54217 -1.44154 0
M  V30 1110 O 104.472 -0.800903 -2.14004 0
M  V30 1111 C 104.682 -3.48344 0.21385 0
M  V30 1112 C 106.03 -4.24504 0.0904902 0
M  V30 1113 O 107.054 -3.55911 0.143558 0
M  V30 1114 O 105.913 -5.46491 -0.0310766 0
M  V30 1115 H 103.007 -0.82602 -0.0402478 0
M  V30 1116 H 105.553 -1.55951 0.669139 0
M  V30 1117 H 104.325 -3.71397 1.23206 0
M  V30 1118 H 103.948 -3.9485 -0.466842 0
M  V30 1119 N 104.945 -0.338344 -1.53925 0
M  V30 1120 C 105.875 0.51328 -2.27789 0
M  V30 1121 C 106.856 1.107 -1.29149 0
M  V30 1122 O 108.041 1.12937 -1.57984 0
M  V30 1123 C 105.171 1.66697 -3.04679 0
M  V30 1124 C 104.125 1.20183 -4.1078 0
M  V30 1125 C 103.451 2.44363 -4.75595 0
M  V30 1126 C 104.751 0.30605 -5.21403 0
M  V30 1127 H 106.445 -0.102883 -2.99223 0
M  V30 1128 H 103.991 -0.0509219 -1.4391 0
M  V30 1129 H 105.944 2.26915 -3.55088 0
M  V30 1130 H 104.668 2.30995 -2.30887 0
M  V30 1131 H 103.327 0.622499 -3.61276 0
M  V30 1132 H 102.975 3.07057 -3.98403 0
M  V30 1133 H 102.675 2.13925 -5.47275 0
M  V30 1134 H 104.199 3.05317 -5.28786 0
M  V30 1135 H 105.613 0.814929 -5.67478 0
M  V30 1136 H 104.01 0.0937929 -6.00027 0
M  V30 1137 H 105.08 -0.65921 -4.80398 0
M  V30 1138 N 106.423 1.57458 -0.0668435 0
M  V30 1139 C 107.671 1.92919 0.602214 0
M  V30 1140 C 107.992 0.947215 1.70449 0
M  V30 1141 O 107.262 -0.00544117 1.95899 0
M  V30 1142 H 105.842 0.71217 0.22544 0
M  V30 1143 H 108.504 1.94508 -0.123535 0
M  V30 1144 H 107.6 2.94589 1.03073 0
M  V30 1145 N 107.901 -0.206675 1.56239 0
M  V30 1146 C 109.15 -0.926964 1.79138 0
M  V30 1147 C 109.463 -1.84901 0.638043 0
M  V30 1148 O 110.669 -2.60906 0.751033 0
M  V30 1149 C 109.125 -1.6986 3.17294 0
M  V30 1150 C 108.733 -0.821956 4.40395 0
M  V30 1151 C 110.477 -2.40922 3.4951 0
M  V30 1152 C 108.384 -1.59179 5.69575 0
M  V30 1153 H 107.314 -0.349864 0.667915 0
M  V30 1154 H 109.965 -0.180487 1.8261 0
M  V30 1155 H 108.347 -2.48853 3.08039 0
M  V30 1156 H 109.521 -0.0715019 4.60745 0
M  V30 1157 H 107.836 -0.222741 4.15804 0
M  V30 1158 H 110.433 -2.99047 4.43255 0
M  V30 1159 H 110.776 -3.14542 2.72707 0
M  V30 1160 H 111.309 -1.68905 3.60161 0
M  V30 1161 H 108.048 -0.898589 6.49312 0
M  V30 1162 H 107.568 -2.31648 5.53262 0
M  V30 1163 H 109.247 -2.14862 6.10281 0
M  V30 1164 N 109.379 -1.50304 -0.473955 0
M  V30 1165 C 110.326 -1.68959 -1.57231 0
M  V30 1166 C 111.296 -0.530899 -1.57387 0
M  V30 1167 O 112.481 -0.761133 -1.74961 0
M  V30 1168 C 109.621 -1.7871 -2.95223 0
M  V30 1169 C 108.734 -3.06061 -3.04878 0
M  V30 1170 C 107.869 -3.06626 -4.33767 0
M  V30 1171 C 106.908 -4.28443 -4.37154 0
M  V30 1172 N 106.045 -4.26763 -5.5751 0
M  V30 1173 H 110.885 -2.6273 -1.40631 0
M  V30 1174 H 108.422 -1.30241 -0.683789 0
M  V30 1175 H 110.38 -1.82344 -3.75242 0
M  V30 1176 H 109.01 -0.883806 -3.10465 0
M  V30 1177 H 108.062 -3.11911 -2.17751 0
M  V30 1178 H 109.374 -3.96039 -3.0324 0
M  V30 1179 H 108.528 -3.08973 -5.22131 0
M  V30 1180 H 107.267 -2.14473 -4.3801 0
M  V30 1181 H 106.272 -4.2631 -3.47188 0
M  V30 1182 H 107.497 -5.2182 -4.34605 0
M  V30 1183 H 105.443 -3.37462 -5.62544 0
M  V30 1184 H 105.36 -5.10507 -5.57601 0
M  V30 1185 H 106.628 -4.33253 -6.48006 0
M  V30 1186 N 110.857 0.726932 -1.39834 0
M  V30 1187 C 111.787 1.85405 -1.41941 0
M  V30 1188 C 112.768 1.67751 -0.281728 0
M  V30 1189 O 113.953 1.8795 -0.488717 0
M  V30 1190 C 111.083 3.23243 -1.2701 0
M  V30 1191 C 110.037 3.55549 -2.38262 0
M  V30 1192 C 109.363 4.9241 -2.08415 0
M  V30 1193 C 110.663 3.577 -3.80589 0
M  V30 1194 H 112.357 1.83899 -2.36266 0
M  V30 1195 H 109.903 0.883349 -1.13723 0
M  V30 1196 H 111.856 4.01775 -1.27103 0
M  V30 1197 H 110.58 3.25296 -0.291564 0
M  V30 1198 H 109.239 2.79351 -2.37399 0
M  V30 1199 H 108.887 4.91052 -1.0898 0
M  V30 1200 H 108.587 5.14992 -2.82943 0
M  V30 1201 H 110.111 5.73289 -2.10171 0
M  V30 1202 H 111.525 4.26293 -3.83337 0
M  V30 1203 H 109.922 3.91804 -4.54543 0
M  V30 1204 H 110.992 2.57328 -4.10987 0
M  V30 1205 N 112.336 1.25143 0.95797 0
M  V30 1206 C 113.583 1.09692 1.70217 0
M  V30 1207 C 113.911 -0.362654 1.91089 0
M  V30 1208 O 113.166 -1.28386 1.47701 0
M  V30 1209 C 113.465 1.79272 3.09187 0
M  V30 1210 C 113.131 3.29196 3.08125 0
M  V30 1211 C 111.793 3.70096 3.07543 0
M  V30 1212 C 114.145 4.24995 3.0171 0
M  V30 1213 C 111.473 5.05213 2.9829 0
M  V30 1214 C 113.825 5.60132 2.93999 0
M  V30 1215 C 112.489 6.00365 2.9175 0
M  V30 1216 H 111.759 0.401393 0.622868 0
M  V30 1217 H 114.406 1.55372 1.11945 0
M  V30 1218 H 112.711 1.26014 3.70982 0
M  V30 1219 H 114.408 1.64773 3.65583 0
M  V30 1220 H 110.998 2.96651 3.09348 0
M  V30 1221 H 115.182 3.9439 3.01281 0
M  V30 1222 H 110.438 5.35569 2.94916 0
M  V30 1223 H 114.612 6.3406 2.87996 0
M  V30 1224 H 112.239 7.05023 2.84336 0
M  V30 1225 N 113.814 -1.1601 1.06675 0
M  V30 1226 C 115.061 -1.86633 0.785781 0
M  V30 1227 C 115.389 -1.81929 -0.687896 0
M  V30 1228 O 114.644 -1.23253 -1.52011 0
M  V30 1229 C 114.943 -3.35547 1.23057 0
M  V30 1230 C 114.609 -3.60448 2.70902 0
M  V30 1231 C 113.271 -3.66954 3.11285 0
M  V30 1232 C 115.623 -3.7071 3.66365 0
M  V30 1233 C 112.951 -3.81225 4.45965 0
M  V30 1234 C 115.303 -3.86503 5.00797 0
M  V30 1235 C 113.967 -3.91252 5.40813 0
M  V30 1236 H 113.237 -0.682937 0.287538 0
M  V30 1237 H 115.884 -1.37146 1.33654 0
M  V30 1238 H 114.189 -3.87193 0.59907 0
M  V30 1239 H 115.886 -3.88583 0.990163 0
M  V30 1240 H 112.476 -3.56021 2.38636 0
M  V30 1241 H 116.66 -3.64991 3.36296 0
M  V30 1242 H 111.916 -3.83155 4.76447 0
M  V30 1243 H 116.09 -3.93385 5.74649 0
M  V30 1244 H 113.717 -4.02062 6.45174 0
M  V30 1245 N 115.292 -0.849877 -1.32721 0
M  V30 1246 C 116.222 -0.306308 -2.31482 0
M  V30 1247 C 117.203 0.591952 -1.59468 0
M  V30 1248 O 118.388 0.513199 -1.87296 0
M  V30 1249 C 115.518 0.510204 -3.43532 0
M  V30 1250 C 114.472 -0.293209 -4.26994 0
M  V30 1251 C 113.798 0.647743 -5.30762 0
M  V30 1252 C 115.098 -1.51634 -4.99804 0
M  V30 1253 H 116.792 -1.13153 -2.77195 0
M  V30 1254 H 114.338 -0.545553 -1.33266 0
M  V30 1255 H 116.291 0.900856 -4.11658 0
M  V30 1256 H 115.015 1.36874 -2.96535 0
M  V30 1257 H 113.674 -0.665555 -3.60508 0
M  V30 1258 H 113.322 1.50299 -4.8002 0
M  V30 1259 H 113.022 0.11422 -5.87489 0
M  V30 1260 H 114.546 1.03567 -6.01753 0
M  V30 1261 H 115.96 -1.19824 -5.60638 0
M  V30 1262 H 114.357 -1.98745 -5.66234 0
M  V30 1263 H 115.427 -2.28018 -4.27943 0
M  V30 1264 N 116.77 1.45427 -0.607355 0
M  V30 1265 C 118.018 2.01841 -0.102253 0
M  V30 1266 C 118.339 1.47832 1.27164 0
M  V30 1267 O 117.609 0.672497 1.83995 0
M  V30 1268 H 116.189 0.746188 -0.0348101 0
M  V30 1269 H 118.851 1.78229 -0.7887 0
M  V30 1270 H 117.947 3.12057 -0.0518585 0
M  V30 1271 N 118.248 0.346503 1.53744 0
M  V30 1272 C 119.195 -0.508914 2.25119 0
M  V30 1273 C 120.165 -1.09315 1.25058 0
M  V30 1274 O 121.35 -1.12921 1.53797 0
M  V30 1275 C 118.49 -1.65246 3.02965 0
M  V30 1276 C 117.603 -1.09525 4.17886 0
M  V30 1277 C 116.738 -2.20634 4.83212 0
M  V30 1278 C 115.777 -1.62279 5.90196 0
M  V30 1279 N 114.914 -2.67143 6.49291 0
M  V30 1280 H 119.754 0.106283 2.9781 0
M  V30 1281 H 117.291 0.0642227 1.4696 0
M  V30 1282 H 119.249 -2.32574 3.4636 0
M  V30 1283 H 117.879 -2.2386 2.32565 0
M  V30 1284 H 116.931 -0.312818 3.79112 0
M  V30 1285 H 118.243 -0.628444 4.94825 0
M  V30 1286 H 117.397 -2.95821 5.29693 0
M  V30 1287 H 116.136 -2.70659 4.05703 0
M  V30 1288 H 115.141 -0.855989 5.43096 0
M  V30 1289 H 116.366 -1.13102 6.69615 0
M  V30 1290 H 114.312 -3.16417 5.74645 0
M  V30 1291 H 114.229 -2.25093 7.21713 0
M  V30 1292 H 115.497 -3.4209 7.00425 0
M  V30 1293 N 119.726 -1.57421 0.075193 0
M  V30 1294 C 120.656 -2.15942 -0.888324 0
M  V30 1295 C 121.637 -1.08737 -1.30806 0
M  V30 1296 O 122.822 -1.36787 -1.37851 0
M  V30 1297 C 119.952 -2.72379 -2.1547 0
M  V30 1298 C 118.906 -3.8478 -1.87425 0
M  V30 1299 C 118.232 -4.27834 -3.20721 0
M  V30 1300 C 119.532 -5.08869 -1.17684 0
M  V30 1301 H 121.226 -2.96705 -0.400799 0
M  V30 1302 H 118.772 -1.42723 -0.191342 0
M  V30 1303 H 120.725 -3.11965 -2.83295 0
M  V30 1304 H 119.449 -1.88841 -2.6647 0
M  V30 1305 H 118.108 -3.45703 -1.22004 0
M  V30 1306 H 117.756 -3.41214 -3.6957 0
M  V30 1307 H 117.456 -5.03605 -3.02746 0
M  V30 1308 H 118.98 -4.70039 -3.89738 0
M  V30 1309 H 120.394 -5.4575 -1.75584 0
M  V30 1310 H 118.791 -5.8994 -1.09956 0
M  V30 1311 H 119.861 -4.84648 -0.156453 0
M  V30 1312 N 121.204 0.198386 -1.56346 0
M  V30 1313 C 122.114 1.2664 -1.97483 0
M  V30 1314 C 123.13 1.49989 -0.882002 0
M  V30 1315 O 124.306 1.62668 -1.18748 0
M  V30 1316 C 121.371 2.59141 -2.30319 0
M  V30 1317 C 120.432 2.43892 -3.53292 0
M  V30 1318 C 119.665 3.70074 -3.84553 0
M  V30 1319 O 119.888 4.74101 -3.1715 0
M  V30 1320 O 118.822 3.658 -4.7799 0
M  V30 1321 H 122.648 0.947304 -2.88548 0
M  V30 1322 H 120.233 0.403123 -1.43859 0
M  V30 1323 H 122.115 3.37352 -2.5253 0
M  V30 1324 H 120.79 2.90684 -1.42423 0
M  V30 1325 H 119.697 1.63803 -3.36332 0
M  V30 1326 H 121.03 2.17282 -4.41644 0
M  V30 1327 N 122.682 1.50554 0.465978 0
M  V30 1328 C 123.629 1.6979 1.56333 0
M  V30 1329 C 124.599 0.539239 1.57103 0
M  V30 1330 O 125.784 0.770401 1.74555 0
M  V30 1331 C 122.924 1.80273 2.94271 0
M  V30 1332 C 122.037 3.07674 3.0325 0
M  V30 1333 C 121.172 3.08922 4.32135 0
M  V30 1334 C 120.211 4.30755 4.34875 0
M  V30 1335 N 119.348 4.29714 5.55239 0
M  V30 1336 H 124.188 2.63472 1.39235 0
M  V30 1337 H 121.725 1.30602 0.676873 0
M  V30 1338 H 123.683 1.84332 3.74269 0
M  V30 1339 H 122.313 0.900258 3.09992 0
M  V30 1340 H 121.365 3.13062 2.16094 0
M  V30 1341 H 122.677 3.97642 3.01135 0
M  V30 1342 H 121.831 3.11738 5.20485 0
M  V30 1343 H 120.57 2.16792 4.36866 0
M  V30 1344 H 119.575 4.28146 3.44922 0
M  V30 1345 H 120.8 5.24117 4.31831 0
M  V30 1346 H 118.746 3.4044 5.60746 0
M  V30 1347 H 118.663 5.13456 5.54886 0
M  V30 1348 H 119.931 4.36683 6.457 0
M  V30 1349 N 124.16 -0.719506 1.40217 0
M  V30 1350 C 125.07 -1.86378 1.42479 0
M  V30 1351 C 126.086 -1.71073 0.317834 0
M  V30 1352 O 127.262 -1.93406 0.561794 0
M  V30 1353 C 124.327 -3.22136 1.28178 0
M  V30 1354 C 123.388 -3.49723 2.48982 0
M  V30 1355 C 122.621 -4.79004 2.35353 0
M  V30 1356 O 122.844 -5.53821 1.36524 0
M  V30 1357 O 121.778 -5.06839 3.2465 0
M  V30 1358 H 125.604 -1.87425 2.38968 0
M  V30 1359 H 123.189 -0.869405 1.21498 0
M  V30 1360 H 125.071 -4.03234 1.22395 0
M  V30 1361 H 123.746 -3.21825 0.347934 0
M  V30 1362 H 122.653 -2.6865 2.60342 0
M  V30 1363 H 123.986 -3.54828 3.41113 0
M  V30 1364 N 125.638 -1.25649 -0.95132 0
M  V30 1365 C 126.866 -1.13343 -1.73092 0
M  V30 1366 C 127.281 0.312434 -1.86197 0
M  V30 1367 O 126.638 1.21465 -1.36207 0
M  V30 1368 C 126.689 -1.78602 -3.14299 0
M  V30 1369 O 126.41 -3.17537 -3.01831 0
M  V30 1370 C 127.911 -1.72119 -4.08522 0
M  V30 1371 H 125.131 -0.395181 -0.542285 0
M  V30 1372 H 127.675 -1.66076 -1.19328 0
M  V30 1373 H 125.83 -1.29832 -3.64996 0
M  V30 1374 H 126.244 -3.49676 -3.90931 0
M  V30 1375 H 127.718 -2.22435 -5.052 0
M  V30 1376 H 128.195 -0.685635 -4.33815 0
M  V30 1377 H 128.801 -2.20393 -3.63741 0
M  V30 1378 N 127.117 1.15442 -1.07289 0
M  V30 1379 C 128.08 2.18358 -0.696591 0
M  V30 1380 C 129.08 1.58637 0.262837 0
M  V30 1381 O 130.27 1.74145 0.0438809 0
M  V30 1382 C 127.402 3.4089 -0.0266151 0
M  V30 1383 H 128.595 2.53162 -1.60776 0
M  V30 1384 H 126.148 1.29893 -0.869342 0
M  V30 1385 H 126.883 3.11653 0.896822 0
M  V30 1386 H 126.668 3.85495 -0.716657 0
M  V30 1387 H 128.158 4.17009 0.222028 0
M  V30 1388 N 128.595 0.856903 1.32268 0
M  V30 1389 C 129.835 0.467705 1.98977 0
M  V30 1390 C 130.199 -0.959231 1.66321 0
M  V30 1391 O 131.4 -1.4531 2.26138 0
M  V30 1392 C 129.671 0.70256 3.50427 0
M  V30 1393 S 131.23 0.411269 4.36868 0
M  V30 1394 H 128.048 0.175121 0.689096 0
M  V30 1395 H 130.65 1.1101 1.60925 0
M  V30 1396 H 129.354 1.74012 3.71683 0
M  V30 1397 H 128.885 0.0466707 3.93372 0
M  V30 1398 H 130.9 -0.761799 4.90317 0
M  V30 1399 N 130.073 -1.45103 0.615059 0
M  V30 1400 C 131.32 -2.02183 0.113179 0
M  V30 1401 C 131.648 -1.48249 -1.25906 0
M  V30 1402 O 130.903 -0.650265 -1.84581 0
M  V30 1403 C 131.202 -3.57386 0.0318797 0
M  V30 1404 C 130.868 -4.30505 1.34077 0
M  V30 1405 C 129.53 -4.50197 1.69929 0
M  V30 1406 C 131.882 -4.72238 2.20546 0
M  V30 1407 C 129.21 -5.08881 2.91988 0
M  V30 1408 C 131.562 -5.32272 3.41861 0
M  V30 1409 C 130.226 -5.50187 3.77956 0
M  V30 1410 H 129.496 -0.739842 0.0414151 0
M  V30 1411 H 132.143 -1.74073 0.798168 0
M  V30 1412 H 130.448 -3.84817 -0.736409 0
M  V30 1413 H 132.145 -3.99264 -0.372712 0
M  V30 1414 H 128.735 -4.15496 1.05173 0
M  V30 1415 H 132.919 -4.56751 1.94146 0
M  V30 1416 H 128.175 -5.20939 3.2005 0
M  V30 1417 H 132.349 -5.63563 4.09109 0
M  V30 1418 H 129.976 -5.95427 4.72622 0
M  V30 1419 N 131.551 -0.354651 -1.53558 0
M  V30 1420 C 132.828 0.294281 -1.93374 0
M  V30 1421 C 133.208 1.67313 -1.28723 0
M  V30 1422 O 132.556 2.24179 -0.442247 0
M  V30 1423 C 132.766 0.355445 -3.47185 0
M  V30 1424 C 134.114 0.601007 -4.20325 0
M  V30 1425 O 135.138 0.437106 -3.53508 0
M  V30 1426 O 133.997 0.919322 -5.38712 0
M  V30 1427 H 131.091 0.174033 -0.808481 0
M  V30 1428 H 133.637 -0.406638 -1.64756 0
M  V30 1429 H 132.409 -0.611729 -3.86489 0
M  V30 1430 H 132.032 1.1027 -3.82003 0
M  V30 1431 N 133.029 1.57378 -0.0835403 0
M  V30 1432 C 133.959 2.1641 0.87686 0
M  V30 1433 C 134.94 1.09429 1.30228 0
M  V30 1434 O 136.125 1.37516 1.37124 0
M  V30 1435 C 133.255 2.73517 2.14022 0
M  V30 1436 C 132.209 3.85769 1.85381 0
M  V30 1437 C 131.535 4.29529 3.18448 0
M  V30 1438 C 132.835 5.09486 1.14984 0
M  V30 1439 H 134.529 2.96914 0.385059 0
M  V30 1440 H 132.075 1.42823 0.18377 0
M  V30 1441 H 134.028 3.13463 2.81636 0
M  V30 1442 H 132.752 1.90252 2.65465 0
M  V30 1443 H 131.411 3.46345 1.20169 0
M  V30 1444 H 131.059 3.43169 3.67755 0
M  V30 1445 H 130.759 5.05204 3.00071 0
M  V30 1446 H 132.283 4.72099 3.8724 0
M  V30 1447 H 133.697 5.46674 1.72687 0
M  V30 1448 H 132.094 5.90515 1.06826 0
M  V30 1449 H 133.164 4.84724 0.130749 0
M  V30 1450 N 134.507 -0.190092 1.56449 0
M  V30 1451 C 135.44 -1.26375 1.90012 0
M  V30 1452 C 136.418 -1.43705 0.760765 0
M  V30 1453 O 137.602 -1.59014 1.01226 0
M  V30 1454 C 134.729 -2.62962 2.13468 0
M  V30 1455 C 133.775 -2.62474 3.36169 0
M  V30 1456 S 134.608 -2.13412 4.91137 0
M  V30 1457 C 135.764 -3.51812 5.17667 0
M  V30 1458 H 135.997 -0.977181 2.80782 0
M  V30 1459 H 133.53 -0.393814 1.49293 0
M  V30 1460 H 135.488 -3.41583 2.27664 0
M  V30 1461 H 134.149 -2.88828 1.23439 0
M  V30 1462 H 133.342 -3.62918 3.49723 0
M  V30 1463 H 132.944 -1.91937 3.20992 0
M  V30 1464 H 135.236 -4.47706 5.08494 0
M  V30 1465 H 136.179 -3.43148 6.19399 0
M  V30 1466 H 136.587 -3.46956 4.45288 0
M  V30 1467 N 135.985 -1.50799 -0.457987 0
M  V30 1468 C 136.932 -1.70617 -1.5543 0
M  V30 1469 C 137.902 -0.547562 -1.56815 0
M  V30 1470 O 139.087 -0.779647 -1.74144 0
M  V30 1471 C 136.227 -1.81831 -2.93311 0
M  V30 1472 C 135.34 -3.09278 -3.01615 0
M  V30 1473 C 134.475 -3.11209 -4.30491 0
M  V30 1474 C 133.514 -4.33055 -4.32585 0
M  V30 1475 N 132.651 -4.32652 -5.52952 0
M  V30 1476 H 137.491 -2.64207 -1.37836 0
M  V30 1477 H 135.028 -1.30959 -0.669937 0
M  V30 1478 H 136.986 -1.86314 -3.73287 0
M  V30 1479 H 135.616 -0.916685 -3.0951 0
M  V30 1480 H 134.668 -3.14203 -2.1443 0
M  V30 1481 H 135.98 -3.99233 -2.99022 0
M  V30 1482 H 135.134 -3.14494 -5.18824 0
M  V30 1483 H 133.873 -2.19106 -4.35711 0
M  V30 1484 H 132.878 -4.29969 -3.42647 0
M  V30 1485 H 134.103 -5.264 -4.29046 0
M  V30 1486 H 132.049 -3.43409 -5.58933 0
M  V30 1487 H 131.966 -5.16392 -5.52155 0
M  V30 1488 H 133.234 -4.40101 -6.43375 0
M  V30 1489 N 137.463 0.71206 -1.40597 0
M  V30 1490 C 138.395 1.83704 -1.37061 0
M  V30 1491 C 139.408 1.60453 -0.275426 0
M  V30 1492 O 140.597 1.70262 -0.53602 0
M  V30 1493 C 137.697 3.20172 -1.11099 0
M  V30 1494 C 136.87 3.7059 -2.3234 0
M  V30 1495 C 135.929 4.85681 -2.02485 0
M  V30 1496 O 134.955 4.9815 -2.75382 0
M  V30 1497 N 136.157 5.71735 -1.00497 0
M  V30 1498 H 138.922 1.87235 -2.34016 0
M  V30 1499 H 136.483 0.893739 -1.34996 0
M  V30 1500 H 138.475 3.94768 -0.891064 0
M  V30 1501 H 137.045 3.11767 -0.227989 0
M  V30 1502 H 136.265 2.87085 -2.7014 0
M  V30 1503 H 137.553 4.01011 -3.13157 0
M  V30 1504 H 136.951 5.64275 -0.401298 0
M  V30 1505 H 135.508 6.463 -0.844942 0
M  V30 1506 N 138.941 1.26152 0.944643 0
M  V30 1507 C 139.904 1.07474 2.0244 0
M  V30 1508 C 140.904 0.0242064 1.60782 0
M  V30 1509 O 142.094 0.267302 1.72137 0
M  V30 1510 C 139.226 0.633956 3.34953 0
M  V30 1511 H 140.419 2.03336 2.20442 0
M  V30 1512 H 137.972 1.087 1.12312 0
M  V30 1513 H 138.707 -0.326811 3.22649 0
M  V30 1514 H 138.492 1.39247 3.66542 0
M  V30 1515 H 139.982 0.52501 4.14287 0
M  V30 1516 N 140.419 -1.14872 1.07899 0
M  V30 1517 C 141.667 -1.85422 0.803941 0
M  V30 1518 C 141.988 -1.83051 -0.67211 0
M  V30 1519 O 141.258 -1.27532 -1.48703 0
M  V30 1520 H 139.838 -0.686537 0.294408 0
M  V30 1521 H 142.5 -1.39226 1.3639 0
M  V30 1522 H 141.596 -2.90399 1.14346 0
M  V30 1523 N 141.898 -0.863906 -1.31812 0
M  V30 1524 C 143.144 -0.472535 -1.97218 0
M  V30 1525 C 143.477 0.971394 -1.68159 0
M  V30 1526 O 142.752 1.68309 -0.974798 0
M  V30 1527 C 143.035 -0.723054 -3.52766 0
M  V30 1528 C 142.888 -2.21608 -3.91421 0
M  V30 1529 C 144.207 -0.185522 -4.39709 0
M  V30 1530 H 141.326 -0.173158 -0.71637 0
M  V30 1531 H 143.968 -1.08403 -1.56041 0
M  V30 1532 H 142.118 -0.202577 -3.87971 0
M  V30 1533 H 143.79 -2.80334 -3.66347 0
M  V30 1534 H 142.033 -2.691 -3.40246 0
M  V30 1535 H 142.704 -2.34203 -4.99853 0
M  V30 1536 H 145.18 -0.630726 -4.11292 0
M  V30 1537 H 144.056 -0.390306 -5.47511 0
M  V30 1538 H 144.317 0.912229 -4.32586 0
M  V30 1539 N 143.376 1.44774 -0.622745 0
M  V30 1540 C 144.604 2.06487 -0.130722 0
M  V30 1541 C 145.019 1.46476 1.19123 0
M  V30 1542 O 144.376 0.584502 1.72887 0
M  V30 1543 C 144.427 3.615 -0.000807207 0
M  V30 1544 O 144.148 4.19274 -1.27048 0
M  V30 1545 C 145.649 4.40229 0.520898 0
M  V30 1546 H 142.869 0.666704 -0.0758106 0
M  V30 1547 H 145.413 1.85779 -0.854774 0
M  V30 1548 H 143.568 3.81498 0.673643 0
M  V30 1549 H 143.982 5.12622 -1.1099 0
M  V30 1550 H 145.456 5.49144 0.560838 0
M  V30 1551 H 145.933 4.1108 1.54627 0
M  V30 1552 H 146.539 4.25131 -0.120018 0
M  V30 1553 N 144.854 0.36279 1.53368 0
M  V30 1554 C 145.817 -0.472679 2.24273 0
M  V30 1555 C 146.817 -1.012 1.24961 0
M  V30 1556 O 148.007 -0.898194 1.49259 0
M  V30 1557 C 145.139 -1.66039 2.97731 0
M  V30 1558 H 146.332 0.14773 2.99536 0
M  V30 1559 H 143.885 0.114434 1.55881 0
M  V30 1560 H 144.62 -2.31896 2.26704 0
M  V30 1561 H 144.405 -1.28066 3.70596 0
M  V30 1562 H 145.895 -2.25252 3.51641 0
M  V30 1563 N 146.332 -1.57332 0.0918853 0
M  V30 1564 C 147.242 -2.17368 -0.882505 0
M  V30 1565 C 148.258 -1.14226 -1.31257 0
M  V30 1566 O 149.434 -1.46582 -1.38115 0
M  V30 1567 C 146.499 -2.73962 -2.12476 0
M  V30 1568 C 145.56 -3.92048 -1.7492 0
M  V30 1569 C 144.793 -4.45933 -2.93223 0
M  V30 1570 O 145.016 -3.98764 -4.07852 0
M  V30 1571 O 143.95 -5.36999 -2.71875 0
M  V30 1572 H 147.776 -3.01031 -0.40172 0
M  V30 1573 H 145.361 -1.48813 -0.132291 0
M  V30 1574 H 147.243 -3.10147 -2.85283 0
M  V30 1575 H 145.918 -1.93347 -2.59613 0
M  V30 1576 H 144.825 -3.6068 -0.993025 0
M  V30 1577 H 146.158 -4.74017 -1.32548 0
M  V30 1578 N 147.81 0.181792 -1.56548 0
M  V30 1579 C 148.742 1.24956 -1.92142 0
M  V30 1580 C 149.755 1.41022 -0.813422 0
M  V30 1581 O 150.944 1.41212 -1.09186 0
M  V30 1582 C 148.044 2.61981 -2.14987 0
M  V30 1583 C 147.217 2.6735 -3.46183 0
M  V30 1584 C 146.276 3.85664 -3.5798 0
M  V30 1585 O 145.302 3.72148 -4.30691 0
M  V30 1586 N 146.504 5.01683 -2.92053 0
M  V30 1587 H 149.269 0.947329 -2.84334 0
M  V30 1588 H 146.83 0.371629 -1.57577 0
M  V30 1589 H 148.822 3.3958 -2.20154 0
M  V30 1590 H 147.392 2.84637 -1.2923 0
M  V30 1591 H 146.612 1.75925 -3.52766 0
M  V30 1592 H 147.9 2.67939 -4.32534 0
M  V30 1593 H 147.298 5.15564 -2.32832 0
M  V30 1594 H 145.855 5.77181 -3.0283 0
M  V30 1595 N 149.288 1.51039 0.449983 0
M  V30 1596 C 150.516 1.66869 1.2232 0
M  V30 1597 C 150.931 0.360727 1.85322 0
M  V30 1598 O 150.288 -0.659531 1.70166 0
M  V30 1599 C 150.339 2.77524 2.31652 0
M  V30 1600 O 150.06 4.03252 1.7123 0
M  V30 1601 C 151.561 3.04512 3.2216 0
M  V30 1602 H 148.781 0.560326 0.369155 0
M  V30 1603 H 151.325 1.97385 0.534719 0
M  V30 1604 H 149.48 2.49642 2.96239 0
M  V30 1605 H 149.894 4.64609 2.43389 0
M  V30 1606 H 151.368 3.85551 3.95038 0
M  V30 1607 H 151.845 2.16415 3.8218 0
M  V30 1608 H 152.451 3.34005 2.63288 0
M  V30 1609 N 150.766 -0.704594 1.40972 0
M  V30 1610 C 151.729 -1.80035 1.41845 0
M  V30 1611 C 152.729 -1.57774 0.310474 0
M  V30 1612 O 153.919 -1.64613 0.56992 0
M  V30 1613 C 151.051 -3.18284 1.22098 0
M  V30 1614 H 152.244 -1.80658 2.3938 0
M  V30 1615 H 149.797 -0.911329 1.26982 0
M  V30 1616 H 150.532 -3.23306 0.253672 0
M  V30 1617 H 150.317 -3.35843 2.02366 0
M  V30 1618 H 151.807 -3.98289 1.25522 0
M  V30 1619 N 152.244 -1.26651 -0.937939 0
M  V30 1620 C 153.474 -1.15006 -1.71631 0
M  V30 1621 C 153.882 0.297026 -1.86854 0
M  V30 1622 O 153.225 1.21493 -1.37786 0
M  V30 1623 C 153.287 -1.74984 -3.14039 0
M  V30 1624 C 152.951 -3.24103 -3.2219 0
M  V30 1625 C 153.948 -4.20877 -3.05219 0
M  V30 1626 C 151.633 -3.64625 -3.45476 0
M  V30 1627 C 153.627 -5.56151 -3.11408 0
M  V30 1628 C 151.314 -5.00032 -3.513 0
M  V30 1629 C 152.312 -5.95604 -3.34282 0
M  V30 1630 O 152 -7.28545 -3.3982 0
M  V30 1631 H 151.732 -0.401183 -0.544085 0
M  V30 1632 H 154.286 -1.67832 -1.18413 0
M  V30 1633 H 152.516 -1.16624 -3.68695 0
M  V30 1634 H 154.205 -1.58199 -3.73802 0
M  V30 1635 H 154.971 -3.90908 -2.87081 0
M  V30 1636 H 150.85 -2.90718 -3.57777 0
M  V30 1637 H 154.394 -6.30727 -2.98043 0
M  V30 1638 H 150.291 -5.29659 -3.68959 0
M  V30 1639 H 151.059 -7.3686 -3.56343 0
M  V30 1640 N 153.722 1.14298 -1.08507 0
M  V30 1641 C 154.971 1.84708 -0.810305 0
M  V30 1642 C 155.284 1.83903 0.666271 0
M  V30 1643 O 156.49 2.50112 1.05624 0
M  V30 1644 C 154.946 3.31572 -1.39957 0
M  V30 1645 C 154.554 3.40791 -2.90801 0
M  V30 1646 C 156.298 4.07087 -1.20334 0
M  V30 1647 C 154.205 4.81872 -3.4286 0
M  V30 1648 H 153.135 0.691985 -0.299454 0
M  V30 1649 H 155.786 1.28841 -1.30661 0
M  V30 1650 H 154.168 3.87183 -0.830976 0
M  V30 1651 H 155.342 2.95225 -3.53806 0
M  V30 1652 H 153.657 2.78732 -3.0935 0
M  V30 1653 H 156.254 5.11225 -1.56693 0
M  V30 1654 H 156.597 4.16054 -0.143237 0
M  V30 1655 H 157.13 3.57779 -1.73893 0
M  V30 1656 H 153.869 4.78094 -4.48449 0
M  V30 1657 H 153.389 5.27972 -2.84615 0
M  V30 1658 H 155.068 5.50765 -3.39509 0
M  V30 1659 N 155.201 0.870884 1.31352 0
M  V30 1660 C 156.449 0.48132 1.96285 0
M  V30 1661 C 156.77 -0.969813 1.69173 0
M  V30 1662 O 156.04 -1.67998 1.00764 0
M  V30 1663 H 154.62 0.175002 0.726212 0
M  V30 1664 H 157.282 1.11087 1.60143 0
M  V30 1665 H 156.378 0.639825 3.05471 0
M  V30 1666 N 156.679 -1.44442 0.630414 0
M  V30 1667 C 157.956 -1.9549 0.0655657 0
M  V30 1668 C 158.336 -1.5724 -1.40851 0
M  V30 1669 O 157.684 -0.846116 -2.12257 0
M  V30 1670 C 157.894 -3.47812 0.287691 0
M  V30 1671 C 159.242 -4.24216 0.180513 0
M  V30 1672 O 160.266 -3.55526 0.219019 0
M  V30 1673 O 159.125 -5.46434 0.0848493 0
M  V30 1674 H 156.219 -0.826688 -0.0227177 0
M  V30 1675 H 158.765 -1.54496 0.702068 0
M  V30 1676 H 157.537 -3.687 1.31056 0
M  V30 1677 H 157.16 -3.95751 -0.382984 0
M  V30 1678 N 158.157 -0.370918 -1.53173 0
M  V30 1679 C 159.434 0.273754 -1.93675 0
M  V30 1680 C 159.814 1.65938 -1.3049 0
M  V30 1681 O 159.162 2.23698 -0.465999 0
M  V30 1682 C 159.372 0.318602 -3.47543 0
M  V30 1683 C 160.72 0.556392 -4.20939 0
M  V30 1684 O 161.744 0.399587 -3.53952 0
M  V30 1685 O 160.603 0.862133 -5.39657 0
M  V30 1686 H 157.697 0.165448 -0.810281 0
M  V30 1687 H 160.243 -0.42409 -1.64315 0
M  V30 1688 H 159.015 -0.652687 -3.85818 0
M  V30 1689 H 158.638 1.06212 -3.83151 0
M  V30 1690 N 159.635 1.57281 -0.100228 0
M  V30 1691 C 160.86 1.99302 0.573881 0
M  V30 1692 C 161.285 0.979059 1.60611 0
M  V30 1693 O 160.643 -0.0517803 1.81226 0
M  V30 1694 C 160.691 3.40274 1.19358 0
M  V30 1695 O 159.795 3.41676 2.30935 0
M  V30 1696 H 159.136 0.647944 0.145138 0
M  V30 1697 H 161.666 2.03779 -0.183156 0
M  V30 1698 H 161.676 3.78078 1.53365 0
M  V30 1699 H 160.351 4.13594 0.437385 0
M  V30 1700 H 158.928 3.15672 1.98509 0
M  V30 1701 N 161.113 -0.173488 1.56642 0
M  V30 1702 C 162.359 -0.891784 1.8214 0
M  V30 1703 C 162.692 -1.8199 0.677736 0
M  V30 1704 O 161.967 -1.91842 -0.320446 0
M  V30 1705 C 162.25 -1.68933 3.18015 0
M  V30 1706 C 162.103 -0.784487 4.42906 0
M  V30 1707 C 163.422 -2.65748 3.50808 0
M  V30 1708 H 160.541 -0.322761 0.662567 0
M  V30 1709 H 163.183 -0.158095 1.89341 0
M  V30 1710 H 161.333 -2.31482 3.12007 0
M  V30 1711 H 163.005 -0.172046 4.60979 0
M  V30 1712 H 161.248 -0.0924117 4.33702 0
M  V30 1713 H 161.919 -1.37799 5.34524 0
M  V30 1714 H 164.395 -2.13327 3.57255 0
M  V30 1715 H 163.271 -3.18619 4.4696 0
M  V30 1716 H 163.532 -3.45842 2.75401 0
M  V30 1717 N 162.591 -1.51276 -0.441967 0
M  V30 1718 C 163.868 -1.54252 -1.20273 0
M  V30 1719 C 164.248 -0.30408 -2.08898 0
M  V30 1720 O 163.596 0.711084 -2.17154 0
M  V30 1721 C 163.806 -2.85406 -2.00859 0
M  V30 1722 C 165.154 -3.37181 -2.58059 0
M  V30 1723 O 166.178 -2.86925 -2.11074 0
M  V30 1724 O 165.037 -4.24858 -3.43741 0
M  V30 1725 H 162.131 -0.619969 -0.547328 0
M  V30 1726 H 164.677 -1.63586 -0.451413 0
M  V30 1727 H 163.449 -3.67003 -1.35736 0
M  V30 1728 H 163.072 -2.79213 -2.83065 0
M  V30 1729 N 164.069 0.697108 -1.41344 0
M  V30 1730 C 164.999 1.82353 -1.45841 0
M  V30 1731 C 165.98 1.67115 -0.317247 0
M  V30 1732 O 167.165 1.86871 -0.528474 0
M  V30 1733 C 164.295 3.20476 -1.33838 0
M  V30 1734 C 163.249 3.50415 -2.4575 0
M  V30 1735 C 162.575 4.87878 -2.18813 0
M  V30 1736 C 163.875 3.49546 -3.88091 0
M  V30 1737 H 165.569 1.78846 -2.40113 0
M  V30 1738 H 163.115 0.859028 -1.15571 0
M  V30 1739 H 165.068 3.98988 -1.35596 0
M  V30 1740 H 163.792 3.24604 -0.360498 0
M  V30 1741 H 162.451 2.74253 -2.43271 0
M  V30 1742 H 162.099 4.8863 -1.19371 0
M  V30 1743 H 161.799 5.08875 -2.93803 0
M  V30 1744 H 163.323 5.68702 -2.22284 0
M  V30 1745 H 164.737 4.18066 -3.92293 0
M  V30 1746 H 163.134 3.82075 -4.62751 0
M  V30 1747 H 164.204 2.48552 -4.16353 0
M  V30 1748 N 165.547 1.27147 0.931209 0
M  V30 1749 C 166.958 1.12044 1.49342 0
M  V30 1750 C 167.309 -0.295795 1.93957 0
M  V30 1751 O 166.434 -1.18835 1.80852 0
M  V30 1752 C 167.029 2.02781 2.71414 0
M  V30 1753 C 165.588 1.91794 3.2387 0
M  V30 1754 C 164.735 1.95543 1.96617 0
M  V30 1755 H 167.686 1.40091 0.745672 0
M  V30 1756 H 167.707 1.58156 3.46074 0
M  V30 1757 H 167.219 3.05848 2.38911 0
M  V30 1758 H 165.32 0.916992 3.6114 0
M  V30 1759 H 165.433 2.77852 3.90302 0
M  V30 1760 H 163.797 1.39722 2.12955 0
M  V30 1761 H 164.58 3.00259 1.66432 0
M  V30 1762 N 167.025 -1.13721 1.09112 0
M  V30 1763 C 167.988 -2.17222 0.731241 0
M  V30 1764 C 168.988 -1.59035 -0.237566 0
M  V30 1765 O 170.178 -1.74192 -0.0161704 0
M  V30 1766 C 167.31 -3.40804 0.0808443 0
M  V30 1767 H 168.503 -2.50573 1.64783 0
M  V30 1768 H 166.056 -1.28493 0.889897 0
M  V30 1769 H 166.791 -3.1304 -0.847127 0
M  V30 1770 H 166.576 -3.84306 0.777896 0
M  V30 1771 H 168.066 -4.1731 -0.155657 0
M  V30 1772 N 168.503 -0.877838 -1.30888 0
M  V30 1773 C 169.75 -0.492696 -1.96415 0
M  V30 1774 C 170.078 0.956671 -1.69346 0
M  V30 1775 O 169.333 1.68993 -0.986913 0
M  V30 1776 C 169.632 -0.705748 -3.50363 0
M  V30 1777 C 169.298 -2.1291 -3.97467 0
M  V30 1778 C 167.96 -2.51834 -4.1004 0
M  V30 1779 C 170.312 -3.05702 -4.22132 0
M  V30 1780 C 167.64 -3.82775 -4.44635 0
M  V30 1781 C 169.992 -4.36166 -4.58194 0
M  V30 1782 C 168.656 -4.74993 -4.68975 0
M  V30 1783 H 167.926 -0.18029 -0.718733 0
M  V30 1784 H 170.573 -1.11233 -1.55883 0
M  V30 1785 H 168.878 -0.00303058 -3.918 0
M  V30 1786 H 170.575 -0.387456 -3.99124 0
M  V30 1787 H 167.165 -1.81694 -3.88182 0
M  V30 1788 H 171.349 -2.76853 -4.11906 0
M  V30 1789 H 166.605 -4.12609 -4.51181 0
M  V30 1790 H 170.779 -5.08111 -4.76231 0
M  V30 1791 H 168.406 -5.76495 -4.95537 0
M  V30 1792 N 169.982 1.44106 -0.638065 0
M  V30 1793 C 170.945 2.29138 0.0531013 0
M  V30 1794 C 171.945 1.41409 0.765506 0
M  V30 1795 O 173.135 1.63206 0.609046 0
M  V30 1796 C 170.267 3.23144 1.08584 0
M  V30 1797 H 171.46 2.91739 -0.694883 0
M  V30 1798 H 169.013 1.51134 -0.398538 0
M  V30 1799 H 169.748 2.65408 1.86357 0
M  V30 1800 H 169.533 3.87804 0.578852 0
M  V30 1801 H 171.023 3.87004 1.56899 0
M  V30 1802 N 171.46 0.379036 1.52974 0
M  V30 1803 C 172.423 -0.448865 2.24762 0
M  V30 1804 C 173.423 -0.998689 1.26027 0
M  V30 1805 O 174.613 -0.882313 1.50203 0
M  V30 1806 C 171.745 -1.62872 2.99476 0
M  V30 1807 H 172.938 0.179491 2.99362 0
M  V30 1808 H 170.491 0.13096 1.5575 0
M  V30 1809 H 171.226 -2.29479 2.29151 0
M  V30 1810 H 171.011 -1.24128 3.71934 0
M  V30 1811 H 172.501 -2.2151 3.5401 0
M  V30 1812 N 172.938 -1.57226 0.108567 0
M  V30 1813 C 174.178 -1.96717 -0.555155 0
M  V30 1814 C 174.542 -0.990003 -1.64508 0
M  V30 1815 O 175.743 -1.2739 -2.36696 0
M  V30 1816 C 174.014 -3.40575 -1.08367 0
M  V30 1817 S 175.573 -4.02072 -1.75737 0
M  V30 1818 H 172.391 -0.687638 -0.180762 0
M  V30 1819 H 174.993 -1.94563 0.191172 0
M  V30 1820 H 173.697 -4.0945 -0.279092 0
M  V30 1821 H 173.228 -3.46356 -1.86551 0
M  V30 1822 H 175.243 -3.91977 -3.04251 0
M  V30 1823 N 174.416 0.165178 -1.56732 0
M  V30 1824 C 175.664 0.879068 -1.8198 0
M  V30 1825 C 175.985 1.82514 -0.686561 0
M  V30 1826 O 175.255 1.93694 0.293146 0
M  V30 1827 H 173.835 0.327608 -0.671329 0
M  V30 1828 H 176.497 0.163526 -1.94213 0
M  V30 1829 H 175.593 1.45228 -2.76252 0
M  V30 1830 N 175.894 1.51508 0.433938 0
M  V30 1831 C 177.122 1.68157 1.20543 0
M  V30 1832 C 177.537 0.380362 1.84929 0
M  V30 1833 O 176.894 -0.641446 1.70856 0
M  V30 1834 C 176.945 2.79965 2.28696 0
M  V30 1835 O 176.666 4.05045 1.66943 0
M  V30 1836 C 178.167 3.07912 3.18912 0
M  V30 1837 H 175.387 0.56421 0.363191 0
M  V30 1838 H 177.931 1.97941 0.513754 0
M  V30 1839 H 176.086 2.5277 2.93574 0
M  V30 1840 H 176.5 4.67165 2.38448 0
M  V30 1841 H 177.974 3.89719 3.90926 0
M  V30 1842 H 178.451 2.20456 3.79863 0
M  V30 1843 H 179.057 3.36779 2.59731 0
M  V30 1844 N 177.372 -0.689602 1.41712 0
M  V30 1845 C 178.597 -1.48329 1.44959 0
M  V30 1846 C 179.022 -1.8801 0.0581283 0
M  V30 1847 O 178.38 -1.55026 -0.940035 0
M  V30 1848 C 178.428 -2.71835 2.36935 0
M  V30 1849 O 177.532 -3.69549 1.8305 0
M  V30 1850 H 176.873 -0.446199 0.491734 0
M  V30 1851 H 179.403 -0.847127 1.86239 0
M  V30 1852 H 179.413 -3.20076 2.53013 0
M  V30 1853 H 178.088 -2.42291 3.38035 0
M  V30 1854 H 176.665 -3.2851 1.76452 0
M  V30 1855 N 178.85 -1.27639 -0.924453 0
M  V30 1856 C 180.097 -1.14167 -1.67249 0
M  V30 1857 C 180.425 0.311863 -1.91984 0
M  V30 1858 O 179.68 1.24425 -1.51053 0
M  V30 1859 C 179.979 -1.87407 -3.04325 0
M  V30 1860 C 179.645 -3.37249 -2.99289 0
M  V30 1861 C 178.307 -3.7812 -2.97622 0
M  V30 1862 C 180.659 -4.32845 -2.90336 0
M  V30 1863 C 177.987 -5.12944 -2.8479 0
M  V30 1864 C 180.339 -5.6773 -2.79045 0
M  V30 1865 C 179.003 -6.07889 -2.7573 0
M  V30 1866 H 178.273 -0.417766 -0.612007 0
M  V30 1867 H 180.92 -1.58286 -1.07786 0
M  V30 1868 H 179.225 -1.35805 -3.67511 0
M  V30 1869 H 180.922 -1.74408 -3.61086 0
M  V30 1870 H 177.512 -3.04748 -3.01374 0
M  V30 1871 H 181.696 -4.02239 -2.90719 0
M  V30 1872 H 176.952 -5.432 -2.80612 0
M  V30 1873 H 181.126 -6.41472 -2.71083 0
M  V30 1874 H 178.753 -7.12314 -2.65544 0
M  V30 1875 N 180.328 1.1314 -1.09713 0
M  V30 1876 C 181.291 2.16831 -0.742751 0
M  V30 1877 C 182.291 1.59159 0.229129 0
M  V30 1878 O 183.481 1.74199 0.00693237 0
M  V30 1879 C 180.613 3.40756 -0.0989168 0
M  V30 1880 H 181.806 2.49695 -1.66109 0
M  V30 1881 H 179.359 1.2802 -0.896699 0
M  V30 1882 H 180.094 3.13485 0.830514 0
M  V30 1883 H 179.879 3.83888 -0.798265 0
M  V30 1884 H 181.369 4.17386 0.133524 0
M  V30 1885 N 181.806 0.884767 1.30421 0
M  V30 1886 C 183.052 0.503851 1.96441 0
M  V30 1887 C 183.385 -0.944518 1.69684 0
M  V30 1888 O 182.66 -1.66737 1.00145 0
M  V30 1889 C 182.943 0.779085 3.51571 0
M  V30 1890 C 182.796 2.27807 3.87846 0
M  V30 1891 C 184.115 0.255452 4.39358 0
M  V30 1892 H 181.234 0.184533 0.713524 0
M  V30 1893 H 183.876 1.10872 1.54297 0
M  V30 1894 H 182.026 0.264274 3.876 0
M  V30 1895 H 183.698 2.86127 3.61841 0
M  V30 1896 H 181.941 2.74479 3.35922 0
M  V30 1897 H 182.612 2.42125 4.96064 0
M  V30 1898 H 185.088 0.696079 4.10236 0
M  V30 1899 H 183.964 0.477361 5.4682 0
M  V30 1900 H 184.225 -0.843293 4.33983 0
M  V30 1901 N 183.284 -1.43765 0.645699 0
M  V30 1902 C 184.247 -2.29163 -0.0409488 0
M  V30 1903 C 185.247 -1.41813 -0.757996 0
M  V30 1904 O 186.437 -1.63527 -0.600382 0
M  V30 1905 C 183.569 -3.23716 -1.06869 0
M  V30 1906 H 184.762 -2.91366 0.710345 0
M  V30 1907 H 182.315 -1.5092 0.406547 0
M  V30 1908 H 183.05 -2.66393 -1.84947 0
M  V30 1909 H 182.835 -3.88105 -0.558277 0
M  V30 1910 H 184.325 -3.87831 -1.54845 0
M  V30 1911 N 184.763 -0.387143 -1.52771 0
M  V30 1912 C 186.04 0.253197 -1.93954 0
M  V30 1913 C 186.42 1.64545 -1.32243 0
M  V30 1914 O 185.768 2.23191 -0.489699 0
M  V30 1915 C 185.978 0.281722 -3.47861 0
M  V30 1916 C 187.326 0.511715 -4.21505 0
M  V30 1917 O 188.35 0.362023 -3.54356 0
M  V30 1918 O 187.209 0.804847 -5.40541 0
M  V30 1919 H 184.303 0.156845 -0.811991 0
M  V30 1920 H 186.849 -0.441494 -1.63856 0
M  V30 1921 H 185.621 -0.693571 -3.85104 0
M  V30 1922 H 185.244 1.02142 -3.84256 0
M  V30 1923 N 186.241 1.57166 -0.116904 0
M  V30 1924 C 187.204 2.14039 0.819742 0
M  V30 1925 C 188.204 1.07477 1.19605 0
M  V30 1926 O 189.394 1.33263 1.1219 0
M  V30 1927 C 186.526 2.67891 2.10826 0
M  V30 1928 H 187.719 2.98128 0.325511 0
M  V30 1929 H 185.272 1.55739 0.132312 0
M  V30 1930 H 186.007 1.87384 2.64685 0
M  V30 1931 H 185.792 3.45823 1.84793 0
M  V30 1932 H 187.282 3.11809 2.77785 0
M  V30 1933 N 187.719 -0.156864 1.56817 0
M  V30 1934 C 189.13 -0.717916 1.72345 0
M  V30 1935 C 189.481 -1.82124 0.729747 0
M  V30 1936 O 188.606 -2.16141 -0.105781 0
M  V30 1937 C 189.201 -1.30904 3.12489 0
M  V30 1938 C 187.76 -1.81676 3.29653 0
M  V30 1939 C 186.907 -0.701349 2.68284 0
M  V30 1940 H 189.858 0.0686989 1.58551 0
M  V30 1941 H 189.879 -2.17882 3.11942 0
M  V30 1942 H 189.391 -0.505796 3.8479 0
M  V30 1943 H 187.492 -2.64598 2.62333 0
M  V30 1944 H 187.605 -1.95226 4.3752 0
M  V30 1945 H 185.969 -1.12548 2.28484 0
M  V30 1946 H 186.752 0.0902846 3.43181 0
M  V30 1947 N 189.197 -1.51736 -0.425897 0
M  V30 1948 C 190.446 -1.64201 -1.17136 0
M  V30 1949 C 190.759 -0.369705 -1.92074 0
M  V30 1950 O 191.965 -0.373898 -2.68913 0
M  V30 1951 C 190.421 -2.90035 -2.13091 0
M  V30 1952 C 190.029 -4.24312 -1.43747 0
M  V30 1953 C 191.773 -3.1186 -2.87999 0
M  V30 1954 C 189.68 -5.41285 -2.38253 0
M  V30 1955 H 188.61 -0.611624 -0.440944 0
M  V30 1956 H 191.261 -1.78212 -0.437328 0
M  V30 1957 H 189.643 -2.69684 -2.89977 0
M  V30 1958 H 190.817 -4.55086 -0.723408 0
M  V30 1959 H 189.132 -4.08456 -0.809465 0
M  V30 1960 H 191.729 -3.96427 -3.58817 0
M  V30 1961 H 192.072 -2.25403 -3.49999 0
M  V30 1962 H 192.605 -3.32605 -2.18217 0
M  V30 1963 H 189.344 -6.30037 -1.80925 0
M  V30 1964 H 188.864 -5.14872 -3.0768 0
M  V30 1965 H 190.543 -5.73694 -2.99139 0
M  V30 1966 N 190.675 0.682077 -1.42076 0
M  V30 1967 C 191.905 1.46844 -1.45329 0
M  V30 1968 C 192.313 1.89102 -0.0609328 0
M  V30 1969 O 191.656 1.58238 0.933082 0
M  V30 1970 C 191.718 2.75375 -2.31104 0
M  V30 1971 C 191.382 2.55238 -3.79081 0
M  V30 1972 C 192.379 2.20309 -4.70914 0
M  V30 1973 C 190.064 2.70459 -4.2327 0
M  V30 1974 C 192.058 2.00859 -6.04925 0
M  V30 1975 C 189.745 2.50624 -5.57343 0
M  V30 1976 C 190.743 2.15876 -6.47986 0
M  V30 1977 O 190.431 1.96227 -7.79583 0
M  V30 1978 H 190.163 0.4586 -0.496651 0
M  V30 1979 H 192.717 0.846131 -1.87162 0
M  V30 1980 H 190.947 3.40061 -1.84107 0
M  V30 1981 H 192.636 3.37231 -2.25898 0
M  V30 1982 H 193.402 2.08153 -4.38061 0
M  V30 1983 H 189.281 2.96485 -3.53012 0
M  V30 1984 H 192.825 1.7366 -6.75639 0
M  V30 1985 H 188.722 2.62375 -5.89771 0
M  V30 1986 H 189.49 2.10883 -7.90867 0
M  V30 1987 N 192.153 1.28127 0.917671 0
M  V30 1988 C 193.399 1.15223 1.66888 0
M  V30 1989 C 193.732 -0.299293 1.9188 0
M  V30 1990 O 193.007 -1.21805 1.51637 0
M  V30 1991 C 193.29 1.94706 3.02922 0
M  V30 1992 C 193.143 3.47898 2.85109 0
M  V30 1993 C 194.462 1.75939 4.03402 0
M  V30 1994 H 191.581 0.419946 0.605652 0
M  V30 1995 H 194.223 1.57398 1.06423 0
M  V30 1996 H 192.373 1.58864 3.54534 0
M  V30 1997 H 194.045 3.93624 2.40537 0
M  V30 1998 H 192.288 3.7373 2.20246 0
M  V30 1999 H 192.959 3.98765 3.81694 0
M  V30 2000 H 195.435 2.07209 3.60837 0
M  V30 2001 H 194.311 2.33931 4.96556 0
M  V30 2002 H 194.572 0.709877 4.36364 0
M  V30 2003 N 193.631 -1.12557 1.10312 0
M  V30 2004 C 194.578 -2.18247 0.750781 0
M  V30 2005 C 195.548 -1.63853 -0.272293 0
M  V30 2006 O 196.733 -1.90195 -0.151862 0
M  V30 2007 C 193.873 -3.44591 0.187379 0
M  V30 2008 C 192.986 -4.13046 1.2656 0
M  V30 2009 C 192.121 -5.27034 0.663978 0
M  V30 2010 C 191.16 -5.87353 1.72287 0
M  V30 2011 N 190.297 -6.92757 1.1416 0
M  V30 2012 H 195.137 -2.47732 1.65628 0
M  V30 2013 H 192.674 -1.21629 0.827337 0
M  V30 2014 H 194.632 -4.16904 -0.157148 0
M  V30 2015 H 193.262 -3.15527 -0.681355 0
M  V30 2016 H 192.314 -3.38924 1.72727 0
M  V30 2017 H 193.626 -4.53947 2.06721 0
M  V30 2018 H 192.78 -6.06104 0.268824 0
M  V30 2019 H 191.519 -4.87407 -0.169082 0
M  V30 2020 H 190.524 -5.06971 2.12746 0
M  V30 2021 H 191.749 -6.29051 2.55875 0
M  V30 2022 H 189.695 -6.5517 0.329984 0
M  V30 2023 H 189.612 -7.3225 1.88007 0
M  V30 2024 H 190.88 -7.75658 0.772956 0
M  V30 2025 N 195.109 -0.891671 -1.2995 0
M  V30 2026 C 196.057 -0.353066 -2.29905 0
M  V30 2027 C 197.051 0.543509 -1.60444 0
M  V30 2028 O 198.257 0.4272 -1.74857 0
M  V30 2029 H 194.632 -0.095531 -0.745907 0
M  V30 2030 H 196.603 -1.20961 -2.72784 0
M  V30 2031 C 195.352 0.411475 -3.45257 0
M  V30 2032 H 194.675 -0.269182 -3.98893 0
M  V30 2033 H 196.115 0.753328 -4.17254 0
M  V30 2034 C 194.574 1.6111 -2.9588 0
M  V30 2035 O 195.104 2.71045 -2.96475 0
M  V30 2036 N 193.31 1.45054 -2.51809 0
M  V30 2037 H 192.857 0.556175 -2.51524 0
M  V30 2038 H 192.815 2.25453 -2.1913 0
M  V30 2039 N 196.587 1.43421 -0.653314 0
M  V30 2040 C 197.55 2.29182 0.0287951 0
M  V30 2041 C 198.55 1.42213 0.750465 0
M  V30 2042 O 199.74 1.63843 0.591701 0
M  V30 2043 C 196.872 3.24278 1.05151 0
M  V30 2044 H 198.065 2.90985 -0.725786 0
M  V30 2045 H 195.618 1.50702 -0.414545 0
M  V30 2046 H 196.353 2.6737 1.83532 0
M  V30 2047 H 196.138 3.88396 0.537687 0
M  V30 2048 H 197.628 3.88647 1.52786 0
M  V30 2049 N 198.065 0.39524 1.52563 0
M  V30 2050 C 199.311 -0.185318 2.01952 0
M  V30 2051 C 199.644 -1.45964 1.28095 0
M  V30 2052 O 198.919 -1.90689 0.38315 0
M  V30 2053 C 199.202 -0.447193 3.57312 0
M  V30 2054 C 199.055 0.842828 4.41833 0
M  V30 2055 C 200.374 -1.23529 4.22408 0
M  V30 2056 H 197.493 -0.0658788 0.73405 0
M  V30 2057 H 200.135 0.525975 1.82575 0
M  V30 2058 H 198.285 -1.05312 3.73954 0
M  V30 2059 H 199.957 1.4795 4.36931 0
M  V30 2060 H 198.2 1.45686 4.08605 0
M  V30 2061 H 198.871 0.614165 5.48573 0
M  V30 2062 H 201.347 -0.722445 4.0978 0
M  V30 2063 H 200.223 -1.38727 5.3108 0
M  V30 2064 H 200.484 -2.25213 3.80436 0
M  V30 2065 N 199.544 -1.57102 0.125237 0
M  V30 2066 C 200.821 -1.86953 -0.575142 0
M  V30 2067 C 201.201 -1.02749 -1.84407 0
M  V30 2068 O 200.549 -0.108144 -2.28244 0
M  V30 2069 C 200.759 -3.38198 -0.861583 0
M  V30 2070 C 202.107 -4.06937 -1.21192 0
M  V30 2071 O 203.131 -3.43252 -0.951645 0
M  V30 2072 O 201.99 -5.19364 -1.70068 0
M  V30 2073 H 199.084 -0.774147 -0.290906 0
M  V30 2074 H 201.63 -1.68942 0.160211 0
M  V30 2075 H 200.402 -3.91282 0.0373647 0
M  V30 2076 H 200.025 -3.61661 -1.65188 0
M  V30 2077 N 201.022 0.148545 -1.56898 0
M  V30 2078 C 201.972 1.1886 -1.94567 0
M  V30 2079 C 202.956 1.3863 -0.816735 0
M  V30 2080 O 204.148 1.40218 -1.08018 0
M  V30 2081 C 201.277 2.52262 -2.32849 0
M  V30 2082 C 200.363 2.36092 -3.52309 0
M  V30 2083 N 200.754 1.89674 -4.6889 0
M  V30 2084 C 199.052 2.66848 -3.57363 0
M  V30 2085 C 199.753 1.86511 -5.50989 0
M  V30 2086 N 198.729 2.29766 -4.92655 0
M  V30 2087 H 202.531 0.821793 -2.82177 0
M  V30 2088 H 200.045 0.356615 -1.58436 0
M  V30 2089 H 202.042 3.27447 -2.58039 0
M  V30 2090 H 200.702 2.89727 -1.46589 0
M  V30 2091 H 201.713 1.59663 -4.92674 0
M  V30 2092 H 198.39 3.08198 -2.81639 0
M  V30 2093 H 199.78 1.52128 -6.54452 0
M  V30 2094 N 202.5 1.5196 0.417844 0
M  V30 2095 C 203.746 1.65836 1.16732 0
M  V30 2096 C 204.079 0.382881 1.90388 0
M  V30 2097 O 203.354 -0.618368 1.84408 0
M  V30 2098 C 203.637 2.87466 2.16876 0
M  V30 2099 C 203.49 4.25041 1.47174 0
M  V30 2100 C 204.809 3.04613 3.17646 0
M  V30 2101 H 201.928 0.603515 0.423011 0
M  V30 2102 H 204.57 1.84494 0.454105 0
M  V30 2103 H 202.72 2.71689 2.777 0
M  V30 2104 H 204.392 4.52527 0.895376 0
M  V30 2105 H 202.635 4.26843 0.773806 0
M  V30 2106 H 203.306 5.06176 2.20204 0
M  V30 2107 H 205.782 3.1923 2.66892 0
M  V30 2108 H 204.658 3.91247 3.8499 0
M  V30 2109 H 204.919 2.17541 3.84874 0
M  V30 2110 N 203.978 -0.674533 1.42435 0
M  V30 2111 C 204.908 -1.80009 1.48724 0
M  V30 2112 C 205.889 -1.6659 0.343793 0
M  V30 2113 O 207.074 -1.86007 0.558137 0
M  V30 2114 C 204.204 -3.18306 1.38919 0
M  V30 2115 C 203.158 -3.46461 2.51294 0
M  V30 2116 C 202.484 -4.84335 2.26547 0
M  V30 2117 C 203.784 -3.43328 3.93603 0
M  V30 2118 H 205.478 -1.75004 2.42928 0
M  V30 2119 H 203.024 -0.840533 1.16923 0
M  V30 2120 H 204.977 -3.9678 1.41927 0
M  V30 2121 H 203.701 -3.2399 0.412094 0
M  V30 2122 H 202.36 -2.70348 2.47604 0
M  V30 2123 H 202.008 -4.86669 1.2713 0
M  V30 2124 H 201.708 -5.04136 3.01861 0
M  V30 2125 H 203.232 -5.65094 2.31304 0
M  V30 2126 H 204.646 -4.11772 3.98894 0
M  V30 2127 H 203.043 -3.74664 4.68771 0
M  V30 2128 H 204.113 -2.41897 4.20255 0
M  V30 2129 N 205.456 -1.28612 -0.910864 0
M  V30 2130 C 206.681 -1.1891 -1.69927 0
M  V30 2131 C 207.106 0.248372 -1.86453 0
M  V30 2132 O 206.464 1.17961 -1.37676 0
M  V30 2133 C 206.512 -1.89578 -3.06745 0
M  V30 2134 O 205.616 -1.20521 -3.94396 0
M  V30 2135 H 204.957 -0.412632 -0.520222 0
M  V30 2136 H 207.487 -1.69985 -1.1387 0
M  V30 2137 H 207.497 -1.97597 -3.56958 0
M  V30 2138 H 206.172 -2.94136 -2.94035 0
M  V30 2139 H 204.749 -1.20684 -3.52831 0
M  V30 2140 N 206.934 1.1197 -1.10907 0
M  V30 2141 C 208.162 1.87402 -0.876824 0
M  V30 2142 C 208.577 1.79894 0.573025 0
M  V30 2143 O 207.934 1.17629 1.39534 0
M  V30 2144 C 207.985 3.36428 -1.32282 0
M  V30 2145 O 207.706 3.43765 -2.71582 0
M  V30 2146 C 209.207 4.28783 -1.12518 0
M  V30 2147 H 206.427 0.592793 -0.314384 0
M  V30 2148 H 208.971 1.41649 -1.47499 0
M  V30 2149 H 207.126 3.79706 -0.768229 0
M  V30 2150 H 207.54 4.3652 -2.90776 0
M  V30 2151 H 209.014 5.31613 -1.48633 0
M  V30 2152 H 209.491 4.39153 -0.0642394 0
M  V30 2153 H 210.097 3.91291 -1.66648 0
M  V30 2154 N 208.412 0.89855 1.29475 0
M  V30 2155 C 209.362 0.346767 2.25348 0
M  V30 2156 C 210.346 -0.532509 1.51833 0
M  V30 2157 O 211.538 -0.374714 1.72988 0
M  V30 2158 C 208.667 -0.425681 3.40651 0
M  V30 2159 C 207.753 0.46845 4.21505 0
M  V30 2160 N 208.144 1.57514 4.80648 0
M  V30 2161 C 206.442 0.26603 4.45206 0
M  V30 2162 C 207.143 2.12889 5.41344 0
M  V30 2163 N 206.119 1.42208 5.24669 0
M  V30 2164 H 209.921 1.19219 2.68634 0
M  V30 2165 H 207.435 0.749473 1.44072 0
M  V30 2166 H 209.432 -0.837716 4.08397 0
M  V30 2167 H 208.092 -1.26838 2.98902 0
M  V30 2168 H 209.103 1.95789 4.79465 0
M  V30 2169 H 205.78 -0.538394 4.14014 0
M  V30 2170 H 207.17 3.05901 5.98226 0
M  V30 2171 N 209.89 -1.43072 0.660911 0
M  V30 2172 C 211.138 -2.01323 0.177094 0
M  V30 2173 C 211.459 -1.5245 -1.2159 0
M  V30 2174 O 210.729 -0.740322 -1.81373 0
M  V30 2175 H 209.309 -0.744382 0.0624804 0
M  V30 2176 H 211.971 -1.75179 0.854305 0
M  V30 2177 H 211.067 -3.11649 0.167641 0
M  V30 2178 N 211.368 -0.403325 -1.52352 0
M  V30 2179 C 212.616 0.174003 -2.0135 0
M  V30 2180 C 212.937 1.46139 -1.29106 0
M  V30 2181 O 212.207 1.91448 -0.415253 0
M  V30 2182 H 210.787 0.0672911 -0.743963 0
M  V30 2183 H 213.449 -0.538235 -1.87321 0
M  V30 2184 H 212.545 0.374254 -3.09848 0
M  V30 2185 N 212.846 1.57033 -0.133567 0
M  V30 2186 C 213.793 2.16074 0.811208 0
M  V30 2187 C 214.763 1.08979 1.2535 0
M  V30 2188 O 215.948 1.36958 1.32843 0
M  V30 2189 C 213.088 2.77595 2.05024 0
M  V30 2190 C 212.201 3.99042 1.65498 0
M  V30 2191 C 211.336 4.48603 2.84479 0
M  V30 2192 C 210.375 5.62547 2.41262 0
M  V30 2193 N 209.512 6.06787 3.53206 0
M  V30 2194 H 214.352 2.96477 0.300906 0
M  V30 2195 H 211.889 1.46462 0.136822 0
M  V30 2196 H 213.847 3.11402 2.77642 0
M  V30 2197 H 212.477 1.99859 2.53488 0
M  V30 2198 H 211.529 3.71302 0.826981 0
M  V30 2199 H 212.841 4.81629 1.29748 0
M  V30 2200 H 211.995 4.84395 3.65303 0
M  V30 2201 H 210.734 3.64995 3.23465 0
M  V30 2202 H 209.739 5.26345 1.58874 0
M  V30 2203 H 210.964 6.47931 2.03377 0
M  V30 2204 H 208.91 5.26117 3.91838 0
M  V30 2205 H 208.827 6.84266 3.21427 0
M  V30 2206 H 210.095 6.4722 4.34427 0
M  V30 2207 N 214.325 -0.140222 1.56975 0
M  V30 2208 C 215.573 -0.850005 1.83356 0
M  V30 2209 C 215.894 -1.81399 0.71551 0
M  V30 2210 O 215.164 -1.94136 -0.262294 0
M  V30 2211 H 213.744 -0.316886 0.676456 0
M  V30 2212 H 216.406 -0.132608 1.94448 0
M  V30 2213 H 215.502 -1.40814 2.78528 0
M  V30 2214 N 215.803 -1.52179 -0.40978 0
M  V30 2215 C 216.766 -1.74853 -1.48186 0
M  V30 2216 C 217.766 -0.618417 -1.48433 0
M  V30 2217 O 218.956 -0.886286 -1.49969 0
M  V30 2218 C 216.088 -1.8303 -2.87598 0
M  V30 2219 H 217.281 -2.70559 -1.29374 0
M  V30 2220 H 214.834 -1.42586 -0.640233 0
M  V30 2221 H 215.569 -0.89236 -3.11781 0
M  V30 2222 H 215.354 -2.65187 -2.88822 0
M  V30 2223 H 216.844 -2.02316 -3.65319 0
M  V30 2224 N 217.281 0.66697 -1.42791 0
M  V30 2225 C 218.528 1.42699 -1.43678 0
M  V30 2226 C 218.856 1.94419 -0.0560425 0
M  V30 2227 O 218.111 1.7182 0.936831 0
M  V30 2228 C 218.41 2.6349 -2.4147 0
M  V30 2229 C 218.076 2.30267 -3.8767 0
M  V30 2230 C 216.738 2.20918 -4.27491 0
M  V30 2231 C 219.09 2.03435 -4.79858 0
M  V30 2232 C 216.418 1.82873 -5.57471 0
M  V30 2233 C 218.77 1.66892 -6.10188 0
M  V30 2234 C 217.434 1.56058 -6.49001 0
M  V30 2235 H 216.704 0.522171 -0.525755 0
M  V30 2236 H 219.351 0.759785 -1.75783 0
M  V30 2237 H 217.656 3.35279 -2.0272 0
M  V30 2238 H 219.353 3.21684 -2.39417 0
M  V30 2239 H 215.943 2.38449 -3.56146 0
M  V30 2240 H 220.127 2.09586 -4.49875 0
M  V30 2241 H 215.383 1.7306 -5.86396 0
M  V30 2242 H 219.557 1.45157 -6.81104 0
M  V30 2243 H 217.184 1.26348 -7.49627 0
M  V30 2244 N 218.759 1.29093 0.90403 0
M  V30 2245 C 220.175 1.07011 1.1841 0
M  V30 2246 C 220.375 -0.181358 2.00682 0
M  V30 2247 O 219.431 -0.880331 2.36657 0
M  V30 2248 C 220.744 2.32311 1.90924 0
M  V30 2249 C 222.292 2.37587 2.03768 0
M  V30 2250 C 222.767 3.62679 2.79693 0
M  V30 2251 N 224.258 3.63376 2.87249 0
M  V30 2252 C 224.993 4.56848 3.46522 0
M  V30 2253 N 224.489 5.60648 4.06996 0
M  V30 2254 N 226.282 4.44426 3.44154 0
M  V30 2255 H 218.433 2.09412 0.354993 0
M  V30 2256 H 220.696 0.922181 0.219742 0
M  V30 2257 H 220.402 3.23536 1.37905 0
M  V30 2258 H 220.276 2.39483 2.91424 0
M  V30 2259 H 222.663 1.46853 2.55965 0
M  V30 2260 H 222.744 2.34403 1.02415 0
M  V30 2261 H 222.388 4.53762 2.28173 0
M  V30 2262 H 222.318 3.63119 3.81381 0
M  V30 2263 H 224.809 2.88321 2.44293 0
M  V30 2264 H 225.122 6.28101 4.50232 0
M  V30 2265 H 223.467 5.64463 4.05471 0
M  V30 2266 H 226.658 3.62529 2.96126 0
M  V30 2267 H 226.831 5.17457 3.90054 0
M  V30 2268 N 220.237 -1.11381 1.11499 0
M  V30 2269 C 221.147 -2.21019 0.786628 0
M  V30 2270 C 222.163 -1.72597 -0.220507 0
M  V30 2271 O 223.339 -2.01321 -0.0565251 0
M  V30 2272 C 220.404 -3.459 0.235333 0
M  V30 2273 C 219.465 -4.09107 1.30115 0
M  V30 2274 C 218.698 -5.28027 0.776068 0
M  V30 2275 O 218.921 -5.6904 -0.393661 0
M  V30 2276 O 217.855 -5.81835 1.54114 0
M  V30 2277 H 221.681 -2.51521 1.70209 0
M  V30 2278 H 219.266 -1.19928 0.890928 0
M  V30 2279 H 221.148 -4.21346 -0.067715 0
M  V30 2280 H 219.823 -3.17049 -0.652828 0
M  V30 2281 H 218.73 -3.35391 1.65722 0
M  V30 2282 H 220.063 -4.42139 2.16273 0
M  V30 2283 N 221.715 -0.905404 -1.28997 0
M  V30 2284 C 222.648 -0.331959 -2.25773 0
M  V30 2285 C 223.626 0.559099 -1.52685 0
M  V30 2286 O 224.81 0.50463 -1.8162 0
M  V30 2287 C 221.937 0.526276 -3.34586 0
M  V30 2288 C 220.983 -0.298249 -4.25456 0
M  V30 2289 S 221.816 -1.69968 -5.0781 0
M  V30 2290 C 222.972 -0.848519 -6.20122 0
M  V30 2291 H 223.205 -1.15222 -2.74064 0
M  V30 2292 H 220.738 -0.706112 -1.37308 0
M  V30 2293 H 222.696 1.01565 -3.97737 0
M  V30 2294 H 221.357 1.32084 -2.84978 0
M  V30 2295 H 220.55 0.357607 -5.0273 0
M  V30 2296 H 220.152 -0.720968 -3.66985 0
M  V30 2297 H 222.444 -0.0744325 -6.77459 0
M  V30 2298 H 223.387 -1.59353 -6.89937 0
M  V30 2299 H 223.795 -0.400383 -5.63078 0
M  V30 2300 N 223.193 1.4272 -0.668489 0
M  V30 2301 C 224.418 2.06484 -0.194758 0
M  V30 2302 C 224.843 1.49862 1.13679 0
M  V30 2303 O 224.201 0.614582 1.70565 0
M  V30 2304 C 224.249 3.60353 -0.133546 0
M  V30 2305 O 223.353 4.02464 0.899806 0
M  V30 2306 H 222.694 0.656137 -0.10188 0
M  V30 2307 H 225.224 1.82964 -0.915722 0
M  V30 2308 H 225.234 4.07976 0.0447041 0
M  V30 2309 H 223.909 4.00938 -1.1055 0
M  V30 2310 H 222.486 3.66402 0.693109 0
M  V30 2311 N 224.671 0.411399 1.52136 0
M  V30 2312 C 225.948 -0.222308 1.94333 0
M  V30 2313 C 226.328 -1.6242 1.34844 0
M  V30 2314 O 225.676 -2.22384 0.525145 0
M  V30 2315 C 225.886 -0.226345 3.48265 0
M  V30 2316 C 227.234 -0.444592 4.22266 0
M  V30 2317 O 228.258 -0.305602 3.54887 0
M  V30 2318 O 227.117 -0.718749 5.41753 0
M  V30 2319 H 224.211 -0.143907 0.814383 0
M  V30 2320 H 226.757 0.467506 1.63133 0
M  V30 2321 H 225.529 0.75475 3.83952 0
M  V30 2322 H 225.152 -0.960163 3.85832 0
M  V30 2323 N 226.149 -1.5696 0.141893 0
M  V30 2324 C 227.082 -2.12271 -0.837627 0
M  V30 2325 C 228.06 -1.04495 -1.24578 0
M  V30 2326 O 229.244 -1.32293 -1.34278 0
M  V30 2327 C 226.371 -2.63822 -2.12404 0
M  V30 2328 C 225.417 -3.83698 -1.86221 0
M  V30 2329 S 226.25 -5.24948 -1.05781 0
M  V30 2330 C 227.406 -5.79884 -2.35552 0
M  V30 2331 H 227.639 -2.95023 -0.367249 0
M  V30 2332 H 225.172 -1.54231 -0.0723014 0
M  V30 2333 H 227.13 -2.94175 -2.86307 0
M  V30 2334 H 225.791 -1.8121 -2.56557 0
M  V30 2335 H 224.984 -4.17995 -2.81596 0
M  V30 2336 H 224.586 -3.5408 -1.20429 0
M  V30 2337 H 226.878 -5.91005 -3.31239 0
M  V30 2338 H 227.821 -6.77544 -2.05767 0
M  V30 2339 H 228.229 -5.08095 -2.45967 0
M  V30 2340 N 227.627 0.131896 -1.57047 0
M  V30 2341 C 228.876 0.84044 -1.83356 0
M  V30 2342 C 229.189 1.81646 -0.725535 0
M  V30 2343 O 230.395 2.57025 -0.874659 0
M  V30 2344 C 228.851 1.54528 -3.25037 0
M  V30 2345 C 228.459 0.610902 -4.43815 0
M  V30 2346 C 230.203 2.23972 -3.60606 0
M  V30 2347 C 228.11 1.31823 -5.76521 0
M  V30 2348 H 227.04 0.317599 -0.683847 0
M  V30 2349 H 229.691 0.0931561 -1.83263 0
M  V30 2350 H 228.073 2.33873 -3.19561 0
M  V30 2351 H 229.247 -0.148407 -4.60561 0
M  V30 2352 H 227.562 0.0241016 -4.16393 0
M  V30 2353 H 230.159 2.77558 -4.57018 0
M  V30 2354 H 230.502 3.01173 -2.87403 0
M  V30 2355 H 231.035 1.51529 -3.6781 0
M  V30 2356 H 227.774 0.587771 -6.52859 0
M  V30 2357 H 227.294 2.04987 -5.63685 0
M  V30 2358 H 228.973 1.855 -6.19838 0
M  V30 2359 N 229.106 1.52395 0.401703 0
M  V30 2360 C 230.036 1.79231 1.49661 0
M  V30 2361 C 231.017 0.643654 1.57452 0
M  V30 2362 O 232.202 0.889989 1.72606 0
M  V30 2363 C 229.332 1.94971 2.87409 0
M  V30 2364 C 228.286 3.10604 2.94465 0
M  V30 2365 C 227.612 3.11577 4.34538 0
M  V30 2366 C 228.912 4.49921 2.6527 0
M  V30 2367 H 230.606 2.70917 1.27454 0
M  V30 2368 H 228.152 1.30362 0.6117 0
M  V30 2369 H 230.105 2.12328 3.63999 0
M  V30 2370 H 228.829 0.999632 3.10926 0
M  V30 2371 H 227.488 2.93009 2.20321 0
M  V30 2372 H 227.136 2.14277 4.55076 0
M  V30 2373 H 226.836 3.89247 4.40183 0
M  V30 2374 H 228.36 3.31073 5.13053 0
M  V30 2375 H 229.774 4.67683 3.31581 0
M  V30 2376 H 228.171 5.29564 2.82281 0
M  V30 2377 H 229.241 4.57507 1.60671 0
M  V30 2378 N 230.584 -0.659388 1.43143 0
M  V30 2379 C 231.516 -1.7849 1.43784 0
M  V30 2380 C 232.529 -1.5932 0.334787 0
M  V30 2381 O 233.718 -1.68155 0.598842 0
M  V30 2382 C 230.818 -3.15828 1.22906 0
M  V30 2383 C 229.991 -3.61711 2.45934 0
M  V30 2384 C 229.05 -4.77831 2.20371 0
M  V30 2385 O 228.076 -4.87586 2.93681 0
M  V30 2386 N 229.278 -5.67611 1.21647 0
M  V30 2387 H 232.043 -1.7842 2.40803 0
M  V30 2388 H 229.604 -0.84302 1.3822 0
M  V30 2389 H 231.596 -3.91189 1.03697 0
M  V30 2390 H 230.166 -3.10707 0.343542 0
M  V30 2391 H 229.386 -2.76861 2.80609 0
M  V30 2392 H 230.674 -3.89112 3.27825 0
M  V30 2393 H 230.072 -5.62397 0.610449 0
M  V30 2394 H 228.629 -6.42719 1.08423 0
M  V30 2395 N 232.062 -1.29571 -0.897171 0
M  V30 2396 C 233.025 -1.14913 -1.98312 0
M  V30 2397 C 234.025 -0.0838629 -1.60581 0
M  V30 2398 O 235.215 -0.331006 -1.71026 0
M  V30 2399 C 232.347 -0.757835 -3.3237 0
M  V30 2400 H 233.54 -2.11377 -2.12743 0
M  V30 2401 H 231.093 -1.12793 -1.08201 0
M  V30 2402 H 231.828 0.206837 -3.2364 0
M  V30 2403 H 231.613 -1.52755 -3.61121 0
M  V30 2404 H 233.103 -0.678408 -4.12053 0
M  V30 2405 N 233.54 1.10788 -1.12088 0
M  V30 2406 C 234.472 2.16816 -0.743213 0
M  V30 2407 C 235.485 1.6119 0.228412 0
M  V30 2408 O 236.674 1.78497 0.0102931 0
M  V30 2409 C 233.774 3.38809 -0.0787313 0
M  V30 2410 C 232.947 4.23885 -1.0789 0
M  V30 2411 C 232.006 5.24334 -0.442713 0
M  V30 2412 O 231.032 5.58497 -1.09864 0
M  V30 2413 N 232.234 5.75079 0.791457 0
M  V30 2414 H 234.999 2.49825 -1.65552 0
M  V30 2415 H 232.56 1.26373 -1.012 0
M  V30 2416 H 234.552 4.03107 0.358766 0
M  V30 2417 H 233.122 3.03805 0.736275 0
M  V30 2418 H 232.342 3.55939 -1.69414 0
M  V30 2419 H 233.63 4.77562 -1.75533 0
M  V30 2420 H 233.028 5.49517 1.3434 0
M  V30 2421 H 231.585 6.4118 1.17183 0
M  V30 2422 N 235.018 0.912232 1.28515 0
M  V30 2423 C 236.266 0.543523 1.94654 0
M  V30 2424 C 236.587 -0.9155 1.72173 0
M  V30 2425 O 235.857 -1.64708 1.06058 0
M  V30 2426 H 234.437 0.198017 0.720277 0
M  V30 2427 H 237.099 1.16126 1.56527 0
M  V30 2428 H 236.195 0.736684 3.03281 0
M  V30 2429 N 236.496 -1.42363 0.676048 0
M  V30 2430 C 237.443 -2.308 -0.00150904 0
M  V30 2431 C 238.413 -1.46032 -0.791444 0
M  V30 2432 O 239.598 -1.74861 -0.76344 0
M  V30 2433 C 236.738 -3.31883 -0.945919 0
M  V30 2434 C 235.851 -4.31741 -0.149675 0
M  V30 2435 C 234.986 -5.19898 -1.08995 0
M  V30 2436 C 234.025 -6.11434 -0.285465 0
M  V30 2437 N 233.162 -6.92138 -1.17851 0
M  V30 2438 H 238.002 -2.88187 0.758455 0
M  V30 2439 H 235.539 -1.41952 0.38576 0
M  V30 2440 H 237.497 -3.89019 -1.50731 0
M  V30 2441 H 236.127 -2.76093 -1.6725 0
M  V30 2442 H 235.179 -3.76713 0.528359 0
M  V30 2443 H 236.491 -4.96534 0.474866 0
M  V30 2444 H 235.645 -5.81772 -1.72123 0
M  V30 2445 H 234.384 -4.55284 -1.74837 0
M  V30 2446 H 233.389 -5.48627 0.359018 0
M  V30 2447 H 234.614 -6.78097 0.368883 0
M  V30 2448 H 232.56 -6.30152 -1.82332 0
M  V30 2449 H 232.477 -7.53542 -0.609082 0
M  V30 2450 H 233.745 -7.58499 -1.79722 0
M  V30 2451 N 237.974 -0.419461 -1.51915 0
M  V30 2452 C 239.199 0.154572 -2.06823 0
M  V30 2453 C 239.624 1.3722 -1.28656 0
M  V30 2454 O 238.982 1.78461 -0.319583 0
M  V30 2455 C 239.03 0.473172 -3.57482 0
M  V30 2456 O 238.134 1.56255 -3.81652 0
M  V30 2457 H 237.475 0.0096924 -0.663929 0
M  V30 2458 H 240.005 -0.595642 -1.95738 0
M  V30 2459 H 240.015 0.728825 -4.01438 0
M  V30 2460 H 238.69 -0.416873 -4.13805 0
M  V30 2461 H 237.267 1.29825 -3.49571 0
M  V30 2462 N 239.452 1.56882 -0.150215 0
M  V30 2463 C 240.677 2.01027 0.510184 0
M  V30 2464 C 241.102 1.02966 1.57415 0
M  V30 2465 O 240.46 0.00590158 1.81299 0
M  V30 2466 C 240.508 3.43899 1.08472 0
M  V30 2467 O 239.612 3.4885 2.19948 0
M  V30 2468 H 238.953 0.652233 0.124451 0
M  V30 2469 H 241.483 2.03093 -0.247894 0
M  V30 2470 H 241.493 3.82766 1.41259 0
M  V30 2471 H 240.168 4.14776 0.305582 0
M  V30 2472 H 238.745 3.21827 1.88366 0
M  V30 2473 N 240.93 -0.123565 1.57115 0
M  V30 2474 C 242.176 -0.833386 1.84885 0
M  V30 2475 C 242.509 -1.79742 0.735292 0
M  V30 2476 O 241.784 -1.92764 -0.25925 0
M  V30 2477 C 242.067 -1.5873 3.23228 0
M  V30 2478 C 241.92 -0.643183 4.45178 0
M  V30 2479 C 243.239 -2.54453 3.59085 0
M  V30 2480 H 240.358 -0.301518 0.6725 0
M  V30 2481 H 243 -0.097778 1.89748 0
M  V30 2482 H 241.15 -2.21438 3.19214 0
M  V30 2483 H 242.822 -0.0253015 4.61293 0
M  V30 2484 H 241.065 0.0456139 4.33776 0
M  V30 2485 H 241.736 -1.20724 5.38637 0
M  V30 2486 H 244.212 -2.01853 3.63861 0
M  V30 2487 H 243.088 -3.04238 4.5687 0
M  V30 2488 H 243.349 -3.36906 2.86264 0
M  V30 2489 N 242.408 -1.52605 -0.393616 0
M  V30 2490 C 243.655 -1.67424 -1.1391 0
M  V30 2491 C 243.983 -0.411859 -1.90089 0
M  V30 2492 O 243.238 0.605626 -1.86093 0
M  V30 2493 C 243.537 -2.85721 -2.14705 0
M  V30 2494 C 243.203 -4.23342 -1.55218 0
M  V30 2495 C 241.865 -4.60771 -1.3872 0
M  V30 2496 C 244.217 -5.09041 -1.11924 0
M  V30 2497 C 241.545 -5.81563 -0.774689 0
M  V30 2498 C 243.897 -6.30452 -0.520853 0
M  V30 2499 C 242.561 -6.66617 -0.343134 0
M  V30 2500 H 241.831 -0.612648 -0.416826 0
M  V30 2501 H 244.478 -1.8674 -0.424315 0
M  V30 2502 H 242.783 -2.60803 -2.92385 0
M  V30 2503 H 244.48 -2.94382 -2.72288 0
M  V30 2504 H 241.07 -3.93855 -1.69045 0
M  V30 2505 H 245.254 -4.80695 -1.23473 0
M  V30 2506 H 240.51 -6.08196 -0.625154 0
M  V30 2507 H 244.684 -6.96175 -0.177065 0
M  V30 2508 H 242.311 -7.60083 0.133571 0
M  V30 2509 N 243.887 0.651787 -1.4349 0
M  V30 2510 C 245.164 1.40909 -1.35661 0
M  V30 2511 C 245.544 2.11099 -0.00511733 0
M  V30 2512 O 244.892 2.04892 1.0115 0
M  V30 2513 C 245.102 2.3926 -2.54078 0
M  V30 2514 C 246.45 3.03217 -2.97228 0
M  V30 2515 O 247.474 2.49588 -2.54135 0
M  V30 2516 O 246.333 4.00455 -3.71885 0
M  V30 2517 H 243.427 0.629625 -0.536191 0
M  V30 2518 H 245.973 0.678575 -1.55542 0
M  V30 2519 H 244.745 1.86352 -3.44076 0
M  V30 2520 H 244.368 3.1976 -2.36303 0
M  V30 2521 N 245.365 1.30045 0.890287 0
M  V30 2522 C 246.593 1.21472 1.67487 0
M  V30 2523 C 247.008 -0.223241 1.87476 0
M  V30 2524 O 246.365 -1.14828 1.41847 0
M  V30 2525 C 246.416 1.93394 3.05419 0
M  V30 2526 O 246.137 3.31576 2.86337 0
M  V30 2527 C 247.638 1.91414 3.99844 0
M  V30 2528 H 244.858 0.420604 0.522813 0
M  V30 2529 H 247.402 1.7158 1.11268 0
M  V30 2530 H 245.557 1.47099 3.58386 0
M  V30 2531 H 245.971 3.67929 3.73802 0
M  V30 2532 H 247.445 2.46285 4.94012 0
M  V30 2533 H 247.922 0.891833 4.3005 0
M  V30 2534 H 248.528 2.37496 3.52811 0
M  V30 2535 N 246.843 -1.10192 1.12674 0
M  V30 2536 C 247.806 -2.14786 0.799979 0
M  V30 2537 C 248.806 -1.59711 -0.18685 0
M  V30 2538 O 249.996 -1.74156 0.0392558 0
M  V30 2539 C 247.128 -3.40374 0.189228 0
M  V30 2540 H 248.321 -2.45203 1.72671 0
M  V30 2541 H 245.874 -1.25597 0.930326 0
M  V30 2542 H 246.609 -3.15577 -0.747107 0
M  V30 2543 H 246.394 -3.81637 0.899766 0
M  V30 2544 H 247.884 -4.17594 -0.0228143 0
M  V30 2545 N 248.321 -0.919034 -1.28029 0
M  V30 2546 C 249.253 -0.368762 -2.26214 0
M  V30 2547 C 250.266 0.495716 -1.55069 0
M  V30 2548 O 251.455 0.30974 -1.75792 0
M  V30 2549 C 248.555 0.491049 -3.35324 0
M  V30 2550 C 247.728 -0.352133 -4.3598 0
M  V30 2551 C 246.787 0.443622 -5.24327 0
M  V30 2552 O 245.813 -0.14566 -5.69014 0
M  V30 2553 N 247.015 1.74545 -5.53637 0
M  V30 2554 H 249.78 -1.21273 -2.74068 0
M  V30 2555 H 247.341 -0.785541 -1.41566 0
M  V30 2556 H 249.333 1.03026 -3.91366 0
M  V30 2557 H 247.903 1.23574 -2.87138 0
M  V30 2558 H 247.123 -1.07269 -3.79324 0
M  V30 2559 H 248.411 -0.928883 -5.00249 0
M  V30 2560 H 247.809 2.24666 -5.19174 0
M  V30 2561 H 246.366 2.23138 -6.12416 0
M  V30 2562 N 249.799 1.42003 -0.683588 0
M  V30 2563 C 251.047 2.01015 -0.209101 0
M  V30 2564 C 251.368 1.54365 1.19149 0
M  V30 2565 O 250.638 0.769083 1.80172 0
M  V30 2566 H 249.218 0.743294 -0.074315 0
M  V30 2567 H 251.88 1.73798 -0.882066 0
M  V30 2568 H 250.976 3.11343 -0.2172 0
M  V30 2569 N 251.277 0.427512 1.51691 0
M  V30 2570 C 252.524 -0.142229 2.02 0
M  V30 2571 C 252.852 -1.43566 1.31221 0
M  V30 2572 O 252.107 -1.91298 0.412744 0
M  V30 2573 C 252.406 -0.418249 3.54944 0
M  V30 2574 C 252.072 0.788187 4.43958 0
M  V30 2575 C 250.734 1.11906 4.68007 0
M  V30 2576 C 253.086 1.59347 4.96244 0
M  V30 2577 C 250.414 2.25608 5.41588 0
M  V30 2578 C 252.766 2.7214 5.71072 0
M  V30 2579 C 251.43 3.05692 5.93387 0
M  V30 2580 H 250.7 -0.0520451 0.73917 0
M  V30 2581 H 253.347 0.572697 1.82736 0
M  V30 2582 H 251.652 -1.21496 3.72486 0
M  V30 2583 H 253.349 -0.872339 3.91397 0
M  V30 2584 H 249.939 0.520344 4.2543 0
M  V30 2585 H 254.123 1.35106 4.77556 0
M  V30 2586 H 249.379 2.51929 5.57083 0
M  V30 2587 H 253.553 3.34914 6.10578 0
M  V30 2588 H 251.18 3.9391 6.50184 0
M  V30 2589 N 252.755 -1.56801 0.158532 0
M  V30 2590 C 253.685 -2.20347 -0.772609 0
M  V30 2591 C 254.666 -1.15518 -1.24859 0
M  V30 2592 O 255.851 -1.43902 -1.30406 0
M  V30 2593 C 252.981 -2.83417 -2.00729 0
M  V30 2594 C 251.935 -3.94174 -1.66765 0
M  V30 2595 C 251.261 -4.44233 -2.97592 0
M  V30 2596 C 252.561 -5.14392 -0.905447 0
M  V30 2597 H 254.255 -2.98413 -0.242959 0
M  V30 2598 H 251.801 -1.43537 -0.115419 0
M  V30 2599 H 253.754 -3.26543 -2.6636 0
M  V30 2600 H 252.478 -2.02701 -2.56086 0
M  V30 2601 H 251.137 -3.51684 -1.03508 0
M  V30 2602 H 250.785 -3.60325 -3.50963 0
M  V30 2603 H 250.485 -5.18945 -2.75626 0
M  V30 2604 H 252.009 -4.90037 -3.64274 0
M  V30 2605 H 253.423 -5.5429 -1.46408 0
M  V30 2606 H 251.82 -5.9494 -0.7853 0
M  V30 2607 H 252.89 -4.84795 0.100668 0
M  V30 2608 N 254.233 0.115231 -1.57178 0
M  V30 2609 C 255.18 1.14115 -2.00615 0
M  V30 2610 C 256.15 1.40939 -0.878941 0
M  V30 2611 O 257.335 1.52741 -1.14345 0
M  V30 2612 C 254.475 2.46156 -2.4187 0
M  V30 2613 C 253.588 2.26236 -3.68024 0
M  V30 2614 C 252.723 3.51534 -3.98243 0
M  V30 2615 C 251.762 3.26787 -5.17568 0
M  V30 2616 N 250.899 4.44298 -5.43639 0
M  V30 2617 H 255.739 0.763743 -2.88047 0
M  V30 2618 H 253.276 0.365615 -1.42484 0
M  V30 2619 H 255.234 3.23189 -2.63827 0
M  V30 2620 H 253.864 2.81783 -1.57475 0
M  V30 2621 H 252.916 1.40102 -3.5366 0
M  V30 2622 H 254.228 2.03929 -4.55208 0
M  V30 2623 H 253.382 4.36984 -4.20868 0
M  V30 2624 H 252.121 3.76876 -3.09541 0
M  V30 2625 H 251.126 2.39729 -4.94783 0
M  V30 2626 H 252.351 3.02812 -6.0785 0
M  V30 2627 H 250.297 4.69754 -4.57895 0
M  V30 2628 H 250.214 4.25109 -6.25154 0
M  V30 2629 H 251.482 5.3087 -5.70786 0
M  V30 2630 N 255.711 1.52812 0.385517 0
M  V30 2631 C 256.936 1.72207 1.15583 0
M  V30 2632 C 257.361 0.441034 1.82857 0
M  V30 2633 O 256.719 -0.603465 1.70962 0
M  V30 2634 C 256.767 2.87476 2.17692 0
M  V30 2635 O 255.871 2.54693 3.24354 0
M  V30 2636 H 255.212 0.572526 0.336319 0
M  V30 2637 H 257.742 1.99618 0.448744 0
M  V30 2638 H 257.752 3.13072 2.6163 0
M  V30 2639 H 256.427 3.80408 1.68115 0
M  V30 2640 H 255.004 2.3985 2.85529 0
M  V30 2641 N 257.189 -0.644168 1.43834 0
M  V30 2642 C 258.435 -1.40603 1.46146 0
M  V30 2643 C 258.768 -1.93997 0.0887717 0
M  V30 2644 O 258.043 -1.72854 -0.891724 0
M  V30 2645 C 258.326 -2.58086 2.51124 0
M  V30 2646 C 258.179 -2.10126 3.97702 0
M  V30 2647 C 259.498 -3.60291 2.52742 0
M  V30 2648 H 256.617 -0.509905 0.532134 0
M  V30 2649 H 259.259 -0.729502 1.75437 0
M  V30 2650 H 257.409 -3.15801 2.26278 0
M  V30 2651 H 259.081 -1.57342 4.33637 0
M  V30 2652 H 257.324 -1.41419 4.10101 0
M  V30 2653 H 257.995 -2.94649 4.66783 0
M  V30 2654 H 260.471 -3.12352 2.7491 0
M  V30 2655 H 259.347 -4.40032 3.28121 0
M  V30 2656 H 259.608 -4.1349 1.56455 0
M  V30 2657 N 258.668 -1.30515 -0.883378 0
M  V30 2658 C 259.615 -1.17032 -1.98927 0
M  V30 2659 C 260.585 -0.0594241 -1.65994 0
M  V30 2660 O 261.77 -0.229895 -1.8941 0
M  V30 2661 C 258.91 -0.869777 -3.33959 0
M  V30 2662 C 258.023 -2.06271 -3.79574 0
M  V30 2663 C 257.158 -1.70011 -5.03259 0
M  V30 2664 C 256.197 -2.8579 -5.41286 0
M  V30 2665 N 255.334 -2.49816 -6.56153 0
M  V30 2666 H 260.174 -2.1164 -2.09792 0
M  V30 2667 H 257.711 -1.05296 -1.02719 0
M  V30 2668 H 259.669 -0.676138 -4.11685 0
M  V30 2669 H 258.299 0.0394332 -3.22776 0
M  V30 2670 H 257.351 -2.36755 -2.97744 0
M  V30 2671 H 258.663 -2.92971 -4.03694 0
M  V30 2672 H 257.817 -1.47032 -5.88614 0
M  V30 2673 H 256.556 -0.804829 -4.81013 0
M  V30 2674 H 255.561 -3.09434 -4.54456 0
M  V30 2675 H 256.786 -3.76008 -5.65504 0
M  V30 2676 H 254.732 -1.62795 -6.35479 0
M  V30 2677 H 254.649 -3.30048 -6.8015 0
M  V30 2678 H 255.917 -2.30197 -7.44735 0
M  V30 2679 N 260.146 1.09593 -1.13257 0
M  V30 2680 C 261.371 1.8604 -0.916732 0
M  V30 2681 C 261.796 1.80504 0.529146 0
M  V30 2682 O 261.154 1.18127 1.37534 0
M  V30 2683 C 261.202 3.32017 -1.40703 0
M  V30 2684 O 260.306 4.08141 -0.591153 0
M  V30 2685 H 259.647 0.576943 -0.328683 0
M  V30 2686 H 262.177 1.38405 -1.50682 0
M  V30 2687 H 262.187 3.82865 -1.4099 0
M  V30 2688 H 260.862 3.35361 -2.45979 0
M  V30 2689 H 259.439 3.67084 -0.656005 0
M  V30 2690 N 261.624 0.925811 1.2754 0
M  V30 2691 C 262.557 0.367836 2.25216 0
M  V30 2692 C 263.535 -0.534738 1.53556 0
M  V30 2693 O 264.719 -0.475672 1.824 0
M  V30 2694 C 261.846 -0.47298 3.35381 0
M  V30 2695 C 260.892 0.365898 4.24928 0
M  V30 2696 S 261.725 1.78025 5.05042 0
M  V30 2697 C 262.881 0.947068 6.18693 0
M  V30 2698 H 263.114 1.19568 2.72196 0
M  V30 2699 H 260.647 0.727867 1.36167 0
M  V30 2700 H 262.605 -0.952242 3.99303 0
M  V30 2701 H 261.266 -1.27533 2.87044 0
M  V30 2702 H 260.459 -0.277582 5.03235 0
M  V30 2703 H 260.061 0.779261 3.65792 0
M  V30 2704 H 262.353 0.182201 6.77255 0
M  V30 2705 H 263.296 1.70309 6.87314 0
M  V30 2706 H 263.704 0.489913 5.6237 0
M  V30 2707 N 263.102 -1.41638 0.69111 0
M  V30 2708 C 264.35 -2.00902 0.219758 0
M  V30 2709 C 264.671 -1.54994 -1.18329 0
M  V30 2710 O 263.941 -0.778628 -1.79762 0
M  V30 2711 H 262.521 -0.74289 0.0782558 0
M  V30 2712 H 265.183 -1.73327 0.891271 0
M  V30 2713 H 264.279 -3.11224 0.233708 0
M  V30 2714 N 264.58 -0.43555 -1.51462 0
M  V30 2715 C 265.512 0.41257 -2.25456 0
M  V30 2716 C 266.525 0.987822 -1.29406 0
M  V30 2717 O 267.714 0.882266 -1.55172 0
M  V30 2718 C 264.814 1.58894 -2.99342 0
M  V30 2719 C 263.987 1.13288 -4.22474 0
M  V30 2720 C 263.046 2.17917 -4.78956 0
M  V30 2721 O 262.072 1.77425 -5.40841 0
M  V30 2722 N 263.274 3.50382 -4.62832 0
M  V30 2723 H 266.039 -0.221603 -2.9888 0
M  V30 2724 H 263.6 -0.264342 -1.59727 0
M  V30 2725 H 265.592 2.28508 -3.34015 0
M  V30 2726 H 264.162 2.12849 -2.28941 0
M  V30 2727 H 263.382 0.263881 -3.93316 0
M  V30 2728 H 264.67 0.805542 -5.02383 0
M  V30 2729 H 264.068 3.86013 -4.13534 0
M  V30 2730 H 262.625 4.15895 -5.01871 0
M  V30 2731 O 266.097 1.58538 -0.30787 0
M  V30 2732 H 266.788 1.9201 0.255316 0
M  V30 END ATOM
M  V30 BEGIN BOND
M  V30 END BOND
M  V30 END CTAB
M  END
$$$$
