drugbank_target|P45494 Beta-Ala-Xaa dipeptidase (DB03340)
 OpenBabel12092119573D

  0  0  0     0  0            999 V3000
M  V30 BEGIN CTAB
M  V30 COUNTS 7199 7284 0 0 0
M  V30 BEGIN ATOM
M  V30 1 H -0.908 1.98254 -0.117106 0
M  V30 2 N 0 1.576 0 0
M  V30 3 C 0.933 2.03868 1.02534 0
M  V30 4 C 1.911 0.928543 1.3348 0
M  V30 5 O 3.095 1.19667 1.45644 0
M  V30 6 C 0.222 2.43627 2.35294 0
M  V30 7 C -0.732 3.65373 2.2001 0
M  V30 8 S 0.101 5.13292 1.52614 0
M  V30 9 C 1.257 5.56322 2.86805 0
M  V30 10 H 1.49 2.90518 0.631377 0
M  V30 11 H -0.977 1.52953 0.210867 0
M  V30 12 H 0.981 2.67203 3.11629 0
M  V30 13 H -0.358 1.57376 2.7183 0
M  V30 14 H -1.165 3.90944 3.18086 0
M  V30 15 H -1.563 3.418 1.51819 0
M  V30 16 H 0.729 5.58782 3.83104 0
M  V30 17 H 1.672 6.56266 2.65933 0
M  V30 18 H 2.08 4.83886 2.90714 0
M  V30 19 N 1.4781 -0.272755 1.55222 0
M  V30 20 C 2.7551 -1.02562 1.66555 0
M  V30 21 C 3.1351 -2.04282 0.532189 0
M  V30 22 O 2.4831 -2.23662 -0.467717 0
M  V30 23 C 2.6931 -1.6822 3.05782 0
M  V30 24 C 4.0411 -2.19373 3.63539 0
M  V30 25 O 5.0651 -1.78206 3.08417 0
M  V30 26 O 3.9241 -2.94883 4.60115 0
M  V30 27 H 1.0181 -0.475755 0.676451 0
M  V30 28 H 3.5641 -0.268593 1.67561 0
M  V30 29 H 2.3361 -0.945112 3.79715 0
M  V30 30 H 1.9591 -2.50609 3.08676 0
M  V30 31 N 2.9562 -1.48159 -0.537278 0
M  V30 32 C 3.8862 -1.65029 -1.6519 0
M  V30 33 C 4.8672 -0.499281 -1.62607 0
M  V30 34 O 6.0522 -0.730972 -1.79918 0
M  V30 35 C 3.1822 -1.68303 -3.03795 0
M  V30 36 C 2.1362 -2.8283 -3.21234 0
M  V30 37 C 1.4622 -2.71189 -4.60826 0
M  V30 38 C 2.7622 -4.24211 -3.04701 0
M  V30 39 H 4.4562 -2.58341 -1.51328 0
M  V30 40 H 2.0022 -1.24325 -0.726585 0
M  V30 41 H 3.9552 -1.78693 -3.81637 0
M  V30 42 H 2.6792 -0.715635 -3.18663 0
M  V30 43 H 1.3382 -2.71983 -2.45807 0
M  V30 44 H 0.9862 -1.72435 -4.7252 0
M  V30 45 H 0.6862 -3.48035 -4.7344 0
M  V30 46 H 2.2102 -2.83537 -5.40777 0
M  V30 47 H 3.6242 -4.3593 -3.72341 0
M  V30 48 H 2.0212 -5.01998 -3.28813 0
M  V30 49 H 3.0912 -4.41184 -2.01209 0
M  V30 50 N 4.4343 0.785586 -1.36625 0
M  V30 51 C 5.3823 1.91978 -1.31329 0
M  V30 52 C 6.3763 1.68162 -0.204416 0
M  V30 53 O 7.5823 1.76122 -0.371645 0
M  V30 54 H 3.9573 0.631087 -0.408942 0
M  V30 55 H 5.9283 1.93562 -2.27104 0
M  V30 56 C 4.6773 3.29055 -1.12329 0
M  V30 57 H 4.0003 3.4795 -1.96903 0
M  V30 58 H 5.4403 4.08756 -1.12671 0
M  V30 59 C 3.8993 3.36461 0.171861 0
M  V30 60 O 4.4293 3.84576 1.16035 0
M  V30 61 N 2.6353 2.89782 0.217846 0
M  V30 62 H 2.1823 2.50819 -0.587183 0
M  V30 63 H 2.1403 2.95119 1.08408 0
M  V30 64 N 5.9124 1.20967 1.01018 0
M  V30 65 C 7.1594 1.02374 1.74716 0
M  V30 66 C 7.4874 -0.443375 1.89379 0
M  V30 67 O 6.7424 -1.34535 1.42123 0
M  V30 68 C 7.0414 1.65997 3.16512 0
M  V30 69 C 6.7074 3.15831 3.2181 0
M  V30 70 C 5.3694 3.56719 3.22963 0
M  V30 71 C 7.7214 4.11816 3.19464 0
M  V30 72 C 5.0494 4.92107 3.19449 0
M  V30 73 C 7.4014 5.47158 3.17491 0
M  V30 74 C 6.0654 5.87451 3.16951 0
M  V30 75 H 5.3354 0.374614 0.639332 0
M  V30 76 H 7.9824 1.50485 1.18434 0
M  V30 77 H 6.2874 1.10166 3.75993 0
M  V30 78 H 7.9844 1.49119 3.72242 0
M  V30 79 H 4.5744 2.83263 3.21652 0
M  V30 80 H 8.7584 3.81257 3.17737 0
M  V30 81 H 4.0144 5.22579 3.17366 0
M  V30 82 H 8.1884 6.21274 3.14629 0
M  V30 83 H 5.8154 6.92329 3.13983 0
M  V30 84 N 7.3905 -1.2043 1.01659 0
M  V30 85 C 8.3375 -2.23215 0.586822 0
M  V30 86 C 9.3075 -1.61382 -0.393085 0
M  V30 87 O 10.4925 -1.88544 -0.292525 0
M  V30 88 C 7.6325 -3.45032 -0.0687464 0
M  V30 89 C 6.7455 -4.21296 0.955724 0
M  V30 90 C 5.8805 -5.30507 0.271208 0
M  V30 91 C 4.9195 -5.98515 1.28244 0
M  V30 92 N 4.0565 -6.99316 0.62459 0
M  V30 93 H 8.8965 -2.59336 1.46796 0
M  V30 94 H 6.4335 -1.27431 0.734836 0
M  V30 95 H 8.3915 -4.1459 -0.465965 0
M  V30 96 H 7.0215 -3.09604 -0.913529 0
M  V30 97 H 6.0735 -3.50803 1.4711 0
M  V30 98 H 7.3855 -4.6803 1.72479 0
M  V30 99 H 6.5395 -6.06428 -0.18151 0
M  V30 100 H 5.2785 -4.8481 -0.530163 0
M  V30 101 H 4.2835 -5.21355 1.74554 0
M  V30 102 H 5.5085 -6.46298 2.08509 0
M  V30 103 H 3.4545 -6.55812 -0.156914 0
M  V30 104 H 3.3715 -7.44178 1.33172 0
M  V30 105 H 4.6395 -7.79255 0.195462 0
M  V30 106 N 8.8686 -0.792821 -1.36206 0
M  V30 107 C 9.7786 -0.194808 -2.3379 0
M  V30 108 C 10.7946 0.654869 -1.61206 0
M  V30 109 O 11.9706 0.569856 -1.9317 0
M  V30 110 C 9.0356 0.657721 -3.40404 0
M  V30 111 C 8.0966 -0.210849 -4.28782 0
M  V30 112 C 7.3296 0.601086 -5.30304 0
M  V30 113 O 7.5526 1.83682 -5.40016 0
M  V30 114 O 6.4866 -0.000808277 -6.019 0
M  V30 115 H 10.3126 -1.00172 -2.86704 0
M  V30 116 H 7.8976 -0.554341 -1.38735 0
M  V30 117 H 9.7796 1.14375 -4.05581 0
M  V30 118 H 8.4546 1.44247 -2.89784 0
M  V30 119 H 7.3616 -0.743714 -3.66633 0
M  V30 120 H 8.6946 -0.959195 -4.82763 0
M  V30 121 N 10.3467 1.47872 -0.545128 0
M  V30 122 C 11.2767 2.32661 0.197793 0
M  V30 123 C 12.2577 1.43041 0.920504 0
M  V30 124 O 13.4427 1.71912 0.90333 0
M  V30 125 C 10.5727 3.24569 1.23582 0
M  V30 126 C 9.5267 4.23333 0.630323 0
M  V30 127 C 8.8527 5.0448 1.77211 0
M  V30 128 C 10.1527 5.20704 -0.407974 0
M  V30 129 H 11.8467 2.95024 -0.510045 0
M  V30 130 H 9.3927 1.4187 -0.246731 0
M  V30 131 H 11.3457 3.8272 1.76362 0
M  V30 132 H 10.0697 2.60236 1.97344 0
M  V30 133 H 8.7287 3.6639 0.123922 0
M  V30 134 H 8.3767 4.36561 2.49847 0
M  V30 135 H 8.0767 5.71339 1.37281 0
M  V30 136 H 9.6007 5.65487 2.3034 0
M  V30 137 H 11.0147 5.7329 0.033305 0
M  V30 138 H 9.4117 5.95699 -0.725486 0
M  V30 139 H 10.4817 4.66917 -1.30828 0
M  V30 140 N 11.8248 0.280983 1.55075 0
M  V30 141 C 12.7878 -0.590896 2.21452 0
M  V30 142 C 13.7878 -1.07682 1.19421 0
M  V30 143 O 14.9778 -0.97605 1.44288 0
M  V30 144 C 12.1098 -1.81587 2.88511 0
M  V30 145 H 13.3028 -0.0112554 2.99898 0
M  V30 146 H 10.8558 0.0316438 1.56268 0
M  V30 147 H 11.5908 -2.43587 2.14093 0
M  V30 148 H 11.3758 -1.4753 3.63287 0
M  V30 149 H 12.8658 -2.43575 3.39206 0
M  V30 150 N 13.3029 -1.57598 0.00835791 0
M  V30 151 C 14.2129 -2.12385 -0.996487 0
M  V30 152 C 15.2289 -1.07108 -1.37127 0
M  V30 153 O 16.4049 -1.39055 -1.4569 0
M  V30 154 C 13.4699 -2.62314 -2.26699 0
M  V30 155 C 12.5309 -3.82225 -1.95456 0
M  V30 156 C 11.7639 -4.29763 -3.16449 0
M  V30 157 O 11.9869 -3.76584 -4.28416 0
M  V30 158 O 10.9209 -5.21832 -2.99958 0
M  V30 159 H 14.7469 -2.98479 -0.560725 0
M  V30 160 H 12.3319 -1.47903 -0.210987 0
M  V30 161 H 14.2139 -2.94589 -3.01322 0
M  V30 162 H 12.8889 -1.79313 -2.69497 0
M  V30 163 H 11.7959 -3.54909 -1.18282 0
M  V30 164 H 13.1289 -4.66324 -1.57489 0
M  V30 165 N 14.781 0.264519 -1.55364 0
M  V30 166 C 15.744 1.31046 -1.88042 0
M  V30 167 C 16.744 1.41943 -0.755569 0
M  V30 168 O 17.934 1.40947 -1.02369 0
M  V30 169 C 15.066 2.69067 -2.09323 0
M  V30 170 H 16.259 1.03297 -2.81549 0
M  V30 171 H 13.812 0.502989 -1.47986 0
M  V30 172 H 14.547 3.01982 -1.18226 0
M  V30 173 H 14.332 2.62542 -2.91229 0
M  V30 174 H 15.822 3.44623 -2.35848 0
M  V30 175 N 16.2591 1.48442 0.529413 0
M  V30 176 C 17.2061 1.63007 1.63394 0
M  V30 177 C 18.1761 0.47212 1.59249 0
M  V30 178 O 19.3611 0.695673 1.77666 0
M  V30 179 C 16.5011 1.6763 3.01653 0
M  V30 180 C 15.6141 2.94535 3.16027 0
M  V30 181 C 14.7491 2.90316 4.44849 0
M  V30 182 C 13.7881 4.11923 4.52754 0
M  V30 183 N 12.9251 4.05777 5.72965 0
M  V30 184 H 17.7651 2.5733 1.50285 0
M  V30 185 H 15.3021 1.27613 0.731656 0
M  V30 186 H 17.2601 1.68292 3.81751 0
M  V30 187 H 15.8901 0.76797 3.13532 0
M  V30 188 H 14.9421 3.03615 2.29177 0
M  V30 189 H 16.2541 3.84512 3.17729 0
M  V30 190 H 15.4081 2.89382 5.33238 0
M  V30 191 H 14.1471 1.98068 4.45668 0
M  V30 192 H 13.1521 4.13131 3.62771 0
M  V30 193 H 14.3771 5.0533 4.53672 0
M  V30 194 H 12.3231 3.16351 5.74681 0
M  V30 195 H 12.2401 4.8946 5.76164 0
M  V30 196 H 13.5081 4.08904 6.6364 0
M  V30 197 N 17.7372 -0.778329 1.37039 0
M  V30 198 C 18.6842 -1.89139 1.32269 0
M  V30 199 C 19.6542 -1.65017 0.189387 0
M  V30 200 O 20.8392 -1.87024 0.377693 0
M  V30 201 C 17.9792 -3.26112 1.12894 0
M  V30 202 C 17.0922 -3.62233 2.35396 0
M  V30 203 C 16.2272 -4.8838 2.08946 0
M  V30 204 C 15.2662 -5.17212 3.2735 0
M  V30 205 N 14.4032 -6.34546 3.00492 0
M  V30 206 H 19.2432 -1.92552 2.27437 0
M  V30 207 H 16.7802 -0.941473 1.13025 0
M  V30 208 H 18.7382 -4.05116 0.996835 0
M  V30 209 H 17.3682 -3.22091 0.213758 0
M  V30 210 H 16.4202 -2.78265 2.5937 0
M  V30 211 H 17.7322 -3.79481 3.23721 0
M  V30 212 H 16.8862 -5.75274 1.92729 0
M  V30 213 H 15.6252 -4.73222 1.17949 0
M  V30 214 H 14.6302 -4.28796 3.44113 0
M  V30 215 H 15.8552 -5.34283 4.19188 0
M  V30 216 H 13.8012 -6.20759 2.12118 0
M  V30 217 H 13.7182 -6.52179 3.82358 0
M  V30 218 H 14.9862 -7.24394 2.87879 0
M  V30 219 N 19.2153 -1.21501 -1.00376 0
M  V30 220 C 20.4923 -0.941745 -1.71437 0
M  V30 221 C 20.8723 0.546114 -2.03914 0
M  V30 222 O 20.2203 1.51128 -1.71384 0
M  V30 223 C 20.4303 -1.82812 -2.97289 0
M  V30 224 C 21.7783 -2.07771 -3.70292 0
M  V30 225 O 22.8023 -1.80171 -3.07273 0
M  V30 226 O 21.6613 -2.54456 -4.83647 0
M  V30 227 H 18.7553 -0.353243 -0.747762 0
M  V30 228 H 21.3013 -1.32436 -1.06108 0
M  V30 229 H 20.0733 -2.83501 -2.69709 0
M  V30 230 H 19.6963 -1.4464 -3.70358 0
M  V30 231 N 20.6934 1.19889 -1.02296 0
M  V30 232 C 21.6564 2.21116 -0.603351 0
M  V30 233 C 22.6564 1.5738 0.329884 0
M  V30 234 O 23.8464 1.73802 0.117702 0
M  V30 235 C 20.9784 3.40696 0.117992 0
M  V30 236 H 22.1714 2.59754 -1.49893 0
M  V30 237 H 19.7244 1.33463 -0.813468 0
M  V30 238 H 20.4594 3.07569 1.0282 0
M  V30 239 H 20.2444 3.88188 -0.552511 0
M  V30 240 H 21.7344 4.15692 0.398696 0
M  V30 241 N 22.1715 0.800033 1.35784 0
M  V30 242 C 23.4205 0.37387 1.98205 0
M  V30 243 C 23.7335 -1.06302 1.64193 0
M  V30 244 O 24.9395 -1.59198 2.19928 0
M  V30 245 C 23.3955 0.617532 3.54562 0
M  V30 246 C 23.0035 2.06654 3.9749 0
M  V30 247 C 24.7475 0.256401 4.23725 0
M  V30 248 C 22.6545 2.2563 5.46667 0
M  V30 249 H 21.5845 0.136055 0.741623 0
M  V30 250 H 24.2355 0.983166 1.54939 0
M  V30 251 H 22.6175 -0.0616248 3.95952 0
M  V30 252 H 23.7915 2.78296 3.67271 0
M  V30 253 H 22.1065 2.38691 3.41197 0
M  V30 254 H 24.7035 0.376318 5.33374 0
M  V30 255 H 25.0465 -0.796692 4.08606 0
M  V30 256 H 25.5795 0.889214 3.87734 0
M  V30 257 H 22.3185 3.2936 5.66747 0
M  V30 258 H 21.8385 1.58504 5.78478 0
M  V30 259 H 23.5175 2.06861 6.1304 0
M  V30 260 N 23.6496 -1.47581 0.552962 0
M  V30 261 C 24.5796 -2.32762 -0.185451 0
M  V30 262 C 25.5606 -1.43527 -0.912905 0
M  V30 263 O 26.7456 -1.72388 -0.894201 0
M  V30 264 C 23.8756 -3.25219 -1.21859 0
M  V30 265 C 22.8296 -4.23661 -0.607864 0
M  V30 266 C 22.1556 -5.05413 -1.74533 0
M  V30 267 C 23.4556 -5.20481 0.435582 0
M  V30 268 H 25.1496 -2.94749 0.525684 0
M  V30 269 H 22.6956 -1.41738 0.254251 0
M  V30 270 H 24.6486 -3.8365 -1.7433 0
M  V30 271 H 23.3726 -2.61279 -1.95961 0
M  V30 272 H 22.0316 -3.66451 -0.104489 0
M  V30 273 H 21.6796 -4.3788 -2.47529 0
M  V30 274 H 21.3796 -5.72059 -1.34249 0
M  V30 275 H 22.9036 -5.66701 -2.27338 0
M  V30 276 H 24.3176 -5.733 -0.00290157 0
M  V30 277 H 22.7146 -5.95305 0.757067 0
M  V30 278 H 23.7846 -4.66217 1.33303 0
M  V30 279 N 25.1277 -0.289203 -1.54924 0
M  V30 280 C 26.0747 0.592115 -2.23075 0
M  V30 281 C 27.0447 1.13881 -1.20915 0
M  V30 282 O 28.2297 1.18551 -1.495 0
M  V30 283 C 25.3697 1.76376 -2.96623 0
M  V30 284 C 24.4827 1.24959 -4.13533 0
M  V30 285 C 23.6177 2.38416 -4.74691 0
M  V30 286 C 22.6567 1.84072 -5.83767 0
M  V30 287 N 21.7937 2.91057 -6.38929 0
M  V30 288 H 26.6337 0.00432038 -2.98 0
M  V30 289 H 24.1707 -0.00963529 -1.47097 0
M  V30 290 H 26.1287 2.45268 -3.3749 0
M  V30 291 H 24.7587 2.32337 -2.24097 0
M  V30 292 H 23.8107 0.453307 -3.77689 0
M  V30 293 H 25.1227 0.811662 -4.92152 0
M  V30 294 H 24.2767 3.15276 -5.18349 0
M  V30 295 H 23.0157 2.8553 -3.95378 0
M  V30 296 H 22.0207 1.05697 -5.39545 0
M  V30 297 H 23.2457 1.37877 -6.64956 0
M  V30 298 H 21.1917 3.37526 -5.62505 0
M  V30 299 H 21.1087 2.51724 -7.12861 0
M  V30 300 H 22.3767 3.6785 -6.87246 0
M  V30 301 N 26.6058 1.57591 -0.0167156 0
M  V30 302 C 27.8828 1.82547 0.702564 0
M  V30 303 C 28.2628 0.898018 1.91047 0
M  V30 304 O 27.6108 -0.0493456 2.28447 0
M  V30 305 C 27.8208 3.31459 1.09251 0
M  V30 306 C 29.1688 3.97622 1.48937 0
M  V30 307 O 30.1928 3.35881 1.18584 0
M  V30 308 O 29.0518 5.06415 2.05442 0
M  V30 309 H 26.1458 0.752268 0.343544 0
M  V30 310 H 28.6918 1.69644 -0.0434495 0
M  V30 311 H 27.4638 3.9061 0.23227 0
M  V30 312 H 27.0868 3.49422 1.89709 0
M  V30 313 N 28.0839 -0.256276 1.55502 0
M  V30 314 C 29.0139 -1.32102 1.92539 0
M  V30 315 C 29.9949 -1.50684 0.789194 0
M  V30 316 O 31.1799 -1.63449 1.04872 0
M  V30 317 C 28.3099 -2.67752 2.21192 0
M  V30 318 C 27.2639 -2.63878 3.36975 0
M  V30 319 C 26.5899 -4.03236 3.51147 0
M  V30 320 C 27.8899 -2.21682 4.72921 0
M  V30 321 H 29.5839 -1.01351 2.81724 0
M  V30 322 H 27.1299 -0.486105 1.35547 0
M  V30 323 H 29.0829 -3.42365 2.45691 0
M  V30 324 H 27.8069 -3.0012 1.28824 0
M  V30 325 H 26.4659 -1.91722 3.12471 0
M  V30 326 H 26.1139 -4.32854 2.56216 0
M  V30 327 H 25.8139 -4.01535 4.29003 0
M  V30 328 H 27.3379 -4.79563 3.77957 0
M  V30 329 H 28.7519 -2.86023 4.96854 0
M  V30 330 H 27.1489 -2.3111 5.53812 0
M  V30 331 H 28.2189 -1.16833 4.70615 0
M  V30 332 N 29.562 -1.4872 -0.521534 0
M  V30 333 C 30.472 -1.66569 -1.65203 0
M  V30 334 C 31.488 -0.548197 -1.65139 0
M  V30 335 O 32.664 -0.820339 -1.83936 0
M  V30 336 C 29.729 -1.70917 -3.01642 0
M  V30 337 C 28.79 -2.94356 -3.12495 0
M  V30 338 C 28.023 -2.98487 -4.42426 0
M  V30 339 O 28.246 -2.10786 -5.30024 0
M  V30 340 O 27.18 -3.90746 -4.57822 0
M  V30 341 H 31.006 -2.62298 -1.5308 0
M  V30 342 H 28.591 -1.3222 -0.695565 0
M  V30 343 H 30.473 -1.7625 -3.82771 0
M  V30 344 H 29.148 -0.783633 -3.14071 0
M  V30 345 H 28.055 -2.94552 -2.3063 0
M  V30 346 H 29.388 -3.86322 -3.04986 0
M  V30 347 N 31.0401 0.771051 -1.3745 0
M  V30 348 C 31.9501 1.91538 -1.35464 0
M  V30 349 C 32.9661 1.72134 -0.254123 0
M  V30 350 O 34.1421 1.95358 -0.489626 0
M  V30 351 C 31.2071 3.26671 -1.16134 0
M  V30 352 C 30.2681 3.58723 -2.35831 0
M  V30 353 C 29.5011 4.87409 -2.17413 0
M  V30 354 O 29.7241 5.58506 -1.15876 0
M  V30 355 O 28.6581 5.18539 -3.05615 0
M  V30 356 H 32.4841 1.96165 -2.31847 0
M  V30 357 H 30.0691 0.9139 -1.18187 0
M  V30 358 H 31.9511 4.07499 -1.07345 0
M  V30 359 H 30.6261 3.22894 -0.228251 0
M  V30 360 H 29.5331 2.78127 -2.50192 0
M  V30 361 H 30.8661 3.67243 -3.27709 0
M  V30 362 N 32.5182 1.22032 0.997298 0
M  V30 363 C 33.4482 1.01065 2.10495 0
M  V30 364 C 34.4292 -0.0669542 1.69968 0
M  V30 365 O 35.6142 0.0943987 1.9397 0
M  V30 366 C 32.7442 0.582874 3.42374 0
M  V30 367 C 31.6982 1.60592 3.96729 0
M  V30 368 C 31.0242 1.03412 5.24605 0
M  V30 369 C 32.3242 2.99478 4.27914 0
M  V30 370 H 34.0182 1.93708 2.28292 0
M  V30 371 H 31.5642 0.932761 1.09707 0
M  V30 372 H 33.5172 0.423332 4.19268 0
M  V30 373 H 32.2412 -0.379213 3.24391 0
M  V30 374 H 30.9002 1.75316 3.21963 0
M  V30 375 H 30.5482 0.063518 5.0296 0
M  V30 376 H 30.2482 1.71754 5.61938 0
M  V30 377 H 31.7722 0.886066 6.04137 0
M  V30 378 H 33.1862 2.88153 4.95622 0
M  V30 379 H 31.5832 3.64903 4.76409 0
M  V30 380 H 32.6532 3.49742 3.3587 0
M  V30 381 N 33.9963 -1.19345 1.0293 0
M  V30 382 C 35.2453 -1.88363 0.721256 0
M  V30 383 C 35.5583 -1.80514 -0.753254 0
M  V30 384 O 36.7643 -2.44788 -1.17436 0
M  V30 385 C 35.2203 -3.37872 1.23978 0
M  V30 386 C 34.8283 -3.54278 2.74211 0
M  V30 387 C 36.5723 -4.12365 1.00775 0
M  V30 388 C 34.4793 -4.97682 3.19479 0
M  V30 389 H 33.4093 -0.705484 0.266098 0
M  V30 390 H 36.0603 -1.34928 1.24365 0
M  V30 391 H 34.4423 -3.90707 0.6453 0
M  V30 392 H 35.6163 -3.11769 3.39318 0
M  V30 393 H 33.9313 -2.93174 2.95699 0
M  V30 394 H 36.5283 -5.18119 1.32123 0
M  V30 395 H 36.8713 -4.16263 -0.0554308 0
M  V30 396 H 37.4043 -3.65668 1.56625 0
M  V30 397 H 34.1433 -4.98945 4.25128 0
M  V30 398 H 33.6633 -5.4095 2.591 0
M  V30 399 H 35.3423 -5.66337 3.12845 0
M  V30 400 N 35.4744 -0.807222 -1.35358 0
M  V30 401 C 36.4374 -0.223665 -2.28106 0
M  V30 402 C 37.4374 0.589354 -1.4961 0
M  V30 403 O 38.6274 0.407745 -1.69361 0
M  V30 404 C 35.7594 0.688149 -3.33882 0
M  V30 405 H 36.9524 -1.04169 -2.81227 0
M  V30 406 H 34.5054 -0.577921 -1.45223 0
M  V30 407 H 35.2404 1.52984 -2.85948 0
M  V30 408 H 35.0254 0.10687 -3.91954 0
M  V30 409 H 36.5154 1.09075 -4.03104 0
M  V30 410 N 36.9525 1.47285 -0.560781 0
M  V30 411 C 38.2015 2.01668 -0.035895 0
M  V30 412 C 38.5145 1.44021 1.32353 0
M  V30 413 O 39.7205 1.90088 1.93853 0
M  V30 414 C 38.1765 3.59897 -0.0136659 0
M  V30 415 C 37.7845 4.26536 -1.37006 0
M  V30 416 C 39.5285 4.22017 0.458425 0
M  V30 417 C 37.4355 5.76782 -1.30675 0
M  V30 418 H 36.3655 0.753938 -0.00964879 0
M  V30 419 H 39.0165 1.69243 -0.709166 0
M  V30 420 H 37.3985 3.89301 0.725325 0
M  V30 421 H 38.5725 4.0877 -2.12705 0
M  V30 422 H 36.8875 3.76419 -1.78038 0
M  V30 423 H 39.4845 5.32124 0.524247 0
M  V30 424 H 39.8275 3.89437 1.4712 0
M  V30 425 H 40.3605 3.97159 -0.225818 0
M  V30 426 H 37.0995 6.13988 -2.29564 0
M  V30 427 H 36.6195 5.96875 -0.591622 0
M  V30 428 H 38.2985 6.39063 -1.01033 0
M  V30 429 N 38.4306 0.297415 1.54768 0
M  V30 430 C 39.7076 -0.365847 1.92148 0
M  V30 431 C 40.0876 -1.71975 1.22424 0
M  V30 432 O 39.4356 -2.25666 0.358739 0
M  V30 433 C 39.6456 -0.484056 3.45627 0
M  V30 434 C 40.9936 -0.756594 4.17805 0
M  V30 435 O 42.0176 -0.568007 3.51642 0
M  V30 436 O 40.8766 -1.11863 5.34929 0
M  V30 437 H 37.9706 -0.203919 0.801465 0
M  V30 438 H 40.5166 0.34521 1.66152 0
M  V30 439 H 39.2886 0.467865 3.88493 0
M  V30 440 H 38.9116 -1.24372 3.77647 0
M  V30 441 N 39.9087 -1.5758 0.0250728 0
M  V30 442 C 41.1337 -1.96337 -0.668317 0
M  V30 443 C 41.5587 -0.901314 -1.651 0
M  V30 444 O 40.9167 0.138187 -1.80773 0
M  V30 445 C 40.9647 -3.34191 -1.35457 0
M  V30 446 O 40.0687 -3.30269 -2.46974 0
M  V30 447 H 39.4097 -0.640281 -0.175887 0
M  V30 448 H 41.9397 -2.0442 0.0857224 0
M  V30 449 H 41.9497 -3.70331 -1.71228 0
M  V30 450 H 40.6247 -4.11036 -0.634218 0
M  V30 451 H 39.2017 -3.05841 -2.13344 0
M  V30 452 N 41.3868 0.248026 -1.55636 0
M  V30 453 C 42.6118 0.998028 -1.81808 0
M  V30 454 C 43.0368 1.78207 -0.601979 0
M  V30 455 O 42.3948 1.75653 0.448961 0
M  V30 456 C 42.4428 1.9125 -3.05705 0
M  V30 457 O 41.5468 3.00406 -2.82542 0
M  V30 458 H 40.8878 0.284045 -0.600179 0
M  V30 459 H 43.4178 0.269357 -2.02819 0
M  V30 460 H 43.4278 2.32737 -3.35108 0
M  V30 461 H 42.1028 1.33602 -3.93857 0
M  V30 462 H 40.6798 2.63056 -2.64303 0
M  V30 463 N 42.8649 1.48995 0.513639 0
M  V30 464 C 43.7749 1.67443 1.64317 0
M  V30 465 C 44.7909 0.556947 1.64846 0
M  V30 466 O 45.9669 0.830082 1.83498 0
M  V30 467 C 43.0319 1.72515 3.00732 0
M  V30 468 C 42.0929 2.96009 3.1093 0
M  V30 469 C 41.3259 3.00829 4.40837 0
M  V30 470 O 41.5489 2.13594 5.28898 0
M  V30 471 O 40.4829 3.93168 4.55744 0
M  V30 472 H 44.3089 2.63106 1.51687 0
M  V30 473 H 41.8939 1.32588 0.688543 0
M  V30 474 H 43.7759 1.78277 3.81831 0
M  V30 475 H 42.4509 0.800278 3.13651 0
M  V30 476 H 41.3579 2.9577 2.29065 0
M  V30 477 H 42.6909 3.87934 3.02933 0
M  V30 478 N 44.343 -0.763751 1.37857 0
M  V30 479 C 45.62 -1.51244 1.24035 0
M  V30 480 C 46 -2.10472 -0.162649 0
M  V30 481 O 45.348 -1.96206 -1.17112 0
M  V30 482 C 45.558 -2.58694 2.34261 0
M  V30 483 C 46.906 -3.25878 2.72193 0
M  V30 484 O 47.93 -2.68993 2.33497 0
M  V30 485 O 46.789 -4.2874 3.38887 0
M  V30 486 H 43.883 -0.670243 0.484462 0
M  V30 487 H 46.429 -0.800031 1.49658 0
M  V30 488 H 45.201 -2.13105 3.2818 0
M  V30 489 H 44.824 -3.37527 2.10146 0
M  V30 490 N 45.8211 -1.22559 -0.990812 0
M  V30 491 C 46.7511 -1.0218 -2.09956 0
M  V30 492 C 47.7321 0.0579394 -1.70001 0
M  V30 493 O 48.9171 -0.104684 -1.93918 0
M  V30 494 C 46.0471 -0.601023 -3.4206 0
M  V30 495 C 45.0011 -1.62694 -3.95872 0
M  V30 496 C 44.3271 -1.06193 -5.24049 0
M  V30 497 C 45.6271 -3.01743 -4.2632 0
M  V30 498 H 47.3211 -1.94916 -2.27262 0
M  V30 499 H 44.8671 -0.938566 -1.09211 0
M  V30 500 H 46.8201 -0.445561 -4.19038 0
M  V30 501 H 45.5441 0.362005 -3.24588 0
M  V30 502 H 44.2031 -1.77021 -3.21028 0
M  V30 503 H 43.8511 -0.0901903 -5.02919 0
M  V30 504 H 43.5511 -1.74732 -5.61019 0
M  V30 505 H 45.0751 -0.918092 -6.03658 0
M  V30 506 H 46.4891 -2.90777 -4.94087 0
M  V30 507 H 44.8861 -3.67425 -4.74467 0
M  V30 508 H 45.9561 -3.51518 -3.34011 0
M  V30 509 N 47.2992 1.18797 -1.03562 0
M  V30 510 C 48.2092 2.25913 -0.632505 0
M  V30 511 C 49.2252 1.70668 0.338882 0
M  V30 512 O 50.4012 2.00453 0.195076 0
M  V30 513 C 47.4662 3.467 0.00350942 0
M  V30 514 C 46.5272 4.17098 -1.01624 0
M  V30 515 C 45.7602 5.32119 -0.410478 0
M  V30 516 O 45.9832 5.64976 0.784725 0
M  V30 517 O 44.9172 5.9107 -1.13667 0
M  V30 518 H 48.7432 2.62648 -1.52478 0
M  V30 519 H 46.3282 1.25781 -0.806195 0
M  V30 520 H 48.2102 4.19878 0.35781 0
M  V30 521 H 46.8852 3.11798 0.869686 0
M  V30 522 H 45.7922 3.4601 -1.42224 0
M  V30 523 H 47.1252 4.55987 -1.85301 0
M  V30 524 N 48.7773 0.814389 1.34928 0
M  V30 525 C 49.7253 0.218424 2.31572 0
M  V30 526 C 50.7193 -0.636128 1.57002 0
M  V30 527 O 51.9253 -0.52842 1.72069 0
M  V30 528 H 48.3003 0.0518799 0.750208 0
M  V30 529 H 50.2713 1.04852 2.79372 0
M  V30 530 C 49.0203 -0.61207 3.4227 0
M  V30 531 H 48.3433 0.0361578 3.99784 0
M  V30 532 H 49.7833 -0.995317 4.12152 0
M  V30 533 C 48.2423 -1.78087 2.85984 0
M  V30 534 O 48.7723 -2.8787 2.80168 0
M  V30 535 N 46.9783 -1.59488 2.42924 0
M  V30 536 H 46.5253 -0.701874 2.47854 0
M  V30 537 H 46.4833 -2.37846 2.05613 0
M  V30 538 N 50.2554 -1.46986 0.568584 0
M  V30 539 C 51.2184 -2.28624 -0.162366 0
M  V30 540 C 52.2184 -1.37596 -0.832103 0
M  V30 541 O 53.4084 -1.60115 -0.68622 0
M  V30 542 C 50.5404 -3.17596 -1.23878 0
M  V30 543 H 51.7334 -2.94722 0.554899 0
M  V30 544 H 49.2864 -1.52863 0.325976 0
M  V30 545 H 50.0214 -2.56214 -1.98808 0
M  V30 546 H 49.8064 -3.846 -0.763219 0
M  V30 547 H 51.2964 -3.79078 -1.75185 0
M  V30 548 N 51.7335 -0.305618 -1.54608 0
M  V30 549 C 52.9615 0.304775 -2.04643 0
M  V30 550 C 53.3765 1.47167 -1.18268 0
M  V30 551 O 52.7335 1.81296 -0.209328 0
M  V30 552 C 52.7845 0.756564 -3.53495 0
M  V30 553 O 52.5055 -0.36389 -4.36586 0
M  V30 554 C 54.0065 1.43163 -4.19546 0
M  V30 555 H 51.2265 0.0655481 -0.667791 0
M  V30 556 H 53.7705 -0.446592 -1.99564 0
M  V30 557 H 51.9255 1.45794 -3.58919 0
M  V30 558 H 52.3395 -0.0113121 -5.24499 0
M  V30 559 H 53.8135 1.69886 -5.25207 0
M  V30 560 H 54.2905 2.37318 -3.69563 0
M  V30 561 H 54.8965 0.773307 -4.18211 0
M  V30 562 N 53.2116 1.57565 -0.0334293 0
M  V30 563 C 54.1216 2.13943 0.962572 0
M  V30 564 C 55.1376 1.09276 1.35406 0
M  V30 565 O 56.3136 1.41355 1.4346 0
M  V30 566 C 53.3786 2.65887 2.22497 0
M  V30 567 C 52.4396 3.85286 1.8935 0
M  V30 568 C 51.6726 4.34743 3.09571 0
M  V30 569 O 51.8956 3.83352 4.22371 0
M  V30 570 O 50.8296 5.26538 2.91618 0
M  V30 571 H 54.6556 2.99333 0.513169 0
M  V30 572 H 52.2406 1.4822 0.18743 0
M  V30 573 H 54.1226 2.99346 2.96598 0
M  V30 574 H 52.7976 1.83578 2.6661 0
M  V30 575 H 51.7046 3.56746 1.1262 0
M  V30 576 H 53.0376 4.68771 1.5005 0
M  V30 577 N 54.6897 -0.239769 1.55765 0
M  V30 578 C 55.5997 -1.31831 1.94056 0
M  V30 579 C 56.6157 -1.52275 0.841925 0
M  V30 580 O 57.7917 -1.65759 1.14394 0
M  V30 581 C 54.8567 -2.65156 2.23368 0
M  V30 582 C 53.9177 -2.53173 3.46701 0
M  V30 583 C 53.1507 -3.8014 3.74606 0
M  V30 584 O 53.3737 -4.82343 3.04469 0
M  V30 585 O 52.3077 -3.78344 4.68123 0
M  V30 586 H 56.1337 -1.02347 2.85935 0
M  V30 587 H 53.7187 -0.441123 1.42739 0
M  V30 588 H 55.6007 -3.43929 2.43497 0
M  V30 589 H 54.2757 -2.94358 1.34666 0
M  V30 590 H 53.1827 -1.72662 3.31871 0
M  V30 591 H 54.5157 -2.28915 4.35728 0
M  V30 592 N 56.1678 -1.49265 -0.50573 0
M  V30 593 C 57.3978 -1.61979 -1.28243 0
M  V30 594 C 57.8058 -0.288576 -1.86986 0
M  V30 595 O 57.1488 0.735408 -1.68337 0
M  V30 596 C 57.2108 -2.62632 -2.45489 0
M  V30 597 C 56.8748 -4.071 -2.07651 0
M  V30 598 C 57.8718 -4.94049 -1.61901 0
M  V30 599 C 55.5568 -4.52801 -2.17431 0
M  V30 600 C 57.5508 -6.24736 -1.26428 0
M  V30 601 C 55.2378 -5.83503 -1.8157 0
M  V30 602 C 56.2358 -6.69294 -1.36142 0
M  V30 603 O 55.9238 -7.9756 -1.00764 0
M  V30 604 H 55.6558 -0.54834 -0.395347 0
M  V30 605 H 58.2098 -1.96002 -0.614204 0
M  V30 606 H 56.4398 -2.2378 -3.15372 0
M  V30 607 H 58.1288 -2.64925 -3.07522 0
M  V30 608 H 58.8948 -4.5997 -1.53795 0
M  V30 609 H 54.7738 -3.86196 -2.51742 0
M  V30 610 H 58.3178 -6.91652 -0.908992 0
M  V30 611 H 54.2148 -6.17112 -1.89324 0
M  V30 612 H 54.9828 -8.10529 -1.13952 0
M  V30 613 N 57.6459 0.756429 -1.3826 0
M  V30 614 C 59.0569 1.33359 -1.30661 0
M  V30 615 C 59.4079 1.96161 0.0388875 0
M  V30 616 O 58.5329 1.94874 0.940918 0
M  V30 617 C 59.1279 2.42477 -2.36622 0
M  V30 618 C 57.6869 2.95922 -2.3261 0
M  V30 619 C 56.8339 1.69275 -2.19639 0
M  V30 620 H 59.7849 0.55552 -1.4866 0
M  V30 621 H 59.8059 3.22345 -2.02174 0
M  V30 622 H 59.3179 1.96739 -3.34538 0
M  V30 623 H 57.4189 3.45996 -1.38267 0
M  V30 624 H 57.5319 3.50494 -3.26636 0
M  V30 625 H 55.8959 1.92793 -1.66442 0
M  V30 626 H 56.6789 1.25619 -3.19491 0
M  V30 627 N 59.124 1.23083 0.984299 0
M  V30 628 C 60.37 1.06214 1.72761 0
M  V30 629 C 60.703 -0.400584 1.90024 0
M  V30 630 O 59.978 -1.29672 1.44967 0
M  V30 631 C 60.261 1.78375 3.12817 0
M  V30 632 C 60.114 3.32296 3.03149 0
M  V30 633 C 61.433 1.54309 4.12161 0
M  V30 634 H 58.552 0.387251 0.627061 0
M  V30 635 H 61.194 1.51536 1.14616 0
M  V30 636 H 59.344 1.39848 3.62457 0
M  V30 637 H 61.016 3.8032 2.61064 0
M  V30 638 H 59.259 3.6153 2.39747 0
M  V30 639 H 59.93 3.77972 4.02295 0
M  V30 640 H 62.406 1.87791 3.71314 0
M  V30 641 H 61.282 2.07281 5.08258 0
M  V30 642 H 61.543 0.477572 4.39513 0
M  V30 643 N 60.6021 -1.18246 1.0419 0
M  V30 644 C 61.8501 -1.87886 0.744543 0
M  V30 645 C 62.1711 -1.8082 -0.730006 0
M  V30 646 O 61.4411 -1.22736 -1.52685 0
M  V30 647 H 60.0211 -0.695556 0.272417 0
M  V30 648 H 62.6831 -1.43494 1.31892 0
M  V30 649 H 61.7791 -2.9389 1.05049 0
M  V30 650 N 62.0802 -0.821533 -1.34494 0
M  V30 651 C 63.0272 -0.240397 -2.29545 0
M  V30 652 C 63.9972 0.634031 -1.53523 0
M  V30 653 O 65.1822 0.575966 -1.81899 0
M  V30 654 C 62.3222 0.592869 -3.39969 0
M  V30 655 C 61.4352 -0.30365 -4.30932 0
M  V30 656 C 60.5702 0.539049 -5.28458 0
M  V30 657 C 59.6092 -0.356942 -6.11058 0
M  V30 658 N 58.7462 0.446603 -7.00678 0
M  V30 659 H 63.5862 -1.05632 -2.7865 0
M  V30 660 H 61.1232 -0.532413 -1.37127 0
M  V30 661 H 63.0812 1.09129 -4.02675 0
M  V30 662 H 61.7112 1.37392 -2.92102 0
M  V30 663 H 60.7632 -0.920276 -3.691 0
M  V30 664 H 62.0752 -0.992661 -4.88823 0
M  V30 665 H 61.2292 1.102 -5.96608 0
M  V30 666 H 59.9682 1.26157 -4.71101 0
M  V30 667 H 58.9732 -0.932047 -5.41842 0
M  V30 668 H 60.1982 -1.07755 -6.70497 0
M  V30 669 H 58.1442 1.15282 -6.45791 0
M  V30 670 H 58.0612 -0.184048 -7.55776 0
M  V30 671 H 59.3292 0.992352 -7.73158 0
M  V30 672 N 63.5583 1.46682 -0.576371 0
M  V30 673 C 64.8063 2.02013 -0.0594163 0
M  V30 674 C 65.1273 1.45101 1.30271 0
M  V30 675 O 64.3973 0.633317 1.8538 0
M  V30 676 H 62.9773 0.746759 -0.0189745 0
M  V30 677 H 65.6393 1.79862 -0.750717 0
M  V30 678 H 64.7353 3.12097 0.014345 0
M  V30 679 N 65.0364 0.313813 1.54444 0
M  V30 680 C 66.4474 -0.176243 1.85866 0
M  V30 681 C 66.7984 -1.52405 1.23561 0
M  V30 682 O 65.9234 -2.09605 0.538016 0
M  V30 683 C 66.5184 -0.32657 3.37222 0
M  V30 684 C 65.0774 -0.760846 3.6863 0
M  V30 685 C 64.2244 0.123247 2.77026 0
M  V30 686 H 67.1754 0.534418 1.49431 0
M  V30 687 H 67.1964 -1.15908 3.62416 0
M  V30 688 H 66.7084 0.654531 3.82541 0
M  V30 689 H 64.8094 -1.75204 3.28838 0
M  V30 690 H 64.9224 -0.571353 4.75681 0
M  V30 691 H 63.2864 -0.399597 2.51546 0
M  V30 692 H 64.0694 1.10094 3.25168 0
M  V30 693 N 66.5145 -1.57545 0.0417849 0
M  V30 694 C 67.7605 -1.92601 -0.635021 0
M  V30 695 C 68.0935 -0.919627 -1.71045 0
M  V30 696 O 67.3685 0.0557892 -1.9442 0
M  V30 697 C 67.6515 -3.38085 -1.23979 0
M  V30 698 C 67.5045 -4.49467 -0.173057 0
M  V30 699 C 68.8235 -3.83776 -2.15416 0
M  V30 700 H 65.9425 -0.700397 -0.229374 0
M  V30 701 H 68.5845 -1.89728 0.101633 0
M  V30 702 H 66.7345 -3.40664 -1.86762 0
M  V30 703 H 68.4065 -4.59018 0.458312 0
M  V30 704 H 66.6495 -4.30909 0.499996 0
M  V30 705 H 67.3205 -5.48323 -0.636054 0
M  V30 706 H 69.7965 -3.83013 -1.62605 0
M  V30 707 H 68.6725 -4.8624 -2.54679 0
M  V30 708 H 68.9335 -3.19998 -3.05047 0
M  V30 709 N 67.9926 0.231505 -1.5589 0
M  V30 710 C 69.2696 0.981096 -1.69215 0
M  V30 711 C 69.6496 2.02799 -0.586164 0
M  V30 712 O 68.9976 2.24823 0.408253 0
M  V30 713 C 69.2076 1.60054 -3.10135 0
M  V30 714 C 70.5556 2.09658 -3.69227 0
M  V30 715 O 71.5796 1.69967 -3.13033 0
M  V30 716 O 70.4386 2.8258 -4.67772 0
M  V30 717 H 67.5326 0.457653 -0.688827 0
M  V30 718 H 70.0786 0.224073 -1.68214 0
M  V30 719 H 68.8506 0.844105 -3.82087 0
M  V30 720 H 68.4736 2.42336 -3.15212 0
M  V30 721 N 69.4707 1.49531 0.497807 0
M  V30 722 C 70.4337 1.65916 1.58128 0
M  V30 723 C 71.4337 0.530825 1.51786 0
M  V30 724 O 72.6237 0.797342 1.54881 0
M  V30 725 C 69.7557 1.65951 2.9778 0
M  V30 726 H 70.9487 2.62556 1.44929 0
M  V30 727 H 68.5017 1.38611 0.722275 0
M  V30 728 H 69.2367 0.709065 3.16453 0
M  V30 729 H 69.0217 2.47897 3.03792 0
M  V30 730 H 70.5117 1.80673 3.76493 0
M  V30 731 N 70.9488 -0.749086 1.3866 0
M  V30 732 C 71.8818 -1.87111 1.30631 0
M  V30 733 C 72.8598 -1.61572 0.18251 0
M  V30 734 O 74.0438 -1.85019 0.360592 0
M  V30 735 C 71.1708 -3.22815 1.02511 0
M  V30 736 C 70.2168 -3.67234 2.1689 0
M  V30 737 S 71.0498 -3.78245 3.79066 0
M  V30 738 C 72.2058 -5.16761 3.53142 0
M  V30 739 H 72.4388 -1.93636 2.25594 0
M  V30 740 H 69.9718 -0.912525 1.24549 0
M  V30 741 H 71.9298 -4.01181 0.869701 0
M  V30 742 H 70.5908 -3.13964 0.0925884 0
M  V30 743 H 69.7838 -4.65677 1.92771 0
M  V30 744 H 69.3858 -2.96034 2.28561 0
M  V30 745 H 71.6778 -6.02656 3.09534 0
M  V30 746 H 72.6208 -5.45902 4.50995 0
M  V30 747 H 73.0288 -4.85771 2.87554 0
M  V30 748 N 72.4269 -1.23603 -0.977757 0
M  V30 749 C 73.6549 -1.09646 -1.75458 0
M  V30 750 C 74.0699 0.351859 -1.85492 0
M  V30 751 O 73.4269 1.24327 -1.336 0
M  V30 752 C 73.4779 -1.71895 -3.18016 0
M  V30 753 O 73.1989 -3.11063 -3.08498 0
M  V30 754 C 74.6999 -1.63415 -4.12081 0
M  V30 755 H 71.9199 -0.38359 -0.550545 0
M  V30 756 H 74.4639 -1.63507 -1.22824 0
M  V30 757 H 72.6189 -1.22061 -3.67668 0
M  V30 758 H 73.0329 -3.41305 -3.9826 0
M  V30 759 H 74.5069 -2.11669 -5.09804 0
M  V30 760 H 74.9839 -0.593462 -4.35172 0
M  V30 761 H 75.5899 -2.12628 -3.68334 0
M  V30 762 N 73.905 1.17692 -1.04816 0
M  V30 763 C 74.852 2.21581 -0.645797 0
M  V30 764 C 75.822 1.62367 0.350159 0
M  V30 765 O 77.007 1.89254 0.242433 0
M  V30 766 C 74.147 3.45092 -0.0227568 0
M  V30 767 C 73.26 4.18613 -1.06709 0
M  V30 768 C 72.395 5.29602 -0.411767 0
M  V30 769 C 71.434 5.94904 -1.44067 0
M  V30 770 N 70.571 6.97414 -0.809781 0
M  V30 771 H 75.411 2.55353 -1.5362 0
M  V30 772 H 72.948 1.25438 -0.768364 0
M  V30 773 H 74.906 4.15679 0.35588 0
M  V30 774 H 73.536 3.11917 0.831122 0
M  V30 775 H 72.588 3.46779 -1.5636 0
M  V30 776 H 73.9 4.63293 -1.84827 0
M  V30 777 H 73.054 6.06696 0.0206623 0
M  V30 778 H 71.793 4.86045 0.401438 0
M  V30 779 H 70.798 5.16544 -1.88316 0
M  V30 780 H 72.023 6.40542 -2.25571 0
M  V30 781 H 69.969 6.55998 -0.0170186 0
M  V30 782 H 69.886 7.40386 -1.52856 0
M  V30 783 H 71.154 7.78463 -0.401999 0
M  V30 784 N 75.3831 0.828654 1.34056 0
M  V30 785 C 76.6301 0.419458 1.98108 0
M  V30 786 C 76.9581 -1.01886 1.65679 0
M  V30 787 O 76.2131 -1.72539 0.923512 0
M  V30 788 C 76.5121 0.575226 3.52741 0
M  V30 789 C 76.1781 1.98012 4.05095 0
M  V30 790 C 74.8401 2.36442 4.19104 0
M  V30 791 C 77.1921 2.89824 4.33188 0
M  V30 792 C 74.5201 3.66009 4.58535 0
M  V30 793 C 76.8721 4.1886 4.74066 0
M  V30 794 C 75.5361 4.5726 4.86281 0
M  V30 795 H 74.8061 0.153491 0.724929 0
M  V30 796 H 77.4531 1.05371 1.59904 0
M  V30 797 H 75.7581 -0.142385 3.91541 0
M  V30 798 H 77.4551 0.239057 4.00287 0
M  V30 799 H 74.0451 1.67162 3.94658 0
M  V30 800 H 78.2291 2.61375 4.21897 0
M  V30 801 H 73.4851 3.95579 4.66184 0
M  V30 802 H 77.6591 4.90086 4.94761 0
M  V30 803 H 75.2861 5.57707 5.16592 0
M  V30 804 N 76.8612 -1.46375 0.584142 0
M  V30 805 C 77.7912 -2.33103 -0.136037 0
M  V30 806 C 78.7722 -1.45431 -0.882255 0
M  V30 807 O 79.9572 -1.74246 -0.857434 0
M  V30 808 C 77.0872 -3.27731 -1.14933 0
M  V30 809 C 76.0412 -4.24855 -0.517862 0
M  V30 810 C 75.3672 -5.09001 -1.63773 0
M  V30 811 C 76.6672 -5.19439 0.545886 0
M  V30 812 H 78.3612 -2.93568 0.588086 0
M  V30 813 H 75.9072 -1.41166 0.284259 0
M  V30 814 H 77.8602 -3.87261 -1.66153 0
M  V30 815 H 76.5842 -2.65377 -1.90375 0
M  V30 816 H 75.2432 -3.6659 -0.0267361 0
M  V30 817 H 74.8912 -4.43031 -2.38185 0
M  V30 818 H 74.5912 -5.74777 -1.22085 0
M  V30 819 H 76.1152 -5.71396 -2.15266 0
M  V30 820 H 77.5292 -5.73177 0.118704 0
M  V30 821 H 75.9262 -5.93566 0.88317 0
M  V30 822 H 76.9962 -4.63285 1.43162 0
M  V30 823 N 78.3393 -0.321999 -1.54275 0
M  V30 824 C 79.5643 0.285791 -2.05422 0
M  V30 825 C 79.9893 1.45124 -1.19669 0
M  V30 826 O 79.3473 1.80132 -0.205441 0
M  V30 827 C 79.3953 0.69956 -3.53749 0
M  V30 828 O 78.4993 1.8021 -3.70942 0
M  V30 829 H 77.8403 0.0518962 -0.661969 0
M  V30 830 H 80.3703 -0.469954 -1.9913 0
M  V30 831 H 80.3803 0.982649 -3.9599 0
M  V30 832 H 79.0553 -0.152864 -4.15619 0
M  V30 833 H 77.6323 1.51794 -3.40607 0
M  V30 834 N 79.8174 1.5752 -0.0501392 0
M  V30 835 C 81.0644 1.9265 0.623874 0
M  V30 836 C 81.3924 0.928411 1.70912 0
M  V30 837 O 80.6474 -0.0594525 1.9561 0
M  V30 838 C 80.9464 3.34467 1.25963 0
M  V30 839 C 80.6124 4.49883 0.302689 0
M  V30 840 C 79.2744 4.81184 0.0393636 0
M  V30 841 C 81.6264 5.20002 -0.353205 0
M  V30 842 C 78.9544 5.79951 -0.887308 0
M  V30 843 C 81.3064 6.1976 -1.26806 0
M  V30 844 C 79.9704 6.49491 -1.54007 0
M  V30 845 H 79.2404 0.704957 0.228292 0
M  V30 846 H 81.8874 1.91146 -0.116398 0
M  V30 847 H 80.1924 3.32333 2.07514 0
M  V30 848 H 81.8894 3.58928 1.78806 0
M  V30 849 H 78.4794 4.25457 0.518109 0
M  V30 850 H 82.6634 4.96033 -0.162854 0
M  V30 851 H 77.9194 6.01322 -1.10553 0
M  V30 852 H 82.0934 6.73205 -1.78236 0
M  V30 853 H 79.7204 7.25837 -2.25976 0
M  V30 854 N 81.2955 -0.223234 1.56011 0
M  V30 855 C 82.2585 -1.26014 1.9145 0
M  V30 856 C 83.2585 -1.3989 0.792937 0
M  V30 857 O 84.4485 -1.38184 1.0607 0
M  V30 858 C 81.5805 -2.63422 2.16383 0
M  V30 859 H 82.7735 -0.95796 2.84189 0
M  V30 860 H 80.3265 -0.463576 1.49267 0
M  V30 861 H 81.0615 -2.98741 1.2619 0
M  V30 862 H 80.8465 -2.54728 2.98088 0
M  V30 863 H 82.3365 -3.38249 2.44903 0
M  V30 864 N 82.7736 -1.49793 -0.48987 0
M  V30 865 C 83.7206 -1.67281 -1.59014 0
M  V30 866 C 84.6906 -0.514177 -1.57941 0
M  V30 867 O 85.8756 -0.742533 -1.75759 0
M  V30 868 C 83.0156 -1.75569 -2.97102 0
M  V30 869 C 82.1286 -3.0281 -3.08107 0
M  V30 870 C 81.2636 -3.02008 -4.36995 0
M  V30 871 C 80.3026 -4.23782 -4.41673 0
M  V30 872 N 79.4396 -4.20826 -5.62005 0
M  V30 873 H 84.2796 -2.61224 -1.43409 0
M  V30 874 H 81.8166 -1.29508 -0.697565 0
M  V30 875 H 83.7746 -1.78354 -3.77155 0
M  V30 876 H 82.4046 -0.850827 -3.11385 0
M  V30 877 H 81.4566 -3.09584 -2.21047 0
M  V30 878 H 82.7686 -3.92801 -3.07423 0
M  V30 879 H 81.9226 -3.03418 -5.25378 0
M  V30 880 H 80.6616 -2.09815 -4.4026 0
M  V30 881 H 79.6666 -4.22604 -3.5169 0
M  V30 882 H 80.8916 -5.17181 -4.40115 0
M  V30 883 H 78.8376 -3.31476 -5.66091 0
M  V30 884 H 78.7546 -5.04564 -5.62984 0
M  V30 885 H 80.0226 -4.26355 -6.52565 0
M  V30 886 N 84.2517 0.741722 -1.39055 0
M  V30 887 C 85.6677 1.04638 -1.20512 0
M  V30 888 C 85.8677 2.01405 -0.0620218 0
M  V30 889 O 84.9237 2.45547 0.588457 0
M  V30 890 C 86.2367 1.6151 -2.53643 0
M  V30 891 C 87.7847 1.73623 -2.6043 0
M  V30 892 C 88.2597 2.33906 -3.93767 0
M  V30 893 N 89.7507 2.41323 -3.9537 0
M  V30 894 C 90.4857 2.88888 -4.95309 0
M  V30 895 N 89.9817 3.36401 -6.05645 0
M  V30 896 N 91.7747 2.88037 -4.82692 0
M  V30 897 H 83.9257 0.0998155 -2.12165 0
M  V30 898 H 86.1887 0.106907 -0.941953 0
M  V30 899 H 85.8947 0.978739 -3.37807 0
M  V30 900 H 85.7687 2.60411 -2.72885 0
M  V30 901 H 88.1557 2.36384 -1.76655 0
M  V30 902 H 88.2367 0.733945 -2.45045 0
M  V30 903 H 87.8807 1.71776 -4.7797 0
M  V30 904 H 87.8107 3.34799 -4.06469 0
M  V30 905 H 90.3017 2.07734 -3.15682 0
M  V30 906 H 90.6147 3.71186 -6.77821 0
M  V30 907 H 88.9597 3.34427 -6.09248 0
M  V30 908 H 92.1507 2.50237 -3.95599 0
M  V30 909 H 92.3237 3.24792 -5.60726 0
M  V30 910 N 85.7298 1.2412 0.971189 0
M  V30 911 C 87.0068 0.986867 1.6888 0
M  V30 912 C 87.3868 -0.491857 2.0529 0
M  V30 913 O 86.7348 -1.46531 1.75331 0
M  V30 914 C 86.9448 1.9063 2.92338 0
M  V30 915 C 88.2928 2.17515 3.64654 0
M  V30 916 O 89.3168 1.88254 3.02388 0
M  V30 917 O 88.1758 2.6719 4.7673 0
M  V30 918 H 85.2698 0.372944 0.738134 0
M  V30 919 H 87.8158 1.35203 1.02559 0
M  V30 920 H 86.5878 2.90552 2.62097 0
M  V30 921 H 86.2108 1.54408 3.66393 0
M  V30 922 N 87.2079 -1.17134 1.05439 0
M  V30 923 C 88.4559 -1.87085 0.764429 0
M  V30 924 C 88.7769 -1.81584 -0.710787 0
M  V30 925 O 88.0469 -1.24349 -1.51374 0
M  V30 926 H 86.6269 -0.692627 0.279779 0
M  V30 927 H 89.2889 -1.42087 1.33406 0
M  V30 928 H 88.3849 -2.92759 1.0816 0
M  V30 929 N 88.686 -0.835752 -1.33615 0
M  V30 930 C 89.933 -0.429959 -1.97883 0
M  V30 931 C 90.261 1.01006 -1.66217 0
M  V30 932 O 89.516 1.72047 -0.93265 0
M  V30 933 C 89.815 -0.593925 -3.52431 0
M  V30 934 C 89.481 -2.00158 -4.04039 0
M  V30 935 C 88.143 -2.38662 -4.17844 0
M  V30 936 C 90.495 -2.92117 -4.31644 0
M  V30 937 C 87.823 -3.68435 -4.56588 0
M  V30 938 C 90.175 -4.21368 -4.71838 0
M  V30 939 C 88.839 -4.59833 -4.83849 0
M  V30 940 H 88.109 -0.157333 -0.724104 0
M  V30 941 H 90.756 -1.06217 -1.59343 0
M  V30 942 H 89.061 0.121619 -3.91611 0
M  V30 943 H 90.758 -0.260282 -4.00154 0
M  V30 944 H 87.348 -1.69252 -3.93766 0
M  V30 945 H 91.532 -2.63608 -4.20505 0
M  V30 946 H 86.788 -3.98046 -4.64079 0
M  V30 947 H 90.962 -4.92703 -4.92155 0
M  V30 948 H 88.589 -5.60438 -5.13627 0
M  V30 949 N 90.1641 1.46063 -0.591896 0
M  V30 950 C 91.4411 1.95595 -0.0137119 0
M  V30 951 C 91.8211 1.5345 1.4497 0
M  V30 952 O 91.1691 0.789543 2.14426 0
M  V30 953 C 91.3791 3.48453 -0.195373 0
M  V30 954 C 92.7271 4.24546 -0.0679765 0
M  V30 955 O 93.7511 3.55982 -0.124681 0
M  V30 956 O 92.6101 5.46467 0.0600579 0
M  V30 957 H 89.7041 0.825795 0.0446279 0
M  V30 958 H 92.2501 1.56303 -0.660859 0
M  V30 959 H 91.0221 3.72045 -1.21235 0
M  V30 960 H 90.6451 3.94597 0.487775 0
M  V30 961 N 91.6422 0.330177 1.54103 0
M  V30 962 C 92.8702 -0.272179 2.05102 0
M  V30 963 C 93.2852 -1.45267 1.20595 0
M  V30 964 O 92.6422 -1.8094 0.238144 0
M  V30 965 C 92.6932 -0.70023 3.54653 0
M  V30 966 O 92.4142 0.433301 4.35952 0
M  V30 967 C 93.9152 -1.3647 4.21771 0
M  V30 968 H 91.1352 -0.0549159 0.668749 0
M  V30 969 H 93.6792 0.478285 1.98828 0
M  V30 970 H 91.8342 -1.40066 3.61193 0
M  V30 971 H 92.2482 0.0947539 5.24414 0
M  V30 972 H 93.7222 -1.61509 5.27843 0
M  V30 973 H 94.1992 -2.31409 3.73292 0
M  V30 974 H 94.8052 -0.706675 4.19388 0
M  V30 975 N 93.1203 -1.57491 0.0584922 0
M  V30 976 C 94.0303 -2.15448 -0.928414 0
M  V30 977 C 95.0463 -1.11416 -1.3365 0
M  V30 978 O 96.2223 -1.4362 -1.41193 0
M  V30 979 C 93.2873 -2.69393 -2.18239 0
M  V30 980 C 92.3483 -3.88249 -1.83196 0
M  V30 981 C 91.5813 -4.39613 -3.02616 0
M  V30 982 O 91.8043 -3.90023 -4.16219 0
M  V30 983 O 90.7383 -5.31111 -2.83204 0
M  V30 984 H 94.5643 -3.00112 -0.465483 0
M  V30 985 H 92.1493 -1.48499 -0.163826 0
M  V30 986 H 94.0313 -3.04026 -2.91798 0
M  V30 987 H 92.7063 -1.87796 -2.63656 0
M  V30 988 H 91.6133 -3.58492 -1.06931 0
M  V30 989 H 92.9463 -4.71098 -1.42573 0
M  V30 990 N 94.5984 0.214957 -1.56127 0
M  V30 991 C 95.5464 1.28601 -1.93816 0
M  V30 992 C 96.5404 1.48175 -0.821016 0
M  V30 993 O 97.7464 1.49271 -1.0059 0
M  V30 994 H 94.1214 0.431302 -0.616022 0
M  V30 995 H 96.0924 0.940991 -2.83175 0
M  V30 996 C 94.8414 2.62779 -2.27689 0
M  V30 997 H 94.1644 2.48527 -3.13168 0
M  V30 998 H 95.6044 3.36517 -2.57939 0
M  V30 999 C 94.0634 3.18285 -1.10436 0
M  V30 1000 O 94.5934 4.00002 -0.368945 0
M  V30 1001 N 92.7994 2.7675 -0.886433 0
M  V30 1002 H 92.3464 2.10404 -1.48619 0
M  V30 1003 H 92.3044 3.14229 -0.103656 0
M  V30 1004 N 96.0765 1.50051 0.48192 0
M  V30 1005 C 97.3235 1.60498 1.23477 0
M  V30 1006 C 97.6515 0.300331 1.92167 0
M  V30 1007 O 96.9065 -0.713094 1.82246 0
M  V30 1008 C 97.2055 2.72717 2.30998 0
M  V30 1009 C 96.8715 4.13572 1.79636 0
M  V30 1010 C 95.5335 4.519 1.65348 0
M  V30 1011 C 97.8855 5.01649 1.41412 0
M  V30 1012 C 95.2135 5.76057 1.11244 0
M  V30 1013 C 97.5655 6.26343 0.887538 0
M  V30 1014 C 96.2295 6.63483 0.731207 0
M  V30 1015 H 95.4995 0.587303 0.451836 0
M  V30 1016 H 98.1465 1.83948 0.532468 0
M  V30 1017 H 96.4515 2.43312 3.07094 0
M  V30 1018 H 98.1485 2.78006 2.88988 0
M  V30 1019 H 94.7385 3.83329 1.91721 0
M  V30 1020 H 98.9225 4.72679 1.51289 0
M  V30 1021 H 94.1785 6.03516 0.978686 0
M  V30 1022 H 98.3525 6.93958 0.582654 0
M  V30 1023 H 95.9795 7.59568 0.309806 0
M  V30 1024 N 97.5546 -0.734337 1.39446 0
M  V30 1025 C 98.5176 -1.83004 1.37994 0
M  V30 1026 C 99.5176 -1.58397 0.276938 0
M  V30 1027 O 100.708 -1.65785 0.534875 0
M  V30 1028 C 97.8396 -3.20802 1.1532 0
M  V30 1029 H 99.0326 -1.85694 2.35494 0
M  V30 1030 H 96.5856 -0.938059 1.25021 0
M  V30 1031 H 97.3206 -3.23772 0.185036 0
M  V30 1032 H 97.1056 -3.4006 1.95197 0
M  V30 1033 H 98.5956 -4.00862 1.17046 0
M  V30 1034 N 99.0327 -1.24633 -0.964593 0
M  V30 1035 C 99.9807 -1.03917 -2.08096 0
M  V30 1036 C 100.975 0.0268581 -1.69379 0
M  V30 1037 O 102.181 -0.127952 -1.79545 0
M  V30 1038 H 98.5557 -0.319044 -0.680966 0
M  V30 1039 H 100.527 -1.98581 -2.22729 0
M  V30 1040 C 99.2757 -0.663983 -3.41301 0
M  V30 1041 H 98.5987 -1.47605 -3.71555 0
M  V30 1042 H 100.039 -0.558663 -4.20303 0
M  V30 1043 C 98.4977 0.629169 -3.30973 0
M  V30 1044 O 99.0277 1.67404 -3.65156 0
M  V30 1045 N 97.2337 0.611057 -2.84103 0
M  V30 1046 H 96.7807 -0.239593 -2.56483 0
M  V30 1047 H 96.7387 1.47647 -2.77575 0
M  V30 1048 N 100.511 1.16574 -1.06058 0
M  V30 1049 C 101.741 1.90675 -0.795397 0
M  V30 1050 C 102.149 1.77547 0.653735 0
M  V30 1051 O 101.492 1.11611 1.45907 0
M  V30 1052 C 101.554 3.42011 -1.10764 0
M  V30 1053 C 101.218 3.78924 -2.55471 0
M  V30 1054 C 102.215 3.81042 -3.53699 0
M  V30 1055 C 99.8998 4.09626 -2.90708 0
M  V30 1056 C 101.894 4.13346 -4.85205 0
M  V30 1057 C 99.5808 4.41597 -4.22416 0
M  V30 1058 C 100.579 4.43436 -5.19474 0
M  V30 1059 O 100.267 4.74649 -6.48817 0
M  V30 1060 H 99.9988 0.611554 -0.288058 0
M  V30 1061 H 102.553 1.48711 -1.41683 0
M  V30 1062 H 100.783 3.84312 -0.429128 0
M  V30 1063 H 102.472 3.97384 -0.827077 0
M  V30 1064 H 103.238 3.57437 -3.27817 0
M  V30 1065 H 99.1168 4.07361 -2.15819 0
M  V30 1066 H 102.661 4.14696 -5.60957 0
M  V30 1067 H 98.5578 4.64667 -4.48056 0
M  V30 1068 H 99.3258 4.9247 -6.5377 0
M  V30 1069 N 101.989 0.842826 1.3317 0
M  V30 1070 C 102.952 0.284065 2.27433 0
M  V30 1071 C 103.952 -0.54948 1.5112 0
M  V30 1072 O 105.142 -0.362699 1.70382 0
M  V30 1073 C 102.274 -0.599384 3.35589 0
M  V30 1074 H 103.467 1.11589 2.78366 0
M  V30 1075 H 101.02 0.616221 1.4364 0
M  V30 1076 H 101.755 -1.45349 2.89904 0
M  V30 1077 H 101.54 -0.00291266 3.921 0
M  V30 1078 H 103.03 -0.983488 4.05854 0
M  V30 1079 N 103.467 -1.45747 0.599634 0
M  V30 1080 C 104.715 -2.01893 0.0915472 0
M  V30 1081 C 105.036 -1.47155 -1.27946 0
M  V30 1082 O 104.306 -0.66273 -1.84349 0
M  V30 1083 H 102.886 -0.746363 0.0308524 0
M  V30 1084 H 105.548 -1.78645 0.779237 0
M  V30 1085 H 104.644 -3.1208 0.0353086 0
M  V30 1086 N 104.945 -0.338344 -1.53925 0
M  V30 1087 C 106.361 0.0137736 -1.59594 0
M  V30 1088 C 106.561 1.49186 -1.35447 0
M  V30 1089 O 105.617 2.24987 -1.14616 0
M  V30 1090 C 106.93 -0.41773 -2.97784 0
M  V30 1091 C 108.478 -0.369633 -3.1081 0
M  V30 1092 C 108.953 -0.776524 -4.51369 0
M  V30 1093 N 110.444 -0.730506 -4.57403 0
M  V30 1094 C 111.179 -1.01736 -5.64303 0
M  V30 1095 N 110.675 -1.3721 -6.79077 0
M  V30 1096 N 112.468 -0.941942 -5.54151 0
M  V30 1097 H 104.619 -1.3012 -1.67876 0
M  V30 1098 H 106.882 -0.530082 -0.78595 0
M  V30 1099 H 106.588 -1.44811 -3.20504 0
M  V30 1100 H 106.462 0.209729 -3.76616 0
M  V30 1101 H 108.849 0.651568 -2.87817 0
M  V30 1102 H 108.93 -1.03223 -2.34049 0
M  V30 1103 H 108.574 -1.79571 -4.75096 0
M  V30 1104 H 108.504 -0.0914649 -5.26521 0
M  V30 1105 H 110.995 -0.468783 -3.74981 0
M  V30 1106 H 111.308 -1.57597 -7.5656 0
M  V30 1107 H 109.653 -1.4105 -6.80536 0
M  V30 1108 H 112.844 -0.664184 -4.63364 0
M  V30 1109 H 113.017 -1.16884 -6.37371 0
M  V30 1110 N 106.423 1.57458 -0.0668435 0
M  V30 1111 C 107.669 1.93587 0.6043 0
M  V30 1112 C 108.002 0.946722 1.69561 0
M  V30 1113 O 107.277 -0.0248516 1.94484 0
M  V30 1114 C 107.56 3.40014 1.18585 0
M  V30 1115 C 107.413 4.49685 0.101529 0
M  V30 1116 C 108.732 3.87154 2.09284 0
M  V30 1117 H 105.851 0.703958 0.218202 0
M  V30 1118 H 108.493 1.89542 -0.131804 0
M  V30 1119 H 106.643 3.43592 1.81319 0
M  V30 1120 H 108.315 4.5823 -0.531279 0
M  V30 1121 H 106.558 4.30059 -0.568487 0
M  V30 1122 H 107.229 5.49266 0.54874 0
M  V30 1123 H 109.705 3.85551 1.56491 0
M  V30 1124 H 108.581 4.90231 2.46911 0
M  V30 1125 H 108.842 3.2481 2.99918 0
M  V30 1126 N 107.901 -0.206675 1.56239 0
M  V30 1127 C 108.849 -1.27571 1.94495 0
M  V30 1128 C 109.843 -1.47737 0.828862 0
M  V30 1129 O 111.049 -1.48735 1.0138 0
M  V30 1130 H 107.424 -0.428029 0.6183 0
M  V30 1131 H 109.395 -0.925961 2.8367 0
M  V30 1132 C 108.144 -2.61568 2.29079 0
M  V30 1133 H 107.467 -2.46863 3.14482 0
M  V30 1134 H 108.907 -3.35144 2.5972 0
M  V30 1135 C 107.366 -3.17695 1.12123 0
M  V30 1136 O 107.896 -3.99801 0.390153 0
M  V30 1137 N 106.102 -2.76276 0.901097 0
M  V30 1138 H 105.649 -2.09613 1.49733 0
M  V30 1139 H 105.607 -3.1417 0.120319 0
M  V30 1140 N 109.379 -1.50304 -0.473955 0
M  V30 1141 C 110.626 -1.6115 -1.22625 0
M  V30 1142 C 110.954 -0.310517 -1.92005 0
M  V30 1143 O 110.209 0.703419 -1.82621 0
M  V30 1144 C 110.508 -2.73938 -2.29549 0
M  V30 1145 C 110.174 -4.14519 -1.7744 0
M  V30 1146 C 108.836 -4.5277 -1.62949 0
M  V30 1147 C 111.188 -5.02392 -1.3875 0
M  V30 1148 C 108.516 -5.76639 -1.08187 0
M  V30 1149 C 110.868 -6.26805 -0.854309 0
M  V30 1150 C 109.532 -6.63861 -0.696011 0
M  V30 1151 H 108.802 -0.589691 -0.448715 0
M  V30 1152 H 111.449 -1.84228 -0.522705 0
M  V30 1153 H 109.754 -2.44937 -3.05799 0
M  V30 1154 H 111.451 -2.79534 -2.87509 0
M  V30 1155 H 108.041 -3.8434 -1.89685 0
M  V30 1156 H 112.225 -4.73474 -1.4878 0
M  V30 1157 H 107.481 -6.04027 -0.946666 0
M  V30 1158 H 111.655 -6.94258 -0.545843 0
M  V30 1159 H 109.282 -7.59722 -0.26952 0
M  V30 1160 N 110.857 0.726932 -1.39834 0
M  V30 1161 C 112.105 1.4837 -1.37225 0
M  V30 1162 C 112.426 1.94979 0.0284857 0
M  V30 1163 O 111.696 1.69555 0.981213 0
M  V30 1164 H 110.276 0.55043 -0.505011 0
M  V30 1165 H 112.938 0.862468 -1.74778 0
M  V30 1166 H 112.034 2.36198 -2.04003 0
M  V30 1167 N 112.336 1.25143 0.95797 0
M  V30 1168 C 113.299 1.05321 2.03569 0
M  V30 1169 C 114.299 0.007152 1.60798 0
M  V30 1170 O 115.489 0.24903 1.72411 0
M  V30 1171 C 112.621 0.598394 3.35607 0
M  V30 1172 H 113.814 2.00986 2.22586 0
M  V30 1173 H 111.367 1.07502 1.13459 0
M  V30 1174 H 112.102 -0.361014 3.22284 0
M  V30 1175 H 111.887 1.35351 3.67998 0
M  V30 1176 H 113.377 0.48104 4.1482 0
M  V30 1177 N 113.814 -1.1601 1.06675 0
M  V30 1178 C 115.062 -1.86264 0.784229 0
M  V30 1179 C 115.383 -1.82328 -0.691488 0
M  V30 1180 O 114.653 -1.25947 -1.50047 0
M  V30 1181 H 113.233 -0.689621 0.28711 0
M  V30 1182 H 115.895 -1.40664 1.34906 0
M  V30 1183 H 114.991 -2.91595 1.11259 0
M  V30 1184 N 115.292 -0.849877 -1.32721 0
M  V30 1185 C 116.569 -0.372405 -1.92022 0
M  V30 1186 C 116.949 1.1435 -1.77447 0
M  V30 1187 O 116.297 1.96296 -1.16962 0
M  V30 1188 C 116.507 -0.831482 -3.3895 0
M  V30 1189 C 117.855 -0.845882 -4.16089 0
M  V30 1190 O 118.879 -0.775806 -3.47649 0
M  V30 1191 O 117.738 -0.943753 -5.38289 0
M  V30 1192 H 114.832 -0.107667 -0.819961 0
M  V30 1193 H 117.378 -0.93646 -1.41522 0
M  V30 1194 H 116.15 -1.87448 -3.4348 0
M  V30 1195 H 115.773 -0.24461 -3.96847 0
M  V30 1196 N 116.77 1.45427 -0.607355 0
M  V30 1197 C 117.717 2.3053 0.111625 0
M  V30 1198 C 118.687 1.4209 0.860216 0
M  V30 1199 O 119.872 1.71019 0.845998 0
M  V30 1200 C 117.012 3.26992 1.10319 0
M  V30 1201 C 116.125 4.30535 0.355493 0
M  V30 1202 C 115.26 5.14105 1.33676 0
M  V30 1203 C 114.299 6.09376 0.576862 0
M  V30 1204 N 113.436 6.85727 1.5074 0
M  V30 1205 H 118.276 2.91477 -0.620093 0
M  V30 1206 H 115.813 1.43631 -0.317594 0
M  V30 1207 H 117.771 3.81385 1.6912 0
M  V30 1208 H 116.401 2.67799 1.80232 0
M  V30 1209 H 115.453 3.78805 -0.348023 0
M  V30 1210 H 116.765 4.98235 -0.237423 0
M  V30 1211 H 115.919 5.72897 1.99684 0
M  V30 1212 H 114.658 4.46423 1.9636 0
M  V30 1213 H 113.663 5.49715 -0.0968519 0
M  V30 1214 H 114.888 6.79085 -0.0449341 0
M  V30 1215 H 112.834 6.20735 2.12189 0
M  V30 1216 H 112.751 7.49778 0.967913 0
M  V30 1217 H 114.019 7.4906 2.15706 0
M  V30 1218 N 118.248 0.346503 1.53744 0
M  V30 1219 C 119.664 -0.00530975 1.59599 0
M  V30 1220 C 119.864 -1.48465 1.36236 0
M  V30 1221 O 118.92 -2.24376 1.15808 0
M  V30 1222 C 120.233 0.433516 2.97559 0
M  V30 1223 C 121.781 0.386111 3.10609 0
M  V30 1224 C 122.256 0.800451 4.50951 0
M  V30 1225 N 123.747 0.754753 4.5701 0
M  V30 1226 C 124.482 1.04727 5.63755 0
M  V30 1227 N 123.978 1.4081 6.7834 0
M  V30 1228 N 125.771 0.971316 5.53644 0
M  V30 1229 H 117.922 1.31009 1.67184 0
M  V30 1230 H 120.185 0.534242 0.783128 0
M  V30 1231 H 119.891 1.46509 3.19731 0
M  V30 1232 H 119.765 -0.189753 3.76722 0
M  V30 1233 H 122.152 -0.636295 2.88158 0
M  V30 1234 H 122.233 1.04462 2.33498 0
M  V30 1235 H 121.877 1.82088 4.74137 0
M  V30 1236 H 121.807 0.119386 5.26465 0
M  V30 1237 H 124.298 0.488662 3.74727 0
M  V30 1238 H 124.611 1.61607 7.55714 0
M  V30 1239 H 122.956 1.44657 6.79779 0
M  V30 1240 H 126.147 0.688748 4.63005 0
M  V30 1241 H 126.32 1.20263 6.36742 0
M  V30 1242 N 119.726 -1.57421 0.075193 0
M  V30 1243 C 120.656 -2.15942 -0.888324 0
M  V30 1244 C 121.637 -1.08737 -1.30806 0
M  V30 1245 O 122.822 -1.36787 -1.37851 0
M  V30 1246 C 119.952 -2.72379 -2.1547 0
M  V30 1247 C 118.906 -3.8478 -1.87425 0
M  V30 1248 C 118.232 -4.27834 -3.20721 0
M  V30 1249 C 119.532 -5.08869 -1.17684 0
M  V30 1250 H 121.226 -2.96705 -0.400799 0
M  V30 1251 H 118.772 -1.42723 -0.191342 0
M  V30 1252 H 120.725 -3.11965 -2.83295 0
M  V30 1253 H 119.449 -1.88841 -2.6647 0
M  V30 1254 H 118.108 -3.45703 -1.22004 0
M  V30 1255 H 117.756 -3.41214 -3.6957 0
M  V30 1256 H 117.456 -5.03605 -3.02746 0
M  V30 1257 H 118.98 -4.70039 -3.89738 0
M  V30 1258 H 120.394 -5.4575 -1.75584 0
M  V30 1259 H 118.791 -5.8994 -1.09956 0
M  V30 1260 H 119.861 -4.84648 -0.156453 0
M  V30 1261 N 121.204 0.198386 -1.56346 0
M  V30 1262 C 122.452 0.91747 -1.80075 0
M  V30 1263 C 122.773 1.83929 -0.647692 0
M  V30 1264 O 122.043 1.93029 0.334166 0
M  V30 1265 H 120.623 0.341774 -0.664228 0
M  V30 1266 H 123.285 0.204684 -1.93822 0
M  V30 1267 H 122.381 1.51055 -2.7311 0
M  V30 1268 N 122.682 1.50554 0.465978 0
M  V30 1269 C 123.931 1.61038 1.21448 0
M  V30 1270 C 124.244 0.31865 1.92987 0
M  V30 1271 O 125.45 0.302469 2.6981 0
M  V30 1272 C 123.906 2.84283 2.20706 0
M  V30 1273 C 123.514 4.20352 1.54946 0
M  V30 1274 C 125.258 3.04115 2.96166 0
M  V30 1275 C 123.165 5.34778 2.5252 0
M  V30 1276 H 122.095 0.599718 0.457005 0
M  V30 1277 H 124.746 1.7699 0.484424 0
M  V30 1278 H 123.128 2.61901 2.97025 0
M  V30 1279 H 124.302 4.53008 0.843811 0
M  V30 1280 H 122.617 4.06167 0.917475 0
M  V30 1281 H 125.214 3.86774 3.69202 0
M  V30 1282 H 125.557 2.16045 3.55852 0
M  V30 1283 H 126.09 3.26702 2.26959 0
M  V30 1284 H 122.829 6.25018 1.97566 0
M  V30 1285 H 122.349 5.06534 3.21222 0
M  V30 1286 H 124.028 5.65561 3.14245 0
M  V30 1287 N 124.16 -0.719506 1.40217 0
M  V30 1288 C 125.409 -1.47486 1.37589 0
M  V30 1289 C 125.722 -1.9559 -0.0201568 0
M  V30 1290 O 126.928 -2.70973 -0.169049 0
M  V30 1291 C 125.384 -2.66575 2.41796 0
M  V30 1292 C 124.992 -2.25358 3.87192 0
M  V30 1293 C 126.736 -3.4433 2.48269 0
M  V30 1294 C 124.643 -3.41262 4.83005 0
M  V30 1295 H 123.573 -0.553901 0.511576 0
M  V30 1296 H 126.224 -0.783427 1.65936 0
M  V30 1297 H 124.606 -3.3787 2.06543 0
M  V30 1298 H 125.78 -1.61509 4.31569 0
M  V30 1299 H 124.095 -1.60657 3.84159 0
M  V30 1300 H 126.692 -4.30569 3.17041 0
M  V30 1301 H 127.035 -3.87872 1.51198 0
M  V30 1302 H 127.568 -2.80076 2.82493 0
M  V30 1303 H 124.307 -3.02755 5.81394 0
M  V30 1304 H 123.827 -4.0404 4.43297 0
M  V30 1305 H 125.506 -4.07383 5.02641 0
M  V30 1306 N 125.638 -1.25649 -0.95132 0
M  V30 1307 C 126.886 -1.10375 -1.69298 0
M  V30 1308 C 127.207 0.355339 -1.91735 0
M  V30 1309 O 126.477 1.25188 -1.50681 0
M  V30 1310 H 125.057 -0.405461 -0.627384 0
M  V30 1311 H 127.719 -1.57823 -1.14358 0
M  V30 1312 H 126.815 -1.61465 -2.67087 0
M  V30 1313 N 127.117 1.15442 -1.07289 0
M  V30 1314 C 128.067 2.18164 -0.662467 0
M  V30 1315 C 129.051 1.57845 0.312074 0
M  V30 1316 O 130.243 1.76552 0.125905 0
M  V30 1317 C 127.372 3.43246 -0.0611295 0
M  V30 1318 C 126.458 4.1062 -1.06077 0
M  V30 1319 N 126.849 4.53491 -2.24008 0
M  V30 1320 C 125.147 4.36949 -0.893964 0
M  V30 1321 C 125.848 5.05731 -2.87422 0
M  V30 1322 N 124.824 4.99236 -2.15091 0
M  V30 1323 H 128.626 2.49038 -1.56068 0
M  V30 1324 H 126.14 1.32003 -0.945988 0
M  V30 1325 H 128.137 4.16145 0.250792 0
M  V30 1326 H 126.797 3.13854 0.832207 0
M  V30 1327 H 127.808 4.46898 -2.6173 0
M  V30 1328 H 124.485 4.17466 -0.0534693 0
M  V30 1329 H 125.875 5.48865 -3.87553 0
M  V30 1330 N 128.595 0.856903 1.32268 0
M  V30 1331 C 129.528 0.247937 2.26849 0
M  V30 1332 C 130.506 -0.615382 1.50505 0
M  V30 1333 O 131.69 -0.571689 1.79622 0
M  V30 1334 C 128.817 -0.650093 3.32403 0
M  V30 1335 C 127.863 0.140138 4.2627 0
M  V30 1336 S 128.696 1.51004 5.13769 0
M  V30 1337 C 129.852 0.61778 6.22844 0
M  V30 1338 H 130.085 1.04971 2.78152 0
M  V30 1339 H 127.618 0.654665 1.39834 0
M  V30 1340 H 129.576 -1.16256 3.93694 0
M  V30 1341 H 128.237 -1.4257 2.7988 0
M  V30 1342 H 127.43 -0.543945 5.01056 0
M  V30 1343 H 127.032 0.584267 3.69408 0
M  V30 1344 H 129.324 -0.177053 6.77269 0
M  V30 1345 H 130.267 1.33636 6.95375 0
M  V30 1346 H 130.675 0.191124 5.64176 0
M  V30 1347 N 130.073 -1.45103 0.615059 0
M  V30 1348 C 131.35 -1.95549 0.0448276 0
M  V30 1349 C 131.73 -1.55737 -1.4251 0
M  V30 1350 O 131.078 -0.823556 -2.13143 0
M  V30 1351 C 131.288 -3.48098 0.250785 0
M  V30 1352 C 132.636 -4.24384 0.135509 0
M  V30 1353 O 133.66 -3.55738 0.181299 0
M  V30 1354 O 132.519 -5.46493 0.0268878 0
M  V30 1355 H 129.613 -0.8264 -0.0314845 0
M  V30 1356 H 132.159 -1.55232 0.685642 0
M  V30 1357 H 130.931 -3.7007 1.27139 0
M  V30 1358 H 130.554 -3.95323 -0.424937 0
M  V30 1359 N 131.551 -0.354651 -1.53558 0
M  V30 1360 C 132.797 0.238797 -2.01389 0
M  V30 1361 C 133.13 1.49309 -1.2418 0
M  V30 1362 O 132.405 1.91638 -0.332457 0
M  V30 1363 C 132.688 0.541771 -3.56001 0
M  V30 1364 C 132.541 -0.725388 -4.43912 0
M  V30 1365 C 133.86 1.34685 -4.18984 0
M  V30 1366 H 130.979 0.0853177 -0.732045 0
M  V30 1367 H 133.621 -0.477384 -1.83905 0
M  V30 1368 H 131.771 1.15189 -3.71031 0
M  V30 1369 H 133.443 -1.36313 -4.407 0
M  V30 1370 H 131.686 -1.34801 -4.12324 0
M  V30 1371 H 132.357 -0.468505 -5.50008 0
M  V30 1372 H 134.833 0.830837 -4.07721 0
M  V30 1373 H 133.709 1.52759 -5.27215 0
M  V30 1374 H 133.97 2.35221 -3.74331 0
M  V30 1375 N 133.029 1.57378 -0.0835403 0
M  V30 1376 C 134.275 1.94217 0.583733 0
M  V30 1377 C 134.608 0.964653 1.68547 0
M  V30 1378 O 133.883 -0.00422258 1.945 0
M  V30 1379 C 134.166 3.41253 1.14972 0
M  V30 1380 C 134.019 4.49768 0.0538277 0
M  V30 1381 C 135.338 3.89352 2.05166 0
M  V30 1382 H 132.457 0.706233 0.210724 0
M  V30 1383 H 135.099 1.89392 -0.1519 0
M  V30 1384 H 133.249 3.45496 1.77665 0
M  V30 1385 H 134.921 4.57641 -0.579851 0
M  V30 1386 H 133.164 4.29432 -0.614068 0
M  V30 1387 H 133.835 5.49817 0.490452 0
M  V30 1388 H 136.311 3.87189 1.52393 0
M  V30 1389 H 135.187 4.92822 2.41698 0
M  V30 1390 H 135.448 3.27973 2.96456 0
M  V30 1391 N 134.507 -0.190092 1.56449 0
M  V30 1392 C 135.918 -0.754312 1.70784 0
M  V30 1393 C 136.269 -1.83631 0.690951 0
M  V30 1394 O 135.394 -2.15868 -0.151604 0
M  V30 1395 C 135.989 -1.37503 3.09642 0
M  V30 1396 C 134.548 -1.88628 3.25725 0
M  V30 1397 C 133.695 -0.758098 2.66736 0
M  V30 1398 H 136.646 0.0350524 1.58661 0
M  V30 1399 H 136.667 -2.2445 3.0725 0
M  V30 1400 H 136.179 -0.587302 3.83631 0
M  V30 1401 H 134.28 -2.70103 2.56661 0
M  V30 1402 H 134.393 -2.04462 4.3328 0
M  V30 1403 H 132.757 -1.17369 2.26046 0
M  V30 1404 H 133.54 0.0174705 3.43296 0
M  V30 1405 N 135.985 -1.50799 -0.457987 0
M  V30 1406 C 136.948 -1.7005 -1.53674 0
M  V30 1407 C 137.948 -0.570881 -1.50325 0
M  V30 1408 O 139.138 -0.838126 -1.52712 0
M  V30 1409 C 136.27 -1.73788 -2.93276 0
M  V30 1410 H 137.463 -2.66306 -1.37917 0
M  V30 1411 H 135.016 -1.40477 -0.685271 0
M  V30 1412 H 135.751 -0.792717 -3.14462 0
M  V30 1413 H 135.536 -2.55864 -2.97113 0
M  V30 1414 H 137.026 -1.90591 -3.71571 0
M  V30 1415 N 137.463 0.71206 -1.40597 0
M  V30 1416 C 138.711 1.46907 -1.38791 0
M  V30 1417 C 139.032 1.94998 0.00780391 0
M  V30 1418 O 138.302 1.70587 0.963174 0
M  V30 1419 H 136.882 0.545043 -0.51082 0
M  V30 1420 H 139.544 0.843882 -1.75683 0
M  V30 1421 H 138.64 2.34021 -2.06496 0
M  V30 1422 N 138.941 1.26152 0.944643 0
M  V30 1423 C 139.851 1.09176 2.07648 0
M  V30 1424 C 140.867 0.0261935 1.7398 0
M  V30 1425 O 142.043 0.229208 2.00091 0
M  V30 1426 C 139.108 0.722915 3.39079 0
M  V30 1427 C 138.169 1.86752 3.86552 0
M  V30 1428 C 137.402 1.51617 5.11711 0
M  V30 1429 O 137.625 0.416331 5.68879 0
M  V30 1430 O 136.559 2.34975 5.54139 0
M  V30 1431 H 140.385 2.0412 2.24875 0
M  V30 1432 H 137.97 1.05182 1.061 0
M  V30 1433 H 139.852 0.529787 4.18056 0
M  V30 1434 H 138.527 -0.197159 3.23099 0
M  V30 1435 H 137.434 2.11558 3.08535 0
M  V30 1436 H 138.767 2.76719 4.07047 0
M  V30 1437 N 140.419 -1.14872 1.07899 0
M  V30 1438 C 141.667 -1.85422 0.803941 0
M  V30 1439 C 141.988 -1.83051 -0.67211 0
M  V30 1440 O 141.258 -1.27532 -1.48703 0
M  V30 1441 H 139.838 -0.686537 0.294408 0
M  V30 1442 H 142.5 -1.39226 1.3639 0
M  V30 1443 H 141.596 -2.90399 1.14346 0
M  V30 1444 N 141.898 -0.863906 -1.31812 0
M  V30 1445 C 143.144 -0.481841 -1.9761 0
M  V30 1446 C 143.499 0.954048 -1.6708 0
M  V30 1447 O 142.792 1.66182 -0.953624 0
M  V30 1448 C 142.986 -0.668547 -3.51091 0
M  V30 1449 C 142.815 -2.12103 -3.96538 0
M  V30 1450 C 141.585 -2.76141 -4.23171 0
M  V30 1451 C 143.783 -3.09265 -4.10925 0
M  V30 1452 N 141.765 -4.12205 -4.54929 0
M  V30 1453 C 143.136 -4.30341 -4.46326 0
M  V30 1454 C 145.191 -3.05337 -3.93286 0
M  V30 1455 C 143.894 -5.48 -4.65928 0
M  V30 1456 C 145.92 -4.22248 -4.14078 0
M  V30 1457 C 145.282 -5.42085 -4.49804 0
M  V30 1458 H 141.381 -0.225238 -0.74886 0
M  V30 1459 H 143.965 -1.11723 -1.59455 0
M  V30 1460 H 142.136 -0.0627898 -3.88349 0
M  V30 1461 H 143.868 -0.255467 -4.03893 0
M  V30 1462 H 140.623 -2.27125 -4.15585 0
M  V30 1463 H 141.047 -4.82416 -4.74978 0
M  V30 1464 H 145.689 -2.138 -3.64759 0
M  V30 1465 H 143.407 -6.40059 -4.93305 0
M  V30 1466 H 146.993 -4.20654 -4.01922 0
M  V30 1467 H 145.873 -6.31044 -4.65567 0
M  V30 1468 N 143.376 1.44774 -0.622745 0
M  V30 1469 C 144.604 2.06487 -0.130722 0
M  V30 1470 C 145.019 1.46476 1.19123 0
M  V30 1471 O 144.376 0.584502 1.72887 0
M  V30 1472 C 144.427 3.615 -0.000807207 0
M  V30 1473 O 144.148 4.19274 -1.27048 0
M  V30 1474 C 145.649 4.40229 0.520898 0
M  V30 1475 H 142.869 0.666704 -0.0758106 0
M  V30 1476 H 145.413 1.85779 -0.854774 0
M  V30 1477 H 143.568 3.81498 0.673643 0
M  V30 1478 H 143.982 5.12622 -1.1099 0
M  V30 1479 H 145.456 5.49144 0.560838 0
M  V30 1480 H 145.933 4.1108 1.54627 0
M  V30 1481 H 146.539 4.25131 -0.120018 0
M  V30 1482 N 144.854 0.36279 1.53368 0
M  V30 1483 C 146.27 0.0116182 1.59596 0
M  V30 1484 C 146.47 -1.47012 1.37803 0
M  V30 1485 O 145.526 -2.23136 1.18181 0
M  V30 1486 C 146.839 0.465052 2.97082 0
M  V30 1487 C 148.387 0.419033 3.10182 0
M  V30 1488 C 148.862 0.848235 4.50077 0
M  V30 1489 N 150.353 0.803183 4.56183 0
M  V30 1490 C 151.088 1.107 5.62613 0
M  V30 1491 N 150.584 1.47996 6.76808 0
M  V30 1492 N 152.377 1.02998 5.52583 0
M  V30 1493 H 144.528 1.32775 1.65785 0
M  V30 1494 H 146.791 0.542518 0.777417 0
M  V30 1495 H 146.497 1.49892 3.18159 0
M  V30 1496 H 146.371 -0.149786 3.76902 0
M  V30 1497 H 148.758 -0.605696 2.88817 0
M  V30 1498 H 148.839 1.06933 2.32377 0
M  V30 1499 H 148.483 1.87107 4.7218 0
M  V30 1500 H 148.413 0.175218 5.26308 0
M  V30 1501 H 150.904 0.52838 3.74188 0
M  V30 1502 H 151.217 1.69613 7.53957 0
M  V30 1503 H 149.562 1.51859 6.78206 0
M  V30 1504 H 152.753 0.737817 4.62249 0
M  V30 1505 H 152.926 1.2701 6.35431 0
M  V30 1506 N 146.332 -1.57332 0.0918853 0
M  V30 1507 C 147.609 -1.85691 -0.614668 0
M  V30 1508 C 147.989 -0.988146 -1.86545 0
M  V30 1509 O 147.337 -0.0597055 -2.28422 0
M  V30 1510 C 147.547 -3.36294 -0.933126 0
M  V30 1511 C 148.895 -4.04275 -1.29796 0
M  V30 1512 O 149.919 -3.41157 -1.02424 0
M  V30 1513 O 148.778 -5.1564 -1.81047 0
M  V30 1514 H 145.872 -0.767802 -0.307261 0
M  V30 1515 H 148.418 -1.69244 0.12434 0
M  V30 1516 H 147.19 -3.91273 -0.0456404 0
M  V30 1517 H 146.813 -3.58076 -1.72822 0
M  V30 1518 N 147.81 0.181792 -1.56548 0
M  V30 1519 C 149.221 0.745244 -1.71181 0
M  V30 1520 C 149.572 1.83262 -0.70068 0
M  V30 1521 O 148.697 2.15946 0.140154 0
M  V30 1522 C 149.292 1.35859 -3.10367 0
M  V30 1523 C 147.851 1.86898 -3.2672 0
M  V30 1524 C 146.998 0.743942 -2.67134 0
M  V30 1525 H 149.949 -0.0434661 -1.5864 0
M  V30 1526 H 149.97 2.22817 -3.08436 0
M  V30 1527 H 149.482 0.566948 -3.83937 0
M  V30 1528 H 147.583 2.68738 -2.5809 0
M  V30 1529 H 147.696 2.02162 -4.34359 0
M  V30 1530 H 146.06 1.16169 -2.26665 0
M  V30 1531 H 146.843 -0.035676 -3.43281 0
M  V30 1532 N 149.288 1.51039 0.449983 0
M  V30 1533 C 150.535 1.63081 1.20045 0
M  V30 1534 C 150.863 0.341024 1.91487 0
M  V30 1535 O 150.118 -0.674276 1.83717 0
M  V30 1536 C 150.417 2.77556 2.25161 0
M  V30 1537 C 150.083 4.17289 1.70823 0
M  V30 1538 C 148.745 4.55305 1.55725 0
M  V30 1539 C 151.097 5.04536 1.3074 0
M  V30 1540 C 148.425 5.78287 0.989999 0
M  V30 1541 C 150.777 6.28085 0.754482 0
M  V30 1542 C 149.441 6.64885 0.590308 0
M  V30 1543 H 148.711 0.596755 0.439277 0
M  V30 1544 H 151.358 1.85037 0.49333 0
M  V30 1545 H 149.663 2.49771 3.01863 0
M  V30 1546 H 151.36 2.84073 2.83026 0
M  V30 1547 H 147.95 3.8731 1.83546 0
M  V30 1548 H 152.134 4.75782 1.41229 0
M  V30 1549 H 147.39 6.05456 0.850451 0
M  V30 1550 H 151.564 6.95038 0.435324 0
M  V30 1551 H 149.191 7.60055 0.14862 0
M  V30 1552 N 150.766 -0.704594 1.40972 0
M  V30 1553 C 151.713 -1.81862 1.42109 0
M  V30 1554 C 152.683 -1.63781 0.276593 0
M  V30 1555 O 153.868 -1.84759 0.4763 0
M  V30 1556 C 151.008 -3.19669 1.30022 0
M  V30 1557 C 150.121 -3.49246 2.54267 0
M  V30 1558 C 149.256 -4.76618 2.3454 0
M  V30 1559 C 148.295 -4.99133 3.54306 0
M  V30 1560 N 147.432 -6.17726 3.33706 0
M  V30 1561 H 152.272 -1.80226 2.37324 0
M  V30 1562 H 149.809 -0.880238 1.17857 0
M  V30 1563 H 151.767 -3.99263 1.21018 0
M  V30 1564 H 150.397 -3.20506 0.384192 0
M  V30 1565 H 149.449 -2.64125 2.73756 0
M  V30 1566 H 150.761 -3.61788 3.43381 0
M  V30 1567 H 149.915 -5.64249 2.22952 0
M  V30 1568 H 148.654 -4.66305 1.42867 0
M  V30 1569 H 147.659 -4.09953 3.66359 0
M  V30 1570 H 148.884 -5.11311 4.4692 0
M  V30 1571 H 146.83 -6.08642 2.44725 0
M  V30 1572 H 146.747 -6.30995 4.16391 0
M  V30 1573 H 148.015 -7.08115 3.25873 0
M  V30 1574 N 152.244 -1.26651 -0.937939 0
M  V30 1575 C 153.177 -1.02811 -2.03728 0
M  V30 1576 C 154.155 0.0481915 -1.62529 0
M  V30 1577 O 155.339 -0.0948839 -1.88261 0
M  V30 1578 C 152.466 -0.557517 -3.3408 0
M  V30 1579 C 151.512 -1.62686 -3.94253 0
M  V30 1580 S 152.345 -3.21667 -4.28125 0
M  V30 1581 C 153.501 -2.76384 -5.61572 0
M  V30 1582 H 153.734 -1.95891 -2.23638 0
M  V30 1583 H 151.267 -1.10367 -1.07974 0
M  V30 1584 H 153.225 -0.292674 -4.09455 0
M  V30 1585 H 151.886 0.353062 -3.12109 0
M  V30 1586 H 151.079 -1.24866 -4.88287 0
M  V30 1587 H 150.681 -1.84324 -3.25424 0
M  V30 1588 H 152.973 -2.2105 -6.40424 0
M  V30 1589 H 153.916 -3.69123 -6.0428 0
M  V30 1590 H 154.324 -2.15847 -5.21604 0
M  V30 1591 N 153.722 1.14298 -1.08507 0
M  V30 1592 C 154.632 2.23027 -0.727753 0
M  V30 1593 C 155.648 1.71952 0.26619 0
M  V30 1594 O 156.824 2.011 0.109882 0
M  V30 1595 C 153.889 3.46403 -0.143541 0
M  V30 1596 C 152.95 4.12413 -1.19223 0
M  V30 1597 C 152.183 5.29899 -0.635798 0
M  V30 1598 O 152.406 5.67796 0.544393 0
M  V30 1599 O 151.34 5.85717 -1.38634 0
M  V30 1600 H 155.166 2.55945 -1.63481 0
M  V30 1601 H 152.751 1.22248 -0.858817 0
M  V30 1602 H 154.633 4.21018 0.179404 0
M  V30 1603 H 153.308 3.15206 0.736659 0
M  V30 1604 H 152.215 3.39667 -1.56772 0
M  V30 1605 H 153.548 4.47718 -2.04474 0
M  V30 1606 N 155.201 0.870884 1.31352 0
M  V30 1607 C 156.45 0.478408 1.95944 0
M  V30 1608 C 156.763 -0.974493 1.69597 0
M  V30 1609 O 157.969 -1.47316 2.28058 0
M  V30 1610 C 156.425 0.804609 3.50791 0
M  V30 1611 C 156.033 2.27433 3.85977 0
M  V30 1612 C 157.777 0.480648 4.2177 0
M  V30 1613 C 155.684 2.5429 5.33939 0
M  V30 1614 H 154.614 0.175175 0.733369 0
M  V30 1615 H 157.265 1.06391 1.4951 0
M  V30 1616 H 155.647 0.148347 3.95722 0
M  V30 1617 H 156.821 2.97373 3.52002 0
M  V30 1618 H 155.136 2.56442 3.28065 0
M  V30 1619 H 157.733 0.658519 5.30629 0
M  V30 1620 H 158.076 -0.578979 4.12254 0
M  V30 1621 H 158.609 1.09349 3.82476 0
M  V30 1622 H 155.348 3.58939 5.48491 0
M  V30 1623 H 154.868 1.88945 5.69263 0
M  V30 1624 H 156.547 2.39066 6.01212 0
M  V30 1625 N 156.679 -1.44442 0.630414 0
M  V30 1626 C 157.956 -1.9549 0.0655657 0
M  V30 1627 C 158.336 -1.5724 -1.40851 0
M  V30 1628 O 157.684 -0.846116 -2.12257 0
M  V30 1629 C 157.894 -3.47812 0.287691 0
M  V30 1630 C 159.242 -4.24216 0.180513 0
M  V30 1631 O 160.266 -3.55526 0.219019 0
M  V30 1632 O 159.125 -5.46434 0.0848493 0
M  V30 1633 H 156.219 -0.826688 -0.0227177 0
M  V30 1634 H 158.765 -1.54496 0.702068 0
M  V30 1635 H 157.537 -3.687 1.31056 0
M  V30 1636 H 157.16 -3.95751 -0.382984 0
M  V30 1637 N 158.157 -0.370918 -1.53173 0
M  V30 1638 C 159.067 0.480823 -2.2962 0
M  V30 1639 C 160.083 1.08789 -1.35798 0
M  V30 1640 O 161.259 1.09768 -1.68858 0
M  V30 1641 C 158.324 1.60227 -3.07454 0
M  V30 1642 C 157.385 1.0222 -4.16953 0
M  V30 1643 C 156.618 2.0902 -4.91066 0
M  V30 1644 O 156.841 3.30222 -4.65091 0
M  V30 1645 O 155.775 1.71778 -5.76867 0
M  V30 1646 H 159.601 -0.141421 -3.03371 0
M  V30 1647 H 157.186 -0.135146 -1.48787 0
M  V30 1648 H 159.068 2.25417 -3.56041 0
M  V30 1649 H 157.743 2.20982 -2.36535 0
M  V30 1650 H 156.65 0.334064 -3.72605 0
M  V30 1651 H 157.983 0.459131 -4.90054 0
M  V30 1652 N 159.635 1.57281 -0.100228 0
M  V30 1653 C 160.545 2.17833 0.870965 0
M  V30 1654 C 161.561 1.14921 1.30649 0
M  V30 1655 O 162.737 1.47313 1.37335 0
M  V30 1656 C 159.802 2.75085 2.1102 0
M  V30 1657 C 158.863 3.9297 1.72838 0
M  V30 1658 C 158.096 4.47482 2.90854 0
M  V30 1659 O 158.319 4.00922 4.05731 0
M  V30 1660 O 157.253 5.38433 2.69023 0
M  V30 1661 H 161.079 3.0124 0.38575 0
M  V30 1662 H 158.664 1.48881 0.124397 0
M  V30 1663 H 160.546 3.11656 2.83634 0
M  V30 1664 H 159.221 1.94721 2.58584 0
M  V30 1665 H 158.128 3.61201 0.973883 0
M  V30 1666 H 159.461 4.74713 1.30033 0
M  V30 1667 N 161.113 -0.173488 1.56642 0
M  V30 1668 C 162.361 -0.888706 1.81512 0
M  V30 1669 C 162.682 -1.82875 0.676872 0
M  V30 1670 O 161.952 -1.93536 -0.303414 0
M  V30 1671 H 160.532 -0.331164 0.669582 0
M  V30 1672 H 163.194 -0.173823 1.94123 0
M  V30 1673 H 162.29 -1.46691 2.75478 0
M  V30 1674 N 162.591 -1.51276 -0.441967 0
M  V30 1675 C 164.007 -1.39349 -0.778083 0
M  V30 1676 C 164.207 -0.472212 -1.95889 0
M  V30 1677 O 163.263 0.0743551 -2.5239 0
M  V30 1678 C 164.576 -2.81292 -1.0628 0
M  V30 1679 C 166.124 -2.9041 -1.16751 0
M  V30 1680 C 166.599 -4.33251 -1.48519 0
M  V30 1681 N 168.09 -4.36336 -1.55453 0
M  V30 1682 C 168.825 -5.43885 -1.81596 0
M  V30 1683 N 168.321 -6.61601 -2.05562 0
M  V30 1684 N 170.114 -5.3136 -1.8334 0
M  V30 1685 H 162.265 -2.09729 0.335774 0
M  V30 1686 H 164.528 -0.943925 0.0878028 0
M  V30 1687 H 164.234 -3.50678 -0.267905 0
M  V30 1688 H 164.108 -3.20334 -1.99163 0
M  V30 1689 H 166.495 -2.21225 -1.95304 0
M  V30 1690 H 166.576 -2.54871 -0.217801 0
M  V30 1691 H 166.22 -5.02984 -0.704958 0
M  V30 1692 H 166.15 -4.66299 -2.44689 0
M  V30 1693 H 168.641 -3.51466 -1.38853 0
M  V30 1694 H 168.954 -7.39361 -2.24867 0
M  V30 1695 H 167.299 -6.64725 -2.02894 0
M  V30 1696 H 170.49 -4.38382 -1.64132 0
M  V30 1697 H 170.663 -6.15258 -2.03377 0
M  V30 1698 N 164.069 0.697108 -1.41344 0
M  V30 1699 C 165.318 1.45279 -1.39918 0
M  V30 1700 C 165.631 1.95597 -0.0109624 0
M  V30 1701 O 166.837 2.71208 0.125919 0
M  V30 1702 C 165.293 2.62695 -2.46007 0
M  V30 1703 C 164.901 2.19169 -3.90729 0
M  V30 1704 C 166.645 3.40336 -2.53715 0
M  V30 1705 C 164.552 3.33535 -4.88373 0
M  V30 1706 H 163.482 0.545692 -0.520323 0
M  V30 1707 H 166.133 0.756929 -1.67161 0
M  V30 1708 H 164.515 3.34541 -2.11892 0
M  V30 1709 H 165.689 1.54623 -4.34083 0
M  V30 1710 H 164.004 1.54525 -3.86666 0
M  V30 1711 H 166.601 4.2547 -3.2385 0
M  V30 1712 H 166.944 3.85418 -1.5735 0
M  V30 1713 H 167.477 2.75546 -2.86913 0
M  V30 1714 H 164.216 2.93468 -5.86137 0
M  V30 1715 H 163.736 3.96936 -4.49668 0
M  V30 1716 H 165.415 3.99335 -5.09059 0
M  V30 1717 N 165.547 1.27147 0.931209 0
M  V30 1718 C 166.777 1.15914 1.71019 0
M  V30 1719 C 167.185 -0.287112 1.87009 0
M  V30 1720 O 166.528 -1.20761 1.38429 0
M  V30 1721 C 166.59 1.76647 3.13107 0
M  V30 1722 C 166.254 3.25807 3.20467 0
M  V30 1723 C 167.251 4.22489 3.02983 0
M  V30 1724 C 164.936 3.66452 3.43538 0
M  V30 1725 C 166.93 5.57794 3.08454 0
M  V30 1726 C 164.617 5.01888 3.48643 0
M  V30 1727 C 165.615 5.97369 3.31119 0
M  V30 1728 O 165.303 7.30337 3.35952 0
M  V30 1729 H 165.035 0.404062 0.54195 0
M  V30 1730 H 167.589 1.68457 1.17521 0
M  V30 1731 H 165.819 1.18578 3.68071 0
M  V30 1732 H 167.508 1.60179 3.72958 0
M  V30 1733 H 168.274 3.92425 2.85004 0
M  V30 1734 H 164.153 2.92611 3.5623 0
M  V30 1735 H 167.697 6.32298 2.94694 0
M  V30 1736 H 163.594 5.31609 3.66145 0
M  V30 1737 H 164.362 7.38739 3.5243 0
M  V30 1738 N 167.025 -1.13721 1.09112 0
M  V30 1739 C 168.273 -1.84559 0.823562 0
M  V30 1740 C 168.594 -1.83754 -0.652658 0
M  V30 1741 O 167.864 -1.29102 -1.47342 0
M  V30 1742 H 166.444 -0.683376 0.301673 0
M  V30 1743 H 169.106 -1.37771 1.37859 0
M  V30 1744 H 168.202 -2.8917 1.17419 0
M  V30 1745 N 168.503 -0.877838 -1.30888 0
M  V30 1746 C 169.919 -0.570844 -1.49042 0
M  V30 1747 C 170.119 0.893159 -1.80624 0
M  V30 1748 O 169.175 1.67485 -1.88958 0
M  V30 1749 C 170.488 -1.47784 -2.61878 0
M  V30 1750 C 172.036 -1.48071 -2.75761 0
M  V30 1751 C 172.511 -2.37347 -3.91702 0
M  V30 1752 N 174.002 -2.35271 -3.99001 0
M  V30 1753 C 174.737 -3.01063 -4.88004 0
M  V30 1754 N 174.233 -3.76055 -5.81854 0
M  V30 1755 N 176.026 -2.90332 -4.81315 0
M  V30 1756 H 168.177 -1.82502 -1.0866 0
M  V30 1757 H 170.44 -0.780797 -0.537644 0
M  V30 1758 H 170.146 -2.51993 -2.45341 0
M  V30 1759 H 170.02 -1.18215 -3.58197 0
M  V30 1760 H 172.407 -0.446166 -2.91708 0
M  V30 1761 H 172.488 -1.81668 -1.80085 0
M  V30 1762 H 172.132 -3.40883 -3.76512 0
M  V30 1763 H 172.062 -2.01071 -4.86701 0
M  V30 1764 H 174.553 -1.80768 -3.3186 0
M  V30 1765 H 174.866 -4.23366 -6.46514 0
M  V30 1766 H 173.211 -3.80163 -5.81808 0
M  V30 1767 H 176.402 -2.31278 -4.06974 0
M  V30 1768 H 176.575 -3.41885 -5.50471 0
M  V30 1769 N 169.982 1.44106 -0.638065 0
M  V30 1770 C 171.23 2.01579 -0.145043 0
M  V30 1771 C 171.551 1.50496 1.24 0
M  V30 1772 O 170.821 0.711374 1.82527 0
M  V30 1773 H 169.401 0.745282 -0.05063 0
M  V30 1774 H 172.063 1.76516 -0.826327 0
M  V30 1775 H 171.159 3.11877 -0.118039 0
M  V30 1776 N 171.46 0.379036 1.52974 0
M  V30 1777 C 172.685 -0.209353 2.06341 0
M  V30 1778 C 173.11 -1.40583 1.24972 0
M  V30 1779 O 172.468 -1.79246 0.272155 0
M  V30 1780 C 172.516 -0.567786 3.56102 0
M  V30 1781 O 171.62 -1.66318 3.77375 0
M  V30 1782 H 170.961 -0.0272919 0.663439 0
M  V30 1783 H 173.491 0.543536 1.97248 0
M  V30 1784 H 173.501 -0.835003 3.99364 0
M  V30 1785 H 172.176 0.307013 4.14765 0
M  V30 1786 H 170.753 -1.39048 3.46006 0
M  V30 1787 N 172.938 -1.57226 0.108567 0
M  V30 1788 C 173.901 -2.13602 -0.831082 0
M  V30 1789 C 174.901 -1.06841 -1.20173 0
M  V30 1790 O 176.091 -1.32666 -1.12895 0
M  V30 1791 C 173.223 -2.66769 -2.12243 0
M  V30 1792 H 174.416 -2.97951 -0.341317 0
M  V30 1793 H 171.969 -1.55667 -0.14057 0
M  V30 1794 H 172.704 -1.85977 -2.65675 0
M  V30 1795 H 172.489 -3.44839 -1.86625 0
M  V30 1796 H 173.979 -3.10332 -2.79435 0
M  V30 1797 N 174.416 0.165178 -1.56732 0
M  V30 1798 C 175.693 0.908443 -1.73224 0
M  V30 1799 C 176.073 2.0013 -0.67165 0
M  V30 1800 O 175.421 2.26353 0.31253 0
M  V30 1801 C 175.631 1.46756 -3.16644 0
M  V30 1802 C 176.979 1.93809 -3.77787 0
M  V30 1803 O 178.003 1.56537 -3.1996 0
M  V30 1804 O 176.862 2.62486 -4.79336 0
M  V30 1805 H 173.956 0.428025 -0.707618 0
M  V30 1806 H 176.502 0.152526 -1.69013 0
M  V30 1807 H 175.274 0.68129 -3.85323 0
M  V30 1808 H 174.897 2.28749 -3.25207 0
M  V30 1809 N 175.894 1.51508 0.433938 0
M  V30 1810 C 177.171 1.54888 1.19453 0
M  V30 1811 C 177.551 0.315154 2.08734 0
M  V30 1812 O 176.899 -0.699558 2.17528 0
M  V30 1813 C 177.109 2.86467 1.99342 0
M  V30 1814 C 178.457 3.38545 2.56267 0
M  V30 1815 O 179.481 2.88041 2.0955 0
M  V30 1816 O 178.34 4.26675 3.41483 0
M  V30 1817 H 175.434 0.622863 0.544032 0
M  V30 1818 H 177.98 1.63823 0.442732 0
M  V30 1819 H 176.752 3.67718 1.33788 0
M  V30 1820 H 176.375 2.8071 2.8158 0
M  V30 1821 N 177.372 -0.689602 1.41712 0
M  V30 1822 C 178.319 -1.80345 1.44029 0
M  V30 1823 C 179.289 -1.63478 0.293948 0
M  V30 1824 O 180.474 -1.84244 0.495869 0
M  V30 1825 C 177.614 -3.18272 1.33405 0
M  V30 1826 C 176.727 -3.46529 2.57956 0
M  V30 1827 C 175.862 -4.74103 2.39582 0
M  V30 1828 C 174.901 -4.95347 3.5958 0
M  V30 1829 N 174.038 -6.14151 3.40239 0
M  V30 1830 H 178.878 -1.77698 2.39222 0
M  V30 1831 H 176.415 -0.867688 1.18784 0
M  V30 1832 H 178.373 -3.97956 1.25246 0
M  V30 1833 H 177.003 -3.2008 0.418164 0
M  V30 1834 H 176.055 -2.61207 2.76542 0
M  V30 1835 H 177.367 -3.58126 3.47199 0
M  V30 1836 H 176.521 -5.61853 2.28924 0
M  V30 1837 H 175.26 -4.64763 1.47805 0
M  V30 1838 H 174.265 -4.06044 3.70686 0
M  V30 1839 H 175.49 -5.06542 4.52318 0
M  V30 1840 H 173.436 -6.06013 2.51167 0
M  V30 1841 H 173.353 -6.26543 4.23061 0
M  V30 1842 H 174.621 -7.04619 3.33365 0
M  V30 1843 N 178.85 -1.27639 -0.924453 0
M  V30 1844 C 180.098 -1.13941 -1.66918 0
M  V30 1845 C 180.419 0.314589 -1.92446 0
M  V30 1846 O 179.689 1.21964 -1.53303 0
M  V30 1847 H 178.269 -0.418678 -0.618642 0
M  V30 1848 H 180.931 -1.60213 -1.10985 0
M  V30 1849 H 180.027 -1.67094 -2.63602 0
M  V30 1850 N 180.328 1.1314 -1.09713 0
M  V30 1851 C 181.739 1.66029 -0.853885 0
M  V30 1852 C 182.09 1.86241 0.617142 0
M  V30 1853 O 181.215 1.5834 1.47503 0
M  V30 1854 C 181.81 3.01599 -1.5435 0
M  V30 1855 C 180.369 3.51467 -1.34714 0
M  V30 1856 C 179.516 2.26648 -1.59769 0
M  V30 1857 H 182.467 0.970226 -1.25588 0
M  V30 1858 H 182.488 3.67709 -0.978267 0
M  V30 1859 H 182 2.86856 -2.6141 0
M  V30 1860 H 180.101 3.71408 -0.297838 0
M  V30 1861 H 180.214 4.314 -2.08401 0
M  V30 1862 H 178.578 2.33385 -1.01998 0
M  V30 1863 H 179.361 2.14467 -2.68065 0
M  V30 1864 N 181.806 0.884767 1.30421 0
M  V30 1865 C 183.031 0.517288 2.00845 0
M  V30 1866 C 183.456 -0.886779 1.65885 0
M  V30 1867 O 182.814 -1.58768 0.875354 0
M  V30 1868 C 182.862 0.698994 3.5376 0
M  V30 1869 O 181.966 -0.255208 4.1161 0
M  V30 1870 H 181.307 0.203872 0.631927 0
M  V30 1871 H 183.837 1.19225 1.66272 0
M  V30 1872 H 183.847 0.597912 4.03595 0
M  V30 1873 H 182.522 1.72271 3.78544 0
M  V30 1874 H 181.099 -0.10784 3.72744 0
M  V30 1875 N 183.284 -1.43765 0.645699 0
M  V30 1876 C 184.214 -2.33471 -0.0370477 0
M  V30 1877 C 185.195 -1.49042 -0.819779 0
M  V30 1878 O 186.38 -1.77726 -0.782758 0
M  V30 1879 C 183.51 -3.32311 -1.0093 0
M  V30 1880 C 182.464 -4.2667 -0.337201 0
M  V30 1881 C 181.79 -5.1549 -1.42037 0
M  V30 1882 C 183.09 -5.16657 0.765706 0
M  V30 1883 H 184.784 -2.90809 0.712069 0
M  V30 1884 H 182.33 -1.39834 0.343876 0
M  V30 1885 H 184.283 -3.9396 -1.49578 0
M  V30 1886 H 183.007 -2.73213 -1.78948 0
M  V30 1887 H 181.666 -3.66374 0.128771 0
M  V30 1888 H 181.314 -4.52735 -2.1918 0
M  V30 1889 H 181.014 -5.79438 -0.975966 0
M  V30 1890 H 182.538 -5.80012 -1.90838 0
M  V30 1891 H 183.952 -5.72158 0.361702 0
M  V30 1892 H 182.349 -5.89286 1.13413 0
M  V30 1893 H 183.419 -4.56796 1.62683 0
M  V30 1894 N 184.763 -0.387143 -1.52771 0
M  V30 1895 C 185.991 0.195869 -2.05971 0
M  V30 1896 C 186.406 1.40691 -1.25903 0
M  V30 1897 O 185.763 1.79931 -0.305134 0
M  V30 1898 C 185.814 0.56812 -3.57008 0
M  V30 1899 O 185.535 -0.594803 -4.34043 0
M  V30 1900 C 187.036 1.20723 -4.26545 0
M  V30 1901 H 184.256 0.0300578 -0.670326 0
M  V30 1902 H 186.8 -0.551749 -1.96916 0
M  V30 1903 H 184.955 1.26564 -3.66143 0
M  V30 1904 H 185.369 -0.289322 -5.23701 0
M  V30 1905 H 186.843 1.41807 -5.33474 0
M  V30 1906 H 187.32 2.17395 -3.81623 0
M  V30 1907 H 187.926 0.550535 -4.21722 0
M  V30 1908 N 186.241 1.57166 -0.116904 0
M  V30 1909 C 187.204 2.14039 0.819742 0
M  V30 1910 C 188.204 1.07477 1.19605 0
M  V30 1911 O 189.394 1.33263 1.1219 0
M  V30 1912 C 186.526 2.67891 2.10826 0
M  V30 1913 H 187.719 2.98128 0.325511 0
M  V30 1914 H 185.272 1.55739 0.132312 0
M  V30 1915 H 186.007 1.87384 2.64685 0
M  V30 1916 H 185.792 3.45823 1.84793 0
M  V30 1917 H 187.282 3.11809 2.77785 0
M  V30 1918 N 187.719 -0.156864 1.56817 0
M  V30 1919 C 188.949 -0.885031 1.86684 0
M  V30 1920 C 189.357 -1.75696 0.701954 0
M  V30 1921 O 188.7 -1.80569 -0.337732 0
M  V30 1922 C 188.762 -1.80092 3.11138 0
M  V30 1923 C 188.426 -1.10714 4.43386 0
M  V30 1924 C 189.423 -0.465714 5.1781 0
M  V30 1925 C 187.108 -1.09959 4.90117 0
M  V30 1926 C 189.102 0.174002 6.37162 0
M  V30 1927 C 186.789 -0.456055 6.09396 0
M  V30 1928 C 187.787 0.179622 6.82764 0
M  V30 1929 O 187.475 0.812975 7.99779 0
M  V30 1930 H 187.207 -0.261813 0.623242 0
M  V30 1931 H 189.761 -0.157383 2.04796 0
M  V30 1932 H 187.991 -2.56926 2.89009 0
M  V30 1933 H 189.68 -2.40018 3.27332 0
M  V30 1934 H 190.446 -0.463427 4.82781 0
M  V30 1935 H 186.325 -1.58378 4.3294 0
M  V30 1936 H 189.869 0.670765 6.94368 0
M  V30 1937 H 185.766 -0.455975 6.43888 0
M  V30 1938 H 186.534 0.71366 8.15383 0
M  V30 1939 N 189.197 -1.51736 -0.425897 0
M  V30 1940 C 190.427 -1.68549 -1.19476 0
M  V30 1941 C 190.835 -0.387288 -1.85194 0
M  V30 1942 O 190.178 0.645142 -1.71999 0
M  V30 1943 C 190.24 -2.75275 -2.31223 0
M  V30 1944 C 189.904 -4.17534 -1.8578 0
M  V30 1945 C 190.901 -5.01936 -1.35485 0
M  V30 1946 C 188.586 -4.6369 -1.93123 0
M  V30 1947 C 190.58 -6.30559 -0.931347 0
M  V30 1948 C 188.267 -5.92307 -1.50384 0
M  V30 1949 C 189.265 -6.75569 -1.00473 0
M  V30 1950 O 188.953 -8.0178 -0.583452 0
M  V30 1951 H 188.685 -0.568525 -0.365725 0
M  V30 1952 H 191.239 -1.98982 -0.509444 0
M  V30 1953 H 189.469 -2.40182 -3.03067 0
M  V30 1954 H 191.158 -2.80853 -2.93047 0
M  V30 1955 H 191.924 -4.67475 -1.29197 0
M  V30 1956 H 187.803 -3.98997 -2.30916 0
M  V30 1957 H 191.347 -6.95498 -0.541084 0
M  V30 1958 H 187.244 -6.2628 -1.56346 0
M  V30 1959 H 188.012 -8.1543 -0.708275 0
M  V30 1960 N 190.675 0.682077 -1.42076 0
M  V30 1961 C 191.923 1.4393 -1.41876 0
M  V30 1962 C 192.244 1.94971 -0.0335599 0
M  V30 1963 O 191.514 1.72591 0.926773 0
M  V30 1964 H 190.094 0.534085 -0.522267 0
M  V30 1965 H 192.756 0.806427 -1.77434 0
M  V30 1966 H 191.852 2.29588 -2.11414 0
M  V30 1967 N 192.153 1.28127 0.917671 0
M  V30 1968 C 193.086 1.06039 2.02067 0
M  V30 1969 C 194.064 -0.0223285 1.62585 0
M  V30 1970 O 195.248 0.124823 1.88086 0
M  V30 1971 C 192.375 0.610596 3.33151 0
M  V30 1972 C 191.421 1.68937 3.91615 0
M  V30 1973 S 192.254 3.28437 4.22953 0
M  V30 1974 C 193.41 2.85283 5.57103 0
M  V30 1975 H 193.643 1.99425 2.20493 0
M  V30 1976 H 191.176 1.12071 1.06205 0
M  V30 1977 H 193.134 0.357778 4.08938 0
M  V30 1978 H 191.795 -0.303364 3.12632 0
M  V30 1979 H 190.988 1.32619 4.86239 0
M  V30 1980 H 190.59 1.89478 3.2245 0
M  V30 1981 H 192.882 2.3121 6.36827 0
M  V30 1982 H 193.825 3.7869 5.98331 0
M  V30 1983 H 194.233 2.24118 5.18104 0
M  V30 1984 N 193.631 -1.12557 1.10312 0
M  V30 1985 C 194.561 -2.20341 0.772798 0
M  V30 1986 C 195.542 -1.68198 -0.25365 0
M  V30 1987 O 196.727 -1.93831 -0.119699 0
M  V30 1988 C 193.857 -3.46709 0.202443 0
M  V30 1989 C 192.811 -4.11996 1.15943 0
M  V30 1990 C 192.137 -5.328 0.450345 0
M  V30 1991 C 193.437 -4.5828 2.50552 0
M  V30 1992 H 195.131 -2.48229 1.674 0
M  V30 1993 H 192.677 -1.19308 0.806326 0
M  V30 1994 H 194.63 -4.2138 -0.0407752 0
M  V30 1995 H 193.354 -3.18245 -0.734001 0
M  V30 1996 H 192.013 -3.39305 1.38808 0
M  V30 1997 H 191.661 -5.00602 -0.490531 0
M  V30 1998 H 191.361 -5.7743 1.08851 0
M  V30 1999 H 192.885 -6.10219 0.215642 0
M  V30 2000 H 194.299 -5.2433 2.31843 0
M  V30 2001 H 192.696 -5.13683 3.10242 0
M  V30 2002 H 193.766 -3.72329 3.10643 0
M  V30 2003 N 195.109 -0.891671 -1.2995 0
M  V30 2004 C 196.039 -0.379797 -2.30391 0
M  V30 2005 C 197.02 0.540919 -1.6127 0
M  V30 2006 O 198.205 0.453352 -1.88834 0
M  V30 2007 C 195.335 0.400654 -3.44981 0
M  V30 2008 C 194.289 -0.428905 -4.25846 0
M  V30 2009 C 193.615 0.478557 -5.32554 0
M  V30 2010 C 194.915 -1.67458 -4.94727 0
M  V30 2011 H 196.609 -1.21914 -2.73454 0
M  V30 2012 H 194.155 -0.587675 -1.31462 0
M  V30 2013 H 196.108 0.769434 -4.14316 0
M  V30 2014 H 194.832 1.27371 -3.0074 0
M  V30 2015 H 193.491 -0.779911 -3.58208 0
M  V30 2016 H 193.139 1.34951 -4.84559 0
M  V30 2017 H 192.839 -0.0727433 -5.87555 0
M  V30 2018 H 194.363 0.843705 -6.04743 0
M  V30 2019 H 195.777 -1.376 -5.56542 0
M  V30 2020 H 194.174 -2.16659 -5.59624 0
M  V30 2021 H 195.244 -2.41518 -4.20473 0
M  V30 2022 N 196.587 1.43421 -0.653314 0
M  V30 2023 C 197.517 2.33487 0.0246656 0
M  V30 2024 C 198.498 1.49475 0.811863 0
M  V30 2025 O 199.683 1.78139 0.773322 0
M  V30 2026 C 196.813 3.32841 0.99166 0
M  V30 2027 C 195.767 4.26842 0.314568 0
M  V30 2028 C 195.093 5.16236 1.39302 0
M  V30 2029 C 196.393 5.16243 -0.793095 0
M  V30 2030 H 198.087 2.90427 -0.727481 0
M  V30 2031 H 195.633 1.39649 -0.351287 0
M  V30 2032 H 197.586 3.94747 1.47487 0
M  V30 2033 H 196.31 2.74158 1.77497 0
M  V30 2034 H 194.969 3.663 -0.148199 0
M  V30 2035 H 194.617 4.53891 2.16776 0
M  V30 2036 H 194.317 5.79948 0.945223 0
M  V30 2037 H 195.841 5.81015 1.87759 0
M  V30 2038 H 197.255 5.71958 -0.392039 0
M  V30 2039 H 195.652 5.88676 -1.16536 0
M  V30 2040 H 196.722 4.55927 -1.65103 0
M  V30 2041 N 198.065 0.39524 1.52563 0
M  V30 2042 C 199.012 -0.437036 2.26624 0
M  V30 2043 C 199.982 -1.05281 1.28472 0
M  V30 2044 O 201.167 -1.07971 1.57311 0
M  V30 2045 C 198.307 -1.55524 3.08069 0
M  V30 2046 C 197.42 -0.961745 4.21158 0
M  V30 2047 C 196.555 -2.05149 4.89987 0
M  V30 2048 C 195.594 -1.4342 5.95061 0
M  V30 2049 N 194.731 -2.46351 6.57462 0
M  V30 2050 H 199.571 0.200976 2.97322 0
M  V30 2051 H 197.108 0.110944 1.46681 0
M  V30 2052 H 199.066 -2.21437 3.53584 0
M  V30 2053 H 197.696 -2.16348 2.3957 0
M  V30 2054 H 196.748 -0.192048 3.79915 0
M  V30 2055 H 198.06 -0.470701 4.96574 0
M  V30 2056 H 197.214 -2.78819 5.38837 0
M  V30 2057 H 195.953 -2.57615 4.14109 0
M  V30 2058 H 194.958 -0.682774 5.45544 0
M  V30 2059 H 196.183 -0.917416 6.72875 0
M  V30 2060 H 194.129 -2.97975 5.8442 0
M  V30 2061 H 194.046 -2.02019 7.28508 0
M  V30 2062 H 195.314 -3.19633 7.10954 0
M  V30 2063 N 199.544 -1.57102 0.125237 0
M  V30 2064 C 200.454 -2.19191 -0.8362 0
M  V30 2065 C 201.47 -1.16985 -1.28805 0
M  V30 2066 O 202.646 -1.49479 -1.34974 0
M  V30 2067 C 199.711 -2.78407 -2.06617 0
M  V30 2068 C 198.772 -3.9567 -1.66565 0
M  V30 2069 C 198.005 -4.52052 -2.83698 0
M  V30 2070 O 198.228 -4.07326 -3.99302 0
M  V30 2071 O 197.162 -5.42645 -2.60423 0
M  V30 2072 H 200.988 -3.01816 -0.337776 0
M  V30 2073 H 198.573 -1.4906 -0.100695 0
M  V30 2074 H 200.455 -3.16129 -2.7864 0
M  V30 2075 H 199.13 -1.9881 -2.55453 0
M  V30 2076 H 198.037 -3.62705 -0.916296 0
M  V30 2077 H 199.37 -4.76722 -1.22464 0
M  V30 2078 N 201.022 0.148545 -1.56898 0
M  V30 2079 C 201.985 1.16736 -1.97244 0
M  V30 2080 C 202.985 1.35947 -0.858777 0
M  V30 2081 O 204.175 1.32966 -1.12542 0
M  V30 2082 C 201.307 2.52798 -2.28705 0
M  V30 2083 H 202.5 0.821279 -2.88435 0
M  V30 2084 H 200.053 0.391831 -1.51309 0
M  V30 2085 H 200.788 2.92381 -1.403 0
M  V30 2086 H 200.573 2.40216 -3.09901 0
M  V30 2087 H 202.063 3.26179 -2.60762 0
M  V30 2088 N 202.5 1.5196 0.417844 0
M  V30 2089 C 203.748 1.65263 1.16329 0
M  V30 2090 C 204.069 0.380634 1.91249 0
M  V30 2091 O 203.339 -0.604214 1.86349 0
M  V30 2092 H 201.919 0.60912 0.432414 0
M  V30 2093 H 204.581 1.88969 0.477162 0
M  V30 2094 H 203.677 2.4896 1.88217 0
M  V30 2095 N 203.978 -0.674533 1.42435 0
M  V30 2096 C 205.225 -1.43459 1.42919 0
M  V30 2097 C 205.553 -1.94446 0.0457312 0
M  V30 2098 O 204.808 -1.7132 -0.94593 0
M  V30 2099 C 205.107 -2.64767 2.40069 0
M  V30 2100 C 204.773 -2.3232 3.86443 0
M  V30 2101 C 203.435 -2.23182 4.26314 0
M  V30 2102 C 205.787 -2.05977 4.78773 0
M  V30 2103 C 203.115 -1.85827 5.56494 0
M  V30 2104 C 205.467 -1.70125 6.09295 0
M  V30 2105 C 204.131 -1.59498 6.48164 0
M  V30 2106 H 203.401 -0.524952 0.522978 0
M  V30 2107 H 206.048 -0.769097 1.75377 0
M  V30 2108 H 204.353 -3.36349 2.00939 0
M  V30 2109 H 206.05 -3.22949 2.37707 0
M  V30 2110 H 202.64 -2.40334 3.54877 0
M  V30 2111 H 206.824 -2.11969 4.48757 0
M  V30 2112 H 202.08 -1.76168 5.8547 0
M  V30 2113 H 206.254 -1.48767 6.80324 0
M  V30 2114 H 203.881 -1.30322 7.48946 0
M  V30 2115 N 205.456 -1.28612 -0.910864 0
M  V30 2116 C 206.403 -1.12786 -2.01365 0
M  V30 2117 C 207.373 -0.024201 -1.66082 0
M  V30 2118 O 208.558 -0.189667 -1.89855 0
M  V30 2119 C 205.698 -0.798743 -3.35729 0
M  V30 2120 C 204.811 -1.98173 -3.83864 0
M  V30 2121 C 203.946 -1.59298 -5.06752 0
M  V30 2122 C 202.985 -2.74245 -5.47226 0
M  V30 2123 N 202.122 -2.35842 -6.61304 0
M  V30 2124 H 206.962 -2.07142 -2.14234 0
M  V30 2125 H 204.499 -1.03093 -1.0493 0
M  V30 2126 H 206.457 -0.588662 -4.13026 0
M  V30 2127 H 205.087 0.10789 -3.2262 0
M  V30 2128 H 204.139 -2.30386 -3.02699 0
M  V30 2129 H 205.451 -2.84343 -4.09818 0
M  V30 2130 H 204.605 -1.34513 -5.916 0
M  V30 2131 H 203.344 -0.702618 -4.82612 0
M  V30 2132 H 202.349 -2.99725 -4.60918 0
M  V30 2133 H 203.574 -3.63928 -5.73353 0
M  V30 2134 H 201.52 -1.49279 -6.38789 0
M  V30 2135 H 201.437 -3.15546 -6.86998 0
M  V30 2136 H 202.705 -2.14348 -7.4945 0
M  V30 2137 N 206.934 1.1197 -1.10907 0
M  V30 2138 C 208.345 1.65114 -0.871446 0
M  V30 2139 C 208.696 1.86885 0.597353 0
M  V30 2140 O 207.821 1.59896 1.45816 0
M  V30 2141 C 208.416 2.99944 -1.5754 0
M  V30 2142 C 206.975 3.50018 -1.38435 0
M  V30 2143 C 206.122 2.24941 -1.62164 0
M  V30 2144 H 209.073 0.956851 -1.2661 0
M  V30 2145 H 209.094 3.66651 -1.01721 0
M  V30 2146 H 208.606 2.84067 -2.64438 0
M  V30 2147 H 206.707 3.71071 -0.337214 0
M  V30 2148 H 206.82 4.29165 -2.12965 0
M  V30 2149 H 205.184 2.3229 -1.04467 0
M  V30 2150 H 205.967 2.11612 -2.70324 0
M  V30 2151 N 208.412 0.89855 1.29475 0
M  V30 2152 C 209.359 0.373819 2.27753 0
M  V30 2153 C 210.329 -0.543444 1.56958 0
M  V30 2154 O 211.514 -0.468934 1.84948 0
M  V30 2155 C 208.654 -0.393648 3.42848 0
M  V30 2156 C 207.767 0.554379 4.28428 0
M  V30 2157 C 206.902 -0.230026 5.30702 0
M  V30 2158 C 205.941 0.712599 6.07938 0
M  V30 2159 N 205.078 -0.0373283 7.0209 0
M  V30 2160 H 209.918 1.21699 2.72017 0
M  V30 2161 H 207.455 0.611456 1.33789 0
M  V30 2162 H 209.413 -0.85466 4.08352 0
M  V30 2163 H 208.043 -1.20128 2.99615 0
M  V30 2164 H 207.095 1.13391 3.63107 0
M  V30 2165 H 208.407 1.27597 4.82204 0
M  V30 2166 H 207.561 -0.752288 6.02018 0
M  V30 2167 H 206.3 -0.984758 4.77654 0
M  V30 2168 H 205.305 1.24637 5.35486 0
M  V30 2169 H 206.53 1.46664 6.63074 0
M  V30 2170 H 204.476 -0.774348 6.51414 0
M  V30 2171 H 204.393 0.624374 7.53417 0
M  V30 2172 H 205.661 -0.539891 7.77628 0
M  V30 2173 N 209.89 -1.43072 0.660911 0
M  V30 2174 C 210.837 -2.30785 -0.0259884 0
M  V30 2175 C 211.807 -1.45184 -0.806888 0
M  V30 2176 O 212.992 -1.74041 -0.781943 0
M  V30 2177 C 210.132 -3.30861 -0.981067 0
M  V30 2178 C 209.245 -4.31558 -0.195458 0
M  V30 2179 C 208.38 -5.18712 -1.14503 0
M  V30 2180 C 207.419 -6.11097 -0.350299 0
M  V30 2181 N 206.556 -6.90849 -1.25186 0
M  V30 2182 H 211.396 -2.88975 0.727846 0
M  V30 2183 H 208.933 -1.42353 0.370682 0
M  V30 2184 H 210.891 -3.87399 -1.54849 0
M  V30 2185 H 209.521 -2.74304 -1.70169 0
M  V30 2186 H 208.573 -3.77252 0.488374 0
M  V30 2187 H 209.885 -4.9701 0.422176 0
M  V30 2188 H 209.039 -5.79914 -1.78284 0
M  V30 2189 H 207.778 -4.53404 -1.79656 0
M  V30 2190 H 206.783 -5.48976 0.300808 0
M  V30 2191 H 208.008 -6.7845 0.296941 0
M  V30 2192 H 205.954 -6.28182 -1.89005 0
M  V30 2193 H 205.871 -7.52854 -0.688971 0
M  V30 2194 H 207.139 -7.5655 -1.87757 0
M  V30 2195 N 211.368 -0.403325 -1.52352 0
M  V30 2196 C 212.315 0.425011 -2.26853 0
M  V30 2197 C 213.285 1.04598 -1.29029 0
M  V30 2198 O 214.47 1.07135 -1.57882 0
M  V30 2199 C 211.61 1.53888 -3.08889 0
M  V30 2200 C 210.723 0.939396 -4.21663 0
M  V30 2201 C 209.858 2.02547 -4.91068 0
M  V30 2202 C 208.897 1.40263 -5.95813 0
M  V30 2203 N 208.034 2.4286 -6.58759 0
M  V30 2204 H 212.874 -0.21674 -2.97211 0
M  V30 2205 H 210.411 -0.118722 -1.4662 0
M  V30 2206 H 212.369 2.19558 -3.54753 0
M  V30 2207 H 210.999 2.15074 -2.40714 0
M  V30 2208 H 210.051 0.171898 -3.80011 0
M  V30 2209 H 211.363 0.44436 -4.96817 0
M  V30 2210 H 210.517 2.75958 -5.40308 0
M  V30 2211 H 209.256 2.55415 -4.15469 0
M  V30 2212 H 208.261 0.653833 -5.45898 0
M  V30 2213 H 209.486 0.881719 -6.73352 0
M  V30 2214 H 207.432 2.94871 -5.85992 0
M  V30 2215 H 207.349 1.98152 -7.2957 0
M  V30 2216 H 208.617 3.15858 -7.12639 0
M  V30 2217 N 212.846 1.57033 -0.133567 0
M  V30 2218 C 214.095 1.94861 0.520768 0
M  V30 2219 C 214.408 1.02012 1.66892 0
M  V30 2220 O 215.614 1.29365 2.38699 0
M  V30 2221 C 214.07 3.46362 0.977809 0
M  V30 2222 C 213.678 4.47773 -0.142674 0
M  V30 2223 C 215.422 3.93083 1.60269 0
M  V30 2224 C 213.329 5.90468 0.331883 0
M  V30 2225 H 212.259 0.727453 0.198315 0
M  V30 2226 H 214.91 1.82227 -0.215759 0
M  V30 2227 H 213.292 3.54282 1.7692 0
M  V30 2228 H 214.466 4.51536 -0.919317 0
M  V30 2229 H 212.781 4.10891 -0.675124 0
M  V30 2230 H 215.378 4.97121 1.96914 0
M  V30 2231 H 215.721 3.33876 2.48662 0
M  V30 2232 H 216.254 3.88025 0.876453 0
M  V30 2233 H 212.993 6.53463 -0.516341 0
M  V30 2234 H 212.513 5.90094 1.07469 0
M  V30 2235 H 214.192 6.42179 0.788332 0
M  V30 2236 N 214.325 -0.140222 1.56975 0
M  V30 2237 C 215.602 -0.880769 1.74648 0
M  V30 2238 C 215.982 -1.99036 0.703404 0
M  V30 2239 O 215.33 -2.26821 -0.27648 0
M  V30 2240 C 215.54 -1.417 3.18939 0
M  V30 2241 C 216.888 -1.87774 3.80823 0
M  V30 2242 O 217.912 -1.51427 3.2241 0
M  V30 2243 O 216.771 -2.54827 4.83452 0
M  V30 2244 H 213.865 -0.416713 0.714338 0
M  V30 2245 H 216.411 -0.125618 1.69234 0
M  V30 2246 H 215.183 -0.619902 3.86359 0
M  V30 2247 H 214.806 -2.23546 3.28805 0
M  V30 2248 N 215.803 -1.52179 -0.40978 0
M  V30 2249 C 217.05 -1.66206 -1.15679 0
M  V30 2250 C 217.378 -0.391674 -1.90516 0
M  V30 2251 O 216.633 0.62533 -1.8544 0
M  V30 2252 C 216.932 -2.83428 -2.17723 0
M  V30 2253 C 216.598 -4.21672 -1.59699 0
M  V30 2254 C 215.26 -4.59274 -1.43599 0
M  V30 2255 C 217.612 -5.07825 -1.17317 0
M  V30 2256 C 214.94 -5.80709 -0.836328 0
M  V30 2257 C 217.292 -6.29864 -0.587691 0
M  V30 2258 C 215.956 -6.66216 -0.413818 0
M  V30 2259 H 215.226 -0.608192 -0.423301 0
M  V30 2260 H 217.873 -1.86279 -0.444097 0
M  V30 2261 H 216.178 -2.57687 -2.95135 0
M  V30 2262 H 217.875 -2.91477 -2.75394 0
M  V30 2263 H 214.465 -3.9204 -1.73213 0
M  V30 2264 H 218.649 -4.79359 -1.28565 0
M  V30 2265 H 213.905 -6.07498 -0.689626 0
M  V30 2266 H 218.079 -6.95948 -0.250894 0
M  V30 2267 H 215.706 -7.60182 0.0529471 0
M  V30 2268 N 217.281 0.66697 -1.42791 0
M  V30 2269 C 218.527 1.4291 -1.43891 0
M  V30 2270 C 218.86 1.94114 -0.0578972 0
M  V30 2271 O 218.135 1.71414 0.91911 0
M  V30 2272 C 218.418 2.62049 -2.46987 0
M  V30 2273 C 218.271 2.16426 -3.94309 0
M  V30 2274 C 219.59 3.64266 -2.46978 0
M  V30 2275 H 216.709 0.518306 -0.523954 0
M  V30 2276 H 219.351 0.757321 -1.74255 0
M  V30 2277 H 217.501 3.19361 -2.21225 0
M  V30 2278 H 219.173 1.64221 -4.31079 0
M  V30 2279 H 217.416 1.47925 -4.078 0
M  V30 2280 H 218.087 3.02038 -4.62036 0
M  V30 2281 H 220.563 3.16686 -2.69906 0
M  V30 2282 H 219.439 4.45196 -3.21079 0
M  V30 2283 H 219.7 4.15927 -1.49857 0
M  V30 2284 N 218.759 1.29093 0.90403 0
M  V30 2285 C 219.689 1.16401 2.02418 0
M  V30 2286 C 220.67 0.0593085 1.69997 0
M  V30 2287 O 221.855 0.238021 1.92736 0
M  V30 2288 C 218.985 0.835233 3.37107 0
M  V30 2289 C 217.939 1.89578 3.83724 0
M  V30 2290 C 217.265 1.42041 5.15489 0
M  V30 2291 C 218.565 3.30394 4.04521 0
M  V30 2292 H 220.259 2.10109 2.13295 0
M  V30 2293 H 217.805 1.01157 1.02486 0
M  V30 2294 H 219.758 0.733169 4.14973 0
M  V30 2295 H 218.482 -0.137543 3.2631 0
M  V30 2296 H 217.141 1.98715 3.08071 0
M  V30 2297 H 216.789 0.436426 5.01103 0
M  V30 2298 H 216.489 2.12964 5.4765 0
M  V30 2299 H 218.013 1.33176 5.959 0
M  V30 2300 H 219.427 3.24123 4.72882 0
M  V30 2301 H 217.824 3.99237 4.48029 0
M  V30 2302 H 218.894 3.73692 3.09002 0
M  V30 2303 N 220.237 -1.11381 1.11499 0
M  V30 2304 C 221.485 -1.8277 0.862524 0
M  V30 2305 C 221.806 -1.85097 -0.613534 0
M  V30 2306 O 221.076 -1.32198 -1.4457 0
M  V30 2307 H 219.656 -0.676823 0.316101 0
M  V30 2308 H 222.318 -1.34816 1.4075 0
M  V30 2309 H 221.414 -2.86614 1.23527 0
M  V30 2310 N 221.715 -0.905404 -1.28997 0
M  V30 2311 C 222.943 -0.549846 -1.9946 0
M  V30 2312 C 223.358 0.866834 -1.67724 0
M  V30 2313 O 222.715 1.57298 -0.925404 0
M  V30 2314 C 222.766 -0.739387 -3.53858 0
M  V30 2315 O 222.487 -2.10031 -3.84472 0
M  V30 2316 C 223.988 -0.389541 -4.41585 0
M  V30 2317 H 221.208 -0.210429 -0.637151 0
M  V30 2318 H 223.752 -1.21632 -1.64396 0
M  V30 2319 H 221.907 -0.120023 -3.87214 0
M  V30 2320 H 222.321 -2.13385 -4.79132 0
M  V30 2321 H 223.795 -0.572972 -5.49018 0
M  V30 2322 H 224.272 0.673756 -4.34001 0
M  V30 2323 H 224.878 -0.986089 -4.1371 0
M  V30 2324 N 223.193 1.4272 -0.668489 0
M  V30 2325 C 224.141 2.32586 0.0254857 0
M  V30 2326 C 225.135 1.49471 0.797176 0
M  V30 2327 O 226.341 1.65583 0.705853 0
M  V30 2328 H 222.716 0.751514 0.0270339 0
M  V30 2329 H 224.687 2.88823 -0.749936 0
M  V30 2330 C 223.436 3.3397 0.967427 0
M  V30 2331 H 222.759 3.97961 0.383048 0
M  V30 2332 H 224.199 3.9945 1.42181 0
M  V30 2333 C 222.658 2.65744 2.0708 0
M  V30 2334 O 223.188 2.48454 3.15648 0
M  V30 2335 N 221.394 2.2487 1.8407 0
M  V30 2336 H 220.941 2.39132 0.95778 0
M  V30 2337 H 220.899 1.79552 2.58086 0
M  V30 2338 N 224.671 0.411399 1.52136 0
M  V30 2339 C 225.581 -0.419774 2.30814 0
M  V30 2340 C 226.597 -1.0515 1.38634 0
M  V30 2341 O 227.773 -1.05252 1.71709 0
M  V30 2342 C 224.838 -1.52019 3.11594 0
M  V30 2343 C 223.899 -0.91129 4.19516 0
M  V30 2344 C 223.132 -1.95927 4.96436 0
M  V30 2345 O 223.355 -3.17775 4.73683 0
M  V30 2346 O 222.289 -1.56423 5.81219 0
M  V30 2347 H 226.115 0.221805 3.02889 0
M  V30 2348 H 223.7 0.174547 1.48377 0
M  V30 2349 H 225.582 -2.15898 3.61892 0
M  V30 2350 H 224.257 -2.14633 2.42311 0
M  V30 2351 H 223.164 -0.235157 3.7336 0
M  V30 2352 H 224.497 -0.32904 4.91099 0
M  V30 2353 N 226.149 -1.5696 0.141893 0
M  V30 2354 C 227.059 -2.20066 -0.812905 0
M  V30 2355 C 228.075 -1.18344 -1.27557 0
M  V30 2356 O 229.251 -1.50902 -1.33381 0
M  V30 2357 C 226.316 -2.80583 -2.03652 0
M  V30 2358 C 225.377 -3.97414 -1.62359 0
M  V30 2359 C 224.61 -4.55036 -2.78887 0
M  V30 2360 O 224.833 -4.11538 -3.94959 0
M  V30 2361 O 223.767 -5.45376 -2.54653 0
M  V30 2362 H 227.593 -3.02157 -0.305746 0
M  V30 2363 H 225.178 -1.49159 -0.0848799 0
M  V30 2364 H 227.06 -3.19067 -2.75272 0
M  V30 2365 H 225.735 -2.01508 -2.5333 0
M  V30 2366 H 224.642 -3.63656 -0.877775 0
M  V30 2367 H 225.975 -4.77994 -1.17401 0
M  V30 2368 N 227.627 0.131896 -1.57047 0
M  V30 2369 C 228.855 0.856461 -1.88341 0
M  V30 2370 C 229.27 1.74042 -0.731757 0
M  V30 2371 O 228.627 1.80051 0.297945 0
M  V30 2372 C 228.678 1.70064 -3.18999 0
M  V30 2373 O 228.399 0.852278 -4.2973 0
M  V30 2374 C 229.9 2.53148 -3.63911 0
M  V30 2375 H 227.12 0.246885 -0.62393 0
M  V30 2376 H 229.664 0.120152 -2.04147 0
M  V30 2377 H 227.819 2.38984 -3.04902 0
M  V30 2378 H 228.233 1.43329 -5.04537 0
M  V30 2379 H 229.707 3.07931 -4.58129 0
M  V30 2380 H 230.184 3.29901 -2.89935 0
M  V30 2381 H 230.79 1.89492 -3.80753 0
M  V30 2382 N 229.106 1.52395 0.401703 0
M  V30 2383 C 230.054 1.7689 1.51039 0
M  V30 2384 C 231.048 0.636298 1.56996 0
M  V30 2385 O 232.254 0.818507 1.60314 0
M  V30 2386 H 228.629 0.559502 0.502456 0
M  V30 2387 H 230.6 2.69757 1.27568 0
M  V30 2388 C 229.349 1.94331 2.88324 0
M  V30 2389 H 228.672 2.80905 2.84486 0
M  V30 2390 H 230.112 2.15466 3.65172 0
M  V30 2391 C 228.571 0.712396 3.29282 0
M  V30 2392 O 229.101 -0.116218 4.01532 0
M  V30 2393 N 227.307 0.546154 2.85422 0
M  V30 2394 H 226.854 1.22156 2.26794 0
M  V30 2395 H 226.812 -0.276113 3.13185 0
M  V30 2396 N 230.584 -0.659388 1.43143 0
M  V30 2397 C 231.83 -1.41984 1.45644 0
M  V30 2398 C 232.185 -1.92245 0.0771718 0
M  V30 2399 O 231.478 -1.68976 -0.903205 0
M  V30 2400 C 231.672 -2.62206 2.42864 0
M  V30 2401 C 231.501 -2.23711 3.90107 0
M  V30 2402 C 230.271 -2.12332 4.58523 0
M  V30 2403 C 232.469 -1.84384 4.80112 0
M  V30 2404 N 230.451 -1.67102 5.9072 0
M  V30 2405 C 231.822 -1.5019 6.01534 0
M  V30 2406 C 233.877 -1.71512 4.67427 0
M  V30 2407 C 232.58 -1.04414 7.11681 0
M  V30 2408 C 234.606 -1.27142 5.77572 0
M  V30 2409 C 233.968 -0.938808 6.98116 0
M  V30 2410 H 230.067 -0.515448 0.588079 0
M  V30 2411 H 232.651 -0.759409 1.79279 0
M  V30 2412 H 230.822 -3.25917 2.11265 0
M  V30 2413 H 232.554 -3.28877 2.35843 0
M  V30 2414 H 229.309 -2.31893 4.12944 0
M  V30 2415 H 229.733 -1.46866 6.60878 0
M  V30 2416 H 234.375 -1.95868 3.74694 0
M  V30 2417 H 232.093 -0.788061 8.04248 0
M  V30 2418 H 235.679 -1.17681 5.69774 0
M  V30 2419 H 234.559 -0.6007 7.81896 0
M  V30 2420 N 232.062 -1.29571 -0.897171 0
M  V30 2421 C 233.308 -1.17863 -1.65034 0
M  V30 2422 C 233.641 0.268729 -1.92332 0
M  V30 2423 O 232.916 1.19378 -1.53555 0
M  V30 2424 C 233.199 -1.995 -2.99786 0
M  V30 2425 C 233.052 -3.5239 -2.79538 0
M  V30 2426 C 234.371 -1.82335 -4.00552 0
M  V30 2427 H 231.49 -0.429528 -0.598895 0
M  V30 2428 H 234.132 -1.59072 -1.03905 0
M  V30 2429 H 232.282 -1.64485 -3.51962 0
M  V30 2430 H 233.954 -3.97401 -2.34244 0
M  V30 2431 H 232.197 -3.77187 -2.14273 0
M  V30 2432 H 232.868 -4.04787 -3.75302 0
M  V30 2433 H 235.344 -2.12924 -3.57495 0
M  V30 2434 H 234.22 -2.41801 -4.92771 0
M  V30 2435 H 234.481 -0.779209 -4.35179 0
M  V30 2436 N 233.54 1.10788 -1.12088 0
M  V30 2437 C 234.788 1.8231 -0.872205 0
M  V30 2438 C 235.109 1.85419 0.603709 0
M  V30 2439 O 234.379 1.32963 1.43867 0
M  V30 2440 H 232.959 0.675137 -0.319686 0
M  V30 2441 H 235.621 1.34068 -1.41463 0
M  V30 2442 H 234.717 2.85955 -1.25045 0
M  V30 2443 N 235.018 0.912232 1.28515 0
M  V30 2444 C 236.267 0.540504 1.94323 0
M  V30 2445 C 236.58 -0.920044 1.72611 0
M  V30 2446 O 237.786 -1.39986 2.32629 0
M  V30 2447 C 236.242 0.915803 3.48053 0
M  V30 2448 C 235.85 2.39598 3.78546 0
M  V30 2449 C 237.594 0.614588 4.20027 0
M  V30 2450 C 235.501 2.71148 5.25578 0
M  V30 2451 H 234.431 0.198418 0.727424 0
M  V30 2452 H 237.082 1.11094 1.46049 0
M  V30 2453 H 235.464 0.274168 3.9505 0
M  V30 2454 H 236.638 3.08422 3.42364 0
M  V30 2455 H 234.953 2.66749 3.1974 0
M  V30 2456 H 237.55 0.827002 5.28266 0
M  V30 2457 H 237.893 -0.447531 4.13887 0
M  V30 2458 H 238.426 1.21462 3.78803 0
M  V30 2459 H 235.165 3.76207 5.36794 0
M  V30 2460 H 234.685 2.0696 5.62963 0
M  V30 2461 H 236.364 2.58072 5.93302 0
M  V30 2462 N 236.496 -1.42363 0.676048 0
M  V30 2463 C 237.773 -1.95183 0.127726 0
M  V30 2464 C 238.153 -1.61641 -1.35777 0
M  V30 2465 O 237.501 -0.913216 -2.09458 0
M  V30 2466 C 237.711 -3.46721 0.398199 0
M  V30 2467 C 239.059 -4.23427 0.315383 0
M  V30 2468 O 240.083 -3.54649 0.332016 0
M  V30 2469 O 238.942 -5.45888 0.25865 0
M  V30 2470 H 236.036 -0.826992 0.00359427 0
M  V30 2471 H 238.582 -1.52184 0.750864 0
M  V30 2472 H 237.354 -3.64344 1.4272 0
M  V30 2473 H 236.977 -3.96769 -0.256885 0
M  V30 2474 N 237.974 -0.419461 -1.51915 0
M  V30 2475 C 239.204 0.151915 -2.06041 0
M  V30 2476 C 239.612 1.38539 -1.28855 0
M  V30 2477 O 238.955 1.80592 -0.336463 0
M  V30 2478 C 239.017 0.557119 -3.55157 0
M  V30 2479 C 238.681 -0.567054 -4.53468 0
M  V30 2480 C 239.678 -1.43379 -4.99738 0
M  V30 2481 C 237.363 -0.742693 -4.96779 0
M  V30 2482 C 239.357 -2.46102 -5.87973 0
M  V30 2483 C 237.044 -1.77322 -5.84808 0
M  V30 2484 C 238.042 -2.63078 -6.30301 0
M  V30 2485 O 237.73 -3.64364 -7.16585 0
M  V30 2486 H 237.462 0.0193293 -0.675724 0
M  V30 2487 H 240.016 -0.592073 -1.96682 0
M  V30 2488 H 238.246 1.35355 -3.62238 0
M  V30 2489 H 239.935 1.05759 -3.9188 0
M  V30 2490 H 240.701 -1.30954 -4.66986 0
M  V30 2491 H 236.58 -0.0848307 -4.60922 0
M  V30 2492 H 240.124 -3.13071 -6.23404 0
M  V30 2493 H 236.021 -1.89773 -6.16974 0
M  V30 2494 H 236.789 -3.60731 -7.34721 0
M  V30 2495 N 239.452 1.56882 -0.150215 0
M  V30 2496 C 240.682 2.00302 0.506213 0
M  V30 2497 C 241.09 1.02934 1.58749 0
M  V30 2498 O 240.433 0.0188384 1.8369 0
M  V30 2499 C 240.495 3.40156 1.16337 0
M  V30 2500 C 240.159 4.56439 0.226311 0
M  V30 2501 C 241.156 5.17012 -0.547265 0
M  V30 2502 C 238.841 5.02136 0.128279 0
M  V30 2503 C 240.835 6.21693 -1.40629 0
M  V30 2504 C 238.522 6.06672 -0.734345 0
M  V30 2505 C 239.52 6.6632 -1.50023 0
M  V30 2506 O 239.208 7.68831 -2.34848 0
M  V30 2507 H 238.94 0.662182 0.135984 0
M  V30 2508 H 241.494 2.03961 -0.242746 0
M  V30 2509 H 239.724 3.33346 1.96004 0
M  V30 2510 H 241.413 3.67663 1.71985 0
M  V30 2511 H 242.179 4.82603 -0.48158 0
M  V30 2512 H 238.058 4.55435 0.714157 0
M  V30 2513 H 241.602 6.68179 -2.00455 0
M  V30 2514 H 237.499 6.40507 -0.801309 0
M  V30 2515 H 238.267 7.86065 -2.28131 0
M  V30 2516 N 240.93 -0.123565 1.57115 0
M  V30 2517 C 241.86 -1.15309 2.03042 0
M  V30 2518 C 242.841 -1.43454 0.914061 0
M  V30 2519 O 244.026 -1.53973 1.18347 0
M  V30 2520 C 241.156 -2.48043 2.43089 0
M  V30 2521 C 240.11 -2.3437 3.58127 0
M  V30 2522 C 239.436 -3.72026 3.84059 0
M  V30 2523 C 240.736 -1.80804 4.90007 0
M  V30 2524 H 242.43 -0.771102 2.893 0
M  V30 2525 H 239.976 -0.369479 1.39179 0
M  V30 2526 H 241.929 -3.20311 2.73823 0
M  V30 2527 H 240.653 -2.88122 1.53796 0
M  V30 2528 H 239.312 -1.64551 3.27595 0
M  V30 2529 H 238.96 -4.09582 2.91979 0
M  V30 2530 H 238.66 -3.63732 4.6149 0
M  V30 2531 H 240.184 -4.45806 4.1724 0
M  V30 2532 H 241.598 -2.42886 5.19307 0
M  V30 2533 H 239.995 -1.83343 5.71407 0
M  V30 2534 H 241.065 -0.76528 4.78823 0
M  V30 2535 N 242.408 -1.52605 -0.393616 0
M  V30 2536 C 243.355 -1.77055 -1.48054 0
M  V30 2537 C 244.325 -0.61358 -1.54352 0
M  V30 2538 O 245.51 -0.852806 -1.70681 0
M  V30 2539 C 242.65 -1.94108 -2.85335 0
M  V30 2540 C 241.763 -3.21792 -2.88226 0
M  V30 2541 C 240.898 -3.29188 -4.16904 0
M  V30 2542 C 239.937 -4.51013 -4.13828 0
M  V30 2543 N 239.074 -4.55716 -5.34105 0
M  V30 2544 H 243.914 -2.69815 -1.26506 0
M  V30 2545 H 241.451 -1.33683 -0.61379 0
M  V30 2546 H 243.409 -2.01979 -3.65049 0
M  V30 2547 H 242.039 -1.04713 -3.05344 0
M  V30 2548 H 241.091 -3.23015 -2.00911 0
M  V30 2549 H 242.403 -4.11557 -2.8182 0
M  V30 2550 H 241.557 -3.36216 -5.05018 0
M  V30 2551 H 240.296 -2.37389 -4.26026 0
M  V30 2552 H 239.301 -4.44115 -3.24102 0
M  V30 2553 H 240.526 -5.44123 -4.06333 0
M  V30 2554 H 238.472 -3.66807 -5.43865 0
M  V30 2555 H 238.389 -5.39346 -5.29756 0
M  V30 2556 H 239.657 -4.66993 -6.2413 0
M  V30 2557 N 243.887 0.651787 -1.4349 0
M  V30 2558 C 244.837 1.75783 -1.45205 0
M  V30 2559 C 245.821 1.57679 -0.320328 0
M  V30 2560 O 247.013 1.67767 -0.564211 0
M  V30 2561 C 244.142 3.14377 -1.3792 0
M  V30 2562 C 243.228 3.38023 -2.56127 0
M  V30 2563 N 243.619 3.32135 -3.81471 0
M  V30 2564 C 241.917 3.68747 -2.50882 0
M  V30 2565 C 242.618 3.55902 -4.60118 0
M  V30 2566 N 241.594 3.77783 -3.90872 0
M  V30 2567 H 245.396 1.69657 -2.39987 0
M  V30 2568 H 242.91 0.853508 -1.38163 0
M  V30 2569 H 244.907 3.93666 -1.37231 0
M  V30 2570 H 243.567 3.21683 -0.441596 0
M  V30 2571 H 244.578 3.11515 -4.13738 0
M  V30 2572 H 241.255 3.8316 -1.65816 0
M  V30 2573 H 242.645 3.57116 -5.69138 0
M  V30 2574 N 245.365 1.30045 0.890287 0
M  V30 2575 C 246.275 1.17885 2.02831 0
M  V30 2576 C 247.291 0.0999609 1.73713 0
M  V30 2577 O 248.467 0.313867 1.98939 0
M  V30 2578 C 245.532 0.866079 3.35708 0
M  V30 2579 C 244.593 2.02979 3.78283 0
M  V30 2580 C 243.826 1.73184 5.0482 0
M  V30 2581 O 244.049 0.657237 5.66601 0
M  V30 2582 O 242.983 2.58267 5.43674 0
M  V30 2583 H 246.809 2.13474 2.16015 0
M  V30 2584 H 244.394 1.09587 1.01543 0
M  V30 2585 H 246.276 0.706623 4.15433 0
M  V30 2586 H 244.951 -0.0599443 3.23644 0
M  V30 2587 H 243.858 2.24454 2.99285 0
M  V30 2588 H 245.191 2.93734 3.94944 0
M  V30 2589 N 246.843 -1.10192 1.12674 0
M  V30 2590 C 248.254 -1.63707 0.897604 0
M  V30 2591 C 248.605 -1.87812 -0.567546 0
M  V30 2592 O 247.73 -1.62196 -1.43253 0
M  V30 2593 C 248.325 -2.974 1.62292 0
M  V30 2594 C 246.884 -3.47772 1.43986 0
M  V30 2595 C 246.031 -2.22332 1.65722 0
M  V30 2596 H 248.982 -0.936587 1.28116 0
M  V30 2597 H 249.003 -3.64986 1.07541 0
M  V30 2598 H 248.515 -2.79824 2.68924 0
M  V30 2599 H 246.616 -3.70487 0.396206 0
M  V30 2600 H 246.729 -4.25723 2.19765 0
M  V30 2601 H 245.093 -2.30599 1.08149 0
M  V30 2602 H 245.876 -2.07285 2.73657 0
M  V30 2603 N 248.321 -0.919034 -1.28029 0
M  V30 2604 C 249.549 -0.570971 -1.98866 0
M  V30 2605 C 249.964 0.848996 -1.68634 0
M  V30 2606 O 249.321 1.56307 -0.942036 0
M  V30 2607 C 249.372 -0.776876 -3.53054 0
M  V30 2608 O 249.093 -2.14097 -3.82222 0
M  V30 2609 C 250.594 -0.436356 -4.41147 0
M  V30 2610 H 247.814 -0.217175 -0.634883 0
M  V30 2611 H 250.358 -1.23368 -1.63097 0
M  V30 2612 H 248.513 -0.161085 -3.87065 0
M  V30 2613 H 248.927 -2.18455 -4.76841 0
M  V30 2614 H 250.401 -0.63117 -5.4838 0
M  V30 2615 H 250.878 0.627686 -4.34692 0
M  V30 2616 H 251.484 -1.02991 -4.12641 0
M  V30 2617 N 249.799 1.42003 -0.683588 0
M  V30 2618 C 251.21 1.84501 -0.285736 0
M  V30 2619 C 251.561 1.57213 1.17382 0
M  V30 2620 O 250.686 1.03642 1.89966 0
M  V30 2621 C 251.281 3.34912 -0.511821 0
M  V30 2622 C 249.84 3.76025 -0.168005 0
M  V30 2623 C 248.987 2.6551 -0.799983 0
M  V30 2624 H 251.938 1.31724 -0.885119 0
M  V30 2625 H 251.959 3.79784 0.233292 0
M  V30 2626 H 251.471 3.54741 -1.57418 0
M  V30 2627 H 249.572 3.61801 0.890567 0
M  V30 2628 H 249.685 4.75141 -0.614661 0
M  V30 2629 H 248.049 2.53654 -0.230568 0
M  V30 2630 H 248.832 2.8816 -1.86597 0
M  V30 2631 N 251.277 0.427512 1.51691 0
M  V30 2632 C 252.554 -0.201684 1.94557 0
M  V30 2633 C 252.934 -1.60981 1.36559 0
M  V30 2634 O 252.282 -2.21814 0.548702 0
M  V30 2635 C 252.492 -0.189394 3.48486 0
M  V30 2636 C 253.84 -0.39978 4.22714 0
M  V30 2637 O 254.864 -0.267945 3.55191 0
M  V30 2638 O 253.723 -0.661249 5.42485 0
M  V30 2639 H 250.817 -0.135261 0.815864 0
M  V30 2640 H 253.363 0.484782 1.62628 0
M  V30 2641 H 252.135 0.795431 3.8313 0
M  V30 2642 H 251.758 -0.919187 3.86829 0
M  V30 2643 N 252.755 -1.56801 0.158532 0
M  V30 2644 C 254.004 -1.95665 -0.489702 0
M  V30 2645 C 254.317 -1.04654 -1.65248 0
M  V30 2646 O 255.523 -1.33146 -2.3661 0
M  V30 2647 C 253.979 -3.47874 -0.922582 0
M  V30 2648 C 253.587 -4.47489 0.213893 0
M  V30 2649 C 255.331 -3.95583 -1.53996 0
M  V30 2650 C 253.238 -5.90921 -0.237903 0
M  V30 2651 H 252.168 -0.730516 -0.186716 0
M  V30 2652 H 254.819 -1.81861 0.244722 0
M  V30 2653 H 253.201 -3.57051 -1.71261 0
M  V30 2654 H 254.375 -4.50017 0.991036 0
M  V30 2655 H 252.69 -4.09764 0.740407 0
M  V30 2656 H 255.287 -5.0019 -1.8898 0
M  V30 2657 H 255.63 -3.37789 -2.43319 0
M  V30 2658 H 256.163 -3.8937 -0.814611 0
M  V30 2659 H 252.902 -6.52559 0.620236 0
M  V30 2660 H 252.422 -5.91729 -0.980676 0
M  V30 2661 H 254.101 -6.43352 -0.686067 0
M  V30 2662 N 254.233 0.115231 -1.57178 0
M  V30 2663 C 255.479 0.82357 -1.85325 0
M  V30 2664 C 255.812 1.79349 -0.744814 0
M  V30 2665 O 255.087 1.92899 0.249024 0
M  V30 2666 C 255.37 1.57014 -3.24066 0
M  V30 2667 C 255.223 0.619565 -4.45513 0
M  V30 2668 C 256.542 2.52545 -3.60429 0
M  V30 2669 H 253.661 0.297948 -0.674089 0
M  V30 2670 H 256.303 0.0877138 -1.89797 0
M  V30 2671 H 254.453 2.19742 -3.20383 0
M  V30 2672 H 256.125 0.000837639 -4.613 0
M  V30 2673 H 254.368 -0.0686174 -4.33746 0
M  V30 2674 H 255.039 1.17866 -5.3927 0
M  V30 2675 H 257.515 1.9992 -3.64926 0
M  V30 2676 H 256.391 3.01811 -4.58477 0
M  V30 2677 H 256.652 3.35383 -2.88047 0
M  V30 2678 N 255.711 1.52812 0.385517 0
M  V30 2679 C 256.958 1.68026 1.1302 0
M  V30 2680 C 257.286 0.421934 1.89868 0
M  V30 2681 O 256.541 -0.595749 1.86412 0
M  V30 2682 C 256.84 2.86856 2.13187 0
M  V30 2683 C 256.506 4.24159 1.5297 0
M  V30 2684 C 255.168 4.61501 1.36274 0
M  V30 2685 C 257.52 5.09627 1.09223 0
M  V30 2686 C 254.848 5.81966 0.743837 0
M  V30 2687 C 257.2 6.30719 0.487411 0
M  V30 2688 C 255.864 6.6679 0.307777 0
M  V30 2689 H 255.134 0.614849 0.413571 0
M  V30 2690 H 257.781 1.86962 0.414405 0
M  V30 2691 H 256.086 2.6235 2.90998 0
M  V30 2692 H 257.783 2.95821 2.70722 0
M  V30 2693 H 254.373 3.94746 1.66954 0
M  V30 2694 H 258.557 4.81343 1.20922 0
M  V30 2695 H 253.813 6.08519 0.592891 0
M  V30 2696 H 257.987 6.96259 0.140143 0
M  V30 2697 H 255.614 7.60001 -0.173879 0
M  V30 2698 N 257.189 -0.644168 1.43834 0
M  V30 2699 C 258.414 -1.43642 1.49605 0
M  V30 2700 C 258.839 -1.8773 0.117913 0
M  V30 2701 O 258.197 -1.57938 -0.890239 0
M  V30 2702 C 258.245 -2.6416 2.45463 0
M  V30 2703 O 257.349 -3.63538 1.94714 0
M  V30 2704 H 256.69 -0.430329 0.50568 0
M  V30 2705 H 259.22 -0.787448 1.8884 0
M  V30 2706 H 259.23 -3.11864 2.63068 0
M  V30 2707 H 257.905 -2.31414 3.45572 0
M  V30 2708 H 256.482 -3.2273 1.86814 0
M  V30 2709 N 258.668 -1.30515 -0.883378 0
M  V30 2710 C 260.079 -1.17509 -1.45081 0
M  V30 2711 C 260.43 0.223605 -1.94922 0
M  V30 2712 O 259.555 1.12041 -1.85137 0
M  V30 2713 C 260.15 -2.12715 -2.63701 0
M  V30 2714 C 258.709 -2.03682 -3.16529 0
M  V30 2715 C 257.856 -2.02706 -1.89224 0
M  V30 2716 H 260.807 -1.42762 -0.693165 0
M  V30 2717 H 260.828 -1.70891 -3.39965 0
M  V30 2718 H 260.34 -3.14505 -2.27395 0
M  V30 2719 H 258.441 -1.05039 -3.57488 0
M  V30 2720 H 258.554 -2.92146 -3.7972 0
M  V30 2721 H 256.918 -1.4753 -2.07622 0
M  V30 2722 H 257.701 -3.06229 -1.55174 0
M  V30 2723 N 260.146 1.09593 -1.13257 0
M  V30 2724 C 261.423 1.78293 -0.804432 0
M  V30 2725 C 261.803 1.99004 0.70431 0
M  V30 2726 O 261.151 1.59007 1.641 0
M  V30 2727 C 261.361 3.10707 -1.5894 0
M  V30 2728 C 262.709 3.85443 -1.78099 0
M  V30 2729 O 263.733 3.20454 -1.55525 0
M  V30 2730 O 262.592 5.02108 -2.15753 0
M  V30 2731 H 259.686 0.773156 -0.293528 0
M  V30 2732 H 262.232 1.16164 -1.23709 0
M  V30 2733 H 261.004 2.91106 -2.61482 0
M  V30 2734 H 260.627 3.80558 -1.15157 0
M  V30 2735 N 261.624 0.925811 1.2754 0
M  V30 2736 C 262.587 0.428129 2.25166 0
M  V30 2737 C 263.587 -0.452261 1.54309 0
M  V30 2738 O 264.777 -0.253608 1.72344 0
M  V30 2739 C 261.909 -0.384749 3.38722 0
M  V30 2740 H 263.102 1.29066 2.70706 0
M  V30 2741 H 260.655 0.706323 1.3943 0
M  V30 2742 H 261.39 -1.26618 2.98561 0
M  V30 2743 H 261.175 0.246454 3.91325 0
M  V30 2744 H 262.665 -0.723389 4.11287 0
M  V30 2745 N 263.102 -1.41638 0.69111 0
M  V30 2746 C 264.012 -2.34588 0.0233487 0
M  V30 2747 C 265.028 -1.55987 -0.770984 0
M  V30 2748 O 266.204 -1.88486 -0.709569 0
M  V30 2749 C 263.269 -3.34684 -0.904851 0
M  V30 2750 C 262.33 -4.29176 -0.103225 0
M  V30 2751 C 261.563 -5.2449 -0.987216 0
M  V30 2752 O 261.786 -5.2514 -2.22674 0
M  V30 2753 O 260.72 -6.00295 -0.439281 0
M  V30 2754 H 264.546 -2.93261 0.789416 0
M  V30 2755 H 262.131 -1.42417 0.45142 0
M  V30 2756 H 264.013 -3.96133 -1.43724 0
M  V30 2757 H 262.688 -2.78461 -1.65049 0
M  V30 2758 H 261.595 -3.71089 0.473655 0
M  V30 2759 H 262.928 -4.88484 0.60365 0
M  V30 2760 N 264.58 -0.43555 -1.51462 0
M  V30 2761 C 265.81 0.130053 -2.0619 0
M  V30 2762 C 266.218 1.37164 -1.30317 0
M  V30 2763 O 265.561 1.80225 -0.355598 0
M  V30 2764 C 265.623 0.519418 -3.55728 0
M  V30 2765 C 265.287 -0.615119 -4.52841 0
M  V30 2766 C 266.284 -1.48671 -4.9819 0
M  V30 2767 C 263.969 -0.795341 -4.95963 0
M  V30 2768 C 265.963 -2.52324 -5.8533 0
M  V30 2769 C 263.65 -1.83514 -5.82894 0
M  V30 2770 C 264.648 -2.69748 -6.27475 0
M  V30 2771 O 264.336 -3.71944 -7.1268 0
M  V30 2772 H 264.068 0.0121612 -0.675891 0
M  V30 2773 H 266.622 -0.6129 -1.96043 0
M  V30 2774 H 264.852 1.31505 -3.63653 0
M  V30 2775 H 266.541 1.01597 -3.92979 0
M  V30 2776 H 267.307 -1.359 -4.65571 0
M  V30 2777 H 263.186 -0.133713 -4.60806 0
M  V30 2778 H 266.73 -3.19665 -6.20048 0
M  V30 2779 H 262.627 -1.96306 -6.14926 0
M  V30 2780 H 263.395 -3.68503 -7.30854 0
M  V30 2781 N 266.058 1.56714 -0.166846 0
M  V30 2782 C 267.469 1.83378 0.350646 0
M  V30 2783 C 267.82 1.08646 1.63372 0
M  V30 2784 O 266.945 0.338058 2.13743 0
M  V30 2785 C 267.54 3.32643 0.642963 0
M  V30 2786 C 266.099 3.59818 1.10491 0
M  V30 2787 C 265.246 2.76954 0.138411 0
M  V30 2788 H 268.197 1.53803 -0.391193 0
M  V30 2789 H 268.218 3.49878 1.49551 0
M  V30 2790 H 267.73 3.87007 -0.291055 0
M  V30 2791 H 265.831 3.1086 2.05418 0
M  V30 2792 H 265.944 4.68178 1.01716 0
M  V30 2793 H 264.308 2.4666 0.634911 0
M  V30 2794 H 265.091 3.34097 -0.789549 0
M  V30 2795 N 267.536 -0.106894 1.57237 0
M  V30 2796 C 268.785 -0.811163 1.8467 0
M  V30 2797 C 269.098 -1.80469 0.754342 0
M  V30 2798 O 270.304 -2.55601 0.915439 0
M  V30 2799 C 268.76 -1.49337 3.27454 0
M  V30 2800 C 268.368 -0.540217 4.44731 0
M  V30 2801 C 270.112 -2.18206 3.64124 0
M  V30 2802 C 268.019 -1.22634 5.78545 0
M  V30 2803 H 266.949 -0.306679 0.688813 0
M  V30 2804 H 269.6 -0.0639887 1.83388 0
M  V30 2805 H 267.982 -2.2876 3.23241 0
M  V30 2806 H 269.156 0.221659 4.60267 0
M  V30 2807 H 267.471 0.042146 4.16379 0
M  V30 2808 H 270.068 -2.70253 4.61376 0
M  V30 2809 H 270.411 -2.96562 2.92158 0
M  V30 2810 H 270.944 -1.45658 3.70174 0
M  V30 2811 H 267.683 -0.483832 6.53712 0
M  V30 2812 H 267.203 -1.95993 5.66874 0
M  V30 2813 H 268.882 -1.75615 6.2271 0
M  V30 2814 N 269.014 -1.53014 -0.377408 0
M  V30 2815 C 270.263 -1.67845 -1.11853 0
M  V30 2816 C 270.576 -0.430625 -1.90801 0
M  V30 2817 O 271.782 -0.459261 -2.67587 0
M  V30 2818 C 270.238 -2.96668 -2.03756 0
M  V30 2819 C 269.846 -4.28671 -1.30175 0
M  V30 2820 C 271.59 -3.20865 -2.77932 0
M  V30 2821 C 269.497 -5.48591 -2.20911 0
M  V30 2822 H 268.427 -0.625343 -0.421263 0
M  V30 2823 H 271.078 -1.79514 -0.380409 0
M  V30 2824 H 269.46 -2.78773 -2.8125 0
M  V30 2825 H 270.634 -4.57157 -0.578259 0
M  V30 2826 H 268.949 -4.10825 -0.679108 0
M  V30 2827 H 271.546 -4.07642 -3.46024 0
M  V30 2828 H 271.889 -2.36424 -3.4265 0
M  V30 2829 H 272.422 -3.39379 -2.07525 0
M  V30 2830 H 269.161 -6.35474 -1.6079 0
M  V30 2831 H 268.681 -5.244 -2.91144 0
M  V30 2832 H 270.36 -5.8292 -2.80736 0
M  V30 2833 N 270.492 0.636531 -1.44174 0
M  V30 2834 C 271.44 1.76995 -1.50915 0
M  V30 2835 C 272.434 1.65053 -0.381295 0
M  V30 2836 O 273.64 1.71197 -0.55601 0
M  V30 2837 H 270.015 0.584247 -0.473455 0
M  V30 2838 H 271.986 1.68432 -2.4632 0
M  V30 2839 C 270.735 3.15314 -1.46534 0
M  V30 2840 H 270.058 3.25149 -2.32633 0
M  V30 2841 H 271.498 3.9453 -1.55312 0
M  V30 2842 C 269.957 3.3639 -0.185305 0
M  V30 2843 O 270.487 3.94699 0.746688 0
M  V30 2844 N 268.693 2.9046 -0.0901606 0
M  V30 2845 H 268.24 2.43193 -0.849416 0
M  V30 2846 H 268.198 3.04937 0.765553 0
M  V30 2847 N 271.97 1.30982 0.876444 0
M  V30 2848 C 273.218 1.20058 1.62575 0
M  V30 2849 C 273.539 -0.242947 1.93481 0
M  V30 2850 O 272.809 -1.1619 1.57724 0
M  V30 2851 H 271.389 0.44135 0.602677 0
M  V30 2852 H 274.051 1.64222 1.04962 0
M  V30 2853 H 273.147 1.76762 2.57219 0
M  V30 2854 N 273.449 -1.08991 1.13837 0
M  V30 2855 C 274.359 -2.19301 0.833333 0
M  V30 2856 C 275.375 -1.73026 -0.183847 0
M  V30 2857 O 276.551 -2.01395 -0.0138092 0
M  V30 2858 C 273.616 -3.45323 0.308651 0
M  V30 2859 C 272.677 -4.06255 1.38764 0
M  V30 2860 C 271.91 -5.26262 0.887896 0
M  V30 2861 O 272.133 -5.69747 -0.27287 0
M  V30 2862 O 271.067 -5.78435 1.66421 0
M  V30 2863 H 274.893 -2.47854 1.75506 0
M  V30 2864 H 272.478 -1.18012 0.916166 0
M  V30 2865 H 274.36 -4.21394 0.0216739 0
M  V30 2866 H 273.035 -3.18362 -0.585431 0
M  V30 2867 H 271.942 -3.318 1.72799 0
M  V30 2868 H 273.275 -4.37452 2.25602 0
M  V30 2869 N 274.927 -0.932562 -1.27047 0
M  V30 2870 C 275.859 -0.392734 -2.2581 0
M  V30 2871 C 276.872 0.479241 -1.55586 0
M  V30 2872 O 278.061 0.291078 -1.76111 0
M  V30 2873 C 275.161 0.455456 -3.35826 0
M  V30 2874 C 274.334 -0.398355 -4.35582 0
M  V30 2875 C 273.393 0.387985 -5.24768 0
M  V30 2876 O 272.419 -0.206003 -5.68827 0
M  V30 2877 N 273.621 1.68664 -5.55457 0
M  V30 2878 H 276.386 -1.24173 -2.72766 0
M  V30 2879 H 273.947 -0.800511 -1.40725 0
M  V30 2880 H 275.939 0.988692 -3.92437 0
M  V30 2881 H 274.509 1.20522 -2.88432 0
M  V30 2882 H 273.729 -1.11286 -3.78165 0
M  V30 2883 H 275.017 -0.981889 -4.99236 0
M  V30 2884 H 274.415 2.19147 -5.21528 0
M  V30 2885 H 272.972 2.1663 -6.14748 0
M  V30 2886 N 276.405 1.4127 -0.698611 0
M  V30 2887 C 277.653 2.00782 -0.230409 0
M  V30 2888 C 277.974 1.5562 1.17505 0
M  V30 2889 O 277.244 0.78815 1.79346 0
M  V30 2890 H 275.824 0.742464 -0.0821944 0
M  V30 2891 H 278.486 1.72852 -0.90045 0
M  V30 2892 H 277.582 3.11095 -0.25021 0
M  V30 2893 N 277.883 0.443576 1.51229 0
M  V30 2894 C 279.132 -0.122332 2.01329 0
M  V30 2895 C 279.445 -1.43237 1.33201 0
M  V30 2896 O 280.651 -2.0816 1.74304 0
M  V30 2897 C 279.107 -0.268551 3.58897 0
M  V30 2898 C 278.715 1.03142 4.35965 0
M  V30 2899 C 280.459 -0.787894 4.17124 0
M  V30 2900 C 278.366 0.850504 5.85252 0
M  V30 2901 H 277.296 -0.0494929 0.752374 0
M  V30 2902 H 279.947 0.574289 1.74282 0
M  V30 2903 H 278.329 -1.02832 3.82415 0
M  V30 2904 H 279.503 1.80001 4.24189 0
M  V30 2905 H 277.818 1.47977 3.89219 0
M  V30 2906 H 280.415 -0.939841 5.26375 0
M  V30 2907 H 280.758 -1.77201 3.76703 0
M  V30 2908 H 281.291 -0.0862669 3.97706 0
M  V30 2909 H 278.03 1.80718 6.30096 0
M  V30 2910 H 277.55 0.121825 5.99676 0
M  V30 2911 H 279.229 0.506163 6.45017 0
M  V30 2912 N 279.361 -1.56624 0.175154 0
M  V30 2913 C 280.608 -1.96999 -0.468811 0
M  V30 2914 C 280.936 -1.06129 -1.62994 0
M  V30 2915 O 280.191 -0.0961771 -1.95464 0
M  V30 2916 C 280.49 -3.43419 -0.989864 0
M  V30 2917 C 280.156 -4.50866 0.0557687 0
M  V30 2918 C 278.818 -4.79975 0.343134 0
M  V30 2919 C 281.17 -5.15551 0.765308 0
M  V30 2920 C 278.498 -5.71066 1.34536 0
M  V30 2921 C 280.85 -6.07724 1.75654 0
M  V30 2922 C 279.514 -6.35199 2.05132 0
M  V30 2923 H 278.784 -0.720869 -0.17155 0
M  V30 2924 H 281.431 -1.89616 0.267924 0
M  V30 2925 H 279.736 -3.47772 -1.80449 0
M  V30 2926 H 281.433 -3.72002 -1.49719 0
M  V30 2927 H 278.023 -4.28229 -0.178381 0
M  V30 2928 H 282.207 -4.9317 0.556513 0
M  V30 2929 H 277.463 -5.90635 1.57988 0
M  V30 2930 H 281.637 -6.56912 2.31169 0
M  V30 2931 H 279.264 -7.05584 2.8294 0
M  V30 2932 N 280.839 0.0985539 -1.57292 0
M  V30 2933 C 282.067 0.816318 -1.90115 0
M  V30 2934 C 282.482 1.72451 -0.768509 0
M  V30 2935 O 281.839 1.80643 0.259687 0
M  V30 2936 C 281.89 1.63259 -3.22535 0
M  V30 2937 O 281.611 0.760934 -4.31441 0
M  V30 2938 C 283.112 2.45372 -3.69199 0
M  V30 2939 H 280.332 0.233595 -0.629027 0
M  V30 2940 H 282.876 0.0768229 -2.04356 0
M  V30 2941 H 281.031 2.32463 -3.09903 0
M  V30 2942 H 281.445 1.32595 -5.07463 0
M  V30 2943 H 282.919 2.98144 -4.64558 0
M  V30 2944 H 283.396 3.23677 -2.96867 0
M  V30 2945 H 284.002 1.81373 -3.84687 0
M  V30 2946 N 282.317 1.53212 0.369288 0
M  V30 2947 C 283.247 1.82365 1.45826 0
M  V30 2948 C 284.228 0.676907 1.56051 0
M  V30 2949 O 285.413 0.926401 1.70679 0
M  V30 2950 C 282.543 2.01023 2.83208 0
M  V30 2951 C 281.497 3.1678 2.8781 0
M  V30 2952 C 280.823 3.20724 4.27832 0
M  V30 2953 C 282.123 4.55447 2.55667 0
M  V30 2954 H 283.817 2.73559 1.21678 0
M  V30 2955 H 281.363 1.3163 0.583911 0
M  V30 2956 H 283.316 2.20001 3.59413 0
M  V30 2957 H 282.04 1.06536 3.08736 0
M  V30 2958 H 280.699 2.97616 2.14056 0
M  V30 2959 H 280.347 2.23882 4.50429 0
M  V30 2960 H 280.047 3.98496 4.31827 0
M  V30 2961 H 281.571 3.41881 5.05915 0
M  V30 2962 H 282.985 4.74611 3.21586 0
M  V30 2963 H 281.382 5.35432 2.70984 0
M  V30 2964 H 282.452 4.60812 1.5093 0
M  V30 2965 N 283.795 -0.628877 1.44509 0
M  V30 2966 C 284.705 -1.7694 1.54044 0
M  V30 2967 C 285.721 -1.68705 0.425987 0
M  V30 2968 O 286.897 -1.89442 0.683656 0
M  V30 2969 C 283.962 -3.13332 1.48405 0
M  V30 2970 C 283.023 -3.33181 2.70719 0
M  V30 2971 C 282.256 -4.63067 2.6534 0
M  V30 2972 O 282.479 -5.44017 1.71469 0
M  V30 2973 O 281.413 -4.85167 3.56226 0
M  V30 2974 H 285.239 -1.71848 2.50403 0
M  V30 2975 H 282.824 -0.790378 1.26781 0
M  V30 2976 H 284.706 -3.94634 1.47791 0
M  V30 2977 H 283.381 -3.1896 0.551898 0
M  V30 2978 H 282.288 -2.51549 2.769 0
M  V30 2979 H 283.621 -3.32416 3.62988 0
M  V30 2980 N 285.273 -1.31445 -0.869486 0
M  V30 2981 C 286.52 -1.21158 -1.62256 0
M  V30 2982 C 286.848 0.230155 -1.93133 0
M  V30 2983 O 286.103 1.17906 -1.56194 0
M  V30 2984 C 286.402 -2.00145 -2.96102 0
M  V30 2985 C 286.068 -3.4964 -2.84715 0
M  V30 2986 C 284.73 -3.90403 -2.81317 0
M  V30 2987 C 287.082 -4.44769 -2.71716 0
M  V30 2988 C 284.41 -5.24561 -2.62778 0
M  V30 2989 C 286.762 -5.79054 -2.54714 0
M  V30 2990 C 285.426 -6.19037 -2.49699 0
M  V30 2991 H 284.696 -0.443348 -0.593737 0
M  V30 2992 H 287.343 -1.62715 -1.00976 0
M  V30 2993 H 285.648 -1.5127 -3.6142 0
M  V30 2994 H 287.345 -1.89566 -3.53363 0
M  V30 2995 H 283.935 -3.17256 -2.88178 0
M  V30 2996 H 288.119 -4.14208 -2.73397 0
M  V30 2997 H 283.375 -5.54613 -2.57321 0
M  V30 2998 H 287.549 -6.52393 -2.43632 0
M  V30 2999 H 285.176 -7.22935 -2.35093 0
M  V30 3000 N 286.751 1.08385 -1.14413 0
M  V30 3001 C 287.976 1.85057 -0.936413 0
M  V30 3002 C 288.401 1.81055 0.509971 0
M  V30 3003 O 287.759 1.1958 1.36273 0
M  V30 3004 C 287.807 3.30505 -1.44217 0
M  V30 3005 O 286.911 4.07491 -0.634409 0
M  V30 3006 H 286.252 0.573425 -0.334784 0
M  V30 3007 H 288.782 1.36799 -1.52142 0
M  V30 3008 H 288.792 3.81348 -1.45043 0
M  V30 3009 H 287.467 3.32734 -2.49522 0
M  V30 3010 H 286.044 3.66368 -0.694902 0
M  V30 3011 N 288.23 0.939286 1.26551 0
M  V30 3012 C 289.477 0.585847 1.9384 0
M  V30 3013 C 289.805 -0.874784 1.73718 0
M  V30 3014 O 289.06 -1.64092 1.06642 0
M  V30 3015 C 289.359 0.872106 3.46596 0
M  V30 3016 C 289.025 2.31632 3.86856 0
M  V30 3017 C 287.687 2.71111 3.97558 0
M  V30 3018 C 290.039 3.25494 4.07066 0
M  V30 3019 C 287.367 4.03553 4.25866 0
M  V30 3020 C 289.719 4.57531 4.36862 0
M  V30 3021 C 288.383 4.96828 4.45778 0
M  V30 3022 H 287.653 0.214377 0.709312 0
M  V30 3023 H 290.3 1.18544 1.50398 0
M  V30 3024 H 288.605 0.18996 3.91339 0
M  V30 3025 H 290.302 0.577442 3.96821 0
M  V30 3026 H 286.892 2.00008 3.79071 0
M  V30 3027 H 291.076 2.9619 3.98227 0
M  V30 3028 H 286.332 4.33665 4.30981 0
M  V30 3029 H 290.506 5.30254 4.51446 0
M  V30 3030 H 288.133 5.99482 4.67468 0
M  V30 3031 N 289.708 -1.40897 0.706093 0
M  V30 3032 C 290.655 -2.30751 0.0474474 0
M  V30 3033 C 291.625 -1.47678 -0.76029 0
M  V30 3034 O 292.81 -1.76441 -0.726177 0
M  V30 3035 C 289.95 -3.33815 -0.875309 0
M  V30 3036 C 289.063 -4.31961 -0.0580623 0
M  V30 3037 C 288.198 -5.22093 -0.979425 0
M  V30 3038 C 287.237 -6.11902 -0.155706 0
M  V30 3039 N 286.374 -6.94482 -1.03144 0
M  V30 3040 H 291.214 -2.86513 0.819413 0
M  V30 3041 H 288.751 -1.41102 0.415783 0
M  V30 3042 H 290.709 -3.92129 -1.42446 0
M  V30 3043 H 289.339 -2.79579 -1.61356 0
M  V30 3044 H 288.391 -3.75507 0.608147 0
M  V30 3045 H 289.703 -4.95415 0.580082 0
M  V30 3046 H 288.857 -5.85292 -1.59744 0
M  V30 3047 H 287.596 -4.5889 -1.65141 0
M  V30 3048 H 286.601 -5.47742 0.475309 0
M  V30 3049 H 287.826 -6.77162 0.512635 0
M  V30 3050 H 285.772 -6.33877 -1.68924 0
M  V30 3051 H 285.689 -7.54665 -0.449108 0
M  V30 3052 H 286.957 -7.6214 -1.63593 0
M  V30 3053 N 291.186 -0.45159 -1.50991 0
M  V30 3054 C 292.134 0.366864 -2.29689 0
M  V30 3055 C 293.128 1.00809 -1.36139 0
M  V30 3056 O 294.334 0.941427 -1.53418 0
M  V30 3057 H 290.709 0.137133 -0.739391 0
M  V30 3058 H 292.68 -0.317538 -2.96706 0
M  V30 3059 C 291.429 1.44751 -3.16137 0
M  V30 3060 H 290.752 0.963473 -3.88017 0
M  V30 3061 H 292.192 1.99315 -3.74232 0
M  V30 3062 C 290.651 2.43869 -2.32442 0
M  V30 3063 O 291.181 3.4872 -1.99392 0
M  V30 3064 N 289.387 2.15105 -1.95392 0
M  V30 3065 H 288.934 1.29866 -2.22469 0
M  V30 3066 H 288.892 2.81661 -1.39693 0
M  V30 3067 N 292.664 1.56529 -0.183458 0
M  V30 3068 C 293.941 1.88959 0.50536 0
M  V30 3069 C 294.321 1.09523 1.80466 0
M  V30 3070 O 293.669 0.19278 2.27685 0
M  V30 3071 C 293.879 3.41162 0.73547 0
M  V30 3072 C 295.227 4.11155 1.06005 0
M  V30 3073 O 296.251 3.46548 0.823594 0
M  V30 3074 O 295.11 5.25318 1.50675 0
M  V30 3075 H 292.204 0.78441 0.261973 0
M  V30 3076 H 294.75 1.68231 -0.222802 0
M  V30 3077 H 293.522 3.90874 -0.182561 0
M  V30 3078 H 293.145 3.67543 1.51651 0
M  V30 3079 N 294.142 -0.090211 1.57342 0
M  V30 3080 C 295.419 -0.824761 1.77361 0
M  V30 3081 C 295.799 -1.96698 0.76637 0
M  V30 3082 O 295.147 -2.27586 -0.204179 0
M  V30 3083 C 295.357 -1.31481 3.23286 0
M  V30 3084 C 296.705 -1.75563 3.86604 0
M  V30 3085 O 297.729 -1.41093 3.27065 0
M  V30 3086 O 296.588 -2.39317 4.91314 0
M  V30 3087 H 293.682 -0.393776 0.727234 0
M  V30 3088 H 296.228 -0.0717138 1.69548 0
M  V30 3089 H 295 -0.496671 3.88135 0
M  V30 3090 H 294.623 -2.12973 3.35751 0
M  V30 3091 N 295.62 -1.53406 -0.361157 0
M  V30 3092 C 296.848 -1.73717 -1.12383 0
M  V30 3093 C 297.263 -0.468161 -1.82904 0
M  V30 3094 O 296.62 0.559198 -1.73722 0
M  V30 3095 C 296.671 -2.90558 -2.15078 0
M  V30 3096 O 296.392 -4.12549 -1.47428 0
M  V30 3097 C 297.893 -3.22777 -3.03858 0
M  V30 3098 H 295.113 -0.580896 -0.335858 0
M  V30 3099 H 297.657 -2.00167 -0.418728 0
M  V30 3100 H 295.812 -2.66489 -2.8118 0
M  V30 3101 H 296.226 -4.78009 -2.15887 0
M  V30 3102 H 297.7 -4.07927 -3.71887 0
M  V30 3103 H 298.177 -2.38329 -3.68912 0
M  V30 3104 H 298.783 -3.48787 -2.43367 0
M  V30 3105 N 297.098 0.621204 -1.44841 0
M  V30 3106 C 298.045 1.73267 -1.5247 0
M  V30 3107 C 299.015 1.6189 -0.371611 0
M  V30 3108 O 300.2 1.81668 -0.58321 0
M  V30 3109 C 297.34 3.11545 -1.48438 0
M  V30 3110 C 296.453 3.33827 -2.74196 0
M  V30 3111 C 295.588 4.62133 -2.61929 0
M  V30 3112 C 294.627 4.77627 -3.82804 0
M  V30 3113 N 293.764 5.97219 -3.69153 0
M  V30 3114 H 298.604 1.66082 -2.47428 0
M  V30 3115 H 296.141 0.810026 -1.22788 0
M  V30 3116 H 298.099 3.91528 -1.4409 0
M  V30 3117 H 296.729 3.1772 -0.570402 0
M  V30 3118 H 295.781 2.47715 -2.88689 0
M  V30 3119 H 297.093 3.41153 -3.6389 0
M  V30 3120 H 296.247 5.50291 -2.5547 0
M  V30 3121 H 294.986 4.57182 -1.69811 0
M  V30 3122 H 293.991 3.87896 -3.89637 0
M  V30 3123 H 295.216 4.84385 -4.75971 0
M  V30 3124 H 293.162 5.93339 -2.79794 0
M  V30 3125 H 293.079 6.05644 -4.52472 0
M  V30 3126 H 294.347 6.87912 -3.66603 0
M  V30 3127 N 298.576 1.31904 0.862503 0
M  V30 3128 C 299.824 1.21776 1.61292 0
M  V30 3129 C 300.145 -0.222413 1.93727 0
M  V30 3130 O 299.415 -1.1451 1.58947 0
M  V30 3131 H 297.995 0.447717 0.597962 0
M  V30 3132 H 300.657 1.65326 1.03215 0
M  V30 3133 H 299.753 1.7948 2.5533 0
M  V30 3134 N 300.054 -1.07777 1.14986 0
M  V30 3135 C 301.331 -1.7699 0.832695 0
M  V30 3136 C 301.711 -2.001 -0.672561 0
M  V30 3137 O 301.059 -1.61598 -1.6155 0
M  V30 3138 C 301.269 -3.08139 1.63863 0
M  V30 3139 C 302.617 -3.8256 1.84208 0
M  V30 3140 O 303.641 -3.17939 1.60603 0
M  V30 3141 O 302.5 -4.98612 2.23714 0
M  V30 3142 H 299.594 -0.768389 0.305791 0
M  V30 3143 H 302.14 -1.14182 1.25541 0
M  V30 3144 H 300.912 -2.86909 2.6608 0
M  V30 3145 H 300.535 -3.78678 1.21197 0
M  V30 3146 N 301.532 -0.945985 -1.26051 0
M  V30 3147 C 302.762 -0.612136 -1.97323 0
M  V30 3148 C 303.17 0.818171 -1.70595 0
M  V30 3149 O 302.513 1.55777 -0.973613 0
M  V30 3150 C 302.575 -0.780347 -3.50929 0
M  V30 3151 C 302.239 -2.18619 -4.01317 0
M  V30 3152 C 303.236 -3.16209 -4.12683 0
M  V30 3153 C 300.921 -2.50805 -4.35203 0
M  V30 3154 C 302.915 -4.44085 -4.57238 0
M  V30 3155 C 300.602 -3.78912 -4.79446 0
M  V30 3156 C 301.6 -4.75365 -4.90425 0
M  V30 3157 O 301.288 -6.01191 -5.3369 0
M  V30 3158 H 301.02 -0.229134 -0.635982 0
M  V30 3159 H 303.574 -1.27036 -1.61404 0
M  V30 3160 H 301.804 -0.0649864 -3.86645 0
M  V30 3161 H 303.493 -0.448842 -4.03411 0
M  V30 3162 H 304.259 -2.92668 -3.86744 0
M  V30 3163 H 300.138 -1.76463 -4.2589 0
M  V30 3164 H 303.682 -5.19373 -4.65723 0
M  V30 3165 H 299.579 -4.02265 -5.0483 0
M  V30 3166 H 300.347 -6.04442 -5.51899 0
M  V30 3167 N 303.011 1.40521 -0.713556 0
M  V30 3168 C 304.257 2.01221 -0.252564 0
M  V30 3169 C 304.59 1.56444 1.1506 0
M  V30 3170 O 303.865 0.783597 1.78017 0
M  V30 3171 C 304.148 3.58582 -0.330332 0
M  V30 3172 C 304.001 4.13437 -1.77173 0
M  V30 3173 C 305.32 4.39079 0.299641 0
M  V30 3174 H 302.439 0.731077 -0.0932471 0
M  V30 3175 H 305.081 1.67026 -0.905673 0
M  V30 3176 H 303.231 3.87844 0.225737 0
M  V30 3177 H 304.903 3.9498 -2.38303 0
M  V30 3178 H 303.146 3.67801 -2.3001 0
M  V30 3179 H 303.817 5.22597 -1.77755 0
M  V30 3180 H 306.293 4.15735 -0.174139 0
M  V30 3181 H 305.169 5.4848 0.214771 0
M  V30 3182 H 305.43 4.19915 1.38288 0
M  V30 3183 N 304.489 0.459591 1.5075 0
M  V30 3184 C 305.419 -0.330644 2.31147 0
M  V30 3185 C 306.4 -1.00087 1.37538 0
M  V30 3186 O 307.585 -1.00025 1.66459 0
M  V30 3187 C 304.715 -1.41958 3.16962 0
M  V30 3188 C 303.669 -0.871608 4.19031 0
M  V30 3189 C 302.995 -2.05797 4.9351 0
M  V30 3190 C 304.295 0.109251 5.22186 0
M  V30 3191 H 305.989 0.340336 2.97459 0
M  V30 3192 H 303.535 0.165119 1.4305 0
M  V30 3193 H 305.488 -1.9798 3.71997 0
M  V30 3194 H 304.212 -2.11917 2.48513 0
M  V30 3195 H 302.871 -0.333442 3.6508 0
M  V30 3196 H 302.519 -2.74427 4.21544 0
M  V30 3197 H 302.219 -1.6976 5.62544 0
M  V30 3198 H 303.743 -2.62331 5.51375 0
M  V30 3199 H 305.157 -0.361405 5.7216 0
M  V30 3200 H 303.554 0.383316 5.98875 0
M  V30 3201 H 304.624 1.03887 4.73641 0
M  V30 3202 N 305.967 -1.56429 0.191757 0
M  V30 3203 C 307.244 -1.89224 -0.495332 0
M  V30 3204 C 307.624 -1.10478 -1.79883 0
M  V30 3205 O 306.972 -0.204852 -2.2758 0
M  V30 3206 C 307.182 -3.41548 -0.717367 0
M  V30 3207 C 308.53 -4.11711 -1.03823 0
M  V30 3208 O 309.554 -3.4698 -0.805204 0
M  V30 3209 O 308.413 -5.2611 -1.47887 0
M  V30 3210 H 305.507 -0.785788 -0.25781 0
M  V30 3211 H 308.053 -1.68111 0.231721 0
M  V30 3212 H 306.825 -3.90772 0.203287 0
M  V30 3213 H 306.448 -3.68342 -1.497 0
M  V30 3214 N 307.445 0.0818655 -1.57387 0
M  V30 3215 C 308.392 1.09834 -2.0299 0
M  V30 3216 C 309.362 1.39043 -0.908639 0
M  V30 3217 O 310.547 1.50282 -1.17559 0
M  V30 3218 C 307.687 2.40971 -2.47037 0
M  V30 3219 C 306.8 2.18379 -3.7274 0
M  V30 3220 C 305.935 3.43008 -4.0561 0
M  V30 3221 C 304.974 3.15736 -5.24383 0
M  V30 3222 N 304.111 4.32667 -5.52941 0
M  V30 3223 H 308.951 0.702472 -2.89602 0
M  V30 3224 H 306.488 0.33531 -1.43227 0
M  V30 3225 H 308.446 3.1752 -2.70623 0
M  V30 3226 H 307.076 2.78379 -1.63417 0
M  V30 3227 H 306.128 1.32569 -3.56552 0
M  V30 3228 H 307.44 1.94227 -4.59431 0
M  V30 3229 H 306.594 4.27958 -4.30043 0
M  V30 3230 H 305.333 3.70225 -3.17466 0
M  V30 3231 H 304.338 2.2918 -4.99757 0
M  V30 3232 H 305.563 2.8985 -6.14136 0
M  V30 3233 H 303.509 4.59935 -4.67756 0
M  V30 3234 H 303.426 4.11753 -6.34031 0
M  V30 3235 H 304.694 5.18644 -5.81918 0
M  V30 3236 N 308.923 1.53595 0.353017 0
M  V30 3237 C 310.17 1.70385 1.09431 0
M  V30 3238 C 310.498 0.462113 1.88931 0
M  V30 3239 O 309.753 -0.556074 1.87633 0
M  V30 3240 C 310.052 2.91313 2.07054 0
M  V30 3241 C 309.718 4.27308 1.43939 0
M  V30 3242 C 308.38 4.64287 1.26454 0
M  V30 3243 C 310.732 5.11829 0.983883 0
M  V30 3244 C 308.06 5.83412 0.620226 0
M  V30 3245 C 310.412 6.31611 0.353516 0
M  V30 3246 C 309.076 6.67293 0.166272 0
M  V30 3247 H 308.346 0.623484 0.400436 0
M  V30 3248 H 310.993 1.87799 0.374655 0
M  V30 3249 H 309.298 2.68463 2.85368 0
M  V30 3250 H 310.995 3.01497 2.64387 0
M  V30 3251 H 307.585 3.98198 1.58543 0
M  V30 3252 H 311.769 4.838 1.10685 0
M  V30 3253 H 307.025 6.09639 0.463681 0
M  V30 3254 H 311.199 6.964 -0.00757555 0
M  V30 3255 H 308.826 7.59461 -0.335047 0
M  V30 3256 N 310.401 -0.613514 1.45168 0
M  V30 3257 C 311.348 -1.72456 1.53387 0
M  V30 3258 C 312.318 -1.6169 0.380191 0
M  V30 3259 O 313.503 -1.81356 0.592836 0
M  V30 3260 C 310.643 -3.10753 1.50088 0
M  V30 3261 C 309.756 -3.32368 2.75963 0
M  V30 3262 C 308.891 -4.60737 2.64376 0
M  V30 3263 C 307.93 -4.7559 3.85332 0
M  V30 3264 N 307.067 -5.95253 3.72315 0
M  V30 3265 H 311.907 -1.64768 2.48305 0
M  V30 3266 H 309.444 -0.803503 1.23216 0
M  V30 3267 H 311.402 -3.90758 1.46164 0
M  V30 3268 H 310.032 -3.17413 0.587243 0
M  V30 3269 H 309.084 -2.4618 2.89999 0
M  V30 3270 H 310.396 -3.39218 3.65695 0
M  V30 3271 H 309.55 -5.48928 2.58385 0
M  V30 3272 H 308.289 -4.56275 1.72233 0
M  V30 3273 H 307.294 -3.85824 3.91688 0
M  V30 3274 H 308.519 -4.81854 4.78533 0
M  V30 3275 H 306.465 -5.91847 2.82937 0
M  V30 3276 H 306.382 -6.03236 4.55677 0
M  V30 3277 H 307.65 -6.85958 3.70246 0
M  V30 3278 N 311.879 -1.3236 -0.855495 0
M  V30 3279 C 312.842 -1.21164 -1.94556 0
M  V30 3280 C 313.842 -0.134908 -1.60233 0
M  V30 3281 O 315.032 -0.385249 -1.69887 0
M  V30 3282 C 312.164 -0.863192 -3.29791 0
M  V30 3283 H 313.357 -2.18038 -2.05911 0
M  V30 3284 H 310.91 -1.16179 -1.04557 0
M  V30 3285 H 311.645 0.103769 -3.24134 0
M  V30 3286 H 311.43 -1.64166 -3.56078 0
M  V30 3287 H 312.92 -0.809156 -4.09686 0
M  V30 3288 N 313.357 1.07166 -1.15556 0
M  V30 3289 C 314.605 1.79443 -0.929764 0
M  V30 3290 C 314.926 1.87246 0.544414 0
M  V30 3291 O 314.196 1.37473 1.39564 0
M  V30 3292 H 312.776 0.664625 -0.341003 0
M  V30 3293 H 315.438 1.29499 -1.45657 0
M  V30 3294 H 314.534 2.81832 -1.34079 0
M  V30 3295 N 314.835 0.952656 1.25548 0
M  V30 3296 C 316.084 0.602053 1.92505 0
M  V30 3297 C 316.397 -0.864663 1.75451 0
M  V30 3298 O 317.603 -1.32514 2.36965 0
M  V30 3299 C 316.059 1.02607 3.44963 0
M  V30 3300 C 315.667 2.51519 3.70732 0
M  V30 3301 C 317.411 0.747905 4.1786 0
M  V30 3302 C 315.318 2.87732 5.16686 0
M  V30 3303 H 314.248 0.22146 0.720744 0
M  V30 3304 H 316.899 1.15684 1.42441 0
M  V30 3305 H 315.281 0.399712 3.93978 0
M  V30 3306 H 316.455 3.19157 3.32378 0
M  V30 3307 H 314.77 2.76786 3.11092 0
M  V30 3308 H 317.367 0.994647 5.25367 0
M  V30 3309 H 317.71 -0.315629 4.15102 0
M  V30 3310 H 318.243 1.33452 3.74747 0
M  V30 3311 H 314.982 3.93095 5.24554 0
M  V30 3312 H 314.502 2.24765 5.56094 0
M  V30 3313 H 316.181 2.76817 5.84792 0
M  V30 3314 N 316.313 -1.40141 0.720998 0
M  V30 3315 C 317.276 -2.29058 0.0805834 0
M  V30 3316 C 318.276 -1.45632 -0.681758 0
M  V30 3317 O 319.466 -1.6648 -0.512856 0
M  V30 3318 C 316.598 -3.28925 -0.895593 0
M  V30 3319 H 317.791 -2.87191 0.863793 0
M  V30 3320 H 315.344 -1.48553 0.485975 0
M  V30 3321 H 316.079 -2.75822 -1.70566 0
M  V30 3322 H 315.864 -3.90519 -0.351766 0
M  V30 3323 H 317.354 -3.95494 -1.34069 0
M  V30 3324 N 317.792 -0.46758 -1.50504 0
M  V30 3325 C 319.02 0.0864133 -2.06719 0
M  V30 3326 C 319.435 1.33819 -1.33184 0
M  V30 3327 O 318.792 1.78061 -0.400083 0
M  V30 3328 C 318.843 0.378079 -3.59517 0
M  V30 3329 O 318.564 -0.824044 -4.3028 0
M  V30 3330 C 320.065 0.979426 -4.32345 0
M  V30 3331 H 317.285 -0.00551697 -0.670977 0
M  V30 3332 H 319.829 -0.655354 -1.93715 0
M  V30 3333 H 317.984 1.06977 -3.72337 0
M  V30 3334 H 318.398 -0.566518 -5.21432 0
M  V30 3335 H 319.872 1.1333 -5.40241 0
M  V30 3336 H 320.349 1.9686 -3.9261 0
M  V30 3337 H 320.955 0.326216 -4.24047 0
M  V30 3338 N 319.27 1.56325 -0.20005 0
M  V30 3339 C 320.218 2.20666 0.735482 0
M  V30 3340 C 321.212 1.17934 1.21605 0
M  V30 3341 O 322.418 1.36068 1.17837 0
M  V30 3342 H 318.793 0.70725 0.255542 0
M  V30 3343 H 320.764 2.9792 0.169166 0
M  V30 3344 C 319.513 2.88391 1.94232 0
M  V30 3345 H 318.836 3.67185 1.58161 0
M  V30 3346 H 320.276 3.3684 2.57517 0
M  V30 3347 C 318.735 1.89692 2.78421 0
M  V30 3348 O 319.265 1.40032 3.76502 0
M  V30 3349 N 317.471 1.57813 2.44015 0
M  V30 3350 H 317.018 1.9839 1.64314 0
M  V30 3351 H 316.976 0.920325 3.00628 0
M  V30 3352 N 320.748 -0.0735177 1.57428 0
M  V30 3353 C 321.994 -0.774145 1.87443 0
M  V30 3354 C 322.327 -1.77311 0.792103 0
M  V30 3355 O 321.602 -1.93492 -0.197793 0
M  V30 3356 C 321.885 -1.48367 3.28115 0
M  V30 3357 C 321.738 -0.501227 4.46999 0
M  V30 3358 C 323.057 -2.429 3.66998 0
M  V30 3359 H 320.176 -0.279971 0.681752 0
M  V30 3360 H 322.818 -0.0373616 1.89963 0
M  V30 3361 H 320.968 -2.11171 3.26097 0
M  V30 3362 H 322.64 0.121468 4.6114 0
M  V30 3363 H 320.883 0.183593 4.33411 0
M  V30 3364 H 321.554 -1.03526 5.42205 0
M  V30 3365 H 324.03 -1.90175 3.70098 0
M  V30 3366 H 322.906 -2.89549 4.66318 0
M  V30 3367 H 323.167 -3.27628 2.96837 0
M  V30 3368 N 322.226 -1.5378 -0.344866 0
M  V30 3369 C 323.454 -1.74899 -1.10534 0
M  V30 3370 C 323.869 -0.487534 -1.82397 0
M  V30 3371 O 323.226 0.540741 -1.74305 0
M  V30 3372 C 323.277 -2.92822 -2.11984 0
M  V30 3373 O 322.998 -4.14089 -1.43044 0
M  V30 3374 C 324.499 -3.25982 -3.00417 0
M  V30 3375 H 321.719 -0.584426 -0.329678 0
M  V30 3376 H 324.263 -2.006 -0.397474 0
M  V30 3377 H 322.418 -2.69457 -2.78338 0
M  V30 3378 H 322.832 -4.80272 -2.10805 0
M  V30 3379 H 324.306 -4.11848 -3.67539 0
M  V30 3380 H 324.783 -2.42228 -3.66363 0
M  V30 3381 H 325.389 -3.51349 -2.39654 0
M  V30 3382 N 323.704 0.605807 -1.45491 0
M  V30 3383 C 325.115 1.18777 -1.44045 0
M  V30 3384 C 325.466 1.95471 -0.169001 0
M  V30 3385 O 324.591 2.0374 0.729324 0
M  V30 3386 C 325.186 2.16064 -2.60963 0
M  V30 3387 C 323.745 2.69633 -2.62631 0
M  V30 3388 C 322.892 1.45072 -2.36325 0
M  V30 3389 H 325.843 0.395017 -1.53705 0
M  V30 3390 H 325.864 2.9913 -2.35163 0
M  V30 3391 H 325.376 1.60217 -3.53486 0
M  V30 3392 H 323.477 3.29414 -1.74119 0
M  V30 3393 H 323.59 3.13944 -3.61906 0
M  V30 3394 H 321.954 1.74089 -1.85917 0
M  V30 3395 H 322.737 0.910899 -3.30995 0
M  V30 3396 N 325.182 1.32811 0.848464 0
M  V30 3397 C 326.114 1.18095 1.96433 0
M  V30 3398 C 327.127 0.114354 1.62398 0
M  V30 3399 O 328.316 0.363892 1.74751 0
M  V30 3400 C 325.416 0.786798 3.2964 0
M  V30 3401 C 324.589 1.943 3.91875 0
M  V30 3402 C 323.648 1.53138 5.03423 0
M  V30 3403 O 322.674 2.24432 5.23086 0
M  V30 3404 N 323.876 0.430915 5.78898 0
M  V30 3405 H 326.641 2.14218 2.09597 0
M  V30 3406 H 324.202 1.2543 1.02367 0
M  V30 3407 H 326.194 0.493715 4.01677 0
M  V30 3408 H 324.764 -0.0834541 3.12489 0
M  V30 3409 H 323.984 2.40224 3.12547 0
M  V30 3410 H 325.272 2.71689 4.30189 0
M  V30 3411 H 324.67 -0.162333 5.65467 0
M  V30 3412 H 323.227 0.197466 6.51501 0
M  V30 3413 N 326.66 -1.06551 1.16123 0
M  V30 3414 C 327.906 -1.79567 0.94252 0
M  V30 3415 C 328.239 -1.86869 -0.528547 0
M  V30 3416 O 327.514 -1.35838 -1.39206 0
M  V30 3417 C 327.797 -3.24195 1.56747 0
M  V30 3418 C 327.65 -3.24989 3.10969 0
M  V30 3419 C 328.969 -4.21678 1.25998 0
M  V30 3420 H 326.088 -0.651883 0.343828 0
M  V30 3421 H 328.73 -1.2463 1.43413 0
M  V30 3422 H 326.88 -3.71107 1.14942 0
M  V30 3423 H 328.552 -2.86258 3.61737 0
M  V30 3424 H 326.795 -2.63716 3.44436 0
M  V30 3425 H 327.466 -4.27005 3.49815 0
M  V30 3426 H 329.942 -3.83196 1.62174 0
M  V30 3427 H 328.818 -5.21146 1.7233 0
M  V30 3428 H 329.079 -4.4174 0.178367 0
M  V30 3429 N 328.138 -0.959301 -1.25041 0
M  V30 3430 C 329.366 -0.633949 -1.96948 0
M  V30 3431 C 329.781 0.794916 -1.7125 0
M  V30 3432 O 329.138 1.53231 -0.991287 0
M  V30 3433 C 329.189 -0.888805 -3.50403 0
M  V30 3434 O 328.91 -2.26149 -3.75218 0
M  V30 3435 C 330.411 -0.576482 -4.39536 0
M  V30 3436 H 327.631 -0.237263 -0.627652 0
M  V30 3437 H 330.175 -1.28495 -1.59089 0
M  V30 3438 H 328.33 -0.284145 -3.86357 0
M  V30 3439 H 328.744 -2.33514 -4.6965 0
M  V30 3440 H 330.218 -0.805314 -5.46094 0
M  V30 3441 H 330.695 0.489075 -4.36468 0
M  V30 3442 H 331.301 -1.16067 -4.09156 0
M  V30 3443 N 329.616 1.39756 -0.72842 0
M  V30 3444 C 331.032 1.5442 -0.403308 0
M  V30 3445 C 331.232 1.69694 1.08656 0
M  V30 3446 O 330.288 1.69373 1.87267 0
M  V30 3447 C 331.601 2.76555 -1.18058 0
M  V30 3448 C 333.149 2.90384 -1.16815 0
M  V30 3449 C 333.624 4.15449 -1.92785 0
M  V30 3450 N 335.115 4.22475 -1.89918 0
M  V30 3451 C 335.85 5.1818 -2.45514 0
M  V30 3452 N 335.346 6.19714 -3.09719 0
M  V30 3453 N 337.139 5.1035 -2.35584 0
M  V30 3454 H 329.29 1.28089 -1.69431 0
M  V30 3455 H 331.553 0.620327 -0.716867 0
M  V30 3456 H 331.259 2.7159 -2.23455 0
M  V30 3457 H 331.133 3.69033 -0.780662 0
M  V30 3458 H 333.52 2.94846 -0.12234 0
M  V30 3459 H 333.601 1.98988 -1.6074 0
M  V30 3460 H 333.245 4.11749 -2.97364 0
M  V30 3461 H 333.175 5.05877 -1.46272 0
M  V30 3462 H 335.666 3.49743 -1.43138 0
M  V30 3463 H 335.979 6.8919 -3.49625 0
M  V30 3464 H 334.324 6.20121 -3.13807 0
M  V30 3465 H 337.515 4.2996 -1.85072 0
M  V30 3466 H 337.688 5.84761 -2.79211 0
M  V30 3467 N 331.094 0.475555 1.50254 0
M  V30 3468 C 332.057 -0.305016 2.27161 0
M  V30 3469 C 333.057 -0.916519 1.32123 0
M  V30 3470 O 334.247 -0.785003 1.5551 0
M  V30 3471 C 331.379 -1.43496 3.09227 0
M  V30 3472 H 332.572 0.369511 2.97615 0
M  V30 3473 H 330.125 0.229747 1.54602 0
M  V30 3474 H 330.86 -2.14441 2.43281 0
M  V30 3475 H 330.645 -1.00223 3.79075 0
M  V30 3476 H 332.135 -1.98548 3.67381 0
M  V30 3477 N 332.573 -1.56217 0.208337 0
M  V30 3478 C 333.801 -2.02337 -0.43215 0
M  V30 3479 C 334.216 -1.08834 -1.54275 0
M  V30 3480 O 333.573 -0.0955462 -1.8225 0
M  V30 3481 C 333.624 -3.48072 -0.976138 0
M  V30 3482 O 333.345 -4.38007 0.0901621 0
M  V30 3483 C 334.846 -4.09773 -1.69119 0
M  V30 3484 H 332.066 -0.662385 -0.10718 0
M  V30 3485 H 334.61 -2.01966 0.320923 0
M  V30 3486 H 332.765 -3.49099 -1.67954 0
M  V30 3487 H 333.179 -5.23543 -0.316701 0
M  V30 3488 H 334.653 -5.13556 -2.02397 0
M  V30 3489 H 335.13 -3.53999 -2.59964 0
M  V30 3490 H 335.736 -4.12556 -1.03332 0
M  V30 3491 N 334.051 0.0651679 -1.57465 0
M  V30 3492 C 335.3 0.761916 -1.86756 0
M  V30 3493 C 335.613 1.78406 -0.801925 0
M  V30 3494 O 336.819 2.53084 -0.982885 0
M  V30 3495 C 335.275 1.40603 -3.31299 0
M  V30 3496 C 334.883 0.422115 -4.46007 0
M  V30 3497 C 336.627 2.08476 -3.69781 0
M  V30 3498 C 334.534 1.07252 -5.81593 0
M  V30 3499 H 333.464 0.288308 -0.696702 0
M  V30 3500 H 336.115 0.015344 -1.83494 0
M  V30 3501 H 334.497 2.20109 -3.29193 0
M  V30 3502 H 335.671 -0.343613 -4.59517 0
M  V30 3503 H 333.986 -0.152527 -4.16121 0
M  V30 3504 H 336.583 2.57925 -4.68379 0
M  V30 3505 H 336.926 2.88712 -2.99919 0
M  V30 3506 H 337.459 1.35792 -3.73905 0
M  V30 3507 H 334.198 0.310342 -6.54765 0
M  V30 3508 H 333.718 1.80895 -5.71872 0
M  V30 3509 H 335.397 1.59043 -6.27148 0
M  V30 3510 N 335.529 1.53961 0.336706 0
M  V30 3511 C 336.754 1.75797 1.10046 0
M  V30 3512 C 337.179 0.498985 1.81361 0
M  V30 3513 O 336.537 -0.548769 1.72795 0
M  V30 3514 C 336.585 2.94257 2.08436 0
M  V30 3515 O 335.689 2.64883 3.16087 0
M  V30 3516 H 335.03 0.582936 0.317934 0
M  V30 3517 H 337.56 2.00945 0.38501 0
M  V30 3518 H 337.57 3.21237 2.51537 0
M  V30 3519 H 336.245 3.85564 1.55927 0
M  V30 3520 H 334.822 2.48812 2.77753 0
M  V30 3521 N 337.007 -0.598083 1.45811 0
M  V30 3522 C 338.255 -1.35413 1.50026 0
M  V30 3523 C 338.576 -1.94444 0.147177 0
M  V30 3524 O 337.846 -1.77701 -0.824571 0
M  V30 3525 H 336.426 -0.502727 0.552517 0
M  V30 3526 H 339.088 -0.701606 1.81834 0
M  V30 3527 H 338.184 -2.16871 2.2444 0
M  V30 3528 N 338.485 -1.33259 -0.841409 0
M  V30 3529 C 339.896 -1.22066 -1.41269 0
M  V30 3530 C 340.247 0.161479 -1.95534 0
M  V30 3531 O 339.372 1.06094 -1.88608 0
M  V30 3532 C 339.967 -2.20996 -2.568 0
M  V30 3533 C 338.526 -2.13649 -3.09888 0
M  V30 3534 C 337.673 -2.08623 -1.82679 0
M  V30 3535 H 340.624 -1.44895 -0.647395 0
M  V30 3536 H 340.645 -1.81621 -3.34356 0
M  V30 3537 H 340.157 -3.2158 -2.17274 0
M  V30 3538 H 338.258 -1.16359 -3.53965 0
M  V30 3539 H 338.371 -3.04079 -3.70234 0
M  V30 3540 H 336.735 -1.54061 -2.02824 0
M  V30 3541 H 337.518 -3.1101 -1.45353 0
M  V30 3542 N 339.963 1.05934 -1.16686 0
M  V30 3543 C 341.24 1.75643 -0.860747 0
M  V30 3544 C 341.62 2.01144 0.640641 0
M  V30 3545 O 340.968 1.64147 1.58959 0
M  V30 3546 C 341.178 3.05493 -1.68745 0
M  V30 3547 C 342.526 3.79581 -1.90271 0
M  V30 3548 O 343.55 3.15344 -1.65641 0
M  V30 3549 O 342.409 4.9499 -2.31618 0
M  V30 3550 H 339.503 0.763426 -0.317977 0
M  V30 3551 H 342.049 1.1217 -1.27342 0
M  V30 3552 H 340.821 2.8264 -2.70611 0
M  V30 3553 H 340.444 3.76702 -1.27206 0
M  V30 3554 N 341.441 0.965919 1.2453 0
M  V30 3555 C 342.371 0.513476 2.27784 0
M  V30 3556 C 343.352 -0.445974 1.6415 0
M  V30 3557 O 344.537 -0.342485 1.91156 0
M  V30 3558 C 341.667 -0.198839 3.4673 0
M  V30 3559 C 340.621 0.676456 4.2262 0
M  V30 3560 C 339.947 -0.167248 5.34438 0
M  V30 3561 C 341.247 1.96017 4.84123 0
M  V30 3562 H 342.941 1.3765 2.65881 0
M  V30 3563 H 340.487 0.663321 1.27813 0
M  V30 3564 H 342.44 -0.526567 4.18097 0
M  V30 3565 H 341.164 -1.0962 3.07654 0
M  V30 3566 H 339.823 0.98743 3.53052 0
M  V30 3567 H 339.471 -1.0647 4.91603 0
M  V30 3568 H 339.171 0.415181 5.86131 0
M  V30 3569 H 340.695 -0.489688 6.08633 0
M  V30 3570 H 342.109 1.69814 5.47573 0
M  V30 3571 H 340.506 2.48918 5.4604 0
M  V30 3572 H 341.576 2.65622 4.05676 0
M  V30 3573 N 342.919 -1.39368 0.735821 0
M  V30 3574 C 343.829 -2.34395 0.0979693 0
M  V30 3575 C 344.845 -1.58361 -0.720968 0
M  V30 3576 O 346.021 -1.90648 -0.649245 0
M  V30 3577 C 343.086 -3.37393 -0.797916 0
M  V30 3578 C 342.147 -4.29287 0.0333662 0
M  V30 3579 C 341.38 -5.27365 -0.819854 0
M  V30 3580 O 341.603 -5.31959 -2.05855 0
M  V30 3581 O 340.537 -6.01389 -0.248079 0
M  V30 3582 H 344.363 -2.90601 0.882315 0
M  V30 3583 H 341.948 -1.40909 0.4965 0
M  V30 3584 H 343.83 -4.00505 -1.31048 0
M  V30 3585 H 342.505 -2.83571 -1.56106 0
M  V30 3586 H 341.412 -3.69395 0.591475 0
M  V30 3587 H 342.745 -4.86317 0.758752 0
M  V30 3588 N 344.397 -0.483516 -1.5 0
M  V30 3589 C 345.36 0.292965 -2.2732 0
M  V30 3590 C 346.36 0.909499 -1.32608 0
M  V30 3591 O 347.55 0.776745 -1.55924 0
M  V30 3592 C 344.682 1.41854 -3.09984 0
M  V30 3593 H 345.875 -0.385289 -2.97415 0
M  V30 3594 H 343.428 -0.237942 -1.54478 0
M  V30 3595 H 344.163 2.13148 -2.44414 0
M  V30 3596 H 343.948 0.982114 -3.79601 0
M  V30 3597 H 345.438 1.96597 -3.68429 0
M  V30 3598 N 345.875 1.56104 -0.216619 0
M  V30 3599 C 347.121 1.98466 0.417033 0
M  V30 3600 C 347.454 1.10403 1.59765 0
M  V30 3601 O 346.729 0.160632 1.93836 0
M  V30 3602 C 347.012 3.49769 0.85637 0
M  V30 3603 C 346.865 4.48606 -0.327546 0
M  V30 3604 C 348.184 4.05339 1.7143 0
M  V30 3605 H 345.303 0.721551 0.150112 0
M  V30 3606 H 347.945 1.87423 -0.311864 0
M  V30 3607 H 346.095 3.5931 1.47745 0
M  V30 3608 H 347.767 4.5108 -0.965618 0
M  V30 3609 H 346.01 4.22682 -0.975805 0
M  V30 3610 H 346.681 5.51995 0.0227149 0
M  V30 3611 H 349.157 3.98712 1.19031 0
M  V30 3612 H 348.033 5.11533 1.99061 0
M  V30 3613 H 348.294 3.51918 2.67593 0
M  V30 3614 N 347.353 -0.0568162 1.57498 0
M  V30 3615 C 348.3 -1.06591 2.04712 0
M  V30 3616 C 349.27 -1.3758 0.930644 0
M  V30 3617 O 350.455 -1.48392 1.19935 0
M  V30 3618 C 347.595 -2.3701 2.50839 0
M  V30 3619 C 346.708 -2.12421 3.76167 0
M  V30 3620 C 345.843 -3.36511 4.11015 0
M  V30 3621 C 344.882 -3.07353 5.2934 0
M  V30 3622 N 344.019 -4.23816 5.59754 0
M  V30 3623 H 348.859 -0.65631 2.90683 0
M  V30 3624 H 346.396 -0.312481 1.43743 0
M  V30 3625 H 348.354 -3.13175 2.7564 0
M  V30 3626 H 346.984 -2.75744 1.67825 0
M  V30 3627 H 346.036 -1.2688 3.58616 0
M  V30 3628 H 347.348 -1.86894 4.62463 0
M  V30 3629 H 346.502 -4.21062 4.36797 0
M  V30 3630 H 345.241 -3.65128 3.23315 0
M  V30 3631 H 344.246 -2.212 5.03339 0
M  V30 3632 H 345.471 -2.80043 6.1867 0
M  V30 3633 H 343.417 -4.52436 4.75014 0
M  V30 3634 H 343.334 -4.01614 6.40501 0
M  V30 3635 H 344.602 -5.0932 5.90096 0
M  V30 3636 N 348.832 -1.54138 -0.328536 0
M  V30 3637 C 349.762 -1.86167 -1.40939 0
M  V30 3638 C 350.743 -0.718044 -1.54202 0
M  V30 3639 O 351.928 -0.971328 -1.68163 0
M  V30 3640 C 349.058 -2.08461 -2.77779 0
M  V30 3641 C 348.012 -3.24299 -2.7931 0
M  V30 3642 C 347.338 -3.31955 -4.19178 0
M  V30 3643 C 348.638 -4.62065 -2.43502 0
M  V30 3644 H 350.332 -2.76689 -1.14383 0
M  V30 3645 H 347.878 -1.33132 -0.548806 0
M  V30 3646 H 349.831 -2.29453 -3.53454 0
M  V30 3647 H 348.555 -1.14684 -3.05802 0
M  V30 3648 H 347.214 -3.03187 -2.0609 0
M  V30 3649 H 346.862 -2.35745 -4.44335 0
M  V30 3650 H 346.562 -4.09805 -4.2111 0
M  V30 3651 H 348.086 -3.55175 -4.96672 0
M  V30 3652 H 349.5 -4.8297 -3.08889 0
M  V30 3653 H 347.897 -5.42429 -2.56693 0
M  V30 3654 H 348.967 -4.64652 -1.38659 0
M  V30 3655 N 350.31 0.590341 -1.46126 0
M  V30 3656 C 351.273 1.68194 -1.55703 0
M  V30 3657 C 352.273 1.54808 -0.434868 0
M  V30 3658 O 353.463 1.59564 -0.698928 0
M  V30 3659 C 350.595 3.07575 -1.47005 0
M  V30 3660 H 351.788 1.61064 -2.52979 0
M  V30 3661 H 349.341 0.807541 -1.33823 0
M  V30 3662 H 350.076 3.20268 -0.509785 0
M  V30 3663 H 349.861 3.187 -2.28414 0
M  V30 3664 H 351.351 3.87055 -1.56776 0
M  V30 3665 N 351.788 1.33704 0.83433 0
M  V30 3666 C 353.018 1.28281 1.6195 0
M  V30 3667 C 353.426 -0.147603 1.88623 0
M  V30 3668 O 352.769 -1.1016 1.47005 0
M  V30 3669 C 352.831 1.99386 2.99141 0
M  V30 3670 C 352.495 3.48681 2.95416 0
M  V30 3671 C 353.492 4.438 2.70809 0
M  V30 3672 C 351.177 3.90925 3.15409 0
M  V30 3673 C 353.171 5.79138 2.66229 0
M  V30 3674 C 350.858 5.26366 3.10454 0
M  V30 3675 C 351.856 6.20284 2.85895 0
M  V30 3676 O 351.544 7.53245 2.80852 0
M  V30 3677 H 351.276 0.44315 0.510484 0
M  V30 3678 H 353.83 1.76711 1.04702 0
M  V30 3679 H 352.06 1.45554 3.58261 0
M  V30 3680 H 353.749 1.87403 3.60049 0
M  V30 3681 H 354.515 4.12485 2.5511 0
M  V30 3682 H 350.394 3.18229 3.33543 0
M  V30 3683 H 353.938 6.52416 2.4698 0
M  V30 3684 H 349.835 5.57304 3.25703 0
M  V30 3685 H 350.603 7.62846 2.96661 0
M  V30 3686 N 353.266 -1.05314 1.17247 0
M  V30 3687 C 354.176 -2.16538 0.90268 0
M  V30 3688 C 355.192 -1.73523 -0.128707 0
M  V30 3689 O 356.368 -2.01337 0.0502701 0
M  V30 3690 C 353.433 -3.44167 0.418356 0
M  V30 3691 C 352.494 -4.01635 1.51618 0
M  V30 3692 C 351.727 -5.23171 1.05487 0
M  V30 3693 O 351.95 -5.70327 -0.0914715 0
M  V30 3694 O 350.884 -5.72848 1.8474 0
M  V30 3695 H 354.71 -2.42145 1.83302 0
M  V30 3696 H 352.295 -1.15037 0.953246 0
M  V30 3697 H 354.177 -4.21112 0.155726 0
M  V30 3698 H 352.852 -3.20063 -0.48385 0
M  V30 3699 H 351.759 -3.26135 1.83268 0
M  V30 3700 H 353.092 -4.30053 2.39405 0
M  V30 3701 N 354.744 -0.972509 -1.24016 0
M  V30 3702 C 355.969 -0.654417 -1.96805 0
M  V30 3703 C 356.394 0.770398 -1.716 0
M  V30 3704 O 355.752 1.52361 -0.982647 0
M  V30 3705 C 355.8 -0.941031 -3.48105 0
M  V30 3706 O 354.904 -0.0289472 -4.1239 0
M  V30 3707 H 354.245 -0.24692 -0.616382 0
M  V30 3708 H 356.775 -1.30396 -1.57664 0
M  V30 3709 H 356.785 -0.87452 -3.98517 0
M  V30 3710 H 355.46 -1.97939 -3.65777 0
M  V30 3711 H 354.037 -0.149192 -3.72601 0
M  V30 3712 N 356.222 1.38976 -0.743202 0
M  V30 3713 C 357.469 2.00343 -0.294752 0
M  V30 3714 C 357.797 1.58983 1.12047 0
M  V30 3715 O 357.052 0.813809 1.77977 0
M  V30 3716 C 357.351 3.55647 -0.353517 0
M  V30 3717 C 357.017 4.16685 -1.72292 0
M  V30 3718 C 355.679 4.3307 -2.09771 0
M  V30 3719 C 358.031 4.50464 -2.62168 0
M  V30 3720 C 355.359 4.80526 -3.36618 0
M  V30 3721 C 357.711 4.99332 -3.88395 0
M  V30 3722 C 356.375 5.13924 -4.25956 0
M  V30 3723 H 355.645 0.733108 -0.107857 0
M  V30 3724 H 358.292 1.6618 -0.951651 0
M  V30 3725 H 356.597 3.89884 0.386954 0
M  V30 3726 H 358.294 4.00998 0.0117269 0
M  V30 3727 H 354.884 4.04339 -1.42155 0
M  V30 3728 H 359.068 4.37416 -2.3448 0
M  V30 3729 H 354.324 4.90008 -3.65653 0
M  V30 3730 H 358.498 5.2444 -4.58187 0
M  V30 3731 H 356.125 5.50457 -5.2431 0
M  V30 3732 N 357.7 0.491464 1.49741 0
M  V30 3733 C 358.63 -0.28154 2.31796 0
M  V30 3734 C 359.611 -0.971473 1.3963 0
M  V30 3735 O 360.796 -0.964719 1.68543 0
M  V30 3736 C 357.926 -1.35203 3.19902 0
M  V30 3737 C 356.88 -0.782529 4.20786 0
M  V30 3738 C 356.206 -1.95283 4.97764 0
M  V30 3739 C 357.506 0.21999 5.21837 0
M  V30 3740 H 359.2 0.403355 2.96671 0
M  V30 3741 H 356.746 0.195425 1.42668 0
M  V30 3742 H 358.699 -1.90045 3.76113 0
M  V30 3743 H 357.423 -2.06598 2.52953 0
M  V30 3744 H 356.082 -0.255928 3.65706 0
M  V30 3745 H 355.73 -2.65423 4.2727 0
M  V30 3746 H 355.43 -1.57789 5.66018 0
M  V30 3747 H 356.954 -2.50577 5.56816 0
M  V30 3748 H 358.368 -0.23996 5.72798 0
M  V30 3749 H 356.765 0.51026 5.97927 0
M  V30 3750 H 357.835 1.13911 4.7133 0
M  V30 3751 N 359.178 -1.55987 0.224894 0
M  V30 3752 C 360.141 -2.19178 -0.670348 0
M  V30 3753 C 361.141 -1.15461 -1.11917 0
M  V30 3754 O 362.331 -1.40675 -1.02743 0
M  V30 3755 C 359.463 -2.81777 -1.9187 0
M  V30 3756 H 360.656 -2.99662 -0.119364 0
M  V30 3757 H 358.209 -1.5628 -0.0247128 0
M  V30 3758 H 358.944 -2.05172 -2.51147 0
M  V30 3759 H 358.729 -3.57732 -1.60531 0
M  V30 3760 H 360.219 -3.30205 -2.55645 0
M  V30 3761 N 360.656 0.0484629 -1.57525 0
M  V30 3762 C 361.933 0.777447 -1.79486 0
M  V30 3763 C 362.313 1.94597 -0.818251 0
M  V30 3764 O 361.661 2.28047 0.143767 0
M  V30 3765 C 361.871 1.22864 -3.26658 0
M  V30 3766 C 363.219 1.65251 -3.91123 0
M  V30 3767 O 364.243 1.32372 -3.3069 0
M  V30 3768 O 363.102 2.26207 -4.97486 0
M  V30 3769 H 360.196 0.374357 -0.737419 0
M  V30 3770 H 362.742 0.0267359 -1.69679 0
M  V30 3771 H 361.514 0.393589 -3.89316 0
M  V30 3772 H 361.137 2.03996 -3.41279 0
M  V30 3773 N 362.134 1.5431 0.320358 0
M  V30 3774 C 363.081 1.83918 1.39438 0
M  V30 3775 C 364.051 0.686525 1.51248 0
M  V30 3776 O 365.236 0.933269 1.66417 0
M  V30 3777 C 362.376 2.075 2.75749 0
M  V30 3778 C 361.489 3.35177 2.72544 0
M  V30 3779 C 360.624 3.48704 4.00723 0
M  V30 3780 C 359.663 4.70244 3.91838 0
M  V30 3781 N 358.8 4.80679 5.11754 0
M  V30 3782 H 363.64 2.75544 1.13489 0
M  V30 3783 H 361.177 1.36459 0.549309 0
M  V30 3784 H 363.135 2.19166 3.54996 0
M  V30 3785 H 361.765 1.19163 3 0
M  V30 3786 H 360.817 3.32233 1.85271 0
M  V30 3787 H 362.129 4.24534 2.61863 0
M  V30 3788 H 361.283 3.59928 4.88402 0
M  V30 3789 H 360.022 2.57445 4.14214 0
M  V30 3790 H 359.027 4.59072 3.02544 0
M  V30 3791 H 360.252 5.6289 3.7991 0
M  V30 3792 H 358.198 3.92337 5.25745 0
M  V30 3793 H 358.115 5.64007 5.0342 0
M  V30 3794 H 359.383 4.96239 6.01138 0
M  V30 3795 N 363.613 -0.582584 1.46437 0
M  V30 3796 C 364.523 -1.71949 1.59595 0
M  V30 3797 C 365.539 -1.67264 0.479443 0
M  V30 3798 O 366.715 -1.87171 0.743579 0
M  V30 3799 C 363.78 -3.08452 1.58298 0
M  V30 3800 C 362.841 -3.244 2.81182 0
M  V30 3801 C 362.074 -4.54391 2.79937 0
M  V30 3802 O 362.297 -5.38287 1.8869 0
M  V30 3803 O 361.231 -4.73588 3.71481 0
M  V30 3804 H 365.057 -1.63795 2.55744 0
M  V30 3805 H 362.642 -0.749643 1.29231 0
M  V30 3806 H 364.524 -3.89732 1.60271 0
M  V30 3807 H 363.199 -3.17043 0.653094 0
M  V30 3808 H 362.106 -2.42613 2.84763 0
M  V30 3809 H 363.439 -3.20699 3.7338 0
M  V30 3810 N 365.091 -1.34144 -0.827227 0
M  V30 3811 C 366.021 -1.28005 -1.95287 0
M  V30 3812 C 367.002 -0.158321 -1.69362 0
M  V30 3813 O 368.187 -0.349987 -1.9102 0
M  V30 3814 C 365.317 -1.03036 -3.31664 0
M  V30 3815 C 364.271 -2.11628 -3.72019 0
M  V30 3816 C 363.597 -1.71854 -5.0633 0
M  V30 3817 C 364.897 -3.53417 -3.8457 0
M  V30 3818 H 366.591 -2.22187 -2.00682 0
M  V30 3819 H 364.137 -1.0696 -0.964135 0
M  V30 3820 H 366.09 -0.973863 -4.09993 0
M  V30 3821 H 364.814 -0.0529391 -3.26557 0
M  V30 3822 H 363.473 -2.16339 -2.95961 0
M  V30 3823 H 363.121 -0.727841 -4.97706 0
M  V30 3824 H 362.821 -2.44531 -5.34302 0
M  V30 3825 H 364.345 -1.67692 -5.87122 0
M  V30 3826 H 365.759 -3.51142 -4.5318 0
M  V30 3827 H 364.156 -4.24679 -4.2399 0
M  V30 3828 H 365.226 -3.91072 -2.86689 0
M  V30 3829 N 366.569 1.04691 -1.17803 0
M  V30 3830 C 367.846 1.7472 -0.879328 0
M  V30 3831 C 368.226 2.01812 0.619271 0
M  V30 3832 O 367.574 1.65824 1.57209 0
M  V30 3833 C 367.784 3.03686 -1.71976 0
M  V30 3834 C 369.132 3.77542 -1.94286 0
M  V30 3835 O 370.156 3.13569 -1.68976 0
M  V30 3836 O 369.015 4.92506 -2.36855 0
M  V30 3837 H 366.109 0.760011 -0.326056 0
M  V30 3838 H 368.655 1.10813 -1.28525 0
M  V30 3839 H 367.427 2.79754 -2.73594 0
M  V30 3840 H 367.05 3.75332 -1.31194 0
M  V30 3841 N 368.047 0.979072 1.23499 0
M  V30 3842 C 369.295 0.645941 1.91499 0
M  V30 3843 C 369.616 -0.822948 1.76784 0
M  V30 3844 O 368.886 -1.58854 1.14639 0
M  V30 3845 H 367.466 0.235919 0.708767 0
M  V30 3846 H 370.128 1.2426 1.50152 0
M  V30 3847 H 369.224 0.896411 2.9895 0
M  V30 3848 N 369.525 -1.3858 0.750561 0
M  V30 3849 C 370.75 -2.04997 0.314812 0
M  V30 3850 C 371.175 -1.56235 -1.04749 0
M  V30 3851 O 370.533 -0.712981 -1.66692 0
M  V30 3852 C 370.581 -3.58961 0.343415 0
M  V30 3853 O 369.685 -4.07025 -0.663628 0
M  V30 3854 H 369.026 -0.649081 0.139962 0
M  V30 3855 H 371.556 -1.77313 1.02084 0
M  V30 3856 H 371.566 -4.07542 0.193233 0
M  V30 3857 H 370.241 -3.93811 1.33738 0
M  V30 3858 H 368.818 -3.6982 -0.478307 0
M  V30 3859 N 371.003 -0.499398 -1.49478 0
M  V30 3860 C 372.25 0.0456899 -2.02448 0
M  V30 3861 C 372.578 1.37142 -1.37921 0
M  V30 3862 O 371.833 1.89111 -0.503544 0
M  V30 3863 C 372.132 0.248424 -3.56536 0
M  V30 3864 C 371.798 -0.999107 -4.39692 0
M  V30 3865 C 370.46 -1.34108 -4.62135 0
M  V30 3866 C 372.812 -1.82842 -4.88076 0
M  V30 3867 C 370.14 -2.51191 -5.30208 0
M  V30 3868 C 372.492 -2.99076 -5.57437 0
M  V30 3869 C 371.156 -3.33655 -5.78127 0
M  V30 3870 H 370.426 0.0167191 -0.740811 0
M  V30 3871 H 373.073 -0.65923 -1.79795 0
M  V30 3872 H 371.378 1.03586 -3.77859 0
M  V30 3873 H 373.075 0.684605 -3.95113 0
M  V30 3874 H 369.665 -0.722729 -4.22463 0
M  V30 3875 H 373.849 -1.57737 -4.70566 0
M  V30 3876 H 369.105 -2.78221 -5.44429 0
M  V30 3877 H 373.279 -3.63664 -5.93904 0
M  V30 3878 H 370.906 -4.24483 -6.30649 0
M  V30 3879 N 372.481 1.55866 -0.233164 0
M  V30 3880 C 373.391 2.24431 0.683217 0
M  V30 3881 C 374.407 1.2558 1.2044 0
M  V30 3882 O 375.583 1.58422 1.24356 0
M  V30 3883 C 372.648 2.91979 1.86947 0
M  V30 3884 C 371.709 4.06204 1.38912 0
M  V30 3885 C 370.942 4.70522 2.51883 0
M  V30 3886 O 371.165 4.33865 3.70293 0
M  V30 3887 O 370.099 5.59296 2.22423 0
M  V30 3888 H 373.925 3.03426 0.129059 0
M  V30 3889 H 371.51 1.494 -0.0022283 0
M  V30 3890 H 373.392 3.34573 2.56201 0
M  V30 3891 H 372.067 2.15935 2.41151 0
M  V30 3892 H 370.974 3.68155 0.664259 0
M  V30 3893 H 372.307 4.84025 0.893328 0
M  V30 3894 N 373.959 -0.0401083 1.57549 0
M  V30 3895 C 375.208 -0.732108 1.87944 0
M  V30 3896 C 375.521 -1.77107 0.830206 0
M  V30 3897 O 376.727 -2.51488 1.02302 0
M  V30 3898 C 375.183 -1.35315 3.33494 0
M  V30 3899 C 374.791 -0.351105 4.46622 0
M  V30 3900 C 376.535 -2.02566 3.73051 0
M  V30 3901 C 374.442 -0.979859 5.83226 0
M  V30 3902 H 373.372 -0.277188 0.701201 0
M  V30 3903 H 376.023 0.0138501 1.83495 0
M  V30 3904 H 374.405 -2.14844 3.32653 0
M  V30 3905 H 375.579 0.416674 4.58912 0
M  V30 3906 H 373.894 0.218708 4.15825 0
M  V30 3907 H 376.491 -2.50441 4.72423 0
M  V30 3908 H 376.834 -2.83904 3.04474 0
M  V30 3909 H 377.367 -1.29827 3.76018 0
M  V30 3910 H 374.106 -0.206135 6.55176 0
M  V30 3911 H 373.626 -1.71774 5.74677 0
M  V30 3912 H 375.305 -1.49046 6.29599 0
M  V30 3913 N 375.437 -1.54477 -0.31217 0
M  V30 3914 C 376.385 -1.85395 -1.40469 0
M  V30 3915 C 377.379 -0.726749 -1.53019 0
M  V30 3916 O 378.585 -0.910582 -1.55269 0
M  V30 3917 H 374.96 -0.587845 -0.46898 0
M  V30 3918 H 376.931 -2.76736 -1.11623 0
M  V30 3919 C 375.68 -2.10811 -2.76503 0
M  V30 3920 H 375.003 -2.97014 -2.67625 0
M  V30 3921 H 376.443 -2.3639 -3.51988 0
M  V30 3922 C 374.902 -0.903165 -3.24568 0
M  V30 3923 O 375.432 -0.118085 -4.01526 0
M  V30 3924 N 373.638 -0.711634 -2.81752 0
M  V30 3925 H 373.185 -1.35171 -2.19286 0
M  V30 3926 H 373.143 0.0930473 -3.14262 0
M  V30 3927 N 376.915 0.57481 -1.46744 0
M  V30 3928 C 378.192 1.3352 -1.4294 0
M  V30 3929 C 378.572 2.10775 -0.117009 0
M  V30 3930 O 377.92 2.09966 0.901474 0
M  V30 3931 C 378.13 2.25456 -2.66403 0
M  V30 3932 C 379.478 2.87035 -3.12883 0
M  V30 3933 O 380.502 2.35766 -2.67007 0
M  V30 3934 O 379.361 3.80179 -3.92589 0
M  V30 3935 H 376.455 0.600318 -0.568812 0
M  V30 3936 H 379.001 0.595171 -1.58921 0
M  V30 3937 H 377.773 1.67851 -3.53471 0
M  V30 3938 H 377.396 3.06785 -2.52921 0
M  V30 3939 N 378.394 1.34581 0.820102 0
M  V30 3940 C 379.304 1.28471 1.96297 0
M  V30 3941 C 380.32 0.191902 1.72939 0
M  V30 3942 O 381.496 0.418879 1.96996 0
M  V30 3943 C 378.561 1.04281 3.30645 0
M  V30 3944 C 377.622 2.22745 3.66992 0
M  V30 3945 C 376.855 1.997 4.9493 0
M  V30 3946 O 377.078 0.956656 5.6232 0
M  V30 3947 O 376.012 2.86723 5.2922 0
M  V30 3948 H 379.838 2.24624 2.04396 0
M  V30 3949 H 377.423 1.14816 0.955913 0
M  V30 3950 H 379.305 0.925841 4.11104 0
M  V30 3951 H 377.98 0.111697 3.23507 0
M  V30 3952 H 376.887 2.40003 2.86966 0
M  V30 3953 H 378.22 3.14257 3.78819 0
M  V30 3954 N 379.872 -1.04064 1.18357 0
M  V30 3955 C 381.097 -1.81454 1.00445 0
M  V30 3956 C 381.522 -1.82823 -0.442423 0
M  V30 3957 O 380.88 -1.24555 -1.31741 0
M  V30 3958 C 380.928 -3.24925 1.56384 0
M  V30 3959 O 380.032 -4.04856 0.785209 0
M  V30 3960 H 379.373 -0.560604 0.355835 0
M  V30 3961 H 381.903 -1.31059 1.57114 0
M  V30 3962 H 381.913 -3.75702 1.59097 0
M  V30 3963 H 380.588 -3.23244 2.61699 0
M  V30 3964 H 379.165 -3.63537 0.830399 0
M  V30 3965 N 381.35 -0.985608 -1.22978 0
M  V30 3966 C 382.313 -0.535071 -2.22867 0
M  V30 3967 C 383.313 0.378123 -1.56291 0
M  V30 3968 O 384.503 0.171092 -1.73358 0
M  V30 3969 C 381.635 0.222702 -3.40172 0
M  V30 3970 H 382.828 -1.41835 -2.6424 0
M  V30 3971 H 380.381 -0.772042 -1.35901 0
M  V30 3972 H 381.116 1.12229 -3.04262 0
M  V30 3973 H 380.901 -0.43288 -3.89703 0
M  V30 3974 H 382.391 0.526335 -4.1427 0
M  V30 3975 N 382.828 1.3818 -0.7579 0
M  V30 3976 C 384.105 1.94106 -0.241306 0
M  V30 3977 C 384.485 1.69282 1.26122 0
M  V30 3978 O 383.833 1.03378 2.03777 0
M  V30 3979 C 384.043 3.43809 -0.59967 0
M  V30 3980 C 385.391 4.20868 -0.561717 0
M  V30 3981 O 386.415 3.5211 -0.538222 0
M  V30 3982 O 385.274 5.43451 -0.576478 0
M  V30 3983 H 382.368 0.825376 -0.0518042 0
M  V30 3984 H 384.914 1.47548 -0.838315 0
M  V30 3985 H 383.686 3.55403 -1.6372 0
M  V30 3986 H 383.309 3.97592 0.0251197 0
M  V30 3987 N 384.306 0.507319 1.49211 0
M  V30 3988 C 385.555 -0.0368315 2.01666 0
M  V30 3989 C 385.868 -1.37459 1.39156 0
M  V30 3990 O 387.074 -2.00579 1.82976 0
M  V30 3991 C 385.53 -0.116089 3.59713 0
M  V30 3992 C 385.138 1.2154 4.31198 0
M  V30 3993 C 386.882 -0.610268 4.2009 0
M  V30 3994 C 384.789 1.09796 5.81119 0
M  V30 3995 H 383.719 -0.0175376 0.753796 0
M  V30 3996 H 386.37 0.647691 1.71689 0
M  V30 3997 H 384.752 -0.8652 3.86433 0
M  V30 3998 H 385.926 1.9783 4.16173 0
M  V30 3999 H 384.241 1.64352 3.82593 0
M  V30 4000 H 386.838 -0.715742 5.29888 0
M  V30 4001 H 387.181 -1.61064 3.8388 0
M  V30 4002 H 387.714 0.0824916 3.97714 0
M  V30 4003 H 384.453 2.0728 6.21864 0
M  V30 4004 H 383.973 0.376058 5.9862 0
M  V30 4005 H 385.652 0.779281 6.4229 0
M  V30 4006 N 385.784 -1.5574 0.241426 0
M  V30 4007 C 387.03 -1.99104 -0.385406 0
M  V30 4008 C 387.363 -1.1293 -1.57988 0
M  V30 4009 O 386.638 -0.191449 -1.93555 0
M  V30 4010 C 386.921 -3.51087 -0.800616 0
M  V30 4011 C 386.774 -4.48028 0.398874 0
M  V30 4012 C 388.093 -4.08015 -1.64959 0
M  V30 4013 H 385.212 -0.723848 -0.138614 0
M  V30 4014 H 387.854 -1.86903 0.341642 0
M  V30 4015 H 386.004 -3.61615 -1.4201 0
M  V30 4016 H 387.676 -4.49487 1.03726 0
M  V30 4017 H 385.919 -4.21077 1.04293 0
M  V30 4018 H 386.59 -5.51962 0.0651056 0
M  V30 4019 H 389.066 -4.00555 -1.12672 0
M  V30 4020 H 387.942 -5.14635 -1.90898 0
M  V30 4021 H 388.203 -3.56131 -2.61961 0
M  V30 4022 N 387.262 0.0317525 -1.57568 0
M  V30 4023 C 388.192 1.03274 -2.0942 0
M  V30 4024 C 389.173 1.3788 -0.996143 0
M  V30 4025 O 390.358 1.46811 -1.27122 0
M  V30 4026 C 387.488 2.33448 -2.57137 0
M  V30 4027 C 386.442 2.13091 -3.71182 0
M  V30 4028 C 385.768 3.49001 -4.05095 0
M  V30 4029 C 387.068 1.51928 -4.99715 0
M  V30 4030 H 388.762 0.60112 -2.93303 0
M  V30 4031 H 386.308 0.287705 -1.41097 0
M  V30 4032 H 388.261 3.03802 -2.92032 0
M  V30 4033 H 386.985 2.78665 -1.70333 0
M  V30 4034 H 385.644 1.45171 -3.36632 0
M  V30 4035 H 385.292 3.91862 -3.15362 0
M  V30 4036 H 384.992 3.36207 -4.81911 0
M  V30 4037 H 386.516 4.20721 -4.42522 0
M  V30 4038 H 387.93 2.12196 -5.32584 0
M  V30 4039 H 386.327 1.49716 -5.81124 0
M  V30 4040 H 387.397 0.484811 -4.8247 0
M  V30 4041 N 388.74 1.54641 0.303973 0
M  V30 4042 C 389.989 1.7299 1.03717 0
M  V30 4043 C 390.302 0.521168 1.88529 0
M  V30 4044 O 391.508 0.586408 2.65092 0
M  V30 4045 C 389.964 3.06051 1.89369 0
M  V30 4046 C 389.572 4.34393 1.09574 0
M  V30 4047 C 391.316 3.3376 2.62306 0
M  V30 4048 C 389.223 5.58506 1.94486 0
M  V30 4049 H 388.153 0.64473 0.390947 0
M  V30 4050 H 390.804 1.81124 0.294328 0
M  V30 4051 H 389.186 2.91874 2.67629 0
M  V30 4052 H 390.36 4.59396 0.359485 0
M  V30 4053 H 388.675 4.13597 0.482324 0
M  V30 4054 H 391.272 4.23687 3.26181 0
M  V30 4055 H 391.615 2.52503 3.3098 0
M  V30 4056 H 392.148 3.48894 1.91097 0
M  V30 4057 H 388.887 6.42422 1.30287 0
M  V30 4058 H 388.407 5.37694 2.65792 0
M  V30 4059 H 390.086 5.95651 2.52605 0
M  V30 4060 N 390.218 -0.567019 1.47046 0
M  V30 4061 C 391.466 -1.322 1.52864 0
M  V30 4062 C 391.787 -1.94088 0.188388 0
M  V30 4063 O 391.057 -1.7941 -0.786693 0
M  V30 4064 H 389.637 -0.490894 0.563056 0
M  V30 4065 H 392.299 -0.662879 1.83281 0
M  V30 4066 H 391.395 -2.12062 2.2899 0
M  V30 4067 N 391.696 -1.35014 -0.812953 0
M  V30 4068 C 392.628 -1.23262 -1.93233 0
M  V30 4069 C 393.641 -0.157371 -1.62038 0
M  V30 4070 O 394.83 -0.410096 -1.73725 0
M  V30 4071 C 391.93 -0.87392 -3.27438 0
M  V30 4072 C 391.103 -2.04622 -3.86586 0
M  V30 4073 C 390.162 -1.66432 -4.99186 0
M  V30 4074 O 389.188 -2.38222 -5.16951 0
M  V30 4075 N 390.39 -0.584248 -5.77552 0
M  V30 4076 H 393.155 -2.19699 -2.03844 0
M  V30 4077 H 390.716 -1.281 -0.99005 0
M  V30 4078 H 392.708 -0.600039 -4.00227 0
M  V30 4079 H 391.278 0.00057392 -3.126 0
M  V30 4080 H 390.498 -2.48427 -3.06068 0
M  V30 4081 H 391.786 -2.82999 -4.22835 0
M  V30 4082 H 391.184 0.0123526 -5.65699 0
M  V30 4083 H 389.741 -0.37013 -6.50748 0
M  V30 4084 N 393.175 1.03435 -1.18907 0
M  V30 4085 C 394.423 1.76394 -0.986382 0
M  V30 4086 C 394.744 1.88883 0.484567 0
M  V30 4087 O 394.014 1.41843 1.3512 0
M  V30 4088 H 392.594 0.65344 -0.361975 0
M  V30 4089 H 395.256 1.248 -1.49703 0
M  V30 4090 H 394.352 2.77424 -1.42978 0
M  V30 4091 N 394.653 0.992116 1.22453 0
M  V30 4092 C 395.616 0.546883 2.2258 0
M  V30 4093 C 396.616 -0.369829 1.56489 0
M  V30 4094 O 397.806 -0.161896 1.73446 0
M  V30 4095 C 394.938 -0.204659 3.40285 0
M  V30 4096 H 396.131 1.43234 2.63484 0
M  V30 4097 H 393.684 0.779239 1.3549 0
M  V30 4098 H 394.419 -1.10614 3.04853 0
M  V30 4099 H 394.204 0.45354 3.89468 0
M  V30 4100 H 395.694 -0.504358 4.14543 0
M  V30 4101 N 396.131 -1.37776 0.765217 0
M  V30 4102 C 397.081 -2.2768 0.12075 0
M  V30 4103 C 398.065 -1.45778 -0.680988 0
M  V30 4104 O 399.257 -1.684 -0.545033 0
M  V30 4105 C 396.386 -3.34722 -0.762626 0
M  V30 4106 C 395.472 -4.24074 0.0465881 0
M  V30 4107 N 395.863 -4.93939 1.08892 0
M  V30 4108 C 394.161 -4.45643 -0.178418 0
M  V30 4109 C 394.862 -5.59845 1.57951 0
M  V30 4110 N 393.838 -5.36218 0.892797 0
M  V30 4111 H 397.64 -2.79166 0.918889 0
M  V30 4112 H 395.154 -1.50816 0.602353 0
M  V30 4113 H 397.151 -3.98031 -1.24005 0
M  V30 4114 H 395.811 -2.84793 -1.55959 0
M  V30 4115 H 396.822 -4.96572 1.47095 0
M  V30 4116 H 393.499 -4.06599 -0.9478 0
M  V30 4117 H 394.889 -6.25703 2.44838 0
M  V30 4118 N 397.609 -0.515225 -1.4894 0
M  V30 4119 C 398.572 0.244681 -2.2789 0
M  V30 4120 C 399.572 0.881166 -1.34507 0
M  V30 4121 O 400.762 0.743497 -1.57537 0
M  V30 4122 C 397.894 1.35247 -3.12923 0
M  V30 4123 H 399.087 -0.448289 -2.96531 0
M  V30 4124 H 396.64 -0.270656 -1.53939 0
M  V30 4125 H 397.375 2.07916 -2.48881 0
M  V30 4126 H 397.16 0.901374 -3.81599 0
M  V30 4127 H 398.65 1.88737 -3.72516 0
M  V30 4128 N 399.087 1.5561 -0.249682 0
M  V30 4129 C 400.312 2.03865 0.381305 0
M  V30 4130 C 400.737 1.12769 1.50548 0
M  V30 4131 O 400.095 0.121189 1.80895 0
M  V30 4132 C 400.143 3.50101 0.863816 0
M  V30 4133 O 399.247 3.62132 1.97318 0
M  V30 4134 H 398.588 0.658827 0.0827194 0
M  V30 4135 H 401.118 2.01105 -0.376552 0
M  V30 4136 H 401.128 3.90975 1.1663 0
M  V30 4137 H 399.803 4.1588 0.0411816 0
M  V30 4138 H 398.38 3.33155 1.67517 0
M  V30 4139 N 400.565 -0.0233959 1.57583 0
M  V30 4140 C 401.528 -1.00693 2.05897 0
M  V30 4141 C 402.528 -1.28693 0.964092 0
M  V30 4142 O 403.718 -1.23602 1.22753 0
M  V30 4143 C 400.85 -2.33825 2.4807 0
M  V30 4144 H 402.043 -0.589476 2.9405 0
M  V30 4145 H 399.596 -0.270354 1.53944 0
M  V30 4146 H 400.331 -2.80307 1.6309 0
M  V30 4147 H 400.116 -2.1483 3.2801 0
M  V30 4148 H 401.606 -3.04426 2.85857 0
M  V30 4149 N 402.043 -1.548 -0.295768 0
M  V30 4150 C 403.454 -1.65274 -0.868411 0
M  V30 4151 C 403.805 -0.56481 -1.87894 0
M  V30 4152 O 402.93 0.29767 -2.14343 0
M  V30 4153 C 403.525 -2.99603 -1.58188 0
M  V30 4154 C 402.084 -3.12181 -2.10286 0
M  V30 4155 C 401.231 -2.6098 -0.93727 0
M  V30 4156 H 404.182 -1.58534 -0.0726422 0
M  V30 4157 H 404.203 -2.91319 -2.44772 0
M  V30 4158 H 403.715 -3.78764 -0.846151 0
M  V30 4159 H 401.816 -2.3775 -2.8689 0
M  V30 4160 H 401.929 -4.18415 -2.33379 0
M  V30 4161 H 400.293 -2.17564 -1.32431 0
M  V30 4162 H 401.076 -3.42623 -0.215414 0
M  V30 4163 N 403.521 0.559213 -1.47345 0
M  V30 4164 C 404.453 1.68161 -1.55738 0
M  V30 4165 C 405.466 1.56636 -0.443744 0
M  V30 4166 O 406.655 1.6363 -0.713258 0
M  V30 4167 C 403.755 3.06611 -1.4437 0
M  V30 4168 C 402.928 3.4391 -2.70268 0
M  V30 4169 C 401.987 4.61515 -2.52765 0
M  V30 4170 O 401.013 4.66197 -3.26572 0
M  V30 4171 N 402.215 5.57883 -1.6046 0
M  V30 4172 H 404.98 1.61408 -2.52522 0
M  V30 4173 H 402.541 0.7458 -1.43699 0
M  V30 4174 H 404.533 3.83117 -1.30398 0
M  V30 4175 H 403.103 3.07602 -0.556766 0
M  V30 4176 H 402.323 2.56873 -2.99015 0
M  V30 4177 H 403.611 3.65605 -3.53851 0
M  V30 4178 H 403.009 5.56855 -0.996422 0
M  V30 4179 H 401.566 6.33723 -1.52441 0
M  V30 4180 N 404.999 1.35443 0.805782 0
M  V30 4181 C 406.245 1.28952 1.56522 0
M  V30 4182 C 406.578 -0.135597 1.93726 0
M  V30 4183 O 405.853 -1.08516 1.61414 0
M  V30 4184 C 406.136 2.19678 2.85331 0
M  V30 4185 C 405.989 3.7081 2.54598 0
M  V30 4186 C 407.308 2.09495 3.8704 0
M  V30 4187 H 404.427 0.469764 0.567883 0
M  V30 4188 H 407.069 1.65851 0.927001 0
M  V30 4189 H 405.219 1.8834 3.39795 0
M  V30 4190 H 406.891 4.12593 2.06312 0
M  V30 4191 H 405.134 3.91051 1.8778 0
M  V30 4192 H 405.805 4.29679 3.46525 0
M  V30 4193 H 408.281 2.37045 3.41978 0
M  V30 4194 H 407.157 2.75173 4.74943 0
M  V30 4195 H 407.418 1.07714 4.28777 0
M  V30 4196 N 406.477 -1.02803 1.19454 0
M  V30 4197 C 407.725 -1.75869 0.995722 0
M  V30 4198 C 408.046 -1.89138 -0.474543 0
M  V30 4199 O 407.316 -1.42558 -1.34366 0
M  V30 4200 H 405.896 -0.651511 0.365435 0
M  V30 4201 H 408.558 -1.24004 1.50363 0
M  V30 4202 H 407.654 -2.76661 1.44447 0
M  V30 4203 N 407.956 -0.998596 -1.21925 0
M  V30 4204 C 408.903 -0.553621 -2.24062 0
M  V30 4205 C 409.873 0.416999 -1.6078 0
M  V30 4206 O 411.058 0.320482 -1.88089 0
M  V30 4207 C 408.198 0.119959 -3.44891 0
M  V30 4208 C 407.311 -0.893077 -4.22668 0
M  V30 4209 C 406.446 -0.192424 -5.30851 0
M  V30 4210 C 405.485 -1.19344 -6.00353 0
M  V30 4211 N 404.622 -0.520707 -7.00166 0
M  V30 4212 H 409.462 -1.4293 -2.61486 0
M  V30 4213 H 406.999 -0.715838 -1.28507 0
M  V30 4214 H 408.957 0.527459 -4.13852 0
M  V30 4215 H 407.587 0.959389 -3.08214 0
M  V30 4216 H 406.639 -1.41886 -3.52948 0
M  V30 4217 H 407.951 -1.65512 -4.70539 0
M  V30 4218 H 407.105 0.271515 -6.06092 0
M  V30 4219 H 405.844 0.602075 -4.83969 0
M  V30 4220 H 404.849 -1.66795 -5.23889 0
M  V30 4221 H 406.074 -1.98891 -6.49322 0
M  V30 4222 H 404.02 0.254252 -6.55507 0
M  V30 4223 H 403.937 -1.2211 -7.46073 0
M  V30 4224 H 405.205 -0.0797596 -7.79459 0
M  V30 4225 N 409.434 1.37368 -0.772513 0
M  V30 4226 C 410.382 2.32134 -0.147111 0
M  V30 4227 C 411.376 1.54972 0.684106 0
M  V30 4228 O 412.582 1.70363 0.581083 0
M  V30 4229 H 408.957 0.751449 -0.028786 0
M  V30 4230 H 410.928 2.82464 -0.962112 0
M  V30 4231 C 409.677 3.40226 0.71703 0
M  V30 4232 H 409 3.99706 0.0867951 0
M  V30 4233 H 410.44 4.08897 1.12159 0
M  V30 4234 C 408.899 2.80372 1.86797 0
M  V30 4235 O 409.429 2.71183 2.96349 0
M  V30 4236 N 407.635 2.37904 1.66883 0
M  V30 4237 H 407.182 2.45578 0.777759 0
M  V30 4238 H 407.14 1.98202 2.44056 0
M  V30 4239 N 410.912 0.523116 1.48665 0
M  V30 4240 C 412.137 -0.0117284 2.07397 0
M  V30 4241 C 412.562 -1.28031 1.37803 0
M  V30 4242 O 411.92 -1.75836 0.441762 0
M  V30 4243 C 411.968 -0.225786 3.59892 0
M  V30 4244 O 411.072 -1.29592 3.91509 0
M  V30 4245 H 410.413 0.0360673 0.66302 0
M  V30 4246 H 412.943 0.729066 1.9117 0
M  V30 4247 H 412.953 -0.450552 4.05505 0
M  V30 4248 H 411.628 0.700944 4.09951 0
M  V30 4249 H 410.205 -1.05436 3.57684 0
M  V30 4250 N 412.39 -1.55475 0.257931 0
M  V30 4251 C 413.353 -2.20551 -0.623706 0
M  V30 4252 C 414.353 -1.17809 -1.09443 0
M  V30 4253 O 415.543 -1.42823 -0.997362 0
M  V30 4254 C 412.675 -2.85784 -1.8585 0
M  V30 4255 H 413.868 -2.99848 -0.0557743 0
M  V30 4256 H 411.421 -1.56298 0.0084422 0
M  V30 4257 H 412.156 -2.10453 -2.46739 0
M  V30 4258 H 411.941 -3.61057 -1.52907 0
M  V30 4259 H 413.431 -3.35553 -2.48584 0
M  V30 4260 N 413.868 0.0150385 -1.57593 0
M  V30 4261 C 415.096 0.714395 -1.94175 0
M  V30 4262 C 415.511 1.68135 -0.858841 0
M  V30 4263 O 414.868 1.81766 0.163567 0
M  V30 4264 C 414.919 1.45933 -3.30735 0
M  V30 4265 O 414.64 0.531167 -4.34868 0
M  V30 4266 C 416.141 2.25456 -3.81686 0
M  V30 4267 H 413.361 0.199923 -0.640525 0
M  V30 4268 H 415.905 -0.0316096 -2.04476 0
M  V30 4269 H 414.06 2.15709 -3.21789 0
M  V30 4270 H 414.474 1.05509 -5.13778 0
M  V30 4271 H 415.948 2.731 -4.79709 0
M  V30 4272 H 416.425 3.07485 -3.13607 0
M  V30 4273 H 417.031 1.60727 -3.9376 0
M  V30 4274 N 415.346 1.54954 0.287554 0
M  V30 4275 C 416.593 1.74873 1.02106 0
M  V30 4276 C 416.921 0.541829 1.86801 0
M  V30 4277 O 416.176 -0.475992 1.89823 0
M  V30 4278 C 416.475 2.99833 1.94512 0
M  V30 4279 C 416.141 4.33029 1.25686 0
M  V30 4280 C 414.803 4.69233 1.06649 0
M  V30 4281 C 417.155 5.15542 0.765913 0
M  V30 4282 C 414.483 5.85518 0.372222 0
M  V30 4283 C 416.835 6.32542 0.0853101 0
M  V30 4284 C 415.499 6.67398 -0.1169 0
M  V30 4285 H 414.769 0.639906 0.373632 0
M  V30 4286 H 417.416 1.89219 0.294665 0
M  V30 4287 H 415.721 2.80325 2.73725 0
M  V30 4288 H 417.418 3.1244 2.51361 0
M  V30 4289 H 414.008 4.04564 1.41512 0
M  V30 4290 H 418.192 4.88059 0.90066 0
M  V30 4291 H 413.448 6.11057 0.204695 0
M  V30 4292 H 417.622 6.95741 -0.302936 0
M  V30 4293 H 415.249 7.57357 -0.656859 0
M  V30 4294 N 416.824 -0.551391 1.4764 0
M  V30 4295 C 417.754 -1.66757 1.63445 0
M  V30 4296 C 418.735 -1.63077 0.483742 0
M  V30 4297 O 419.92 -1.80607 0.71377 0
M  V30 4298 C 417.05 -3.05387 1.65396 0
M  V30 4299 C 416.004 -3.23918 2.79752 0
M  V30 4300 C 415.33 -4.63393 2.66779 0
M  V30 4301 C 416.63 -3.08735 4.21284 0
M  V30 4302 H 418.324 -1.53786 2.56886 0
M  V30 4303 H 415.87 -0.738415 1.23626 0
M  V30 4304 H 417.823 -3.83325 1.75043 0
M  V30 4305 H 416.547 -3.19332 0.685195 0
M  V30 4306 H 415.206 -2.48391 2.69625 0
M  V30 4307 H 414.854 -4.74144 1.67918 0
M  V30 4308 H 414.554 -4.7674 3.43501 0
M  V30 4309 H 416.078 -5.43458 2.78364 0
M  V30 4310 H 417.492 -3.76484 4.32357 0
M  V30 4311 H 415.889 -3.33588 4.98838 0
M  V30 4312 H 416.959 -2.0541 4.39243 0
M  V30 4313 N 418.302 -1.35869 -0.798587 0
M  V30 4314 C 419.265 -1.29307 -1.89242 0
M  V30 4315 C 420.265 -0.202747 -1.59517 0
M  V30 4316 O 421.455 -0.456957 -1.681 0
M  V30 4317 C 418.587 -1.00229 -3.25833 0
M  V30 4318 H 419.78 -2.26576 -1.96478 0
M  V30 4319 H 417.333 -1.20509 -0.995358 0
M  V30 4320 H 418.068 -0.033801 -3.24282 0
M  V30 4321 H 417.853 -1.79121 -3.48795 0
M  V30 4322 H 419.343 -0.98219 -4.05885 0
M  V30 4323 N 419.78 1.02168 -1.19998 0
M  V30 4324 C 420.71 2.12488 -0.96804 0
M  V30 4325 C 421.691 1.69799 0.101185 0
M  V30 4326 O 422.876 1.94121 -0.0552993 0
M  V30 4327 C 420.006 3.43479 -0.513776 0
M  V30 4328 C 418.96 3.99884 -1.52566 0
M  V30 4329 C 418.286 5.26582 -0.928214 0
M  V30 4330 C 419.586 4.33861 -2.90795 0
M  V30 4331 H 421.28 2.32149 -1.89069 0
M  V30 4332 H 418.826 1.11564 -0.910468 0
M  V30 4333 H 420.779 4.20036 -0.338774 0
M  V30 4334 H 419.503 3.23561 0.444493 0
M  V30 4335 H 418.162 3.25429 -1.68794 0
M  V30 4336 H 417.81 5.02986 0.0378289 0
M  V30 4337 H 417.51 5.65284 -1.60397 0
M  V30 4338 H 419.034 6.05799 -0.764167 0
M  V30 4339 H 420.448 5.01327 -2.78109 0
M  V30 4340 H 418.845 4.83664 -3.55231 0
M  V30 4341 H 419.915 3.42848 -3.42904 0
M  V30 4342 N 421.258 1.00505 1.21394 0
M  V30 4343 C 422.505 0.687774 1.90462 0
M  V30 4344 C 422.833 -0.78147 1.7811 0
M  V30 4345 O 422.088 -1.58208 1.1519 0
M  V30 4346 C 422.387 1.0546 3.41486 0
M  V30 4347 C 422.053 2.51812 3.74034 0
M  V30 4348 C 420.715 2.91804 3.82628 0
M  V30 4349 C 423.067 3.46614 3.8924 0
M  V30 4350 C 420.395 4.2556 4.03876 0
M  V30 4351 C 422.747 4.80044 4.11995 0
M  V30 4352 C 421.411 5.19759 4.18816 0
M  V30 4353 H 420.681 0.251674 0.696951 0
M  V30 4354 H 423.328 1.26349 1.43903 0
M  V30 4355 H 421.633 0.397133 3.89782 0
M  V30 4356 H 423.33 0.786976 3.93202 0
M  V30 4357 H 419.92 2.1982 3.67936 0
M  V30 4358 H 424.104 3.16883 3.81967 0
M  V30 4359 H 419.36 4.55901 4.07387 0
M  V30 4360 H 423.534 5.53439 4.22704 0
M  V30 4361 H 421.161 6.23418 4.35033 0
M  V30 4362 N 422.737 -1.36956 0.779787 0
M  V30 4363 C 423.667 -2.32761 0.185651 0
M  V30 4364 C 424.648 -1.56177 -0.673989 0
M  V30 4365 O 425.833 -1.84378 -0.609797 0
M  V30 4366 C 422.963 -3.40418 -0.687964 0
M  V30 4367 C 421.917 -4.27941 0.0710102 0
M  V30 4368 C 421.243 -5.26681 -0.922573 0
M  V30 4369 C 422.543 -5.07006 1.25467 0
M  V30 4370 H 424.237 -2.82698 0.986008 0
M  V30 4371 H 421.783 -1.3592 0.475592 0
M  V30 4372 H 423.736 -4.06423 -1.11348 0
M  V30 4373 H 422.46 -2.89025 -1.52093 0
M  V30 4374 H 421.119 -3.63478 0.47739 0
M  V30 4375 H 420.767 -4.71565 -1.7503 0
M  V30 4376 H 420.467 -5.86103 -0.419237 0
M  V30 4377 H 421.991 -5.9556 -1.34686 0
M  V30 4378 H 423.405 -5.66105 0.905401 0
M  V30 4379 H 421.802 -5.75793 1.69063 0
M  V30 4380 H 422.872 -4.3921 2.05481 0
M  V30 4381 N 424.215 -0.530993 -1.48385 0
M  V30 4382 C 425.492 0.0671788 -1.95485 0
M  V30 4383 C 425.872 1.51191 -1.47324 0
M  V30 4384 O 425.22 2.17507 -0.700202 0
M  V30 4385 C 425.43 -0.0511206 -3.48963 0
M  V30 4386 C 426.778 0.107632 -4.24464 0
M  V30 4387 O 427.802 0.0226248 -3.56193 0
M  V30 4388 O 426.661 0.285972 -5.45751 0
M  V30 4389 H 423.755 0.0787365 -0.823243 0
M  V30 4390 H 426.301 -0.595662 -1.58902 0
M  V30 4391 H 425.073 -1.05747 -3.7674 0
M  V30 4392 H 424.696 0.650525 -3.92242 0
M  V30 4393 N 425.693 1.55336 -0.266172 0
M  V30 4394 C 426.625 2.19544 0.658247 0
M  V30 4395 C 427.638 1.17746 1.12427 0
M  V30 4396 O 428.827 1.44517 1.04772 0
M  V30 4397 C 425.927 2.80032 1.9088 0
M  V30 4398 C 425.1 4.07436 1.59106 0
M  V30 4399 C 424.159 4.52056 2.69317 0
M  V30 4400 O 423.185 5.18023 2.35883 0
M  V30 4401 N 424.387 4.21448 3.99201 0
M  V30 4402 H 427.152 2.99503 0.108754 0
M  V30 4403 H 424.713 1.61667 -0.0869059 0
M  V30 4404 H 426.705 3.06831 2.63888 0
M  V30 4405 H 425.275 2.04119 2.36758 0
M  V30 4406 H 424.495 3.88021 0.695243 0
M  V30 4407 H 425.783 4.90462 1.35367 0
M  V30 4408 H 425.181 3.68528 4.29189 0
M  V30 4409 H 423.738 4.53039 4.68614 0
M  V30 4410 N 427.171 -0.0066808 1.57599 0
M  V30 4411 C 428.401 -0.703066 1.94269 0
M  V30 4412 C 428.809 -1.68206 0.866222 0
M  V30 4413 O 428.152 -1.82966 -0.164087 0
M  V30 4414 C 428.214 -1.49616 3.26887 0
M  V30 4415 C 427.878 -0.679494 4.5192 0
M  V30 4416 C 428.875 0.0299508 5.19891 0
M  V30 4417 C 426.56 -0.627433 4.98366 0
M  V30 4418 C 428.554 0.780514 6.32603 0
M  V30 4419 C 426.241 0.126861 6.10968 0
M  V30 4420 C 427.239 0.829574 6.77943 0
M  V30 4421 O 426.927 1.57157 7.88389 0
M  V30 4422 H 426.659 -0.201217 0.645359 0
M  V30 4423 H 429.213 0.0385326 2.05364 0
M  V30 4424 H 427.443 -2.28209 3.12182 0
M  V30 4425 H 429.132 -2.07726 3.48719 0
M  V30 4426 H 429.898 -0.00115963 4.85 0
M  V30 4427 H 425.777 -1.16392 4.46065 0
M  V30 4428 H 429.321 1.32954 6.84813 0
M  V30 4429 H 425.218 0.159815 6.45302 0
M  V30 4430 H 425.986 1.48758 8.04868 0
M  V30 4431 N 428.649 -1.55105 -0.279332 0
M  V30 4432 C 429.612 -1.86783 -1.32834 0
M  V30 4433 C 430.612 -0.74199 -1.42657 0
M  V30 4434 O 431.802 -1.0102 -1.41918 0
M  V30 4435 C 428.934 -2.06746 -2.71052 0
M  V30 4436 H 430.127 -2.8055 -1.05979 0
M  V30 4437 H 427.68 -1.47499 -0.517087 0
M  V30 4438 H 428.415 -1.15339 -3.03097 0
M  V30 4439 H 428.2 -2.88711 -2.65309 0
M  V30 4440 H 429.69 -2.32549 -3.46858 0
M  V30 4441 N 430.127 0.543554 -1.4793 0
M  V30 4442 C 431.374 1.30008 -1.55255 0
M  V30 4443 C 431.702 1.93245 -0.220612 0
M  V30 4444 O 430.957 1.79141 0.787843 0
M  V30 4445 C 431.256 2.42078 -2.62932 0
M  V30 4446 C 430.922 1.96583 -4.0579 0
M  V30 4447 C 429.584 1.83893 -4.44676 0
M  V30 4448 C 431.936 1.62034 -4.95373 0
M  V30 4449 C 429.264 1.34969 -5.70964 0
M  V30 4450 C 431.616 1.14577 -6.22137 0
M  V30 4451 C 430.28 1.00493 -6.59892 0
M  V30 4452 H 429.55 0.475735 -0.568117 0
M  V30 4453 H 432.197 0.608075 -1.81589 0
M  V30 4454 H 430.502 3.16892 -2.30406 0
M  V30 4455 H 432.199 3.00236 -2.65818 0
M  V30 4456 H 428.789 2.07407 -3.75074 0
M  V30 4457 H 432.973 1.70705 -4.66019 0
M  V30 4458 H 428.229 1.2274 -5.98953 0
M  V30 4459 H 432.403 0.869109 -6.90955 0
M  V30 4460 H 430.03 0.623624 -7.57638 0
M  V30 4461 N 431.605 1.3629 0.791371 0
M  V30 4462 C 432.568 1.30309 1.88553 0
M  V30 4463 C 433.568 0.211204 1.59407 0
M  V30 4464 O 434.758 0.465865 1.67855 0
M  V30 4465 C 431.89 1.01956 3.25297 0
M  V30 4466 H 433.083 2.27614 1.95273 0
M  V30 4467 H 430.636 1.21035 0.988953 0
M  V30 4468 H 431.371 0.050998 3.2426 0
M  V30 4469 H 431.156 1.80968 3.4784 0
M  V30 4470 H 432.646 1.0037 4.05359 0
M  V30 4471 N 433.083 -1.0153 1.20538 0
M  V30 4472 C 434.331 -1.74803 1.01432 0
M  V30 4473 C 434.652 -1.8963 -0.454456 0
M  V30 4474 O 433.922 -1.43975 -1.32846 0
M  V30 4475 H 432.502 -0.647598 0.372324 0
M  V30 4476 H 435.164 -1.22402 1.5167 0
M  V30 4477 H 434.26 -2.75114 1.47373 0
M  V30 4478 N 434.561 -1.01147 -1.20859 0
M  V30 4479 C 435.977 -0.725422 -1.42161 0
M  V30 4480 C 436.177 0.696919 -1.89064 0
M  V30 4481 O 435.233 1.46539 -2.05627 0
M  V30 4482 C 436.546 -1.74678 -2.44761 0
M  V30 4483 C 438.094 -1.76433 -2.58535 0
M  V30 4484 C 438.569 -2.77481 -3.64374 0
M  V30 4485 N 440.06 -2.76189 -3.71852 0
M  V30 4486 C 440.795 -3.51035 -4.53389 0
M  V30 4487 N 440.291 -4.35541 -5.38773 0
M  V30 4488 N 442.084 -3.39655 -4.47873 0
M  V30 4489 H 434.235 -1.92979 -0.887282 0
M  V30 4490 H 436.498 -0.833327 -0.451962 0
M  V30 4491 H 436.204 -2.76551 -2.17285 0
M  V30 4492 H 436.078 -1.55472 -3.43669 0
M  V30 4493 H 438.465 -0.75248 -2.85345 0
M  V30 4494 H 438.546 -1.99712 -1.5984 0
M  V30 4495 H 438.19 -3.78827 -3.38308 0
M  V30 4496 H 438.12 -2.51466 -4.6268 0
M  V30 4497 H 440.611 -2.14885 -3.10858 0
M  V30 4498 H 440.924 -4.89432 -5.98061 0
M  V30 4499 H 439.269 -4.39621 -5.38292 0
M  V30 4500 H 442.46 -2.73063 -3.80203 0
M  V30 4501 H 442.633 -3.9824 -5.11184 0
M  V30 4502 N 436.039 1.36541 -0.78704 0
M  V30 4503 C 437.316 1.9355 -0.282424 0
M  V30 4504 C 437.696 1.71919 1.22503 0
M  V30 4505 O 437.044 1.07677 2.01539 0
M  V30 4506 C 437.254 3.4246 -0.672462 0
M  V30 4507 C 438.602 4.19582 -0.650863 0
M  V30 4508 O 439.626 3.50889 -0.612789 0
M  V30 4509 O 438.485 5.42106 -0.691623 0
M  V30 4510 H 435.579 0.824091 -0.0693 0
M  V30 4511 H 438.125 1.45736 -0.869423 0
M  V30 4512 H 436.897 3.51851 -1.71221 0
M  V30 4513 H 436.52 3.97556 -0.0592211 0
M  V30 4514 N 437.518 0.538854 1.48102 0
M  V30 4515 C 438.465 -0.219042 2.29758 0
M  V30 4516 C 439.435 -0.925562 1.37922 0
M  V30 4517 O 440.62 -0.924855 1.66886 0
M  V30 4518 C 437.76 -1.25452 3.2149 0
M  V30 4519 C 436.873 -0.555943 4.28408 0
M  V30 4520 C 436.008 -1.57512 5.0731 0
M  V30 4521 C 435.047 -0.860498 6.06021 0
M  V30 4522 N 434.184 -1.82564 6.77949 0
M  V30 4523 H 439.024 0.483449 2.94052 0
M  V30 4524 H 436.561 0.250247 1.44956 0
M  V30 4525 H 438.519 -1.86727 3.7308 0
M  V30 4526 H 437.149 -1.92528 2.591 0
M  V30 4527 H 436.201 0.170938 3.80016 0
M  V30 4528 H 437.513 0.00474616 4.988 0
M  V30 4529 H 436.667 -2.26191 5.62959 0
M  V30 4530 H 435.406 -2.16972 4.36778 0
M  V30 4531 H 434.411 -0.159686 5.49568 0
M  V30 4532 H 435.636 -0.271897 6.78555 0
M  V30 4533 H 433.582 -2.40915 6.10161 0
M  V30 4534 H 433.499 -1.31662 7.44447 0
M  V30 4535 H 434.767 -2.50414 7.38182 0
M  V30 4536 N 438.996 -1.55193 0.274407 0
M  V30 4537 C 439.944 -2.23924 -0.629362 0
M  V30 4538 C 440.938 -1.23602 -1.1584 0
M  V30 4539 O 442.144 -1.41535 -1.11211 0
M  V30 4540 H 438.519 -0.718637 -0.221507 0
M  V30 4541 H 440.49 -2.98388 -0.0268322 0
M  V30 4542 C 439.239 -2.97329 -1.80252 0
M  V30 4543 H 438.562 -3.74313 -1.40462 0
M  V30 4544 H 440.002 -3.48743 -2.41152 0
M  V30 4545 C 438.461 -2.0276 -2.69054 0
M  V30 4546 O 438.991 -1.57836 -3.69392 0
M  V30 4547 N 437.197 -1.69275 -2.36208 0
M  V30 4548 H 436.744 -2.06004 -1.54661 0
M  V30 4549 H 436.702 -1.06271 -2.95895 0
M  V30 4550 N 440.474 -0.00167713 -1.576 0
M  V30 4551 C 441.721 0.68282 -1.90641 0
M  V30 4552 C 442.049 1.73686 -0.875415 0
M  V30 4553 O 441.304 1.95334 0.119575 0
M  V30 4554 C 441.603 1.36189 -3.30435 0
M  V30 4555 C 441.269 0.440887 -4.48739 0
M  V30 4556 C 439.931 0.187312 -4.80835 0
M  V30 4557 C 442.283 -0.193134 -5.20842 0
M  V30 4558 C 439.611 -0.70855 -5.82406 0
M  V30 4559 C 441.963 -1.07688 -6.23367 0
M  V30 4560 C 440.627 -1.33962 -6.53919 0
M  V30 4561 H 439.897 0.249862 -0.697603 0
M  V30 4562 H 442.544 -0.0575642 -1.91413 0
M  V30 4563 H 440.849 2.17636 -3.25794 0
M  V30 4564 H 442.546 1.89759 -3.5326 0
M  V30 4565 H 439.136 0.648694 -4.23663 0
M  V30 4566 H 443.32 -0.0102445 -4.96299 0
M  V30 4567 H 438.576 -0.920097 -6.04437 0
M  V30 4568 H 442.75 -1.57451 -6.78367 0
M  V30 4569 H 440.377 -2.03549 -7.32442 0
M  V30 4570 N 441.952 1.55251 0.271103 0
M  V30 4571 C 442.882 1.9127 1.33933 0
M  V30 4572 C 443.863 0.77478 1.5143 0
M  V30 4573 O 445.048 1.03307 1.64442 0
M  V30 4574 C 442.178 2.18627 2.69851 0
M  V30 4575 C 441.132 3.34442 2.67081 0
M  V30 4576 C 440.458 3.47284 4.06569 0
M  V30 4577 C 441.758 4.70784 2.26185 0
M  V30 4578 H 443.452 2.80744 1.04035 0
M  V30 4579 H 440.998 1.35077 0.499017 0
M  V30 4580 H 442.951 2.42413 3.44694 0
M  V30 4581 H 441.675 1.25955 3.01335 0
M  V30 4582 H 440.334 3.10627 1.94695 0
M  V30 4583 H 439.982 2.52074 4.35279 0
M  V30 4584 H 439.682 4.25152 4.0561 0
M  V30 4585 H 441.206 3.73363 4.83148 0
M  V30 4586 H 442.62 4.94102 2.90751 0
M  V30 4587 H 441.017 5.51582 2.36384 0
M  V30 4588 H 442.087 4.69478 1.21319 0
M  V30 4589 N 443.43 -0.535701 1.48216 0
M  V30 4590 C 444.38 -1.63688 1.58714 0
M  V30 4591 C 445.364 -1.54635 0.444615 0
M  V30 4592 O 446.556 -1.62753 0.695742 0
M  V30 4593 C 443.685 -3.02423 1.62466 0
M  V30 4594 C 442.771 -3.16601 2.82178 0
M  V30 4595 N 443.162 -3.00771 4.06658 0
M  V30 4596 C 441.46 -3.47645 2.79391 0
M  V30 4597 C 442.161 -3.18213 4.86945 0
M  V30 4598 N 441.137 -3.45528 4.19656 0
M  V30 4599 H 444.939 -1.5005 2.5271 0
M  V30 4600 H 442.453 -0.741018 1.44508 0
M  V30 4601 H 444.45 -3.81517 1.6808 0
M  V30 4602 H 443.11 -3.17157 0.695826 0
M  V30 4603 H 444.121 -2.77652 4.37184 0
M  V30 4604 H 440.798 -3.68771 1.95739 0
M  V30 4605 H 442.188 -3.1076 5.95716 0
M  V30 4606 N 444.908 -1.36708 -0.784132 0
M  V30 4607 C 446.155 -1.31231 -1.54222 0
M  V30 4608 C 446.483 0.106864 -1.94206 0
M  V30 4609 O 445.738 1.07734 -1.63376 0
M  V30 4610 C 446.037 -2.18571 -2.82774 0
M  V30 4611 C 445.703 -3.67039 -2.61903 0
M  V30 4612 C 444.365 -4.07503 -2.55919 0
M  V30 4613 C 446.717 -4.61149 -2.4288 0
M  V30 4614 C 444.045 -5.40211 -2.28886 0
M  V30 4615 C 446.397 -5.94081 -2.17373 0
M  V30 4616 C 445.061 -6.33664 -2.09825 0
M  V30 4617 H 444.331 -0.48021 -0.56434 0
M  V30 4618 H 446.978 -1.68807 -0.904233 0
M  V30 4619 H 445.283 -1.73949 -3.51068 0
M  V30 4620 H 446.98 -2.11655 -3.40592 0
M  V30 4621 H 443.57 -3.34941 -2.67418 0
M  V30 4622 H 447.754 -4.30756 -2.46501 0
M  V30 4623 H 443.01 -5.69855 -2.21529 0
M  V30 4624 H 447.184 -6.66566 -2.01649 0
M  V30 4625 H 444.811 -7.36423 -1.88641 0
M  V30 4626 N 446.386 1.0089 -1.21074 0
M  V30 4627 C 447.316 2.1145 -0.990523 0
M  V30 4628 C 448.297 1.69897 0.0831699 0
M  V30 4629 O 449.482 1.94052 -0.0758853 0
M  V30 4630 C 446.612 3.42914 -0.550177 0
M  V30 4631 C 445.566 3.98244 -1.56799 0
M  V30 4632 C 444.892 5.25568 -0.984013 0
M  V30 4633 C 446.192 4.30752 -2.95381 0
M  V30 4634 H 447.886 2.3013 -1.91521 0
M  V30 4635 H 445.432 1.10592 -0.92225 0
M  V30 4636 H 447.385 4.19653 -0.383305 0
M  V30 4637 H 446.109 3.24014 0.41015 0
M  V30 4638 H 444.768 3.23621 -1.72236 0
M  V30 4639 H 444.416 5.02998 -0.0155216 0
M  V30 4640 H 444.116 5.63551 -1.66384 0
M  V30 4641 H 445.64 6.04955 -0.828378 0
M  V30 4642 H 447.054 4.98349 -2.8341 0
M  V30 4643 H 445.451 4.79869 -3.60341 0
M  V30 4644 H 446.521 3.39192 -3.46521 0
M  V30 4645 N 447.864 1.01787 1.20321 0
M  V30 4646 C 448.827 0.593972 2.2137 0
M  V30 4647 C 449.827 -0.336553 1.57239 0
M  V30 4648 O 451.017 -0.125069 1.7375 0
M  V30 4649 C 448.149 -0.132433 3.40643 0
M  V30 4650 H 449.342 1.48791 2.60387 0
M  V30 4651 H 446.895 0.807803 1.33807 0
M  V30 4652 H 447.63 -1.04123 3.0713 0
M  V30 4653 H 447.415 0.53605 3.88418 0
M  V30 4654 H 448.905 -0.416314 4.1552 0
M  V30 4655 N 449.342 -1.36122 0.79427 0
M  V30 4656 C 450.252 -2.33769 0.197296 0
M  V30 4657 C 451.268 -1.61276 -0.653153 0
M  V30 4658 O 452.444 -1.9323 -0.5678 0
M  V30 4659 C 449.509 -3.40474 -0.654098 0
M  V30 4660 C 448.57 -4.28759 0.215411 0
M  V30 4661 C 447.803 -5.30368 -0.595443 0
M  V30 4662 O 448.026 -5.40211 -1.83107 0
M  V30 4663 O 446.96 -6.019 0.00721351 0
M  V30 4664 H 450.786 -2.86597 1.00478 0
M  V30 4665 H 448.371 -1.38676 0.555818 0
M  V30 4666 H 450.253 -4.05703 -1.13944 0
M  V30 4667 H 448.928 -2.89937 -1.43938 0
M  V30 4668 H 447.835 -3.66554 0.747615 0
M  V30 4669 H 449.168 -4.82661 0.964332 0
M  V30 4670 N 450.82 -0.546701 -1.47814 0
M  V30 4671 C 452.066 -0.0187684 -2.02791 0
M  V30 4672 C 452.399 1.32338 -1.42128 0
M  V30 4673 O 451.674 1.85867 -0.573023 0
M  V30 4674 C 451.957 0.0854985 -3.59998 0
M  V30 4675 C 451.81 -1.283 -4.31114 0
M  V30 4676 C 453.129 0.80412 -4.32691 0
M  V30 4677 H 450.248 -0.0082946 -0.736953 0
M  V30 4678 H 452.89 -0.706962 -1.76358 0
M  V30 4679 H 451.04 0.671609 -3.82651 0
M  V30 4680 H 452.712 -1.91151 -4.19832 0
M  V30 4681 H 450.955 -1.86049 -3.91878 0
M  V30 4682 H 451.626 -1.16287 -5.39612 0
M  V30 4683 H 454.102 0.306576 -4.14969 0
M  V30 4684 H 452.978 0.846011 -5.42341 0
M  V30 4685 H 453.239 1.85802 -4.01161 0
M  V30 4686 N 452.299 1.55045 -0.282633 0
M  V30 4687 C 453.209 2.26491 0.61147 0
M  V30 4688 C 454.225 1.29348 1.16384 0
M  V30 4689 O 455.401 1.62298 1.19253 0
M  V30 4690 C 452.466 2.97779 1.77563 0
M  V30 4691 C 451.527 4.10418 1.25919 0
M  V30 4692 C 450.76 4.78297 2.36786 0
M  V30 4693 O 450.983 4.45426 3.56303 0
M  V30 4694 O 449.917 5.66089 2.04517 0
M  V30 4695 H 453.743 3.03683 0.0324615 0
M  V30 4696 H 451.328 1.49317 -0.0497576 0
M  V30 4697 H 453.21 3.42554 2.45427 0
M  V30 4698 H 451.885 2.23498 2.34159 0
M  V30 4699 H 450.792 3.70082 0.546797 0
M  V30 4700 H 452.125 4.86622 0.738887 0
M  V30 4701 N 453.777 0.010035 1.57597 0
M  V30 4702 C 454.727 -0.986858 2.05536 0
M  V30 4703 C 455.711 -1.29711 0.952042 0
M  V30 4704 O 456.903 -1.28641 1.21575 0
M  V30 4705 C 454.032 -2.2756 2.57043 0
M  V30 4706 C 453.118 -1.99455 3.74271 0
M  V30 4707 N 453.509 -1.41546 4.85591 0
M  V30 4708 C 451.807 -2.29547 3.82393 0
M  V30 4709 C 452.508 -1.3014 5.66956 0
M  V30 4710 N 451.484 -1.79044 5.13268 0
M  V30 4711 H 455.286 -0.533778 2.89012 0
M  V30 4712 H 452.8 -0.195432 1.6122 0
M  V30 4713 H 454.797 -2.99829 2.89669 0
M  V30 4714 H 453.457 -2.73512 1.7499 0
M  V30 4715 H 454.468 -1.09294 5.06236 0
M  V30 4716 H 451.145 -2.78304 3.11213 0
M  V30 4717 H 452.535 -0.855237 6.66435 0
M  V30 4718 N 455.255 -1.55392 -0.262866 0
M  V30 4719 C 456.165 -1.92077 -1.34698 0
M  V30 4720 C 457.181 -0.819227 -1.53508 0
M  V30 4721 O 458.357 -1.11921 -1.67439 0
M  V30 4722 C 455.422 -2.19407 -2.68443 0
M  V30 4723 C 454.483 -3.42905 -2.58292 0
M  V30 4724 C 453.716 -3.68921 -3.85659 0
M  V30 4725 O 453.939 -2.97275 -4.8681 0
M  V30 4726 O 452.873 -4.62455 -3.85252 0
M  V30 4727 H 456.699 -2.84384 -1.06581 0
M  V30 4728 H 454.284 -1.42069 -0.462264 0
M  V30 4729 H 456.166 -2.38365 -3.47506 0
M  V30 4730 H 454.841 -1.30282 -2.96325 0
M  V30 4731 H 453.748 -3.29272 -1.7757 0
M  V30 4732 H 455.081 -4.32282 -2.35358 0
M  V30 4733 N 456.733 0.527833 -1.48498 0
M  V30 4734 C 458.01 1.28905 -1.47115 0
M  V30 4735 C 458.39 2.10297 -0.184007 0
M  V30 4736 O 457.738 2.12728 0.834218 0
M  V30 4737 C 457.948 2.16866 -2.73441 0
M  V30 4738 C 459.296 2.76936 -3.21857 0
M  V30 4739 O 460.32 2.27152 -2.74373 0
M  V30 4740 O 459.179 3.67496 -4.04486 0
M  V30 4741 H 456.273 0.581918 -0.587623 0
M  V30 4742 H 458.819 0.544311 -1.60734 0
M  V30 4743 H 457.591 1.56521 -3.58632 0
M  V30 4744 H 457.214 2.98583 -2.62553 0
M  V30 4745 N 458.211 1.37122 0.776871 0
M  V30 4746 C 459.458 1.32047 1.53524 0
M  V30 4747 C 459.786 -0.0965631 1.9426 0
M  V30 4748 O 459.041 -1.06866 1.63945 0
M  V30 4749 C 459.34 2.20068 2.81611 0
M  V30 4750 C 459.006 3.68423 2.59953 0
M  V30 4751 C 457.668 4.08854 2.53755 0
M  V30 4752 C 460.02 4.62431 2.40431 0
M  V30 4753 C 457.348 5.41417 2.26018 0
M  V30 4754 C 459.7 5.95225 2.14219 0
M  V30 4755 C 458.364 6.34767 2.06462 0
M  V30 4756 H 457.634 0.483196 0.561785 0
M  V30 4757 H 460.281 1.69284 0.895268 0
M  V30 4758 H 458.586 1.75809 3.50141 0
M  V30 4759 H 460.283 2.13458 3.39465 0
M  V30 4760 H 456.873 3.36354 2.65638 0
M  V30 4761 H 461.057 4.32057 2.44213 0
M  V30 4762 H 456.313 5.71022 2.18504 0
M  V30 4763 H 460.487 6.67626 1.98112 0
M  V30 4764 H 458.114 7.37413 1.84733 0
M  V30 4765 N 459.689 -1.00246 1.21608 0
M  V30 4766 C 460.919 -1.77373 1.05935 0
M  V30 4767 C 461.327 -1.85059 -0.393686 0
M  V30 4768 O 460.67 -1.31289 -1.28487 0
M  V30 4769 C 460.732 -3.22705 1.58435 0
M  V30 4770 C 460.396 -3.38591 3.06929 0
M  V30 4771 C 461.393 -3.2667 4.04454 0
M  V30 4772 C 459.078 -3.6395 3.46187 0
M  V30 4773 C 461.072 -3.39877 5.39224 0
M  V30 4774 C 458.759 -3.768 4.81108 0
M  V30 4775 C 459.757 -3.6477 5.77436 0
M  V30 4776 O 459.445 -3.77206 7.09909 0
M  V30 4777 H 459.177 -0.56419 0.372378 0
M  V30 4778 H 461.731 -1.26971 1.61454 0
M  V30 4779 H 459.961 -3.74255 0.973147 0
M  V30 4780 H 461.65 -3.81515 1.38568 0
M  V30 4781 H 462.416 -3.06999 3.75468 0
M  V30 4782 H 458.295 -3.72395 2.71741 0
M  V30 4783 H 461.839 -3.30404 6.14393 0
M  V30 4784 H 457.736 -3.95975 5.09779 0
M  V30 4785 H 458.504 -3.94138 7.17355 0
M  V30 4786 N 461.167 -1.02423 -1.1978 0
M  V30 4787 C 462.415 -0.716569 -1.8897 0
M  V30 4788 C 462.736 0.756769 -1.79716 0
M  V30 4789 O 462.006 1.5449 -1.20456 0
M  V30 4790 H 460.586 -0.262062 -0.699523 0
M  V30 4791 H 463.248 -1.29747 -1.45436 0
M  V30 4792 H 462.344 -1.00675 -2.95417 0
M  V30 4793 N 462.645 1.35699 -0.801477 0
M  V30 4794 C 463.592 2.29876 -0.206294 0
M  V30 4795 C 464.562 1.52565 0.656752 0
M  V30 4796 O 465.747 1.81024 0.602906 0
M  V30 4797 C 462.887 3.39052 0.643272 0
M  V30 4798 C 462 4.31335 -0.239644 0
M  V30 4799 C 461.135 5.27599 0.61744 0
M  V30 4800 C 460.174 6.11521 -0.26619 0
M  V30 4801 N 459.311 6.99938 0.550571 0
M  V30 4802 H 464.151 2.80187 -1.01484 0
M  V30 4803 H 461.688 1.37902 -0.511997 0
M  V30 4804 H 463.646 4.0101 1.15094 0
M  V30 4805 H 462.276 2.9003 1.41713 0
M  V30 4806 H 461.328 3.70426 -0.865381 0
M  V30 4807 H 462.64 4.90243 -0.919985 0
M  V30 4808 H 461.794 5.94906 1.19045 0
M  V30 4809 H 460.533 4.69176 1.33137 0
M  V30 4810 H 459.538 5.43166 -0.851507 0
M  V30 4811 H 460.763 6.72022 -0.9779 0
M  V30 4812 H 458.709 6.44008 1.24856 0
M  V30 4813 H 458.626 7.55966 -0.071832 0
M  V30 4814 H 459.894 7.71599 1.10702 0
M  V30 4815 N 464.123 0.554532 1.47522 0
M  V30 4816 C 465.07 -0.19466 2.29978 0
M  V30 4817 C 466.04 -0.910882 1.38896 0
M  V30 4818 O 467.225 -0.907102 1.67858 0
M  V30 4819 C 464.365 -1.22035 3.22802 0
M  V30 4820 C 463.478 -0.510474 4.28973 0
M  V30 4821 C 462.613 -1.52123 5.08952 0
M  V30 4822 C 461.652 -0.796173 6.069 0
M  V30 4823 N 460.789 -1.75363 6.79847 0
M  V30 4824 H 465.629 0.51461 2.93523 0
M  V30 4825 H 463.166 0.265607 1.44682 0
M  V30 4826 H 465.124 -1.8276 3.7504 0
M  V30 4827 H 463.754 -1.89769 2.61127 0
M  V30 4828 H 462.806 0.211234 3.79813 0
M  V30 4829 H 464.118 0.0576503 4.98767 0
M  V30 4830 H 463.272 -2.20207 5.65326 0
M  V30 4831 H 462.011 -2.12327 4.39054 0
M  V30 4832 H 461.016 -0.101388 5.49707 0
M  V30 4833 H 462.241 -0.199911 6.78806 0
M  V30 4834 H 460.187 -2.3443 6.12682 0
M  V30 4835 H 460.104 -1.23759 7.45801 0
M  V30 4836 H 461.372 -2.4257 7.40797 0
M  V30 4837 N 465.601 -1.54893 0.290851 0
M  V30 4838 C 466.531 -2.26103 -0.583084 0
M  V30 4839 C 467.512 -1.25684 -1.14619 0
M  V30 4840 O 468.697 -1.54436 -1.17741 0
M  V30 4841 C 465.827 -2.99409 -1.75987 0
M  V30 4842 C 464.781 -4.0689 -1.32758 0
M  V30 4843 C 464.107 -4.67856 -2.58872 0
M  V30 4844 C 465.407 -5.20215 -0.46624 0
M  V30 4845 H 467.101 -2.99398 0.0108214 0
M  V30 4846 H 464.647 -1.43998 0.00664468 0
M  V30 4847 H 466.6 -3.47943 -2.37727 0
M  V30 4848 H 465.324 -2.23675 -2.37985 0
M  V30 4849 H 463.983 -3.59191 -0.733299 0
M  V30 4850 H 463.631 -3.88772 -3.19163 0
M  V30 4851 H 463.331 -5.40438 -2.30653 0
M  V30 4852 H 464.855 -5.19147 -3.21433 0
M  V30 4853 H 466.269 -5.64704 -0.989047 0
M  V30 4854 H 464.666 -5.99455 -0.27826 0
M  V30 4855 H 465.736 -4.82198 0.511173 0
M  V30 4856 N 467.08 -0.0183926 -1.57589 0
M  V30 4857 C 468.328 0.661253 -1.90976 0
M  V30 4858 C 468.649 1.73281 -0.894353 0
M  V30 4859 O 467.919 1.9579 0.0656788 0
M  V30 4860 H 466.499 0.247233 -0.704901 0
M  V30 4861 H 469.161 -0.0636639 -1.94796 0
M  V30 4862 H 468.257 1.12083 -2.9128 0
M  V30 4863 N 468.558 1.5553 0.254621 0
M  V30 4864 C 469.807 1.76202 0.981612 0
M  V30 4865 C 470.12 0.580883 1.86776 0
M  V30 4866 O 471.326 0.670448 2.63092 0
M  V30 4867 C 469.782 3.11921 1.79537 0
M  V30 4868 C 469.39 4.37659 0.956991 0
M  V30 4869 C 471.134 3.41936 2.51555 0
M  V30 4870 C 469.041 5.64411 1.76619 0
M  V30 4871 H 467.971 0.656841 0.370237 0
M  V30 4872 H 470.622 1.81969 0.236556 0
M  V30 4873 H 469.004 3.00241 2.58208 0
M  V30 4874 H 470.178 4.60307 0.21315 0
M  V30 4875 H 468.493 4.14922 0.350497 0
M  V30 4876 H 471.09 4.33849 3.12536 0
M  V30 4877 H 471.433 2.62905 3.22779 0
M  V30 4878 H 471.966 3.54797 1.799 0
M  V30 4879 H 468.705 6.46241 1.09783 0
M  V30 4880 H 468.225 5.45877 2.48551 0
M  V30 4881 H 469.904 6.03386 2.33527 0
M  V30 4882 N 470.036 -0.519951 1.48776 0
M  V30 4883 C 471.283 -1.27522 1.57303 0
M  V30 4884 C 471.611 -1.92869 0.251328 0
M  V30 4885 O 470.866 -1.80372 -0.759243 0
M  V30 4886 C 471.165 -2.37864 2.6675 0
M  V30 4887 C 470.831 -1.90103 4.08867 0
M  V30 4888 C 469.493 -1.76795 4.47546 0
M  V30 4889 C 471.845 -1.54133 4.97888 0
M  V30 4890 C 469.173 -1.25868 5.73039 0
M  V30 4891 C 471.525 -1.04665 6.23881 0
M  V30 4892 C 470.189 -0.899823 6.61407 0
M  V30 4893 H 469.459 -0.466636 0.575614 0
M  V30 4894 H 472.106 -0.579109 1.82534 0
M  V30 4895 H 470.411 -3.13186 2.35418 0
M  V30 4896 H 472.108 -2.95969 2.70561 0
M  V30 4897 H 468.698 -2.01414 3.78326 0
M  V30 4898 H 472.882 -1.6327 4.68675 0
M  V30 4899 H 468.138 -1.13196 6.0083 0
M  V30 4900 H 472.312 -0.759074 6.92251 0
M  V30 4901 H 469.939 -0.503011 7.58534 0
M  V30 4902 N 471.514 -1.37532 -0.769588 0
M  V30 4903 C 472.464 -1.29984 -1.87318 0
M  V30 4904 C 473.448 -0.187242 -1.59807 0
M  V30 4905 O 474.64 -0.421827 -1.719 0
M  V30 4906 C 471.769 -1.11126 -3.24817 0
M  V30 4907 C 470.855 -2.26939 -3.58273 0
M  V30 4908 N 471.246 -3.52336 -3.62895 0
M  V30 4909 C 469.544 -2.19141 -3.8845 0
M  V30 4910 C 470.245 -4.28719 -3.9316 0
M  V30 4911 N 469.221 -3.57884 -4.0917 0
M  V30 4912 H 473.023 -2.24946 -1.89147 0
M  V30 4913 H 470.537 -1.30535 -0.966143 0
M  V30 4914 H 472.534 -1.03803 -4.0377 0
M  V30 4915 H 471.194 -0.17083 -3.2425 0
M  V30 4916 H 472.205 -3.86216 -3.45048 0
M  V30 4917 H 468.882 -1.33167 -3.95693 0
M  V30 4918 H 470.272 -5.37254 -4.03494 0
M  V30 4919 N 472.992 0.995999 -1.22138 0
M  V30 4920 C 473.942 2.06988 -0.956042 0
M  V30 4921 C 474.926 1.60636 0.0921576 0
M  V30 4922 O 476.118 1.76607 -0.117958 0
M  V30 4923 C 473.247 3.39148 -0.532335 0
M  V30 4924 C 472.333 3.92142 -1.61509 0
M  V30 4925 N 472.724 4.18397 -2.84214 0
M  V30 4926 C 471.022 4.20514 -1.48606 0
M  V30 4927 C 471.723 4.61425 -3.54206 0
M  V30 4928 N 470.699 4.64934 -2.81669 0
M  V30 4929 H 474.501 2.25223 -1.88816 0
M  V30 4930 H 472.015 1.17748 -1.11845 0
M  V30 4931 H 474.012 4.15642 -0.323574 0
M  V30 4932 H 472.672 3.22314 0.392921 0
M  V30 4933 H 473.683 4.06682 -3.20671 0
M  V30 4934 H 470.36 4.12769 -0.626762 0
M  V30 4935 H 471.75 4.90387 -4.59315 0
M  V30 4936 N 474.47 1.03057 1.19235 0
M  V30 4937 C 475.747 0.642608 1.84743 0
M  V30 4938 C 476.127 -0.878577 1.91948 0
M  V30 4939 O 475.475 -1.77597 1.43776 0
M  V30 4940 C 475.685 1.30665 3.23616 0
M  V30 4941 C 477.033 1.43098 3.9976 0
M  V30 4942 O 478.057 1.26396 3.3302 0
M  V30 4943 O 476.916 1.70223 5.19313 0
M  V30 4944 H 474.01 0.223573 0.796206 0
M  V30 4945 H 476.556 1.12883 1.26711 0
M  V30 4946 H 475.328 2.34544 3.13217 0
M  V30 4947 H 474.951 0.808405 3.89295 0
M  V30 4948 N 475.948 -1.35272 0.808662 0
M  V30 4949 C 477.225 -1.93077 0.313181 0
M  V30 4950 C 477.605 -1.73847 -1.19752 0
M  V30 4951 O 476.953 -1.1087 -1.998 0
M  V30 4952 C 477.163 -3.41347 0.726859 0
M  V30 4953 C 478.511 -4.18493 0.717532 0
M  V30 4954 O 479.535 -3.4987 0.668535 0
M  V30 4955 O 478.394 -5.40937 0.777779 0
M  V30 4956 H 475.488 -0.822885 0.0824018 0
M  V30 4957 H 478.034 -1.44335 0.892499 0
M  V30 4958 H 476.806 -3.49082 1.76797 0
M  V30 4959 H 476.429 -3.97411 0.122461 0
M  V30 4960 N 477.426 -0.562348 -1.47226 0
M  V30 4961 C 478.356 0.170627 -2.32876 0
M  V30 4962 C 479.337 0.903748 -1.44106 0
M  V30 4963 O 480.522 0.883206 -1.72954 0
M  V30 4964 C 477.652 1.19786 -3.25989 0
M  V30 4965 C 476.606 0.580875 -4.2404 0
M  V30 4966 C 475.932 1.71311 -5.06514 0
M  V30 4967 C 477.232 -0.468714 -5.20193 0
M  V30 4968 H 478.926 -0.544441 -2.94408 0
M  V30 4969 H 476.472 -0.263271 -1.41573 0
M  V30 4970 H 478.425 1.71884 -3.84752 0
M  V30 4971 H 477.149 1.94294 -2.62521 0
M  V30 4972 H 475.808 0.0811538 -3.6651 0
M  V30 4973 H 475.456 2.44736 -4.39447 0
M  V30 4974 H 475.156 1.30604 -5.72902 0
M  V30 4975 H 476.68 2.23725 -5.68137 0
M  V30 4976 H 478.094 -0.0336028 -5.7329 0
M  V30 4977 H 476.491 -0.794957 -5.94811 0
M  V30 4978 H 477.561 -1.36269 -4.65359 0
M  V30 4979 N 478.904 1.54736 -0.299062 0
M  V30 4980 C 479.837 2.1962 0.619851 0
M  V30 4981 C 480.815 1.16496 1.13434 0
M  V30 4982 O 481.999 1.4513 1.2029 0
M  V30 4983 C 479.126 2.8385 1.84788 0
M  V30 4984 C 478.172 4.00484 1.46679 0
M  V30 4985 S 479.005 5.32926 0.524389 0
M  V30 4986 C 480.161 6.00638 1.76026 0
M  V30 4987 H 480.394 2.97221 0.0686177 0
M  V30 4988 H 477.927 1.54176 -0.0832085 0
M  V30 4989 H 479.885 3.21483 2.55263 0
M  V30 4990 H 478.546 2.06099 2.37028 0
M  V30 4991 H 477.739 4.44201 2.38121 0
M  V30 4992 H 477.341 3.64398 0.842008 0
M  V30 4993 H 479.633 6.21327 2.70109 0
M  V30 4994 H 480.576 6.94805 1.36569 0
M  V30 4995 H 480.984 5.3026 1.93609 0
M  V30 4996 N 480.382 0.0267497 1.57577 0
M  V30 4997 C 481.63 -0.651116 1.91324 0
M  V30 4998 C 481.951 -1.72804 0.90353 0
M  V30 4999 O 481.221 -1.95822 -0.0552946 0
M  V30 5000 H 479.801 -0.243491 0.706202 0
M  V30 5001 H 482.463 0.0739935 1.94759 0
M  V30 5002 H 481.559 -1.10536 2.9187 0
M  V30 5003 N 481.861 -1.55662 -0.24637 0
M  V30 5004 C 483.138 -1.68272 -0.997198 0
M  V30 5005 C 483.518 -0.566785 -2.03349 0
M  V30 5006 O 482.866 0.429688 -2.24424 0
M  V30 5007 C 483.076 -3.08594 -1.63006 0
M  V30 5008 C 484.424 -3.6721 -2.13171 0
M  V30 5009 O 485.448 -3.11397 -1.72946 0
M  V30 5010 O 484.307 -4.65054 -2.87031 0
M  V30 5011 H 481.401 -0.684429 -0.464205 0
M  V30 5012 H 483.947 -1.67993 -0.240114 0
M  V30 5013 H 482.719 -3.81264 -0.880527 0
M  V30 5014 H 482.342 -3.12886 -2.45333 0
M  V30 5015 N 483.339 0.512053 -1.4905 0
M  V30 5016 C 484.269 1.62365 -1.67809 0
M  V30 5017 C 485.25 1.61737 -0.526809 0
M  V30 5018 O 486.435 1.78651 -0.761404 0
M  V30 5019 C 483.565 3.00895 -1.73435 0
M  V30 5020 C 482.519 3.16387 -2.88242 0
M  V30 5021 C 481.845 4.56157 -2.78971 0
M  V30 5022 C 483.145 2.97457 -4.29321 0
M  V30 5023 H 484.839 1.46921 -2.60873 0
M  V30 5024 H 482.385 0.705379 -1.2554 0
M  V30 5025 H 484.338 3.78549 -1.85145 0
M  V30 5026 H 483.062 3.17403 -0.769619 0
M  V30 5027 H 481.721 2.41155 -2.76116 0
M  V30 5028 H 481.369 4.69525 -1.8043 0
M  V30 5029 H 481.069 4.67465 -3.5602 0
M  V30 5030 H 482.593 5.35886 -2.92675 0
M  V30 5031 H 484.007 3.64888 -4.42187 0
M  V30 5032 H 482.404 3.20245 -5.07507 0
M  V30 5033 H 483.474 1.93692 -4.44535 0
M  V30 5034 N 484.817 1.37938 0.762283 0
M  V30 5035 C 485.78 1.34279 1.85747 0
M  V30 5036 C 486.78 0.244969 1.58923 0
M  V30 5037 O 487.97 0.501365 1.66829 0
M  V30 5038 C 485.102 1.08833 3.23061 0
M  V30 5039 H 486.295 2.31705 1.90401 0
M  V30 5040 H 483.848 1.23105 0.963057 0
M  V30 5041 H 484.583 0.119767 3.24079 0
M  V30 5042 H 484.368 1.88306 3.43923 0
M  V30 5043 H 485.858 1.08946 4.03138 0
M  V30 5044 N 486.295 -0.989507 1.22664 0
M  V30 5045 C 487.52 -1.77031 1.08051 0
M  V30 5046 C 487.945 -1.84535 -0.364483 0
M  V30 5047 O 487.303 -1.3003 -1.2634 0
M  V30 5048 C 487.351 -3.18 1.70024 0
M  V30 5049 O 486.455 -4.01161 0.956216 0
M  V30 5050 H 485.796 -0.545008 0.379292 0
M  V30 5051 H 488.326 -1.24277 1.62531 0
M  V30 5052 H 488.336 -3.68616 1.74888 0
M  V30 5053 H 487.011 -3.11853 2.75174 0
M  V30 5054 H 485.588 -3.59687 0.98384 0
M  V30 5055 N 487.773 -1.03688 -1.18687 0
M  V30 5056 C 488.998 -0.757819 -1.93059 0
M  V30 5057 C 489.423 0.678353 -1.75442 0
M  V30 5058 O 488.781 1.46938 -1.06203 0
M  V30 5059 C 488.829 -1.12423 -3.42627 0
M  V30 5060 O 487.933 -0.247505 -4.11657 0
M  V30 5061 H 487.274 -0.279245 -0.602427 0
M  V30 5062 H 489.804 -1.3857 -1.5053 0
M  V30 5063 H 489.814 -1.08454 -3.93322 0
M  V30 5064 H 488.489 -2.17049 -3.54771 0
M  V30 5065 H 487.066 -0.34649 -3.71287 0
M  V30 5066 N 489.251 1.34841 -0.815825 0
M  V30 5067 C 490.662 1.80937 -0.46029 0
M  V30 5068 C 491.013 1.67685 1.01863 0
M  V30 5069 O 490.138 1.21277 1.79223 0
M  V30 5070 C 490.733 3.28509 -0.828708 0
M  V30 5071 C 489.292 3.72712 -0.525644 0
M  V30 5072 C 488.439 2.56676 -1.04941 0
M  V30 5073 H 491.39 1.22688 -1.00664 0
M  V30 5074 H 491.411 3.80279 -0.129757 0
M  V30 5075 H 490.923 3.38122 -1.90513 0
M  V30 5076 H 489.024 3.68642 0.541666 0
M  V30 5077 H 489.137 4.67119 -1.06474 0
M  V30 5078 H 487.501 2.50302 -0.471286 0
M  V30 5079 H 488.284 2.69063 -2.13214 0
M  V30 5080 N 490.729 0.570148 1.46925 0
M  V30 5081 C 491.954 0.0542592 2.07329 0
M  V30 5082 C 492.379 -1.23582 1.41806 0
M  V30 5083 O 491.737 -1.74341 0.497479 0
M  V30 5084 C 491.785 -0.111175 3.60429 0
M  V30 5085 O 490.889 -1.17071 3.95434 0
M  V30 5086 H 490.23 0.0571425 0.661537 0
M  V30 5087 H 492.76 0.789516 1.88753 0
M  V30 5088 H 492.77 -0.321315 4.06733 0
M  V30 5089 H 491.445 0.831012 4.07513 0
M  V30 5090 H 490.022 -0.940029 3.60857 0
M  V30 5091 N 492.207 -1.54576 0.307264 0
M  V30 5092 C 493.14 -2.19946 -0.608195 0
M  V30 5093 C 494.118 -1.17096 -1.12815 0
M  V30 5094 O 495.302 -1.45766 -1.19518 0
M  V30 5095 C 492.429 -2.84826 -1.8328 0
M  V30 5096 C 491.475 -4.01256 -1.44554 0
M  V30 5097 S 492.308 -5.33197 -0.49612 0
M  V30 5098 C 493.464 -6.01563 -1.72838 0
M  V30 5099 H 493.697 -2.97253 -0.0528544 0
M  V30 5100 H 491.23 -1.54129 0.0913837 0
M  V30 5101 H 493.188 -3.22832 -2.53554 0
M  V30 5102 H 491.849 -2.07353 -2.35931 0
M  V30 5103 H 491.042 -4.45457 -2.35762 0
M  V30 5104 H 490.644 -3.6484 -0.822671 0
M  V30 5105 H 492.936 -6.22751 -2.6681 0
M  V30 5106 H 493.879 -6.9552 -1.32882 0
M  V30 5107 H 494.287 -5.31279 -1.90795 0
M  V30 5108 N 493.685 -0.035106 -1.57561 0
M  V30 5109 C 494.932 0.642229 -1.92046 0
M  V30 5110 C 495.26 1.7179 -0.91206 0
M  V30 5111 O 494.515 1.95544 0.0781153 0
M  V30 5112 C 494.814 1.29149 -3.3325 0
M  V30 5113 C 494.48 0.345604 -4.49574 0
M  V30 5114 C 493.142 0.0852775 -4.81124 0
M  V30 5115 C 495.494 -0.303569 -5.20315 0
M  V30 5116 C 492.822 -0.831927 -5.80772 0
M  V30 5117 C 495.174 -1.20886 -6.20942 0
M  V30 5118 C 493.838 -1.47802 -6.50931 0
M  V30 5119 H 493.108 0.235008 -0.702746 0
M  V30 5120 H 495.755 -0.0981529 -1.91248 0
M  V30 5121 H 494.06 2.10676 -3.30337 0
M  V30 5122 H 495.757 1.82223 -3.57205 0
M  V30 5123 H 492.347 0.558683 -4.24943 0
M  V30 5124 H 496.531 -0.115515 -4.96166 0
M  V30 5125 H 491.787 -1.0481 -6.02349 0
M  V30 5126 H 495.961 -1.71804 -6.74875 0
M  V30 5127 H 493.588 -2.19039 -7.2796 0
M  V30 5128 N 495.163 1.55791 0.238111 0
M  V30 5129 C 496.44 1.68798 0.98826 0
M  V30 5130 C 496.82 0.577562 2.03045 0
M  V30 5131 O 496.168 -0.41778 2.24648 0
M  V30 5132 C 496.378 3.09454 1.61367 0
M  V30 5133 C 497.726 3.68335 2.11221 0
M  V30 5134 O 498.75 3.1231 1.71292 0
M  V30 5135 O 497.609 4.6657 2.84561 0
M  V30 5136 H 494.703 0.686881 0.460568 0
M  V30 5137 H 497.249 1.68118 0.231202 0
M  V30 5138 H 496.021 3.81726 0.860295 0
M  V30 5139 H 495.644 3.14182 2.4367 0
M  V30 5140 N 496.642 -0.504142 1.49319 0
M  V30 5141 C 497.872 -1.28071 1.62116 0
M  V30 5142 C 498.28 -1.86955 0.290566 0
M  V30 5143 O 497.623 -1.68415 -0.733616 0
M  V30 5144 C 497.685 -2.4521 2.62893 0
M  V30 5145 C 497.349 -2.07218 4.0732 0
M  V30 5146 C 498.346 -1.61375 4.94221 0
M  V30 5147 C 496.031 -2.16949 4.53033 0
M  V30 5148 C 498.025 -1.25763 6.2487 0
M  V30 5149 C 495.712 -1.80949 5.83696 0
M  V30 5150 C 496.71 -1.3543 6.69438 0
M  V30 5151 O 496.398 -0.99915 7.97667 0
M  V30 5152 H 496.13 -0.394763 0.54876 0
M  V30 5153 H 498.684 -0.612118 1.96067 0
M  V30 5154 H 496.914 -3.15134 2.24115 0
M  V30 5155 H 498.603 -3.0724 2.65252 0
M  V30 5156 H 499.369 -1.53306 4.60133 0
M  V30 5157 H 495.248 -2.5133 3.86463 0
M  V30 5158 H 498.792 -0.901631 6.91749 0
M  V30 5159 H 494.689 -1.88667 6.17313 0
M  V30 5160 H 495.457 -1.13089 8.1065 0
M  V30 5161 N 498.12 -1.38341 -0.754957 0
M  V30 5162 C 499.03 -1.3769 -1.89944 0
M  V30 5163 C 500.046 -0.274194 -1.71826 0
M  V30 5164 O 501.222 -0.512391 -1.94773 0
M  V30 5165 C 498.287 -1.19938 -3.25293 0
M  V30 5166 C 497.348 -2.40001 -3.55946 0
M  V30 5167 C 496.581 -2.23087 -4.84838 0
M  V30 5168 O 496.804 -1.22386 -5.57116 0
M  V30 5169 O 495.738 -3.11646 -5.14937 0
M  V30 5170 H 499.564 -2.3412 -1.93446 0
M  V30 5171 H 497.149 -1.19246 -0.900044 0
M  V30 5172 H 499.031 -1.12093 -4.06218 0
M  V30 5173 H 497.706 -0.265919 -3.22606 0
M  V30 5174 H 496.613 -2.53421 -2.75188 0
M  V30 5175 H 497.946 -3.31973 -3.63394 0
M  V30 5176 N 499.598 0.982988 -1.23187 0
M  V30 5177 C 500.548 2.05962 -0.977942 0
M  V30 5178 C 501.532 1.60725 0.0751148 0
M  V30 5179 O 502.724 1.76471 -0.136683 0
M  V30 5180 C 499.853 3.38564 -0.568276 0
M  V30 5181 C 498.939 3.90407 -1.6566 0
M  V30 5182 N 499.33 4.15359 -2.88635 0
M  V30 5183 C 497.628 4.18915 -1.53058 0
M  V30 5184 C 498.329 4.57642 -3.5908 0
M  V30 5185 N 497.305 4.6192 -2.86584 0
M  V30 5186 H 501.107 2.23208 -1.91195 0
M  V30 5187 H 498.621 1.16555 -1.13087 0
M  V30 5188 H 500.618 4.15276 -0.36764 0
M  V30 5189 H 499.278 3.22712 0.358713 0
M  V30 5190 H 500.289 4.03258 -3.24966 0
M  V30 5191 H 496.966 4.12081 -0.670506 0
M  V30 5192 H 498.356 4.85488 -4.6449 0
M  V30 5193 N 501.076 1.04316 1.18135 0
M  V30 5194 C 502.039 0.640794 2.2006 0
M  V30 5195 C 503.039 -0.303124 1.57917 0
M  V30 5196 O 504.229 -0.0881855 1.73977 0
M  V30 5197 C 501.361 -0.060148 3.40847 0
M  V30 5198 H 502.554 1.54281 2.57172 0
M  V30 5199 H 500.107 0.836004 1.32063 0
M  V30 5200 H 500.842 -0.975845 3.0927 0
M  V30 5201 H 500.627 0.618319 3.87194 0
M  V30 5202 H 502.117 -0.328082 4.16309 0
M  V30 5203 N 502.554 -1.34406 0.822964 0
M  V30 5204 C 503.802 -1.97892 0.410245 0
M  V30 5205 C 504.123 -1.65567 -1.03017 0
M  V30 5206 O 503.393 -0.94642 -1.71522 0
M  V30 5207 H 501.973 -0.732049 0.148707 0
M  V30 5208 H 504.635 -1.64043 1.05242 0
M  V30 5209 H 503.731 -3.07579 0.529284 0
M  V30 5210 N 504.032 -0.577932 -1.46621 0
M  V30 5211 C 504.979 0.158048 -2.30258 0
M  V30 5212 C 505.949 0.888669 -1.40328 0
M  V30 5213 O 507.134 0.880283 -1.6928 0
M  V30 5214 C 504.274 1.16884 -3.24703 0
M  V30 5215 C 503.387 0.442163 -4.29731 0
M  V30 5216 C 502.522 1.44007 -5.11308 0
M  V30 5217 C 501.561 0.69952 -6.0809 0
M  V30 5218 N 500.698 1.64525 -6.82551 0
M  V30 5219 H 505.538 -0.561242 -2.92667 0
M  V30 5220 H 503.075 -0.288591 -1.44241 0
M  V30 5221 H 505.033 1.7677 -3.779 0
M  V30 5222 H 503.663 1.85591 -2.64113 0
M  V30 5223 H 502.715 -0.271632 -3.79429 0
M  V30 5224 H 504.027 -0.136992 -4.98612 0
M  V30 5225 H 503.181 2.11186 -5.68758 0
M  V30 5226 H 501.92 2.05315 -4.42377 0
M  V30 5227 H 500.925 0.0139217 -5.49798 0
M  V30 5228 H 502.15 0.091894 -6.79038 0
M  V30 5229 H 500.096 2.24653 -6.16334 0
M  V30 5230 H 500.013 1.11878 -7.47676 0
M  V30 5231 H 501.281 2.30754 -7.44562 0
M  V30 5232 N 505.51 1.54411 -0.315457 0
M  V30 5233 C 506.473 2.22713 0.54142 0
M  V30 5234 C 507.473 1.2179 1.04995 0
M  V30 5235 O 508.663 1.46426 0.943667 0
M  V30 5236 C 505.795 2.92485 1.75116 0
M  V30 5237 H 506.988 2.99849 -0.0555508 0
M  V30 5238 H 504.541 1.56159 -0.0664453 0
M  V30 5239 H 505.276 2.19466 2.38758 0
M  V30 5240 H 505.061 3.66483 1.39401 0
M  V30 5241 H 506.551 3.44548 2.35959 0
M  V30 5242 N 506.988 0.0434614 1.5754 0
M  V30 5243 C 508.213 -0.645358 1.97104 0
M  V30 5244 C 508.638 -1.64037 0.920521 0
M  V30 5245 O 507.996 -1.80922 -0.11708 0
M  V30 5246 C 508.044 -1.31547 3.35749 0
M  V30 5247 O 507.148 -2.43103 3.33129 0
M  V30 5248 H 506.489 -0.168403 0.64229 0
M  V30 5249 H 509.019 0.109573 2.04306 0
M  V30 5250 H 509.029 -1.66895 3.72304 0
M  V30 5251 H 507.704 -0.586205 4.11748 0
M  V30 5252 H 506.281 -2.0976 3.0831 0
M  V30 5253 N 508.466 -1.55915 -0.229846 0
M  V30 5254 C 509.396 -1.94754 -1.28815 0
M  V30 5255 C 510.377 -0.814657 -1.49323 0
M  V30 5256 O 511.562 -1.07631 -1.61645 0
M  V30 5257 C 508.692 -2.25705 -2.63959 0
M  V30 5258 C 507.646 -3.41406 -2.5812 0
M  V30 5259 C 506.972 -3.57941 -3.97218 0
M  V30 5260 C 508.272 -4.76616 -2.13623 0
M  V30 5261 H 509.966 -2.83404 -0.965547 0
M  V30 5262 H 507.512 -1.36353 -0.463028 0
M  V30 5263 H 509.465 -2.51467 -3.38146 0
M  V30 5264 H 508.189 -1.339 -2.9789 0
M  V30 5265 H 506.848 -3.1568 -1.86391 0
M  V30 5266 H 506.496 -2.63526 -4.28443 0
M  V30 5267 H 506.196 -4.35757 -3.94195 0
M  V30 5268 H 507.72 -3.86042 -4.73079 0
M  V30 5269 H 509.134 -5.01637 -2.77549 0
M  V30 5270 H 507.531 -5.57655 -2.21677 0
M  V30 5271 H 508.601 -4.7253 -1.08829 0
M  V30 5272 N 509.944 0.496216 -1.49584 0
M  V30 5273 C 510.874 1.60576 -1.69521 0
M  V30 5274 C 511.855 1.61169 -0.543933 0
M  V30 5275 O 513.04 1.77834 -0.78031 0
M  V30 5276 C 510.17 2.99038 -1.76616 0
M  V30 5277 C 509.124 3.13312 -2.91581 0
M  V30 5278 C 508.45 4.53172 -2.83794 0
M  V30 5279 C 509.75 2.92886 -4.32452 0
M  V30 5280 H 511.444 1.44146 -2.62416 0
M  V30 5281 H 508.99 0.692024 -1.26282 0
M  V30 5282 H 510.943 3.76564 -1.8915 0
M  V30 5283 H 509.667 3.16568 -0.80324 0
M  V30 5284 H 508.326 2.38213 -2.78658 0
M  V30 5285 H 507.974 4.67585 -1.854 0
M  V30 5286 H 507.674 4.63662 -3.60958 0
M  V30 5287 H 509.198 5.32752 -2.98342 0
M  V30 5288 H 510.612 3.60178 -4.46032 0
M  V30 5289 H 509.009 3.14844 -5.10875 0
M  V30 5290 H 510.079 1.88966 -4.46565 0
M  V30 5291 N 511.423 1.38739 0.74761 0
M  V30 5292 C 512.371 1.36573 1.88283 0
M  V30 5293 C 513.365 0.250712 1.67534 0
M  V30 5294 O 514.571 0.420073 1.7503 0
M  V30 5295 H 510.946 0.42619 0.619569 0
M  V30 5296 H 512.917 2.32356 1.87226 0
M  V30 5297 C 511.666 1.21361 3.25832 0
M  V30 5298 H 510.989 2.06424 3.42388 0
M  V30 5299 H 512.429 1.23901 4.05493 0
M  V30 5300 C 510.888 -0.0790099 3.36807 0
M  V30 5301 O 511.418 -1.05385 3.8763 0
M  V30 5302 N 509.624 -0.13785 2.90273 0
M  V30 5303 H 509.171 0.656128 2.49104 0
M  V30 5304 H 509.129 -1.00228 2.97996 0
M  V30 5305 N 512.901 -0.976442 1.23707 0
M  V30 5306 C 513.849 -2.09078 1.01927 0
M  V30 5307 C 514.843 -1.69345 -0.0430193 0
M  V30 5308 O 516.049 -1.79659 0.110814 0
M  V30 5309 H 512.424 -0.68398 0.312531 0
M  V30 5310 H 514.395 -2.24614 1.96447 0
M  V30 5311 C 513.144 -3.41919 0.631385 0
M  V30 5312 H 512.467 -3.72946 1.44053 0
M  V30 5313 H 513.907 -4.20817 0.518532 0
M  V30 5314 C 512.366 -3.30357 -0.660723 0
M  V30 5315 O 512.896 -3.63542 -1.70881 0
M  V30 5316 N 511.102 -2.83507 -0.638139 0
M  V30 5317 H 510.649 -2.567 0.215108 0
M  V30 5318 H 510.607 -2.76153 -1.50289 0
M  V30 5319 N 514.379 -1.04941 -1.1758 0
M  V30 5320 C 515.625 -0.759112 -1.88057 0
M  V30 5321 C 515.958 0.711918 -1.8068 0
M  V30 5322 O 515.233 1.52035 -1.21308 0
M  V30 5323 C 515.516 -1.237 -3.38187 0
M  V30 5324 C 515.369 -2.77078 -3.54327 0
M  V30 5325 C 516.688 -0.834014 -4.32125 0
M  V30 5326 H 513.807 -0.277237 -0.682868 0
M  V30 5327 H 516.449 -1.30296 -1.38286 0
M  V30 5328 H 514.599 -0.774337 -3.80705 0
M  V30 5329 H 516.271 -3.31449 -3.20842 0
M  V30 5330 H 514.514 -3.16477 -2.96689 0
M  V30 5331 H 515.185 -3.05577 -4.59703 0
M  V30 5332 H 517.661 -1.23228 -3.97434 0
M  V30 5333 H 516.537 -1.19603 -5.35711 0
M  V30 5334 H 516.798 0.262195 -4.41322 0
M  V30 5335 N 515.857 1.33968 -0.830081 0
M  V30 5336 C 517.273 1.51003 -0.516742 0
M  V30 5337 C 517.473 1.77286 0.957694 0
M  V30 5338 O 516.529 1.82797 1.74188 0
M  V30 5339 C 517.842 2.67036 -1.38247 0
M  V30 5340 C 519.39 2.80919 -1.38034 0
M  V30 5341 C 519.865 4.00004 -2.23071 0
M  V30 5342 N 521.356 4.07224 -2.20733 0
M  V30 5343 C 522.091 4.98541 -2.83275 0
M  V30 5344 N 521.587 5.95033 -3.54835 0
M  V30 5345 N 523.38 4.91469 -2.72791 0
M  V30 5346 H 515.531 1.15168 -1.78466 0
M  V30 5347 H 517.794 0.565443 -0.760906 0
M  V30 5348 H 517.5 2.54266 -2.42985 0
M  V30 5349 H 517.374 3.62226 -1.05225 0
M  V30 5350 H 519.761 2.93127 -0.340713 0
M  V30 5351 H 519.842 1.86517 -1.75057 0
M  V30 5352 H 519.486 3.88557 -3.27087 0
M  V30 5353 H 519.416 4.93634 -1.83394 0
M  V30 5354 H 521.907 3.38162 -1.68687 0
M  V30 5355 H 522.22 6.61357 -3.99784 0
M  V30 5356 H 520.565 5.95135 -3.58942 0
M  V30 5357 H 523.756 4.15048 -2.16456 0
M  V30 5358 H 523.929 5.62439 -3.21818 0
M  V30 5359 N 517.335 0.585699 1.46312 0
M  V30 5360 C 518.565 0.0780166 2.06453 0
M  V30 5361 C 518.973 -1.2336 1.43454 0
M  V30 5362 O 518.316 -1.75734 0.535086 0
M  V30 5363 C 518.378 -0.158951 3.59148 0
M  V30 5364 C 518.042 1.06752 4.44357 0
M  V30 5365 C 519.039 1.98031 4.80708 0
M  V30 5366 C 516.724 1.2902 4.85447 0
M  V30 5367 C 518.718 3.09924 5.5698 0
M  V30 5368 C 516.405 2.41218 5.61478 0
M  V30 5369 C 517.403 3.31499 5.97158 0
M  V30 5370 O 517.091 4.41747 6.71651 0
M  V30 5371 H 516.823 0.0558894 0.673686 0
M  V30 5372 H 519.377 0.806994 1.88883 0
M  V30 5373 H 517.607 -0.942575 3.75037 0
M  V30 5374 H 519.296 -0.615513 4.01206 0
M  V30 5375 H 520.062 1.82043 4.49539 0
M  V30 5376 H 515.941 0.596567 4.57124 0
M  V30 5377 H 519.485 3.80415 5.84748 0
M  V30 5378 H 515.382 2.57167 5.9206 0
M  V30 5379 H 516.15 4.40152 6.90079 0
M  V30 5380 N 518.813 -1.54241 0.323641 0
M  V30 5381 C 520.224 -1.85975 -0.164405 0
M  V30 5382 C 520.575 -1.24529 -1.51615 0
M  V30 5383 O 519.7 -0.551351 -2.09258 0
M  V30 5384 C 520.295 -3.37424 -0.305091 0
M  V30 5385 C 518.854 -3.69107 -0.737358 0
M  V30 5386 C 518.001 -2.76942 0.140884 0
M  V30 5387 H 520.952 -1.49088 0.543922 0
M  V30 5388 H 520.973 -3.63147 -1.13598 0
M  V30 5389 H 520.485 -3.82116 0.678876 0
M  V30 5390 H 518.586 -3.29947 -1.73107 0
M  V30 5391 H 518.699 -4.76035 -0.541053 0
M  V30 5392 H 517.063 -2.51795 -0.383572 0
M  V30 5393 H 517.846 -3.24461 1.12162 0
M  V30 5394 N 520.291 -0.0518155 -1.57515 0
M  V30 5395 C 521.223 0.951542 -2.08515 0
M  V30 5396 C 522.236 1.27436 -1.01311 0
M  V30 5397 O 523.425 1.23504 -1.28876 0
M  V30 5398 C 520.525 2.27291 -2.5138 0
M  V30 5399 C 519.698 2.13191 -3.81927 0
M  V30 5400 C 518.757 3.28458 -4.11098 0
M  V30 5401 O 517.783 3.04334 -4.81009 0
M  V30 5402 N 518.985 4.52954 -3.63061 0
M  V30 5403 H 521.75 0.516242 -2.9522 0
M  V30 5404 H 519.311 0.13441 -1.61341 0
M  V30 5405 H 521.303 3.03272 -2.67971 0
M  V30 5406 H 519.873 2.62386 -1.69919 0
M  V30 5407 H 519.093 1.21798 -3.74912 0
M  V30 5408 H 520.381 2.00999 -4.67415 0
M  V30 5409 H 519.779 4.75444 -3.06545 0
M  V30 5410 H 518.336 5.26026 -3.84889 0
M  V30 5411 N 521.769 1.56035 0.221574 0
M  V30 5412 C 523.017 1.78693 0.944102 0
M  V30 5413 C 523.338 0.620317 1.8487 0
M  V30 5414 O 522.608 -0.362784 1.92512 0
M  V30 5415 H 521.188 0.659082 0.351597 0
M  V30 5416 H 523.85 1.93497 0.233435 0
M  V30 5417 H 522.946 2.70837 1.55093 0
M  V30 5418 N 523.247 -0.488276 1.49845 0
M  V30 5419 C 524.475 -1.26527 1.63702 0
M  V30 5420 C 524.89 -1.8618 0.313447 0
M  V30 5421 O 524.247 -1.68432 -0.702624 0
M  V30 5422 C 524.298 -2.3864 2.71538 0
M  V30 5423 O 524.019 -1.81437 3.98763 0
M  V30 5424 C 525.52 -3.29805 2.96215 0
M  V30 5425 H 522.74 -0.383295 0.55075 0
M  V30 5426 H 525.284 -0.584779 1.95961 0
M  V30 5427 H 523.439 -3.02496 2.42023 0
M  V30 5428 H 523.853 -2.55135 4.58265 0
M  V30 5429 H 525.327 -4.04722 3.75372 0
M  V30 5430 H 525.804 -3.87563 2.06619 0
M  V30 5431 H 526.41 -2.71703 3.27196 0
M  V30 5432 N 524.725 -1.39134 -0.740242 0
M  V30 5433 C 526.002 -1.26584 -1.49117 0
M  V30 5434 C 526.382 0.126902 -2.10718 0
M  V30 5435 O 525.73 1.13765 -1.98166 0
M  V30 5436 C 525.94 -2.38619 -2.54681 0
M  V30 5437 C 527.288 -2.77685 -3.21211 0
M  V30 5438 O 528.312 -2.38029 -2.64991 0
M  V30 5439 O 527.171 -3.46115 -4.22926 0
M  V30 5440 H 524.265 -0.495769 -0.661923 0
M  V30 5441 H 526.811 -1.50995 -0.774514 0
M  V30 5442 H 525.583 -3.3175 -2.07504 0
M  V30 5443 H 525.206 -2.15845 -3.33911 0
M  V30 5444 N 526.204 0.969867 -1.24223 0
M  V30 5445 C 527.615 1.52717 -1.07399 0
M  V30 5446 C 527.966 1.92956 0.355298 0
M  V30 5447 O 527.091 1.77112 1.2434 0
M  V30 5448 C 527.686 2.77521 -1.94339 0
M  V30 5449 C 526.245 3.29615 -1.81744 0
M  V30 5450 C 525.392 2.02537 -1.89405 0
M  V30 5451 H 528.343 0.788399 -1.37732 0
M  V30 5452 H 528.364 3.50773 -1.47439 0
M  V30 5453 H 527.876 2.48203 -2.98357 0
M  V30 5454 H 525.977 3.63789 -0.805505 0
M  V30 5455 H 526.09 3.98661 -2.65718 0
M  V30 5456 H 524.454 2.17151 -1.33108 0
M  V30 5457 H 525.237 1.75587 -2.94999 0
M  V30 5458 N 527.682 1.05563 1.17022 0
M  V30 5459 C 528.959 0.68165 1.83338 0
M  V30 5460 C 529.339 -0.837665 1.93769 0
M  V30 5461 O 528.687 -1.74507 1.47511 0
M  V30 5462 C 528.897 1.375 3.20772 0
M  V30 5463 C 530.245 1.51545 3.96635 0
M  V30 5464 O 531.269 1.33431 3.30264 0
M  V30 5465 O 530.128 1.812 5.15586 0
M  V30 5466 H 527.222 0.240412 0.791285 0
M  V30 5467 H 529.768 1.15545 1.24288 0
M  V30 5468 H 528.54 2.41135 3.08171 0
M  V30 5469 H 528.163 0.890798 3.87493 0
M  V30 5470 N 529.16 -1.33526 0.837174 0
M  V30 5471 C 530.388 -2.02047 0.445494 0
M  V30 5472 C 530.803 -1.62995 -0.952788 0
M  V30 5473 O 530.16 -0.842447 -1.61892 0
M  V30 5474 C 530.211 -3.57221 0.554577 0
M  V30 5475 O 529.932 -3.94863 1.89776 0
M  V30 5476 C 531.433 -4.43012 0.159634 0
M  V30 5477 H 528.653 -0.647221 0.177048 0
M  V30 5478 H 531.197 -1.70492 1.12928 0
M  V30 5479 H 529.352 -3.87315 -0.0812781 0
M  V30 5480 H 529.766 -4.89569 1.88208 0
M  V30 5481 H 531.24 -5.51253 0.28701 0
M  V30 5482 H 531.717 -4.29916 -0.898289 0
M  V30 5483 H 532.323 -4.18274 0.769855 0
M  V30 5484 N 530.638 -0.59345 -1.46 0
M  V30 5485 C 531.571 0.182196 -2.27472 0
M  V30 5486 C 532.549 0.886901 -1.36282 0
M  V30 5487 O 533.733 0.898627 -1.65701 0
M  V30 5488 C 530.86 1.26236 -3.14296 0
M  V30 5489 C 529.906 0.662331 -4.21326 0
M  V30 5490 S 530.739 -0.519017 -5.32979 0
M  V30 5491 C 531.895 0.562086 -6.23371 0
M  V30 5492 H 532.128 -0.509056 -2.92909 0
M  V30 5493 H 529.661 -0.380607 -1.49635 0
M  V30 5494 H 531.619 1.88075 -3.64881 0
M  V30 5495 H 530.28 1.92562 -2.48151 0
M  V30 5496 H 529.473 1.47461 -4.81945 0
M  V30 5497 H 529.075 0.119381 -3.73809 0
M  V30 5498 H 531.367 1.44494 -6.61912 0
M  V30 5499 H 532.31 -0.00760776 -7.081 0
M  V30 5500 H 532.718 0.871061 -5.57739 0
M  V30 5501 N 532.116 1.54067 -0.331816 0
M  V30 5502 C 533.365 1.99895 0.269209 0
M  V30 5503 C 533.678 1.22371 1.52593 0
M  V30 5504 O 534.884 1.58618 2.20347 0
M  V30 5505 C 533.34 3.55972 0.530244 0
M  V30 5506 C 532.948 4.4234 -0.709901 0
M  V30 5507 C 534.692 4.10247 1.09077 0
M  V30 5508 C 532.599 5.89905 -0.420312 0
M  V30 5509 H 531.529 0.746741 0.104371 0
M  V30 5510 H 534.18 1.78014 -0.445324 0
M  V30 5511 H 532.562 3.73873 1.30518 0
M  V30 5512 H 533.736 4.36215 -1.48504 0
M  V30 5513 H 532.051 3.98997 -1.19123 0
M  V30 5514 H 534.648 5.18095 1.32219 0
M  V30 5515 H 534.991 3.62739 2.0427 0
M  V30 5516 H 535.524 3.96011 0.376824 0
M  V30 5517 H 532.263 6.41623 -1.34164 0
M  V30 5518 H 531.783 5.98962 0.316962 0
M  V30 5519 H 533.462 6.46991 -0.0331956 0
M  V30 5520 N 533.594 0.0601682 1.57485 0
M  V30 5521 C 534.541 -0.91112 2.12055 0
M  V30 5522 C 535.511 -1.30298 1.03013 0
M  V30 5523 O 536.696 -1.39087 1.30612 0
M  V30 5524 C 533.836 -2.1775 2.67729 0
M  V30 5525 C 532.949 -1.83933 3.90887 0
M  V30 5526 C 532.084 -3.05096 4.34845 0
M  V30 5527 C 531.123 -2.67241 5.5068 0
M  V30 5528 N 530.26 -3.81127 5.8965 0
M  V30 5529 H 535.1 -0.43888 2.9475 0
M  V30 5530 H 532.637 -0.204995 1.45665 0
M  V30 5531 H 534.595 -2.91866 2.98111 0
M  V30 5532 H 533.225 -2.62535 1.87816 0
M  V30 5533 H 532.277 -0.999287 3.6704 0
M  V30 5534 H 533.589 -1.52074 4.75052 0
M  V30 5535 H 532.743 -3.87502 4.66827 0
M  V30 5536 H 531.482 -3.40139 3.49509 0
M  V30 5537 H 530.487 -1.83254 5.18361 0
M  V30 5538 H 531.712 -2.3338 6.37738 0
M  V30 5539 H 529.658 -4.15954 5.07266 0
M  V30 5540 H 529.575 -3.52997 6.68528 0
M  V30 5541 H 530.843 -4.64145 6.2625 0
M  V30 5542 N 535.072 -1.5615 -0.213296 0
M  V30 5543 C 536.004 -1.89586 -1.28802 0
M  V30 5544 C 537.017 -0.784844 -1.42633 0
M  V30 5545 O 538.206 -1.06319 -1.43383 0
M  V30 5546 C 535.306 -2.09665 -2.66259 0
M  V30 5547 C 534.479 -3.40726 -2.7427 0
M  V30 5548 C 533.538 -3.50137 -3.92798 0
M  V30 5549 O 532.564 -4.23105 -3.8075 0
M  V30 5550 N 533.766 -2.81886 -5.07465 0
M  V30 5551 H 536.531 -2.82368 -1.00442 0
M  V30 5552 H 534.092 -1.56796 -0.403302 0
M  V30 5553 H 536.084 -2.13268 -3.43946 0
M  V30 5554 H 534.654 -1.23469 -2.87183 0
M  V30 5555 H 533.874 -3.4915 -1.82997 0
M  V30 5556 H 535.162 -4.27048 -2.76599 0
M  V30 5557 H 534.56 -2.22397 -5.2015 0
M  V30 5558 H 533.117 -2.91139 -5.83165 0
M  V30 5559 N 536.55 0.480323 -1.50102 0
M  V30 5560 C 537.796 1.23489 -1.60867 0
M  V30 5561 C 538.129 1.91809 -0.303827 0
M  V30 5562 O 537.404 1.81694 0.694092 0
M  V30 5563 C 537.687 2.28578 -2.78252 0
M  V30 5564 C 537.54 1.64624 -4.18592 0
M  V30 5565 C 538.859 3.2997 -2.91218 0
M  V30 5566 H 535.978 0.447605 -0.585507 0
M  V30 5567 H 538.62 0.530005 -1.82458 0
M  V30 5568 H 536.77 2.88697 -2.59974 0
M  V30 5569 H 538.442 1.08173 -4.48438 0
M  V30 5570 H 536.685 0.949645 -4.23278 0
M  V30 5571 H 537.356 2.40946 -4.96638 0
M  V30 5572 H 539.832 2.79864 -3.07921 0
M  V30 5573 H 538.708 4.00839 -3.74993 0
M  V30 5574 H 538.969 3.93541 -2.0144 0
M  V30 5575 N 538.028 1.39524 0.732853 0
M  V30 5576 C 538.958 1.41153 1.86005 0
M  V30 5577 C 539.939 0.274614 1.67869 0
M  V30 5578 O 541.124 0.480745 1.88155 0
M  V30 5579 C 538.254 1.25638 3.23778 0
M  V30 5580 C 537.208 2.36752 3.56556 0
M  V30 5581 C 536.534 2.06326 4.93289 0
M  V30 5582 C 537.834 3.79069 3.5931 0
M  V30 5583 H 539.528 2.35484 1.84899 0
M  V30 5584 H 537.074 1.13348 0.888162 0
M  V30 5585 H 539.027 1.25398 4.0231 0
M  V30 5586 H 537.751 0.277772 3.25417 0
M  V30 5587 H 536.41 2.36213 2.80355 0
M  V30 5588 H 536.058 1.06897 4.9151 0
M  V30 5589 H 535.758 2.80757 5.16187 0
M  V30 5590 H 537.282 2.07739 5.74175 0
M  V30 5591 H 538.696 3.81526 4.27914 0
M  V30 5592 H 537.093 4.52878 3.93728 0
M  V30 5593 H 538.163 4.09893 2.59068 0
M  V30 5594 N 539.506 -0.963266 1.24736 0
M  V30 5595 C 540.783 -1.68248 0.9976 0
M  V30 5596 C 541.163 -2.05599 -0.478776 0
M  V30 5597 O 540.511 -1.7626 -1.45412 0
M  V30 5598 C 540.721 -2.91118 1.92487 0
M  V30 5599 C 542.069 -3.63261 2.19833 0
M  V30 5600 O 543.093 -3.01184 1.90176 0
M  V30 5601 O 541.952 -4.75019 2.7022 0
M  V30 5602 H 539.046 -0.735744 0.377637 0
M  V30 5603 H 541.592 -1.01696 1.35853 0
M  V30 5604 H 540.364 -2.60242 2.92215 0
M  V30 5605 H 539.987 -3.65402 1.56738 0
M  V30 5606 N 540.985 -1.06182 -1.16461 0
M  V30 5607 C 541.932 -0.671613 -2.20812 0
M  V30 5608 C 542.902 0.331186 -1.62765 0
M  V30 5609 O 544.087 0.22033 -1.89524 0
M  V30 5610 C 541.227 -0.063029 -3.45042 0
M  V30 5611 C 540.34 -1.11587 -4.1734 0
M  V30 5612 C 539.475 -0.473546 -5.29085 0
M  V30 5613 C 538.514 -1.51 -5.93182 0
M  V30 5614 N 537.651 -0.891118 -6.96422 0
M  V30 5615 H 542.491 -1.56589 -2.53542 0
M  V30 5616 H 540.028 -0.782951 -1.24532 0
M  V30 5617 H 541.986 0.307344 -4.16066 0
M  V30 5618 H 540.616 0.794663 -3.12866 0
M  V30 5619 H 539.668 -1.60396 -3.44931 0
M  V30 5620 H 540.98 -1.90221 -4.61104 0
M  V30 5621 H 540.134 -0.0501432 -6.06679 0
M  V30 5622 H 538.873 0.344687 -4.8648 0
M  V30 5623 H 537.878 -1.94331 -5.14311 0
M  V30 5624 H 539.103 -2.33031 -6.37866 0
M  V30 5625 H 537.049 -0.0935753 -6.55933 0
M  V30 5626 H 536.966 -1.61486 -7.38551 0
M  V30 5627 H 538.234 -0.492822 -7.77941 0
M  V30 5628 N 542.463 1.3308 -0.844243 0
M  V30 5629 C 543.71 1.97605 -0.44255 0
M  V30 5630 C 544.038 1.66856 0.999458 0
M  V30 5631 O 543.293 0.943586 1.7145 0
M  V30 5632 C 543.592 3.52045 -0.616354 0
M  V30 5633 C 543.258 4.02757 -2.02726 0
M  V30 5634 C 541.92 4.16316 -2.41317 0
M  V30 5635 C 544.272 4.29776 -2.9486 0
M  V30 5636 C 541.6 4.54232 -3.71335 0
M  V30 5637 C 543.952 4.69146 -4.24364 0
M  V30 5638 C 542.616 4.80911 -4.62904 0
M  V30 5639 H 541.886 0.723088 -0.161941 0
M  V30 5640 H 544.533 1.58663 -1.0723 0
M  V30 5641 H 542.838 3.91681 0.0966812 0
M  V30 5642 H 544.535 3.99981 -0.285756 0
M  V30 5643 H 541.125 3.9268 -1.71756 0
M  V30 5644 H 545.309 4.18818 -2.6628 0
M  V30 5645 H 540.565 4.61535 -4.00993 0
M  V30 5646 H 544.739 4.89008 -4.95827 0
M  V30 5647 H 542.366 5.10048 -5.63698 0
M  V30 5648 N 543.941 0.601185 1.45683 0
M  V30 5649 C 545.166 0.0982245 2.07167 0
M  V30 5650 C 545.591 -1.20546 1.44396 0
M  V30 5651 O 544.949 -1.73247 0.534347 0
M  V30 5652 C 544.997 -0.0346976 3.60583 0
M  V30 5653 O 544.101 -1.08657 3.97828 0
M  V30 5654 H 543.442 0.0711618 0.660176 0
M  V30 5655 H 545.972 0.829376 1.87036 0
M  V30 5656 H 545.982 -0.234969 4.07323 0
M  V30 5657 H 544.657 0.917265 4.05659 0
M  V30 5658 H 543.234 -0.863275 3.6277 0
M  V30 5659 N 545.419 -1.53889 0.339982 0
M  V30 5660 C 546.667 -2.00458 -0.257112 0
M  V30 5661 C 546.988 -1.22953 -1.51353 0
M  V30 5662 O 546.258 -0.335734 -1.93002 0
M  V30 5663 H 544.838 -0.740544 -0.0979965 0
M  V30 5664 H 547.5 -1.89386 0.460317 0
M  V30 5665 H 546.596 -3.08035 -0.502057 0
M  V30 5666 N 546.897 -0.0685191 -1.57451 0
M  V30 5667 C 548.146 0.600898 -1.92541 0
M  V30 5668 C 548.459 1.70967 -0.950239 0
M  V30 5669 O 549.665 2.43844 -1.19384 0
M  V30 5670 C 548.121 1.12019 -3.42023 0
M  V30 5671 C 547.729 0.0426028 -4.4798 0
M  V30 5672 C 549.473 1.76386 -3.86119 0
M  V30 5673 C 547.38 0.575759 -5.88591 0
M  V30 5674 H 546.31 0.228225 -0.71863 0
M  V30 5675 H 548.961 -0.140223 -1.82963 0
M  V30 5676 H 547.343 1.91418 -3.46663 0
M  V30 5677 H 548.517 -0.73182 -4.54952 0
M  V30 5678 H 546.832 -0.504642 -4.13331 0
M  V30 5679 H 549.429 2.17302 -4.88553 0
M  V30 5680 H 549.772 2.62255 -3.23308 0
M  V30 5681 H 550.305 1.03615 -3.84069 0
M  V30 5682 H 547.044 -0.245691 -6.55039 0
M  V30 5683 H 546.564 1.31778 -5.85145 0
M  V30 5684 H 548.243 1.0532 -6.3837 0
M  V30 5685 N 548.375 1.56261 0.205012 0
M  V30 5686 C 549.305 1.96779 1.257 0
M  V30 5687 C 550.286 0.838309 1.48008 0
M  V30 5688 O 551.471 1.10189 1.59913 0
M  V30 5689 C 548.601 2.29876 2.60335 0
M  V30 5690 C 547.555 3.45469 2.52656 0
M  V30 5691 C 546.881 3.64215 3.91473 0
M  V30 5692 C 548.181 4.79954 2.06014 0
M  V30 5693 H 549.875 2.84904 0.920338 0
M  V30 5694 H 547.421 1.37072 0.441277 0
M  V30 5695 H 549.374 2.56814 3.34102 0
M  V30 5696 H 548.098 1.38622 2.95722 0
M  V30 5697 H 546.757 3.18605 1.81345 0
M  V30 5698 H 546.405 2.70309 4.24196 0
M  V30 5699 H 546.105 4.41973 3.87213 0
M  V30 5700 H 547.629 3.93519 4.66878 0
M  V30 5701 H 549.043 5.05989 2.69533 0
M  V30 5702 H 547.44 5.61111 2.12777 0
M  V30 5703 H 548.51 4.74201 1.01297 0
M  V30 5704 N 549.853 -0.472356 1.50355 0
M  V30 5705 C 551.13 -1.23356 1.51798 0
M  V30 5706 C 551.51 -2.09469 0.26193 0
M  V30 5707 O 550.858 -2.15677 -0.754691 0
M  V30 5708 C 551.068 -2.06568 2.81302 0
M  V30 5709 C 552.416 -2.648 3.31913 0
M  V30 5710 O 553.44 -2.16812 2.82614 0
M  V30 5711 O 552.299 -3.52231 4.17846 0
M  V30 5712 H 549.393 -0.559707 0.608816 0
M  V30 5713 H 551.939 -0.48428 1.62643 0
M  V30 5714 H 550.711 -1.43103 3.64194 0
M  V30 5715 H 550.334 -2.88633 2.73454 0
M  V30 5716 N 551.331 -1.39911 -0.725443 0
M  V30 5717 C 552.577 -1.37858 -1.48738 0
M  V30 5718 C 552.91 0.0224187 -1.94187 0
M  V30 5719 O 552.185 0.989204 -1.67466 0
M  V30 5720 C 552.468 -2.3594 -2.72038 0
M  V30 5721 C 552.321 -3.85023 -2.32546 0
M  V30 5722 C 553.64 -2.31704 -3.74167 0
M  V30 5723 H 550.759 -0.502074 -0.539528 0
M  V30 5724 H 553.401 -1.70974 -0.828728 0
M  V30 5725 H 551.551 -2.0783 -3.28236 0
M  V30 5726 H 553.223 -4.2392 -1.81905 0
M  V30 5727 H 551.466 -4.01334 -1.64661 0
M  V30 5728 H 552.137 -4.49152 -3.20884 0
M  V30 5729 H 554.613 -2.5658 -3.27576 0
M  V30 5730 H 553.489 -3.02395 -4.58092 0
M  V30 5731 H 553.75 -1.3253 -4.21768 0
M  V30 5732 N 552.809 0.956637 -1.25245 0
M  V30 5733 C 554.037 1.73571 -1.12608 0
M  V30 5734 C 554.452 1.86063 0.320324 0
M  V30 5735 O 553.809 1.35691 1.22042 0
M  V30 5736 C 553.86 3.15053 -1.77268 0
M  V30 5737 O 553.581 3.03174 -3.16255 0
M  V30 5738 C 555.082 4.09248 -1.70386 0
M  V30 5739 H 552.302 0.543955 -0.392879 0
M  V30 5740 H 554.846 1.20031 -1.65568 0
M  V30 5741 H 553.001 3.65543 -1.28284 0
M  V30 5742 H 553.415 3.9241 -3.48015 0
M  V30 5743 H 554.889 5.06138 -2.20291 0
M  V30 5744 H 555.366 4.34102 -0.667239 0
M  V30 5745 H 555.972 3.64672 -2.18849 0
M  V30 5746 N 554.287 1.06798 1.15896 0
M  V30 5747 C 555.517 0.807522 1.90165 0
M  V30 5748 C 555.925 -0.642417 1.7796 0
M  V30 5749 O 555.268 -1.45193 1.12537 0
M  V30 5750 C 555.33 1.12939 3.41299 0
M  V30 5751 C 554.994 2.57879 3.7729 0
M  V30 5752 C 555.991 3.56118 3.78782 0
M  V30 5753 C 553.676 2.93311 4.07767 0
M  V30 5754 C 555.67 4.87827 4.10248 0
M  V30 5755 C 553.357 4.25219 4.38899 0
M  V30 5756 C 554.355 5.22287 4.4012 0
M  V30 5757 O 554.043 6.51826 4.70508 0
M  V30 5758 H 553.775 0.291946 0.609708 0
M  V30 5759 H 556.329 1.42627 1.47806 0
M  V30 5760 H 554.559 0.45359 3.84031 0
M  V30 5761 H 556.248 0.852363 3.9685 0
M  V30 5762 H 557.014 3.30086 3.55342 0
M  V30 5763 H 552.893 2.18409 4.05979 0
M  V30 5764 H 556.437 5.63586 4.11116 0
M  V30 5765 H 552.334 4.51006 4.61805 0
M  V30 5766 H 553.102 6.56893 4.88298 0
M  V30 5767 N 555.766 -1.3263 0.851289 0
M  V30 5768 C 556.714 -2.30882 0.282202 0
M  V30 5769 C 557.708 -1.58697 -0.592589 0
M  V30 5770 O 558.914 -1.73461 -0.480768 0
M  V30 5771 H 555.289 -0.748492 0.0725487 0
M  V30 5772 H 557.26 -2.76374 1.12516 0
M  V30 5773 C 556.009 -3.43828 -0.517449 0
M  V30 5774 H 555.332 -3.99532 0.146392 0
M  V30 5775 H 556.772 -4.1474 -0.88128 0
M  V30 5776 C 555.231 -2.90786 -1.70133 0
M  V30 5777 O 555.761 -2.88 -2.80034 0
M  V30 5778 N 553.967 -2.4723 -1.52728 0
M  V30 5779 H 553.514 -2.49695 -0.633257 0
M  V30 5780 H 553.472 -2.12094 -2.32085 0
M  V30 5781 N 557.244 -0.608902 -1.45362 0
M  V30 5782 C 558.492 -0.104401 -2.0183 0
M  V30 5783 C 558.813 1.27007 -1.47967 0
M  V30 5784 O 558.083 1.83924 -0.674455 0
M  V30 5785 H 556.663 -0.0356042 -0.746151 0
M  V30 5786 H 559.325 -0.790596 -1.78145 0
M  V30 5787 H 558.421 -0.0551793 -3.12051 0
M  V30 5788 N 558.722 1.53707 -0.348139 0
M  V30 5789 C 559.969 2.00988 0.246966 0
M  V30 5790 C 560.297 1.23586 1.50189 0
M  V30 5791 O 559.552 0.312817 1.93184 0
M  V30 5792 C 559.851 3.52292 0.602061 0
M  V30 5793 C 559.517 4.47453 -0.556509 0
M  V30 5794 C 558.179 4.73188 -0.874446 0
M  V30 5795 C 560.531 5.03851 -1.33354 0
M  V30 5796 C 557.859 5.52577 -1.9717 0
M  V30 5797 C 560.211 5.84437 -2.42108 0
M  V30 5798 C 558.875 6.08465 -2.74456 0
M  V30 5799 H 558.145 0.735469 0.0903712 0
M  V30 5800 H 560.792 1.85464 -0.477001 0
M  V30 5801 H 559.097 3.65672 1.40681 0
M  V30 5802 H 560.794 3.86337 1.07447 0
M  V30 5803 H 557.384 4.27558 -0.298652 0
M  V30 5804 H 561.568 4.8393 -1.10117 0
M  V30 5805 H 556.824 5.69418 -2.22651 0
M  V30 5806 H 560.998 6.27151 -3.02745 0
M  V30 5807 H 558.625 6.69768 -3.59604 0
M  V30 5808 N 560.2 0.0768682 1.57412 0
M  V30 5809 C 561.11 -0.903207 2.16516 0
M  V30 5810 C 562.126 -1.32341 1.12968 0
M  V30 5811 O 563.302 -1.39507 1.45258 0
M  V30 5812 C 560.367 -2.1508 2.71922 0
M  V30 5813 C 559.428 -1.78653 3.90361 0
M  V30 5814 C 558.661 -2.97465 4.43114 0
M  V30 5815 O 558.884 -4.11638 3.94854 0
M  V30 5816 O 557.818 -2.76987 5.3438 0
M  V30 5817 H 561.644 -0.430427 3.00634 0
M  V30 5818 H 559.229 -0.146485 1.4868 0
M  V30 5819 H 561.111 -2.8823 3.07411 0
M  V30 5820 H 559.786 -2.61446 1.9086 0
M  V30 5821 H 558.693 -1.0274 3.59716 0
M  V30 5822 H 560.026 -1.37066 4.7273 0
M  V30 5823 N 561.678 -1.56367 -0.196722 0
M  V30 5824 C 562.588 -1.97617 -1.2643 0
M  V30 5825 C 563.604 -0.883598 -1.49895 0
M  V30 5826 O 564.78 -1.18921 -1.62541 0
M  V30 5827 C 561.845 -2.30595 -2.58895 0
M  V30 5828 C 560.906 -3.53551 -2.43516 0
M  V30 5829 C 560.139 -3.84946 -3.69665 0
M  V30 5830 O 560.362 -3.17655 -4.73763 0
M  V30 5831 O 559.296 -4.78379 -3.65291 0
M  V30 5832 H 563.122 -2.88648 -0.944233 0
M  V30 5833 H 560.707 -1.43901 -0.401592 0
M  V30 5834 H 562.589 -2.52889 -3.37083 0
M  V30 5835 H 561.264 -1.42732 -2.90533 0
M  V30 5836 H 560.171 -3.36507 -1.63445 0
M  V30 5837 H 561.504 -4.41875 -2.16812 0
M  V30 5838 N 563.156 0.464375 -1.50603 0
M  V30 5839 C 564.567 1.04507 -1.5471 0
M  V30 5840 C 564.918 1.9297 -0.354542 0
M  V30 5841 O 564.043 2.09763 0.531812 0
M  V30 5842 C 564.638 1.90207 -2.80369 0
M  V30 5843 C 563.197 2.43373 -2.87135 0
M  V30 5844 C 562.344 1.21886 -2.49076 0
M  V30 5845 H 565.295 0.246716 -1.56771 0
M  V30 5846 H 565.316 2.75353 -2.62604 0
M  V30 5847 H 564.828 1.25796 -3.67147 0
M  V30 5848 H 562.929 3.11318 -2.04724 0
M  V30 5849 H 563.042 2.7802 -3.90181 0
M  V30 5850 H 561.406 1.55575 -2.01664 0
M  V30 5851 H 562.189 0.591268 -3.3817 0
M  V30 5852 N 564.634 1.40294 0.718013 0
M  V30 5853 C 565.584 1.36847 1.82365 0
M  V30 5854 C 566.568 0.246424 1.59002 0
M  V30 5855 O 567.76 0.485336 1.70216 0
M  V30 5856 C 564.889 1.23105 3.20469 0
M  V30 5857 C 563.975 2.4008 3.49603 0
M  V30 5858 N 564.366 3.65562 3.49568 0
M  V30 5859 C 562.664 2.33407 3.80049 0
M  V30 5860 C 563.365 4.43015 3.76978 0
M  V30 5861 N 562.341 3.72823 3.95606 0
M  V30 5862 H 566.143 2.31811 1.80668 0
M  V30 5863 H 563.657 1.34031 0.91703 0
M  V30 5864 H 565.654 1.18718 3.9964 0
M  V30 5865 H 564.314 0.291056 3.23393 0
M  V30 5866 H 565.325 3.98756 3.30476 0
M  V30 5867 H 562.002 1.47762 3.90478 0
M  V30 5868 H 563.392 5.51859 3.83276 0
M  V30 5869 N 566.112 -0.949982 1.2575 0
M  V30 5870 C 567.342 -1.72721 1.13363 0
M  V30 5871 C 567.75 -1.86562 -0.314842 0
M  V30 5872 O 567.093 -1.36621 -1.22803 0
M  V30 5873 C 567.155 -3.15695 1.7198 0
M  V30 5874 C 566.819 -3.25268 3.21014 0
M  V30 5875 C 567.816 -3.09222 4.17945 0
M  V30 5876 C 565.501 -3.4894 3.61312 0
M  V30 5877 C 567.495 -3.16701 5.53154 0
M  V30 5878 C 565.182 -3.56055 4.96657 0
M  V30 5879 C 566.18 -3.3995 5.92387 0
M  V30 5880 O 565.868 -3.46757 7.25269 0
M  V30 5881 H 565.6 -0.547888 0.395973 0
M  V30 5882 H 568.154 -1.20009 1.66694 0
M  V30 5883 H 566.384 -3.69791 1.13101 0
M  V30 5884 H 568.073 -3.75295 1.54624 0
M  V30 5885 H 568.839 -2.90798 3.88151 0
M  V30 5886 H 564.718 -3.60534 2.87291 0
M  V30 5887 H 568.262 -3.04048 6.27854 0
M  V30 5888 H 564.159 -3.73997 5.26115 0
M  V30 5889 H 564.927 -3.63358 7.33426 0
M  V30 5890 N 567.59 -1.07411 -1.15328 0
M  V30 5891 C 568.836 -0.798831 -1.86404 0
M  V30 5892 C 569.169 0.673433 -1.8215 0
M  V30 5893 O 568.444 1.49428 -1.24505 0
M  V30 5894 C 568.727 -1.30846 -3.35487 0
M  V30 5895 C 568.58 -2.84532 -3.4837 0
M  V30 5896 C 569.899 -0.925486 -4.30259 0
M  V30 5897 H 567.018 -0.291659 -0.676834 0
M  V30 5898 H 569.66 -1.332 -1.35491 0
M  V30 5899 H 567.81 -0.854916 -3.78977 0
M  V30 5900 H 569.482 -3.3818 -3.13739 0
M  V30 5901 H 567.725 -3.22699 -2.8991 0
M  V30 5902 H 568.396 -3.15259 -4.53118 0
M  V30 5903 H 570.872 -1.3163 -3.94731 0
M  V30 5904 H 569.748 -1.3094 -5.33053 0
M  V30 5905 H 570.009 0.168525 -4.41779 0
M  V30 5906 N 569.068 1.32177 -0.85831 0
M  V30 5907 C 570.479 1.79381 -0.517621 0
M  V30 5908 C 570.83 1.70841 0.964769 0
M  V30 5909 O 569.955 1.26917 1.75274 0
M  V30 5910 C 570.55 3.25706 -0.932801 0
M  V30 5911 C 569.109 3.70851 -0.643953 0
M  V30 5912 C 568.256 2.53208 -1.13054 0
M  V30 5913 H 571.207 1.19424 -1.04516 0
M  V30 5914 H 571.228 3.79673 -0.250674 0
M  V30 5915 H 570.74 3.31889 -2.01174 0
M  V30 5916 H 568.841 3.70178 0.424112 0
M  V30 5917 H 568.954 4.63495 -1.21281 0
M  V30 5918 H 567.318 2.48676 -0.550679 0
M  V30 5919 H 568.101 2.62143 -2.21666 0
M  V30 5920 N 570.547 0.616602 1.45037 0
M  V30 5921 C 571.795 0.115103 2.01772 0
M  V30 5922 C 572.116 -1.2622 1.48639 0
M  V30 5923 O 571.386 -1.83563 0.684199 0
M  V30 5924 H 569.966 0.0395607 0.745952 0
M  V30 5925 H 572.628 0.800032 1.77723 0
M  V30 5926 H 571.724 0.0717274 3.12018 0
M  V30 5927 N 572.025 -1.5352 0.356285 0
M  V30 5928 C 573.25 -2.06007 -0.239961 0
M  V30 5929 C 573.675 -1.22872 -1.42422 0
M  V30 5930 O 573.033 -0.245516 -1.7963 0
M  V30 5931 C 573.081 -3.5522 -0.620587 0
M  V30 5932 O 572.185 -3.74864 -1.71902 0
M  V30 5933 H 571.526 -0.662961 -0.0371377 0
M  V30 5934 H 574.056 -1.98033 0.514194 0
M  V30 5935 H 574.066 -3.98081 -0.894197 0
M  V30 5936 H 572.741 -4.15175 0.245407 0
M  V30 5937 H 571.318 -3.43904 -1.44169 0
M  V30 5938 N 573.503 -0.0852151 -1.57369 0
M  V30 5939 C 574.78 0.622534 -1.85429 0
M  V30 5940 C 575.16 1.86962 -0.980229 0
M  V30 5941 O 574.508 2.28445 -0.0500219 0
M  V30 5942 C 574.718 0.947374 -3.35896 0
M  V30 5943 C 576.066 1.31509 -4.03721 0
M  V30 5944 O 577.09 1.03869 -3.40719 0
M  V30 5945 O 575.949 1.83231 -5.14868 0
M  V30 5946 H 573.043 0.310513 -0.766492 0
M  V30 5947 H 575.589 -0.117164 -1.69295 0
M  V30 5948 H 574.361 0.0622264 -3.91251 0
M  V30 5949 H 573.984 1.74338 -3.5734 0
M  V30 5950 N 574.981 1.5647 0.188427 0
M  V30 5951 C 576.392 1.70864 0.752494 0
M  V30 5952 C 576.743 0.692905 1.83557 0
M  V30 5953 O 575.868 -0.149307 2.15884 0
M  V30 5954 C 576.463 3.09789 1.37173 0
M  V30 5955 C 575.022 3.25925 1.88281 0
M  V30 5956 C 574.169 2.66817 0.755259 0
M  V30 5957 H 577.12 1.58657 -0.0367408 0
M  V30 5958 H 577.141 3.07489 2.24122 0
M  V30 5959 H 576.653 3.83693 0.583219 0
M  V30 5960 H 574.754 2.56948 2.6983 0
M  V30 5961 H 574.867 4.33498 2.04001 0
M  V30 5962 H 573.231 2.2617 1.17128 0
M  V30 5963 H 574.014 3.43294 -0.0211237 0
M  V30 5964 N 576.459 -0.456382 1.50847 0
M  V30 5965 C 577.392 -1.57177 1.65441 0
M  V30 5966 C 578.37 -1.54649 0.502224 0
M  V30 5967 O 579.554 -1.74057 0.723633 0
M  V30 5968 C 576.681 -2.95763 1.65052 0
M  V30 5969 C 575.727 -3.16389 2.86007 0
M  V30 5970 S 576.56 -2.94716 4.47105 0
M  V30 5971 C 577.716 -4.35617 4.49432 0
M  V30 5972 H 577.949 -1.44561 2.59787 0
M  V30 5973 H 575.482 -0.644758 1.40293 0
M  V30 5974 H 577.44 -3.75654 1.65512 0
M  V30 5975 H 576.101 -3.05756 0.719153 0
M  V30 5976 H 575.294 -4.17667 2.82081 0
M  V30 5977 H 574.896 -2.44293 2.8319 0
M  V30 5978 H 577.188 -5.28503 4.239 0
M  V30 5979 H 578.131 -4.44582 5.51137 0
M  V30 5980 H 578.539 -4.18382 3.78967 0
M  V30 5981 N 577.937 -1.40673 -0.710563 0
M  V30 5982 C 579.183 -1.39428 -1.47267 0
M  V30 5983 C 579.516 0.00182129 -1.942 0
M  V30 5984 O 578.791 0.971387 -1.68506 0
M  V30 5985 C 579.074 -2.38812 -2.6952 0
M  V30 5986 C 578.927 -3.87467 -2.28449 0
M  V30 5987 C 580.246 -2.3566 -3.71689 0
M  V30 5988 H 577.365 -0.507768 -0.534173 0
M  V30 5989 H 580.007 -1.71843 -0.810547 0
M  V30 5990 H 578.157 -2.113 -3.26013 0
M  V30 5991 H 579.829 -4.25825 -1.77399 0
M  V30 5992 H 578.072 -4.03058 -1.60395 0
M  V30 5993 H 578.743 -4.5253 -3.16103 0
M  V30 5994 H 581.219 -2.6004 -3.24836 0
M  V30 5995 H 580.095 -3.07237 -4.54859 0
M  V30 5996 H 580.356 -1.36996 -4.20339 0
M  V30 5997 N 579.415 0.9433 -1.26252 0
M  V30 5998 C 580.347 2.04542 -1.03417 0
M  V30 5999 C 581.36 1.62799 0.0046911 0
M  V30 6000 O 582.549 1.76944 -0.235146 0
M  V30 6001 C 579.649 3.34511 -0.543671 0
M  V30 6002 C 578.822 4.05033 -1.65128 0
M  V30 6003 C 577.881 5.13273 -1.1592 0
M  V30 6004 O 576.907 5.38095 -1.85586 0
M  V30 6005 N 578.109 5.805 -0.00649279 0
M  V30 6006 H 580.874 2.24699 -1.98319 0
M  V30 6007 H 578.435 1.11264 -1.1761 0
M  V30 6008 H 580.427 4.04212 -0.198703 0
M  V30 6009 H 578.997 3.11042 0.311711 0
M  V30 6010 H 578.217 3.29275 -2.16729 0
M  V30 6011 H 579.505 4.48903 -2.39508 0
M  V30 6012 H 578.903 5.62767 0.575347 0
M  V30 6013 H 577.46 6.51201 0.279416 0
M  V30 6014 N 580.893 1.08022 1.14757 0
M  V30 6015 C 582.121 0.828847 1.89572 0
M  V30 6016 C 582.536 -0.618621 1.78377 0
M  V30 6017 O 581.893 -1.42482 1.1404 0
M  V30 6018 C 581.944 1.23677 3.39685 0
M  V30 6019 O 581.665 2.62746 3.50566 0
M  V30 6020 C 583.166 1.01569 4.31507 0
M  V30 6021 H 580.386 0.299196 0.600602 0
M  V30 6022 H 582.93 1.43846 1.45357 0
M  V30 6023 H 581.085 0.671347 3.81539 0
M  V30 6024 H 581.499 2.79573 4.43778 0
M  V30 6025 H 582.973 1.35055 5.35223 0
M  V30 6026 H 583.45 -0.0475433 4.39174 0
M  V30 6027 H 584.056 1.56636 3.95405 0
M  V30 6028 N 582.371 -1.3172 0.865308 0
M  V30 6029 C 583.301 -2.31109 0.333302 0
M  V30 6030 C 584.282 -1.60148 -0.573301 0
M  V30 6031 O 585.467 -1.87882 -0.491305 0
M  V30 6032 C 582.597 -3.44104 -0.470078 0
M  V30 6033 C 581.551 -4.26623 0.343021 0
M  V30 6034 C 580.877 -5.31482 -0.585756 0
M  V30 6035 C 582.177 -4.98001 1.57456 0
M  V30 6036 H 583.871 -2.75855 1.1638 0
M  V30 6037 H 581.417 -1.3262 0.561069 0
M  V30 6038 H 583.37 -4.12682 -0.852752 0
M  V30 6039 H 582.094 -2.98112 -1.33404 0
M  V30 6040 H 580.753 -3.59707 0.707583 0
M  V30 6041 H 580.401 -4.81741 -1.44686 0
M  V30 6042 H 580.101 -5.87582 -0.0456494 0
M  V30 6043 H 581.625 -6.0292 -0.965375 0
M  V30 6044 H 583.039 -5.59201 1.26359 0
M  V30 6045 H 581.436 -5.63876 2.05339 0
M  V30 6046 H 582.506 -4.25253 2.32997 0
M  V30 6047 N 583.85 -0.624285 -1.44708 0
M  V30 6048 C 584.779 0.0717025 -2.3339 0
M  V30 6049 C 585.76 0.841814 -1.47809 0
M  V30 6050 O 586.946 0.809056 -1.76544 0
M  V30 6051 C 584.076 1.05852 -3.30776 0
M  V30 6052 C 583.029 0.400503 -4.26122 0
M  V30 6053 C 582.356 1.49674 -5.13324 0
M  V30 6054 C 583.656 -0.688924 -5.17737 0
M  V30 6055 H 585.35 -0.668819 -2.91834 0
M  V30 6056 H 582.896 -0.32308 -1.40329 0
M  V30 6057 H 584.849 1.5541 -3.91696 0
M  V30 6058 H 583.572 1.82984 -2.70526 0
M  V30 6059 H 582.231 -0.0743687 -3.66525 0
M  V30 6060 H 581.88 2.25877 -4.49431 0
M  V30 6061 H 581.58 1.06188 -5.77926 0
M  V30 6062 H 583.104 1.99427 -5.77115 0
M  V30 6063 H 584.518 -0.276724 -5.72632 0
M  V30 6064 H 582.915 -1.04652 -5.90904 0
M  V30 6065 H 583.985 -1.55884 -4.5916 0
M  V30 6066 N 585.328 1.53329 -0.364422 0
M  V30 6067 C 586.275 2.25698 0.482607 0
M  V30 6068 C 587.245 1.26325 1.07848 0
M  V30 6069 O 588.43 1.55104 1.11119 0
M  V30 6070 C 585.57 3.04873 1.61699 0
M  V30 6071 C 584.683 4.19135 1.0464 0
M  V30 6072 C 583.818 4.85754 2.14979 0
M  V30 6073 C 582.857 5.9205 1.5538 0
M  V30 6074 N 581.994 6.52365 2.59547 0
M  V30 6075 H 586.834 2.97666 -0.141032 0
M  V30 6076 H 584.371 1.46875 -0.0813692 0
M  V30 6077 H 586.329 3.49051 2.28516 0
M  V30 6078 H 584.959 2.35162 2.2113 0
M  V30 6079 H 584.011 3.79451 0.268553 0
M  V30 6080 H 585.323 4.95525 0.570653 0
M  V30 6081 H 584.477 5.3311 2.89619 0
M  V30 6082 H 583.216 4.08834 2.65906 0
M  V30 6083 H 582.221 5.44058 0.792549 0
M  V30 6084 H 583.446 6.7089 1.0528 0
M  V30 6085 H 581.392 5.78298 3.09689 0
M  V30 6086 H 581.309 7.2429 2.16655 0
M  V30 6087 H 582.577 7.0437 3.33892 0
M  V30 6088 N 586.806 0.0935595 1.57322 0
M  V30 6089 C 588.052 -0.571355 1.94585 0
M  V30 6090 C 588.385 -1.67929 0.975366 0
M  V30 6091 O 587.66 -1.94498 0.00816206 0
M  V30 6092 C 587.943 -1.12797 3.41978 0
M  V30 6093 C 587.796 -0.0251881 4.49793 0
M  V30 6094 C 589.115 -2.02682 3.90651 0
M  V30 6095 H 586.234 -0.206223 0.70756 0
M  V30 6096 H 588.876 0.163956 1.89291 0
M  V30 6097 H 587.026 -1.75461 3.4662 0
M  V30 6098 H 588.698 0.608979 4.57263 0
M  V30 6099 H 586.941 0.641399 4.29032 0
M  V30 6100 H 587.612 -0.455433 5.50118 0
M  V30 6101 H 590.088 -1.49925 3.88152 0
M  V30 6102 H 588.964 -2.38555 4.94351 0
M  V30 6103 H 589.225 -2.94362 3.29854 0
M  V30 6104 N 588.284 -1.56567 -0.180126 0
M  V30 6105 C 589.514 -1.85349 -0.912647 0
M  V30 6106 C 589.922 -0.675795 -1.76719 0
M  V30 6107 O 589.265 0.3645 -1.80047 0
M  V30 6108 C 589.327 -3.08431 -1.84691 0
M  V30 6109 C 588.991 -4.41694 -1.17284 0
M  V30 6110 C 589.988 -5.17062 -0.542532 0
M  V30 6111 C 587.673 -4.8843 -1.17223 0
M  V30 6112 C 589.667 -6.37351 0.0793953 0
M  V30 6113 C 587.354 -6.08652 -0.54647 0
M  V30 6114 C 588.352 -6.82955 0.0782458 0
M  V30 6115 O 588.04 -8.00897 0.694158 0
M  V30 6116 H 587.772 -0.619286 -0.271036 0
M  V30 6117 H 590.326 -2.0454 -0.187768 0
M  V30 6118 H 588.556 -2.85163 -2.61188 0
M  V30 6119 H 590.245 -3.23733 -2.44851 0
M  V30 6120 H 591.011 -4.8204 -0.535045 0
M  V30 6121 H 586.89 -4.30542 -1.64788 0
M  V30 6122 H 590.434 -6.95287 0.567612 0
M  V30 6123 H 586.331 -6.4314 -0.55151 0
M  V30 6124 H 587.099 -8.16352 0.592537 0
M  V30 6125 N 589.762 0.448376 -1.51087 0
M  V30 6126 C 590.672 1.56882 -1.74428 0
M  V30 6127 C 591.688 1.62268 -0.62809 0
M  V30 6128 O 592.864 1.79716 -0.909075 0
M  V30 6129 C 589.929 2.92947 -1.85426 0
M  V30 6130 C 588.99 2.97766 -3.09247 0
M  V30 6131 C 588.223 4.27341 -3.19711 0
M  V30 6132 O 588.446 5.19112 -2.36387 0
M  V30 6133 O 587.38 4.38219 -4.12611 0
M  V30 6134 H 591.206 1.40104 -2.69452 0
M  V30 6135 H 588.791 0.630247 -1.35456 0
M  V30 6136 H 590.673 3.73719 -1.94709 0
M  V30 6137 H 589.348 3.09876 -0.935887 0
M  V30 6138 H 588.255 2.15989 -3.0545 0
M  V30 6139 H 589.588 2.8578 -4.00738 0
M  V30 6140 N 591.24 1.41047 0.703093 0
M  V30 6141 C 592.187 1.42302 1.81711 0
M  V30 6142 C 593.157 0.278336 1.63751 0
M  V30 6143 O 594.342 0.478266 1.84709 0
M  V30 6144 C 591.482 1.30362 3.19531 0
M  V30 6145 C 590.595 2.54638 3.48975 0
M  V30 6146 C 589.73 2.35047 4.76368 0
M  V30 6147 C 588.769 3.54837 4.98756 0
M  V30 6148 N 587.906 3.34363 6.1737 0
M  V30 6149 H 592.746 2.37516 1.79973 0
M  V30 6150 H 590.283 1.1795 0.878983 0
M  V30 6151 H 592.241 1.21443 3.99134 0
M  V30 6152 H 590.871 0.387602 3.20464 0
M  V30 6153 H 589.923 2.74037 2.63833 0
M  V30 6154 H 591.235 3.43766 3.61423 0
M  V30 6155 H 590.389 2.23552 5.64012 0
M  V30 6156 H 589.128 1.43363 4.66153 0
M  V30 6157 H 588.133 3.66795 4.09563 0
M  V30 6158 H 589.358 4.47464 5.10835 0
M  V30 6159 H 587.304 2.45373 6.08382 0
M  V30 6160 H 587.221 4.17063 6.30551 0
M  V30 6161 H 588.489 3.26626 7.07768 0
M  V30 6162 N 592.718 -0.936591 1.26751 0
M  V30 6163 C 593.65 -2.03991 1.045 0
M  V30 6164 C 594.663 -1.628 0.00394261 0
M  V30 6165 O 595.852 -1.76817 0.244526 0
M  V30 6166 C 592.952 -3.34218 0.561403 0
M  V30 6167 C 592.125 -4.04151 1.67274 0
M  V30 6168 C 591.184 -5.12651 1.1864 0
M  V30 6169 O 590.21 -5.37104 1.88437 0
M  V30 6170 N 591.412 -5.80488 0.037278 0
M  V30 6171 H 594.177 -2.23644 1.99508 0
M  V30 6172 H 591.738 -1.10638 1.18198 0
M  V30 6173 H 593.73 -4.04101 0.220136 0
M  V30 6174 H 592.3 -3.11203 -0.295211 0
M  V30 6175 H 591.52 -3.28121 2.18472 0
M  V30 6176 H 592.808 -4.47626 2.41885 0
M  V30 6177 H 592.206 -5.63064 -0.545494 0
M  V30 6178 H 590.763 -6.5134 -0.244877 0
M  V30 6179 N 594.196 -1.08629 -1.14182 0
M  V30 6180 C 595.424 -0.838889 -1.8913 0
M  V30 6181 C 595.839 0.609153 -1.78703 0
M  V30 6182 O 595.196 1.41876 -1.14794 0
M  V30 6183 C 595.247 -1.25477 -3.39025 0
M  V30 6184 O 594.968 -2.64601 -3.49167 0
M  V30 6185 C 596.469 -1.03856 -4.30963 0
M  V30 6186 H 593.689 -0.302377 -0.599007 0
M  V30 6187 H 596.233 -1.44615 -1.44592 0
M  V30 6188 H 594.388 -0.691571 -3.81177 0
M  V30 6189 H 594.802 -2.81922 -4.42289 0
M  V30 6190 H 596.276 -1.37892 -5.345 0
M  V30 6191 H 596.753 0.0242522 -4.39193 0
M  V30 6192 H 597.359 -1.58731 -3.94569 0
M  V30 6193 N 595.674 1.31259 -0.872281 0
M  V30 6194 C 596.922 1.96233 -0.483409 0
M  V30 6195 C 597.243 1.69276 0.968012 0
M  V30 6196 O 596.513 1.00943 1.67891 0
M  V30 6197 H 595.093 0.726025 -0.175774 0
M  V30 6198 H 597.755 1.60024 -1.11258 0
M  V30 6199 H 596.851 3.05403 -0.643075 0
M  V30 6200 N 597.152 0.631951 1.44375 0
M  V30 6201 C 598.099 -0.0724807 2.30686 0
M  V30 6202 C 599.069 -0.835975 1.43529 0
M  V30 6203 O 600.254 -0.816849 1.7243 0
M  V30 6204 C 597.394 -1.04753 3.28817 0
M  V30 6205 C 596.507 -0.282367 4.31076 0
M  V30 6206 C 595.642 -1.2493 5.163 0
M  V30 6207 C 594.681 -0.473349 6.10267 0
M  V30 6208 N 593.818 -1.39079 6.88187 0
M  V30 6209 H 598.658 0.669477 2.90383 0
M  V30 6210 H 596.195 0.341927 1.43071 0
M  V30 6211 H 598.153 -1.62623 3.842 0
M  V30 6212 H 596.783 -1.75661 2.70819 0
M  V30 6213 H 595.835 0.412268 3.78159 0
M  V30 6214 H 597.147 0.321955 4.9776 0
M  V30 6215 H 596.301 -1.89931 5.76204 0
M  V30 6216 H 595.04 -1.88755 4.49692 0
M  V30 6217 H 594.045 0.190142 5.49471 0
M  V30 6218 H 595.27 0.16019 6.78911 0
M  V30 6219 H 593.216 -2.01623 6.24247 0
M  V30 6220 H 593.133 -0.840513 7.51313 0
M  V30 6221 H 594.401 -2.02961 7.52613 0
M  V30 6222 N 598.631 -1.53133 0.372548 0
M  V30 6223 C 600.042 -1.86404 -0.105155 0
M  V30 6224 C 600.393 -1.29289 -1.47576 0
M  V30 6225 O 599.518 -0.617646 -2.07398 0
M  V30 6226 C 600.113 -3.38223 -0.197588 0
M  V30 6227 C 598.672 -3.71266 -0.619556 0
M  V30 6228 C 597.819 -2.76353 0.228919 0
M  V30 6229 H 600.77 -1.47282 0.591077 0
M  V30 6230 H 600.791 -3.66577 -1.01987 0
M  V30 6231 H 600.303 -3.79763 0.800099 0
M  V30 6232 H 598.404 -3.35287 -1.62522 0
M  V30 6233 H 598.517 -4.77515 -0.389332 0
M  V30 6234 H 596.881 -2.52888 -0.303271 0
M  V30 6235 H 597.664 -3.20728 1.22428 0
M  V30 6236 N 600.109 -0.101901 -1.5727 0
M  V30 6237 C 601.357 0.559091 -1.94213 0
M  V30 6238 C 601.678 1.68297 -0.984948 0
M  V30 6239 O 600.948 1.95863 -0.0381975 0
M  V30 6240 H 599.528 0.20952 -0.717015 0
M  V30 6241 H 602.19 -0.166831 -1.94185 0
M  V30 6242 H 601.286 0.96485 -2.96811 0
M  V30 6243 N 601.587 1.56661 0.17182 0
M  V30 6244 C 602.537 1.92781 1.21736 0
M  V30 6245 C 603.521 0.796065 1.39827 0
M  V30 6246 O 604.713 1.05924 1.41806 0
M  V30 6247 C 601.842 2.29079 2.55691 0
M  V30 6248 C 600.928 3.48765 2.41296 0
M  V30 6249 N 601.319 4.66022 1.96614 0
M  V30 6250 C 599.617 3.53362 2.72124 0
M  V30 6251 C 600.318 5.48159 1.94669 0
M  V30 6252 N 599.294 4.89189 2.37054 0
M  V30 6253 H 603.096 2.80926 0.863592 0
M  V30 6254 H 600.61 1.57889 0.380096 0
M  V30 6255 H 602.607 2.5315 3.31241 0
M  V30 6256 H 601.267 1.42272 2.91871 0
M  V30 6257 H 602.278 4.9025 1.66959 0
M  V30 6258 H 598.955 2.77033 3.12345 0
M  V30 6259 H 600.345 6.52121 1.61826 0
M  V30 6260 N 603.065 -0.440357 1.51323 0
M  V30 6261 C 603.975 -1.55955 1.75258 0
M  V30 6262 C 604.991 -1.61933 0.636687 0
M  V30 6263 O 606.167 -1.79231 0.918593 0
M  V30 6264 C 603.232 -2.9196 1.86977 0
M  V30 6265 C 602.293 -2.96122 3.10822 0
M  V30 6266 C 601.526 -4.2564 3.21973 0
M  V30 6267 O 601.749 -5.17851 2.39137 0
M  V30 6268 O 600.683 -4.36025 4.14929 0
M  V30 6269 H 604.509 -1.38673 2.70191 0
M  V30 6270 H 602.094 -0.623055 1.35788 0
M  V30 6271 H 603.976 -3.72682 1.96688 0
M  V30 6272 H 602.651 -3.09375 0.952307 0
M  V30 6273 H 601.558 -2.14366 3.06591 0
M  V30 6274 H 602.891 -2.83651 4.02247 0
M  V30 6275 N 604.543 -1.41418 -0.695603 0
M  V30 6276 C 605.789 -1.40982 -1.4578 0
M  V30 6277 C 606.122 -0.0187763 -1.94191 0
M  V30 6278 O 605.397 0.95346 -1.69527 0
M  V30 6279 C 605.68 -2.41657 -2.66972 0
M  V30 6280 C 605.533 -3.89869 -2.24327 0
M  V30 6281 C 606.852 -2.39589 -3.69168 0
M  V30 6282 H 603.971 -0.513405 -0.528757 0
M  V30 6283 H 606.613 -1.72693 -0.792275 0
M  V30 6284 H 604.763 -2.14746 -3.23754 0
M  V30 6285 H 606.435 -4.27683 -1.72872 0
M  V30 6286 H 604.678 -4.04737 -1.56111 0
M  V30 6287 H 605.349 -4.55857 -3.11285 0
M  V30 6288 H 607.825 -2.63471 -3.2206 0
M  V30 6289 H 606.701 -3.12044 -4.51575 0
M  V30 6290 H 606.962 -1.41447 -4.18862 0
M  V30 6291 N 606.021 0.929856 -1.27246 0
M  V30 6292 C 607.267 1.6798 -1.13625 0
M  V30 6293 C 607.6 1.91586 0.317589 0
M  V30 6294 O 606.875 1.50467 1.23247 0
M  V30 6295 C 607.158 3.04766 -1.91806 0
M  V30 6296 C 607.011 2.88415 -3.45162 0
M  V30 6297 C 608.33 4.05063 -1.72082 0
M  V30 6298 H 605.449 0.609632 -0.414147 0
M  V30 6299 H 608.091 1.0792 -1.56376 0
M  V30 6300 H 606.241 3.56034 -1.55474 0
M  V30 6301 H 607.913 2.44282 -3.91311 0
M  V30 6302 H 606.156 2.23802 -3.71611 0
M  V30 6303 H 606.827 3.85482 -3.95105 0
M  V30 6304 H 609.303 3.62798 -2.03757 0
M  V30 6305 H 608.179 4.98765 -2.29182 0
M  V30 6306 H 608.44 4.37021 -0.668206 0
M  V30 6307 N 607.499 1.09233 1.13605 0
M  V30 6308 C 608.748 0.82205 1.84188 0
M  V30 6309 C 609.061 -0.654548 1.84323 0
M  V30 6310 O 610.267 -1.04029 2.50779 0
M  V30 6311 C 608.723 1.42066 3.30674 0
M  V30 6312 C 608.331 2.92965 3.38933 0
M  V30 6313 C 610.075 1.22924 4.06313 0
M  V30 6314 C 607.982 3.45922 4.79679 0
M  V30 6315 H 606.912 0.303854 0.690064 0
M  V30 6316 H 609.563 1.31479 1.28006 0
M  V30 6317 H 607.945 0.855613 3.86646 0
M  V30 6318 H 609.119 3.55679 2.92966 0
M  V30 6319 H 607.434 3.11118 2.76757 0
M  V30 6320 H 610.031 1.59945 5.10217 0
M  V30 6321 H 610.374 0.169726 4.15954 0
M  V30 6322 H 610.907 1.76168 3.56665 0
M  V30 6323 H 607.646 4.51484 4.75229 0
M  V30 6324 H 607.166 2.87971 5.26149 0
M  V30 6325 H 608.845 3.43009 5.48592 0
M  V30 6326 N 608.977 -1.30795 0.87923 0
M  V30 6327 C 610.225 -1.95974 0.493809 0
M  V30 6328 C 610.546 -1.69787 -0.959021 0
M  V30 6329 O 609.816 -1.01832 -1.67353 0
M  V30 6330 H 608.396 -0.725083 0.179622 0
M  V30 6331 H 611.058 -1.59432 1.12105 0
M  V30 6332 H 610.154 -3.05058 0.659263 0
M  V30 6333 N 610.455 -0.639598 -1.44038 0
M  V30 6334 C 611.703 -0.147188 -2.01563 0
M  V30 6335 C 612.024 1.2384 -1.50628 0
M  V30 6336 O 611.294 1.82452 -0.713316 0
M  V30 6337 H 609.874 -0.0514231 -0.745228 0
M  V30 6338 H 612.536 -0.828205 -1.76428 0
M  V30 6339 H 611.632 -0.121358 -3.11864 0
M  V30 6340 N 611.933 1.52934 -0.380664 0
M  V30 6341 C 613.181 2.01069 0.203874 0
M  V30 6342 C 613.502 1.26922 1.4804 0
M  V30 6343 O 612.772 0.386787 1.92044 0
M  V30 6344 H 611.352 0.742882 0.0783279 0
M  V30 6345 H 614.014 1.88099 -0.510368 0
M  V30 6346 H 613.11 3.09258 0.42021 0
M  V30 6347 N 613.412 0.11024 1.57214 0
M  V30 6348 C 614.64 -0.557834 1.99238 0
M  V30 6349 C 615.055 -1.60778 0.989734 0
M  V30 6350 O 614.412 -1.82491 -0.0186092 0
M  V30 6351 C 614.463 -1.19189 3.41286 0
M  V30 6352 O 614.184 -0.183919 4.37714 0
M  V30 6353 C 615.685 -1.94413 3.98395 0
M  V30 6354 H 612.905 -0.148392 0.654386 0
M  V30 6355 H 615.449 0.193996 2.03578 0
M  V30 6356 H 613.604 -1.89456 3.37913 0
M  V30 6357 H 614.018 -0.643475 5.20538 0
M  V30 6358 H 615.492 -2.34116 4.99894 0
M  V30 6359 H 615.969 -2.81592 3.3705 0
M  V30 6360 H 616.575 -1.28928 4.05287 0
M  V30 6361 N 614.89 -1.56749 -0.16351 0
M  V30 6362 C 616.12 -1.86307 -0.892936 0
M  V30 6363 C 616.528 -0.6945 -1.75992 0
M  V30 6364 O 615.871 0.345384 -1.80424 0
M  V30 6365 C 615.933 -3.10372 -1.81409 0
M  V30 6366 C 615.597 -4.42913 -1.12593 0
M  V30 6367 C 616.594 -5.17608 -0.487661 0
M  V30 6368 C 614.279 -4.89646 -1.12035 0
M  V30 6369 C 616.273 -6.3723 0.14699 0
M  V30 6370 C 613.96 -6.09197 -0.481883 0
M  V30 6371 C 614.958 -6.82834 0.150678 0
M  V30 6372 O 614.646 -8.00116 0.779065 0
M  V30 6373 H 614.378 -0.622126 -0.264452 0
M  V30 6374 H 616.932 -2.04728 -0.166063 0
M  V30 6375 H 615.162 -2.87917 -2.58148 0
M  V30 6376 H 616.851 -3.26312 -2.41403 0
M  V30 6377 H 617.617 -4.8258 -0.483888 0
M  V30 6378 H 613.496 -4.32265 -1.60212 0
M  V30 6379 H 617.04 -6.94646 0.641325 0
M  V30 6380 H 612.937 -6.43688 -0.483266 0
M  V30 6381 H 613.705 -8.15678 0.679089 0
M  V30 6382 N 616.368 0.432326 -1.51554 0
M  V30 6383 C 617.616 1.17901 -1.64146 0
M  V30 6384 C 617.937 1.91604 -0.362367 0
M  V30 6385 O 617.207 1.85764 0.621968 0
M  V30 6386 H 615.787 0.438206 -0.604966 0
M  V30 6387 H 618.449 0.495172 -1.88505 0
M  V30 6388 H 617.545 1.90584 -2.47152 0
M  V30 6389 N 617.846 1.41785 0.688094 0
M  V30 6390 C 619.262 1.24419 0.999608 0
M  V30 6391 C 619.462 0.138868 2.01021 0
M  V30 6392 O 618.518 -0.494283 2.47615 0
M  V30 6393 C 619.831 2.59625 1.51709 0
M  V30 6394 C 621.379 2.66869 1.63554 0
M  V30 6395 C 621.854 4.0241 2.18702 0
M  V30 6396 N 623.345 4.04295 2.26053 0
M  V30 6397 C 624.08 5.05977 2.69768 0
M  V30 6398 N 623.576 6.18047 3.13033 0
M  V30 6399 N 625.369 4.93336 2.69398 0
M  V30 6400 H 617.52 2.12392 0.0187427 0
M  V30 6401 H 619.783 0.945347 0.0708673 0
M  V30 6402 H 619.489 3.41297 0.849059 0
M  V30 6403 H 619.363 2.82628 2.49803 0
M  V30 6404 H 621.75 1.8555 2.29467 0
M  V30 6405 H 621.831 2.47668 0.639857 0
M  V30 6406 H 621.475 4.8418 1.53402 0
M  V30 6407 H 621.405 4.18955 3.19037 0
M  V30 6408 H 623.896 3.23383 1.9553 0
M  V30 6409 H 624.209 6.91498 3.45038 0
M  V30 6410 H 622.554 6.21572 3.10923 0
M  V30 6411 H 625.745 4.04865 2.34952 0
M  V30 6412 H 625.918 5.72717 3.03148 0
M  V30 6413 N 619.324 -0.923095 1.27737 0
M  V30 6414 C 620.254 -2.04124 1.13383 0
M  V30 6415 C 621.235 -1.70066 0.0340658 0
M  V30 6416 O 622.42 -1.93068 0.209383 0
M  V30 6417 C 619.55 -3.3831 0.785097 0
M  V30 6418 C 618.504 -3.86496 1.8386 0
M  V30 6419 C 617.83 -5.1754 1.34373 0
M  V30 6420 C 619.13 -4.09381 3.24353 0
M  V30 6421 H 620.824 -2.1639 2.06919 0
M  V30 6422 H 618.37 -1.03976 0.996243 0
M  V30 6423 H 620.323 -4.16016 0.671485 0
M  V30 6424 H 619.047 -3.2607 -0.185969 0
M  V30 6425 H 617.706 -3.10987 1.9412 0
M  V30 6426 H 617.354 -5.01696 0.361989 0
M  V30 6427 H 617.054 -5.50751 2.04811 0
M  V30 6428 H 618.578 -5.97811 1.24315 0
M  V30 6429 H 619.992 -4.77641 3.17067 0
M  V30 6430 H 618.389 -4.53906 3.92542 0
M  V30 6431 H 619.459 -3.14515 3.69064 0
M  V30 6432 N 620.802 -1.09834 -1.13024 0
M  V30 6433 C 622.049 -0.83695 -1.84395 0
M  V30 6434 C 622.377 0.637463 -1.83757 0
M  V30 6435 O 621.632 1.48554 -1.27398 0
M  V30 6436 C 621.931 -1.32263 -3.32026 0
M  V30 6437 C 621.597 -2.80739 -3.52841 0
M  V30 6438 C 620.259 -3.21286 -3.5823 0
M  V30 6439 C 622.611 -3.76449 -3.60466 0
M  V30 6440 C 619.939 -4.56308 -3.68781 0
M  V30 6441 C 622.291 -5.11266 -3.72546 0
M  V30 6442 C 620.955 -5.51397 -3.76189 0
M  V30 6443 H 620.225 -0.306262 -0.674748 0
M  V30 6444 H 622.872 -1.37385 -1.33408 0
M  V30 6445 H 621.177 -0.705618 -3.85394 0
M  V30 6446 H 622.874 -1.09695 -3.85705 0
M  V30 6447 H 619.464 -2.48363 -3.49305 0
M  V30 6448 H 623.648 -3.46234 -3.55578 0
M  V30 6449 H 618.904 -4.86832 -3.69871 0
M  V30 6450 H 623.078 -5.85279 -3.77388 0
M  V30 6451 H 620.705 -6.56017 -3.84117 0
M  V30 6452 N 622.28 1.30327 -0.886154 0
M  V30 6453 C 623.19 2.31854 -0.357866 0
M  V30 6454 C 624.206 1.65392 0.540502 0
M  V30 6455 O 625.382 1.96683 0.433339 0
M  V30 6456 C 622.447 3.44171 0.417999 0
M  V30 6457 C 621.508 4.26257 -0.510263 0
M  V30 6458 C 620.741 5.3321 0.228669 0
M  V30 6459 O 620.964 5.51542 1.45458 0
M  V30 6460 O 619.898 6.0042 -0.421832 0
M  V30 6461 H 623.724 2.78995 -1.19982 0
M  V30 6462 H 621.309 1.34518 -0.650028 0
M  V30 6463 H 623.191 4.12588 0.857251 0
M  V30 6464 H 621.866 2.99164 1.23623 0
M  V30 6465 H 620.773 3.60533 -0.99835 0
M  V30 6466 H 622.106 4.74871 -1.29454 0
M  V30 6467 N 623.758 0.647228 1.43697 0
M  V30 6468 C 625.174 0.314256 1.56476 0
M  V30 6469 C 625.374 -1.18191 1.63196 0
M  V30 6470 O 624.43 -1.96655 1.58376 0
M  V30 6471 C 625.743 1.02034 2.82859 0
M  V30 6472 C 627.291 1.00002 2.96595 0
M  V30 6473 C 627.766 1.68689 4.25803 0
M  V30 6474 N 629.257 1.65424 4.32654 0
M  V30 6475 C 629.992 2.1545 5.31384 0
M  V30 6476 N 629.488 2.73738 6.36427 0
M  V30 6477 N 631.281 2.05985 5.22998 0
M  V30 6478 H 623.432 1.61821 1.37578 0
M  V30 6479 H 625.695 0.680184 0.660344 0
M  V30 6480 H 625.401 2.07542 2.83935 0
M  V30 6481 H 625.275 0.568146 3.72897 0
M  V30 6482 H 627.662 -0.0466319 2.95063 0
M  V30 6483 H 627.743 1.49086 2.07863 0
M  V30 6484 H 627.387 2.73308 4.28095 0
M  V30 6485 H 627.317 1.17076 5.13421 0
M  V30 6486 H 629.808 1.22884 3.57363 0
M  V30 6487 H 630.121 3.09602 7.08072 0
M  V30 6488 H 628.466 2.77796 6.37067 0
M  V30 6489 H 631.657 1.60157 4.39849 0
M  V30 6490 H 631.83 2.45281 5.99784 0
M  V30 6491 N 625.236 -1.5273 0.388769 0
M  V30 6492 C 626.484 -2.01174 -0.193208 0
M  V30 6493 C 626.805 -1.27705 -1.47365 0
M  V30 6494 O 626.075 -0.396966 -1.91836 0
M  V30 6495 H 624.655 -0.743287 -0.0743871 0
M  V30 6496 H 627.317 -1.87826 0.520336 0
M  V30 6497 H 626.413 -3.09477 -0.403803 0
M  V30 6498 N 626.714 -0.118576 -1.57153 0
M  V30 6499 C 627.96 0.540326 -1.95469 0
M  V30 6500 C 628.293 1.66356 -1.00196 0
M  V30 6501 O 627.568 1.94461 -0.039104 0
M  V30 6502 C 627.851 1.07342 -3.43729 0
M  V30 6503 C 627.704 -0.0463732 -4.49776 0
M  V30 6504 C 629.023 1.96442 -3.93826 0
M  V30 6505 H 626.142 0.19494 -0.710751 0
M  V30 6506 H 628.784 -0.19405 -1.89006 0
M  V30 6507 H 626.934 1.69925 -3.49368 0
M  V30 6508 H 628.606 -0.681648 -4.56236 0
M  V30 6509 H 626.849 -0.709574 -4.27957 0
M  V30 6510 H 627.52 0.367856 -5.50773 0
M  V30 6511 H 629.996 1.43731 -3.90488 0
M  V30 6512 H 628.872 2.3066 -4.98084 0
M  V30 6513 H 629.133 2.89077 -3.34495 0
M  V30 6514 N 628.193 1.56834 0.155195 0
M  V30 6515 C 629.156 1.96748 1.17571 0
M  V30 6516 C 630.156 0.853006 1.3631 0
M  V30 6517 O 631.346 1.11978 1.33441 0
M  V30 6518 C 628.478 2.27631 2.53765 0
M  V30 6519 H 629.671 2.88085 0.833498 0
M  V30 6520 H 627.224 1.51141 0.398242 0
M  V30 6521 H 627.959 1.39059 2.92973 0
M  V30 6522 H 627.744 3.0888 2.41527 0
M  V30 6523 H 629.234 2.59377 3.27282 0
M  V30 6524 N 629.671 -0.424282 1.51781 0
M  V30 6525 C 630.918 -1.1726 1.65095 0
M  V30 6526 C 631.246 -1.90881 0.373477 0
M  V30 6527 O 630.501 -1.84835 -0.642997 0
M  V30 6528 C 630.8 -2.20418 2.81337 0
M  V30 6529 C 630.466 -1.63715 4.20129 0
M  V30 6530 C 629.128 -1.47975 4.57883 0
M  V30 6531 C 631.48 -1.22157 5.06682 0
M  V30 6532 C 628.808 -0.891703 5.79884 0
M  V30 6533 C 631.16 -0.647767 6.29275 0
M  V30 6534 C 629.824 -0.477371 6.65791 0
M  V30 6535 H 629.094 -0.429085 0.604125 0
M  V30 6536 H 631.741 -0.461852 1.85847 0
M  V30 6537 H 630.046 -2.97581 2.54859 0
M  V30 6538 H 631.743 -2.78163 2.88836 0
M  V30 6539 H 628.333 -1.76946 3.90369 0
M  V30 6540 H 632.517 -1.33133 4.7811 0
M  V30 6541 H 627.773 -0.747563 6.06813 0
M  V30 6542 H 631.947 -0.317291 6.95677 0
M  V30 6543 H 629.574 -0.0195936 7.60197 0
M  V30 6544 N 631.149 -1.42148 -0.680565 0
M  V30 6545 C 632.397 -1.42029 -1.43779 0
M  V30 6546 C 632.718 -0.0356347 -1.94967 0
M  V30 6547 O 631.988 0.924936 -1.7269 0
M  V30 6548 H 630.568 -0.522835 -0.533529 0
M  V30 6549 H 633.23 -1.7752 -0.804538 0
M  V30 6550 H 632.326 -2.11658 -2.29363 0
M  V30 6551 N 632.627 0.916307 -1.28225 0
M  V30 6552 C 633.59 1.99996 -1.11957 0
M  V30 6553 C 634.59 1.60688 -0.0600152 0
M  V30 6554 O 635.78 1.71499 -0.30558 0
M  V30 6555 C 632.912 3.33458 -0.708411 0
M  V30 6556 H 634.105 2.15858 -2.08196 0
M  V30 6557 H 631.658 1.09863 -1.11175 0
M  V30 6558 H 632.393 3.23297 0.254859 0
M  V30 6559 H 632.178 3.63349 -1.47377 0
M  V30 6560 H 633.668 4.13014 -0.617164 0
M  V30 6561 N 634.105 1.10431 1.1244 0
M  V30 6562 C 635.037 0.710945 2.17895 0
M  V30 6563 C 636.05 -0.252315 1.60833 0
M  V30 6564 O 637.239 -0.03679 1.78462 0
M  V30 6565 C 634.339 0.0284262 3.38888 0
M  V30 6566 C 633.512 1.01585 4.2544 0
M  V30 6567 C 632.571 0.364826 5.24934 0
M  V30 6568 O 631.597 1.01561 5.60066 0
M  V30 6569 N 632.799 -0.87674 5.73841 0
M  V30 6570 H 635.564 1.61826 2.52255 0
M  V30 6571 H 633.125 0.993132 1.27861 0
M  V30 6572 H 635.117 -0.418568 4.0253 0
M  V30 6573 H 633.687 -0.781294 3.02679 0
M  V30 6574 H 632.907 1.64111 3.58415 0
M  V30 6575 H 634.195 1.68425 4.80115 0
M  V30 6576 H 633.593 -1.42483 5.47462 0
M  V30 6577 H 632.15 -1.26688 6.39369 0
M  V30 6578 N 635.583 -1.29855 0.893053 0
M  V30 6579 C 636.994 -1.77946 0.564998 0
M  V30 6580 C 637.345 -1.73339 -0.919134 0
M  V30 6581 O 636.47 -1.3152 -1.71847 0
M  V30 6582 C 637.065 -3.23118 1.01883 0
M  V30 6583 C 635.624 -3.69013 0.742051 0
M  V30 6584 C 634.771 -2.50121 1.19727 0
M  V30 6585 H 637.722 -1.16611 1.07646 0
M  V30 6586 H 637.743 -3.78875 0.351249 0
M  V30 6587 H 637.255 -3.26439 2.09903 0
M  V30 6588 H 635.356 -3.71173 -0.325816 0
M  V30 6589 H 635.469 -4.60117 1.33527 0
M  V30 6590 H 633.833 -2.47128 0.616418 0
M  V30 6591 H 634.616 -2.56174 2.28538 0
M  V30 6592 N 637.061 -0.65484 -1.43351 0
M  V30 6593 C 637.971 0.0363603 -2.34572 0
M  V30 6594 C 638.987 0.810432 -1.53974 0
M  V30 6595 O 640.163 0.757308 -1.86619 0
M  V30 6596 C 637.228 0.989733 -3.32273 0
M  V30 6597 C 636.289 0.212414 -4.28774 0
M  V30 6598 C 635.522 1.12038 -5.21808 0
M  V30 6599 O 635.745 2.35967 -5.19303 0
M  V30 6600 O 634.679 0.59191 -5.98982 0
M  V30 6601 H 638.505 -0.714527 -2.95175 0
M  V30 6602 H 636.09 -0.415029 -1.4352 0
M  V30 6603 H 637.972 1.53759 -3.92347 0
M  V30 6604 H 636.647 1.72082 -2.74171 0
M  V30 6605 H 635.554 -0.379062 -3.72175 0
M  V30 6606 H 636.887 -0.479138 -4.89862 0
M  V30 6607 N 638.539 1.52521 -0.396863 0
M  V30 6608 C 639.487 2.28217 0.44943 0
M  V30 6609 C 640.481 1.32416 1.05652 0
M  V30 6610 O 641.687 1.49925 0.996124 0
M  V30 6611 H 638.062 0.733966 0.1637 0
M  V30 6612 H 640.033 2.97658 -0.210367 0
M  V30 6613 C 638.782 3.10713 1.56054 0
M  V30 6614 H 638.105 3.84291 1.10273 0
M  V30 6615 H 639.545 3.66803 2.12677 0
M  V30 6616 C 638.004 2.23499 2.52091 0
M  V30 6617 O 638.534 1.8669 3.55682 0
M  V30 6618 N 636.74 1.8751 2.2201 0
M  V30 6619 H 636.287 2.17643 1.37802 0
M  V30 6620 H 636.245 1.29448 2.86514 0
M  V30 6621 N 640.017 0.126909 1.57088 0
M  V30 6622 C 641.265 -0.528123 1.95078 0
M  V30 6623 C 641.586 -1.66708 1.0116 0
M  V30 6624 O 640.856 -1.95777 0.0693527 0
M  V30 6625 H 639.436 -0.198087 0.720257 0
M  V30 6626 H 642.098 0.197703 1.93895 0
M  V30 6627 H 641.194 -0.917507 2.98309 0
M  V30 6628 N 641.495 -1.56914 -0.146875 0
M  V30 6629 C 642.906 -1.72799 -0.706928 0
M  V30 6630 C 643.257 -0.741329 -1.81656 0
M  V30 6631 O 642.382 0.0920162 -2.16204 0
M  V30 6632 C 642.977 -3.13317 -1.28911 0
M  V30 6633 C 641.536 -3.30803 -1.79573 0
M  V30 6634 C 640.683 -2.68725 -0.684252 0
M  V30 6635 H 643.634 -1.58504 0.0787931 0
M  V30 6636 H 643.655 -3.13323 -2.15891 0
M  V30 6637 H 643.167 -3.85104 -0.481284 0
M  V30 6638 H 641.268 -2.64012 -2.62923 0
M  V30 6639 H 641.381 -4.38754 -1.92436 0
M  V30 6640 H 639.745 -2.29196 -1.11091 0
M  V30 6641 H 640.528 -3.43117 0.112134 0
M  V30 6642 N 642.974 0.416227 -1.52004 0
M  V30 6643 C 643.907 1.52736 -1.6955 0
M  V30 6644 C 644.885 1.53264 -0.54305 0
M  V30 6645 O 646.069 1.72077 -0.769527 0
M  V30 6646 C 643.196 2.91283 -1.72835 0
M  V30 6647 C 642.242 3.08695 -2.94295 0
M  V30 6648 S 643.075 2.82758 -4.54762 0
M  V30 6649 C 644.231 4.23548 -4.60823 0
M  V30 6650 H 644.464 1.37623 -2.63528 0
M  V30 6651 H 641.997 0.607335 -1.41954 0
M  V30 6652 H 643.955 3.71134 -1.75413 0
M  V30 6653 H 642.616 3.03742 -0.799966 0
M  V30 6654 H 641.809 4.10042 -2.93056 0
M  V30 6655 H 641.411 2.36699 -2.89568 0
M  V30 6656 H 643.703 5.17078 -4.37763 0
M  V30 6657 H 644.646 4.29813 -5.62731 0
M  V30 6658 H 645.054 4.08188 -3.89927 0
M  V30 6659 N 644.452 1.42507 0.673017 0
M  V30 6660 C 645.698 1.43284 1.43519 0
M  V30 6661 C 646.031 0.049668 1.94136 0
M  V30 6662 O 645.306 -0.926369 1.71022 0
M  V30 6663 C 645.589 2.45874 2.63093 0
M  V30 6664 C 645.442 3.93388 2.18096 0
M  V30 6665 C 646.761 2.45431 3.6531 0
M  V30 6666 H 643.88 0.521752 0.520522 0
M  V30 6667 H 646.522 1.73932 0.764701 0
M  V30 6668 H 644.672 2.19869 3.20296 0
M  V30 6669 H 646.344 4.30379 1.66046 0
M  V30 6670 H 644.587 4.07169 1.49652 0
M  V30 6671 H 645.258 4.60752 3.03993 0
M  V30 6672 H 647.734 2.68561 3.17827 0
M  V30 6673 H 646.61 3.19189 4.46553 0
M  V30 6674 H 646.871 1.48092 4.16559 0
M  V30 6675 N 645.93 -0.909495 1.28709 0
M  V30 6676 C 646.863 -2.01388 1.07323 0
M  V30 6677 C 647.841 -1.62596 -0.0119757 0
M  V30 6678 O 649.025 -1.88003 0.136796 0
M  V30 6679 C 646.152 -3.32755 0.631797 0
M  V30 6680 C 645.198 -3.90532 1.71428 0
M  V30 6681 S 646.031 -4.20853 3.31124 0
M  V30 6682 C 647.187 -5.55276 2.88825 0
M  V30 6683 H 647.42 -2.19219 2.00824 0
M  V30 6684 H 644.953 -1.05489 1.12745 0
M  V30 6685 H 646.911 -4.08702 0.38381 0
M  V30 6686 H 645.572 -3.12818 -0.283451 0
M  V30 6687 H 644.765 -4.85385 1.35712 0
M  V30 6688 H 644.367 -3.21237 1.91528 0
M  V30 6689 H 646.659 -6.35341 2.3526 0
M  V30 6690 H 647.602 -5.95907 3.82492 0
M  V30 6691 H 648.01 -5.16666 2.27412 0
M  V30 6692 N 647.408 -1.11026 -1.11852 0
M  V30 6693 C 648.358 -0.733836 -2.15868 0
M  V30 6694 C 649.342 0.26001 -1.58785 0
M  V30 6695 O 650.534 0.0677901 -1.7687 0
M  V30 6696 C 647.663 -0.173948 -3.42859 0
M  V30 6697 C 646.749 -1.1952 -4.0691 0
M  V30 6698 N 647.14 -2.38797 -4.45881 0
M  V30 6699 C 645.438 -1.03714 -4.33773 0
M  V30 6700 C 646.139 -3.03894 -4.96007 0
M  V30 6701 N 645.115 -2.31389 -4.91894 0
M  V30 6702 H 648.917 -1.64171 -2.43773 0
M  V30 6703 H 646.431 -0.988877 -1.28822 0
M  V30 6704 H 648.428 0.113836 -4.16745 0
M  V30 6705 H 647.088 0.728568 -3.16421 0
M  V30 6706 H 648.099 -2.76281 -4.38051 0
M  V30 6707 H 644.776 -0.190694 -4.17064 0
M  V30 6708 H 646.166 -4.05389 -5.35826 0
M  V30 6709 N 648.886 1.2938 -0.899927 0
M  V30 6710 C 649.849 2.25983 -0.382677 0
M  V30 6711 C 650.849 1.53366 0.483259 0
M  V30 6712 O 652.039 1.71798 0.28828 0
M  V30 6713 C 649.171 3.37878 0.452915 0
M  V30 6714 H 650.364 2.73252 -1.23586 0
M  V30 6715 H 647.917 1.40825 -0.678088 0
M  V30 6716 H 648.652 2.95949 1.32608 0
M  V30 6717 H 648.437 3.91742 -0.167562 0
M  V30 6718 H 649.927 4.09746 0.806107 0
M  V30 6719 N 650.364 0.662433 1.43002 0
M  V30 6720 C 651.327 -0.0142016 2.29196 0
M  V30 6721 C 652.327 -0.741394 1.42688 0
M  V30 6722 O 653.517 -0.581257 1.64216 0
M  V30 6723 C 650.649 -1.03084 3.24941 0
M  V30 6724 H 651.842 0.7443 2.90517 0
M  V30 6725 H 649.395 0.424133 1.50435 0
M  V30 6726 H 650.13 -1.81826 2.68533 0
M  V30 6727 H 649.915 -0.512946 3.8873 0
M  V30 6728 H 651.405 -1.50308 3.89612 0
M  V30 6729 N 651.842 -1.52309 0.404946 0
M  V30 6730 C 652.79 -2.28452 -0.437321 0
M  V30 6731 C 653.784 -1.32975 -1.04948 0
M  V30 6732 O 654.99 -1.50451 -0.988159 0
M  V30 6733 H 651.365 -0.734824 -0.159805 0
M  V30 6734 H 653.336 -2.97542 0.22615 0
M  V30 6735 C 652.085 -3.11536 -1.54404 0
M  V30 6736 H 651.408 -3.84871 -1.08233 0
M  V30 6737 H 652.848 -3.67926 -2.10729 0
M  V30 6738 C 651.307 -2.24833 -2.50902 0
M  V30 6739 O 651.837 -1.88574 -3.54687 0
M  V30 6740 N 650.043 -1.88685 -2.21012 0
M  V30 6741 H 649.59 -2.18371 -1.36646 0
M  V30 6742 H 649.548 -1.30966 -2.85824 0
M  V30 6743 N 653.32 -0.135238 -1.57019 0
M  V30 6744 C 654.23 0.822226 -2.19719 0
M  V30 6745 C 655.246 1.28057 -1.17802 0
M  V30 6746 O 656.422 1.3402 -1.50335 0
M  V30 6747 C 653.487 2.0484 -2.79717 0
M  V30 6748 C 652.548 1.64042 -3.96723 0
M  V30 6749 C 651.781 2.80814 -4.53849 0
M  V30 6750 O 652.004 3.967 -4.0986 0
M  V30 6751 O 650.938 2.56963 -5.44292 0
M  V30 6752 H 654.764 0.318552 -3.02025 0
M  V30 6753 H 652.349 0.0912021 -1.49121 0
M  V30 6754 H 654.231 2.76622 -3.17897 0
M  V30 6755 H 652.906 2.54182 -2.00432 0
M  V30 6756 H 651.813 0.893182 -3.63281 0
M  V30 6757 H 653.146 1.19426 -4.77492 0
M  V30 6758 N 654.798 1.5699 0.138552 0
M  V30 6759 C 656.045 1.83809 0.849732 0
M  V30 6760 C 656.373 0.717409 1.80786 0
M  V30 6761 O 655.628 -0.292897 1.93496 0
M  V30 6762 C 655.927 3.17007 1.65049 0
M  V30 6763 C 655.593 4.43037 0.838398 0
M  V30 6764 C 654.255 4.77262 0.614385 0
M  V30 6765 C 656.607 5.20495 0.271044 0
M  V30 6766 C 653.935 5.864 -0.187552 0
M  V30 6767 C 656.287 6.30476 -0.517979 0
M  V30 6768 C 654.951 6.63245 -0.75249 0
M  V30 6769 H 654.221 0.672605 0.310939 0
M  V30 6770 H 656.868 1.91166 0.112971 0
M  V30 6771 H 655.173 3.05138 2.4576 0
M  V30 6772 H 656.87 3.34975 2.20437 0
M  V30 6773 H 653.46 4.16211 1.02307 0
M  V30 6774 H 657.644 4.94422 0.431371 0
M  V30 6775 H 652.9 6.10226 -0.378659 0
M  V30 6776 H 657.074 6.89686 -0.964694 0
M  V30 6777 H 654.701 7.47648 -1.37573 0
M  V30 6778 N 656.276 -0.40816 1.52223 0
M  V30 6779 C 657.209 -1.51834 1.70357 0
M  V30 6780 C 658.187 -1.52973 0.551171 0
M  V30 6781 O 659.371 -1.71667 0.778642 0
M  V30 6782 C 656.498 -2.90362 1.74378 0
M  V30 6783 C 655.544 -3.0713 2.95928 0
M  V30 6784 S 656.377 -2.80342 4.56255 0
M  V30 6785 C 657.533 -4.21098 4.63063 0
M  V30 6786 H 657.766 -1.36223 2.64255 0
M  V30 6787 H 655.299 -0.599798 1.42274 0
M  V30 6788 H 657.257 -3.70199 1.77379 0
M  V30 6789 H 655.918 -3.03314 0.816063 0
M  V30 6790 H 655.111 -4.08482 2.95226 0
M  V30 6791 H 654.713 -2.3516 2.90819 0
M  V30 6792 H 657.005 -5.14749 4.40499 0
M  V30 6793 H 657.948 -4.26823 5.65002 0
M  V30 6794 H 658.356 -4.06114 3.92086 0
M  V30 6795 N 657.755 -1.42862 -0.66545 0
M  V30 6796 C 658.688 -1.41509 -1.79026 0
M  V30 6797 C 659.666 -0.278106 -1.60204 0
M  V30 6798 O 660.85 -0.469792 -1.82552 0
M  V30 6799 C 657.977 -1.21494 -3.1616 0
M  V30 6800 C 657.023 -2.38308 -3.53711 0
M  V30 6801 S 657.856 -4.00852 -3.55075 0
M  V30 6802 C 659.012 -3.83197 -4.94885 0
M  V30 6803 H 659.245 -2.36691 -1.79902 0
M  V30 6804 H 656.778 -1.29746 -0.836977 0
M  V30 6805 H 658.736 -1.10633 -3.95311 0
M  V30 6806 H 657.397 -0.27881 -3.1286 0
M  V30 6807 H 656.59 -2.20076 -4.53412 0
M  V30 6808 H 656.192 -2.45732 -2.81943 0
M  V30 6809 H 658.484 -3.44765 -5.83218 0
M  V30 6810 H 659.427 -4.82607 -5.18166 0
M  V30 6811 H 659.835 -3.15884 -4.67843 0
M  V30 6812 N 659.233 0.902656 -1.29189 0
M  V30 6813 C 660.163 2.02294 -1.16616 0
M  V30 6814 C 661.144 1.6999 -0.0611175 0
M  V30 6815 O 662.329 1.9271 -0.240072 0
M  V30 6816 C 659.459 3.37018 -0.83882 0
M  V30 6817 C 658.413 3.83522 -1.89986 0
M  V30 6818 C 657.739 5.15337 -1.42589 0
M  V30 6819 C 659.039 4.04169 -3.30824 0
M  V30 6820 H 660.733 2.13071 -2.10336 0
M  V30 6821 H 658.279 1.02378 -1.01266 0
M  V30 6822 H 660.232 4.14895 -0.737584 0
M  V30 6823 H 658.956 3.26325 0.134071 0
M  V30 6824 H 657.615 3.07859 -1.99043 0
M  V30 6825 H 657.263 5.01056 -0.441759 0
M  V30 6826 H 656.963 5.47423 -2.13547 0
M  V30 6827 H 658.487 5.95758 -1.3381 0
M  V30 6828 H 659.901 4.72537 -3.24626 0
M  V30 6829 H 658.298 4.47604 -3.99713 0
M  V30 6830 H 659.368 3.08604 -3.74021 0
M  V30 6831 N 660.711 1.11618 1.11262 0
M  V30 6832 C 661.988 0.777876 1.79467 0
M  V30 6833 C 662.368 -0.733774 1.97937 0
M  V30 6834 O 661.716 -1.66443 1.56554 0
M  V30 6835 C 661.926 1.5431 3.13032 0
M  V30 6836 C 663.274 1.72357 3.88044 0
M  V30 6837 O 664.298 1.5075 3.22727 0
M  V30 6838 O 663.157 2.08276 5.05256 0
M  V30 6839 H 660.251 0.282018 0.777428 0
M  V30 6840 H 662.797 1.21971 1.17988 0
M  V30 6841 H 661.569 2.57132 2.94956 0
M  V30 6842 H 661.192 1.09495 3.82226 0
M  V30 6843 N 662.189 -1.289 0.906776 0
M  V30 6844 C 663.466 -1.90221 0.455537 0
M  V30 6845 C 663.846 -1.82251 -1.06527 0
M  V30 6846 O 663.194 -1.25385 -1.91026 0
M  V30 6847 C 663.404 -3.35015 0.97806 0
M  V30 6848 C 664.752 -4.12018 1.02598 0
M  V30 6849 O 665.776 -3.43947 0.926218 0
M  V30 6850 O 664.635 -5.33677 1.17689 0
M  V30 6851 H 661.729 -0.814505 0.143214 0
M  V30 6852 H 664.275 -1.37317 0.997104 0
M  V30 6853 H 663.047 -3.35006 2.02204 0
M  V30 6854 H 662.67 -3.95408 0.416914 0
M  V30 6855 N 663.667 -0.670007 -1.42649 0
M  V30 6856 C 664.597 -0.00258501 -2.335 0
M  V30 6857 C 665.578 0.794364 -1.50412 0
M  V30 6858 O 666.763 0.75248 -1.79029 0
M  V30 6859 C 663.893 0.952748 -3.33976 0
M  V30 6860 C 662.847 0.264733 -4.2718 0
M  V30 6861 C 662.173 1.33267 -5.17826 0
M  V30 6862 C 663.473 -0.853289 -5.15283 0
M  V30 6863 H 665.167 -0.761326 -2.89559 0
M  V30 6864 H 662.713 -0.367561 -1.3923 0
M  V30 6865 H 664.666 1.4287 -3.96442 0
M  V30 6866 H 663.39 1.74285 -2.7621 0
M  V30 6867 H 662.049 -0.190938 -3.66102 0
M  V30 6868 H 661.697 2.11464 -4.5639 0
M  V30 6869 H 661.397 0.877476 -5.81011 0
M  V30 6870 H 662.921 1.80965 -5.83167 0
M  V30 6871 H 664.335 -0.458763 -5.71462 0
M  V30 6872 H 662.732 -1.23398 -5.87276 0
M  V30 6873 H 663.802 -1.70412 -4.53969 0
M  V30 6874 N 665.145 1.52092 -0.413018 0
M  V30 6875 C 666.394 2.01041 0.16287 0
M  V30 6876 C 666.707 1.30288 1.45892 0
M  V30 6877 O 667.913 1.70075 2.11629 0
M  V30 6878 C 666.369 3.58283 0.340806 0
M  V30 6879 C 665.977 4.37955 -0.943377 0
M  V30 6880 C 667.721 4.15452 0.871774 0
M  V30 6881 C 665.628 5.86847 -0.732417 0
M  V30 6882 H 664.558 0.751224 0.0646414 0
M  V30 6883 H 667.209 1.75404 -0.539059 0
M  V30 6884 H 665.591 3.80266 1.10516 0
M  V30 6885 H 666.765 4.2773 -1.71418 0
M  V30 6886 H 665.08 3.92122 -1.40105 0
M  V30 6887 H 667.677 5.24375 1.0457 0
M  V30 6888 H 668.02 3.73057 1.84755 0
M  V30 6889 H 668.553 3.97452 0.166377 0
M  V30 6890 H 665.292 6.33609 -1.67986 0
M  V30 6891 H 664.812 5.998 -0.000980058 0
M  V30 6892 H 666.491 6.45906 -0.376105 0
M  V30 6893 N 666.623 0.143563 1.56945 0
M  V30 6894 C 667.553 -0.7936 2.196 0
M  V30 6895 C 668.534 -1.25955 1.14321 0
M  V30 6896 O 669.719 -1.31773 1.42651 0
M  V30 6897 C 666.849 -2.03424 2.81489 0
M  V30 6898 C 665.803 -1.70519 3.92565 0
M  V30 6899 C 665.129 -3.01817 4.41373 0
M  V30 6900 C 666.429 -0.95449 5.13504 0
M  V30 6901 H 668.123 -0.271423 2.98167 0
M  V30 6902 H 665.669 -0.12911 1.4342 0
M  V30 6903 H 667.622 -2.69463 3.23987 0
M  V30 6904 H 666.346 -2.58008 2.00248 0
M  V30 6905 H 665.005 -1.06859 3.5068 0
M  V30 6906 H 664.653 -3.54386 3.56959 0
M  V30 6907 H 664.353 -2.80565 5.16292 0
M  V30 6908 H 665.877 -3.68934 4.86539 0
M  V30 6909 H 667.291 -1.5169 5.52868 0
M  V30 6910 H 665.688 -0.842035 5.94163 0
M  V30 6911 H 666.758 0.0544033 4.84869 0
M  V30 6912 N 668.101 -1.57061 -0.130224 0
M  V30 6913 C 669.326 -1.88802 -0.858409 0
M  V30 6914 C 669.751 -0.734353 -1.73173 0
M  V30 6915 O 669.109 0.315529 -1.78533 0
M  V30 6916 C 669.157 -3.19228 -1.67708 0
M  V30 6917 O 668.261 -3.04343 -2.78297 0
M  V30 6918 H 667.602 -0.619849 -0.238083 0
M  V30 6919 H 670.132 -2.04271 -0.115995 0
M  V30 6920 H 670.142 -3.51669 -2.06864 0
M  V30 6921 H 668.817 -4.02793 -1.0359 0
M  V30 6922 H 667.394 -2.83346 -2.42425 0
M  V30 6923 N 669.579 0.400081 -1.52437 0
M  V30 6924 C 670.828 1.14332 -1.66166 0
M  V30 6925 C 671.141 1.91419 -0.402253 0
M  V30 6926 O 672.347 2.6824 -0.419487 0
M  V30 6927 C 670.803 2.08137 -2.9361 0
M  V30 6928 C 670.411 1.36524 -4.26691 0
M  V30 6929 C 672.155 2.82664 -3.16703 0
M  V30 6930 C 670.062 2.29031 -5.45251 0
M  V30 6931 H 668.992 0.430499 -0.61902 0
M  V30 6932 H 671.643 0.407017 -1.78929 0
M  V30 6933 H 670.025 2.85358 -2.74567 0
M  V30 6934 H 671.199 0.646061 -4.56249 0
M  V30 6935 H 669.514 0.74002 -4.09771 0
M  V30 6936 H 672.111 3.52037 -4.0246 0
M  V30 6937 H 672.454 3.46122 -2.31312 0
M  V30 6938 H 672.987 2.12541 -3.36261 0
M  V30 6939 H 669.726 1.70206 -6.33017 0
M  V30 6940 H 669.246 2.98896 -5.2002 0
M  V30 6941 H 670.925 2.89359 -5.78689 0
M  V30 6942 N 671.057 1.43213 0.657864 0
M  V30 6943 C 672.02 1.47687 1.75275 0
M  V30 6944 C 673.02 0.362179 1.56668 0
M  V30 6945 O 674.21 0.623734 1.62651 0
M  V30 6946 C 671.342 1.32497 3.14098 0
M  V30 6947 H 672.535 2.4519 1.7269 0
M  V30 6948 H 670.088 1.2991 0.869087 0
M  V30 6949 H 670.823 0.359831 3.22298 0
M  V30 6950 H 670.608 2.13299 3.29008 0
M  V30 6951 H 672.098 1.38549 3.93946 0
M  V30 6952 N 672.536 -0.895792 1.29666 0
M  V30 6953 C 673.785 -1.64131 1.17234 0
M  V30 6954 C 674.098 -1.93665 -0.274416 0
M  V30 6955 O 675.304 -2.66472 -0.520105 0
M  V30 6956 C 673.76 -2.95764 2.05065 0
M  V30 6957 C 673.368 -2.7381 3.54587 0
M  V30 6958 C 675.112 -3.737 2.01367 0
M  V30 6959 C 673.019 -4.01194 4.34508 0
M  V30 6960 H 671.949 -0.615742 0.435175 0
M  V30 6961 H 674.6 -0.992626 1.54335 0
M  V30 6962 H 672.982 -3.61867 1.60837 0
M  V30 6963 H 674.156 -2.16277 4.06892 0
M  V30 6964 H 672.471 -2.09265 3.59996 0
M  V30 6965 H 675.068 -4.68152 2.58337 0
M  V30 6966 H 675.411 -4.04245 0.994575 0
M  V30 6967 H 675.944 -3.14444 2.43659 0
M  V30 6968 H 672.683 -3.75813 5.37071 0
M  V30 6969 H 672.203 -4.58272 3.86971 0
M  V30 6970 H 673.882 -4.69307 4.45376 0
M  V30 6971 N 674.014 -1.12206 -1.10668 0
M  V30 6972 C 675.244 -0.897332 -1.86095 0
M  V30 6973 C 675.652 0.556778 -1.80822 0
M  V30 6974 O 674.995 1.39658 -1.19337 0
M  V30 6975 C 675.057 -1.29095 -3.35522 0
M  V30 6976 C 674.721 -2.75586 -3.64556 0
M  V30 6977 C 675.718 -3.73785 -3.6136 0
M  V30 6978 C 673.403 -3.12432 -3.93309 0
M  V30 6979 C 675.397 -5.06845 -3.86506 0
M  V30 6980 C 673.084 -4.45675 -4.18111 0
M  V30 6981 C 674.082 -5.42691 -4.147 0
M  V30 6982 O 673.77 -6.73532 -4.38873 0
M  V30 6983 H 673.502 -0.320704 -0.595084 0
M  V30 6984 H 676.056 -1.49517 -1.40833 0
M  V30 6985 H 674.286 -0.636299 -3.81429 0
M  V30 6986 H 675.975 -1.04073 -3.92331 0
M  V30 6987 H 676.741 -3.46664 -3.39189 0
M  V30 6988 H 672.62 -2.3753 -3.95096 0
M  V30 6989 H 676.164 -5.82559 -3.83758 0
M  V30 6990 H 672.061 -4.72526 -4.39761 0
M  V30 6991 H 672.829 -6.79442 -4.564 0
M  V30 6992 N 675.492 1.28418 -0.913599 0
M  V30 6993 C 676.455 2.25564 -0.406624 0
M  V30 6994 C 677.455 1.5387 0.466965 0
M  V30 6995 O 678.645 1.72094 0.270042 0
M  V30 6996 C 675.777 3.38339 0.417053 0
M  V30 6997 H 676.97 2.71926 -1.26477 0
M  V30 6998 H 674.523 1.40098 -0.692986 0
M  V30 6999 H 675.258 2.97339 1.29461 0
M  V30 7000 H 675.043 3.91542 -0.209102 0
M  V30 7001 H 676.533 4.10578 0.762602 0
M  V30 7002 N 676.97 0.677563 1.42291 0
M  V30 7003 C 677.88 0.000962654 2.346 0
M  V30 7004 C 678.896 -0.785833 1.55244 0
M  V30 7005 O 680.072 -0.727523 1.87801 0
M  V30 7006 C 677.137 -0.936746 3.33805 0
M  V30 7007 C 676.198 -0.144173 4.29058 0
M  V30 7008 C 675.431 -1.03722 5.23524 0
M  V30 7009 O 675.654 -2.27675 5.22992 0
M  V30 7010 O 674.588 -0.496542 5.99848 0
M  V30 7011 H 678.414 0.761397 2.94001 0
M  V30 7012 H 675.999 0.43781 1.42841 0
M  V30 7013 H 677.881 -1.47497 3.94744 0
M  V30 7014 H 676.556 -1.67698 2.76874 0
M  V30 7015 H 675.463 0.438224 3.71524 0
M  V30 7016 H 676.796 0.55701 4.89038 0
M  V30 7017 N 678.448 -1.51871 0.421078 0
M  V30 7018 C 679.411 -2.25914 -0.386712 0
M  V30 7019 C 680.411 -1.28733 -0.963555 0
M  V30 7020 O 681.601 -1.52579 -0.840556 0
M  V30 7021 C 678.733 -3.03853 -1.54551 0
M  V30 7022 H 679.926 -2.98754 0.261978 0
M  V30 7023 H 677.479 -1.5533 0.173862 0
M  V30 7024 H 678.214 -2.35392 -2.23072 0
M  V30 7025 H 677.999 -3.75215 -1.13824 0
M  V30 7026 H 679.489 -3.59984 -2.11663 0
M  V30 7027 N 679.926 -0.151884 -1.56866 0
M  V30 7028 C 681.175 0.497992 -1.95456 0
M  V30 7029 C 681.488 1.6569 -1.03953 0
M  V30 7030 O 682.694 2.37173 -1.32142 0
M  V30 7031 C 681.15 0.93732 -3.4748 0
M  V30 7032 C 680.758 -0.194921 -4.47576 0
M  V30 7033 C 682.502 1.55671 -3.94926 0
M  V30 7034 C 680.409 0.26295 -5.90815 0
M  V30 7035 H 679.339 0.189811 -0.729717 0
M  V30 7036 H 681.99 -0.237011 -1.81963 0
M  V30 7037 H 680.372 1.72773 -3.56322 0
M  V30 7038 H 681.546 -0.971951 -4.50433 0
M  V30 7039 H 679.861 -0.72303 -4.10075 0
M  V30 7040 H 682.458 1.91099 -4.99385 0
M  V30 7041 H 682.801 2.44748 -3.36755 0
M  V30 7042 H 683.334 0.831109 -3.89021 0
M  V30 7043 H 680.073 -0.592568 -6.52816 0
M  V30 7044 H 679.593 1.00575 -5.91308 0
M  V30 7045 H 681.272 0.713333 -6.43056 0
M  V30 7046 N 681.404 1.57128 0.121893 0
M  V30 7047 C 682.634 1.88609 0.843227 0
M  V30 7048 C 683.042 0.740917 1.74089 0
M  V30 7049 O 682.385 -0.297426 1.81276 0
M  V30 7050 C 682.447 3.15073 1.73117 0
M  V30 7051 C 682.111 4.45742 1.0081 0
M  V30 7052 C 683.108 5.18719 0.350255 0
M  V30 7053 C 680.793 4.92444 0.99014 0
M  V30 7054 C 682.787 6.36617 -0.315889 0
M  V30 7055 C 680.474 6.10261 0.320196 0
M  V30 7056 C 681.472 6.82194 -0.331666 0
M  V30 7057 O 681.16 7.97769 -0.990927 0
M  V30 7058 H 680.892 0.628919 0.247865 0
M  V30 7059 H 683.446 2.05096 0.111725 0
M  V30 7060 H 681.676 2.9466 2.50424 0
M  V30 7061 H 683.365 3.32597 2.32667 0
M  V30 7062 H 684.131 4.83693 0.35577 0
M  V30 7063 H 680.01 4.36361 1.48695 0
M  V30 7064 H 683.554 6.92701 -0.825272 0
M  V30 7065 H 679.451 6.44743 0.312433 0
M  V30 7066 H 680.219 8.13591 -0.895113 0
M  V30 7067 N 682.882 -0.391992 1.52647 0
M  V30 7068 C 683.792 -1.503 1.80131 0
M  V30 7069 C 684.808 -1.59825 0.687882 0
M  V30 7070 O 685.984 -1.76218 0.975149 0
M  V30 7071 C 683.049 -2.85863 1.96171 0
M  V30 7072 C 682.11 -2.86084 3.20085 0
M  V30 7073 C 681.343 -4.15181 3.35351 0
M  V30 7074 O 681.566 -5.09981 2.55491 0
M  V30 7075 O 680.5 -4.22603 4.28591 0
M  V30 7076 H 684.326 -1.30007 2.74466 0
M  V30 7077 H 681.911 -0.579539 1.37701 0
M  V30 7078 H 683.793 -3.66236 2.08445 0
M  V30 7079 H 682.468 -3.06189 1.05025 0
M  V30 7080 H 681.375 -2.04504 3.13256 0
M  V30 7081 H 682.708 -2.7071 4.11068 0
M  V30 7082 N 684.36 -1.4356 -0.65026 0
M  V30 7083 C 685.29 -1.51758 -1.77459 0
M  V30 7084 C 686.271 -0.372019 -1.65982 0
M  V30 7085 O 687.456 -0.589627 -1.85033 0
M  V30 7086 C 684.586 -1.44302 -3.15902 0
M  V30 7087 C 683.54 -2.57138 -3.42146 0
M  V30 7088 C 682.866 -2.34735 -4.8042 0
M  V30 7089 C 684.166 -3.99373 -3.36598 0
M  V30 7090 H 685.86 -2.45863 -1.70855 0
M  V30 7091 H 683.406 -1.18333 -0.820566 0
M  V30 7092 H 685.359 -1.48641 -3.94314 0
M  V30 7093 H 684.083 -0.467026 -3.23244 0
M  V30 7094 H 682.742 -2.52157 -2.66106 0
M  V30 7095 H 682.39 -1.35372 -4.84441 0
M  V30 7096 H 682.09 -3.10375 -4.9894 0
M  V30 7097 H 683.614 -2.40862 -5.61086 0
M  V30 7098 H 685.028 -4.05826 -4.04942 0
M  V30 7099 H 683.425 -4.75063 -3.66654 0
M  V30 7100 H 684.495 -4.243 -2.34729 0
M  V30 7101 N 685.838 0.888903 -1.30139 0
M  V30 7102 C 687.066 1.67358 -1.21651 0
M  V30 7103 C 687.481 1.87499 0.221246 0
M  V30 7104 O 686.838 1.41969 1.14677 0
M  V30 7105 C 686.889 3.05213 -1.93719 0
M  V30 7106 O 686.61 2.85984 -3.31881 0
M  V30 7107 C 688.111 3.9964 -1.9184 0
M  V30 7108 H 685.331 0.522365 -0.42116 0
M  V30 7109 H 687.875 1.11086 -1.71698 0
M  V30 7110 H 686.03 3.5823 -1.4748 0
M  V30 7111 H 686.444 3.73411 -3.68327 0
M  V30 7112 H 687.918 4.93749 -2.46811 0
M  V30 7113 H 688.395 4.29955 -0.896409 0
M  V30 7114 H 689.001 3.52558 -2.37872 0
M  V30 7115 N 687.317 1.12792 1.10072 0
M  V30 7116 C 688.264 0.79921 2.16521 0
M  V30 7117 C 689.234 -0.235726 1.64419 0
M  V30 7118 O 690.419 -0.109457 1.90486 0
M  V30 7119 C 687.559 0.264091 3.44088 0
M  V30 7120 C 686.672 1.35729 4.10124 0
M  V30 7121 C 685.807 0.781212 5.25424 0
M  V30 7122 C 684.846 1.85327 5.8337 0
M  V30 7123 N 683.983 1.29564 6.90042 0
M  V30 7124 H 688.823 1.71105 2.43981 0
M  V30 7125 H 686.36 0.854225 1.19756 0
M  V30 7126 H 688.318 -0.0642423 4.17151 0
M  V30 7127 H 686.948 -0.610901 3.16967 0
M  V30 7128 H 686 1.80234 3.34993 0
M  V30 7129 H 687.312 2.16782 4.4923 0
M  V30 7130 H 686.466 0.403769 6.05355 0
M  V30 7131 H 685.205 -0.0604686 4.87663 0
M  V30 7132 H 684.21 2.23986 5.02106 0
M  V30 7133 H 685.435 2.69824 6.23195 0
M  V30 7134 H 683.381 0.475844 6.54272 0
M  V30 7135 H 683.298 2.04271 7.2788 0
M  V30 7136 H 684.566 0.945545 7.73744 0
M  V30 7137 N 688.795 -1.27931 0.920396 0
M  V30 7138 C 690.072 -1.89728 0.475687 0
M  V30 7139 C 690.452 -1.8337 -1.04588 0
M  V30 7140 O 689.8 -1.27404 -1.89685 0
M  V30 7141 C 690.01 -3.33959 1.01354 0
M  V30 7142 C 691.358 -4.10907 1.06963 0
M  V30 7143 O 692.382 -3.42945 0.962646 0
M  V30 7144 O 691.241 -5.32399 1.23343 0
M  V30 7145 H 688.335 -0.81294 0.151845 0
M  V30 7146 H 690.881 -1.36252 1.01161 0
M  V30 7147 H 689.653 -3.32843 2.05746 0
M  V30 7148 H 689.276 -3.94944 0.458829 0
M  V30 7149 N 690.273 -0.685099 -1.4193 0
M  V30 7150 C 691.183 -0.013404 -2.34596 0
M  V30 7151 C 692.199 0.777589 -1.55658 0
M  V30 7152 O 693.375 0.717553 -1.88184 0
M  V30 7153 C 690.44 0.919031 -3.34297 0
M  V30 7154 C 689.501 0.121417 -4.29128 0
M  V30 7155 C 688.734 1.00944 -5.24067 0
M  V30 7156 O 688.957 2.24898 -5.24192 0
M  V30 7157 O 687.891 0.464724 -6.00103 0
M  V30 7158 H 691.717 -0.776978 -2.93593 0
M  V30 7159 H 689.302 -0.445379 -1.42607 0
M  V30 7160 H 691.184 1.45402 -3.9552 0
M  V30 7161 H 689.859 1.66228 -2.77759 0
M  V30 7162 H 688.766 -0.45792 -3.71287 0
M  V30 7163 H 690.099 -0.582937 -4.88736 0
M  V30 7164 N 691.751 1.51645 -0.429126 0
M  V30 7165 C 692.661 2.31288 0.392809 0
M  V30 7166 C 693.677 1.39852 1.03525 0
M  V30 7167 O 694.853 1.72926 1.03241 0
M  V30 7168 C 691.918 3.13347 1.48372 0
M  V30 7169 C 690.979 4.20551 0.862268 0
M  V30 7170 C 690.212 4.98688 1.9012 0
M  V30 7171 O 690.435 4.77359 3.12225 0
M  V30 7172 O 689.369 5.83005 1.4963 0
M  V30 7173 H 693.195 3.02609 -0.257138 0
M  V30 7174 H 690.78 1.48163 -0.191851 0
M  V30 7175 H 692.662 3.64387 2.1166 0
M  V30 7176 H 691.337 2.44799 2.1179 0
M  V30 7177 H 690.244 3.73609 0.191568 0
M  V30 7178 H 691.577 4.91449 0.271704 0
M  V30 7179 N 693.229 0.160201 1.56784 0
M  V30 7180 C 694.159 -0.770264 2.2043 0
M  V30 7181 C 695.14 -1.24736 1.15651 0
M  V30 7182 O 696.325 -1.30253 1.44041 0
M  V30 7183 C 693.455 -2.00427 2.83631 0
M  V30 7184 C 692.409 -1.66345 3.94352 0
M  V30 7185 C 691.735 -2.97119 4.4455 0
M  V30 7186 C 693.035 -0.899972 5.14488 0
M  V30 7187 H 694.729 -0.239783 2.98438 0
M  V30 7188 H 692.275 -0.113891 1.43549 0
M  V30 7189 H 694.228 -2.66012 3.26827 0
M  V30 7190 H 692.952 -2.5587 2.02973 0
M  V30 7191 H 691.611 -1.03133 3.51794 0
M  V30 7192 H 691.259 -3.5058 3.60698 0
M  V30 7193 H 690.959 -2.75073 5.19238 0
M  V30 7194 H 692.483 -3.63753 4.90425 0
M  V30 7195 H 693.897 -1.45818 5.54446 0
M  V30 7196 H 692.294 -0.778968 5.95023 0
M  V30 7197 H 693.364 0.105827 4.84785 0
M  V30 7198 O 694.746 -1.61485 0.0219998 0
M  V30 7199 H 695.437 -1.84445 -0.591595 0
M  V30 END ATOM
M  V30 BEGIN BOND
M  V30 END BOND
M  V30 END CTAB
M  END
$$$$
