drugbank_target|P45568 1-deoxy-D-xylulose 5-phosphate reductoisomerase (DB02496; DB02948; DB03649)
 OpenBabel12092119563D

  0  0  0     0  0            999 V3000
M  V30 BEGIN CTAB
M  V30 COUNTS 6085 6133 0 0 0
M  V30 BEGIN ATOM
M  V30 1 H -0.908 1.98254 -0.117106 0
M  V30 2 N 0 1.576 0 0
M  V30 3 C 0.933 2.03868 1.02534 0
M  V30 4 C 1.911 0.928543 1.3348 0
M  V30 5 O 3.095 1.19667 1.45644 0
M  V30 6 C 0.222 2.43627 2.35294 0
M  V30 7 C -0.732 3.65373 2.2001 0
M  V30 8 S 0.101 5.13292 1.52614 0
M  V30 9 C 1.257 5.56322 2.86805 0
M  V30 10 H 1.49 2.90518 0.631377 0
M  V30 11 H -0.977 1.52953 0.210867 0
M  V30 12 H 0.981 2.67203 3.11629 0
M  V30 13 H -0.358 1.57376 2.7183 0
M  V30 14 H -1.165 3.90944 3.18086 0
M  V30 15 H -1.563 3.418 1.51819 0
M  V30 16 H 0.729 5.58782 3.83104 0
M  V30 17 H 1.672 6.56266 2.65933 0
M  V30 18 H 2.08 4.83886 2.90714 0
M  V30 19 N 1.4781 -0.272755 1.55222 0
M  V30 20 C 2.4251 -1.33716 1.88119 0
M  V30 21 C 3.3951 -1.49066 0.73271 0
M  V30 22 O 4.5801 -1.63469 0.984002 0
M  V30 23 C 1.7201 -2.69238 2.15882 0
M  V30 24 C 0.8331 -2.62108 3.43399 0
M  V30 25 C -0.0319 -3.89811 3.60861 0
M  V30 26 C -0.9929 -3.77193 4.8207 0
M  V30 27 N -1.8559 -4.9673 4.96189 0
M  V30 28 H 2.9841 -1.04962 2.78903 0
M  V30 29 H 0.5211 -0.507088 1.38083 0
M  V30 30 H 2.4791 -3.48089 2.29978 0
M  V30 31 H 1.1091 -2.96194 1.28331 0
M  V30 32 H 0.1611 -1.74967 3.37773 0
M  V30 33 H 1.4731 -2.48685 4.32386 0
M  V30 34 H 0.6271 -4.77103 3.74777 0
M  V30 35 H -0.6339 -4.06102 2.7006 0
M  V30 36 H -1.6289 -2.88284 4.68159 0
M  V30 37 H -0.4039 -3.62421 5.74307 0
M  V30 38 H -2.4579 -5.13431 4.08319 0
M  V30 39 H -2.5409 -4.85839 5.79221 0
M  V30 40 H -1.2729 -5.85594 5.1449 0
M  V30 41 N 2.9562 -1.48159 -0.537278 0
M  V30 42 C 3.8882 -1.58218 -1.65831 0
M  V30 43 C 4.9012 -0.466948 -1.5596 0
M  V30 44 O 6.0902 -0.73747 -1.62553 0
M  V30 45 C 3.1902 -1.48906 -3.04434 0
M  V30 46 C 2.3632 -2.75343 -3.3986 0
M  V30 47 C 1.4222 -2.59588 -4.57712 0
M  V30 48 O 0.4482 -3.33457 -4.61297 0
M  V30 49 N 1.6502 -1.68724 -5.55439 0
M  V30 50 H 4.4152 -2.54891 -1.57641 0
M  V30 51 H 1.9762 -1.4479 -0.724386 0
M  V30 52 H 3.9682 -1.36072 -3.81139 0
M  V30 53 H 2.5382 -0.602368 -3.06741 0
M  V30 54 H 1.7582 -3.02795 -2.52406 0
M  V30 55 H 3.0462 -3.5924 -3.60311 0
M  V30 56 H 2.4442 -1.07898 -5.55315 0
M  V30 57 H 1.0012 -1.61832 -6.3139 0
M  V30 58 N 4.4343 0.785586 -1.36625 0
M  V30 59 C 5.3643 1.91259 -1.33949 0
M  V30 60 C 6.3453 1.68795 -0.210325 0
M  V30 61 O 7.5303 1.89854 -0.408561 0
M  V30 62 C 4.6603 3.28339 -1.13186 0
M  V30 63 C 3.6143 3.65335 -2.22967 0
M  V30 64 C 2.9403 5.00806 -1.87342 0
M  V30 65 C 4.2403 3.7352 -3.65075 0
M  V30 66 H 5.9343 1.93755 -2.28253 0
M  V30 67 H 3.4803 0.930788 -1.09874 0
M  V30 68 H 5.4333 4.06804 -1.09948 0
M  V30 69 H 4.1573 3.2624 -0.153332 0
M  V30 70 H 2.8163 2.89169 -2.25337 0
M  V30 71 H 2.4643 4.95233 -0.880545 0
M  V30 72 H 2.1643 5.26529 -2.60846 0
M  V30 73 H 3.6883 5.81687 -1.85667 0
M  V30 74 H 5.1023 4.42168 -3.64911 0
M  V30 75 H 3.4993 4.10731 -4.37516 0
M  V30 76 H 4.5693 2.74527 -3.99703 0
M  V30 77 N 5.9124 1.20967 1.01018 0
M  V30 78 C 7.1404 1.04956 1.78303 0
M  V30 79 C 7.5554 -0.400915 1.84494 0
M  V30 80 O 6.9124 -1.27826 1.30257 0
M  V30 81 C 6.9634 1.63403 3.22462 0
M  V30 82 O 6.6844 3.02775 3.16637 0
M  V30 83 C 8.1854 1.52432 4.16268 0
M  V30 84 H 5.4054 0.368858 0.560522 0
M  V30 85 H 7.9494 1.60193 1.27116 0
M  V30 86 H 6.1044 1.1227 3.70775 0
M  V30 87 H 6.5184 3.30626 4.07169 0
M  V30 88 H 7.9924 1.98078 5.15237 0
M  V30 89 H 8.4694 0.477875 4.36592 0
M  V30 90 H 9.0754 2.02787 3.73841 0
M  V30 91 N 7.3905 -1.2043 1.01659 0
M  V30 92 C 8.6395 -1.89118 0.701237 0
M  V30 93 C 8.9525 -1.79705 -0.772358 0
M  V30 94 O 10.1585 -2.43528 -1.20026 0
M  V30 95 C 8.6145 -3.39168 1.20388 0
M  V30 96 C 8.2225 -3.57166 2.70438 0
M  V30 97 C 9.9665 -4.1341 0.963953 0
M  V30 98 C 7.8735 -5.01042 3.14183 0
M  V30 99 H 6.8035 -0.708267 0.2586 0
M  V30 100 H 9.4545 -1.36239 1.22927 0
M  V30 101 H 7.8365 -3.91369 0.603824 0
M  V30 102 H 9.0105 -3.15351 3.35992 0
M  V30 103 H 7.3255 -2.96294 2.92572 0
M  V30 104 H 9.9225 -5.19491 1.26621 0
M  V30 105 H 10.2655 -4.16181 -0.099578 0
M  V30 106 H 10.7985 -3.67309 1.52738 0
M  V30 107 H 7.5375 -5.03426 4.19812 0
M  V30 108 H 7.0575 -5.43668 2.53348 0
M  V30 109 H 8.7365 -5.69623 3.0682 0
M  V30 110 N 8.8686 -0.792821 -1.36206 0
M  V30 111 C 9.7986 -0.207853 -2.32573 0
M  V30 112 C 10.7796 0.659055 -1.56813 0
M  V30 113 O 11.9646 0.592176 -1.84951 0
M  V30 114 C 9.0946 0.655449 -3.41059 0
M  V30 115 C 8.0486 -0.111842 -4.27854 0
M  V30 116 C 7.3746 0.872274 -5.27537 0
M  V30 117 C 8.6746 -1.30299 -5.05786 0
M  V30 118 H 10.3686 -1.01294 -2.81744 0
M  V30 119 H 7.9146 -0.48854 -1.3546 0
M  V30 120 H 9.8676 1.07464 -4.07467 0
M  V30 121 H 8.5916 1.49328 -2.90463 0
M  V30 122 H 7.2506 -0.512053 -3.63006 0
M  V30 123 H 6.8986 1.70523 -4.73214 0
M  V30 124 H 6.5986 0.363291 -5.86476 0
M  V30 125 H 8.1226 1.28996 -5.96818 0
M  V30 126 H 9.5366 -0.959379 -5.65216 0
M  V30 127 H 7.9336 -1.7455 -5.74154 0
M  V30 128 H 9.0036 -2.09663 -4.37229 0
M  V30 129 N 10.3467 1.47872 -0.545128 0
M  V30 130 C 11.5947 2.02093 -0.016553 0
M  V30 131 C 11.9157 1.42305 1.3332 0
M  V30 132 O 11.1857 0.593853 1.86682 0
M  V30 133 H 9.7657 0.746993 -0.00313038 0
M  V30 134 H 12.4277 1.81414 -0.712397 0
M  V30 135 H 11.5237 3.11996 0.0805422 0
M  V30 136 N 11.8248 0.280983 1.55075 0
M  V30 137 C 13.0498 -0.340154 2.04592 0
M  V30 138 C 13.4748 -1.48246 1.15779 0
M  V30 139 O 12.8328 -1.80614 0.15761 0
M  V30 140 C 12.8808 -0.793104 3.5177 0
M  V30 141 O 11.9848 -1.89981 3.66034 0
M  V30 142 H 11.3258 -0.0694289 0.66036 0
M  V30 143 H 13.8558 0.416993 2.00306 0
M  V30 144 H 13.8658 -1.08729 3.93245 0
M  V30 145 H 12.5408 0.0426163 4.15878 0
M  V30 146 H 11.1178 -1.60771 3.36463 0
M  V30 147 N 13.3029 -1.57598 0.00835791 0
M  V30 148 C 14.5309 -1.95214 -0.68549 0
M  V30 149 C 14.9459 -0.883706 -1.66841 0
M  V30 150 O 14.3029 0.136565 -1.81988 0
M  V30 151 C 14.3539 -3.32865 -1.41007 0
M  V30 152 O 14.0749 -4.35609 -0.466552 0
M  V30 153 C 15.5759 -3.84991 -2.19765 0
M  V30 154 H 12.7959 -0.643422 -0.190392 0
M  V30 155 H 15.3399 -2.04406 0.0619607 0
M  V30 156 H 13.4949 -3.24956 -2.10908 0
M  V30 157 H 13.9089 -5.15288 -0.978699 0
M  V30 158 H 15.3829 -4.8371 -2.65948 0
M  V30 159 H 15.8599 -3.18137 -3.02796 0
M  V30 160 H 16.4659 -3.96103 -1.54864 0
M  V30 161 N 14.781 0.264519 -1.55364 0
M  V30 162 C 16.029 0.993021 -1.76021 0
M  V30 163 C 16.35 1.86511 -0.569099 0
M  V30 164 O 15.62 1.91438 0.415735 0
M  V30 165 H 14.2 0.369639 -0.649135 0
M  V30 166 H 16.862 0.286707 -1.9278 0
M  V30 167 H 15.958 1.62502 -2.66457 0
M  V30 168 N 16.2591 1.48442 0.529413 0
M  V30 169 C 17.4841 1.60406 1.31471 0
M  V30 170 C 17.9091 0.264738 1.86228 0
M  V30 171 O 17.2671 -0.763668 1.64432 0
M  V30 172 C 17.3151 2.65419 2.44101 0
M  V30 173 O 16.4191 2.22618 3.47153 0
M  V30 174 H 15.7601 0.537863 0.389357 0
M  V30 175 H 18.2901 1.94432 0.636965 0
M  V30 176 H 18.3001 2.86709 2.90279 0
M  V30 177 H 16.9751 3.62652 2.03608 0
M  V30 178 H 15.5521 2.11543 3.0709 0
M  V30 179 N 17.7372 -0.778329 1.37039 0
M  V30 180 C 18.9862 -1.53189 1.3121 0
M  V30 181 C 19.2992 -1.95328 -0.103095 0
M  V30 182 O 20.5052 -2.70012 -0.283826 0
M  V30 183 C 18.9612 -2.76591 2.30272 0
M  V30 184 C 18.5692 -2.41577 3.77286 0
M  V30 185 C 20.3132 -3.5455 2.33441 0
M  V30 186 C 18.2202 -3.61441 4.68096 0
M  V30 187 H 17.1502 -0.5751 0.487622 0
M  V30 188 H 19.8012 -0.853101 1.62464 0
M  V30 189 H 18.1832 -3.46326 1.92027 0
M  V30 190 H 19.3572 -1.79668 4.2433 0
M  V30 191 H 17.6722 -1.76806 3.76999 0
M  V30 192 H 20.2692 -4.43628 2.98493 0
M  V30 193 H 20.6122 -3.93936 1.34611 0
M  V30 194 H 21.1452 -2.91805 2.7036 0
M  V30 195 H 17.8842 -3.27142 5.6803 0
M  V30 196 H 17.4042 -4.22478 4.25761 0
M  V30 197 H 19.0832 -4.28335 4.8491 0
M  V30 198 N 19.2153 -1.21501 -1.00376 0
M  V30 199 C 20.4633 -1.03095 -1.73827 0
M  V30 200 C 20.7843 0.436341 -1.90055 0
M  V30 201 O 20.0543 1.31466 -1.45236 0
M  V30 202 H 18.6343 -0.378487 -0.644016 0
M  V30 203 H 21.2963 -1.52831 -1.20949 0
M  V30 204 H 20.3923 -1.49991 -2.73695 0
M  V30 205 N 20.6934 1.19889 -1.02296 0
M  V30 206 C 21.9334 1.91125 -0.724602 0
M  V30 207 C 22.2974 1.77464 0.732835 0
M  V30 208 O 23.4984 2.43241 1.144 0
M  V30 209 C 21.7694 3.38187 -1.15604 0
M  V30 210 S 23.3284 4.27702 -0.980621 0
M  V30 211 H 20.1464 0.66018 -0.263976 0
M  V30 212 H 22.7484 1.44978 -1.31155 0
M  V30 213 H 21.4524 3.45653 -2.21251 0
M  V30 214 H 20.9834 3.89363 -0.562131 0
M  V30 215 H 22.9984 4.96073 0.112225 0
M  V30 216 N 22.1715 0.800033 1.35784 0
M  V30 217 C 23.3965 0.388511 2.03729 0
M  V30 218 C 23.8215 -0.990481 1.5991 0
M  V30 219 O 23.1795 -1.64013 0.772612 0
M  V30 220 C 23.2275 0.4726 3.5749 0
M  V30 221 O 22.3315 -0.51646 4.09153 0
M  V30 222 H 21.6725 0.163271 0.643614 0
M  V30 223 H 24.2025 1.0841 1.73518 0
M  V30 224 H 24.2125 0.34003 4.06581 0
M  V30 225 H 22.8875 1.47848 3.88734 0
M  V30 226 H 21.4645 -0.344673 3.71304 0
M  V30 227 N 23.6496 -1.47581 0.552962 0
M  V30 228 C 24.8776 -2.06875 0.0320556 0
M  V30 229 C 25.2926 -1.40625 -1.25976 0
M  V30 230 O 24.6496 -0.501349 -1.75479 0
M  V30 231 C 24.7006 -3.61092 -0.17167 0
M  V30 232 O 24.4216 -4.24858 1.06899 0
M  V30 233 C 25.9226 -4.37242 -0.730344 0
M  V30 234 H 23.1426 -0.669561 0.043915 0
M  V30 235 H 25.6866 -1.89646 0.765163 0
M  V30 236 H 23.8416 -3.7785 -0.854894 0
M  V30 237 H 24.2556 -5.17334 0.864059 0
M  V30 238 H 25.7296 -5.45842 -0.822203 0
M  V30 239 H 26.2066 -4.03235 -1.74064 0
M  V30 240 H 26.8126 -4.25219 -0.0829543 0
M  V30 241 N 25.1277 -0.289203 -1.54924 0
M  V30 242 C 26.0577 0.58549 -2.2604 0
M  V30 243 C 27.0387 1.14753 -1.25562 0
M  V30 244 O 28.2237 1.17906 -1.54311 0
M  V30 245 C 25.3537 1.76305 -2.99222 0
M  V30 246 C 24.3077 1.33191 -4.06748 0
M  V30 247 C 23.6337 2.5937 -4.6758 0
M  V30 248 C 24.9337 0.471775 -5.20165 0
M  V30 249 H 26.6277 -0.00763532 -2.99399 0
M  V30 250 H 24.1737 -0.00511229 -1.43999 0
M  V30 251 H 26.1267 2.38097 -3.47689 0
M  V30 252 H 24.8507 2.38223 -2.23422 0
M  V30 253 H 23.5097 0.737121 -3.59113 0
M  V30 254 H 23.1577 3.19576 -3.88433 0
M  V30 255 H 22.8577 2.31228 -5.40192 0
M  V30 256 H 24.3817 3.21985 -5.18804 0
M  V30 257 H 25.7957 0.995056 -5.64599 0
M  V30 258 H 24.1927 0.284639 -5.99425 0
M  V30 259 H 25.2627 -0.506041 -4.82252 0
M  V30 260 N 26.6058 1.57591 -0.0167156 0
M  V30 261 C 27.8828 1.82547 0.702564 0
M  V30 262 C 28.2628 0.898018 1.91047 0
M  V30 263 O 27.6108 -0.0493456 2.28447 0
M  V30 264 C 27.8208 3.31459 1.09251 0
M  V30 265 C 29.1688 3.97622 1.48937 0
M  V30 266 O 30.1928 3.35881 1.18584 0
M  V30 267 O 29.0518 5.06415 2.05442 0
M  V30 268 H 26.1458 0.752268 0.343544 0
M  V30 269 H 28.6918 1.69644 -0.0434495 0
M  V30 270 H 27.4638 3.9061 0.23227 0
M  V30 271 H 27.0868 3.49422 1.89709 0
M  V30 272 N 28.0839 -0.256276 1.55502 0
M  V30 273 C 29.3299 -0.987079 1.77157 0
M  V30 274 C 29.6629 -1.85327 0.580315 0
M  V30 275 O 28.9379 -1.89874 -0.421686 0
M  V30 276 C 29.2209 -1.85553 3.08613 0
M  V30 277 C 29.0739 -1.01816 4.38125 0
M  V30 278 C 30.3929 -2.8397 3.36228 0
M  V30 279 H 27.5119 -0.357428 0.644526 0
M  V30 280 H 30.1539 -0.258239 1.88237 0
M  V30 281 H 28.3039 -2.47695 2.99298 0
M  V30 282 H 29.9759 -0.416159 4.59419 0
M  V30 283 H 28.2189 -0.322178 4.32602 0
M  V30 284 H 28.8899 -1.65939 5.26468 0
M  V30 285 H 31.3659 -2.31964 3.45445 0
M  V30 286 H 30.2419 -3.41864 4.29442 0
M  V30 287 H 30.5029 -3.59955 2.56681 0
M  V30 288 N 29.562 -1.4872 -0.521534 0
M  V30 289 C 30.808 -1.574 -1.27879 0
M  V30 290 C 31.141 -0.250817 -1.92573 0
M  V30 291 O 30.416 0.743934 -1.79711 0
M  V30 292 C 30.699 -2.71843 -2.36164 0
M  V30 293 C 30.552 -4.13893 -1.76105 0
M  V30 294 C 31.871 -2.82008 -3.37875 0
M  V30 295 H 28.99 -0.572941 -0.463581 0
M  V30 296 H 31.632 -1.80927 -0.580119 0
M  V30 297 H 29.782 -2.51914 -2.95756 0
M  V30 298 H 31.454 -4.45284 -1.20499 0
M  V30 299 H 29.697 -4.20498 -1.06601 0
M  V30 300 H 30.368 -4.89804 -2.5455 0
M  V30 301 H 32.844 -3.00086 -2.88249 0
M  V30 302 H 31.72 -3.63796 -4.11028 0
M  V30 303 H 31.981 -1.90511 -3.98946 0
M  V30 304 N 31.0401 0.771051 -1.3745 0
M  V30 305 C 32.4561 1.07171 -1.18265 0
M  V30 306 C 32.6561 2.01491 -0.019287 0
M  V30 307 O 31.7121 2.44244 0.640408 0
M  V30 308 C 33.0251 1.66854 -2.50161 0
M  V30 309 C 34.5731 1.79109 -2.56689 0
M  V30 310 C 35.0481 2.42205 -3.88717 0
M  V30 311 N 36.5391 2.49655 -3.90162 0
M  V30 312 C 37.2741 2.9933 -4.8907 0
M  V30 313 N 36.7701 3.49172 -5.98374 0
M  V30 314 N 38.5631 2.9821 -4.76474 0
M  V30 315 H 30.7141 0.144796 -2.11906 0
M  V30 316 H 32.9771 0.126863 -0.939473 0
M  V30 317 H 32.6831 1.05017 -3.35655 0
M  V30 318 H 32.5571 2.6614 -2.673 0
M  V30 319 H 34.9441 2.40077 -1.71601 0
M  V30 320 H 35.0251 0.785757 -2.43433 0
M  V30 321 H 34.6691 1.81875 -4.74219 0
M  V30 322 H 34.5991 3.43345 -3.99276 0
M  V30 323 H 37.0901 2.14383 -3.11205 0
M  V30 324 H 37.4031 3.8548 -6.69795 0
M  V30 325 H 35.7481 3.47275 -6.02018 0
M  V30 326 H 38.9391 2.58572 -3.90203 0
M  V30 327 H 39.1121 3.36613 -5.53711 0
M  V30 328 N 32.5182 1.22032 0.997298 0
M  V30 329 C 33.4682 0.953838 2.07089 0
M  V30 330 C 34.4522 -0.0938669 1.60626 0
M  V30 331 O 35.6442 0.116078 1.76619 0
M  V30 332 C 32.7732 0.528726 3.39204 0
M  V30 333 C 31.8592 1.61092 3.92314 0
M  V30 334 N 32.2502 2.83768 4.18699 0
M  V30 335 C 30.5482 1.48158 4.20672 0
M  V30 336 C 31.2492 3.53715 4.61802 0
M  V30 337 N 30.2252 2.81174 4.65233 0
M  V30 338 H 34.0272 1.88577 2.25424 0
M  V30 339 H 31.5412 1.11719 1.17867 0
M  V30 340 H 33.5382 0.31915 4.15677 0
M  V30 341 H 32.1982 -0.39635 3.22272 0
M  V30 342 H 33.2092 3.20238 4.07023 0
M  V30 343 H 29.8862 0.622369 4.12835 0
M  V30 344 H 31.2762 4.58793 4.90875 0
M  V30 345 N 33.9963 -1.19345 1.0293 0
M  V30 346 C 34.9443 -2.24621 0.604001 0
M  V30 347 C 35.9383 -1.65452 -0.363587 0
M  V30 348 O 37.1443 -1.78497 -0.23212 0
M  V30 349 H 33.5193 -0.730858 0.177061 0
M  V30 350 H 35.4903 -2.5781 1.50255 0
M  V30 351 C 34.2393 -3.47688 -0.0289127 0
M  V30 352 H 33.5623 -3.93505 0.706651 0
M  V30 353 H 35.0023 -4.23011 -0.289432 0
M  V30 354 C 33.4613 -3.11817 -1.2756 0
M  V30 355 O 33.9913 -3.2451 -2.36762 0
M  V30 356 N 32.1973 -2.66246 -1.16453 0
M  V30 357 H 31.7443 -2.56118 -0.275914 0
M  V30 358 H 31.7023 -2.42617 -1.99961 0
M  V30 359 N 35.4744 -0.807222 -1.35358 0
M  V30 360 C 36.8854 -0.44876 -1.81226 0
M  V30 361 C 37.2364 1.02929 -1.67033 0
M  V30 362 O 36.3614 1.79991 -1.20133 0
M  V30 363 C 36.9564 -0.807774 -3.2903 0
M  V30 364 C 35.5154 -0.501901 -3.73039 0
M  V30 365 C 34.6624 -1.03304 -2.57339 0
M  V30 366 H 37.6134 -0.998808 -1.23327 0
M  V30 367 H 37.6344 -0.10554 -3.80354 0
M  V30 368 H 37.1464 -1.88357 -3.39328 0
M  V30 369 H 35.2474 0.565128 -3.68289 0
M  V30 370 H 35.3604 -1.03497 -4.67787 0
M  V30 371 H 33.7244 -0.455339 -2.50597 0
M  V30 372 H 34.5074 -2.11496 -2.70415 0
M  V30 373 N 36.9525 1.47285 -0.560781 0
M  V30 374 C 37.8625 2.33846 0.187954 0
M  V30 375 C 38.8785 1.48412 0.908293 0
M  V30 376 O 40.0545 1.81332 0.876388 0
M  V30 377 C 37.1195 3.25178 1.2025 0
M  V30 378 C 36.1805 4.26504 0.489208 0
M  V30 379 C 35.4135 5.13472 1.45542 0
M  V30 380 O 35.6365 5.02959 2.6905 0
M  V30 381 O 34.5705 5.93902 0.977963 0
M  V30 382 H 38.3965 2.99177 -0.522177 0
M  V30 383 H 35.9815 1.45903 -0.321364 0
M  V30 384 H 37.8635 3.81584 1.78805 0
M  V30 385 H 36.5385 2.6247 1.89449 0
M  V30 386 H 35.4455 3.73847 -0.137627 0
M  V30 387 H 36.7785 4.91935 -0.161399 0
M  V30 388 N 38.4306 0.297415 1.54768 0
M  V30 389 C 39.3806 -0.595275 2.20092 0
M  V30 390 C 40.3646 -1.10163 1.17273 0
M  V30 391 O 41.5566 -1.043 1.43006 0
M  V30 392 C 38.6856 -1.7684 2.94249 0
M  V30 393 C 37.7716 -1.27818 4.0438 0
M  V30 394 N 38.1626 -0.505695 5.03266 0
M  V30 395 C 36.4606 -1.55923 4.17857 0
M  V30 396 C 37.1616 -0.245094 5.81183 0
M  V30 397 N 36.1376 -0.823881 5.3732 0
M  V30 398 H 39.9396 0.00250837 2.939 0
M  V30 399 H 37.4536 0.102007 1.62079 0
M  V30 400 H 39.4506 -2.41944 3.39513 0
M  V30 401 H 38.1106 -2.36992 2.21957 0
M  V30 402 H 39.1216 -0.150928 5.1768 0
M  V30 403 H 35.7986 -2.16849 3.56767 0
M  V30 404 H 37.1886 0.375084 6.70852 0
M  V30 405 N 39.9087 -1.5758 0.0250728 0
M  V30 406 C 41.1557 -1.91633 -0.654444 0
M  V30 407 C 41.4837 -0.901103 -1.72367 0
M  V30 408 O 40.7387 0.0905647 -1.9549 0
M  V30 409 C 41.0377 -3.32421 -1.31268 0
M  V30 410 C 40.7037 -4.49344 -0.374223 0
M  V30 411 C 39.3657 -4.8106 -0.115911 0
M  V30 412 C 41.7177 -5.20498 0.270432 0
M  V30 413 C 39.0457 -5.8129 0.79493 0
M  V30 414 C 41.3977 -6.21699 1.1693 0
M  V30 415 C 40.0617 -6.51859 1.43655 0
M  V30 416 H 39.3317 -0.701236 -0.239478 0
M  V30 417 H 41.9787 -1.91307 0.0859734 0
M  V30 418 H 40.2837 -3.28989 -2.12775 0
M  V30 419 H 41.9807 -3.56038 -1.84494 0
M  V30 420 H 38.5707 -4.24579 -0.58573 0
M  V30 421 H 42.7547 -4.96229 0.0839194 0
M  V30 422 H 38.0107 -6.03005 1.00973 0
M  V30 423 H 42.1847 -6.75955 1.67504 0
M  V30 424 H 39.8117 -7.2934 2.144 0
M  V30 425 N 41.3868 0.248026 -1.55636 0
M  V30 426 C 42.8028 0.596483 -1.48035 0
M  V30 427 C 43.0028 1.88386 -0.715039 0
M  V30 428 O 42.0588 2.51319 -0.243944 0
M  V30 429 C 43.3718 0.700258 -2.92433 0
M  V30 430 C 44.9198 0.792659 -3.02797 0
M  V30 431 C 45.3948 0.928005 -4.485 0
M  V30 432 N 46.8858 0.992903 -4.52433 0
M  V30 433 C 47.6208 1.11687 -5.62418 0
M  V30 434 N 47.1168 1.20645 -6.82214 0
M  V30 435 N 48.9098 1.14994 -5.50212 0
M  V30 436 H 41.0608 -0.597109 -2.03834 0
M  V30 437 H 43.3238 -0.205925 -0.925364 0
M  V30 438 H 43.0298 -0.175658 -3.51261 0
M  V30 439 H 42.9038 1.57255 -3.42857 0
M  V30 440 H 45.2908 1.65903 -2.4405 0
M  V30 441 H 45.3718 -0.104762 -2.55585 0
M  V30 442 H 45.0158 0.0661971 -5.07857 0
M  V30 443 H 44.9458 1.84045 -4.93391 0
M  V30 444 H 47.4368 0.935064 -3.66149 0
M  V30 445 H 47.7498 1.30008 -7.61786 0
M  V30 446 H 46.0948 1.17605 -6.84977 0
M  V30 447 H 49.2858 1.07643 -4.55555 0
M  V30 448 H 49.4588 1.24311 -6.35965 0
M  V30 449 N 42.8649 1.48995 0.513639 0
M  V30 450 C 44.1109 1.58076 1.27042 0
M  V30 451 C 44.4439 0.261026 1.92438 0
M  V30 452 O 43.7189 -0.734393 1.80103 0
M  V30 453 C 44.0019 2.73091 2.34719 0
M  V30 454 C 43.8549 4.14821 1.73907 0
M  V30 455 C 45.1739 2.83796 3.36375 0
M  V30 456 H 42.2929 0.575391 0.460536 0
M  V30 457 H 44.9349 1.81232 0.570516 0
M  V30 458 H 43.0849 2.53479 2.94416 0
M  V30 459 H 44.7569 4.45917 1.18135 0
M  V30 460 H 42.9999 4.21058 1.0437 0
M  V30 461 H 43.6709 4.91147 2.51949 0
M  V30 462 H 46.1469 3.01611 2.86653 0
M  V30 463 H 45.0229 3.65971 4.09093 0
M  V30 464 H 45.2839 1.92624 3.9793 0
M  V30 465 N 44.343 -0.763751 1.37857 0
M  V30 466 C 45.589 -1.52483 1.33704 0
M  V30 467 C 45.922 -1.94051 -0.0759612 0
M  V30 468 O 45.197 -1.64675 -1.03501 0
M  V30 469 C 45.48 -2.78441 2.28348 0
M  V30 470 C 45.333 -2.43075 3.78463 0
M  V30 471 C 46.652 -3.80415 2.21298 0
M  V30 472 H 43.771 -0.553169 0.487005 0
M  V30 473 H 46.413 -0.875562 1.68624 0
M  V30 474 H 44.563 -3.33842 1.987 0
M  V30 475 H 46.235 -1.93527 4.18742 0
M  V30 476 H 44.478 -1.75666 3.96641 0
M  V30 477 H 45.149 -3.33149 4.40132 0
M  V30 478 H 47.625 -3.34527 2.47449 0
M  V30 479 H 46.501 -4.66257 2.89647 0
M  V30 480 H 46.762 -4.25262 1.20849 0
M  V30 481 N 45.8211 -1.22559 -0.990812 0
M  V30 482 C 46.7841 -0.998863 -2.0629 0
M  V30 483 C 47.7841 0.0354834 -1.60761 0
M  V30 484 O 48.9741 -0.203231 -1.7301 0
M  V30 485 C 46.1061 -0.509203 -3.37076 0
M  V30 486 H 47.2991 -1.95014 -2.27837 0
M  V30 487 H 44.8521 -1.04456 -1.16269 0
M  V30 488 H 45.5871 0.446335 -3.21214 0
M  V30 489 H 45.3721 -1.25547 -3.71457 0
M  V30 490 H 46.8621 -0.370888 -4.1595 0
M  V30 491 N 47.2992 1.18797 -1.03562 0
M  V30 492 C 48.2292 2.24472 -0.643019 0
M  V30 493 C 49.2102 1.66433 0.351283 0
M  V30 494 O 50.3952 1.92803 0.232505 0
M  V30 495 C 47.5252 3.473 4.24935e-05 0
M  V30 496 C 46.4792 4.18055 -0.917257 0
M  V30 497 C 45.8052 5.34519 -0.138941 0
M  V30 498 C 47.1052 4.72109 -2.23407 0
M  V30 499 H 48.7992 2.57566 -1.52643 0
M  V30 500 H 46.3452 1.23806 -0.735394 0
M  V30 501 H 48.2982 4.20426 0.286383 0
M  V30 502 H 47.0222 3.13424 0.918299 0
M  V30 503 H 45.6812 3.46821 -1.1879 0
M  V30 504 H 45.3292 4.96891 0.781562 0
M  V30 505 H 45.0292 5.82794 -0.750005 0
M  V30 506 H 46.5532 6.10438 0.1405 0
M  V30 507 H 47.9672 5.36955 -2.00879 0
M  V30 508 H 46.3642 5.30897 -2.79765 0
M  V30 509 H 47.4342 3.89807 -2.88407 0
M  V30 510 N 48.7773 0.814389 1.34928 0
M  V30 511 C 50.0233 0.399013 1.98836 0
M  V30 512 C 50.3563 -1.03314 1.64438 0
M  V30 513 O 49.6313 -1.71811 0.911659 0
M  V30 514 C 49.9143 0.591629 3.55207 0
M  V30 515 C 49.7673 2.06928 3.99376 0
M  V30 516 C 51.0863 0.022199 4.40094 0
M  V30 517 H 48.2053 0.146451 0.722303 0
M  V30 518 H 50.8473 1.02537 1.59957 0
M  V30 519 H 48.9973 0.0584441 3.88456 0
M  V30 520 H 50.6693 2.66544 3.76499 0
M  V30 521 H 48.9123 2.56287 3.49999 0
M  V30 522 H 49.5833 2.1549 5.08201 0
M  V30 523 H 52.0593 0.477643 4.13349 0
M  V30 524 H 50.9353 0.186832 5.48582 0
M  V30 525 H 51.1963 -1.07215 4.28902 0
M  V30 526 N 50.2554 -1.46986 0.568584 0
M  V30 527 C 51.2184 -2.28624 -0.162366 0
M  V30 528 C 52.2184 -1.37596 -0.832103 0
M  V30 529 O 53.4084 -1.60115 -0.68622 0
M  V30 530 C 50.5404 -3.17596 -1.23878 0
M  V30 531 H 51.7334 -2.94722 0.554899 0
M  V30 532 H 49.2864 -1.52863 0.325976 0
M  V30 533 H 50.0214 -2.56214 -1.98808 0
M  V30 534 H 49.8064 -3.846 -0.763219 0
M  V30 535 H 51.2964 -3.79078 -1.75185 0
M  V30 536 N 51.7335 -0.305618 -1.54608 0
M  V30 537 C 52.9815 0.301701 -1.99835 0
M  V30 538 C 53.3025 1.54054 -1.19551 0
M  V30 539 O 52.5725 1.93702 -0.292658 0
M  V30 540 H 51.1525 0.114468 -0.738178 0
M  V30 541 H 53.8145 -0.418016 -1.90364 0
M  V30 542 H 52.9105 0.570548 -3.06841 0
M  V30 543 N 53.2116 1.57565 -0.0334293 0
M  V30 544 C 54.1586 2.10478 0.946981 0
M  V30 545 C 55.1286 1.00787 1.32027 0
M  V30 546 O 56.3136 1.28232 1.41284 0
M  V30 547 C 53.4536 2.63994 2.22263 0
M  V30 548 C 52.5666 3.87709 1.90541 0
M  V30 549 C 51.7016 4.29604 3.12433 0
M  V30 550 C 50.7406 5.46065 2.76549 0
M  V30 551 N 49.8776 5.83096 3.9108 0
M  V30 552 H 54.7176 2.93963 0.488846 0
M  V30 553 H 52.2546 1.45296 0.22969 0
M  V30 554 H 54.2126 2.93114 2.96884 0
M  V30 555 H 52.8426 1.83333 2.65685 0
M  V30 556 H 51.8946 3.65291 1.06144 0
M  V30 557 H 53.2066 4.72403 1.60116 0
M  V30 558 H 52.3606 4.60182 3.9537 0
M  V30 559 H 51.0996 3.43685 3.46023 0
M  V30 560 H 50.1046 5.15176 1.92026 0
M  V30 561 H 51.3296 6.33685 2.44171 0
M  V30 562 H 49.2756 5.00132 4.24504 0
M  V30 563 H 49.1926 6.6244 3.64293 0
M  V30 564 H 50.4606 6.18282 4.74708 0
M  V30 565 N 54.6897 -0.239769 1.55765 0
M  V30 566 C 55.6377 -1.31668 1.91745 0
M  V30 567 C 56.6317 -1.49462 0.797338 0
M  V30 568 O 57.8377 -1.50852 0.982021 0
M  V30 569 H 54.2127 -0.441048 0.609082 0
M  V30 570 H 56.1837 -0.985923 2.81642 0
M  V30 571 C 54.9327 -2.66368 2.2348 0
M  V30 572 H 54.2557 -2.53478 3.09175 0
M  V30 573 H 55.6957 -3.40578 2.52553 0
M  V30 574 C 54.1547 -3.20002 1.05359 0
M  V30 575 O 54.6847 -4.00538 0.305261 0
M  V30 576 N 52.8907 -2.78126 0.842292 0
M  V30 577 H 52.4377 -2.12742 1.45253 0
M  V30 578 H 52.3957 -3.14354 0.053652 0
M  V30 579 N 56.1678 -1.49265 -0.50573 0
M  V30 580 C 57.4138 -1.58748 -1.26202 0
M  V30 581 C 57.7468 -0.271227 -1.92297 0
M  V30 582 O 57.0218 0.724831 -1.80489 0
M  V30 583 C 57.3048 -2.74332 -2.33268 0
M  V30 584 C 57.1578 -4.15737 -1.71705 0
M  V30 585 C 58.4768 -2.85576 -3.34865 0
M  V30 586 H 55.5958 -0.577826 -0.457478 0
M  V30 587 H 58.2378 -1.81532 -0.560897 0
M  V30 588 H 56.3878 -2.55036 -2.93068 0
M  V30 589 H 58.0598 -4.46537 -1.15769 0
M  V30 590 H 56.3028 -4.21605 -1.02135 0
M  V30 591 H 56.9738 -4.92477 -2.49341 0
M  V30 592 H 59.4498 -3.03127 -2.8505 0
M  V30 593 H 58.3258 -3.68135 -4.07146 0
M  V30 594 H 58.5868 -1.94732 -3.96903 0
M  V30 595 N 57.6459 0.756429 -1.3826 0
M  V30 596 C 58.8739 1.54565 -1.3754 0
M  V30 597 C 59.2889 1.88767 0.0355331 0
M  V30 598 O 58.6459 1.52572 1.0014 0
M  V30 599 C 58.6969 2.84654 -2.22833 0
M  V30 600 O 58.4179 2.51912 -3.5843 0
M  V30 601 C 59.9189 3.78807 -2.30261 0
M  V30 602 H 57.1389 0.478353 -0.470553 0
M  V30 603 H 59.6829 0.936381 -1.81803 0
M  V30 604 H 57.8379 3.41965 -1.8204 0
M  V30 605 H 58.2519 3.35325 -4.03308 0
M  V30 606 H 59.7259 4.67045 -2.94233 0
M  V30 607 H 60.2029 4.19038 -1.31545 0
M  V30 608 H 60.8089 3.2742 -2.71433 0
M  V30 609 N 59.124 1.23083 0.984299 0
M  V30 610 C 60.54 0.992637 1.24975 0
M  V30 611 C 60.74 -0.308618 1.99123 0
M  V30 612 O 59.796 -1.02905 2.30579 0
M  V30 613 C 61.109 2.19698 2.05312 0
M  V30 614 C 62.657 2.24147 2.18465 0
M  V30 615 C 63.132 3.44157 3.02192 0
M  V30 616 N 64.623 3.44372 3.09777 0
M  V30 617 C 65.358 4.33886 3.74874 0
M  V30 618 N 64.854 5.3363 4.41827 0
M  V30 619 N 66.647 4.21639 3.71721 0
M  V30 620 H 58.798 2.06731 0.487453 0
M  V30 621 H 61.061 0.906339 0.277944 0
M  V30 622 H 60.767 3.1411 1.58201 0
M  V30 623 H 60.641 2.20465 3.06064 0
M  V30 624 H 63.028 1.30277 2.64786 0
M  V30 625 H 63.109 2.27415 1.17115 0
M  V30 626 H 62.753 4.38332 2.56568 0
M  V30 627 H 62.683 3.3813 4.03702 0
M  V30 628 H 65.174 2.72201 2.62135 0
M  V30 629 H 65.487 5.98196 4.89266 0
M  V30 630 H 63.832 5.37534 4.40548 0
M  V30 631 H 67.023 3.42962 3.18582 0
M  V30 632 H 67.196 4.91604 4.22173 0
M  V30 633 N 60.6021 -1.18246 1.0419 0
M  V30 634 C 61.5351 -2.20746 0.578474 0
M  V30 635 C 62.5131 -1.57912 -0.387624 0
M  V30 636 O 63.6971 -1.86071 -0.301634 0
M  V30 637 C 60.8241 -3.38346 -0.154762 0
M  V30 638 C 59.8701 -4.19587 0.764782 0
M  V30 639 S 60.7031 -4.86014 2.24835 0
M  V30 640 C 61.8591 -6.07012 1.526 0
M  V30 641 H 62.0921 -2.59715 1.44691 0
M  V30 642 H 59.6251 -1.287 0.85297 0
M  V30 643 H 61.5831 -4.065 -0.571641 0
M  V30 644 H 60.2441 -2.97786 -0.999105 0
M  V30 645 H 59.4371 -5.03611 0.197976 0
M  V30 646 H 59.0391 -3.56818 1.12057 0
M  V30 647 H 61.3311 -6.72523 0.819733 0
M  V30 648 H 62.2741 -6.68202 2.34333 0
M  V30 649 H 62.6821 -5.55249 1.01779 0
M  V30 650 N 62.0802 -0.821533 -1.34494 0
M  V30 651 C 63.3262 -0.409552 -1.98622 0
M  V30 652 C 63.6592 1.0244 -1.64984 0
M  V30 653 O 62.9342 1.71325 -0.920758 0
M  V30 654 C 63.2172 -0.610458 -3.54888 0
M  V30 655 C 63.0702 -2.09043 -3.98273 0
M  V30 656 C 64.3892 -0.0455379 -4.40076 0
M  V30 657 H 61.5082 -0.15028 -0.721516 0
M  V30 658 H 64.1502 -1.03384 -1.59411 0
M  V30 659 H 62.3002 -0.079044 -3.8842 0
M  V30 660 H 63.9722 -2.68537 -3.75081 0
M  V30 661 H 62.2152 -2.58139 -3.48635 0
M  V30 662 H 62.8862 -2.18182 -5.07051 0
M  V30 663 H 65.3622 -0.499557 -4.1309 0
M  V30 664 H 64.2382 -0.215922 -5.48475 0
M  V30 665 H 64.4992 1.04939 -4.29465 0
M  V30 666 N 63.5583 1.46682 -0.576371 0
M  V30 667 C 64.4683 2.34032 0.163141 0
M  V30 668 C 65.4843 1.49367 0.892501 0
M  V30 669 O 66.6603 1.82252 0.857106 0
M  V30 670 C 63.7253 3.26435 1.16795 0
M  V30 671 C 62.7863 4.26998 0.443944 0
M  V30 672 C 62.0193 5.14986 1.40088 0
M  V30 673 O 62.2423 5.05785 2.637 0
M  V30 674 O 61.1763 5.94906 0.914917 0
M  V30 675 H 65.0023 2.98607 -0.55388 0
M  V30 676 H 62.5873 1.45554 -0.336821 0
M  V30 677 H 64.4693 3.83459 1.74748 0
M  V30 678 H 63.1443 2.64465 1.86655 0
M  V30 679 H 62.0513 3.7368 -0.177271 0
M  V30 680 H 63.3843 4.91736 -0.213566 0
M  V30 681 N 65.0364 0.313813 1.54444 0
M  V30 682 C 65.9684 -0.590425 2.21465 0
M  V30 683 C 66.9814 -1.08753 1.21147 0
M  V30 684 O 68.1704 -1.00278 1.4767 0
M  V30 685 C 65.2704 -1.82179 2.85769 0
M  V30 686 C 64.4434 -1.46502 4.12136 0
M  V30 687 C 63.5024 -2.55288 4.60124 0
M  V30 688 O 62.5284 -2.19842 5.25032 0
M  V30 689 N 63.7304 -3.86053 4.33525 0
M  V30 690 H 66.4954 -0.0166033 2.99695 0
M  V30 691 H 64.0564 0.136578 1.61323 0
M  V30 692 H 66.0484 -2.54328 3.14801 0
M  V30 693 H 64.6184 -2.30369 2.11303 0
M  V30 694 H 63.8384 -0.575595 3.89975 0
M  V30 695 H 65.1264 -1.20221 4.94393 0
M  V30 696 H 64.5244 -4.17654 3.81552 0
M  V30 697 H 63.0814 -4.54461 4.67235 0
M  V30 698 N 66.5145 -1.57545 0.0417849 0
M  V30 699 C 67.7545 -1.94185 -0.63809 0
M  V30 700 C 68.1185 -0.919339 -1.68559 0
M  V30 701 O 69.3195 -1.17236 -2.41886 0
M  V30 702 C 67.5905 -3.35672 -1.22714 0
M  V30 703 S 69.1495 -3.94256 -1.92633 0
M  V30 704 H 65.9675 -0.679353 -0.209764 0
M  V30 705 H 68.5695 -1.95199 0.108479 0
M  V30 706 H 67.2735 -4.07898 -0.452503 0
M  V30 707 H 66.8045 -3.38132 -2.01073 0
M  V30 708 H 68.8195 -3.7872 -3.20602 0
M  V30 709 N 67.9926 0.231505 -1.5589 0
M  V30 710 C 68.9226 1.29022 -1.94617 0
M  V30 711 C 69.9036 1.4941 -0.813067 0
M  V30 712 O 71.0886 1.6176 -1.07459 0
M  V30 713 C 68.2186 2.64199 -2.25424 0
M  V30 714 C 67.1726 2.58484 -3.41131 0
M  V30 715 C 66.4986 3.97599 -3.57518 0
M  V30 716 C 67.7986 2.1413 -4.76388 0
M  V30 717 H 69.4926 0.968563 -2.83301 0
M  V30 718 H 67.0386 0.464479 -1.36303 0
M  V30 719 H 68.9916 3.38413 -2.51107 0
M  V30 720 H 67.7156 2.98032 -1.33583 0
M  V30 721 H 66.3746 1.86727 -3.15481 0
M  V30 722 H 66.0226 4.28723 -2.6307 0
M  V30 723 H 65.7226 3.94659 -4.35337 0
M  V30 724 H 67.2466 4.7349 -3.85538 0
M  V30 725 H 68.6606 2.78083 -5.01341 0
M  V30 726 H 67.0576 2.2227 -5.57419 0
M  V30 727 H 68.1276 1.09331 -4.72414 0
M  V30 728 N 69.4707 1.49531 0.497807 0
M  V30 729 C 70.3807 1.69176 1.62532 0
M  V30 730 C 71.3967 0.5744 1.64246 0
M  V30 731 O 72.5727 0.849497 1.82608 0
M  V30 732 C 69.6377 1.75695 2.98885 0
M  V30 733 C 68.6987 2.9929 3.07773 0
M  V30 734 C 67.9317 3.05488 4.37622 0
M  V30 735 O 68.1547 2.19192 5.26603 0
M  V30 736 O 67.0887 3.9798 4.51548 0
M  V30 737 H 70.9147 2.647 1.48887 0
M  V30 738 H 68.4997 1.3331 0.674441 0
M  V30 739 H 70.3817 1.82317 3.79919 0
M  V30 740 H 69.0567 0.8335 3.12785 0
M  V30 741 H 67.9637 2.98183 2.25915 0
M  V30 742 H 69.2967 3.91125 2.98801 0
M  V30 743 N 70.9488 -0.749086 1.3866 0
M  V30 744 C 72.1958 -1.50833 1.35114 0
M  V30 745 C 72.5238 -1.94415 -0.0574049 0
M  V30 746 O 71.7788 -1.66065 -1.03541 0
M  V30 747 C 72.0778 -2.7712 2.25697 0
M  V30 748 C 71.7438 -2.52477 3.73585 0
M  V30 749 C 70.4058 -2.45466 4.13884 0
M  V30 750 C 72.7578 -2.31066 4.67181 0
M  V30 751 C 70.0858 -2.15064 5.45861 0
M  V30 752 C 72.4378 -2.02183 5.9942 0
M  V30 753 C 71.1018 -1.93631 6.38798 0
M  V30 754 H 70.3718 -0.551936 0.494416 0
M  V30 755 H 73.0188 -0.860979 1.71054 0
M  V30 756 H 71.3238 -3.46528 1.82827 0
M  V30 757 H 73.0208 -3.35096 2.20254 0
M  V30 758 H 69.6108 -2.58807 3.41638 0
M  V30 759 H 73.7948 -2.35459 4.3689 0
M  V30 760 H 69.0508 -2.06954 5.75308 0
M  V30 761 H 73.2248 -1.8462 6.71482 0
M  V30 762 H 70.8518 -1.69839 7.40985 0
M  V30 763 N 72.4269 -1.23603 -0.977757 0
M  V30 764 C 73.6519 -1.09735 -1.75991 0
M  V30 765 C 74.0769 0.346858 -1.84874 0
M  V30 766 O 73.4349 1.25093 -1.3123 0
M  V30 767 C 73.4829 -1.73051 -3.16363 0
M  V30 768 O 72.5869 -0.994452 -4.0023 0
M  V30 769 H 71.9279 -0.384476 -0.541364 0
M  V30 770 H 74.4579 -1.6371 -1.2272 0
M  V30 771 H 74.4679 -1.78398 -3.66931 0
M  V30 772 H 73.1429 -2.78137 -3.09213 0
M  V30 773 H 71.7199 -1.01812 -3.58732 0
M  V30 774 N 73.905 1.17692 -1.04816 0
M  V30 775 C 75.316 1.69501 -0.782698 0
M  V30 776 C 75.667 1.83456 0.695577 0
M  V30 777 O 74.792 1.51942 1.54086 0
M  V30 778 C 75.387 3.07874 -1.41419 0
M  V30 779 C 73.946 3.56864 -1.19686 0
M  V30 780 C 73.093 2.3322 -1.50012 0
M  V30 781 H 76.044 1.02262 -1.2136 0
M  V30 782 H 76.065 3.71528 -0.821428 0
M  V30 783 H 75.577 2.97685 -2.49009 0
M  V30 784 H 73.678 3.72337 -0.140043 0
M  V30 785 H 73.791 4.39851 -1.89916 0
M  V30 786 H 72.155 2.37501 -0.920071 0
M  V30 787 H 72.938 2.25644 -2.58727 0
M  V30 788 N 75.3831 0.828654 1.34056 0
M  V30 789 C 76.7991 0.515135 1.51058 0
M  V30 790 C 76.9991 -0.959581 1.77184 0
M  V30 791 O 76.0551 -1.74382 1.82612 0
M  V30 792 C 77.3681 1.37963 2.67183 0
M  V30 793 C 78.9161 1.37735 2.81066 0
M  V30 794 C 79.3911 2.22645 4.00241 0
M  V30 795 N 80.8821 2.203 4.07458 0
M  V30 796 C 81.6171 2.82744 4.98842 0
M  V30 797 N 81.1131 3.54201 5.9541 0
M  V30 798 N 82.9061 2.72268 4.91759 0
M  V30 799 H 75.0571 1.78343 1.15358 0
M  V30 800 H 77.3201 0.760304 0.566252 0
M  V30 801 H 77.0261 2.42714 2.54525 0
M  V30 802 H 76.9001 1.0484 3.62338 0
M  V30 803 H 79.2871 0.337593 2.93163 0
M  V30 804 H 79.3681 1.74859 1.86703 0
M  V30 805 H 79.0121 3.26674 3.88905 0
M  V30 806 H 78.9421 1.82869 4.93829 0
M  V30 807 H 81.4331 1.68327 3.38341 0
M  V30 808 H 81.7461 3.9908 6.61782 0
M  V30 809 H 80.0911 3.58308 5.95517 0
M  V30 810 H 83.2821 2.16014 4.15278 0
M  V30 811 H 83.4551 3.21219 5.62781 0
M  V30 812 N 76.8612 -1.46375 0.584142 0
M  V30 813 C 78.0912 -2.06461 0.0758195 0
M  V30 814 C 78.4992 -1.43322 -1.23512 0
M  V30 815 O 77.8422 -0.533216 -1.75791 0
M  V30 816 C 77.9042 -3.59131 -0.162773 0
M  V30 817 C 77.5682 -4.4447 1.06279 0
M  V30 818 C 78.5652 -4.80918 1.97519 0
M  V30 819 C 76.2502 -4.85584 1.28504 0
M  V30 820 C 78.2442 -5.57309 3.09331 0
M  V30 821 C 75.9312 -5.61734 2.4062 0
M  V30 822 C 76.9292 -5.9751 3.30863 0
M  V30 823 O 76.6172 -6.72121 4.41032 0
M  V30 824 H 76.3492 -0.673745 0.0551725 0
M  V30 825 H 78.9032 -1.88969 0.804984 0
M  V30 826 H 77.1332 -3.74936 -0.946565 0
M  V30 827 H 78.8222 -4.0114 -0.619782 0
M  V30 828 H 79.5882 -4.49732 1.81565 0
M  V30 829 H 75.4672 -4.57187 0.591702 0
M  V30 830 H 79.0112 -5.85152 3.79793 0
M  V30 831 H 74.9082 -5.92334 2.56537 0
M  V30 832 H 75.6762 -6.90547 4.39417 0
M  V30 833 N 78.3393 -0.321999 -1.54275 0
M  V30 834 C 79.3023 0.531975 -2.22941 0
M  V30 835 C 80.3023 1.04478 -1.22234 0
M  V30 836 O 81.4923 0.937452 -1.46825 0
M  V30 837 C 78.6243 1.73874 -2.93224 0
M  V30 838 H 79.8173 -0.0682612 -2.99822 0
M  V30 839 H 77.3703 -0.0730644 -1.56129 0
M  V30 840 H 78.1053 2.37825 -2.20476 0
M  V30 841 H 77.8903 1.37847 -3.6707 0
M  V30 842 H 79.3803 2.34496 -3.45545 0
M  V30 843 N 79.8174 1.5752 -0.0501392 0
M  V30 844 C 81.0634 1.92936 0.624798 0
M  V30 845 C 81.3964 0.928685 1.70555 0
M  V30 846 O 80.6714 -0.0454779 1.94447 0
M  V30 847 C 80.9544 3.38737 1.22185 0
M  V30 848 C 80.8074 4.49552 0.149218 0
M  V30 849 C 82.1264 3.84913 2.13378 0
M  V30 850 H 79.2454 0.701604 0.225657 0
M  V30 851 H 81.8874 1.89671 -0.111693 0
M  V30 852 H 80.0374 3.4165 1.84953 0
M  V30 853 H 81.7094 4.58768 -0.482648 0
M  V30 854 H 79.9524 4.30638 -0.522841 0
M  V30 855 H 80.6234 5.48653 0.606966 0
M  V30 856 H 83.0994 3.8387 1.60572 0
M  V30 857 H 81.9754 4.87584 2.52097 0
M  V30 858 H 82.2364 3.21611 3.03346 0
M  V30 859 N 81.2955 -0.223234 1.56011 0
M  V30 860 C 82.2285 -1.30377 1.87289 0
M  V30 861 C 83.2065 -1.45286 0.730112 0
M  V30 862 O 84.3905 -1.61126 0.978302 0
M  V30 863 C 81.5175 -2.67431 2.07843 0
M  V30 864 C 80.5635 -2.69546 3.30526 0
M  V30 865 S 81.3965 -2.23781 4.865 0
M  V30 866 C 82.5525 -3.62714 5.10088 0
M  V30 867 H 82.7855 -1.03652 2.78646 0
M  V30 868 H 80.3185 -0.425393 1.48424 0
M  V30 869 H 82.2765 -3.46336 2.20368 0
M  V30 870 H 80.9375 -2.91381 1.17285 0
M  V30 871 H 80.1305 -3.70255 3.41947 0
M  V30 872 H 79.7325 -1.98703 3.16849 0
M  V30 873 H 82.0245 -4.58391 4.98883 0
M  V30 874 H 82.9675 -3.5621 6.11981 0
M  V30 875 H 83.3755 -3.56323 4.37829 0
M  V30 876 N 82.7736 -1.49793 -0.48987 0
M  V30 877 C 84.0506 -1.50348 -1.25119 0
M  V30 878 C 84.4306 -0.237466 -2.0976 0
M  V30 879 O 83.7786 0.77981 -2.14782 0
M  V30 880 C 83.9886 -2.78872 -2.09837 0
M  V30 881 C 85.3366 -3.288 -2.68655 0
M  V30 882 O 86.3606 -2.80065 -2.20096 0
M  V30 883 O 85.2196 -4.13707 -3.57083 0
M  V30 884 H 82.3136 -0.602242 -0.566775 0
M  V30 885 H 84.8596 -1.62067 -0.503229 0
M  V30 886 H 83.6316 -3.62499 -1.47343 0
M  V30 887 H 83.2546 -2.70066 -2.91805 0
M  V30 888 N 84.2517 0.741722 -1.39055 0
M  V30 889 C 85.5287 1.49252 -1.26425 0
M  V30 890 C 85.9087 2.10705 0.129144 0
M  V30 891 O 85.2567 1.98045 1.13976 0
M  V30 892 C 85.4667 2.54934 -2.38347 0
M  V30 893 C 86.8147 3.21506 -2.77343 0
M  V30 894 O 87.8387 2.65245 -2.37747 0
M  V30 895 O 86.6977 4.23294 -3.45665 0
M  V30 896 H 83.7917 0.662451 -0.495064 0
M  V30 897 H 86.3377 0.776121 -1.50912 0
M  V30 898 H 85.1097 2.07857 -3.31529 0
M  V30 899 H 84.7327 3.34141 -2.15489 0
M  V30 900 N 85.7298 1.2412 0.971189 0
M  V30 901 C 86.6398 1.04747 2.09917 0
M  V30 902 C 87.6558 -0.0107162 1.73997 0
M  V30 903 O 88.8318 0.186714 2.00533 0
M  V30 904 C 85.8968 0.650828 3.40537 0
M  V30 905 C 84.9578 1.7851 3.90426 0
M  V30 906 C 84.1908 1.40729 5.14812 0
M  V30 907 O 84.4138 0.29557 5.69634 0
M  V30 908 O 83.3478 2.23168 5.58999 0
M  V30 909 H 87.1738 1.99304 2.29154 0
M  V30 910 H 84.7588 1.02908 1.08307 0
M  V30 911 H 86.6408 0.440992 4.19086 0
M  V30 912 H 85.3158 -0.265649 3.22608 0
M  V30 913 H 84.2228 2.04966 3.12953 0
M  V30 914 H 85.5558 2.68023 4.12825 0
M  V30 915 N 87.2079 -1.17134 1.05439 0
M  V30 916 C 88.1709 -2.19439 0.661764 0
M  V30 917 C 89.1709 -1.58199 -0.288042 0
M  V30 918 O 90.3609 -1.74053 -0.0715803 0
M  V30 919 C 87.4929 -3.40889 -0.0276209 0
M  V30 920 H 88.6859 -2.55688 1.56728 0
M  V30 921 H 86.2389 -1.31259 0.848567 0
M  V30 922 H 86.9739 -3.10187 -0.94629 0
M  V30 923 H 86.7589 -3.86586 0.655238 0
M  V30 924 H 88.2489 -4.16603 -0.288342 0
M  V30 925 N 88.686 -0.835752 -1.33615 0
M  V30 926 C 89.911 -0.442389 -2.02627 0
M  V30 927 C 90.336 0.947735 -1.62479 0
M  V30 928 O 89.694 1.61907 -0.815826 0
M  V30 929 C 89.742 -0.567216 -3.56111 0
M  V30 930 O 88.846 0.407799 -4.10379 0
M  V30 931 H 88.187 -0.180278 -0.639059 0
M  V30 932 H 90.717 -1.12972 -1.70583 0
M  V30 933 H 90.727 -0.447708 -4.05536 0
M  V30 934 H 89.402 -1.58103 -3.84677 0
M  V30 935 H 87.979 0.246107 -3.72087 0
M  V30 936 N 90.1641 1.46063 -0.591896 0
M  V30 937 C 91.1271 2.28854 0.125973 0
M  V30 938 C 92.1271 1.38903 0.810107 0
M  V30 939 O 93.3171 1.61186 0.66066 0
M  V30 940 C 90.4491 3.19526 1.1881 0
M  V30 941 H 91.6421 2.93802 -0.601717 0
M  V30 942 H 89.1951 1.52325 -0.350254 0
M  V30 943 H 89.9301 2.59345 1.94707 0
M  V30 944 H 89.7151 3.85766 0.701936 0
M  V30 945 H 91.2051 3.81817 1.69132 0
M  V30 946 N 91.6422 0.330177 1.54103 0
M  V30 947 C 92.5892 -0.532762 2.24567 0
M  V30 948 C 93.5592 -1.10635 1.23892 0
M  V30 949 O 94.7442 -1.14546 1.5259 0
M  V30 950 C 91.8842 -1.6845 3.01195 0
M  V30 951 C 90.9972 -1.13951 4.167 0
M  V30 952 C 90.1322 -2.25746 4.80845 0
M  V30 953 C 89.1712 -1.6853 5.88442 0
M  V30 954 N 88.3082 -2.74014 6.46421 0
M  V30 955 H 93.1482 0.0746905 2.97906 0
M  V30 956 H 90.6852 0.048632 1.4702 0
M  V30 957 H 92.6432 -2.36234 3.43874 0
M  V30 958 H 91.2732 -2.26314 2.30178 0
M  V30 959 H 90.3252 -0.35301 3.78758 0
M  V30 960 H 91.6372 -0.680892 4.94131 0
M  V30 961 H 90.7912 -3.01422 5.26526 0
M  V30 962 H 89.5302 -2.74947 4.0281 0
M  V30 963 H 88.5352 -0.913543 5.42157 0
M  V30 964 H 89.7602 -1.20198 6.68378 0
M  V30 965 H 87.7062 -3.22494 5.71256 0
M  V30 966 H 87.6232 -2.32735 7.19285 0
M  V30 967 H 88.8912 -3.49499 6.96757 0
M  V30 968 N 93.1203 -1.57491 0.0584922 0
M  V30 969 C 94.0503 -2.14988 -0.911178 0
M  V30 970 C 95.0313 -1.07343 -1.31952 0
M  V30 971 O 96.2163 -1.35318 -1.39294 0
M  V30 972 C 93.3463 -2.70078 -2.18347 0
M  V30 973 C 92.3003 -3.82771 -1.91495 0
M  V30 974 C 91.6263 -4.24408 -3.25241 0
M  V30 975 C 92.9263 -5.07592 -1.23075 0
M  V30 976 H 94.6203 -2.96263 -0.432246 0
M  V30 977 H 92.1663 -1.42512 -0.206469 0
M  V30 978 H 94.1193 -3.08943 -2.86587 0
M  V30 979 H 92.8433 -1.86005 -2.68458 0
M  V30 980 H 91.5023 -3.44389 -1.25664 0
M  V30 981 H 91.1503 -3.37275 -3.73168 0
M  V30 982 H 90.8503 -5.00366 -3.08071 0
M  V30 983 H 92.3743 -4.65879 -3.94701 0
M  V30 984 H 93.7883 -5.43857 -1.81362 0
M  V30 985 H 92.1853 -5.88741 -1.16207 0
M  V30 986 H 93.2553 -4.84454 -0.207847 0
M  V30 987 N 94.5984 0.214957 -1.56127 0
M  V30 988 C 95.5284 1.2695 -1.95974 0
M  V30 989 C 96.5094 1.48539 -0.828868 0
M  V30 990 O 97.6944 1.60611 -1.09168 0
M  V30 991 C 94.8244 2.61794 -2.28214 0
M  V30 992 C 93.7784 2.54851 -3.43853 0
M  V30 993 C 93.1044 3.93785 -3.61715 0
M  V30 994 C 94.4044 2.09065 -4.78632 0
M  V30 995 H 96.0984 0.93846 -2.84312 0
M  V30 996 H 93.6444 0.449996 -1.36788 0
M  V30 997 H 95.5974 3.35731 -2.54682 0
M  V30 998 H 94.3214 2.96599 -1.36736 0
M  V30 999 H 92.9804 1.8337 -3.17444 0
M  V30 1000 H 92.6284 4.25908 -2.67602 0
M  V30 1001 H 92.3284 3.90019 -4.39498 0
M  V30 1002 H 93.8524 4.69374 -3.90539 0
M  V30 1003 H 95.2664 2.7275 -5.04262 0
M  V30 1004 H 93.6634 2.16346 -5.59745 0
M  V30 1005 H 94.7334 1.04315 -4.73547 0
M  V30 1006 N 96.0765 1.50051 0.48192 0
M  V30 1007 C 97.0235 1.68122 1.58125 0
M  V30 1008 C 97.9935 0.522545 1.57666 0
M  V30 1009 O 99.1785 0.751844 1.75362 0
M  V30 1010 C 96.3185 1.77142 2.96167 0
M  V30 1011 C 95.4315 3.0444 3.06497 0
M  V30 1012 C 94.5665 3.04321 4.35387 0
M  V30 1013 C 93.6055 4.26118 4.3942 0
M  V30 1014 N 92.7425 4.238 5.59766 0
M  V30 1015 H 97.5825 2.6198 1.42022 0
M  V30 1016 H 95.1195 1.29877 0.690687 0
M  V30 1017 H 97.0775 1.80352 3.76203 0
M  V30 1018 H 95.7075 0.867329 3.1093 0
M  V30 1019 H 94.7595 3.10752 2.19402 0
M  V30 1020 H 96.0715 3.94426 3.05336 0
M  V30 1021 H 95.2255 3.062 5.23762 0
M  V30 1022 H 93.9645 2.12147 4.39141 0
M  V30 1023 H 92.9695 4.24463 3.49444 0
M  V30 1024 H 94.1945 5.19507 4.37366 0
M  V30 1025 H 92.1405 3.34474 5.64326 0
M  V30 1026 H 92.0575 5.07542 5.60301 0
M  V30 1027 H 93.3255 4.2981 6.50295 0
M  V30 1028 N 97.5546 -0.734337 1.39446 0
M  V30 1029 C 98.7826 -1.52358 1.39981 0
M  V30 1030 C 99.1976 -1.88799 -0.0054975 0
M  V30 1031 O 98.5546 -1.54146 -0.976998 0
M  V30 1032 C 98.6056 -2.81072 2.27333 0
M  V30 1033 O 98.3266 -2.46178 3.62392 0
M  V30 1034 C 99.8276 -3.75096 2.36259 0
M  V30 1035 H 97.0476 -0.470806 0.478103 0
M  V30 1036 H 99.5916 -0.907339 1.83269 0
M  V30 1037 H 97.7466 -3.39026 1.87457 0
M  V30 1038 H 98.1606 -3.28866 4.08592 0
M  V30 1039 H 99.6346 -4.62305 3.01626 0
M  V30 1040 H 100.112 -4.16892 1.38194 0
M  V30 1041 H 100.718 -3.23061 2.76608 0
M  V30 1042 N 99.0327 -1.24633 -0.964593 0
M  V30 1043 C 99.9657 -0.984662 -2.05863 0
M  V30 1044 C 100.944 0.0826554 -1.6239 0
M  V30 1045 O 102.128 -0.0549296 -1.8842 0
M  V30 1046 C 99.2547 -0.486529 -3.35187 0
M  V30 1047 C 98.3007 -1.54286 -3.97615 0
M  V30 1048 S 99.1337 -3.12513 -4.34851 0
M  V30 1049 C 100.29 -2.6441 -5.67308 0
M  V30 1050 H 100.523 -1.91104 -2.27743 0
M  V30 1051 H 98.0557 -1.08052 -1.10291 0
M  V30 1052 H 100.014 -0.205757 -4.09984 0
M  V30 1053 H 98.6747 0.419186 -3.1129 0
M  V30 1054 H 97.8677 -1.14481 -4.90826 0
M  V30 1055 H 97.4697 -1.7738 -3.2926 0
M  V30 1056 H 99.7617 -2.07416 -6.44969 0
M  V30 1057 H 100.705 -3.56222 -6.11973 0
M  V30 1058 H 101.113 -2.04734 -5.26065 0
M  V30 1059 N 100.511 1.16574 -1.06058 0
M  V30 1060 C 101.441 2.23057 -0.690488 0
M  V30 1061 C 102.422 1.67141 0.315901 0
M  V30 1062 O 103.607 1.93253 0.191556 0
M  V30 1063 C 100.737 3.47222 -0.073625 0
M  V30 1064 C 99.6908 4.16016 -1.00573 0
M  V30 1065 C 99.0168 5.34104 -0.252289 0
M  V30 1066 C 100.317 4.67264 -2.33371 0
M  V30 1067 H 102.011 2.54271 -1.58072 0
M  V30 1068 H 99.5568 1.22218 -0.76149 0
M  V30 1069 H 101.51 4.20939 0.19714 0
M  V30 1070 H 100.234 3.15302 0.85161 0
M  V30 1071 H 98.8928 3.44223 -1.2612 0
M  V30 1072 H 98.5408 4.98437 0.675988 0
M  V30 1073 H 98.2408 5.81072 -0.873455 0
M  V30 1074 H 99.7648 6.10599 0.0109857 0
M  V30 1075 H 101.179 5.32573 -2.12223 0
M  V30 1076 H 99.5758 5.24843 -2.90963 0
M  V30 1077 H 100.646 3.83602 -2.96611 0
M  V30 1078 N 101.989 0.842826 1.3317 0
M  V30 1079 C 102.921 0.236245 2.27979 0
M  V30 1080 C 103.934 -0.585282 1.51915 0
M  V30 1081 O 105.123 -0.411705 1.73687 0
M  V30 1082 C 102.223 -0.685717 3.3189 0
M  V30 1083 C 101.396 0.0973448 4.37292 0
M  V30 1084 C 100.455 -0.748565 5.20848 0
M  V30 1085 O 99.4809 -0.186339 5.68895 0
M  V30 1086 N 100.683 -2.06527 5.42519 0
M  V30 1087 H 103.448 1.05088 2.80672 0
M  V30 1088 H 101.009 0.701667 1.45905 0
M  V30 1089 H 103.001 -1.25669 3.84694 0
M  V30 1090 H 101.571 -1.40105 2.79445 0
M  V30 1091 H 100.791 0.849706 3.84933 0
M  V30 1092 H 102.079 0.635643 5.04814 0
M  V30 1093 H 101.477 -2.54554 5.05192 0
M  V30 1094 H 100.034 -2.58464 5.98364 0
M  V30 1095 N 103.467 -1.45747 0.599634 0
M  V30 1096 C 104.399 -2.28628 -0.161879 0
M  V30 1097 C 105.412 -1.39494 -0.839367 0
M  V30 1098 O 106.601 -1.63941 -0.706089 0
M  V30 1099 C 103.701 -3.15014 -1.24976 0
M  V30 1100 C 102.874 -4.32378 -0.660935 0
M  V30 1101 C 101.933 -5.00033 -1.63869 0
M  V30 1102 O 100.959 -5.57085 -1.1681 0
M  V30 1103 N 102.161 -4.98589 -2.97303 0
M  V30 1104 H 104.926 -2.94624 0.549265 0
M  V30 1105 H 102.487 -1.55847 0.438565 0
M  V30 1106 H 104.479 -3.5714 -1.9035 0
M  V30 1107 H 103.049 -2.5098 -1.86354 0
M  V30 1108 H 102.269 -3.9383 0.170688 0
M  V30 1109 H 103.557 -5.08197 -0.247619 0
M  V30 1110 H 102.955 -4.53514 -3.38145 0
M  V30 1111 H 101.512 -5.44603 -3.58121 0
M  V30 1112 N 104.945 -0.338344 -1.53925 0
M  V30 1113 C 105.877 0.555117 -2.22376 0
M  V30 1114 C 106.89 1.06812 -1.22862 0
M  V30 1115 O 108.079 0.979163 -1.49247 0
M  V30 1116 C 105.179 1.77609 -2.88631 0
M  V30 1117 C 104.352 1.39927 -4.14414 0
M  V30 1118 C 103.411 2.47936 -4.64127 0
M  V30 1119 O 102.437 2.11461 -5.28463 0
M  V30 1120 N 103.639 3.79107 -4.39612 0
M  V30 1121 H 106.404 -0.0310778 -2.99684 0
M  V30 1122 H 103.965 -0.162226 -1.61085 0
M  V30 1123 H 105.957 2.49287 -3.18807 0
M  V30 1124 H 104.527 2.26978 -2.14941 0
M  V30 1125 H 103.747 0.513481 -3.90841 0
M  V30 1126 H 105.035 1.12341 -4.96243 0
M  V30 1127 H 104.433 4.11531 -3.88148 0
M  V30 1128 H 102.99 4.4697 -4.74406 0
M  V30 1129 N 106.423 1.57458 -0.0668435 0
M  V30 1130 C 107.671 1.92919 0.602214 0
M  V30 1131 C 107.992 0.947215 1.70449 0
M  V30 1132 O 107.262 -0.00544117 1.95899 0
M  V30 1133 H 105.842 0.71217 0.22544 0
M  V30 1134 H 108.504 1.94508 -0.123535 0
M  V30 1135 H 107.6 2.94589 1.03073 0
M  V30 1136 N 107.901 -0.206675 1.56239 0
M  V30 1137 C 109.126 -0.949474 1.8439 0
M  V30 1138 C 109.551 -1.76549 0.649016 0
M  V30 1139 O 108.909 -1.76782 -0.402231 0
M  V30 1140 C 108.957 -1.83078 3.10668 0
M  V30 1141 O 108.061 -2.9281 2.90407 0
M  V30 1142 H 107.402 -0.268033 0.607499 0
M  V30 1143 H 109.932 -0.215488 2.03462 0
M  V30 1144 H 109.942 -2.2377 3.41161 0
M  V30 1145 H 108.617 -1.23112 3.97261 0
M  V30 1146 H 107.194 -2.55956 2.71184 0
M  V30 1147 N 109.379 -1.50304 -0.473955 0
M  V30 1148 C 110.795 -1.37667 -0.807466 0
M  V30 1149 C 110.995 -0.430555 -1.96846 0
M  V30 1150 O 110.051 0.127874 -2.52176 0
M  V30 1151 C 111.364 -2.78974 -1.12223 0
M  V30 1152 C 112.912 -2.87868 -1.22885 0
M  V30 1153 C 113.387 -4.30003 -1.57676 0
M  V30 1154 N 114.878 -4.3294 -1.64673 0
M  V30 1155 C 115.613 -5.3991 -1.93091 0
M  V30 1156 N 115.109 -6.57092 -2.1955 0
M  V30 1157 N 116.902 -5.27351 -1.94569 0
M  V30 1158 H 109.053 -2.10394 0.291212 0
M  V30 1159 H 111.316 -0.945575 0.0677609 0
M  V30 1160 H 111.022 -3.50031 -0.342229 0
M  V30 1161 H 110.896 -3.16038 -2.05913 0
M  V30 1162 H 113.283 -2.17032 -1.99953 0
M  V30 1163 H 113.364 -2.54352 -0.271814 0
M  V30 1164 H 113.008 -5.01375 -0.81149 0
M  V30 1165 H 112.938 -4.61004 -2.54525 0
M  V30 1166 H 115.429 -3.48441 -1.46277 0
M  V30 1167 H 115.742 -7.34425 -2.405 0
M  V30 1168 H 114.087 -6.60272 -2.16948 0
M  V30 1169 H 117.278 -4.34801 -1.73394 0
M  V30 1170 H 117.451 -6.10805 -2.16381 0
M  V30 1171 N 110.857 0.726932 -1.39834 0
M  V30 1172 C 112.085 1.51613 -1.40787 0
M  V30 1173 C 112.5 1.88799 -0.00451505 0
M  V30 1174 O 111.857 1.54662 0.968809 0
M  V30 1175 C 111.908 2.79863 -2.28821 0
M  V30 1176 O 111.629 2.44253 -3.63692 0
M  V30 1177 C 113.13 3.73837 -2.38245 0
M  V30 1178 H 110.35 0.468264 -0.480593 0
M  V30 1179 H 112.894 0.897607 -1.83748 0
M  V30 1180 H 111.049 3.38027 -1.89252 0
M  V30 1181 H 111.463 3.26695 -4.1033 0
M  V30 1182 H 112.937 4.60699 -3.04073 0
M  V30 1183 H 113.414 4.16153 -1.40403 0
M  V30 1184 H 114.02 3.21589 -2.78317 0
M  V30 1185 N 112.336 1.25143 0.95797 0
M  V30 1186 C 113.246 1.06968 2.08794 0
M  V30 1187 C 114.262 0.00773911 1.73998 0
M  V30 1188 O 115.438 0.207972 2.00323 0
M  V30 1189 C 112.503 0.68691 3.39827 0
M  V30 1190 C 111.564 1.82641 3.88511 0
M  V30 1191 C 110.797 1.46181 5.1329 0
M  V30 1192 O 111.02 0.355971 5.69288 0
M  V30 1193 O 109.954 2.29085 5.566 0
M  V30 1194 H 113.78 2.01723 2.27027 0
M  V30 1195 H 111.365 1.04051 1.07209 0
M  V30 1196 H 113.247 0.485417 4.18595 0
M  V30 1197 H 111.922 -0.231417 3.22872 0
M  V30 1198 H 110.829 2.08274 3.10762 0
M  V30 1199 H 112.162 2.72386 4.09959 0
M  V30 1200 N 113.814 -1.1601 1.06675 0
M  V30 1201 C 115.06 -1.86909 0.786945 0
M  V30 1202 C 115.393 -1.81717 -0.685018 0
M  V30 1203 O 114.668 -1.23551 -1.50218 0
M  V30 1204 C 114.951 -3.36313 1.28707 0
M  V30 1205 C 114.804 -3.50175 2.82308 0
M  V30 1206 C 116.123 -4.3084 0.898071 0
M  V30 1207 H 113.242 -0.678677 0.287343 0
M  V30 1208 H 115.884 -1.36336 1.32334 0
M  V30 1209 H 114.034 -3.79513 0.830768 0
M  V30 1210 H 115.706 -3.15886 3.36175 0
M  V30 1211 H 113.949 -2.91959 3.20847 0
M  V30 1212 H 114.62 -4.55116 3.12368 0
M  V30 1213 H 117.096 -3.95561 1.29114 0
M  V30 1214 H 115.972 -5.33876 1.27543 0
M  V30 1215 H 116.233 -4.41662 -0.196651 0
M  V30 1216 N 115.292 -0.849877 -1.32721 0
M  V30 1217 C 116.222 -0.306308 -2.31482 0
M  V30 1218 C 117.203 0.591952 -1.59468 0
M  V30 1219 O 118.388 0.513199 -1.87296 0
M  V30 1220 C 115.518 0.510204 -3.43532 0
M  V30 1221 C 114.472 -0.293209 -4.26994 0
M  V30 1222 C 113.798 0.647743 -5.30762 0
M  V30 1223 C 115.098 -1.51634 -4.99804 0
M  V30 1224 H 116.792 -1.13153 -2.77195 0
M  V30 1225 H 114.338 -0.545553 -1.33266 0
M  V30 1226 H 116.291 0.900856 -4.11658 0
M  V30 1227 H 115.015 1.36874 -2.96535 0
M  V30 1228 H 113.674 -0.665555 -3.60508 0
M  V30 1229 H 113.322 1.50299 -4.8002 0
M  V30 1230 H 113.022 0.11422 -5.87489 0
M  V30 1231 H 114.546 1.03567 -6.01753 0
M  V30 1232 H 115.96 -1.19824 -5.60638 0
M  V30 1233 H 114.357 -1.98745 -5.66234 0
M  V30 1234 H 115.427 -2.28018 -4.27943 0
M  V30 1235 N 116.77 1.45427 -0.607355 0
M  V30 1236 C 117.995 2.07124 -0.107006 0
M  V30 1237 C 118.42 1.44906 1.19933 0
M  V30 1238 O 117.778 0.541687 1.73019 0
M  V30 1239 C 117.826 3.60595 0.0194119 0
M  V30 1240 O 116.93 3.98285 1.0697 0
M  V30 1241 H 116.271 0.659868 -0.0739597 0
M  V30 1242 H 118.801 1.86683 -0.837297 0
M  V30 1243 H 118.811 4.07419 0.2177 0
M  V30 1244 H 117.486 4.05266 -0.934453 0
M  V30 1245 H 116.063 3.63133 0.847889 0
M  V30 1246 N 118.248 0.346503 1.53744 0
M  V30 1247 C 119.496 -0.248612 2.00565 0
M  V30 1248 C 119.817 -1.5083 1.23593 0
M  V30 1249 O 119.087 -1.92858 0.343912 0
M  V30 1250 H 117.667 -0.0948564 0.740953 0
M  V30 1251 H 120.329 0.468341 1.89189 0
M  V30 1252 H 119.425 -0.488994 3.08245 0
M  V30 1253 N 119.726 -1.57421 0.075193 0
M  V30 1254 C 120.658 -2.09904 -0.920483 0
M  V30 1255 C 121.671 -1.03191 -1.25918 0
M  V30 1256 O 122.86 -1.30695 -1.21577 0
M  V30 1257 C 119.96 -2.54726 -2.23534 0
M  V30 1258 C 119.133 -3.8505 -2.07498 0
M  V30 1259 C 118.192 -4.15929 -3.22319 0
M  V30 1260 O 117.218 -4.85474 -2.9716 0
M  V30 1261 N 118.42 -3.69745 -4.47514 0
M  V30 1262 H 121.185 -2.95954 -0.472359 0
M  V30 1263 H 118.746 -1.61523 -0.110444 0
M  V30 1264 H 120.738 -2.72443 -2.9926 0
M  V30 1265 H 119.308 -1.73795 -2.59835 0
M  V30 1266 H 118.528 -3.76679 -1.16219 0
M  V30 1267 H 119.816 -4.70348 -1.94038 0
M  V30 1268 H 119.214 -3.13569 -4.7084 0
M  V30 1269 H 117.771 -3.92655 -5.20255 0
M  V30 1270 N 121.204 0.198386 -1.56346 0
M  V30 1271 C 122.136 1.26987 -1.90806 0
M  V30 1272 C 123.149 1.41877 -0.798419 0
M  V30 1273 O 124.338 1.42362 -1.07682 0
M  V30 1274 C 121.438 2.64246 -2.12196 0
M  V30 1275 C 120.611 2.71007 -3.43328 0
M  V30 1276 C 119.67 3.89439 -3.5387 0
M  V30 1277 O 118.696 3.76695 -4.26719 0
M  V30 1278 N 119.898 5.04752 -2.86715 0
M  V30 1279 H 122.663 0.977433 -2.83313 0
M  V30 1280 H 120.224 0.388322 -1.57174 0
M  V30 1281 H 122.216 3.41896 -2.1654 0
M  V30 1282 H 120.786 2.85992 -1.26204 0
M  V30 1283 H 120.006 1.79657 -3.50881 0
M  V30 1284 H 121.294 2.72512 -4.29668 0
M  V30 1285 H 120.692 5.18004 -2.2735 0
M  V30 1286 H 119.249 5.8036 -2.96691 0
M  V30 1287 N 122.682 1.50554 0.465978 0
M  V30 1288 C 123.645 1.69233 1.54574 0
M  V30 1289 C 124.645 0.562901 1.50626 0
M  V30 1290 O 125.835 0.830016 1.53155 0
M  V30 1291 C 122.967 1.7223 2.94193 0
M  V30 1292 H 124.16 2.65571 1.39327 0
M  V30 1293 H 121.713 1.40111 0.692711 0
M  V30 1294 H 122.448 0.77603 3.14878 0
M  V30 1295 H 122.233 2.54285 2.98466 0
M  V30 1296 H 123.723 1.88618 3.72576 0
M  V30 1297 N 124.16 -0.719506 1.40217 0
M  V30 1298 C 125.123 -1.8153 1.39927 0
M  V30 1299 C 126.123 -1.58095 0.293723 0
M  V30 1300 O 127.313 -1.65209 0.552429 0
M  V30 1301 C 124.445 -3.19561 1.18716 0
M  V30 1302 H 125.638 -1.83186 2.37451 0
M  V30 1303 H 123.191 -0.924746 1.26008 0
M  V30 1304 H 123.926 -3.23557 0.219366 0
M  V30 1305 H 123.711 -3.3797 1.98793 0
M  V30 1306 H 125.201 -3.99598 1.21291 0
M  V30 1307 N 125.638 -1.25649 -0.95132 0
M  V30 1308 C 126.878 -1.11802 -1.71113 0
M  V30 1309 C 127.242 0.334758 -1.89059 0
M  V30 1310 O 128.443 0.595121 -2.62129 0
M  V30 1311 C 126.714 -1.85512 -3.05483 0
M  V30 1312 S 128.273 -1.87597 -3.96677 0
M  V30 1313 H 125.091 -0.399552 -0.588115 0
M  V30 1314 H 127.693 -1.59222 -1.1344 0
M  V30 1315 H 126.397 -2.90299 -2.90094 0
M  V30 1316 H 125.928 -1.38493 -3.68216 0
M  V30 1317 H 127.943 -0.955389 -4.86916 0
M  V30 1318 N 127.117 1.15442 -1.07289 0
M  V30 1319 C 128.394 1.82306 -0.708792 0
M  V30 1320 C 128.774 1.94991 0.808807 0
M  V30 1321 O 128.122 1.50085 1.72298 0
M  V30 1322 C 128.332 3.18695 -1.42247 0
M  V30 1323 C 129.68 3.94341 -1.57417 0
M  V30 1324 O 130.704 3.28247 -1.38319 0
M  V30 1325 O 129.563 5.12839 -1.88834 0
M  V30 1326 H 126.657 0.787628 -0.252132 0
M  V30 1327 H 129.203 1.22559 -1.17377 0
M  V30 1328 H 127.975 3.04557 -2.45684 0
M  V30 1329 H 127.598 3.86128 -0.948223 0
M  V30 1330 N 128.595 0.856903 1.32268 0
M  V30 1331 C 129.528 0.247937 2.26849 0
M  V30 1332 C 130.506 -0.615382 1.50505 0
M  V30 1333 O 131.69 -0.571689 1.79622 0
M  V30 1334 C 128.817 -0.650093 3.32403 0
M  V30 1335 C 127.863 0.140138 4.2627 0
M  V30 1336 S 128.696 1.51004 5.13769 0
M  V30 1337 C 129.852 0.61778 6.22844 0
M  V30 1338 H 130.085 1.04971 2.78152 0
M  V30 1339 H 127.618 0.654665 1.39834 0
M  V30 1340 H 129.576 -1.16256 3.93694 0
M  V30 1341 H 128.237 -1.4257 2.7988 0
M  V30 1342 H 127.43 -0.543945 5.01056 0
M  V30 1343 H 127.032 0.584267 3.69408 0
M  V30 1344 H 129.324 -0.177053 6.77269 0
M  V30 1345 H 130.267 1.33636 6.95375 0
M  V30 1346 H 130.675 0.191124 5.64176 0
M  V30 1347 N 130.073 -1.45103 0.615059 0
M  V30 1348 C 131.036 -2.29025 -0.0895485 0
M  V30 1349 C 132.036 -1.40174 -0.787906 0
M  V30 1350 O 133.226 -1.62217 -0.634933 0
M  V30 1351 C 130.358 -3.21376 -1.13711 0
M  V30 1352 H 131.551 -2.92807 0.648382 0
M  V30 1353 H 129.104 -1.51749 0.374444 0
M  V30 1354 H 129.839 -2.6241 -1.90556 0
M  V30 1355 H 129.624 -3.86834 -0.640475 0
M  V30 1356 H 131.114 -3.84459 -1.63036 0
M  V30 1357 N 131.551 -0.354651 -1.53558 0
M  V30 1358 C 132.514 0.484566 -2.24019 0
M  V30 1359 C 133.514 1.01861 -1.24422 0
M  V30 1360 O 134.704 0.906097 -1.4878 0
M  V30 1361 C 131.836 1.67615 -2.96847 0
M  V30 1362 H 133.029 -0.131843 -2.9961 0
M  V30 1363 H 130.582 -0.106165 -1.55939 0
M  V30 1364 H 131.317 2.33095 -2.25471 0
M  V30 1365 H 131.102 1.30029 -3.69912 0
M  V30 1366 H 132.592 2.27114 -3.50441 0
M  V30 1367 N 133.029 1.57378 -0.0835403 0
M  V30 1368 C 133.959 2.1641 0.87686 0
M  V30 1369 C 134.94 1.09429 1.30228 0
M  V30 1370 O 136.125 1.37516 1.37124 0
M  V30 1371 C 133.255 2.73517 2.14022 0
M  V30 1372 C 132.209 3.85769 1.85381 0
M  V30 1373 C 131.535 4.29529 3.18448 0
M  V30 1374 C 132.835 5.09486 1.14984 0
M  V30 1375 H 134.529 2.96914 0.385059 0
M  V30 1376 H 132.075 1.42823 0.18377 0
M  V30 1377 H 134.028 3.13463 2.81636 0
M  V30 1378 H 132.752 1.90252 2.65465 0
M  V30 1379 H 131.411 3.46345 1.20169 0
M  V30 1380 H 131.059 3.43169 3.67755 0
M  V30 1381 H 130.759 5.05204 3.00071 0
M  V30 1382 H 132.283 4.72099 3.8724 0
M  V30 1383 H 133.697 5.46674 1.72687 0
M  V30 1384 H 132.094 5.90515 1.06826 0
M  V30 1385 H 133.164 4.84724 0.130749 0
M  V30 1386 N 134.507 -0.190092 1.56449 0
M  V30 1387 C 135.417 -1.25591 1.98152 0
M  V30 1388 C 136.433 -1.49519 0.889944 0
M  V30 1389 O 137.609 -1.62036 1.19609 0
M  V30 1390 C 134.674 -2.57916 2.3169 0
M  V30 1391 C 133.735 -2.42015 3.5458 0
M  V30 1392 C 132.968 -3.6803 3.8651 0
M  V30 1393 O 133.191 -4.72413 3.1966 0
M  V30 1394 O 132.125 -3.6326 4.79923 0
M  V30 1395 H 135.951 -0.931988 2.89046 0
M  V30 1396 H 133.536 -0.395488 1.4407 0
M  V30 1397 H 135.418 -3.36008 2.54316 0
M  V30 1398 H 134.093 -2.89925 1.43963 0
M  V30 1399 H 133 -1.62017 3.37196 0
M  V30 1400 H 134.333 -2.14937 4.4279 0
M  V30 1401 N 135.985 -1.50799 -0.457987 0
M  V30 1402 C 137.262 -1.52968 -1.21902 0
M  V30 1403 C 137.642 -0.281906 -2.09209 0
M  V30 1404 O 136.99 0.734076 -2.16388 0
M  V30 1405 C 137.2 -2.8326 -2.03875 0
M  V30 1406 C 138.548 -3.34425 -2.6162 0
M  V30 1407 O 139.572 -2.8467 -2.14106 0
M  V30 1408 O 138.431 -4.21188 -3.48228 0
M  V30 1409 H 135.525 -0.614129 -0.553873 0
M  V30 1410 H 138.071 -1.63098 -0.468739 0
M  V30 1411 H 136.843 -3.65543 -1.39621 0
M  V30 1412 H 136.466 -2.76195 -2.8601 0
M  V30 1413 N 137.463 0.71206 -1.40597 0
M  V30 1414 C 138.709 1.47416 -1.39271 0
M  V30 1415 C 139.042 1.942 0.00388791 0
M  V30 1416 O 138.317 1.68403 0.973179 0
M  V30 1417 C 138.6 2.69774 -2.38525 0
M  V30 1418 C 138.453 2.28861 -3.87224 0
M  V30 1419 C 139.772 3.71939 -2.35264 0
M  V30 1420 H 136.891 0.534713 -0.5072 0
M  V30 1421 H 139.533 0.812375 -1.71757 0
M  V30 1422 H 137.683 3.26238 -2.10953 0
M  V30 1423 H 139.355 1.77852 -4.25636 0
M  V30 1424 H 137.598 1.60824 -4.02887 0
M  V30 1425 H 138.269 3.16584 -4.52193 0
M  V30 1426 H 140.745 3.25113 -2.59694 0
M  V30 1427 H 139.621 4.55186 -3.06753 0
M  V30 1428 H 139.882 4.20484 -1.36549 0
M  V30 1429 N 138.941 1.26152 0.944643 0
M  V30 1430 C 140.218 1.02247 1.66748 0
M  V30 1431 C 140.598 -0.448202 2.06287 0
M  V30 1432 O 139.946 -1.42779 1.78399 0
M  V30 1433 C 140.156 1.96788 2.88228 0
M  V30 1434 C 141.504 2.25201 3.59958 0
M  V30 1435 O 142.528 1.94626 2.98327 0
M  V30 1436 O 141.387 2.77242 4.70956 0
M  V30 1437 H 138.481 0.388517 0.730057 0
M  V30 1438 H 141.027 1.37348 0.99668 0
M  V30 1439 H 139.799 2.96047 2.55875 0
M  V30 1440 H 139.422 1.62145 3.63035 0
M  V30 1441 N 140.419 -1.14872 1.07899 0
M  V30 1442 C 141.351 -2.19425 0.662231 0
M  V30 1443 C 142.364 -1.60231 -0.288079 0
M  V30 1444 O 143.553 -1.78336 -0.076534 0
M  V30 1445 C 140.653 -3.38867 -0.0470695 0
M  V30 1446 C 139.826 -4.27597 0.920831 0
M  V30 1447 C 138.885 -5.25616 0.247805 0
M  V30 1448 O 137.911 -5.62189 0.890599 0
M  V30 1449 N 139.113 -5.71746 -1.00435 0
M  V30 1450 H 141.878 -2.55797 1.56166 0
M  V30 1451 H 139.439 -1.30042 0.964404 0
M  V30 1452 H 141.431 -4.01497 -0.50813 0
M  V30 1453 H 140.001 -3.00864 -0.848523 0
M  V30 1454 H 139.221 -3.61982 1.56087 0
M  V30 1455 H 140.509 -4.83748 1.57688 0
M  V30 1456 H 139.907 -5.44153 -1.54642 0
M  V30 1457 H 138.464 -6.36389 -1.40899 0
M  V30 1458 N 141.898 -0.863906 -1.31812 0
M  V30 1459 C 143.144 -0.472535 -1.97218 0
M  V30 1460 C 143.477 0.971394 -1.68159 0
M  V30 1461 O 142.752 1.68309 -0.974798 0
M  V30 1462 C 143.035 -0.723054 -3.52766 0
M  V30 1463 C 142.888 -2.21608 -3.91421 0
M  V30 1464 C 144.207 -0.185522 -4.39709 0
M  V30 1465 H 141.326 -0.173158 -0.71637 0
M  V30 1466 H 143.968 -1.08403 -1.56041 0
M  V30 1467 H 142.118 -0.202577 -3.87971 0
M  V30 1468 H 143.79 -2.80334 -3.66347 0
M  V30 1469 H 142.033 -2.691 -3.40246 0
M  V30 1470 H 142.704 -2.34203 -4.99853 0
M  V30 1471 H 145.18 -0.630726 -4.11292 0
M  V30 1472 H 144.056 -0.390306 -5.47511 0
M  V30 1473 H 144.317 0.912229 -4.32586 0
M  V30 1474 N 143.376 1.44774 -0.622745 0
M  V30 1475 C 144.309 2.27792 0.136329 0
M  V30 1476 C 145.287 1.38041 0.859264 0
M  V30 1477 O 146.471 1.67478 0.86506 0
M  V30 1478 C 143.598 3.16776 1.19878 0
M  V30 1479 C 142.644 4.22575 0.57731 0
M  V30 1480 S 143.477 5.31825 -0.626294 0
M  V30 1481 C 144.633 6.24377 0.436378 0
M  V30 1482 H 144.866 2.91824 -0.567967 0
M  V30 1483 H 142.399 1.48838 -0.410677 0
M  V30 1484 H 144.357 3.68596 1.80686 0
M  V30 1485 H 143.018 2.5198 1.87523 0
M  V30 1486 H 142.211 4.84818 1.37721 0
M  V30 1487 H 141.813 3.73974 0.0440439 0
M  V30 1488 H 144.105 6.64689 1.31128 0
M  V30 1489 H 145.048 7.07941 -0.150271 0
M  V30 1490 H 145.456 5.59381 0.758513 0
M  V30 1491 N 144.854 0.36279 1.53368 0
M  V30 1492 C 145.817 -0.472679 2.24273 0
M  V30 1493 C 146.817 -1.012 1.24961 0
M  V30 1494 O 148.007 -0.898194 1.49259 0
M  V30 1495 C 145.139 -1.66039 2.97731 0
M  V30 1496 H 146.332 0.14773 2.99536 0
M  V30 1497 H 143.885 0.114434 1.55881 0
M  V30 1498 H 144.62 -2.31896 2.26704 0
M  V30 1499 H 144.405 -1.28066 3.70596 0
M  V30 1500 H 145.895 -2.25252 3.51641 0
M  V30 1501 N 146.332 -1.57332 0.0918853 0
M  V30 1502 C 147.295 -2.12708 -0.85369 0
M  V30 1503 C 148.295 -1.05561 -1.213 0
M  V30 1504 O 149.485 -1.31461 -1.14296 0
M  V30 1505 C 146.617 -2.64503 -2.15061 0
M  V30 1506 H 147.81 -2.97573 -0.3729 0
M  V30 1507 H 145.363 -1.55509 -0.157072 0
M  V30 1508 H 146.098 -1.83149 -2.67632 0
M  V30 1509 H 145.883 -3.4284 -1.90272 0
M  V30 1510 H 147.373 -3.07351 -2.82711 0
M  V30 1511 N 147.81 0.181792 -1.56548 0
M  V30 1512 C 149.059 0.898348 -1.8059 0
M  V30 1513 C 149.372 1.83862 -0.667379 0
M  V30 1514 O 150.578 2.59678 -0.792446 0
M  V30 1515 C 149.034 1.64791 -3.19956 0
M  V30 1516 C 148.642 0.751789 -4.41647 0
M  V30 1517 C 150.386 2.35331 -3.53298 0
M  V30 1518 C 148.293 1.50098 -5.72035 0
M  V30 1519 H 147.223 0.339194 -0.673397 0
M  V30 1520 H 149.874 0.151413 -1.82874 0
M  V30 1521 H 148.256 2.43921 -3.11959 0
M  V30 1522 H 149.43 -0.0018076 -4.608 0
M  V30 1523 H 147.745 0.156562 -4.16106 0
M  V30 1524 H 150.342 2.91958 -4.47956 0
M  V30 1525 H 150.685 3.10164 -2.77676 0
M  V30 1526 H 151.218 1.63154 -3.62803 0
M  V30 1527 H 147.957 0.795175 -6.50659 0
M  V30 1528 H 147.477 2.22817 -5.56878 0
M  V30 1529 H 149.156 2.05125 -6.13622 0
M  V30 1530 N 149.288 1.51039 0.449983 0
M  V30 1531 C 150.534 1.63322 1.20223 0
M  V30 1532 C 150.867 0.34241 1.91158 0
M  V30 1533 O 150.142 -0.657344 1.83055 0
M  V30 1534 C 150.425 2.82801 2.22925 0
M  V30 1535 C 150.278 4.21823 1.56157 0
M  V30 1536 C 151.597 2.97807 3.24035 0
M  V30 1537 H 148.716 0.594407 0.435718 0
M  V30 1538 H 151.358 1.83489 0.493136 0
M  V30 1539 H 149.508 2.65738 2.834 0
M  V30 1540 H 151.18 4.50526 0.991162 0
M  V30 1541 H 149.423 4.25105 0.864172 0
M  V30 1542 H 150.094 5.01391 2.30891 0
M  V30 1543 H 152.57 3.13497 2.73603 0
M  V30 1544 H 151.446 3.82992 3.93202 0
M  V30 1545 H 151.707 2.09328 3.89402 0
M  V30 1546 N 150.766 -0.704594 1.40972 0
M  V30 1547 C 152.014 -1.46169 1.39568 0
M  V30 1548 C 152.335 -1.95 0.00253745 0
M  V30 1549 O 151.605 -1.71095 -0.954114 0
M  V30 1550 H 150.185 -0.542326 0.513704 0
M  V30 1551 H 152.847 -0.834553 1.76128 0
M  V30 1552 H 151.943 -2.32922 2.07735 0
M  V30 1553 N 152.244 -1.26651 -0.937939 0
M  V30 1554 C 153.207 -1.08546 -2.01867 0
M  V30 1555 C 154.207 -0.0327327 -1.60767 0
M  V30 1556 O 155.397 -0.276427 -1.71993 0
M  V30 1557 C 152.529 -0.651711 -3.34613 0
M  V30 1558 H 153.722 -2.04502 -2.1936 0
M  V30 1559 H 151.275 -1.09294 -1.11734 0
M  V30 1560 H 152.01 0.309696 -3.22818 0
M  V30 1561 H 151.795 -1.41189 -3.65798 0
M  V30 1562 H 153.285 -0.546973 -4.14002 0
M  V30 1563 N 153.722 1.14298 -1.08507 0
M  V30 1564 C 154.685 2.17607 -0.719711 0
M  V30 1565 C 155.685 1.58907 0.245997 0
M  V30 1566 O 156.875 1.74181 0.0254081 0
M  V30 1567 C 154.007 3.40842 -0.0627695 0
M  V30 1568 H 155.2 2.51443 -1.63452 0
M  V30 1569 H 152.753 1.28963 -0.88307 0
M  V30 1570 H 153.488 3.12587 0.863716 0
M  V30 1571 H 153.273 3.84713 -0.757504 0
M  V30 1572 H 154.763 4.17221 0.177786 0
M  V30 1573 N 155.201 0.870884 1.31352 0
M  V30 1574 C 156.449 0.48132 1.96285 0
M  V30 1575 C 156.77 -0.969813 1.69173 0
M  V30 1576 O 156.04 -1.67998 1.00764 0
M  V30 1577 H 154.62 0.175002 0.726212 0
M  V30 1578 H 157.282 1.11087 1.60143 0
M  V30 1579 H 156.378 0.639825 3.05471 0
M  V30 1580 N 156.679 -1.44442 0.630414 0
M  V30 1581 C 157.609 -2.33418 -0.0618083 0
M  V30 1582 C 158.59 -1.48165 -0.835541 0
M  V30 1583 O 159.775 -1.76886 -0.801564 0
M  V30 1584 C 156.905 -3.31222 -1.04449 0
M  V30 1585 C 155.859 -4.26288 -0.382436 0
M  V30 1586 C 155.185 -5.13954 -1.47497 0
M  V30 1587 C 156.485 -5.1744 0.710865 0
M  V30 1588 H 158.179 -2.91548 0.681184 0
M  V30 1589 H 155.725 -1.40191 0.329026 0
M  V30 1590 H 157.678 -3.92351 -1.53748 0
M  V30 1591 H 156.402 -2.71299 -1.81836 0
M  V30 1592 H 155.061 -3.6649 0.0899054 0
M  V30 1593 H 154.709 -4.50385 -2.2397 0
M  V30 1594 H 154.409 -5.7837 -1.03737 0
M  V30 1595 H 155.933 -5.77955 -1.96979 0
M  V30 1596 H 157.347 -5.72509 0.300996 0
M  V30 1597 H 155.744 -5.90455 1.07156 0
M  V30 1598 H 156.814 -4.58496 1.57829 0
M  V30 1599 N 158.157 -0.370918 -1.53173 0
M  V30 1600 C 159.087 0.464847 -2.28826 0
M  V30 1601 C 160.068 1.07936 -1.31468 0
M  V30 1602 O 161.253 1.0956 -1.60344 0
M  V30 1603 C 158.383 1.60196 -3.08147 0
M  V30 1604 C 157.337 1.11443 -4.13237 0
M  V30 1605 C 156.663 2.3422 -4.80672 0
M  V30 1606 C 157.963 0.195384 -5.21934 0
M  V30 1607 H 159.657 -0.166329 -2.98938 0
M  V30 1608 H 157.203 -0.0814359 -1.4377 0
M  V30 1609 H 159.156 2.19332 -3.59822 0
M  V30 1610 H 157.88 2.26045 -2.35735 0
M  V30 1611 H 156.539 0.545727 -3.62515 0
M  V30 1612 H 156.187 2.98537 -4.04827 0
M  V30 1613 H 155.887 2.02269 -5.51689 0
M  V30 1614 H 157.411 2.94032 -5.35143 0
M  V30 1615 H 158.825 0.694375 -5.69079 0
M  V30 1616 H 157.222 -0.0335027 -6.00091 0
M  V30 1617 H 158.292 -0.760961 -4.78892 0
M  V30 1618 N 159.635 1.57281 -0.100228 0
M  V30 1619 C 161.046 1.81725 0.428107 0
M  V30 1620 C 161.397 1.01619 1.67833 0
M  V30 1621 O 160.522 0.247098 2.14985 0
M  V30 1622 C 161.117 3.29617 0.78347 0
M  V30 1623 C 159.676 3.54808 1.25653 0
M  V30 1624 C 158.823 2.76118 0.255752 0
M  V30 1625 H 161.774 1.55324 -0.325608 0
M  V30 1626 H 161.795 3.4322 1.64256 0
M  V30 1627 H 161.307 3.87893 -0.12665 0
M  V30 1628 H 159.408 3.01868 2.18418 0
M  V30 1629 H 159.521 4.63443 1.21482 0
M  V30 1630 H 157.885 2.43745 0.738956 0
M  V30 1631 H 158.668 3.37145 -0.647136 0
M  V30 1632 N 161.113 -0.173488 1.56642 0
M  V30 1633 C 162.341 -0.906095 1.86004 0
M  V30 1634 C 162.756 -1.75921 0.685355 0
M  V30 1635 O 162.113 -1.79198 -0.345578 0
M  V30 1636 C 162.164 -1.78462 3.14378 0
M  V30 1637 O 161.885 -0.965914 4.27319 0
M  V30 1638 C 163.386 -2.62707 3.57071 0
M  V30 1639 H 160.606 -0.263341 0.617165 0
M  V30 1640 H 163.15 -0.174236 2.03756 0
M  V30 1641 H 161.305 -2.46984 2.98459 0
M  V30 1642 H 161.719 -1.56655 5.00559 0
M  V30 1643 H 163.193 -3.19969 4.49804 0
M  V30 1644 H 163.67 -3.37472 2.81086 0
M  V30 1645 H 164.276 -1.99521 3.75595 0
M  V30 1646 N 162.591 -1.51276 -0.441967 0
M  V30 1647 C 163.521 -1.752 -1.54361 0
M  V30 1648 C 164.502 -0.601682 -1.59103 0
M  V30 1649 O 165.687 -0.843913 -1.74905 0
M  V30 1650 C 162.817 -1.87282 -2.92477 0
M  V30 1651 C 161.771 -3.02687 -3.02596 0
M  V30 1652 C 161.097 -2.99947 -4.42647 0
M  V30 1653 C 162.397 -4.4273 -2.77106 0
M  V30 1654 H 164.091 -2.67442 -1.34592 0
M  V30 1655 H 161.637 -1.28694 -0.646048 0
M  V30 1656 H 163.59 -2.02602 -3.695 0
M  V30 1657 H 162.314 -0.916844 -3.13467 0
M  V30 1658 H 160.973 -2.87065 -2.28012 0
M  V30 1659 H 160.621 -2.02136 -4.60597 0
M  V30 1660 H 160.321 -3.77439 -4.50348 0
M  V30 1661 H 161.845 -3.17354 -5.2165 0
M  V30 1662 H 163.259 -4.58727 -3.43864 0
M  V30 1663 H 161.656 -5.21893 -2.96222 0
M  V30 1664 H 162.726 -4.53087 -1.72744 0
M  V30 1665 N 164.069 0.697108 -1.41344 0
M  V30 1666 C 165.032 1.79281 -1.42797 0
M  V30 1667 C 166.032 1.57607 -0.318837 0
M  V30 1668 O 167.222 1.64309 -0.578642 0
M  V30 1669 C 164.354 3.17632 -1.23785 0
M  V30 1670 H 165.547 1.79385 -2.40335 0
M  V30 1671 H 163.1 0.904582 -1.27464 0
M  V30 1672 H 163.835 3.23167 -0.270814 0
M  V30 1673 H 163.62 3.34765 -2.04144 0
M  V30 1674 H 165.11 3.97617 -1.27633 0
M  V30 1675 N 165.547 1.27147 0.931209 0
M  V30 1676 C 166.51 1.09615 2.01289 0
M  V30 1677 C 167.51 0.0412581 1.60747 0
M  V30 1678 O 168.7 0.285545 1.71844 0
M  V30 1679 C 165.832 0.669447 3.34262 0
M  V30 1680 H 167.025 2.05662 2.18273 0
M  V30 1681 H 164.578 1.09885 1.11153 0
M  V30 1682 H 165.313 -0.292572 3.22978 0
M  V30 1683 H 165.098 1.43127 3.65044 0
M  V30 1684 H 166.588 0.568921 4.13706 0
M  V30 1685 N 167.025 -1.13721 1.09112 0
M  V30 1686 C 168.274 -1.84275 0.82009 0
M  V30 1687 C 168.587 -1.84253 -0.656509 0
M  V30 1688 O 169.793 -2.50668 -1.04296 0
M  V30 1689 C 168.249 -3.30825 1.41714 0
M  V30 1690 C 167.857 -3.39244 2.92605 0
M  V30 1691 C 169.601 -4.06443 1.22492 0
M  V30 1692 C 167.508 -4.80047 3.45411 0
M  V30 1693 H 166.438 -0.690387 0.30312 0
M  V30 1694 H 169.089 -1.28146 1.31343 0
M  V30 1695 H 167.471 -3.86737 0.851498 0
M  V30 1696 H 168.645 -2.93344 3.55367 0
M  V30 1697 H 166.96 -2.77088 3.10823 0
M  V30 1698 H 169.557 -5.10387 1.59402 0
M  V30 1699 H 169.9 -4.15972 0.165299 0
M  V30 1700 H 170.433 -3.56852 1.75788 0
M  V30 1701 H 167.172 -4.75709 4.50978 0
M  V30 1702 H 166.692 -5.26455 2.87411 0
M  V30 1703 H 168.371 -5.48957 3.42425 0
M  V30 1704 N 168.503 -0.877838 -1.30888 0
M  V30 1705 C 169.919 -0.570844 -1.49042 0
M  V30 1706 C 170.119 0.893159 -1.80624 0
M  V30 1707 O 169.175 1.67485 -1.88958 0
M  V30 1708 C 170.488 -1.47784 -2.61878 0
M  V30 1709 C 172.036 -1.48071 -2.75761 0
M  V30 1710 C 172.511 -2.37347 -3.91702 0
M  V30 1711 N 174.002 -2.35271 -3.99001 0
M  V30 1712 C 174.737 -3.01063 -4.88004 0
M  V30 1713 N 174.233 -3.76055 -5.81854 0
M  V30 1714 N 176.026 -2.90332 -4.81315 0
M  V30 1715 H 168.177 -1.82502 -1.0866 0
M  V30 1716 H 170.44 -0.780797 -0.537644 0
M  V30 1717 H 170.146 -2.51993 -2.45341 0
M  V30 1718 H 170.02 -1.18215 -3.58197 0
M  V30 1719 H 172.407 -0.446166 -2.91708 0
M  V30 1720 H 172.488 -1.81668 -1.80085 0
M  V30 1721 H 172.132 -3.40883 -3.76512 0
M  V30 1722 H 172.062 -2.01071 -4.86701 0
M  V30 1723 H 174.553 -1.80768 -3.3186 0
M  V30 1724 H 174.866 -4.23366 -6.46514 0
M  V30 1725 H 173.211 -3.80163 -5.81808 0
M  V30 1726 H 176.402 -2.31278 -4.06974 0
M  V30 1727 H 176.575 -3.41885 -5.50471 0
M  V30 1728 N 169.982 1.44106 -0.638065 0
M  V30 1729 C 170.945 2.29138 0.0531013 0
M  V30 1730 C 171.945 1.41409 0.765506 0
M  V30 1731 O 173.135 1.63206 0.609046 0
M  V30 1732 C 170.267 3.23144 1.08584 0
M  V30 1733 H 171.46 2.91739 -0.694883 0
M  V30 1734 H 169.013 1.51134 -0.398538 0
M  V30 1735 H 169.748 2.65408 1.86357 0
M  V30 1736 H 169.533 3.87804 0.578852 0
M  V30 1737 H 171.023 3.87004 1.56899 0
M  V30 1738 N 171.46 0.379036 1.52974 0
M  V30 1739 C 172.708 -0.206014 2.01047 0
M  V30 1740 C 173.029 -1.48175 1.26765 0
M  V30 1741 O 172.299 -1.92085 0.384743 0
M  V30 1742 H 170.879 -0.0791184 0.742798 0
M  V30 1743 H 173.541 0.508366 1.88153 0
M  V30 1744 H 172.637 -0.423501 3.09213 0
M  V30 1745 N 172.938 -1.57226 0.108567 0
M  V30 1746 C 173.885 -2.14756 -0.845481 0
M  V30 1747 C 174.855 -1.06971 -1.27068 0
M  V30 1748 O 176.04 -1.34827 -1.35005 0
M  V30 1749 C 173.18 -2.74298 -2.09415 0
M  V30 1750 C 172.293 -3.96358 -1.71826 0
M  V30 1751 C 171.428 -4.44021 -2.9158 0
M  V30 1752 C 170.467 -5.58637 -2.50181 0
M  V30 1753 N 169.604 -6.01091 -3.62814 0
M  V30 1754 H 174.444 -2.95961 -0.348035 0
M  V30 1755 H 171.981 -1.46226 -0.160106 0
M  V30 1756 H 173.939 -3.06945 -2.82561 0
M  V30 1757 H 172.569 -1.95801 -2.56636 0
M  V30 1758 H 171.621 -3.69939 -0.885947 0
M  V30 1759 H 172.933 -4.79504 -1.37394 0
M  V30 1760 H 172.087 -4.78522 -3.72963 0
M  V30 1761 H 170.826 -3.59803 -3.29231 0
M  V30 1762 H 169.831 -5.23751 -1.67228 0
M  V30 1763 H 171.056 -6.44613 -2.13659 0
M  V30 1764 H 169.002 -5.19817 -4.00158 0
M  V30 1765 H 168.919 -6.79066 -3.32273 0
M  V30 1766 H 170.187 -6.40227 -4.44668 0
M  V30 1767 N 174.416 0.165178 -1.56732 0
M  V30 1768 C 175.644 0.896218 -1.86482 0
M  V30 1769 C 176.059 1.75555 -0.694675 0
M  V30 1770 O 175.416 1.79379 0.33607 0
M  V30 1771 C 175.467 1.76792 -3.1532 0
M  V30 1772 O 175.188 0.943239 -4.27825 0
M  V30 1773 C 176.689 2.6081 -3.58459 0
M  V30 1774 H 173.909 0.260064 -0.618553 0
M  V30 1775 H 176.453 0.163428 -2.03846 0
M  V30 1776 H 174.608 2.45398 -2.99764 0
M  V30 1777 H 175.022 1.53998 -5.01383 0
M  V30 1778 H 176.496 3.17579 -4.51495 0
M  V30 1779 H 176.973 3.35977 -2.82872 0
M  V30 1780 H 177.579 1.97526 -3.76648 0
M  V30 1781 N 175.894 1.51508 0.433938 0
M  V30 1782 C 177.143 1.63578 1.18005 0
M  V30 1783 C 177.456 0.359514 1.92268 0
M  V30 1784 O 178.662 0.359632 2.69108 0
M  V30 1785 C 177.118 2.88901 2.14626 0
M  V30 1786 C 176.726 4.23544 1.45995 0
M  V30 1787 C 178.47 3.10328 2.89649 0
M  V30 1788 C 176.377 5.40014 2.4112 0
M  V30 1789 H 175.307 0.609277 0.444182 0
M  V30 1790 H 177.958 1.77978 0.446773 0
M  V30 1791 H 176.34 2.68142 2.91403 0
M  V30 1792 H 177.514 4.54696 0.747532 0
M  V30 1793 H 175.829 4.08021 0.831115 0
M  V30 1794 H 178.426 3.94518 3.60915 0
M  V30 1795 H 178.769 2.23544 3.51189 0
M  V30 1796 H 179.302 3.31443 2.19978 0
M  V30 1797 H 176.041 6.29068 1.84264 0
M  V30 1798 H 175.561 5.13233 3.10406 0
M  V30 1799 H 177.24 5.72099 3.02177 0
M  V30 1800 N 177.372 -0.689602 1.41712 0
M  V30 1801 C 178.302 -1.81577 1.46806 0
M  V30 1802 C 179.283 -1.66945 0.326105 0
M  V30 1803 O 180.468 -1.86588 0.538377 0
M  V30 1804 C 177.598 -3.19762 1.35535 0
M  V30 1805 C 176.552 -3.49107 2.47605 0
M  V30 1806 C 175.878 -4.86711 2.21397 0
M  V30 1807 C 177.178 -3.47483 3.89939 0
M  V30 1808 H 178.872 -1.7757 2.41058 0
M  V30 1809 H 176.418 -0.852887 1.16025 0
M  V30 1810 H 178.371 -3.98263 1.3771 0
M  V30 1811 H 177.095 -3.24409 0.377708 0
M  V30 1812 H 175.754 -2.72959 2.44722 0
M  V30 1813 H 175.402 -4.8799 1.21961 0
M  V30 1814 H 175.102 -5.0731 2.96497 0
M  V30 1815 H 176.626 -5.67515 2.25297 0
M  V30 1816 H 178.04 -4.1598 3.94505 0
M  V30 1817 H 176.437 -3.79615 4.64771 0
M  V30 1818 H 177.507 -2.46341 4.17665 0
M  V30 1819 N 178.85 -1.27639 -0.924453 0
M  V30 1820 C 179.78 -1.13166 -2.04244 0
M  V30 1821 C 180.761 -0.032256 -1.70069 0
M  V30 1822 O 181.946 -0.207328 -1.9309 0
M  V30 1823 C 179.076 -0.781496 -3.38393 0
M  V30 1824 C 178.03 -1.83449 -3.86692 0
M  V30 1825 C 177.356 -1.33822 -5.17683 0
M  V30 1826 C 178.656 -3.23917 -4.09726 0
M  V30 1827 H 180.35 -2.06689 -2.1661 0
M  V30 1828 H 177.896 -0.995136 -1.04082 0
M  V30 1829 H 179.849 -0.667057 -4.16087 0
M  V30 1830 H 178.573 0.189439 -3.2605 0
M  V30 1831 H 177.232 -1.93789 -3.11193 0
M  V30 1832 H 176.88 -0.35665 -5.01734 0
M  V30 1833 H 176.58 -2.04224 -5.50968 0
M  V30 1834 H 178.104 -1.23679 -5.97943 0
M  V30 1835 H 179.518 -3.16559 -4.77978 0
M  V30 1836 H 177.915 -3.92059 -4.54324 0
M  V30 1837 H 178.985 -3.68729 -3.14908 0
M  V30 1838 N 180.328 1.1314 -1.09713 0
M  V30 1839 C 181.291 2.16831 -0.742751 0
M  V30 1840 C 182.291 1.59159 0.229129 0
M  V30 1841 O 183.481 1.74199 0.00693237 0
M  V30 1842 C 180.613 3.40756 -0.0989168 0
M  V30 1843 H 181.806 2.49695 -1.66109 0
M  V30 1844 H 179.359 1.2802 -0.896699 0
M  V30 1845 H 180.094 3.13485 0.830514 0
M  V30 1846 H 179.879 3.83888 -0.798265 0
M  V30 1847 H 181.369 4.17386 0.133524 0
M  V30 1848 N 181.806 0.884767 1.30421 0
M  V30 1849 C 182.754 0.340869 2.30089 0
M  V30 1850 C 183.748 -0.55201 1.60154 0
M  V30 1851 O 184.954 -0.436467 1.74628 0
M  V30 1852 H 181.329 0.0915739 0.746404 0
M  V30 1853 H 183.3 1.19513 2.73421 0
M  V30 1854 C 182.049 -0.429779 3.45034 0
M  V30 1855 H 181.372 0.248024 3.9903 0
M  V30 1856 H 182.812 -0.775445 4.16849 0
M  V30 1857 C 181.271 -1.62677 2.95022 0
M  V30 1858 O 181.801 -2.72614 2.95033 0
M  V30 1859 N 180.007 -1.46387 2.51036 0
M  V30 1860 H 179.554 -0.569506 2.51226 0
M  V30 1861 H 179.512 -2.26612 2.17932 0
M  V30 1862 N 183.284 -1.43765 0.645699 0
M  V30 1863 C 184.231 -2.30745 -0.0504648 0
M  V30 1864 C 185.201 -1.4432 -0.822241 0
M  V30 1865 O 186.386 -1.73202 -0.800358 0
M  V30 1866 C 183.526 -3.29802 -1.0161 0
M  V30 1867 C 182.639 -4.31326 -0.241219 0
M  V30 1868 C 181.774 -5.17469 -1.19998 0
M  V30 1869 C 180.813 -6.10691 -0.415094 0
M  V30 1870 N 179.95 -6.89483 -1.32506 0
M  V30 1871 H 184.79 -2.8973 0.697155 0
M  V30 1872 H 182.327 -1.42738 0.355563 0
M  V30 1873 H 184.285 -3.85734 -1.58949 0
M  V30 1874 H 182.915 -2.72483 -1.73069 0
M  V30 1875 H 181.967 -3.77749 0.448334 0
M  V30 1876 H 183.279 -4.9743 0.369437 0
M  V30 1877 H 182.433 -5.7799 -1.84424 0
M  V30 1878 H 181.172 -4.51473 -1.84455 0
M  V30 1879 H 180.177 -5.49265 0.242565 0
M  V30 1880 H 181.402 -6.78727 0.224966 0
M  V30 1881 H 179.348 -6.26142 -1.95657 0
M  V30 1882 H 179.265 -7.52081 -0.768783 0
M  V30 1883 H 180.533 -7.54516 -1.9577 0
M  V30 1884 N 184.763 -0.387143 -1.52771 0
M  V30 1885 C 185.673 0.456442 -2.30117 0
M  V30 1886 C 186.689 1.07342 -1.36944 0
M  V30 1887 O 187.865 1.07971 -1.70013 0
M  V30 1888 C 184.93 1.56957 -3.09136 0
M  V30 1889 C 183.991 0.977916 -4.18014 0
M  V30 1890 C 183.224 2.038 -4.93256 0
M  V30 1891 O 183.447 3.25271 -4.68567 0
M  V30 1892 O 182.381 1.6565 -5.78657 0
M  V30 1893 H 186.207 -0.17359 -3.03203 0
M  V30 1894 H 183.792 -0.150919 -1.48636 0
M  V30 1895 H 185.674 2.21628 -3.58412 0
M  V30 1896 H 184.349 2.18461 -2.38865 0
M  V30 1897 H 183.256 0.294525 -3.72939 0
M  V30 1898 H 184.589 0.407128 -4.90513 0
M  V30 1899 N 186.241 1.57166 -0.116904 0
M  V30 1900 C 187.466 1.999 0.55271 0
M  V30 1901 C 187.891 0.996039 1.59564 0
M  V30 1902 O 187.249 -0.032556 1.81271 0
M  V30 1903 C 187.297 3.4152 1.15742 0
M  V30 1904 O 186.401 3.44106 2.27299 0
M  V30 1905 H 185.742 0.649447 0.138258 0
M  V30 1906 H 188.272 2.03573 -0.204759 0
M  V30 1907 H 188.282 3.79684 1.49346 0
M  V30 1908 H 186.957 4.14034 0.393493 0
M  V30 1909 H 185.534 3.17759 1.9515 0
M  V30 1910 N 187.719 -0.156864 1.56817 0
M  V30 1911 C 188.649 -1.19589 2.00551 0
M  V30 1912 C 189.63 -1.4536 0.883426 0
M  V30 1913 O 190.815 -1.56449 1.15054 0
M  V30 1914 C 187.945 -2.53143 2.37773 0
M  V30 1915 C 186.899 -2.41913 3.53075 0
M  V30 1916 C 186.225 -3.80088 3.76081 0
M  V30 1917 C 187.525 -1.91157 4.86062 0
M  V30 1918 H 189.219 -0.832293 2.87599 0
M  V30 1919 H 186.765 -0.398918 1.38364 0
M  V30 1920 H 188.718 -3.26047 2.66967 0
M  V30 1921 H 187.442 -2.91319 1.4765 0
M  V30 1922 H 186.101 -1.71462 3.24031 0
M  V30 1923 H 185.749 -4.15683 2.83225 0
M  V30 1924 H 185.449 -3.73439 4.53671 0
M  V30 1925 H 186.973 -4.54556 4.0769 0
M  V30 1926 H 188.387 -2.53846 5.14038 0
M  V30 1927 H 186.784 -1.95422 5.67389 0
M  V30 1928 H 187.854 -0.866673 4.77092 0
M  V30 1929 N 189.197 -1.51736 -0.425897 0
M  V30 1930 C 190.443 -1.65214 -1.1761 0
M  V30 1931 C 190.776 -0.372778 -1.90589 0
M  V30 1932 O 190.051 0.628139 -1.84078 0
M  V30 1933 C 190.334 -2.86312 -2.18398 0
M  V30 1934 C 190.187 -4.24254 -1.49426 0
M  V30 1935 C 191.506 -3.02925 -3.19256 0
M  V30 1936 H 188.625 -0.601263 -0.426206 0
M  V30 1937 H 191.267 -1.8425 -0.463882 0
M  V30 1938 H 189.417 -2.70213 -2.79137 0
M  V30 1939 H 191.089 -4.52046 -0.919362 0
M  V30 1940 H 189.332 -4.26426 -0.796432 0
M  V30 1941 H 190.003 -5.05001 -2.22885 0
M  V30 1942 H 192.479 -3.1781 -2.68581 0
M  V30 1943 H 191.355 -3.89199 -3.8706 0
M  V30 1944 H 191.616 -2.15497 -3.86023 0
M  V30 1945 N 190.675 0.682077 -1.42076 0
M  V30 1946 C 191.903 1.47057 -1.4554 0
M  V30 1947 C 192.318 1.8869 -0.0645779 0
M  V30 1948 O 191.675 1.57666 0.919115 0
M  V30 1949 C 191.726 2.72442 -2.37609 0
M  V30 1950 O 191.447 2.32559 -3.71279 0
M  V30 1951 C 192.948 3.66069 -2.50017 0
M  V30 1952 H 190.168 0.452737 -0.495248 0
M  V30 1953 H 192.712 0.838695 -1.8651 0
M  V30 1954 H 190.867 3.31835 -1.9991 0
M  V30 1955 H 191.281 3.13475 -4.20516 0
M  V30 1956 H 192.755 4.50792 -3.18576 0
M  V30 1957 H 193.232 4.11476 -1.53572 0
M  V30 1958 H 193.838 3.12572 -2.88407 0
M  V30 1959 N 192.153 1.28127 0.917671 0
M  V30 1960 C 193.393 1.163 1.68088 0
M  V30 1961 C 193.757 -0.284515 1.8988 0
M  V30 1962 O 194.958 -0.525413 2.63615 0
M  V30 1963 C 193.229 1.93546 3.00457 0
M  V30 1964 S 194.788 1.98048 3.91564 0
M  V30 1965 H 191.606 0.415005 0.577315 0
M  V30 1966 H 194.208 1.62173 1.09179 0
M  V30 1967 H 192.912 2.97888 2.82295 0
M  V30 1968 H 192.443 1.48207 3.64415 0
M  V30 1969 H 194.458 1.08415 4.84211 0
M  V30 1970 N 193.631 -1.12557 1.10312 0
M  V30 1971 C 194.879 -1.83675 0.843091 0
M  V30 1972 C 195.2 -1.84435 -0.633131 0
M  V30 1973 O 194.47 -1.30657 -1.45964 0
M  V30 1974 H 193.05 -0.680138 0.308904 0
M  V30 1975 H 195.712 -1.36301 1.39313 0
M  V30 1976 H 194.808 -2.87908 1.2048 0
M  V30 1977 N 195.109 -0.891671 -1.2995 0
M  V30 1978 C 196.525 -0.58662 -1.48428 0
M  V30 1979 C 196.725 0.873951 -1.81561 0
M  V30 1980 O 195.781 1.65471 -1.90724 0
M  V30 1981 C 197.094 -1.50553 -2.60296 0
M  V30 1982 C 198.642 -1.50988 -2.74175 0
M  V30 1983 C 199.117 -2.41488 -3.89163 0
M  V30 1984 N 200.608 -2.39489 -3.96483 0
M  V30 1985 C 201.343 -3.06223 -4.84784 0
M  V30 1986 N 200.839 -3.82206 -5.77833 0
M  V30 1987 N 202.632 -2.95421 -4.78208 0
M  V30 1988 H 194.783 -1.83644 -1.06718 0
M  V30 1989 H 197.046 -0.786455 -0.529332 0
M  V30 1990 H 196.752 -2.54581 -2.42654 0
M  V30 1991 H 196.626 -1.22008 -3.56923 0
M  V30 1992 H 199.013 -0.47708 -2.91218 0
M  V30 1993 H 199.094 -1.83567 -1.78148 0
M  V30 1994 H 198.738 -3.44857 -3.72876 0
M  V30 1995 H 198.668 -2.06222 -4.84541 0
M  V30 1996 H 201.159 -1.84278 -3.29924 0
M  V30 1997 H 201.472 -4.302 -6.41988 0
M  V30 1998 H 199.817 -3.86313 -5.77743 0
M  V30 1999 H 203.008 -2.35581 -4.04499 0
M  V30 2000 H 203.181 -3.47704 -5.46814 0
M  V30 2001 N 196.587 1.43421 -0.653314 0
M  V30 2002 C 197.517 2.33487 0.0246656 0
M  V30 2003 C 198.498 1.49475 0.811863 0
M  V30 2004 O 199.683 1.78139 0.773322 0
M  V30 2005 C 196.813 3.32841 0.99166 0
M  V30 2006 C 195.767 4.26842 0.314568 0
M  V30 2007 C 195.093 5.16236 1.39302 0
M  V30 2008 C 196.393 5.16243 -0.793095 0
M  V30 2009 H 198.087 2.90427 -0.727481 0
M  V30 2010 H 195.633 1.39649 -0.351287 0
M  V30 2011 H 197.586 3.94747 1.47487 0
M  V30 2012 H 196.31 2.74158 1.77497 0
M  V30 2013 H 194.969 3.663 -0.148199 0
M  V30 2014 H 194.617 4.53891 2.16776 0
M  V30 2015 H 194.317 5.79948 0.945223 0
M  V30 2016 H 195.841 5.81015 1.87759 0
M  V30 2017 H 197.255 5.71958 -0.392039 0
M  V30 2018 H 195.652 5.88676 -1.16536 0
M  V30 2019 H 196.722 4.55927 -1.65103 0
M  V30 2020 N 198.065 0.39524 1.52563 0
M  V30 2021 C 199.312 -0.185044 2.01653 0
M  V30 2022 C 199.64 -1.46317 1.28146 0
M  V30 2023 O 198.895 -1.9213 0.372074 0
M  V30 2024 C 199.194 -0.493444 3.53977 0
M  V30 2025 C 198.86 0.69384 4.4553 0
M  V30 2026 C 197.522 1.01954 4.70275 0
M  V30 2027 C 199.874 1.48785 4.99512 0
M  V30 2028 C 197.202 2.14069 5.46252 0
M  V30 2029 C 199.554 2.59965 5.76716 0
M  V30 2030 C 198.218 2.93037 5.99738 0
M  V30 2031 H 197.488 -0.0677123 0.7379 0
M  V30 2032 H 200.135 0.533807 1.8391 0
M  V30 2033 H 198.44 -1.29369 3.69825 0
M  V30 2034 H 200.137 -0.955163 3.89458 0
M  V30 2035 H 196.727 0.429987 4.26438 0
M  V30 2036 H 200.911 1.24946 4.80315 0
M  V30 2037 H 196.167 2.40056 5.62302 0
M  V30 2038 H 200.341 3.21887 6.17545 0
M  V30 2039 H 197.968 3.8003 6.58393 0
M  V30 2040 N 199.544 -1.57102 0.125237 0
M  V30 2041 C 200.477 -2.11371 -0.860094 0
M  V30 2042 C 201.455 -1.03168 -1.25679 0
M  V30 2043 O 202.639 -1.30862 -1.35674 0
M  V30 2044 C 199.766 -2.61555 -2.1519 0
M  V30 2045 C 198.812 -3.81701 -1.9028 0
M  V30 2046 S 199.645 -5.23797 -1.11343 0
M  V30 2047 C 200.801 -5.77353 -2.41689 0
M  V30 2048 H 201.034 -2.94617 -0.39852 0
M  V30 2049 H 198.567 -1.54145 -0.0886555 0
M  V30 2050 H 200.525 -2.91122 -2.89411 0
M  V30 2051 H 199.186 -1.78479 -2.58465 0
M  V30 2052 H 198.379 -4.14985 -2.86014 0
M  V30 2053 H 197.981 -3.52783 -1.24178 0
M  V30 2054 H 200.273 -5.87458 -3.37489 0
M  V30 2055 H 201.216 -6.75323 -2.12942 0
M  V30 2056 H 201.624 -5.05457 -2.51342 0
M  V30 2057 N 201.022 0.148545 -1.56898 0
M  V30 2058 C 202.299 0.890019 -1.74178 0
M  V30 2059 C 202.679 1.99407 -0.692839 0
M  V30 2060 O 202.027 2.26671 0.288505 0
M  V30 2061 C 202.237 1.43389 -3.18183 0
M  V30 2062 C 203.585 1.89791 -3.79822 0
M  V30 2063 O 204.609 1.53134 -3.21603 0
M  V30 2064 O 203.468 2.57387 -4.82093 0
M  V30 2065 H 200.562 0.420496 -0.712118 0
M  V30 2066 H 203.108 0.134591 -1.69165 0
M  V30 2067 H 201.88 0.640383 -3.86024 0
M  V30 2068 H 201.503 2.25287 -3.27615 0
M  V30 2069 N 202.5 1.5196 0.417844 0
M  V30 2070 C 203.463 1.74065 1.49111 0
M  V30 2071 C 204.463 0.610537 1.48758 0
M  V30 2072 O 205.653 0.87832 1.50437 0
M  V30 2073 C 202.785 1.81502 2.88565 0
M  V30 2074 H 203.978 2.69869 1.30807 0
M  V30 2075 H 201.531 1.42244 0.647785 0
M  V30 2076 H 202.266 0.875813 3.1225 0
M  V30 2077 H 202.051 2.63651 2.90225 0
M  V30 2078 H 203.541 2.00376 3.66387 0
M  V30 2079 N 203.978 -0.674533 1.42435 0
M  V30 2080 C 205.224 -1.43671 1.43131 0
M  V30 2081 C 205.557 -1.94142 0.0476021 0
M  V30 2082 O 204.832 -1.70924 -0.928188 0
M  V30 2083 C 205.115 -2.63355 2.45594 0
M  V30 2084 C 204.968 -2.18514 3.93156 0
M  V30 2085 C 206.287 -3.65571 2.45043 0
M  V30 2086 H 203.406 -0.521077 0.521198 0
M  V30 2087 H 206.048 -0.766551 1.7385 0
M  V30 2088 H 204.198 -3.2053 2.19528 0
M  V30 2089 H 205.87 -1.66504 4.30202 0
M  V30 2090 H 204.113 -1.50086 4.07009 0
M  V30 2091 H 204.784 -3.04484 4.60428 0
M  V30 2092 H 207.26 -3.18113 2.68223 0
M  V30 2093 H 206.136 -4.46893 3.18713 0
M  V30 2094 H 206.397 -4.16716 1.47649 0
M  V30 2095 N 205.456 -1.28612 -0.910864 0
M  V30 2096 C 206.403 -1.12786 -2.01365 0
M  V30 2097 C 207.373 -0.024201 -1.66082 0
M  V30 2098 O 208.558 -0.189667 -1.89855 0
M  V30 2099 C 205.698 -0.798743 -3.35729 0
M  V30 2100 C 204.811 -1.98173 -3.83864 0
M  V30 2101 C 203.946 -1.59298 -5.06752 0
M  V30 2102 C 202.985 -2.74245 -5.47226 0
M  V30 2103 N 202.122 -2.35842 -6.61304 0
M  V30 2104 H 206.962 -2.07142 -2.14234 0
M  V30 2105 H 204.499 -1.03093 -1.0493 0
M  V30 2106 H 206.457 -0.588662 -4.13026 0
M  V30 2107 H 205.087 0.10789 -3.2262 0
M  V30 2108 H 204.139 -2.30386 -3.02699 0
M  V30 2109 H 205.451 -2.84343 -4.09818 0
M  V30 2110 H 204.605 -1.34513 -5.916 0
M  V30 2111 H 203.344 -0.702618 -4.82612 0
M  V30 2112 H 202.349 -2.99725 -4.60918 0
M  V30 2113 H 203.574 -3.63928 -5.73353 0
M  V30 2114 H 201.52 -1.49279 -6.38789 0
M  V30 2115 H 201.437 -3.15546 -6.86998 0
M  V30 2116 H 202.705 -2.14348 -7.4945 0
M  V30 2117 N 206.934 1.1197 -1.10907 0
M  V30 2118 C 207.866 2.17592 -0.720175 0
M  V30 2119 C 208.879 1.60938 0.245495 0
M  V30 2120 O 210.068 1.78476 0.0292245 0
M  V30 2121 C 207.168 3.38873 -0.0427917 0
M  V30 2122 C 206.341 4.25006 -1.03388 0
M  V30 2123 C 205.4 5.24774 -0.387075 0
M  V30 2124 O 204.426 5.59631 -1.03934 0
M  V30 2125 N 205.628 5.74208 0.852407 0
M  V30 2126 H 208.393 2.51567 -1.62893 0
M  V30 2127 H 205.954 1.27439 -0.998543 0
M  V30 2128 H 207.946 4.02703 0.401501 0
M  V30 2129 H 206.516 3.03007 0.768456 0
M  V30 2130 H 205.736 3.57716 -1.65629 0
M  V30 2131 H 207.024 4.79397 -1.70458 0
M  V30 2132 H 206.422 5.48062 1.40161 0
M  V30 2133 H 204.979 6.39901 1.23977 0
M  V30 2134 N 208.412 0.89855 1.29475 0
M  V30 2135 C 209.637 0.538561 2.00285 0
M  V30 2136 C 210.062 -0.869135 1.66816 0
M  V30 2137 O 209.42 -1.57831 0.892145 0
M  V30 2138 C 209.468 0.736475 3.52999 0
M  V30 2139 O 208.572 -0.211537 4.11857 0
M  V30 2140 H 207.913 0.210563 0.62973 0
M  V30 2141 H 210.443 1.20982 1.64998 0
M  V30 2142 H 210.453 0.640685 4.02938 0
M  V30 2143 H 209.128 1.76276 3.76696 0
M  V30 2144 H 207.705 -0.0682991 3.72837 0
M  V30 2145 N 209.89 -1.43072 0.660911 0
M  V30 2146 C 210.837 -2.30785 -0.0259884 0
M  V30 2147 C 211.807 -1.45184 -0.806888 0
M  V30 2148 O 212.992 -1.74041 -0.781943 0
M  V30 2149 C 210.132 -3.30861 -0.981067 0
M  V30 2150 C 209.245 -4.31558 -0.195458 0
M  V30 2151 C 208.38 -5.18712 -1.14503 0
M  V30 2152 C 207.419 -6.11097 -0.350299 0
M  V30 2153 N 206.556 -6.90849 -1.25186 0
M  V30 2154 H 211.396 -2.88975 0.727846 0
M  V30 2155 H 208.933 -1.42353 0.370682 0
M  V30 2156 H 210.891 -3.87399 -1.54849 0
M  V30 2157 H 209.521 -2.74304 -1.70169 0
M  V30 2158 H 208.573 -3.77252 0.488374 0
M  V30 2159 H 209.885 -4.9701 0.422176 0
M  V30 2160 H 209.039 -5.79914 -1.78284 0
M  V30 2161 H 207.778 -4.53404 -1.79656 0
M  V30 2162 H 206.783 -5.48976 0.300808 0
M  V30 2163 H 208.008 -6.7845 0.296941 0
M  V30 2164 H 205.954 -6.28182 -1.89005 0
M  V30 2165 H 205.871 -7.52854 -0.688971 0
M  V30 2166 H 207.139 -7.5655 -1.87757 0
M  V30 2167 N 211.368 -0.403325 -1.52352 0
M  V30 2168 C 212.331 0.413051 -2.25447 0
M  V30 2169 C 213.331 0.978513 -1.276 0
M  V30 2170 O 214.521 0.858305 -1.51587 0
M  V30 2171 C 211.653 1.58087 -3.02029 0
M  V30 2172 H 212.846 -0.227094 -2.99039 0
M  V30 2173 H 210.399 -0.155722 -1.55522 0
M  V30 2174 H 211.134 2.25804 -2.32772 0
M  V30 2175 H 210.919 1.18195 -3.73861 0
M  V30 2176 H 212.409 2.1585 -3.57489 0
M  V30 2177 N 212.846 1.57033 -0.133567 0
M  V30 2178 C 213.778 2.13176 0.841944 0
M  V30 2179 C 214.791 1.07794 1.22001 0
M  V30 2180 O 215.98 1.35117 1.16643 0
M  V30 2181 C 213.08 2.62847 2.13926 0
M  V30 2182 C 212.253 3.92486 1.93064 0
M  V30 2183 C 211.312 4.27605 3.0666 0
M  V30 2184 O 210.338 4.96168 2.78937 0
M  V30 2185 N 211.54 3.861 4.33483 0
M  V30 2186 H 214.305 2.97503 0.362192 0
M  V30 2187 H 211.866 1.61821 0.05042 0
M  V30 2188 H 213.858 2.83363 2.88942 0
M  V30 2189 H 212.428 1.83319 2.53205 0
M  V30 2190 H 211.648 3.80732 1.02159 0
M  V30 2191 H 212.936 4.77225 1.76447 0
M  V30 2192 H 212.334 3.30828 4.58878 0
M  V30 2193 H 210.891 4.11694 5.05323 0
M  V30 2194 N 214.325 -0.140222 1.56975 0
M  V30 2195 C 215.255 -1.17456 2.01808 0
M  V30 2196 C 216.236 -1.44415 0.898794 0
M  V30 2197 O 217.421 -1.5522 1.16707 0
M  V30 2198 C 214.551 -2.50607 2.40444 0
M  V30 2199 C 213.505 -2.38155 3.55621 0
M  V30 2200 C 212.831 -3.76078 3.80091 0
M  V30 2201 C 214.131 -1.85991 4.88062 0
M  V30 2202 H 215.825 -0.801743 2.88466 0
M  V30 2203 H 213.371 -0.38422 1.38779 0
M  V30 2204 H 215.324 -3.23197 2.7041 0
M  V30 2205 H 214.048 -2.89737 1.50732 0
M  V30 2206 H 212.707 -1.68016 3.25832 0
M  V30 2207 H 212.355 -4.12656 2.87618 0
M  V30 2208 H 212.055 -3.68606 4.57606 0
M  V30 2209 H 213.579 -4.50206 4.12488 0
M  V30 2210 H 214.993 -2.4838 5.16701 0
M  V30 2211 H 213.39 -1.89393 5.6943 0
M  V30 2212 H 214.46 -0.816023 4.77984 0
M  V30 2213 N 215.803 -1.52179 -0.40978 0
M  V30 2214 C 216.733 -1.78435 -1.5061 0
M  V30 2215 C 217.714 -0.635295 -1.57791 0
M  V30 2216 O 218.899 -0.880823 -1.73076 0
M  V30 2217 C 216.029 -1.93444 -2.88439 0
M  V30 2218 C 214.983 -3.09038 -2.96108 0
M  V30 2219 C 214.309 -3.09268 -4.36185 0
M  V30 2220 C 215.609 -4.48508 -2.67652 0
M  V30 2221 H 217.303 -2.70237 -1.28889 0
M  V30 2222 H 214.849 -1.30036 -0.618605 0
M  V30 2223 H 216.802 -2.10394 -3.65119 0
M  V30 2224 H 215.526 -0.983129 -3.11452 0
M  V30 2225 H 214.185 -2.91837 -2.21872 0
M  V30 2226 H 213.833 -2.11861 -4.56206 0
M  V30 2227 H 213.533 -3.86907 -4.42241 0
M  V30 2228 H 215.057 -3.28348 -5.14801 0
M  V30 2229 H 216.471 -4.65918 -3.34056 0
M  V30 2230 H 214.868 -5.28059 -2.85085 0
M  V30 2231 H 215.938 -4.56649 -1.63095 0
M  V30 2232 N 217.281 0.66697 -1.42791 0
M  V30 2233 C 218.692 1.2478 -1.38877 0
M  V30 2234 C 219.043 1.96012 -0.0859426 0
M  V30 2235 O 218.168 2.00463 0.815081 0
M  V30 2236 C 218.763 2.26938 -2.51564 0
M  V30 2237 C 217.322 2.80529 -2.50959 0
M  V30 2238 C 216.469 1.54965 -2.29959 0
M  V30 2239 H 219.42 0.459853 -1.51892 0
M  V30 2240 H 219.441 3.08834 -2.22265 0
M  V30 2241 H 218.953 1.75065 -3.46372 0
M  V30 2242 H 217.054 3.36502 -1.59991 0
M  V30 2243 H 217.167 3.29012 -3.48265 0
M  V30 2244 H 215.531 1.81817 -1.78366 0
M  V30 2245 H 216.314 1.05047 -3.26833 0
M  V30 2246 N 218.759 1.29093 0.90403 0
M  V30 2247 C 220.005 1.16986 1.65656 0
M  V30 2248 C 220.338 -0.278925 1.92186 0
M  V30 2249 O 219.613 -1.2019 1.5292 0
M  V30 2250 C 219.896 1.97908 3.0084 0
M  V30 2251 C 219.749 3.50903 2.81403 0
M  V30 2252 C 221.068 1.80208 4.01513 0
M  V30 2253 H 218.187 0.426346 0.601164 0
M  V30 2254 H 220.829 1.58518 1.04747 0
M  V30 2255 H 218.979 1.62616 3.52829 0
M  V30 2256 H 220.651 3.96153 2.36348 0
M  V30 2257 H 218.894 3.76045 2.1627 0
M  V30 2258 H 219.565 4.02791 3.77443 0
M  V30 2259 H 222.041 2.11025 3.58619 0
M  V30 2260 H 220.917 2.39184 4.94047 0
M  V30 2261 H 221.178 0.756119 4.35586 0
M  V30 2262 N 220.237 -1.11381 1.11499 0
M  V30 2263 C 221.514 -1.7955 0.775965 0
M  V30 2264 C 221.894 -1.97859 -0.73588 0
M  V30 2265 O 221.242 -1.56376 -1.66609 0
M  V30 2266 C 221.452 -3.13196 1.53977 0
M  V30 2267 C 222.8 -3.88227 1.71944 0
M  V30 2268 O 223.824 -3.22887 1.50407 0
M  V30 2269 O 222.683 -5.05477 2.07738 0
M  V30 2270 H 219.777 -0.777728 0.28119 0
M  V30 2271 H 222.323 -1.18118 1.21845 0
M  V30 2272 H 221.095 -2.95229 2.56818 0
M  V30 2273 H 220.718 -3.82342 1.09088 0
M  V30 2274 N 221.715 -0.905404 -1.28997 0
M  V30 2275 C 222.94 -0.549175 -1.99997 0
M  V30 2276 C 223.365 0.860276 -1.67275 0
M  V30 2277 O 222.723 1.57355 -0.900502 0
M  V30 2278 C 222.771 -0.755185 -3.52604 0
M  V30 2279 O 221.875 0.189692 -4.11964 0
M  V30 2280 H 221.216 -0.213899 -0.628604 0
M  V30 2281 H 223.746 -1.21856 -1.64354 0
M  V30 2282 H 223.756 -0.662045 -4.02593 0
M  V30 2283 H 222.431 -1.78271 -3.75755 0
M  V30 2284 H 221.008 0.0485257 -3.72868 0
M  V30 2285 N 223.193 1.4272 -0.668489 0
M  V30 2286 C 224.103 2.34596 0.0139753 0
M  V30 2287 C 225.119 1.5474 0.795703 0
M  V30 2288 O 226.295 1.87334 0.739466 0
M  V30 2289 C 223.36 3.33202 0.957982 0
M  V30 2290 C 222.421 4.28957 0.17149 0
M  V30 2291 C 221.654 5.22853 1.07053 0
M  V30 2292 O 221.877 5.21531 2.31001 0
M  V30 2293 O 220.811 5.9952 0.534727 0
M  V30 2294 H 224.637 2.9448 -0.742661 0
M  V30 2295 H 222.222 1.43117 -0.428705 0
M  V30 2296 H 224.104 3.93796 1.50008 0
M  V30 2297 H 222.779 2.758 1.69458 0
M  V30 2298 H 221.686 3.71796 -0.414558 0
M  V30 2299 H 223.019 4.89383 -0.52586 0
M  V30 2300 N 224.671 0.411399 1.52136 0
M  V30 2301 C 225.621 -0.430376 2.23901 0
M  V30 2302 C 226.605 -1.0116 1.25121 0
M  V30 2303 O 227.797 -0.934044 1.50348 0
M  V30 2304 C 224.926 -1.54527 3.06556 0
M  V30 2305 C 224.012 -0.9747 4.12747 0
M  V30 2306 N 224.403 -0.130991 5.0563 0
M  V30 2307 C 222.701 -1.24497 4.28271 0
M  V30 2308 C 223.402 0.186689 5.814 0
M  V30 2309 N 222.378 -0.42304 5.41951 0
M  V30 2310 H 226.18 0.220509 2.93072 0
M  V30 2311 H 223.694 0.221952 1.60876 0
M  V30 2312 H 225.691 -2.16093 3.56524 0
M  V30 2313 H 224.351 -2.19875 2.38925 0
M  V30 2314 H 225.362 0.23349 5.17373 0
M  V30 2315 H 222.039 -1.89787 3.7187 0
M  V30 2316 H 223.429 0.871673 6.66222 0
M  V30 2317 N 226.149 -1.5696 0.141893 0
M  V30 2318 C 227.097 -2.17784 -0.816874 0
M  V30 2319 C 228.091 -1.1334 -1.25899 0
M  V30 2320 O 229.297 -1.316 -1.22806 0
M  V30 2321 H 225.672 -0.697278 -0.281615 0
M  V30 2322 H 227.643 -2.97087 -0.279621 0
M  V30 2323 C 226.392 -2.80983 -2.04802 0
M  V30 2324 H 225.715 -3.61062 -1.7168 0
M  V30 2325 H 227.155 -3.2705 -2.69841 0
M  V30 2326 C 225.614 -1.79228 -2.8527 0
M  V30 2327 O 226.144 -1.25962 -3.8144 0
M  V30 2328 N 224.35 -1.48647 -2.49704 0
M  V30 2329 H 223.897 -1.92155 -1.71564 0
M  V30 2330 H 223.855 -0.808115 -3.03837 0
M  V30 2331 N 227.627 0.131896 -1.57047 0
M  V30 2332 C 228.59 1.14638 -1.98471 0
M  V30 2333 C 229.59 1.35029 -0.873148 0
M  V30 2334 O 230.78 1.31764 -1.13946 0
M  V30 2335 C 227.912 2.50358 -2.31373 0
M  V30 2336 H 229.105 0.79064 -2.8929 0
M  V30 2337 H 226.658 0.375761 -1.51716 0
M  V30 2338 H 227.393 2.90876 -1.43393 0
M  V30 2339 H 227.178 2.36915 -3.12432 0
M  V30 2340 H 228.668 3.23395 -2.64207 0
M  V30 2341 N 229.106 1.52395 0.401703 0
M  V30 2342 C 230.355 1.66044 1.14509 0
M  V30 2343 C 230.668 0.400216 1.91462 0
M  V30 2344 O 231.874 0.416632 2.68284 0
M  V30 2345 C 230.33 2.93388 2.0845 0
M  V30 2346 C 229.938 4.26545 1.36978 0
M  V30 2347 C 231.682 3.16402 2.83001 0
M  V30 2348 C 229.589 5.45007 2.29611 0
M  V30 2349 H 228.519 0.618562 0.431158 0
M  V30 2350 H 231.17 1.78886 0.40892 0
M  V30 2351 H 229.552 2.74263 2.8565 0
M  V30 2352 H 230.726 4.56179 0.650916 0
M  V30 2353 H 229.041 4.09692 0.74438 0
M  V30 2354 H 231.638 4.02085 3.52465 0
M  V30 2355 H 231.981 2.30943 3.46368 0
M  V30 2356 H 232.514 3.36034 2.12898 0
M  V30 2357 H 229.253 6.32835 1.70879 0
M  V30 2358 H 228.773 5.19702 2.9945 0
M  V30 2359 H 230.452 5.7838 2.89974 0
M  V30 2360 N 230.584 -0.659388 1.43143 0
M  V30 2361 C 231.831 -1.41935 1.44433 0
M  V30 2362 C 232.159 -1.94387 0.0663522 0
M  V30 2363 O 231.414 -1.72314 -0.927706 0
M  V30 2364 C 231.713 -2.62206 2.42864 0
M  V30 2365 C 231.379 -2.28208 3.88886 0
M  V30 2366 C 230.041 -2.18647 4.28657 0
M  V30 2367 C 232.393 -2.00887 4.8093 0
M  V30 2368 C 229.721 -1.79914 5.58433 0
M  V30 2369 C 232.073 -1.63653 6.11065 0
M  V30 2370 C 230.737 -1.52614 6.49819 0
M  V30 2371 H 230.007 -0.519376 0.528517 0
M  V30 2372 H 232.654 -0.750453 1.76183 0
M  V30 2373 H 230.959 -3.34199 2.04495 0
M  V30 2374 H 232.656 -3.2041 2.41119 0
M  V30 2375 H 229.246 -2.36557 3.57406 0
M  V30 2376 H 233.43 -2.07198 4.5098 0
M  V30 2377 H 228.686 -1.69948 5.87305 0
M  V30 2378 H 232.86 -1.41543 6.81864 0
M  V30 2379 H 230.487 -1.22371 7.50286 0
M  V30 2380 N 232.062 -1.29571 -0.897171 0
M  V30 2381 C 232.994 -1.10724 -2.00681 0
M  V30 2382 C 234.007 -0.0540026 -1.6271 0
M  V30 2383 O 235.196 -0.298783 -1.75982 0
M  V30 2384 C 232.296 -0.663912 -3.32333 0
M  V30 2385 C 231.469 -1.79622 -3.98816 0
M  V30 2386 C 230.528 -1.34349 -5.0876 0
M  V30 2387 O 229.554 -2.04864 -5.31055 0
M  V30 2388 N 230.756 -0.215764 -5.80099 0
M  V30 2389 H 233.521 -2.06291 -2.17403 0
M  V30 2390 H 231.082 -1.21544 -1.06951 0
M  V30 2391 H 233.074 -0.344295 -4.03233 0
M  V30 2392 H 231.644 0.199375 -3.11964 0
M  V30 2393 H 230.864 -2.28459 -3.21248 0
M  V30 2394 H 232.152 -2.55535 -4.39976 0
M  V30 2395 H 231.55 0.372091 -5.64475 0
M  V30 2396 H 230.107 0.0444707 -6.51785 0
M  V30 2397 N 233.54 1.10788 -1.12088 0
M  V30 2398 C 234.765 1.87002 -0.896949 0
M  V30 2399 C 235.19 1.79933 0.548261 0
M  V30 2400 O 234.548 1.16662 1.38779 0
M  V30 2401 C 234.596 3.3349 -1.37174 0
M  V30 2402 O 233.7 4.08745 -0.547831 0
M  V30 2403 H 233.041 0.580397 -0.322545 0
M  V30 2404 H 235.571 1.39996 -1.49206 0
M  V30 2405 H 235.581 3.84339 -1.36922 0
M  V30 2406 H 234.256 3.37951 -2.42408 0
M  V30 2407 H 232.833 3.6776 -0.617034 0
M  V30 2408 N 235.018 0.912232 1.28515 0
M  V30 2409 C 235.948 0.416403 2.29757 0
M  V30 2410 C 236.929 -0.515194 1.6211 0
M  V30 2411 O 238.114 -0.423253 1.89532 0
M  V30 2412 C 235.244 -0.34572 3.45575 0
M  V30 2413 C 234.198 0.496599 4.25109 0
M  V30 2414 C 233.524 -0.393771 5.33248 0
M  V30 2415 C 234.824 1.75307 4.92001 0
M  V30 2416 H 236.518 1.26249 2.7148 0
M  V30 2417 H 234.064 0.608515 1.30511 0
M  V30 2418 H 236.017 -0.703422 4.15488 0
M  V30 2419 H 234.741 -1.2257 3.02728 0
M  V30 2420 H 233.4 0.8368 3.56922 0
M  V30 2421 H 233.048 -1.27225 4.86644 0
M  V30 2422 H 232.748 0.166209 5.87365 0
M  V30 2423 H 234.272 -0.747389 6.06009 0
M  V30 2424 H 235.686 1.46437 5.54283 0
M  V30 2425 H 234.083 2.25534 5.56106 0
M  V30 2426 H 235.153 2.48176 4.16577 0
M  V30 2427 N 236.496 -1.42363 0.676048 0
M  V30 2428 C 237.907 -1.84649 0.275948 0
M  V30 2429 C 238.258 -1.56588 -1.18214 0
M  V30 2430 O 237.383 -1.02634 -1.90513 0
M  V30 2431 C 237.978 -3.35178 0.494053 0
M  V30 2432 C 236.537 -3.76109 0.148061 0
M  V30 2433 C 235.684 -2.65931 0.785891 0
M  V30 2434 H 238.635 -1.32192 0.878121 0
M  V30 2435 H 238.656 -3.79655 -0.25343 0
M  V30 2436 H 238.168 -3.55571 1.55535 0
M  V30 2437 H 236.269 -3.61323 -0.909742 0
M  V30 2438 H 236.382 -4.7546 0.589454 0
M  V30 2439 H 234.746 -2.53773 0.217113 0
M  V30 2440 H 235.529 -2.89146 1.85067 0
M  V30 2441 N 237.974 -0.419461 -1.51915 0
M  V30 2442 C 238.906 0.43646 -2.25006 0
M  V30 2443 C 239.919 1.00149 -1.28351 0
M  V30 2444 O 241.108 0.898674 -1.54227 0
M  V30 2445 C 238.208 1.6206 -2.9764 0
M  V30 2446 C 237.381 1.17763 -4.21249 0
M  V30 2447 C 236.44 2.22985 -4.76617 0
M  V30 2448 O 235.466 1.83151 -5.38929 0
M  V30 2449 N 236.668 3.55271 -4.59089 0
M  V30 2450 H 239.433 -0.18989 -2.99098 0
M  V30 2451 H 236.994 -0.247386 -1.59999 0
M  V30 2452 H 238.986 2.32038 -3.31573 0
M  V30 2453 H 237.556 2.15266 -2.2667 0
M  V30 2454 H 236.776 0.305582 -3.93014 0
M  V30 2455 H 238.064 0.858781 -5.015 0
M  V30 2456 H 237.462 3.90377 -4.09417 0
M  V30 2457 H 236.019 4.21195 -4.97432 0
M  V30 2458 N 239.452 1.56882 -0.150215 0
M  V30 2459 C 240.863 1.82995 0.370076 0
M  V30 2460 C 241.214 1.06907 1.64515 0
M  V30 2461 O 240.339 0.315369 2.1409 0
M  V30 2462 C 240.934 3.31942 0.678208 0
M  V30 2463 C 239.493 3.58625 1.14301 0
M  V30 2464 C 238.64 2.76792 0.167778 0
M  V30 2465 H 241.591 1.54209 -0.374858 0
M  V30 2466 H 241.612 3.48272 1.53254 0
M  V30 2467 H 241.124 3.87294 -0.249991 0
M  V30 2468 H 239.225 3.08664 2.08704 0
M  V30 2469 H 239.338 4.67073 1.06676 0
M  V30 2470 H 237.702 2.45972 0.661037 0
M  V30 2471 H 238.485 3.34916 -0.754069 0
M  V30 2472 N 240.93 -0.123565 1.57115 0
M  V30 2473 C 242.179 -0.830704 1.83799 0
M  V30 2474 C 242.492 -1.81259 0.735158 0
M  V30 2475 O 243.698 -2.56558 0.888278 0
M  V30 2476 C 242.154 -1.52802 3.25852 0
M  V30 2477 C 241.762 -0.587356 4.44133 0
M  V30 2478 C 243.506 -2.22056 3.61789 0
M  V30 2479 C 241.413 -1.28764 5.77212 0
M  V30 2480 H 240.343 -0.313967 0.685522 0
M  V30 2481 H 242.994 -0.0834359 1.8331 0
M  V30 2482 H 241.376 -2.32175 3.20797 0
M  V30 2483 H 242.55 0.172829 4.60476 0
M  V30 2484 H 240.865 -0.00201892 4.164 0
M  V30 2485 H 243.462 -2.75131 4.58483 0
M  V30 2486 H 243.805 -2.99644 2.88997 0
M  V30 2487 H 244.338 -1.49576 3.68608 0
M  V30 2488 H 241.077 -0.55314 6.53162 0
M  V30 2489 H 240.597 -2.01995 5.64764 0
M  V30 2490 H 242.276 -1.8221 6.20813 0
M  V30 2491 N 242.408 -1.52605 -0.393616 0
M  V30 2492 C 243.34 -1.73303 -1.49995 0
M  V30 2493 C 244.353 -0.613473 -1.50799 0
M  V30 2494 O 245.542 -0.889049 -1.54784 0
M  V30 2495 C 242.642 -1.77245 -2.88855 0
M  V30 2496 C 241.815 -3.06483 -3.12069 0
M  V30 2497 C 240.874 -3.02033 -4.30886 0
M  V30 2498 O 239.9 -3.75907 -4.27414 0
M  V30 2499 N 241.102 -2.20897 -5.36828 0
M  V30 2500 H 243.867 -2.68756 -1.32629 0
M  V30 2501 H 241.428 -1.51036 -0.583083 0
M  V30 2502 H 243.42 -1.7178 -3.66434 0
M  V30 2503 H 241.99 -0.891993 -2.99603 0
M  V30 2504 H 241.21 -3.25474 -2.22396 0
M  V30 2505 H 242.498 -3.91947 -3.2443 0
M  V30 2506 H 241.896 -1.60336 -5.42502 0
M  V30 2507 H 240.453 -2.21275 -6.13091 0
M  V30 2508 N 243.887 0.651787 -1.4349 0
M  V30 2509 C 244.837 1.75783 -1.45205 0
M  V30 2510 C 245.821 1.57679 -0.320328 0
M  V30 2511 O 247.013 1.67767 -0.564211 0
M  V30 2512 C 244.142 3.14377 -1.3792 0
M  V30 2513 C 243.228 3.38023 -2.56127 0
M  V30 2514 N 243.619 3.32135 -3.81471 0
M  V30 2515 C 241.917 3.68747 -2.50882 0
M  V30 2516 C 242.618 3.55902 -4.60118 0
M  V30 2517 N 241.594 3.77783 -3.90872 0
M  V30 2518 H 245.396 1.69657 -2.39987 0
M  V30 2519 H 242.91 0.853508 -1.38163 0
M  V30 2520 H 244.907 3.93666 -1.37231 0
M  V30 2521 H 243.567 3.21683 -0.441596 0
M  V30 2522 H 244.578 3.11515 -4.13738 0
M  V30 2523 H 241.255 3.8316 -1.65816 0
M  V30 2524 H 242.645 3.57116 -5.69138 0
M  V30 2525 N 245.365 1.30045 0.890287 0
M  V30 2526 C 246.313 1.15873 2.01683 0
M  V30 2527 C 247.307 0.0719403 1.69247 0
M  V30 2528 O 248.513 0.232414 1.78493 0
M  V30 2529 H 244.888 0.358203 0.661207 0
M  V30 2530 H 246.859 2.11229 2.10772 0
M  V30 2531 C 245.608 0.861842 3.36849 0
M  V30 2532 H 244.931 1.69016 3.62317 0
M  V30 2533 H 246.371 0.802762 4.16331 0
M  V30 2534 C 244.83 -0.435132 3.34078 0
M  V30 2535 O 245.36 -1.4583 3.74295 0
M  V30 2536 N 243.566 -0.444377 2.87182 0
M  V30 2537 H 243.113 0.388723 2.5465 0
M  V30 2538 H 243.071 -1.31213 2.85711 0
M  V30 2539 N 246.843 -1.10192 1.12674 0
M  V30 2540 C 247.773 -2.18652 0.819362 0
M  V30 2541 C 248.754 -1.68698 -0.217915 0
M  V30 2542 O 249.939 -1.94041 -0.0785581 0
M  V30 2543 C 247.069 -3.46202 0.27594 0
M  V30 2544 C 246.023 -4.09444 1.24656 0
M  V30 2545 C 245.349 -5.31725 0.563258 0
M  V30 2546 C 246.649 -4.52863 2.60217 0
M  V30 2547 H 248.343 -2.44622 1.72628 0
M  V30 2548 H 245.889 -1.17571 0.831451 0
M  V30 2549 H 247.842 -4.21372 0.0486149 0
M  V30 2550 H 246.566 -3.1973 -0.666331 0
M  V30 2551 H 245.225 -3.36284 1.45974 0
M  V30 2552 H 244.873 -5.0153 -0.384235 0
M  V30 2553 H 244.573 -5.74991 1.21075 0
M  V30 2554 H 246.097 -6.09624 0.34503 0
M  V30 2555 H 247.511 -5.19294 2.42913 0
M  V30 2556 H 245.908 -5.06986 3.21068 0
M  V30 2557 H 246.978 -3.65656 3.18471 0
M  V30 2558 N 248.321 -0.919034 -1.28029 0
M  V30 2559 C 249.569 -0.553838 -1.94363 0
M  V30 2560 C 249.89 0.906357 -1.72656 0
M  V30 2561 O 249.16 1.64143 -1.0693 0
M  V30 2562 H 247.74 -0.201834 -0.719216 0
M  V30 2563 H 250.402 -1.16954 -1.55909 0
M  V30 2564 H 249.498 -0.752758 -3.02886 0
M  V30 2565 N 249.799 1.42003 -0.683588 0
M  V30 2566 C 251.029 2.05448 -0.217866 0
M  V30 2567 C 251.437 1.51491 1.13346 0
M  V30 2568 O 250.78 0.653048 1.717 0
M  V30 2569 C 250.842 3.59399 -0.0850118 0
M  V30 2570 C 250.506 4.36093 -1.36645 0
M  V30 2571 C 251.503 4.66169 -2.30179 0
M  V30 2572 C 249.188 4.75578 -1.61649 0
M  V30 2573 C 251.182 5.34676 -3.46988 0
M  V30 2574 C 248.869 5.43824 -2.78745 0
M  V30 2575 C 249.867 5.73299 -3.71238 0
M  V30 2576 O 249.555 6.40142 -4.86285 0
M  V30 2577 H 249.287 0.668344 -0.101454 0
M  V30 2578 H 251.841 1.82974 -0.933248 0
M  V30 2579 H 250.071 3.80566 0.686031 0
M  V30 2580 H 251.76 4.04457 0.341973 0
M  V30 2581 H 252.526 4.36156 -2.12115 0
M  V30 2582 H 248.405 4.52025 -0.905243 0
M  V30 2583 H 251.949 5.57599 -4.19201 0
M  V30 2584 H 247.846 5.73254 -2.96732 0
M  V30 2585 H 248.614 6.58636 -4.85944 0
M  V30 2586 N 251.277 0.427512 1.51691 0
M  V30 2587 C 252.24 -0.377132 2.26076 0
M  V30 2588 C 253.24 -0.958089 1.29141 0
M  V30 2589 O 254.43 -0.83408 1.52934 0
M  V30 2590 C 251.562 -1.53262 3.04506 0
M  V30 2591 H 252.755 0.27464 2.9864 0
M  V30 2592 H 250.308 0.180445 1.55255 0
M  V30 2593 H 251.043 -2.22072 2.36335 0
M  V30 2594 H 250.828 -1.12232 3.75694 0
M  V30 2595 H 252.318 -2.10135 3.60878 0
M  V30 2596 N 252.755 -1.56801 0.158532 0
M  V30 2597 C 254.032 -1.88131 -0.535357 0
M  V30 2598 C 254.412 -1.06638 -1.82186 0
M  V30 2599 O 253.76 -0.156533 -2.27963 0
M  V30 2600 C 253.97 -3.39949 -0.789653 0
M  V30 2601 C 255.318 -4.09416 -1.12533 0
M  V30 2602 O 256.342 -3.45194 -0.878622 0
M  V30 2603 O 255.201 -5.22855 -1.59014 0
M  V30 2604 H 252.295 -0.780143 -0.27442 0
M  V30 2605 H 254.841 -1.68564 0.19601 0
M  V30 2606 H 253.613 -3.91115 0.120353 0
M  V30 2607 H 253.236 -3.65084 -1.57479 0
M  V30 2608 N 254.233 0.115231 -1.57178 0
M  V30 2609 C 255.163 1.1423 -2.03651 0
M  V30 2610 C 256.144 1.42967 -0.921655 0
M  V30 2611 O 257.329 1.53343 -1.19162 0
M  V30 2612 C 254.459 2.4675 -2.44401 0
M  V30 2613 C 253.413 2.32467 -3.59365 0
M  V30 2614 C 252.739 3.69984 -3.86026 0
M  V30 2615 C 254.039 1.78203 -4.90959 0
M  V30 2616 H 255.733 0.755749 -2.89705 0
M  V30 2617 H 253.279 0.362093 -1.39373 0
M  V30 2618 H 255.232 3.18854 -2.75517 0
M  V30 2619 H 253.956 2.87302 -1.55322 0
M  V30 2620 H 252.615 1.62811 -3.28463 0
M  V30 2621 H 252.263 4.08028 -2.94147 0
M  V30 2622 H 251.963 3.61279 -4.63412 0
M  V30 2623 H 253.487 4.43587 -4.19599 0
M  V30 2624 H 254.901 2.40128 -5.20587 0
M  V30 2625 H 253.298 1.8031 -5.72371 0
M  V30 2626 H 254.368 0.739876 -4.79222 0
M  V30 2627 N 255.711 1.52812 0.385517 0
M  V30 2628 C 256.621 1.80766 1.49535 0
M  V30 2629 C 257.637 0.694651 1.59532 0
M  V30 2630 O 258.813 0.982611 1.75803 0
M  V30 2631 C 255.878 1.97381 2.85029 0
M  V30 2632 C 254.939 3.21295 2.84724 0
M  V30 2633 C 254.172 3.37108 4.13756 0
M  V30 2634 O 254.395 2.5765 5.08893 0
M  V30 2635 O 253.329 4.30378 4.20783 0
M  V30 2636 H 257.155 2.75015 1.28842 0
M  V30 2637 H 254.74 1.37946 0.573697 0
M  V30 2638 H 256.622 2.09996 3.65349 0
M  V30 2639 H 255.297 1.06322 3.05741 0
M  V30 2640 H 254.204 3.1412 2.03174 0
M  V30 2641 H 255.537 4.12212 2.68965 0
M  V30 2642 N 257.189 -0.644168 1.43834 0
M  V30 2643 C 258.121 -1.76955 1.45669 0
M  V30 2644 C 259.134 -1.58956 0.351666 0
M  V30 2645 O 260.323 -1.6751 0.616644 0
M  V30 2646 C 257.423 -3.14507 1.26248 0
M  V30 2647 C 256.596 -3.59083 2.49757 0
M  V30 2648 C 255.655 -4.75467 2.25427 0
M  V30 2649 O 254.681 -4.84444 2.98836 0
M  V30 2650 N 255.883 -5.66289 1.27661 0
M  V30 2651 H 258.648 -1.75856 2.42682 0
M  V30 2652 H 256.209 -0.828312 1.39106 0
M  V30 2653 H 258.201 -3.90067 1.0784 0
M  V30 2654 H 256.771 -3.10325 0.376478 0
M  V30 2655 H 255.991 -2.7387 2.8353 0
M  V30 2656 H 257.279 -3.85613 3.31934 0
M  V30 2657 H 256.677 -5.61718 0.670064 0
M  V30 2658 H 255.234 -6.41533 1.15234 0
M  V30 2659 N 258.668 -1.30515 -0.883378 0
M  V30 2660 C 259.616 -1.16941 -2.01066 0
M  V30 2661 C 260.61 -0.0809148 -1.69207 0
M  V30 2662 O 261.816 -0.241877 -1.78367 0
M  V30 2663 H 258.191 -0.361705 -0.659298 0
M  V30 2664 H 260.162 -2.12344 -2.09649 0
M  V30 2665 C 258.911 -0.879694 -3.36388 0
M  V30 2666 H 258.234 -1.70936 -3.61415 0
M  V30 2667 H 259.674 -0.82483 -4.159 0
M  V30 2668 C 258.133 0.417409 -3.34304 0
M  V30 2669 O 258.663 1.43843 -3.75063 0
M  V30 2670 N 256.869 0.429141 -2.87414 0
M  V30 2671 H 256.416 -0.402222 -2.5444 0
M  V30 2672 H 256.374 1.29696 -2.86403 0
M  V30 2673 N 260.146 1.09593 -1.13257 0
M  V30 2674 C 261.394 1.81375 -0.891492 0
M  V30 2675 C 261.715 1.86049 0.584009 0
M  V30 2676 O 260.985 1.34481 1.42449 0
M  V30 2677 H 259.565 0.671708 -0.326828 0
M  V30 2678 H 262.227 1.3256 -1.42877 0
M  V30 2679 H 261.323 2.84612 -1.28071 0
M  V30 2680 N 261.624 0.925811 1.2754 0
M  V30 2681 C 262.87 0.566092 1.94739 0
M  V30 2682 C 263.203 -0.890057 1.72603 0
M  V30 2683 O 262.478 -1.63467 1.05399 0
M  V30 2684 C 262.761 0.89054 3.48915 0
M  V30 2685 C 262.614 2.4003 3.80402 0
M  V30 2686 C 263.933 0.395101 4.38323 0
M  V30 2687 H 261.052 0.20714 0.707292 0
M  V30 2688 H 263.694 1.15725 1.50691 0
M  V30 2689 H 261.844 0.387452 3.86563 0
M  V30 2690 H 263.516 2.97494 3.52555 0
M  V30 2691 H 261.759 2.85028 3.2702 0
M  V30 2692 H 262.43 2.57785 4.8811 0
M  V30 2693 H 264.906 0.826241 4.07814 0
M  V30 2694 H 263.782 0.651086 5.45025 0
M  V30 2695 H 264.043 -0.704798 4.36446 0
M  V30 2696 N 263.102 -1.41638 0.69111 0
M  V30 2697 C 264.348 -2.01598 0.220519 0
M  V30 2698 C 264.681 -1.54594 -1.17535 0
M  V30 2699 O 263.956 -0.755177 -1.79241 0
M  V30 2700 C 264.239 -3.59062 0.273243 0
M  V30 2701 C 264.092 -4.16203 1.70573 0
M  V30 2702 C 265.411 -4.38546 -0.369457 0
M  V30 2703 H 262.53 -0.732468 0.0816045 0
M  V30 2704 H 265.172 -1.68445 0.878986 0
M  V30 2705 H 263.322 -3.87435 -0.287411 0
M  V30 2706 H 264.994 -3.98722 2.31989 0
M  V30 2707 H 263.237 -3.71414 2.2413 0
M  V30 2708 H 263.908 -5.25358 1.69419 0
M  V30 2709 H 266.384 -4.1596 0.107977 0
M  V30 2710 H 265.26 -5.48069 -0.302002 0
M  V30 2711 H 265.521 -4.17662 -1.44951 0
M  V30 2712 N 264.58 -0.43555 -1.51462 0
M  V30 2713 C 265.805 0.132627 -2.06976 0
M  V30 2714 C 266.23 1.35848 -1.30104 0
M  V30 2715 O 265.588 1.78112 -0.338493 0
M  V30 2716 C 265.636 0.43523 -3.57964 0
M  V30 2717 O 264.74 1.52198 -3.83288 0
M  V30 2718 H 264.081 0.00265 -0.663995 0
M  V30 2719 H 266.611 -0.616369 -1.95095 0
M  V30 2720 H 266.621 0.686206 -4.02188 0
M  V30 2721 H 265.296 -0.460739 -4.1334 0
M  V30 2722 H 263.873 1.2611 -3.50928 0
M  V30 2723 N 266.058 1.56714 -0.166846 0
M  V30 2724 C 267.307 1.95922 0.479318 0
M  V30 2725 C 267.62 1.05529 1.6469 0
M  V30 2726 O 268.826 1.34399 2.35901 0
M  V30 2727 C 267.282 3.48359 0.90412 0
M  V30 2728 C 266.89 4.47369 -0.237621 0
M  V30 2729 C 268.634 3.96394 1.51896 0
M  V30 2730 C 266.541 5.91039 0.206561 0
M  V30 2731 H 265.471 0.731495 0.18284 0
M  V30 2732 H 268.122 1.81728 -0.254363 0
M  V30 2733 H 266.504 3.57955 1.69365 0
M  V30 2734 H 267.678 4.49485 -1.01489 0
M  V30 2735 H 265.993 4.09366 -0.762128 0
M  V30 2736 H 268.59 5.01186 1.86325 0
M  V30 2737 H 268.933 3.39075 2.41524 0
M  V30 2738 H 269.466 3.89796 0.79395 0
M  V30 2739 H 266.205 6.52221 -0.654834 0
M  V30 2740 H 265.725 5.9224 0.949282 0
M  V30 2741 H 267.404 6.43707 0.651939 0
M  V30 2742 N 267.536 -0.106894 1.57237 0
M  V30 2743 C 268.466 -1.13148 2.04254 0
M  V30 2744 C 269.447 -1.42476 0.929224 0
M  V30 2745 O 270.632 -1.52709 1.19973 0
M  V30 2746 C 267.762 -2.4545 2.45706 0
M  V30 2747 C 266.716 -2.30558 3.60592 0
M  V30 2748 C 266.042 -3.67931 3.87983 0
M  V30 2749 C 267.342 -1.75597 4.91897 0
M  V30 2750 H 269.036 -0.740374 2.90101 0
M  V30 2751 H 266.582 -0.354696 1.39563 0
M  V30 2752 H 268.535 -3.17389 2.77205 0
M  V30 2753 H 267.259 -2.86475 1.56843 0
M  V30 2754 H 265.918 -1.61067 3.29322 0
M  V30 2755 H 265.566 -4.06462 2.96306 0
M  V30 2756 H 265.266 -3.58817 4.65322 0
M  V30 2757 H 266.79 -4.41356 4.21945 0
M  V30 2758 H 268.204 -2.37364 5.21854 0
M  V30 2759 H 266.601 -1.77272 5.73319 0
M  V30 2760 H 267.671 -0.714451 4.79608 0
M  V30 2761 N 269.014 -1.53014 -0.377408 0
M  V30 2762 C 269.944 -1.81589 -1.46791 0
M  V30 2763 C 270.925 -0.668622 -1.56408 0
M  V30 2764 O 272.11 -0.917337 -1.71168 0
M  V30 2765 C 269.24 -1.99519 -2.8427 0
M  V30 2766 C 268.194 -3.15249 -2.89486 0
M  V30 2767 C 267.52 -3.18451 -4.29527 0
M  V30 2768 C 268.82 -4.54084 -2.58079 0
M  V30 2769 H 270.514 -2.7291 -1.23127 0
M  V30 2770 H 268.06 -1.31319 -0.590883 0
M  V30 2771 H 270.013 -2.18092 -3.60575 0
M  V30 2772 H 268.737 -1.04897 -3.09296 0
M  V30 2773 H 267.396 -2.96477 -2.15631 0
M  V30 2774 H 267.044 -2.2149 -4.5161 0
M  V30 2775 H 266.744 -3.962 -4.33934 0
M  V30 2776 H 268.268 -3.39193 -5.07721 0
M  V30 2777 H 269.682 -4.72899 -3.24098 0
M  V30 2778 H 268.079 -5.33987 -2.7382 0
M  V30 2779 H 269.149 -4.60006 -1.53372 0
M  V30 2780 N 270.492 0.636531 -1.44174 0
M  V30 2781 C 271.72 1.42353 -1.50144 0
M  V30 2782 C 272.135 1.88389 -0.124575 0
M  V30 2783 O 271.492 1.6051 0.868489 0
M  V30 2784 C 271.543 2.64744 -2.46156 0
M  V30 2785 O 271.264 2.20629 -3.7849 0
M  V30 2786 C 272.765 3.57929 -2.61537 0
M  V30 2787 H 269.985 0.436752 -0.5094 0
M  V30 2788 H 272.529 0.778933 -1.89084 0
M  V30 2789 H 270.684 3.25307 -2.10366 0
M  V30 2790 H 271.098 2.99938 -4.30276 0
M  V30 2791 H 272.572 4.40428 -3.32757 0
M  V30 2792 H 273.049 4.06382 -1.66585 0
M  V30 2793 H 273.655 3.03238 -2.98206 0
M  V30 2794 N 271.97 1.30982 0.876444 0
M  V30 2795 C 273.218 1.20058 1.62575 0
M  V30 2796 C 273.539 -0.242947 1.93481 0
M  V30 2797 O 272.809 -1.1619 1.57724 0
M  V30 2798 H 271.389 0.44135 0.602677 0
M  V30 2799 H 274.051 1.64222 1.04962 0
M  V30 2800 H 273.147 1.76762 2.57219 0
M  V30 2801 N 273.449 -1.08991 1.13837 0
M  V30 2802 C 274.674 -1.85551 0.926585 0
M  V30 2803 C 275.099 -1.80782 -0.519566 0
M  V30 2804 O 274.457 -1.18855 -1.36906 0
M  V30 2805 C 274.505 -3.31266 1.42462 0
M  V30 2806 O 273.609 -4.07822 0.612789 0
M  V30 2807 H 272.95 -0.575192 0.331738 0
M  V30 2808 H 275.48 -1.37604 1.51414 0
M  V30 2809 H 275.49 -3.82112 1.43019 0
M  V30 2810 H 274.165 -3.34052 2.47754 0
M  V30 2811 H 272.742 -3.66731 0.675463 0
M  V30 2812 N 274.927 -0.932562 -1.27047 0
M  V30 2813 C 276.175 -0.574422 -1.93765 0
M  V30 2814 C 276.496 0.887993 -1.73608 0
M  V30 2815 O 275.766 1.62999 -1.08665 0
M  V30 2816 H 274.346 -0.209451 -0.717035 0
M  V30 2817 H 277.008 -1.18601 -1.5466 0
M  V30 2818 H 276.104 -0.784841 -3.02071 0
M  V30 2819 N 276.405 1.4127 -0.698611 0
M  V30 2820 C 277.653 2.00782 -0.230409 0
M  V30 2821 C 277.974 1.5562 1.17505 0
M  V30 2822 O 277.244 0.78815 1.79346 0
M  V30 2823 H 275.824 0.742464 -0.0821944 0
M  V30 2824 H 278.486 1.72852 -0.90045 0
M  V30 2825 H 277.582 3.11095 -0.25021 0
M  V30 2826 N 277.883 0.443576 1.51229 0
M  V30 2827 C 279.294 -0.0180867 1.86691 0
M  V30 2828 C 279.645 -1.41384 1.36033 0
M  V30 2829 O 278.77 -2.04291 0.713722 0
M  V30 2830 C 279.365 -0.039597 3.38777 0
M  V30 2831 C 277.924 -0.445692 3.73752 0
M  V30 2832 C 277.071 0.357584 2.74985 0
M  V30 2833 H 280.022 0.659138 1.44364 0
M  V30 2834 H 280.043 -0.847761 3.70936 0
M  V30 2835 H 279.555 0.976382 3.75617 0
M  V30 2836 H 277.656 -1.46704 3.42503 0
M  V30 2837 H 277.769 -0.166155 4.78812 0
M  V30 2838 H 276.133 -0.184973 2.54027 0
M  V30 2839 H 276.916 1.37256 3.14668 0
M  V30 2840 N 279.361 -1.56624 0.175154 0
M  V30 2841 C 280.608 -1.96999 -0.468811 0
M  V30 2842 C 280.936 -1.06129 -1.62994 0
M  V30 2843 O 280.191 -0.0961771 -1.95464 0
M  V30 2844 C 280.49 -3.43419 -0.989864 0
M  V30 2845 C 280.156 -4.50866 0.0557687 0
M  V30 2846 C 278.818 -4.79975 0.343134 0
M  V30 2847 C 281.17 -5.15551 0.765308 0
M  V30 2848 C 278.498 -5.71066 1.34536 0
M  V30 2849 C 280.85 -6.07724 1.75654 0
M  V30 2850 C 279.514 -6.35199 2.05132 0
M  V30 2851 H 278.784 -0.720869 -0.17155 0
M  V30 2852 H 281.431 -1.89616 0.267924 0
M  V30 2853 H 279.736 -3.47772 -1.80449 0
M  V30 2854 H 281.433 -3.72002 -1.49719 0
M  V30 2855 H 278.023 -4.28229 -0.178381 0
M  V30 2856 H 282.207 -4.9317 0.556513 0
M  V30 2857 H 277.463 -5.90635 1.57988 0
M  V30 2858 H 281.637 -6.56912 2.31169 0
M  V30 2859 H 279.264 -7.05584 2.8294 0
M  V30 2860 N 280.839 0.0985539 -1.57292 0
M  V30 2861 C 282.255 0.45267 -1.53046 0
M  V30 2862 C 282.455 1.80713 -0.891342 0
M  V30 2863 O 281.511 2.4785 -0.482375 0
M  V30 2864 C 282.824 0.418341 -2.97776 0
M  V30 2865 C 284.372 0.500443 -3.08973 0
M  V30 2866 C 284.847 0.496297 -4.55303 0
M  V30 2867 N 286.338 0.557151 -4.59837 0
M  V30 2868 C 287.073 0.575726 -5.70502 0
M  V30 2869 N 286.569 0.550714 -6.90608 0
M  V30 2870 N 288.362 0.620277 -5.58667 0
M  V30 2871 H 280.513 -0.788673 -1.97215 0
M  V30 2872 H 282.776 -0.293188 -0.901524 0
M  V30 2873 H 282.482 -0.509659 -3.47988 0
M  V30 2874 H 282.356 1.2386 -3.56284 0
M  V30 2875 H 284.743 1.41886 -2.58751 0
M  V30 2876 H 284.824 -0.347894 -2.53423 0
M  V30 2877 H 284.468 -0.418162 -5.06176 0
M  V30 2878 H 284.398 1.3618 -5.08687 0
M  V30 2879 H 286.889 0.581816 -3.73394 0
M  V30 2880 H 287.202 0.568075 -7.70709 0
M  V30 2881 H 285.547 0.517816 -6.93068 0
M  V30 2882 H 288.738 0.637322 -4.63741 0
M  V30 2883 H 288.911 0.631283 -6.44918 0
M  V30 2884 N 282.317 1.53212 0.369288 0
M  V30 2885 C 283.227 1.82342 1.47609 0
M  V30 2886 C 284.243 0.711532 1.58787 0
M  V30 2887 O 285.419 1.0012 1.74751 0
M  V30 2888 C 282.484 2.00393 2.8292 0
M  V30 2889 C 281.545 3.24297 2.81301 0
M  V30 2890 C 280.778 3.41478 4.10157 0
M  V30 2891 O 281.001 2.63033 5.06132 0
M  V30 2892 O 279.935 4.34817 4.16194 0
M  V30 2893 H 283.761 2.76366 1.25918 0
M  V30 2894 H 281.346 1.38547 0.559034 0
M  V30 2895 H 283.228 2.13859 3.63101 0
M  V30 2896 H 281.903 1.09559 3.04596 0
M  V30 2897 H 280.81 3.16257 1.99831 0
M  V30 2898 H 282.143 4.15041 2.64578 0
M  V30 2899 N 283.795 -0.628877 1.44509 0
M  V30 2900 C 285.023 -1.41554 1.50897 0
M  V30 2901 C 285.438 -1.8832 0.134564 0
M  V30 2902 O 284.795 -1.60969 -0.859965 0
M  V30 2903 C 284.846 -2.63435 2.47556 0
M  V30 2904 O 284.567 -2.18619 3.79654 0
M  V30 2905 C 286.068 -3.56537 2.63431 0
M  V30 2906 H 283.288 -0.434044 0.511709 0
M  V30 2907 H 285.832 -0.768895 1.89495 0
M  V30 2908 H 283.987 -3.24187 2.12089 0
M  V30 2909 H 284.401 -2.97652 4.31861 0
M  V30 2910 H 285.875 -4.38657 3.35088 0
M  V30 2911 H 286.352 -4.05493 1.68738 0
M  V30 2912 H 286.958 -3.01653 2.9981 0
M  V30 2913 N 285.273 -1.31445 -0.869486 0
M  V30 2914 C 286.684 -1.19042 -1.43826 0
M  V30 2915 C 287.035 0.202919 -1.95148 0
M  V30 2916 O 286.16 1.10071 -1.86315 0
M  V30 2917 C 286.755 -2.15499 -2.6143 0
M  V30 2918 C 285.314 -2.07028 -3.14351 0
M  V30 2919 C 284.461 -2.04701 -1.87063 0
M  V30 2920 H 287.412 -1.43489 -0.677984 0
M  V30 2921 H 287.433 -1.74488 -3.38134 0
M  V30 2922 H 286.945 -3.16899 -2.24046 0
M  V30 2923 H 285.046 -1.08825 -3.56354 0
M  V30 2924 H 285.159 -2.96157 -3.766 0
M  V30 2925 H 283.523 -1.49724 -2.06046 0
M  V30 2926 H 284.306 -3.07857 -1.51917 0
M  V30 2927 N 286.751 1.08385 -1.14413 0
M  V30 2928 C 287.681 2.17321 -0.854044 0
M  V30 2929 C 288.662 1.69024 0.191049 0
M  V30 2930 O 289.847 1.94141 0.0476779 0
M  V30 2931 C 286.977 3.45719 -0.330983 0
M  V30 2932 C 285.931 4.07409 -1.31155 0
M  V30 2933 C 285.257 5.30762 -0.64778 0
M  V30 2934 C 286.557 4.48665 -2.67388 0
M  V30 2935 H 288.251 2.41845 -1.76498 0
M  V30 2936 H 285.797 1.16233 -0.850051 0
M  V30 2937 H 287.75 4.21241 -0.115645 0
M  V30 2938 H 286.474 3.2075 0.615381 0
M  V30 2939 H 285.133 3.33919 -1.51306 0
M  V30 2940 H 284.781 5.02078 0.304398 0
M  V30 2941 H 284.481 5.72992 -1.30207 0
M  V30 2942 H 286.005 6.08998 -0.441972 0
M  V30 2943 H 287.419 5.15364 -2.51143 0
M  V30 2944 H 285.816 5.01814 -3.29093 0
M  V30 2945 H 286.886 3.60543 -3.24248 0
M  V30 2946 N 288.23 0.939286 1.26551 0
M  V30 2947 C 289.646 0.641304 1.46149 0
M  V30 2948 C 289.846 -0.805964 1.84679 0
M  V30 2949 O 288.902 -1.58278 1.96734 0
M  V30 2950 C 290.215 1.6011 2.54529 0
M  V30 2951 C 291.763 1.6106 2.68382 0
M  V30 2952 C 292.238 2.55765 3.79932 0
M  V30 2953 N 293.729 2.5404 3.87322 0
M  V30 2954 C 294.464 3.24004 4.73085 0
M  V30 2955 N 293.96 4.03388 5.63249 0
M  V30 2956 N 295.753 3.12965 4.66914 0
M  V30 2957 H 287.904 1.87478 0.998285 0
M  V30 2958 H 290.167 0.805559 0.499779 0
M  V30 2959 H 289.873 2.63412 2.33039 0
M  V30 2960 H 289.747 1.35171 3.52149 0
M  V30 2961 H 292.134 0.584835 2.89247 0
M  V30 2962 H 292.215 1.90053 1.71212 0
M  V30 2963 H 291.859 3.58458 3.5982 0
M  V30 2964 H 291.789 2.24063 4.76554 0
M  V30 2965 H 294.28 1.96396 3.22858 0
M  V30 2966 H 294.593 4.5373 6.25579 0
M  V30 2967 H 292.938 4.07489 5.63008 0
M  V30 2968 H 296.129 2.50432 3.95476 0
M  V30 2969 H 296.302 3.67759 5.33533 0
M  V30 2970 N 289.708 -1.40897 0.706093 0
M  V30 2971 C 290.985 -1.94868 0.169099 0
M  V30 2972 C 291.365 -1.64485 -1.32318 0
M  V30 2973 O 290.713 -0.95744 -2.07474 0
M  V30 2974 C 290.923 -3.45798 0.471654 0
M  V30 2975 C 292.271 -4.22663 0.405127 0
M  V30 2976 O 293.295 -3.53865 0.407168 0
M  V30 2977 O 292.154 -5.45216 0.374383 0
M  V30 2978 H 289.248 -0.82673 0.0211352 0
M  V30 2979 H 291.794 -1.50558 0.782976 0
M  V30 2980 H 290.566 -3.61235 1.50416 0
M  V30 2981 H 290.189 -3.97225 -0.172666 0
M  V30 2982 N 291.186 -0.45159 -1.50991 0
M  V30 2983 C 292.116 0.342898 -2.30969 0
M  V30 2984 C 293.097 1.00815 -1.37005 0
M  V30 2985 O 294.282 1.00907 -1.65926 0
M  V30 2986 C 291.412 1.43637 -3.16205 0
M  V30 2987 C 290.366 0.893818 -4.18563 0
M  V30 2988 C 289.692 2.08411 -4.92411 0
M  V30 2989 C 290.992 -0.0815568 -5.22236 0
M  V30 2990 H 292.686 -0.324556 -2.97636 0
M  V30 2991 H 290.232 -0.157531 -1.43136 0
M  V30 2992 H 292.185 1.9995 -3.70942 0
M  V30 2993 H 290.909 2.13232 -2.47386 0
M  V30 2994 H 289.568 0.352798 -3.64898 0
M  V30 2995 H 289.216 2.76658 -4.20082 0
M  V30 2996 H 288.916 1.72741 -5.61636 0
M  V30 2997 H 290.44 2.65251 -5.49976 0
M  V30 2998 H 291.854 0.391742 -5.7196 0
M  V30 2999 H 290.251 -0.351551 -5.99069 0
M  V30 3000 H 291.321 -1.01374 -4.74185 0
M  V30 3001 N 292.664 1.56529 -0.183458 0
M  V30 3002 C 293.627 2.17324 0.728223 0
M  V30 3003 C 294.627 1.12453 1.14939 0
M  V30 3004 O 295.817 1.37902 1.06437 0
M  V30 3005 C 292.949 2.76591 1.99274 0
M  V30 3006 H 294.142 2.99241 0.198772 0
M  V30 3007 H 291.695 1.5616 0.0661391 0
M  V30 3008 H 292.43 1.98441 2.56499 0
M  V30 3009 H 292.215 3.5335 1.69959 0
M  V30 3010 H 293.705 3.23311 2.6431 0
M  V30 3011 N 294.142 -0.090211 1.57342 0
M  V30 3012 C 295.37 -0.806224 1.90546 0
M  V30 3013 C 295.785 -1.72041 0.777644 0
M  V30 3014 O 295.142 -1.80778 -0.250103 0
M  V30 3015 C 295.193 -1.61546 3.23396 0
M  V30 3016 O 294.914 -0.738043 4.31839 0
M  V30 3017 C 296.415 -2.4341 3.70495 0
M  V30 3018 H 293.635 -0.230256 0.630257 0
M  V30 3019 H 296.179 -0.0659843 2.04394 0
M  V30 3020 H 294.334 -2.30816 3.11131 0
M  V30 3021 H 294.748 -1.29901 5.08159 0
M  V30 3022 H 296.222 -2.95676 4.66133 0
M  V30 3023 H 296.699 -3.22098 2.98579 0
M  V30 3024 H 297.305 -1.79331 3.85643 0
M  V30 3025 N 295.62 -1.53406 -0.361157 0
M  V30 3026 C 296.553 -1.74946 -1.46524 0
M  V30 3027 C 297.531 -0.59795 -1.51206 0
M  V30 3028 O 298.715 -0.831062 -1.69191 0
M  V30 3029 C 295.842 -1.83224 -2.84863 0
M  V30 3030 C 294.888 -3.05233 -2.97885 0
M  V30 3031 S 295.721 -4.6466 -2.66179 0
M  V30 3032 C 296.877 -4.75793 -4.06659 0
M  V30 3033 H 297.11 -2.68319 -1.28033 0
M  V30 3034 H 294.643 -1.44051 -0.555764 0
M  V30 3035 H 296.601 -1.88679 -3.64569 0
M  V30 3036 H 295.262 -0.908948 -3.00661 0
M  V30 3037 H 294.455 -3.07648 -3.9921 0
M  V30 3038 H 294.057 -2.97913 -2.26106 0
M  V30 3039 H 296.349 -4.5612 -5.0096 0
M  V30 3040 H 297.292 -5.7786 -4.09247 0
M  V30 3041 H 297.7 -4.04389 -3.93865 0
M  V30 3042 N 297.098 0.621204 -1.44841 0
M  V30 3043 C 298.326 1.40752 -1.51646 0
M  V30 3044 C 298.741 1.88246 -0.144549 0
M  V30 3045 O 298.098 1.61422 0.851416 0
M  V30 3046 C 298.149 2.62119 -2.4895 0
M  V30 3047 O 297.87 2.16602 -3.80808 0
M  V30 3048 C 299.371 3.55135 -2.65319 0
M  V30 3049 H 296.591 0.431325 -0.514004 0
M  V30 3050 H 299.135 0.758835 -1.899 0
M  V30 3051 H 297.29 3.23058 -2.13805 0
M  V30 3052 H 297.704 2.95358 -4.33433 0
M  V30 3053 H 299.178 4.36874 -3.37409 0
M  V30 3054 H 299.655 4.04592 -1.70886 0
M  V30 3055 H 300.261 3.00058 -3.01405 0
M  V30 3056 N 298.576 1.31904 0.862503 0
M  V30 3057 C 299.987 1.19803 1.43193 0
M  V30 3058 C 300.338 -0.192567 1.95253 0
M  V30 3059 O 299.463 -1.09081 1.86896 0
M  V30 3060 C 300.058 2.16883 2.60283 0
M  V30 3061 C 298.617 2.08692 3.13248 0
M  V30 3062 C 297.764 2.05691 1.85975 0
M  V30 3063 H 300.715 1.43846 0.670365 0
M  V30 3064 H 300.736 1.76278 3.37204 0
M  V30 3065 H 300.248 3.18083 2.22363 0
M  V30 3066 H 298.349 1.10713 3.55771 0
M  V30 3067 H 298.462 2.9815 3.75025 0
M  V30 3068 H 296.826 1.50814 2.05249 0
M  V30 3069 H 297.609 3.08659 1.50282 0
M  V30 3070 N 300.054 -1.07777 1.14986 0
M  V30 3071 C 301.331 -1.7699 0.832695 0
M  V30 3072 C 301.711 -2.001 -0.672561 0
M  V30 3073 O 301.059 -1.61598 -1.6155 0
M  V30 3074 C 301.269 -3.08139 1.63863 0
M  V30 3075 C 302.617 -3.8256 1.84208 0
M  V30 3076 O 303.641 -3.17939 1.60603 0
M  V30 3077 O 302.5 -4.98612 2.23714 0
M  V30 3078 H 299.594 -0.768389 0.305791 0
M  V30 3079 H 302.14 -1.14182 1.25541 0
M  V30 3080 H 300.912 -2.86909 2.6608 0
M  V30 3081 H 300.535 -3.78678 1.21197 0
M  V30 3082 N 301.532 -0.945985 -1.26051 0
M  V30 3083 C 302.464 -0.416662 -2.25381 0
M  V30 3084 C 303.477 0.462712 -1.56086 0
M  V30 3085 O 304.666 0.272383 -1.7641 0
M  V30 3086 C 301.766 0.419812 -3.3629 0
M  V30 3087 C 300.939 -0.444531 -4.35135 0
M  V30 3088 C 299.998 0.332305 -5.2515 0
M  V30 3089 O 299.024 -0.266324 -5.68577 0
M  V30 3090 N 300.226 1.62763 -5.57215 0
M  V30 3091 H 302.991 -1.27059 -2.71433 0
M  V30 3092 H 300.552 -0.815392 -1.39868 0
M  V30 3093 H 302.544 0.947013 -3.93464 0
M  V30 3094 H 301.114 1.17456 -2.89694 0
M  V30 3095 H 300.334 -1.15291 -3.76964 0
M  V30 3096 H 301.622 -1.03478 -4.98166 0
M  V30 3097 H 301.02 2.13603 -5.23823 0
M  V30 3098 H 299.577 2.10097 -6.17011 0
M  V30 3099 N 303.011 1.40521 -0.713556 0
M  V30 3100 C 303.974 2.29098 -0.0684347 0
M  V30 3101 C 304.974 1.45268 0.689472 0
M  V30 3102 O 306.164 1.66205 0.521677 0
M  V30 3103 C 303.296 3.28446 0.913024 0
M  V30 3104 H 304.489 2.87645 -0.84855 0
M  V30 3105 H 302.042 1.48809 -0.47809 0
M  V30 3106 H 302.777 2.74913 1.72027 0
M  V30 3107 H 302.562 3.90327 0.372472 0
M  V30 3108 H 304.052 3.94777 1.36165 0
M  V30 3109 N 304.489 0.459591 1.5075 0
M  V30 3110 C 305.729 -0.09824 2.04164 0
M  V30 3111 C 306.093 -1.3801 1.33481 0
M  V30 3112 O 307.294 -2.01959 1.77387 0
M  V30 3113 C 305.565 -0.289467 3.56226 0
M  V30 3114 S 307.124 -0.807507 4.31306 0
M  V30 3115 H 303.942 -0.0213845 0.710678 0
M  V30 3116 H 306.544 0.624098 1.85271 0
M  V30 3117 H 305.248 0.649461 4.05229 0
M  V30 3118 H 304.779 -1.03825 3.79452 0
M  V30 3119 H 306.794 -2.0824 4.50389 0
M  V30 3120 N 305.967 -1.56429 0.191757 0
M  V30 3121 C 307.383 -1.58754 -0.164137 0
M  V30 3122 C 307.583 -1.20782 -1.61288 0
M  V30 3123 O 306.639 -0.928999 -2.34789 0
M  V30 3124 C 307.952 -3.00396 0.135195 0
M  V30 3125 C 309.5 -3.1291 0.0750351 0
M  V30 3126 C 309.975 -4.56679 0.347632 0
M  V30 3127 N 311.466 -4.62252 0.296131 0
M  V30 3128 C 312.201 -5.71379 0.480948 0
M  V30 3129 N 311.697 -6.88986 0.725933 0
M  V30 3130 N 313.49 -5.60563 0.415435 0
M  V30 3131 H 305.641 -1.79393 1.13718 0
M  V30 3132 H 307.904 -0.832414 0.453643 0
M  V30 3133 H 307.61 -3.32726 1.13958 0
M  V30 3134 H 307.484 -3.72963 -0.563773 0
M  V30 3135 H 309.871 -2.80394 -0.919948 0
M  V30 3136 H 309.952 -2.42736 0.807029 0
M  V30 3137 H 309.596 -4.89907 1.33992 0
M  V30 3138 H 309.526 -5.25039 -0.405212 0
M  V30 3139 H 312.017 -3.7773 0.113259 0
M  V30 3140 H 312.33 -7.68046 0.855857 0
M  V30 3141 H 310.675 -6.90801 0.762788 0
M  V30 3142 H 313.866 -4.67561 0.224486 0
M  V30 3143 H 314.039 -6.45551 0.562889 0
M  V30 3144 N 307.445 0.0818655 -1.57387 0
M  V30 3145 C 308.395 1.10501 -1.99433 0
M  V30 3146 C 309.379 1.35041 -0.874798 0
M  V30 3147 O 310.571 1.35511 -1.13868 0
M  V30 3148 C 307.7 2.42159 -2.43339 0
M  V30 3149 C 306.786 2.20937 -3.62005 0
M  V30 3150 N 307.177 1.69616 -4.76512 0
M  V30 3151 C 305.475 2.51451 -3.68359 0
M  V30 3152 C 306.176 1.62973 -5.58404 0
M  V30 3153 N 305.152 2.08664 -5.01956 0
M  V30 3154 H 308.954 0.701373 -2.85408 0
M  V30 3155 H 306.468 0.289096 -1.59806 0
M  V30 3156 H 308.465 3.16208 -2.71695 0
M  V30 3157 H 307.125 2.83249 -1.58746 0
M  V30 3158 H 308.136 1.38624 -4.99003 0
M  V30 3159 H 304.813 2.95975 -2.94457 0
M  V30 3160 H 306.203 1.24233 -6.60315 0
M  V30 3161 N 308.923 1.53595 0.353017 0
M  V30 3162 C 310.334 1.61937 0.929153 0
M  V30 3163 C 310.685 0.494686 1.89861 0
M  V30 3164 O 309.81 -0.377017 2.1309 0
M  V30 3165 C 310.405 2.93526 1.69199 0
M  V30 3166 C 308.964 3.04161 2.21727 0
M  V30 3167 C 308.111 2.57322 1.03348 0
M  V30 3168 H 311.062 1.58155 0.131431 0
M  V30 3169 H 311.083 2.82034 2.55416 0
M  V30 3170 H 310.595 3.75362 0.986144 0
M  V30 3171 H 308.696 2.26938 2.95516 0
M  V30 3172 H 308.809 4.09465 2.48748 0
M  V30 3173 H 307.173 2.12499 1.40414 0
M  V30 3174 H 307.956 3.41588 0.342428 0
M  V30 3175 N 310.401 -0.613514 1.45168 0
M  V30 3176 C 311.349 -1.74572 1.53712 0
M  V30 3177 C 312.343 -1.64426 0.407505 0
M  V30 3178 O 313.549 -1.70291 0.583176 0
M  V30 3179 H 309.924 -0.576641 0.48269 0
M  V30 3180 H 311.895 -1.64492 2.48968 0
M  V30 3181 C 310.644 -3.12943 1.51532 0
M  V30 3182 H 309.967 -3.21407 2.37776 0
M  V30 3183 H 311.407 -3.9201 1.61569 0
M  V30 3184 C 309.866 -3.36053 0.238798 0
M  V30 3185 O 310.396 -3.95837 -0.6838 0
M  V30 3186 N 308.602 -2.9028 0.136359 0
M  V30 3187 H 308.149 -2.41811 0.887999 0
M  V30 3188 H 308.107 -3.06116 -0.716944 0
M  V30 3189 N 311.879 -1.3236 -0.855495 0
M  V30 3190 C 313.125 -1.24064 -1.61182 0
M  V30 3191 C 313.48 0.195914 -1.914 0
M  V30 3192 O 312.773 1.13345 -1.54478 0
M  V30 3193 C 312.967 -2.03275 -2.93963 0
M  V30 3194 C 312.796 -3.54486 -2.76712 0
M  V30 3195 C 311.566 -4.23824 -2.75139 0
M  V30 3196 C 313.764 -4.49154 -2.50531 0
M  V30 3197 N 311.746 -5.61095 -2.4909 0
M  V30 3198 C 313.117 -5.74195 -2.3388 0
M  V30 3199 C 315.172 -4.3842 -2.35992 0
M  V30 3200 C 313.875 -6.89716 -2.04168 0
M  V30 3201 C 315.901 -5.53739 -2.0767 0
M  V30 3202 C 315.263 -6.77779 -1.9182 0
M  V30 3203 H 311.362 -0.509139 -0.59355 0
M  V30 3204 H 313.946 -1.66715 -1.00569 0
M  V30 3205 H 312.117 -1.6297 -3.52555 0
M  V30 3206 H 313.849 -1.86881 -3.58967 0
M  V30 3207 H 310.604 -3.75934 -2.88047 0
M  V30 3208 H 311.028 -6.33411 -2.38996 0
M  V30 3209 H 315.67 -3.43172 -2.46967 0
M  V30 3210 H 313.388 -7.84977 -1.9193 0
M  V30 3211 H 316.974 -5.4736 -1.97201 0
M  V30 3212 H 315.854 -7.65504 -1.70217 0
M  V30 3213 N 313.357 1.07166 -1.15556 0
M  V30 3214 C 314.582 1.84053 -0.955988 0
M  V30 3215 C 315.007 1.81586 0.490739 0
M  V30 3216 O 314.365 1.21018 1.34997 0
M  V30 3217 C 314.413 3.28957 -1.47714 0
M  V30 3218 O 313.517 4.06795 -0.677593 0
M  V30 3219 H 312.858 0.569842 -0.340847 0
M  V30 3220 H 315.388 1.35178 -1.53584 0
M  V30 3221 H 315.398 3.79788 -1.4908 0
M  V30 3222 H 314.073 3.30068 -2.53037 0
M  V30 3223 H 312.65 3.6561 -0.733721 0
M  V30 3224 N 314.835 0.952656 1.25548 0
M  V30 3225 C 315.768 0.415525 2.24385 0
M  V30 3226 C 316.746 -0.502046 1.54655 0
M  V30 3227 O 317.93 -0.436875 1.83368 0
M  V30 3228 C 315.057 -0.401734 3.36309 0
M  V30 3229 C 314.103 0.455949 4.24056 0
M  V30 3230 S 314.936 1.88698 5.01152 0
M  V30 3231 C 316.092 1.07809 6.16545 0
M  V30 3232 H 316.325 1.25315 2.69599 0
M  V30 3233 H 313.858 0.756587 1.34592 0
M  V30 3234 H 315.816 -0.867329 4.01233 0
M  V30 3235 H 314.477 -1.21416 2.89684 0
M  V30 3236 H 313.67 -0.170776 5.03711 0
M  V30 3237 H 313.272 0.856675 3.64056 0
M  V30 3238 H 315.564 0.325816 6.76716 0
M  V30 3239 H 316.507 1.84849 6.83547 0
M  V30 3240 H 316.915 0.60909 5.61204 0
M  V30 3241 N 316.313 -1.40141 0.720998 0
M  V30 3242 C 317.561 -2.0039 0.262323 0
M  V30 3243 C 317.882 -1.57469 -1.15015 0
M  V30 3244 O 317.152 -0.816582 -1.78069 0
M  V30 3245 H 315.732 -0.741063 0.093996 0
M  V30 3246 H 318.394 -1.71398 0.927835 0
M  V30 3247 H 317.49 -3.10658 0.299671 0
M  V30 3248 N 317.792 -0.46758 -1.50504 0
M  V30 3249 C 319.208 -0.121533 -1.59137 0
M  V30 3250 C 319.408 1.3717 -1.47603 0
M  V30 3251 O 318.464 2.14464 -1.33272 0
M  V30 3252 C 319.777 -0.6686 -2.93173 0
M  V30 3253 C 321.325 -0.631716 -3.06559 0
M  V30 3254 C 321.8 -1.15627 -4.43164 0
M  V30 3255 N 323.291 -1.11553 -4.49567 0
M  V30 3256 C 324.026 -1.49195 -5.5365 0
M  V30 3257 N 323.522 -1.94269 -6.65005 0
M  V30 3258 N 325.315 -1.4082 -5.44175 0
M  V30 3259 H 317.466 -1.4388 -1.56245 0
M  V30 3260 H 319.729 -0.594784 -0.738198 0
M  V30 3261 H 319.435 -1.71453 -3.07078 0
M  V30 3262 H 319.309 -0.11021 -3.77039 0
M  V30 3263 H 321.696 0.405297 -2.92304 0
M  V30 3264 H 321.777 -1.22687 -2.24458 0
M  V30 3265 H 321.421 -2.1919 -4.58168 0
M  V30 3266 H 321.351 -0.537365 -5.23851 0
M  V30 3267 H 323.842 -0.784895 -3.69659 0
M  V30 3268 H 324.155 -2.21148 -7.40482 0
M  V30 3269 H 322.5 -1.98219 -6.66134 0
M  V30 3270 H 325.691 -1.0545 -4.56068 0
M  V30 3271 H 325.864 -1.70481 -6.25172 0
M  V30 3272 N 319.27 1.56325 -0.20005 0
M  V30 3273 C 320.217 2.1932 0.718833 0
M  V30 3274 C 321.187 1.14198 1.20615 0
M  V30 3275 O 322.372 1.42469 1.26914 0
M  V30 3276 C 319.512 2.86041 1.93066 0
M  V30 3277 C 318.625 4.05702 1.48425 0
M  V30 3278 C 317.76 4.60266 2.65196 0
M  V30 3279 C 316.799 5.72273 2.17185 0
M  V30 3280 N 315.936 6.21221 3.27152 0
M  V30 3281 H 320.776 2.97486 0.17489 0
M  V30 3282 H 318.313 1.46911 0.0745794 0
M  V30 3283 H 320.271 3.22897 2.64184 0
M  V30 3284 H 318.901 2.1043 2.44783 0
M  V30 3285 H 317.953 3.74475 0.668755 0
M  V30 3286 H 319.265 4.86699 1.09204 0
M  V30 3287 H 318.419 4.99453 3.4443 0
M  V30 3288 H 317.158 3.78386 3.07693 0
M  V30 3289 H 316.163 5.3261 1.36407 0
M  V30 3290 H 317.388 6.55974 1.75713 0
M  V30 3291 H 315.334 5.42263 3.69171 0
M  V30 3292 H 315.251 6.97284 2.92116 0
M  V30 3293 H 316.519 6.65063 4.06585 0
M  V30 3294 N 320.748 -0.0735177 1.57428 0
M  V30 3295 C 321.997 -0.771809 1.86349 0
M  V30 3296 C 322.31 -1.78828 0.792452 0
M  V30 3297 O 323.516 -2.53602 0.96945 0
M  V30 3298 C 321.972 -1.42358 3.30548 0
M  V30 3299 C 321.58 -0.445761 4.45777 0
M  V30 3300 C 323.324 -2.10434 3.6867 0
M  V30 3301 C 321.231 -1.10335 5.81016 0
M  V30 3302 H 320.161 -0.291999 0.695164 0
M  V30 3303 H 322.812 -0.0250749 1.83483 0
M  V30 3304 H 321.194 -2.21852 3.28021 0
M  V30 3305 H 322.368 0.319239 4.59693 0
M  V30 3306 H 320.683 0.130457 4.16196 0
M  V30 3307 H 323.28 -2.60405 4.67004 0
M  V30 3308 H 323.623 -2.90298 2.98383 0
M  V30 3309 H 324.156 -1.37773 3.7318 0
M  V30 3310 H 320.895 -0.345061 6.54591 0
M  V30 3311 H 320.415 -1.83925 5.70904 0
M  V30 3312 H 322.094 -1.62367 6.26295 0
M  V30 3313 N 322.226 -1.5378 -0.344866 0
M  V30 3314 C 323.451 -1.75211 -1.10977 0
M  V30 3315 C 323.876 -0.48936 -1.81623 0
M  V30 3316 O 323.234 0.557925 -1.72502 0
M  V30 3317 C 323.282 -2.93147 -2.09993 0
M  V30 3318 O 322.386 -2.63203 -3.17487 0
M  V30 3319 H 321.727 -0.581241 -0.321021 0
M  V30 3320 H 324.257 -2.00738 -0.395661 0
M  V30 3321 H 324.267 -3.19898 -2.53237 0
M  V30 3322 H 322.942 -3.84731 -1.5797 0
M  V30 3323 H 321.519 -2.47336 -2.79069 0
M  V30 3324 N 323.704 0.605807 -1.45491 0
M  V30 3325 C 324.95 1.36679 -1.49823 0
M  V30 3326 C 325.283 1.93693 -0.140175 0
M  V30 3327 O 324.558 1.75158 0.845581 0
M  V30 3328 C 324.841 2.51337 -2.57879 0
M  V30 3329 C 324.694 1.99508 -4.03134 0
M  V30 3330 C 326.013 3.53463 -2.62205 0
M  V30 3331 H 323.132 0.495617 -0.545466 0
M  V30 3332 H 325.774 0.682732 -1.7731 0
M  V30 3333 H 323.924 3.09691 -2.34571 0
M  V30 3334 H 325.596 1.45789 -4.37656 0
M  V30 3335 H 323.839 1.30496 -4.13707 0
M  V30 3336 H 324.51 2.82169 -4.74431 0
M  V30 3337 H 326.986 3.04953 -2.83095 0
M  V30 3338 H 325.862 4.31178 -3.39672 0
M  V30 3339 H 326.123 4.09197 -1.67363 0
M  V30 3340 N 325.182 1.32811 0.848464 0
M  V30 3341 C 326.459 1.14334 1.58704 0
M  V30 3342 C 326.839 -0.293948 2.09043 0
M  V30 3343 O 326.187 -1.29153 1.88499 0
M  V30 3344 C 326.397 2.17626 2.72837 0
M  V30 3345 C 327.745 2.51282 3.42261 0
M  V30 3346 O 328.769 2.16219 2.83068 0
M  V30 3347 O 327.628 3.11413 4.49093 0
M  V30 3348 H 324.722 0.441601 0.699226 0
M  V30 3349 H 327.268 1.44362 0.892053 0
M  V30 3350 H 326.04 3.14211 2.3321 0
M  V30 3351 H 325.663 1.88628 3.50008 0
M  V30 3352 N 326.66 -1.06551 1.16123 0
M  V30 3353 C 327.885 -1.83544 0.965735 0
M  V30 3354 C 328.31 -1.81843 -0.481102 0
M  V30 3355 O 327.668 -1.21732 -1.34354 0
M  V30 3356 C 327.716 -3.28169 1.49457 0
M  V30 3357 O 326.82 -4.0643 0.699157 0
M  V30 3358 H 326.161 -0.568026 0.343864 0
M  V30 3359 H 328.691 -1.34362 1.54299 0
M  V30 3360 H 328.701 -3.78992 1.51092 0
M  V30 3361 H 327.376 -3.28722 2.54784 0
M  V30 3362 H 325.953 -3.65216 0.7531 0
M  V30 3363 N 328.138 -0.959301 -1.25041 0
M  V30 3364 C 329.101 -0.487677 -2.23952 0
M  V30 3365 C 330.101 0.41119 -1.55454 0
M  V30 3366 O 331.291 0.207825 -1.72956 0
M  V30 3367 C 328.423 0.294807 -3.39623 0
M  V30 3368 H 329.616 -1.36198 -2.67189 0
M  V30 3369 H 327.169 -0.743042 -1.37508 0
M  V30 3370 H 327.904 1.18658 -3.01813 0
M  V30 3371 H 327.689 -0.35012 -3.90534 0
M  V30 3372 H 329.179 0.614089 -4.1306 0
M  V30 3373 N 329.616 1.39756 -0.72842 0
M  V30 3374 C 330.844 2.04948 -0.283528 0
M  V30 3375 C 331.259 1.54908 1.0793 0
M  V30 3376 O 330.616 0.711135 1.68075 0
M  V30 3377 C 330.667 3.60498 -0.268957 0
M  V30 3378 O 330.388 4.08695 -1.57798 0
M  V30 3379 C 331.889 4.4288 0.192912 0
M  V30 3380 H 329.109 0.659243 -0.125056 0
M  V30 3381 H 331.653 1.78927 -0.990226 0
M  V30 3382 H 329.808 3.85444 0.388801 0
M  V30 3383 H 330.222 5.02977 -1.48709 0
M  V30 3384 H 331.696 5.51791 0.151952 0
M  V30 3385 H 332.173 4.21418 1.23708 0
M  V30 3386 H 332.779 4.23069 -0.435039 0
M  V30 3387 N 331.094 0.475555 1.50254 0
M  V30 3388 C 332.027 -0.362381 2.25304 0
M  V30 3389 C 333.005 -0.992393 1.28803 0
M  V30 3390 O 334.189 -1.02746 1.58036 0
M  V30 3391 C 331.316 -1.50813 3.03271 0
M  V30 3392 C 330.362 -0.995044 4.1473 0
M  V30 3393 S 331.195 0.0938436 5.35418 0
M  V30 3394 C 332.351 -1.05567 6.16933 0
M  V30 3395 H 332.584 0.274686 2.96028 0
M  V30 3396 H 330.117 0.260495 1.52187 0
M  V30 3397 H 332.075 -2.16476 3.48781 0
M  V30 3398 H 330.736 -2.11672 2.32064 0
M  V30 3399 H 329.929 -1.85293 4.68703 0
M  V30 3400 H 329.531 -0.416052 3.71679 0
M  V30 3401 H 331.823 -1.96636 6.48337 0
M  V30 3402 H 332.766 -0.555109 7.05921 0
M  V30 3403 H 333.174 -1.31151 5.49053 0
M  V30 3404 N 332.573 -1.56217 0.208337 0
M  V30 3405 C 333.506 -2.15633 -0.746842 0
M  V30 3406 C 334.484 -1.09685 -1.20034 0
M  V30 3407 O 335.668 -1.3787 -1.28547 0
M  V30 3408 C 332.795 -2.72594 -2.01023 0
M  V30 3409 C 331.841 -3.91251 -1.69779 0
M  V30 3410 S 332.674 -5.28962 -0.834209 0
M  V30 3411 C 333.83 -5.89353 -2.10745 0
M  V30 3412 H 334.063 -2.96315 -0.241789 0
M  V30 3413 H 331.596 -1.54398 -0.00682183 0
M  V30 3414 H 333.554 -3.06053 -2.73572 0
M  V30 3415 H 332.215 -1.91929 -2.48641 0
M  V30 3416 H 331.408 -4.29562 -2.63614 0
M  V30 3417 H 331.01 -3.58869 -1.05303 0
M  V30 3418 H 333.302 -6.04522 -3.05875 0
M  V30 3419 H 334.245 -6.85661 -1.76845 0
M  V30 3420 H 334.653 -5.1807 -2.24196 0
M  V30 3421 N 334.051 0.0651679 -1.57465 0
M  V30 3422 C 334.999 1.09542 -2.05191 0
M  V30 3423 C 335.993 1.39675 -0.958509 0
M  V30 3424 O 337.199 1.39003 -1.14359 0
M  V30 3425 H 333.574 0.370623 -0.654326 0
M  V30 3426 H 335.545 0.666802 -2.90854 0
M  V30 3427 C 334.294 2.39881 -2.51699 0
M  V30 3428 H 333.617 2.17547 -3.3543 0
M  V30 3429 H 335.057 3.104 -2.88839 0
M  V30 3430 C 333.516 3.0631 -1.40271 0
M  V30 3431 O 334.046 3.94664 -0.748523 0
M  V30 3432 N 332.252 2.67041 -1.14618 0
M  V30 3433 H 331.799 1.95281 -1.67997 0
M  V30 3434 H 331.757 3.1181 -0.402688 0
M  V30 3435 N 335.529 1.53961 0.336706 0
M  V30 3436 C 336.476 1.82428 1.41381 0
M  V30 3437 C 337.446 0.670444 1.51968 0
M  V30 3438 O 338.631 0.915565 1.67398 0
M  V30 3439 C 335.771 2.04564 2.77934 0
M  V30 3440 C 334.884 3.32267 2.76084 0
M  V30 3441 C 334.019 3.44434 4.04399 0
M  V30 3442 C 333.058 4.66061 3.96804 0
M  V30 3443 N 332.195 4.75224 5.16823 0
M  V30 3444 H 337.035 2.74324 1.16405 0
M  V30 3445 H 334.572 1.35869 0.563752 0
M  V30 3446 H 336.53 2.15388 3.57301 0
M  V30 3447 H 335.16 1.15974 3.01247 0
M  V30 3448 H 334.212 3.3025 1.88784 0
M  V30 3449 H 335.524 4.21733 2.66351 0
M  V30 3450 H 334.678 3.54728 4.92192 0
M  V30 3451 H 333.417 2.53037 4.16921 0
M  V30 3452 H 332.422 4.55838 3.07396 0
M  V30 3453 H 333.647 5.58829 3.85858 0
M  V30 3454 H 331.593 3.86739 5.29876 0
M  V30 3455 H 331.51 5.58636 5.09374 0
M  V30 3456 H 332.778 4.89835 6.06367 0
M  V30 3457 N 337.007 -0.598083 1.45811 0
M  V30 3458 C 338.255 -1.35413 1.50026 0
M  V30 3459 C 338.576 -1.94444 0.147177 0
M  V30 3460 O 337.846 -1.77701 -0.824571 0
M  V30 3461 H 336.426 -0.502727 0.552517 0
M  V30 3462 H 339.088 -0.701606 1.81834 0
M  V30 3463 H 338.184 -2.16871 2.2444 0
M  V30 3464 N 338.485 -1.33259 -0.841409 0
M  V30 3465 C 339.415 -1.25926 -1.96634 0
M  V30 3466 C 340.396 -0.140349 -1.6952 0
M  V30 3467 O 341.581 -0.329707 -1.91381 0
M  V30 3468 C 338.711 -0.99512 -3.32738 0
M  V30 3469 C 337.665 -2.0767 -3.74242 0
M  V30 3470 C 336.991 -1.66474 -5.08125 0
M  V30 3471 C 338.291 -3.49318 -3.88297 0
M  V30 3472 H 339.985 -2.20046 -2.03027 0
M  V30 3473 H 337.531 -1.05931 -0.975425 0
M  V30 3474 H 339.484 -0.930323 -4.11002 0
M  V30 3475 H 338.208 -0.0183004 -3.26595 0
M  V30 3476 H 336.867 -2.13187 -2.98239 0
M  V30 3477 H 336.515 -0.675012 -4.9845 0
M  V30 3478 H 336.215 -2.3885 -5.36865 0
M  V30 3479 H 337.739 -1.61455 -5.88867 0
M  V30 3480 H 339.153 -3.46316 -4.56879 0
M  V30 3481 H 337.55 -4.20158 -4.28471 0
M  V30 3482 H 338.62 -3.8801 -2.9082 0
M  V30 3483 N 339.963 1.05934 -1.16686 0
M  V30 3484 C 340.873 2.17014 -0.891183 0
M  V30 3485 C 341.889 1.73453 0.137907 0
M  V30 3486 O 343.065 2.01361 -0.039592 0
M  V30 3487 C 340.13 3.44384 -0.400099 0
M  V30 3488 C 339.191 4.02433 -1.49486 0
M  V30 3489 C 338.424 5.23723 -1.02711 0
M  V30 3490 O 338.647 5.7027 0.121716 0
M  V30 3491 O 337.581 5.7382 -1.81699 0
M  V30 3492 H 341.407 2.43113 -1.82015 0
M  V30 3493 H 338.992 1.15541 -0.947132 0
M  V30 3494 H 340.874 4.21189 -0.133392 0
M  V30 3495 H 339.549 3.19802 0.500817 0
M  V30 3496 H 338.456 3.27102 -1.81535 0
M  V30 3497 H 339.789 4.31317 -2.37121 0
M  V30 3498 N 341.441 0.965919 1.2453 0
M  V30 3499 C 342.671 0.643451 1.96324 0
M  V30 3500 C 343.079 -0.790927 1.71875 0
M  V30 3501 O 342.422 -1.54208 0.998273 0
M  V30 3502 C 342.484 0.836078 3.49643 0
M  V30 3503 C 342.148 2.24975 3.97788 0
M  V30 3504 C 343.145 3.22735 4.07601 0
M  V30 3505 C 340.83 2.57697 4.31158 0
M  V30 3506 C 342.824 4.51303 4.50116 0
M  V30 3507 C 340.511 3.86492 4.73357 0
M  V30 3508 C 341.509 4.83107 4.828 0
M  V30 3509 O 341.197 6.09605 5.24058 0
M  V30 3510 H 340.929 0.239223 0.632257 0
M  V30 3511 H 343.483 1.29587 1.59362 0
M  V30 3512 H 341.713 0.12649 3.86493 0
M  V30 3513 H 343.402 0.512965 4.02646 0
M  V30 3514 H 344.168 2.98783 3.82039 0
M  V30 3515 H 340.047 1.83216 4.23028 0
M  V30 3516 H 343.591 5.26716 4.57401 0
M  V30 3517 H 339.488 4.10245 4.98366 0
M  V30 3518 H 340.256 6.13146 5.42213 0
M  V30 3519 N 342.919 -1.39368 0.735821 0
M  V30 3520 C 344.168 -1.99733 0.281004 0
M  V30 3521 C 344.481 -1.59055 -1.13846 0
M  V30 3522 O 345.687 -2.12262 -1.69284 0
M  V30 3523 C 344.143 -3.57057 0.451462 0
M  V30 3524 C 343.751 -4.06697 1.87886 0
M  V30 3525 C 345.495 -4.2446 0.0584616 0
M  V30 3526 C 343.402 -5.56598 1.99883 0
M  V30 3527 H 342.332 -0.747163 0.101311 0
M  V30 3528 H 344.983 -1.59357 0.909819 0
M  V30 3529 H 343.365 -3.95234 -0.246263 0
M  V30 3530 H 344.539 -3.79853 2.60861 0
M  V30 3531 H 342.854 -3.5196 2.22515 0
M  V30 3532 H 345.451 -5.34549 0.127099 0
M  V30 3533 H 345.794 -4.04444 -0.986433 0
M  V30 3534 H 346.327 -3.9146 0.707374 0
M  V30 3535 H 343.066 -5.81494 3.02564 0
M  V30 3536 H 342.586 -5.85242 1.31346 0
M  V30 3537 H 344.265 -6.22022 1.78039 0
M  V30 3538 N 344.397 -0.483516 -1.5 0
M  V30 3539 C 345.307 0.309172 -2.32554 0
M  V30 3540 C 346.323 0.984159 -1.43493 0
M  V30 3541 O 347.499 0.969399 -1.76535 0
M  V30 3542 C 344.564 1.36979 -3.18493 0
M  V30 3543 C 343.625 0.710095 -4.23387 0
M  V30 3544 C 342.858 1.72018 -5.05218 0
M  V30 3545 O 343.081 2.94813 -4.88305 0
M  V30 3546 O 342.015 1.28515 -5.8802 0
M  V30 3547 H 345.841 -0.366064 -3.01486 0
M  V30 3548 H 343.426 -0.24514 -1.47375 0
M  V30 3549 H 345.308 1.98385 -3.71781 0
M  V30 3550 H 343.983 2.02828 -2.52275 0
M  V30 3551 H 342.89 0.0567539 -3.74057 0
M  V30 3552 H 344.223 0.0943557 -4.9211 0
M  V30 3553 N 345.875 1.56104 -0.216619 0
M  V30 3554 C 346.838 2.18819 0.681962 0
M  V30 3555 C 347.838 1.14866 1.12528 0
M  V30 3556 O 349.028 1.40128 1.03488 0
M  V30 3557 C 346.16 2.80756 1.93362 0
M  V30 3558 H 347.353 2.99595 0.135254 0
M  V30 3559 H 344.906 1.56265 0.0330003 0
M  V30 3560 H 345.641 2.03837 2.52232 0
M  V30 3561 H 345.426 3.56876 1.62426 0
M  V30 3562 H 346.916 3.28844 2.57393 0
M  V30 3563 N 347.353 -0.0568162 1.57498 0
M  V30 3564 C 348.769 -0.411933 1.54192 0
M  V30 3565 C 348.969 -1.78287 0.938942 0
M  V30 3566 O 348.025 -2.46483 0.547919 0
M  V30 3567 C 349.338 -0.339244 2.9878 0
M  V30 3568 C 350.886 -0.418348 3.10192 0
M  V30 3569 C 351.361 -0.375407 4.56459 0
M  V30 3570 N 352.852 -0.435038 4.61153 0
M  V30 3571 C 353.587 -0.424265 5.71828 0
M  V30 3572 N 353.083 -0.367418 6.91825 0
M  V30 3573 N 354.876 -0.471938 5.60115 0
M  V30 3574 H 347.027 0.840684 1.95055 0
M  V30 3575 H 349.29 0.316987 0.893433 0
M  V30 3576 H 348.996 0.601742 3.46514 0
M  V30 3577 H 348.87 -1.14371 3.59443 0
M  V30 3578 H 351.257 -1.34976 2.62422 0
M  V30 3579 H 351.338 0.414962 2.52412 0
M  V30 3580 H 350.982 0.552219 5.04889 0
M  V30 3581 H 350.912 -1.22645 5.12119 0
M  V30 3582 H 353.403 -0.482612 3.74806 0
M  V30 3583 H 353.716 -0.363535 7.71944 0
M  V30 3584 H 352.061 -0.333879 6.94198 0
M  V30 3585 H 355.252 -0.514145 4.65268 0
M  V30 3586 H 355.425 -0.460073 6.46365 0
M  V30 3587 N 348.832 -1.54138 -0.328536 0
M  V30 3588 C 350.078 -1.73297 -1.06488 0
M  V30 3589 C 350.433 -0.497958 -1.85844 0
M  V30 3590 O 349.726 0.509591 -1.84699 0
M  V30 3591 C 349.92 -2.9457 -2.02393 0
M  V30 3592 C 349.749 -4.29747 -1.32467 0
M  V30 3593 C 348.519 -4.93987 -1.06324 0
M  V30 3594 C 350.717 -5.08903 -0.743137 0
M  V30 3595 N 348.699 -6.13005 -0.331359 0
M  V30 3596 C 350.07 -6.19836 -0.142602 0
M  V30 3597 C 352.125 -4.93699 -0.64546 0
M  V30 3598 C 350.828 -7.17224 0.546125 0
M  V30 3599 C 352.854 -5.91393 0.0295558 0
M  V30 3600 C 352.216 -7.01674 0.619056 0
M  V30 3601 H 348.315 -0.687017 -0.373539 0
M  V30 3602 H 350.899 -1.91589 -0.346659 0
M  V30 3603 H 349.07 -2.77752 -2.71493 0
M  V30 3604 H 350.802 -3.0238 -2.68977 0
M  V30 3605 H 347.557 -4.53824 -1.35428 0
M  V30 3606 H 347.981 -6.76997 0.0202939 0
M  V30 3607 H 352.623 -4.08589 -1.08695 0
M  V30 3608 H 350.341 -8.01896 0.999459 0
M  V30 3609 H 353.927 -5.81706 0.104705 0
M  V30 3610 H 352.807 -7.75971 1.13309 0
M  V30 3611 N 350.31 0.590341 -1.46126 0
M  V30 3612 C 351.24 1.71032 -1.58966 0
M  V30 3613 C 352.221 1.64302 -0.440335 0
M  V30 3614 O 353.406 1.82436 -0.665634 0
M  V30 3615 C 350.536 3.09665 -1.57241 0
M  V30 3616 C 349.49 3.31221 -2.71066 0
M  V30 3617 C 348.816 4.70303 -2.54399 0
M  V30 3618 C 350.116 3.19796 -4.1295 0
M  V30 3619 H 351.81 1.60543 -2.52718 0
M  V30 3620 H 349.356 0.770933 -1.21625 0
M  V30 3621 H 351.309 3.87831 -1.64819 0
M  V30 3622 H 350.033 3.21036 -0.600289 0
M  V30 3623 H 348.692 2.55452 -2.62944 0
M  V30 3624 H 348.34 4.78429 -1.55288 0
M  V30 3625 H 348.04 4.85679 -3.30741 0
M  V30 3626 H 349.564 5.50647 -2.63857 0
M  V30 3627 H 350.978 3.87815 -4.22223 0
M  V30 3628 H 349.375 3.46696 -4.89818 0
M  V30 3629 H 350.445 2.16983 -4.33643 0
M  V30 3630 N 351.788 1.33704 0.83433 0
M  V30 3631 C 353.035 1.25417 1.58987 0
M  V30 3632 C 353.363 -0.178869 1.93676 0
M  V30 3633 O 352.618 -1.13723 1.59265 0
M  V30 3634 C 352.917 2.07926 2.90692 0
M  V30 3635 C 352.583 3.57066 2.75345 0
M  V30 3636 C 351.245 3.97724 2.70867 0
M  V30 3637 C 353.597 4.51817 2.59828 0
M  V30 3638 C 350.925 5.31344 2.48778 0
M  V30 3639 C 353.277 5.85604 2.39272 0
M  V30 3640 C 351.941 6.25439 2.33199 0
M  V30 3641 H 351.211 0.458934 0.581774 0
M  V30 3642 H 353.858 1.65335 0.966261 0
M  V30 3643 H 352.163 1.608 3.57282 0
M  V30 3644 H 353.86 1.98868 3.48213 0
M  V30 3645 H 350.45 3.24785 2.79665 0
M  V30 3646 H 354.634 4.21311 2.62319 0
M  V30 3647 H 349.89 5.61241 2.42526 0
M  V30 3648 H 354.064 6.58623 2.2625 0
M  V30 3649 H 351.691 7.28914 2.15843 0
M  V30 3650 N 353.266 -1.05314 1.17247 0
M  V30 3651 C 354.214 -2.15137 0.884238 0
M  V30 3652 C 355.208 -1.68729 -0.15063 0
M  V30 3653 O 356.414 -1.8 -0.00366673 0
M  V30 3654 H 352.789 -0.702471 0.2684 0
M  V30 3655 H 354.76 -2.36652 1.81764 0
M  V30 3656 C 353.509 -3.45243 0.412659 0
M  V30 3657 H 352.832 -3.81352 1.20043 0
M  V30 3658 H 354.272 -4.23263 0.249858 0
M  V30 3659 C 352.731 -3.25487 -0.86948 0
M  V30 3660 O 353.261 -3.51938 -1.93655 0
M  V30 3661 N 351.467 -2.78875 -0.817147 0
M  V30 3662 H 351.014 -2.57549 0.0514211 0
M  V30 3663 H 350.972 -2.66036 -1.67547 0
M  V30 3664 N 354.744 -0.972509 -1.24016 0
M  V30 3665 C 355.707 -0.511403 -2.23422 0
M  V30 3666 C 356.707 0.394679 -1.55881 0
M  V30 3667 O 357.897 0.189469 -1.73167 0
M  V30 3668 C 355.029 0.258769 -3.39916 0
M  V30 3669 H 356.222 -1.39024 -2.6573 0
M  V30 3670 H 353.775 -0.757585 -1.36713 0
M  V30 3671 H 354.51 1.1545 -3.03054 0
M  V30 3672 H 354.295 -0.391522 -3.9014 0
M  V30 3673 H 355.785 0.570244 -4.13688 0
M  V30 3674 N 356.222 1.38976 -0.743202 0
M  V30 3675 C 357.447 2.05161 -0.303936 0
M  V30 3676 C 357.872 1.55677 1.05576 0
M  V30 3677 O 357.23 0.704131 1.67068 0
M  V30 3678 C 357.278 3.59138 -0.324373 0
M  V30 3679 O 356.382 4.06668 0.685204 0
M  V30 3680 H 355.723 0.649815 -0.136518 0
M  V30 3681 H 358.253 1.77852 -1.01142 0
M  V30 3682 H 358.263 4.07639 -0.171618 0
M  V30 3683 H 356.938 3.94515 -1.31647 0
M  V30 3684 H 355.515 3.69561 0.497913 0
M  V30 3685 N 357.7 0.491464 1.49741 0
M  V30 3686 C 358.663 -0.280906 2.27472 0
M  V30 3687 C 359.663 -0.902454 1.33088 0
M  V30 3688 O 360.853 -0.768465 1.56334 0
M  V30 3689 C 357.985 -1.40209 3.10732 0
M  V30 3690 H 359.178 0.401056 2.97206 0
M  V30 3691 H 356.731 0.246131 1.5435 0
M  V30 3692 H 357.466 -2.11849 2.45541 0
M  V30 3693 H 357.251 -0.961969 3.80117 0
M  V30 3694 H 358.741 -1.9464 3.69466 0
M  V30 3695 N 359.178 -1.55987 0.224894 0
M  V30 3696 C 360.403 -2.03232 -0.41369 0
M  V30 3697 C 360.828 -1.10359 -1.52323 0
M  V30 3698 O 360.186 -0.092395 -1.81064 0
M  V30 3699 C 360.234 -3.48682 -0.919405 0
M  V30 3700 O 359.338 -3.58947 -2.03054 0
M  V30 3701 H 358.679 -0.657428 -0.0931903 0
M  V30 3702 H 361.209 -2.01679 0.34451 0
M  V30 3703 H 361.219 -3.8907 -1.22835 0
M  V30 3704 H 359.894 -4.15761 -0.107339 0
M  V30 3705 H 358.471 -3.30448 -1.72796 0
M  V30 3706 N 360.656 0.0484629 -1.57525 0
M  V30 3707 C 361.588 1.08222 -2.02041 0
M  V30 3708 C 362.601 1.33621 -0.930012 0
M  V30 3709 O 363.79 1.3145 -1.20761 0
M  V30 3710 C 360.89 2.42818 -2.36416 0
M  V30 3711 C 360.063 2.37049 -3.67596 0
M  V30 3712 C 359.122 3.53937 -3.89378 0
M  V30 3713 O 358.148 3.34308 -4.60681 0
M  V30 3714 N 359.35 4.75126 -3.3352 0
M  V30 3715 H 362.115 0.702946 -2.9134 0
M  V30 3716 H 359.676 0.236745 -1.6016 0
M  V30 3717 H 361.668 3.197 -2.48141 0
M  V30 3718 H 360.238 2.72661 -1.52888 0
M  V30 3719 H 359.458 1.45395 -3.66407 0
M  V30 3720 H 360.746 2.30318 -4.53686 0
M  V30 3721 H 360.144 4.93976 -2.75688 0
M  V30 3722 H 358.701 5.49439 -3.50656 0
M  V30 3723 N 362.134 1.5431 0.320358 0
M  V30 3724 C 363.067 1.78769 1.41834 0
M  V30 3725 C 364.045 0.63783 1.49568 0
M  V30 3726 O 365.229 0.875628 1.66928 0
M  V30 3727 C 362.356 1.90712 2.79905 0
M  V30 3728 C 361.402 3.13023 2.89687 0
M  V30 3729 S 362.235 4.71554 2.53766 0
M  V30 3730 C 363.391 4.86408 3.93902 0
M  V30 3731 H 363.624 2.71619 1.20874 0
M  V30 3732 H 361.157 1.45474 0.517377 0
M  V30 3733 H 363.115 1.98279 3.59438 0
M  V30 3734 H 361.776 0.988343 2.98145 0
M  V30 3735 H 360.969 3.18124 3.90913 0
M  V30 3736 H 360.571 3.03803 2.18128 0
M  V30 3737 H 362.863 4.69241 4.88691 0
M  V30 3738 H 363.806 5.88508 3.93782 0
M  V30 3739 H 364.214 4.14689 3.83005 0
M  V30 3740 N 363.613 -0.582584 1.46437 0
M  V30 3741 C 364.523 -1.71949 1.59595 0
M  V30 3742 C 365.539 -1.67264 0.479443 0
M  V30 3743 O 366.715 -1.87171 0.743579 0
M  V30 3744 C 363.78 -3.08452 1.58298 0
M  V30 3745 C 362.841 -3.244 2.81182 0
M  V30 3746 C 362.074 -4.54391 2.79937 0
M  V30 3747 O 362.297 -5.38287 1.8869 0
M  V30 3748 O 361.231 -4.73588 3.71481 0
M  V30 3749 H 365.057 -1.63795 2.55744 0
M  V30 3750 H 362.642 -0.749643 1.29231 0
M  V30 3751 H 364.524 -3.89732 1.60271 0
M  V30 3752 H 363.199 -3.17043 0.653094 0
M  V30 3753 H 362.106 -2.42613 2.84763 0
M  V30 3754 H 363.439 -3.20699 3.7338 0
M  V30 3755 N 365.091 -1.34144 -0.827227 0
M  V30 3756 C 366.337 -1.26446 -1.58554 0
M  V30 3757 C 366.67 0.1664 -1.93486 0
M  V30 3758 O 365.945 1.1107 -1.59667 0
M  V30 3759 C 366.228 -2.15111 -2.8879 0
M  V30 3760 C 366.081 -3.66712 -2.60465 0
M  V30 3761 C 367.4 -2.03311 -3.90324 0
M  V30 3762 H 364.519 -0.46067 -0.575284 0
M  V30 3763 H 367.161 -1.64356 -0.953269 0
M  V30 3764 H 365.311 -1.8291 -3.42748 0
M  V30 3765 H 366.983 -4.09259 -2.1285 0
M  V30 3766 H 365.226 -3.88014 -1.93978 0
M  V30 3767 H 365.897 -4.24112 -3.53317 0
M  V30 3768 H 368.373 -2.31574 -3.45706 0
M  V30 3769 H 367.249 -2.67582 -4.79261 0
M  V30 3770 H 367.51 -1.00879 -4.30437 0
M  V30 3771 N 366.569 1.04691 -1.17803 0
M  V30 3772 C 367.499 2.14494 -0.92275 0
M  V30 3773 C 368.48 1.69546 0.137179 0
M  V30 3774 O 369.665 1.94195 -0.0141108 0
M  V30 3775 C 366.795 3.44491 -0.440803 0
M  V30 3776 C 365.749 4.03031 -1.4405 0
M  V30 3777 C 365.075 5.28432 -0.81631 0
M  V30 3778 C 366.375 4.39932 -2.81527 0
M  V30 3779 H 368.069 2.36107 -1.84103 0
M  V30 3780 H 365.615 1.1347 -0.886599 0
M  V30 3781 H 367.568 4.2066 -0.249602 0
M  V30 3782 H 366.292 3.22546 0.513025 0
M  V30 3783 H 364.951 3.28937 -1.61853 0
M  V30 3784 H 364.599 5.02792 0.144511 0
M  V30 3785 H 364.299 5.68559 -1.48371 0
M  V30 3786 H 365.823 6.07284 -0.635496 0
M  V30 3787 H 367.237 5.07113 -2.67412 0
M  V30 3788 H 365.634 4.9109 -3.44892 0
M  V30 3789 H 366.704 3.50045 -3.35554 0
M  V30 3790 N 368.047 0.979072 1.23499 0
M  V30 3791 C 369.296 0.642751 1.91185 0
M  V30 3792 C 369.609 -0.827253 1.77245 0
M  V30 3793 O 370.815 -1.27458 2.39722 0
M  V30 3794 C 369.271 1.09901 3.42709 0
M  V30 3795 C 368.879 2.59327 3.65313 0
M  V30 3796 C 370.623 0.836371 4.16179 0
M  V30 3797 C 368.53 2.98627 5.10467 0
M  V30 3798 H 367.46 0.236698 0.715884 0
M  V30 3799 H 370.111 1.1868 1.39955 0
M  V30 3800 H 368.493 0.48319 3.93041 0
M  V30 3801 H 369.667 3.26136 3.25533 0
M  V30 3802 H 367.982 2.83323 3.05151 0
M  V30 3803 H 370.579 1.10586 5.23139 0
M  V30 3804 H 370.922 -0.227509 4.15678 0
M  V30 3805 H 371.455 1.41371 3.71832 0
M  V30 3806 H 368.194 4.04133 5.16098 0
M  V30 3807 H 367.714 2.3651 5.51201 0
M  V30 3808 H 369.393 2.89159 5.78788 0
M  V30 3809 N 369.525 -1.3858 0.750561 0
M  V30 3810 C 370.475 -2.27795 0.0965949 0
M  V30 3811 C 371.459 -1.45048 -0.696411 0
M  V30 3812 O 372.651 -1.67812 -0.562863 0
M  V30 3813 C 369.78 -3.33894 -0.798085 0
M  V30 3814 C 368.866 -4.241 0.0016067 0
M  V30 3815 N 369.257 -4.95067 1.03647 0
M  V30 3816 C 367.555 -4.45429 -0.225674 0
M  V30 3817 C 368.256 -5.61489 1.52004 0
M  V30 3818 N 367.232 -5.37135 0.835874 0
M  V30 3819 H 371.034 -2.80125 0.889228 0
M  V30 3820 H 368.548 -1.51446 0.586323 0
M  V30 3821 H 370.545 -3.96693 -1.28219 0
M  V30 3822 H 369.205 -2.83123 -1.5897 0
M  V30 3823 H 370.216 -4.98104 1.41819 0
M  V30 3824 H 366.893 -4.05571 -0.990872 0
M  V30 3825 H 368.283 -6.28264 2.38188 0
M  V30 3826 N 371.003 -0.499398 -1.49478 0
M  V30 3827 C 372.414 -0.051215 -1.8663 0
M  V30 3828 C 372.765 1.36238 -1.41186 0
M  V30 3829 O 371.89 2.01502 -0.789051 0
M  V30 3830 C 372.485 -0.0861651 -3.3869 0
M  V30 3831 C 371.044 0.30667 -3.75149 0
M  V30 3832 C 370.191 -0.459397 -2.73468 0
M  V30 3833 H 373.142 -0.712264 -1.41818 0
M  V30 3834 H 373.163 0.709507 -3.73826 0
M  V30 3835 H 372.675 -1.11512 -3.71735 0
M  V30 3836 H 370.776 1.33892 -3.47712 0
M  V30 3837 H 370.889 -0.0116669 -4.79099 0
M  V30 3838 H 369.253 0.0905645 -2.54539 0
M  V30 3839 H 370.036 -1.4884 -3.09357 0
M  V30 3840 N 372.481 1.55866 -0.233164 0
M  V30 3841 C 373.413 2.18099 0.704668 0
M  V30 3842 C 374.426 1.15334 1.14899 0
M  V30 3843 O 375.615 1.42262 1.07814 0
M  V30 3844 C 372.715 2.7592 1.96777 0
M  V30 3845 C 371.888 4.03969 1.67713 0
M  V30 3846 C 370.947 4.46242 2.78845 0
M  V30 3847 O 369.973 5.12903 2.46818 0
M  V30 3848 N 371.175 4.12886 4.08051 0
M  V30 3849 H 373.94 2.99205 0.172258 0
M  V30 3850 H 371.501 1.61815 -0.0525945 0
M  V30 3851 H 373.493 3.01165 2.70337 0
M  V30 3852 H 372.063 1.99051 2.41034 0
M  V30 3853 H 371.283 3.86459 0.777391 0
M  V30 3854 H 372.571 4.8748 1.4574 0
M  V30 3855 H 371.969 3.59342 4.3691 0
M  V30 3856 H 370.526 4.42997 4.78118 0
M  V30 3857 N 373.959 -0.0401083 1.57549 0
M  V30 3858 C 375.184 -0.748931 1.93406 0
M  V30 3859 C 375.609 -1.68686 0.832274 0
M  V30 3860 O 374.967 -1.80047 -0.212818 0
M  V30 3861 C 375.015 -1.4916 3.28304 0
M  V30 3862 O 374.119 -2.6042 3.19774 0
M  V30 3863 H 373.46 -0.202212 0.63246 0
M  V30 3864 H 375.99 0.00112086 2.046 0
M  V30 3865 H 376 -1.86395 3.62934 0
M  V30 3866 H 374.675 -0.80364 4.08062 0
M  V30 3867 H 373.252 -2.25808 2.96758 0
M  V30 3868 N 375.437 -1.54477 -0.31217 0
M  V30 3869 C 376.683 -1.73483 -1.0503 0
M  V30 3870 C 377.016 -0.513125 -1.87298 0
M  V30 3871 O 376.291 0.489864 -1.8823 0
M  V30 3872 C 376.574 -3.01723 -1.96558 0
M  V30 3873 C 376.427 -4.3417 -1.17545 0
M  V30 3874 C 377.746 -3.25772 -2.95907 0
M  V30 3875 H 374.865 -0.631222 -0.380432 0
M  V30 3876 H 377.507 -1.87184 -0.325932 0
M  V30 3877 H 375.657 -2.90174 -2.58324 0
M  V30 3878 H 377.329 -4.5762 -0.581513 0
M  V30 3879 H 375.572 -4.31159 -0.477925 0
M  V30 3880 H 376.243 -5.20143 -1.84811 0
M  V30 3881 H 378.719 -3.36857 -2.44267 0
M  V30 3882 H 377.595 -4.16838 -3.57123 0
M  V30 3883 H 377.856 -2.43537 -3.68974 0
M  V30 3884 N 376.915 0.57481 -1.46744 0
M  V30 3885 C 378.164 1.32898 -1.51727 0
M  V30 3886 C 378.477 1.948 -0.176692 0
M  V30 3887 O 379.683 2.71299 -0.104385 0
M  V30 3888 C 378.139 2.40901 -2.67385 0
M  V30 3889 C 377.747 1.85266 -4.07898 0
M  V30 3890 C 379.491 3.17609 -2.81646 0
M  V30 3891 C 377.398 2.90945 -5.14883 0
M  V30 3892 H 376.328 0.499631 -0.564699 0
M  V30 3893 H 378.979 0.612536 -1.72975 0
M  V30 3894 H 377.361 3.15379 -2.39483 0
M  V30 3895 H 378.535 1.17278 -4.45626 0
M  V30 3896 H 376.85 1.21199 -3.98371 0
M  V30 3897 H 379.447 3.96493 -3.58744 0
M  V30 3898 H 379.79 3.70696 -1.89448 0
M  V30 3899 H 380.323 2.50239 -3.09233 0
M  V30 3900 H 377.062 2.42736 -6.089 0
M  V30 3901 H 376.582 3.57398 -4.81691 0
M  V30 3902 H 378.261 3.54755 -5.41071 0
M  V30 3903 N 378.394 1.34581 0.820102 0
M  V30 3904 C 379.344 1.22943 1.92013 0
M  V30 3905 C 380.328 0.127802 1.60392 0
M  V30 3906 O 381.52 0.357737 1.73347 0
M  V30 3907 C 378.649 0.989938 3.28717 0
M  V30 3908 C 377.735 2.13486 3.66449 0
M  V30 3909 N 378.126 3.38625 3.75722 0
M  V30 3910 C 376.424 2.04573 3.96315 0
M  V30 3911 C 377.125 4.13832 4.08801 0
M  V30 3912 N 376.101 3.42451 4.22171 0
M  V30 3913 H 379.903 2.17771 1.97365 0
M  V30 3914 H 377.417 1.2686 1.01392 0
M  V30 3915 H 379.414 0.887462 4.07345 0
M  V30 3916 H 378.074 0.0503691 3.24661 0
M  V30 3917 H 379.085 3.73143 3.59144 0
M  V30 3918 H 375.762 1.1839 4.00362 0
M  V30 3919 H 377.152 5.21909 4.23156 0
M  V30 3920 N 379.872 -1.04064 1.18357 0
M  V30 3921 C 381.097 -1.81454 1.00445 0
M  V30 3922 C 381.522 -1.82823 -0.442423 0
M  V30 3923 O 380.88 -1.24555 -1.31741 0
M  V30 3924 C 380.928 -3.24925 1.56384 0
M  V30 3925 O 380.032 -4.04856 0.785209 0
M  V30 3926 H 379.373 -0.560604 0.355835 0
M  V30 3927 H 381.903 -1.31059 1.57114 0
M  V30 3928 H 381.913 -3.75702 1.59097 0
M  V30 3929 H 380.588 -3.23244 2.61699 0
M  V30 3930 H 379.165 -3.63537 0.830399 0
M  V30 3931 N 381.35 -0.985608 -1.22978 0
M  V30 3932 C 382.283 -0.47487 -2.23204 0
M  V30 3933 C 383.261 0.460865 -1.55932 0
M  V30 3934 O 384.445 0.388105 -1.84461 0
M  V30 3935 C 381.572 0.312427 -3.37256 0
M  V30 3936 C 380.618 -0.568219 -4.22698 0
M  V30 3937 S 381.451 -2.01919 -4.95973 0
M  V30 3938 C 382.607 -1.24118 -6.1347 0
M  V30 3939 H 382.84 -1.32419 -2.66181 0
M  V30 3940 H 380.373 -0.792005 -1.32539 0
M  V30 3941 H 382.331 0.760645 -4.03391 0
M  V30 3942 H 380.992 1.13693 -2.92801 0
M  V30 3943 H 380.185 0.0371657 -5.03986 0
M  V30 3944 H 379.787 -0.952897 -3.61657 0
M  V30 3945 H 382.079 -0.505121 -6.75614 0
M  V30 3946 H 383.022 -2.02907 -6.78406 0
M  V30 3947 H 383.43 -0.757669 -5.59392 0
M  V30 3948 N 382.828 1.3818 -0.7579 0
M  V30 3949 C 384.074 2.00316 -0.316453 0
M  V30 3950 C 384.407 1.60026 1.10025 0
M  V30 3951 O 383.682 0.839835 1.75434 0
M  V30 3952 C 383.965 3.57349 -0.444245 0
M  V30 3953 C 383.818 4.07591 -1.90236 0
M  V30 3954 C 385.137 4.3981 0.1598 0
M  V30 3955 H 382.256 0.727741 -0.116459 0
M  V30 3956 H 384.898 1.6406 -0.958352 0
M  V30 3957 H 383.048 3.88365 0.102233 0
M  V30 3958 H 384.72 3.87199 -2.50748 0
M  V30 3959 H 382.963 3.60297 -2.41595 0
M  V30 3960 H 383.634 5.16677 -1.94291 0
M  V30 3961 H 386.11 4.14971 -0.306314 0
M  V30 3962 H 384.986 5.48885 0.0401675 0
M  V30 3963 H 385.247 4.24102 1.24859 0
M  V30 3964 N 384.306 0.507319 1.49211 0
M  V30 3965 C 385.722 0.163682 1.58758 0
M  V30 3966 C 385.922 -1.33208 1.51188 0
M  V30 3967 O 384.978 -2.10855 1.38911 0
M  V30 3968 C 386.291 0.746095 2.91297 0
M  V30 3969 C 387.839 0.712773 3.04776 0
M  V30 3970 C 388.314 1.27336 4.39943 0
M  V30 3971 N 389.805 1.23433 4.46451 0
M  V30 3972 C 390.54 1.63821 5.495 0
M  V30 3973 N 390.036 2.11832 6.5962 0
M  V30 3974 N 391.829 1.55198 5.4025 0
M  V30 3975 H 383.98 1.47972 1.52375 0
M  V30 3976 H 386.243 0.614147 0.722168 0
M  V30 3977 H 385.949 1.79534 3.02424 0
M  V30 3978 H 385.823 0.210137 3.76614 0
M  V30 3979 H 388.21 -0.327656 2.93275 0
M  V30 3980 H 388.291 1.28595 2.21127 0
M  V30 3981 H 387.935 2.3126 4.52196 0
M  V30 3982 H 387.865 0.676066 5.22242 0
M  V30 3983 H 390.356 0.882627 3.67448 0
M  V30 3984 H 390.669 2.40703 7.34358 0
M  V30 3985 H 389.014 2.1581 6.60644 0
M  V30 3986 H 392.205 1.17505 4.53112 0
M  V30 3987 H 392.378 1.86997 6.20432 0
M  V30 3988 N 385.784 -1.5574 0.241426 0
M  V30 3989 C 387.014 -2.02913 -0.38857 0
M  V30 3990 C 387.422 -1.12014 -1.52478 0
M  V30 3991 O 386.765 -0.125903 -1.83268 0
M  V30 3992 C 386.827 -3.4636 -0.963075 0
M  V30 3993 C 386.491 -4.56982 0.0401916 0
M  V30 3994 C 387.488 -5.12941 0.847766 0
M  V30 3995 C 385.173 -5.0203 0.164699 0
M  V30 3996 C 387.167 -6.12437 1.76636 0
M  V30 3997 C 384.854 -6.01358 1.0868 0
M  V30 3998 C 385.852 -6.5644 1.88616 0
M  V30 3999 O 385.54 -7.53831 2.79273 0
M  V30 4000 H 385.272 -0.668983 -0.0971452 0
M  V30 4001 H 387.826 -2.02198 0.361248 0
M  V30 4002 H 386.056 -3.44206 -1.76235 0
M  V30 4003 H 387.745 -3.77065 -1.50257 0
M  V30 4004 H 388.511 -4.78974 0.762133 0
M  V30 4005 H 384.39 -4.58824 -0.447411 0
M  V30 4006 H 387.934 -6.55355 2.39071 0
M  V30 4007 H 383.831 -6.34746 1.17338 0
M  V30 4008 H 384.599 -7.71428 2.73572 0
M  V30 4009 N 387.262 0.0317525 -1.57568 0
M  V30 4010 C 388.194 1.06073 -2.03178 0
M  V30 4011 C 389.207 1.32627 -0.944132 0
M  V30 4012 O 390.396 1.30162 -1.22148 0
M  V30 4013 C 387.496 2.40297 -2.38978 0
M  V30 4014 C 386.669 2.33137 -3.70089 0
M  V30 4015 C 385.728 3.49787 -3.9311 0
M  V30 4016 O 384.754 3.29403 -4.64201 0
M  V30 4017 N 385.956 4.71562 -3.38541 0
M  V30 4018 H 388.721 0.672006 -2.92069 0
M  V30 4019 H 386.282 0.219745 -1.60402 0
M  V30 4020 H 388.274 3.1705 -2.51518 0
M  V30 4021 H 386.844 2.71024 -1.55771 0
M  V30 4022 H 386.064 1.415 -3.67928 0
M  V30 4023 H 387.352 2.25493 -4.56104 0
M  V30 4024 H 386.75 4.91024 -2.80912 0
M  V30 4025 H 385.307 5.45689 -3.56464 0
M  V30 4026 N 388.74 1.54641 0.303973 0
M  V30 4027 C 390.017 1.64455 1.05896 0
M  V30 4028 C 390.397 0.490923 2.05312 0
M  V30 4029 O 389.745 -0.512685 2.22674 0
M  V30 4030 C 389.955 3.02331 1.74347 0
M  V30 4031 C 391.303 3.59045 2.26653 0
M  V30 4032 O 392.327 3.04764 1.84384 0
M  V30 4033 O 391.186 4.54081 3.04093 0
M  V30 4034 H 388.28 0.666729 0.489287 0
M  V30 4035 H 390.826 1.66986 0.302298 0
M  V30 4036 H 389.598 3.77734 1.02142 0
M  V30 4037 H 389.221 3.03565 2.56777 0
M  V30 4038 N 390.218 -0.567019 1.47046 0
M  V30 4039 C 391.466 -1.322 1.52864 0
M  V30 4040 C 391.787 -1.94088 0.188388 0
M  V30 4041 O 391.057 -1.7941 -0.786693 0
M  V30 4042 H 389.637 -0.490894 0.563056 0
M  V30 4043 H 392.299 -0.662879 1.83281 0
M  V30 4044 H 391.395 -2.12062 2.2899 0
M  V30 4045 N 391.696 -1.35014 -0.812953 0
M  V30 4046 C 392.921 -1.31187 -1.60639 0
M  V30 4047 C 393.346 0.109382 -1.87782 0
M  V30 4048 O 392.704 1.07424 -1.46047 0
M  V30 4049 C 392.752 -2.11809 -2.91838 0
M  V30 4050 O 391.856 -1.49444 -3.8437 0
M  V30 4051 H 391.197 -0.450084 -0.488181 0
M  V30 4052 H 393.727 -1.77963 -1.00947 0
M  V30 4053 H 393.737 -2.23531 -3.41318 0
M  V30 4054 H 392.412 -3.15137 -2.71407 0
M  V30 4055 H 390.989 -1.46524 -3.42907 0
M  V30 4056 N 393.175 1.03435 -1.18907 0
M  V30 4057 C 394.421 1.77005 -0.989798 0
M  V30 4058 C 394.754 1.88205 0.478816 0
M  V30 4059 O 394.029 1.39481 1.35556 0
M  V30 4060 C 394.312 3.19925 -1.65287 0
M  V30 4061 C 394.165 3.1663 -3.19477 0
M  V30 4062 C 395.484 4.18189 -1.37134 0
M  V30 4063 H 392.603 0.642538 -0.360991 0
M  V30 4064 H 395.245 1.20784 -1.46667 0
M  V30 4065 H 393.395 3.67929 -1.24741 0
M  V30 4066 H 395.067 2.76567 -3.692 0
M  V30 4067 H 393.31 2.54491 -3.51307 0
M  V30 4068 H 393.981 4.1758 -3.61013 0
M  V30 4069 H 396.457 3.78761 -1.72276 0
M  V30 4070 H 395.333 5.16394 -1.86087 0
M  V30 4071 H 395.594 4.41112 -0.295424 0
M  V30 4072 N 394.653 0.992116 1.22453 0
M  V30 4073 C 395.583 0.561677 2.26644 0
M  V30 4074 C 396.564 -0.411055 1.65059 0
M  V30 4075 O 397.749 -0.301861 1.9184 0
M  V30 4076 C 394.879 -0.125247 3.47074 0
M  V30 4077 C 393.833 0.765948 4.21091 0
M  V30 4078 C 393.159 -0.0538484 5.34673 0
M  V30 4079 C 394.459 2.06242 4.79856 0
M  V30 4080 H 396.153 1.43259 2.62902 0
M  V30 4081 H 393.699 0.690283 1.26377 0
M  V30 4082 H 395.652 -0.437764 4.1912 0
M  V30 4083 H 394.376 -1.03069 3.0991 0
M  V30 4084 H 393.035 1.0621 3.50878 0
M  V30 4085 H 392.683 -0.960188 4.9375 0
M  V30 4086 H 392.383 0.539415 5.85119 0
M  V30 4087 H 393.907 -0.360477 6.09535 0
M  V30 4088 H 395.321 1.8139 5.43848 0
M  V30 4089 H 393.718 2.60444 5.40638 0
M  V30 4090 H 394.788 2.74167 3.99951 0
M  V30 4091 N 396.131 -1.37776 0.765217 0
M  V30 4092 C 397.094 -2.28686 0.153416 0
M  V30 4093 C 398.094 -1.47727 -0.635081 0
M  V30 4094 O 399.284 -1.68027 -0.459632 0
M  V30 4095 C 396.416 -3.31608 -0.790495 0
M  V30 4096 H 397.609 -2.84297 0.954723 0
M  V30 4097 H 395.162 -1.46932 0.53299 0
M  V30 4098 H 395.897 -2.81109 -1.61705 0
M  V30 4099 H 395.682 -3.9144 -0.227348 0
M  V30 4100 H 397.172 -3.99559 -1.21419 0
M  V30 4101 N 397.609 -0.515225 -1.4894 0
M  V30 4102 C 398.541 0.292481 -2.27326 0
M  V30 4103 C 399.554 0.917838 -1.3446 0
M  V30 4104 O 400.743 0.798772 -1.5963 0
M  V30 4105 C 397.843 1.42803 -3.07344 0
M  V30 4106 C 397.016 0.907347 -4.27885 0
M  V30 4107 C 396.075 1.92222 -4.89834 0
M  V30 4108 O 395.101 1.48506 -5.49486 0
M  V30 4109 N 396.303 3.25355 -4.80754 0
M  V30 4110 H 399.068 -0.379721 -2.97285 0
M  V30 4111 H 396.629 -0.348638 -1.58102 0
M  V30 4112 H 398.621 2.10481 -3.45658 0
M  V30 4113 H 397.191 2.00414 -2.39902 0
M  V30 4114 H 396.411 0.0550218 -3.94162 0
M  V30 4115 H 397.699 0.538108 -5.05946 0
M  V30 4116 H 397.097 3.6355 -4.33414 0
M  V30 4117 H 395.654 3.88707 -5.23211 0
M  V30 4118 N 399.087 1.5561 -0.249682 0
M  V30 4119 C 400.017 2.24477 0.642826 0
M  V30 4120 C 400.998 1.22601 1.17911 0
M  V30 4121 O 402.183 1.5126 1.21795 0
M  V30 4122 C 399.313 2.94638 1.83863 0
M  V30 4123 C 398.267 4.03227 1.435 0
M  V30 4124 C 397.593 4.60828 2.71186 0
M  V30 4125 C 398.893 5.18796 0.604002 0
M  V30 4126 H 400.587 2.99321 0.0685625 0
M  V30 4127 H 398.133 1.43965 0.0315363 0
M  V30 4128 H 400.086 3.41517 2.46868 0
M  V30 4129 H 398.81 2.17287 2.43832 0
M  V30 4130 H 397.469 3.57121 0.828275 0
M  V30 4131 H 397.117 3.80174 3.29358 0
M  V30 4132 H 396.817 5.34132 2.44901 0
M  V30 4133 H 398.341 5.10442 3.35084 0
M  V30 4134 H 399.755 5.61883 1.13842 0
M  V30 4135 H 398.152 5.98506 0.437097 0
M  V30 4136 H 399.222 4.83384 -0.383147 0
M  V30 4137 N 400.565 -0.0233959 1.57583 0
M  V30 4138 C 401.813 -0.711654 1.89156 0
M  V30 4139 C 402.134 -1.75591 0.848096 0
M  V30 4140 O 401.404 -1.95547 -0.117566 0
M  V30 4141 H 399.984 -0.265835 0.698098 0
M  V30 4142 H 402.646 0.0119948 1.94896 0
M  V30 4143 H 401.742 -1.19766 2.88206 0
M  V30 4144 N 402.043 -1.548 -0.295768 0
M  V30 4145 C 402.953 -1.89177 -1.38742 0
M  V30 4146 C 403.969 -0.786481 -1.55211 0
M  V30 4147 O 405.145 -1.08344 -1.69775 0
M  V30 4148 C 402.21 -2.13663 -2.73036 0
M  V30 4149 C 401.271 -3.37349 -2.65508 0
M  V30 4150 C 400.504 -3.60658 -3.93398 0
M  V30 4151 O 400.727 -2.86882 -4.93006 0
M  V30 4152 O 399.661 -4.54179 -3.94975 0
M  V30 4153 H 403.487 -2.82059 -1.12589 0
M  V30 4154 H 401.072 -1.41056 -0.492295 0
M  V30 4155 H 402.954 -2.3094 -3.52484 0
M  V30 4156 H 401.629 -1.23967 -2.99022 0
M  V30 4157 H 400.536 -3.25431 -1.84514 0
M  V30 4158 H 401.869 -4.27192 -2.44474 0
M  V30 4159 N 403.521 0.559213 -1.47345 0
M  V30 4160 C 404.932 1.14134 -1.47751 0
M  V30 4161 C 405.283 1.94834 -0.231103 0
M  V30 4162 O 404.408 2.05957 0.664137 0
M  V30 4163 C 405.003 2.07653 -2.67705 0
M  V30 4164 C 403.562 2.61141 -2.71076 0
M  V30 4165 C 402.709 1.3748 -2.40821 0
M  V30 4166 H 405.66 0.345917 -1.54884 0
M  V30 4167 H 405.681 2.91497 -2.44561 0
M  V30 4168 H 405.193 1.4889 -3.58404 0
M  V30 4169 H 403.294 3.23707 -1.84511 0
M  V30 4170 H 403.407 3.02272 -3.7171 0
M  V30 4171 H 401.771 1.68086 -1.91362 0
M  V30 4172 H 402.554 0.805135 -3.33725 0
M  V30 4173 N 404.999 1.35443 0.805782 0
M  V30 4174 C 406.276 1.19325 1.54987 0
M  V30 4175 C 406.656 -0.227294 2.09873 0
M  V30 4176 O 406.004 -1.2309 1.92512 0
M  V30 4177 C 406.214 2.26196 2.65775 0
M  V30 4178 C 407.562 2.62043 3.34094 0
M  V30 4179 O 408.586 2.25115 2.76046 0
M  V30 4180 O 407.445 3.25542 4.38958 0
M  V30 4181 H 404.539 0.463623 0.684823 0
M  V30 4182 H 407.085 1.47127 0.845674 0
M  V30 4183 H 405.857 3.21471 2.23096 0
M  V30 4184 H 405.48 1.99667 3.43829 0
M  V30 4185 N 406.477 -1.02803 1.19454 0
M  V30 4186 C 407.41 -2.107 0.876396 0
M  V30 4187 C 408.388 -1.61741 -0.166897 0
M  V30 4188 O 409.572 -1.88451 -0.0430195 0
M  V30 4189 C 406.699 -3.37262 0.311758 0
M  V30 4190 C 405.745 -4.05093 1.33424 0
M  V30 4191 S 406.578 -4.50498 2.89503 0
M  V30 4192 C 407.734 -5.80277 2.34584 0
M  V30 4193 H 407.967 -2.37362 1.79016 0
M  V30 4194 H 405.5 -1.15755 1.02177 0
M  V30 4195 H 407.458 -4.10499 -0.00748752 0
M  V30 4196 H 406.119 -3.08693 -0.58032 0
M  V30 4197 H 405.312 -4.9611 0.888302 0
M  V30 4198 H 404.914 -3.3803 1.60037 0
M  V30 4199 H 407.206 -6.54873 1.73633 0
M  V30 4200 H 408.149 -6.29651 3.23952 0
M  V30 4201 H 408.557 -5.3599 1.77131 0
M  V30 4202 N 407.956 -0.998596 -1.21925 0
M  V30 4203 C 409.372 -0.710303 -1.42923 0
M  V30 4204 C 409.572 0.716933 -1.88314 0
M  V30 4205 O 408.628 1.48712 -2.04062 0
M  V30 4206 C 409.941 -1.72072 -2.466 0
M  V30 4207 C 411.489 -1.73681 -2.60392 0
M  V30 4208 C 411.964 -2.73601 -3.67296 0
M  V30 4209 N 413.455 -2.7223 -3.7476 0
M  V30 4210 C 414.19 -3.46206 -4.57087 0
M  V30 4211 N 413.686 -4.29802 -5.43362 0
M  V30 4212 N 415.479 -3.34886 -4.51451 0
M  V30 4213 H 407.63 -1.92028 -0.9077 0
M  V30 4214 H 409.893 -0.828487 -0.460775 0
M  V30 4215 H 409.599 -2.74231 -2.20206 0
M  V30 4216 H 409.473 -1.51818 -3.45299 0
M  V30 4217 H 411.86 -0.722173 -2.86127 0
M  V30 4218 H 411.941 -1.98005 -1.61949 0
M  V30 4219 H 411.585 -3.75217 -3.42307 0
M  V30 4220 H 411.515 -2.46545 -4.65321 0
M  V30 4221 H 414.006 -2.11576 -3.1312 0
M  V30 4222 H 414.319 -4.83061 -6.03218 0
M  V30 4223 H 412.664 -4.33887 -5.42925 0
M  V30 4224 H 415.855 -2.69015 -3.83078 0
M  V30 4225 H 416.028 -3.92796 -5.15379 0
M  V30 4226 N 409.434 1.37368 -0.772513 0
M  V30 4227 C 410.662 2.03942 -0.348588 0
M  V30 4228 C 411.077 1.58264 1.02947 0
M  V30 4229 O 410.434 0.764246 1.65727 0
M  V30 4230 C 410.485 3.5946 -0.38351 0
M  V30 4231 O 410.206 4.03468 -1.70721 0
M  V30 4232 C 411.707 4.4327 0.0519152 0
M  V30 4233 H 408.927 0.654931 -0.145966 0
M  V30 4234 H 411.471 1.75686 -1.04665 0
M  V30 4235 H 409.626 3.86486 0.265978 0
M  V30 4236 H 410.04 4.97991 -1.64636 0
M  V30 4237 H 411.514 5.51995 -0.0236733 0
M  V30 4238 H 411.991 4.2514 1.10238 0
M  V30 4239 H 412.597 4.21471 -0.569415 0
M  V30 4240 N 410.912 0.523116 1.48665 0
M  V30 4241 C 412.323 0.0808997 1.86525 0
M  V30 4242 C 412.674 -1.33975 1.43336 0
M  V30 4243 O 411.799 -2.00221 0.821009 0
M  V30 4244 C 412.394 0.140037 3.3851 0
M  V30 4245 C 410.953 -0.246948 3.75589 0
M  V30 4246 C 410.1 0.502845 2.72703 0
M  V30 4247 H 413.051 0.734736 1.40667 0
M  V30 4248 H 413.072 -0.649945 3.74908 0
M  V30 4249 H 412.584 1.17412 3.69914 0
M  V30 4250 H 410.685 -1.28343 3.49798 0
M  V30 4251 H 410.798 0.0878859 4.79019 0
M  V30 4252 H 409.162 -0.0500581 2.54651 0
M  V30 4253 H 409.945 1.53743 3.0695 0
M  V30 4254 N 412.39 -1.55475 0.257931 0
M  V30 4255 C 413.639 -1.98383 -0.364275 0
M  V30 4256 C 413.952 -1.14952 -1.58258 0
M  V30 4257 O 415.158 -1.47924 -2.27664 0
M  V30 4258 C 413.614 -3.53037 -0.699479 0
M  V30 4259 C 413.222 -4.45223 0.498046 0
M  V30 4260 C 414.966 -4.04575 -1.28526 0
M  V30 4261 C 412.873 -5.91238 0.138383 0
M  V30 4262 H 411.803 -0.740911 -0.13988 0
M  V30 4263 H 414.454 -1.79936 0.359883 0
M  V30 4264 H 412.836 -3.6722 -1.48207 0
M  V30 4265 H 414.01 -4.42803 1.27522 0
M  V30 4266 H 412.325 -4.04226 0.999503 0
M  V30 4267 H 414.922 -5.11196 -1.56788 0
M  V30 4268 H 415.265 -3.5258 -2.21344 0
M  V30 4269 H 415.798 -3.93762 -0.565337 0
M  V30 4270 H 412.537 -6.47294 1.03398 0
M  V30 4271 H 412.057 -5.96768 -0.602374 0
M  V30 4272 H 413.736 -6.46413 -0.27553 0
M  V30 4273 N 413.868 0.0150385 -1.57593 0
M  V30 4274 C 414.831 0.995996 -2.06428 0
M  V30 4275 C 415.831 1.2818 -0.970903 0
M  V30 4276 O 417.021 1.22949 -1.23406 0
M  V30 4277 C 414.153 2.32506 -2.49307 0
M  V30 4278 H 415.346 0.573873 -2.94358 0
M  V30 4279 H 412.899 0.262186 -1.54085 0
M  V30 4280 H 413.634 2.79438 -1.64575 0
M  V30 4281 H 413.419 2.13087 -3.29145 0
M  V30 4282 H 414.909 3.02906 -2.87468 0
M  V30 4283 N 415.346 1.54954 0.287554 0
M  V30 4284 C 416.296 1.8322 1.357 0
M  V30 4285 C 417.28 0.690152 1.45347 0
M  V30 4286 O 418.472 0.951137 1.49273 0
M  V30 4287 C 415.601 2.09481 2.71979 0
M  V30 4288 C 414.687 3.29906 2.66502 0
M  V30 4289 N 415.078 4.50154 2.30641 0
M  V30 4290 C 413.376 3.32203 2.97585 0
M  V30 4291 C 414.077 5.32209 2.34794 0
M  V30 4292 N 413.053 4.70258 2.72688 0
M  V30 4293 H 416.855 2.73746 1.0696 0
M  V30 4294 H 414.369 1.54635 0.496167 0
M  V30 4295 H 416.366 2.27882 3.49107 0
M  V30 4296 H 415.026 1.2023 3.0162 0
M  V30 4297 H 416.037 4.76515 2.02865 0
M  V30 4298 H 412.714 2.53101 3.32034 0
M  V30 4299 H 414.104 6.38321 2.09753 0
M  V30 4300 N 416.824 -0.551391 1.4764 0
M  V30 4301 C 418.052 -1.33357 1.58189 0
M  V30 4302 C 418.467 -1.87342 0.234199 0
M  V30 4303 O 417.824 -1.65301 -0.77343 0
M  V30 4304 C 417.875 -2.49942 2.61173 0
M  V30 4305 O 417.596 -1.98187 3.90709 0
M  V30 4306 C 419.097 -3.42072 2.8196 0
M  V30 4307 H 416.317 -0.40631 0.533998 0
M  V30 4308 H 418.861 -0.667367 1.93304 0
M  V30 4309 H 417.016 -3.12489 2.28975 0
M  V30 4310 H 417.43 -2.74342 4.47031 0
M  V30 4311 H 418.904 -4.20278 3.57869 0
M  V30 4312 H 419.381 -3.95978 1.89995 0
M  V30 4313 H 419.987 -2.85336 3.15378 0
M  V30 4314 N 418.302 -1.35869 -0.798587 0
M  V30 4315 C 419.235 -1.23801 -1.91699 0
M  V30 4316 C 420.213 -0.124143 -1.62125 0
M  V30 4317 O 421.397 -0.293656 -1.86199 0
M  V30 4318 C 418.524 -0.908063 -3.263 0
M  V30 4319 C 417.57 -2.0351 -3.74815 0
M  V30 4320 S 418.403 -3.65183 -3.91665 0
M  V30 4321 C 419.559 -3.34283 -5.29156 0
M  V30 4322 H 419.792 -2.18466 -2.01643 0
M  V30 4323 H 417.325 -1.21178 -0.956833 0
M  V30 4324 H 419.283 -0.724506 -4.04056 0
M  V30 4325 H 417.944 0.0206584 -3.14093 0
M  V30 4326 H 417.137 -1.75858 -4.72324 0
M  V30 4327 H 416.739 -2.1774 -3.04081 0
M  V30 4328 H 419.031 -2.87607 -6.13424 0
M  V30 4329 H 419.974 -4.31022 -5.61806 0
M  V30 4330 H 420.382 -2.69854 -4.95822 0
M  V30 4331 N 419.78 1.02168 -1.19998 0
M  V30 4332 C 420.743 2.08765 -0.94604 0
M  V30 4333 C 421.743 1.60618 0.0763846 0
M  V30 4334 O 422.933 1.73472 -0.159135 0
M  V30 4335 C 420.065 3.38262 -0.423255 0
M  V30 4336 H 421.258 2.32726 -1.89153 0
M  V30 4337 H 418.811 1.1889 -1.01464 0
M  V30 4338 H 419.546 3.19974 0.527938 0
M  V30 4339 H 419.331 3.74532 -1.16053 0
M  V30 4340 H 420.821 4.16759 -0.264911 0
M  V30 4341 N 421.258 1.00505 1.21394 0
M  V30 4342 C 422.504 0.698477 1.91031 0
M  V30 4343 C 422.859 -0.762448 1.76648 0
M  V30 4344 O 422.152 -1.54554 1.13241 0
M  V30 4345 C 422.346 1.0546 3.41486 0
M  V30 4346 C 422.175 2.5486 3.70508 0
M  V30 4347 C 420.945 3.21461 3.8986 0
M  V30 4348 C 423.143 3.53019 3.74008 0
M  V30 4349 N 421.125 4.60211 4.06299 0
M  V30 4350 C 422.496 4.77279 3.95733 0
M  V30 4351 C 424.551 3.47154 3.56915 0
M  V30 4352 C 423.254 5.96388 4.02137 0
M  V30 4353 C 425.28 4.65652 3.64585 0
M  V30 4354 C 424.642 5.88717 3.86771 0
M  V30 4355 H 420.741 0.30707 0.719189 0
M  V30 4356 H 423.325 1.28753 1.46051 0
M  V30 4357 H 421.496 0.494007 3.85246 0
M  V30 4358 H 423.228 0.702765 3.98552 0
M  V30 4359 H 419.983 2.71906 3.87768 0
M  V30 4360 H 420.407 5.32216 4.1842 0
M  V30 4361 H 425.049 2.53015 3.38738 0
M  V30 4362 H 422.767 6.90919 4.19114 0
M  V30 4363 H 426.353 4.62717 3.52681 0
M  V30 4364 H 425.233 6.78877 3.92549 0
M  V30 4365 N 422.737 -1.36956 0.779787 0
M  V30 4366 C 424.148 -1.82094 0.412156 0
M  V30 4367 C 424.499 -1.64926 -1.06273 0
M  V30 4368 O 423.624 -1.16483 -1.82375 0
M  V30 4369 C 424.219 -3.3059 0.741319 0
M  V30 4370 C 422.778 -3.73974 0.426641 0
M  V30 4371 C 421.925 -2.59368 0.980987 0
M  V30 4372 H 424.876 -1.25314 0.973758 0
M  V30 4373 H 424.897 -3.80489 0.028887 0
M  V30 4374 H 424.409 -3.43054 1.81482 0
M  V30 4375 H 422.51 -3.67076 -0.639215 0
M  V30 4376 H 422.623 -4.69778 0.940515 0
M  V30 4377 H 420.987 -2.51463 0.404757 0
M  V30 4378 H 421.77 -2.74621 2.06005 0
M  V30 4379 N 424.215 -0.530993 -1.48385 0
M  V30 4380 C 425.163 0.244595 -2.3131 0
M  V30 4381 C 426.157 0.93451 -1.41291 0
M  V30 4382 O 427.363 0.85878 -1.58193 0
M  V30 4383 H 423.738 0.0977472 -0.74562 0
M  V30 4384 H 425.709 -0.474369 -2.94605 0
M  V30 4385 C 424.458 1.2779 -3.23365 0
M  V30 4386 H 423.781 0.756439 -3.92579 0
M  V30 4387 H 425.221 1.79198 -3.84271 0
M  V30 4388 C 423.68 2.31205 -2.45042 0
M  V30 4389 O 424.21 3.37661 -2.17596 0
M  V30 4390 N 422.416 2.04446 -2.0652 0
M  V30 4391 H 421.963 1.17891 -2.2904 0
M  V30 4392 H 421.921 2.73861 -1.54427 0
M  V30 4393 N 425.693 1.55336 -0.266172 0
M  V30 4394 C 427.109 1.59356 0.0882065 0
M  V30 4395 C 427.309 1.2834 1.55342 0
M  V30 4396 O 426.365 1.03996 2.30089 0
M  V30 4397 C 427.678 2.99409 -0.278364 0
M  V30 4398 C 429.226 3.12196 -0.224243 0
M  V30 4399 C 429.701 4.545 -0.565123 0
M  V30 4400 N 431.192 4.60313 -0.51634 0
M  V30 4401 C 431.927 5.68434 -0.753013 0
M  V30 4402 N 431.423 6.84738 -1.05383 0
M  V30 4403 N 433.216 5.57942 -0.682414 0
M  V30 4404 H 425.367 1.73764 -1.22147 0
M  V30 4405 H 427.63 0.809822 -0.492841 0
M  V30 4406 H 427.336 3.2691 -1.29703 0
M  V30 4407 H 427.21 3.75228 0.385186 0
M  V30 4408 H 429.597 2.84464 0.78512 0
M  V30 4409 H 429.678 2.38609 -0.921922 0
M  V30 4410 H 429.322 4.82956 -1.57213 0
M  V30 4411 H 429.252 5.26374 0.154248 0
M  V30 4412 H 431.743 3.7676 -0.29335 0
M  V30 4413 H 432.056 7.63088 -1.22133 0
M  V30 4414 H 430.401 6.86375 -1.09151 0
M  V30 4415 H 433.592 4.65958 -0.44731 0
M  V30 4416 H 433.765 6.4213 -0.870248 0
M  V30 4417 N 427.171 -0.0066808 1.57599 0
M  V30 4418 C 428.417 -0.693947 1.90558 0
M  V30 4419 C 428.75 -1.73792 0.866594 0
M  V30 4420 O 428.025 -1.94156 -0.115548 0
M  V30 4421 C 428.308 -1.34317 3.34112 0
M  V30 4422 C 428.161 -0.311189 4.48722 0
M  V30 4423 C 429.48 -2.27116 3.7697 0
M  V30 4424 H 426.599 -0.250803 0.693013 0
M  V30 4425 H 429.241 0.043242 1.89951 0
M  V30 4426 H 427.391 -1.9715 3.3476 0
M  V30 4427 H 429.063 0.316944 4.6021 0
M  V30 4428 H 427.306 0.367253 4.32243 0
M  V30 4429 H 427.977 -0.804366 5.46108 0
M  V30 4430 H 430.453 -1.74306 3.77831 0
M  V30 4431 H 429.329 -2.69511 4.78179 0
M  V30 4432 H 429.59 -3.14743 3.10466 0
M  V30 4433 N 428.649 -1.55105 -0.279332 0
M  V30 4434 C 429.597 -1.88333 -1.36505 0
M  V30 4435 C 430.591 -0.759043 -1.51443 0
M  V30 4436 O 431.797 -0.943312 -1.53302 0
M  V30 4437 H 428.172 -0.59766 -0.456406 0
M  V30 4438 H 430.143 -2.79041 -1.05728 0
M  V30 4439 C 428.892 -2.16628 -2.7197 0
M  V30 4440 H 428.215 -3.02624 -2.61264 0
M  V30 4441 H 429.655 -2.43803 -3.46895 0
M  V30 4442 C 428.114 -0.971807 -3.22579 0
M  V30 4443 O 428.644 -0.203228 -4.01186 0
M  V30 4444 N 426.85 -0.771238 -2.80179 0
M  V30 4445 H 426.397 -1.39792 -2.1637 0
M  V30 4446 H 426.355 0.0263667 -3.14389 0
M  V30 4447 N 430.127 0.543554 -1.4793 0
M  V30 4448 C 431.352 1.32995 -1.59145 0
M  V30 4449 C 431.777 1.86472 -0.246956 0
M  V30 4450 O 431.135 1.63696 0.779324 0
M  V30 4451 C 431.183 2.46623 -2.63077 0
M  V30 4452 O 430.287 3.49261 -2.19295 0
M  V30 4453 H 429.628 0.394472 -0.534124 0
M  V30 4454 H 432.158 0.655489 -1.93816 0
M  V30 4455 H 432.168 2.93001 -2.83926 0
M  V30 4456 H 430.843 2.07059 -3.60693 0
M  V30 4457 H 429.42 3.09094 -2.08603 0
M  V30 4458 N 431.605 1.3629 0.791371 0
M  V30 4459 C 432.853 1.30154 1.5461 0
M  V30 4460 C 433.174 -0.119409 1.94634 0
M  V30 4461 O 432.444 -1.05924 1.64794 0
M  V30 4462 H 431.024 0.478784 0.573389 0
M  V30 4463 H 433.686 1.70565 0.94306 0
M  V30 4464 H 432.782 1.92762 2.45457 0
M  V30 4465 N 433.083 -1.0153 1.20538 0
M  V30 4466 C 434.329 -1.75408 1.01783 0
M  V30 4467 C 434.662 -1.88943 -0.448814 0
M  V30 4468 O 433.937 -1.4162 -1.33319 0
M  V30 4469 C 434.22 -3.17255 1.70356 0
M  V30 4470 C 434.073 -3.11508 3.24473 0
M  V30 4471 C 435.392 -4.15955 1.43769 0
M  V30 4472 H 432.511 -0.636713 0.371167 0
M  V30 4473 H 435.153 -1.18436 1.4857 0
M  V30 4474 H 433.303 -3.65898 1.30578 0
M  V30 4475 H 434.975 -2.70658 3.73553 0
M  V30 4476 H 433.218 -2.4887 3.55311 0
M  V30 4477 H 433.889 -4.11784 3.67611 0
M  V30 4478 H 436.365 -3.75973 1.7828 0
M  V30 4479 H 435.241 -5.13368 1.94279 0
M  V30 4480 H 435.502 -4.40586 0.365564 0
M  V30 4481 N 434.561 -1.01147 -1.20859 0
M  V30 4482 C 435.508 -0.577354 -2.23462 0
M  V30 4483 C 436.478 0.399922 -1.61214 0
M  V30 4484 O 437.663 0.300515 -1.88419 0
M  V30 4485 C 434.803 0.083372 -3.44999 0
M  V30 4486 C 433.916 -0.937856 -4.21697 0
M  V30 4487 C 433.051 -0.248717 -5.30617 0
M  V30 4488 C 432.09 -1.25705 -5.99053 0
M  V30 4489 N 431.227 -0.594939 -6.99575 0
M  V30 4490 H 436.067 -1.45695 -2.59956 0
M  V30 4491 H 433.604 -0.729428 -1.27741 0
M  V30 4492 H 435.562 0.483535 -4.14388 0
M  V30 4493 H 434.192 0.926645 -3.09214 0
M  V30 4494 H 433.244 -1.45622 -3.51423 0
M  V30 4495 H 434.556 -1.70493 -4.68757 0
M  V30 4496 H 433.71 0.207215 -6.06346 0
M  V30 4497 H 432.449 0.55071 -4.84581 0
M  V30 4498 H 431.454 -1.72343 -5.2209 0
M  V30 4499 H 432.679 -2.05767 -6.47176 0
M  V30 4500 H 430.625 0.184713 -6.5574 0
M  V30 4501 H 430.542 -1.30017 -7.44736 0
M  V30 4502 H 431.81 -0.162427 -7.79331 0
M  V30 4503 N 436.039 1.36541 -0.78704 0
M  V30 4504 C 437.45 1.81873 -0.421807 0
M  V30 4505 C 437.801 1.65487 1.05397 0
M  V30 4506 O 436.926 1.17448 1.81755 0
M  V30 4507 C 437.521 3.30192 -0.758841 0
M  V30 4508 C 436.08 3.73743 -0.446468 0
M  V30 4509 C 435.227 2.58844 -0.994728 0
M  V30 4510 H 438.178 1.24796 -0.98039 0
M  V30 4511 H 438.199 3.80468 -0.0490648 0
M  V30 4512 H 437.711 3.42087 -1.83299 0
M  V30 4513 H 435.812 3.6741 0.619739 0
M  V30 4514 H 435.925 4.69272 -0.965415 0
M  V30 4515 H 434.289 2.51245 -0.418087 0
M  V30 4516 H 435.072 2.73525 -2.07458 0
M  V30 4517 N 437.518 0.538854 1.48102 0
M  V30 4518 C 438.448 -0.207654 2.32575 0
M  V30 4519 C 439.429 -0.926559 1.4265 0
M  V30 4520 O 440.614 -0.91061 1.71527 0
M  V30 4521 C 437.744 -1.24957 3.24042 0
M  V30 4522 C 436.698 -0.648263 4.23062 0
M  V30 4523 C 436.024 -1.79348 5.03725 0
M  V30 4524 C 437.324 0.385897 5.20872 0
M  V30 4525 H 439.018 0.497534 2.95237 0
M  V30 4526 H 436.564 0.240715 1.41974 0
M  V30 4527 H 438.517 -1.77983 3.81969 0
M  V30 4528 H 437.241 -1.98446 2.59397 0
M  V30 4529 H 435.9 -0.139452 3.66335 0
M  V30 4530 H 435.548 -2.51696 4.35498 0
M  V30 4531 H 435.248 -1.39702 5.70751 0
M  V30 4532 H 436.772 -2.32735 5.64506 0
M  V30 4533 H 438.186 -0.057607 5.73271 0
M  V30 4534 H 436.583 0.700227 5.96001 0
M  V30 4535 H 437.653 1.28848 4.67468 0
M  V30 4536 N 438.996 -1.55193 0.274407 0
M  V30 4537 C 440.273 -1.91584 -0.394331 0
M  V30 4538 C 440.653 -1.19858 -1.73774 0
M  V30 4539 O 440.001 -0.3252 -2.26174 0
M  V30 4540 C 440.211 -3.4487 -0.535311 0
M  V30 4541 C 441.559 -4.16636 -0.818534 0
M  V30 4542 O 442.583 -3.5076 -0.620146 0
M  V30 4543 O 441.442 -5.33209 -1.19792 0
M  V30 4544 H 438.536 -0.798349 -0.215794 0
M  V30 4545 H 441.082 -1.66646 0.320507 0
M  V30 4546 H 439.854 -3.89145 0.410141 0
M  V30 4547 H 439.477 -3.75759 -1.29964 0
M  V30 4548 N 440.474 -0.00167713 -1.576 0
M  V30 4549 C 441.721 0.68282 -1.90641 0
M  V30 4550 C 442.049 1.73686 -0.875415 0
M  V30 4551 O 441.304 1.95334 0.119575 0
M  V30 4552 C 441.603 1.36189 -3.30435 0
M  V30 4553 C 441.269 0.440887 -4.48739 0
M  V30 4554 C 439.931 0.187312 -4.80835 0
M  V30 4555 C 442.283 -0.193134 -5.20842 0
M  V30 4556 C 439.611 -0.70855 -5.82406 0
M  V30 4557 C 441.963 -1.07688 -6.23367 0
M  V30 4558 C 440.627 -1.33962 -6.53919 0
M  V30 4559 H 439.897 0.249862 -0.697603 0
M  V30 4560 H 442.544 -0.0575642 -1.91413 0
M  V30 4561 H 440.849 2.17636 -3.25794 0
M  V30 4562 H 442.546 1.89759 -3.5326 0
M  V30 4563 H 439.136 0.648694 -4.23663 0
M  V30 4564 H 443.32 -0.0102445 -4.96299 0
M  V30 4565 H 438.576 -0.920097 -6.04437 0
M  V30 4566 H 442.75 -1.57451 -6.78367 0
M  V30 4567 H 440.377 -2.03549 -7.32442 0
M  V30 4568 N 441.952 1.55251 0.271103 0
M  V30 4569 C 443.192 1.77698 1.01008 0
M  V30 4570 C 443.556 0.567246 1.83429 0
M  V30 4571 O 444.757 0.670013 2.60316 0
M  V30 4572 C 443.028 3.04715 1.86772 0
M  V30 4573 S 444.587 3.48289 2.66909 0
M  V30 4574 H 441.405 0.624343 0.340172 0
M  V30 4575 H 444.007 1.9348 0.280315 0
M  V30 4576 H 442.711 3.90853 1.25149 0
M  V30 4577 H 442.242 2.91604 2.64066 0
M  V30 4578 H 444.257 3.07712 3.89266 0
M  V30 4579 N 443.43 -0.535701 1.48216 0
M  V30 4580 C 444.377 -1.64083 1.62312 0
M  V30 4581 C 445.347 -1.59448 0.465365 0
M  V30 4582 O 446.532 -1.77959 0.688135 0
M  V30 4583 C 443.672 -3.0236 1.66349 0
M  V30 4584 C 442.785 -3.17273 2.93193 0
M  V30 4585 C 441.92 -4.46075 2.88427 0
M  V30 4586 C 440.959 -4.54496 4.1 0
M  V30 4587 N 440.096 -5.7468 4.03345 0
M  V30 4588 H 444.936 -1.51374 2.5669 0
M  V30 4589 H 442.473 -0.737059 1.27302 0
M  V30 4590 H 444.431 -3.82461 1.66672 0
M  V30 4591 H 443.061 -3.13854 0.754672 0
M  V30 4592 H 442.113 -2.30462 3.02641 0
M  V30 4593 H 443.425 -3.19357 3.83162 0
M  V30 4594 H 442.579 -5.3446 2.87119 0
M  V30 4595 H 441.318 -4.46504 1.96177 0
M  V30 4596 H 440.323 -3.64519 4.11589 0
M  V30 4597 H 441.548 -4.5581 5.03402 0
M  V30 4598 H 439.494 -5.76017 3.13912 0
M  V30 4599 H 439.411 -5.78234 4.87013 0
M  V30 4600 H 440.679 -6.65367 4.06087 0
M  V30 4601 N 444.908 -1.36708 -0.784132 0
M  V30 4602 C 445.838 -1.34153 -1.91116 0
M  V30 4603 C 446.819 -0.212121 -1.68772 0
M  V30 4604 O 448.004 -0.410581 -1.8981 0
M  V30 4605 C 445.134 -1.13535 -3.28218 0
M  V30 4606 C 444.088 -2.23356 -3.65097 0
M  V30 4607 C 443.414 -1.87875 -5.00607 0
M  V30 4608 C 444.714 -3.65473 -3.73131 0
M  V30 4609 H 446.408 -2.28459 -1.93512 0
M  V30 4610 H 443.954 -1.09973 -0.929618 0
M  V30 4611 H 445.907 -1.10381 -4.06687 0
M  V30 4612 H 444.631 -0.156804 -3.26223 0
M  V30 4613 H 443.29 -2.25645 -2.88929 0
M  V30 4614 H 442.938 -0.885814 -4.95139 0
M  V30 4615 H 442.638 -2.61406 -5.26252 0
M  V30 4616 H 444.162 -1.86286 -5.81489 0
M  V30 4617 H 445.576 -3.65382 -4.41779 0
M  V30 4618 H 443.973 -4.37953 -4.10265 0
M  V30 4619 H 445.043 -3.99995 -2.74102 0
M  V30 4620 N 446.386 1.0089 -1.21074 0
M  V30 4621 C 447.611 1.78727 -1.05221 0
M  V30 4622 C 448.036 1.83932 0.393795 0
M  V30 4623 O 447.394 1.28004 1.28393 0
M  V30 4624 C 447.442 3.20665 -1.64944 0
M  V30 4625 O 446.546 4.02632 -0.892273 0
M  V30 4626 H 445.887 0.550973 -0.370574 0
M  V30 4627 H 448.417 1.26847 -1.60534 0
M  V30 4628 H 448.427 3.71352 -1.69002 0
M  V30 4629 H 447.102 3.16191 -2.70177 0
M  V30 4630 H 445.679 3.61207 -0.926492 0
M  V30 4631 N 447.864 1.01787 1.20321 0
M  V30 4632 C 448.827 0.593972 2.2137 0
M  V30 4633 C 449.827 -0.336553 1.57239 0
M  V30 4634 O 451.017 -0.125069 1.7375 0
M  V30 4635 C 448.149 -0.132433 3.40643 0
M  V30 4636 H 449.342 1.48791 2.60387 0
M  V30 4637 H 446.895 0.807803 1.33807 0
M  V30 4638 H 447.63 -1.04123 3.0713 0
M  V30 4639 H 447.415 0.53605 3.88418 0
M  V30 4640 H 448.905 -0.416314 4.1552 0
M  V30 4641 N 449.342 -1.36122 0.79427 0
M  V30 4642 C 450.272 -2.32551 0.210328 0
M  V30 4643 C 451.253 -1.56884 -0.657386 0
M  V30 4644 O 452.438 -1.85014 -0.590207 0
M  V30 4645 C 449.568 -3.41128 -0.651819 0
M  V30 4646 C 448.522 -4.27842 0.116395 0
M  V30 4647 C 447.848 -5.2763 -0.86666 0
M  V30 4648 C 449.148 -5.05647 1.30837 0
M  V30 4649 H 450.842 -2.81636 1.01594 0
M  V30 4650 H 448.388 -1.35407 0.489981 0
M  V30 4651 H 450.341 -4.07581 -1.07031 0
M  V30 4652 H 449.065 -2.90622 -1.49019 0
M  V30 4653 H 447.724 -3.62952 0.515915 0
M  V30 4654 H 447.372 -4.73395 -1.70019 0
M  V30 4655 H 447.072 -5.86514 -0.35705 0
M  V30 4656 H 448.596 -5.96955 -1.28361 0
M  V30 4657 H 450.01 -5.65113 0.965393 0
M  V30 4658 H 448.407 -5.73967 1.75161 0
M  V30 4659 H 449.477 -4.37006 2.10128 0
M  V30 4660 N 450.82 -0.546701 -1.47814 0
M  V30 4661 C 452.048 -0.0232857 -2.06887 0
M  V30 4662 C 452.463 1.26571 -1.4009 0
M  V30 4663 O 451.82 1.7569 -0.493906 0
M  V30 4664 C 451.871 0.186975 -3.61016 0
M  V30 4665 O 451.592 -1.05097 -4.25307 0
M  V30 4666 C 453.093 0.748872 -4.36929 0
M  V30 4667 H 450.313 -0.0410763 -0.669742 0
M  V30 4668 H 452.857 -0.757117 -1.89968 0
M  V30 4669 H 451.012 0.870903 -3.77484 0
M  V30 4670 H 451.426 -0.842121 -5.17695 0
M  V30 4671 H 452.9 0.845334 -5.45489 0
M  V30 4672 H 453.377 1.75772 -4.02493 0
M  V30 4673 H 453.983 0.100979 -4.2518 0
M  V30 4674 N 452.299 1.55045 -0.282633 0
M  V30 4675 C 453.546 1.9976 0.33199 0
M  V30 4676 C 453.874 1.17105 1.55295 0
M  V30 4677 O 453.129 0.230599 1.94337 0
M  V30 4678 C 453.428 3.49422 0.750938 0
M  V30 4679 C 453.094 4.4941 -0.366228 0
M  V30 4680 C 451.756 4.76471 -0.672964 0
M  V30 4681 C 454.108 5.09054 -1.11864 0
M  V30 4682 C 451.436 5.60442 -1.73556 0
M  V30 4683 C 453.788 5.9418 -2.17102 0
M  V30 4684 C 452.452 6.19558 -2.48402 0
M  V30 4685 H 451.722 0.730974 0.121484 0
M  V30 4686 H 454.369 1.8732 -0.39791 0
M  V30 4687 H 452.674 3.59377 1.56063 0
M  V30 4688 H 454.371 3.81432 1.23736 0
M  V30 4689 H 450.961 4.2844 -0.117041 0
M  V30 4690 H 455.145 4.88165 -0.894925 0
M  V30 4691 H 450.401 5.78349 -1.983 0
M  V30 4692 H 454.575 6.39427 -2.75873 0
M  V30 4693 H 452.202 6.84417 -3.30874 0
M  V30 4694 N 453.777 0.010035 1.57597 0
M  V30 4695 C 454.74 -0.963029 2.07986 0
M  V30 4696 C 455.74 -1.26619 0.991173 0
M  V30 4697 O 456.93 -1.2097 1.25347 0
M  V30 4698 C 454.062 -2.2851 2.52974 0
M  V30 4699 H 455.255 -0.526971 2.95234 0
M  V30 4700 H 452.808 -0.237639 1.54483 0
M  V30 4701 H 453.543 -2.76784 1.69 0
M  V30 4702 H 453.328 -2.07824 3.32493 0
M  V30 4703 H 454.818 -2.98294 2.9225 0
M  V30 4704 N 455.255 -1.55392 -0.262866 0
M  V30 4705 C 456.218 -1.88181 -1.30846 0
M  V30 4706 C 457.218 -0.757079 -1.41862 0
M  V30 4707 O 458.408 -1.02519 -1.40838 0
M  V30 4708 C 455.54 -2.09609 -2.68844 0
M  V30 4709 H 456.733 -2.81659 -1.02997 0
M  V30 4710 H 454.286 -1.48039 -0.501414 0
M  V30 4711 H 455.021 -1.18547 -3.01856 0
M  V30 4712 H 454.806 -2.91508 -2.62231 0
M  V30 4713 H 456.296 -2.36215 -3.44372 0
M  V30 4714 N 456.733 0.527833 -1.48498 0
M  V30 4715 C 458.144 1.10975 -1.50138 0
M  V30 4716 C 458.495 1.943 -0.272378 0
M  V30 4717 O 457.62 2.07319 0.620301 0
M  V30 4718 C 458.215 2.01927 -2.72049 0
M  V30 4719 C 456.774 2.55332 -2.76554 0
M  V30 4720 C 455.921 1.32341 -2.43683 0
M  V30 4721 H 458.872 0.312986 -1.55583 0
M  V30 4722 H 458.893 2.86244 -2.50689 0
M  V30 4723 H 458.405 1.41254 -3.61481 0
M  V30 4724 H 456.506 3.19721 -1.91336 0
M  V30 4725 H 456.619 2.94319 -3.78038 0
M  V30 4726 H 454.983 1.63989 -1.94884 0
M  V30 4727 H 455.766 0.734165 -3.35358 0
M  V30 4728 N 458.211 1.37122 0.776871 0
M  V30 4729 C 459.488 1.22586 1.52421 0
M  V30 4730 C 459.868 -0.182726 2.10308 0
M  V30 4731 O 459.216 -1.18979 1.9508 0
M  V30 4732 C 459.426 2.31782 2.60918 0
M  V30 4733 C 460.774 2.69071 3.2846 0
M  V30 4734 O 461.798 2.3092 2.71209 0
M  V30 4735 O 460.657 3.3478 4.31954 0
M  V30 4736 H 457.751 0.478045 0.674835 0
M  V30 4737 H 460.297 1.48888 0.814275 0
M  V30 4738 H 459.069 3.26131 2.16227 0
M  V30 4739 H 458.692 2.06916 3.39517 0
M  V30 4740 N 459.689 -1.00246 1.21608 0
M  V30 4741 C 460.919 -1.77373 1.05935 0
M  V30 4742 C 461.327 -1.85059 -0.393686 0
M  V30 4743 O 460.67 -1.31289 -1.28487 0
M  V30 4744 C 460.732 -3.22705 1.58435 0
M  V30 4745 C 460.396 -3.38591 3.06929 0
M  V30 4746 C 461.393 -3.2667 4.04454 0
M  V30 4747 C 459.078 -3.6395 3.46187 0
M  V30 4748 C 461.072 -3.39877 5.39224 0
M  V30 4749 C 458.759 -3.768 4.81108 0
M  V30 4750 C 459.757 -3.6477 5.77436 0
M  V30 4751 O 459.445 -3.77206 7.09909 0
M  V30 4752 H 459.177 -0.56419 0.372378 0
M  V30 4753 H 461.731 -1.26971 1.61454 0
M  V30 4754 H 459.961 -3.74255 0.973147 0
M  V30 4755 H 461.65 -3.81515 1.38568 0
M  V30 4756 H 462.416 -3.06999 3.75468 0
M  V30 4757 H 458.295 -3.72395 2.71741 0
M  V30 4758 H 461.839 -3.30404 6.14393 0
M  V30 4759 H 457.736 -3.95975 5.09779 0
M  V30 4760 H 458.504 -3.94138 7.17355 0
M  V30 4761 N 461.167 -1.02423 -1.1978 0
M  V30 4762 C 462.444 -0.632802 -1.85081 0
M  V30 4763 C 462.824 0.888745 -1.9148 0
M  V30 4764 O 462.172 1.78357 -1.42832 0
M  V30 4765 C 462.382 -1.28947 -3.24305 0
M  V30 4766 C 463.73 -1.40976 -4.00513 0
M  V30 4767 O 464.754 -1.24628 -3.33686 0
M  V30 4768 O 463.613 -1.67467 -5.20209 0
M  V30 4769 H 460.707 -0.219348 -0.79738 0
M  V30 4770 H 463.253 -1.12209 -1.27307 0
M  V30 4771 H 462.025 -2.3288 -3.14456 0
M  V30 4772 H 461.648 -0.787748 -3.89718 0
M  V30 4773 N 462.645 1.35699 -0.801477 0
M  V30 4774 C 464.061 1.52065 -0.484596 0
M  V30 4775 C 464.261 1.75215 0.995084 0
M  V30 4776 O 463.317 1.79061 1.78026 0
M  V30 4777 C 464.63 2.69908 -1.32552 0
M  V30 4778 C 466.178 2.83784 -1.32044 0
M  V30 4779 C 466.653 4.04646 -2.14536 0
M  V30 4780 N 468.144 4.11814 -2.12046 0
M  V30 4781 C 468.879 5.04437 -2.72636 0
M  V30 4782 N 468.375 6.02426 -3.42133 0
M  V30 4783 N 470.168 4.97144 -2.62305 0
M  V30 4784 H 462.319 1.18928 -1.75983 0
M  V30 4785 H 464.582 0.581455 -0.748741 0
M  V30 4786 H 464.288 2.59363 -2.37537 0
M  V30 4787 H 464.162 3.64376 -0.975181 0
M  V30 4788 H 466.549 2.93783 -0.27846 0
M  V30 4789 H 466.63 1.90188 -1.71062 0
M  V30 4790 H 466.274 3.95407 -3.18772 0
M  V30 4791 H 466.204 4.97413 -1.72882 0
M  V30 4792 H 468.695 3.41664 -1.61476 0
M  V30 4793 H 469.008 6.69688 -3.85666 0
M  V30 4794 H 467.353 6.02615 -3.46237 0
M  V30 4795 H 470.544 4.19546 -2.07603 0
M  V30 4796 H 470.717 5.69138 -3.09815 0
M  V30 4797 N 464.123 0.554532 1.47522 0
M  V30 4798 C 465.353 0.0342074 2.06572 0
M  V30 4799 C 465.761 -1.26375 1.40805 0
M  V30 4800 O 465.104 -1.7683 0.49769 0
M  V30 4801 C 465.166 -0.235096 3.5873 0
M  V30 4802 C 464.83 0.973024 4.46521 0
M  V30 4803 C 465.827 1.8779 4.848 0
M  V30 4804 C 463.512 1.18694 4.88075 0
M  V30 4805 C 465.506 2.98039 5.63428 0
M  V30 4806 C 463.193 2.29254 5.66468 0
M  V30 4807 C 464.191 3.18757 6.04055 0
M  V30 4808 O 463.879 4.27401 6.8087 0
M  V30 4809 H 463.611 0.041587 0.67472 0
M  V30 4810 H 466.165 0.766748 1.90552 0
M  V30 4811 H 464.395 -1.02191 3.72953 0
M  V30 4812 H 466.084 -0.700477 3.9981 0
M  V30 4813 H 466.85 1.72467 4.53299 0
M  V30 4814 H 462.729 0.49947 4.58286 0
M  V30 4815 H 466.273 3.67926 5.92685 0
M  V30 4816 H 462.17 2.4455 5.97382 0
M  V30 4817 H 462.938 4.25415 6.9926 0
M  V30 4818 N 465.601 -1.54893 0.290851 0
M  V30 4819 C 467.012 -1.85584 -0.203816 0
M  V30 4820 C 467.363 -1.21285 -1.54222 0
M  V30 4821 O 466.488 -0.506841 -2.10381 0
M  V30 4822 C 467.083 -3.367 -0.376595 0
M  V30 4823 C 465.642 -3.6746 -0.815485 0
M  V30 4824 C 464.789 -2.77178 0.0821087 0
M  V30 4825 H 467.74 -1.50208 0.512175 0
M  V30 4826 H 467.761 -3.60656 -1.21275 0
M  V30 4827 H 467.273 -3.8347 0.59767 0
M  V30 4828 H 465.374 -3.26201 -1.80066 0
M  V30 4829 H 465.487 -4.7478 -0.641905 0
M  V30 4830 H 463.851 -2.50925 -0.436895 0
M  V30 4831 H 464.634 -3.26767 1.05254 0
M  V30 4832 N 467.08 -0.0183926 -1.57589 0
M  V30 4833 C 468.32 0.666846 -1.93216 0
M  V30 4834 C 468.684 1.69905 -0.894215 0
M  V30 4835 O 469.885 2.436 -1.13633 0
M  V30 4836 C 468.156 1.27684 -3.33814 0
M  V30 4837 S 469.715 1.98464 -3.91353 0
M  V30 4838 H 466.533 0.219826 -0.676164 0
M  V30 4839 H 469.135 -0.0794893 -1.95338 0
M  V30 4840 H 467.839 0.513006 -4.07181 0
M  V30 4841 H 467.37 2.06071 -3.3511 0
M  V30 4842 H 469.385 3.26189 -3.73918 0
M  V30 4843 N 468.558 1.5553 0.254621 0
M  V30 4844 C 469.488 1.9268 1.31897 0
M  V30 4845 C 470.469 0.790797 1.506 0
M  V30 4846 O 471.654 1.05045 1.63337 0
M  V30 4847 C 468.784 2.21477 2.67517 0
M  V30 4848 C 467.738 3.37256 2.63519 0
M  V30 4849 C 467.064 3.51576 4.02862 0
M  V30 4850 C 468.364 4.73157 2.21179 0
M  V30 4851 H 470.058 2.81832 1.01051 0
M  V30 4852 H 467.604 1.35599 0.484662 0
M  V30 4853 H 469.557 2.46055 3.42104 0
M  V30 4854 H 468.281 1.29144 2.99982 0
M  V30 4855 H 466.94 3.12675 1.9139 0
M  V30 4856 H 466.588 2.56676 4.32581 0
M  V30 4857 H 466.288 4.2943 4.01078 0
M  V30 4858 H 467.812 3.78467 4.79161 0
M  V30 4859 H 469.226 4.97158 2.85494 0
M  V30 4860 H 467.623 5.54058 2.30521 0
M  V30 4861 H 468.693 4.70739 1.16332 0
M  V30 4862 N 470.036 -0.519951 1.48776 0
M  V30 4863 C 470.983 -1.62352 1.64044 0
M  V30 4864 C 471.953 -1.58945 0.482251 0
M  V30 4865 O 473.138 -1.77219 0.706971 0
M  V30 4866 C 470.278 -3.00579 1.69547 0
M  V30 4867 C 469.391 -3.14145 2.96541 0
M  V30 4868 C 468.526 -4.42991 2.93142 0
M  V30 4869 C 467.565 -4.50122 4.14797 0
M  V30 4870 N 466.702 -5.7037 4.09418 0
M  V30 4871 H 471.542 -1.48643 2.58281 0
M  V30 4872 H 469.079 -0.723516 1.28077 0
M  V30 4873 H 471.037 -3.80671 1.70719 0
M  V30 4874 H 469.667 -3.13036 0.787918 0
M  V30 4875 H 468.719 -2.27239 3.05068 0
M  V30 4876 H 470.031 -3.15275 3.86527 0
M  V30 4877 H 469.185 -5.31385 2.92772 0
M  V30 4878 H 467.924 -4.44398 2.00902 0
M  V30 4879 H 466.929 -3.60133 4.15433 0
M  V30 4880 H 468.154 -4.50445 5.08208 0
M  V30 4881 H 466.1 -5.72655 3.20004 0
M  V30 4882 H 466.017 -5.73036 4.93119 0
M  V30 4883 H 467.285 -6.61023 4.13121 0
M  V30 4884 N 471.514 -1.37532 -0.769588 0
M  V30 4885 C 472.444 -1.36172 -1.89682 0
M  V30 4886 C 473.425 -0.23001 -1.68538 0
M  V30 4887 O 474.61 -0.43069 -1.89364 0
M  V30 4888 C 471.74 -1.1701 -3.26995 0
M  V30 4889 C 470.694 -2.27216 -3.62708 0
M  V30 4890 C 470.02 -1.93174 -4.98586 0
M  V30 4891 C 471.32 -3.6941 -3.69234 0
M  V30 4892 H 473.014 -2.30499 -1.91078 0
M  V30 4893 H 470.56 -1.10953 -0.917902 0
M  V30 4894 H 472.513 -1.14688 -4.05493 0
M  V30 4895 H 471.237 -0.191395 -3.26039 0
M  V30 4896 H 469.896 -2.28697 -2.86519 0
M  V30 4897 H 469.544 -0.938281 -4.94171 0
M  V30 4898 H 469.244 -2.66973 -5.23449 0
M  V30 4899 H 470.768 -1.92443 -5.79481 0
M  V30 4900 H 472.182 -3.70047 -4.37879 0
M  V30 4901 H 470.579 -4.4228 -4.05597 0
M  V30 4902 H 471.649 -4.0288 -2.69844 0
M  V30 4903 N 472.992 0.995999 -1.22138 0
M  V30 4904 C 473.955 2.06711 -0.990109 0
M  V30 4905 C 474.955 1.60744 0.0422978 0
M  V30 4906 O 476.145 1.73095 -0.195895 0
M  V30 4907 C 473.277 3.37288 -0.49491 0
M  V30 4908 H 474.47 2.28661 -1.94047 0
M  V30 4909 H 472.023 1.16711 -1.03963 0
M  V30 4910 H 472.758 3.21022 0.459948 0
M  V30 4911 H 472.543 3.71986 -1.23971 0
M  V30 4912 H 474.033 4.16103 -0.353253 0
M  V30 4913 N 474.47 1.03057 1.19235 0
M  V30 4914 C 475.403 0.557384 2.21288 0
M  V30 4915 C 476.381 -0.402675 1.57535 0
M  V30 4916 O 477.565 -0.319376 1.85775 0
M  V30 4917 C 474.692 -0.187041 3.38183 0
M  V30 4918 C 473.738 0.72471 4.20298 0
M  V30 4919 S 474.571 2.20187 4.88137 0
M  V30 4920 C 475.727 1.46801 6.08441 0
M  V30 4921 H 475.96 1.42207 2.61083 0
M  V30 4922 H 473.493 0.840651 1.29508 0
M  V30 4923 H 475.451 -0.610405 4.05936 0
M  V30 4924 H 474.112 -1.02748 2.96819 0
M  V30 4925 H 473.305 0.149911 5.03777 0
M  V30 4926 H 472.907 1.08647 3.57871 0
M  V30 4927 H 475.199 0.755522 6.73274 0
M  V30 4928 H 476.142 2.27946 6.70407 0
M  V30 4929 H 476.55 0.964762 5.56195 0
M  V30 4930 N 475.948 -1.35272 0.808662 0
M  V30 4931 C 476.858 -2.33546 0.222079 0
M  V30 4932 C 477.874 -1.6196 -0.636011 0
M  V30 4933 O 479.05 -1.93822 -0.547274 0
M  V30 4934 C 476.115 -3.41148 -0.61795 0
M  V30 4935 C 475.176 -4.28507 0.260875 0
M  V30 4936 C 474.409 -5.3097 -0.539156 0
M  V30 4937 O 474.632 -5.42123 -1.77367 0
M  V30 4938 O 473.566 -6.01858 0.0710526 0
M  V30 4939 H 477.392 -2.85515 1.03512 0
M  V30 4940 H 474.977 -1.38079 0.570495 0
M  V30 4941 H 476.859 -4.06889 -1.09634 0
M  V30 4942 H 475.534 -2.91447 -1.40855 0
M  V30 4943 H 474.441 -3.6574 0.786451 0
M  V30 4944 H 475.774 -4.81611 1.01547 0
M  V30 4945 N 477.426 -0.562348 -1.47226 0
M  V30 4946 C 478.389 0.172056 -2.28553 0
M  V30 4947 C 479.389 0.837928 -1.37242 0
M  V30 4948 O 480.579 0.693001 -1.59822 0
M  V30 4949 C 477.711 1.25223 -3.17068 0
M  V30 4950 H 478.904 -0.542401 -2.94954 0
M  V30 4951 H 476.457 -0.319493 -1.53 0
M  V30 4952 H 477.192 1.99892 -2.55369 0
M  V30 4953 H 476.977 0.779515 -3.84273 0
M  V30 4954 H 478.467 1.76791 -3.78332 0
M  V30 4955 N 478.904 1.54736 -0.299062 0
M  V30 4956 C 480.151 2.00101 0.310784 0
M  V30 4957 C 480.479 1.18746 1.54045 0
M  V30 4958 O 479.734 0.251198 1.94081 0
M  V30 4959 C 480.033 3.50199 0.713835 0
M  V30 4960 C 479.699 4.48997 -0.413873 0
M  V30 4961 C 478.361 4.7573 -0.723462 0
M  V30 4962 C 480.713 5.07839 -1.17257 0
M  V30 4963 C 478.041 5.5857 -1.79491 0
M  V30 4964 C 480.393 5.91844 -2.23392 0
M  V30 4965 C 479.057 6.16889 -2.54959 0
M  V30 4966 H 478.327 0.732221 0.113724 0
M  V30 4967 H 480.974 1.86888 -0.417756 0
M  V30 4968 H 479.279 3.61012 1.52243 0
M  V30 4969 H 480.976 3.82723 1.19684 0
M  V30 4970 H 477.566 4.28292 -0.162476 0
M  V30 4971 H 481.75 4.87188 -0.946651 0
M  V30 4972 H 477.006 5.76213 -2.04423 0
M  V30 4973 H 481.18 6.36465 -2.8264 0
M  V30 4974 H 478.807 6.80869 -3.38114 0
M  V30 4975 N 480.382 0.0267497 1.57577 0
M  V30 4976 C 481.292 -0.971633 2.13533 0
M  V30 4977 C 482.308 -1.35868 1.08701 0
M  V30 4978 O 483.484 -1.44058 1.40746 0
M  V30 4979 C 480.549 -2.23622 2.64941 0
M  V30 4980 C 479.61 -1.90982 3.8448 0
M  V30 4981 C 478.843 -3.11411 4.33427 0
M  V30 4982 O 479.066 -4.23992 3.81558 0
M  V30 4983 O 478 -2.93848 5.25297 0
M  V30 4984 H 481.826 -0.525853 2.99113 0
M  V30 4985 H 479.411 -0.193712 1.48139 0
M  V30 4986 H 481.293 -2.97864 2.98086 0
M  V30 4987 H 479.968 -2.67386 1.82446 0
M  V30 4988 H 478.875 -1.14132 3.56265 0
M  V30 4989 H 480.208 -1.52036 4.6813 0
M  V30 4990 N 481.861 -1.55662 -0.24637 0
M  V30 4991 C 482.793 -1.86811 -1.32794 0
M  V30 4992 C 483.806 -0.754413 -1.44265 0
M  V30 4993 O 484.995 -1.03253 -1.45606 0
M  V30 4994 C 482.095 -2.0397 -2.70646 0
M  V30 4995 C 481.268 -3.34832 -2.81436 0
M  V30 4996 C 480.327 -3.41727 -4.00136 0
M  V30 4997 O 479.353 -4.14934 -3.89639 0
M  V30 4998 N 480.555 -2.71058 -5.1333 0
M  V30 4999 H 483.32 -2.80174 -1.06409 0
M  V30 5000 H 480.881 -1.55906 -0.43647 0
M  V30 5001 H 482.873 -2.05924 -3.48393 0
M  V30 5002 H 481.443 -1.1735 -2.89738 0
M  V30 5003 H 480.663 -3.4519 -1.90361 0
M  V30 5004 H 481.951 -4.21085 -2.85595 0
M  V30 5005 H 481.349 -2.11314 -5.2475 0
M  V30 5006 H 479.906 -2.78704 -5.89209 0
M  V30 5007 N 483.339 0.512053 -1.4905 0
M  V30 5008 C 484.587 1.26436 -1.57665 0
M  V30 5009 C 484.908 1.93255 -0.260293 0
M  V30 5010 O 484.178 1.82206 0.719564 0
M  V30 5011 H 482.758 0.469658 -0.580888 0
M  V30 5012 H 485.42 0.594398 -1.85615 0
M  V30 5013 H 484.516 2.03417 -2.36702 0
M  V30 5014 N 484.817 1.37938 0.762283 0
M  V30 5015 C 485.749 1.30349 1.88525 0
M  V30 5016 C 486.762 0.217402 1.61342 0
M  V30 5017 O 487.951 0.474291 1.72084 0
M  V30 5018 C 485.051 0.994844 3.23969 0
M  V30 5019 C 484.224 2.18829 3.78725 0
M  V30 5020 C 483.283 1.84844 4.92665 0
M  V30 5021 O 482.309 2.57244 5.07754 0
M  V30 5022 N 483.511 0.798201 5.74986 0
M  V30 5023 H 486.276 2.27114 1.95549 0
M  V30 5024 H 483.837 1.31686 0.941825 0
M  V30 5025 H 485.829 0.748168 3.97724 0
M  V30 5026 H 484.399 0.115446 3.12387 0
M  V30 5027 H 483.619 2.59615 2.96637 0
M  V30 5028 H 484.907 2.98497 4.1204 0
M  V30 5029 H 484.305 0.197611 5.65355 0
M  V30 5030 H 482.862 0.611396 6.48926 0
M  V30 5031 N 486.295 -0.989507 1.22664 0
M  V30 5032 C 487.258 -2.06183 1.00106 0
M  V30 5033 C 488.258 -1.60765 -0.0337726 0
M  V30 5034 O 489.448 -1.72989 0.205072 0
M  V30 5035 C 486.58 -3.37021 0.51279 0
M  V30 5036 H 487.773 -2.27629 1.95256 0
M  V30 5037 H 485.326 -1.16158 1.0458 0
M  V30 5038 H 486.061 -3.21261 -0.442917 0
M  V30 5039 H 485.846 -3.71323 1.25942 0
M  V30 5040 H 487.336 -4.1591 0.375315 0
M  V30 5041 N 487.773 -1.03688 -1.18687 0
M  V30 5042 C 488.736 -0.629115 -2.20397 0
M  V30 5043 C 489.736 0.311495 -1.57754 0
M  V30 5044 O 490.926 0.0974107 -1.73927 0
M  V30 5045 C 488.058 0.0782231 -3.4081 0
M  V30 5046 H 489.251 -1.52915 -2.57987 0
M  V30 5047 H 486.804 -0.828988 -1.32505 0
M  V30 5048 H 487.539 0.992233 -3.08748 0
M  V30 5049 H 487.324 -0.597776 -3.87517 0
M  V30 5050 H 488.814 0.350156 -4.16129 0
M  V30 5051 N 489.251 1.34841 -0.815825 0
M  V30 5052 C 490.479 2.0273 -0.413294 0
M  V30 5053 C 490.894 1.61459 0.978599 0
M  V30 5054 O 490.251 0.816584 1.63212 0
M  V30 5055 C 490.302 3.58058 -0.497676 0
M  V30 5056 O 490.023 3.97832 -1.8347 0
M  V30 5057 C 491.524 4.4321 -0.0891339 0
M  V30 5058 H 488.744 0.649956 -0.166728 0
M  V30 5059 H 491.288 1.72267 -1.10201 0
M  V30 5060 H 489.443 3.87136 0.142886 0
M  V30 5061 H 489.857 4.92501 -1.80396 0
M  V30 5062 H 491.331 5.5164 -0.199274 0
M  V30 5063 H 491.808 4.28432 0.966571 0
M  V30 5064 H 492.414 4.19446 -0.703214 0
M  V30 5065 N 490.729 0.570148 1.46925 0
M  V30 5066 C 491.957 0.0561966 2.06824 0
M  V30 5067 C 492.372 -1.24326 1.42086 0
M  V30 5068 O 491.729 -1.74882 0.521794 0
M  V30 5069 C 491.78 -0.129517 3.61268 0
M  V30 5070 O 491.501 1.1185 4.23581 0
M  V30 5071 C 493.002 -0.679266 4.38065 0
M  V30 5072 H 490.222 0.0517261 0.669003 0
M  V30 5073 H 492.766 0.787243 1.8874 0
M  V30 5074 H 490.921 -0.810739 3.78822 0
M  V30 5075 H 491.335 0.924375 5.1629 0
M  V30 5076 H 492.809 -0.758445 5.46765 0
M  V30 5077 H 493.286 -1.69346 4.05239 0
M  V30 5078 H 493.892 -0.0333237 4.25287 0
M  V30 5079 N 492.207 -1.54576 0.307264 0
M  V30 5080 C 493.17 -2.22423 -0.553224 0
M  V30 5081 C 494.17 -1.21231 -1.05639 0
M  V30 5082 O 495.36 -1.45923 -0.951419 0
M  V30 5083 C 492.492 -2.91552 -1.76664 0
M  V30 5084 H 493.685 -2.99874 0.0396484 0
M  V30 5085 H 491.238 -1.56192 0.0581629 0
M  V30 5086 H 491.973 -2.18196 -2.39918 0
M  V30 5087 H 491.758 -3.65738 -1.41343 0
M  V30 5088 H 493.248 -3.43292 -2.37783 0
M  V30 5089 N 493.685 -0.035106 -1.57561 0
M  V30 5090 C 494.615 0.942993 -2.13612 0
M  V30 5091 C 495.596 1.33531 -1.05373 0
M  V30 5092 O 496.781 1.41287 -1.33235 0
M  V30 5093 C 493.911 2.22332 -2.66807 0
M  V30 5094 C 492.865 1.97156 -3.79886 0
M  V30 5095 C 492.191 3.31506 -4.19533 0
M  V30 5096 C 493.491 1.30596 -5.05709 0
M  V30 5097 H 495.185 0.476179 -2.95589 0
M  V30 5098 H 492.731 0.227602 -1.4219 0
M  V30 5099 H 494.684 2.91142 -3.04654 0
M  V30 5100 H 493.408 2.7119 -1.81999 0
M  V30 5101 H 492.067 1.30763 -3.42486 0
M  V30 5102 H 491.715 3.78134 -3.31698 0
M  V30 5103 H 491.415 3.15465 -4.95738 0
M  V30 5104 H 492.939 4.01574 -4.59968 0
M  V30 5105 H 494.353 1.89416 -5.41105 0
M  V30 5106 H 492.75 1.24934 -5.86951 0
M  V30 5107 H 493.82 0.279742 -4.84092 0
M  V30 5108 N 495.163 1.55791 0.238111 0
M  V30 5109 C 496.111 1.91885 1.31464 0
M  V30 5110 C 497.105 0.798929 1.49377 0
M  V30 5111 O 498.311 0.983626 1.50747 0
M  V30 5112 H 494.686 0.609551 0.440399 0
M  V30 5113 H 496.657 2.81747 0.982925 0
M  V30 5114 C 495.406 2.23763 2.6613 0
M  V30 5115 H 494.729 3.09444 2.53149 0
M  V30 5116 H 496.169 2.52915 3.40309 0
M  V30 5117 C 494.628 1.05699 3.1989 0
M  V30 5118 O 495.158 0.309524 4.00506 0
M  V30 5119 N 493.364 0.845251 2.78036 0
M  V30 5120 H 492.911 1.4548 2.12588 0
M  V30 5121 H 492.869 0.0569973 3.14348 0
M  V30 5122 N 496.642 -0.504142 1.49319 0
M  V30 5123 C 497.605 -1.5883 1.65244 0
M  V30 5124 C 498.605 -1.52009 0.524386 0
M  V30 5125 O 499.795 -1.55218 0.79077 0
M  V30 5126 C 496.927 -2.98481 1.64687 0
M  V30 5127 H 498.12 -1.4604 2.61939 0
M  V30 5128 H 495.673 -0.728144 1.38303 0
M  V30 5129 H 496.408 -3.16751 0.695644 0
M  V30 5130 H 496.193 -3.0484 2.46607 0
M  V30 5131 H 497.683 -3.77256 1.79075 0
M  V30 5132 N 498.12 -1.38341 -0.754957 0
M  V30 5133 C 499.083 -1.35262 -1.85032 0
M  V30 5134 C 500.083 -0.253393 -1.58791 0
M  V30 5135 O 501.273 -0.510205 -1.66561 0
M  V30 5136 C 498.405 -1.10544 -3.22479 0
M  V30 5137 H 499.598 -2.32712 -1.8917 0
M  V30 5138 H 497.151 -1.23614 -0.956515 0
M  V30 5139 H 497.886 -0.136952 -3.24011 0
M  V30 5140 H 497.671 -1.90127 -3.4292 0
M  V30 5141 H 499.161 -1.11082 -4.02555 0
M  V30 5142 N 499.598 0.982988 -1.23187 0
M  V30 5143 C 500.546 2.09616 -1.00817 0
M  V30 5144 C 501.54 1.6932 0.0519995 0
M  V30 5145 O 502.746 1.79715 -0.101284 0
M  V30 5146 H 499.121 0.685628 -0.308899 0
M  V30 5147 H 501.092 2.25652 -1.95253 0
M  V30 5148 C 499.841 3.42249 -0.613243 0
M  V30 5149 H 499.164 3.73705 -1.42073 0
M  V30 5150 H 500.604 4.21086 -0.496208 0
M  V30 5151 C 499.063 3.30002 0.678233 0
M  V30 5152 O 499.593 3.6263 1.72807 0
M  V30 5153 N 497.799 2.83164 0.653165 0
M  V30 5154 H 497.346 2.56811 -0.201492 0
M  V30 5155 H 497.304 2.75352 1.51752 0
M  V30 5156 N 501.076 1.04316 1.18135 0
M  V30 5157 C 501.986 0.646876 2.25505 0
M  V30 5158 C 503.002 -0.328008 1.7088 0
M  V30 5159 O 504.178 -0.182309 2.00573 0
M  V30 5160 C 501.243 0.0185664 3.46695 0
M  V30 5161 C 500.304 1.04277 4.16443 0
M  V30 5162 C 499.537 0.444352 5.31847 0
M  V30 5163 O 499.76 -0.748735 5.65465 0
M  V30 5164 O 498.694 1.17428 5.90334 0
M  V30 5165 H 502.52 1.54147 2.61672 0
M  V30 5166 H 500.105 0.814188 1.25265 0
M  V30 5167 H 501.987 -0.331068 4.20097 0
M  V30 5168 H 500.662 -0.849814 3.12346 0
M  V30 5169 H 499.569 1.44425 3.45098 0
M  V30 5170 H 500.902 1.882 4.54798 0
M  V30 5171 N 502.554 -1.34406 0.822964 0
M  V30 5172 C 503.803 -1.97542 0.407458 0
M  V30 5173 C 504.116 -1.65973 -1.035 0
M  V30 5174 O 505.322 -2.22598 -1.55442 0
M  V30 5175 C 503.778 -3.53463 0.677623 0
M  V30 5176 C 503.386 -3.93925 2.1337 0
M  V30 5177 C 505.13 -4.23229 0.328284 0
M  V30 5178 C 503.037 -5.42759 2.34876 0
M  V30 5179 H 501.967 -0.739207 0.148623 0
M  V30 5180 H 504.618 -1.53248 1.00932 0
M  V30 5181 H 503 -3.96 0.00558965 0
M  V30 5182 H 504.174 -3.62494 2.8449 0
M  V30 5183 H 502.489 -3.37097 2.44448 0
M  V30 5184 H 505.086 -5.32659 0.466794 0
M  V30 5185 H 505.429 -4.09899 -0.727224 0
M  V30 5186 H 505.962 -3.86169 0.954896 0
M  V30 5187 H 502.701 -5.61075 3.38932 0
M  V30 5188 H 502.221 -5.75704 1.68299 0
M  V30 5189 H 503.9 -6.0944 2.17236 0
M  V30 5190 N 504.032 -0.577932 -1.46621 0
M  V30 5191 C 505.26 -0.0671642 -2.06791 0
M  V30 5192 C 505.675 1.23571 -1.42743 0
M  V30 5193 O 505.032 1.74602 -0.531062 0
M  V30 5194 C 505.083 0.110357 -3.61332 0
M  V30 5195 O 504.804 -1.14095 -4.22982 0
M  V30 5196 C 506.305 0.656025 -4.38419 0
M  V30 5197 H 503.525 -0.0552732 -0.66872 0
M  V30 5198 H 506.069 -0.797242 -1.8832 0
M  V30 5199 H 504.224 0.790637 -3.79246 0
M  V30 5200 H 504.638 -0.951742 -5.15793 0
M  V30 5201 H 506.112 0.729438 -5.47159 0
M  V30 5202 H 506.589 1.67195 -4.06131 0
M  V30 5203 H 507.195 0.0107692 -4.25299 0
M  V30 5204 N 505.51 1.54411 -0.315457 0
M  V30 5205 C 506.756 2.00716 0.289972 0
M  V30 5206 C 507.089 1.2034 1.5242 0
M  V30 5207 O 506.364 0.283579 1.92422 0
M  V30 5208 C 506.647 3.54507 0.632196 0
M  V30 5209 C 506.5 4.45615 -0.61218 0
M  V30 5210 C 507.819 4.15421 1.45305 0
M  V30 5211 H 504.938 0.729637 0.10392 0
M  V30 5212 H 507.58 1.8506 -0.430427 0
M  V30 5213 H 505.73 3.67979 1.24595 0
M  V30 5214 H 507.402 4.44026 -1.25053 0
M  V30 5215 H 505.645 4.15621 -1.24264 0
M  V30 5216 H 506.316 5.51022 -0.328379 0
M  V30 5217 H 508.792 4.05474 0.934331 0
M  V30 5218 H 507.668 5.23157 1.66127 0
M  V30 5219 H 507.929 3.68223 2.44671 0
M  V30 5220 N 506.988 0.0434614 1.5754 0
M  V30 5221 C 507.951 -0.918696 2.09982 0
M  V30 5222 C 508.951 -1.24488 1.01781 0
M  V30 5223 O 510.141 -1.18284 1.27885 0
M  V30 5224 C 507.273 -2.23093 2.57764 0
M  V30 5225 H 508.466 -0.464229 2.96285 0
M  V30 5226 H 506.019 -0.204818 1.54952 0
M  V30 5227 H 506.754 -2.73137 1.74832 0
M  V30 5228 H 506.539 -2.00724 3.36827 0
M  V30 5229 H 508.029 -2.92028 2.98512 0
M  V30 5230 N 508.466 -1.55915 -0.229846 0
M  V30 5231 C 509.429 -1.90914 -1.26824 0
M  V30 5232 C 510.429 -0.786999 -1.40225 0
M  V30 5233 O 511.619 -1.05484 -1.38632 0
M  V30 5234 C 508.751 -2.15264 -2.64337 0
M  V30 5235 H 509.944 -2.8378 -0.969998 0
M  V30 5236 H 507.497 -1.49069 -0.4699 0
M  V30 5237 H 508.232 -1.24923 -2.99274 0
M  V30 5238 H 508.017 -2.97005 -2.55989 0
M  V30 5239 H 509.507 -2.43467 -3.39284 0
M  V30 5240 N 509.944 0.496216 -1.49584 0
M  V30 5241 C 511.191 1.25003 -1.59312 0
M  V30 5242 C 511.519 1.92445 -0.28198 0
M  V30 5243 O 510.774 1.81557 0.730452 0
M  V30 5244 C 511.073 2.3359 -2.705 0
M  V30 5245 C 510.739 1.83574 -4.11839 0
M  V30 5246 C 509.401 1.69653 -4.50302 0
M  V30 5247 C 511.753 1.46193 -5.00277 0
M  V30 5248 C 509.081 1.16736 -5.74969 0
M  V30 5249 C 511.433 0.947265 -6.25468 0
M  V30 5250 C 510.097 0.794485 -6.62755 0
M  V30 5251 H 509.367 0.45742 -0.582965 0
M  V30 5252 H 512.014 0.549996 -1.83432 0
M  V30 5253 H 510.319 3.09401 -2.40371 0
M  V30 5254 H 512.016 2.91627 -2.75235 0
M  V30 5255 H 508.606 1.9537 -3.81482 0
M  V30 5256 H 512.79 1.55793 -4.71214 0
M  V30 5257 H 508.046 1.03623 -6.02555 0
M  V30 5258 H 512.22 0.648846 -6.93371 0
M  V30 5259 H 509.847 0.382271 -7.59238 0
M  V30 5260 N 511.423 1.38739 0.74761 0
M  V30 5261 C 512.353 1.39173 1.87492 0
M  V30 5262 C 513.334 0.256794 1.6815 0
M  V30 5263 O 514.519 0.460762 1.88655 0
M  V30 5264 C 511.649 1.22197 3.25093 0
M  V30 5265 C 510.603 2.32957 3.59047 0
M  V30 5266 C 509.929 2.01082 4.95449 0
M  V30 5267 C 511.229 3.75237 3.6331 0
M  V30 5268 H 512.923 2.3351 1.87386 0
M  V30 5269 H 510.469 1.12399 0.900134 0
M  V30 5270 H 512.422 1.21124 4.03617 0
M  V30 5271 H 511.146 0.243241 3.25693 0
M  V30 5272 H 509.805 2.33226 2.82845 0
M  V30 5273 H 509.453 1.01678 4.92616 0
M  V30 5274 H 509.153 2.75267 5.19136 0
M  V30 5275 H 510.677 2.01638 5.76346 0
M  V30 5276 H 512.091 3.76966 4.31937 0
M  V30 5277 H 510.488 4.48677 3.98509 0
M  V30 5278 H 511.558 4.07122 2.634 0
M  V30 5279 N 512.901 -0.976442 1.23707 0
M  V30 5280 C 513.864 -2.0511 1.02287 0
M  V30 5281 C 514.864 -1.60791 -0.0167195 0
M  V30 5282 O 516.054 -1.72761 0.223408 0
M  V30 5283 C 513.186 -3.36458 0.548507 0
M  V30 5284 H 514.379 -2.25545 1.9766 0
M  V30 5285 H 511.932 -1.15042 1.05806 0
M  V30 5286 H 512.667 -3.21713 -0.408818 0
M  V30 5287 H 512.452 -3.69967 1.29874 0
M  V30 5288 H 513.942 -4.15489 0.419406 0
M  V30 5289 N 514.379 -1.04941 -1.1758 0
M  V30 5290 C 515.311 -0.606174 -2.21039 0
M  V30 5291 C 516.324 0.328763 -1.59446 0
M  V30 5292 O 517.513 0.121895 -1.78083 0
M  V30 5293 C 514.613 0.133294 -3.38638 0
M  V30 5294 C 513.786 -0.811711 -4.29802 0
M  V30 5295 C 512.845 -0.113958 -5.26077 0
M  V30 5296 O 511.871 -0.747237 -5.64274 0
M  V30 5297 N 513.073 1.14953 -5.69004 0
M  V30 5298 H 515.838 -1.49606 -2.59689 0
M  V30 5299 H 513.399 -0.930997 -1.32454 0
M  V30 5300 H 515.391 0.610144 -4.00074 0
M  V30 5301 H 513.961 0.924816 -2.98607 0
M  V30 5302 H 513.181 -1.46824 -3.65837 0
M  V30 5303 H 514.469 -1.45326 -4.87604 0
M  V30 5304 H 513.867 1.68441 -5.40041 0
M  V30 5305 H 512.424 1.57049 -6.32597 0
M  V30 5306 N 515.857 1.33968 -0.830081 0
M  V30 5307 C 516.789 2.28194 -0.21448 0
M  V30 5308 C 517.802 1.5135 0.599752 0
M  V30 5309 O 518.991 1.73286 0.42826 0
M  V30 5310 C 516.091 3.31221 0.717356 0
M  V30 5311 C 515.264 4.37365 -0.055613 0
M  V30 5312 C 514.323 5.2011 0.798231 0
M  V30 5313 O 513.349 5.68691 0.240616 0
M  V30 5314 N 514.551 5.40523 2.11695 0
M  V30 5315 H 517.316 2.81662 -1.02405 0
M  V30 5316 H 514.877 1.46568 -0.687713 0
M  V30 5317 H 516.869 3.83477 1.29334 0
M  V30 5318 H 515.439 2.78095 1.42765 0
M  V30 5319 H 514.659 3.85727 -0.812936 0
M  V30 5320 H 515.947 5.05397 -0.587444 0
M  V30 5321 H 515.345 5.0274 2.59363 0
M  V30 5322 H 513.902 5.95871 2.64162 0
M  V30 5323 N 517.335 0.585699 1.46312 0
M  V30 5324 C 518.584 0.0701192 2.01578 0
M  V30 5325 C 518.897 -1.29889 1.46247 0
M  V30 5326 O 520.103 -1.90598 1.93351 0
M  V30 5327 C 518.559 0.0747499 3.59822 0
M  V30 5328 C 518.167 1.44226 4.24149 0
M  V30 5329 C 519.911 -0.38673 4.22735 0
M  V30 5330 C 517.818 1.40446 5.74481 0
M  V30 5331 H 516.748 0.0224441 0.753666 0
M  V30 5332 H 519.399 0.737789 1.68015 0
M  V30 5333 H 517.781 -0.659144 3.90476 0
M  V30 5334 H 518.955 2.19612 4.05101 0
M  V30 5335 H 517.27 1.84401 3.73343 0
M  V30 5336 H 519.867 -0.433853 5.32937 0
M  V30 5337 H 520.21 -1.40489 3.91878 0
M  V30 5338 H 520.743 0.293195 3.96718 0
M  V30 5339 H 517.482 2.39952 6.10003 0
M  V30 5340 H 517.002 0.692845 5.95785 0
M  V30 5341 H 518.681 1.11865 6.37256 0
M  V30 5342 N 518.813 -1.54241 0.323641 0
M  V30 5343 C 520.229 -1.59574 -0.0290018 0
M  V30 5344 C 520.429 -1.34017 -1.50472 0
M  V30 5345 O 519.485 -1.12464 -2.26071 0
M  V30 5346 C 520.798 -2.98169 0.389295 0
M  V30 5347 C 522.346 -3.11148 0.339958 0
M  V30 5348 C 522.821 -4.5209 0.733418 0
M  V30 5349 N 524.312 -4.5808 0.686827 0
M  V30 5350 C 525.047 -5.65248 0.963464 0
M  V30 5351 N 524.543 -6.80355 1.30724 0
M  V30 5352 N 526.336 -5.55025 0.88902 0
M  V30 5353 H 518.487 -1.6911 1.28512 0
M  V30 5354 H 520.75 -0.790972 0.522558 0
M  V30 5355 H 520.456 -3.21871 1.41746 0
M  V30 5356 H 520.33 -3.76399 -0.245657 0
M  V30 5357 H 522.717 -2.87182 -0.679002 0
M  V30 5358 H 522.798 -2.35023 1.00985 0
M  V30 5359 H 522.442 -4.76788 1.75029 0
M  V30 5360 H 522.372 -5.26584 0.0412189 0
M  V30 5361 H 524.863 -3.75411 0.43298 0
M  V30 5362 H 525.176 -7.58029 1.5037 0
M  V30 5363 H 523.521 -6.81851 1.3455 0
M  V30 5364 H 526.712 -4.63977 0.619939 0
M  V30 5365 H 526.885 -6.38458 1.10797 0
M  V30 5366 N 520.291 -0.0518155 -1.57515 0
M  V30 5367 C 521.538 0.621823 -1.92716 0
M  V30 5368 C 521.866 1.70813 -0.930229 0
M  V30 5369 O 521.121 1.95616 0.0573708 0
M  V30 5370 C 521.42 1.25607 -3.34601 0
M  V30 5371 C 521.086 0.297901 -4.49915 0
M  V30 5372 C 519.748 0.034243 -4.81188 0
M  V30 5373 C 522.1 -0.358738 -5.19964 0
M  V30 5374 C 519.428 -0.893479 -5.79857 0
M  V30 5375 C 521.78 -1.27466 -6.19625 0
M  V30 5376 C 520.444 -1.54698 -6.49326 0
M  V30 5377 H 519.714 0.227541 -0.705199 0
M  V30 5378 H 522.361 -0.118432 -1.91133 0
M  V30 5379 H 520.666 2.07161 -3.32553 0
M  V30 5380 H 522.363 1.78424 -3.59118 0
M  V30 5381 H 518.953 0.513581 -4.25512 0
M  V30 5382 H 523.137 -0.168133 -4.96015 0
M  V30 5383 H 518.393 -1.11193 -6.01204 0
M  V30 5384 H 522.567 -1.78953 -6.73015 0
M  V30 5385 H 520.194 -2.26748 -7.25596 0
M  V30 5386 N 521.769 1.56035 0.221574 0
M  V30 5387 C 522.997 1.8313 0.962864 0
M  V30 5388 C 523.412 0.630934 1.77946 0
M  V30 5389 O 522.769 -0.400519 1.78051 0
M  V30 5390 C 522.82 3.08742 1.88045 0
M  V30 5391 O 522.541 4.24147 1.09686 0
M  V30 5392 C 524.042 3.48824 2.73563 0
M  V30 5393 H 521.262 0.608775 0.282194 0
M  V30 5394 H 523.806 2.03124 0.23681 0
M  V30 5395 H 521.961 2.90723 2.56045 0
M  V30 5396 H 522.375 4.95505 1.71974 0
M  V30 5397 H 523.849 4.39752 3.3365 0
M  V30 5398 H 524.326 2.70575 3.45956 0
M  V30 5399 H 524.932 3.69282 2.10976 0
M  V30 5400 N 523.247 -0.488276 1.49845 0
M  V30 5401 C 524.524 -1.24959 1.50481 0
M  V30 5402 C 524.904 -2.09735 0.239698 0
M  V30 5403 O 524.252 -2.14865 -0.777524 0
M  V30 5404 C 524.462 -2.0954 2.79095 0
M  V30 5405 C 525.81 -2.68305 3.29086 0
M  V30 5406 O 526.834 -2.19797 2.80299 0
M  V30 5407 O 525.693 -3.56643 4.14087 0
M  V30 5408 H 522.787 -0.566133 0.602845 0
M  V30 5409 H 525.333 -0.501504 1.6212 0
M  V30 5410 H 524.105 -1.46958 3.62656 0
M  V30 5411 H 523.728 -2.91517 2.70377 0
M  V30 5412 N 524.725 -1.39134 -0.740242 0
M  V30 5413 C 525.974 -1.35384 -1.49512 0
M  V30 5414 C 526.287 0.04919 -1.95538 0
M  V30 5415 O 527.493 0.209257 -2.70692 0
M  V30 5416 C 525.949 -2.37812 -2.70136 0
M  V30 5417 C 525.557 -3.83804 -2.31081 0
M  V30 5418 C 527.301 -2.4313 -3.47977 0
M  V30 5419 C 525.208 -4.77886 -3.48395 0
M  V30 5420 H 524.138 -0.503297 -0.561434 0
M  V30 5421 H 526.789 -1.64754 -0.807974 0
M  V30 5422 H 525.171 -2.01505 -3.40899 0
M  V30 5423 H 526.345 -4.29123 -1.67898 0
M  V30 5424 H 524.66 -3.81732 -1.66343 0
M  V30 5425 H 527.257 -3.10614 -4.35228 0
M  V30 5426 H 527.6 -1.45423 -3.90074 0
M  V30 5427 H 528.133 -2.78304 -2.84239 0
M  V30 5428 H 524.872 -5.76836 -3.11353 0
M  V30 5429 H 524.392 -4.3725 -4.10576 0
M  V30 5430 H 526.071 -4.96538 -4.148 0
M  V30 5431 N 526.204 0.969867 -1.24223 0
M  V30 5432 C 527.167 2.04564 -1.03373 0
M  V30 5433 C 528.167 1.60798 0.00819206 0
M  V30 5434 O 529.357 1.72641 -0.232567 0
M  V30 5435 C 526.489 3.36163 -0.566343 0
M  V30 5436 H 527.682 2.24494 -1.98853 0
M  V30 5437 H 525.235 1.1448 -1.06415 0
M  V30 5438 H 525.97 3.21925 0.391751 0
M  V30 5439 H 525.755 3.69273 -1.31834 0
M  V30 5440 H 527.245 4.1526 -0.441435 0
M  V30 5441 N 527.682 1.05563 1.17022 0
M  V30 5442 C 528.645 0.664098 2.19368 0
M  V30 5443 C 529.645 -0.286358 1.5823 0
M  V30 5444 O 530.835 -0.069728 1.7406 0
M  V30 5445 C 527.967 -0.0239932 3.40892 0
M  V30 5446 H 529.16 1.57 2.55521 0
M  V30 5447 H 526.713 0.849964 1.31169 0
M  V30 5448 H 527.448 -0.942988 3.10287 0
M  V30 5449 H 527.233 0.659351 3.86516 0
M  V30 5450 H 528.723 -0.283909 4.16634 0
M  V30 5451 N 529.16 -1.33526 0.837174 0
M  V30 5452 C 530.09 -2.31764 0.284206 0
M  V30 5453 C 531.071 -1.58896 -0.607142 0
M  V30 5454 O 532.256 -1.86798 -0.531047 0
M  V30 5455 C 529.386 -3.43029 -0.542962 0
M  V30 5456 C 528.34 -4.27255 0.252451 0
M  V30 5457 C 527.666 -5.3012 -0.69836 0
M  V30 5458 C 528.966 -5.01229 1.46858 0
M  V30 5459 H 530.66 -2.78262 1.10502 0
M  V30 5460 H 528.206 -1.3378 0.532812 0
M  V30 5461 H 530.159 -4.1078 -0.940096 0
M  V30 5462 H 528.883 -2.95216 -1.39697 0
M  V30 5463 H 527.542 -3.61127 0.631124 0
M  V30 5464 H 527.19 -4.78564 -1.54872 0
M  V30 5465 H 526.89 -5.87353 -0.170274 0
M  V30 5466 H 528.414 -6.00737 -1.09305 0
M  V30 5467 H 529.828 -5.61756 1.14469 0
M  V30 5468 H 528.225 -5.68104 1.93333 0
M  V30 5469 H 529.295 -4.301 2.23924 0
M  V30 5470 N 530.638 -0.59345 -1.46 0
M  V30 5471 C 531.586 0.146268 -2.3214 0
M  V30 5472 C 532.58 0.873743 -1.45128 0
M  V30 5473 O 533.786 0.790912 -1.61693 0
M  V30 5474 H 530.161 0.0660349 -0.749095 0
M  V30 5475 H 532.132 -0.598895 -2.92328 0
M  V30 5476 C 530.881 1.1396 -3.28494 0
M  V30 5477 H 530.204 0.589252 -3.95434 0
M  V30 5478 H 531.644 1.62738 -3.91526 0
M  V30 5479 C 530.103 2.20604 -2.54628 0
M  V30 5480 O 530.633 3.28128 -2.31722 0
M  V30 5481 N 528.839 1.95502 -2.15005 0
M  V30 5482 H 528.386 1.0807 -2.33834 0
M  V30 5483 H 528.344 2.67064 -1.65904 0
M  V30 5484 N 532.116 1.54067 -0.331816 0
M  V30 5485 C 533.046 2.27569 0.522932 0
M  V30 5486 C 534.027 1.28679 1.11247 0
M  V30 5487 O 535.212 1.57504 1.13605 0
M  V30 5488 C 532.342 3.0397 1.67987 0
M  V30 5489 C 531.296 4.10267 1.21924 0
M  V30 5490 C 530.622 4.74555 2.46377 0
M  V30 5491 C 531.922 5.21268 0.32815 0
M  V30 5492 H 533.616 2.99264 -0.0901977 0
M  V30 5493 H 531.162 1.4393 -0.044821 0
M  V30 5494 H 533.115 3.54123 2.28418 0
M  V30 5495 H 531.839 2.29906 2.31971 0
M  V30 5496 H 530.498 3.61009 0.637809 0
M  V30 5497 H 530.146 3.97098 3.08743 0
M  V30 5498 H 529.846 5.46363 2.16243 0
M  V30 5499 H 531.37 5.27487 3.07555 0
M  V30 5500 H 532.784 5.67128 0.838978 0
M  V30 5501 H 531.181 5.99982 0.119228 0
M  V30 5502 H 532.251 4.80673 -0.638839 0
M  V30 5503 N 533.594 0.0601682 1.57485 0
M  V30 5504 C 534.819 -0.624416 1.97777 0
M  V30 5505 C 535.244 -1.63051 0.937867 0
M  V30 5506 O 534.602 -1.81036 -0.0978845 0
M  V30 5507 C 534.65 -1.27979 3.37126 0
M  V30 5508 O 533.754 -2.39556 3.35688 0
M  V30 5509 H 533.095 -0.161581 0.64404 0
M  V30 5510 H 535.625 0.131237 2.04179 0
M  V30 5511 H 535.635 -1.62937 3.74053 0
M  V30 5512 H 534.31 -0.542501 4.12347 0
M  V30 5513 H 532.887 -2.06478 3.10517 0
M  V30 5514 N 535.072 -1.5615 -0.213296 0
M  V30 5515 C 536.318 -1.79812 -0.937849 0
M  V30 5516 C 536.651 -0.631201 -1.83656 0
M  V30 5517 O 535.926 0.369165 -1.90964 0
M  V30 5518 C 536.209 -3.13613 -1.76972 0
M  V30 5519 C 536.062 -4.40766 -0.89695 0
M  V30 5520 C 537.381 -3.43931 -2.7459 0
M  V30 5521 H 534.5 -0.654138 -0.339518 0
M  V30 5522 H 537.142 -1.88877 -0.20623 0
M  V30 5523 H 535.292 -3.06015 -2.39347 0
M  V30 5524 H 536.964 -4.60392 -0.289306 0
M  V30 5525 H 535.207 -4.33326 -0.202756 0
M  V30 5526 H 535.878 -5.30843 -1.51358 0
M  V30 5527 H 538.354 -3.5171 -2.22349 0
M  V30 5528 H 537.23 -4.38706 -3.29891 0
M  V30 5529 H 537.491 -2.6651 -3.52739 0
M  V30 5530 N 536.55 0.480323 -1.50102 0
M  V30 5531 C 537.48 1.58769 -1.71215 0
M  V30 5532 C 538.461 1.60583 -0.560997 0
M  V30 5533 O 539.646 1.76996 -0.799127 0
M  V30 5534 C 536.776 2.97148 -1.79778 0
M  V30 5535 C 535.73 3.10201 -2.94888 0
M  V30 5536 C 535.056 4.50137 -2.88584 0
M  V30 5537 C 536.356 2.88283 -4.35534 0
M  V30 5538 H 538.05 1.41354 -2.6393 0
M  V30 5539 H 535.596 0.678591 -1.27008 0
M  V30 5540 H 537.549 3.74536 -1.93133 0
M  V30 5541 H 536.273 3.15699 -0.836772 0
M  V30 5542 H 534.932 2.35244 -2.81169 0
M  V30 5543 H 534.58 4.65593 -1.90349 0
M  V30 5544 H 534.28 4.59808 -3.65856 0
M  V30 5545 H 535.804 5.29558 -3.03976 0
M  V30 5546 H 537.218 3.55427 -4.49827 0
M  V30 5547 H 535.615 3.09408 -5.14186 0
M  V30 5548 H 536.685 1.84219 -4.48544 0
M  V30 5549 N 538.028 1.39524 0.732853 0
M  V30 5550 C 538.938 1.40695 1.87729 0
M  V30 5551 C 539.954 0.301496 1.71368 0
M  V30 5552 O 541.13 0.543313 1.93933 0
M  V30 5553 C 538.195 1.25098 3.23344 0
M  V30 5554 C 537.256 2.45634 3.52083 0
M  V30 5555 C 536.489 2.30772 4.81228 0
M  V30 5556 O 536.712 1.31233 5.55098 0
M  V30 5557 O 535.646 3.19799 5.09914 0
M  V30 5558 H 539.472 2.37168 1.89697 0
M  V30 5559 H 537.057 1.20663 0.880959 0
M  V30 5560 H 538.939 1.18541 4.04383 0
M  V30 5561 H 537.614 0.317209 3.22142 0
M  V30 5562 H 536.521 2.57767 2.71122 0
M  V30 5563 H 537.854 3.37712 3.58066 0
M  V30 5564 N 539.506 -0.963266 1.24736 0
M  V30 5565 C 540.453 -2.05857 1.04363 0
M  V30 5566 C 541.423 -1.6604 -0.0444951 0
M  V30 5567 O 542.608 -1.90477 0.110999 0
M  V30 5568 C 539.748 -3.38745 0.659235 0
M  V30 5569 C 538.861 -3.9173 1.82131 0
M  V30 5570 C 537.996 -5.12906 1.38208 0
M  V30 5571 C 537.035 -5.58098 2.51382 0
M  V30 5572 N 536.172 -6.7049 2.08295 0
M  V30 5573 H 541.012 -2.22616 1.98107 0
M  V30 5574 H 538.549 -1.09103 0.986661 0
M  V30 5575 H 540.507 -4.15107 0.417371 0
M  V30 5576 H 539.137 -3.21898 -0.241201 0
M  V30 5577 H 538.189 -3.11966 2.17672 0
M  V30 5578 H 539.501 -4.21225 2.67153 0
M  V30 5579 H 538.655 -5.96657 1.09935 0
M  V30 5580 H 537.394 -4.85105 0.502456 0
M  V30 5581 H 536.399 -4.72917 2.80409 0
M  V30 5582 H 537.624 -5.87911 3.39909 0
M  V30 5583 H 535.57 -6.44416 1.22737 0
M  V30 5584 H 535.487 -6.99458 2.86869 0
M  V30 5585 H 536.755 -7.57672 1.83175 0
M  V30 5586 N 540.985 -1.06182 -1.16461 0
M  V30 5587 C 541.918 -0.615859 -2.19733 0
M  V30 5588 C 542.896 0.360766 -1.58547 0
M  V30 5589 O 544.08 0.270009 -1.86556 0
M  V30 5590 C 541.207 0.097312 -3.3856 0
M  V30 5591 C 540.253 -0.835889 -4.18229 0
M  V30 5592 S 541.086 -2.33052 -4.82128 0
M  V30 5593 C 542.242 -1.62881 -6.04335 0
M  V30 5594 H 542.475 -1.49079 -2.57221 0
M  V30 5595 H 540.008 -0.874692 -1.27234 0
M  V30 5596 H 541.966 0.502563 -4.07412 0
M  V30 5597 H 540.627 0.948418 -2.99439 0
M  V30 5598 H 539.82 -0.283426 -5.03202 0
M  V30 5599 H 539.422 -1.18097 -3.54865 0
M  V30 5600 H 541.714 -0.933764 -6.71034 0
M  V30 5601 H 542.657 -2.45641 -6.64128 0
M  V30 5602 H 543.065 -1.11189 -5.53441 0
M  V30 5603 N 542.463 1.3308 -0.844243 0
M  V30 5604 C 543.74 1.92178 -0.364261 0
M  V30 5605 C 544.12 1.76961 1.15101 0
M  V30 5606 O 543.468 1.16128 1.9679 0
M  V30 5607 C 543.678 3.393 -0.817106 0
M  V30 5608 C 545.026 4.16444 -0.828236 0
M  V30 5609 O 546.05 3.47975 -0.761062 0
M  V30 5610 O 544.909 5.38685 -0.920926 0
M  V30 5611 H 542.003 0.820411 -0.10419 0
M  V30 5612 H 544.549 1.41918 -0.930453 0
M  V30 5613 H 543.321 3.44272 -1.85991 0
M  V30 5614 H 542.944 3.96947 -0.227785 0
M  V30 5615 N 543.941 0.601185 1.45683 0
M  V30 5616 C 544.874 -0.17013 2.27565 0
M  V30 5617 C 545.852 -0.879661 1.36751 0
M  V30 5618 O 547.036 -0.889827 1.66176 0
M  V30 5619 C 544.163 -1.24568 3.14961 0
M  V30 5620 C 543.209 -0.639978 4.21671 0
M  V30 5621 S 544.042 0.547275 5.32696 0
M  V30 5622 C 545.198 -0.529019 6.2366 0
M  V30 5623 H 545.431 0.524583 2.92635 0
M  V30 5624 H 542.964 0.388537 1.49431 0
M  V30 5625 H 544.922 -1.86138 3.65873 0
M  V30 5626 H 543.583 -1.91243 2.49169 0
M  V30 5627 H 542.776 -1.44903 4.8272 0
M  V30 5628 H 542.378 -0.0995558 3.73867 0
M  V30 5629 H 544.67 -1.40981 6.62669 0
M  V30 5630 H 545.613 0.0451599 7.08086 0
M  V30 5631 H 546.021 -0.84147 5.58193 0
M  V30 5632 N 545.419 -1.53889 0.339982 0
M  V30 5633 C 546.835 -1.59595 -0.0120752 0
M  V30 5634 C 547.035 -1.35605 -1.49042 0
M  V30 5635 O 546.091 -1.14856 -2.24865 0
M  V30 5636 C 547.404 -2.9774 0.420898 0
M  V30 5637 C 548.952 -3.1077 0.37294 0
M  V30 5638 C 549.427 -4.51286 0.781327 0
M  V30 5639 N 550.918 -4.57325 0.735374 0
M  V30 5640 C 551.653 -5.64194 1.02336 0
M  V30 5641 N 551.149 -6.7893 1.37933 0
M  V30 5642 N 552.942 -5.54051 0.947838 0
M  V30 5643 H 545.093 -1.67738 1.30299 0
M  V30 5644 H 547.356 -0.785385 0.530918 0
M  V30 5645 H 547.062 -3.20349 1.45152 0
M  V30 5646 H 546.936 -3.76639 -0.205721 0
M  V30 5647 H 549.323 -2.87886 -0.648505 0
M  V30 5648 H 549.404 -2.33939 1.03472 0
M  V30 5649 H 549.048 -4.74905 1.80077 0
M  V30 5650 H 548.978 -5.26511 0.0970679 0
M  V30 5651 H 551.469 -3.74931 0.472773 0
M  V30 5652 H 551.782 -7.56392 1.58402 0
M  V30 5653 H 550.127 -6.80386 1.41774 0
M  V30 5654 H 553.318 -4.63293 0.669115 0
M  V30 5655 H 553.491 -6.37246 1.17563 0
M  V30 5656 N 546.897 -0.0685191 -1.57451 0
M  V30 5657 C 547.807 0.914677 -2.16034 0
M  V30 5658 C 548.823 1.32938 -1.12265 0
M  V30 5659 O 549.999 1.40275 -1.44516 0
M  V30 5660 C 547.064 2.16519 -2.70777 0
M  V30 5661 C 546.125 1.80721 -3.89408 0
M  V30 5662 C 545.358 2.9981 -4.41531 0
M  V30 5663 O 545.581 4.13727 -3.92666 0
M  V30 5664 O 544.515 2.79817 -5.32903 0
M  V30 5665 H 548.341 0.446364 -3.00402 0
M  V30 5666 H 545.926 0.154367 -1.486 0
M  V30 5667 H 547.808 2.89856 -3.05878 0
M  V30 5668 H 546.483 2.62454 -1.89471 0
M  V30 5669 H 545.39 1.04646 -3.59166 0
M  V30 5670 H 546.723 1.39571 -4.71997 0
M  V30 5671 N 548.375 1.56261 0.205012 0
M  V30 5672 C 549.786 1.70056 0.770574 0
M  V30 5673 C 550.137 0.673398 1.84282 0
M  V30 5674 O 549.262 -0.172196 2.15714 0
M  V30 5675 C 549.857 3.08316 1.40451 0
M  V30 5676 C 548.416 3.2391 1.91727 0
M  V30 5677 C 547.563 2.66001 0.783516 0
M  V30 5678 H 550.514 1.58688 -0.019911 0
M  V30 5679 H 550.535 3.05094 2.27371 0
M  V30 5680 H 550.047 3.83053 0.623882 0
M  V30 5681 H 548.148 2.54072 2.7254 0
M  V30 5682 H 548.261 4.3131 2.08588 0
M  V30 5683 H 546.625 2.24915 1.19521 0
M  V30 5684 H 547.408 3.43297 0.0152883 0
M  V30 5685 N 549.853 -0.472356 1.50355 0
M  V30 5686 C 550.785 -1.58795 1.65278 0
M  V30 5687 C 551.798 -1.53782 0.534313 0
M  V30 5688 O 552.987 -1.59193 0.807446 0
M  V30 5689 C 550.087 -2.97672 1.62001 0
M  V30 5690 C 549.26 -3.27568 2.89859 0
M  V30 5691 C 548.319 -4.45993 2.79242 0
M  V30 5692 O 547.345 -4.46364 3.53197 0
M  V30 5693 N 548.547 -5.47578 1.92713 0
M  V30 5694 H 551.312 -1.46411 2.61503 0
M  V30 5695 H 548.873 -0.660751 1.47803 0
M  V30 5696 H 550.865 -3.74862 1.52513 0
M  V30 5697 H 549.435 -3.03832 0.735159 0
M  V30 5698 H 548.655 -2.39003 3.13483 0
M  V30 5699 H 549.943 -3.44352 3.74565 0
M  V30 5700 H 549.341 -5.50099 1.31939 0
M  V30 5701 H 547.898 -6.23757 1.8913 0
M  V30 5702 N 551.331 -1.39911 -0.725443 0
M  V30 5703 C 552.571 -1.39096 -1.49772 0
M  V30 5704 C 552.935 0.0106452 -1.91997 0
M  V30 5705 O 554.136 0.143859 -2.68415 0
M  V30 5706 C 552.407 -2.34441 -2.69764 0
M  V30 5707 S 553.966 -2.51898 -3.59295 0
M  V30 5708 H 550.784 -0.49314 -0.512186 0
M  V30 5709 H 553.386 -1.76093 -0.849197 0
M  V30 5710 H 552.09 -3.35123 -2.36898 0
M  V30 5711 H 551.621 -1.98692 -3.39537 0
M  V30 5712 H 553.636 -1.76402 -4.63785 0
M  V30 5713 N 552.809 0.956637 -1.25245 0
M  V30 5714 C 554.055 1.70352 -1.10036 0
M  V30 5715 C 554.388 1.90869 0.358156 0
M  V30 5716 O 553.663 1.47819 1.26411 0
M  V30 5717 C 553.946 3.08766 -1.85298 0
M  V30 5718 C 553.799 2.95672 -3.38966 0
M  V30 5719 C 555.118 4.08622 -1.63451 0
M  V30 5720 H 552.237 0.618279 -0.401123 0
M  V30 5721 H 554.879 1.11212 -1.54051 0
M  V30 5722 H 553.029 3.59252 -1.47887 0
M  V30 5723 H 554.701 2.52527 -3.86041 0
M  V30 5724 H 552.944 2.31634 -3.6678 0
M  V30 5725 H 553.615 3.93776 -3.86839 0
M  V30 5726 H 556.091 3.67038 -1.96015 0
M  V30 5727 H 554.967 5.03514 -2.18551 0
M  V30 5728 H 555.228 4.3834 -0.575357 0
M  V30 5729 N 554.287 1.06798 1.15896 0
M  V30 5730 C 555.564 0.701057 1.82605 0
M  V30 5731 C 555.944 -0.817066 1.94646 0
M  V30 5732 O 555.292 -1.72933 1.49353 0
M  V30 5733 C 555.502 1.40895 3.19296 0
M  V30 5734 C 556.85 1.55744 3.95005 0
M  V30 5735 O 557.874 1.36927 3.28831 0
M  V30 5736 O 556.733 1.86658 5.13635 0
M  V30 5737 H 553.827 0.248791 0.78869 0
M  V30 5738 H 556.373 1.16857 1.23055 0
M  V30 5739 H 555.145 2.4439 3.05596 0
M  V30 5740 H 554.768 0.931847 3.86526 0
M  V30 5741 N 555.766 -1.3263 0.851289 0
M  V30 5742 C 557.043 -1.91982 0.374448 0
M  V30 5743 C 557.423 -1.77568 -1.14161 0
M  V30 5744 O 556.771 -1.1717 -1.96172 0
M  V30 5745 C 556.981 -3.38862 0.835088 0
M  V30 5746 C 558.329 -4.15999 0.850309 0
M  V30 5747 O 559.353 -3.47566 0.779505 0
M  V30 5748 O 558.212 -5.38189 0.949481 0
M  V30 5749 H 555.306 -0.819846 0.10854 0
M  V30 5750 H 557.852 -1.41422 0.937966 0
M  V30 5751 H 556.624 -3.43281 1.87814 0
M  V30 5752 H 556.247 -3.96821 0.248833 0
M  V30 5753 N 557.244 -0.608902 -1.45362 0
M  V30 5754 C 558.49 -0.104762 -2.02529 0
M  V30 5755 C 558.823 1.26191 -1.47613 0
M  V30 5756 O 558.098 1.8327 -0.65134 0
M  V30 5757 C 558.381 -0.0672661 -3.60037 0
M  V30 5758 C 558.234 -1.4647 -4.25284 0
M  V30 5759 C 559.553 0.619877 -4.35713 0
M  V30 5760 H 556.672 -0.0395438 -0.735938 0
M  V30 5761 H 559.314 -0.781126 -1.73201 0
M  V30 5762 H 557.464 0.50871 -3.85155 0
M  V30 5763 H 559.136 -2.08785 -4.11347 0
M  V30 5764 H 557.379 -2.02502 -3.83634 0
M  V30 5765 H 558.05 -1.39069 -5.34195 0
M  V30 5766 H 560.526 0.130297 -4.15896 0
M  V30 5767 H 559.402 0.615224 -5.45441 0
M  V30 5768 H 559.663 1.68621 -4.0868 0
M  V30 5769 N 558.722 1.53707 -0.348139 0
M  V30 5770 C 559.652 2.28111 0.498766 0
M  V30 5771 C 560.633 1.29851 1.09876 0
M  V30 5772 O 561.818 1.587 1.11928 0
M  V30 5773 C 558.948 3.05735 1.64753 0
M  V30 5774 C 557.902 4.11537 1.17565 0
M  V30 5775 C 557.228 4.77142 2.4133 0
M  V30 5776 C 558.528 5.21587 0.272844 0
M  V30 5777 H 560.222 2.99152 -0.121934 0
M  V30 5778 H 557.768 1.43875 -0.0600842 0
M  V30 5779 H 559.721 3.56526 2.24649 0
M  V30 5780 H 558.445 2.32354 2.2952 0
M  V30 5781 H 557.104 3.61665 0.599483 0
M  V30 5782 H 556.752 4.0035 3.04514 0
M  V30 5783 H 556.452 5.48626 2.10436 0
M  V30 5784 H 557.976 5.30719 3.01943 0
M  V30 5785 H 559.39 5.67986 0.778779 0
M  V30 5786 H 557.787 6.00074 0.0555849 0
M  V30 5787 H 558.857 4.79969 -0.689785 0
M  V30 5788 N 560.2 0.0768682 1.57412 0
M  V30 5789 C 561.425 -0.603404 1.98428 0
M  V30 5790 C 561.85 -1.62047 0.955108 0
M  V30 5791 O 561.208 -1.81129 -0.0786778 0
M  V30 5792 C 561.256 -1.24396 3.38464 0
M  V30 5793 O 560.36 -2.35982 3.3821 0
M  V30 5794 H 559.701 -0.154741 0.645718 0
M  V30 5795 H 562.231 0.152885 2.04028 0
M  V30 5796 H 562.241 -1.5896 3.7576 0
M  V30 5797 H 560.916 -0.498735 4.12899 0
M  V30 5798 H 559.493 -2.03173 3.1269 0
M  V30 5799 N 561.678 -1.56367 -0.196722 0
M  V30 5800 C 562.924 -1.80796 -0.918725 0
M  V30 5801 C 563.257 -0.650645 -1.82976 0
M  V30 5802 O 562.532 0.348889 -1.91345 0
M  V30 5803 C 562.815 -3.15472 -1.73636 0
M  V30 5804 C 562.668 -4.41693 -0.85015 0
M  V30 5805 C 563.987 -3.46824 -2.70927 0
M  V30 5806 H 561.106 -0.657702 -0.332561 0
M  V30 5807 H 563.748 -1.89086 -0.186186 0
M  V30 5808 H 561.898 -3.08536 -2.36088 0
M  V30 5809 H 563.57 -4.60673 -0.240459 0
M  V30 5810 H 561.813 -4.33517 -0.156785 0
M  V30 5811 H 562.484 -5.32419 -1.45719 0
M  V30 5812 H 564.96 -3.54049 -2.18607 0
M  V30 5813 H 563.836 -4.4218 -3.25219 0
M  V30 5814 H 564.097 -2.70236 -3.49893 0
M  V30 5815 N 563.156 0.464375 -1.50603 0
M  V30 5816 C 564.433 1.22549 -1.5245 0
M  V30 5817 C 564.813 2.09327 -0.273035 0
M  V30 5818 O 564.161 2.16074 0.743242 0
M  V30 5819 C 564.371 2.05074 -2.82393 0
M  V30 5820 C 565.719 2.63036 -3.33313 0
M  V30 5821 O 566.743 2.1531 -2.8376 0
M  V30 5822 O 565.602 3.5001 -4.19709 0
M  V30 5823 H 562.696 0.556471 -0.611775 0
M  V30 5824 H 565.242 0.475648 -1.62898 0
M  V30 5825 H 564.014 1.41169 -3.64948 0
M  V30 5826 H 563.637 2.87179 -2.7498 0
M  V30 5827 N 564.634 1.40294 0.718013 0
M  V30 5828 C 565.597 1.4012 1.81381 0
M  V30 5829 C 566.597 0.295405 1.58063 0
M  V30 5830 O 567.787 0.554187 1.6515 0
M  V30 5831 C 564.919 1.19056 3.19435 0
M  V30 5832 H 566.112 2.37645 1.82933 0
M  V30 5833 H 563.665 1.26107 0.923405 0
M  V30 5834 H 564.4 0.222809 3.23534 0
M  V30 5835 H 564.185 1.99152 3.37758 0
M  V30 5836 H 565.675 1.21716 3.99468 0
M  V30 5837 N 566.112 -0.949982 1.2575 0
M  V30 5838 C 567.06 -2.06869 1.06339 0
M  V30 5839 C 568.054 -1.69399 -0.00708901 0
M  V30 5840 O 569.26 -1.79383 0.148897 0
M  V30 5841 H 565.635 -0.677197 0.326969 0
M  V30 5842 H 567.606 -2.20396 2.01167 0
M  V30 5843 C 566.355 -3.40503 0.703769 0
M  V30 5844 H 565.678 -3.69807 1.51931 0
M  V30 5845 H 567.118 -4.19623 0.607677 0
M  V30 5846 C 565.577 -3.31685 -0.5905 0
M  V30 5847 O 566.107 -3.67085 -1.63131 0
M  V30 5848 N 564.313 -2.84797 -0.577859 0
M  V30 5849 H 563.86 -2.56186 0.26951 0
M  V30 5850 H 563.818 -2.79279 -1.44398 0
M  V30 5851 N 567.59 -1.07411 -1.15328 0
M  V30 5852 C 568.553 -0.698914 -2.18284 0
M  V30 5853 C 569.553 0.261149 -1.58665 0
M  V30 5854 O 570.743 0.0420277 -1.74149 0
M  V30 5855 C 567.875 -0.0302427 -3.40887 0
M  V30 5856 H 569.068 -1.61045 -2.52991 0
M  V30 5857 H 566.621 -0.870724 -1.298 0
M  V30 5858 H 567.356 0.893505 -3.11748 0
M  V30 5859 H 567.141 -0.720759 -3.85419 0
M  V30 5860 H 568.631 0.21759 -4.17033 0
M  V30 5861 N 569.068 1.32177 -0.85831 0
M  V30 5862 C 570.484 1.49873 -0.548656 0
M  V30 5863 C 570.684 1.79278 0.919874 0
M  V30 5864 O 569.74 1.86451 1.70271 0
M  V30 5865 C 571.053 2.64043 -1.4388 0
M  V30 5866 C 572.601 2.77928 -1.43961 0
M  V30 5867 C 573.076 3.95182 -2.31506 0
M  V30 5868 N 574.567 4.0245 -2.29321 0
M  V30 5869 C 575.302 4.9242 -2.93786 0
M  V30 5870 N 574.798 5.87373 -3.67376 0
M  V30 5871 N 576.591 4.85572 -2.83155 0
M  V30 5872 H 568.742 1.11357 -1.80868 0
M  V30 5873 H 571.005 0.549175 -0.772729 0
M  V30 5874 H 570.711 2.49055 -2.48324 0
M  V30 5875 H 570.585 3.59912 -1.12885 0
M  V30 5876 H 572.972 2.92338 -0.402813 0
M  V30 5877 H 573.053 1.82762 -1.78974 0
M  V30 5878 H 572.697 3.81531 -3.35256 0
M  V30 5879 H 572.627 4.89633 -1.93823 0
M  V30 5880 H 575.118 3.34507 -1.75822 0
M  V30 5881 H 575.431 6.52728 -4.13722 0
M  V30 5882 H 573.776 5.87388 -3.71484 0
M  V30 5883 H 576.967 4.10363 -2.25211 0
M  V30 5884 H 577.14 5.55486 -3.33676 0
M  V30 5885 N 570.547 0.616602 1.45037 0
M  V30 5886 C 571.457 -0.0985401 2.34393 0
M  V30 5887 C 572.473 -0.850971 1.51771 0
M  V30 5888 O 573.649 -0.806521 1.84546 0
M  V30 5889 C 570.714 -1.07748 3.29532 0
M  V30 5890 C 569.775 -0.326022 4.2806 0
M  V30 5891 C 569.008 -1.25833 5.18654 0
M  V30 5892 O 569.231 -2.49652 5.12864 0
M  V30 5893 O 568.165 -0.750512 5.97203 0
M  V30 5894 H 571.991 0.636016 2.96966 0
M  V30 5895 H 569.576 0.376832 1.44569 0
M  V30 5896 H 571.458 -1.64107 3.88133 0
M  V30 5897 H 570.133 -1.79291 2.69512 0
M  V30 5898 H 569.04 0.280253 3.73049 0
M  V30 5899 H 570.373 0.349091 4.9096 0
M  V30 5900 N 572.025 -1.5352 0.356285 0
M  V30 5901 C 573.271 -2.01414 -0.236653 0
M  V30 5902 C 573.604 -1.24339 -1.49176 0
M  V30 5903 O 572.879 -0.334496 -1.91602 0
M  V30 5904 C 573.162 -3.56059 -0.537982 0
M  V30 5905 C 573.015 -4.43835 0.730112 0
M  V30 5906 C 574.334 -4.19127 -1.34239 0
M  V30 5907 H 571.453 -0.732135 -0.0845386 0
M  V30 5908 H 574.095 -1.83854 0.479341 0
M  V30 5909 H 572.245 -3.71153 -1.14795 0
M  V30 5910 H 573.917 -4.40555 1.36782 0
M  V30 5911 H 572.16 -4.1218 1.3524 0
M  V30 5912 H 572.831 -5.49958 0.474358 0
M  V30 5913 H 575.307 -4.07809 -0.826498 0
M  V30 5914 H 574.183 -5.27378 -1.52198 0
M  V30 5915 H 574.444 -3.74581 -2.34822 0
M  V30 5916 N 573.503 -0.0852151 -1.57369 0
M  V30 5917 C 574.466 0.8627 -2.12344 0
M  V30 5918 C 575.466 1.21746 -1.05046 0
M  V30 5919 O 576.656 1.14852 -1.30976 0
M  V30 5920 C 573.788 2.1618 -2.63589 0
M  V30 5921 H 574.981 0.385511 -2.97412 0
M  V30 5922 H 572.534 0.163663 -1.55441 0
M  V30 5923 H 573.269 2.68406 -1.82013 0
M  V30 5924 H 573.054 1.91723 -3.4203 0
M  V30 5925 H 574.544 2.84011 -3.06149 0
M  V30 5926 N 574.981 1.5647 0.188427 0
M  V30 5927 C 576.397 1.50204 0.539532 0
M  V30 5928 C 576.597 0.78644 1.85519 0
M  V30 5929 O 575.653 0.339714 2.50204 0
M  V30 5930 C 576.966 2.94893 0.588103 0
M  V30 5931 C 578.514 3.05602 0.67648 0
M  V30 5932 C 578.989 4.51716 0.756101 0
M  V30 5933 N 580.48 4.55894 0.819451 0
M  V30 5934 C 581.215 5.66272 0.90134 0
M  V30 5935 N 580.711 6.86323 0.945118 0
M  V30 5936 N 582.504 5.54201 0.939043 0
M  V30 5937 H 574.655 2.01406 -0.674493 0
M  V30 5938 H 576.918 0.916828 -0.241103 0
M  V30 5939 H 576.624 3.50334 -0.309633 0
M  V30 5940 H 576.498 3.4861 1.44051 0
M  V30 5941 H 578.885 2.50206 1.56465 0
M  V30 5942 H 578.966 2.54999 -0.202262 0
M  V30 5943 H 578.61 5.07739 -0.12774 0
M  V30 5944 H 578.54 5.00058 1.65074 0
M  V30 5945 H 581.031 3.69452 0.794594 0
M  V30 5946 H 581.344 7.66194 1.0083 0
M  V30 5947 H 579.689 6.88968 0.913683 0
M  V30 5948 H 582.88 4.59333 0.901725 0
M  V30 5949 H 583.053 6.40247 0.999402 0
M  V30 5950 N 576.459 -0.456382 1.50847 0
M  V30 5951 C 577.406 -1.55249 1.70782 0
M  V30 5952 C 578.376 -1.56757 0.549231 0
M  V30 5953 O 579.561 -1.74061 0.7815 0
M  V30 5954 C 576.701 -2.93118 1.82143 0
M  V30 5955 C 575.814 -3.01285 3.09598 0
M  V30 5956 C 574.949 -4.30159 3.11667 0
M  V30 5957 C 573.988 -4.32124 4.33515 0
M  V30 5958 N 573.125 -5.52492 4.3324 0
M  V30 5959 H 577.965 -1.37555 2.64353 0
M  V30 5960 H 575.502 -0.668543 1.3103 0
M  V30 5961 H 577.46 -3.73088 1.86711 0
M  V30 5962 H 576.09 -3.09413 0.919978 0
M  V30 5963 H 575.142 -2.14096 3.14431 0
M  V30 5964 H 576.454 -2.98597 3.99551 0
M  V30 5965 H 575.608 -5.18489 3.15046 0
M  V30 5966 H 574.347 -4.35477 2.1957 0
M  V30 5967 H 573.352 -3.42189 4.30333 0
M  V30 5968 H 574.577 -4.28485 5.26856 0
M  V30 5969 H 572.523 -5.58567 3.44004 0
M  V30 5970 H 572.44 -5.51605 5.16979 0
M  V30 5971 H 573.708 -6.42906 4.40786 0
M  V30 5972 N 577.937 -1.40673 -0.710563 0
M  V30 5973 C 578.847 -1.43663 -1.85467 0
M  V30 5974 C 579.863 -0.328721 -1.70867 0
M  V30 5975 O 581.039 -0.574098 -1.93044 0
M  V30 5976 C 578.104 -1.30226 -3.21313 0
M  V30 5977 C 577.165 -2.51204 -3.48131 0
M  V30 5978 C 576.398 -2.38398 -4.77495 0
M  V30 5979 O 576.621 -1.40048 -5.5294 0
M  V30 5980 O 575.555 -3.2787 -5.04762 0
M  V30 5981 H 579.381 -2.40156 -1.859 0
M  V30 5982 H 576.966 -1.22049 -0.861652 0
M  V30 5983 H 578.848 -1.2496 -4.02446 0
M  V30 5984 H 577.523 -0.368419 -3.21597 0
M  V30 5985 H 576.43 -2.62048 -2.66987 0
M  V30 5986 H 577.763 -3.43366 -3.52648 0
M  V30 5987 N 579.415 0.9433 -1.26252 0
M  V30 5988 C 580.661 1.69175 -1.11837 0
M  V30 5989 C 580.994 1.91238 0.337891 0
M  V30 5990 O 580.269 1.49152 1.24836 0
M  V30 5991 C 580.552 3.06783 -1.88563 0
M  V30 5992 C 580.405 2.9206 -3.42083 0
M  V30 5993 C 581.724 4.06865 -1.67776 0
M  V30 5994 H 578.843 0.61399 -0.407658 0
M  V30 5995 H 581.485 1.09572 -1.55222 0
M  V30 5996 H 579.635 3.57663 -1.51689 0
M  V30 5997 H 581.307 2.48419 -3.88698 0
M  V30 5998 H 579.55 2.27731 -3.69217 0
M  V30 5999 H 580.221 3.89651 -3.90994 0
M  V30 6000 H 582.697 3.64939 -1.99897 0
M  V30 6001 H 581.573 5.01168 -2.23879 0
M  V30 6002 H 581.834 4.37705 -0.621816 0
M  V30 6003 N 580.893 1.08022 1.14757 0
M  V30 6004 C 581.826 0.650738 2.18725 0
M  V30 6005 C 582.804 -0.335496 1.59101 0
M  V30 6006 O 583.988 -0.240295 1.86962 0
M  V30 6007 C 581.115 -0.0434377 3.38672 0
M  V30 6008 C 580.161 0.90232 4.16846 0
M  V30 6009 S 580.994 2.40693 4.78359 0
M  V30 6010 C 582.15 1.72475 6.01667 0
M  V30 6011 H 582.383 1.53152 2.54817 0
M  V30 6012 H 579.916 0.894823 1.25826 0
M  V30 6013 H 581.874 -0.437684 4.0816 0
M  V30 6014 H 580.535 -0.900659 3.0091 0
M  V30 6015 H 579.728 0.363445 5.02688 0
M  V30 6016 H 579.33 1.23728 3.52941 0
M  V30 6017 H 581.622 1.0404 6.69464 0
M  V30 6018 H 582.565 2.56175 6.60136 0
M  V30 6019 H 582.973 1.19979 5.51602 0
M  V30 6020 N 582.371 -1.3172 0.865308 0
M  V30 6021 C 583.787 -1.4958 0.556596 0
M  V30 6022 C 583.987 -1.79763 -0.910353 0
M  V30 6023 O 583.043 -1.87351 -1.6928 0
M  V30 6024 C 584.356 -2.63277 1.45279 0
M  V30 6025 C 585.904 -2.77161 1.45433 0
M  V30 6026 C 586.379 -3.93949 2.33598 0
M  V30 6027 N 587.87 -4.01228 2.31453 0
M  V30 6028 C 588.605 -4.90855 2.96393 0
M  V30 6029 N 588.101 -5.85416 3.70486 0
M  V30 6030 N 589.894 -4.84063 2.85726 0
M  V30 6031 H 582.045 -1.10396 1.81456 0
M  V30 6032 H 584.308 -0.54507 0.775631 0
M  V30 6033 H 584.014 -2.47734 2.49641 0
M  V30 6034 H 583.888 -3.59309 1.14792 0
M  V30 6035 H 586.275 -2.9212 0.41831 0
M  V30 6036 H 586.356 -1.8181 1.79941 0
M  V30 6037 H 586 -3.79748 3.37274 0
M  V30 6038 H 585.93 -4.88598 1.96417 0
M  V30 6039 H 588.421 -3.3357 1.77593 0
M  V30 6040 H 588.734 -6.50525 4.17178 0
M  V30 6041 H 587.079 -5.85409 3.74594 0
M  V30 6042 H 590.27 -4.09163 2.27384 0
M  V30 6043 H 590.443 -5.53708 3.36617 0
M  V30 6044 N 583.85 -0.624285 -1.44708 0
M  V30 6045 C 584.779 0.0717025 -2.3339 0
M  V30 6046 C 585.76 0.841814 -1.47809 0
M  V30 6047 O 586.946 0.809056 -1.76544 0
M  V30 6048 C 584.076 1.05852 -3.30776 0
M  V30 6049 C 583.029 0.400503 -4.26122 0
M  V30 6050 C 582.356 1.49674 -5.13324 0
M  V30 6051 C 583.656 -0.688924 -5.17737 0
M  V30 6052 H 585.35 -0.668819 -2.91834 0
M  V30 6053 H 582.896 -0.32308 -1.40329 0
M  V30 6054 H 584.849 1.5541 -3.91696 0
M  V30 6055 H 583.572 1.82984 -2.70526 0
M  V30 6056 H 582.231 -0.0743687 -3.66525 0
M  V30 6057 H 581.88 2.25877 -4.49431 0
M  V30 6058 H 581.58 1.06188 -5.77926 0
M  V30 6059 H 583.104 1.99427 -5.77115 0
M  V30 6060 H 584.518 -0.276724 -5.72632 0
M  V30 6061 H 582.915 -1.04652 -5.90904 0
M  V30 6062 H 583.985 -1.55884 -4.5916 0
M  V30 6063 N 585.328 1.53329 -0.364422 0
M  V30 6064 C 586.291 2.24323 0.470292 0
M  V30 6065 C 587.291 1.25068 1.01067 0
M  V30 6066 O 588.481 1.49354 0.896605 0
M  V30 6067 C 585.613 2.97908 1.65722 0
M  V30 6068 H 586.806 2.9952 -0.150917 0
M  V30 6069 H 584.359 1.55868 -0.116092 0
M  V30 6070 H 585.094 2.2695 2.31655 0
M  V30 6071 H 584.879 3.70732 1.27671 0
M  V30 6072 H 586.369 3.5188 2.24878 0
M  V30 6073 N 586.806 0.0935595 1.57322 0
M  V30 6074 C 588.031 -0.582324 1.99057 0
M  V30 6075 C 588.456 -1.61025 0.972242 0
M  V30 6076 O 587.814 -1.81202 -0.0594622 0
M  V30 6077 C 587.862 -1.20799 3.39765 0
M  V30 6078 O 586.966 -2.32382 3.40694 0
M  V30 6079 H 586.307 -0.147884 0.647323 0
M  V30 6080 H 588.837 0.174516 2.03854 0
M  V30 6081 H 588.847 -1.54966 3.77425 0
M  V30 6082 H 587.522 -0.454914 4.13405 0
M  V30 6083 H 586.099 -1.99845 3.14827 0
M  V30 6084 O 588.323 -1.61433 -0.0465113 0
M  V30 6085 H 589.014 -1.8177 -0.669292 0
M  V30 END ATOM
M  V30 BEGIN BOND
M  V30 END BOND
M  V30 END CTAB
M  END
$$$$
