drugbank_target|P45563 Purine nucleoside phosphorylase 2 (DB02134; DB02377)
 OpenBabel12092119563D

  0  0  0     0  0            999 V3000
M  V30 BEGIN CTAB
M  V30 COUNTS 4205 4247 0 0 0
M  V30 BEGIN ATOM
M  V30 1 H -0.908 1.98254 -0.117106 0
M  V30 2 N 0 1.576 0 0
M  V30 3 C 0.933 2.03868 1.02534 0
M  V30 4 C 1.911 0.928543 1.3348 0
M  V30 5 O 3.095 1.19667 1.45644 0
M  V30 6 C 0.222 2.43627 2.35294 0
M  V30 7 C -0.732 3.65373 2.2001 0
M  V30 8 S 0.101 5.13292 1.52614 0
M  V30 9 C 1.257 5.56322 2.86805 0
M  V30 10 H 1.49 2.90518 0.631377 0
M  V30 11 H -0.977 1.52953 0.210867 0
M  V30 12 H 0.981 2.67203 3.11629 0
M  V30 13 H -0.358 1.57376 2.7183 0
M  V30 14 H -1.165 3.90944 3.18086 0
M  V30 15 H -1.563 3.418 1.51819 0
M  V30 16 H 0.729 5.58782 3.83104 0
M  V30 17 H 1.672 6.56266 2.65933 0
M  V30 18 H 2.08 4.83886 2.90714 0
M  V30 19 N 1.4781 -0.272755 1.55222 0
M  V30 20 C 2.7031 -1.02683 1.80197 0
M  V30 21 C 3.1281 -1.79142 0.573551 0
M  V30 22 O 2.4861 -1.74917 -0.476849 0
M  V30 23 C 2.5341 -1.9609 3.02624 0
M  V30 24 O 1.6381 -3.04863 2.77727 0
M  V30 25 H 0.9791 -0.293557 0.595584 0
M  V30 26 H 3.5091 -0.30159 2.02365 0
M  V30 27 H 3.5191 -2.38039 3.31363 0
M  V30 28 H 2.1941 -1.39851 3.91682 0
M  V30 29 H 0.7711 -2.67228 2.60084 0
M  V30 30 N 2.9562 -1.48159 -0.537278 0
M  V30 31 C 3.8882 -1.58218 -1.65831 0
M  V30 32 C 4.9012 -0.466948 -1.5596 0
M  V30 33 O 6.0902 -0.73747 -1.62553 0
M  V30 34 C 3.1902 -1.48906 -3.04434 0
M  V30 35 C 2.3632 -2.75343 -3.3986 0
M  V30 36 C 1.4222 -2.59588 -4.57712 0
M  V30 37 O 0.4482 -3.33457 -4.61297 0
M  V30 38 N 1.6502 -1.68724 -5.55439 0
M  V30 39 H 4.4152 -2.54891 -1.57641 0
M  V30 40 H 1.9762 -1.4479 -0.724386 0
M  V30 41 H 3.9682 -1.36072 -3.81139 0
M  V30 42 H 2.5382 -0.602368 -3.06741 0
M  V30 43 H 1.7582 -3.02795 -2.52406 0
M  V30 44 H 3.0462 -3.5924 -3.60311 0
M  V30 45 H 2.4442 -1.07898 -5.55315 0
M  V30 46 H 1.0012 -1.61832 -6.3139 0
M  V30 47 N 4.4343 0.785586 -1.36625 0
M  V30 48 C 5.6803 1.54591 -1.31261 0
M  V30 49 C 6.0133 1.93906 0.106823 0
M  V30 50 O 5.2883 1.63007 1.06108 0
M  V30 51 C 5.5713 2.82038 -2.23889 0
M  V30 52 C 5.4243 2.49066 -3.74548 0
M  V30 53 C 6.7433 3.83887 -2.15217 0
M  V30 54 H 3.8623 0.560846 -0.478143 0
M  V30 55 H 6.5043 0.902278 -1.67209 0
M  V30 56 H 4.6543 3.36961 -1.93363 0
M  V30 57 H 6.3263 2.00164 -4.15611 0
M  V30 58 H 4.5693 1.81954 -3.93796 0
M  V30 59 H 5.2403 3.40109 -4.34776 0
M  V30 60 H 7.7163 3.38421 -2.42096 0
M  V30 61 H 6.5923 4.70806 -2.82193 0
M  V30 62 H 6.8533 4.27131 -1.14068 0
M  V30 63 N 5.9124 1.20967 1.01018 0
M  V30 64 C 6.8444 0.922059 2.09835 0
M  V30 65 C 7.8574 -0.0927106 1.62536 0
M  V30 66 O 9.0464 0.139127 1.77957 0
M  V30 67 C 6.1464 0.362004 3.36961 0
M  V30 68 C 5.3194 1.42986 4.13369 0
M  V30 69 C 4.3784 0.879976 5.1879 0
M  V30 70 O 3.4044 1.56219 5.47343 0
M  V30 71 N 4.6064 -0.307396 5.79686 0
M  V30 72 H 7.3714 1.8588 2.35093 0
M  V30 73 H 4.9324 1.11422 1.1746 0
M  V30 74 H 6.9244 -0.0201474 4.04695 0
M  V30 75 H 5.4944 -0.479437 3.08902 0
M  V30 76 H 4.7144 1.98608 3.40512 0
M  V30 77 H 6.0024 2.14885 4.61196 0
M  V30 78 H 5.4004 -0.878796 5.58832 0
M  V30 79 H 3.9574 -0.631115 6.48737 0
M  V30 80 N 7.3905 -1.2043 1.01659 0
M  V30 81 C 8.6375 -1.89797 0.705917 0
M  V30 82 C 8.9655 -1.78848 -0.764439 0
M  V30 83 O 8.2205 -1.16694 -1.57102 0
M  V30 84 C 8.5195 -3.40464 1.08714 0
M  V30 85 C 8.1855 -3.71614 2.5537 0
M  V30 86 C 6.8475 -3.79826 2.95441 0
M  V30 87 C 9.1995 -3.85915 3.50313 0
M  V30 88 C 6.5275 -3.99797 4.29394 0
M  V30 89 C 8.8795 -4.07396 4.83954 0
M  V30 90 C 7.5435 -4.13837 5.23732 0
M  V30 91 H 6.8135 -0.694518 0.258313 0
M  V30 92 H 9.4605 -1.42691 1.27717 0
M  V30 93 H 7.7655 -3.89385 0.434309 0
M  V30 94 H 9.4625 -3.92433 0.824461 0
M  V30 95 H 6.0525 -3.65822 2.23321 0
M  V30 96 H 10.2365 -3.78926 3.20513 0
M  V30 97 H 5.4925 -4.03018 4.59768 0
M  V30 98 H 9.6665 -4.17404 5.57447 0
M  V30 99 H 7.2935 -4.29064 6.27541 0
M  V30 100 N 8.8686 -0.792821 -1.36206 0
M  V30 101 C 10.0936 -0.377701 -2.03932 0
M  V30 102 C 10.5186 0.998947 -1.59382 0
M  V30 103 O 9.8766 1.64421 -0.763903 0
M  V30 104 C 9.9246 -0.453635 -3.57735 0
M  V30 105 O 9.0286 0.538151 -4.08874 0
M  V30 106 H 8.3696 -0.159855 -0.644471 0
M  V30 107 H 10.8996 -1.07488 -1.7409 0
M  V30 108 H 10.9096 -0.318464 -4.06755 0
M  V30 109 H 9.5846 -1.45784 -3.89512 0
M  V30 110 H 8.1616 0.364359 -3.71116 0
M  V30 111 N 10.3467 1.47872 -0.545128 0
M  V30 112 C 11.2967 2.26842 0.229456 0
M  V30 113 C 12.2807 1.33626 0.896267 0
M  V30 114 O 13.4727 1.58063 0.79657 0
M  V30 115 C 10.6017 3.19089 1.26638 0
M  V30 116 C 9.6877 4.19783 0.603598 0
M  V30 117 N 10.0787 5.0479 -0.319405 0
M  V30 118 C 8.3767 4.3765 0.858989 0
M  V30 119 C 9.0777 5.77433 -0.703241 0
M  V30 120 N 8.0537 5.43566 -0.0608309 0
M  V30 121 H 11.8557 2.89947 -0.480391 0
M  V30 122 H 9.3697 1.58263 -0.364209 0
M  V30 123 H 11.3667 3.74337 1.83515 0
M  V30 124 H 10.0267 2.5754 1.97745 0
M  V30 125 H 11.0377 5.13244 -0.692889 0
M  V30 126 H 7.7147 3.87281 1.55948 0
M  V30 127 H 9.1047 6.55824 -1.46098 0
M  V30 128 N 11.8248 0.280983 1.55075 0
M  V30 129 C 12.7728 -0.619864 2.24188 0
M  V30 130 C 13.7668 -1.15315 1.24092 0
M  V30 131 O 14.9728 -1.1061 1.42005 0
M  V30 132 H 11.3478 -0.218459 0.719569 0
M  V30 133 H 13.3188 -0.0141831 2.98397 0
M  V30 134 C 12.0678 -1.7899 2.98091 0
M  V30 135 H 11.3908 -1.38874 3.74905 0
M  V30 136 H 12.8308 -2.39672 3.49762 0
M  V30 137 C 11.2898 -2.68192 2.03899 0
M  V30 138 O 11.8198 -3.6872 1.594 0
M  V30 139 N 10.0258 -2.35488 1.70275 0
M  V30 140 H 9.5728 -1.53787 2.06658 0
M  V30 141 H 9.5308 -2.95442 1.07524 0
M  V30 142 N 13.3029 -1.57598 0.00835791 0
M  V30 143 C 14.7139 -1.7892 -0.53333 0
M  V30 144 C 15.0649 -0.916609 -1.73473 0
M  V30 145 O 14.1899 -0.121336 -2.1606 0
M  V30 146 C 14.7849 -3.24488 -0.974313 0
M  V30 147 C 13.3439 -3.46878 -1.46125 0
M  V30 148 C 12.4909 -2.74157 -0.416302 0
M  V30 149 H 15.4419 -1.56958 0.234495 0
M  V30 150 H 15.4629 -3.3306 -1.83988 0
M  V30 151 H 14.9749 -3.87972 -0.099718 0
M  V30 152 H 13.0759 -2.8862 -2.35646 0
M  V30 153 H 13.1889 -4.55572 -1.48295 0
M  V30 154 H 11.5529 -2.39022 -0.87981 0
M  V30 155 H 12.3359 -3.40345 0.44947 0
M  V30 156 N 14.781 0.264519 -1.55364 0
M  V30 157 C 15.711 1.33121 -1.91836 0
M  V30 158 C 16.692 1.51101 -0.781192 0
M  V30 159 O 17.877 1.64003 -1.04003 0
M  V30 160 C 15.007 2.68921 -2.19769 0
M  V30 161 C 13.961 2.65661 -3.35571 0
M  V30 162 C 13.287 4.05093 -3.49004 0
M  V30 163 C 14.587 2.24187 -4.71739 0
M  V30 164 H 16.281 1.02844 -2.81182 0
M  V30 165 H 13.827 0.493286 -1.35287 0
M  V30 166 H 15.78 3.43663 -2.43872 0
M  V30 167 H 14.504 3.00799 -1.27231 0
M  V30 168 H 13.163 1.93377 -3.1145 0
M  V30 169 H 12.811 4.34206 -2.53917 0
M  V30 170 H 12.511 4.03804 -4.26868 0
M  V30 171 H 14.035 4.81561 -3.75408 0
M  V30 172 H 15.449 2.88654 -4.9533 0
M  V30 173 H 13.846 2.34044 -5.52579 0
M  V30 174 H 14.916 1.19327 -4.69988 0
M  V30 175 N 16.2591 1.48442 0.529413 0
M  V30 176 C 17.5061 1.56488 1.28521 0
M  V30 177 C 17.8341 0.239042 1.93025 0
M  V30 178 O 17.0891 -0.770713 1.79885 0
M  V30 179 C 17.3881 2.6523 2.39558 0
M  V30 180 C 17.0541 4.07648 1.92702 0
M  V30 181 C 15.7161 4.46411 1.79641 0
M  V30 182 C 18.0681 4.96896 1.573 0
M  V30 183 C 15.3961 5.72226 1.29514 0
M  V30 184 C 17.7481 6.23202 1.08636 0
M  V30 185 C 16.4121 6.60821 0.941919 0
M  V30 186 H 15.6821 0.572631 0.470292 0
M  V30 187 H 18.3291 1.82161 0.59072 0
M  V30 188 H 16.6341 2.33419 3.14679 0
M  V30 189 H 18.3311 2.68671 2.97686 0
M  V30 190 H 14.9211 3.77036 2.03819 0
M  V30 191 H 19.1051 4.67626 1.66251 0
M  V30 192 H 14.3611 6.00097 1.17019 0
M  V30 193 H 18.5351 6.91753 0.803136 0
M  V30 194 H 16.1621 7.58198 0.5513 0
M  V30 195 N 17.7372 -0.778329 1.37039 0
M  V30 196 C 18.9772 -1.54973 1.33276 0
M  V30 197 C 19.3412 -1.91816 -0.0839376 0
M  V30 198 O 20.5422 -2.6767 -0.246228 0
M  V30 199 C 18.8132 -2.78517 2.23971 0
M  V30 200 S 20.3722 -3.6865 2.37997 0
M  V30 201 H 17.1902 -0.530639 0.473226 0
M  V30 202 H 19.7922 -0.915806 1.72723 0
M  V30 203 H 18.4962 -2.4952 3.25835 0
M  V30 204 H 18.0272 -3.46875 1.85584 0
M  V30 205 H 20.0422 -4.70182 1.58567 0
M  V30 206 N 19.2153 -1.21501 -1.00376 0
M  V30 207 C 20.4643 -1.02718 -1.73586 0
M  V30 208 C 20.7773 0.439589 -1.90596 0
M  V30 209 O 21.9833 0.746848 -2.61026 0
M  V30 210 C 20.4393 -1.78929 -3.1227 0
M  V30 211 C 20.0473 -3.29783 -3.03228 0
M  V30 212 C 21.7913 -1.68557 -3.89601 0
M  V30 213 C 19.6983 -3.98479 -4.36999 0
M  V30 214 H 18.6283 -0.380733 -0.650814 0
M  V30 215 H 21.2793 -1.45248 -1.1214 0
M  V30 216 H 19.6613 -1.29192 -3.74333 0
M  V30 217 H 20.8353 -3.86832 -2.50395 0
M  V30 218 H 19.1503 -3.40711 -2.39385 0
M  V30 219 H 21.7473 -2.17211 -4.88593 0
M  V30 220 H 22.0903 -0.644021 -4.11288 0
M  V30 221 H 22.6233 -2.15778 -3.34193 0
M  V30 222 H 19.3623 -5.02841 -4.20513 0
M  V30 223 H 18.8823 -3.46219 -4.89788 0
M  V30 224 H 20.5613 -4.03462 -5.05794 0
M  V30 225 N 20.6934 1.19889 -1.02296 0
M  V30 226 C 21.9704 1.85148 -0.630832 0
M  V30 227 C 22.3504 1.91385 0.890782 0
M  V30 228 O 21.6984 1.42642 1.78509 0
M  V30 229 C 21.9084 3.24442 -1.28602 0
M  V30 230 C 23.2564 4.00663 -1.4055 0
M  V30 231 O 24.2804 3.33818 -1.24273 0
M  V30 232 O 23.1394 5.20387 -1.66913 0
M  V30 233 H 20.2334 0.797613 -0.218499 0
M  V30 234 H 22.7794 1.27427 -1.12074 0
M  V30 235 H 21.5514 3.14704 -2.32545 0
M  V30 236 H 21.1744 3.89802 -0.7836 0
M  V30 237 N 22.1715 0.800033 1.35784 0
M  V30 238 C 23.4205 0.37387 1.98205 0
M  V30 239 C 23.7335 -1.06302 1.64193 0
M  V30 240 O 24.9395 -1.59198 2.19928 0
M  V30 241 C 23.3955 0.617532 3.54562 0
M  V30 242 C 23.0035 2.06654 3.9749 0
M  V30 243 C 24.7475 0.256401 4.23725 0
M  V30 244 C 22.6545 2.2563 5.46667 0
M  V30 245 H 21.5845 0.136055 0.741623 0
M  V30 246 H 24.2355 0.983166 1.54939 0
M  V30 247 H 22.6175 -0.0616248 3.95952 0
M  V30 248 H 23.7915 2.78296 3.67271 0
M  V30 249 H 22.1065 2.38691 3.41197 0
M  V30 250 H 24.7035 0.376318 5.33374 0
M  V30 251 H 25.0465 -0.796692 4.08606 0
M  V30 252 H 25.5795 0.889214 3.87734 0
M  V30 253 H 22.3185 3.2936 5.66747 0
M  V30 254 H 21.8385 1.58504 5.78478 0
M  V30 255 H 23.5175 2.06861 6.1304 0
M  V30 256 N 23.6496 -1.47581 0.552962 0
M  V30 257 C 24.8986 -2.01684 0.0251995 0
M  V30 258 C 25.2116 -1.43317 -1.33115 0
M  V30 259 O 26.4176 -1.89057 -1.94858 0
M  V30 260 C 24.8736 -3.599 -0.00542052 0
M  V30 261 C 24.4816 -4.27257 1.34742 0
M  V30 262 C 26.2256 -4.21768 -0.4808 0
M  V30 263 C 24.1326 -5.77467 1.27614 0
M  V30 264 H 23.0626 -0.753979 0.00565033 0
M  V30 265 H 25.7136 -1.69616 0.70018 0
M  V30 266 H 24.0956 -3.88911 -0.745961 0
M  V30 267 H 25.2696 -4.09893 2.10534 0
M  V30 268 H 23.5846 -3.77358 1.76039 0
M  V30 269 H 26.1816 -5.31838 -0.55246 0
M  V30 270 H 26.5246 -3.88651 -1.49184 0
M  V30 271 H 27.0576 -3.97273 0.204752 0
M  V30 272 H 23.7966 -6.15196 2.26304 0
M  V30 273 H 23.3166 -5.9718 0.55996 0
M  V30 274 H 24.9956 -6.3959 0.976421 0
M  V30 275 N 25.1277 -0.289203 -1.54924 0
M  V30 276 C 26.0747 0.592115 -2.23075 0
M  V30 277 C 27.0447 1.13881 -1.20915 0
M  V30 278 O 28.2297 1.18551 -1.495 0
M  V30 279 C 25.3697 1.76376 -2.96623 0
M  V30 280 C 24.4827 1.24959 -4.13533 0
M  V30 281 C 23.6177 2.38416 -4.74691 0
M  V30 282 C 22.6567 1.84072 -5.83767 0
M  V30 283 N 21.7937 2.91057 -6.38929 0
M  V30 284 H 26.6337 0.00432038 -2.98 0
M  V30 285 H 24.1707 -0.00963529 -1.47097 0
M  V30 286 H 26.1287 2.45268 -3.3749 0
M  V30 287 H 24.7587 2.32337 -2.24097 0
M  V30 288 H 23.8107 0.453307 -3.77689 0
M  V30 289 H 25.1227 0.811662 -4.92152 0
M  V30 290 H 24.2767 3.15276 -5.18349 0
M  V30 291 H 23.0157 2.8553 -3.95378 0
M  V30 292 H 22.0207 1.05697 -5.39545 0
M  V30 293 H 23.2457 1.37877 -6.64956 0
M  V30 294 H 21.1917 3.37526 -5.62505 0
M  V30 295 H 21.1087 2.51724 -7.12861 0
M  V30 296 H 22.3767 3.6785 -6.87246 0
M  V30 297 N 26.6058 1.57591 -0.0167156 0
M  V30 298 C 27.8338 1.95575 0.675128 0
M  V30 299 C 28.2488 0.892542 1.6637 0
M  V30 300 O 27.6058 -0.126912 1.82058 0
M  V30 301 C 27.6568 3.33608 1.39239 0
M  V30 302 O 27.3778 4.3585 0.443444 0
M  V30 303 C 28.8788 3.86151 2.17721 0
M  V30 304 H 26.0988 0.644423 0.186978 0
M  V30 305 H 28.6428 2.0437 -0.0728 0
M  V30 306 H 26.7978 3.2607 2.09182 0
M  V30 307 H 27.2118 5.158 0.951358 0
M  V30 308 H 28.6858 4.85114 2.63379 0
M  V30 309 H 29.1628 3.19738 3.01105 0
M  V30 310 H 29.7688 3.96918 1.52761 0
M  V30 311 N 28.0839 -0.256276 1.55502 0
M  V30 312 C 29.3139 -1.00196 1.80677 0
M  V30 313 C 29.7219 -1.79805 0.588797 0
M  V30 314 O 29.0649 -1.78055 -0.451883 0
M  V30 315 C 29.1269 -1.99515 2.99055 0
M  V30 316 C 28.7909 -1.38688 4.35448 0
M  V30 317 C 29.7879 -0.794079 5.138 0
M  V30 318 C 27.4729 -1.40906 4.82132 0
M  V30 319 C 29.4669 -0.231562 6.36979 0
M  V30 320 C 27.1539 -0.842684 6.05262 0
M  V30 321 C 28.1519 -0.254953 6.82524 0
M  V30 322 O 27.8399 0.3027 8.0333 0
M  V30 323 H 27.5719 -0.300919 0.60533 0
M  V30 324 H 30.1259 -0.287307 2.03381 0
M  V30 325 H 28.3559 -2.74785 2.72084 0
M  V30 326 H 30.0449 -2.60349 3.11405 0
M  V30 327 H 30.8109 -0.769519 4.78856 0
M  V30 328 H 26.6899 -1.85591 4.21992 0
M  V30 329 H 30.2339 0.227816 6.97228 0
M  V30 330 H 26.1309 -0.86454 6.39684 0
M  V30 331 H 26.8989 0.193662 8.18271 0
M  V30 332 N 29.562 -1.4872 -0.521534 0
M  V30 333 C 30.509 -1.63871 -1.62527 0
M  V30 334 C 31.479 -0.480559 -1.58996 0
M  V30 335 O 32.664 -0.705085 -1.77294 0
M  V30 336 C 29.804 -1.69227 -3.00759 0
M  V30 337 C 28.917 -2.96207 -3.14461 0
M  V30 338 C 28.052 -2.92671 -4.43303 0
M  V30 339 C 27.091 -4.14318 -4.50563 0
M  V30 340 N 26.228 -4.0881 -5.70805 0
M  V30 341 H 31.068 -2.58123 -1.48918 0
M  V30 342 H 28.605 -1.28 -0.724878 0
M  V30 343 H 30.563 -1.70314 -3.80853 0
M  V30 344 H 29.193 -0.784586 -3.1312 0
M  V30 345 H 28.245 -3.04826 -2.27564 0
M  V30 346 H 29.557 -3.86192 -3.15686 0
M  V30 347 H 28.711 -2.92206 -5.31696 0
M  V30 348 H 27.45 -2.00429 -4.44612 0
M  V30 349 H 26.455 -4.15049 -3.60575 0
M  V30 350 H 27.68 -5.07729 -4.50986 0
M  V30 351 H 25.626 -3.19394 -5.72995 0
M  V30 352 H 25.543 -4.92509 -5.7356 0
M  V30 353 H 26.811 -4.12418 -6.61462 0
M  V30 354 N 31.0401 0.771051 -1.3745 0
M  V30 355 C 32.4511 1.34737 -1.29239 0
M  V30 356 C 32.8021 1.96109 0.0596908 0
M  V30 357 O 31.9271 1.93865 0.961534 0
M  V30 358 C 32.5221 2.44973 -2.34037 0
M  V30 359 C 31.0811 2.98372 -2.29458 0
M  V30 360 C 30.2281 1.71595 -2.17831 0
M  V30 361 H 33.1791 0.571256 -1.48062 0
M  V30 362 H 33.2001 3.24471 -1.98744 0
M  V30 363 H 32.7121 2.00276 -3.32432 0
M  V30 364 H 30.8131 3.47443 -1.34589 0
M  V30 365 H 30.9261 3.53939 -3.229 0
M  V30 366 H 29.2901 1.94547 -1.64388 0
M  V30 367 H 30.0731 1.29001 -3.18141 0
M  V30 368 N 32.5182 1.22032 0.997298 0
M  V30 369 C 33.7952 0.950823 1.70935 0
M  V30 370 C 34.1752 -0.535292 2.042 0
M  V30 371 O 33.5232 -1.50217 1.72183 0
M  V30 372 C 33.7332 1.84386 2.96315 0
M  V30 373 C 35.0812 2.09732 3.69185 0
M  V30 374 O 36.1052 1.81798 3.06314 0
M  V30 375 O 34.9642 2.57018 4.82291 0
M  V30 376 H 32.0582 0.357204 0.745878 0
M  V30 377 H 34.6042 1.32997 1.05404 0
M  V30 378 H 33.3762 2.84928 2.68201 0
M  V30 379 H 32.9992 1.46602 3.69586 0
M  V30 380 N 33.9963 -1.19345 1.0293 0
M  V30 381 C 35.2433 -1.89038 0.726008 0
M  V30 382 C 35.5713 -1.79649 -0.745427 0
M  V30 383 O 34.8263 -1.18354 -1.55855 0
M  V30 384 C 35.1253 -3.39292 1.12319 0
M  V30 385 C 34.7913 -3.68885 2.59297 0
M  V30 386 C 33.4533 -3.76671 2.99453 0
M  V30 387 C 35.8053 -3.82178 3.54386 0
M  V30 388 C 33.1333 -3.9522 4.33611 0
M  V30 389 C 35.4853 -4.0224 4.88248 0
M  V30 390 C 34.1493 -4.08259 5.28092 0
M  V30 391 H 33.4193 -0.691739 0.265665 0
M  V30 392 H 36.0663 -1.41328 1.29223 0
M  V30 393 H 34.3713 -3.88903 0.475584 0
M  V30 394 H 36.0683 -3.91536 0.866037 0
M  V30 395 H 32.6583 -3.63433 2.27189 0
M  V30 396 H 36.8423 -3.75505 3.24514 0
M  V30 397 H 32.0983 -3.98119 4.64016 0
M  V30 398 H 36.2723 -4.11468 5.61843 0
M  V30 399 H 33.8993 -4.22384 6.32057 0
M  V30 400 N 35.4744 -0.807222 -1.35358 0
M  V30 401 C 36.7024 -0.400377 -2.02989 0
M  V30 402 C 37.1174 0.988859 -1.60832 0
M  V30 403 O 36.4744 1.63729 -0.806175 0
M  V30 404 C 36.5254 -0.474867 -3.58368 0
M  V30 405 O 36.2464 -1.80933 -3.98992 0
M  V30 406 C 37.7474 -0.0609112 -4.43258 0
M  V30 407 H 34.9674 -0.162587 -0.651004 0
M  V30 408 H 37.5114 -1.09102 -1.72965 0
M  V30 409 H 35.6664 0.167534 -3.87038 0
M  V30 410 H 36.0804 -1.77256 -4.9364 0
M  V30 411 H 37.5544 -0.164145 -5.51756 0
M  V30 412 H 38.0314 0.993831 -4.27808 0
M  V30 413 H 38.6374 -0.676492 -4.19885 0
M  V30 414 N 36.9525 1.47285 -0.560781 0
M  V30 415 C 38.3635 1.86258 -0.128343 0
M  V30 416 C 38.7145 1.46699 1.30284 0
M  V30 417 O 37.8395 0.871698 1.98067 0
M  V30 418 C 38.4345 3.38044 -0.22614 0
M  V30 419 C 36.9935 3.76096 0.151283 0
M  V30 420 C 36.1405 2.71335 -0.572084 0
M  V30 421 H 39.0915 1.38752 -0.770297 0
M  V30 422 H 39.1125 3.76441 0.554322 0
M  V30 423 H 38.6245 3.66806 -1.26788 0
M  V30 424 H 36.7255 3.52951 1.19399 0
M  V30 425 H 36.8385 4.78641 -0.209765 0
M  V30 426 H 35.2025 2.54696 -0.0147653 0
M  V30 427 H 35.9855 3.02938 -1.61504 0
M  V30 428 N 38.4306 0.297415 1.54768 0
M  V30 429 C 39.8466 -0.0560823 1.59501 0
M  V30 430 C 40.0466 -1.52725 1.31444 0
M  V30 431 O 39.1026 -2.27947 1.08611 0
M  V30 432 C 40.4156 0.338631 2.98787 0
M  V30 433 C 41.9636 0.287097 3.11681 0
M  V30 434 C 42.4386 0.656579 4.53269 0
M  V30 435 N 43.9296 0.608977 4.59179 0
M  V30 436 C 44.6646 0.867385 5.66802 0
M  V30 437 N 44.1606 1.19157 6.82476 0
M  V30 438 N 45.9536 0.794687 5.56454 0
M  V30 439 H 38.1046 1.25624 1.71267 0
M  V30 440 H 40.3676 0.509057 0.799728 0
M  V30 441 H 40.0736 1.36263 3.2423 0
M  V30 442 H 39.9476 -0.309508 3.75928 0
M  V30 443 H 42.3346 -0.727649 2.85988 0
M  V30 444 H 42.4156 0.969809 2.36703 0
M  V30 445 H 42.0596 1.66912 4.7969 0
M  V30 446 H 41.9896 -0.0481649 5.26578 0
M  V30 447 H 44.4806 0.369198 3.76092 0
M  V30 448 H 44.7936 1.37482 7.60473 0
M  V30 449 H 43.1386 1.22958 6.84037 0
M  V30 450 H 46.3296 0.541098 4.64962 0
M  V30 451 H 46.5026 0.999445 6.40246 0
M  V30 452 N 39.9087 -1.5758 0.0250728 0
M  V30 453 C 41.1547 -1.91917 -0.655413 0
M  V30 454 C 41.4877 -0.901433 -1.72011 0
M  V30 455 O 40.7627 0.0764069 -1.9435 0
M  V30 456 C 41.0457 -3.36751 -1.27558 0
M  V30 457 C 40.8987 -4.49258 -0.220719 0
M  V30 458 C 42.2177 -3.81469 -2.19475 0
M  V30 459 H 39.3367 -0.697925 -0.23679 0
M  V30 460 H 41.9787 -1.89825 0.0815036 0
M  V30 461 H 40.1287 -3.38664 -1.90365 0
M  V30 462 H 41.8007 -4.59478 0.409601 0
M  V30 463 H 40.0437 -4.31415 0.454264 0
M  V30 464 H 40.7147 -5.47618 -0.694175 0
M  V30 465 H 43.1907 -3.81266 -1.66659 0
M  V30 466 H 42.0667 -4.83512 -2.59822 0
M  V30 467 H 42.3277 -3.16744 -3.08424 0
M  V30 468 N 41.3868 0.248026 -1.55636 0
M  V30 469 C 42.3498 1.29044 -1.89421 0
M  V30 470 C 43.3498 1.41134 -0.770581 0
M  V30 471 O 44.5398 1.39854 -1.03858 0
M  V30 472 C 41.6718 2.66831 -2.12165 0
M  V30 473 H 42.8648 1.00305 -2.82629 0
M  V30 474 H 40.4178 0.487265 -1.48511 0
M  V30 475 H 41.1528 3.00711 -1.21422 0
M  V30 476 H 40.9378 2.59438 -2.93997 0
M  V30 477 H 42.4278 3.42103 -2.3949 0
M  V30 478 N 42.8649 1.48995 0.513639 0
M  V30 479 C 44.1119 1.57843 1.26854 0
M  V30 480 C 44.4399 0.259501 1.92761 0
M  V30 481 O 43.6949 -0.75159 1.80692 0
M  V30 482 C 43.9939 2.67756 2.36731 0
M  V30 483 C 43.6599 4.09669 1.88368 0
M  V30 484 C 42.3219 4.48291 1.74896 0
M  V30 485 C 44.6739 4.98537 1.52021 0
M  V30 486 C 42.0019 5.73568 1.23438 0
M  V30 487 C 44.3539 6.24319 1.0202 0
M  V30 488 C 43.0179 6.61783 0.871778 0
M  V30 489 H 42.2879 0.577587 0.464192 0
M  V30 490 H 44.9349 1.82778 0.571366 0
M  V30 491 H 43.2399 2.36743 3.12185 0
M  V30 492 H 44.9369 2.71813 2.9482 0
M  V30 493 H 41.5269 3.79176 1.99808 0
M  V30 494 H 45.7109 4.69363 1.61281 0
M  V30 495 H 40.9669 6.01304 1.10648 0
M  V30 496 H 45.1409 6.92566 0.729722 0
M  V30 497 H 42.7679 7.5874 0.470852 0
M  V30 498 N 44.343 -0.763751 1.37857 0
M  V30 499 C 45.592 -1.51789 1.32827 0
M  V30 500 C 45.905 -1.95426 -0.0823719 0
M  V30 501 O 47.111 -2.70298 -0.255172 0
M  V30 502 C 45.567 -2.74133 2.33193 0
M  V30 503 C 45.175 -2.37562 3.79827 0
M  V30 504 C 46.919 -3.52054 2.37188 0
M  V30 505 C 44.826 -3.56456 4.71904 0
M  V30 506 H 43.756 -0.569896 0.493695 0
M  V30 507 H 46.407 -0.835822 1.63359 0
M  V30 508 H 44.789 -3.4427 1.9569 0
M  V30 509 H 45.963 -1.75157 4.26212 0
M  V30 510 H 44.278 -1.72798 3.78853 0
M  V30 511 H 46.875 -4.40437 3.03182 0
M  V30 512 H 47.218 -3.92486 1.38782 0
M  V30 513 H 47.751 -2.88921 2.7344 0
M  V30 514 H 44.49 -3.21099 5.71468 0
M  V30 515 H 44.01 -4.17938 4.30218 0
M  V30 516 H 45.689 -4.23168 4.89426 0
M  V30 517 N 45.8211 -1.22559 -0.990812 0
M  V30 518 C 46.7511 -1.0218 -2.09956 0
M  V30 519 C 47.7321 0.0579394 -1.70001 0
M  V30 520 O 48.9171 -0.104684 -1.93918 0
M  V30 521 C 46.0471 -0.601023 -3.4206 0
M  V30 522 C 45.0011 -1.62694 -3.95872 0
M  V30 523 C 44.3271 -1.06193 -5.24049 0
M  V30 524 C 45.6271 -3.01743 -4.2632 0
M  V30 525 H 47.3211 -1.94916 -2.27262 0
M  V30 526 H 44.8671 -0.938566 -1.09211 0
M  V30 527 H 46.8201 -0.445561 -4.19038 0
M  V30 528 H 45.5441 0.362005 -3.24588 0
M  V30 529 H 44.2031 -1.77021 -3.21028 0
M  V30 530 H 43.8511 -0.0901903 -5.02919 0
M  V30 531 H 43.5511 -1.74732 -5.61019 0
M  V30 532 H 45.0751 -0.918092 -6.03658 0
M  V30 533 H 46.4891 -2.90777 -4.94087 0
M  V30 534 H 44.8861 -3.67425 -4.74467 0
M  V30 535 H 45.9561 -3.51518 -3.34011 0
M  V30 536 N 47.2992 1.18797 -1.03562 0
M  V30 537 C 48.5472 1.88278 -0.734569 0
M  V30 538 C 48.8682 1.8043 0.739586 0
M  V30 539 O 48.1382 1.21925 1.53333 0
M  V30 540 H 46.7182 0.696991 -0.268725 0
M  V30 541 H 49.3802 1.44192 -1.31129 0
M  V30 542 H 48.4762 2.94443 -1.03489 0
M  V30 543 N 48.7773 0.814389 1.34928 0
M  V30 544 C 50.0023 0.410097 2.03305 0
M  V30 545 C 50.4273 -0.973464 1.60951 0
M  V30 546 O 49.7853 -1.63185 0.789964 0
M  V30 547 C 49.8333 0.51049 3.56968 0
M  V30 548 O 48.9373 -0.473035 4.09678 0
M  V30 549 H 48.2783 0.170088 0.641846 0
M  V30 550 H 50.8083 1.10244 1.72358 0
M  V30 551 H 50.8183 0.383135 4.06197 0
M  V30 552 H 49.4933 1.51963 3.87144 0
M  V30 553 H 48.0703 -0.305272 3.71648 0
M  V30 554 N 50.2554 -1.46986 0.568584 0
M  V30 555 C 51.5034 -2.02041 0.0487022 0
M  V30 556 C 51.8244 -1.44408 -1.31039 0
M  V30 557 O 51.0944 -0.623477 -1.85714 0
M  V30 558 H 49.6744 -0.746849 0.015014 0
M  V30 559 H 52.3364 -1.80257 0.741168 0
M  V30 560 H 51.4324 -3.12085 -0.0308961 0
M  V30 561 N 51.7335 -0.305618 -1.54608 0
M  V30 562 C 52.6635 0.561482 -2.26649 0
M  V30 563 C 53.6445 1.13415 -1.26772 0
M  V30 564 O 54.8295 1.16262 -1.55553 0
M  V30 565 C 51.9595 1.73122 -3.01075 0
M  V30 566 C 50.9135 1.2887 -4.08138 0
M  V30 567 C 50.2395 2.54396 -4.70305 0
M  V30 568 C 51.5395 0.416578 -5.20636 0
M  V30 569 H 53.2335 -0.0393902 -2.99374 0
M  V30 570 H 50.7795 -0.020385 -1.43986 0
M  V30 571 H 52.7325 2.34396 -3.50195 0
M  V30 572 H 51.4565 2.3584 -2.25936 0
M  V30 573 H 50.1155 0.698991 -3.59875 0
M  V30 574 H 49.7635 3.15439 -3.918 0
M  V30 575 H 49.4635 2.25486 -5.42614 0
M  V30 576 H 50.9875 3.16464 -5.2219 0
M  V30 577 H 52.4015 0.935116 -5.65622 0
M  V30 578 H 50.7985 0.221046 -5.99693 0
M  V30 579 H 51.8685 -0.557162 -4.81688 0
M  V30 580 N 53.2116 1.57565 -0.0334293 0
M  V30 581 C 54.4596 1.91598 0.642999 0
M  V30 582 C 54.7806 0.910847 1.7242 0
M  V30 583 O 54.0506 -0.0469931 1.95844 0
M  V30 584 H 52.6306 0.707228 0.240496 0
M  V30 585 H 55.2926 1.94726 -0.0822488 0
M  V30 586 H 54.3886 2.92336 1.09298 0
M  V30 587 N 54.6897 -0.239769 1.55765 0
M  V30 588 C 55.6527 -1.28038 1.90103 0
M  V30 589 C 56.6527 -1.40723 0.778055 0
M  V30 590 O 57.8427 -1.39301 1.04599 0
M  V30 591 C 54.9747 -2.65702 2.13577 0
M  V30 592 H 56.1677 -0.988048 2.83157 0
M  V30 593 H 53.7207 -0.479382 1.48767 0
M  V30 594 H 54.4557 -3.00063 1.23015 0
M  V30 595 H 54.2407 -2.57875 2.95369 0
M  V30 596 H 55.7307 -3.40828 2.41301 0
M  V30 597 N 56.1678 -1.49265 -0.50573 0
M  V30 598 C 57.0978 -1.68495 -1.61653 0
M  V30 599 C 58.0788 -0.53366 -1.61512 0
M  V30 600 O 59.2638 -0.76897 -1.78327 0
M  V30 601 C 56.3938 -1.74709 -3.00157 0
M  V30 602 C 55.3478 -2.89581 -3.15162 0
M  V30 603 C 54.6738 -2.80903 -4.5497 0
M  V30 604 C 55.9738 -4.30578 -2.95634 0
M  V30 605 H 57.6678 -2.61493 -1.45814 0
M  V30 606 H 55.2138 -1.25838 -0.70005 0
M  V30 607 H 57.1668 -1.86748 -3.77761 0
M  V30 608 H 55.8908 -0.783067 -3.17074 0
M  V30 609 H 54.5498 -2.77136 -2.39982 0
M  V30 610 H 54.1978 -1.82419 -4.68756 0
M  V30 611 H 53.8978 -3.57999 -4.65951 0
M  V30 612 H 55.4218 -2.94944 -5.34641 0
M  V30 613 H 56.8358 -4.4373 -3.63011 0
M  V30 614 H 55.2328 -5.0886 -3.18091 0
M  V30 615 H 56.3028 -4.45352 -1.91806 0
M  V30 616 N 57.6459 0.756429 -1.3826 0
M  V30 617 C 58.6089 1.85176 -1.35065 0
M  V30 618 C 59.6089 1.58818 -0.251703 0
M  V30 619 O 60.7989 1.66615 -0.508433 0
M  V30 620 C 57.9309 3.22596 -1.10201 0
M  V30 621 H 59.1239 1.89417 -2.3251 0
M  V30 622 H 56.6769 0.95783 -1.23512 0
M  V30 623 H 57.4119 3.24025 -0.133504 0
M  V30 624 H 57.1969 3.43122 -1.89762 0
M  V30 625 H 58.6869 4.02673 -1.10654 0
M  V30 626 N 59.124 1.23083 0.984299 0
M  V30 627 C 60.401 0.9689 1.69917 0
M  V30 628 C 60.781 -0.513604 2.04757 0
M  V30 629 O 60.129 -1.48383 1.73767 0
M  V30 630 C 60.339 1.87518 2.94343 0
M  V30 631 C 61.687 2.13636 3.6694 0
M  V30 632 O 62.711 1.85036 3.04368 0
M  V30 633 O 61.57 2.62119 4.79537 0
M  V30 634 H 58.664 0.365095 0.742048 0
M  V30 635 H 61.21 1.34107 1.03987 0
M  V30 636 H 59.982 2.87756 2.65164 0
M  V30 637 H 59.605 1.50514 3.6801 0
M  V30 638 N 60.6021 -1.18246 1.0419 0
M  V30 639 C 61.5341 -2.2142 0.592088 0
M  V30 640 C 62.5471 -1.59233 -0.338909 0
M  V30 641 O 63.7361 -1.78002 -0.133231 0
M  V30 642 C 60.8361 -3.38546 -0.154854 0
M  V30 643 C 60.0091 -4.3031 0.784328 0
M  V30 644 C 59.0681 -5.26138 0.0804583 0
M  V30 645 O 58.0941 -5.64738 0.711292 0
M  V30 646 N 59.2961 -5.68261 -1.18574 0
M  V30 647 H 62.0611 -2.60636 1.47949 0
M  V30 648 H 59.6221 -1.33044 0.922544 0
M  V30 649 H 61.6141 -3.99678 -0.635606 0
M  V30 650 H 60.1841 -2.98012 -0.943811 0
M  V30 651 H 59.4041 -3.66764 1.44491 0
M  V30 652 H 60.6921 -4.8852 1.42218 0
M  V30 653 H 60.0901 -5.38957 -1.71876 0
M  V30 654 H 58.6471 -6.31584 -1.61074 0
M  V30 655 N 62.0802 -0.821533 -1.34494 0
M  V30 656 C 63.3292 -0.405355 -1.97585 0
M  V30 657 C 63.6422 1.03677 -1.65863 0
M  V30 658 O 64.8482 1.55679 -2.22433 0
M  V30 659 C 63.3042 -0.673861 -3.53535 0
M  V30 660 C 62.9122 -2.12951 -3.94152 0
M  V30 661 C 64.6562 -0.32378 -4.23263 0
M  V30 662 C 62.5632 -2.34298 -5.43009 0
M  V30 663 H 61.4932 -0.147836 -0.739365 0
M  V30 664 H 64.1442 -1.00769 -1.53355 0
M  V30 665 H 62.5262 -0.00137554 -3.96 0
M  V30 666 H 63.7002 -2.84104 -3.62797 0
M  V30 667 H 62.0152 -2.44089 -3.37356 0
M  V30 668 H 64.6122 -0.461126 -5.32708 0
M  V30 669 H 64.9552 0.731586 -4.09821 0
M  V30 670 H 65.4882 -0.950786 -3.8627 0
M  V30 671 H 62.2272 -3.38335 -5.61435 0
M  V30 672 H 61.7472 -1.67687 -5.75883 0
M  V30 673 H 63.4262 -2.16588 -6.09671 0
M  V30 674 N 63.5583 1.46682 -0.576371 0
M  V30 675 C 64.4683 2.34032 0.163141 0
M  V30 676 C 65.4843 1.49367 0.892501 0
M  V30 677 O 66.6603 1.82252 0.857106 0
M  V30 678 C 63.7253 3.26435 1.16795 0
M  V30 679 C 62.7863 4.26998 0.443944 0
M  V30 680 C 62.0193 5.14986 1.40088 0
M  V30 681 O 62.2423 5.05785 2.637 0
M  V30 682 O 61.1763 5.94906 0.914917 0
M  V30 683 H 65.0023 2.98607 -0.55388 0
M  V30 684 H 62.5873 1.45554 -0.336821 0
M  V30 685 H 64.4693 3.83459 1.74748 0
M  V30 686 H 63.1443 2.64465 1.86655 0
M  V30 687 H 62.0513 3.7368 -0.177271 0
M  V30 688 H 63.3843 4.91736 -0.213566 0
M  V30 689 N 65.0364 0.313813 1.54444 0
M  V30 690 C 65.9844 -0.572171 2.25453 0
M  V30 691 C 66.9784 -1.12657 1.2651 0
M  V30 692 O 68.1844 -1.07573 1.44319 0
M  V30 693 H 64.5594 -0.203146 0.724041 0
M  V30 694 H 66.5304 0.0491145 2.9836 0
M  V30 695 C 65.2794 -1.72626 3.0182 0
M  V30 696 H 64.6024 -1.30891 3.77767 0
M  V30 697 H 66.0424 -2.32199 3.54767 0
M  V30 698 C 64.5014 -2.63806 2.09542 0
M  V30 699 O 65.0314 -3.65256 1.67185 0
M  V30 700 N 63.2374 -2.31824 1.75232 0
M  V30 701 H 62.7844 -1.49368 2.09873 0
M  V30 702 H 62.7424 -2.93095 1.13767 0
M  V30 703 N 66.5145 -1.57545 0.0417849 0
M  V30 704 C 67.4775 -2.09885 -0.92093 0
M  V30 705 C 68.4775 -1.01648 -1.24596 0
M  V30 706 O 69.6675 -1.27759 -1.1842 0
M  V30 707 C 66.7995 -2.57527 -2.23367 0
M  V30 708 H 67.9925 -2.96236 -0.467382 0
M  V30 709 H 65.5455 -1.5493 -0.206467 0
M  V30 710 H 66.2805 -1.74542 -2.73323 0
M  V30 711 H 66.0655 -3.36613 -2.01083 0
M  V30 712 H 67.5555 -2.98201 -2.92346 0
M  V30 713 N 67.9926 0.231505 -1.5589 0
M  V30 714 C 69.2386 0.95877 -1.78705 0
M  V30 715 C 69.5716 1.8438 -0.609725 0
M  V30 716 O 68.8466 1.90521 0.391426 0
M  V30 717 C 69.1296 1.8062 -3.11526 0
M  V30 718 C 68.9826 0.948328 -4.39689 0
M  V30 719 C 70.3016 2.78585 -3.40703 0
M  V30 720 H 67.4206 0.347129 -0.650131 0
M  V30 721 H 70.0626 0.228259 -1.88624 0
M  V30 722 H 68.2126 2.42902 -3.03201 0
M  V30 723 H 69.8846 0.343016 -4.60023 0
M  V30 724 H 68.1276 0.253314 -4.3306 0
M  V30 725 H 68.7986 1.57543 -5.29041 0
M  V30 726 H 71.2746 2.26439 -3.49091 0
M  V30 727 H 70.1506 3.34988 -4.34826 0
M  V30 728 H 70.4116 3.55825 -2.62375 0
M  V30 729 N 69.4707 1.49531 0.497807 0
M  V30 730 C 70.4337 1.65916 1.58128 0
M  V30 731 C 71.4337 0.530825 1.51786 0
M  V30 732 O 72.6237 0.797342 1.54881 0
M  V30 733 C 69.7557 1.65951 2.9778 0
M  V30 734 H 70.9487 2.62556 1.44929 0
M  V30 735 H 68.5017 1.38611 0.722275 0
M  V30 736 H 69.2367 0.709065 3.16453 0
M  V30 737 H 69.0217 2.47897 3.03792 0
M  V30 738 H 70.5117 1.80673 3.76493 0
M  V30 739 N 70.9488 -0.749086 1.3866 0
M  V30 740 C 72.1978 -1.50371 1.3443 0
M  V30 741 C 72.5108 -1.95503 -0.0616397 0
M  V30 742 O 73.7168 -2.70554 -0.226489 0
M  V30 743 C 72.1728 -2.71644 2.36088 0
M  V30 744 C 71.7808 -2.3352 3.82325 0
M  V30 745 C 73.5248 -3.49518 2.40909 0
M  V30 746 C 71.4318 -3.51431 4.75658 0
M  V30 747 H 70.3618 -0.564628 0.499712 0
M  V30 748 H 73.0128 -0.818449 1.64237 0
M  V30 749 H 71.3948 -3.42175 1.9933 0
M  V30 750 H 72.5688 -1.70627 4.28046 0
M  V30 751 H 70.8838 -1.6877 3.80665 0
M  V30 752 H 73.4808 -4.37197 3.07836 0
M  V30 753 H 73.8238 -3.90992 1.42937 0
M  V30 754 H 74.3568 -2.86005 2.76489 0
M  V30 755 H 71.0958 -3.15019 5.74842 0
M  V30 756 H 70.6158 -4.13352 4.34627 0
M  V30 757 H 72.2948 -4.17953 4.93887 0
M  V30 758 N 72.4269 -1.23603 -0.977757 0
M  V30 759 C 73.6519 -1.09735 -1.75991 0
M  V30 760 C 74.0769 0.346858 -1.84874 0
M  V30 761 O 73.4349 1.25093 -1.3123 0
M  V30 762 C 73.4829 -1.73051 -3.16363 0
M  V30 763 O 72.5869 -0.994452 -4.0023 0
M  V30 764 H 71.9279 -0.384476 -0.541364 0
M  V30 765 H 74.4579 -1.6371 -1.2272 0
M  V30 766 H 74.4679 -1.78398 -3.66931 0
M  V30 767 H 73.1429 -2.78137 -3.09213 0
M  V30 768 H 71.7199 -1.01812 -3.58732 0
M  V30 769 N 73.905 1.17692 -1.04816 0
M  V30 770 C 75.135 1.91508 -0.775128 0
M  V30 771 C 75.543 1.76844 0.67253 0
M  V30 772 O 74.886 1.10057 1.47082 0
M  V30 773 C 74.948 3.43167 -1.0713 0
M  V30 774 C 74.612 3.81612 -2.51438 0
M  V30 775 C 75.609 3.84772 -3.49638 0
M  V30 776 C 73.294 4.12687 -2.86348 0
M  V30 777 C 75.288 4.18469 -4.80794 0
M  V30 778 C 72.975 4.46053 -4.17708 0
M  V30 779 C 73.973 4.48921 -5.14741 0
M  V30 780 O 73.661 4.81504 -6.43746 0
M  V30 781 H 73.393 0.614575 -0.281555 0
M  V30 782 H 75.947 1.50206 -1.40098 0
M  V30 783 H 74.177 3.84745 -0.388342 0
M  V30 784 H 75.866 3.98239 -0.784883 0
M  V30 785 H 76.632 3.60893 -3.24008 0
M  V30 786 H 72.511 4.09627 -2.11486 0
M  V30 787 H 76.055 4.20623 -5.56527 0
M  V30 788 H 71.952 4.69393 -4.43103 0
M  V30 789 H 72.72 4.99377 -6.4851 0
M  V30 790 N 75.3831 0.828654 1.34056 0
M  V30 791 C 76.2931 0.256725 2.33191 0
M  V30 792 C 77.3091 -0.611898 1.62886 0
M  V30 793 O 78.4851 -0.51844 1.94613 0
M  V30 794 C 75.5501 -0.567238 3.42028 0
M  V30 795 C 74.6111 0.324458 4.28072 0
M  V30 796 C 73.8441 -0.460274 5.31712 0
M  V30 797 O 74.0671 -1.693 5.44696 0
M  V30 798 O 73.0011 0.160391 6.01686 0
M  V30 799 H 76.8271 1.07739 2.83947 0
M  V30 800 H 74.4121 0.59093 1.37217 0
M  V30 801 H 76.2941 -1.03582 4.08471 0
M  V30 802 H 74.9691 -1.36513 2.93506 0
M  V30 803 H 73.8761 0.840659 3.64532 0
M  V30 804 H 75.2091 1.08685 4.8005 0
M  V30 805 N 76.8612 -1.46375 0.584142 0
M  V30 806 C 77.8082 -2.30323 -0.148286 0
M  V30 807 C 78.7782 -1.40703 -0.882713 0
M  V30 808 O 79.9632 -1.69651 -0.873099 0
M  V30 809 C 77.1032 -3.25196 -1.15507 0
M  V30 810 C 76.2162 -4.29915 -0.423943 0
M  V30 811 C 75.3512 -5.11914 -1.41838 0
M  V30 812 C 74.3902 -6.08381 -0.673736 0
M  V30 813 N 73.5272 -6.83242 -1.6163 0
M  V30 814 H 78.3672 -2.92427 0.573644 0
M  V30 815 H 75.9042 -1.44118 0.294703 0
M  V30 816 H 77.8622 -3.78646 -1.75166 0
M  V30 817 H 76.4922 -2.64898 -1.8447 0
M  V30 818 H 75.5442 -3.7931 0.287714 0
M  V30 819 H 76.8562 -4.98549 0.158128 0
M  V30 820 H 76.0102 -5.69648 -2.08773 0
M  V30 821 H 74.7492 -4.43243 -2.03438 0
M  V30 822 H 73.7542 -5.49799 0.00938483 0
M  V30 823 H 74.9792 -6.79071 -0.0631082 0
M  V30 824 H 72.9252 -6.1728 -2.22038 0
M  V30 825 H 72.8422 -7.48144 -1.08707 0
M  V30 826 H 74.1102 -7.45534 -2.27596 0
M  V30 827 N 78.3393 -0.321999 -1.54275 0
M  V30 828 C 79.2693 0.537411 -2.27231 0
M  V30 829 C 80.2503 1.12064 -1.27968 0
M  V30 830 O 81.4353 1.14606 -1.56777 0
M  V30 831 C 78.5653 1.69919 -3.02894 0
M  V30 832 C 77.5193 1.24534 -4.09482 0
M  V30 833 C 76.8453 2.49394 -4.72977 0
M  V30 834 C 78.1453 0.361335 -5.21049 0
M  V30 835 H 79.8393 -0.0711406 -2.99315 0
M  V30 836 H 77.3853 -0.0356555 -1.43956 0
M  V30 837 H 79.3383 2.30668 -3.52662 0
M  V30 838 H 78.0623 2.33431 -2.28424 0
M  V30 839 H 76.7213 0.660782 -3.60596 0
M  V30 840 H 76.3693 3.11265 -3.95124 0
M  V30 841 H 76.0693 2.19718 -5.44975 0
M  V30 842 H 77.5933 3.10908 -5.25517 0
M  V30 843 H 79.0073 0.875072 -5.66582 0
M  V30 844 H 77.4043 0.157428 -5.99893 0
M  V30 845 H 78.4743 -0.60822 -4.8107 0
M  V30 846 N 79.8174 1.5752 -0.0501392 0
M  V30 847 C 81.2284 1.80271 0.485705 0
M  V30 848 C 81.5794 0.96228 1.70981 0
M  V30 849 O 80.7044 0.178578 2.15662 0
M  V30 850 C 81.2994 3.26957 0.887938 0
M  V30 851 C 79.8584 3.5063 1.36877 0
M  V30 852 C 79.0054 2.75165 0.343468 0
M  V30 853 H 81.9564 1.56281 -0.276028 0
M  V30 854 H 81.9774 3.37821 1.75093 0
M  V30 855 H 81.4894 3.881 -0.0031809 0
M  V30 856 H 79.5904 2.94766 2.27911 0
M  V30 857 H 79.7034 4.59343 1.36164 0
M  V30 858 H 78.0674 2.4127 0.816128 0
M  V30 859 H 78.8504 3.39034 -0.539548 0
M  V30 860 N 81.2955 -0.223234 1.56011 0
M  V30 861 C 82.5435 -0.946003 1.78592 0
M  V30 862 C 82.8645 -1.84936 0.618349 0
M  V30 863 O 82.1345 -1.92473 -0.364833 0
M  V30 864 H 80.7145 -0.352298 0.658707 0
M  V30 865 H 83.3765 -0.235494 1.93472 0
M  V30 866 H 82.4725 -1.55381 2.70672 0
M  V30 867 N 82.7736 -1.49793 -0.48987 0
M  V30 868 C 84.0206 -1.59841 -1.24327 0
M  V30 869 C 84.3486 -0.290135 -1.92324 0
M  V30 870 O 83.6036 0.722749 -1.81865 0
M  V30 871 C 83.9026 -2.71488 -2.32441 0
M  V30 872 C 83.5686 -4.12614 -1.81826 0
M  V30 873 C 82.2306 -4.51017 -1.67742 0
M  V30 874 C 84.5826 -5.00892 -1.4407 0
M  V30 875 C 81.9106 -5.75459 -1.14297 0
M  V30 876 C 84.2626 -6.25863 -0.920742 0
M  V30 877 C 82.9266 -6.63086 -0.766383 0
M  V30 878 H 82.1966 -0.584899 -0.454944 0
M  V30 879 H 84.8436 -1.83663 -0.542215 0
M  V30 880 H 83.1486 -2.4168 -3.0838 0
M  V30 881 H 84.8456 -2.76469 -2.90458 0
M  V30 882 H 81.4356 -3.82307 -1.93751 0
M  V30 883 H 85.6196 -4.7187 -1.53794 0
M  V30 884 H 80.8756 -6.02989 -1.01068 0
M  V30 885 H 85.0496 -6.9364 -0.619448 0
M  V30 886 H 82.6766 -7.59393 -0.350083 0
M  V30 887 N 84.2517 0.741722 -1.39055 0
M  V30 888 C 85.6627 1.31966 -1.32068 0
M  V30 889 C 86.0137 1.96192 0.0180797 0
M  V30 890 O 85.1387 1.95861 0.920196 0
M  V30 891 C 85.7337 2.39954 -2.39181 0
M  V30 892 C 84.2927 2.93438 -2.35735 0
M  V30 893 C 83.4397 1.66936 -2.21422 0
M  V30 894 H 86.3907 0.539721 -1.4924 0
M  V30 895 H 86.4117 3.20182 -2.05581 0
M  V30 896 H 85.9237 1.9318 -3.36605 0
M  V30 897 H 84.0247 3.4451 -1.41929 0
M  V30 898 H 84.1377 3.4701 -3.30335 0
M  V30 899 H 82.5017 1.91016 -1.68478 0
M  V30 900 H 83.2847 1.22224 -3.20806 0
M  V30 901 N 85.7298 1.2412 0.971189 0
M  V30 902 C 86.9758 1.08041 1.71625 0
M  V30 903 C 87.3088 -0.380407 1.90438 0
M  V30 904 O 86.5838 -1.28127 1.46334 0
M  V30 905 C 86.8668 1.81682 3.10908 0
M  V30 906 C 86.7198 3.35493 2.99608 0
M  V30 907 C 88.0388 1.58671 4.10501 0
M  V30 908 H 85.1578 0.39388 0.622919 0
M  V30 909 H 87.7998 1.52743 1.13003 0
M  V30 910 H 85.9498 1.43684 3.60953 0
M  V30 911 H 87.6218 3.83068 2.57015 0
M  V30 912 H 85.8648 3.64052 2.35899 0
M  V30 913 H 86.5358 3.82217 3.98264 0
M  V30 914 H 89.0118 1.91719 3.69301 0
M  V30 915 H 87.8878 2.1266 5.06031 0
M  V30 916 H 88.1488 0.524161 4.38982 0
M  V30 917 N 87.2079 -1.17134 1.05439 0
M  V30 918 C 88.4329 -1.91913 0.786396 0
M  V30 919 C 88.8579 -1.7643 -0.652234 0
M  V30 920 O 88.2159 -1.08372 -1.45345 0
M  V30 921 C 88.2639 -3.40921 1.17497 0
M  V30 922 O 87.3679 -4.11244 0.308589 0
M  V30 923 H 86.7089 -0.598215 0.288158 0
M  V30 924 H 89.2389 -1.48457 1.4079 0
M  V30 925 H 89.2489 -3.91668 1.14281 0
M  V30 926 H 87.9239 -3.5151 2.22292 0
M  V30 927 H 86.5009 -3.70731 0.40157 0
M  V30 928 N 88.686 -0.835752 -1.33615 0
M  V30 929 C 89.914 -0.443344 -2.02094 0
M  V30 930 C 90.329 0.954522 -1.62894 0
M  V30 931 O 89.686 1.61982 -0.840723 0
M  V30 932 C 89.737 -0.550775 -3.5728 0
M  V30 933 O 89.458 -1.89356 -3.95065 0
M  V30 934 C 90.959 -0.154919 -4.43029 0
M  V30 935 H 88.179 -0.176359 -0.647409 0
M  V30 936 H 90.723 -1.12746 -1.70612 0
M  V30 937 H 88.878 0.0853997 -3.87306 0
M  V30 938 H 89.292 -1.87687 -4.89769 0
M  V30 939 H 90.766 -0.281144 -5.51284 0
M  V30 940 H 91.243 0.902863 -4.2982 0
M  V30 941 H 91.849 -0.765404 -4.18356 0
M  V30 942 N 90.1641 1.46063 -0.591896 0
M  V30 943 C 91.4101 2.02638 -0.0811191 0
M  V30 944 C 91.7431 1.4613 1.27905 0
M  V30 945 O 91.0181 0.629908 1.84017 0
M  V30 946 C 91.3011 3.60091 -0.0252436 0
M  V30 947 C 91.1541 4.26965 -1.41496 0
M  V30 948 C 92.4731 4.3496 0.670685 0
M  V30 949 H 89.5921 0.73635 -0.0309524 0
M  V30 950 H 92.2341 1.741 -0.760859 0
M  V30 951 H 90.3841 3.84535 0.553624 0
M  V30 952 H 92.0561 4.13756 -2.0397 0
M  V30 953 H 90.2991 3.85971 -1.98011 0
M  V30 954 H 90.9701 5.35781 -1.32825 0
M  V30 955 H 93.4461 4.15716 0.178825 0
M  V30 956 H 92.3221 5.44686 0.678837 0
M  V30 957 H 92.5831 4.06685 1.73379 0
M  V30 958 N 91.6422 0.330177 1.54103 0
M  V30 959 C 92.5922 -0.548456 2.21305 0
M  V30 960 C 93.5762 -1.07651 1.19583 0
M  V30 961 O 94.7682 -1.01243 1.45186 0
M  V30 962 C 91.8972 -1.70559 2.97934 0
M  V30 963 C 90.9832 -1.19212 4.07 0
M  V30 964 N 91.3742 -0.398831 5.04225 0
M  V30 965 C 89.6722 -1.47024 4.2107 0
M  V30 966 C 90.3732 -0.121761 5.81573 0
M  V30 967 N 89.3492 -0.709722 5.38947 0
M  V30 968 H 93.1512 0.0648483 2.93828 0
M  V30 969 H 90.6652 0.136363 1.61826 0
M  V30 970 H 92.6622 -2.34688 3.44568 0
M  V30 971 H 91.3222 -2.32231 2.26934 0
M  V30 972 H 92.3332 -0.0410869 5.17884 0
M  V30 973 H 89.0102 -2.09232 3.61287 0
M  V30 974 H 90.4002 0.517298 6.69906 0
M  V30 975 N 93.1203 -1.57491 0.0584922 0
M  V30 976 C 94.3683 -1.92597 -0.612436 0
M  V30 977 C 94.6893 -0.938162 -1.70949 0
M  V30 978 O 93.9593 0.0158301 -1.95894 0
M  V30 979 H 92.5393 -0.710964 -0.229214 0
M  V30 980 H 95.2013 -1.94571 0.113218 0
M  V30 981 H 94.2973 -2.94038 -1.04633 0
M  V30 982 N 94.5984 0.214957 -1.56127 0
M  V30 983 C 95.5484 1.27006 -1.8935 0
M  V30 984 C 96.5324 1.41969 -0.757202 0
M  V30 985 O 97.7244 1.44673 -1.01973 0
M  V30 986 C 94.8534 2.61911 -2.2194 0
M  V30 987 C 93.9394 2.50822 -3.41978 0
M  V30 988 N 94.3304 2.09391 -4.60423 0
M  V30 989 C 92.6284 2.81765 -3.45723 0
M  V30 990 C 93.3294 2.09712 -5.42582 0
M  V30 991 N 92.3054 2.50454 -4.82466 0
M  V30 992 H 96.1074 0.940734 -2.78437 0
M  V30 993 H 93.6214 0.423492 -1.56781 0
M  V30 994 H 95.6184 3.38096 -2.43919 0
M  V30 995 H 94.2784 2.95684 -1.34169 0
M  V30 996 H 95.2894 1.80416 -4.85459 0
M  V30 997 H 91.9664 3.19865 -2.68314 0
M  V30 998 H 93.3564 1.79748 -6.4741 0
M  V30 999 N 96.0765 1.50051 0.48192 0
M  V30 1000 C 97.0395 1.67584 1.5636 0
M  V30 1001 C 98.0395 0.546894 1.51214 0
M  V30 1002 O 99.2295 0.813725 1.54026 0
M  V30 1003 C 96.3615 1.691 2.96003 0
M  V30 1004 H 97.5545 2.64078 1.42136 0
M  V30 1005 H 95.1075 1.39369 0.707533 0
M  V30 1006 H 95.8425 0.742589 3.15684 0
M  V30 1007 H 95.6275 2.51105 3.01146 0
M  V30 1008 H 97.1175 1.84656 3.74556 0
M  V30 1009 N 97.5546 -0.734337 1.39446 0
M  V30 1010 C 98.8026 -1.49096 1.36436 0
M  V30 1011 C 99.1236 -1.94961 -0.0388255 0
M  V30 1012 O 98.3936 -1.69033 -0.990191 0
M  V30 1013 H 96.9736 -0.5531 0.502085 0
M  V30 1014 H 99.6356 -0.871725 1.74319 0
M  V30 1015 H 98.7316 -2.37276 2.02747 0
M  V30 1016 N 99.0327 -1.24633 -0.964593 0
M  V30 1017 C 99.9427 -1.05859 -2.09359 0
M  V30 1018 C 100.959 0.00148855 -1.74 0
M  V30 1019 O 102.135 -0.197346 -2.00431 0
M  V30 1020 C 99.1997 -0.668879 -3.40187 0
M  V30 1021 C 98.2607 -1.80578 -3.89474 0
M  V30 1022 C 97.4937 -1.43457 -5.14058 0
M  V30 1023 O 97.7167 -0.325775 -5.69469 0
M  V30 1024 O 96.6507 -2.2613 -5.57807 0
M  V30 1025 H 100.477 -2.00516 -2.28094 0
M  V30 1026 H 98.0617 -1.03481 -1.0776 0
M  V30 1027 H 99.9437 -0.463211 -4.18846 0
M  V30 1028 H 98.6187 0.248536 -3.22744 0
M  V30 1029 H 97.5257 -2.06623 -3.11862 0
M  V30 1030 H 98.8587 -2.70208 -4.11398 0
M  V30 1031 N 100.511 1.16574 -1.06058 0
M  V30 1032 C 101.441 2.23057 -0.690488 0
M  V30 1033 C 102.422 1.67141 0.315901 0
M  V30 1034 O 103.607 1.93253 0.191556 0
M  V30 1035 C 100.737 3.47222 -0.073625 0
M  V30 1036 C 99.6908 4.16016 -1.00573 0
M  V30 1037 C 99.0168 5.34104 -0.252289 0
M  V30 1038 C 100.317 4.67264 -2.33371 0
M  V30 1039 H 102.011 2.54271 -1.58072 0
M  V30 1040 H 99.5568 1.22218 -0.76149 0
M  V30 1041 H 101.51 4.20939 0.19714 0
M  V30 1042 H 100.234 3.15302 0.85161 0
M  V30 1043 H 98.8928 3.44223 -1.2612 0
M  V30 1044 H 98.5408 4.98437 0.675988 0
M  V30 1045 H 98.2408 5.81072 -0.873455 0
M  V30 1046 H 99.7648 6.10599 0.0109857 0
M  V30 1047 H 101.179 5.32573 -2.12223 0
M  V30 1048 H 99.5758 5.24843 -2.90963 0
M  V30 1049 H 100.646 3.83602 -2.96611 0
M  V30 1050 N 101.989 0.842826 1.3317 0
M  V30 1051 C 103.235 0.441099 1.97945 0
M  V30 1052 C 103.568 -0.998024 1.66593 0
M  V30 1053 O 102.843 -1.69839 0.947898 0
M  V30 1054 C 103.126 0.666841 3.53872 0
M  V30 1055 C 102.979 2.15352 3.94897 0
M  V30 1056 C 104.298 0.115544 4.39948 0
M  V30 1057 H 101.417 0.161739 0.719034 0
M  V30 1058 H 104.059 1.05907 1.57746 0
M  V30 1059 H 102.209 0.140828 3.88245 0
M  V30 1060 H 103.881 2.7447 3.70761 0
M  V30 1061 H 102.124 2.63653 3.44484 0
M  V30 1062 H 102.795 2.26221 5.03516 0
M  V30 1063 H 105.271 0.565213 4.12243 0
M  V30 1064 H 104.147 0.303152 5.48062 0
M  V30 1065 H 104.408 -0.980935 4.3108 0
M  V30 1066 N 103.467 -1.45747 0.599634 0
M  V30 1067 C 104.397 -2.33235 -0.111306 0
M  V30 1068 C 105.378 -1.46359 -0.866781 0
M  V30 1069 O 106.563 -1.75146 -0.838904 0
M  V30 1070 C 103.693 -3.28932 -1.11451 0
M  V30 1071 C 102.647 -4.25381 -0.472772 0
M  V30 1072 C 101.973 -5.1071 -1.58365 0
M  V30 1073 C 103.273 -5.18831 0.600948 0
M  V30 1074 H 104.967 -2.92927 0.61919 0
M  V30 1075 H 102.513 -1.40857 0.299215 0
M  V30 1076 H 104.466 -3.89002 -1.62036 0
M  V30 1077 H 103.19 -2.67381 -1.8755 0
M  V30 1078 H 101.849 -3.66598 0.0121472 0
M  V30 1079 H 101.497 -4.45533 -2.33473 0
M  V30 1080 H 101.197 -5.7604 -1.15982 0
M  V30 1081 H 102.721 -5.73647 -2.09194 0
M  V30 1082 H 104.135 -5.73019 0.179491 0
M  V30 1083 H 102.532 -5.92595 0.946076 0
M  V30 1084 H 103.602 -4.6174 1.48068 0
M  V30 1085 N 104.945 -0.338344 -1.53925 0
M  V30 1086 C 106.193 0.259245 -2.0043 0
M  V30 1087 C 106.514 1.51484 -1.22791 0
M  V30 1088 O 105.784 1.93037 -0.33368 0
M  V30 1089 H 104.364 0.0987845 -0.740439 0
M  V30 1090 H 107.026 -0.458302 -1.89435 0
M  V30 1091 H 106.122 0.505334 -3.07982 0
M  V30 1092 N 106.423 1.57458 -0.0668435 0
M  V30 1093 C 107.373 2.0896 0.912119 0
M  V30 1094 C 108.357 0.998186 1.26195 0
M  V30 1095 O 109.549 1.26133 1.24175 0
M  V30 1096 C 106.678 2.6508 2.18145 0
M  V30 1097 C 105.764 3.81218 1.85832 0
M  V30 1098 N 106.155 4.90378 1.23948 0
M  V30 1099 C 104.453 3.9042 2.15612 0
M  V30 1100 C 105.154 5.71279 1.09616 0
M  V30 1101 N 104.13 5.19389 1.60423 0
M  V30 1102 H 107.932 2.90749 0.42924 0
M  V30 1103 H 105.446 1.6182 0.137184 0
M  V30 1104 H 107.443 3.0029 2.89192 0
M  V30 1105 H 106.103 1.84736 2.67025 0
M  V30 1106 H 107.114 5.09847 0.909731 0
M  V30 1107 H 103.791 3.21043 2.66903 0
M  V30 1108 H 105.181 6.69085 0.614425 0
M  V30 1109 N 107.901 -0.206675 1.56239 0
M  V30 1110 C 108.831 -1.25909 1.96645 0
M  V30 1111 C 109.812 -1.48097 0.836734 0
M  V30 1112 O 110.997 -1.6003 1.10019 0
M  V30 1113 C 108.127 -2.6058 2.29599 0
M  V30 1114 C 107.081 -2.53024 3.452 0
M  V30 1115 C 106.407 -3.91861 3.63798 0
M  V30 1116 C 107.707 -2.06524 4.79734 0
M  V30 1117 H 109.401 -0.923369 2.84806 0
M  V30 1118 H 106.947 -0.442735 1.37025 0
M  V30 1119 H 108.9 -3.34375 2.56459 0
M  V30 1120 H 107.624 -2.95869 1.38307 0
M  V30 1121 H 106.283 -1.81684 3.18412 0
M  V30 1122 H 105.931 -4.24483 2.69857 0
M  V30 1123 H 105.631 -3.87683 4.4156 0
M  V30 1124 H 107.155 -4.67296 3.93022 0
M  V30 1125 H 108.569 -2.70072 5.05702 0
M  V30 1126 H 106.966 -2.13374 5.60885 0
M  V30 1127 H 108.036 -1.01802 4.74093 0
M  V30 1128 N 109.379 -1.50304 -0.473955 0
M  V30 1129 C 110.311 -1.65109 -1.58971 0
M  V30 1130 C 111.324 -0.532676 -1.53839 0
M  V30 1131 O 112.513 -0.805751 -1.59279 0
M  V30 1132 C 109.613 -1.61684 -2.97845 0
M  V30 1133 C 108.786 -2.8951 -3.27876 0
M  V30 1134 C 107.845 -2.78768 -4.4629 0
M  V30 1135 O 106.871 -3.52722 -4.46739 0
M  V30 1136 N 108.073 -1.9213 -5.47783 0
M  V30 1137 H 110.838 -2.61347 -1.46689 0
M  V30 1138 H 108.399 -1.47732 -0.662324 0
M  V30 1139 H 110.391 -1.52114 -3.75024 0
M  V30 1140 H 108.961 -0.731925 -3.03911 0
M  V30 1141 H 108.181 -3.13228 -2.39336 0
M  V30 1142 H 109.469 -3.74199 -3.4475 0
M  V30 1143 H 108.867 -1.31353 -5.50239 0
M  V30 1144 H 107.424 -1.88466 -6.23958 0
M  V30 1145 N 110.857 0.726932 -1.39834 0
M  V30 1146 C 112.105 1.4837 -1.37225 0
M  V30 1147 C 112.426 1.94979 0.0284857 0
M  V30 1148 O 111.696 1.69555 0.981213 0
M  V30 1149 H 110.276 0.55043 -0.505011 0
M  V30 1150 H 112.938 0.862468 -1.74778 0
M  V30 1151 H 112.034 2.36198 -2.04003 0
M  V30 1152 N 112.336 1.25143 0.95797 0
M  V30 1153 C 113.582 1.09855 1.70469 0
M  V30 1154 C 113.915 -0.360187 1.90831 0
M  V30 1155 O 113.19 -1.26568 1.47685 0
M  V30 1156 C 113.473 1.8497 3.08963 0
M  V30 1157 C 113.326 3.38652 2.96032 0
M  V30 1158 C 114.645 1.63016 4.08795 0
M  V30 1159 H 111.764 0.400465 0.618706 0
M  V30 1160 H 114.406 1.53933 1.11376 0
M  V30 1161 H 112.556 1.47505 3.59409 0
M  V30 1162 H 114.228 3.85772 2.52938 0
M  V30 1163 H 112.471 3.66534 2.32025 0
M  V30 1164 H 113.142 3.8642 3.94187 0
M  V30 1165 H 115.618 1.95625 3.67247 0
M  V30 1166 H 114.494 2.18015 5.03747 0
M  V30 1167 H 114.755 0.570692 4.38401 0
M  V30 1168 N 113.814 -1.1601 1.06675 0
M  V30 1169 C 115.225 -1.68235 0.809565 0
M  V30 1170 C 115.576 -1.8454 -0.666303 0
M  V30 1171 O 114.701 -1.54374 -1.5165 0
M  V30 1172 C 115.296 -3.05585 1.46299 0
M  V30 1173 C 113.855 -3.54915 1.25349 0
M  V30 1174 C 113.002 -2.30804 1.53703 0
M  V30 1175 H 115.953 -1.00318 1.22971 0
M  V30 1176 H 115.974 -3.70174 0.880431 0
M  V30 1177 H 115.486 -2.93686 2.53713 0
M  V30 1178 H 113.587 -3.72067 0.199261 0
M  V30 1179 H 113.7 -4.36774 1.9689 0
M  V30 1180 H 112.064 -2.36007 0.957739 0
M  V30 1181 H 112.847 -2.21499 2.62284 0
M  V30 1182 N 115.292 -0.849877 -1.32721 0
M  V30 1183 C 116.538 -0.451591 -1.97708 0
M  V30 1184 C 116.871 0.989175 -1.6712 0
M  V30 1185 O 116.146 1.69334 -0.956891 0
M  V30 1186 C 116.429 -0.685598 -3.53513 0
M  V30 1187 C 116.282 -2.17444 -3.93749 0
M  V30 1188 C 117.601 -0.138874 -4.39881 0
M  V30 1189 H 114.72 -0.16555 -0.718166 0
M  V30 1190 H 117.362 -1.06742 -1.57182 0
M  V30 1191 H 115.512 -0.161416 -3.88165 0
M  V30 1192 H 117.184 -2.76433 -3.693 0
M  V30 1193 H 115.427 -2.65476 -3.43081 0
M  V30 1194 H 116.098 -2.28888 -5.02309 0
M  V30 1195 H 118.574 -0.587068 -4.11938 0
M  V30 1196 H 117.45 -0.332213 -5.47894 0
M  V30 1197 H 117.711 0.95806 -4.31594 0
M  V30 1198 N 116.77 1.45427 -0.607355 0
M  V30 1199 C 118.016 2.0254 -0.102607 0
M  V30 1200 C 118.349 1.47478 1.26348 0
M  V30 1201 O 117.624 0.64939 1.83339 0
M  V30 1202 C 117.907 3.60044 -0.0634347 0
M  V30 1203 C 117.76 4.2544 -1.46017 0
M  V30 1204 C 119.079 4.35646 0.624514 0
M  V30 1205 H 116.198 0.73598 -0.0387607 0
M  V30 1206 H 118.84 1.73284 -0.779282 0
M  V30 1207 H 116.99 3.85101 0.512808 0
M  V30 1208 H 118.662 4.11569 -2.08347 0
M  V30 1209 H 116.905 3.83849 -2.02094 0
M  V30 1210 H 117.576 5.34342 -1.385 0
M  V30 1211 H 120.052 4.15882 0.134723 0
M  V30 1212 H 118.928 5.45376 0.621028 0
M  V30 1213 H 119.189 4.08501 1.69055 0
M  V30 1214 N 118.248 0.346503 1.53744 0
M  V30 1215 C 119.488 -0.249413 2.02873 0
M  V30 1216 C 119.852 -1.47532 1.22876 0
M  V30 1217 O 121.053 -2.1456 1.61918 0
M  V30 1218 C 119.324 -0.552909 3.53097 0
M  V30 1219 S 120.883 -1.12521 4.24128 0
M  V30 1220 H 117.701 -0.074042 0.707134 0
M  V30 1221 H 120.303 0.48495 1.8939 0
M  V30 1222 H 119.007 0.347083 4.0893 0
M  V30 1223 H 118.538 -1.31686 3.70705 0
M  V30 1224 H 120.553 -2.41075 4.33702 0
M  V30 1225 N 119.726 -1.57421 0.075193 0
M  V30 1226 C 120.659 -2.08528 -0.926904 0
M  V30 1227 C 121.637 -0.991171 -1.28898 0
M  V30 1228 O 122.821 -1.26479 -1.39769 0
M  V30 1229 C 119.948 -2.54576 -2.23402 0
M  V30 1230 C 118.994 -3.75454 -2.02327 0
M  V30 1231 S 119.827 -5.19989 -1.27951 0
M  V30 1232 C 120.983 -5.69372 -2.59935 0
M  V30 1233 H 121.216 -2.932 -0.492048 0
M  V30 1234 H 118.749 -1.53785 -0.137651 0
M  V30 1235 H 120.707 -2.81767 -2.98526 0
M  V30 1236 H 119.368 -1.70166 -2.64012 0
M  V30 1237 H 118.561 -4.05675 -2.99071 0
M  V30 1238 H 118.163 -3.48654 -1.35339 0
M  V30 1239 H 120.455 -5.76424 -3.56008 0
M  V30 1240 H 121.398 -6.68207 -2.34319 0
M  V30 1241 H 121.806 -4.97205 -2.67296 0
M  V30 1242 N 121.204 0.198386 -1.56346 0
M  V30 1243 C 122.151 1.24589 -1.94284 0
M  V30 1244 C 123.121 1.454 -0.802997 0
M  V30 1245 O 124.306 1.58588 -1.06087 0
M  V30 1246 C 121.446 2.58631 -2.28482 0
M  V30 1247 C 120.559 2.45426 -3.55514 0
M  V30 1248 C 119.694 3.7215 -3.79049 0
M  V30 1249 C 118.733 3.53763 -4.99518 0
M  V30 1250 N 117.87 4.72491 -5.19323 0
M  V30 1251 H 122.71 0.915356 -2.83593 0
M  V30 1252 H 120.247 0.440629 -1.40346 0
M  V30 1253 H 122.205 3.3672 -2.46324 0
M  V30 1254 H 120.835 2.89734 -1.42317 0
M  V30 1255 H 119.887 1.58652 -3.45737 0
M  V30 1256 H 121.199 2.27772 -4.43758 0
M  V30 1257 H 120.353 4.58679 -3.97113 0
M  V30 1258 H 119.092 3.92754 -2.89129 0
M  V30 1259 H 118.097 2.65619 -4.8138 0
M  V30 1260 H 119.322 3.34607 -5.90944 0
M  V30 1261 H 117.268 4.93365 -4.3235 0
M  V30 1262 H 117.185 4.5765 -6.01741 0
M  V30 1263 H 118.453 5.6038 -5.41843 0
M  V30 1264 N 122.682 1.50554 0.465978 0
M  V30 1265 C 123.93 1.61479 1.21528 0
M  V30 1266 C 124.251 0.319596 1.92363 0
M  V30 1267 O 123.521 -0.663194 1.84333 0
M  V30 1268 H 122.101 0.595055 0.451573 0
M  V30 1269 H 124.763 1.87355 0.53704 0
M  V30 1270 H 123.859 2.42846 1.96042 0
M  V30 1271 N 124.16 -0.719506 1.40217 0
M  V30 1272 C 125.576 -1.02707 1.22161 0
M  V30 1273 C 125.776 -2.0128 0.0940557 0
M  V30 1274 O 124.832 -2.46452 -0.549318 0
M  V30 1275 C 126.145 -1.57454 2.56181 0
M  V30 1276 C 127.693 -1.69458 2.63159 0
M  V30 1277 C 128.168 -2.27611 3.97438 0
M  V30 1278 N 129.659 -2.35002 3.99159 0
M  V30 1279 C 130.394 -2.80972 4.99842 0
M  V30 1280 N 129.89 -3.26723 6.10921 0
M  V30 1281 N 131.683 -2.80321 4.87213 0
M  V30 1282 H 123.834 -0.0660492 2.12297 0
M  V30 1283 H 126.097 -0.0919077 0.943534 0
M  V30 1284 H 125.803 -0.924873 3.39321 0
M  V30 1285 H 125.677 -2.56036 2.76993 0
M  V30 1286 H 128.064 -2.33543 1.80393 0
M  V30 1287 H 128.145 -0.694867 2.46181 0
M  V30 1288 H 127.789 -1.6415 4.80643 0
M  V30 1289 H 127.719 -3.2829 4.11744 0
M  V30 1290 H 130.21 -2.02685 3.18947 0
M  V30 1291 H 130.523 -3.60355 6.8364 0
M  V30 1292 H 128.868 -3.24692 6.14492 0
M  V30 1293 H 132.059 -2.43912 3.9953 0
M  V30 1294 H 132.232 -3.15831 5.65822 0
M  V30 1295 N 125.638 -1.25649 -0.95132 0
M  V30 1296 C 126.886 -1.10375 -1.69298 0
M  V30 1297 C 127.207 0.355339 -1.91735 0
M  V30 1298 O 126.477 1.25188 -1.50681 0
M  V30 1299 H 125.057 -0.405461 -0.627384 0
M  V30 1300 H 127.719 -1.57823 -1.14358 0
M  V30 1301 H 126.815 -1.61465 -2.67087 0
M  V30 1302 N 127.117 1.15442 -1.07289 0
M  V30 1303 C 128.067 2.18164 -0.662467 0
M  V30 1304 C 129.051 1.57845 0.312074 0
M  V30 1305 O 130.243 1.76552 0.125905 0
M  V30 1306 C 127.372 3.43246 -0.0611295 0
M  V30 1307 C 126.458 4.1062 -1.06077 0
M  V30 1308 N 126.849 4.53491 -2.24008 0
M  V30 1309 C 125.147 4.36949 -0.893964 0
M  V30 1310 C 125.848 5.05731 -2.87422 0
M  V30 1311 N 124.824 4.99236 -2.15091 0
M  V30 1312 H 128.626 2.49038 -1.56068 0
M  V30 1313 H 126.14 1.32003 -0.945988 0
M  V30 1314 H 128.137 4.16145 0.250792 0
M  V30 1315 H 126.797 3.13854 0.832207 0
M  V30 1316 H 127.808 4.46898 -2.6173 0
M  V30 1317 H 124.485 4.17466 -0.0534693 0
M  V30 1318 H 125.875 5.48865 -3.87553 0
M  V30 1319 N 128.595 0.856903 1.32268 0
M  V30 1320 C 129.842 0.461386 1.97174 0
M  V30 1321 C 130.17 -0.983491 1.67803 0
M  V30 1322 O 129.425 -1.70541 0.959903 0
M  V30 1323 C 129.724 0.649919 3.51441 0
M  V30 1324 C 129.39 2.0656 4.00804 0
M  V30 1325 C 128.052 2.45279 4.13995 0
M  V30 1326 C 130.404 2.98947 4.26943 0
M  V30 1327 C 127.732 3.75653 4.50668 0
M  V30 1328 C 130.084 4.28822 4.65075 0
M  V30 1329 C 128.748 4.67472 4.76472 0
M  V30 1330 H 128.018 0.168833 0.72151 0
M  V30 1331 H 130.665 1.08739 1.57633 0
M  V30 1332 H 128.97 -0.0593018 3.91755 0
M  V30 1333 H 130.667 0.32391 3.9969 0
M  V30 1334 H 127.257 1.75495 3.91024 0
M  V30 1335 H 131.441 2.70265 4.16258 0
M  V30 1336 H 126.697 4.05379 4.57688 0
M  V30 1337 H 130.871 5.0047 4.84255 0
M  V30 1338 H 128.498 5.68539 5.04646 0
M  V30 1339 N 130.073 -1.45103 0.615059 0
M  V30 1340 C 131.303 -2.06254 0.119596 0
M  V30 1341 C 131.711 -1.4591 -1.20445 0
M  V30 1342 O 131.054 -0.570384 -1.7462 0
M  V30 1343 C 131.116 -3.59396 -0.0865591 0
M  V30 1344 C 130.78 -4.42116 1.15683 0
M  V30 1345 C 131.777 -4.7662 2.07676 0
M  V30 1346 C 129.462 -4.82749 1.38775 0
M  V30 1347 C 131.456 -5.50622 3.21082 0
M  V30 1348 C 129.143 -5.56504 2.52481 0
M  V30 1349 C 130.141 -5.90358 3.43463 0
M  V30 1350 O 129.829 -6.62615 4.55189 0
M  V30 1351 H 129.561 -0.672423 0.0694512 0
M  V30 1352 H 132.115 -1.87219 0.844885 0
M  V30 1353 H 130.345 -3.76859 -0.866823 0
M  V30 1354 H 132.034 -4.02365 -0.534555 0
M  V30 1355 H 132.8 -4.4578 1.91063 0
M  V30 1356 H 128.679 -4.55829 0.688545 0
M  V30 1357 H 132.223 -5.76965 3.92119 0
M  V30 1358 H 128.12 -5.86759 2.69043 0
M  V30 1359 H 128.888 -6.81071 4.53966 0
M  V30 1360 N 131.551 -0.354651 -1.53558 0
M  V30 1361 C 132.461 0.50515 -2.29097 0
M  V30 1362 C 133.477 1.10223 -1.34636 0
M  V30 1363 O 134.653 1.11553 -1.67684 0
M  V30 1364 C 131.718 1.63479 -3.05738 0
M  V30 1365 C 130.779 1.06636 -4.15845 0
M  V30 1366 C 130.012 2.14217 -4.88822 0
M  V30 1367 O 130.235 3.35137 -4.61562 0
M  V30 1368 O 129.169 1.77887 -5.75013 0
M  V30 1369 H 132.995 -0.109237 -3.03503 0
M  V30 1370 H 130.58 -0.119357 -1.48922 0
M  V30 1371 H 132.462 2.2918 -3.5363 0
M  V30 1372 H 131.137 2.23478 -2.34178 0
M  V30 1373 H 130.044 0.373565 -3.7223 0
M  V30 1374 H 131.377 0.511081 -4.89539 0
M  V30 1375 N 133.029 1.57378 -0.0835403 0
M  V30 1376 C 134.277 1.93547 0.581718 0
M  V30 1377 C 134.598 0.96524 1.69435 0
M  V30 1378 O 133.868 0.0153369 1.95894 0
M  V30 1379 H 132.448 0.714521 0.217874 0
M  V30 1380 H 135.11 1.94366 -0.144158 0
M  V30 1381 H 134.206 2.95665 0.999423 0
M  V30 1382 N 134.507 -0.190092 1.56449 0
M  V30 1383 C 135.923 -0.54113 1.50146 0
M  V30 1384 C 136.123 -1.85603 0.784465 0
M  V30 1385 O 135.179 -2.5024 0.337051 0
M  V30 1386 C 136.492 -0.591241 2.9483 0
M  V30 1387 C 138.04 -0.679732 3.0553 0
M  V30 1388 C 138.515 -0.760908 4.51635 0
M  V30 1389 N 140.006 -0.824302 4.55806 0
M  V30 1390 C 140.741 -0.907365 5.66175 0
M  V30 1391 N 140.237 -0.952422 6.86222 0
M  V30 1392 N 142.03 -0.94494 5.541 0
M  V30 1393 H 134.181 0.67235 2.01478 0
M  V30 1394 H 136.444 0.240127 0.917084 0
M  V30 1395 H 136.15 0.305905 3.50367 0
M  V30 1396 H 136.024 -1.44422 3.48457 0
M  V30 1397 H 138.411 -1.56731 2.50039 0
M  V30 1398 H 138.492 0.199549 2.5502 0
M  V30 1399 H 138.136 0.122336 5.07753 0
M  V30 1400 H 138.066 -1.65606 4.99882 0
M  V30 1401 H 140.557 -0.798526 3.69367 0
M  V30 1402 H 140.87 -1.01645 7.66086 0
M  V30 1403 H 139.215 -0.921014 6.8887 0
M  V30 1404 H 142.406 -0.906612 4.59236 0
M  V30 1405 H 142.579 -1.00622 6.4014 0
M  V30 1406 N 135.985 -1.50799 -0.457987 0
M  V30 1407 C 137.233 -1.62121 -1.2067 0
M  V30 1408 C 137.554 -0.329793 -1.92191 0
M  V30 1409 O 136.824 0.653409 -1.84682 0
M  V30 1410 H 135.404 -0.597441 -0.448411 0
M  V30 1411 H 138.066 -1.87637 -0.527096 0
M  V30 1412 H 137.162 -2.43882 -1.94751 0
M  V30 1413 N 137.463 0.71206 -1.40597 0
M  V30 1414 C 138.396 1.83582 -1.35546 0
M  V30 1415 C 139.374 1.61032 -0.225284 0
M  V30 1416 O 140.558 1.83998 -0.409519 0
M  V30 1417 C 137.685 3.19983 -1.11034 0
M  V30 1418 C 136.731 3.61355 -2.2655 0
M  V30 1419 S 137.564 3.68062 -3.88961 0
M  V30 1420 C 138.72 5.07216 -3.66719 0
M  V30 1421 H 138.953 1.87586 -2.30648 0
M  V30 1422 H 136.486 0.879182 -1.26924 0
M  V30 1423 H 138.444 3.98734 -0.975761 0
M  V30 1424 H 137.105 3.13608 -0.175798 0
M  V30 1425 H 136.298 4.60403 -2.0505 0
M  V30 1426 H 135.9 2.8987 -2.36329 0
M  V30 1427 H 138.192 5.94238 -3.25404 0
M  V30 1428 H 139.135 5.33753 -4.6531 0
M  V30 1429 H 139.543 4.77976 -3.00332 0
M  V30 1430 N 138.941 1.26152 0.944643 0
M  V30 1431 C 140.169 1.14259 1.72489 0
M  V30 1432 C 140.584 -0.302555 1.8636 0
M  V30 1433 O 139.941 -1.20741 1.36849 0
M  V30 1434 C 139.992 1.80266 3.13347 0
M  V30 1435 O 139.713 3.19133 3.00143 0
M  V30 1436 C 141.214 1.74283 4.07603 0
M  V30 1437 H 138.434 0.398051 0.540181 0
M  V30 1438 H 140.978 1.66706 1.18446 0
M  V30 1439 H 139.133 1.31766 3.64303 0
M  V30 1440 H 139.547 3.51744 3.89071 0
M  V30 1441 H 141.021 2.25111 5.04013 0
M  V30 1442 H 141.498 0.708631 4.33446 0
M  V30 1443 H 142.104 2.22319 3.62567 0
M  V30 1444 N 140.419 -1.14872 1.07899 0
M  V30 1445 C 141.668 -1.85135 0.800499 0
M  V30 1446 C 141.981 -1.83547 -0.676014 0
M  V30 1447 O 143.187 -2.49548 -1.06948 0
M  V30 1448 C 141.643 -3.3231 1.38197 0
M  V30 1449 C 141.251 -3.42329 2.8899 0
M  V30 1450 C 142.995 -4.0772 1.18174 0
M  V30 1451 C 140.902 -4.83684 3.403 0
M  V30 1452 H 139.832 -0.693563 0.29578 0
M  V30 1453 H 142.483 -1.29532 1.29976 0
M  V30 1454 H 140.865 -3.87618 0.810431 0
M  V30 1455 H 142.039 -2.97097 3.52236 0
M  V30 1456 H 140.354 -2.80369 3.07867 0
M  V30 1457 H 142.951 -5.12049 1.5398 0
M  V30 1458 H 143.294 -4.16124 0.12117 0
M  V30 1459 H 143.827 -3.58696 1.71994 0
M  V30 1460 H 140.566 -4.80465 4.45907 0
M  V30 1461 H 140.086 -5.29474 2.81811 0
M  V30 1462 H 141.765 -5.52558 3.36584 0
M  V30 1463 N 141.898 -0.863906 -1.31812 0
M  V30 1464 C 142.831 -0.259963 -2.26714 0
M  V30 1465 C 143.809 0.607392 -1.50829 0
M  V30 1466 O 144.993 0.562155 -1.79922 0
M  V30 1467 C 142.12 0.632456 -3.32743 0
M  V30 1468 C 141.166 -0.162743 -4.26189 0
M  V30 1469 S 141.999 -1.53726 -5.12961 0
M  V30 1470 C 143.155 -0.650803 -6.22507 0
M  V30 1471 H 143.388 -1.06445 -2.77591 0
M  V30 1472 H 140.921 -0.662071 -1.39485 0
M  V30 1473 H 142.879 1.14167 -3.94305 0
M  V30 1474 H 141.54 1.41083 -2.80632 0
M  V30 1475 H 140.733 0.517366 -5.01338 0
M  V30 1476 H 140.335 -0.60385 -3.69093 0
M  V30 1477 H 142.627 0.141134 -6.77353 0
M  V30 1478 H 143.57 -1.37322 -6.94657 0
M  V30 1479 H 143.978 -0.221041 -5.64067 0
M  V30 1480 N 143.376 1.44774 -0.622745 0
M  V30 1481 C 144.604 2.06487 -0.130722 0
M  V30 1482 C 145.019 1.46476 1.19123 0
M  V30 1483 O 144.376 0.584502 1.72887 0
M  V30 1484 C 144.427 3.615 -0.000807207 0
M  V30 1485 O 144.148 4.19274 -1.27048 0
M  V30 1486 C 145.649 4.40229 0.520898 0
M  V30 1487 H 142.869 0.666704 -0.0758106 0
M  V30 1488 H 145.413 1.85779 -0.854774 0
M  V30 1489 H 143.568 3.81498 0.673643 0
M  V30 1490 H 143.982 5.12622 -1.1099 0
M  V30 1491 H 145.456 5.49144 0.560838 0
M  V30 1492 H 145.933 4.1108 1.54627 0
M  V30 1493 H 146.539 4.25131 -0.120018 0
M  V30 1494 N 144.854 0.36279 1.53368 0
M  V30 1495 C 146.131 -0.284021 1.93527 0
M  V30 1496 C 146.511 -1.66628 1.29608 0
M  V30 1497 O 145.859 -2.23942 0.45413 0
M  V30 1498 C 146.069 -0.337028 3.47369 0
M  V30 1499 C 147.417 -0.578708 4.20638 0
M  V30 1500 O 148.441 -0.418352 3.53735 0
M  V30 1501 O 147.3 -0.89074 5.39192 0
M  V30 1502 H 144.394 -0.169743 0.809393 0
M  V30 1503 H 146.94 0.41537 1.64538 0
M  V30 1504 H 145.712 0.632217 3.86159 0
M  V30 1505 H 145.335 -1.08243 3.82582 0
M  V30 1506 N 146.332 -1.57332 0.0918853 0
M  V30 1507 C 147.295 -2.12708 -0.85369 0
M  V30 1508 C 148.295 -1.05561 -1.213 0
M  V30 1509 O 149.485 -1.31461 -1.14296 0
M  V30 1510 C 146.617 -2.64503 -2.15061 0
M  V30 1511 H 147.81 -2.97573 -0.3729 0
M  V30 1512 H 145.363 -1.55509 -0.157072 0
M  V30 1513 H 146.098 -1.83149 -2.67632 0
M  V30 1514 H 145.883 -3.4284 -1.90272 0
M  V30 1515 H 147.373 -3.07351 -2.82711 0
M  V30 1516 N 147.81 0.181792 -1.56548 0
M  V30 1517 C 149.059 0.898348 -1.8059 0
M  V30 1518 C 149.372 1.83862 -0.667379 0
M  V30 1519 O 150.578 2.59678 -0.792446 0
M  V30 1520 C 149.034 1.64791 -3.19956 0
M  V30 1521 C 148.642 0.751789 -4.41647 0
M  V30 1522 C 150.386 2.35331 -3.53298 0
M  V30 1523 C 148.293 1.50098 -5.72035 0
M  V30 1524 H 147.223 0.339194 -0.673397 0
M  V30 1525 H 149.874 0.151413 -1.82874 0
M  V30 1526 H 148.256 2.43921 -3.11959 0
M  V30 1527 H 149.43 -0.0018076 -4.608 0
M  V30 1528 H 147.745 0.156562 -4.16106 0
M  V30 1529 H 150.342 2.91958 -4.47956 0
M  V30 1530 H 150.685 3.10164 -2.77676 0
M  V30 1531 H 151.218 1.63154 -3.62803 0
M  V30 1532 H 147.957 0.795175 -6.50659 0
M  V30 1533 H 147.477 2.22817 -5.56878 0
M  V30 1534 H 149.156 2.05125 -6.13622 0
M  V30 1535 N 149.288 1.51039 0.449983 0
M  V30 1536 C 150.704 1.38934 0.785462 0
M  V30 1537 C 150.904 0.461817 1.96136 0
M  V30 1538 O 149.96 -0.0877389 2.52348 0
M  V30 1539 C 151.273 2.80724 1.0777 0
M  V30 1540 C 152.821 2.89787 1.1829 0
M  V30 1541 C 153.296 4.32457 1.50815 0
M  V30 1542 N 154.787 4.35505 1.57764 0
M  V30 1543 C 155.522 5.42914 1.84477 0
M  V30 1544 N 155.018 6.60502 2.09068 0
M  V30 1545 N 156.811 5.3038 1.86155 0
M  V30 1546 H 148.962 2.09904 -0.324647 0
M  V30 1547 H 151.225 0.944378 -0.0827957 0
M  V30 1548 H 150.931 3.50531 0.286498 0
M  V30 1549 H 150.805 3.19273 2.00859 0
M  V30 1550 H 153.192 2.20186 1.96474 0
M  V30 1551 H 153.273 2.54752 0.231314 0
M  V30 1552 H 152.917 5.02603 0.731622 0
M  V30 1553 H 152.847 4.64995 2.47158 0
M  V30 1554 H 155.338 3.50724 1.40715 0
M  V30 1555 H 155.651 7.38158 2.28785 0
M  V30 1556 H 153.996 6.63639 2.06416 0
M  V30 1557 H 157.187 4.37505 1.66454 0
M  V30 1558 H 157.36 6.1417 2.06637 0
M  V30 1559 N 150.766 -0.704594 1.40972 0
M  V30 1560 C 151.994 -1.49354 1.43182 0
M  V30 1561 C 152.409 -1.88768 0.0345508 0
M  V30 1562 O 151.766 -1.56184 -0.944081 0
M  V30 1563 C 151.817 -2.76187 2.33244 0
M  V30 1564 O 151.538 -2.38436 3.67532 0
M  V30 1565 C 153.039 -3.7 2.44162 0
M  V30 1566 H 150.259 -0.460559 0.487982 0
M  V30 1567 H 152.803 -0.868261 1.85153 0
M  V30 1568 H 150.958 -3.34974 1.94606 0
M  V30 1569 H 151.372 -3.20126 4.15475 0
M  V30 1570 H 152.846 -4.55803 3.11364 0
M  V30 1571 H 153.323 -4.13867 1.47006 0
M  V30 1572 H 153.929 -3.17121 2.83398 0
M  V30 1573 N 152.244 -1.26651 -0.937939 0
M  V30 1574 C 153.491 -1.12387 -1.6845 0
M  V30 1575 C 153.819 0.332208 -1.91642 0
M  V30 1576 O 153.074 1.2602 -1.49725 0
M  V30 1577 C 153.373 -1.84168 -3.06295 0
M  V30 1578 C 153.039 -3.34056 -3.02849 0
M  V30 1579 C 151.701 -3.74942 -3.01616 0
M  V30 1580 C 154.053 -4.29741 -2.9491 0
M  V30 1581 C 151.381 -5.09894 -2.90215 0
M  V30 1582 C 153.733 -5.64738 -2.8505 0
M  V30 1583 C 152.397 -6.0493 -2.82162 0
M  V30 1584 H 151.667 -0.411252 -0.616403 0
M  V30 1585 H 154.314 -1.57134 -1.09459 0
M  V30 1586 H 152.619 -1.319 -3.6893 0
M  V30 1587 H 154.316 -1.70569 -3.62915 0
M  V30 1588 H 150.906 -3.01534 -3.0459 0
M  V30 1589 H 155.09 -3.99133 -2.94969 0
M  V30 1590 H 150.346 -5.40194 -2.86358 0
M  V30 1591 H 154.52 -6.38561 -2.77872 0
M  V30 1592 H 152.147 -7.09457 -2.73084 0
M  V30 1593 N 153.722 1.14298 -1.08507 0
M  V30 1594 C 154.669 2.19414 -0.715965 0
M  V30 1595 C 155.639 1.63399 0.298326 0
M  V30 1596 O 156.824 1.89929 0.182101 0
M  V30 1597 C 153.964 3.44845 -0.132534 0
M  V30 1598 C 153.077 4.15007 -1.19973 0
M  V30 1599 C 152.212 5.28024 -0.580048 0
M  V30 1600 C 151.251 5.9002 -1.62921 0
M  V30 1601 N 150.388 6.94485 -1.03125 0
M  V30 1602 H 155.228 2.50336 -1.61666 0
M  V30 1603 H 152.765 1.2293 -0.807882 0
M  V30 1604 H 154.723 4.16601 0.223454 0
M  V30 1605 H 153.353 3.14403 0.731467 0
M  V30 1606 H 152.405 3.41629 -1.67313 0
M  V30 1607 H 153.717 4.57178 -1.99473 0
M  V30 1608 H 152.871 6.06455 -0.172364 0
M  V30 1609 H 151.61 4.87076 0.246603 0
M  V30 1610 H 150.615 5.10291 -2.04654 0
M  V30 1611 H 151.84 6.33042 -2.45835 0
M  V30 1612 H 149.786 6.55612 -0.225711 0
M  V30 1613 H 149.703 7.35148 -1.76334 0
M  V30 1614 H 150.971 7.7679 -0.649458 0
M  V30 1615 N 155.201 0.870884 1.31352 0
M  V30 1616 C 156.131 0.343096 2.30966 0
M  V30 1617 C 157.112 -0.566507 1.60389 0
M  V30 1618 O 158.297 -0.483336 1.88089 0
M  V30 1619 C 155.427 -0.455487 3.443 0
M  V30 1620 C 154.381 0.361103 4.26474 0
M  V30 1621 C 153.707 -0.563221 5.31725 0
M  V30 1622 C 155.007 1.59566 4.97329 0
M  V30 1623 H 156.701 1.17548 2.75359 0
M  V30 1624 H 154.247 0.566686 1.32381 0
M  V30 1625 H 156.2 -0.83525 4.13039 0
M  V30 1626 H 154.924 -1.32139 2.98675 0
M  V30 1627 H 153.583 0.722825 3.59403 0
M  V30 1628 H 153.231 -1.42643 4.82351 0
M  V30 1629 H 152.931 -0.0207409 5.87596 0
M  V30 1630 H 154.455 -0.939808 6.03324 0
M  V30 1631 H 155.869 1.28728 5.58661 0
M  V30 1632 H 154.266 2.07728 5.63 0
M  V30 1633 H 155.336 2.34798 4.24262 0
M  V30 1634 N 156.679 -1.44442 0.630414 0
M  V30 1635 C 157.609 -2.33418 -0.0618083 0
M  V30 1636 C 158.59 -1.48165 -0.835541 0
M  V30 1637 O 159.775 -1.76886 -0.801564 0
M  V30 1638 C 156.905 -3.31222 -1.04449 0
M  V30 1639 C 155.859 -4.26288 -0.382436 0
M  V30 1640 C 155.185 -5.13954 -1.47497 0
M  V30 1641 C 156.485 -5.1744 0.710865 0
M  V30 1642 H 158.179 -2.91548 0.681184 0
M  V30 1643 H 155.725 -1.40191 0.329026 0
M  V30 1644 H 157.678 -3.92351 -1.53748 0
M  V30 1645 H 156.402 -2.71299 -1.81836 0
M  V30 1646 H 155.061 -3.6649 0.0899054 0
M  V30 1647 H 154.709 -4.50385 -2.2397 0
M  V30 1648 H 154.409 -5.7837 -1.03737 0
M  V30 1649 H 155.933 -5.77955 -1.96979 0
M  V30 1650 H 157.347 -5.72509 0.300996 0
M  V30 1651 H 155.744 -5.90455 1.07156 0
M  V30 1652 H 156.814 -4.58496 1.57829 0
M  V30 1653 N 158.157 -0.370918 -1.53173 0
M  V30 1654 C 159.405 0.216673 -2.00935 0
M  V30 1655 C 159.726 1.48845 -1.25977 0
M  V30 1656 O 158.996 1.92286 -0.374551 0
M  V30 1657 H 157.576 0.0830565 -0.742368 0
M  V30 1658 H 160.238 -0.49838 -1.8842 0
M  V30 1659 H 159.334 0.439893 -3.08984 0
M  V30 1660 N 159.635 1.57281 -0.100228 0
M  V30 1661 C 160.875 1.96419 0.56558 0
M  V30 1662 C 161.239 0.981265 1.65031 0
M  V30 1663 O 162.44 1.26133 2.37369 0
M  V30 1664 C 160.711 3.39996 1.10171 0
M  V30 1665 S 162.27 4.01134 1.77867 0
M  V30 1666 H 159.088 0.68667 0.184406 0
M  V30 1667 H 161.69 1.94662 -0.180851 0
M  V30 1668 H 160.394 4.09296 0.300803 0
M  V30 1669 H 159.925 3.45361 1.88385 0
M  V30 1670 H 161.94 3.90358 3.06326 0
M  V30 1671 N 161.113 -0.173488 1.56642 0
M  V30 1672 C 162.023 -1.23482 1.99473 0
M  V30 1673 C 163.039 -1.48567 0.905752 0
M  V30 1674 O 164.215 -1.60758 1.21321 0
M  V30 1675 C 161.28 -2.55444 2.34413 0
M  V30 1676 C 160.341 -2.38241 3.57127 0
M  V30 1677 C 159.574 -3.63909 3.90392 0
M  V30 1678 O 159.797 -4.68996 3.24653 0
M  V30 1679 O 158.731 -3.58149 4.83749 0
M  V30 1680 H 162.557 -0.901279 2.90018 0
M  V30 1681 H 160.142 -0.380185 1.44482 0
M  V30 1682 H 162.024 -3.33292 2.57865 0
M  V30 1683 H 160.699 -2.88382 1.4703 0
M  V30 1684 H 159.606 -1.58431 3.38896 0
M  V30 1685 H 160.939 -2.10228 4.45045 0
M  V30 1686 N 162.591 -1.51276 -0.441967 0
M  V30 1687 C 163.521 -1.752 -1.54361 0
M  V30 1688 C 164.502 -0.601682 -1.59103 0
M  V30 1689 O 165.687 -0.843913 -1.74905 0
M  V30 1690 C 162.817 -1.87282 -2.92477 0
M  V30 1691 C 161.771 -3.02687 -3.02596 0
M  V30 1692 C 161.097 -2.99947 -4.42647 0
M  V30 1693 C 162.397 -4.4273 -2.77106 0
M  V30 1694 H 164.091 -2.67442 -1.34592 0
M  V30 1695 H 161.637 -1.28694 -0.646048 0
M  V30 1696 H 163.59 -2.02602 -3.695 0
M  V30 1697 H 162.314 -0.916844 -3.13467 0
M  V30 1698 H 160.973 -2.87065 -2.28012 0
M  V30 1699 H 160.621 -2.02136 -4.60597 0
M  V30 1700 H 160.321 -3.77439 -4.50348 0
M  V30 1701 H 161.845 -3.17354 -5.2165 0
M  V30 1702 H 163.259 -4.58727 -3.43864 0
M  V30 1703 H 161.656 -5.21893 -2.96222 0
M  V30 1704 H 162.726 -4.53087 -1.72744 0
M  V30 1705 N 164.069 0.697108 -1.41344 0
M  V30 1706 C 164.999 1.82353 -1.45841 0
M  V30 1707 C 165.98 1.67115 -0.317247 0
M  V30 1708 O 167.165 1.86871 -0.528474 0
M  V30 1709 C 164.295 3.20476 -1.33838 0
M  V30 1710 C 163.249 3.50415 -2.4575 0
M  V30 1711 C 162.575 4.87878 -2.18813 0
M  V30 1712 C 163.875 3.49546 -3.88091 0
M  V30 1713 H 165.569 1.78846 -2.40113 0
M  V30 1714 H 163.115 0.859028 -1.15571 0
M  V30 1715 H 165.068 3.98988 -1.35596 0
M  V30 1716 H 163.792 3.24604 -0.360498 0
M  V30 1717 H 162.451 2.74253 -2.43271 0
M  V30 1718 H 162.099 4.8863 -1.19371 0
M  V30 1719 H 161.799 5.08875 -2.93803 0
M  V30 1720 H 163.323 5.68702 -2.22284 0
M  V30 1721 H 164.737 4.18066 -3.92293 0
M  V30 1722 H 163.134 3.82075 -4.62751 0
M  V30 1723 H 164.204 2.48552 -4.16353 0
M  V30 1724 N 165.547 1.27147 0.931209 0
M  V30 1725 C 166.794 1.13278 1.67852 0
M  V30 1726 C 167.122 -0.32204 1.91815 0
M  V30 1727 O 166.377 -1.25224 1.50391 0
M  V30 1728 C 166.676 1.8579 3.05314 0
M  V30 1729 C 166.342 3.35657 3.01073 0
M  V30 1730 C 165.004 3.76536 2.99623 0
M  V30 1731 C 167.356 4.31299 2.92627 0
M  V30 1732 C 164.684 5.11426 2.87506 0
M  V30 1733 C 167.036 5.66242 2.82051 0
M  V30 1734 C 165.7 6.06418 2.7895 0
M  V30 1735 H 164.97 0.414515 0.614214 0
M  V30 1736 H 167.617 1.57712 1.08624 0
M  V30 1737 H 165.922 1.33854 3.68226 0
M  V30 1738 H 167.619 1.72491 3.62005 0
M  V30 1739 H 164.209 3.03146 3.02986 0
M  V30 1740 H 168.393 4.00692 2.92848 0
M  V30 1741 H 163.649 5.41705 2.83489 0
M  V30 1742 H 167.823 6.40026 2.74481 0
M  V30 1743 H 165.45 7.10895 2.69318 0
M  V30 1744 N 167.025 -1.13721 1.09112 0
M  V30 1745 C 168.265 -1.86576 0.834801 0
M  V30 1746 C 168.629 -1.81435 -0.628122 0
M  V30 1747 O 169.83 -2.49497 -1.00024 0
M  V30 1748 C 168.101 -3.30872 1.35124 0
M  V30 1749 S 169.66 -4.21257 1.22832 0
M  V30 1750 H 166.478 -0.643666 0.302017 0
M  V30 1751 H 169.08 -1.37085 1.39385 0
M  V30 1752 H 167.784 -3.32166 2.41027 0
M  V30 1753 H 167.315 -3.85423 0.788185 0
M  V30 1754 H 169.33 -4.95884 0.177191 0
M  V30 1755 N 168.503 -0.877838 -1.30888 0
M  V30 1756 C 169.731 -0.507414 -2.00581 0
M  V30 1757 C 170.146 0.902216 -1.65848 0
M  V30 1758 O 169.503 1.59225 -0.891831 0
M  V30 1759 C 169.554 -0.664162 -3.55347 0
M  V30 1760 O 169.275 -2.01829 -3.8884 0
M  V30 1761 C 170.776 -0.295787 -4.42312 0
M  V30 1762 H 167.996 -0.196866 -0.641471 0
M  V30 1763 H 170.54 -1.18117 -1.66939 0
M  V30 1764 H 168.695 -0.0378619 -3.87381 0
M  V30 1765 H 169.109 -2.03174 -4.8355 0
M  V30 1766 H 170.583 -0.456388 -5.5011 0
M  V30 1767 H 171.06 0.765663 -4.32475 0
M  V30 1768 H 171.666 -0.898113 -4.15709 0
M  V30 1769 N 169.982 1.44106 -0.638065 0
M  V30 1770 C 170.93 2.3248 0.0748149 0
M  V30 1771 C 171.924 1.47746 0.828702 0
M  V30 1772 O 173.13 1.64049 0.740816 0
M  V30 1773 H 169.505 0.750771 0.0429686 0
M  V30 1774 H 171.476 2.90348 -0.688504 0
M  V30 1775 C 170.225 3.31843 1.03805 0
M  V30 1776 H 169.548 3.97059 0.467375 0
M  V30 1777 H 170.988 3.96345 1.50622 0
M  V30 1778 C 169.447 2.61291 2.1267 0
M  V30 1779 O 169.977 2.41702 3.20847 0
M  V30 1780 N 168.183 2.20915 1.88798 0
M  V30 1781 H 167.73 2.37047 1.00829 0
M  V30 1782 H 167.688 1.74038 2.61836 0
M  V30 1783 N 171.46 0.379036 1.52974 0
M  V30 1784 C 172.423 -0.448865 2.24762 0
M  V30 1785 C 173.423 -0.998689 1.26027 0
M  V30 1786 O 174.613 -0.882313 1.50203 0
M  V30 1787 C 171.745 -1.62872 2.99476 0
M  V30 1788 H 172.938 0.179491 2.99362 0
M  V30 1789 H 170.491 0.13096 1.5575 0
M  V30 1790 H 171.226 -2.29479 2.29151 0
M  V30 1791 H 171.011 -1.24128 3.71934 0
M  V30 1792 H 172.501 -2.2151 3.5401 0
M  V30 1793 N 172.938 -1.57226 0.108567 0
M  V30 1794 C 173.901 -2.13602 -0.831082 0
M  V30 1795 C 174.901 -1.06841 -1.20173 0
M  V30 1796 O 176.091 -1.32666 -1.12895 0
M  V30 1797 C 173.223 -2.66769 -2.12243 0
M  V30 1798 H 174.416 -2.97951 -0.341317 0
M  V30 1799 H 171.969 -1.55667 -0.14057 0
M  V30 1800 H 172.704 -1.85977 -2.65675 0
M  V30 1801 H 172.489 -3.44839 -1.86625 0
M  V30 1802 H 173.979 -3.10332 -2.79435 0
M  V30 1803 N 174.416 0.165178 -1.56732 0
M  V30 1804 C 175.664 0.879068 -1.8198 0
M  V30 1805 C 175.985 1.82514 -0.686561 0
M  V30 1806 O 175.255 1.93694 0.293146 0
M  V30 1807 H 173.835 0.327608 -0.671329 0
M  V30 1808 H 176.497 0.163526 -1.94213 0
M  V30 1809 H 175.593 1.45228 -2.76252 0
M  V30 1810 N 175.894 1.51508 0.433938 0
M  V30 1811 C 177.119 1.68443 1.21003 0
M  V30 1812 C 177.544 0.382636 1.84167 0
M  V30 1813 O 176.902 -0.65755 1.68956 0
M  V30 1814 C 176.95 2.80405 2.26727 0
M  V30 1815 O 176.054 2.44245 3.32292 0
M  V30 1816 H 175.395 0.561536 0.354363 0
M  V30 1817 H 177.925 1.9809 0.512024 0
M  V30 1818 H 177.935 3.0459 2.71457 0
M  V30 1819 H 176.61 3.74867 1.80132 0
M  V30 1820 H 175.187 2.30644 2.93015 0
M  V30 1821 N 177.372 -0.689602 1.41712 0
M  V30 1822 C 178.302 -1.81577 1.46806 0
M  V30 1823 C 179.283 -1.66945 0.326105 0
M  V30 1824 O 180.468 -1.86588 0.538377 0
M  V30 1825 C 177.598 -3.19762 1.35535 0
M  V30 1826 C 176.552 -3.49107 2.47605 0
M  V30 1827 C 175.878 -4.86711 2.21397 0
M  V30 1828 C 177.178 -3.47483 3.89939 0
M  V30 1829 H 178.872 -1.7757 2.41058 0
M  V30 1830 H 176.418 -0.852887 1.16025 0
M  V30 1831 H 178.371 -3.98263 1.3771 0
M  V30 1832 H 177.095 -3.24409 0.377708 0
M  V30 1833 H 175.754 -2.72959 2.44722 0
M  V30 1834 H 175.402 -4.8799 1.21961 0
M  V30 1835 H 175.102 -5.0731 2.96497 0
M  V30 1836 H 176.626 -5.67515 2.25297 0
M  V30 1837 H 178.04 -4.1598 3.94505 0
M  V30 1838 H 176.437 -3.79615 4.64771 0
M  V30 1839 H 177.507 -2.46341 4.17665 0
M  V30 1840 N 178.85 -1.27639 -0.924453 0
M  V30 1841 C 180.266 -1.05113 -1.20097 0
M  V30 1842 C 180.466 0.213262 -2.00368 0
M  V30 1843 O 179.522 0.91787 -2.35226 0
M  V30 1844 C 180.835 -2.29244 -1.94596 0
M  V30 1845 C 182.383 -2.34315 -2.07522 0
M  V30 1846 C 182.858 -3.58183 -2.85427 0
M  V30 1847 N 184.349 -3.5876 -2.92994 0
M  V30 1848 C 185.084 -4.51277 -3.53746 0
M  V30 1849 N 184.58 -5.54102 -4.15863 0
M  V30 1850 N 186.373 -4.38894 -3.51181 0
M  V30 1851 H 178.524 -2.08821 -0.388264 0
M  V30 1852 H 180.787 -0.918568 -0.234385 0
M  V30 1853 H 180.493 -3.21301 -1.43034 0
M  V30 1854 H 180.367 -2.34816 -2.95197 0
M  V30 1855 H 182.754 -1.42762 -2.58269 0
M  V30 1856 H 182.835 -2.32744 -1.06131 0
M  V30 1857 H 182.479 -4.50074 -2.35363 0
M  V30 1858 H 182.409 -3.57006 -3.8711 0
M  V30 1859 H 184.9 -2.84398 -2.4885 0
M  V30 1860 H 185.213 -6.20859 -4.60168 0
M  V30 1861 H 183.558 -5.57941 -4.144 0
M  V30 1862 H 186.749 -3.57772 -3.01856 0
M  V30 1863 H 186.922 -5.11186 -3.98237 0
M  V30 1864 N 180.328 1.1314 -1.09713 0
M  V30 1865 C 181.739 1.66029 -0.853885 0
M  V30 1866 C 182.09 1.86241 0.617142 0
M  V30 1867 O 181.215 1.5834 1.47503 0
M  V30 1868 C 181.81 3.01599 -1.5435 0
M  V30 1869 C 180.369 3.51467 -1.34714 0
M  V30 1870 C 179.516 2.26648 -1.59769 0
M  V30 1871 H 182.467 0.970226 -1.25588 0
M  V30 1872 H 182.488 3.67709 -0.978267 0
M  V30 1873 H 182 2.86856 -2.6141 0
M  V30 1874 H 180.101 3.71408 -0.297838 0
M  V30 1875 H 180.214 4.314 -2.08401 0
M  V30 1876 H 178.578 2.33385 -1.01998 0
M  V30 1877 H 179.361 2.14467 -2.68065 0
M  V30 1878 N 181.806 0.884767 1.30421 0
M  V30 1879 C 182.716 0.355398 2.31892 0
M  V30 1880 C 183.732 -0.542261 1.65335 0
M  V30 1881 O 184.908 -0.435432 1.96637 0
M  V30 1882 C 181.973 -0.421661 3.44126 0
M  V30 1883 C 181.034 0.505727 4.26311 0
M  V30 1884 C 180.267 -0.234343 5.33185 0
M  V30 1885 O 180.49 -1.46045 5.51386 0
M  V30 1886 O 179.424 0.415443 6.00465 0
M  V30 1887 H 183.25 1.19685 2.79122 0
M  V30 1888 H 180.835 0.648596 1.34587 0
M  V30 1889 H 182.717 -0.861641 4.12497 0
M  V30 1890 H 181.392 -1.23942 2.99032 0
M  V30 1891 H 180.299 0.994513 3.60639 0
M  V30 1892 H 181.632 1.28948 4.75009 0
M  V30 1893 N 183.284 -1.43765 0.645699 0
M  V30 1894 C 184.53 -2.02197 0.156271 0
M  V30 1895 C 184.863 -1.50776 -1.22393 0
M  V30 1896 O 184.138 -0.697771 -1.81553 0
M  V30 1897 C 184.421 -3.59749 0.158872 0
M  V30 1898 C 184.274 -4.21419 1.57245 0
M  V30 1899 C 185.593 -4.37149 -0.50879 0
M  V30 1900 H 182.712 -0.734694 0.0582602 0
M  V30 1901 H 185.354 -1.71157 0.824951 0
M  V30 1902 H 183.504 -3.86325 -0.410525 0
M  V30 1903 H 185.176 -4.059 2.19186 0
M  V30 1904 H 183.419 -3.78356 2.122 0
M  V30 1905 H 184.09 -5.30482 1.52619 0
M  V30 1906 H 186.566 -4.16093 -0.024412 0
M  V30 1907 H 185.442 -5.4683 -0.476213 0
M  V30 1908 H 185.703 -4.12839 -1.58165 0
M  V30 1909 N 184.763 -0.387143 -1.52771 0
M  V30 1910 C 186.011 0.195349 -2.01154 0
M  V30 1911 C 186.332 1.475 -1.27549 0
M  V30 1912 O 185.602 1.91878 -0.394924 0
M  V30 1913 H 184.182 0.075178 -0.743207 0
M  V30 1914 H 186.844 -0.518337 -1.87881 0
M  V30 1915 H 185.94 0.407096 -3.09434 0
M  V30 1916 N 186.241 1.57166 -0.116904 0
M  V30 1917 C 187.204 2.14039 0.819742 0
M  V30 1918 C 188.204 1.07477 1.19605 0
M  V30 1919 O 189.394 1.33263 1.1219 0
M  V30 1920 C 186.526 2.67891 2.10826 0
M  V30 1921 H 187.719 2.98128 0.325511 0
M  V30 1922 H 185.272 1.55739 0.132312 0
M  V30 1923 H 186.007 1.87384 2.64685 0
M  V30 1924 H 185.792 3.45823 1.84793 0
M  V30 1925 H 187.282 3.11809 2.77785 0
M  V30 1926 N 187.719 -0.156864 1.56817 0
M  V30 1927 C 188.967 -0.869404 1.82444 0
M  V30 1928 C 189.288 -1.82147 0.69623 0
M  V30 1929 O 188.558 -1.93847 -0.28287 0
M  V30 1930 H 187.138 -0.324043 0.673056 0
M  V30 1931 H 189.8 -0.153224 1.94297 0
M  V30 1932 H 188.896 -1.43761 2.77019 0
M  V30 1933 N 189.197 -1.51736 -0.425897 0
M  V30 1934 C 190.422 -1.69082 -1.20108 0
M  V30 1935 C 190.847 -0.392398 -1.83962 0
M  V30 1936 O 190.205 0.64858 -1.69302 0
M  V30 1937 C 190.253 -2.81604 -2.25237 0
M  V30 1938 O 189.357 -2.46004 -3.30992 0
M  V30 1939 H 188.698 -0.563408 -0.35138 0
M  V30 1940 H 191.228 -1.98358 -0.501512 0
M  V30 1941 H 191.238 -3.06025 -2.69838 0
M  V30 1942 H 189.913 -3.75817 -1.78142 0
M  V30 1943 H 188.49 -2.32195 -2.91787 0
M  V30 1944 N 190.675 0.682077 -1.42076 0
M  V30 1945 C 191.605 1.80796 -1.47767 0
M  V30 1946 C 192.586 1.6677 -0.334954 0
M  V30 1947 O 193.771 1.863 -0.548264 0
M  V30 1948 C 190.901 3.19038 -1.37229 0
M  V30 1949 C 189.855 3.47789 -2.49453 0
M  V30 1950 C 189.181 4.8553 -2.23975 0
M  V30 1951 C 190.481 3.45411 -3.91776 0
M  V30 1952 H 192.175 1.7629 -2.41997 0
M  V30 1953 H 189.721 0.846721 -1.16476 0
M  V30 1954 H 191.674 3.97528 -1.39821 0
M  V30 1955 H 190.398 3.24204 -0.394907 0
M  V30 1956 H 189.057 2.71657 -2.46166 0
M  V30 1957 H 188.705 4.87337 -1.24547 0
M  V30 1958 H 188.405 5.0573 -2.99184 0
M  V30 1959 H 189.929 5.66312 -2.28304 0
M  V30 1960 H 191.343 4.13882 -3.96705 0
M  V30 1961 H 189.74 3.77145 -4.66778 0
M  V30 1962 H 190.81 2.44122 -4.18966 0
M  V30 1963 N 192.153 1.28127 0.917671 0
M  V30 1964 C 193.399 1.15223 1.66888 0
M  V30 1965 C 193.732 -0.299293 1.9188 0
M  V30 1966 O 193.007 -1.21805 1.51637 0
M  V30 1967 C 193.29 1.94706 3.02922 0
M  V30 1968 C 193.143 3.47898 2.85109 0
M  V30 1969 C 194.462 1.75939 4.03402 0
M  V30 1970 H 191.581 0.419946 0.605652 0
M  V30 1971 H 194.223 1.57398 1.06423 0
M  V30 1972 H 192.373 1.58864 3.54534 0
M  V30 1973 H 194.045 3.93624 2.40537 0
M  V30 1974 H 192.288 3.7373 2.20246 0
M  V30 1975 H 192.959 3.98765 3.81694 0
M  V30 1976 H 195.435 2.07209 3.60837 0
M  V30 1977 H 194.311 2.33931 4.96556 0
M  V30 1978 H 194.572 0.709877 4.36364 0
M  V30 1979 N 193.631 -1.12557 1.10312 0
M  V30 1980 C 194.594 -2.16434 0.75424 0
M  V30 1981 C 195.594 -1.59278 -0.220685 0
M  V30 1982 O 196.784 -1.742 0.00230591 0
M  V30 1983 C 193.916 -3.40699 0.116987 0
M  V30 1984 H 195.109 -2.48811 1.67431 0
M  V30 1985 H 192.662 -1.27542 0.903475 0
M  V30 1986 H 193.397 -3.13921 -0.813877 0
M  V30 1987 H 193.182 -3.83459 0.818613 0
M  V30 1988 H 194.672 -4.17451 -0.111387 0
M  V30 1989 N 195.109 -0.891671 -1.2995 0
M  V30 1990 C 196.039 -0.379797 -2.30391 0
M  V30 1991 C 197.02 0.540919 -1.6127 0
M  V30 1992 O 198.205 0.453352 -1.88834 0
M  V30 1993 C 195.335 0.400654 -3.44981 0
M  V30 1994 C 194.289 -0.428905 -4.25846 0
M  V30 1995 C 193.615 0.478557 -5.32554 0
M  V30 1996 C 194.915 -1.67458 -4.94727 0
M  V30 1997 H 196.609 -1.21914 -2.73454 0
M  V30 1998 H 194.155 -0.587675 -1.31462 0
M  V30 1999 H 196.108 0.769434 -4.14316 0
M  V30 2000 H 194.832 1.27371 -3.0074 0
M  V30 2001 H 193.491 -0.779911 -3.58208 0
M  V30 2002 H 193.139 1.34951 -4.84559 0
M  V30 2003 H 192.839 -0.0727433 -5.87555 0
M  V30 2004 H 194.363 0.843705 -6.04743 0
M  V30 2005 H 195.777 -1.376 -5.56542 0
M  V30 2006 H 194.174 -2.16659 -5.59624 0
M  V30 2007 H 195.244 -2.41518 -4.20473 0
M  V30 2008 N 196.587 1.43421 -0.653314 0
M  V30 2009 C 197.534 2.30768 0.0382271 0
M  V30 2010 C 198.504 1.44755 0.814576 0
M  V30 2011 O 199.689 1.73624 0.791162 0
M  V30 2012 C 196.829 3.30336 0.998599 0
M  V30 2013 C 195.942 4.31448 0.218342 0
M  V30 2014 C 195.077 5.18098 1.17252 0
M  V30 2015 C 194.116 6.10902 0.382702 0
M  V30 2016 N 193.253 6.90176 1.28848 0
M  V30 2017 H 198.093 2.89357 -0.712511 0
M  V30 2018 H 195.63 1.42548 -0.363128 0
M  V30 2019 H 197.588 3.86572 1.56901 0
M  V30 2020 H 196.218 2.73397 1.71621 0
M  V30 2021 H 195.27 3.77506 -0.46836 0
M  V30 2022 H 196.582 4.97227 -0.395812 0
M  V30 2023 H 195.736 5.7896 1.81356 0
M  V30 2024 H 194.475 4.52444 1.82058 0
M  V30 2025 H 193.48 5.49128 -0.27169 0
M  V30 2026 H 194.705 6.78598 -0.260957 0
M  V30 2027 H 192.651 6.27171 1.92334 0
M  V30 2028 H 192.568 7.52478 0.728887 0
M  V30 2029 H 193.836 7.55543 1.91766 0
M  V30 2030 N 198.065 0.39524 1.52563 0
M  V30 2031 C 199.342 -0.242908 1.94086 0
M  V30 2032 C 199.722 -1.63841 1.33114 0
M  V30 2033 O 199.07 -2.22928 0.501529 0
M  V30 2034 C 199.28 -0.26327 3.48006 0
M  V30 2035 C 200.628 -0.489354 4.21771 0
M  V30 2036 O 201.652 -0.343226 3.54543 0
M  V30 2037 O 200.511 -0.776169 5.4096 0
M  V30 2038 H 197.605 -0.152536 0.812811 0
M  V30 2039 H 200.151 0.450178 1.6362 0
M  V30 2040 H 198.923 0.713985 3.84731 0
M  V30 2041 H 198.546 -1.00103 3.84792 0
M  V30 2042 N 199.544 -1.57102 0.125237 0
M  V30 2043 C 200.494 -2.12202 -0.833936 0
M  V30 2044 C 201.478 -1.04433 -1.22403 0
M  V30 2045 O 202.67 -1.30655 -1.19408 0
M  V30 2046 C 199.799 -2.72994 -2.08157 0
M  V30 2047 C 198.885 -3.87852 -1.71556 0
M  V30 2048 N 199.276 -4.9464 -1.05662 0
M  V30 2049 C 197.574 -3.98153 -2.00973 0
M  V30 2050 C 198.275 -5.74953 -0.883376 0
M  V30 2051 N 197.251 -5.24985 -1.41036 0
M  V30 2052 H 201.053 -2.92141 -0.321035 0
M  V30 2053 H 198.567 -1.62217 -0.0770315 0
M  V30 2054 H 200.564 -3.10816 -2.77847 0
M  V30 2055 H 199.224 -1.9452 -2.59985 0
M  V30 2056 H 200.235 -5.12872 -0.719878 0
M  V30 2057 H 196.912 -3.30728 -2.54804 0
M  V30 2058 H 198.302 -6.70904 -0.365675 0
M  V30 2059 N 201.022 0.148545 -1.56898 0
M  V30 2060 C 202.271 0.85984 -1.82454 0
M  V30 2061 C 202.584 1.82406 -0.706229 0
M  V30 2062 O 203.79 2.57938 -0.847349 0
M  V30 2063 C 202.246 1.57967 -3.2338 0
M  V30 2064 C 201.854 0.65794 -4.43142 0
M  V30 2065 C 203.598 2.27784 -3.58211 0
M  V30 2066 C 201.505 1.3793 -5.75091 0
M  V30 2067 H 200.435 0.324834 -0.68044 0
M  V30 2068 H 203.086 0.112588 -1.83154 0
M  V30 2069 H 201.468 2.37249 -3.17063 0
M  V30 2070 H 202.642 -0.0995497 -4.60692 0
M  V30 2071 H 200.957 0.0682643 -4.16344 0
M  V30 2072 H 203.554 2.8239 -4.54048 0
M  V30 2073 H 203.897 3.04204 -2.84193 0
M  V30 2074 H 204.43 1.55421 -3.66182 0
M  V30 2075 H 201.169 0.656982 -6.52199 0
M  V30 2076 H 200.689 2.10954 -5.61479 0
M  V30 2077 H 202.368 1.92063 -6.17835 0
M  V30 2078 N 202.5 1.5196 0.417844 0
M  V30 2079 C 203.448 1.75278 1.52907 0
M  V30 2080 C 204.442 0.619611 1.57662 0
M  V30 2081 O 205.648 0.801457 1.61173 0
M  V30 2082 H 202.023 0.554141 0.508362 0
M  V30 2083 H 203.994 2.68389 1.30422 0
M  V30 2084 C 202.743 1.91262 2.90369 0
M  V30 2085 H 202.066 2.77872 2.8745 0
M  V30 2086 H 203.506 2.11581 3.67436 0
M  V30 2087 C 201.965 0.677431 3.30019 0
M  V30 2088 O 202.495 -0.158799 4.01386 0
M  V30 2089 N 200.701 0.515851 2.85985 0
M  V30 2090 H 200.248 1.19744 2.28077 0
M  V30 2091 H 200.206 -0.309315 3.12875 0
M  V30 2092 N 203.978 -0.674533 1.42435 0
M  V30 2093 C 205.206 -1.46283 1.46317 0
M  V30 2094 C 205.621 -1.88653 0.0745836 0
M  V30 2095 O 204.978 -1.58151 -0.91074 0
M  V30 2096 C 205.029 -2.71178 2.3905 0
M  V30 2097 O 204.75 -2.30586 3.72507 0
M  V30 2098 C 206.251 -3.64738 2.51955 0
M  V30 2099 H 203.471 -0.450104 0.497642 0
M  V30 2100 H 206.015 -0.828792 1.86953 0
M  V30 2101 H 204.17 -3.3077 2.01667 0
M  V30 2102 H 204.584 -3.11241 4.22172 0
M  V30 2103 H 206.058 -4.49096 3.20962 0
M  V30 2104 H 206.535 -4.10656 1.55752 0
M  V30 2105 H 207.141 -3.11038 2.90061 0
M  V30 2106 N 205.456 -1.28612 -0.910864 0
M  V30 2107 C 206.389 -1.07109 -2.01502 0
M  V30 2108 C 207.367 0.013706 -1.62594 0
M  V30 2109 O 208.551 -0.134796 -1.88017 0
M  V30 2110 C 205.678 -0.628255 -3.32822 0
M  V30 2111 C 204.724 -1.71012 -3.90714 0
M  V30 2112 S 205.557 -3.30676 -4.21205 0
M  V30 2113 C 206.713 -2.88234 -5.55583 0
M  V30 2114 H 206.946 -2.00591 -2.19432 0
M  V30 2115 H 204.479 -1.12633 -1.05609 0
M  V30 2116 H 206.437 -0.37946 -4.08742 0
M  V30 2117 H 205.098 0.28678 -3.12788 0
M  V30 2118 H 204.291 -1.35195 -4.85529 0
M  V30 2119 H 203.893 -1.91186 -3.21441 0
M  V30 2120 H 206.185 -2.34584 -6.35591 0
M  V30 2121 H 207.128 -3.81857 -5.96314 0
M  V30 2122 H 207.536 -2.26862 -5.16908 0
M  V30 2123 N 206.934 1.1197 -1.10907 0
M  V30 2124 C 208.345 1.65114 -0.871446 0
M  V30 2125 C 208.696 1.86885 0.597353 0
M  V30 2126 O 207.821 1.59896 1.45816 0
M  V30 2127 C 208.416 2.99944 -1.5754 0
M  V30 2128 C 206.975 3.50018 -1.38435 0
M  V30 2129 C 206.122 2.24941 -1.62164 0
M  V30 2130 H 209.073 0.956851 -1.2661 0
M  V30 2131 H 209.094 3.66651 -1.01721 0
M  V30 2132 H 208.606 2.84067 -2.64438 0
M  V30 2133 H 206.707 3.71071 -0.337214 0
M  V30 2134 H 206.82 4.29165 -2.12965 0
M  V30 2135 H 205.184 2.3229 -1.04467 0
M  V30 2136 H 205.967 2.11612 -2.70324 0
M  V30 2137 N 208.412 0.89855 1.29475 0
M  V30 2138 C 209.66 0.522847 1.9522 0
M  V30 2139 C 209.981 -0.93371 1.71192 0
M  V30 2140 O 209.251 -1.65823 1.04305 0
M  V30 2141 H 207.831 0.190366 0.722336 0
M  V30 2142 H 210.493 1.14459 1.5775 0
M  V30 2143 H 209.589 0.704476 3.04045 0
M  V30 2144 N 209.89 -1.43072 0.660911 0
M  V30 2145 C 211.118 -2.06067 0.185422 0
M  V30 2146 C 211.533 -1.49582 -1.15198 0
M  V30 2147 O 210.89 -0.630134 -1.71276 0
M  V30 2148 C 210.941 -3.61371 0.0966523 0
M  V30 2149 O 210.662 -4.15758 1.38119 0
M  V30 2150 C 212.163 -4.41455 -0.403996 0
M  V30 2151 H 209.383 -0.664459 0.0934604 0
M  V30 2152 H 211.927 -1.83447 0.90373 0
M  V30 2153 H 210.082 -3.8315 -0.572259 0
M  V30 2154 H 210.496 -5.09499 1.24542 0
M  V30 2155 H 211.97 -5.50437 -0.415045 0
M  V30 2156 H 212.447 -4.15036 -1.43674 0
M  V30 2157 H 213.053 -4.24663 0.232691 0
M  V30 2158 N 211.368 -0.403325 -1.52352 0
M  V30 2159 C 212.779 0.0675782 -1.86578 0
M  V30 2160 C 213.13 1.44941 -1.32236 0
M  V30 2161 O 212.255 2.06112 -0.659307 0
M  V30 2162 C 212.85 0.129404 -3.38553 0
M  V30 2163 C 211.409 0.544629 -3.72439 0
M  V30 2164 C 210.556 -0.284551 -2.75836 0
M  V30 2165 H 213.507 -0.620631 -1.46061 0
M  V30 2166 H 213.528 0.94581 -3.68558 0
M  V30 2167 H 213.04 -0.87645 -3.78074 0
M  V30 2168 H 211.141 1.55734 -3.38493 0
M  V30 2169 H 211.254 0.293046 -4.78203 0
M  V30 2170 H 209.618 0.252258 -2.53448 0
M  V30 2171 H 210.401 -1.28865 -3.18196 0
M  V30 2172 N 212.846 1.57033 -0.133567 0
M  V30 2173 C 213.779 2.11824 0.848872 0
M  V30 2174 C 214.757 1.03833 1.2513 0
M  V30 2175 O 215.941 1.31579 1.34978 0
M  V30 2176 C 213.068 2.62692 2.138 0
M  V30 2177 C 212.114 3.82705 1.88253 0
M  V30 2178 S 212.947 5.2438 1.08563 0
M  V30 2179 C 214.103 5.78627 2.38624 0
M  V30 2180 H 214.336 2.94824 0.38289 0
M  V30 2181 H 211.869 1.5419 0.0804796 0
M  V30 2182 H 213.827 2.92652 2.87863 0
M  V30 2183 H 212.488 1.79847 2.57515 0
M  V30 2184 H 211.681 4.16496 2.83809 0
M  V30 2185 H 211.283 3.53437 1.22305 0
M  V30 2186 H 213.575 5.8924 3.34369 0
M  V30 2187 H 214.518 6.76443 2.09358 0
M  V30 2188 H 214.926 5.06783 2.48658 0
M  V30 2189 N 214.325 -0.140222 1.56975 0
M  V30 2190 C 215.571 -0.852949 1.83991 0
M  V30 2191 C 215.904 -1.80512 0.716187 0
M  V30 2192 O 215.179 -1.92479 -0.279681 0
M  V30 2193 C 215.462 -1.6215 3.21527 0
M  V30 2194 C 215.315 -0.690363 4.4447 0
M  V30 2195 C 216.634 -2.58247 3.56366 0
M  V30 2196 H 213.753 -0.308634 0.669264 0
M  V30 2197 H 216.395 -0.117898 1.89634 0
M  V30 2198 H 214.545 -2.24812 3.16847 0
M  V30 2199 H 216.217 -0.0742264 4.6124 0
M  V30 2200 H 214.46 -0.000396433 4.338 0
M  V30 2201 H 215.131 -1.2643 5.37326 0
M  V30 2202 H 217.607 -2.05701 3.61699 0
M  V30 2203 H 216.483 -3.09067 4.53617 0
M  V30 2204 H 216.744 -3.39923 2.82674 0
M  V30 2205 N 215.803 -1.52179 -0.40978 0
M  V30 2206 C 217.051 -1.65878 -1.15451 0
M  V30 2207 C 217.372 -0.390771 -1.91044 0
M  V30 2208 O 216.642 0.594323 -1.86667 0
M  V30 2209 H 215.222 -0.611405 -0.429177 0
M  V30 2210 H 217.884 -1.89219 -0.467134 0
M  V30 2211 H 216.98 -2.49954 -1.86894 0
M  V30 2212 N 217.281 0.66697 -1.42791 0
M  V30 2213 C 218.211 1.79218 -1.49677 0
M  V30 2214 C 219.192 1.66405 -0.352623 0
M  V30 2215 O 220.377 1.85708 -0.567993 0
M  V30 2216 C 217.507 3.17565 -1.40605 0
M  V30 2217 C 216.461 3.45124 -2.53127 0
M  V30 2218 C 215.787 4.83127 -2.29112 0
M  V30 2219 C 217.087 3.41236 -3.95418 0
M  V30 2220 H 218.781 1.73713 -2.43853 0
M  V30 2221 H 216.327 0.83432 -1.17367 0
M  V30 2222 H 218.28 3.96022 -1.44029 0
M  V30 2223 H 217.004 3.23767 -0.429271 0
M  V30 2224 H 215.663 2.69031 -2.49034 0
M  V30 2225 H 215.311 4.85988 -1.29709 0
M  V30 2226 H 215.011 5.02528 -3.04531 0
M  V30 2227 H 216.535 5.63859 -2.34297 0
M  V30 2228 H 217.949 4.09651 -4.01073 0
M  V30 2229 H 216.346 3.72173 -4.70752 0
M  V30 2230 H 217.416 2.39665 -4.21532 0
M  V30 2231 N 218.759 1.29093 0.90403 0
M  V30 2232 C 219.707 1.13727 2.02901 0
M  V30 2233 C 220.701 0.0539853 1.69314 0
M  V30 2234 O 221.907 0.213469 1.7873 0
M  V30 2235 H 218.282 0.35117 0.664969 0
M  V30 2236 H 220.253 2.08982 2.13001 0
M  V30 2237 C 219.002 0.826066 3.37745 0
M  V30 2238 H 218.325 1.65164 3.64089 0
M  V30 2239 H 219.765 0.758559 4.17159 0
M  V30 2240 C 218.224 -0.470541 3.33598 0
M  V30 2241 O 218.754 -1.49792 3.72727 0
M  V30 2242 N 216.96 -0.474812 2.86695 0
M  V30 2243 H 216.507 0.361692 2.55048 0
M  V30 2244 H 216.465 -1.34236 2.84303 0
M  V30 2245 N 220.237 -1.11381 1.11499 0
M  V30 2246 C 221.514 -1.7955 0.775965 0
M  V30 2247 C 221.894 -1.97859 -0.73588 0
M  V30 2248 O 221.242 -1.56376 -1.66609 0
M  V30 2249 C 221.452 -3.13196 1.53977 0
M  V30 2250 C 222.8 -3.88227 1.71944 0
M  V30 2251 O 223.824 -3.22887 1.50407 0
M  V30 2252 O 222.683 -5.05477 2.07738 0
M  V30 2253 H 219.777 -0.777728 0.28119 0
M  V30 2254 H 222.323 -1.18118 1.21845 0
M  V30 2255 H 221.095 -2.95229 2.56818 0
M  V30 2256 H 220.718 -3.82342 1.09088 0
M  V30 2257 N 221.715 -0.905404 -1.28997 0
M  V30 2258 C 222.992 -0.453513 -1.9027 0
M  V30 2259 C 223.372 1.06721 -1.82137 0
M  V30 2260 O 222.72 1.91159 -1.25182 0
M  V30 2261 C 222.93 -0.974494 -3.35119 0
M  V30 2262 C 224.278 -1.0216 -4.12127 0
M  V30 2263 O 225.302 -0.922557 -3.44046 0
M  V30 2264 O 224.161 -1.17121 -5.33802 0
M  V30 2265 H 221.255 -0.142347 -0.814657 0
M  V30 2266 H 223.801 -0.995642 -1.37423 0
M  V30 2267 H 222.573 -2.01848 -3.35221 0
M  V30 2268 H 222.196 -0.412706 -3.95452 0
M  V30 2269 N 223.193 1.4272 -0.668489 0
M  V30 2270 C 224.609 1.55992 -0.33745 0
M  V30 2271 C 224.809 1.64933 1.15756 0
M  V30 2272 O 223.865 1.61278 1.94282 0
M  V30 2273 C 225.178 2.81314 -1.06222 0
M  V30 2274 C 226.726 2.95078 -1.04394 0
M  V30 2275 C 227.201 4.23252 -1.74991 0
M  V30 2276 N 228.692 4.3015 -1.71829 0
M  V30 2277 C 229.427 5.28127 -2.23315 0
M  V30 2278 N 228.923 6.32293 -2.83156 0
M  V30 2279 N 230.716 5.19882 -2.13726 0
M  V30 2280 H 222.867 1.3516 -1.63846 0
M  V30 2281 H 225.13 0.650174 -0.689912 0
M  V30 2282 H 224.836 2.80823 -2.11734 0
M  V30 2283 H 224.71 3.72012 -0.62344 0
M  V30 2284 H 227.097 2.951 0.0028244 0
M  V30 2285 H 227.178 2.05627 -1.52155 0
M  V30 2286 H 226.822 4.2399 -2.79633 0
M  V30 2287 H 226.752 5.11626 -1.24685 0
M  V30 2288 H 229.243 3.55499 -1.28175 0
M  V30 2289 H 229.556 7.03398 -3.20079 0
M  V30 2290 H 227.901 6.32873 -2.87223 0
M  V30 2291 H 231.092 4.37423 -1.66669 0
M  V30 2292 H 231.265 5.96077 -2.54158 0
M  V30 2293 N 224.671 0.411399 1.52136 0
M  V30 2294 C 225.918 -0.163645 2.01838 0
M  V30 2295 C 226.246 -1.4495 1.29691 0
M  V30 2296 O 225.501 -1.91725 0.392431 0
M  V30 2297 C 225.8 -0.455872 3.54481 0
M  V30 2298 C 225.466 0.741055 4.44769 0
M  V30 2299 C 224.128 1.06936 4.69167 0
M  V30 2300 C 226.48 1.54075 4.97906 0
M  V30 2301 C 223.808 2.19851 5.43951 0
M  V30 2302 C 226.16 2.66067 5.73926 0
M  V30 2303 C 224.824 2.99381 5.96596 0
M  V30 2304 H 224.094 -0.0598821 0.738576 0
M  V30 2305 H 226.741 0.553283 1.83333 0
M  V30 2306 H 225.046 -1.2544 3.71177 0
M  V30 2307 H 226.743 -0.913802 3.90449 0
M  V30 2308 H 223.333 0.475192 4.25958 0
M  V30 2309 H 227.517 1.30033 4.78963 0
M  V30 2310 H 222.773 2.46006 5.59724 0
M  V30 2311 H 226.947 3.28419 6.14096 0
M  V30 2312 H 224.574 3.86992 6.54325 0
M  V30 2313 N 226.149 -1.5696 0.141893 0
M  V30 2314 C 227.397 -1.95573 -0.509484 0
M  V30 2315 C 227.718 -1.02746 -1.65736 0
M  V30 2316 O 226.988 -0.0880311 -1.95702 0
M  V30 2317 H 225.568 -0.722115 -0.191205 0
M  V30 2318 H 228.23 -1.93697 0.216196 0
M  V30 2319 H 227.326 -2.99171 -0.889 0
M  V30 2320 N 227.627 0.131896 -1.57047 0
M  V30 2321 C 228.537 1.1815 -2.02676 0
M  V30 2322 C 229.553 1.46113 -0.944824 0
M  V30 2323 O 230.729 1.57485 -1.25541 0
M  V30 2324 C 227.794 2.49139 -2.41103 0
M  V30 2325 C 226.855 2.28688 -3.63318 0
M  V30 2326 C 226.088 3.53431 -3.99903 0
M  V30 2327 O 226.311 4.60223 -3.36973 0
M  V30 2328 O 225.245 3.45198 -4.93074 0
M  V30 2329 H 229.071 0.824069 -2.92306 0
M  V30 2330 H 226.656 0.341745 -1.45439 0
M  V30 2331 H 228.538 3.26338 -2.66611 0
M  V30 2332 H 227.213 2.84382 -1.54624 0
M  V30 2333 H 226.12 1.4939 -3.42977 0
M  V30 2334 H 227.453 1.98355 -4.50462 0
M  V30 2335 N 229.106 1.52395 0.401703 0
M  V30 2336 C 230.522 1.41363 0.740864 0
M  V30 2337 C 230.722 0.523982 1.94568 0
M  V30 2338 O 229.778 -0.00741204 2.52499 0
M  V30 2339 C 231.091 2.84011 0.987847 0
M  V30 2340 C 232.639 2.93404 1.09011 0
M  V30 2341 C 233.114 4.37036 1.3698 0
M  V30 2342 N 234.605 4.40304 1.43829 0
M  V30 2343 C 235.34 5.48508 1.67112 0
M  V30 2344 N 234.836 6.66819 1.87949 0
M  V30 2345 N 236.629 5.36034 1.69187 0
M  V30 2346 H 228.78 2.08765 -0.391262 0
M  V30 2347 H 231.043 0.941265 -0.112798 0
M  V30 2348 H 230.749 3.51265 0.174835 0
M  V30 2349 H 230.623 3.25502 1.906 0
M  V30 2350 H 233.01 2.26325 1.8937 0
M  V30 2351 H 233.091 2.55359 0.15015 0
M  V30 2352 H 232.735 5.04676 0.571353 0
M  V30 2353 H 232.665 4.72623 2.3224 0
M  V30 2354 H 235.156 3.55024 1.29486 0
M  V30 2355 H 235.469 7.45063 2.05185 0
M  V30 2356 H 233.814 6.6987 1.85199 0
M  V30 2357 H 237.005 4.42579 1.52451 0
M  V30 2358 H 237.178 6.20434 1.86993 0
M  V30 2359 N 230.584 -0.659388 1.43143 0
M  V30 2360 C 231.831 -1.41935 1.44433 0
M  V30 2361 C 232.159 -1.94387 0.0663522 0
M  V30 2362 O 231.414 -1.72314 -0.927706 0
M  V30 2363 C 231.713 -2.62206 2.42864 0
M  V30 2364 C 231.379 -2.28208 3.88886 0
M  V30 2365 C 230.041 -2.18647 4.28657 0
M  V30 2366 C 232.393 -2.00887 4.8093 0
M  V30 2367 C 229.721 -1.79914 5.58433 0
M  V30 2368 C 232.073 -1.63653 6.11065 0
M  V30 2369 C 230.737 -1.52614 6.49819 0
M  V30 2370 H 230.007 -0.519376 0.528517 0
M  V30 2371 H 232.654 -0.750453 1.76183 0
M  V30 2372 H 230.959 -3.34199 2.04495 0
M  V30 2373 H 232.656 -3.2041 2.41119 0
M  V30 2374 H 229.246 -2.36557 3.57406 0
M  V30 2375 H 233.43 -2.07198 4.5098 0
M  V30 2376 H 228.686 -1.69948 5.87305 0
M  V30 2377 H 232.86 -1.41543 6.81864 0
M  V30 2378 H 230.487 -1.22371 7.50286 0
M  V30 2379 N 232.062 -1.29571 -0.897171 0
M  V30 2380 C 233.309 -1.17689 -1.6479 0
M  V30 2381 C 233.637 0.27107 -1.92602 0
M  V30 2382 O 232.892 1.21193 -1.53658 0
M  V30 2383 C 233.191 -1.9382 -3.00281 0
M  V30 2384 C 232.857 -3.43522 -2.92068 0
M  V30 2385 C 231.519 -3.84348 -2.89535 0
M  V30 2386 C 233.871 -4.38906 -2.81089 0
M  V30 2387 C 231.199 -5.18869 -2.73846 0
M  V30 2388 C 233.551 -5.73521 -2.66939 0
M  V30 2389 C 232.215 -6.13601 -2.62774 0
M  V30 2390 H 231.485 -0.430654 -0.603008 0
M  V30 2391 H 234.132 -1.60536 -1.04404 0
M  V30 2392 H 232.437 -1.4357 -3.64547 0
M  V30 2393 H 234.134 -1.82028 -3.57305 0
M  V30 2394 H 230.724 -3.11072 -2.94842 0
M  V30 2395 H 234.908 -4.08315 -2.82121 0
M  V30 2396 H 230.164 -5.4903 -2.69027 0
M  V30 2397 H 234.338 -6.47078 -2.57416 0
M  V30 2398 H 231.965 -7.17786 -2.50375 0
M  V30 2399 N 233.54 1.10788 -1.12088 0
M  V30 2400 C 234.765 1.87002 -0.896949 0
M  V30 2401 C 235.19 1.79933 0.548261 0
M  V30 2402 O 234.548 1.16662 1.38779 0
M  V30 2403 C 234.596 3.3349 -1.37174 0
M  V30 2404 O 233.7 4.08745 -0.547831 0
M  V30 2405 H 233.041 0.580397 -0.322545 0
M  V30 2406 H 235.571 1.39996 -1.49206 0
M  V30 2407 H 235.581 3.84339 -1.36922 0
M  V30 2408 H 234.256 3.37951 -2.42408 0
M  V30 2409 H 232.833 3.6776 -0.617034 0
M  V30 2410 N 235.018 0.912232 1.28515 0
M  V30 2411 C 235.948 0.416403 2.29757 0
M  V30 2412 C 236.929 -0.515194 1.6211 0
M  V30 2413 O 238.114 -0.423253 1.89532 0
M  V30 2414 C 235.244 -0.34572 3.45575 0
M  V30 2415 C 234.198 0.496599 4.25109 0
M  V30 2416 C 233.524 -0.393771 5.33248 0
M  V30 2417 C 234.824 1.75307 4.92001 0
M  V30 2418 H 236.518 1.26249 2.7148 0
M  V30 2419 H 234.064 0.608515 1.30511 0
M  V30 2420 H 236.017 -0.703422 4.15488 0
M  V30 2421 H 234.741 -1.2257 3.02728 0
M  V30 2422 H 233.4 0.8368 3.56922 0
M  V30 2423 H 233.048 -1.27225 4.86644 0
M  V30 2424 H 232.748 0.166209 5.87365 0
M  V30 2425 H 234.272 -0.747389 6.06009 0
M  V30 2426 H 235.686 1.46437 5.54283 0
M  V30 2427 H 234.083 2.25534 5.56106 0
M  V30 2428 H 235.153 2.48176 4.16577 0
M  V30 2429 N 236.496 -1.42363 0.676048 0
M  V30 2430 C 237.459 -2.29199 0.00766941 0
M  V30 2431 C 238.459 -1.43389 -0.727745 0
M  V30 2432 O 239.649 -1.64764 -0.56556 0
M  V30 2433 C 236.781 -3.2591 -0.999785 0
M  V30 2434 H 237.974 -2.89794 0.771988 0
M  V30 2435 H 235.527 -1.50024 0.438468 0
M  V30 2436 H 236.262 -2.70256 -1.79255 0
M  V30 2437 H 236.047 -3.89202 -0.475829 0
M  V30 2438 H 237.537 -3.91028 -1.46583 0
M  V30 2439 N 237.974 -0.419461 -1.51915 0
M  V30 2440 C 238.922 0.415502 -2.28859 0
M  V30 2441 C 239.916 1.03674 -1.3397 0
M  V30 2442 O 241.122 0.973757 -1.51387 0
M  V30 2443 H 237.497 0.152786 -0.736315 0
M  V30 2444 H 239.468 -0.254531 -2.97312 0
M  V30 2445 C 238.217 1.51425 -3.12995 0
M  V30 2446 H 237.54 1.04556 -3.85886 0
M  V30 2447 H 238.98 2.07208 -3.6992 0
M  V30 2448 C 237.439 2.48745 -2.27217 0
M  V30 2449 O 237.969 3.52871 -1.9195 0
M  V30 2450 N 236.175 2.19202 -1.90785 0
M  V30 2451 H 235.722 1.34556 -2.19664 0
M  V30 2452 H 235.68 2.84561 -1.33687 0
M  V30 2453 N 239.452 1.56882 -0.150215 0
M  V30 2454 C 240.415 2.1573 0.774157 0
M  V30 2455 C 241.415 1.0999 1.17298 0
M  V30 2456 O 242.605 1.35613 1.09338 0
M  V30 2457 C 239.737 2.72302 2.05096 0
M  V30 2458 H 240.93 2.98752 0.262201 0
M  V30 2459 H 238.483 1.55985 0.099248 0
M  V30 2460 H 239.218 1.92956 2.6065 0
M  V30 2461 H 239.003 3.49665 1.77416 0
M  V30 2462 H 240.493 3.17632 2.71109 0
M  V30 2463 N 240.93 -0.123565 1.57115 0
M  V30 2464 C 242.16 -0.845233 1.88519 0
M  V30 2465 C 242.568 -1.74168 0.739064 0
M  V30 2466 O 241.911 -1.81244 -0.299355 0
M  V30 2467 C 241.973 -1.73452 3.14888 0
M  V30 2468 C 241.637 -1.01285 4.45635 0
M  V30 2469 C 242.634 -0.355774 5.18681 0
M  V30 2470 C 240.319 -0.99538 4.92339 0
M  V30 2471 C 242.313 0.309114 6.3665 0
M  V30 2472 C 240 -0.32669 6.10226 0
M  V30 2473 C 240.998 0.324406 6.82229 0
M  V30 2474 O 240.686 0.982437 7.97874 0
M  V30 2475 H 240.418 -0.248534 0.628655 0
M  V30 2476 H 242.972 -0.113907 2.05084 0
M  V30 2477 H 241.202 -2.50737 2.94394 0
M  V30 2478 H 242.891 -2.33021 3.32349 0
M  V30 2479 H 243.657 -0.360918 4.83655 0
M  V30 2480 H 239.536 -1.49159 4.36202 0
M  V30 2481 H 243.08 0.8179 6.92789 0
M  V30 2482 H 238.977 -0.319294 6.4471 0
M  V30 2483 H 239.745 0.886454 8.13686 0
M  V30 2484 N 242.408 -1.52605 -0.393616 0
M  V30 2485 C 243.685 -1.58001 -1.15304 0
M  V30 2486 C 244.065 -0.370385 -2.07825 0
M  V30 2487 O 243.413 0.641638 -2.19306 0
M  V30 2488 C 243.623 -2.91652 -1.91677 0
M  V30 2489 C 244.971 -3.4522 -2.47201 0
M  V30 2490 O 245.995 -2.93495 -2.01839 0
M  V30 2491 O 244.854 -4.35579 -3.3005 0
M  V30 2492 H 241.948 -0.637068 -0.527327 0
M  V30 2493 H 244.494 -1.64939 -0.399141 0
M  V30 2494 H 243.266 -3.71136 -1.23992 0
M  V30 2495 H 242.889 -2.88077 -2.74039 0
M  V30 2496 N 243.887 0.651787 -1.4349 0
M  V30 2497 C 244.85 1.74647 -1.48429 0
M  V30 2498 C 245.85 1.56513 -0.368817 0
M  V30 2499 O 247.04 1.62385 -0.630623 0
M  V30 2500 C 244.172 3.13533 -1.33827 0
M  V30 2501 H 245.365 1.71649 -2.4592 0
M  V30 2502 H 242.918 0.863573 -1.30277 0
M  V30 2503 H 243.653 3.22142 -0.37349 0
M  V30 2504 H 243.438 3.28101 -2.14691 0
M  V30 2505 H 244.928 3.93356 -1.40218 0
M  V30 2506 N 245.365 1.30045 0.890287 0
M  V30 2507 C 246.275 1.17885 2.02831 0
M  V30 2508 C 247.291 0.0999609 1.73713 0
M  V30 2509 O 248.467 0.313867 1.98939 0
M  V30 2510 C 245.532 0.866079 3.35708 0
M  V30 2511 C 244.593 2.02979 3.78283 0
M  V30 2512 C 243.826 1.73184 5.0482 0
M  V30 2513 O 244.049 0.657237 5.66601 0
M  V30 2514 O 242.983 2.58267 5.43674 0
M  V30 2515 H 246.809 2.13474 2.16015 0
M  V30 2516 H 244.394 1.09587 1.01543 0
M  V30 2517 H 246.276 0.706623 4.15433 0
M  V30 2518 H 244.951 -0.0599443 3.23644 0
M  V30 2519 H 243.858 2.24454 2.99285 0
M  V30 2520 H 245.191 2.93734 3.94944 0
M  V30 2521 N 246.843 -1.10192 1.12674 0
M  V30 2522 C 248.073 -1.85713 0.905213 0
M  V30 2523 C 248.481 -1.81056 -0.549108 0
M  V30 2524 O 247.824 -1.19927 -1.39151 0
M  V30 2525 C 247.886 -3.34972 1.30516 0
M  V30 2526 C 247.55 -3.63385 2.77129 0
M  V30 2527 C 248.547 -3.59772 3.75313 0
M  V30 2528 C 246.232 -3.91981 3.14096 0
M  V30 2529 C 248.226 -3.84354 5.08479 0
M  V30 2530 C 245.913 -4.16218 4.47443 0
M  V30 2531 C 246.911 -4.12395 5.44444 0
M  V30 2532 O 246.599 -4.36014 6.75387 0
M  V30 2533 H 246.331 -0.593719 0.323223 0
M  V30 2534 H 248.885 -1.40198 1.50112 0
M  V30 2535 H 247.115 -3.81156 0.652463 0
M  V30 2536 H 248.804 -3.91886 1.05736 0
M  V30 2537 H 249.57 -3.37716 3.48099 0
M  V30 2538 H 245.449 -3.94085 2.39202 0
M  V30 2539 H 248.993 -3.81285 5.84181 0
M  V30 2540 H 244.89 -4.37754 4.74386 0
M  V30 2541 H 245.658 -4.53516 6.8137 0
M  V30 2542 N 248.321 -0.919034 -1.28029 0
M  V30 2543 C 249.737 -0.617972 -1.4715 0
M  V30 2544 C 249.937 0.835242 -1.83374 0
M  V30 2545 O 248.993 1.61388 -1.94191 0
M  V30 2546 C 250.306 -1.56041 -2.57044 0
M  V30 2547 C 251.854 -1.56769 -2.7091 0
M  V30 2548 C 252.329 -2.49688 -3.83953 0
M  V30 2549 N 253.82 -2.47845 -3.91314 0
M  V30 2550 C 254.555 -3.16437 -4.78179 0
M  V30 2551 N 254.051 -3.94376 -5.69596 0
M  V30 2552 N 255.844 -3.05498 -4.71834 0
M  V30 2553 H 247.995 -1.85866 -1.02798 0
M  V30 2554 H 250.258 -0.797506 -0.512531 0
M  V30 2555 H 249.964 -2.59671 -2.372 0
M  V30 2556 H 249.838 -1.29551 -3.54255 0
M  V30 2557 H 252.225 -0.538745 -2.90141 0
M  V30 2558 H 252.306 -1.87305 -1.74214 0
M  V30 2559 H 251.95 -3.52688 -3.65477 0
M  V30 2560 H 251.88 -2.16453 -4.80058 0
M  V30 2561 H 254.371 -1.91234 -3.25941 0
M  V30 2562 H 254.684 -4.43721 -6.32718 0
M  V30 2563 H 253.029 -3.98481 -5.69419 0
M  V30 2564 H 256.22 -2.44108 -3.99411 0
M  V30 2565 H 256.393 -3.59225 -5.39316 0
M  V30 2566 N 249.799 1.42003 -0.683588 0
M  V30 2567 C 250.762 2.29191 -0.0198243 0
M  V30 2568 C 251.762 1.43773 0.72013 0
M  V30 2569 O 252.952 1.65061 0.556815 0
M  V30 2570 C 250.084 3.26435 0.982487 0
M  V30 2571 H 251.277 2.8938 -0.787345 0
M  V30 2572 H 248.83 1.49789 -0.446418 0
M  V30 2573 H 249.565 2.71203 1.77819 0
M  V30 2574 H 249.35 3.89449 0.455182 0
M  V30 2575 H 250.84 3.918 1.44508 0
M  V30 2576 N 251.277 0.427512 1.51691 0
M  V30 2577 C 252.207 -0.3796 2.30394 0
M  V30 2578 C 253.188 -1.02982 1.35384 0
M  V30 2579 O 254.373 -1.03534 1.643 0
M  V30 2580 C 251.503 -1.48649 3.1388 0
M  V30 2581 C 250.457 -0.960294 4.17088 0
M  V30 2582 C 249.783 -2.16219 4.89033 0
M  V30 2583 C 251.083 -0.00153679 5.223 0
M  V30 2584 H 252.777 0.277164 2.98114 0
M  V30 2585 H 250.323 0.134739 1.43368 0
M  V30 2586 H 252.276 -2.05826 3.67714 0
M  V30 2587 H 251 -2.1714 2.43962 0
M  V30 2588 H 249.659 -0.410806 3.64291 0
M  V30 2589 H 249.307 -2.83307 4.15628 0
M  V30 2590 H 249.007 -1.81654 5.58816 0
M  V30 2591 H 250.531 -2.73968 5.45687 0
M  V30 2592 H 251.945 -0.482687 5.71264 0
M  V30 2593 H 250.342 0.256199 5.99553 0
M  V30 2594 H 251.412 0.938174 4.75738 0
M  V30 2595 N 252.755 -1.56801 0.158532 0
M  V30 2596 C 253.685 -2.20347 -0.772609 0
M  V30 2597 C 254.666 -1.15518 -1.24859 0
M  V30 2598 O 255.851 -1.43902 -1.30406 0
M  V30 2599 C 252.981 -2.83417 -2.00729 0
M  V30 2600 C 251.935 -3.94174 -1.66765 0
M  V30 2601 C 251.261 -4.44233 -2.97592 0
M  V30 2602 C 252.561 -5.14392 -0.905447 0
M  V30 2603 H 254.255 -2.98413 -0.242959 0
M  V30 2604 H 251.801 -1.43537 -0.115419 0
M  V30 2605 H 253.754 -3.26543 -2.6636 0
M  V30 2606 H 252.478 -2.02701 -2.56086 0
M  V30 2607 H 251.137 -3.51684 -1.03508 0
M  V30 2608 H 250.785 -3.60325 -3.50963 0
M  V30 2609 H 250.485 -5.18945 -2.75626 0
M  V30 2610 H 252.009 -4.90037 -3.64274 0
M  V30 2611 H 253.423 -5.5429 -1.46408 0
M  V30 2612 H 251.82 -5.9494 -0.7853 0
M  V30 2613 H 252.89 -4.84795 0.100668 0
M  V30 2614 N 254.233 0.115231 -1.57178 0
M  V30 2615 C 255.165 1.16694 -1.97269 0
M  V30 2616 C 256.178 1.37445 -0.872502 0
M  V30 2617 O 257.367 1.36454 -1.15077 0
M  V30 2618 C 254.467 2.52627 -2.25905 0
M  V30 2619 C 253.64 2.52427 -3.57211 0
M  V30 2620 C 252.699 3.70134 -3.74016 0
M  V30 2621 O 251.725 3.53546 -4.46087 0
M  V30 2622 N 252.927 4.88844 -3.13068 0
M  V30 2623 H 255.692 0.82588 -2.88096 0
M  V30 2624 H 253.253 0.304461 -1.59011 0
M  V30 2625 H 255.245 3.29937 -2.34359 0
M  V30 2626 H 253.815 2.789 -1.41186 0
M  V30 2627 H 253.035 1.60805 -3.5991 0
M  V30 2628 H 254.323 2.49353 -4.43509 0
M  V30 2629 H 253.721 5.05225 -2.54489 0
M  V30 2630 H 252.278 5.63817 -3.27037 0
M  V30 2631 N 255.711 1.52812 0.385517 0
M  V30 2632 C 256.658 1.77838 1.47113 0
M  V30 2633 C 257.628 0.621757 1.54024 0
M  V30 2634 O 258.813 0.861846 1.70226 0
M  V30 2635 C 255.953 1.95618 2.84302 0
M  V30 2636 C 255.066 3.23316 2.86515 0
M  V30 2637 C 254.201 3.31394 4.15152 0
M  V30 2638 C 253.24 4.53201 4.1143 0
M  V30 2639 N 252.377 4.58542 5.3168 0
M  V30 2640 H 257.217 2.70482 1.25073 0
M  V30 2641 H 254.754 1.34006 0.606692 0
M  V30 2642 H 256.712 2.03912 3.63972 0
M  V30 2643 H 255.342 1.06331 3.04784 0
M  V30 2644 H 254.394 3.24076 1.99195 0
M  V30 2645 H 255.706 4.13045 2.79634 0
M  V30 2646 H 254.86 3.3889 5.03228 0
M  V30 2647 H 253.599 2.39645 4.24761 0
M  V30 2648 H 252.604 4.45827 3.21742 0
M  V30 2649 H 253.829 5.46271 4.03442 0
M  V30 2650 H 251.775 3.69686 5.41912 0
M  V30 2651 H 251.692 5.42148 5.26889 0
M  V30 2652 H 252.96 4.70296 6.21644 0
M  V30 2653 N 257.189 -0.644168 1.43834 0
M  V30 2654 C 258.435 -1.40603 1.46146 0
M  V30 2655 C 258.768 -1.93997 0.0887717 0
M  V30 2656 O 258.043 -1.72854 -0.891724 0
M  V30 2657 C 258.326 -2.58086 2.51124 0
M  V30 2658 C 258.179 -2.10126 3.97702 0
M  V30 2659 C 259.498 -3.60291 2.52742 0
M  V30 2660 H 256.617 -0.509905 0.532134 0
M  V30 2661 H 259.259 -0.729502 1.75437 0
M  V30 2662 H 257.409 -3.15801 2.26278 0
M  V30 2663 H 259.081 -1.57342 4.33637 0
M  V30 2664 H 257.324 -1.41419 4.10101 0
M  V30 2665 H 257.995 -2.94649 4.66783 0
M  V30 2666 H 260.471 -3.12352 2.7491 0
M  V30 2667 H 259.347 -4.40032 3.28121 0
M  V30 2668 H 259.608 -4.1349 1.56455 0
M  V30 2669 N 258.668 -1.30515 -0.883378 0
M  V30 2670 C 259.631 -1.1701 -1.97082 0
M  V30 2671 C 260.631 -0.10089 -1.60483 0
M  V30 2672 O 261.821 -0.349127 -1.70666 0
M  V30 2673 C 258.953 -0.793045 -3.31547 0
M  V30 2674 H 260.146 -2.13622 -2.10489 0
M  V30 2675 H 257.699 -1.13935 -1.06998 0
M  V30 2676 H 258.434 0.172499 -3.23841 0
M  V30 2677 H 258.219 -1.56576 -3.5948 0
M  V30 2678 H 259.709 -0.722073 -4.1131 0
M  V30 2679 N 260.146 1.09593 -1.13257 0
M  V30 2680 C 261.093 2.1618 -0.808381 0
M  V30 2681 C 262.063 1.64517 0.228754 0
M  V30 2682 O 263.248 1.9053 0.101381 0
M  V30 2683 C 260.388 3.43973 -0.278675 0
M  V30 2684 C 259.501 4.09545 -1.37466 0
M  V30 2685 C 258.636 5.25088 -0.803479 0
M  V30 2686 C 257.675 5.82579 -1.87799 0
M  V30 2687 N 256.812 6.89486 -1.32488 0
M  V30 2688 H 261.652 2.43254 -1.72138 0
M  V30 2689 H 259.189 1.19392 -0.859294 0
M  V30 2690 H 261.147 4.17174 0.0465583 0
M  V30 2691 H 259.777 3.17223 0.597459 0
M  V30 2692 H 258.829 3.34226 -1.81652 0
M  V30 2693 H 260.141 4.48307 -2.18684 0
M  V30 2694 H 259.295 6.05178 -0.429427 0
M  V30 2695 H 258.034 4.87684 0.0397956 0
M  V30 2696 H 257.039 5.01152 -2.26113 0
M  V30 2697 H 258.264 6.22045 -2.72463 0
M  V30 2698 H 256.21 6.54064 -0.503575 0
M  V30 2699 H 256.127 7.27007 -2.07355 0
M  V30 2700 H 257.395 7.73336 -0.978336 0
M  V30 2701 N 261.624 0.925811 1.2754 0
M  V30 2702 C 262.534 0.428993 2.30644 0
M  V30 2703 C 263.55 -0.489387 1.66976 0
M  V30 2704 O 264.726 -0.372653 1.97922 0
M  V30 2705 C 261.791 -0.311967 3.45294 0
M  V30 2706 C 260.852 0.641098 4.24486 0
M  V30 2707 C 260.085 -0.0645955 5.33661 0
M  V30 2708 O 260.308 -1.28429 5.55754 0
M  V30 2709 O 259.242 0.606265 5.98839 0
M  V30 2710 H 263.068 1.28504 2.75173 0
M  V30 2711 H 260.653 0.691086 1.32455 0
M  V30 2712 H 262.535 -0.729972 4.15029 0
M  V30 2713 H 261.21 -1.14365 3.02824 0
M  V30 2714 H 260.117 1.10874 3.57292 0
M  V30 2715 H 261.45 1.43995 4.70666 0
M  V30 2716 N 263.102 -1.41638 0.69111 0
M  V30 2717 C 264.012 -2.34588 0.0233487 0
M  V30 2718 C 265.028 -1.55987 -0.770984 0
M  V30 2719 O 266.204 -1.88486 -0.709569 0
M  V30 2720 C 263.269 -3.34684 -0.904851 0
M  V30 2721 C 262.33 -4.29176 -0.103225 0
M  V30 2722 C 261.563 -5.2449 -0.987216 0
M  V30 2723 O 261.786 -5.2514 -2.22674 0
M  V30 2724 O 260.72 -6.00295 -0.439281 0
M  V30 2725 H 264.546 -2.93261 0.789416 0
M  V30 2726 H 262.131 -1.42417 0.45142 0
M  V30 2727 H 264.013 -3.96133 -1.43724 0
M  V30 2728 H 262.688 -2.78461 -1.65049 0
M  V30 2729 H 261.595 -3.71089 0.473655 0
M  V30 2730 H 262.928 -4.88484 0.60365 0
M  V30 2731 N 264.58 -0.43555 -1.51462 0
M  V30 2732 C 265.828 0.131254 -2.01673 0
M  V30 2733 C 266.149 1.43368 -1.32177 0
M  V30 2734 O 265.419 1.90524 -0.455769 0
M  V30 2735 H 263.999 0.0514954 -0.745223 0
M  V30 2736 H 266.661 -0.577847 -1.86137 0
M  V30 2737 H 265.757 0.308446 -3.10572 0
M  V30 2738 N 266.058 1.56714 -0.166846 0
M  V30 2739 C 267.305 1.96747 0.479252 0
M  V30 2740 C 267.633 1.05263 1.63554 0
M  V30 2741 O 266.888 0.0858098 1.95512 0
M  V30 2742 C 267.187 3.42889 1.00806 0
M  V30 2743 C 266.853 4.50889 -0.0318574 0
M  V30 2744 C 265.515 4.8015 -0.317675 0
M  V30 2745 C 267.867 5.15949 -0.737956 0
M  V30 2746 C 265.195 5.71772 -1.31506 0
M  V30 2747 C 267.547 6.08647 -1.72429 0
M  V30 2748 C 266.211 6.36277 -2.0176 0
M  V30 2749 H 265.481 0.719949 0.175371 0
M  V30 2750 H 268.128 1.89756 -0.257864 0
M  V30 2751 H 266.433 3.4681 1.82291 0
M  V30 2752 H 268.13 3.71203 1.51689 0
M  V30 2753 H 264.72 4.28128 0.201088 0
M  V30 2754 H 268.904 4.93458 -0.530351 0
M  V30 2755 H 264.16 5.91465 -1.54853 0
M  V30 2756 H 268.334 6.58129 -2.27682 0
M  V30 2757 H 265.961 7.07075 -2.79194 0
M  V30 2758 N 267.536 -0.106894 1.57237 0
M  V30 2759 C 268.947 -0.662723 1.74542 0
M  V30 2760 C 269.298 -1.7971 0.787319 0
M  V30 2761 O 268.423 -2.16368 -0.0369636 0
M  V30 2762 C 269.018 -1.20896 3.16496 0
M  V30 2763 C 267.577 -1.71096 3.35266 0
M  V30 2764 C 266.724 -0.615642 2.7038 0
M  V30 2765 H 269.675 0.119106 1.58252 0
M  V30 2766 H 269.696 -2.07847 3.18716 0
M  V30 2767 H 269.208 -0.383122 3.86204 0
M  V30 2768 H 267.309 -2.56119 2.70618 0
M  V30 2769 H 267.422 -1.81208 4.43509 0
M  V30 2770 H 265.786 -1.05222 2.31949 0
M  V30 2771 H 266.569 0.199419 3.4272 0
M  V30 2772 N 269.014 -1.53014 -0.377408 0
M  V30 2773 C 269.944 -1.81589 -1.46791 0
M  V30 2774 C 270.925 -0.668622 -1.56408 0
M  V30 2775 O 272.11 -0.917337 -1.71168 0
M  V30 2776 C 269.24 -1.99519 -2.8427 0
M  V30 2777 C 268.194 -3.15249 -2.89486 0
M  V30 2778 C 267.52 -3.18451 -4.29527 0
M  V30 2779 C 268.82 -4.54084 -2.58079 0
M  V30 2780 H 270.514 -2.7291 -1.23127 0
M  V30 2781 H 268.06 -1.31319 -0.590883 0
M  V30 2782 H 270.013 -2.18092 -3.60575 0
M  V30 2783 H 268.737 -1.04897 -3.09296 0
M  V30 2784 H 267.396 -2.96477 -2.15631 0
M  V30 2785 H 267.044 -2.2149 -4.5161 0
M  V30 2786 H 266.744 -3.962 -4.33934 0
M  V30 2787 H 268.268 -3.39193 -5.07721 0
M  V30 2788 H 269.682 -4.72899 -3.24098 0
M  V30 2789 H 268.079 -5.33987 -2.7382 0
M  V30 2790 H 269.149 -4.60006 -1.53372 0
M  V30 2791 N 270.492 0.636531 -1.44174 0
M  V30 2792 C 271.72 1.42353 -1.50144 0
M  V30 2793 C 272.135 1.88389 -0.124575 0
M  V30 2794 O 271.492 1.6051 0.868489 0
M  V30 2795 C 271.543 2.64744 -2.46156 0
M  V30 2796 O 271.264 2.20629 -3.7849 0
M  V30 2797 C 272.765 3.57929 -2.61537 0
M  V30 2798 H 269.985 0.436752 -0.5094 0
M  V30 2799 H 272.529 0.778933 -1.89084 0
M  V30 2800 H 270.684 3.25307 -2.10366 0
M  V30 2801 H 271.098 2.99938 -4.30276 0
M  V30 2802 H 272.572 4.40428 -3.32757 0
M  V30 2803 H 273.049 4.06382 -1.66585 0
M  V30 2804 H 273.655 3.03238 -2.98206 0
M  V30 2805 N 271.97 1.30982 0.876444 0
M  V30 2806 C 272.88 1.2003 2.01569 0
M  V30 2807 C 273.896 0.11838 1.73597 0
M  V30 2808 O 275.072 0.33495 1.98595 0
M  V30 2809 C 272.137 0.901637 3.34771 0
M  V30 2810 C 271.198 2.06979 3.76109 0
M  V30 2811 C 270.431 1.78529 5.02954 0
M  V30 2812 O 270.654 0.717296 5.65872 0
M  V30 2813 O 269.588 2.64019 5.40905 0
M  V30 2814 H 273.414 2.15753 2.13739 0
M  V30 2815 H 270.999 1.10658 1.00375 0
M  V30 2816 H 272.881 0.750645 4.1466 0
M  V30 2817 H 271.556 -0.0256141 3.2369 0
M  V30 2818 H 270.463 2.27616 2.96887 0
M  V30 2819 H 271.796 2.97907 3.91807 0
M  V30 2820 N 273.449 -1.08991 1.13837 0
M  V30 2821 C 274.697 -1.80899 0.901098 0
M  V30 2822 C 275.018 -1.86356 -0.574134 0
M  V30 2823 O 274.288 -1.35235 -1.41733 0
M  V30 2824 H 272.868 -0.669966 0.330386 0
M  V30 2825 H 275.53 -1.318 1.43578 0
M  V30 2826 H 274.626 -2.83929 1.29578 0
M  V30 2827 N 274.927 -0.932562 -1.27047 0
M  V30 2828 C 276.173 -0.576412 -1.94436 0
M  V30 2829 C 276.506 0.880891 -1.73072 0
M  V30 2830 O 275.781 1.62905 -1.06264 0
M  V30 2831 C 276.064 -0.909031 -3.48437 0
M  V30 2832 C 275.917 -2.42044 -3.79123 0
M  V30 2833 C 277.236 -0.418341 -4.38107 0
M  V30 2834 H 274.355 -0.210888 -0.706184 0
M  V30 2835 H 276.997 -1.16522 -1.50075 0
M  V30 2836 H 275.147 -0.407947 -3.86352 0
M  V30 2837 H 276.819 -2.99359 -3.50973 0
M  V30 2838 H 275.062 -2.86758 -3.25503 0
M  V30 2839 H 275.733 -2.6037 -4.86736 0
M  V30 2840 H 278.209 -0.847856 -4.0737 0
M  V30 2841 H 277.085 -0.679981 -5.44672 0
M  V30 2842 H 277.346 0.681642 -4.36814 0
M  V30 2843 N 276.405 1.4127 -0.698611 0
M  V30 2844 C 277.652 2.0118 -0.230865 0
M  V30 2845 C 277.98 1.55338 1.17049 0
M  V30 2846 O 277.235 0.756775 1.80475 0
M  V30 2847 C 277.534 3.56592 -0.240192 0
M  V30 2848 C 277.2 4.21955 -1.58948 0
M  V30 2849 C 275.862 4.39524 -1.95887 0
M  V30 2850 C 278.214 4.58576 -2.47704 0
M  V30 2851 C 275.542 4.90992 -3.2116 0
M  V30 2852 C 277.894 5.11435 -3.72313 0
M  V30 2853 C 276.558 5.27215 -4.0939 0
M  V30 2854 H 275.828 0.736169 -0.0844796 0
M  V30 2855 H 278.475 1.69124 -0.8983 0
M  V30 2856 H 276.78 3.88456 0.510797 0
M  V30 2857 H 278.477 4.00758 0.139296 0
M  V30 2858 H 275.067 4.08657 -1.29219 0
M  V30 2859 H 279.251 4.44654 -2.20445 0
M  V30 2860 H 274.507 5.01393 -3.49878 0
M  V30 2861 H 278.681 5.38752 -4.4127 0
M  V30 2862 H 276.308 5.66859 -5.06533 0
M  V30 2863 N 277.883 0.443576 1.51229 0
M  V30 2864 C 279.129 -0.120975 2.02439 0
M  V30 2865 C 279.462 -1.41815 1.32674 0
M  V30 2866 O 278.737 -1.89373 0.443622 0
M  V30 2867 C 279.02 -0.333291 3.58554 0
M  V30 2868 C 278.873 0.982968 4.38928 0
M  V30 2869 C 280.192 -1.10028 4.26124 0
M  V30 2870 H 277.311 -0.0424923 0.735774 0
M  V30 2871 H 279.953 0.583794 1.80809 0
M  V30 2872 H 278.103 -0.933614 3.77115 0
M  V30 2873 H 279.775 1.61775 4.32003 0
M  V30 2874 H 278.018 1.58611 4.03763 0
M  V30 2875 H 278.689 0.788379 5.46341 0
M  V30 2876 H 281.165 -0.591711 4.11871 0
M  V30 2877 H 280.041 -1.21761 5.35225 0
M  V30 2878 H 280.302 -2.12996 3.87408 0
M  V30 2879 N 279.361 -1.56624 0.175154 0
M  V30 2880 C 280.586 -2.01813 -0.478137 0
M  V30 2881 C 281.011 -1.05457 -1.55757 0
M  V30 2882 O 280.369 -0.0347439 -1.81267 0
M  V30 2883 C 280.417 -3.45581 -1.02987 0
M  V30 2884 O 279.521 -3.52305 -2.14371 0
M  V30 2885 H 278.862 -0.65413 -0.114059 0
M  V30 2886 H 281.392 -2.02673 0.280173 0
M  V30 2887 H 281.402 -3.84965 -1.35151 0
M  V30 2888 H 280.077 -4.1521 -0.239556 0
M  V30 2889 H 278.654 -3.24783 -1.83222 0
M  V30 2890 N 280.839 0.0985539 -1.57292 0
M  V30 2891 C 282.069 0.815135 -1.8984 0
M  V30 2892 C 282.477 1.7297 -0.766679 0
M  V30 2893 O 281.82 1.81698 0.270483 0
M  V30 2894 C 281.882 1.6842 -3.17608 0
M  V30 2895 C 281.546 0.94182 -4.4719 0
M  V30 2896 C 282.543 0.273212 -5.19182 0
M  V30 2897 C 280.228 0.916927 -4.9386 0
M  V30 2898 C 282.222 -0.410361 -6.36078 0
M  V30 2899 C 279.909 0.229567 -6.10669 0
M  V30 2900 C 280.907 -0.432902 -6.81627 0
M  V30 2901 O 280.595 -1.10925 -7.9621 0
M  V30 2902 H 280.327 0.238501 -0.632529 0
M  V30 2903 H 282.881 0.0812659 -2.05239 0
M  V30 2904 H 281.111 2.46022 -2.98345 0
M  V30 2905 H 282.8 2.27704 -3.36015 0
M  V30 2906 H 283.566 0.283927 -4.84168 0
M  V30 2907 H 279.445 1.42201 -4.3852 0
M  V30 2908 H 282.989 -0.928013 -6.914 0
M  V30 2909 H 278.886 0.216686 -6.45136 0
M  V30 2910 H 279.654 -1.01579 -8.12172 0
M  V30 2911 N 282.317 1.53212 0.369288 0
M  V30 2912 C 283.728 1.60943 0.946276 0
M  V30 2913 C 284.079 0.47452 1.90375 0
M  V30 2914 O 283.204 -0.399597 2.12679 0
M  V30 2915 C 283.799 2.91715 1.72302 0
M  V30 2916 C 282.358 3.01792 2.24941 0
M  V30 2917 C 281.505 2.56211 1.06072 0
M  V30 2918 H 284.456 1.58007 0.148198 0
M  V30 2919 H 284.477 2.79309 2.58393 0
M  V30 2920 H 283.989 3.74295 1.0259 0
M  V30 2921 H 282.09 2.23791 2.97906 0
M  V30 2922 H 282.203 4.06803 2.53077 0
M  V30 2923 H 280.567 2.10998 1.4266 0
M  V30 2924 H 281.35 3.41206 0.378639 0
M  V30 2925 N 283.795 -0.628877 1.44509 0
M  V30 2926 C 285.043 -1.38565 1.4712 0
M  V30 2927 C 285.364 -1.94712 0.105899 0
M  V30 2928 O 284.634 -1.75912 -0.862079 0
M  V30 2929 H 283.214 -0.514333 0.541729 0
M  V30 2930 H 285.876 -0.740018 1.80305 0
M  V30 2931 H 284.972 -2.21583 2.19789 0
M  V30 2932 N 285.273 -1.31445 -0.869486 0
M  V30 2933 C 286.684 -1.19042 -1.43826 0
M  V30 2934 C 287.035 0.202919 -1.95148 0
M  V30 2935 O 286.16 1.10071 -1.86315 0
M  V30 2936 C 286.755 -2.15499 -2.6143 0
M  V30 2937 C 285.314 -2.07028 -3.14351 0
M  V30 2938 C 284.461 -2.04701 -1.87063 0
M  V30 2939 H 287.412 -1.43489 -0.677984 0
M  V30 2940 H 287.433 -1.74488 -3.38134 0
M  V30 2941 H 286.945 -3.16899 -2.24046 0
M  V30 2942 H 285.046 -1.08825 -3.56354 0
M  V30 2943 H 285.159 -2.96157 -3.766 0
M  V30 2944 H 283.523 -1.49724 -2.06046 0
M  V30 2945 H 284.306 -3.07857 -1.51917 0
M  V30 2946 N 286.751 1.08385 -1.14413 0
M  V30 2947 C 287.699 2.17406 -0.826888 0
M  V30 2948 C 288.693 1.6827 0.195312 0
M  V30 2949 O 289.899 1.79927 0.0513892 0
M  V30 2950 H 286.274 0.70934 -0.249681 0
M  V30 2951 H 288.245 2.41388 -1.75426 0
M  V30 2952 C 286.994 3.46215 -0.320979 0
M  V30 2953 H 286.317 3.84401 -1.0989 0
M  V30 2954 H 287.757 4.23777 -0.137549 0
M  V30 2955 C 286.216 3.23067 0.955472 0
M  V30 2956 O 286.746 3.4668 2.02918 0
M  V30 2957 N 284.952 2.7661 0.890798 0
M  V30 2958 H 284.499 2.57594 0.0168815 0
M  V30 2959 H 284.457 2.61501 1.74542 0
M  V30 2960 N 288.23 0.939286 1.26551 0
M  V30 2961 C 289.477 0.585847 1.9384 0
M  V30 2962 C 289.805 -0.874784 1.73718 0
M  V30 2963 O 289.06 -1.64092 1.06642 0
M  V30 2964 C 289.359 0.872106 3.46596 0
M  V30 2965 C 289.025 2.31632 3.86856 0
M  V30 2966 C 287.687 2.71111 3.97558 0
M  V30 2967 C 290.039 3.25494 4.07066 0
M  V30 2968 C 287.367 4.03553 4.25866 0
M  V30 2969 C 289.719 4.57531 4.36862 0
M  V30 2970 C 288.383 4.96828 4.45778 0
M  V30 2971 H 287.653 0.214377 0.709312 0
M  V30 2972 H 290.3 1.18544 1.50398 0
M  V30 2973 H 288.605 0.18996 3.91339 0
M  V30 2974 H 290.302 0.577442 3.96821 0
M  V30 2975 H 286.892 2.00008 3.79071 0
M  V30 2976 H 291.076 2.9619 3.98227 0
M  V30 2977 H 286.332 4.33665 4.30981 0
M  V30 2978 H 290.506 5.30254 4.51446 0
M  V30 2979 H 288.133 5.99482 4.67468 0
M  V30 2980 N 289.708 -1.40897 0.706093 0
M  V30 2981 C 290.618 -2.3455 0.0482286 0
M  V30 2982 C 291.634 -1.56796 -0.754396 0
M  V30 2983 O 292.81 -1.89228 -0.689538 0
M  V30 2984 C 289.875 -3.35625 -0.869303 0
M  V30 2985 C 288.936 -4.29261 -0.0576994 0
M  V30 2986 C 288.169 -5.25508 -0.931531 0
M  V30 2987 O 288.392 -5.27472 -2.17092 0
M  V30 2988 O 287.326 -6.00727 -0.375587 0
M  V30 2989 H 291.152 -2.92407 0.820476 0
M  V30 2990 H 288.737 -1.4193 0.4665 0
M  V30 2991 H 290.619 -3.97635 -1.39514 0
M  V30 2992 H 289.294 -2.80196 -1.62086 0
M  V30 2993 H 288.201 -3.70566 0.512988 0
M  V30 2994 H 289.534 -4.87817 0.655426 0
M  V30 2995 N 291.186 -0.45159 -1.50991 0
M  V30 2996 C 292.414 0.108334 -2.06616 0
M  V30 2997 C 292.829 1.35224 -1.31757 0
M  V30 2998 O 292.186 1.78475 -0.381174 0
M  V30 2999 C 292.237 0.41619 -3.59096 0
M  V30 3000 O 291.958 -0.778361 -4.3113 0
M  V30 3001 C 293.459 1.02523 -4.31282 0
M  V30 3002 H 290.679 0.00159995 -0.670998 0
M  V30 3003 H 293.223 -0.634771 -1.94399 0
M  V30 3004 H 291.378 1.10921 -3.71181 0
M  V30 3005 H 291.792 -0.511181 -5.22003 0
M  V30 3006 H 293.266 1.19053 -5.39009 0
M  V30 3007 H 293.743 2.01013 -3.905 0
M  V30 3008 H 294.349 0.371173 -4.23677 0
M  V30 3009 N 292.664 1.56529 -0.183458 0
M  V30 3010 C 293.627 2.17324 0.728223 0
M  V30 3011 C 294.627 1.12453 1.14939 0
M  V30 3012 O 295.817 1.37902 1.06437 0
M  V30 3013 C 292.949 2.76591 1.99274 0
M  V30 3014 H 294.142 2.99241 0.198772 0
M  V30 3015 H 291.695 1.5616 0.0661391 0
M  V30 3016 H 292.43 1.98441 2.56499 0
M  V30 3017 H 292.215 3.5335 1.69959 0
M  V30 3018 H 293.705 3.23311 2.6431 0
M  V30 3019 N 294.142 -0.090211 1.57342 0
M  V30 3020 C 295.105 -1.09335 2.01441 0
M  V30 3021 C 296.105 -1.32666 0.908641 0
M  V30 3022 O 297.295 -1.28697 1.174 0
M  V30 3023 C 294.427 -2.44136 2.3793 0
M  V30 3024 H 295.62 -0.713662 2.91285 0
M  V30 3025 H 293.173 -0.335404 1.52659 0
M  V30 3026 H 293.908 -2.86972 1.51055 0
M  V30 3027 H 293.693 -2.28548 3.18603 0
M  V30 3028 H 295.183 -3.16277 2.72688 0
M  V30 3029 N 295.62 -1.53406 -0.361157 0
M  V30 3030 C 296.53 -1.83122 -1.4664 0
M  V30 3031 C 297.546 -0.719943 -1.58407 0
M  V30 3032 O 298.722 -1.01046 -1.74218 0
M  V30 3033 C 295.787 -2.01891 -2.81853 0
M  V30 3034 C 294.848 -3.25784 -2.79577 0
M  V30 3035 C 294.081 -3.43648 -4.0834 0
M  V30 3036 O 294.304 -2.65714 -5.0473 0
M  V30 3037 O 293.238 -4.37018 -4.13883 0
M  V30 3038 H 297.064 -2.7703 -1.24451 0
M  V30 3039 H 294.649 -1.38841 -0.551678 0
M  V30 3040 H 296.531 -2.15782 -3.61962 0
M  V30 3041 H 295.206 -1.11173 -3.0401 0
M  V30 3042 H 294.113 -3.17312 -1.98151 0
M  V30 3043 H 295.446 -4.16439 -2.62373 0
M  V30 3044 N 297.098 0.621204 -1.44841 0
M  V30 3045 C 298.347 1.37658 -1.47422 0
M  V30 3046 C 298.66 1.95264 -0.114629 0
M  V30 3047 O 299.866 2.71494 -0.0180199 0
M  V30 3048 C 298.322 2.49285 -2.59586 0
M  V30 3049 C 297.93 1.98149 -4.01797 0
M  V30 3050 C 299.674 3.26409 -2.71399 0
M  V30 3051 C 297.581 3.07178 -5.05367 0
M  V30 3052 H 296.511 0.517344 -0.548517 0
M  V30 3053 H 299.162 0.667257 -1.70938 0
M  V30 3054 H 297.544 3.22839 -2.29328 0
M  V30 3055 H 298.718 1.31395 -4.41669 0
M  V30 3056 H 297.033 1.33812 -3.94314 0
M  V30 3057 H 299.63 4.07706 -3.45948 0
M  V30 3058 H 299.973 3.76535 -1.77559 0
M  V30 3059 H 300.506 2.5995 -3.01116 0
M  V30 3060 H 297.245 2.61985 -6.00869 0
M  V30 3061 H 296.765 3.72542 -4.70077 0
M  V30 3062 H 298.444 3.71789 -5.29511 0
M  V30 3063 N 298.576 1.31904 0.862503 0
M  V30 3064 C 299.992 1.10724 1.14945 0
M  V30 3065 C 300.192 -0.117421 2.01158 0
M  V30 3066 O 299.248 -0.804595 2.39338 0
M  V30 3067 C 300.561 2.38267 1.83437 0
M  V30 3068 C 302.109 2.43949 1.96106 0
M  V30 3069 C 302.584 3.71394 2.68013 0
M  V30 3070 N 304.075 3.72331 2.75543 0
M  V30 3071 C 304.81 4.67641 3.31812 0
M  V30 3072 N 304.306 5.73313 3.88953 0
M  V30 3073 N 306.099 4.5515 3.29841 0
M  V30 3074 H 298.25 2.10436 0.288191 0
M  V30 3075 H 300.513 0.928705 0.190292 0
M  V30 3076 H 300.219 3.27759 1.27542 0
M  V30 3077 H 300.093 2.48633 2.83657 0
M  V30 3078 H 302.48 1.54922 2.51164 0
M  V30 3079 H 302.561 2.37543 0.949059 0
M  V30 3080 H 302.205 4.60791 2.13621 0
M  V30 3081 H 302.135 3.75069 3.69636 0
M  V30 3082 H 304.626 2.95947 2.34997 0
M  V30 3083 H 304.939 6.42107 4.30022 0
M  V30 3084 H 303.284 5.77077 3.87308 0
M  V30 3085 H 306.475 3.71766 2.84443 0
M  V30 3086 H 306.648 5.29604 3.73394 0
M  V30 3087 N 300.054 -1.07777 1.14986 0
M  V30 3088 C 300.987 -2.14228 0.786243 0
M  V30 3089 C 301.965 -1.60888 -0.235347 0
M  V30 3090 O 303.149 -1.88099 -0.122909 0
M  V30 3091 C 300.276 -3.38281 0.168433 0
M  V30 3092 C 299.322 -4.10387 1.16123 0
M  V30 3093 S 300.155 -4.62371 2.70135 0
M  V30 3094 C 301.311 -5.89704 2.09762 0
M  V30 3095 H 301.544 -2.44741 1.68787 0
M  V30 3096 H 299.077 -1.19984 0.971756 0
M  V30 3097 H 301.035 -4.10098 -0.181588 0
M  V30 3098 H 299.696 -3.05953 -0.710725 0
M  V30 3099 H 298.889 -4.99431 0.677086 0
M  V30 3100 H 298.491 -3.44513 1.45556 0
M  V30 3101 H 300.783 -6.61648 1.45701 0
M  V30 3102 H 301.726 -6.42824 2.96955 0
M  V30 3103 H 302.134 -5.4302 1.54239 0
M  V30 3104 N 301.532 -0.945985 -1.26051 0
M  V30 3105 C 302.465 -0.403619 -2.24602 0
M  V30 3106 C 303.443 0.510241 -1.54387 0
M  V30 3107 O 304.627 0.446593 -1.83133 0
M  V30 3108 C 301.754 0.419564 -3.36091 0
M  V30 3109 C 300.8 -0.433454 -4.24292 0
M  V30 3110 S 301.633 -1.86037 -5.02146 0
M  V30 3111 C 302.789 -1.04538 -6.17108 0
M  V30 3112 H 303.022 -1.23883 -2.7026 0
M  V30 3113 H 300.555 -0.749438 -1.34992 0
M  V30 3114 H 302.513 0.888595 -4.00767 0
M  V30 3115 H 301.174 1.22951 -2.89036 0
M  V30 3116 H 300.367 0.197486 -5.03613 0
M  V30 3117 H 299.969 -0.837357 -3.64506 0
M  V30 3118 H 302.261 -0.289923 -6.76879 0
M  V30 3119 H 303.204 -1.81222 -6.84518 0
M  V30 3120 H 303.612 -0.579319 -5.61519 0
M  V30 3121 N 303.011 1.40521 -0.713556 0
M  V30 3122 C 303.943 2.29191 -0.0203126 0
M  V30 3123 C 304.956 1.45723 0.725864 0
M  V30 3124 O 306.145 1.69033 0.573581 0
M  V30 3125 C 303.245 3.2395 0.995486 0
M  V30 3126 C 302.418 4.36262 0.315256 0
M  V30 3127 C 301.477 5.11474 1.23616 0
M  V30 3128 O 300.503 5.64606 0.721719 0
M  V30 3129 N 301.705 5.20638 2.56743 0
M  V30 3130 H 304.47 2.89327 -0.781652 0
M  V30 3131 H 302.031 1.51869 -0.561022 0
M  V30 3132 H 304.023 3.71137 1.61368 0
M  V30 3133 H 302.593 2.64995 1.6582 0
M  V30 3134 H 301.813 3.91228 -0.483106 0
M  V30 3135 H 303.101 5.08558 -0.157004 0
M  V30 3136 H 302.499 4.7895 3.01037 0
M  V30 3137 H 301.056 5.71339 3.13712 0
M  V30 3138 N 304.489 0.459591 1.5075 0
M  V30 3139 C 305.738 -0.100971 2.01447 0
M  V30 3140 C 306.051 -1.41816 1.34713 0
M  V30 3141 O 307.257 -2.06299 1.76502 0
M  V30 3142 C 305.713 -0.23047 3.59161 0
M  V30 3143 C 305.321 1.0776 4.34847 0
M  V30 3144 C 307.065 -0.743608 4.17936 0
M  V30 3145 C 304.972 0.91253 5.84317 0
M  V30 3146 H 303.902 -0.0415102 0.752856 0
M  V30 3147 H 306.553 0.592742 1.73663 0
M  V30 3148 H 304.935 -0.987703 3.83485 0
M  V30 3149 H 306.109 1.8449 4.22256 0
M  V30 3150 H 304.424 1.52097 3.87628 0
M  V30 3151 H 307.021 -0.883959 5.27343 0
M  V30 3152 H 307.364 -1.73196 3.78562 0
M  V30 3153 H 307.897 -0.04408 3.97776 0
M  V30 3154 H 304.636 1.87391 6.28144 0
M  V30 3155 H 304.156 0.185422 5.99513 0
M  V30 3156 H 305.835 0.574547 6.44444 0
M  V30 3157 N 305.967 -1.56429 0.191757 0
M  V30 3158 C 307.216 -1.9666 -0.448088 0
M  V30 3159 C 307.529 -1.08136 -1.62991 0
M  V30 3160 O 308.735 -1.38135 -2.33733 0
M  V30 3161 C 307.191 -3.49753 -0.848585 0
M  V30 3162 C 306.799 -4.46935 0.308764 0
M  V30 3163 C 308.543 -3.9876 -1.4557 0
M  V30 3164 C 306.45 -5.91293 -0.112506 0
M  V30 3165 H 305.38 -0.734312 -0.171179 0
M  V30 3166 H 308.031 -1.81301 0.283242 0
M  V30 3167 H 306.413 -3.60604 -1.63649 0
M  V30 3168 H 307.587 -4.47813 1.08627 0
M  V30 3169 H 305.902 -4.08102 0.827158 0
M  V30 3170 H 308.499 -5.04086 -1.78328 0
M  V30 3171 H 308.842 -3.42875 -2.36099 0
M  V30 3172 H 309.375 -3.9101 -0.731836 0
M  V30 3173 H 306.114 -6.51097 0.758514 0
M  V30 3174 H 305.634 -5.93676 -0.854941 0
M  V30 3175 H 307.313 -6.44663 -0.549448 0
M  V30 3176 N 307.445 0.0818655 -1.57387 0
M  V30 3177 C 308.693 0.781368 -1.86384 0
M  V30 3178 C 309.014 1.78618 -0.782342 0
M  V30 3179 O 308.284 1.94976 0.190061 0
M  V30 3180 H 306.864 0.291562 -0.687751 0
M  V30 3181 H 309.526 0.060348 -1.94807 0
M  V30 3182 H 308.622 1.3038 -2.83562 0
M  V30 3183 N 308.923 1.53595 0.353017 0
M  V30 3184 C 310.171 1.70049 1.09215 0
M  V30 3185 C 310.492 0.461406 1.89463 0
M  V30 3186 O 309.762 -0.524633 1.88744 0
M  V30 3187 H 308.342 0.626912 0.40619 0
M  V30 3188 H 311.004 1.90822 0.396585 0
M  V30 3189 H 310.1 2.56718 1.77488 0
M  V30 3190 N 310.401 -0.613514 1.45168 0
M  V30 3191 C 311.678 -1.37263 1.39349 0
M  V30 3192 C 312.058 -2.11012 0.0610848 0
M  V30 3193 O 311.406 -2.07502 -0.956825 0
M  V30 3194 C 311.616 -2.3244 2.60332 0
M  V30 3195 C 312.964 -2.9523 3.05163 0
M  V30 3196 O 313.988 -2.42762 2.60663 0
M  V30 3197 O 312.847 -3.90454 3.82372 0
M  V30 3198 H 309.941 -0.615188 0.552696 0
M  V30 3199 H 312.487 -0.637097 1.57287 0
M  V30 3200 H 311.259 -1.77164 3.48896 0
M  V30 3201 H 310.882 -3.13383 2.44698 0
M  V30 3202 N 311.879 -1.3236 -0.855495 0
M  V30 3203 C 313.125 -1.23054 -1.612 0
M  V30 3204 C 313.458 0.207404 -1.93089 0
M  V30 3205 O 312.733 1.14432 -1.57275 0
M  V30 3206 C 313.016 -2.08937 -2.93287 0
M  V30 3207 C 312.869 -3.61105 -2.68185 0
M  V30 3208 C 314.188 -1.94986 -3.94549 0
M  V30 3209 H 311.307 -0.448364 -0.584926 0
M  V30 3210 H 313.949 -1.62297 -0.987917 0
M  V30 3211 H 312.099 -1.75599 -3.46551 0
M  V30 3212 H 313.771 -4.04652 -2.21483 0
M  V30 3213 H 312.014 -3.83813 -2.02164 0
M  V30 3214 H 312.685 -4.16522 -3.62234 0
M  V30 3215 H 315.161 -2.24189 -3.5054 0
M  V30 3216 H 314.037 -2.57356 -4.84829 0
M  V30 3217 H 314.298 -0.917263 -4.3248 0
M  V30 3218 N 313.357 1.07166 -1.15556 0
M  V30 3219 C 314.603 1.80065 -0.932984 0
M  V30 3220 C 314.936 1.86586 0.53845 0
M  V30 3221 O 314.211 1.35098 1.39924 0
M  V30 3222 C 314.494 3.25022 -1.55025 0
M  V30 3223 C 314.347 3.26634 -3.09242 0
M  V30 3224 C 315.666 4.22341 -1.2376 0
M  V30 3225 H 312.785 0.653697 -0.340366 0
M  V30 3226 H 315.427 1.25389 -1.4275 0
M  V30 3227 H 313.577 3.71712 -1.12972 0
M  V30 3228 H 315.249 2.88173 -3.60214 0
M  V30 3229 H 313.492 2.65539 -3.43033 0
M  V30 3230 H 314.163 4.28854 -3.47546 0
M  V30 3231 H 316.639 3.8405 -1.60139 0
M  V30 3232 H 315.515 5.22053 -1.69564 0
M  V30 3233 H 315.776 4.41828 -0.154938 0
M  V30 3234 N 314.835 0.952656 1.25548 0
M  V30 3235 C 316.083 0.605176 1.92826 0
M  V30 3236 C 316.404 -0.860261 1.74999 0
M  V30 3237 O 315.674 -1.6125 1.11244 0
M  V30 3238 H 314.254 0.220832 0.713612 0
M  V30 3239 H 316.916 1.21047 1.52754 0
M  V30 3240 H 316.012 0.832798 3.00784 0
M  V30 3241 N 316.313 -1.40141 0.720998 0
M  V30 3242 C 317.246 -2.2819 0.020916 0
M  V30 3243 C 318.224 -1.43633 -0.762129 0
M  V30 3244 O 319.408 -1.7304 -0.747633 0
M  V30 3245 C 316.535 -3.24281 -0.977715 0
M  V30 3246 C 315.581 -4.25548 -0.284836 0
M  V30 3247 S 316.414 -5.26247 0.991169 0
M  V30 3248 C 317.57 -6.259 -0.0052214 0
M  V30 3249 H 317.803 -2.87218 0.767649 0
M  V30 3250 H 315.336 -1.45656 0.512233 0
M  V30 3251 H 317.294 -3.80167 -1.54865 0
M  V30 3252 H 315.955 -2.643 -1.69719 0
M  V30 3253 H 315.148 -4.93154 -1.03996 0
M  V30 3254 H 314.75 -3.73389 0.213684 0
M  V30 3255 H 317.042 -6.72143 -0.850279 0
M  V30 3256 H 317.985 -7.05224 0.637599 0
M  V30 3257 H 318.393 -5.63277 -0.371366 0
M  V30 3258 N 317.792 -0.46758 -1.50504 0
M  V30 3259 C 319.017 0.0886943 -2.0721 0
M  V30 3260 C 319.442 1.33057 -1.32956 0
M  V30 3261 O 318.8 1.77354 -0.376197 0
M  V30 3262 C 318.848 0.359202 -3.58806 0
M  V30 3263 O 317.952 1.44034 -3.8643 0
M  V30 3264 H 317.293 -0.0114349 -0.663902 0
M  V30 3265 H 319.823 -0.657613 -1.93744 0
M  V30 3266 H 319.833 0.600742 -4.03553 0
M  V30 3267 H 318.508 -0.548311 -4.1227 0
M  V30 3268 H 317.085 1.18638 -3.53524 0
M  V30 3269 N 319.27 1.56325 -0.20005 0
M  V30 3270 C 320.516 1.98012 0.438059 0
M  V30 3271 C 320.849 1.08702 1.60927 0
M  V30 3272 O 320.124 0.140064 1.93995 0
M  V30 3273 C 320.407 3.48841 0.893419 0
M  V30 3274 C 320.26 4.48928 -0.279947 0
M  V30 3275 C 321.579 4.03498 1.75719 0
M  V30 3276 H 318.698 0.719918 0.157757 0
M  V30 3277 H 321.34 1.87743 -0.291968 0
M  V30 3278 H 319.49 3.57723 1.51547 0
M  V30 3279 H 321.162 4.52079 -0.91772 0
M  V30 3280 H 319.405 4.23694 -0.930919 0
M  V30 3281 H 320.076 5.5194 0.0812601 0
M  V30 3282 H 322.552 3.97427 1.23253 0
M  V30 3283 H 321.428 5.09393 2.04476 0
M  V30 3284 H 321.689 3.4906 2.71311 0
M  V30 3285 N 320.748 -0.0735177 1.57428 0
M  V30 3286 C 321.994 -0.774145 1.87443 0
M  V30 3287 C 322.327 -1.77311 0.792103 0
M  V30 3288 O 321.602 -1.93492 -0.197793 0
M  V30 3289 C 321.885 -1.48367 3.28115 0
M  V30 3290 C 321.738 -0.501227 4.46999 0
M  V30 3291 C 323.057 -2.429 3.66998 0
M  V30 3292 H 320.176 -0.279971 0.681752 0
M  V30 3293 H 322.818 -0.0373616 1.89963 0
M  V30 3294 H 320.968 -2.11171 3.26097 0
M  V30 3295 H 322.64 0.121468 4.6114 0
M  V30 3296 H 320.883 0.183593 4.33411 0
M  V30 3297 H 321.554 -1.03526 5.42205 0
M  V30 3298 H 324.03 -1.90175 3.70098 0
M  V30 3299 H 322.906 -2.89549 4.66318 0
M  V30 3300 H 323.167 -3.27628 2.96837 0
M  V30 3301 N 322.226 -1.5378 -0.344866 0
M  V30 3302 C 323.637 -1.62428 -0.920552 0
M  V30 3303 C 323.988 -0.504747 -1.89596 0
M  V30 3304 O 323.113 0.365711 -2.13287 0
M  V30 3305 C 323.708 -2.94419 -1.67639 0
M  V30 3306 C 322.267 -3.05333 -2.20111 0
M  V30 3307 C 321.414 -2.57866 -1.01982 0
M  V30 3308 H 324.365 -1.58222 -0.123042 0
M  V30 3309 H 324.386 -2.83384 -2.53917 0
M  V30 3310 H 323.898 -3.7588 -0.966224 0
M  V30 3311 H 321.999 -2.28502 -2.94308 0
M  V30 3312 H 322.112 -4.10778 -2.46573 0
M  V30 3313 H 320.476 -2.13241 -1.39285 0
M  V30 3314 H 321.259 -3.41765 -0.324308 0
M  V30 3315 N 323.704 0.605807 -1.45491 0
M  V30 3316 C 324.614 1.74466 -1.56839 0
M  V30 3317 C 325.63 1.68006 -0.452772 0
M  V30 3318 O 326.806 1.8833 -0.713708 0
M  V30 3319 C 323.871 3.10931 -1.53371 0
M  V30 3320 C 322.932 3.28832 -2.75986 0
M  V30 3321 C 322.165 4.58787 -2.72673 0
M  V30 3322 O 322.388 5.4122 -1.80102 0
M  V30 3323 O 321.322 4.79438 -3.63899 0
M  V30 3324 H 325.148 1.67843 -2.53106 0
M  V30 3325 H 322.733 0.770108 -1.28022 0
M  V30 3326 H 324.615 3.92233 -1.54051 0
M  V30 3327 H 323.29 3.18042 -0.602572 0
M  V30 3328 H 322.197 2.47112 -2.80867 0
M  V30 3329 H 323.53 3.26599 -3.68231 0
M  V30 3330 N 325.182 1.32811 0.848464 0
M  V30 3331 C 326.428 1.23907 1.60546 0
M  V30 3332 C 326.761 -0.197161 1.93197 0
M  V30 3333 O 326.036 -1.13596 1.5788 0
M  V30 3334 C 326.319 2.10489 2.92175 0
M  V30 3335 C 326.172 3.62522 2.66266 0
M  V30 3336 C 327.491 1.97075 3.93509 0
M  V30 3337 H 324.61 0.451459 0.58254 0
M  V30 3338 H 327.252 1.62818 0.979296 0
M  V30 3339 H 325.402 1.77434 3.45614 0
M  V30 3340 H 327.074 4.05821 2.19334 0
M  V30 3341 H 325.317 3.84879 2.00126 0
M  V30 3342 H 325.988 4.18437 3.6002 0
M  V30 3343 H 328.464 2.26045 3.49346 0
M  V30 3344 H 327.34 2.59923 4.83457 0
M  V30 3345 H 327.601 0.940186 4.31987 0
M  V30 3346 N 326.66 -1.06551 1.16123 0
M  V30 3347 C 327.909 -1.78687 0.935622 0
M  V30 3348 C 328.222 -1.88056 -0.538001 0
M  V30 3349 O 329.428 -2.56794 -0.88143 0
M  V30 3350 C 327.884 -3.21143 1.62466 0
M  V30 3351 C 327.492 -3.19949 3.13587 0
M  V30 3352 C 329.236 -3.9783 1.48092 0
M  V30 3353 C 327.143 -4.57108 3.75241 0
M  V30 3354 H 326.073 -0.669712 0.346412 0
M  V30 3355 H 328.724 -1.19534 1.39226 0
M  V30 3356 H 327.106 -3.80539 1.09572 0
M  V30 3357 H 328.28 -2.70151 3.73303 0
M  V30 3358 H 326.595 -2.5676 3.27816 0
M  V30 3359 H 329.192 -4.99217 1.91538 0
M  V30 3360 H 329.535 -4.14078 0.429507 0
M  V30 3361 H 330.068 -3.4495 1.98127 0
M  V30 3362 H 326.807 -4.46065 4.80319 0
M  V30 3363 H 326.327 -5.07111 3.20309 0
M  V30 3364 H 328.006 -5.26069 3.76644 0
M  V30 3365 N 328.138 -0.959301 -1.25041 0
M  V30 3366 C 329.363 -0.633507 -1.97488 0
M  V30 3367 C 329.788 0.788555 -1.70773 0
M  V30 3368 O 329.146 1.53394 -0.966431 0
M  V30 3369 C 329.194 -0.904057 -3.49083 0
M  V30 3370 O 328.298 0.0147939 -4.12397 0
M  V30 3371 H 327.639 -0.240368 -0.618966 0
M  V30 3372 H 330.169 -1.28717 -1.59038 0
M  V30 3373 H 330.179 -0.832203 -3.99423 0
M  V30 3374 H 328.854 -1.94048 -3.67856 0
M  V30 3375 H 327.431 -0.109664 -3.72739 0
M  V30 3376 N 329.616 1.39756 -0.72842 0
M  V30 3377 C 330.579 2.29012 -0.0927297 0
M  V30 3378 C 331.579 1.45992 0.674025 0
M  V30 3379 O 332.769 1.66749 0.50402 0
M  V30 3380 C 329.901 3.29396 0.878137 0
M  V30 3381 H 331.094 2.86729 -0.879011 0
M  V30 3382 H 328.647 1.48293 -0.493847 0
M  V30 3383 H 329.382 2.76722 1.69101 0
M  V30 3384 H 329.167 3.907 0.331051 0
M  V30 3385 H 330.657 3.96199 1.3197 0
M  V30 3386 N 331.094 0.475555 1.50254 0
M  V30 3387 C 332.51 0.12997 1.5907 0
M  V30 3388 C 332.71 -1.36385 1.48328 0
M  V30 3389 O 331.766 -2.13754 1.34407 0
M  V30 3390 C 333.079 0.684139 2.92814 0
M  V30 3391 C 334.627 0.647965 3.0622 0
M  V30 3392 C 335.102 1.17975 4.42545 0
M  V30 3393 N 336.593 1.13936 4.48969 0
M  V30 3394 C 337.328 1.52129 5.52851 0
M  V30 3395 N 336.824 1.97793 6.63965 0
M  V30 3396 N 338.617 1.43704 5.4342 0
M  V30 3397 H 330.768 1.44706 1.55479 0
M  V30 3398 H 333.031 0.598691 0.735033 0
M  V30 3399 H 332.737 1.73079 3.06164 0
M  V30 3400 H 332.611 0.130204 3.76975 0
M  V30 3401 H 334.998 -0.38979 2.92514 0
M  V30 3402 H 335.079 1.23876 2.23805 0
M  V30 3403 H 334.723 2.21616 4.57 0
M  V30 3404 H 334.653 0.565138 5.23559 0
M  V30 3405 H 337.144 0.804488 3.69238 0
M  V30 3406 H 337.457 2.25072 7.39299 0
M  V30 3407 H 335.802 2.01749 6.65073 0
M  V30 3408 H 338.993 1.07867 4.55502 0
M  V30 3409 H 339.166 1.73794 6.24259 0
M  V30 3410 N 332.573 -1.56217 0.208337 0
M  V30 3411 C 333.523 -2.16324 -0.720281 0
M  V30 3412 C 334.507 -1.10775 -1.16695 0
M  V30 3413 O 335.699 -1.36801 -1.12314 0
M  V30 3414 C 332.828 -2.83644 -1.93393 0
M  V30 3415 C 331.914 -3.96401 -1.50755 0
M  V30 3416 N 332.305 -4.99546 -0.792937 0
M  V30 3417 C 330.603 -4.08246 -1.79585 0
M  V30 3418 C 331.304 -5.78828 -0.577364 0
M  V30 3419 N 330.28 -5.31723 -1.1301 0
M  V30 3420 H 334.082 -2.93432 -0.165725 0
M  V30 3421 H 331.596 -1.62397 0.00906463 0
M  V30 3422 H 333.593 -3.25107 -2.60981 0
M  V30 3423 H 332.253 -2.08027 -2.49308 0
M  V30 3424 H 333.264 -5.15967 -0.447004 0
M  V30 3425 H 329.941 -3.4377 -2.36915 0
M  V30 3426 H 331.331 -6.71899 -0.00952956 0
M  V30 3427 N 334.051 0.0651679 -1.57465 0
M  V30 3428 C 335.291 0.768329 -1.8941 0
M  V30 3429 C 335.655 1.74406 -0.802894 0
M  V30 3430 O 336.856 2.49281 -1.0056 0
M  V30 3431 C 335.127 1.45199 -3.26576 0
M  V30 3432 S 336.686 2.1893 -3.80283 0
M  V30 3433 H 333.504 0.255359 -0.663561 0
M  V30 3434 H 336.106 0.024167 -1.95485 0
M  V30 3435 H 334.81 0.728123 -4.03889 0
M  V30 3436 H 334.341 2.23545 -3.23715 0
M  V30 3437 H 336.356 3.45551 -3.56102 0
M  V30 3438 N 335.529 1.53961 0.336706 0
M  V30 3439 C 336.806 1.62171 1.09361 0
M  V30 3440 C 337.186 0.447263 2.06307 0
M  V30 3441 O 336.534 -0.559802 2.21537 0
M  V30 3442 C 336.744 2.98565 1.80721 0
M  V30 3443 C 338.092 3.54157 2.34218 0
M  V30 3444 O 339.116 3.00784 1.90807 0
M  V30 3445 O 337.975 4.47528 3.13657 0
M  V30 3446 H 335.069 0.6562 0.503319 0
M  V30 3447 H 337.615 1.66307 0.33765 0
M  V30 3448 H 336.387 3.75482 1.10132 0
M  V30 3449 H 336.01 2.9805 2.63158 0
M  V30 3450 N 337.007 -0.598083 1.45811 0
M  V30 3451 C 337.937 -1.71873 1.58057 0
M  V30 3452 C 338.918 -1.64533 0.431615 0
M  V30 3453 O 340.103 -1.82787 0.65595 0
M  V30 3454 C 337.233 -3.10495 1.55597 0
M  V30 3455 C 336.187 -3.32654 2.69305 0
M  V30 3456 C 335.513 -4.71646 2.51902 0
M  V30 3457 C 336.813 -3.21981 4.11248 0
M  V30 3458 H 338.507 -1.61881 2.51863 0
M  V30 3459 H 336.053 -0.777372 1.21214 0
M  V30 3460 H 338.006 -3.88699 1.6276 0
M  V30 3461 H 336.73 -3.2135 0.583255 0
M  V30 3462 H 335.389 -2.56843 2.61586 0
M  V30 3463 H 335.037 -4.79246 1.52748 0
M  V30 3464 H 334.737 -4.87426 3.2816 0
M  V30 3465 H 336.261 -5.52038 2.60933 0
M  V30 3466 H 337.675 -3.90049 4.20161 0
M  V30 3467 H 336.072 -3.49289 4.87972 0
M  V30 3468 H 337.142 -2.1928 4.32486 0
M  V30 3469 N 338.485 -1.33259 -0.841409 0
M  V30 3470 C 339.432 -1.23302 -1.95103 0
M  V30 3471 C 340.402 -0.112204 -1.65721 0
M  V30 3472 O 341.587 -0.290038 -1.88583 0
M  V30 3473 C 338.727 -0.975583 -3.31023 0
M  V30 3474 C 337.84 -2.18243 -3.72819 0
M  V30 3475 C 336.975 -1.85936 -4.97595 0
M  V30 3476 C 336.014 -3.02866 -5.3192 0
M  V30 3477 N 335.151 -2.70565 -6.47873 0
M  V30 3478 H 339.991 -2.18207 -2.02952 0
M  V30 3479 H 337.528 -1.0851 -0.993173 0
M  V30 3480 H 339.486 -0.80677 -4.09325 0
M  V30 3481 H 338.116 -0.0632755 -3.22738 0
M  V30 3482 H 337.168 -2.46107 -2.90061 0
M  V30 3483 H 338.48 -3.05666 -3.94169 0
M  V30 3484 H 337.634 -1.65684 -5.83638 0
M  V30 3485 H 336.373 -0.957452 -4.78209 0
M  V30 3486 H 335.378 -3.23736 -4.44382 0
M  V30 3487 H 336.603 -3.93809 -5.53255 0
M  V30 3488 H 334.549 -1.8293 -6.29978 0
M  V30 3489 H 334.466 -3.51519 -6.69306 0
M  V30 3490 H 335.734 -2.53774 -7.37034 0
M  V30 3491 N 339.963 1.05934 -1.16686 0
M  V30 3492 C 341.209 1.79065 -0.95203 0
M  V30 3493 C 341.542 1.87147 0.518629 0
M  V30 3494 O 340.817 1.36574 1.38484 0
M  V30 3495 C 341.1 3.23359 -1.58464 0
M  V30 3496 C 340.953 3.23336 -3.12689 0
M  V30 3497 C 342.272 4.21004 -1.28232 0
M  V30 3498 H 339.391 0.65005 -0.34728 0
M  V30 3499 H 342.033 1.23868 -1.44072 0
M  V30 3500 H 340.183 3.70493 -1.16908 0
M  V30 3501 H 341.855 2.84336 -3.6325 0
M  V30 3502 H 340.098 2.61886 -3.4583 0
M  V30 3503 H 340.769 4.25144 -3.52075 0
M  V30 3504 H 343.245 3.8233 -1.64203 0
M  V30 3505 H 342.121 5.20225 -1.75092 0
M  V30 3506 H 342.382 4.41639 -0.201791 0
M  V30 3507 N 341.441 0.965919 1.2453 0
M  V30 3508 C 342.687 0.62776 1.92839 0
M  V30 3509 C 343.02 -0.834694 1.75347 0
M  V30 3510 O 342.295 -1.60031 1.10546 0
M  V30 3511 C 342.578 1.00109 3.45905 0
M  V30 3512 C 342.431 2.52011 3.72573 0
M  V30 3513 C 343.75 0.53435 4.36844 0
M  V30 3514 H 340.869 0.229537 0.700344 0
M  V30 3515 H 343.511 1.2046 1.46933 0
M  V30 3516 H 341.661 0.510238 3.85135 0
M  V30 3517 H 343.333 3.08559 3.42912 0
M  V30 3518 H 341.576 2.95287 3.17786 0
M  V30 3519 H 342.247 2.73183 4.79661 0
M  V30 3520 H 344.723 0.955565 4.04979 0
M  V30 3521 H 343.599 0.824152 5.42678 0
M  V30 3522 H 343.86 -0.565589 4.38467 0
M  V30 3523 N 342.919 -1.39368 0.735821 0
M  V30 3524 C 343.882 -2.2896 0.104874 0
M  V30 3525 C 344.882 -1.46347 -0.666274 0
M  V30 3526 O 346.072 -1.67014 -0.49517 0
M  V30 3527 C 343.204 -3.29857 -0.860656 0
M  V30 3528 H 344.397 -2.86259 0.894205 0
M  V30 3529 H 341.95 -1.48029 0.501704 0
M  V30 3530 H 342.685 -2.77615 -1.67631 0
M  V30 3531 H 342.47 -3.9087 -0.310327 0
M  V30 3532 H 343.96 -3.96893 -1.29867 0
M  V30 3533 N 344.397 -0.483516 -1.5 0
M  V30 3534 C 345.643 0.0672592 -2.02688 0
M  V30 3535 C 345.976 1.38247 -1.36387 0
M  V30 3536 O 345.251 1.88131 -0.493675 0
M  V30 3537 C 345.534 0.238109 -3.59312 0
M  V30 3538 C 345.387 -1.099 -4.36168 0
M  V30 3539 C 346.706 0.986916 -4.28892 0
M  V30 3540 H 343.825 0.0229696 -0.736642 0
M  V30 3541 H 346.467 -0.631527 -1.79197 0
M  V30 3542 H 344.617 0.8333 -3.79458 0
M  V30 3543 H 346.289 -1.73172 -4.27562 0
M  V30 3544 H 344.532 -1.69261 -3.99416 0
M  V30 3545 H 345.203 -0.932954 -5.44059 0
M  V30 3546 H 347.679 0.482302 -4.13295 0
M  V30 3547 H 346.555 1.07527 -5.38265 0
M  V30 3548 H 346.816 2.0265 -3.92919 0
M  V30 3549 N 345.875 1.56104 -0.216619 0
M  V30 3550 C 347.1 2.0301 0.424462 0
M  V30 3551 C 347.525 1.0955 1.52907 0
M  V30 3552 O 346.883 0.0827914 1.81111 0
M  V30 3553 C 346.931 3.4819 0.937883 0
M  V30 3554 O 346.035 3.57865 2.04955 0
M  V30 3555 H 345.376 0.656925 0.0966755 0
M  V30 3556 H 347.906 2.01859 -0.33381 0
M  V30 3557 H 347.916 3.88413 1.24897 0
M  V30 3558 H 346.591 4.15699 0.129387 0
M  V30 3559 H 345.168 3.29527 1.74546 0
M  V30 3560 N 347.353 -0.0568162 1.57498 0
M  V30 3561 C 348.316 -1.05038 2.03715 0
M  V30 3562 C 349.316 -1.30709 0.936577 0
M  V30 3563 O 350.506 -1.26178 1.20103 0
M  V30 3564 C 347.638 -2.39034 2.43055 0
M  V30 3565 H 348.831 -0.651715 2.92733 0
M  V30 3566 H 346.384 -0.302947 1.53336 0
M  V30 3567 H 347.119 -2.83703 1.57108 0
M  V30 3568 H 346.904 -2.21739 3.2338 0
M  V30 3569 H 348.394 -3.10421 2.79336 0
M  V30 3570 N 348.832 -1.54138 -0.328536 0
M  V30 3571 C 350.081 -1.71318 -1.06456 0
M  V30 3572 C 350.394 -0.491109 -1.89334 0
M  V30 3573 O 351.6 -0.54416 -2.65991 0
M  V30 3574 C 350.056 -3.03 -1.94214 0
M  V30 3575 C 349.664 -4.32595 -1.16471 0
M  V30 3576 C 351.408 -3.29544 -2.67583 0
M  V30 3577 C 349.315 -5.55341 -2.03347 0
M  V30 3578 H 348.245 -0.638429 -0.401155 0
M  V30 3579 H 350.896 -1.80633 -0.323106 0
M  V30 3580 H 349.278 -2.87579 -2.72239 0
M  V30 3581 H 350.452 -4.58766 -0.432525 0
M  V30 3582 H 348.767 -4.12777 -0.548063 0
M  V30 3583 H 351.364 -4.18444 -3.3288 0
M  V30 3584 H 351.707 -2.47206 -3.34955 0
M  V30 3585 H 352.24 -3.45809 -1.96623 0
M  V30 3586 H 348.979 -6.40268 -1.40491 0
M  V30 3587 H 348.499 -5.33397 -2.74313 0
M  V30 3588 H 350.178 -5.91557 -2.62049 0
M  V30 3589 N 350.31 0.590341 -1.46126 0
M  V30 3590 C 351.538 1.37504 -1.54597 0
M  V30 3591 C 351.953 1.87897 -0.184447 0
M  V30 3592 O 351.31 1.63192 0.816984 0
M  V30 3593 C 351.361 2.56779 -2.54454 0
M  V30 3594 O 351.082 2.08476 -3.85317 0
M  V30 3595 C 352.583 3.49427 -2.72792 0
M  V30 3596 H 349.803 0.420325 -0.523037 0
M  V30 3597 H 352.347 0.718383 -1.91467 0
M  V30 3598 H 350.502 3.1845 -2.20609 0
M  V30 3599 H 350.916 2.86097 -4.396 0
M  V30 3600 H 352.39 4.29619 -3.466 0
M  V30 3601 H 352.867 4.00876 -1.79429 0
M  V30 3602 H 353.473 2.93598 -3.07702 0
M  V30 3603 N 351.788 1.33704 0.83433 0
M  V30 3604 C 352.736 1.24323 1.96587 0
M  V30 3605 C 353.73 0.143659 1.6879 0
M  V30 3606 O 354.936 0.30791 1.77347 0
M  V30 3607 H 351.311 0.385925 0.645419 0
M  V30 3608 H 353.282 2.19978 2.01624 0
M  V30 3609 C 352.031 1.00394 3.32891 0
M  V30 3610 H 351.354 1.84231 3.54822 0
M  V30 3611 H 352.794 0.97862 4.12552 0
M  V30 3612 C 351.253 -0.293047 3.35623 0
M  V30 3613 O 351.783 -1.29823 3.80143 0
M  V30 3614 N 349.989 -0.322174 2.88809 0
M  V30 3615 H 349.536 0.496379 2.52772 0
M  V30 3616 H 349.494 -1.18977 2.91019 0
M  V30 3617 N 353.266 -1.05314 1.17247 0
M  V30 3618 C 354.199 -2.12512 0.831507 0
M  V30 3619 C 355.177 -1.61351 -0.201168 0
M  V30 3620 O 356.361 -1.88317 -0.0829831 0
M  V30 3621 C 353.488 -3.37848 0.24015 0
M  V30 3622 C 352.534 -4.07832 1.24801 0
M  V30 3623 S 353.367 -4.56537 2.79882 0
M  V30 3624 C 354.523 -5.85122 2.22223 0
M  V30 3625 H 354.756 -2.41106 1.7394 0
M  V30 3626 H 352.289 -1.17896 0.996988 0
M  V30 3627 H 354.247 -4.10391 -0.0945588 0
M  V30 3628 H 352.908 -3.07392 -0.645668 0
M  V30 3629 H 352.101 -4.97883 0.78287 0
M  V30 3630 H 351.703 -3.41348 1.52831 0
M  V30 3631 H 353.995 -6.58408 1.59703 0
M  V30 3632 H 354.938 -6.36381 3.10523 0
M  V30 3633 H 355.346 -5.39626 1.65722 0
M  V30 3634 N 354.744 -0.972509 -1.24016 0
M  V30 3635 C 355.707 -0.511403 -2.23422 0
M  V30 3636 C 356.707 0.394679 -1.55881 0
M  V30 3637 O 357.897 0.189469 -1.73167 0
M  V30 3638 C 355.029 0.258769 -3.39916 0
M  V30 3639 H 356.222 -1.39024 -2.6573 0
M  V30 3640 H 353.775 -0.757585 -1.36713 0
M  V30 3641 H 354.51 1.1545 -3.03054 0
M  V30 3642 H 354.295 -0.391522 -3.9014 0
M  V30 3643 H 355.785 0.570244 -4.13688 0
M  V30 3644 N 356.222 1.38976 -0.743202 0
M  V30 3645 C 357.132 2.3434 -0.110399 0
M  V30 3646 C 358.148 1.58741 0.712559 0
M  V30 3647 O 359.324 1.9099 0.639125 0
M  V30 3648 C 356.389 3.37812 0.780012 0
M  V30 3649 C 355.45 4.29263 -0.0561319 0
M  V30 3650 C 354.683 5.27793 0.791875 0
M  V30 3651 O 354.906 5.33043 2.03031 0
M  V30 3652 O 353.84 6.01512 0.216183 0
M  V30 3653 H 357.666 2.90129 -0.897714 0
M  V30 3654 H 355.251 1.40643 -0.503966 0
M  V30 3655 H 357.133 4.01194 1.28923 0
M  V30 3656 H 355.808 2.84395 1.546 0
M  V30 3657 H 354.715 3.69076 -0.611056 0
M  V30 3658 H 356.048 4.85907 -0.784531 0
M  V30 3659 N 357.7 0.491464 1.49741 0
M  V30 3660 C 358.948 -0.0563141 2.02022 0
M  V30 3661 C 359.269 -1.38363 1.37407 0
M  V30 3662 O 358.539 -1.88702 0.526166 0
M  V30 3663 H 357.119 -0.0238014 0.746621 0
M  V30 3664 H 359.781 0.646533 1.83864 0
M  V30 3665 H 358.877 -0.192967 3.11503 0
M  V30 3666 N 359.178 -1.55987 0.224894 0
M  V30 3667 C 360.108 -2.23426 -0.678457 0
M  V30 3668 C 361.089 -1.20709 -1.19847 0
M  V30 3669 O 362.274 -1.49304 -1.24186 0
M  V30 3670 C 359.404 -2.91676 -1.88527 0
M  V30 3671 C 358.358 -4.00893 -1.49896 0
M  V30 3672 C 357.684 -4.56455 -2.78483 0
M  V30 3673 C 358.984 -5.17769 -0.686461 0
M  V30 3674 H 360.678 -2.99175 -0.116173 0
M  V30 3675 H 358.224 -1.43897 -0.054436 0
M  V30 3676 H 360.177 -3.37547 -2.5227 0
M  V30 3677 H 358.901 -2.1338 -2.47258 0
M  V30 3678 H 357.56 -3.55758 -0.884985 0
M  V30 3679 H 357.208 -3.74886 -3.35365 0
M  V30 3680 H 356.908 -5.30169 -2.53368 0
M  V30 3681 H 358.432 -5.05047 -3.43162 0
M  V30 3682 H 359.846 -5.60001 -1.22767 0
M  V30 3683 H 358.243 -5.97735 -0.532259 0
M  V30 3684 H 359.313 -4.83932 0.306196 0
M  V30 3685 N 360.656 0.0484629 -1.57525 0
M  V30 3686 C 361.881 0.759177 -1.93006 0
M  V30 3687 C 362.306 1.69125 -0.823317 0
M  V30 3688 O 361.664 1.79931 0.222364 0
M  V30 3689 C 361.712 1.50899 -3.27509 0
M  V30 3690 O 360.816 2.62112 -3.18388 0
M  V30 3691 H 360.157 0.205564 -0.631379 0
M  V30 3692 H 362.687 0.00972959 -2.04598 0
M  V30 3693 H 362.697 1.88317 -3.6194 0
M  V30 3694 H 361.372 0.825269 -4.0763 0
M  V30 3695 H 359.949 2.27379 -2.95556 0
M  V30 3696 N 362.134 1.5431 0.320358 0
M  V30 3697 C 363.411 1.63322 1.07635 0
M  V30 3698 C 363.791 0.46912 2.05821 0
M  V30 3699 O 363.139 -0.536274 2.22118 0
M  V30 3700 C 363.349 3.00465 1.77544 0
M  V30 3701 C 364.697 3.56621 2.30449 0
M  V30 3702 O 365.721 3.02791 1.87606 0
M  V30 3703 O 364.58 4.5083 3.08892 0
M  V30 3704 H 361.674 0.661502 0.496331 0
M  V30 3705 H 364.22 1.66656 0.319992 0
M  V30 3706 H 362.992 3.76629 1.06143 0
M  V30 3707 H 362.615 3.00824 2.59982 0
M  V30 3708 N 363.613 -0.582584 1.46437 0
M  V30 3709 C 364.859 -1.34278 1.51978 0
M  V30 3710 C 365.192 -1.93446 0.170973 0
M  V30 3711 O 364.467 -1.76481 -0.817608 0
M  V30 3712 C 364.75 -2.47203 2.61845 0
M  V30 3713 C 364.603 -1.93069 4.06257 0
M  V30 3714 C 365.922 -3.49247 2.67795 0
M  V30 3715 H 363.041 -0.486876 0.553282 0
M  V30 3716 H 365.683 -0.654437 1.78374 0
M  V30 3717 H 363.833 -3.0592 2.39469 0
M  V30 3718 H 365.505 -1.38808 4.3992 0
M  V30 3719 H 363.748 -1.23898 4.1573 0
M  V30 3720 H 364.419 -2.74586 4.7886 0
M  V30 3721 H 366.895 -3.00411 2.8791 0
M  V30 3722 H 365.771 -4.25719 3.46489 0
M  V30 3723 H 366.032 -4.06482 1.73852 0
M  V30 3724 N 365.091 -1.34144 -0.827227 0
M  V30 3725 C 366.038 -1.25364 -1.93785 0
M  V30 3726 C 367.008 -0.129774 -1.65592 0
M  V30 3727 O 368.193 -0.310024 -1.88264 0
M  V30 3728 C 365.333 -1.01064 -3.2997 0
M  V30 3729 C 364.446 -2.22185 -3.70484 0
M  V30 3730 C 363.581 -1.91203 -4.95595 0
M  V30 3731 C 362.62 -3.08491 -5.28677 0
M  V30 3732 N 361.757 -2.77421 -6.44967 0
M  V30 3733 H 366.597 -2.20347 -2.00627 0
M  V30 3734 H 364.134 -1.09558 -0.981608 0
M  V30 3735 H 366.092 -0.850139 -4.08446 0
M  V30 3736 H 364.722 -0.0975026 -3.22653 0
M  V30 3737 H 363.774 -2.4917 -2.87434 0
M  V30 3738 H 365.086 -3.0983 -3.90905 0
M  V30 3739 H 364.24 -1.71864 -5.81848 0
M  V30 3740 H 362.979 -1.00812 -4.77167 0
M  V30 3741 H 361.984 -3.28431 -4.40923 0
M  V30 3742 H 363.209 -3.99655 -5.49047 0
M  V30 3743 H 361.155 -1.89601 -6.28003 0
M  V30 3744 H 361.072 -3.58598 -6.6554 0
M  V30 3745 H 362.34 -2.61577 -7.34301 0
M  V30 3746 N 366.569 1.04691 -1.17803 0
M  V30 3747 C 367.499 2.14494 -0.92275 0
M  V30 3748 C 368.48 1.69546 0.137179 0
M  V30 3749 O 369.665 1.94195 -0.0141108 0
M  V30 3750 C 366.795 3.44491 -0.440803 0
M  V30 3751 C 365.749 4.03031 -1.4405 0
M  V30 3752 C 365.075 5.28432 -0.81631 0
M  V30 3753 C 366.375 4.39932 -2.81527 0
M  V30 3754 H 368.069 2.36107 -1.84103 0
M  V30 3755 H 365.615 1.1347 -0.886599 0
M  V30 3756 H 367.568 4.2066 -0.249602 0
M  V30 3757 H 366.292 3.22546 0.513025 0
M  V30 3758 H 364.951 3.28937 -1.61853 0
M  V30 3759 H 364.599 5.02792 0.144511 0
M  V30 3760 H 364.299 5.68559 -1.48371 0
M  V30 3761 H 365.823 6.07284 -0.635496 0
M  V30 3762 H 367.237 5.07113 -2.67412 0
M  V30 3763 H 365.634 4.9109 -3.44892 0
M  V30 3764 H 366.704 3.50045 -3.35554 0
M  V30 3765 N 368.047 0.979072 1.23499 0
M  V30 3766 C 369.272 0.664845 1.96455 0
M  V30 3767 C 369.697 -0.761287 1.72006 0
M  V30 3768 O 369.055 -1.51837 0.990713 0
M  V30 3769 C 369.103 0.959479 3.47601 0
M  V30 3770 O 368.207 0.0508168 4.12369 0
M  V30 3771 H 367.548 0.250185 0.615064 0
M  V30 3772 H 370.078 1.31231 1.5697 0
M  V30 3773 H 370.088 0.895642 3.98048 0
M  V30 3774 H 368.763 1.99876 3.64723 0
M  V30 3775 H 367.34 0.16895 3.72517 0
M  V30 3776 N 369.525 -1.3858 0.750561 0
M  V30 3777 C 370.475 -2.27795 0.0965949 0
M  V30 3778 C 371.459 -1.45048 -0.696411 0
M  V30 3779 O 372.651 -1.67812 -0.562863 0
M  V30 3780 C 369.78 -3.33894 -0.798085 0
M  V30 3781 C 368.866 -4.241 0.0016067 0
M  V30 3782 N 369.257 -4.95067 1.03647 0
M  V30 3783 C 367.555 -4.45429 -0.225674 0
M  V30 3784 C 368.256 -5.61489 1.52004 0
M  V30 3785 N 367.232 -5.37135 0.835874 0
M  V30 3786 H 371.034 -2.80125 0.889228 0
M  V30 3787 H 368.548 -1.51446 0.586323 0
M  V30 3788 H 370.545 -3.96693 -1.28219 0
M  V30 3789 H 369.205 -2.83123 -1.5897 0
M  V30 3790 H 370.216 -4.98104 1.41819 0
M  V30 3791 H 366.893 -4.05571 -0.990872 0
M  V30 3792 H 368.283 -6.28264 2.38188 0
M  V30 3793 N 371.003 -0.499398 -1.49478 0
M  V30 3794 C 371.966 0.268838 -2.27618 0
M  V30 3795 C 372.966 0.895383 -1.33565 0
M  V30 3796 O 374.156 0.760164 -1.56739 0
M  V30 3797 C 371.288 1.38559 -3.11471 0
M  V30 3798 H 372.481 -0.416812 -2.96989 0
M  V30 3799 H 370.034 -0.254313 -1.54217 0
M  V30 3800 H 370.769 2.10544 -2.46661 0
M  V30 3801 H 370.554 0.941797 -3.80621 0
M  V30 3802 H 372.044 1.92678 -3.70493 0
M  V30 3803 N 372.481 1.55866 -0.233164 0
M  V30 3804 C 373.413 2.18099 0.704668 0
M  V30 3805 C 374.426 1.15334 1.14899 0
M  V30 3806 O 375.615 1.42262 1.07814 0
M  V30 3807 C 372.715 2.7592 1.96777 0
M  V30 3808 C 371.888 4.03969 1.67713 0
M  V30 3809 C 370.947 4.46242 2.78845 0
M  V30 3810 O 369.973 5.12903 2.46818 0
M  V30 3811 N 371.175 4.12886 4.08051 0
M  V30 3812 H 373.94 2.99205 0.172258 0
M  V30 3813 H 371.501 1.61815 -0.0525945 0
M  V30 3814 H 373.493 3.01165 2.70337 0
M  V30 3815 H 372.063 1.99051 2.41034 0
M  V30 3816 H 371.283 3.86459 0.777391 0
M  V30 3817 H 372.571 4.8748 1.4574 0
M  V30 3818 H 371.969 3.59342 4.3691 0
M  V30 3819 H 370.526 4.42997 4.78118 0
M  V30 3820 N 373.959 -0.0401083 1.57549 0
M  V30 3821 C 375.187 -0.745196 1.93014 0
M  V30 3822 C 375.602 -1.6948 0.831984 0
M  V30 3823 O 374.959 -1.81482 -0.192463 0
M  V30 3824 C 375.01 -1.51176 3.28372 0
M  V30 3825 O 374.731 -0.600284 4.33968 0
M  V30 3826 C 376.232 -2.315 3.78051 0
M  V30 3827 H 373.452 -0.210088 0.637263 0
M  V30 3828 H 375.996 -0.000924689 2.045 0
M  V30 3829 H 374.151 -2.20801 3.18317 0
M  V30 3830 H 374.565 -1.13669 5.12035 0
M  V30 3831 H 376.039 -2.80697 4.75303 0
M  V30 3832 H 376.516 -3.12436 3.08675 0
M  V30 3833 H 377.122 -1.66971 3.91153 0
M  V30 3834 N 375.437 -1.54477 -0.31217 0
M  V30 3835 C 376.367 -1.87652 -1.38957 0
M  V30 3836 C 377.348 -0.734358 -1.53431 0
M  V30 3837 O 378.533 -0.98911 -1.67123 0
M  V30 3838 C 375.663 -2.11396 -2.75552 0
M  V30 3839 C 374.617 -3.27243 -2.75855 0
M  V30 3840 C 373.943 -3.36382 -4.15633 0
M  V30 3841 C 375.243 -4.64622 -2.38587 0
M  V30 3842 H 376.937 -2.77887 -1.11442 0
M  V30 3843 H 374.483 -1.33707 -0.534655 0
M  V30 3844 H 376.436 -2.33189 -3.51 0
M  V30 3845 H 375.16 -1.17921 -3.04569 0
M  V30 3846 H 373.819 -3.05356 -2.02863 0
M  V30 3847 H 373.467 -2.40445 -4.41809 0
M  V30 3848 H 373.167 -4.14249 -4.1674 0
M  V30 3849 H 374.691 -3.60422 -4.92877 0
M  V30 3850 H 376.105 -4.86219 -3.03749 0
M  V30 3851 H 374.502 -5.45121 -2.50925 0
M  V30 3852 H 375.572 -4.66097 -1.33723 0
M  V30 3853 N 376.915 0.57481 -1.46744 0
M  V30 3854 C 377.878 1.66533 -1.57478 0
M  V30 3855 C 378.878 1.54338 -0.451263 0
M  V30 3856 O 380.068 1.58814 -0.715813 0
M  V30 3857 C 377.2 3.05999 -1.50259 0
M  V30 3858 H 378.393 1.58372 -2.54673 0
M  V30 3859 H 375.946 0.793301 -1.34672 0
M  V30 3860 H 376.681 3.19709 -0.543725 0
M  V30 3861 H 376.466 3.16259 -2.31781 0
M  V30 3862 H 377.956 3.8537 -1.60872 0
M  V30 3863 N 378.394 1.34581 0.820102 0
M  V30 3864 C 379.357 1.2628 1.91275 0
M  V30 3865 C 380.357 0.177344 1.59819 0
M  V30 3866 O 381.547 0.430156 1.68806 0
M  V30 3867 C 378.679 0.950327 3.27386 0
M  V30 3868 H 379.872 2.23421 2.00057 0
M  V30 3869 H 377.425 1.1891 1.0144 0
M  V30 3870 H 378.16 -0.0177938 3.24295 0
M  V30 3871 H 377.945 1.73549 3.51601 0
M  V30 3872 H 379.435 0.917492 4.07396 0
M  V30 3873 N 379.872 -1.04064 1.18357 0
M  V30 3874 C 380.835 -2.10243 0.912707 0
M  V30 3875 C 381.835 -1.60477 -0.101928 0
M  V30 3876 O 383.025 -1.73703 0.131517 0
M  V30 3877 C 380.157 -3.38893 0.369387 0
M  V30 3878 H 381.35 -2.35706 1.85426 0
M  V30 3879 H 378.903 -1.20489 0.995594 0
M  V30 3880 H 379.638 -3.19094 -0.578776 0
M  V30 3881 H 379.423 -3.76331 1.1008 0
M  V30 3882 H 380.913 -4.17128 0.198575 0
M  V30 3883 N 381.35 -0.985608 -1.22978 0
M  V30 3884 C 382.26 -0.538548 -2.28335 0
M  V30 3885 C 383.276 0.409163 -1.69121 0
M  V30 3886 O 384.452 0.277797 -1.99475 0
M  V30 3887 C 381.517 0.146867 -3.46389 0
M  V30 3888 C 380.578 -0.842896 -4.20944 0
M  V30 3889 C 379.811 -0.190095 -5.33361 0
M  V30 3890 O 380.034 1.01767 -5.61248 0
M  V30 3891 O 378.968 -0.891289 -5.95264 0
M  V30 3892 H 382.794 -1.41487 -2.68729 0
M  V30 3893 H 380.379 -0.753495 -1.29007 0
M  V30 3894 H 382.261 0.531125 -4.1804 0
M  V30 3895 H 380.936 0.997871 -3.07935 0
M  V30 3896 H 379.843 -1.27795 -3.51595 0
M  V30 3897 H 381.176 -1.66287 -4.6326 0
M  V30 3898 N 382.828 1.3818 -0.7579 0
M  V30 3899 C 383.758 2.33027 -0.148597 0
M  V30 3900 C 384.739 1.55085 0.69875 0
M  V30 3901 O 385.924 1.83384 0.639053 0
M  V30 3902 C 383.054 3.3928 0.742034 0
M  V30 3903 C 382.008 4.28 -0.00291946 0
M  V30 3904 C 381.334 5.25146 1.00625 0
M  V30 3905 C 382.634 5.08938 -1.17385 0
M  V30 3906 H 384.328 2.84231 -0.940909 0
M  V30 3907 H 381.874 1.36659 -0.453908 0
M  V30 3908 H 383.827 4.046 1.17799 0
M  V30 3909 H 382.551 2.86569 1.56671 0
M  V30 3910 H 381.21 3.64192 -0.419504 0
M  V30 3911 H 380.858 4.68721 1.8251 0
M  V30 3912 H 380.558 5.85361 0.512428 0
M  V30 3913 H 382.082 5.93342 1.44143 0
M  V30 3914 H 383.496 5.67474 -0.815224 0
M  V30 3915 H 381.893 5.7841 -1.59882 0
M  V30 3916 H 382.963 4.42424 -1.98468 0
M  V30 3917 N 384.306 0.507319 1.49211 0
M  V30 3918 C 385.531 -0.033725 2.07373 0
M  V30 3919 C 385.956 -1.29485 1.36437 0
M  V30 3920 O 385.314 -1.76294 0.423087 0
M  V30 3921 C 385.362 -0.263945 3.59633 0
M  V30 3922 O 384.466 -1.33737 3.90113 0
M  V30 3923 H 383.807 0.0290331 0.663365 0
M  V30 3924 H 386.337 0.708749 1.91932 0
M  V30 3925 H 386.347 -0.493536 4.05004 0
M  V30 3926 H 385.022 0.657424 4.10671 0
M  V30 3927 H 383.599 -1.09224 3.56545 0
M  V30 3928 N 385.784 -1.5574 0.241426 0
M  V30 3929 C 386.731 -2.21149 -0.660432 0
M  V30 3930 C 387.701 -1.17356 -1.17545 0
M  V30 3931 O 388.886 -1.45784 -1.23093 0
M  V30 3932 C 386.026 -2.91059 -1.85414 0
M  V30 3933 C 385.139 -4.09495 -1.37616 0
M  V30 3934 C 384.274 -4.67135 -2.529 0
M  V30 3935 C 383.313 -5.77831 -2.01936 0
M  V30 3936 N 382.45 -6.29677 -3.10566 0
M  V30 3937 H 387.29 -2.97845 -0.095955 0
M  V30 3938 H 384.827 -1.47057 -0.0356024 0
M  V30 3939 H 386.785 -3.29788 -2.5553 0
M  V30 3940 H 385.415 -2.16846 -2.39118 0
M  V30 3941 H 384.467 -3.76117 -0.569235 0
M  V30 3942 H 385.779 -4.89423 -0.962618 0
M  V30 3943 H 384.933 -5.08409 -3.31067 0
M  V30 3944 H 383.672 -3.86411 -2.97553 0
M  V30 3945 H 382.677 -5.36039 -1.22238 0
M  V30 3946 H 383.902 -6.60402 -1.58259 0
M  V30 3947 H 381.848 -5.5186 -3.54664 0
M  V30 3948 H 381.765 -7.04783 -2.73526 0
M  V30 3949 H 383.033 -6.75609 -3.88809 0
M  V30 3950 N 387.262 0.0317525 -1.57568 0
M  V30 3951 C 388.194 1.06073 -2.03178 0
M  V30 3952 C 389.207 1.32627 -0.944132 0
M  V30 3953 O 390.396 1.30162 -1.22148 0
M  V30 3954 C 387.496 2.40297 -2.38978 0
M  V30 3955 C 386.669 2.33137 -3.70089 0
M  V30 3956 C 385.728 3.49787 -3.9311 0
M  V30 3957 O 384.754 3.29403 -4.64201 0
M  V30 3958 N 385.956 4.71562 -3.38541 0
M  V30 3959 H 388.721 0.672006 -2.92069 0
M  V30 3960 H 386.282 0.219745 -1.60402 0
M  V30 3961 H 388.274 3.1705 -2.51518 0
M  V30 3962 H 386.844 2.71024 -1.55771 0
M  V30 3963 H 386.064 1.415 -3.67928 0
M  V30 3964 H 387.352 2.25493 -4.56104 0
M  V30 3965 H 386.75 4.91024 -2.80912 0
M  V30 3966 H 385.307 5.45689 -3.56464 0
M  V30 3967 N 388.74 1.54641 0.303973 0
M  V30 3968 C 389.688 1.86137 1.39484 0
M  V30 3969 C 390.682 0.734854 1.52631 0
M  V30 3970 O 391.888 0.918803 1.54784 0
M  V30 3971 H 388.263 0.590324 0.465856 0
M  V30 3972 H 390.234 2.77324 1.10154 0
M  V30 3973 C 388.983 2.12274 2.75382 0
M  V30 3974 H 388.306 2.98429 2.66046 0
M  V30 3975 H 389.746 2.38254 3.5073 0
M  V30 3976 C 388.205 0.920365 3.24085 0
M  V30 3977 O 388.735 0.139377 4.01458 0
M  V30 3978 N 386.941 0.726566 2.81371 0
M  V30 3979 H 386.488 1.36332 2.18567 0
M  V30 3980 H 386.446 -0.0763799 3.14307 0
M  V30 3981 N 390.218 -0.567019 1.47046 0
M  V30 3982 C 391.465 -1.32462 1.53167 0
M  V30 3983 C 391.793 -1.93571 0.189841 0
M  V30 3984 O 391.048 -1.77865 -0.816243 0
M  V30 3985 C 391.347 -2.4623 2.59047 0
M  V30 3986 C 391.013 -2.03014 4.02612 0
M  V30 3987 C 389.675 -1.90944 4.41694 0
M  V30 3988 C 392.027 -1.69895 4.92732 0
M  V30 3989 C 389.355 -1.44035 5.68745 0
M  V30 3990 C 391.707 -1.2446 6.20236 0
M  V30 3991 C 390.371 -1.10979 6.5821 0
M  V30 3992 H 389.641 -0.484713 0.560477 0
M  V30 3993 H 392.288 -0.636888 1.80599 0
M  V30 3994 H 390.593 -3.20517 2.25335 0
M  V30 3995 H 392.29 -3.04427 2.61008 0
M  V30 3996 H 388.88 -2.13348 3.71726 0
M  V30 3997 H 393.064 -1.78098 4.63244 0
M  V30 3998 H 388.32 -1.32254 5.96925 0
M  V30 3999 H 392.494 -0.978924 6.89485 0
M  V30 4000 H 390.121 -0.744078 7.5655 0
M  V30 4001 N 391.696 -1.35014 -0.812953 0
M  V30 4002 C 392.945 -1.27269 -1.56479 0
M  V30 4003 C 393.258 0.152771 -1.95002 0
M  V30 4004 O 394.464 0.352451 -2.69203 0
M  V30 4005 C 392.92 -2.23159 -2.82362 0
M  V30 4006 C 392.528 -3.71016 -2.511 0
M  V30 4007 C 394.272 -2.24342 -3.60376 0
M  V30 4008 C 392.179 -4.58746 -3.73237 0
M  V30 4009 H 391.109 -0.472829 -0.587324 0
M  V30 4010 H 393.76 -1.6024 -0.894171 0
M  V30 4011 H 392.142 -1.83151 -3.51101 0
M  V30 4012 H 393.316 -4.1962 -1.90409 0
M  V30 4013 H 391.631 -3.72378 -1.86343 0
M  V30 4014 H 394.228 -2.87107 -4.51081 0
M  V30 4015 H 394.571 -1.24542 -3.97234 0
M  V30 4016 H 395.104 -2.62846 -2.98591 0
M  V30 4017 H 391.843 -5.59521 -3.41492 0
M  V30 4018 H 391.363 -4.14871 -4.33176 0
M  V30 4019 H 393.042 -4.73852 -4.40537 0
M  V30 4020 N 393.175 1.03435 -1.18907 0
M  V30 4021 C 394.123 2.13703 -0.918353 0
M  V30 4022 C 395.117 1.68947 0.123767 0
M  V30 4023 O 396.323 1.79983 -0.0249701 0
M  V30 4024 H 392.698 0.698112 -0.279542 0
M  V30 4025 H 394.669 2.33731 -1.85506 0
M  V30 4026 C 393.418 3.44542 -0.467532 0
M  V30 4027 H 392.741 3.79394 -1.26095 0
M  V30 4028 H 394.181 4.22812 -0.317164 0
M  V30 4029 C 392.64 3.26829 0.817588 0
M  V30 4030 O 393.17 3.54975 1.88031 0
M  V30 4031 N 391.376 2.80139 0.772677 0
M  V30 4032 H 390.923 2.57434 -0.0923883 0
M  V30 4033 H 390.881 2.68668 1.63294 0
M  V30 4034 N 394.653 0.992116 1.22453 0
M  V30 4035 C 395.583 0.561677 2.26644 0
M  V30 4036 C 396.564 -0.411055 1.65059 0
M  V30 4037 O 397.749 -0.301861 1.9184 0
M  V30 4038 C 394.879 -0.125247 3.47074 0
M  V30 4039 C 393.833 0.765948 4.21091 0
M  V30 4040 C 393.159 -0.0538484 5.34673 0
M  V30 4041 C 394.459 2.06242 4.79856 0
M  V30 4042 H 396.153 1.43259 2.62902 0
M  V30 4043 H 393.699 0.690283 1.26377 0
M  V30 4044 H 395.652 -0.437764 4.1912 0
M  V30 4045 H 394.376 -1.03069 3.0991 0
M  V30 4046 H 393.035 1.0621 3.50878 0
M  V30 4047 H 392.683 -0.960188 4.9375 0
M  V30 4048 H 392.383 0.539415 5.85119 0
M  V30 4049 H 393.907 -0.360477 6.09535 0
M  V30 4050 H 395.321 1.8139 5.43848 0
M  V30 4051 H 393.718 2.60444 5.40638 0
M  V30 4052 H 394.788 2.74167 3.99951 0
M  V30 4053 N 396.131 -1.37776 0.765217 0
M  V30 4054 C 397.38 -1.99092 0.323307 0
M  V30 4055 C 397.693 -1.61434 -1.10446 0
M  V30 4056 O 398.899 -2.15805 -1.64743 0
M  V30 4057 C 397.355 -3.56019 0.527098 0
M  V30 4058 C 396.963 -4.0262 1.96471 0
M  V30 4059 C 398.707 -4.2424 0.148483 0
M  V30 4060 C 396.614 -5.52233 2.11644 0
M  V30 4061 H 395.544 -0.744846 0.117137 0
M  V30 4062 H 398.195 -1.57391 0.943417 0
M  V30 4063 H 396.577 -3.95667 -0.162372 0
M  V30 4064 H 397.751 -3.74234 2.68859 0
M  V30 4065 H 396.066 -3.47161 2.29931 0
M  V30 4066 H 398.663 -5.34159 0.240456 0
M  V30 4067 H 399.006 -4.06446 -0.900422 0
M  V30 4068 H 399.539 -3.89872 0.79025 0
M  V30 4069 H 396.278 -5.74945 3.1483 0
M  V30 4070 H 395.798 -5.82324 1.4373 0
M  V30 4071 H 397.477 -6.18106 1.91193 0
M  V30 4072 N 397.609 -0.515225 -1.4894 0
M  V30 4073 C 398.849 0.0223983 -2.04388 0
M  V30 4074 C 399.213 1.32961 -1.38511 0
M  V30 4075 O 400.414 1.95236 -1.8476 0
M  V30 4076 C 398.685 0.157056 -3.57055 0
M  V30 4077 S 400.244 0.646875 -4.34006 0
M  V30 4078 H 397.062 -0.00500662 -0.710982 0
M  V30 4079 H 399.664 -0.69243 -1.82827 0
M  V30 4080 H 398.368 -0.799412 -4.02539 0
M  V30 4081 H 397.899 0.896704 -3.83044 0
M  V30 4082 H 399.914 1.91381 -4.57808 0
M  V30 4083 N 399.087 1.5561 -0.249682 0
M  V30 4084 C 400.335 1.98618 0.373548 0
M  V30 4085 C 400.656 1.13919 1.58264 0
M  V30 4086 O 399.926 0.222637 1.94631 0
M  V30 4087 H 398.506 0.733571 0.141006 0
M  V30 4088 H 401.168 1.91748 -0.349117 0
M  V30 4089 H 400.264 3.04584 0.680796 0
M  V30 4090 N 400.565 -0.0233959 1.57583 0
M  V30 4091 C 401.812 -0.713063 1.8953 0
M  V30 4092 C 402.14 -1.75056 0.847673 0
M  V30 4093 O 401.395 -1.95119 -0.150636 0
M  V30 4094 C 401.694 -1.41428 3.28227 0
M  V30 4095 C 401.36 -0.512222 4.47981 0
M  V30 4096 C 400.022 -0.263785 4.80476 0
M  V30 4097 C 402.374 0.110248 5.21083 0
M  V30 4098 C 399.702 0.615804 5.83459 0
M  V30 4099 C 402.054 0.977573 6.25001 0
M  V30 4100 C 400.718 1.23542 6.55968 0
M  V30 4101 H 399.988 -0.260928 0.69354 0
M  V30 4102 H 402.635 0.0271047 1.91481 0
M  V30 4103 H 400.94 -2.22791 3.22291 0
M  V30 4104 H 402.637 -1.95355 3.50196 0
M  V30 4105 H 399.227 -0.716013 4.22577 0
M  V30 4106 H 403.411 -0.0687137 4.96252 0
M  V30 4107 H 398.667 0.82382 6.05824 0
M  V30 4108 H 402.841 1.46638 6.80786 0
M  V30 4109 H 400.468 1.91871 7.35588 0
M  V30 4110 N 402.043 -1.548 -0.295768 0
M  V30 4111 C 402.973 -1.89115 -1.36959 0
M  V30 4112 C 403.954 -0.75059 -1.52644 0
M  V30 4113 O 405.139 -1.00678 -1.66065 0
M  V30 4114 C 402.269 -2.14307 -2.73295 0
M  V30 4115 C 401.223 -3.30151 -2.72368 0
M  V30 4116 C 400.549 -3.40772 -4.12042 0
M  V30 4117 C 401.849 -4.67126 -2.33646 0
M  V30 4118 H 403.543 -2.79053 -1.08488 0
M  V30 4119 H 401.089 -1.34266 -0.520443 0
M  V30 4120 H 403.042 -2.36898 -3.48507 0
M  V30 4121 H 401.766 -1.21145 -3.03301 0
M  V30 4122 H 400.425 -3.0749 -1.99613 0
M  V30 4123 H 400.073 -2.45117 -4.39234 0
M  V30 4124 H 399.773 -4.18645 -4.12322 0
M  V30 4125 H 401.297 -3.6563 -4.89027 0
M  V30 4126 H 402.711 -4.89414 -2.98575 0
M  V30 4127 H 401.108 -5.47751 -2.45129 0
M  V30 4128 H 402.178 -4.67489 -1.28772 0
M  V30 4129 N 403.521 0.559213 -1.47345 0
M  V30 4130 C 404.937 0.884943 -1.32819 0
M  V30 4131 C 405.137 1.98988 -0.317173 0
M  V30 4132 O 404.193 2.51031 0.272011 0
M  V30 4133 C 405.506 1.28007 -2.72093 0
M  V30 4134 C 407.054 1.39161 -2.80363 0
M  V30 4135 C 407.529 1.82031 -4.20272 0
M  V30 4136 N 409.02 1.89185 -4.22804 0
M  V30 4137 C 409.755 2.2368 -5.27973 0
M  V30 4138 N 409.251 2.56802 -6.43447 0
M  V30 4139 N 411.044 2.24436 -5.15349 0
M  V30 4140 H 403.195 -0.170304 -2.11716 0
M  V30 4141 H 405.458 -0.0135247 -0.947904 0
M  V30 4142 H 405.164 0.542027 -3.47498 0
M  V30 4143 H 405.038 2.23665 -3.03733 0
M  V30 4144 H 407.425 2.12048 -2.05231 0
M  V30 4145 H 407.506 0.41696 -2.52379 0
M  V30 4146 H 407.15 1.09715 -4.95908 0
M  V30 4147 H 407.08 2.80495 -4.45679 0
M  V30 4148 H 409.571 1.65982 -3.39497 0
M  V30 4149 H 409.884 2.82144 -7.19454 0
M  V30 4150 H 408.229 2.54387 -6.46771 0
M  V30 4151 H 411.42 1.97998 -4.24163 0
M  V30 4152 H 411.593 2.50989 -5.97418 0
M  V30 4153 N 404.999 1.35443 0.805782 0
M  V30 4154 C 405.946 1.28431 1.91766 0
M  V30 4155 C 406.916 0.156102 1.65365 0
M  V30 4156 O 408.101 0.339936 1.87747 0
M  V30 4157 C 405.241 1.06301 3.2832 0
M  V30 4158 C 404.354 2.2805 3.66902 0
M  V30 4159 C 403.489 1.99064 4.92491 0
M  V30 4160 C 402.528 3.16863 5.23703 0
M  V30 4161 N 401.665 2.87647 6.40471 0
M  V30 4162 H 406.505 2.23511 1.97096 0
M  V30 4163 H 404.042 1.11105 0.964054 0
M  V30 4164 H 406 0.915012 4.07042 0
M  V30 4165 H 404.63 0.148822 3.22457 0
M  V30 4166 H 403.682 2.53711 2.83434 0
M  V30 4167 H 404.994 3.1601 3.85927 0
M  V30 4168 H 404.148 1.81099 5.7904 0
M  V30 4169 H 402.887 1.0839 4.75503 0
M  V30 4170 H 401.892 3.35404 4.35642 0
M  V30 4171 H 403.117 4.08339 5.4262 0
M  V30 4172 H 401.063 1.99568 6.24907 0
M  V30 4173 H 400.98 3.69141 6.59751 0
M  V30 4174 H 402.248 2.73226 7.30047 0
M  V30 4175 N 406.477 -1.02803 1.19454 0
M  V30 4176 C 407.726 -1.7562 0.991996 0
M  V30 4177 C 408.039 -1.89672 -0.477901 0
M  V30 4178 O 409.245 -2.59468 -0.799287 0
M  V30 4179 C 407.701 -3.15812 1.72601 0
M  V30 4180 C 407.309 -3.0981 3.23607 0
M  V30 4181 C 409.053 -3.92918 1.60674 0
M  V30 4182 C 406.96 -4.44939 3.89594 0
M  V30 4183 H 405.89 -0.658352 0.367543 0
M  V30 4184 H 408.541 -1.15044 1.42959 0
M  V30 4185 H 406.923 -3.7686 1.21624 0
M  V30 4186 H 408.097 -2.58138 3.81709 0
M  V30 4187 H 406.412 -2.46201 3.35819 0
M  V30 4188 H 409.009 -4.9287 2.07323 0
M  V30 4189 H 409.352 -4.12502 0.561025 0
M  V30 4190 H 409.885 -3.38472 2.09001 0
M  V30 4191 H 406.624 -4.30559 4.94267 0
M  V30 4192 H 406.144 -4.96664 3.36281 0
M  V30 4193 H 407.823 -5.1382 3.93189 0
M  V30 4194 N 407.956 -0.998596 -1.21925 0
M  V30 4195 C 408.919 -0.558679 -2.22287 0
M  V30 4196 C 409.919 0.361525 -1.56683 0
M  V30 4197 O 411.109 0.152695 -1.73529 0
M  V30 4198 C 408.241 0.18661 -3.40389 0
M  V30 4199 H 409.434 -1.4463 -2.62721 0
M  V30 4200 H 406.987 -0.786413 -1.35075 0
M  V30 4201 H 407.722 1.08996 -3.05435 0
M  V30 4202 H 407.507 -0.474188 -3.89222 0
M  V30 4203 H 408.997 0.482367 -4.14805 0
M  V30 4204 O 409.473 1.33471 -0.909268 0
M  V30 4205 H 410.164 1.86473 -0.524175 0
M  V30 END ATOM
M  V30 BEGIN BOND
M  V30 END BOND
M  V30 END CTAB
M  END
$$$$
