drugbank_target|P45799 ADP compounds hydrolase NudE (DB02059)
 OpenBabel12092120243D

  0  0  0     0  0            999 V3000
M  V30 BEGIN CTAB
M  V30 COUNTS 2970 3000 0 0 0
M  V30 BEGIN ATOM
M  V30 1 H -0.908 1.98254 -0.117106 0
M  V30 2 N 0 1.576 0 0
M  V30 3 C 0.933 2.03868 1.02534 0
M  V30 4 C 1.911 0.928543 1.3348 0
M  V30 5 O 3.095 1.19667 1.45644 0
M  V30 6 C 0.222 2.43627 2.35294 0
M  V30 7 C -0.732 3.65373 2.2001 0
M  V30 8 S 0.101 5.13292 1.52614 0
M  V30 9 C 1.257 5.56322 2.86805 0
M  V30 10 H 1.49 2.90518 0.631377 0
M  V30 11 H -0.977 1.52953 0.210867 0
M  V30 12 H 0.981 2.67203 3.11629 0
M  V30 13 H -0.358 1.57376 2.7183 0
M  V30 14 H -1.165 3.90944 3.18086 0
M  V30 15 H -1.563 3.418 1.51819 0
M  V30 16 H 0.729 5.58782 3.83104 0
M  V30 17 H 1.672 6.56266 2.65933 0
M  V30 18 H 2.08 4.83886 2.90714 0
M  V30 19 N 1.4781 -0.272755 1.55222 0
M  V30 20 C 2.7031 -1.02683 1.80197 0
M  V30 21 C 3.1281 -1.79142 0.573551 0
M  V30 22 O 2.4861 -1.74917 -0.476849 0
M  V30 23 C 2.5341 -1.9609 3.02624 0
M  V30 24 O 1.6381 -3.04863 2.77727 0
M  V30 25 H 0.9791 -0.293557 0.595584 0
M  V30 26 H 3.5091 -0.30159 2.02365 0
M  V30 27 H 3.5191 -2.38039 3.31363 0
M  V30 28 H 2.1941 -1.39851 3.91682 0
M  V30 29 H 0.7711 -2.67228 2.60084 0
M  V30 30 N 2.9562 -1.48159 -0.537278 0
M  V30 31 C 3.9032 -1.62138 -1.64256 0
M  V30 32 C 4.8732 -0.463668 -1.59497 0
M  V30 33 O 6.0582 -0.686241 -1.78032 0
M  V30 34 C 3.1982 -1.66028 -3.02537 0
M  V30 35 C 2.3112 -2.92855 -3.17585 0
M  V30 36 C 1.4462 -2.87952 -4.46382 0
M  V30 37 C 0.4852 -4.09516 -4.54932 0
M  V30 38 N -0.3778 -4.02733 -5.75109 0
M  V30 39 H 4.4622 -2.56529 -1.51647 0
M  V30 40 H 1.9992 -1.27224 -0.738414 0
M  V30 41 H 3.9572 -1.66265 -3.82638 0
M  V30 42 H 2.5872 -0.751331 -3.13934 0
M  V30 43 H 1.6392 -3.02395 -2.30784 0
M  V30 44 H 2.9512 -3.82822 -3.19764 0
M  V30 45 H 2.1052 -2.8655 -5.34765 0
M  V30 46 H 0.8442 -1.95702 -4.46712 0
M  V30 47 H -0.1508 -4.11201 -3.64957 0
M  V30 48 H 1.0742 -5.02917 -4.56346 0
M  V30 49 H -0.9798 -3.13299 -5.76351 0
M  V30 50 H -1.0628 -4.86397 -5.78752 0
M  V30 51 H 0.2052 -4.05379 -6.65799 0
M  V30 52 N 4.4343 0.785586 -1.36625 0
M  V30 53 C 5.6593 1.57963 -1.34397 0
M  V30 54 C 6.0843 1.87964 0.071526 0
M  V30 55 O 5.4423 1.48182 1.0446 0
M  V30 56 C 5.4903 2.87511 -2.17646 0
M  V30 57 O 4.5943 3.81281 -1.57158 0
M  V30 58 H 3.9353 0.479014 -0.459828 0
M  V30 59 H 6.4653 0.973411 -1.79961 0
M  V30 60 H 6.4753 3.36745 -2.30362 0
M  V30 61 H 5.1503 2.65002 -3.20541 0
M  V30 62 H 3.7273 3.39885 -1.53403 0
M  V30 63 N 5.9124 1.20967 1.01018 0
M  V30 64 C 6.8424 0.988272 2.11555 0
M  V30 65 C 7.8234 -0.0849778 1.69888 0
M  V30 66 O 9.0084 0.0738202 1.9406 0
M  V30 67 C 6.1384 0.546528 3.42973 0
M  V30 68 C 5.0924 1.56375 3.9841 0
M  V30 69 C 4.4184 0.97842 5.25672 0
M  V30 70 C 5.7184 2.94922 4.31066 0
M  V30 71 H 7.4124 1.91276 2.30334 0
M  V30 72 H 4.9584 0.921073 1.1069 0
M  V30 73 H 6.9114 0.378839 4.19694 0
M  V30 74 H 5.6354 -0.413598 3.23971 0
M  V30 75 H 4.2944 1.71891 3.23804 0
M  V30 76 H 3.9424 0.0101688 5.02999 0
M  V30 77 H 3.6424 1.65784 5.63728 0
M  V30 78 H 5.1664 0.821939 6.05043 0
M  V30 79 H 6.5804 2.8288 4.9865 0
M  V30 80 H 4.9774 3.5983 4.80253 0
M  V30 81 H 6.0474 3.4616 3.39561 0
M  V30 82 N 7.3905 -1.2043 1.01659 0
M  V30 83 C 8.3225 -2.22626 0.544988 0
M  V30 84 C 9.3355 -1.58479 -0.372609 0
M  V30 85 O 10.5245 -1.77679 -0.170958 0
M  V30 86 C 7.6245 -3.38141 -0.22663 0
M  V30 87 C 6.7975 -4.31877 0.692876 0
M  V30 88 C 5.8565 -5.26191 -0.0311616 0
M  V30 89 O 4.8825 -5.6612 0.591343 0
M  V30 90 N 6.0845 -5.65618 -1.30601 0
M  V30 91 H 8.8495 -2.63716 1.42388 0
M  V30 92 H 6.4105 -1.34971 0.894116 0
M  V30 93 H 8.4025 -3.98239 -0.72024 0
M  V30 94 H 6.9725 -2.95943 -1.00681 0
M  V30 95 H 6.1925 -3.69746 1.36679 0
M  V30 96 H 7.4805 -4.91426 1.31824 0
M  V30 97 H 6.8785 -5.3519 -1.83269 0
M  V30 98 H 5.4355 -6.28025 -1.74435 0
M  V30 99 N 8.8686 -0.792821 -1.36206 0
M  V30 100 C 9.8156 -0.191653 -2.30003 0
M  V30 101 C 10.7856 0.666453 -1.52143 0
M  V30 102 O 11.9706 0.61442 -1.80636 0
M  V30 103 C 9.1106 0.664848 -3.38635 0
M  V30 104 C 8.2236 -0.212175 -4.31479 0
M  V30 105 C 7.3586 0.651022 -5.27196 0
M  V30 106 C 6.3976 -0.227247 -6.11678 0
M  V30 107 N 5.5346 0.595127 -6.99573 0
M  V30 108 H 10.3746 -0.996978 -2.80828 0
M  V30 109 H 7.9116 -0.503206 -1.38225 0
M  V30 110 H 9.8696 1.17645 -4.00269 0
M  V30 111 H 8.4996 1.43557 -2.89122 0
M  V30 112 H 7.5516 -0.841777 -3.70969 0
M  V30 113 H 8.8636 -0.888751 -4.90818 0
M  V30 114 H 8.0176 1.2283 -5.94136 0
M  V30 115 H 6.7566 1.36121 -4.68319 0
M  V30 116 H 5.7616 -0.816904 -5.43697 0
M  V30 117 H 6.9866 -0.93509 -6.72631 0
M  V30 118 H 4.9326 1.28955 -6.432 0
M  V30 119 H 4.8496 -0.0236952 -7.55996 0
M  V30 120 H 6.1176 1.15613 -7.70879 0
M  V30 121 N 10.3467 1.47872 -0.545128 0
M  V30 122 C 11.7577 1.86384 -0.108581 0
M  V30 123 C 12.1087 1.45309 1.31832 0
M  V30 124 O 11.2337 0.850641 1.9898 0
M  V30 125 C 11.8287 3.38265 -0.190274 0
M  V30 126 C 10.3877 3.75914 0.191164 0
M  V30 127 C 9.5347 2.71926 -0.543273 0
M  V30 128 H 12.4857 1.39561 -0.755537 0
M  V30 129 H 12.5067 3.75831 0.594217 0
M  V30 130 H 12.0187 3.6813 -1.2289 0
M  V30 131 H 10.1197 3.51665 1.23136 0
M  V30 132 H 10.2327 4.78836 -0.158987 0
M  V30 133 H 8.5967 2.54697 0.0122495 0
M  V30 134 H 9.3797 3.04634 -1.58282 0
M  V30 135 N 11.8248 0.280983 1.55075 0
M  V30 136 C 13.0528 -0.337293 2.04132 0
M  V30 137 C 13.4678 -1.4903 1.15912 0
M  V30 138 O 12.8248 -1.81606 0.180459 0
M  V30 139 C 12.8758 -0.812706 3.52246 0
M  V30 140 O 12.5968 0.294387 4.3711 0
M  V30 141 C 14.0978 -1.4982 4.17216 0
M  V30 142 H 11.3178 -0.0761638 0.666663 0
M  V30 143 H 13.8618 0.414787 2.00249 0
M  V30 144 H 12.0168 -1.51486 3.56554 0
M  V30 145 H 12.4308 -0.0721325 5.2445 0
M  V30 146 H 13.9048 -1.7822 5.22438 0
M  V30 147 H 14.3818 -2.43168 3.65741 0
M  V30 148 H 14.9878 -0.839742 4.16927 0
M  V30 149 N 13.3029 -1.57598 0.00835791 0
M  V30 150 C 14.5519 -1.90107 -0.673968 0
M  V30 151 C 14.8649 -0.884275 -1.7447 0
M  V30 152 O 16.0709 -1.09987 -2.48224 0
M  V30 153 C 14.5269 -3.37497 -1.24995 0
M  V30 154 C 14.1349 -4.47491 -0.2136 0
M  V30 155 C 15.8789 -3.79104 -1.90999 0
M  V30 156 C 13.7859 -5.85963 -0.80005 0
M  V30 157 H 12.7159 -0.709393 -0.255495 0
M  V30 158 H 15.3669 -1.83365 0.0702693 0
M  V30 159 H 13.7489 -3.39102 -2.04513 0
M  V30 160 H 14.9229 -4.57414 0.557596 0
M  V30 161 H 13.2379 -4.14956 0.346474 0
M  V30 162 H 15.8349 -4.79901 -2.35795 0
M  V30 163 H 16.1779 -3.1306 -2.74407 0
M  V30 164 H 16.7109 -3.79833 -1.18203 0
M  V30 165 H 13.4499 -6.555 -0.00456708 0
M  V30 166 H 12.9699 -5.79687 -1.54021 0
M  V30 167 H 14.6489 -6.33884 -1.29615 0
M  V30 168 N 14.781 0.264519 -1.55364 0
M  V30 169 C 15.711 1.33121 -1.91836 0
M  V30 170 C 16.692 1.51101 -0.781192 0
M  V30 171 O 17.877 1.64003 -1.04003 0
M  V30 172 C 15.007 2.68921 -2.19769 0
M  V30 173 C 13.961 2.65661 -3.35571 0
M  V30 174 C 13.287 4.05093 -3.49004 0
M  V30 175 C 14.587 2.24187 -4.71739 0
M  V30 176 H 16.281 1.02844 -2.81182 0
M  V30 177 H 13.827 0.493286 -1.35287 0
M  V30 178 H 15.78 3.43663 -2.43872 0
M  V30 179 H 14.504 3.00799 -1.27231 0
M  V30 180 H 13.163 1.93377 -3.1145 0
M  V30 181 H 12.811 4.34206 -2.53917 0
M  V30 182 H 12.511 4.03804 -4.26868 0
M  V30 183 H 14.035 4.81561 -3.75408 0
M  V30 184 H 15.449 2.88654 -4.9533 0
M  V30 185 H 13.846 2.34044 -5.52579 0
M  V30 186 H 14.916 1.19327 -4.69988 0
M  V30 187 N 16.2591 1.48442 0.529413 0
M  V30 188 C 17.2071 1.63452 1.65487 0
M  V30 189 C 18.2011 0.500955 1.61823 0
M  V30 190 O 19.4071 0.679695 1.66674 0
M  V30 191 H 15.7821 0.514905 0.548066 0
M  V30 192 H 17.7531 2.57975 1.49971 0
M  V30 193 C 16.5021 1.69196 3.03756 0
M  V30 194 H 15.8251 2.55784 3.07269 0
M  V30 195 H 17.2651 1.83743 3.82119 0
M  V30 196 C 15.7241 0.430765 3.34135 0
M  V30 197 O 16.2541 -0.4561 3.99102 0
M  V30 198 N 14.4601 0.302293 2.89023 0
M  V30 199 H 14.0071 1.02496 2.36331 0
M  V30 200 H 13.9651 -0.540546 3.09718 0
M  V30 201 N 17.7372 -0.778329 1.37039 0
M  V30 202 C 18.9832 -1.53892 1.32079 0
M  V30 203 C 19.3162 -1.9396 -0.0965386 0
M  V30 204 O 18.5912 -1.63568 -1.05242 0
M  V30 205 C 18.8742 -2.80847 2.25382 0
M  V30 206 C 18.7272 -2.47076 3.75864 0
M  V30 207 C 20.0462 -3.82741 2.1725 0
M  V30 208 H 17.1652 -0.558303 0.48111 0
M  V30 209 H 19.8072 -0.893397 1.67685 0
M  V30 210 H 17.9572 -3.35931 1.95148 0
M  V30 211 H 19.6292 -1.97957 4.16666 0
M  V30 212 H 17.8722 -1.79863 3.94755 0
M  V30 213 H 18.5432 -3.37798 4.36574 0
M  V30 214 H 21.0192 -3.37133 2.43887 0
M  V30 215 H 19.8952 -4.69303 2.84686 0
M  V30 216 H 20.1562 -4.2652 1.16331 0
M  V30 217 N 19.2153 -1.21501 -1.00376 0
M  V30 218 C 20.1253 -0.991447 -2.12621 0
M  V30 219 C 21.1413 0.0568446 -1.73907 0
M  V30 220 O 22.3173 -0.13348 -2.00957 0
M  V30 221 C 19.3823 -0.560312 -3.42142 0
M  V30 222 C 18.4433 -1.68096 -3.95022 0
M  V30 223 C 17.6763 -1.2703 -5.18362 0
M  V30 224 O 17.8993 -0.144438 -5.70217 0
M  V30 225 O 16.8333 -2.08269 -5.64719 0
M  V30 226 H 20.6593 -1.93158 -2.34358 0
M  V30 227 H 18.2443 -0.999999 -1.10997 0
M  V30 228 H 20.1263 -0.329724 -4.20108 0
M  V30 229 H 18.8013 0.351089 -3.2179 0
M  V30 230 H 17.7083 -1.96597 -3.18278 0
M  V30 231 H 19.0413 -2.56983 -4.19786 0
M  V30 232 N 20.6934 1.19889 -1.02296 0
M  V30 233 C 21.9214 1.9339 -0.735399 0
M  V30 234 C 22.3364 1.75148 0.704887 0
M  V30 235 O 21.6934 1.06954 1.47875 0
M  V30 236 C 21.7444 3.45313 -1.06962 0
M  V30 237 O 21.4654 3.62964 -2.45334 0
M  V30 238 C 22.9664 4.35948 -0.804021 0
M  V30 239 H 20.1864 0.61448 -0.269546 0
M  V30 240 H 22.7304 1.522 -1.36585 0
M  V30 241 H 20.8854 3.84359 -0.484455 0
M  V30 242 H 21.2994 4.56886 -2.57595 0
M  V30 243 H 22.7734 5.41174 -1.0879 0
M  V30 244 H 23.2504 4.3842 0.261691 0
M  V30 245 H 23.8564 4.02574 -1.37164 0
M  V30 246 N 22.1715 0.800033 1.35784 0
M  V30 247 C 23.4175 0.377901 1.99248 0
M  V30 248 C 23.7505 -1.05052 1.63333 0
M  V30 249 O 23.0255 -1.72768 0.893385 0
M  V30 250 C 23.3085 0.553922 3.55814 0
M  V30 251 C 23.1615 2.0268 4.01548 0
M  V30 252 C 24.4805 -0.0244802 4.40093 0
M  V30 253 H 21.5995 0.138782 0.723815 0
M  V30 254 H 24.2415 1.00835 1.61035 0
M  V30 255 H 22.3915 0.0172398 3.88496 0
M  V30 256 H 24.0635 2.62536 3.79305 0
M  V30 257 H 22.3065 2.5256 3.52698 0
M  V30 258 H 22.9775 2.10087 5.10458 0
M  V30 259 H 25.4535 0.433775 4.13833 0
M  V30 260 H 24.3295 0.128637 5.48749 0
M  V30 261 H 24.5905 -1.11758 4.27741 0
M  V30 262 N 23.6496 -1.47581 0.552962 0
M  V30 263 C 24.6126 -2.28439 -0.186605 0
M  V30 264 C 25.6126 -1.36706 -0.84665 0
M  V30 265 O 26.8026 -1.59378 -0.703164 0
M  V30 266 C 23.9346 -3.16264 -1.2724 0
M  V30 267 H 25.1276 -2.95294 0.523609 0
M  V30 268 H 22.6806 -1.532 0.309745 0
M  V30 269 H 23.4156 -2.54091 -2.01514 0
M  V30 270 H 23.2006 -3.83769 -0.803968 0
M  V30 271 H 24.6906 -3.77198 -1.79196 0
M  V30 272 N 25.1277 -0.289203 -1.54924 0
M  V30 273 C 26.5437 0.0645403 -1.59469 0
M  V30 274 C 26.7437 1.53419 -1.30632 0
M  V30 275 O 25.7997 2.2852 -1.074 0
M  V30 276 C 27.1127 -0.32278 -2.98963 0
M  V30 277 C 28.6607 -0.270564 -3.11828 0
M  V30 278 C 29.1357 -0.632532 -4.53611 0
M  V30 279 N 30.6267 -0.584617 -4.59496 0
M  V30 280 C 31.3617 -0.837314 -5.67254 0
M  V30 281 N 30.8577 -1.15536 -6.83098 0
M  V30 282 N 32.6507 -0.765166 -5.56868 0
M  V30 283 H 24.8017 -1.24714 -1.71931 0
M  V30 284 H 27.0647 -0.504809 -0.802416 0
M  V30 285 H 26.7707 -1.34541 -3.24948 0
M  V30 286 H 26.6447 0.32944 -3.75759 0
M  V30 287 H 29.0317 0.742805 -2.85598 0
M  V30 288 H 29.1127 -0.957242 -2.37214 0
M  V30 289 H 28.7567 -1.64365 -4.80569 0
M  V30 290 H 28.6867 0.07609 -5.26545 0
M  V30 291 H 31.1777 -0.349248 -3.76283 0
M  V30 292 H 31.4907 -1.33447 -7.61191 0
M  V30 293 H 29.8357 -1.19328 -6.84679 0
M  V30 294 H 33.0267 -0.516432 -4.65243 0
M  V30 295 H 33.1997 -0.965477 -6.40767 0
M  V30 296 N 26.6058 1.57591 -0.0167156 0
M  V30 297 C 27.8308 1.9598 0.67872 0
M  V30 298 C 28.2558 0.892546 1.65575 0
M  V30 299 O 27.6138 -0.147772 1.80697 0
M  V30 300 C 27.6618 3.33468 1.37227 0
M  V30 301 O 26.7658 3.28954 2.48722 0
M  V30 302 H 26.1068 0.639339 0.17928 0
M  V30 303 H 28.6368 2.04463 -0.0748802 0
M  V30 304 H 28.6468 3.69417 1.7319 0
M  V30 305 H 27.3218 4.10694 0.656007 0
M  V30 306 H 25.8988 3.04705 2.14963 0
M  V30 307 N 28.0839 -0.256276 1.55502 0
M  V30 308 C 29.4999 -0.604325 1.47716 0
M  V30 309 C 29.6999 -1.88763 0.705039 0
M  V30 310 O 28.7559 -2.51445 0.230613 0
M  V30 311 C 30.0689 -0.715756 2.92057 0
M  V30 312 C 31.6169 -0.808706 3.02372 0
M  V30 313 C 32.0919 -0.951777 4.48001 0
M  V30 314 N 33.5829 -1.01688 4.519 0
M  V30 315 C 34.3179 -1.14668 5.61817 0
M  V30 316 N 33.8139 -1.24261 6.81565 0
M  V30 317 N 35.6069 -1.1791 5.49594 0
M  V30 318 H 27.7579 0.586291 2.04148 0
M  V30 319 H 30.0209 0.201015 0.926443 0
M  V30 320 H 29.7269 0.157027 3.51349 0
M  V30 321 H 29.6009 -1.59071 3.42018 0
M  V30 322 H 31.9879 -1.67195 2.43166 0
M  V30 323 H 32.0689 0.0912063 2.55637 0
M  V30 324 H 31.7129 -0.0931291 5.07815 0
M  V30 325 H 31.6429 -1.86659 4.92408 0
M  V30 326 H 34.1339 -0.954468 3.65648 0
M  V30 327 H 34.4469 -1.34046 7.61086 0
M  V30 328 H 32.7919 -1.21236 6.84344 0
M  V30 329 H 35.9829 -1.10057 4.54978 0
M  V30 330 H 36.1559 -1.27681 6.35296 0
M  V30 331 N 29.562 -1.4872 -0.521534 0
M  V30 332 C 30.492 -1.66771 -1.63431 0
M  V30 333 C 31.473 -0.516499 -1.62069 0
M  V30 334 O 32.658 -0.750013 -1.79132 0
M  V30 335 C 29.788 -1.71515 -3.01993 0
M  V30 336 C 28.742 -2.86222 -3.18216 0
M  V30 337 C 28.068 -2.76061 -4.57924 0
M  V30 338 C 29.368 -4.27419 -3.00184 0
M  V30 339 H 31.062 -2.59932 -1.48579 0
M  V30 340 H 28.608 -1.25089 -0.713358 0
M  V30 341 H 30.561 -1.82731 -3.7972 0
M  V30 342 H 29.285 -0.749393 -3.17886 0
M  V30 343 H 27.944 -2.74575 -2.42908 0
M  V30 344 H 27.592 -1.77437 -4.70665 0
M  V30 345 H 27.292 -3.53037 -4.69722 0
M  V30 346 H 28.816 -2.89256 -5.37739 0
M  V30 347 H 30.23 -4.39855 -3.67697 0
M  V30 348 H 28.627 -5.05458 -3.2347 0
M  V30 349 H 29.697 -4.43293 -1.96518 0
M  V30 350 N 31.0401 0.771051 -1.3745 0
M  V30 351 C 32.2871 1.52963 -1.32697 0
M  V30 352 C 32.6151 1.94299 0.0883274 0
M  V30 353 O 31.8701 1.64397 1.0617 0
M  V30 354 C 32.1691 2.80676 -2.2126 0
M  V30 355 C 31.8351 2.58389 -3.69521 0
M  V30 356 C 30.4971 2.52019 -4.09927 0
M  V30 357 C 32.8491 2.38469 -4.63446 0
M  V30 358 C 30.1771 2.23721 -5.42371 0
M  V30 359 C 32.5291 2.11694 -5.96128 0
M  V30 360 C 31.1931 2.03769 -6.35637 0
M  V30 361 H 30.4631 0.559732 -0.485573 0
M  V30 362 H 33.1101 0.888083 -1.69662 0
M  V30 363 H 31.4151 3.49392 -1.77291 0
M  V30 364 H 33.1121 3.38557 -2.14895 0
M  V30 365 H 29.7021 2.6421 -3.37478 0
M  V30 366 H 33.8861 2.4238 -4.33089 0
M  V30 367 H 29.1421 2.16081 -5.71943 0
M  V30 368 H 33.3161 1.9528 -6.6846 0
M  V30 369 H 30.9431 1.81606 -7.38189 0
M  V30 370 N 32.5182 1.22032 0.997298 0
M  V30 371 C 33.7462 1.06841 1.7718 0
M  V30 372 C 34.1612 -0.381325 1.84909 0
M  V30 373 O 33.5182 -1.26437 1.31605 0
M  V30 374 C 33.5692 1.66814 3.20711 0
M  V30 375 O 33.2902 3.06116 3.13408 0
M  V30 376 C 34.7912 1.56838 4.14628 0
M  V30 377 H 32.0112 0.374782 0.556578 0
M  V30 378 H 34.5552 1.61532 1.2541 0
M  V30 379 H 32.7102 1.16196 3.69564 0
M  V30 380 H 33.1242 3.34926 4.0364 0
M  V30 381 H 34.5982 2.03532 5.13107 0
M  V30 382 H 35.0752 0.524155 4.36061 0
M  V30 383 H 35.6812 2.06741 3.7167 0
M  V30 384 N 33.9963 -1.19345 1.0293 0
M  V30 385 C 35.2423 -1.89318 0.727083 0
M  V30 386 C 35.5753 -1.79446 -0.742483 0
M  V30 387 O 34.8503 -1.1871 -1.54072 0
M  V30 388 C 35.1333 -3.40238 1.17942 0
M  V30 389 C 34.9863 -3.58979 2.71024 0
M  V30 390 C 36.3053 -4.33479 0.760548 0
M  V30 391 H 33.4243 -0.687475 0.265606 0
M  V30 392 H 36.0663 -1.40477 1.2793 0
M  V30 393 H 34.2163 -3.81964 0.709608 0
M  V30 394 H 35.8883 -3.26421 3.25955 0
M  V30 395 H 34.1313 -3.02018 3.11396 0
M  V30 396 H 34.8023 -4.64823 2.9773 0
M  V30 397 H 37.2783 -3.99469 1.16464 0
M  V30 398 H 36.1543 -5.37664 1.10493 0
M  V30 399 H 36.4153 -4.40813 -0.337063 0
M  V30 400 N 35.4744 -0.807222 -1.35358 0
M  V30 401 C 36.3844 -0.219594 -2.3357 0
M  V30 402 C 37.4004 0.637734 -1.61892 0
M  V30 403 O 38.5764 0.549336 -1.93763 0
M  V30 404 C 35.6414 0.62158 -3.41083 0
M  V30 405 C 34.7024 -0.256315 -4.28534 0
M  V30 406 C 33.9354 0.544807 -5.30912 0
M  V30 407 O 34.1584 1.77944 -5.41934 0
M  V30 408 O 33.0924 -0.0646478 -6.01865 0
M  V30 409 H 36.9184 -1.03208 -2.85625 0
M  V30 410 H 34.5034 -0.569025 -1.38139 0
M  V30 411 H 36.3854 1.10067 -4.06772 0
M  V30 412 H 35.0604 1.41165 -2.91297 0
M  V30 413 H 33.9674 -0.782559 -3.65823 0
M  V30 414 H 35.3004 -1.01034 -4.81719 0
M  V30 415 N 36.9525 1.47285 -0.560781 0
M  V30 416 C 38.1775 2.07359 -0.0410566 0
M  V30 417 C 38.6025 1.41017 1.24483 0
M  V30 418 O 37.9605 0.486368 1.74654 0
M  V30 419 C 38.0085 3.6035 0.134123 0
M  V30 420 O 37.1125 3.94681 1.19587 0
M  V30 421 H 36.4535 0.661887 -0.0529291 0
M  V30 422 H 38.9835 1.89252 -0.777482 0
M  V30 423 H 38.9935 4.0652 0.347207 0
M  V30 424 H 37.6685 4.08034 -0.805047 0
M  V30 425 H 36.2455 3.60251 0.962987 0
M  V30 426 N 38.4306 0.297415 1.54768 0
M  V30 427 C 39.6766 -0.313376 2.00364 0
M  V30 428 C 40.0096 -1.53815 1.18553 0
M  V30 429 O 39.2846 -1.92739 0.261103 0
M  V30 430 C 39.5676 -0.673525 3.53745 0
M  V30 431 C 39.4206 0.560133 4.46299 0
M  V30 432 C 40.7396 -1.50143 4.13697 0
M  V30 433 H 37.8586 -0.112428 0.728374 0
M  V30 434 H 40.5006 0.4088 1.8555 0
M  V30 435 H 38.6506 -1.28881 3.665 0
M  V30 436 H 40.3226 1.19863 4.45455 0
M  V30 437 H 38.5656 1.19405 4.17043 0
M  V30 438 H 39.2366 0.26405 5.51368 0
M  V30 439 H 41.7126 -0.981588 4.04356 0
M  V30 440 H 40.5886 -1.72221 5.21182 0
M  V30 441 H 40.8496 -2.48952 3.65343 0
M  V30 442 N 39.9087 -1.5758 0.0250728 0
M  V30 443 C 41.1857 -1.82917 -0.692873 0
M  V30 444 C 41.5657 -0.908137 -1.90568 0
M  V30 445 O 40.9137 0.0372298 -2.2847 0
M  V30 446 C 41.1237 -3.32034 -1.07492 0
M  V30 447 C 42.4717 -3.98406 -1.46826 0
M  V30 448 O 43.4957 -3.36505 -1.16801 0
M  V30 449 O 42.3547 -5.07497 -2.02754 0
M  V30 450 H 39.4487 -0.754079 -0.33955 0
M  V30 451 H 41.9947 -1.69619 0.0524456 0
M  V30 452 H 40.7667 -3.90728 -0.211552 0
M  V30 453 H 40.3897 -3.50424 -1.87854 0
M  V30 454 N 41.3868 0.248026 -1.55636 0
M  V30 455 C 42.3168 1.31079 -1.93237 0
M  V30 456 C 43.2978 1.50264 -0.797174 0
M  V30 457 O 44.4828 1.62891 -1.05737 0
M  V30 458 C 41.6128 2.66575 -2.22609 0
M  V30 459 C 40.5668 2.62087 -3.3837 0
M  V30 460 C 39.8928 4.01369 -3.53281 0
M  V30 461 C 41.1928 2.19171 -4.7409 0
M  V30 462 H 42.8868 0.998556 -2.82257 0
M  V30 463 H 40.4328 0.47891 -1.35803 0
M  V30 464 H 42.3858 3.41057 -2.47503 0
M  V30 465 H 41.1098 2.99432 -1.30414 0
M  V30 466 H 39.7688 1.90063 -3.13483 0
M  V30 467 H 39.4168 4.31489 -2.58508 0
M  V30 468 H 39.1168 3.99254 -4.31127 0
M  V30 469 H 40.6408 4.77552 -3.80495 0
M  V30 470 H 42.0548 2.83384 -4.98363 0
M  V30 471 H 40.4518 2.2817 -5.5503 0
M  V30 472 H 41.5218 1.14336 -4.71227 0
M  V30 473 N 42.8649 1.48995 0.513639 0
M  V30 474 C 43.7749 1.67443 1.64317 0
M  V30 475 C 44.7909 0.556947 1.64846 0
M  V30 476 O 45.9669 0.830082 1.83498 0
M  V30 477 C 43.0319 1.72515 3.00732 0
M  V30 478 C 42.0929 2.96009 3.1093 0
M  V30 479 C 41.3259 3.00829 4.40837 0
M  V30 480 O 41.5489 2.13594 5.28898 0
M  V30 481 O 40.4829 3.93168 4.55744 0
M  V30 482 H 44.3089 2.63106 1.51687 0
M  V30 483 H 41.8939 1.32588 0.688543 0
M  V30 484 H 43.7759 1.78277 3.81831 0
M  V30 485 H 42.4509 0.800278 3.13651 0
M  V30 486 H 41.3579 2.9577 2.29065 0
M  V30 487 H 42.6909 3.87934 3.02933 0
M  V30 488 N 44.343 -0.763751 1.37857 0
M  V30 489 C 45.59 -1.52257 1.33506 0
M  V30 490 C 45.918 -1.94343 -0.078022 0
M  V30 491 O 45.173 -1.64958 -1.05297 0
M  V30 492 C 45.472 -2.79499 2.22745 0
M  V30 493 C 45.138 -2.56426 3.70886 0
M  V30 494 C 43.8 -2.49842 4.11257 0
M  V30 495 C 46.152 -2.36008 4.64704 0
M  V30 496 C 43.48 -2.20841 5.43549 0
M  V30 497 C 45.832 -2.0853 5.97242 0
M  V30 498 C 44.496 -2.00396 6.36709 0
M  V30 499 H 43.766 -0.557149 0.488534 0
M  V30 500 H 46.413 -0.879073 1.70131 0
M  V30 501 H 44.718 -3.48447 1.79142 0
M  V30 502 H 46.415 -3.37413 2.16688 0
M  V30 503 H 43.005 -2.62416 3.38874 0
M  V30 504 H 47.189 -2.40079 4.34368 0
M  V30 505 H 42.445 -2.13045 5.73081 0
M  V30 506 H 46.619 -1.91732 6.69486 0
M  V30 507 H 44.246 -1.77688 7.39142 0
M  V30 508 N 45.8211 -1.22559 -0.990812 0
M  V30 509 C 47.0461 -1.07862 -1.77145 0
M  V30 510 C 47.4711 0.366447 -1.84496 0
M  V30 511 O 46.8291 1.26478 -1.29896 0
M  V30 512 C 46.8771 -1.69686 -3.18181 0
M  V30 513 O 45.9811 -0.951946 -4.01263 0
M  V30 514 H 45.3221 -0.378712 -0.545411 0
M  V30 515 H 47.8521 -1.62399 -1.2445 0
M  V30 516 H 47.8621 -1.74496 -3.68802 0
M  V30 517 H 46.5371 -2.74841 -3.12146 0
M  V30 518 H 45.1141 -0.980011 -3.59792 0
M  V30 519 N 47.2992 1.18797 -1.03562 0
M  V30 520 C 48.2472 2.24297 -0.615905 0
M  V30 521 C 49.2412 1.65643 0.354808 0
M  V30 522 O 50.4472 1.78618 0.22265 0
M  V30 523 H 46.8222 0.729909 -0.180934 0
M  V30 524 H 48.7932 2.5701 -1.5162 0
M  V30 525 C 47.5422 3.47698 0.0104735 0
M  V30 526 H 46.8652 3.93125 -0.727509 0
M  V30 527 H 48.3052 4.23159 0.266995 0
M  V30 528 C 46.7642 3.12489 1.25905 0
M  V30 529 O 47.2942 3.25761 2.35038 0
M  V30 530 N 45.5002 2.6686 1.15039 0
M  V30 531 H 45.0472 2.56261 0.262328 0
M  V30 532 H 45.0052 2.43674 1.98672 0
M  V30 533 N 48.7773 0.814389 1.34928 0
M  V30 534 C 50.0253 0.397636 1.9815 0
M  V30 535 C 50.3463 -1.04069 1.64908 0
M  V30 536 O 49.6163 -1.72121 0.93548 0
M  V30 537 H 48.1963 0.144043 0.732981 0
M  V30 538 H 50.8583 1.04195 1.6471 0
M  V30 539 H 49.9543 0.509688 3.0791 0
M  V30 540 N 50.2554 -1.46986 0.568584 0
M  V30 541 C 51.5014 -2.02741 0.0488709 0
M  V30 542 C 51.8344 -1.44077 -1.30214 0
M  V30 543 O 51.1094 -0.600552 -1.84996 0
M  V30 544 C 51.3924 -3.60086 -0.032047 0
M  V30 545 C 51.2454 -4.29162 1.34686 0
M  V30 546 C 52.5644 -4.33838 -0.739798 0
M  V30 547 H 49.6834 -0.736749 0.0192338 0
M  V30 548 H 52.3254 -1.75289 0.733065 0
M  V30 549 H 50.4754 -3.83606 -0.61473 0
M  V30 550 H 52.1474 -4.16948 1.97362 0
M  V30 551 H 50.3904 -3.89073 1.91846 0
M  V30 552 H 51.0614 -5.37826 1.24285 0
M  V30 553 H 53.5374 -4.15378 -0.244939 0
M  V30 554 H 52.4134 -5.43537 -0.765406 0
M  V30 555 H 52.6744 -4.03875 -1.79827 0
M  V30 556 N 51.7335 -0.305618 -1.54608 0
M  V30 557 C 53.1495 0.0476228 -1.59529 0
M  V30 558 C 53.3495 1.52025 -1.32252 0
M  V30 559 O 52.4055 2.27368 -1.09818 0
M  V30 560 C 53.7185 -0.354471 -2.98603 0
M  V30 561 C 55.2665 -0.303622 -3.11524 0
M  V30 562 C 55.7415 -0.680608 -4.52915 0
M  V30 563 N 57.2325 -0.63332 -4.5885 0
M  V30 564 C 57.9675 -0.897432 -5.66334 0
M  V30 565 N 57.4635 -1.22775 -6.81834 0
M  V30 566 N 59.2565 -0.824186 -5.56025 0
M  V30 567 H 51.4075 -1.2653 -1.70599 0
M  V30 568 H 53.6705 -0.513291 -0.797017 0
M  V30 569 H 53.3765 -1.3798 -3.23503 0
M  V30 570 H 53.2505 0.289568 -3.76087 0
M  V30 571 H 55.6375 0.712472 -2.8637 0
M  V30 572 H 55.7185 -0.982348 -2.36185 0
M  V30 573 H 55.3625 -1.69453 -4.78799 0
M  V30 574 H 55.2925 0.0202385 -5.26596 0
M  V30 575 H 57.7835 -0.389138 -3.75891 0
M  V30 576 H 58.0965 -1.41513 -7.59733 0
M  V30 577 H 56.4415 -1.26583 -6.83375 0
M  V30 578 H 59.6325 -0.565748 -4.64669 0
M  V30 579 H 59.8055 -1.03338 -6.39707 0
M  V30 580 N 53.2116 1.57565 -0.0334293 0
M  V30 581 C 54.6276 1.56297 0.322997 0
M  V30 582 C 54.8276 1.03945 1.7262 0
M  V30 583 O 53.8836 0.688109 2.42943 0
M  V30 584 C 55.1966 3.00232 0.167664 0
M  V30 585 C 56.7446 3.12078 0.240107 0
M  V30 586 C 57.2196 4.57859 0.113513 0
M  V30 587 N 58.7106 4.62887 0.170359 0
M  V30 588 C 59.4456 5.73319 0.0962517 0
M  V30 589 N 58.9416 6.92794 -0.0291881 0
M  V30 590 N 60.7346 5.61898 0.150551 0
M  V30 591 H 52.8856 1.89923 -0.950956 0
M  V30 592 H 55.1486 0.873824 -0.367608 0
M  V30 593 H 54.8546 3.42501 -0.799102 0
M  V30 594 H 54.7286 3.654 0.936083 0
M  V30 595 H 57.1156 2.69718 1.19733 0
M  V30 596 H 57.1966 2.49623 -0.558763 0
M  V30 597 H 56.8406 5.009 -0.840314 0
M  V30 598 H 56.7706 5.18299 0.931302 0
M  V30 599 H 59.2616 3.76954 0.26728 0
M  V30 600 H 59.5746 7.7276 -0.0789252 0
M  V30 601 H 57.9196 6.94971 -0.0640299 0
M  V30 602 H 61.1106 4.67448 0.246981 0
M  V30 603 H 61.2836 6.47938 0.0893365 0
M  V30 604 N 54.6897 -0.239769 1.55765 0
M  V30 605 C 55.9357 -0.968234 1.78194 0
M  V30 606 C 56.2687 -1.84701 0.599938 0
M  V30 607 O 55.5437 -1.9031 -0.401524 0
M  V30 608 C 55.8267 -1.8227 3.10564 0
M  V30 609 C 55.6797 -0.971633 4.3918 0
M  V30 610 C 56.9987 -2.80388 3.39221 0
M  V30 611 H 54.1177 -0.350572 0.648281 0
M  V30 612 H 56.7597 -0.238259 1.885 0
M  V30 613 H 54.9097 -2.44507 3.01908 0
M  V30 614 H 56.5817 -0.367408 4.59835 0
M  V30 615 H 54.8247 -0.276276 4.32919 0
M  V30 616 H 55.4957 -1.60346 5.28198 0
M  V30 617 H 57.9717 -2.28287 3.47885 0
M  V30 618 H 56.8477 -3.3729 4.33044 0
M  V30 619 H 57.1087 -3.57212 2.60484 0
M  V30 620 N 56.1678 -1.49265 -0.50573 0
M  V30 621 C 57.3978 -1.61979 -1.28243 0
M  V30 622 C 57.8058 -0.288576 -1.86986 0
M  V30 623 O 57.1488 0.735408 -1.68337 0
M  V30 624 C 57.2108 -2.62632 -2.45489 0
M  V30 625 C 56.8748 -4.071 -2.07651 0
M  V30 626 C 57.8718 -4.94049 -1.61901 0
M  V30 627 C 55.5568 -4.52801 -2.17431 0
M  V30 628 C 57.5508 -6.24736 -1.26428 0
M  V30 629 C 55.2378 -5.83503 -1.8157 0
M  V30 630 C 56.2358 -6.69294 -1.36142 0
M  V30 631 O 55.9238 -7.9756 -1.00764 0
M  V30 632 H 55.6558 -0.54834 -0.395347 0
M  V30 633 H 58.2098 -1.96002 -0.614204 0
M  V30 634 H 56.4398 -2.2378 -3.15372 0
M  V30 635 H 58.1288 -2.64925 -3.07522 0
M  V30 636 H 58.8948 -4.5997 -1.53795 0
M  V30 637 H 54.7738 -3.86196 -2.51742 0
M  V30 638 H 58.3178 -6.91652 -0.908992 0
M  V30 639 H 54.2148 -6.17112 -1.89324 0
M  V30 640 H 54.9828 -8.10529 -1.13952 0
M  V30 641 N 57.6459 0.756429 -1.3826 0
M  V30 642 C 58.5559 1.9009 -1.37488 0
M  V30 643 C 59.5719 1.71855 -0.272366 0
M  V30 644 O 60.7479 1.94827 -0.510318 0
M  V30 645 C 57.8129 3.25421 -1.19592 0
M  V30 646 C 56.8739 3.56202 -2.39622 0
M  V30 647 C 56.1069 4.85075 -2.2257 0
M  V30 648 O 56.3299 5.57246 -1.21793 0
M  V30 649 O 55.2639 5.15269 -3.11098 0
M  V30 650 H 59.0899 1.93695 -2.33914 0
M  V30 651 H 56.6749 0.901313 -1.1915 0
M  V30 652 H 58.5569 4.06337 -1.11661 0
M  V30 653 H 57.2319 3.22634 -0.262486 0
M  V30 654 H 56.1389 2.75458 -2.53128 0
M  V30 655 H 57.4719 3.63747 -3.31586 0
M  V30 656 N 59.124 1.23083 0.984299 0
M  V30 657 C 60.54 0.992637 1.24975 0
M  V30 658 C 60.74 -0.308618 1.99123 0
M  V30 659 O 59.796 -1.02905 2.30579 0
M  V30 660 C 61.109 2.19698 2.05312 0
M  V30 661 C 62.657 2.24147 2.18465 0
M  V30 662 C 63.132 3.44157 3.02192 0
M  V30 663 N 64.623 3.44372 3.09777 0
M  V30 664 C 65.358 4.33886 3.74874 0
M  V30 665 N 64.854 5.3363 4.41827 0
M  V30 666 N 66.647 4.21639 3.71721 0
M  V30 667 H 58.798 2.06731 0.487453 0
M  V30 668 H 61.061 0.906339 0.277944 0
M  V30 669 H 60.767 3.1411 1.58201 0
M  V30 670 H 60.641 2.20465 3.06064 0
M  V30 671 H 63.028 1.30277 2.64786 0
M  V30 672 H 63.109 2.27415 1.17115 0
M  V30 673 H 62.753 4.38332 2.56568 0
M  V30 674 H 62.683 3.3813 4.03702 0
M  V30 675 H 65.174 2.72201 2.62135 0
M  V30 676 H 65.487 5.98196 4.89266 0
M  V30 677 H 63.832 5.37534 4.40548 0
M  V30 678 H 67.023 3.42962 3.18582 0
M  V30 679 H 67.196 4.91604 4.22173 0
M  V30 680 N 60.6021 -1.18246 1.0419 0
M  V30 681 C 61.5351 -2.20746 0.578474 0
M  V30 682 C 62.5131 -1.57912 -0.387624 0
M  V30 683 O 63.6971 -1.86071 -0.301634 0
M  V30 684 C 60.8241 -3.38346 -0.154762 0
M  V30 685 C 59.8701 -4.19587 0.764782 0
M  V30 686 S 60.7031 -4.86014 2.24835 0
M  V30 687 C 61.8591 -6.07012 1.526 0
M  V30 688 H 62.0921 -2.59715 1.44691 0
M  V30 689 H 59.6251 -1.287 0.85297 0
M  V30 690 H 61.5831 -4.065 -0.571641 0
M  V30 691 H 60.2441 -2.97786 -0.999105 0
M  V30 692 H 59.4371 -5.03611 0.197976 0
M  V30 693 H 59.0391 -3.56818 1.12057 0
M  V30 694 H 61.3311 -6.72523 0.819733 0
M  V30 695 H 62.2741 -6.68202 2.34333 0
M  V30 696 H 62.6821 -5.55249 1.01779 0
M  V30 697 N 62.0802 -0.821533 -1.34494 0
M  V30 698 C 63.4962 -0.507117 -1.51329 0
M  V30 699 C 63.6962 0.968964 -1.76673 0
M  V30 700 O 62.7522 1.75348 -1.81685 0
M  V30 701 C 64.0652 -1.36544 -2.67911 0
M  V30 702 C 65.6132 -1.36242 -2.81793 0
M  V30 703 C 66.0882 -2.2052 -4.01416 0
M  V30 704 N 67.5792 -2.18136 -4.08621 0
M  V30 705 C 68.3142 -2.80095 -5.00334 0
M  V30 706 N 67.8102 -3.51039 -5.9728 0
M  V30 707 N 69.6032 -2.69656 -4.93196 0
M  V30 708 H 61.7542 -1.77729 -1.16302 0
M  V30 709 H 64.0172 -0.757291 -0.570276 0
M  V30 710 H 63.7232 -2.41361 -2.55808 0
M  V30 711 H 63.5972 -1.02917 -3.62888 0
M  V30 712 H 65.9842 -0.322041 -2.93338 0
M  V30 713 H 66.0652 -1.73866 -1.87628 0
M  V30 714 H 65.7092 -3.24607 -3.90631 0
M  V30 715 H 65.6392 -1.80247 -4.94791 0
M  V30 716 H 68.1302 -1.6653 -3.39229 0
M  V30 717 H 68.4432 -3.95565 -6.63889 0
M  V30 718 H 66.7882 -3.55145 -5.97409 0
M  V30 719 H 69.9792 -2.13808 -4.16418 0
M  V30 720 H 70.1522 -3.1823 -5.64476 0
M  V30 721 N 63.5583 1.46682 -0.576371 0
M  V30 722 C 64.9693 1.86112 -0.148091 0
M  V30 723 C 65.3203 1.48073 1.2872 0
M  V30 724 O 64.4453 0.892656 1.97131 0
M  V30 725 C 65.0403 3.37786 -0.261982 0
M  V30 726 C 63.5993 3.76235 0.111384 0
M  V30 727 C 62.7463 2.70713 -0.60083 0
M  V30 728 H 65.6973 1.37927 -0.78497 0
M  V30 729 H 65.7183 3.77007 0.514364 0
M  V30 730 H 65.2303 3.6544 -1.30671 0
M  V30 731 H 63.3313 3.54198 1.15649 0
M  V30 732 H 63.4443 4.78391 -0.26052 0
M  V30 733 H 61.8083 2.54666 -0.0417783 0
M  V30 734 H 62.5913 3.01208 -1.64708 0
M  V30 735 N 65.0364 0.313813 1.54444 0
M  V30 736 C 66.2644 -0.293918 2.04802 0
M  V30 737 C 66.6794 -1.46537 1.19047 0
M  V30 738 O 66.0364 -1.81182 0.218939 0
M  V30 739 C 66.0874 -0.737806 3.53891 0
M  V30 740 O 65.8084 0.387038 4.36387 0
M  V30 741 C 67.3094 -1.40936 4.203 0
M  V30 742 H 64.5294 -0.0620057 0.668129 0
M  V30 743 H 67.0734 0.457169 1.99324 0
M  V30 744 H 65.2284 -1.43889 3.59687 0
M  V30 745 H 65.6424 0.0391274 5.24485 0
M  V30 746 H 67.1164 -1.67099 5.26101 0
M  V30 747 H 67.5934 -2.35355 3.70816 0
M  V30 748 H 68.1994 -0.751117 4.18615 0
M  V30 749 N 66.5145 -1.57545 0.0417849 0
M  V30 750 C 67.4625 -2.12148 -0.953723 0
M  V30 751 C 68.4565 -1.05104 -1.32852 0
M  V30 752 O 69.6625 -1.23524 -1.30927 0
M  V30 753 H 66.0375 -0.677957 -0.325389 0
M  V30 754 H 68.0085 -2.94707 -0.467991 0
M  V30 755 C 66.7575 -2.6739 -2.22257 0
M  V30 756 H 66.0805 -3.49413 -1.94295 0
M  V30 757 H 67.5205 -3.09227 -2.90094 0
M  V30 758 C 65.9795 -1.60723 -2.96091 0
M  V30 759 O 66.5095 -1.01449 -3.88679 0
M  V30 760 N 64.7155 -1.32466 -2.58652 0
M  V30 761 H 64.2625 -1.80856 -1.83437 0
M  V30 762 H 64.2205 -0.61325 -3.08361 0
M  V30 763 N 67.9926 0.231505 -1.5589 0
M  V30 764 C 69.4086 0.580748 -1.48659 0
M  V30 765 C 69.6086 1.87617 -0.73498 0
M  V30 766 O 68.6646 2.51046 -0.270586 0
M  V30 767 C 69.9776 0.669202 -2.93159 0
M  V30 768 C 71.5256 0.760499 -3.03621 0
M  V30 769 C 72.0006 0.880383 -4.49459 0
M  V30 770 N 73.4916 0.944861 -4.53461 0
M  V30 771 C 74.2266 1.05716 -5.63571 0
M  V30 772 N 73.7226 1.13403 -6.83456 0
M  V30 773 N 75.5156 1.09152 -5.514 0
M  V30 774 H 67.6666 -0.618695 -2.03189 0
M  V30 775 H 69.9296 -0.215728 -0.923128 0
M  V30 776 H 69.6356 -0.212904 -3.51055 0
M  V30 777 H 69.5096 1.5361 -3.44505 0
M  V30 778 H 71.8966 1.63305 -2.45796 0
M  V30 779 H 71.9776 -0.131864 -2.5546 0
M  V30 780 H 71.6216 0.0123284 -5.07899 0
M  V30 781 H 71.5516 1.78802 -4.95316 0
M  V30 782 H 74.0426 0.896176 -3.6712 0
M  V30 783 H 74.3556 1.21921 -7.63122 0
M  V30 784 H 72.7006 1.10333 -6.86186 0
M  V30 785 H 75.8916 1.02805 -4.56671 0
M  V30 786 H 76.0646 1.17558 -6.37247 0
M  V30 787 N 69.4707 1.49531 0.497807 0
M  V30 788 C 70.3807 1.69176 1.62532 0
M  V30 789 C 71.3967 0.5744 1.64246 0
M  V30 790 O 72.5727 0.849497 1.82608 0
M  V30 791 C 69.6377 1.75695 2.98885 0
M  V30 792 C 68.6987 2.9929 3.07773 0
M  V30 793 C 67.9317 3.05488 4.37622 0
M  V30 794 O 68.1547 2.19192 5.26603 0
M  V30 795 O 67.0887 3.9798 4.51548 0
M  V30 796 H 70.9147 2.647 1.48887 0
M  V30 797 H 68.4997 1.3331 0.674441 0
M  V30 798 H 70.3817 1.82317 3.79919 0
M  V30 799 H 69.0567 0.8335 3.12785 0
M  V30 800 H 67.9637 2.98183 2.25915 0
M  V30 801 H 69.2967 3.91125 2.98801 0
M  V30 802 N 70.9488 -0.749086 1.3866 0
M  V30 803 C 71.9118 -1.84457 1.36045 0
M  V30 804 C 72.9118 -1.58682 0.260122 0
M  V30 805 O 74.1018 -1.66343 0.517261 0
M  V30 806 C 71.2338 -3.22008 1.11911 0
M  V30 807 H 72.4268 -1.88182 2.33512 0
M  V30 808 H 69.9798 -0.951266 1.24019 0
M  V30 809 H 70.7148 -3.2395 0.150686 0
M  V30 810 H 70.4998 -3.42111 1.91579 0
M  V30 811 H 71.9898 -4.0208 1.12788 0
M  V30 812 N 72.4269 -1.23603 -0.977757 0
M  V30 813 C 73.6729 -1.07129 -1.72195 0
M  V30 814 C 74.0059 0.390501 -1.90233 0
M  V30 815 O 73.2809 1.28902 -1.45653 0
M  V30 816 C 73.5639 -1.80031 -3.11867 0
M  V30 817 C 73.4169 -3.33899 -3.01383 0
M  V30 818 C 74.7359 -1.56492 -4.11337 0
M  V30 819 H 71.8549 -0.390571 -0.624999 0
M  V30 820 H 74.4969 -1.52142 -1.13811 0
M  V30 821 H 72.6469 -1.41768 -3.6171 0
M  V30 822 H 74.3189 -3.81699 -2.59043 0
M  V30 823 H 72.5619 -3.62796 -2.37827 0
M  V30 824 H 73.2329 -3.801 -4.00285 0
M  V30 825 H 75.7089 -1.89757 -3.70313 0
M  V30 826 H 74.5849 -2.09973 -5.07151 0
M  V30 827 H 74.8459 -0.500874 -4.39254 0
M  V30 828 N 73.905 1.17692 -1.04816 0
M  V30 829 C 74.838 2.20436 -0.590173 0
M  V30 830 C 75.816 1.58115 0.379244 0
M  V30 831 O 77 1.86228 0.291762 0
M  V30 832 C 74.127 3.38424 0.136817 0
M  V30 833 C 73.173 4.19176 -0.787023 0
M  V30 834 S 74.006 4.84815 -2.27409 0
M  V30 835 C 75.162 6.06195 -1.55817 0
M  V30 836 H 75.395 2.58944 -1.46067 0
M  V30 837 H 72.928 1.28246 -0.859784 0
M  V30 838 H 74.886 4.06798 0.550076 0
M  V30 839 H 73.547 2.98312 0.983299 0
M  V30 840 H 72.74 5.03499 -0.224681 0
M  V30 841 H 72.342 3.56219 -1.13947 0
M  V30 842 H 74.634 6.72078 -0.855387 0
M  V30 843 H 75.577 6.6695 -2.37873 0
M  V30 844 H 75.985 5.54701 -1.04722 0
M  V30 845 N 75.3831 0.828654 1.34056 0
M  V30 846 C 76.6321 0.415828 1.97367 0
M  V30 847 C 76.9451 -1.02796 1.6641 0
M  V30 848 O 78.1511 -1.54497 2.23255 0
M  V30 849 C 76.6071 0.692601 3.53173 0
M  V30 850 C 76.2151 2.15038 3.93017 0
M  V30 851 C 77.9591 0.346222 4.23086 0
M  V30 852 C 75.8661 2.37174 5.41758 0
M  V30 853 H 74.7961 0.151755 0.738571 0
M  V30 854 H 77.4471 1.01581 1.52819 0
M  V30 855 H 75.8291 0.0223764 3.95994 0
M  V30 856 H 77.0031 2.86024 3.61285 0
M  V30 857 H 75.3181 2.45875 3.36057 0
M  V30 858 H 77.9151 0.48937 5.32456 0
M  V30 859 H 78.2581 -0.709842 4.10204 0
M  V30 860 H 78.7911 0.971258 3.85761 0
M  V30 861 H 75.5301 3.41308 5.59633 0
M  V30 862 H 75.0501 1.70738 5.74986 0
M  V30 863 H 76.7291 2.19818 6.08514 0
M  V30 864 N 76.8612 -1.46375 0.584142 0
M  V30 865 C 78.1072 -2.02678 0.0703716 0
M  V30 866 C 78.4402 -1.4545 -1.28678 0
M  V30 867 O 77.7152 -0.62014 -1.84349 0
M  V30 868 C 77.9982 -3.60099 0.00614674 0
M  V30 869 C 77.8512 -4.27709 1.3923 0
M  V30 870 C 79.1702 -4.34598 -0.693742 0
M  V30 871 H 76.2892 -0.736504 0.027047 0
M  V30 872 H 78.9312 -1.74501 0.751615 0
M  V30 873 H 77.0812 -3.84236 -0.574009 0
M  V30 874 H 78.7532 -4.14832 2.01773 0
M  V30 875 H 76.9962 -3.87016 1.95962 0
M  V30 876 H 77.6672 -5.36478 1.29982 0
M  V30 877 H 80.1432 -4.15615 -0.200869 0
M  V30 878 H 79.0192 -5.44318 -0.707714 0
M  V30 879 H 79.2802 -4.05759 -1.75533 0
M  V30 880 N 78.3393 -0.321999 -1.54275 0
M  V30 881 C 79.7503 0.166384 -1.85957 0
M  V30 882 C 80.1013 1.51747 -1.24367 0
M  V30 883 O 79.2263 2.09317 -0.549124 0
M  V30 884 C 79.8213 0.308681 -3.37391 0
M  V30 885 C 78.3803 0.741286 -3.69028 0
M  V30 886 C 77.5273 -0.137937 -2.76957 0
M  V30 887 H 80.4783 -0.542335 -1.49146 0
M  V30 888 H 80.4993 1.13984 -3.63026 0
M  V30 889 H 80.0113 -0.674809 -3.82188 0
M  V30 890 H 78.1123 1.73458 -3.29762 0
M  V30 891 H 78.2253 0.546118 -4.75977 0
M  V30 892 H 76.5893 0.386251 -2.51754 0
M  V30 893 H 77.3723 -1.11816 -3.2458 0
M  V30 894 N 79.8174 1.5752 -0.0501392 0
M  V30 895 C 81.0664 1.91827 0.623328 0
M  V30 896 C 81.3794 0.930222 1.72065 0
M  V30 897 O 82.5854 1.1653 2.4522 0
M  V30 898 C 81.0414 3.40692 1.16003 0
M  V30 899 C 80.6494 4.479 0.0948811 0
M  V30 900 C 82.3934 3.84034 1.80881 0
M  V30 901 C 80.3004 5.87879 0.644411 0
M  V30 902 H 79.2304 0.715918 0.236596 0
M  V30 903 H 81.8814 1.83115 -0.118861 0
M  V30 904 H 80.2634 3.44405 1.9545 0
M  V30 905 H 81.4374 4.55775 -0.678675 0
M  V30 906 H 79.7524 4.13892 -0.45637 0
M  V30 907 H 82.3494 4.85984 2.22988 0
M  V30 908 H 82.6924 3.20225 2.6601 0
M  V30 909 H 83.2254 3.82833 1.0809 0
M  V30 910 H 79.9644 6.55282 -0.169229 0
M  V30 911 H 79.4844 5.83567 1.38598 0
M  V30 912 H 81.1634 6.37098 1.12763 0
M  V30 913 N 81.2955 -0.223234 1.56011 0
M  V30 914 C 82.5415 -0.949279 1.79211 0
M  V30 915 C 82.8745 -1.84054 0.619494 0
M  V30 916 O 82.1495 -1.90726 -0.381317 0
M  V30 917 C 82.4325 -1.78965 3.12479 0
M  V30 918 C 82.2855 -0.924997 4.40186 0
M  V30 919 C 83.6045 -2.76774 3.42175 0
M  V30 920 H 80.7235 -0.343676 0.651963 0
M  V30 921 H 83.3655 -0.218253 1.88742 0
M  V30 922 H 81.5155 -2.41291 3.04485 0
M  V30 923 H 83.1875 -0.318615 4.60198 0
M  V30 924 H 81.4305 -0.230344 4.33188 0
M  V30 925 H 82.1015 -1.54735 5.29869 0
M  V30 926 H 84.5775 -2.24584 3.50287 0
M  V30 927 H 83.4535 -3.32678 4.36597 0
M  V30 928 H 83.7145 -3.54429 2.64258 0
M  V30 929 N 82.7736 -1.49793 -0.48987 0
M  V30 930 C 84.0506 -1.50348 -1.25119 0
M  V30 931 C 84.4306 -0.237466 -2.0976 0
M  V30 932 O 83.7786 0.77981 -2.14782 0
M  V30 933 C 83.9886 -2.78872 -2.09837 0
M  V30 934 C 85.3366 -3.288 -2.68655 0
M  V30 935 O 86.3606 -2.80065 -2.20096 0
M  V30 936 O 85.2196 -4.13707 -3.57083 0
M  V30 937 H 82.3136 -0.602242 -0.566775 0
M  V30 938 H 84.8596 -1.62067 -0.503229 0
M  V30 939 H 83.6316 -3.62499 -1.47343 0
M  V30 940 H 83.2546 -2.70066 -2.91805 0
M  V30 941 N 84.2517 0.741722 -1.39055 0
M  V30 942 C 85.5287 1.49252 -1.26425 0
M  V30 943 C 85.9087 2.10705 0.129144 0
M  V30 944 O 85.2567 1.98045 1.13976 0
M  V30 945 C 85.4667 2.54934 -2.38347 0
M  V30 946 C 86.8147 3.21506 -2.77343 0
M  V30 947 O 87.8387 2.65245 -2.37747 0
M  V30 948 O 86.6977 4.23294 -3.45665 0
M  V30 949 H 83.7917 0.662451 -0.495064 0
M  V30 950 H 86.3377 0.776121 -1.50912 0
M  V30 951 H 85.1097 2.07857 -3.31529 0
M  V30 952 H 84.7327 3.34141 -2.15489 0
M  V30 953 N 85.7298 1.2412 0.971189 0
M  V30 954 C 86.6798 0.997551 2.05019 0
M  V30 955 C 87.6638 -0.0597747 1.60789 0
M  V30 956 O 88.8558 0.153516 1.76333 0
M  V30 957 C 85.9848 0.600557 3.38006 0
M  V30 958 C 85.0708 1.69377 3.88809 0
M  V30 959 N 85.4618 2.92586 4.12586 0
M  V30 960 C 83.7598 1.57048 4.17435 0
M  V30 961 C 84.4608 3.63431 4.54195 0
M  V30 962 N 83.4368 2.90979 4.59165 0
M  V30 963 H 87.2388 1.93316 2.21374 0
M  V30 964 H 84.7528 1.14194 1.1547 0
M  V30 965 H 86.7498 0.40725 4.14906 0
M  V30 966 H 85.4098 -0.327903 3.2304 0
M  V30 967 H 86.4208 3.288 4.00139 0
M  V30 968 H 83.0978 0.709798 4.11422 0
M  V30 969 H 84.4878 4.69102 4.81033 0
M  V30 970 N 87.2079 -1.17134 1.05439 0
M  V30 971 C 88.1379 -2.2342 0.678649 0
M  V30 972 C 89.1189 -1.66971 -0.32476 0
M  V30 973 O 90.3039 -1.93149 -0.201802 0
M  V30 974 C 87.4339 -3.47256 0.0552099 0
M  V30 975 C 86.3879 -4.16543 0.98365 0
M  V30 976 C 85.7139 -5.34231 0.223961 0
M  V30 977 C 87.0139 -4.68495 2.3089 0
M  V30 978 H 88.7079 -2.55105 1.56722 0
M  V30 979 H 86.2539 -1.2262 0.754998 0
M  V30 980 H 88.2069 -4.20828 -0.21946 0
M  V30 981 H 86.9309 -3.14846 -0.868319 0
M  V30 982 H 85.5899 -3.44887 1.24293 0
M  V30 983 H 85.2379 -4.98071 -0.702412 0
M  V30 984 H 84.9379 -5.81527 0.842627 0
M  V30 985 H 86.4619 -6.10585 -0.0433671 0
M  V30 986 H 87.8759 -5.33691 2.09396 0
M  V30 987 H 86.2729 -5.26379 2.88176 0
M  V30 988 H 87.3429 -3.85169 2.94572 0
M  V30 989 N 88.686 -0.835752 -1.33615 0
M  V30 990 C 89.935 -0.426289 -1.97144 0
M  V30 991 C 90.248 1.01912 -1.66953 0
M  V30 992 O 91.454 1.53311 -2.24072 0
M  V30 993 C 89.91 -0.711321 -3.52801 0
M  V30 994 C 89.518 -2.1712 -3.91871 0
M  V30 995 C 91.262 -0.368654 -4.22896 0
M  V30 996 C 89.169 -2.40044 -5.40493 0
M  V30 997 H 88.099 -0.15567 -0.737755 0
M  V30 998 H 90.75 -1.0239 -1.52278 0
M  V30 999 H 89.132 -0.0433766 -3.95976 0
M  V30 1000 H 90.306 -2.87936 -3.59763 0
M  V30 1001 H 88.621 -2.47654 -3.34749 0
M  V30 1002 H 91.218 -0.517601 -5.32189 0
M  V30 1003 H 91.561 0.688078 -4.10574 0
M  V30 1004 H 92.094 -0.991702 -3.8524 0
M  V30 1005 H 88.833 -3.44271 -5.57815 0
M  V30 1006 H 88.353 -1.73785 -5.74072 0
M  V30 1007 H 90.032 -2.23042 -6.0734 0
M  V30 1008 N 90.1641 1.46063 -0.591896 0
M  V30 1009 C 91.0941 2.33172 0.123673 0
M  V30 1010 C 92.0751 1.45897 0.87453 0
M  V30 1011 O 93.2601 1.74698 0.848181 0
M  V30 1012 C 90.3901 3.28336 1.13194 0
M  V30 1013 C 89.3441 4.25124 0.495324 0
M  V30 1014 C 88.6701 5.09863 1.61071 0
M  V30 1015 C 89.9701 5.19143 -0.573425 0
M  V30 1016 H 91.6641 2.93252 -0.603646 0
M  V30 1017 H 89.2101 1.41014 -0.291741 0
M  V30 1018 H 91.1631 3.88137 1.64097 0
M  V30 1019 H 89.8871 2.66383 1.88965 0
M  V30 1020 H 88.5461 3.66599 0.00729452 0
M  V30 1021 H 88.1941 4.44288 2.35832 0
M  V30 1022 H 87.8941 5.75417 1.19035 0
M  V30 1023 H 89.4181 5.72529 2.12233 0
M  V30 1024 H 90.8321 5.73106 -0.1491 0
M  V30 1025 H 89.2291 5.93089 -0.914636 0
M  V30 1026 H 90.2991 4.62519 -1.45617 0
M  V30 1027 N 91.6422 0.330177 1.54103 0
M  V30 1028 C 92.8912 -0.271336 1.99867 0
M  V30 1029 C 93.2042 -1.52723 1.22209 0
M  V30 1030 O 94.4102 -2.20515 1.58383 0
M  V30 1031 C 92.8662 -0.534032 3.55916 0
M  V30 1032 C 92.4742 0.705193 4.42415 0
M  V30 1033 C 94.2182 -1.09514 4.1013 0
M  V30 1034 C 92.1252 0.414035 5.89949 0
M  V30 1035 H 91.0552 -0.105166 0.74663 0
M  V30 1036 H 93.7062 0.443429 1.78062 0
M  V30 1037 H 92.0882 -1.30915 3.73734 0
M  V30 1038 H 93.2622 1.4804 4.36372 0
M  V30 1039 H 91.5772 1.18698 3.99124 0
M  V30 1040 H 94.1742 -1.3277 5.17954 0
M  V30 1041 H 94.5172 -2.04656 3.62521 0
M  V30 1042 H 95.0502 -0.381038 3.95971 0
M  V30 1043 H 91.7892 1.33481 6.41766 0
M  V30 1044 H 91.3092 -0.323336 5.98928 0
M  V30 1045 H 92.9882 0.0263105 6.46995 0
M  V30 1046 N 93.1203 -1.57491 0.0584922 0
M  V30 1047 C 94.5363 -1.56792 -0.298091 0
M  V30 1048 C 94.7363 -1.06679 -1.70944 0
M  V30 1049 O 93.7923 -0.726672 -2.41818 0
M  V30 1050 C 95.1053 -3.00461 -0.119879 0
M  V30 1051 C 96.6533 -3.1242 -0.190428 0
M  V30 1052 C 97.1283 -4.57982 -0.0406567 0
M  V30 1053 N 98.6193 -4.63099 -0.0966958 0
M  V30 1054 C 99.3543 -5.734 -0.00502943 0
M  V30 1055 N 98.8503 -6.9266 0.139402 0
M  V30 1056 N 100.643 -5.62067 -0.0611391 0
M  V30 1057 H 92.7943 -1.88386 0.98105 0
M  V30 1058 H 95.0573 -0.867865 0.381463 0
M  V30 1059 H 94.7633 -3.41187 0.85349 0
M  V30 1060 H 94.6373 -3.66843 -0.877833 0
M  V30 1061 H 97.0243 -2.71589 -1.15427 0
M  V30 1062 H 97.1053 -2.48702 0.598405 0
M  V30 1063 H 96.7493 -4.995 0.919897 0
M  V30 1064 H 96.6793 -5.19715 -0.848727 0
M  V30 1065 H 99.1703 -3.77331 -0.207277 0
M  V30 1066 H 99.4833 -7.72536 0.201855 0
M  V30 1067 H 97.8283 -6.94781 0.174586 0
M  V30 1068 H 101.019 -4.67782 -0.172583 0
M  V30 1069 H 101.192 -6.47999 0.0137562 0
M  V30 1070 N 94.5984 0.214957 -1.56127 0
M  V30 1071 C 95.5084 1.28727 -1.96129 0
M  V30 1072 C 96.5244 1.50916 -0.866044 0
M  V30 1073 O 97.7004 1.63918 -1.17016 0
M  V30 1074 C 94.7654 2.61569 -2.27558 0
M  V30 1075 C 93.8264 2.47625 -3.50685 0
M  V30 1076 C 93.0594 3.74132 -3.80606 0
M  V30 1077 O 93.2824 4.77438 -3.12104 0
M  V30 1078 O 92.2164 3.70849 -4.74083 0
M  V30 1079 H 96.0424 0.977855 -2.87527 0
M  V30 1080 H 93.6274 0.418358 -1.43423 0
M  V30 1081 H 95.5094 3.40012 -2.48938 0
M  V30 1082 H 94.1844 2.92178 -1.39332 0
M  V30 1083 H 93.0914 1.67361 -3.34576 0
M  V30 1084 H 94.4244 2.21954 -4.39315 0
M  V30 1085 N 96.0765 1.50051 0.48192 0
M  V30 1086 C 97.3065 1.63999 1.2565 0
M  V30 1087 C 97.7145 0.318288 1.86504 0
M  V30 1088 O 97.0575 -0.708534 1.69486 0
M  V30 1089 C 97.1195 2.66504 2.4128 0
M  V30 1090 C 96.7835 4.10352 2.01148 0
M  V30 1091 C 97.7805 4.96562 1.54021 0
M  V30 1092 C 95.4655 4.56203 2.10199 0
M  V30 1093 C 97.4595 6.26668 1.16473 0
M  V30 1094 C 95.1465 5.86318 1.72264 0
M  V30 1095 C 96.1445 6.71375 1.25477 0
M  V30 1096 O 95.8325 7.99062 0.880626 0
M  V30 1097 H 95.5645 0.55456 0.386574 0
M  V30 1098 H 98.1185 1.96954 0.582944 0
M  V30 1099 H 96.3485 2.28769 3.11772 0
M  V30 1100 H 98.0375 2.69783 3.03268 0
M  V30 1101 H 98.8035 4.62358 1.46458 0
M  V30 1102 H 94.6825 3.90152 2.45566 0
M  V30 1103 H 98.2265 6.93011 0.798841 0
M  V30 1104 H 94.1235 6.20046 1.79482 0
M  V30 1105 H 94.8915 8.12239 1.01043 0
M  V30 1106 N 97.5546 -0.734337 1.39446 0
M  V30 1107 C 98.5176 -1.83004 1.37994 0
M  V30 1108 C 99.5176 -1.58397 0.276938 0
M  V30 1109 O 100.708 -1.65785 0.534875 0
M  V30 1110 C 97.8396 -3.20802 1.1532 0
M  V30 1111 H 99.0326 -1.85694 2.35494 0
M  V30 1112 H 96.5856 -0.938059 1.25021 0
M  V30 1113 H 97.3206 -3.23772 0.185036 0
M  V30 1114 H 97.1056 -3.4006 1.95197 0
M  V30 1115 H 98.5956 -4.00862 1.17046 0
M  V30 1116 N 99.0327 -1.24633 -0.964593 0
M  V30 1117 C 100.279 -1.08949 -1.71049 0
M  V30 1118 C 100.612 0.370302 -1.90637 0
M  V30 1119 O 99.8867 1.27349 -1.47011 0
M  V30 1120 C 100.17 -1.83329 -3.0994 0
M  V30 1121 C 100.023 -3.37077 -2.97824 0
M  V30 1122 C 101.342 -1.60846 -4.09654 0
M  V30 1123 H 98.4607 -0.397178 -0.620821 0
M  V30 1124 H 101.103 -1.5334 -1.12191 0
M  V30 1125 H 99.2527 -1.45597 -3.60186 0
M  V30 1126 H 100.925 -3.84425 -2.5498 0
M  V30 1127 H 99.1677 -3.65298 -2.33965 0
M  V30 1128 H 99.8387 -3.84324 -3.96231 0
M  V30 1129 H 102.315 -1.93674 -3.68279 0
M  V30 1130 H 101.191 -2.1534 -5.04896 0
M  V30 1131 H 101.452 -0.547434 -4.38698 0
M  V30 1132 N 100.511 1.16574 -1.06058 0
M  V30 1133 C 101.759 1.86677 -0.77434 0
M  V30 1134 C 102.08 1.81959 0.701147 0
M  V30 1135 O 101.35 1.2515 1.50713 0
M  V30 1136 H 99.9298 0.691134 -0.283449 0
M  V30 1137 H 102.592 1.41378 -1.34158 0
M  V30 1138 H 101.688 2.92181 -1.09711 0
M  V30 1139 N 101.989 0.842826 1.3317 0
M  V30 1140 C 103.217 0.454055 2.01856 0
M  V30 1141 C 103.632 -0.94587 1.63397 0
M  V30 1142 O 102.989 -1.61534 0.849302 0
M  V30 1143 C 103.04 0.569715 3.56982 0
M  V30 1144 O 102.761 1.91448 3.94055 0
M  V30 1145 C 104.262 0.178412 4.42941 0
M  V30 1146 H 101.482 0.17979 0.646465 0
M  V30 1147 H 104.026 1.1365 1.70012 0
M  V30 1148 H 102.181 -0.0648587 3.87346 0
M  V30 1149 H 102.595 1.90282 4.88767 0
M  V30 1150 H 104.069 0.310376 5.51127 0
M  V30 1151 H 104.546 -0.880056 4.30293 0
M  V30 1152 H 105.152 0.787579 4.17944 0
M  V30 1153 N 103.467 -1.45747 0.599634 0
M  V30 1154 C 104.377 -2.34262 -0.125888 0
M  V30 1155 C 105.393 -1.50768 -0.868625 0
M  V30 1156 O 106.569 -1.83592 -0.828003 0
M  V30 1157 C 103.634 -3.28252 -1.11587 0
M  V30 1158 C 102.695 -4.27651 -0.375956 0
M  V30 1159 C 101.928 -5.1715 -1.31877 0
M  V30 1160 O 102.151 -5.09916 -2.55621 0
M  V30 1161 O 101.085 -5.96286 -0.820157 0
M  V30 1162 H 104.911 -2.97688 0.601315 0
M  V30 1163 H 102.496 -1.44999 0.359934 0
M  V30 1164 H 104.378 -3.86191 -1.68626 0
M  V30 1165 H 103.053 -2.67401 -1.82424 0
M  V30 1166 H 101.96 -3.7335 0.236698 0
M  V30 1167 H 103.293 -4.91334 0.29177 0
M  V30 1168 N 104.945 -0.338344 -1.53925 0
M  V30 1169 C 106.17 0.263987 -2.05713 0
M  V30 1170 C 106.595 1.43847 -1.21201 0
M  V30 1171 O 105.953 1.79904 -0.224535 0
M  V30 1172 C 106.001 0.662 -3.54471 0
M  V30 1173 O 105.105 1.76265 -3.72833 0
M  V30 1174 H 104.446 0.0448722 -0.662482 0
M  V30 1175 H 106.976 -0.491048 -1.9862 0
M  V30 1176 H 106.986 0.940594 -3.9701 0
M  V30 1177 H 105.661 -0.196937 -4.15433 0
M  V30 1178 H 104.238 1.48173 -3.42198 0
M  V30 1179 N 106.423 1.57458 -0.0668435 0
M  V30 1180 C 107.653 1.97337 0.611677 0
M  V30 1181 C 108.061 0.943744 1.63982 0
M  V30 1182 O 107.404 -0.0785584 1.83532 0
M  V30 1183 C 107.466 3.33511 1.34205 0
M  V30 1184 C 107.13 4.54598 0.467941 0
M  V30 1185 C 108.127 5.19186 -0.272439 0
M  V30 1186 C 105.812 5.0075 0.39427 0
M  V30 1187 C 107.806 6.28274 -1.07476 0
M  V30 1188 C 105.493 6.09711 -0.411729 0
M  V30 1189 C 106.491 6.73335 -1.14492 0
M  V30 1190 O 106.179 7.80199 -1.93763 0
M  V30 1191 H 105.911 0.654042 0.170893 0
M  V30 1192 H 108.465 2.04961 -0.134289 0
M  V30 1193 H 106.695 3.22487 2.13398 0
M  V30 1194 H 108.384 3.58029 1.91233 0
M  V30 1195 H 109.15 4.84477 -0.225086 0
M  V30 1196 H 105.029 4.51009 0.954569 0
M  V30 1197 H 108.573 6.77866 -1.64755 0
M  V30 1198 H 104.47 6.43854 -0.460664 0
M  V30 1199 H 105.238 7.97053 -1.86142 0
M  V30 1200 N 107.901 -0.206675 1.56239 0
M  V30 1201 C 108.811 -1.27686 1.96808 0
M  V30 1202 C 109.827 -1.50455 0.874035 0
M  V30 1203 O 111.003 -1.63295 1.17884 0
M  V30 1204 C 108.068 -2.60358 2.28942 0
M  V30 1205 C 107.129 -2.45762 3.51994 0
M  V30 1206 C 106.362 -3.72108 3.82585 0
M  V30 1207 O 106.585 -4.75776 3.14631 0
M  V30 1208 O 105.519 -3.6833 4.76043 0
M  V30 1209 H 109.345 -0.962593 2.88041 0
M  V30 1210 H 106.93 -0.410746 1.43643 0
M  V30 1211 H 108.812 -3.38687 2.50737 0
M  V30 1212 H 107.487 -2.91435 1.4088 0
M  V30 1213 H 106.394 -1.65584 3.35459 0
M  V30 1214 H 107.727 -2.19621 4.40486 0
M  V30 1215 N 109.379 -1.50304 -0.473955 0
M  V30 1216 C 110.309 -1.71886 -1.58042 0
M  V30 1217 C 111.29 -0.567799 -1.60344 0
M  V30 1218 O 112.475 -0.806623 -1.76656 0
M  V30 1219 C 109.605 -1.81036 -2.96384 0
M  V30 1220 C 108.559 -2.962 -3.08949 0
M  V30 1221 C 107.885 -2.9049 -4.48909 0
M  V30 1222 C 109.185 -4.36752 -2.86434 0
M  V30 1223 H 110.879 -2.64527 -1.40234 0
M  V30 1224 H 108.425 -1.27295 -0.673201 0
M  V30 1225 H 110.378 -1.94719 -3.73714 0
M  V30 1226 H 109.102 -0.850147 -3.15341 0
M  V30 1227 H 107.761 -2.82164 -2.3405 0
M  V30 1228 H 107.409 -1.92321 -4.64781 0
M  V30 1229 H 107.109 -3.67802 -4.58253 0
M  V30 1230 H 108.633 -3.06218 -5.28264 0
M  V30 1231 H 110.047 -4.5133 -3.53517 0
M  V30 1232 H 108.444 -5.15493 -3.07225 0
M  V30 1233 H 109.514 -4.49321 -1.82316 0
M  V30 1234 N 110.857 0.726932 -1.39834 0
M  V30 1235 C 112.105 1.4837 -1.37225 0
M  V30 1236 C 112.426 1.94979 0.0284857 0
M  V30 1237 O 111.696 1.69555 0.981213 0
M  V30 1238 H 110.276 0.55043 -0.505011 0
M  V30 1239 H 112.938 0.862468 -1.74778 0
M  V30 1240 H 112.034 2.36198 -2.04003 0
M  V30 1241 N 112.336 1.25143 0.95797 0
M  V30 1242 C 113.583 1.09692 1.70217 0
M  V30 1243 C 113.911 -0.362654 1.91089 0
M  V30 1244 O 113.166 -1.28386 1.47701 0
M  V30 1245 C 113.465 1.79272 3.09187 0
M  V30 1246 C 113.131 3.29196 3.08125 0
M  V30 1247 C 111.793 3.70096 3.07543 0
M  V30 1248 C 114.145 4.24995 3.0171 0
M  V30 1249 C 111.473 5.05213 2.9829 0
M  V30 1250 C 113.825 5.60132 2.93999 0
M  V30 1251 C 112.489 6.00365 2.9175 0
M  V30 1252 H 111.759 0.401393 0.622868 0
M  V30 1253 H 114.406 1.55372 1.11945 0
M  V30 1254 H 112.711 1.26014 3.70982 0
M  V30 1255 H 114.408 1.64773 3.65583 0
M  V30 1256 H 110.998 2.96651 3.09348 0
M  V30 1257 H 115.182 3.9439 3.01281 0
M  V30 1258 H 110.438 5.35569 2.94916 0
M  V30 1259 H 114.612 6.3406 2.87996 0
M  V30 1260 H 112.239 7.05023 2.84336 0
M  V30 1261 N 113.814 -1.1601 1.06675 0
M  V30 1262 C 115.039 -1.91068 0.806706 0
M  V30 1263 C 115.464 -1.77112 -0.633485 0
M  V30 1264 O 114.822 -1.09908 -1.44187 0
M  V30 1265 C 114.87 -3.39655 1.21106 0
M  V30 1266 O 113.974 -4.10893 0.352189 0
M  V30 1267 H 113.315 -0.595125 0.294486 0
M  V30 1268 H 115.845 -1.46955 1.42356 0
M  V30 1269 H 115.855 -3.90434 1.18428 0
M  V30 1270 H 114.53 -3.49132 2.26008 0
M  V30 1271 H 113.107 -3.70285 0.440868 0
M  V30 1272 N 115.292 -0.849877 -1.32721 0
M  V30 1273 C 116.239 -0.289033 -2.28983 0
M  V30 1274 C 117.209 0.601324 -1.54833 0
M  V30 1275 O 118.394 0.537253 -1.8308 0
M  V30 1276 C 115.534 0.520623 -3.4115 0
M  V30 1277 C 114.647 -0.394989 -4.3019 0
M  V30 1278 C 113.782 0.426834 -5.29482 0
M  V30 1279 C 112.821 -0.486476 -6.10164 0
M  V30 1280 N 111.958 0.297879 -7.01468 0
M  V30 1281 H 116.798 -1.11519 -2.76347 0
M  V30 1282 H 114.335 -0.56138 -1.35967 0
M  V30 1283 H 116.293 1.00563 -4.04899 0
M  V30 1284 H 114.923 1.31165 -2.9495 0
M  V30 1285 H 113.975 -0.99836 -3.67065 0
M  V30 1286 H 115.287 -1.09612 -4.86607 0
M  V30 1287 H 114.441 0.975205 -5.98811 0
M  V30 1288 H 113.18 1.16136 -4.73671 0
M  V30 1289 H 112.185 -1.04677 -5.39743 0
M  V30 1290 H 113.41 -1.21953 -6.6806 0
M  V30 1291 H 111.356 1.01558 -6.48091 0
M  V30 1292 H 111.273 -0.344318 -7.55216 0
M  V30 1293 H 112.541 0.828131 -7.75089 0
M  V30 1294 N 116.77 1.45427 -0.607355 0
M  V30 1295 C 118.018 2.01841 -0.102253 0
M  V30 1296 C 118.339 1.47832 1.27164 0
M  V30 1297 O 117.609 0.672497 1.83995 0
M  V30 1298 H 116.189 0.746188 -0.0348101 0
M  V30 1299 H 118.851 1.78229 -0.7887 0
M  V30 1300 H 117.947 3.12057 -0.0518585 0
M  V30 1301 N 118.248 0.346503 1.53744 0
M  V30 1302 C 119.178 -0.501193 2.28058 0
M  V30 1303 C 120.159 -1.10014 1.29734 0
M  V30 1304 O 121.344 -1.12097 1.58581 0
M  V30 1305 C 118.474 -1.65078 3.05559 0
M  V30 1306 C 117.428 -1.18003 4.11411 0
M  V30 1307 C 116.754 -2.41837 4.76884 0
M  V30 1308 C 118.054 -0.278394 5.21558 0
M  V30 1309 H 119.748 0.11875 2.99164 0
M  V30 1310 H 117.294 0.0585531 1.43881 0
M  V30 1311 H 119.247 -2.25028 3.56287 0
M  V30 1312 H 117.971 -2.29767 2.32109 0
M  V30 1313 H 116.63 -0.603331 3.61601 0
M  V30 1314 H 116.278 -3.0494 4.00026 0
M  V30 1315 H 115.978 -2.1102 5.48402 0
M  V30 1316 H 117.502 -3.02508 5.30397 0
M  V30 1317 H 118.916 -0.784823 5.67903 0
M  V30 1318 H 117.313 -0.0619707 6.00068 0
M  V30 1319 H 118.383 0.684677 4.80042 0
M  V30 1320 N 119.726 -1.57421 0.075193 0
M  V30 1321 C 120.975 -1.92794 -0.592731 0
M  V30 1322 C 121.288 -0.957478 -1.70563 0
M  V30 1323 O 122.494 -1.20417 -2.43335 0
M  V30 1324 C 120.95 -3.42495 -1.10569 0
M  V30 1325 C 120.558 -4.47994 -0.0236121 0
M  V30 1326 C 122.302 -3.86864 -1.74748 0
M  V30 1327 C 120.209 -5.88829 -0.550803 0
M  V30 1328 H 119.139 -0.719591 -0.225177 0
M  V30 1329 H 121.79 -1.82902 0.147978 0
M  V30 1330 H 120.172 -3.47471 -1.89947 0
M  V30 1331 H 121.346 -4.54637 0.751099 0
M  V30 1332 H 119.661 -4.13113 0.522159 0
M  V30 1333 H 122.258 -4.8947 -2.15229 0
M  V30 1334 H 122.601 -3.24417 -2.60882 0
M  V30 1335 H 123.134 -3.84504 -1.01986 0
M  V30 1336 H 119.873 -6.54929 0.273457 0
M  V30 1337 H 119.393 -5.85698 -1.29296 0
M  V30 1338 H 121.072 -6.38811 -1.02613 0
M  V30 1339 N 121.204 0.198386 -1.56346 0
M  V30 1340 C 122.481 0.944982 -1.71258 0
M  V30 1341 C 122.861 2.0151 -0.629048 0
M  V30 1342 O 122.209 2.25639 0.360473 0
M  V30 1343 C 122.419 1.5344 -3.1346 0
M  V30 1344 C 123.767 2.01778 -3.73591 0
M  V30 1345 O 124.791 1.63288 -3.16568 0
M  V30 1346 O 123.65 2.72594 -4.73661 0
M  V30 1347 H 120.744 0.442939 -0.69838 0
M  V30 1348 H 123.29 0.188342 -1.68652 0
M  V30 1349 H 122.062 0.762869 -3.83792 0
M  V30 1350 H 121.685 2.35596 -3.20282 0
M  V30 1351 N 122.682 1.50554 0.465978 0
M  V30 1352 C 124.093 1.54599 1.04671 0
M  V30 1353 C 124.444 0.352488 1.93008 0
M  V30 1354 O 123.569 -0.534044 2.09707 0
M  V30 1355 C 124.164 2.80166 1.90505 0
M  V30 1356 C 122.723 2.86876 2.43678 0
M  V30 1357 C 121.87 2.48947 1.22151 0
M  V30 1358 H 124.821 1.56744 0.248384 0
M  V30 1359 H 124.842 2.62311 2.75633 0
M  V30 1360 H 124.354 3.67013 1.26186 0
M  V30 1361 H 122.455 2.04393 3.11536 0
M  V30 1362 H 122.568 3.89885 2.78436 0
M  V30 1363 H 120.932 2.01498 1.5579 0
M  V30 1364 H 121.715 3.38107 0.594866 0
M  V30 1365 N 124.16 -0.719506 1.40217 0
M  V30 1366 C 125.408 -1.47641 1.3801 0
M  V30 1367 C 125.729 -1.94992 -0.018145 0
M  V30 1368 O 124.999 -1.70073 -0.972207 0
M  V30 1369 H 123.579 -0.547744 0.507923 0
M  V30 1370 H 126.241 -0.853187 1.75233 0
M  V30 1371 H 125.337 -2.35112 2.05253 0
M  V30 1372 N 125.638 -1.25649 -0.95132 0
M  V30 1373 C 126.548 -1.08073 -2.08224 0
M  V30 1374 C 127.564 -0.0169666 -1.73992 0
M  V30 1375 O 128.74 -0.218593 -2.0021 0
M  V30 1376 C 125.805 -0.704922 -3.39458 0
M  V30 1377 C 124.866 -1.84699 -3.87537 0
M  V30 1378 C 124.099 -1.48902 -5.12508 0
M  V30 1379 O 124.322 -0.386156 -5.69091 0
M  V30 1380 O 123.256 -2.32033 -5.55378 0
M  V30 1381 H 127.082 -2.02924 -2.25954 0
M  V30 1382 H 124.667 -1.04618 -1.06656 0
M  V30 1383 H 126.549 -0.507609 -4.18332 0
M  V30 1384 H 125.224 0.214291 -3.2299 0
M  V30 1385 H 124.131 -2.09919 -3.09653 0
M  V30 1386 H 125.464 -2.74557 -4.08509 0
M  V30 1387 N 127.117 1.15442 -1.07289 0
M  V30 1388 C 128.342 1.90638 -0.816828 0
M  V30 1389 C 128.767 1.77445 0.624083 0
M  V30 1390 O 128.125 1.10671 1.43602 0
M  V30 1391 C 128.173 3.39008 -1.22906 0
M  V30 1392 O 127.277 4.10701 -0.373975 0
M  V30 1393 H 126.618 0.593555 -0.297638 0
M  V30 1394 H 129.148 1.46198 -1.43134 0
M  V30 1395 H 129.158 3.89801 -1.20497 0
M  V30 1396 H 127.833 3.47929 -2.27856 0
M  V30 1397 H 126.41 3.70046 -0.460499 0
M  V30 1398 N 128.595 0.856903 1.32268 0
M  V30 1399 C 129.841 0.462069 1.97466 0
M  V30 1400 C 130.174 -0.980298 1.67642 0
M  V30 1401 O 129.449 -1.68824 0.965858 0
M  V30 1402 C 129.732 0.704336 3.53145 0
M  V30 1403 C 129.585 2.19529 3.9259 0
M  V30 1404 C 130.904 0.1622 4.39801 0
M  V30 1405 H 128.023 0.169357 0.717278 0
M  V30 1406 H 130.665 1.07574 1.56614 0
M  V30 1407 H 128.815 0.181999 3.88073 0
M  V30 1408 H 130.487 2.78387 3.67829 0
M  V30 1409 H 128.73 2.67292 3.41668 0
M  V30 1410 H 129.401 2.31549 5.01088 0
M  V30 1411 H 131.877 0.608905 4.11621 0
M  V30 1412 H 130.753 0.361265 5.4771 0
M  V30 1413 H 131.014 -0.935158 4.32096 0
M  V30 1414 N 130.073 -1.45103 0.615059 0
M  V30 1415 C 131.303 -2.06254 0.119596 0
M  V30 1416 C 131.711 -1.4591 -1.20445 0
M  V30 1417 O 131.054 -0.570384 -1.7462 0
M  V30 1418 C 131.116 -3.59396 -0.0865591 0
M  V30 1419 C 130.78 -4.42116 1.15683 0
M  V30 1420 C 131.777 -4.7662 2.07676 0
M  V30 1421 C 129.462 -4.82749 1.38775 0
M  V30 1422 C 131.456 -5.50622 3.21082 0
M  V30 1423 C 129.143 -5.56504 2.52481 0
M  V30 1424 C 130.141 -5.90358 3.43463 0
M  V30 1425 O 129.829 -6.62615 4.55189 0
M  V30 1426 H 129.561 -0.672423 0.0694512 0
M  V30 1427 H 132.115 -1.87219 0.844885 0
M  V30 1428 H 130.345 -3.76859 -0.866823 0
M  V30 1429 H 132.034 -4.02365 -0.534555 0
M  V30 1430 H 132.8 -4.4578 1.91063 0
M  V30 1431 H 128.679 -4.55829 0.688545 0
M  V30 1432 H 132.223 -5.76965 3.92119 0
M  V30 1433 H 128.12 -5.86759 2.69043 0
M  V30 1434 H 128.888 -6.81071 4.53966 0
M  V30 1435 N 131.551 -0.354651 -1.53558 0
M  V30 1436 C 132.461 0.50515 -2.29097 0
M  V30 1437 C 133.477 1.10223 -1.34636 0
M  V30 1438 O 134.653 1.11553 -1.67684 0
M  V30 1439 C 131.718 1.63479 -3.05738 0
M  V30 1440 C 130.779 1.06636 -4.15845 0
M  V30 1441 C 130.012 2.14217 -4.88822 0
M  V30 1442 O 130.235 3.35137 -4.61562 0
M  V30 1443 O 129.169 1.77887 -5.75013 0
M  V30 1444 H 132.995 -0.109237 -3.03503 0
M  V30 1445 H 130.58 -0.119357 -1.48922 0
M  V30 1446 H 132.462 2.2918 -3.5363 0
M  V30 1447 H 131.137 2.23478 -2.34178 0
M  V30 1448 H 130.044 0.373565 -3.7223 0
M  V30 1449 H 131.377 0.511081 -4.89539 0
M  V30 1450 N 133.029 1.57378 -0.0835403 0
M  V30 1451 C 133.992 2.12252 0.864959 0
M  V30 1452 C 134.992 1.04916 1.21858 0
M  V30 1453 O 136.182 1.30853 1.14991 0
M  V30 1454 C 133.314 2.63358 2.16461 0
M  V30 1455 H 134.507 2.97371 0.388676 0
M  V30 1456 H 132.06 1.55423 0.165317 0
M  V30 1457 H 132.795 1.81727 2.686 0
M  V30 1458 H 132.58 3.41826 1.92087 0
M  V30 1459 H 134.07 3.05847 2.84337 0
M  V30 1460 N 134.507 -0.190092 1.56449 0
M  V30 1461 C 135.47 -1.21925 1.9408 0
M  V30 1462 C 136.47 -1.38176 0.822431 0
M  V30 1463 O 137.66 -1.35903 1.08977 0
M  V30 1464 C 134.792 -2.58773 2.21922 0
M  V30 1465 H 135.985 -0.897464 2.86157 0
M  V30 1466 H 133.538 -0.43181 1.50217 0
M  V30 1467 H 134.273 -2.95998 1.32499 0
M  V30 1468 H 134.058 -2.48348 3.03424 0
M  V30 1469 H 135.548 -3.32978 2.52022 0
M  V30 1470 N 135.985 -1.50799 -0.457987 0
M  V30 1471 C 136.933 -1.71162 -1.575 0
M  V30 1472 C 137.927 -0.577592 -1.59249 0
M  V30 1473 O 139.133 -0.758443 -1.63241 0
M  V30 1474 H 135.508 -0.540468 -0.522875 0
M  V30 1475 H 137.479 -2.64837 -1.37492 0
M  V30 1476 C 136.228 -1.83496 -2.95338 0
M  V30 1477 H 135.551 -2.70153 -2.94716 0
M  V30 1478 H 136.991 -2.01765 -3.72917 0
M  V30 1479 C 135.45 -0.589694 -3.31699 0
M  V30 1480 O 135.98 0.265163 -4.00824 0
M  V30 1481 N 134.186 -0.439845 -2.87252 0
M  V30 1482 H 133.733 -1.13655 -2.31172 0
M  V30 1483 H 133.691 0.392159 -3.11945 0
M  V30 1484 N 137.463 0.71206 -1.40597 0
M  V30 1485 C 138.879 1.02058 -1.22704 0
M  V30 1486 C 139.079 2.01228 -0.104729 0
M  V30 1487 O 138.135 2.4674 0.53624 0
M  V30 1488 C 139.448 1.56094 -2.57012 0
M  V30 1489 C 140.996 1.6806 -2.64054 0
M  V30 1490 C 141.471 2.25501 -3.9864 0
M  V30 1491 N 142.962 2.32882 -4.004 0
M  V30 1492 C 143.697 2.78317 -5.01325 0
M  V30 1493 N 143.193 3.23478 -6.12645 0
M  V30 1494 N 144.986 2.77733 -4.88693 0
M  V30 1495 H 137.137 0.0547896 -2.12329 0
M  V30 1496 H 139.4 0.0869027 -0.944008 0
M  V30 1497 H 139.106 0.906865 -3.39807 0
M  V30 1498 H 138.98 2.54564 -2.78347 0
M  V30 1499 H 141.367 2.32583 -1.81629 0
M  V30 1500 H 141.448 0.681802 -2.46546 0
M  V30 1501 H 141.092 1.61598 -4.81506 0
M  V30 1502 H 141.022 3.26102 -4.13479 0
M  V30 1503 H 143.513 2.00991 -3.20017 0
M  V30 1504 H 143.826 3.56725 -6.85542 0
M  V30 1505 H 142.171 3.21429 -6.16205 0
M  V30 1506 H 145.362 2.4179 -4.00818 0
M  V30 1507 H 145.535 3.12826 -5.67489 0
M  V30 1508 N 138.941 1.26152 0.944643 0
M  V30 1509 C 139.851 1.09176 2.07648 0
M  V30 1510 C 140.867 0.0261935 1.7398 0
M  V30 1511 O 142.043 0.229208 2.00091 0
M  V30 1512 C 139.108 0.722915 3.39079 0
M  V30 1513 C 138.169 1.86752 3.86552 0
M  V30 1514 C 137.402 1.51617 5.11711 0
M  V30 1515 O 137.625 0.416331 5.68879 0
M  V30 1516 O 136.559 2.34975 5.54139 0
M  V30 1517 H 140.385 2.0412 2.24875 0
M  V30 1518 H 137.97 1.05182 1.061 0
M  V30 1519 H 139.852 0.529787 4.18056 0
M  V30 1520 H 138.527 -0.197159 3.23099 0
M  V30 1521 H 137.434 2.11558 3.08535 0
M  V30 1522 H 138.767 2.76719 4.07047 0
M  V30 1523 N 140.419 -1.14872 1.07899 0
M  V30 1524 C 141.349 -2.2193 0.725887 0
M  V30 1525 C 142.33 -1.67622 -0.28927 0
M  V30 1526 O 143.515 -1.93533 -0.160787 0
M  V30 1527 C 140.645 -3.47061 0.128856 0
M  V30 1528 C 139.599 -4.14363 1.07178 0
M  V30 1529 C 138.925 -5.33636 0.337229 0
M  V30 1530 C 140.225 -4.63492 2.40775 0
M  V30 1531 H 141.919 -2.51724 1.62097 0
M  V30 1532 H 139.465 -1.20991 0.780838 0
M  V30 1533 H 141.418 -4.21199 -0.130147 0
M  V30 1534 H 140.142 -3.16617 -0.80134 0
M  V30 1535 H 138.801 -3.42173 1.3158 0
M  V30 1536 H 138.449 -4.99449 -0.596606 0
M  V30 1537 H 138.149 -5.79609 0.965788 0
M  V30 1538 H 139.673 -6.10539 0.0861567 0
M  V30 1539 H 141.087 -5.2913 2.20669 0
M  V30 1540 H 139.484 -5.20148 2.99276 0
M  V30 1541 H 140.554 -3.78834 3.02676 0
M  V30 1542 N 141.898 -0.863906 -1.31812 0
M  V30 1543 C 142.845 -0.313303 -2.28664 0
M  V30 1544 C 143.815 0.584868 -1.55462 0
M  V30 1545 O 145 0.517805 -1.83639 0
M  V30 1546 C 142.14 0.48441 -3.41683 0
M  V30 1547 C 141.253 -0.440594 -4.29747 0
M  V30 1548 C 140.388 0.370652 -5.29905 0
M  V30 1549 C 139.427 -0.551164 -6.09613 0
M  V30 1550 N 138.564 0.223462 -7.01744 0
M  V30 1551 H 143.404 -1.14444 -2.75148 0
M  V30 1552 H 140.941 -0.575769 -1.35364 0
M  V30 1553 H 142.899 0.962627 -4.05943 0
M  V30 1554 H 141.529 1.28029 -2.96325 0
M  V30 1555 H 140.581 -1.03724 -3.65986 0
M  V30 1556 H 141.893 -1.14767 -4.85417 0
M  V30 1557 H 141.047 0.911638 -5.99812 0
M  V30 1558 H 139.786 1.11105 -4.74876 0
M  V30 1559 H 138.791 -1.10396 -5.38603 0
M  V30 1560 H 140.016 -1.29032 -6.66729 0
M  V30 1561 H 137.962 0.946787 -6.49132 0
M  V30 1562 H 137.879 -0.424399 -7.54808 0
M  V30 1563 H 139.147 0.745876 -7.75923 0
M  V30 1564 N 143.376 1.44774 -0.622745 0
M  V30 1565 C 144.286 2.34433 0.0886031 0
M  V30 1566 C 145.302 1.52131 0.844529 0
M  V30 1567 O 146.478 1.84886 0.798691 0
M  V30 1568 C 143.543 3.29986 1.0635 0
M  V30 1569 C 142.604 4.28195 0.307873 0
M  V30 1570 C 141.837 5.19183 1.23633 0
M  V30 1571 O 142.06 5.13918 2.47476 0
M  V30 1572 O 140.994 5.97515 0.725189 0
M  V30 1573 H 144.82 2.96693 -0.648599 0
M  V30 1574 H 142.405 1.44408 -0.382957 0
M  V30 1575 H 144.287 3.88825 1.6246 0
M  V30 1576 H 142.962 2.70269 1.78146 0
M  V30 1577 H 141.869 3.72927 -0.296064 0
M  V30 1578 H 143.202 4.90808 -0.3699 0
M  V30 1579 N 144.854 0.36279 1.53368 0
M  V30 1580 C 145.764 -0.492994 2.29362 0
M  V30 1581 C 146.78 -1.09507 1.35219 0
M  V30 1582 O 147.956 -1.10662 1.68273 0
M  V30 1583 C 145.021 -1.61855 3.066 0
M  V30 1584 C 144.082 -1.04429 4.16405 0
M  V30 1585 C 143.315 -2.11621 4.89951 0
M  V30 1586 O 143.538 -3.32684 4.63333 0
M  V30 1587 O 142.472 -1.74835 5.75948 0
M  V30 1588 H 146.298 0.125331 3.03441 0
M  V30 1589 H 143.883 0.127253 1.48857 0
M  V30 1590 H 145.765 -2.27302 3.54841 0
M  V30 1591 H 144.44 -2.22233 2.3536 0
M  V30 1592 H 143.347 -0.353819 3.72423 0
M  V30 1593 H 144.68 -0.485113 4.89804 0
M  V30 1594 N 146.332 -1.57332 0.0918853 0
M  V30 1595 C 147.578 -1.94524 -0.573425 0
M  V30 1596 C 147.911 -0.973578 -1.68033 0
M  V30 1597 O 147.186 -0.00609226 -1.94499 0
M  V30 1598 C 147.469 -3.41858 -1.13161 0
M  V30 1599 C 147.322 -4.4979 -0.0299747 0
M  V30 1600 C 148.641 -3.90435 -2.03098 0
M  V30 1601 H 145.76 -0.70734 -0.206975 0
M  V30 1602 H 148.402 -1.89309 0.161942 0
M  V30 1603 H 146.552 -3.46433 -1.7583 0
M  V30 1604 H 148.224 -4.57327 0.604112 0
M  V30 1605 H 146.467 -4.291 0.636833 0
M  V30 1606 H 147.138 -5.50069 -0.461287 0
M  V30 1607 H 149.614 -3.87992 -1.50338 0
M  V30 1608 H 148.49 -4.94097 -2.39081 0
M  V30 1609 H 148.751 -3.29541 -2.94712 0
M  V30 1610 N 147.81 0.181792 -1.56548 0
M  V30 1611 C 149.058 0.89832 -1.81038 0
M  V30 1612 C 149.379 1.83232 -0.667164 0
M  V30 1613 O 148.649 1.93372 0.313673 0
M  V30 1614 H 147.229 0.33471 -0.667816 0
M  V30 1615 H 149.891 0.184116 -1.94028 0
M  V30 1616 H 148.987 1.4815 -2.74696 0
M  V30 1617 N 149.288 1.51039 0.449983 0
M  V30 1618 C 150.535 1.63081 1.20045 0
M  V30 1619 C 150.863 0.341024 1.91487 0
M  V30 1620 O 150.118 -0.674276 1.83717 0
M  V30 1621 C 150.417 2.77556 2.25161 0
M  V30 1622 C 150.083 4.17289 1.70823 0
M  V30 1623 C 148.745 4.55305 1.55725 0
M  V30 1624 C 151.097 5.04536 1.3074 0
M  V30 1625 C 148.425 5.78287 0.989999 0
M  V30 1626 C 150.777 6.28085 0.754482 0
M  V30 1627 C 149.441 6.64885 0.590308 0
M  V30 1628 H 148.711 0.596755 0.439277 0
M  V30 1629 H 151.358 1.85037 0.49333 0
M  V30 1630 H 149.663 2.49771 3.01863 0
M  V30 1631 H 151.36 2.84073 2.83026 0
M  V30 1632 H 147.95 3.8731 1.83546 0
M  V30 1633 H 152.134 4.75782 1.41229 0
M  V30 1634 H 147.39 6.05456 0.850451 0
M  V30 1635 H 151.564 6.95038 0.435324 0
M  V30 1636 H 149.191 7.60055 0.14862 0
M  V30 1637 N 150.766 -0.704594 1.40972 0
M  V30 1638 C 152.014 -1.46169 1.39568 0
M  V30 1639 C 152.335 -1.95 0.00253745 0
M  V30 1640 O 151.605 -1.71095 -0.954114 0
M  V30 1641 H 150.185 -0.542326 0.513704 0
M  V30 1642 H 152.847 -0.834553 1.76128 0
M  V30 1643 H 151.943 -2.32922 2.07735 0
M  V30 1644 N 152.244 -1.26651 -0.937939 0
M  V30 1645 C 153.207 -1.08546 -2.01867 0
M  V30 1646 C 154.207 -0.0327327 -1.60767 0
M  V30 1647 O 155.397 -0.276427 -1.71993 0
M  V30 1648 C 152.529 -0.651711 -3.34613 0
M  V30 1649 H 153.722 -2.04502 -2.1936 0
M  V30 1650 H 151.275 -1.09294 -1.11734 0
M  V30 1651 H 152.01 0.309696 -3.22818 0
M  V30 1652 H 151.795 -1.41189 -3.65798 0
M  V30 1653 H 153.285 -0.546973 -4.14002 0
M  V30 1654 N 153.722 1.14298 -1.08507 0
M  V30 1655 C 154.67 2.21483 -0.710483 0
M  V30 1656 C 155.664 1.66998 0.284234 0
M  V30 1657 O 156.87 1.79401 0.146692 0
M  V30 1658 H 153.245 0.721578 -0.211729 0
M  V30 1659 H 155.216 2.50348 -1.62384 0
M  V30 1660 C 153.965 3.4743 -0.137007 0
M  V30 1661 H 153.288 3.89686 -0.893592 0
M  V30 1662 H 154.728 4.2391 0.0872789 0
M  V30 1663 C 153.187 3.17548 1.12538 0
M  V30 1664 O 153.717 3.35437 2.21009 0
M  V30 1665 N 151.923 2.71499 1.03617 0
M  V30 1666 H 151.47 2.57143 0.153403 0
M  V30 1667 H 151.428 2.51881 1.88158 0
M  V30 1668 N 155.201 0.870884 1.31352 0
M  V30 1669 C 156.478 0.402907 1.91405 0
M  V30 1670 C 156.858 -1.11512 1.79244 0
M  V30 1671 O 156.206 -1.94411 1.2007 0
M  V30 1672 C 156.416 0.885301 3.37585 0
M  V30 1673 C 157.764 0.911971 4.14691 0
M  V30 1674 O 158.788 0.831016 3.46371 0
M  V30 1675 O 157.647 1.02927 5.3672 0
M  V30 1676 H 154.741 0.120698 0.818145 0
M  V30 1677 H 157.287 0.958857 1.40014 0
M  V30 1678 H 156.059 1.92889 3.40455 0
M  V30 1679 H 155.682 0.307714 3.96407 0
M  V30 1680 N 156.679 -1.44442 0.630414 0
M  V30 1681 C 157.609 -2.33418 -0.0618083 0
M  V30 1682 C 158.59 -1.48165 -0.835541 0
M  V30 1683 O 159.775 -1.76886 -0.801564 0
M  V30 1684 C 156.905 -3.31222 -1.04449 0
M  V30 1685 C 155.859 -4.26288 -0.382436 0
M  V30 1686 C 155.185 -5.13954 -1.47497 0
M  V30 1687 C 156.485 -5.1744 0.710865 0
M  V30 1688 H 158.179 -2.91548 0.681184 0
M  V30 1689 H 155.725 -1.40191 0.329026 0
M  V30 1690 H 157.678 -3.92351 -1.53748 0
M  V30 1691 H 156.402 -2.71299 -1.81836 0
M  V30 1692 H 155.061 -3.6649 0.0899054 0
M  V30 1693 H 154.709 -4.50385 -2.2397 0
M  V30 1694 H 154.409 -5.7837 -1.03737 0
M  V30 1695 H 155.933 -5.77955 -1.96979 0
M  V30 1696 H 157.347 -5.72509 0.300996 0
M  V30 1697 H 155.744 -5.90455 1.07156 0
M  V30 1698 H 156.814 -4.58496 1.57829 0
M  V30 1699 N 158.157 -0.370918 -1.53173 0
M  V30 1700 C 159.385 0.217704 -2.05751 0
M  V30 1701 C 159.8 1.42018 -1.24404 0
M  V30 1702 O 159.157 1.80245 -0.286033 0
M  V30 1703 C 159.208 0.605954 -3.56385 0
M  V30 1704 O 158.929 -0.548734 -4.3465 0
M  V30 1705 C 160.43 1.2524 -4.25241 0
M  V30 1706 H 157.65 0.0371659 -0.66997 0
M  V30 1707 H 160.194 -0.530832 -1.9749 0
M  V30 1708 H 158.349 1.3044 -3.6478 0
M  V30 1709 H 158.763 -0.23376 -5.23979 0
M  V30 1710 H 160.237 1.47458 -5.3194 0
M  V30 1711 H 160.714 2.2143 -3.79296 0
M  V30 1712 H 161.32 0.595233 -4.21114 0
M  V30 1713 N 159.635 1.57281 -0.100228 0
M  V30 1714 C 160.882 1.94537 0.562268 0
M  V30 1715 C 161.21 0.982315 1.67871 0
M  V30 1716 O 160.465 0.00280936 1.957 0
M  V30 1717 C 160.764 3.38305 1.15259 0
M  V30 1718 C 160.43 4.50618 0.159409 0
M  V30 1719 C 159.092 4.81066 -0.113741 0
M  V30 1720 C 161.444 5.18615 -0.518461 0
M  V30 1721 C 158.772 5.76835 -1.07137 0
M  V30 1722 C 161.124 6.15412 -1.46459 0
M  V30 1723 C 159.788 6.44262 -1.74592 0
M  V30 1724 H 159.058 0.711863 0.205748 0
M  V30 1725 H 161.705 1.90679 -0.17715 0
M  V30 1726 H 160.01 3.38766 1.96836 0
M  V30 1727 H 161.707 3.64435 1.67297 0
M  V30 1728 H 158.297 4.2689 0.382491 0
M  V30 1729 H 162.481 4.95264 -0.320581 0
M  V30 1730 H 157.737 5.975 -1.29628 0
M  V30 1731 H 161.911 6.67194 -1.99564 0
M  V30 1732 H 159.538 7.1828 -2.48953 0
M  V30 1733 N 161.113 -0.173488 1.56642 0
M  V30 1734 C 162.043 -1.2171 1.99271 0
M  V30 1735 C 163.024 -1.46289 0.867959 0
M  V30 1736 O 164.209 -1.5766 1.13388 0
M  V30 1737 C 161.339 -2.55651 2.35074 0
M  V30 1738 C 160.293 -2.45645 3.50489 0
M  V30 1739 C 159.619 -3.84056 3.72028 0
M  V30 1740 C 160.919 -1.96302 4.84007 0
M  V30 1741 H 162.613 -0.86275 2.867 0
M  V30 1742 H 160.159 -0.413571 1.37933 0
M  V30 1743 H 162.112 -3.2886 2.63494 0
M  V30 1744 H 160.836 -2.92869 1.44552 0
M  V30 1745 H 159.495 -1.7489 3.22194 0
M  V30 1746 H 159.143 -4.18664 2.788 0
M  V30 1747 H 158.843 -3.7823 4.49684 0
M  V30 1748 H 160.367 -4.58854 4.02846 0
M  V30 1749 H 161.781 -2.59284 5.11317 0
M  V30 1750 H 160.178 -2.01429 5.65284 0
M  V30 1751 H 161.248 -0.917226 4.76146 0
M  V30 1752 N 162.591 -1.51276 -0.441967 0
M  V30 1753 C 163.538 -1.72256 -1.53612 0
M  V30 1754 C 164.508 -0.564164 -1.56225 0
M  V30 1755 O 165.693 -0.798074 -1.73307 0
M  V30 1756 C 162.833 -1.84932 -2.91366 0
M  V30 1757 C 161.946 -3.12459 -2.98317 0
M  V30 1758 C 161.081 -3.15758 -4.27166 0
M  V30 1759 C 160.12 -4.37619 -4.27967 0
M  V30 1760 N 159.257 -4.38493 -5.48333 0
M  V30 1761 H 164.097 -2.65654 -1.35026 0
M  V30 1762 H 161.634 -1.31662 -0.656009 0
M  V30 1763 H 163.592 -1.90263 -3.7129 0
M  V30 1764 H 162.222 -0.949461 -3.08521 0
M  V30 1765 H 161.274 -3.1646 -2.11086 0
M  V30 1766 H 162.586 -4.02382 -2.94771 0
M  V30 1767 H 161.74 -3.19979 -5.15459 0
M  V30 1768 H 160.479 -2.23715 -4.33362 0
M  V30 1769 H 159.484 -4.33579 -3.38067 0
M  V30 1770 H 160.709 -5.30921 -4.23438 0
M  V30 1771 H 158.655 -3.49318 -5.55259 0
M  V30 1772 H 158.572 -5.22219 -5.46647 0
M  V30 1773 H 159.84 -4.469 -6.38671 0
M  V30 1774 N 164.069 0.697108 -1.41344 0
M  V30 1775 C 165.016 1.81106 -1.43071 0
M  V30 1776 C 165.986 1.63632 -0.285275 0
M  V30 1777 O 167.171 1.84504 -0.486091 0
M  V30 1778 C 164.311 3.18975 -1.31715 0
M  V30 1779 C 163.424 3.47892 -2.56115 0
M  V30 1780 C 162.559 4.75367 -2.37064 0
M  V30 1781 C 161.598 4.97247 -3.56948 0
M  V30 1782 N 160.735 6.15947 -3.36977 0
M  V30 1783 H 165.575 1.78965 -2.38276 0
M  V30 1784 H 163.112 0.873975 -1.18322 0
M  V30 1785 H 165.07 3.98615 -1.23133 0
M  V30 1786 H 163.7 3.20297 -0.401183 0
M  V30 1787 H 162.752 2.62669 -2.75153 0
M  V30 1788 H 164.064 3.59962 -3.45295 0
M  V30 1789 H 163.218 5.63059 -2.25941 0
M  V30 1790 H 161.957 4.65541 -1.45338 0
M  V30 1791 H 160.962 4.08004 -3.68527 0
M  V30 1792 H 162.187 5.08934 -4.49626 0
M  V30 1793 H 160.133 6.07336 -2.47949 0
M  V30 1794 H 160.05 6.28777 -4.19732 0
M  V30 1795 H 161.318 7.06377 -3.29623 0
M  V30 1796 N 165.547 1.27147 0.931209 0
M  V30 1797 C 166.477 1.12081 2.04842 0
M  V30 1798 C 167.458 0.0232364 1.70084 0
M  V30 1799 O 168.643 0.197085 1.93197 0
M  V30 1800 C 165.773 0.76354 3.38803 0
M  V30 1801 C 164.727 1.81396 3.87659 0
M  V30 1802 C 164.053 1.31075 5.18385 0
M  V30 1803 C 165.353 3.21739 4.11438 0
M  V30 1804 H 167.047 2.05537 2.17703 0
M  V30 1805 H 164.593 0.989603 1.04608 0
M  V30 1806 H 166.546 0.644982 4.16435 0
M  V30 1807 H 165.27 -0.206727 3.25945 0
M  V30 1808 H 163.929 1.92136 3.12217 0
M  V30 1809 H 163.577 0.330037 5.01916 0
M  V30 1810 H 163.277 2.013 5.52044 0
M  V30 1811 H 164.801 1.20506 5.98591 0
M  V30 1812 H 166.215 3.14019 4.79651 0
M  V30 1813 H 164.612 3.89644 4.56397 0
M  V30 1814 H 165.682 3.67054 3.16859 0
M  V30 1815 N 167.025 -1.13721 1.09112 0
M  V30 1816 C 168.25 -1.89314 0.847053 0
M  V30 1817 C 168.675 -1.78416 -0.595774 0
M  V30 1818 O 168.033 -1.12942 -1.41823 0
M  V30 1819 C 168.081 -3.3701 1.28284 0
M  V30 1820 O 167.185 -4.10054 0.439267 0
M  V30 1821 H 166.526 -0.588745 0.307044 0
M  V30 1822 H 169.056 -1.43902 1.45442 0
M  V30 1823 H 169.066 -3.87834 1.26683 0
M  V30 1824 H 167.741 -3.4426 2.33363 0
M  V30 1825 H 166.318 -3.69266 0.519312 0
M  V30 1826 N 168.503 -0.877838 -1.30888 0
M  V30 1827 C 169.436 -0.283995 -2.26426 0
M  V30 1828 C 170.414 0.591361 -1.51465 0
M  V30 1829 O 171.598 0.54304 -1.80509 0
M  V30 1830 C 168.725 0.597129 -3.33395 0
M  V30 1831 C 167.771 -0.207937 -4.25993 0
M  V30 1832 S 168.604 -1.59158 -5.11301 0
M  V30 1833 C 169.76 -0.716791 -6.21782 0
M  V30 1834 H 169.993 -1.09383 -2.76446 0
M  V30 1835 H 167.526 -0.676828 -1.38775 0
M  V30 1836 H 169.484 1.09978 -3.95493 0
M  V30 1837 H 168.145 1.38099 -2.82113 0
M  V30 1838 H 167.338 0.464163 -5.01858 0
M  V30 1839 H 166.94 -0.642963 -3.68432 0
M  V30 1840 H 169.232 0.0692833 -6.77465 0
M  V30 1841 H 170.175 -1.44682 -6.93161 0
M  V30 1842 H 170.583 -0.280855 -5.63801 0
M  V30 1843 N 169.982 1.44106 -0.638065 0
M  V30 1844 C 170.945 2.29138 0.0531013 0
M  V30 1845 C 171.945 1.41409 0.765506 0
M  V30 1846 O 173.135 1.63206 0.609046 0
M  V30 1847 C 170.267 3.23144 1.08584 0
M  V30 1848 H 171.46 2.91739 -0.694883 0
M  V30 1849 H 169.013 1.51134 -0.398538 0
M  V30 1850 H 169.748 2.65408 1.86357 0
M  V30 1851 H 169.533 3.87804 0.578852 0
M  V30 1852 H 171.023 3.87004 1.56899 0
M  V30 1853 N 171.46 0.379036 1.52974 0
M  V30 1854 C 172.871 -0.0972525 1.86447 0
M  V30 1855 C 173.222 -1.47027 1.29914 0
M  V30 1856 O 172.347 -2.07135 0.626433 0
M  V30 1857 C 172.942 -0.183248 3.38304 0
M  V30 1858 C 171.501 -0.603812 3.71525 0
M  V30 1859 C 170.648 0.240632 2.76254 0
M  V30 1860 H 173.599 0.597316 1.4703 0
M  V30 1861 H 173.62 -1.00432 3.67006 0
M  V30 1862 H 173.132 0.816191 3.79421 0
M  V30 1863 H 171.233 -1.61099 3.35973 0
M  V30 1864 H 171.346 -0.369086 4.77676 0
M  V30 1865 H 169.71 -0.292548 2.53014 0
M  V30 1866 H 170.493 1.23786 3.20206 0
M  V30 1867 N 172.938 -1.57226 0.108567 0
M  V30 1868 C 174.163 -1.99604 -0.563303 0
M  V30 1869 C 174.588 -0.987563 -1.6009 0
M  V30 1870 O 173.946 0.0421687 -1.81251 0
M  V30 1871 C 173.994 -3.40902 -1.17552 0
M  V30 1872 O 173.098 -3.42896 -2.2912 0
M  V30 1873 H 172.439 -0.648704 -0.1417 0
M  V30 1874 H 174.969 -2.03679 0.193961 0
M  V30 1875 H 174.979 -3.78886 -1.51357 0
M  V30 1876 H 173.654 -4.1382 -0.415445 0
M  V30 1877 H 172.231 -3.1672 -1.96832 0
M  V30 1878 N 174.416 0.165178 -1.56732 0
M  V30 1879 C 175.646 0.894919 -1.86212 0
M  V30 1880 C 176.054 1.76066 -0.692627 0
M  V30 1881 O 175.397 1.80387 0.347303 0
M  V30 1882 C 175.459 1.8174 -3.10179 0
M  V30 1883 C 175.123 1.13064 -4.42793 0
M  V30 1884 C 176.12 0.493169 -5.17556 0
M  V30 1885 C 173.805 1.12556 -4.89527 0
M  V30 1886 C 175.799 -0.140209 -6.37246 0
M  V30 1887 C 173.486 0.488366 -6.09145 0
M  V30 1888 C 174.484 -0.143411 -6.82849 0
M  V30 1889 O 174.172 -0.77055 -8.00199 0
M  V30 1890 H 173.904 0.265114 -0.621844 0
M  V30 1891 H 176.458 0.168242 -2.0471 0
M  V30 1892 H 174.688 2.58455 -2.87642 0
M  V30 1893 H 176.377 2.4175 -3.26055 0
M  V30 1894 H 177.143 0.489023 -4.82528 0
M  V30 1895 H 173.022 1.60672 -4.32094 0
M  V30 1896 H 176.566 -0.633932 -6.94714 0
M  V30 1897 H 172.463 0.490116 -6.43637 0
M  V30 1898 H 173.231 -0.670408 -8.1575 0
M  V30 1899 N 175.894 1.51508 0.433938 0
M  V30 1900 C 177.141 1.64345 1.18309 0
M  V30 1901 C 177.469 0.361315 1.91115 0
M  V30 1902 O 176.724 -0.654753 1.84422 0
M  V30 1903 C 177.023 2.79928 2.22205 0
M  V30 1904 C 176.689 4.19078 1.66387 0
M  V30 1905 C 175.351 4.56932 1.50887 0
M  V30 1906 C 177.703 5.05894 1.25381 0
M  V30 1907 C 175.031 5.79305 0.928608 0
M  V30 1908 C 177.383 6.2885 0.687823 0
M  V30 1909 C 176.047 6.65473 0.519755 0
M  V30 1910 H 175.317 0.601381 0.432923 0
M  V30 1911 H 177.964 1.85549 0.473676 0
M  V30 1912 H 176.269 2.52959 2.99197 0
M  V30 1913 H 177.966 2.87059 2.79997 0
M  V30 1914 H 174.556 3.89234 1.79428 0
M  V30 1915 H 178.74 4.77253 1.36175 0
M  V30 1916 H 173.996 6.06324 0.786186 0
M  V30 1917 H 178.17 6.95461 0.361581 0
M  V30 1918 H 175.797 7.6017 0.0679979 0
M  V30 1919 N 177.372 -0.689602 1.41712 0
M  V30 1920 C 178.597 -1.48329 1.44959 0
M  V30 1921 C 179.022 -1.8801 0.0581283 0
M  V30 1922 O 178.38 -1.55026 -0.940035 0
M  V30 1923 C 178.428 -2.71835 2.36935 0
M  V30 1924 O 177.532 -3.69549 1.8305 0
M  V30 1925 H 176.873 -0.446199 0.491734 0
M  V30 1926 H 179.403 -0.847127 1.86239 0
M  V30 1927 H 179.413 -3.20076 2.53013 0
M  V30 1928 H 178.088 -2.42291 3.38035 0
M  V30 1929 H 176.665 -3.2851 1.76452 0
M  V30 1930 N 178.85 -1.27639 -0.924453 0
M  V30 1931 C 180.075 -1.17101 -1.71179 0
M  V30 1932 C 180.5 0.268134 -1.86179 0
M  V30 1933 O 179.858 1.19415 -1.36418 0
M  V30 1934 C 179.906 -1.86313 -3.08739 0
M  V30 1935 O 179.01 -1.16331 -3.95652 0
M  V30 1936 H 178.351 -0.407091 -0.524569 0
M  V30 1937 H 180.881 -1.68767 -1.15666 0
M  V30 1938 H 180.891 -1.938 -3.59034 0
M  V30 1939 H 179.566 -2.91001 -2.97138 0
M  V30 1940 H 178.143 -1.16935 -3.54091 0
M  V30 1941 N 180.328 1.1314 -1.09713 0
M  V30 1942 C 181.275 2.18642 -0.739196 0
M  V30 1943 C 182.245 1.63706 0.280978 0
M  V30 1944 O 183.43 1.90111 0.161946 0
M  V30 1945 C 180.57 3.44685 -0.169102 0
M  V30 1946 C 179.683 4.13711 -1.24367 0
M  V30 1947 C 178.818 5.27379 -0.636019 0
M  V30 1948 C 177.857 5.88259 -1.69169 0
M  V30 1949 N 176.994 6.93352 -1.10485 0
M  V30 1950 H 181.834 2.48607 -1.64312 0
M  V30 1951 H 179.371 1.22066 -0.820875 0
M  V30 1952 H 181.329 4.16815 0.179256 0
M  V30 1953 H 179.959 3.15161 0.698079 0
M  V30 1954 H 179.011 3.39835 -1.70927 0
M  V30 1955 H 180.323 4.55037 -2.04311 0
M  V30 1956 H 179.477 6.06238 -0.236677 0
M  V30 1957 H 178.216 4.8731 0.194928 0
M  V30 1958 H 177.221 5.08092 -2.10055 0
M  V30 1959 H 178.446 6.30399 -2.52536 0
M  V30 1960 H 176.392 6.55335 -0.295234 0
M  V30 1961 H 176.309 7.33236 -1.84121 0
M  V30 1962 H 177.577 7.76057 -0.73181 0
M  V30 1963 N 181.806 0.884767 1.30421 0
M  V30 1964 C 182.739 0.295999 2.26272 0
M  V30 1965 C 183.717 -0.58332 1.51777 0
M  V30 1966 O 184.901 -0.53346 1.80794 0
M  V30 1967 C 182.028 -0.57944 3.33707 0
M  V30 1968 C 181.074 0.230525 4.25877 0
M  V30 1969 S 181.907 1.61867 5.1045 0
M  V30 1970 C 183.063 0.749756 6.21393 0
M  V30 1971 H 183.296 1.10848 2.75862 0
M  V30 1972 H 180.829 0.684178 1.38414 0
M  V30 1973 H 182.787 -1.07879 3.96071 0
M  V30 1974 H 181.448 -1.36601 2.82841 0
M  V30 1975 H 180.641 -0.437542 5.02097 0
M  V30 1976 H 180.243 0.662493 3.68086 0
M  V30 1977 H 182.535 -0.0333547 6.77492 0
M  V30 1978 H 183.478 1.48356 6.92384 0
M  V30 1979 H 183.886 0.310751 5.63644 0
M  V30 1980 N 183.284 -1.43765 0.645699 0
M  V30 1981 C 184.232 -2.32516 -0.0624849 0
M  V30 1982 C 185.226 -1.48183 -0.820855 0
M  V30 1983 O 186.432 -1.64439 -0.732106 0
M  V30 1984 H 182.807 -0.750989 -0.0389864 0
M  V30 1985 H 184.778 -2.89979 0.703892 0
M  V30 1986 C 183.527 -3.32389 -1.02044 0
M  V30 1987 H 182.85 -3.97301 -0.446312 0
M  V30 1988 H 184.29 -3.97138 -1.48517 0
M  V30 1989 C 182.749 -2.62416 -2.11281 0
M  V30 1990 O 183.279 -2.434 -3.19561 0
M  V30 1991 N 181.485 -2.21913 -1.87624 0
M  V30 1992 H 181.032 -2.37578 -0.995703 0
M  V30 1993 H 180.99 -1.75424 -2.6091 0
M  V30 1994 N 184.763 -0.387143 -1.52771 0
M  V30 1995 C 186.012 0.19697 -2.00736 0
M  V30 1996 C 186.325 1.48082 -1.27793 0
M  V30 1997 O 187.531 2.14485 -1.66458 0
M  V30 1998 C 185.987 0.401568 -3.57653 0
M  V30 1999 C 185.595 -0.868907 -4.39493 0
M  V30 2000 C 187.339 0.942164 -4.13912 0
M  V30 2001 C 185.246 -0.632705 -5.88006 0
M  V30 2002 H 184.176 0.0773827 -0.750019 0
M  V30 2003 H 186.827 -0.50921 -1.76293 0
M  V30 2004 H 185.209 1.16954 -3.78335 0
M  V30 2005 H 186.383 -1.64133 -4.30577 0
M  V30 2006 H 184.698 -1.33429 -3.94443 0
M  V30 2007 H 187.295 1.13455 -5.22525 0
M  V30 2008 H 187.638 1.9106 -3.69867 0
M  V30 2009 H 188.171 0.233814 -3.97112 0
M  V30 2010 H 184.91 -1.57208 -6.36369 0
M  V30 2011 H 184.43 0.100825 -5.99715 0
M  V30 2012 H 186.109 -0.26642 -6.46451 0
M  V30 2013 N 186.241 1.57166 -0.116904 0
M  V30 2014 C 187.487 1.95412 0.542405 0
M  V30 2015 C 187.82 1.00019 1.66463 0
M  V30 2016 O 187.095 0.0370346 1.94465 0
M  V30 2017 C 187.378 3.43615 1.07708 0
M  V30 2018 C 187.231 4.49781 -0.0415868 0
M  V30 2019 C 188.55 3.93616 1.96861 0
M  V30 2020 H 185.669 0.710543 0.195696 0
M  V30 2021 H 188.311 1.89027 -0.192038 0
M  V30 2022 H 186.461 3.49187 1.70296 0
M  V30 2023 H 188.133 4.56308 -0.676793 0
M  V30 2024 H 186.376 4.28033 -0.705019 0
M  V30 2025 H 187.047 5.50733 0.373717 0
M  V30 2026 H 189.523 3.90335 1.44146 0
M  V30 2027 H 188.399 4.97838 2.3119 0
M  V30 2028 H 188.66 3.34188 2.89432 0
M  V30 2029 N 187.719 -0.156864 1.56817 0
M  V30 2030 C 188.965 -0.872416 1.83076 0
M  V30 2031 C 189.298 -1.81261 0.697001 0
M  V30 2032 O 188.573 -1.92171 -0.30008 0
M  V30 2033 C 188.856 -1.65551 3.19789 0
M  V30 2034 C 188.709 -0.737467 4.43713 0
M  V30 2035 C 190.028 -2.62012 3.53606 0
M  V30 2036 H 187.147 -0.315715 0.665953 0
M  V30 2037 H 189.789 -0.138004 1.89498 0
M  V30 2038 H 187.939 -2.28159 3.14445 0
M  V30 2039 H 189.611 -0.123143 4.61136 0
M  V30 2040 H 187.854 -0.0464067 4.33775 0
M  V30 2041 H 188.525 -1.32122 5.35955 0
M  V30 2042 H 191.001 -2.09525 3.59497 0
M  V30 2043 H 189.877 -3.13861 4.50314 0
M  V30 2044 H 190.138 -3.42902 2.79053 0
M  V30 2045 N 189.197 -1.51736 -0.425897 0
M  V30 2046 C 190.16 -1.73271 -1.50032 0
M  V30 2047 C 191.16 -0.602639 -1.4908 0
M  V30 2048 O 192.35 -0.87033 -1.509 0
M  V30 2049 C 189.482 -1.79969 -2.89523 0
M  V30 2050 H 190.675 -2.69172 -1.32237 0
M  V30 2051 H 188.228 -1.41899 -0.65532 0
M  V30 2052 H 188.963 -0.859241 -3.1271 0
M  V30 2053 H 188.748 -2.62109 -2.91619 0
M  V30 2054 H 190.238 -1.9843 -3.67444 0
M  V30 2055 N 190.675 0.682077 -1.42076 0
M  V30 2056 C 191.607 1.80755 -1.40926 0
M  V30 2057 C 192.62 1.59833 -0.309398 0
M  V30 2058 O 193.809 1.69087 -0.572014 0
M  V30 2059 C 190.909 3.17744 -1.17865 0
M  V30 2060 C 190.082 3.65578 -2.40149 0
M  V30 2061 C 189.141 4.81277 -2.12742 0
M  V30 2062 O 188.167 4.92197 -2.85887 0
M  V30 2063 N 189.369 5.69474 -1.12602 0
M  V30 2064 H 192.134 1.82229 -2.37935 0
M  V30 2065 H 189.695 0.864903 -1.36861 0
M  V30 2066 H 191.687 3.9279 -0.9746 0
M  V30 2067 H 190.257 3.11214 -0.294068 0
M  V30 2068 H 189.477 2.81291 -2.76169 0
M  V30 2069 H 190.765 3.94278 -3.21593 0
M  V30 2070 H 190.163 5.63297 -0.520899 0
M  V30 2071 H 188.72 6.44363 -0.981842 0
M  V30 2072 N 192.153 1.28127 0.917671 0
M  V30 2073 C 193.43 1.05761 1.64542 0
M  V30 2074 C 193.81 -0.404344 2.07191 0
M  V30 2075 O 193.158 -1.38963 1.81388 0
M  V30 2076 C 193.368 2.02857 2.83989 0
M  V30 2077 C 194.716 2.32786 3.551 0
M  V30 2078 O 195.74 2.0091 2.94132 0
M  V30 2079 O 194.599 2.87169 4.64969 0
M  V30 2080 H 191.693 0.403916 0.721652 0
M  V30 2081 H 194.239 1.39431 0.967322 0
M  V30 2082 H 193.011 3.01407 2.49538 0
M  V30 2083 H 192.634 1.69809 3.59514 0
M  V30 2084 N 193.631 -1.12557 1.10312 0
M  V30 2085 C 194.561 -2.20341 0.772798 0
M  V30 2086 C 195.542 -1.68198 -0.25365 0
M  V30 2087 O 196.727 -1.93831 -0.119699 0
M  V30 2088 C 193.857 -3.46709 0.202443 0
M  V30 2089 C 192.811 -4.11996 1.15943 0
M  V30 2090 C 192.137 -5.328 0.450345 0
M  V30 2091 C 193.437 -4.5828 2.50552 0
M  V30 2092 H 195.131 -2.48229 1.674 0
M  V30 2093 H 192.677 -1.19308 0.806326 0
M  V30 2094 H 194.63 -4.2138 -0.0407752 0
M  V30 2095 H 193.354 -3.18245 -0.734001 0
M  V30 2096 H 192.013 -3.39305 1.38808 0
M  V30 2097 H 191.661 -5.00602 -0.490531 0
M  V30 2098 H 191.361 -5.7743 1.08851 0
M  V30 2099 H 192.885 -6.10219 0.215642 0
M  V30 2100 H 194.299 -5.2433 2.31843 0
M  V30 2101 H 192.696 -5.13683 3.10242 0
M  V30 2102 H 193.766 -3.72329 3.10643 0
M  V30 2103 N 195.109 -0.891671 -1.2995 0
M  V30 2104 C 196.339 -0.527893 -1.99742 0
M  V30 2105 C 196.747 0.88979 -1.66971 0
M  V30 2106 O 196.09 1.59766 -0.906667 0
M  V30 2107 C 196.152 -0.630804 -3.53922 0
M  V30 2108 C 195.816 -2.01401 -4.10228 0
M  V30 2109 C 196.813 -2.98422 -4.25724 0
M  V30 2110 C 194.498 -2.32121 -4.45449 0
M  V30 2111 C 196.492 -4.24293 -4.75662 0
M  V30 2112 C 194.179 -3.58237 -4.95086 0
M  V30 2113 C 195.177 -4.54137 -5.10146 0
M  V30 2114 O 194.865 -5.78014 -5.58708 0
M  V30 2115 H 194.597 -0.201953 -0.645129 0
M  V30 2116 H 197.151 -1.20076 -1.66646 0
M  V30 2117 H 195.381 0.0990616 -3.86573 0
M  V30 2118 H 197.07 -0.277338 -4.04951 0
M  V30 2119 H 197.836 -2.76001 -3.98809 0
M  V30 2120 H 193.715 -1.5824 -4.32991 0
M  V30 2121 H 197.259 -4.99153 -4.87332 0
M  V30 2122 H 193.156 -3.80491 -5.21437 0
M  V30 2123 H 193.924 -5.8049 -5.77039 0
M  V30 2124 N 196.587 1.43421 -0.653314 0
M  V30 2125 C 197.998 1.85065 -0.246537 0
M  V30 2126 C 198.349 1.54688 1.2069 0
M  V30 2127 O 197.474 0.995896 1.92122 0
M  V30 2128 C 198.069 3.35922 -0.440666 0
M  V30 2129 C 196.628 3.76297 -0.0882064 0
M  V30 2130 C 195.775 2.67147 -0.743484 0
M  V30 2131 H 198.726 1.33572 -0.856979 0
M  V30 2132 H 198.747 3.79204 0.313798 0
M  V30 2133 H 198.259 3.58 -1.49858 0
M  V30 2134 H 196.36 3.5983 0.96711 0
M  V30 2135 H 196.473 4.76338 -0.513738 0
M  V30 2136 H 194.837 2.54086 -0.176712 0
M  V30 2137 H 195.62 2.92053 -1.80443 0
M  V30 2138 N 198.065 0.39524 1.52563 0
M  V30 2139 C 198.975 -0.444232 2.30356 0
M  V30 2140 C 199.991 -1.06615 1.37511 0
M  V30 2141 O 201.167 -1.07067 1.70583 0
M  V30 2142 C 198.232 -1.55315 3.09964 0
M  V30 2143 C 197.293 -0.955734 4.18526 0
M  V30 2144 C 196.526 -2.01181 4.9433 0
M  V30 2145 O 196.749 -3.22781 4.70285 0
M  V30 2146 O 195.683 -1.62579 5.79527 0
M  V30 2147 H 199.509 0.189667 3.03107 0
M  V30 2148 H 197.094 0.1588 1.48554 0
M  V30 2149 H 198.976 -2.19724 3.59582 0
M  V30 2150 H 197.651 -2.17191 2.4002 0
M  V30 2151 H 196.558 -0.274743 3.7309 0
M  V30 2152 H 197.891 -0.381109 4.90722 0
M  V30 2153 N 199.544 -1.57102 0.125237 0
M  V30 2154 C 200.769 -2.0019 -0.542101 0
M  V30 2155 C 201.194 -1.00449 -1.59034 0
M  V30 2156 O 200.552 0.0229423 -1.81285 0
M  V30 2157 C 200.6 -3.42129 -1.13929 0
M  V30 2158 O 199.704 -3.45307 -2.2547 0
M  V30 2159 H 199.045 -0.650171 -0.134812 0
M  V30 2160 H 201.575 -2.03461 0.215553 0
M  V30 2161 H 201.585 -3.80471 -1.4733 0
M  V30 2162 H 200.26 -4.14237 -0.371531 0
M  V30 2163 H 198.837 -3.1879 -1.93462 0
M  V30 2164 N 201.022 0.148545 -1.56898 0
M  V30 2165 C 201.952 1.18524 -2.01182 0
M  V30 2166 C 202.933 1.4489 -0.891123 0
M  V30 2167 O 204.118 1.55836 -1.15882 0
M  V30 2168 C 201.248 2.51879 -2.39112 0
M  V30 2169 C 200.202 2.40038 -3.54353 0
M  V30 2170 C 199.528 3.78089 -3.78091 0
M  V30 2171 C 200.828 1.88577 -4.87069 0
M  V30 2172 H 202.522 0.817029 -2.88036 0
M  V30 2173 H 200.068 0.391575 -1.38574 0
M  V30 2174 H 202.021 3.24627 -2.68692 0
M  V30 2175 H 200.745 2.90532 -1.49193 0
M  V30 2176 H 199.404 1.69742 -3.24936 0
M  V30 2177 H 199.052 4.14175 -2.85426 0
M  V30 2178 H 198.752 3.71028 -4.55645 0
M  V30 2179 H 200.276 4.52387 -4.10095 0
M  V30 2180 H 201.69 2.51117 -5.15377 0
M  V30 2181 H 200.087 1.9241 -5.68417 0
M  V30 2182 H 201.157 0.84136 -4.77545 0
M  V30 2183 N 202.5 1.5196 0.417844 0
M  V30 2184 C 203.41 1.77554 1.53336 0
M  V30 2185 C 204.426 0.660655 1.6097 0
M  V30 2186 O 205.602 0.945099 1.77848 0
M  V30 2187 C 202.667 1.91291 2.89152 0
M  V30 2188 C 201.728 3.15183 2.91475 0
M  V30 2189 C 200.961 3.28256 4.20813 0
M  V30 2190 O 201.184 2.46798 5.14244 0
M  V30 2191 O 200.118 4.21356 4.29817 0
M  V30 2192 H 203.944 2.7222 1.34647 0
M  V30 2193 H 201.529 1.36698 0.602828 0
M  V30 2194 H 203.411 2.02199 3.69721 0
M  V30 2195 H 202.086 0.998129 3.07927 0
M  V30 2196 H 200.993 3.09739 2.09791 0
M  V30 2197 H 202.326 4.06414 2.77648 0
M  V30 2198 N 203.978 -0.674533 1.42435 0
M  V30 2199 C 205.226 -1.43175 1.42637 0
M  V30 2200 C 205.547 -1.94951 0.0438992 0
M  V30 2201 O 204.817 -1.7308 -0.917607 0
M  V30 2202 H 203.397 -0.531307 0.525092 0
M  V30 2203 H 206.059 -0.797006 1.77859 0
M  V30 2204 H 205.155 -2.28463 2.12629 0
M  V30 2205 N 205.456 -1.28612 -0.910864 0
M  V30 2206 C 206.733 -1.06632 -1.63979 0
M  V30 2207 C 207.113 0.393351 -2.07403 0
M  V30 2208 O 206.461 1.37999 -1.82122 0
M  V30 2209 C 206.671 -2.0436 -2.8291 0
M  V30 2210 C 208.019 -2.34666 -3.5386 0
M  V30 2211 O 209.043 -2.02467 -2.93062 0
M  V30 2212 O 207.902 -2.89631 -4.63439 0
M  V30 2213 H 204.996 -0.407737 -0.7195 0
M  V30 2214 H 207.542 -1.39942 -0.959914 0
M  V30 2215 H 206.314 -3.02727 -2.47936 0
M  V30 2216 H 205.937 -1.71714 -3.58609 0
M  V30 2217 N 206.934 1.1197 -1.10907 0
M  V30 2218 C 207.844 2.21433 -0.774896 0
M  V30 2219 C 208.86 1.72478 0.229657 0
M  V30 2220 O 210.036 2.01288 0.0672008 0
M  V30 2221 C 207.101 3.4602 -0.216986 0
M  V30 2222 C 206.162 4.09791 -1.27944 0
M  V30 2223 C 205.395 5.28431 -0.748055 0
M  V30 2224 O 205.618 5.68823 0.423833 0
M  V30 2225 O 204.552 5.82644 -1.51027 0
M  V30 2226 H 208.378 2.5242 -1.68873 0
M  V30 2227 H 205.963 1.20399 -0.884555 0
M  V30 2228 H 207.845 4.21304 0.090059 0
M  V30 2229 H 206.52 3.16698 0.669633 0
M  V30 2230 H 205.427 3.36265 -1.63941 0
M  V30 2231 H 206.76 4.4328 -2.13925 0
M  V30 2232 N 208.412 0.89855 1.29475 0
M  V30 2233 C 209.823 0.572537 1.77705 0
M  V30 2234 C 210.174 -0.911778 1.73727 0
M  V30 2235 O 209.299 -1.71288 1.32247 0
M  V30 2236 C 209.894 1.03252 3.22683 0
M  V30 2237 C 208.453 0.757687 3.68695 0
M  V30 2238 C 207.6 1.20787 2.49612 0
M  V30 2239 H 210.551 1.08139 1.16153 0
M  V30 2240 H 210.572 0.367307 3.78723 0
M  V30 2241 H 210.084 2.11285 3.25546 0
M  V30 2242 H 208.185 -0.310079 3.71308 0
M  V30 2243 H 208.298 1.35476 4.59547 0
M  V30 2244 H 206.662 0.626888 2.46865 0
M  V30 2245 H 207.445 2.29622 2.55203 0
M  V30 2246 N 209.89 -1.43072 0.660911 0
M  V30 2247 C 210.8 -2.34585 -0.0264163 0
M  V30 2248 C 211.816 -1.54316 -0.803898 0
M  V30 2249 O 212.992 -1.86939 -0.749391 0
M  V30 2250 C 210.057 -3.32689 -0.975639 0
M  V30 2251 C 209.118 -4.2886 -0.194236 0
M  V30 2252 C 208.351 -5.22278 -1.09825 0
M  V30 2253 O 208.574 -5.20299 -2.33763 0
M  V30 2254 O 207.508 -5.99228 -0.566513 0
M  V30 2255 H 211.334 -2.94869 0.727034 0
M  V30 2256 H 208.919 -1.43342 0.42111 0
M  V30 2257 H 210.801 -3.92995 -1.52094 0
M  V30 2258 H 209.476 -2.74898 -1.70918 0
M  V30 2259 H 208.383 -3.72011 0.394835 0
M  V30 2260 H 209.716 -4.89655 0.499899 0
M  V30 2261 N 211.368 -0.403325 -1.52352 0
M  V30 2262 C 212.779 0.0675782 -1.86578 0
M  V30 2263 C 213.13 1.44941 -1.32236 0
M  V30 2264 O 212.255 2.06112 -0.659307 0
M  V30 2265 C 212.85 0.129404 -3.38553 0
M  V30 2266 C 211.409 0.544629 -3.72439 0
M  V30 2267 C 210.556 -0.284551 -2.75836 0
M  V30 2268 H 213.507 -0.620631 -1.46061 0
M  V30 2269 H 213.528 0.94581 -3.68558 0
M  V30 2270 H 213.04 -0.87645 -3.78074 0
M  V30 2271 H 211.141 1.55734 -3.38493 0
M  V30 2272 H 211.254 0.293046 -4.78203 0
M  V30 2273 H 209.618 0.252258 -2.53448 0
M  V30 2274 H 210.401 -1.28865 -3.18196 0
M  V30 2275 N 212.846 1.57033 -0.133567 0
M  V30 2276 C 213.776 2.1909 0.807567 0
M  V30 2277 C 214.757 1.13517 1.26681 0
M  V30 2278 O 215.942 1.41809 1.32679 0
M  V30 2279 C 213.072 2.80188 2.05212 0
M  V30 2280 C 212.026 3.91471 1.73015 0
M  V30 2281 C 211.352 4.39443 3.04622 0
M  V30 2282 C 212.652 5.12886 0.987168 0
M  V30 2283 H 214.346 2.97988 0.290403 0
M  V30 2284 H 211.892 1.43335 0.138239 0
M  V30 2285 H 213.845 3.22264 2.71521 0
M  V30 2286 H 212.569 1.98601 2.59278 0
M  V30 2287 H 211.228 3.49993 1.0909 0
M  V30 2288 H 210.876 3.54695 3.56651 0
M  V30 2289 H 210.576 5.14495 2.83847 0
M  V30 2290 H 212.1 4.8418 3.72024 0
M  V30 2291 H 213.514 5.51891 1.55208 0
M  V30 2292 H 211.911 5.93615 0.87985 0
M  V30 2293 H 212.981 4.84894 -0.0235286 0
M  V30 2294 N 214.325 -0.140222 1.56975 0
M  V30 2295 C 215.736 -0.699596 1.73097 0
M  V30 2296 C 216.087 -1.8134 0.749022 0
M  V30 2297 O 215.212 -2.16241 -0.0828503 0
M  V30 2298 C 215.807 -1.27582 3.1386 0
M  V30 2299 C 214.366 -1.78169 3.31561 0
M  V30 2300 C 213.513 -0.672855 2.69013 0
M  V30 2301 H 216.464 0.0855115 1.58469 0
M  V30 2302 H 216.485 -2.14561 3.14235 0
M  V30 2303 H 215.997 -0.464955 3.85305 0
M  V30 2304 H 214.098 -2.61801 2.65124 0
M  V30 2305 H 214.211 -1.90574 4.39566 0
M  V30 2306 H 212.575 -1.10118 2.29665 0
M  V30 2307 H 213.358 0.126679 3.43066 0
M  V30 2308 N 215.803 -1.52179 -0.40978 0
M  V30 2309 C 216.735 -1.71703 -1.51825 0
M  V30 2310 C 217.748 -0.597445 -1.51441 0
M  V30 2311 O 218.937 -0.872582 -1.55719 0
M  V30 2312 C 216.037 -1.74171 -2.90719 0
M  V30 2313 C 215.21 -3.03156 -3.15302 0
M  V30 2314 C 214.269 -2.97445 -4.34065 0
M  V30 2315 O 213.295 -3.71352 -4.31377 0
M  V30 2316 N 214.497 -2.15191 -5.39141 0
M  V30 2317 H 217.262 -2.67334 -1.35472 0
M  V30 2318 H 214.823 -1.50409 -0.599069 0
M  V30 2319 H 216.815 -1.67884 -3.68235 0
M  V30 2320 H 215.385 -0.860166 -3.00533 0
M  V30 2321 H 214.605 -3.23097 -2.25836 0
M  V30 2322 H 215.893 -3.88484 -3.28569 0
M  V30 2323 H 215.291 -1.54573 -5.44173 0
M  V30 2324 H 213.848 -2.1476 -6.15403 0
M  V30 2325 N 217.281 0.66697 -1.42791 0
M  V30 2326 C 218.527 1.4291 -1.43891 0
M  V30 2327 C 218.86 1.94114 -0.0578972 0
M  V30 2328 O 218.135 1.71414 0.91911 0
M  V30 2329 C 218.418 2.62049 -2.46987 0
M  V30 2330 C 218.271 2.16426 -3.94309 0
M  V30 2331 C 219.59 3.64266 -2.46978 0
M  V30 2332 H 216.709 0.518306 -0.523954 0
M  V30 2333 H 219.351 0.757321 -1.74255 0
M  V30 2334 H 217.501 3.19361 -2.21225 0
M  V30 2335 H 219.173 1.64221 -4.31079 0
M  V30 2336 H 217.416 1.47925 -4.078 0
M  V30 2337 H 218.087 3.02038 -4.62036 0
M  V30 2338 H 220.563 3.16686 -2.69906 0
M  V30 2339 H 219.439 4.45196 -3.21079 0
M  V30 2340 H 219.7 4.15927 -1.49857 0
M  V30 2341 N 218.759 1.29093 0.90403 0
M  V30 2342 C 220.175 1.07011 1.1841 0
M  V30 2343 C 220.375 -0.181358 2.00682 0
M  V30 2344 O 219.431 -0.880331 2.36657 0
M  V30 2345 C 220.744 2.32311 1.90924 0
M  V30 2346 C 222.292 2.37587 2.03768 0
M  V30 2347 C 222.767 3.62679 2.79693 0
M  V30 2348 N 224.258 3.63376 2.87249 0
M  V30 2349 C 224.993 4.56848 3.46522 0
M  V30 2350 N 224.489 5.60648 4.06996 0
M  V30 2351 N 226.282 4.44426 3.44154 0
M  V30 2352 H 218.433 2.09412 0.354993 0
M  V30 2353 H 220.696 0.922181 0.219742 0
M  V30 2354 H 220.402 3.23536 1.37905 0
M  V30 2355 H 220.276 2.39483 2.91424 0
M  V30 2356 H 222.663 1.46853 2.55965 0
M  V30 2357 H 222.744 2.34403 1.02415 0
M  V30 2358 H 222.388 4.53762 2.28173 0
M  V30 2359 H 222.318 3.63119 3.81381 0
M  V30 2360 H 224.809 2.88321 2.44293 0
M  V30 2361 H 225.122 6.28101 4.50232 0
M  V30 2362 H 223.467 5.64463 4.05471 0
M  V30 2363 H 226.658 3.62529 2.96126 0
M  V30 2364 H 226.831 5.17457 3.90054 0
M  V30 2365 N 220.237 -1.11381 1.11499 0
M  V30 2366 C 221.483 -1.83597 0.875423 0
M  V30 2367 C 221.838 -1.83048 -0.592555 0
M  V30 2368 O 221.131 -1.27304 -1.43193 0
M  V30 2369 C 221.325 -3.30026 1.37177 0
M  V30 2370 C 221.154 -3.44837 2.88647 0
M  V30 2371 C 219.924 -3.57825 3.56776 0
M  V30 2372 C 222.122 -3.3907 3.86699 0
M  V30 2373 N 220.104 -3.61113 4.96458 0
M  V30 2374 C 221.475 -3.48986 5.12454 0
M  V30 2375 C 223.53 -3.22605 3.7925 0
M  V30 2376 C 222.233 -3.44135 6.31636 0
M  V30 2377 C 224.259 -3.19072 4.97943 0
M  V30 2378 C 223.621 -3.29559 6.22551 0
M  V30 2379 H 219.72 -0.687044 0.37349 0
M  V30 2380 H 222.304 -1.33265 1.41946 0
M  V30 2381 H 220.475 -3.78874 0.854919 0
M  V30 2382 H 222.207 -3.90153 1.07529 0
M  V30 2383 H 218.962 -3.60414 3.07244 0
M  V30 2384 H 219.386 -3.66394 5.69284 0
M  V30 2385 H 224.028 -3.13382 2.83816 0
M  V30 2386 H 221.746 -3.52126 7.27347 0
M  V30 2387 H 225.332 -3.07498 4.93899 0
M  V30 2388 H 224.212 -3.26815 7.12855 0
M  V30 2389 N 221.715 -0.905404 -1.28997 0
M  V30 2390 C 223.126 -0.581953 -1.77398 0
M  V30 2391 C 223.477 0.902552 -1.74208 0
M  V30 2392 O 222.602 1.70584 -1.33154 0
M  V30 2393 C 223.197 -1.04961 -3.22131 0
M  V30 2394 C 221.756 -0.777229 -3.68288 0
M  V30 2395 C 220.903 -1.22109 -2.48967 0
M  V30 2396 H 223.854 -1.08754 -1.15578 0
M  V30 2397 H 223.875 -0.387387 -3.78523 0
M  V30 2398 H 223.387 -2.13008 -3.24421 0
M  V30 2399 H 221.488 0.290383 -3.71467 0
M  V30 2400 H 221.601 -1.37911 -4.58822 0
M  V30 2401 H 219.965 -0.639971 -2.46529 0
M  V30 2402 H 220.748 -2.30972 -2.53982 0
M  V30 2403 N 223.193 1.4272 -0.668489 0
M  V30 2404 C 224.123 2.335 -0.000100175 0
M  V30 2405 C 225.104 1.50328 0.795964 0
M  V30 2406 O 226.289 1.78949 0.754385 0
M  V30 2407 C 223.419 3.33874 0.956302 0
M  V30 2408 C 222.373 4.27152 0.269278 0
M  V30 2409 C 221.699 5.17684 1.33818 0
M  V30 2410 C 222.999 5.15373 -0.847805 0
M  V30 2411 H 224.693 2.89639 -0.758244 0
M  V30 2412 H 222.239 1.39269 -0.366079 0
M  V30 2413 H 224.192 3.9629 1.43292 0
M  V30 2414 H 222.916 2.76025 1.74579 0
M  V30 2415 H 221.575 3.66123 -0.187042 0
M  V30 2416 H 221.223 4.56165 2.1195 0
M  V30 2417 H 220.923 5.80918 0.883659 0
M  V30 2418 H 222.447 5.82974 1.81586 0
M  V30 2419 H 223.861 5.7151 -0.452681 0
M  V30 2420 H 222.258 5.87407 -1.22773 0
M  V30 2421 H 223.328 4.5415 -1.69929 0
M  V30 2422 N 224.671 0.411399 1.52136 0
M  V30 2423 C 225.634 -0.401089 2.25663 0
M  V30 2424 C 226.634 -0.971732 1.28117 0
M  V30 2425 O 227.824 -0.850254 1.52041 0
M  V30 2426 C 224.956 -1.56483 3.02863 0
M  V30 2427 H 226.149 0.24295 2.98914 0
M  V30 2428 H 223.702 0.163968 1.55438 0
M  V30 2429 H 224.437 -2.24567 2.33967 0
M  V30 2430 H 224.222 -1.16211 3.74483 0
M  V30 2431 H 225.712 -2.13951 3.58629 0
M  V30 2432 N 226.149 -1.5696 0.141893 0
M  V30 2433 C 227.099 -2.13074 -0.811383 0
M  V30 2434 C 228.083 -1.05726 -1.21288 0
M  V30 2435 O 229.275 -1.31914 -1.18015 0
M  V30 2436 C 226.404 -2.75186 -2.0525 0
M  V30 2437 C 225.49 -3.8965 -1.67432 0
M  V30 2438 N 225.881 -4.95733 -1.0041 0
M  V30 2439 C 224.179 -4.00262 -1.96739 0
M  V30 2440 C 224.88 -5.75858 -0.822345 0
M  V30 2441 N 223.856 -5.26452 -1.3546 0
M  V30 2442 H 227.658 -2.92465 -0.290031 0
M  V30 2443 H 225.172 -1.6229 -0.0598218 0
M  V30 2444 H 227.169 -3.13745 -2.74535 0
M  V30 2445 H 225.829 -1.97266 -2.57907 0
M  V30 2446 H 226.84 -5.13607 -0.665441 0
M  V30 2447 H 223.517 -3.33412 -2.51282 0
M  V30 2448 H 224.907 -6.71254 -0.294496 0
M  V30 2449 N 227.627 0.131896 -1.57047 0
M  V30 2450 C 228.56 1.19236 -1.94571 0
M  V30 2451 C 229.538 1.40782 -0.813576 0
M  V30 2452 O 230.722 1.55148 -1.07058 0
M  V30 2453 C 227.849 2.54858 -2.23081 0
M  V30 2454 C 226.895 2.49817 -3.45679 0
M  V30 2455 S 227.728 1.95036 -4.98719 0
M  V30 2456 C 228.884 3.32357 -5.30367 0
M  V30 2457 H 229.117 0.872297 -2.84215 0
M  V30 2458 H 226.65 0.338134 -1.50652 0
M  V30 2459 H 228.608 3.32898 -2.40185 0
M  V30 2460 H 227.269 2.84047 -1.34074 0
M  V30 2461 H 226.462 3.49688 -3.62952 0
M  V30 2462 H 226.064 1.79892 -3.27895 0
M  V30 2463 H 228.356 4.28525 -5.2476 0
M  V30 2464 H 229.299 3.19923 -6.31708 0
M  V30 2465 H 229.707 3.3019 -4.57859 0
M  V30 2466 N 229.106 1.52395 0.401703 0
M  V30 2467 C 230.039 1.70999 1.51111 0
M  V30 2468 C 231.017 0.55765 1.52738 0
M  V30 2469 O 232.201 0.785912 1.71335 0
M  V30 2470 C 229.328 1.75607 2.8962 0
M  V30 2471 C 228.374 2.97227 3.05873 0
M  V30 2472 S 229.207 4.57439 2.78405 0
M  V30 2473 C 230.363 4.64844 4.19131 0
M  V30 2474 H 230.596 2.6483 1.35102 0
M  V30 2475 H 228.129 1.42527 0.593762 0
M  V30 2476 H 230.087 1.78947 3.69443 0
M  V30 2477 H 228.748 0.828914 3.02965 0
M  V30 2478 H 227.941 2.96955 4.07227 0
M  V30 2479 H 227.543 2.91813 2.33925 0
M  V30 2480 H 229.835 4.42677 5.12877 0
M  V30 2481 H 230.778 5.66807 4.24424 0
M  V30 2482 H 231.186 3.93804 4.04448 0
M  V30 2483 N 230.584 -0.659388 1.43143 0
M  V30 2484 C 231.861 -1.41627 1.34912 0
M  V30 2485 C 232.241 -2.11099 -0.00607785 0
M  V30 2486 O 231.589 -2.04353 -1.02236 0
M  V30 2487 C 231.799 -2.40604 2.52805 0
M  V30 2488 C 233.147 -3.04789 2.95616 0
M  V30 2489 O 234.171 -2.50932 2.52807 0
M  V30 2490 O 233.03 -4.02421 3.69756 0
M  V30 2491 H 230.124 -0.63246 0.532844 0
M  V30 2492 H 232.67 -0.686814 1.5518 0
M  V30 2493 H 231.442 -1.88174 3.43083 0
M  V30 2494 H 231.065 -3.21009 2.34604 0
M  V30 2495 N 232.062 -1.29571 -0.897171 0
M  V30 2496 C 232.992 -1.17473 -2.01798 0
M  V30 2497 C 233.973 -0.068323 -1.69963 0
M  V30 2498 O 235.158 -0.248239 -1.92607 0
M  V30 2499 C 232.288 -0.853099 -3.36659 0
M  V30 2500 C 231.242 -1.9161 -3.82713 0
M  V30 2501 C 230.568 -1.44773 -5.14728 0
M  V30 2502 C 231.868 -3.32535 -4.02763 0
M  V30 2503 H 233.562 -2.11237 -2.12177 0
M  V30 2504 H 231.108 -1.01699 -1.01948 0
M  V30 2505 H 233.061 -0.755165 -4.14578 0
M  V30 2506 H 231.785 0.120236 -3.26379 0
M  V30 2507 H 230.444 -2.00346 -3.07013 0
M  V30 2508 H 230.092 -0.462995 -5.00865 0
M  V30 2509 H 229.792 -2.15865 -5.46513 0
M  V30 2510 H 231.316 -1.36334 -5.95185 0
M  V30 2511 H 232.73 -3.26626 -4.71156 0
M  V30 2512 H 231.127 -4.01607 -4.45905 0
M  V30 2513 H 232.197 -3.75326 -3.07016 0
M  V30 2514 N 233.54 1.10788 -1.12088 0
M  V30 2515 C 234.47 2.19083 -0.807755 0
M  V30 2516 C 235.451 1.6858 0.226859 0
M  V30 2517 O 236.636 1.93997 0.0888475 0
M  V30 2518 C 233.766 3.46344 -0.257576 0
M  V30 2519 C 232.72 4.101 -1.22483 0
M  V30 2520 C 232.046 5.32016 -0.535052 0
M  V30 2521 C 233.346 4.54236 -2.57811 0
M  V30 2522 H 235.04 2.45534 -1.71328 0
M  V30 2523 H 232.586 1.1801 -0.825205 0
M  V30 2524 H 234.539 4.21392 -0.0262679 0
M  V30 2525 H 233.263 3.19373 0.683278 0
M  V30 2526 H 231.922 3.37054 -1.44189 0
M  V30 2527 H 231.57 5.01319 0.410827 0
M  V30 2528 H 231.27 5.75625 -1.18024 0
M  V30 2529 H 232.794 6.09799 -0.312695 0
M  V30 2530 H 234.208 5.20575 -2.40155 0
M  V30 2531 H 232.605 5.08682 -3.18375 0
M  V30 2532 H 233.675 3.6734 -3.16528 0
M  V30 2533 N 235.018 0.912232 1.28515 0
M  V30 2534 C 235.928 0.404506 2.31086 0
M  V30 2535 C 236.944 -0.50707 1.66448 0
M  V30 2536 O 238.12 -0.393624 1.97516 0
M  V30 2537 C 235.185 -0.348572 3.44943 0
M  V30 2538 C 234.246 0.59604 4.25142 0
M  V30 2539 C 233.479 -0.121194 5.33562 0
M  V30 2540 O 233.702 -1.34317 5.5436 0
M  V30 2541 O 232.636 0.542716 5.99448 0
M  V30 2542 H 236.462 1.25579 2.76521 0
M  V30 2543 H 234.047 0.676998 1.33181 0
M  V30 2544 H 235.929 -0.77395 4.14232 0
M  V30 2545 H 234.604 -1.17571 3.01594 0
M  V30 2546 H 233.511 1.07079 3.58448 0
M  V30 2547 H 234.844 1.38995 4.72167 0
M  V30 2548 N 236.496 -1.42363 0.676048 0
M  V30 2549 C 237.773 -1.95183 0.127726 0
M  V30 2550 C 238.153 -1.61641 -1.35777 0
M  V30 2551 O 237.501 -0.913216 -2.09458 0
M  V30 2552 C 237.711 -3.46721 0.398199 0
M  V30 2553 C 239.059 -4.23427 0.315383 0
M  V30 2554 O 240.083 -3.54649 0.332016 0
M  V30 2555 O 238.942 -5.45888 0.25865 0
M  V30 2556 H 236.036 -0.826992 0.00359427 0
M  V30 2557 H 238.582 -1.52184 0.750864 0
M  V30 2558 H 237.354 -3.64344 1.4272 0
M  V30 2559 H 236.977 -3.96769 -0.256885 0
M  V30 2560 N 237.974 -0.419461 -1.51915 0
M  V30 2561 C 239.385 0.0477853 -1.86639 0
M  V30 2562 C 239.736 1.43531 -1.33766 0
M  V30 2563 O 238.861 2.05401 -0.68113 0
M  V30 2564 C 239.456 0.0934885 -3.38671 0
M  V30 2565 C 238.015 0.505097 -3.72996 0
M  V30 2566 C 237.162 -0.313792 -2.75519 0
M  V30 2567 H 240.113 -0.636088 -1.45395 0
M  V30 2568 H 240.134 0.906667 -3.6954 0
M  V30 2569 H 239.646 -0.916501 -3.77123 0
M  V30 2570 H 237.747 1.52135 -3.40126 0
M  V30 2571 H 237.86 0.242309 -4.78487 0
M  V30 2572 H 236.224 0.225363 -2.53701 0
M  V30 2573 H 237.007 -1.32232 -3.16812 0
M  V30 2574 N 239.452 1.56882 -0.150215 0
M  V30 2575 C 240.729 1.87844 0.545327 0
M  V30 2576 C 241.109 1.0567 1.82749 0
M  V30 2577 O 240.457 0.144442 2.28043 0
M  V30 2578 C 240.667 3.39526 0.80767 0
M  V30 2579 C 242.015 4.08814 1.14703 0
M  V30 2580 O 243.039 3.44723 0.896917 0
M  V30 2581 O 241.898 5.22004 1.61784 0
M  V30 2582 H 238.992 0.778677 0.278553 0
M  V30 2583 H 241.538 1.68666 -0.187068 0
M  V30 2584 H 240.31 3.91173 -0.0996096 0
M  V30 2585 H 239.933 3.64243 1.59413 0
M  V30 2586 N 240.93 -0.123565 1.57115 0
M  V30 2587 C 242.177 -0.832153 1.84612 0
M  V30 2588 C 242.505 -1.80093 0.734627 0
M  V30 2589 O 241.76 -1.93766 -0.27442 0
M  V30 2590 C 242.059 -1.62016 3.18568 0
M  V30 2591 C 241.725 -0.796084 4.43817 0
M  V30 2592 C 240.387 -0.568816 4.77826 0
M  V30 2593 C 242.739 -0.221364 5.2073 0
M  V30 2594 C 240.067 0.243499 5.86194 0
M  V30 2595 C 242.419 0.578117 6.29953 0
M  V30 2596 C 241.083 0.815744 6.62497 0
M  V30 2597 H 240.353 -0.304507 0.675542 0
M  V30 2598 H 243 -0.0947248 1.91266 0
M  V30 2599 H 241.305 -2.42837 3.0747 0
M  V30 2600 H 243.002 -2.17231 3.37064 0
M  V30 2601 H 239.592 -0.983307 4.17168 0
M  V30 2602 H 243.776 -0.384173 4.94811 0
M  V30 2603 H 239.032 0.436871 6.09837 0
M  V30 2604 H 243.206 1.03046 6.88734 0
M  V30 2605 H 240.833 1.44701 7.46301 0
M  V30 2606 N 242.408 -1.52605 -0.393616 0
M  V30 2607 C 243.356 -1.77688 -1.50099 0
M  V30 2608 C 244.35 -0.644615 -1.56656 0
M  V30 2609 O 245.556 -0.826997 -1.59877 0
M  V30 2610 H 241.931 -0.562159 -0.499481 0
M  V30 2611 H 243.902 -2.7043 -1.26135 0
M  V30 2612 C 242.651 -1.95858 -2.87289 0
M  V30 2613 H 241.974 -2.8241 -2.82992 0
M  V30 2614 H 243.414 -2.174 -3.64024 0
M  V30 2615 C 241.873 -0.729848 -3.28899 0
M  V30 2616 O 242.403 0.0949217 -4.01588 0
M  V30 2617 N 240.609 -0.561283 -2.85128 0
M  V30 2618 H 240.156 -1.23357 -2.26143 0
M  V30 2619 H 240.114 0.2595 -3.13327 0
M  V30 2620 N 243.887 0.651787 -1.4349 0
M  V30 2621 C 244.797 1.79368 -1.5121 0
M  V30 2622 C 245.813 1.69361 -0.399093 0
M  V30 2623 O 246.989 1.90505 -0.653431 0
M  V30 2624 C 244.054 3.15653 -1.43401 0
M  V30 2625 C 243.115 3.37446 -2.65384 0
M  V30 2626 C 242.348 4.67229 -2.57939 0
M  V30 2627 O 242.571 5.46676 -1.62792 0
M  V30 2628 O 241.505 4.90773 -3.48462 0
M  V30 2629 H 245.331 1.7581 -2.47638 0
M  V30 2630 H 242.916 0.810447 -1.25507 0
M  V30 2631 H 244.798 3.96935 -1.41494 0
M  V30 2632 H 243.473 3.19798 -0.501085 0
M  V30 2633 H 242.38 2.55923 -2.72863 0
M  V30 2634 H 243.713 3.38148 -3.57654 0
M  V30 2635 N 245.365 1.30045 0.890287 0
M  V30 2636 C 246.328 1.15963 1.977 0
M  V30 2637 C 247.328 0.0923777 1.60534 0
M  V30 2638 O 248.518 0.340071 1.70848 0
M  V30 2639 C 245.65 0.775451 3.31963 0
M  V30 2640 H 246.843 2.12502 2.11619 0
M  V30 2641 H 244.396 1.13366 1.07601 0
M  V30 2642 H 245.131 -0.189671 3.23745 0
M  V30 2643 H 244.916 1.54668 3.60306 0
M  V30 2644 H 246.406 0.700251 4.11687 0
M  V30 2645 N 246.843 -1.10192 1.12674 0
M  V30 2646 C 248.259 -1.34235 0.863317 0
M  V30 2647 C 248.459 -1.95062 -0.505277 0
M  V30 2648 O 247.515 -2.19192 -1.25345 0
M  V30 2649 C 248.828 -2.2616 1.98172 0
M  V30 2650 C 250.376 -2.3969 2.0129 0
M  V30 2651 C 250.851 -3.34946 3.1237 0
M  V30 2652 N 252.342 -3.42515 3.11829 0
M  V30 2653 C 253.077 -4.16199 3.94419 0
M  V30 2654 N 252.573 -4.92747 4.87004 0
M  V30 2655 N 254.366 -4.11843 3.82547 0
M  V30 2656 H 246.517 -0.690798 2.00853 0
M  V30 2657 H 248.78 -0.366774 0.874174 0
M  V30 2658 H 248.486 -1.8868 2.96804 0
M  V30 2659 H 248.36 -3.26488 1.88906 0
M  V30 2660 H 250.747 -2.76438 1.03276 0
M  V30 2661 H 250.828 -1.39169 2.14629 0
M  V30 2662 H 250.472 -2.98923 4.10619 0
M  V30 2663 H 250.402 -4.35353 2.96269 0
M  V30 2664 H 252.893 -2.87926 2.44759 0
M  V30 2665 H 253.206 -5.46376 5.46528 0
M  V30 2666 H 251.551 -4.91862 4.91016 0
M  V30 2667 H 254.742 -3.51136 3.0955 0
M  V30 2668 H 254.915 -4.69007 4.47142 0
M  V30 2669 N 248.321 -0.919034 -1.28029 0
M  V30 2670 C 249.269 -0.401753 -2.29104 0
M  V30 2671 C 250.263 0.509354 -1.61561 0
M  V30 2672 O 251.469 0.390014 -1.75724 0
M  V30 2673 H 247.844 -0.111331 -0.743713 0
M  V30 2674 H 249.815 -1.2672 -2.70156 0
M  V30 2675 C 248.564 0.338148 -3.46052 0
M  V30 2676 H 247.887 -0.353732 -3.98232 0
M  V30 2677 H 249.327 0.664653 -4.18758 0
M  V30 2678 C 247.786 1.54798 -2.99231 0
M  V30 2679 O 248.316 2.64696 -3.02157 0
M  V30 2680 N 246.522 1.3968 -2.54829 0
M  V30 2681 H 246.069 0.502698 -2.52647 0
M  V30 2682 H 246.027 2.20755 -2.23863 0
M  V30 2683 N 249.799 1.42003 -0.683588 0
M  V30 2684 C 251.045 2.01712 -0.209825 0
M  V30 2685 C 251.378 1.53968 1.18353 0
M  V30 2686 O 250.653 0.745661 1.79639 0
M  V30 2687 C 250.936 3.59202 -0.254197 0
M  V30 2688 C 250.789 4.17102 -1.68363 0
M  V30 2689 C 252.108 4.38344 0.392709 0
M  V30 2690 H 249.227 0.732891 -0.0777189 0
M  V30 2691 H 251.869 1.68909 -0.87004 0
M  V30 2692 H 250.019 3.87278 0.307954 0
M  V30 2693 H 251.691 3.99946 -2.29871 0
M  V30 2694 H 249.934 3.72597 -2.22157 0
M  V30 2695 H 250.605 5.26249 -1.6663 0
M  V30 2696 H 253.081 4.16011 -0.0859162 0
M  V30 2697 H 251.957 5.47901 0.331063 0
M  V30 2698 H 252.218 4.16887 1.47164 0
M  V30 2699 N 251.277 0.427512 1.51691 0
M  V30 2700 C 252.502 -0.143601 2.06902 0
M  V30 2701 C 252.927 -1.36536 1.29382 0
M  V30 2702 O 252.285 -1.78289 0.329043 0
M  V30 2703 C 252.333 -0.454207 3.57728 0
M  V30 2704 O 251.437 -1.54228 3.82475 0
M  V30 2705 H 250.778 -0.00617128 0.663971 0
M  V30 2706 H 253.308 0.606014 1.95419 0
M  V30 2707 H 253.318 -0.707525 4.01818 0
M  V30 2708 H 251.993 0.438812 4.13579 0
M  V30 2709 H 250.57 -1.2797 3.50254 0
M  V30 2710 N 252.755 -1.56801 0.158532 0
M  V30 2711 C 253.718 -2.16138 -0.762705 0
M  V30 2712 C 254.718 -1.1061 -1.16713 0
M  V30 2713 O 255.908 -1.36191 -1.08617 0
M  V30 2714 C 253.04 -2.73386 -2.03649 0
M  V30 2715 H 254.233 -2.98886 -0.246354 0
M  V30 2716 H 251.786 -1.56035 -0.0909744 0
M  V30 2717 H 252.521 -1.94335 -2.59623 0
M  V30 2718 H 252.306 -3.50601 -1.75559 0
M  V30 2719 H 253.796 -3.19065 -2.6942 0
M  V30 2720 N 254.233 0.115231 -1.57178 0
M  V30 2721 C 255.163 1.1423 -2.03651 0
M  V30 2722 C 256.144 1.42967 -0.921655 0
M  V30 2723 O 257.329 1.53343 -1.19162 0
M  V30 2724 C 254.459 2.4675 -2.44401 0
M  V30 2725 C 253.413 2.32467 -3.59365 0
M  V30 2726 C 252.739 3.69984 -3.86026 0
M  V30 2727 C 254.039 1.78203 -4.90959 0
M  V30 2728 H 255.733 0.755749 -2.89705 0
M  V30 2729 H 253.279 0.362093 -1.39373 0
M  V30 2730 H 255.232 3.18854 -2.75517 0
M  V30 2731 H 253.956 2.87302 -1.55322 0
M  V30 2732 H 252.615 1.62811 -3.28463 0
M  V30 2733 H 252.263 4.08028 -2.94147 0
M  V30 2734 H 251.963 3.61279 -4.63412 0
M  V30 2735 H 253.487 4.43587 -4.19599 0
M  V30 2736 H 254.901 2.40128 -5.20587 0
M  V30 2737 H 253.298 1.8031 -5.72371 0
M  V30 2738 H 254.368 0.739876 -4.79222 0
M  V30 2739 N 255.711 1.52812 0.385517 0
M  V30 2740 C 256.958 1.68026 1.1302 0
M  V30 2741 C 257.286 0.421934 1.89868 0
M  V30 2742 O 256.541 -0.595749 1.86412 0
M  V30 2743 C 256.84 2.86856 2.13187 0
M  V30 2744 C 256.506 4.24159 1.5297 0
M  V30 2745 C 255.168 4.61501 1.36274 0
M  V30 2746 C 257.52 5.09627 1.09223 0
M  V30 2747 C 254.848 5.81966 0.743837 0
M  V30 2748 C 257.2 6.30719 0.487411 0
M  V30 2749 C 255.864 6.6679 0.307777 0
M  V30 2750 H 255.134 0.614849 0.413571 0
M  V30 2751 H 257.781 1.86962 0.414405 0
M  V30 2752 H 256.086 2.6235 2.90998 0
M  V30 2753 H 257.783 2.95821 2.70722 0
M  V30 2754 H 254.373 3.94746 1.66954 0
M  V30 2755 H 258.557 4.81343 1.20922 0
M  V30 2756 H 253.813 6.08519 0.592891 0
M  V30 2757 H 257.987 6.96259 0.140143 0
M  V30 2758 H 255.614 7.60001 -0.173879 0
M  V30 2759 N 257.189 -0.644168 1.43834 0
M  V30 2760 C 258.119 -1.76814 1.52509 0
M  V30 2761 C 259.1 -1.65823 0.379052 0
M  V30 2762 O 260.285 -1.84781 0.597466 0
M  V30 2763 C 257.415 -3.15288 1.4564 0
M  V30 2764 C 256.369 -3.41053 2.58586 0
M  V30 2765 C 255.695 -4.79421 2.36769 0
M  V30 2766 C 256.995 -3.34902 4.00797 0
M  V30 2767 H 258.689 -1.69812 2.46586 0
M  V30 2768 H 256.235 -0.815542 1.1868 0
M  V30 2769 H 258.188 -3.93681 1.50311 0
M  V30 2770 H 256.912 -3.23043 0.480725 0
M  V30 2771 H 255.571 -2.65035 2.53282 0
M  V30 2772 H 255.219 -4.83863 1.37424 0
M  V30 2773 H 254.919 -4.9762 3.12487 0
M  V30 2774 H 256.443 -5.6006 2.43238 0
M  V30 2775 H 257.857 -4.03218 4.07539 0
M  V30 2776 H 256.254 -3.64637 4.76613 0
M  V30 2777 H 257.324 -2.32928 4.25291 0
M  V30 2778 N 258.668 -1.30515 -0.883378 0
M  V30 2779 C 259.914 -1.19607 -1.63774 0
M  V30 2780 C 260.247 0.248314 -1.92606 0
M  V30 2781 O 259.522 1.17742 -1.54813 0
M  V30 2782 C 259.805 -2.02669 -2.97653 0
M  V30 2783 C 259.658 -3.55335 -2.75784 0
M  V30 2784 C 260.977 -1.86573 -3.98596 0
M  V30 2785 H 258.096 -0.435856 -0.594305 0
M  V30 2786 H 260.738 -1.60165 -1.02212 0
M  V30 2787 H 258.888 -1.68208 -3.50197 0
M  V30 2788 H 260.56 -3.99863 -2.30016 0
M  V30 2789 H 258.803 -3.79438 -2.1026 0
M  V30 2790 H 259.474 -4.08745 -3.70988 0
M  V30 2791 H 261.95 -2.16703 -3.55217 0
M  V30 2792 H 260.826 -2.47014 -4.90179 0
M  V30 2793 H 261.087 -0.825321 -4.34328 0
M  V30 2794 N 260.146 1.09593 -1.13257 0
M  V30 2795 C 261.562 1.33775 -0.870423 0
M  V30 2796 C 261.762 1.95327 0.494926 0
M  V30 2797 O 260.818 2.19853 1.2418 0
M  V30 2798 C 262.131 2.25106 -1.99369 0
M  V30 2799 C 263.679 2.3862 -2.02558 0
M  V30 2800 C 264.154 3.33285 -3.14142 0
M  V30 2801 N 265.645 3.40857 -3.13641 0
M  V30 2802 C 266.38 4.14101 -3.96621 0
M  V30 2803 N 265.876 4.90157 -4.8961 0
M  V30 2804 N 267.669 4.09808 -3.84726 0
M  V30 2805 H 259.82 0.680136 -2.01216 0
M  V30 2806 H 262.083 0.362133 -0.876107 0
M  V30 2807 H 261.789 1.87103 -2.97801 0
M  V30 2808 H 261.663 3.25481 -1.90635 0
M  V30 2809 H 264.05 2.75887 -1.0474 0
M  V30 2810 H 264.131 1.38028 -2.15364 0
M  V30 2811 H 263.775 2.96741 -4.12198 0
M  V30 2812 H 263.705 4.33776 -2.98574 0
M  V30 2813 H 266.196 2.86624 -2.46282 0
M  V30 2814 H 266.509 5.4347 -5.49418 0
M  V30 2815 H 264.854 4.89251 -4.93617 0
M  V30 2816 H 268.045 3.4949 -3.11408 0
M  V30 2817 H 268.218 4.66629 -4.49623 0
M  V30 2818 N 261.624 0.925811 1.2754 0
M  V30 2819 C 262.534 0.428993 2.30644 0
M  V30 2820 C 263.55 -0.489387 1.66976 0
M  V30 2821 O 264.726 -0.372653 1.97922 0
M  V30 2822 C 261.791 -0.311967 3.45294 0
M  V30 2823 C 260.852 0.641098 4.24486 0
M  V30 2824 C 260.085 -0.0645955 5.33661 0
M  V30 2825 O 260.308 -1.28429 5.55754 0
M  V30 2826 O 259.242 0.606265 5.98839 0
M  V30 2827 H 263.068 1.28504 2.75173 0
M  V30 2828 H 260.653 0.691086 1.32455 0
M  V30 2829 H 262.535 -0.729972 4.15029 0
M  V30 2830 H 261.21 -1.14365 3.02824 0
M  V30 2831 H 260.117 1.10874 3.57292 0
M  V30 2832 H 261.45 1.43995 4.70666 0
M  V30 2833 N 263.102 -1.41638 0.69111 0
M  V30 2834 C 264.348 -2.02104 0.229258 0
M  V30 2835 C 264.703 -1.53741 -1.15678 0
M  V30 2836 O 263.996 -0.736849 -1.76865 0
M  V30 2837 C 264.19 -3.56714 0.221277 0
M  V30 2838 C 264.019 -4.20083 1.605 0
M  V30 2839 C 262.789 -4.54566 2.20676 0
M  V30 2840 C 264.987 -4.46587 2.55078 0
M  V30 2841 N 262.969 -5.03199 3.5166 0
M  V30 2842 C 264.34 -4.96946 3.70735 0
M  V30 2843 C 266.395 -4.28593 2.53401 0
M  V30 2844 C 265.098 -5.31203 4.8499 0
M  V30 2845 C 267.124 -4.63936 3.66765 0
M  V30 2846 C 266.486 -5.14463 4.81152 0
M  V30 2847 H 262.585 -0.771256 0.12918 0
M  V30 2848 H 265.169 -1.72251 0.907626 0
M  V30 2849 H 263.34 -3.86051 -0.426562 0
M  V30 2850 H 265.072 -4.03896 -0.254983 0
M  V30 2851 H 261.827 -4.4087 1.73005 0
M  V30 2852 H 262.251 -5.31926 4.18789 0
M  V30 2853 H 266.893 -3.88771 1.66184 0
M  V30 2854 H 264.611 -5.69951 5.72871 0
M  V30 2855 H 268.197 -4.51677 3.66714 0
M  V30 2856 H 267.077 -5.41299 5.67419 0
M  V30 2857 N 264.58 -0.43555 -1.51462 0
M  V30 2858 C 265.51 0.367376 -2.30592 0
M  V30 2859 C 266.491 1.02263 -1.35928 0
M  V30 2860 O 267.676 1.02661 -1.64847 0
M  V30 2861 C 264.806 1.46983 -3.14664 0
M  V30 2862 C 263.76 0.938161 -4.17591 0
M  V30 2863 C 263.086 2.13622 -4.90173 0
M  V30 2864 C 264.386 -0.0261621 -5.22293 0
M  V30 2865 H 266.08 -0.292969 -2.97963 0
M  V30 2866 H 263.626 -0.14234 -1.43295 0
M  V30 2867 H 265.579 2.03873 -3.688 0
M  V30 2868 H 264.303 2.15843 -2.4511 0
M  V30 2869 H 262.962 0.391481 -3.64504 0
M  V30 2870 H 262.61 2.81098 -4.17124 0
M  V30 2871 H 262.31 1.78688 -5.59772 0
M  V30 2872 H 263.834 2.7107 -5.47132 0
M  V30 2873 H 265.248 0.452384 -5.71512 0
M  V30 2874 H 263.645 -0.287992 -5.99409 0
M  V30 2875 H 264.715 -0.963391 -4.75233 0
M  V30 2876 N 266.058 1.56714 -0.166846 0
M  V30 2877 C 267.005 2.17746 0.765193 0
M  V30 2878 C 267.975 1.11614 1.23011 0
M  V30 2879 O 269.16 1.39745 1.29908 0
M  V30 2880 C 266.3 2.81882 1.9909 0
M  V30 2881 C 265.413 4.02462 1.56997 0
M  V30 2882 C 264.548 4.54537 2.749 0
M  V30 2883 C 263.587 5.67538 2.29275 0
M  V30 2884 N 262.724 6.14142 3.40255 0
M  V30 2885 H 267.564 2.97048 0.237952 0
M  V30 2886 H 265.101 1.4672 0.105725 0
M  V30 2887 H 267.059 3.17221 2.70974 0
M  V30 2888 H 265.689 2.05191 2.49192 0
M  V30 2889 H 264.741 3.72973 0.748037 0
M  V30 2890 H 266.053 4.84273 1.19503 0
M  V30 2891 H 265.207 4.92035 3.54946 0
M  V30 2892 H 263.946 3.71774 3.1565 0
M  V30 2893 H 262.951 5.29597 1.47674 0
M  V30 2894 H 264.176 6.52099 1.89588 0
M  V30 2895 H 262.122 5.3431 3.8059 0
M  V30 2896 H 262.039 6.9093 3.06841 0
M  V30 2897 H 263.307 6.56289 4.206 0
M  V30 2898 N 267.536 -0.106894 1.57237 0
M  V30 2899 C 268.784 -0.810921 1.85117 0
M  V30 2900 C 269.105 -1.7984 0.753827 0
M  V30 2901 O 268.375 -1.94649 -0.221056 0
M  V30 2902 H 266.955 -0.302466 0.683025 0
M  V30 2903 H 269.617 -0.0913324 1.94686 0
M  V30 2904 H 268.713 -1.34875 2.81452 0
M  V30 2905 N 269.014 -1.53014 -0.377408 0
M  V30 2906 C 269.946 -1.74884 -1.48149 0
M  V30 2907 C 270.959 -0.629433 -1.5014 0
M  V30 2908 O 272.148 -0.905416 -1.53833 0
M  V30 2909 C 269.248 -1.80299 -2.86959 0
M  V30 2910 C 268.421 -3.09776 -3.08801 0
M  V30 2911 C 267.48 -3.06586 -4.27658 0
M  V30 2912 O 266.506 -3.80419 -4.23403 0
M  V30 2913 N 267.708 -2.26578 -5.34455 0
M  V30 2914 H 270.473 -2.70147 -1.29771 0
M  V30 2915 H 268.034 -1.51646 -0.56703 0
M  V30 2916 H 270.026 -1.75657 -3.64591 0
M  V30 2917 H 268.596 -0.92372 -2.98641 0
M  V30 2918 H 267.816 -3.27815 -2.18931 0
M  V30 2919 H 269.104 -3.95366 -3.20255 0
M  V30 2920 H 268.502 -1.66081 -5.40771 0
M  V30 2921 H 267.059 -2.27766 -6.10709 0
M  V30 2922 N 270.492 0.636531 -1.44174 0
M  V30 2923 C 271.74 1.39343 -1.46383 0
M  V30 2924 C 272.061 1.94766 -0.0955715 0
M  V30 2925 O 271.331 1.75452 0.871395 0
M  V30 2926 H 269.911 0.517199 -0.538994 0
M  V30 2927 H 272.573 0.74957 -1.7991 0
M  V30 2928 H 271.669 2.22746 -2.18611 0
M  V30 2929 N 271.97 1.30982 0.876444 0
M  V30 2930 C 273.386 1.09498 1.16113 0
M  V30 2931 C 273.586 -0.13875 2.01022 0
M  V30 2932 O 272.642 -0.829935 2.38471 0
M  V30 2933 C 273.955 2.36308 1.85954 0
M  V30 2934 C 275.503 2.41856 1.98683 0
M  V30 2935 C 275.978 3.6853 2.71937 0
M  V30 2936 N 277.469 3.69387 2.79477 0
M  V30 2937 C 278.204 4.64096 3.36753 0
M  V30 2938 N 277.7 5.69155 3.95012 0
M  V30 2939 N 279.493 4.51626 3.3465 0
M  V30 2940 H 271.644 2.10118 0.310494 0
M  V30 2941 H 273.907 0.926634 0.200131 0
M  V30 2942 H 273.613 3.26388 1.31011 0
M  V30 2943 H 273.487 2.4561 2.86278 0
M  V30 2944 H 275.874 1.52249 2.52793 0
M  V30 2945 H 275.955 2.36523 0.9742 0
M  V30 2946 H 275.599 4.58499 2.18496 0
M  V30 2947 H 275.529 3.71127 3.73593 0
M  V30 2948 H 278.02 2.93438 2.38123 0
M  V30 2949 H 278.333 6.3751 4.36808 0
M  V30 2950 H 276.678 5.72937 3.93406 0
M  V30 2951 H 279.869 3.68728 2.8837 0
M  V30 2952 H 280.042 5.25614 3.7899 0
M  V30 2953 N 273.449 -1.08991 1.13837 0
M  V30 2954 C 274.695 -1.81526 0.90422 0
M  V30 2955 C 275.028 -1.85706 -0.568066 0
M  V30 2956 O 274.303 -1.32855 -1.42056 0
M  V30 2957 C 274.586 -3.27447 1.49835 0
M  V30 2958 C 274.439 -3.31512 3.04006 0
M  V30 2959 C 275.758 -4.24256 1.17025 0
M  V30 2960 H 272.877 -0.659029 0.329923 0
M  V30 2961 H 275.519 -1.27644 1.40737 0
M  V30 2962 H 273.669 -3.73462 1.07044 0
M  V30 2963 H 275.341 -2.93867 3.55584 0
M  V30 2964 H 273.584 -2.70963 3.38765 0
M  V30 2965 H 274.255 -4.34329 3.40679 0
M  V30 2966 H 276.731 -3.86549 1.54009 0
M  V30 2967 H 275.607 -5.24684 1.61237 0
M  V30 2968 H 275.868 -4.42019 0.0846274 0
M  V30 2969 O 274.966 -1.06362 -1.21529 0
M  V30 2970 H 275.657 -0.745266 -1.78789 0
M  V30 END ATOM
M  V30 BEGIN BOND
M  V30 END BOND
M  V30 END CTAB
M  END
$$$$
