drugbank_target|P45880 Voltage-dependent anion-selective channel protein 2 (DB01375; DB06098)
 OpenBabel12092120223D

  0  0  0     0  0            999 V3000
M  V30 BEGIN CTAB
M  V30 COUNTS 4388 4431 0 0 0
M  V30 BEGIN ATOM
M  V30 1 H -0.908 1.98254 -0.117106 0
M  V30 2 N 0 1.576 0 0
M  V30 3 C 0.933 2.03868 1.02534 0
M  V30 4 C 1.911 0.928543 1.3348 0
M  V30 5 O 3.095 1.19667 1.45644 0
M  V30 6 C 0.222 2.43627 2.35294 0
M  V30 7 C -0.732 3.65373 2.2001 0
M  V30 8 S 0.101 5.13292 1.52614 0
M  V30 9 C 1.257 5.56322 2.86805 0
M  V30 10 H 1.49 2.90518 0.631377 0
M  V30 11 H -0.977 1.52953 0.210867 0
M  V30 12 H 0.981 2.67203 3.11629 0
M  V30 13 H -0.358 1.57376 2.7183 0
M  V30 14 H -1.165 3.90944 3.18086 0
M  V30 15 H -1.563 3.418 1.51819 0
M  V30 16 H 0.729 5.58782 3.83104 0
M  V30 17 H 1.672 6.56266 2.65933 0
M  V30 18 H 2.08 4.83886 2.90714 0
M  V30 19 N 1.4781 -0.272755 1.55222 0
M  V30 20 C 2.4411 -1.32041 1.87344 0
M  V30 21 C 3.4411 -1.42342 0.74803 0
M  V30 22 O 4.6311 -1.41488 1.0162 0
M  V30 23 C 1.7631 -2.70173 2.07893 0
M  V30 24 H 2.9561 -1.04789 2.80997 0
M  V30 25 H 0.5091 -0.51083 1.47717 0
M  V30 26 H 1.2441 -3.02605 1.16622 0
M  V30 27 H 1.0291 -2.64082 2.89833 0
M  V30 28 H 2.5191 -3.45869 2.34017 0
M  V30 29 N 2.9562 -1.48159 -0.537278 0
M  V30 30 C 4.1842 -1.59454 -1.31841 0
M  V30 31 C 4.5992 -0.252065 -1.8711 0
M  V30 32 O 3.9562 0.757621 -1.66031 0
M  V30 33 C 4.0072 -2.63546 -2.47439 0
M  V30 34 O 3.7282 -3.92583 -1.94449 0
M  V30 35 C 5.2292 -2.85212 -3.39366 0
M  V30 36 H 2.4492 -0.53785 -0.401196 0
M  V30 37 H 4.9932 -1.93932 -0.648891 0
M  V30 38 H 3.1482 -2.31946 -3.1029 0
M  V30 39 H 3.5622 -4.49629 -2.70063 0
M  V30 40 H 5.0362 -3.61863 -4.16844 0
M  V30 41 H 5.5132 -1.93765 -3.94147 0
M  V30 42 H 6.1192 -3.18086 -2.82314 0
M  V30 43 N 4.4343 0.785586 -1.36625 0
M  V30 44 C 5.3843 1.88822 -1.27789 0
M  V30 45 C 6.3683 1.60014 -0.168579 0
M  V30 46 O 7.5603 1.72381 -0.401737 0
M  V30 47 C 4.6893 3.26092 -1.07327 0
M  V30 48 C 3.7753 3.60897 -2.22743 0
M  V30 49 N 4.1663 3.66982 -3.48077 0
M  V30 50 C 2.4643 3.90981 -2.14593 0
M  V30 51 C 3.1653 3.98137 -4.24101 0
M  V30 52 N 2.1413 4.13319 -3.53084 0
M  V30 53 H 5.9433 1.91759 -2.22723 0
M  V30 54 H 3.4573 0.981311 -1.29399 0
M  V30 55 H 5.4543 4.04954 -0.990842 0
M  V30 56 H 4.1143 3.24428 -0.132977 0
M  V30 57 H 5.1253 3.49531 -3.82163 0
M  V30 58 H 1.8023 3.9722 -1.2854 0
M  V30 59 H 3.1923 4.09737 -5.32509 0
M  V30 60 N 5.9124 1.20967 1.01018 0
M  V30 61 C 7.1604 1.02172 1.74371 0
M  V30 62 C 7.4814 -0.446414 1.89821 0
M  V30 63 O 6.7514 -1.32234 1.44537 0
M  V30 64 H 5.3314 0.375066 0.646014 0
M  V30 65 H 7.9934 1.52187 1.21758 0
M  V30 66 H 7.0894 1.48538 2.74487 0
M  V30 67 N 7.3905 -1.2043 1.01659 0
M  V30 68 C 8.3225 -2.22626 0.544988 0
M  V30 69 C 9.3355 -1.58479 -0.372609 0
M  V30 70 O 10.5245 -1.77679 -0.170958 0
M  V30 71 C 7.6245 -3.38141 -0.22663 0
M  V30 72 C 6.7975 -4.31877 0.692876 0
M  V30 73 C 5.8565 -5.26191 -0.0311616 0
M  V30 74 O 4.8825 -5.6612 0.591343 0
M  V30 75 N 6.0845 -5.65618 -1.30601 0
M  V30 76 H 8.8495 -2.63716 1.42388 0
M  V30 77 H 6.4105 -1.34971 0.894116 0
M  V30 78 H 8.4025 -3.98239 -0.72024 0
M  V30 79 H 6.9725 -2.95943 -1.00681 0
M  V30 80 H 6.1925 -3.69746 1.36679 0
M  V30 81 H 7.4805 -4.91426 1.31824 0
M  V30 82 H 6.8785 -5.3519 -1.83269 0
M  V30 83 H 5.4355 -6.28025 -1.74435 0
M  V30 84 N 8.8686 -0.792821 -1.36206 0
M  V30 85 C 10.0966 -0.378825 -2.03402 0
M  V30 86 C 10.5116 1.00586 -1.59774 0
M  V30 87 O 9.8686 1.64574 -0.788764 0
M  V30 88 C 9.9196 -0.43683 -3.58851 0
M  V30 89 O 9.6406 -1.76691 -4.00889 0
M  V30 90 C 11.1416 -0.0138943 -4.43298 0
M  V30 91 H 8.3616 -0.155673 -0.652692 0
M  V30 92 H 10.9056 -1.07261 -1.74113 0
M  V30 93 H 9.0606 0.208575 -3.86838 0
M  V30 94 H 9.4746 -1.72011 -4.95492 0
M  V30 95 H 10.9486 -0.105615 -5.51899 0
M  V30 96 H 11.4256 1.03915 -4.2673 0
M  V30 97 H 12.0316 -0.63192 -4.20579 0
M  V30 98 N 10.3467 1.47872 -0.545128 0
M  V30 99 C 11.5867 2.04391 -0.0187854 0
M  V30 100 C 11.9507 1.41162 1.30144 0
M  V30 101 O 13.1517 1.88656 1.91474 0
M  V30 102 C 11.4227 3.57299 0.0850867 0
M  V30 103 S 12.9817 4.35221 0.559302 0
M  V30 104 H 9.7997 0.710737 -0.0193301 0
M  V30 105 H 12.4017 1.81395 -0.729125 0
M  V30 106 H 11.1057 4.00847 -0.880351 0
M  V30 107 H 10.6367 3.84773 0.819348 0
M  V30 108 H 12.6517 4.61571 1.82118 0
M  V30 109 N 11.8248 0.280983 1.55075 0
M  V30 110 C 12.7878 -0.590896 2.21452 0
M  V30 111 C 13.7878 -1.07682 1.19421 0
M  V30 112 O 14.9778 -0.97605 1.44288 0
M  V30 113 C 12.1098 -1.81587 2.88511 0
M  V30 114 H 13.3028 -0.0112554 2.99898 0
M  V30 115 H 10.8558 0.0316438 1.56268 0
M  V30 116 H 11.5908 -2.43587 2.14093 0
M  V30 117 H 11.3758 -1.4753 3.63287 0
M  V30 118 H 12.8658 -2.43575 3.39206 0
M  V30 119 N 13.3029 -1.57598 0.00835791 0
M  V30 120 C 14.7189 -1.55764 -0.347822 0
M  V30 121 C 14.9189 -1.01186 -1.74252 0
M  V30 122 O 13.9749 -0.649371 -2.44007 0
M  V30 123 C 15.2879 -2.99927 -0.215407 0
M  V30 124 C 16.8359 -3.11656 -0.289725 0
M  V30 125 C 17.3109 -4.57621 -0.18634 0
M  V30 126 N 18.8019 -4.62557 -0.243978 0
M  V30 127 C 19.5369 -5.73094 -0.18745 0
M  V30 128 N 19.0329 -6.92753 -0.0810331 0
M  V30 129 N 20.8259 -5.61588 -0.239925 0
M  V30 130 H 12.9769 -1.91411 0.92062 0
M  V30 131 H 15.2399 -0.879562 0.353659 0
M  V30 132 H 14.9459 -3.43729 0.744512 0
M  V30 133 H 14.8199 -3.63865 -0.994097 0
M  V30 134 H 17.2069 -2.67779 -1.24009 0
M  V30 135 H 17.2879 -2.5048 0.51898 0
M  V30 136 H 16.9319 -5.02174 0.760519 0
M  V30 137 H 16.8619 -5.16752 -1.01364 0
M  V30 138 H 19.3529 -3.76481 -0.327217 0
M  V30 139 H 19.6659 -7.72787 -0.0440241 0
M  V30 140 H 18.0109 -6.94984 -0.0465419 0
M  V30 141 H 21.2019 -4.66996 -0.321317 0
M  V30 142 H 21.3749 -6.47714 -0.192407 0
M  V30 143 N 14.781 0.264519 -1.55364 0
M  V30 144 C 16.192 0.834936 -1.6699 0
M  V30 145 C 16.543 1.86718 -0.602552 0
M  V30 146 O 15.668 2.14899 0.254425 0
M  V30 147 C 16.263 1.5212 -3.02729 0
M  V30 148 C 14.822 2.03954 -3.16354 0
M  V30 149 C 13.969 0.884498 -2.62815 0
M  V30 150 H 16.92 0.0406869 -1.58648 0
M  V30 151 H 16.941 2.38853 -2.96191 0
M  V30 152 H 16.453 0.769668 -3.80392 0
M  V30 153 H 14.554 2.82041 -2.43482 0
M  V30 154 H 14.667 2.24902 -4.23032 0
M  V30 155 H 13.031 1.2802 -2.20188 0
M  V30 156 H 13.814 0.14634 -3.42988 0
M  V30 157 N 16.2591 1.48442 0.529413 0
M  V30 158 C 17.1921 1.57577 1.65059 0
M  V30 159 C 18.1701 0.426198 1.56915 0
M  V30 160 O 19.3541 0.637877 1.77379 0
M  V30 161 C 16.4811 1.5043 3.03461 0
M  V30 162 C 15.5271 2.70235 3.29962 0
M  V30 163 S 16.3601 4.32198 3.16172 0
M  V30 164 C 17.5161 4.2765 4.57019 0
M  V30 165 H 17.7491 2.52427 1.5706 0
M  V30 166 H 15.2821 1.36982 0.712417 0
M  V30 167 H 17.2401 1.46992 3.8328 0
M  V30 168 H 15.9011 0.569167 3.089 0
M  V30 169 H 15.0941 2.61374 4.30929 0
M  V30 170 H 14.6961 2.70938 2.57815 0
M  V30 171 H 16.9881 3.97618 5.48549 0
M  V30 172 H 17.9311 5.28797 4.70934 0
M  V30 173 H 18.3391 3.5811 4.36368 0
M  V30 174 N 17.7372 -0.778329 1.37039 0
M  V30 175 C 18.9772 -1.54973 1.33276 0
M  V30 176 C 19.3412 -1.91816 -0.0839376 0
M  V30 177 O 20.5422 -2.6767 -0.246228 0
M  V30 178 C 18.8132 -2.78517 2.23971 0
M  V30 179 S 20.3722 -3.6865 2.37997 0
M  V30 180 H 17.1902 -0.530639 0.473226 0
M  V30 181 H 19.7922 -0.915806 1.72723 0
M  V30 182 H 18.4962 -2.4952 3.25835 0
M  V30 183 H 18.0272 -3.46875 1.85584 0
M  V30 184 H 20.0422 -4.70182 1.58567 0
M  V30 185 N 19.2153 -1.21501 -1.00376 0
M  V30 186 C 20.4643 -1.02718 -1.73586 0
M  V30 187 C 20.7773 0.439589 -1.90596 0
M  V30 188 O 21.9833 0.746848 -2.61026 0
M  V30 189 C 20.4393 -1.78929 -3.1227 0
M  V30 190 C 20.0473 -3.29783 -3.03228 0
M  V30 191 C 21.7913 -1.68557 -3.89601 0
M  V30 192 C 19.6983 -3.98479 -4.36999 0
M  V30 193 H 18.6283 -0.380733 -0.650814 0
M  V30 194 H 21.2793 -1.45248 -1.1214 0
M  V30 195 H 19.6613 -1.29192 -3.74333 0
M  V30 196 H 20.8353 -3.86832 -2.50395 0
M  V30 197 H 19.1503 -3.40711 -2.39385 0
M  V30 198 H 21.7473 -2.17211 -4.88593 0
M  V30 199 H 22.0903 -0.644021 -4.11288 0
M  V30 200 H 22.6233 -2.15778 -3.34193 0
M  V30 201 H 19.3623 -5.02841 -4.20513 0
M  V30 202 H 18.8823 -3.46219 -4.89788 0
M  V30 203 H 20.5613 -4.03462 -5.05794 0
M  V30 204 N 20.6934 1.19889 -1.02296 0
M  V30 205 C 22.1044 1.71124 -0.746568 0
M  V30 206 C 22.4554 1.81939 0.734335 0
M  V30 207 O 21.5804 1.48639 1.57275 0
M  V30 208 C 22.1754 3.10804 -1.34857 0
M  V30 209 C 20.7344 3.59323 -1.1209 0
M  V30 210 C 19.8814 2.3635 -1.45031 0
M  V30 211 H 22.8324 1.04813 -1.19163 0
M  V30 212 H 22.8534 3.73186 -0.742437 0
M  V30 213 H 22.3654 3.029 -2.42638 0
M  V30 214 H 20.4664 3.7255 -0.0610337 0
M  V30 215 H 20.5794 4.4378 -1.80544 0
M  V30 216 H 18.9434 2.39399 -0.869487 0
M  V30 217 H 19.7264 2.31081 -2.53883 0
M  V30 218 N 22.1715 0.800033 1.35784 0
M  V30 219 C 23.5825 0.439142 1.81462 0
M  V30 220 C 23.9335 -1.03813 1.66485 0
M  V30 221 O 23.0585 -1.80626 1.19177 0
M  V30 222 C 23.6535 0.790314 3.29453 0
M  V30 223 C 22.2125 0.482111 3.733 0
M  V30 224 C 21.3595 1.01938 2.57883 0
M  V30 225 H 24.3105 0.992254 1.23855 0
M  V30 226 H 24.3315 0.0853677 3.80404 0
M  V30 227 H 23.8435 1.86554 3.40322 0
M  V30 228 H 21.9445 -0.584652 3.67984 0
M  V30 229 H 22.0575 1.01015 4.6833 0
M  V30 230 H 20.4215 0.442043 2.50835 0
M  V30 231 H 21.2045 2.10059 2.71533 0
M  V30 232 N 23.6496 -1.47581 0.552962 0
M  V30 233 C 24.8746 -2.07378 0.0300593 0
M  V30 234 C 25.2996 -1.40355 -1.25229 0
M  V30 235 O 24.6576 -0.477099 -1.7491 0
M  V30 236 C 24.7056 -3.60274 -0.153231 0
M  V30 237 O 23.8096 -3.94041 -1.21678 0
M  V30 238 H 23.1506 -0.662158 0.0494182 0
M  V30 239 H 25.6806 -1.89662 0.767434 0
M  V30 240 H 25.6906 -4.0633 -0.368761 0
M  V30 241 H 24.3656 -4.08455 0.783397 0
M  V30 242 H 22.9426 -3.59735 -0.982079 0
M  V30 243 N 25.1277 -0.289203 -1.54924 0
M  V30 244 C 26.3577 0.325989 -2.04012 0
M  V30 245 C 26.7657 1.48961 -1.1665 0
M  V30 246 O 26.1087 1.82794 -0.1822 0
M  V30 247 C 26.1707 0.856112 -3.49158 0
M  V30 248 C 25.8347 -0.180697 -4.56643 0
M  V30 249 C 26.8317 -1.0051 -5.10092 0
M  V30 250 C 24.5167 -0.318998 -5.01286 0
M  V30 251 C 26.5107 -1.95385 -6.06715 0
M  V30 252 C 24.1977 -1.27121 -5.97732 0
M  V30 253 C 25.1957 -2.08713 -6.50329 0
M  V30 254 O 24.8837 -3.02322 -7.44887 0
M  V30 255 H 24.6157 0.0765276 -0.671654 0
M  V30 256 H 27.1697 -0.423254 -2.00992 0
M  V30 257 H 25.3997 1.65567 -3.49463 0
M  V30 258 H 27.0887 1.38591 -3.81507 0
M  V30 259 H 27.8547 -0.90906 -4.76404 0
M  V30 260 H 23.7337 0.306108 -4.59983 0
M  V30 261 H 27.2777 -2.59111 -6.47694 0
M  V30 262 H 23.1747 -1.36801 -6.30837 0
M  V30 263 H 23.9427 -2.97165 -7.6265 0
M  V30 264 N 26.6058 1.57591 -0.0167156 0
M  V30 265 C 27.5688 2.08393 0.954204 0
M  V30 266 C 28.5688 0.996531 1.26198 0
M  V30 267 O 29.7588 1.25858 1.20438 0
M  V30 268 C 26.8908 2.5394 2.27436 0
M  V30 269 H 28.0838 2.95455 0.514451 0
M  V30 270 H 25.6368 1.54582 0.231089 0
M  V30 271 H 26.3718 1.70171 2.76066 0
M  V30 272 H 26.1568 3.33371 2.06412 0
M  V30 273 H 27.6468 2.93512 2.97053 0
M  V30 274 N 28.0839 -0.256276 1.55502 0
M  V30 275 C 29.3609 -1.00789 1.67633 0
M  V30 276 C 29.7409 -2.03706 0.553826 0
M  V30 277 O 29.0889 -2.24145 -0.443969 0
M  V30 278 C 29.2989 -1.64968 3.07549 0
M  V30 279 C 30.6469 -2.15505 3.65845 0
M  V30 280 O 31.6709 -1.74925 3.1029 0
M  V30 281 O 30.5299 -2.89986 4.63217 0
M  V30 282 H 27.6239 -0.468553 0.681459 0
M  V30 283 H 30.1699 -0.250806 1.67836 0
M  V30 284 H 28.9419 -0.904785 3.80696 0
M  V30 285 H 28.5649 -2.47321 3.11317 0
M  V30 286 N 29.562 -1.4872 -0.521534 0
M  V30 287 C 30.492 -1.66771 -1.63431 0
M  V30 288 C 31.473 -0.516499 -1.62069 0
M  V30 289 O 32.658 -0.750013 -1.79132 0
M  V30 290 C 29.788 -1.71515 -3.01993 0
M  V30 291 C 28.742 -2.86222 -3.18216 0
M  V30 292 C 28.068 -2.76061 -4.57924 0
M  V30 293 C 29.368 -4.27419 -3.00184 0
M  V30 294 H 31.062 -2.59932 -1.48579 0
M  V30 295 H 28.608 -1.25089 -0.713358 0
M  V30 296 H 30.561 -1.82731 -3.7972 0
M  V30 297 H 29.285 -0.749393 -3.17886 0
M  V30 298 H 27.944 -2.74575 -2.42908 0
M  V30 299 H 27.592 -1.77437 -4.70665 0
M  V30 300 H 27.292 -3.53037 -4.69722 0
M  V30 301 H 28.816 -2.89256 -5.37739 0
M  V30 302 H 30.23 -4.39855 -3.67697 0
M  V30 303 H 28.627 -5.05458 -3.2347 0
M  V30 304 H 29.697 -4.43293 -1.96518 0
M  V30 305 N 31.0401 0.771051 -1.3745 0
M  V30 306 C 32.2881 1.52661 -1.32435 0
M  V30 307 C 32.6091 1.9479 0.0905024 0
M  V30 308 O 31.8791 1.66348 1.03466 0
M  V30 309 H 30.4591 0.566218 -0.487244 0
M  V30 310 H 33.1211 0.917636 -1.71946 0
M  V30 311 H 32.2171 2.42568 -1.96385 0
M  V30 312 N 32.5182 1.22032 0.997298 0
M  V30 313 C 33.4652 0.986467 2.08656 0
M  V30 314 C 34.4352 -0.0902671 1.65855 0
M  V30 315 O 35.6202 0.0584294 1.90711 0
M  V30 316 C 32.7602 0.565569 3.40434 0
M  V30 317 C 31.8732 1.71259 3.96604 0
M  V30 318 C 31.0082 1.24011 5.16522 0
M  V30 319 C 30.0472 2.35896 5.64818 0
M  V30 320 N 29.1842 1.89726 6.7598 0
M  V30 321 H 34.0242 1.91892 2.27994 0
M  V30 322 H 31.5612 0.956199 1.11782 0
M  V30 323 H 33.5192 0.302738 4.161 0
M  V30 324 H 32.1492 -0.329879 3.2111 0
M  V30 325 H 31.2012 2.08986 3.17851 0
M  V30 326 H 32.5132 2.55436 4.28432 0
M  V30 327 H 31.6672 0.934395 5.99461 0
M  V30 328 H 30.4062 0.368487 4.86306 0
M  V30 329 H 29.4112 2.67261 4.8047 0
M  V30 330 H 30.6362 3.23567 5.97061 0
M  V30 331 H 28.5822 1.0492 6.47555 0
M  V30 332 H 28.4992 2.67471 7.07103 0
M  V30 333 H 29.7672 1.62211 7.62435 0
M  V30 334 N 33.9963 -1.19345 1.0293 0
M  V30 335 C 34.9593 -2.20793 0.615069 0
M  V30 336 C 35.9593 -1.57553 -0.321533 0
M  V30 337 O 37.1493 -1.73862 -0.108483 0
M  V30 338 C 34.2813 -3.40754 -0.0999222 0
M  V30 339 H 35.4743 -2.58955 1.51269 0
M  V30 340 H 33.0273 -1.3303 0.820534 0
M  V30 341 H 33.7623 -3.0811 -1.01187 0
M  V30 342 H 33.5473 -3.87889 0.57309 0
M  V30 343 H 35.0373 -4.15898 -0.376645 0
M  V30 344 N 35.4744 -0.807222 -1.35358 0
M  V30 345 C 36.4374 -0.223665 -2.28106 0
M  V30 346 C 37.4374 0.589354 -1.4961 0
M  V30 347 O 38.6274 0.407745 -1.69361 0
M  V30 348 C 35.7594 0.688149 -3.33882 0
M  V30 349 H 36.9524 -1.04169 -2.81227 0
M  V30 350 H 34.5054 -0.577921 -1.45223 0
M  V30 351 H 35.2404 1.52984 -2.85948 0
M  V30 352 H 35.0254 0.10687 -3.91954 0
M  V30 353 H 36.5154 1.09075 -4.03104 0
M  V30 354 N 36.9525 1.47285 -0.560781 0
M  V30 355 C 38.3685 1.58065 -0.22081 0
M  V30 356 C 38.5685 1.55892 1.27671 0
M  V30 357 O 37.6245 1.46422 2.0571 0
M  V30 358 C 38.9375 2.88418 -0.850625 0
M  V30 359 C 40.4855 3.02009 -0.822184 0
M  V30 360 C 40.9605 4.35066 -1.43113 0
M  V30 361 N 42.4515 4.41711 -1.39448 0
M  V30 362 C 43.1865 5.43237 -1.83525 0
M  V30 363 N 42.6825 6.51555 -2.35474 0
M  V30 364 N 44.4755 5.34304 -1.74574 0
M  V30 365 H 36.6265 1.46941 -1.53369 0
M  V30 366 H 38.8895 0.699558 -0.639783 0
M  V30 367 H 38.5955 2.95755 -1.9032 0
M  V30 368 H 38.4695 3.75612 -0.345773 0
M  V30 369 H 40.8565 2.94266 0.221714 0
M  V30 370 H 40.9375 2.16347 -1.36483 0
M  V30 371 H 40.5815 4.43565 -2.47412 0
M  V30 372 H 40.5115 5.19465 -0.863899 0
M  V30 373 H 43.0025 3.64027 -1.01452 0
M  V30 374 H 43.3155 7.25203 -2.67021 0
M  V30 375 H 41.6605 6.52435 -2.39487 0
M  V30 376 H 44.8515 4.48581 -1.33763 0
M  V30 377 H 45.0245 6.13288 -2.09242 0
M  V30 378 N 38.4306 0.297415 1.54768 0
M  V30 379 C 39.7076 -0.365847 1.92148 0
M  V30 380 C 40.0876 -1.71975 1.22424 0
M  V30 381 O 39.4356 -2.25666 0.358739 0
M  V30 382 C 39.6456 -0.484056 3.45627 0
M  V30 383 C 40.9936 -0.756594 4.17805 0
M  V30 384 O 42.0176 -0.568007 3.51642 0
M  V30 385 O 40.8766 -1.11863 5.34929 0
M  V30 386 H 37.9706 -0.203919 0.801465 0
M  V30 387 H 40.5166 0.34521 1.66152 0
M  V30 388 H 39.2886 0.467865 3.88493 0
M  V30 389 H 38.9116 -1.24372 3.77647 0
M  V30 390 N 39.9087 -1.5758 0.0250728 0
M  V30 391 C 41.1577 -1.90811 -0.653767 0
M  V30 392 C 41.4707 -0.90273 -1.73523 0
M  V30 393 O 42.6767 -1.12614 -2.47043 0
M  V30 394 C 41.1327 -3.38804 -1.21409 0
M  V30 395 C 40.7407 -4.47692 -0.166126 0
M  V30 396 C 42.4847 -3.81108 -1.86967 0
M  V30 397 C 40.3917 -5.86779 -0.737856 0
M  V30 398 H 39.3217 -0.712063 -0.247956 0
M  V30 399 H 41.9727 -1.83281 0.0897137 0
M  V30 400 H 40.3547 -3.41252 -2.00905 0
M  V30 401 H 41.5287 -4.56797 0.606079 0
M  V30 402 H 39.8437 -4.14565 0.390466 0
M  V30 403 H 42.4407 -4.82375 -2.30692 0
M  V30 404 H 42.7837 -3.15953 -2.71071 0
M  V30 405 H 43.3167 -3.81065 -1.14167 0
M  V30 406 H 40.0557 -6.55468 0.0649577 0
M  V30 407 H 39.5757 -5.81288 -1.47864 0
M  V30 408 H 41.2547 -6.35223 -1.22884 0
M  V30 409 N 41.3868 0.248026 -1.55636 0
M  V30 410 C 42.6338 0.976224 -1.77415 0
M  V30 411 C 42.9618 1.85361 -0.589193 0
M  V30 412 O 42.2168 1.90973 0.427529 0
M  V30 413 C 42.5158 1.86819 -3.04686 0
M  V30 414 C 42.1818 1.14625 -4.36087 0
M  V30 415 C 40.8438 0.946723 -4.71795 0
M  V30 416 C 43.1958 0.634463 -5.17324 0
M  V30 417 C 40.5238 0.223091 -5.86276 0
M  V30 418 C 42.8758 -0.0756959 -6.32555 0
M  V30 419 C 41.5398 -0.286711 -6.66884 0
M  V30 420 H 40.8098 0.357226 -0.649208 0
M  V30 421 H 43.4568 0.246415 -1.89908 0
M  V30 422 H 41.7618 2.66502 -2.872 0
M  V30 423 H 43.4588 2.43329 -3.18735 0
M  V30 424 H 40.0488 1.3117 -4.08035 0
M  V30 425 H 44.2328 0.77616 -4.90193 0
M  V30 426 H 39.4888 0.0491185 -6.1138 0
M  V30 427 H 43.6628 -0.479899 -6.94745 0
M  V30 428 H 41.2898 -0.849389 -7.5544 0
M  V30 429 N 42.8649 1.48995 0.513639 0
M  V30 430 C 43.8129 1.65199 1.63744 0
M  V30 431 C 44.8069 0.51809 1.61283 0
M  V30 432 O 46.0129 0.697335 1.65943 0
M  V30 433 H 42.3879 0.52069 0.542574 0
M  V30 434 H 44.3589 2.59552 1.47226 0
M  V30 435 C 43.1079 1.72409 3.01945 0
M  V30 436 H 42.4309 2.59029 3.04539 0
M  V30 437 H 43.8709 1.87785 3.80148 0
M  V30 438 C 42.3299 0.46618 3.33659 0
M  V30 439 O 42.8599 -0.413744 3.99564 0
M  V30 440 N 41.0659 0.332931 2.88687 0
M  V30 441 H 40.6129 1.04996 2.35231 0
M  V30 442 H 40.5709 -0.507665 3.10274 0
M  V30 443 N 44.343 -0.763751 1.37857 0
M  V30 444 C 45.29 -1.87726 1.34267 0
M  V30 445 C 46.26 -1.64807 0.206879 0
M  V30 446 O 47.445 -1.86613 0.397508 0
M  V30 447 C 44.585 -3.24896 1.16346 0
M  V30 448 C 43.698 -3.59716 2.39225 0
M  V30 449 C 42.833 -4.86137 2.14114 0
M  V30 450 C 41.872 -5.13711 3.32817 0
M  V30 451 N 41.009 -6.31323 3.07206 0
M  V30 452 H 45.849 -1.90129 2.29466 0
M  V30 453 H 43.386 -0.929433 1.14017 0
M  V30 454 H 45.344 -4.04036 1.03975 0
M  V30 455 H 43.974 -3.21847 0.247909 0
M  V30 456 H 43.026 -2.75498 2.62307 0
M  V30 457 H 44.338 -3.76027 3.27728 0
M  V30 458 H 43.492 -5.73198 1.9882 0
M  V30 459 H 42.231 -4.71945 1.22961 0
M  V30 460 H 41.236 -4.25123 3.48641 0
M  V30 461 H 42.461 -5.29807 4.24832 0
M  V30 462 H 40.407 -6.18474 2.1869 0
M  V30 463 H 40.324 -6.48087 3.89254 0
M  V30 464 H 41.592 -7.213 2.95546 0
M  V30 465 N 45.8211 -1.22559 -0.990812 0
M  V30 466 C 47.0691 -1.04933 -1.72724 0
M  V30 467 C 47.3901 0.416158 -1.90508 0
M  V30 468 O 46.6601 1.29918 -1.46622 0
M  V30 469 H 45.2401 -0.385296 -0.639965 0
M  V30 470 H 47.9021 -1.54105 -1.19322 0
M  V30 471 H 46.9981 -1.52886 -2.72089 0
M  V30 472 N 47.2992 1.18797 -1.03562 0
M  V30 473 C 48.5462 1.8865 -0.736023 0
M  V30 474 C 48.8742 1.80041 0.735889 0
M  V30 475 O 48.1292 1.19179 1.55225 0
M  V30 476 C 48.4282 3.38692 -1.14117 0
M  V30 477 C 48.0942 3.67504 -2.6125 0
M  V30 478 C 46.7562 3.75078 -3.01447 0
M  V30 479 C 49.1082 3.80293 -3.56408 0
M  V30 480 C 46.4362 3.92915 -4.35701 0
M  V30 481 C 48.7882 3.99645 -4.90374 0
M  V30 482 C 47.4522 4.05453 -5.30249 0
M  V30 483 H 46.7222 0.690321 -0.26933 0
M  V30 484 H 49.3692 1.40641 -1.29971 0
M  V30 485 H 47.6742 3.88645 -0.496202 0
M  V30 486 H 49.3712 3.91072 -0.886789 0
M  V30 487 H 45.9612 3.62223 -2.29113 0
M  V30 488 H 50.1452 3.73779 -3.26501 0
M  V30 489 H 45.4012 3.95653 -4.66121 0
M  V30 490 H 49.5752 4.08482 -5.64017 0
M  V30 491 H 47.2022 4.19027 -6.34288 0
M  V30 492 N 48.7773 0.814389 1.34928 0
M  V30 493 C 50.0253 0.397636 1.9815 0
M  V30 494 C 50.3463 -1.04069 1.64908 0
M  V30 495 O 49.6163 -1.72121 0.93548 0
M  V30 496 H 48.1963 0.144043 0.732981 0
M  V30 497 H 50.8583 1.04195 1.6471 0
M  V30 498 H 49.9543 0.509688 3.0791 0
M  V30 499 N 50.2554 -1.46986 0.568584 0
M  V30 500 C 51.5024 -2.02441 0.0487986 0
M  V30 501 C 51.8304 -1.44169 -1.30559 0
M  V30 502 O 51.0854 -0.591213 -1.86556 0
M  V30 503 C 51.3844 -3.57306 -0.081836 0
M  V30 504 C 51.0504 -4.34552 1.20313 0
M  V30 505 C 49.7124 -4.55376 1.5552 0
M  V30 506 C 52.0644 -4.79016 2.05411 0
M  V30 507 C 49.3924 -5.17913 2.7565 0
M  V30 508 C 51.7444 -5.42879 3.24754 0
M  V30 509 C 50.4084 -5.61933 3.60261 0
M  V30 510 H 49.6784 -0.740785 0.0178567 0
M  V30 511 H 52.3254 -1.76525 0.742384 0
M  V30 512 H 50.6304 -3.8228 -0.858463 0
M  V30 513 H 52.3274 -3.97876 -0.499546 0
M  V30 514 H 48.9174 -4.18631 0.919014 0
M  V30 515 H 53.1014 -4.62696 1.79516 0
M  V30 516 H 48.3574 -5.30858 3.03315 0
M  V30 517 H 52.5314 -5.76293 3.90973 0
M  V30 518 H 50.1584 -6.10161 4.53439 0
M  V30 519 N 51.7335 -0.305618 -1.54608 0
M  V30 520 C 52.9815 0.301701 -1.99835 0
M  V30 521 C 53.3025 1.54054 -1.19551 0
M  V30 522 O 52.5725 1.93702 -0.292658 0
M  V30 523 H 51.1525 0.114468 -0.738178 0
M  V30 524 H 53.8145 -0.418016 -1.90364 0
M  V30 525 H 52.9105 0.570548 -3.06841 0
M  V30 526 N 53.2116 1.57565 -0.0334293 0
M  V30 527 C 54.1416 2.13511 0.945265 0
M  V30 528 C 55.1226 1.05231 1.33643 0
M  V30 529 O 56.3076 1.33084 1.41429 0
M  V30 530 C 53.4376 2.6657 2.22616 0
M  V30 531 C 52.3916 3.79676 1.97561 0
M  V30 532 C 51.7176 4.1918 3.31952 0
M  V30 533 C 53.0176 5.0557 1.31135 0
M  V30 534 H 54.7116 2.95538 0.479325 0
M  V30 535 H 52.2576 1.42166 0.229115 0
M  V30 536 H 54.2106 3.04344 2.91466 0
M  V30 537 H 52.9346 1.8171 2.71384 0
M  V30 538 H 51.5936 3.42347 1.31127 0
M  V30 539 H 51.2416 3.31296 3.78487 0
M  V30 540 H 50.9416 4.95402 3.15992 0
M  V30 541 H 52.4656 4.59541 4.02063 0
M  V30 542 H 53.8796 5.40903 1.89992 0
M  V30 543 H 52.2766 5.86818 1.25559 0
M  V30 544 H 53.3466 4.84062 0.284894 0
M  V30 545 N 54.6897 -0.239769 1.55765 0
M  V30 546 C 55.9357 -0.968234 1.78194 0
M  V30 547 C 56.2687 -1.84701 0.599938 0
M  V30 548 O 55.5437 -1.9031 -0.401524 0
M  V30 549 C 55.8267 -1.8227 3.10564 0
M  V30 550 C 55.6797 -0.971633 4.3918 0
M  V30 551 C 56.9987 -2.80388 3.39221 0
M  V30 552 H 54.1177 -0.350572 0.648281 0
M  V30 553 H 56.7597 -0.238259 1.885 0
M  V30 554 H 54.9097 -2.44507 3.01908 0
M  V30 555 H 56.5817 -0.367408 4.59835 0
M  V30 556 H 54.8247 -0.276276 4.32919 0
M  V30 557 H 55.4957 -1.60346 5.28198 0
M  V30 558 H 57.9717 -2.28287 3.47885 0
M  V30 559 H 56.8477 -3.3729 4.33044 0
M  V30 560 H 57.1087 -3.57212 2.60484 0
M  V30 561 N 56.1678 -1.49265 -0.50573 0
M  V30 562 C 57.1148 -1.65585 -1.6078 0
M  V30 563 C 58.0848 -0.497396 -1.58478 0
M  V30 564 O 59.2698 -0.72385 -1.76536 0
M  V30 565 C 56.4098 -1.72408 -2.98948 0
M  V30 566 C 55.5228 -2.99525 -3.11301 0
M  V30 567 C 54.6578 -2.97356 -4.40174 0
M  V30 568 C 53.6968 -4.19074 -4.46143 0
M  V30 569 N 52.8338 -4.14841 -5.66437 0
M  V30 570 H 57.6738 -2.59688 -1.46172 0
M  V30 571 H 55.2108 -1.28761 -0.711261 0
M  V30 572 H 57.1688 -1.74344 -3.79025 0
M  V30 573 H 55.7988 -0.817753 -3.1227 0
M  V30 574 H 54.8508 -3.07222 -2.24318 0
M  V30 575 H 56.1628 -3.89518 -3.11572 0
M  V30 576 H 55.3168 -2.97829 -5.28567 0
M  V30 577 H 54.0558 -2.05133 -4.42461 0
M  V30 578 H 53.0608 -4.1885 -3.56153 0
M  V30 579 H 54.2858 -5.12483 -4.45575 0
M  V30 580 H 52.2318 -3.25453 -5.69575 0
M  V30 581 H 52.1488 -4.98564 -5.68304 0
M  V30 582 H 53.4168 -4.1941 -6.57051 0
M  V30 583 N 57.6459 0.756429 -1.3826 0
M  V30 584 C 58.5759 1.88374 -1.37976 0
M  V30 585 C 59.5569 1.68311 -0.246082 0
M  V30 586 O 60.7419 1.88944 -0.44874 0
M  V30 587 C 57.8719 3.25864 -1.20125 0
M  V30 588 C 56.8259 3.60523 -2.30666 0
M  V30 589 C 56.1519 4.9672 -1.97923 0
M  V30 590 C 57.4519 3.65692 -3.72916 0
M  V30 591 H 59.1459 1.88869 -2.32312 0
M  V30 592 H 56.6919 0.907272 -1.11824 0
M  V30 593 H 58.6449 4.0438 -1.18552 0
M  V30 594 H 57.3689 3.25841 -0.222498 0
M  V30 595 H 56.0279 2.84324 -2.3142 0
M  V30 596 H 55.6759 4.93253 -0.985393 0
M  V30 597 H 55.3759 5.20878 -2.71955 0
M  V30 598 H 56.8999 5.77618 -1.97964 0
M  V30 599 H 58.3139 4.34328 -3.74208 0
M  V30 600 H 56.7109 4.01358 -4.4613 0
M  V30 601 H 57.7809 2.65987 -4.05436 0
M  V30 602 N 59.124 1.23083 0.984299 0
M  V30 603 C 60.401 0.9689 1.69917 0
M  V30 604 C 60.781 -0.513604 2.04757 0
M  V30 605 O 60.129 -1.48383 1.73767 0
M  V30 606 C 60.339 1.87518 2.94343 0
M  V30 607 C 61.687 2.13636 3.6694 0
M  V30 608 O 62.711 1.85036 3.04368 0
M  V30 609 O 61.57 2.62119 4.79537 0
M  V30 610 H 58.664 0.365095 0.742048 0
M  V30 611 H 61.21 1.34107 1.03987 0
M  V30 612 H 59.982 2.87756 2.65164 0
M  V30 613 H 59.605 1.50514 3.6801 0
M  V30 614 N 60.6021 -1.18246 1.0419 0
M  V30 615 C 61.8481 -1.88536 0.747122 0
M  V30 616 C 62.1811 -1.80223 -0.723409 0
M  V30 617 O 61.4561 -1.20337 -1.52804 0
M  V30 618 C 61.7391 -3.38968 1.21544 0
M  V30 619 C 61.5921 -3.56084 2.74816 0
M  V30 620 C 62.9111 -4.32648 0.806482 0
M  V30 621 H 60.0301 -0.684619 0.272883 0
M  V30 622 H 62.6721 -1.39113 1.29413 0
M  V30 623 H 60.8221 -3.8119 0.750081 0
M  V30 624 H 62.4941 -3.22946 3.29399 0
M  V30 625 H 60.7371 -2.98699 3.14582 0
M  V30 626 H 61.4081 -4.61639 3.02644 0
M  V30 627 H 63.8841 -3.98211 1.20695 0
M  V30 628 H 62.7601 -5.36462 1.1619 0
M  V30 629 H 63.0211 -4.41146 -0.29029 0
M  V30 630 N 62.0802 -0.821533 -1.34494 0
M  V30 631 C 63.0272 -0.240397 -2.29545 0
M  V30 632 C 63.9972 0.634031 -1.53523 0
M  V30 633 O 65.1822 0.575966 -1.81899 0
M  V30 634 C 62.3222 0.592869 -3.39969 0
M  V30 635 C 61.4352 -0.30365 -4.30932 0
M  V30 636 C 60.5702 0.539049 -5.28458 0
M  V30 637 C 59.6092 -0.356942 -6.11058 0
M  V30 638 N 58.7462 0.446603 -7.00678 0
M  V30 639 H 63.5862 -1.05632 -2.7865 0
M  V30 640 H 61.1232 -0.532413 -1.37127 0
M  V30 641 H 63.0812 1.09129 -4.02675 0
M  V30 642 H 61.7112 1.37392 -2.92102 0
M  V30 643 H 60.7632 -0.920276 -3.691 0
M  V30 644 H 62.0752 -0.992661 -4.88823 0
M  V30 645 H 61.2292 1.102 -5.96608 0
M  V30 646 H 59.9682 1.26157 -4.71101 0
M  V30 647 H 58.9732 -0.932047 -5.41842 0
M  V30 648 H 60.1982 -1.07755 -6.70497 0
M  V30 649 H 58.1442 1.15282 -6.45791 0
M  V30 650 H 58.0612 -0.184048 -7.55776 0
M  V30 651 H 59.3292 0.992352 -7.73158 0
M  V30 652 N 63.5583 1.46682 -0.576371 0
M  V30 653 C 64.7863 2.06798 -0.0649635 0
M  V30 654 C 65.2013 1.42612 1.23723 0
M  V30 655 O 64.5583 0.529203 1.74659 0
M  V30 656 C 64.6093 3.6132 0.114202 0
M  V30 657 O 64.3303 4.23104 -1.13644 0
M  V30 658 C 65.8313 4.38349 0.66069 0
M  V30 659 H 63.0513 0.668778 -0.0545616 0
M  V30 660 H 65.5953 1.88404 -0.795237 0
M  V30 661 H 63.7503 3.79162 0.794673 0
M  V30 662 H 64.1643 5.15894 -0.946253 0
M  V30 663 H 65.6383 5.47081 0.73526 0
M  V30 664 H 66.1153 4.05953 1.67627 0
M  V30 665 H 66.7213 4.25297 0.0152951 0
M  V30 666 N 65.0364 0.313813 1.54444 0
M  V30 667 C 65.9834 -0.55655 2.23989 0
M  V30 668 C 66.9534 -1.11943 1.22711 0
M  V30 669 O 68.1384 -1.16158 1.51367 0
M  V30 670 C 65.2784 -1.71635 2.99392 0
M  V30 671 C 64.3914 -1.18364 4.15468 0
M  V30 672 C 63.5264 -2.30834 4.78424 0
M  V30 673 C 62.5654 -1.74762 5.86622 0
M  V30 674 N 61.7024 -2.80855 6.43479 0
M  V30 675 H 66.5424 0.0430893 2.97969 0
M  V30 676 H 64.0794 0.0330359 1.47063 0
M  V30 677 H 66.0374 -2.39868 3.41349 0
M  V30 678 H 64.6674 -2.28742 2.27765 0
M  V30 679 H 63.7194 -0.393163 3.78363 0
M  V30 680 H 65.0314 -0.733262 4.93381 0
M  V30 681 H 64.1854 -3.0699 5.23299 0
M  V30 682 H 62.9244 -2.79204 3.99871 0
M  V30 683 H 61.9294 -0.970995 5.41158 0
M  V30 684 H 63.1544 -1.2728 6.67066 0
M  V30 685 H 61.1004 -3.28535 5.67804 0
M  V30 686 H 61.0174 -2.40351 7.16776 0
M  V30 687 H 62.2854 -3.5687 6.93011 0
M  V30 688 N 66.5145 -1.57545 0.0417849 0
M  V30 689 C 67.7395 -1.97035 -0.647455 0
M  V30 690 C 68.1645 -0.918775 -1.64135 0
M  V30 691 O 67.5225 0.119006 -1.80909 0
M  V30 692 C 67.5705 -3.35609 -1.31905 0
M  V30 693 O 66.6745 -3.3287 -2.43457 0
M  V30 694 H 66.0155 -0.64211 -0.169086 0
M  V30 695 H 68.5455 -2.04318 0.107399 0
M  V30 696 H 68.5555 -3.72126 -1.67291 0
M  V30 697 H 67.2305 -4.11685 -0.590586 0
M  V30 698 H 65.8075 -3.08087 -2.10088 0
M  V30 699 N 67.9926 0.231505 -1.5589 0
M  V30 700 C 69.2326 0.964533 -1.80211 0
M  V30 701 C 69.5966 1.81926 -0.613744 0
M  V30 702 O 70.7976 2.58526 -0.736045 0
M  V30 703 C 69.0686 1.78956 -3.09369 0
M  V30 704 S 70.6276 2.57959 -3.54969 0
M  V30 705 H 67.4456 0.324173 -0.632798 0
M  V30 706 H 70.0476 0.230985 -1.94131 0
M  V30 707 H 68.7516 1.15161 -3.93911 0
M  V30 708 H 68.2826 2.56559 -2.9823 0
M  V30 709 H 70.2976 3.81309 -3.17519 0
M  V30 710 N 69.4707 1.49531 0.497807 0
M  V30 711 C 70.6957 1.63159 1.28039 0
M  V30 712 C 71.1207 0.30418 1.85624 0
M  V30 713 O 70.4787 -0.728618 1.66015 0
M  V30 714 C 70.5267 2.70537 2.38416 0
M  V30 715 O 69.6307 2.29931 3.42353 0
M  V30 716 H 68.9717 0.546001 0.377861 0
M  V30 717 H 71.5017 1.9574 0.59558 0
M  V30 718 H 71.5117 2.92802 2.84132 0
M  V30 719 H 70.1867 3.6689 1.95869 0
M  V30 720 H 68.7637 2.18009 3.02533 0
M  V30 721 N 70.9488 -0.749086 1.3866 0
M  V30 722 C 72.1968 -1.50535 1.34847 0
M  V30 723 C 72.5178 -1.94909 -0.0595016 0
M  V30 724 O 71.7878 -1.67973 -1.00806 0
M  V30 725 H 70.3678 -0.558395 0.49619 0
M  V30 726 H 73.0298 -0.890165 1.73384 0
M  V30 727 H 72.1258 -2.39413 2.00219 0
M  V30 728 N 72.4269 -1.23603 -0.977757 0
M  V30 729 C 73.6729 -1.07129 -1.72195 0
M  V30 730 C 74.0059 0.390501 -1.90233 0
M  V30 731 O 73.2809 1.28902 -1.45653 0
M  V30 732 C 73.5639 -1.80031 -3.11867 0
M  V30 733 C 73.4169 -3.33899 -3.01383 0
M  V30 734 C 74.7359 -1.56492 -4.11337 0
M  V30 735 H 71.8549 -0.390571 -0.624999 0
M  V30 736 H 74.4969 -1.52142 -1.13811 0
M  V30 737 H 72.6469 -1.41768 -3.6171 0
M  V30 738 H 74.3189 -3.81699 -2.59043 0
M  V30 739 H 72.5619 -3.62796 -2.37827 0
M  V30 740 H 73.2329 -3.801 -4.00285 0
M  V30 741 H 75.7089 -1.89757 -3.70313 0
M  V30 742 H 74.5849 -2.09973 -5.07151 0
M  V30 743 H 74.8459 -0.500874 -4.39254 0
M  V30 744 N 73.905 1.17692 -1.04816 0
M  V30 745 C 74.815 2.25229 -0.65643 0
M  V30 746 C 75.831 1.71018 0.320761 0
M  V30 747 O 77.007 2.00649 0.173805 0
M  V30 748 C 74.072 3.46684 -0.0332629 0
M  V30 749 C 73.133 4.15997 -1.06042 0
M  V30 750 C 72.366 5.31654 -0.466893 0
M  V30 751 O 72.589 5.65777 0.724758 0
M  V30 752 O 71.523 5.89831 -1.1993 0
M  V30 753 H 75.349 2.61016 -1.55255 0
M  V30 754 H 72.934 1.24919 -0.81949 0
M  V30 755 H 74.816 4.20234 0.313256 0
M  V30 756 H 73.491 3.12703 0.836566 0
M  V30 757 H 72.398 3.44482 -1.45886 0
M  V30 758 H 73.731 4.53996 -1.90127 0
M  V30 759 N 75.3831 0.828654 1.34056 0
M  V30 760 C 76.6301 0.419458 1.98108 0
M  V30 761 C 76.9581 -1.01886 1.65679 0
M  V30 762 O 76.2131 -1.72539 0.923512 0
M  V30 763 C 76.5121 0.575226 3.52741 0
M  V30 764 C 76.1781 1.98012 4.05095 0
M  V30 765 C 74.8401 2.36442 4.19104 0
M  V30 766 C 77.1921 2.89824 4.33188 0
M  V30 767 C 74.5201 3.66009 4.58535 0
M  V30 768 C 76.8721 4.1886 4.74066 0
M  V30 769 C 75.5361 4.5726 4.86281 0
M  V30 770 H 74.8061 0.153491 0.724929 0
M  V30 771 H 77.4531 1.05371 1.59904 0
M  V30 772 H 75.7581 -0.142385 3.91541 0
M  V30 773 H 77.4551 0.239057 4.00287 0
M  V30 774 H 74.0451 1.67162 3.94658 0
M  V30 775 H 78.2291 2.61375 4.21897 0
M  V30 776 H 73.4851 3.95579 4.66184 0
M  V30 777 H 77.6591 4.90086 4.94761 0
M  V30 778 H 75.2861 5.57707 5.16592 0
M  V30 779 N 76.8612 -1.46375 0.584142 0
M  V30 780 C 78.0862 -2.07268 0.0740405 0
M  V30 781 C 78.5112 -1.42979 -1.22223 0
M  V30 782 O 77.8692 -0.514092 -1.73859 0
M  V30 783 C 77.9172 -3.60518 -0.0767769 0
M  V30 784 O 77.0212 -3.96533 -1.13292 0
M  V30 785 H 76.3622 -0.660961 0.0634524 0
M  V30 786 H 78.8922 -1.87991 0.807492 0
M  V30 787 H 78.9022 -4.07021 -0.282489 0
M  V30 788 H 77.5772 -4.06702 0.86986 0
M  V30 789 H 76.1542 -3.61738 -0.905553 0
M  V30 790 N 78.3393 -0.321999 -1.54275 0
M  V30 791 C 79.5673 0.283052 -2.04955 0
M  V30 792 C 79.9823 1.45904 -1.19823 0
M  V30 793 O 79.3393 1.81063 -0.228545 0
M  V30 794 C 79.3903 0.719028 -3.54277 0
M  V30 795 O 79.1113 -0.410175 -4.36176 0
M  V30 796 C 80.6123 1.38705 -4.21041 0
M  V30 797 H 77.8323 0.0584616 -0.668448 0
M  V30 798 H 80.3763 -0.467734 -1.99079 0
M  V30 799 H 78.5313 1.41979 -3.60445 0
M  V30 800 H 78.9453 -0.0669416 -5.24457 0
M  V30 801 H 80.4193 1.64306 -5.2698 0
M  V30 802 H 80.8963 2.33385 -3.72059 0
M  V30 803 H 81.5023 0.728906 -4.19007 0
M  V30 804 N 79.8174 1.5752 -0.0501392 0
M  V30 805 C 81.0424 1.97376 0.636997 0
M  V30 806 C 81.4674 0.927466 1.63645 0
M  V30 807 O 80.8254 -0.10941 1.8097 0
M  V30 808 C 80.8734 3.36304 1.30123 0
M  V30 809 O 79.9774 3.34156 2.41689 0
M  V30 810 H 79.3184 0.642998 0.165679 0
M  V30 811 H 81.8484 2.04258 -0.118233 0
M  V30 812 H 81.8584 3.73008 1.65315 0
M  V30 813 H 80.5334 4.11993 0.568746 0
M  V30 814 H 79.1104 3.09196 2.08451 0
M  V30 815 N 81.2955 -0.223234 1.56011 0
M  V30 816 C 82.5435 -0.946003 1.78592 0
M  V30 817 C 82.8645 -1.84936 0.618349 0
M  V30 818 O 82.1345 -1.92473 -0.364833 0
M  V30 819 H 80.7145 -0.352298 0.658707 0
M  V30 820 H 83.3765 -0.235494 1.93472 0
M  V30 821 H 82.4725 -1.55381 2.70672 0
M  V30 822 N 82.7736 -1.49793 -0.48987 0
M  V30 823 C 83.9986 -1.63836 -1.27172 0
M  V30 824 C 84.4236 -0.31402 -1.8546 0
M  V30 825 O 83.7816 0.719803 -1.66399 0
M  V30 826 C 83.8296 -2.71797 -2.36978 0
M  V30 827 O 82.9336 -2.31744 -3.41128 0
M  V30 828 H 82.2746 -0.547997 -0.37496 0
M  V30 829 H 84.8046 -1.96053 -0.585191 0
M  V30 830 H 84.8146 -2.94305 -2.82575 0
M  V30 831 H 83.4896 -3.67923 -1.93921 0
M  V30 832 H 82.0666 -2.1961 -3.01373 0
M  V30 833 N 84.2517 0.741722 -1.39055 0
M  V30 834 C 85.4767 1.53607 -1.39354 0
M  V30 835 C 85.9017 1.88096 0.0116905 0
M  V30 836 O 85.2597 1.5143 0.996924 0
M  V30 837 C 85.3077 2.80441 -2.26682 0
M  V30 838 O 84.4117 3.76088 -1.69208 0
M  V30 839 H 83.7527 0.464142 -0.474835 0
M  V30 840 H 86.2827 0.915665 -1.82967 0
M  V30 841 H 86.2927 3.29246 -2.40959 0
M  V30 842 H 84.9677 2.5467 -3.2881 0
M  V30 843 H 83.5447 3.34833 -1.64138 0
M  V30 844 N 85.7298 1.2412 0.971189 0
M  V30 845 C 86.6778 1.02812 2.08644 0
M  V30 846 C 87.6718 -0.0358403 1.69362 0
M  V30 847 O 88.8778 0.118429 1.7961 0
M  V30 848 H 85.2528 0.315428 0.682649 0
M  V30 849 H 87.2238 1.97397 2.23779 0
M  V30 850 C 85.9728 0.645874 3.41649 0
M  V30 851 H 85.2958 1.45632 3.72332 0
M  V30 852 H 86.7358 0.536366 4.20594 0
M  V30 853 C 85.1948 -0.646713 3.30635 0
M  V30 854 O 85.7248 -1.69338 3.64263 0
M  V30 855 N 83.9308 -0.626115 2.83775 0
M  V30 856 H 83.4778 0.225988 2.56607 0
M  V30 857 H 83.4358 -1.49117 2.76788 0
M  V30 858 N 87.2079 -1.17134 1.05439 0
M  V30 859 C 88.4359 -1.91372 0.786414 0
M  V30 860 C 88.8509 -1.76955 -0.658202 0
M  V30 861 O 88.2079 -1.10838 -1.44987 0
M  V30 862 C 88.2589 -3.42356 1.1608 0
M  V30 863 O 87.9799 -3.56332 2.54871 0
M  V30 864 C 89.4809 -4.33663 0.919322 0
M  V30 865 H 86.7009 -0.607118 0.285743 0
M  V30 866 H 89.2449 -1.48525 1.40572 0
M  V30 867 H 87.3999 -3.82939 0.586191 0
M  V30 868 H 87.8139 -4.49896 2.69618 0
M  V30 869 H 89.2879 -5.38099 1.231 0
M  V30 870 H 89.7649 -4.38959 -0.145359 0
M  V30 871 H 90.3709 -3.98796 1.47789 0
M  V30 872 N 88.686 -0.835752 -1.33615 0
M  V30 873 C 89.963 -0.352017 -1.92406 0
M  V30 874 C 90.343 1.16225 -1.76224 0
M  V30 875 O 89.691 1.97526 -1.14873 0
M  V30 876 C 89.901 -0.795485 -3.39813 0
M  V30 877 C 91.249 -0.801703 -4.16963 0
M  V30 878 O 92.273 -0.738889 -3.48452 0
M  V30 879 O 91.132 -0.886607 -5.3926 0
M  V30 880 H 88.226 -0.0989641 -0.821057 0
M  V30 881 H 90.772 -0.921397 -1.42507 0
M  V30 882 H 89.544 -1.83795 -3.45449 0
M  V30 883 H 89.167 -0.202505 -3.97084 0
M  V30 884 N 90.1641 1.46063 -0.591896 0
M  V30 885 C 91.3921 2.06717 -0.0868936 0
M  V30 886 C 91.8071 1.43916 1.22203 0
M  V30 887 O 91.1641 0.547698 1.74088 0
M  V30 888 C 91.2151 3.6142 0.0758725 0
M  V30 889 O 90.9361 4.21874 -1.18126 0
M  V30 890 C 92.4371 4.39025 0.61416 0
M  V30 891 H 89.6571 0.668162 -0.0616518 0
M  V30 892 H 92.2011 1.8755 -0.815175 0
M  V30 893 H 90.3561 3.79983 0.754413 0
M  V30 894 H 90.7701 5.14861 -1.00092 0
M  V30 895 H 92.2441 5.4783 0.677193 0
M  V30 896 H 92.7211 4.07708 1.63312 0
M  V30 897 H 93.3271 4.2529 -0.0298142 0
M  V30 898 N 91.6422 0.330177 1.54103 0
M  V30 899 C 92.8902 -0.269871 2.0029 0
M  V30 900 C 93.2112 -1.52133 1.21986 0
M  V30 901 O 92.4812 -1.93212 0.323438 0
M  V30 902 H 91.0612 -0.10271 0.739905 0
M  V30 903 H 93.7232 0.448249 1.89675 0
M  V30 904 H 92.8192 -0.52166 3.07709 0
M  V30 905 N 93.1203 -1.57491 0.0584922 0
M  V30 906 C 94.0673 -2.11958 -0.913376 0
M  V30 907 C 95.0373 -1.02875 -1.30407 0
M  V30 908 O 96.2223 -1.30464 -1.39226 0
M  V30 909 C 93.3623 -2.67497 -2.18035 0
M  V30 910 C 92.4753 -3.90691 -1.84349 0
M  V30 911 C 91.6103 -4.3452 -3.05559 0
M  V30 912 C 90.6493 -5.50395 -2.67827 0
M  V30 913 N 89.7863 -5.89244 -3.81754 0
M  V30 914 H 94.6263 -2.94704 -0.442017 0
M  V30 915 H 92.1633 -1.45643 -0.206545 0
M  V30 916 H 94.1213 -2.978 -2.92183 0
M  V30 917 H 92.7513 -1.87537 -2.62735 0
M  V30 918 H 91.8033 -3.66934 -1.00319 0
M  V30 919 H 93.1153 -4.7489 -1.5258 0
M  V30 920 H 92.2693 -4.66414 -3.87998 0
M  V30 921 H 91.0083 -3.49147 -3.40511 0
M  V30 922 H 90.0133 -5.18165 -1.83806 0
M  V30 923 H 91.2383 -6.3749 -2.34059 0
M  V30 924 H 89.1843 -5.06823 -4.16493 0
M  V30 925 H 89.1013 -6.68151 -3.53708 0
M  V30 926 H 90.3693 -6.25756 -4.64811 0
M  V30 927 N 94.5984 0.214957 -1.56127 0
M  V30 928 C 95.8444 0.939762 -1.79712 0
M  V30 929 C 96.1774 1.83723 -0.629247 0
M  V30 930 O 95.4524 1.90925 0.371197 0
M  V30 931 C 95.7354 1.77306 -3.13424 0
M  V30 932 C 95.5884 0.90164 -4.40671 0
M  V30 933 C 96.9074 2.74956 -3.43638 0
M  V30 934 H 94.0264 0.340214 -0.653776 0
M  V30 935 H 96.6684 0.20824 -1.88855 0
M  V30 936 H 94.8184 2.39673 -3.0576 0
M  V30 937 H 96.4904 0.294206 -4.60361 0
M  V30 938 H 94.7334 0.207368 -4.33304 0
M  V30 939 H 95.4044 1.51923 -5.30682 0
M  V30 940 H 97.8804 2.22724 -3.51473 0
M  V30 941 H 96.7564 3.30358 -4.38355 0
M  V30 942 H 97.0174 3.53023 -2.66134 0
M  V30 943 N 96.0765 1.50051 0.48192 0
M  V30 944 C 97.3045 1.64237 1.25832 0
M  V30 945 C 97.7195 0.321336 1.86045 0
M  V30 946 O 97.0765 -0.695478 1.68729 0
M  V30 947 C 97.1275 2.72548 2.37487 0
M  V30 948 O 96.8485 3.99529 1.79745 0
M  V30 949 C 98.3495 2.9761 3.28547 0
M  V30 950 H 95.5695 0.55237 0.380957 0
M  V30 951 H 98.1135 1.96207 0.576467 0
M  V30 952 H 96.2685 2.43303 3.01467 0
M  V30 953 H 96.6825 4.59342 2.5319 0
M  V30 954 H 98.1565 3.77084 4.03127 0
M  V30 955 H 98.6335 2.0826 3.86684 0
M  V30 956 H 99.2395 3.28345 2.70314 0
M  V30 957 N 97.5546 -0.734337 1.39446 0
M  V30 958 C 98.8026 -1.49096 1.36436 0
M  V30 959 C 99.1236 -1.94961 -0.0388255 0
M  V30 960 O 98.3936 -1.69033 -0.990191 0
M  V30 961 H 96.9736 -0.5531 0.502085 0
M  V30 962 H 99.6356 -0.871725 1.74319 0
M  V30 963 H 98.7316 -2.37276 2.02747 0
M  V30 964 N 99.0327 -1.24633 -0.964593 0
M  V30 965 C 100.261 -1.11501 -1.74285 0
M  V30 966 C 100.676 0.332165 -1.85855 0
M  V30 967 O 100.033 1.22903 -1.34911 0
M  V30 968 C 100.084 -1.75258 -3.16175 0
M  V30 969 O 99.8047 -3.14318 -3.05182 0
M  V30 970 C 101.306 -1.67776 -4.10324 0
M  V30 971 H 98.5257 -0.389407 -0.546446 0
M  V30 972 H 101.07 -1.64801 -1.21083 0
M  V30 973 H 99.2247 -1.25954 -3.66353 0
M  V30 974 H 99.6387 -3.4551 -3.94618 0
M  V30 975 H 101.113 -2.17064 -5.0753 0
M  V30 976 H 101.59 -0.639584 -4.34518 0
M  V30 977 H 102.196 -2.16522 -3.66058 0
M  V30 978 N 100.511 1.16574 -1.06058 0
M  V30 979 C 101.441 2.23057 -0.690488 0
M  V30 980 C 102.422 1.67141 0.315901 0
M  V30 981 O 103.607 1.93253 0.191556 0
M  V30 982 C 100.737 3.47222 -0.073625 0
M  V30 983 C 99.6908 4.16016 -1.00573 0
M  V30 984 C 99.0168 5.34104 -0.252289 0
M  V30 985 C 100.317 4.67264 -2.33371 0
M  V30 986 H 102.011 2.54271 -1.58072 0
M  V30 987 H 99.5568 1.22218 -0.76149 0
M  V30 988 H 101.51 4.20939 0.19714 0
M  V30 989 H 100.234 3.15302 0.85161 0
M  V30 990 H 98.8928 3.44223 -1.2612 0
M  V30 991 H 98.5408 4.98437 0.675988 0
M  V30 992 H 98.2408 5.81072 -0.873455 0
M  V30 993 H 99.7648 6.10599 0.0109857 0
M  V30 994 H 101.179 5.32573 -2.12223 0
M  V30 995 H 99.5758 5.24843 -2.90963 0
M  V30 996 H 100.646 3.83602 -2.96611 0
M  V30 997 N 101.989 0.842826 1.3317 0
M  V30 998 C 102.899 0.281444 2.32906 0
M  V30 999 C 103.915 -0.594587 1.63526 0
M  V30 1000 O 105.091 -0.49777 1.95152 0
M  V30 1001 C 102.156 -0.530929 3.42611 0
M  V30 1002 C 101.217 0.369843 4.27704 0
M  V30 1003 C 100.45 -0.403853 5.3217 0
M  V30 1004 O 100.673 -1.63513 5.46461 0
M  V30 1005 O 99.6069 0.224199 6.01482 0
M  V30 1006 H 103.433 1.10744 2.82789 0
M  V30 1007 H 101.018 0.60545 1.36582 0
M  V30 1008 H 102.9 -0.992437 4.09547 0
M  V30 1009 H 101.575 -1.33392 2.94938 0
M  V30 1010 H 100.482 0.879275 3.6362 0
M  V30 1011 H 101.815 1.13771 4.78871 0
M  V30 1012 N 103.467 -1.45747 0.599634 0
M  V30 1013 C 104.695 -2.06668 0.0978551 0
M  V30 1014 C 105.11 -1.44562 -1.21439 0
M  V30 1015 O 104.467 -0.556923 -1.73795 0
M  V30 1016 C 104.518 -3.61456 -0.0567044 0
M  V30 1017 O 104.239 -4.21242 1.20361 0
M  V30 1018 C 105.74 -4.39345 -0.590869 0
M  V30 1019 H 102.96 -0.667825 0.0651943 0
M  V30 1020 H 105.504 -1.87115 0.82511 0
M  V30 1021 H 103.659 -3.80378 -0.734251 0
M  V30 1022 H 104.073 -5.14323 1.02821 0
M  V30 1023 H 105.547 -5.48182 -0.648131 0
M  V30 1024 H 106.024 -4.08568 -1.61147 0
M  V30 1025 H 106.63 -4.25268 0.0523679 0
M  V30 1026 N 104.945 -0.338344 -1.53925 0
M  V30 1027 C 105.892 0.520845 -2.24846 0
M  V30 1028 C 106.862 1.09976 -1.24477 0
M  V30 1029 O 108.047 1.13735 -1.53196 0
M  V30 1030 C 105.187 1.6685 -3.02084 0
M  V30 1031 C 104.3 1.11739 -4.17299 0
M  V30 1032 C 103.435 2.23193 -4.82036 0
M  V30 1033 C 102.474 1.65407 -5.89328 0
M  V30 1034 N 101.611 2.70582 -6.47866 0
M  V30 1035 H 106.451 -0.0904881 -2.97863 0
M  V30 1036 H 103.988 -0.0564282 -1.46992 0
M  V30 1037 H 105.946 2.34407 -3.45122 0
M  V30 1038 H 104.576 2.2509 -2.31375 0
M  V30 1039 H 103.628 0.332919 -3.7894 0
M  V30 1040 H 104.94 0.654677 -4.94485 0
M  V30 1041 H 104.094 2.98626 -5.28117 0
M  V30 1042 H 102.833 2.72807 -4.04262 0
M  V30 1043 H 101.838 0.884779 -5.42634 0
M  V30 1044 H 103.063 1.16652 -6.69006 0
M  V30 1045 H 101.009 3.1946 -5.72959 0
M  V30 1046 H 100.926 2.28917 -7.20509 0
M  V30 1047 H 102.194 3.45799 -6.98601 0
M  V30 1048 N 106.423 1.57458 -0.0668435 0
M  V30 1049 C 107.653 1.97337 0.611677 0
M  V30 1050 C 108.061 0.943744 1.63982 0
M  V30 1051 O 107.404 -0.0785584 1.83532 0
M  V30 1052 C 107.466 3.33511 1.34205 0
M  V30 1053 C 107.13 4.54598 0.467941 0
M  V30 1054 C 108.127 5.19186 -0.272439 0
M  V30 1055 C 105.812 5.0075 0.39427 0
M  V30 1056 C 107.806 6.28274 -1.07476 0
M  V30 1057 C 105.493 6.09711 -0.411729 0
M  V30 1058 C 106.491 6.73335 -1.14492 0
M  V30 1059 O 106.179 7.80199 -1.93763 0
M  V30 1060 H 105.911 0.654042 0.170893 0
M  V30 1061 H 108.465 2.04961 -0.134289 0
M  V30 1062 H 106.695 3.22487 2.13398 0
M  V30 1063 H 108.384 3.58029 1.91233 0
M  V30 1064 H 109.15 4.84477 -0.225086 0
M  V30 1065 H 105.029 4.51009 0.954569 0
M  V30 1066 H 108.573 6.77866 -1.64755 0
M  V30 1067 H 104.47 6.43854 -0.460664 0
M  V30 1068 H 105.238 7.97053 -1.86142 0
M  V30 1069 N 107.901 -0.206675 1.56239 0
M  V30 1070 C 108.848 -1.25617 1.93621 0
M  V30 1071 C 109.818 -1.45824 0.795274 0
M  V30 1072 O 111.003 -1.59148 1.05245 0
M  V30 1073 C 108.143 -2.59839 2.27107 0
M  V30 1074 C 107.256 -2.47308 3.54207 0
M  V30 1075 C 106.391 -3.74155 3.7707 0
M  V30 1076 C 105.43 -3.56407 4.97635 0
M  V30 1077 N 104.567 -4.75238 5.1681 0
M  V30 1078 H 109.407 -0.930383 2.83104 0
M  V30 1079 H 106.944 -0.448065 1.4011 0
M  V30 1080 H 108.902 -3.38021 2.44535 0
M  V30 1081 H 107.532 -2.90485 1.40778 0
M  V30 1082 H 106.584 -1.60483 3.4489 0
M  V30 1083 H 107.896 -2.30122 4.42544 0
M  V30 1084 H 107.05 -4.60778 3.94675 0
M  V30 1085 H 105.789 -3.94282 2.87042 0
M  V30 1086 H 104.794 -2.68168 4.79964 0
M  V30 1087 H 106.019 -3.37736 5.89161 0
M  V30 1088 H 103.965 -4.95651 4.29728 0
M  V30 1089 H 103.882 -4.60835 5.99306 0
M  V30 1090 H 105.15 -5.63246 5.38864 0
M  V30 1091 N 109.379 -1.50304 -0.473955 0
M  V30 1092 C 110.625 -1.62358 -1.22521 0
M  V30 1093 C 110.98 -0.318555 -1.89745 0
M  V30 1094 O 110.273 0.683315 -1.79001 0
M  V30 1095 C 110.467 -2.73938 -2.29549 0
M  V30 1096 C 110.296 -4.15165 -1.72825 0
M  V30 1097 C 109.066 -4.81604 -1.52924 0
M  V30 1098 C 111.264 -4.99503 -1.22481 0
M  V30 1099 N 109.246 -6.07056 -0.91413 0
M  V30 1100 C 110.617 -6.15655 -0.732743 0
M  V30 1101 C 112.672 -4.85299 -1.11308 0
M  V30 1102 C 111.375 -7.19164 -0.139976 0
M  V30 1103 C 113.401 -5.88982 -0.534258 0
M  V30 1104 C 112.763 -7.0438 -0.0525562 0
M  V30 1105 H 108.862 -0.648286 -0.437321 0
M  V30 1106 H 111.446 -1.87413 -0.527692 0
M  V30 1107 H 109.617 -2.50611 -2.9673 0
M  V30 1108 H 111.349 -2.75366 -2.96573 0
M  V30 1109 H 108.104 -4.3885 -1.78067 0
M  V30 1110 H 108.528 -6.74108 -0.625071 0
M  V30 1111 H 113.17 -3.96369 -1.47144 0
M  V30 1112 H 110.888 -8.07771 0.230591 0
M  V30 1113 H 114.474 -5.80055 -0.450219 0
M  V30 1114 H 113.354 -7.83238 0.388324 0
M  V30 1115 N 110.857 0.726932 -1.39834 0
M  V30 1116 C 112.097 1.4992 -1.38936 0
M  V30 1117 C 112.461 1.91996 0.0126883 0
M  V30 1118 O 113.662 2.68399 0.146715 0
M  V30 1119 C 111.933 2.70013 -2.34153 0
M  V30 1120 S 113.492 3.59563 -2.51515 0
M  V30 1121 H 110.31 0.51271 -0.492595 0
M  V30 1122 H 112.912 0.85107 -1.76003 0
M  V30 1123 H 111.616 2.37254 -3.34871 0
M  V30 1124 H 111.147 3.39748 -1.98331 0
M  V30 1125 H 113.162 4.63973 -1.75909 0
M  V30 1126 N 112.336 1.25143 0.95797 0
M  V30 1127 C 113.246 1.06968 2.08794 0
M  V30 1128 C 114.262 0.00773911 1.73998 0
M  V30 1129 O 115.438 0.207972 2.00323 0
M  V30 1130 C 112.503 0.68691 3.39827 0
M  V30 1131 C 111.564 1.82641 3.88511 0
M  V30 1132 C 110.797 1.46181 5.1329 0
M  V30 1133 O 111.02 0.355971 5.69288 0
M  V30 1134 O 109.954 2.29085 5.566 0
M  V30 1135 H 113.78 2.01723 2.27027 0
M  V30 1136 H 111.365 1.04051 1.07209 0
M  V30 1137 H 113.247 0.485417 4.18595 0
M  V30 1138 H 111.922 -0.231417 3.22872 0
M  V30 1139 H 110.829 2.08274 3.10762 0
M  V30 1140 H 112.162 2.72386 4.09959 0
M  V30 1141 N 113.814 -1.1601 1.06675 0
M  V30 1142 C 115.044 -1.90251 0.805497 0
M  V30 1143 C 115.452 -1.77891 -0.64431 0
M  V30 1144 O 114.795 -1.12383 -1.45313 0
M  V30 1145 C 114.857 -3.41419 1.12576 0
M  V30 1146 C 114.521 -3.77564 2.57477 0
M  V30 1147 C 115.518 -3.79161 3.55715 0
M  V30 1148 C 113.203 -4.08079 2.92877 0
M  V30 1149 C 115.197 -4.10767 4.8739 0
M  V30 1150 C 112.884 -4.39351 4.24751 0
M  V30 1151 C 113.882 -4.40675 5.21818 0
M  V30 1152 O 113.57 -4.71202 6.51325 0
M  V30 1153 H 113.302 -0.610018 0.291297 0
M  V30 1154 H 115.856 -1.47958 1.4247 0
M  V30 1155 H 114.086 -3.84079 0.449503 0
M  V30 1156 H 115.775 -3.9694 0.84814 0
M  V30 1157 H 116.541 -3.55693 3.29708 0
M  V30 1158 H 112.42 -4.06211 2.17976 0
M  V30 1159 H 115.964 -4.11715 5.63148 0
M  V30 1160 H 111.861 -4.62285 4.50514 0
M  V30 1161 H 112.629 -4.88996 6.56373 0
M  V30 1162 N 115.292 -0.849877 -1.32721 0
M  V30 1163 C 116.54 -0.450032 -1.97026 0
M  V30 1164 C 116.861 0.996604 -1.67609 0
M  V30 1165 O 116.131 1.6958 -0.980786 0
M  V30 1166 H 114.711 -0.163426 -0.728904 0
M  V30 1167 H 117.373 -1.08526 -1.6189 0
M  V30 1168 H 116.469 -0.591146 -3.0645 0
M  V30 1169 N 116.77 1.45427 -0.607355 0
M  V30 1170 C 117.7 2.3329 0.0989352 0
M  V30 1171 C 118.681 1.46816 0.859007 0
M  V30 1172 O 119.866 1.75588 0.829604 0
M  V30 1173 C 116.996 3.29518 1.09705 0
M  V30 1174 C 115.95 4.25626 0.450206 0
M  V30 1175 C 115.276 5.11542 1.55655 0
M  V30 1176 C 116.576 5.18505 -0.628455 0
M  V30 1177 H 118.27 2.92595 -0.634716 0
M  V30 1178 H 115.816 1.40696 -0.306681 0
M  V30 1179 H 117.769 3.89855 1.59971 0
M  V30 1180 H 116.493 2.68372 1.86129 0
M  V30 1181 H 115.152 3.66586 -0.0315886 0
M  V30 1182 H 114.8 4.46765 2.31107 0
M  V30 1183 H 114.5 5.76647 1.12925 0
M  V30 1184 H 116.024 5.74748 2.06148 0
M  V30 1185 H 117.438 5.72916 -0.209877 0
M  V30 1186 H 115.835 5.92085 -0.977489 0
M  V30 1187 H 116.905 4.60948 -1.50514 0
M  V30 1188 N 118.248 0.346503 1.53744 0
M  V30 1189 C 119.476 -0.25041 2.05379 0
M  V30 1190 C 119.891 -1.43979 1.22129 0
M  V30 1191 O 119.248 -1.80677 0.257321 0
M  V30 1192 C 119.299 -0.662575 3.55376 0
M  V30 1193 O 119.02 0.479515 4.35468 0
M  V30 1194 C 120.521 -1.31989 4.23195 0
M  V30 1195 H 117.741 -0.0478198 0.669294 0
M  V30 1196 H 120.285 0.499346 1.9831 0
M  V30 1197 H 118.44 -1.36227 3.62658 0
M  V30 1198 H 118.854 0.15037 5.24284 0
M  V30 1199 H 120.328 -1.55902 5.29527 0
M  V30 1200 H 120.805 -2.27436 3.75725 0
M  V30 1201 H 121.411 -0.662154 4.20114 0
M  V30 1202 N 119.726 -1.57421 0.075193 0
M  V30 1203 C 120.973 -1.93618 -0.593146 0
M  V30 1204 C 121.301 -0.955484 -1.69413 0
M  V30 1205 O 120.556 0.0283251 -1.9568 0
M  V30 1206 C 120.855 -3.36428 -1.20626 0
M  V30 1207 C 120.521 -4.50307 -0.231078 0
M  V30 1208 C 119.183 -4.81186 0.0371936 0
M  V30 1209 C 121.535 -5.19374 0.435888 0
M  V30 1210 C 118.863 -5.78466 0.979461 0
M  V30 1211 C 121.215 -6.17665 1.3665 0
M  V30 1212 C 119.879 -6.46958 1.6432 0
M  V30 1213 H 119.149 -0.708499 -0.217047 0
M  V30 1214 H 121.796 -1.90937 0.146793 0
M  V30 1215 H 120.101 -3.35592 -2.02201 0
M  V30 1216 H 121.798 -3.61727 -1.73073 0
M  V30 1217 H 118.388 -4.26227 -0.450357 0
M  V30 1218 H 122.572 -4.95711 0.241748 0
M  V30 1219 H 117.828 -5.99487 1.20106 0
M  V30 1220 H 122.002 -6.70284 1.88924 0
M  V30 1221 H 119.629 -7.2215 2.37494 0
M  V30 1222 N 121.204 0.198386 -1.56346 0
M  V30 1223 C 122.432 0.935572 -1.84539 0
M  V30 1224 C 122.847 1.76989 -0.657281 0
M  V30 1225 O 122.204 1.78626 0.374043 0
M  V30 1226 C 122.255 1.8344 -3.11499 0
M  V30 1227 O 121.976 1.03377 -4.25728 0
M  V30 1228 C 123.477 2.68355 -3.52846 0
M  V30 1229 H 120.697 0.273126 -0.612897 0
M  V30 1230 H 123.241 0.20663 -2.03453 0
M  V30 1231 H 121.396 2.51701 -2.94492 0
M  V30 1232 H 121.81 1.64599 -4.98003 0
M  V30 1233 H 123.284 3.27085 -4.44657 0
M  V30 1234 H 123.761 3.41901 -2.75681 0
M  V30 1235 H 124.367 2.05471 -3.72373 0
M  V30 1236 N 122.682 1.50554 0.465978 0
M  V30 1237 C 123.592 1.72585 1.58907 0
M  V30 1238 C 124.608 0.60911 1.6299 0
M  V30 1239 O 125.784 0.88804 1.80765 0
M  V30 1240 C 122.849 1.81995 2.95091 0
M  V30 1241 C 121.91 3.05751 3.01355 0
M  V30 1242 C 121.143 3.14702 4.31043 0
M  V30 1243 O 121.366 2.30313 5.21835 0
M  V30 1244 O 120.3 4.07468 4.43005 0
M  V30 1245 H 124.126 2.67799 1.43239 0
M  V30 1246 H 121.711 1.34711 0.646013 0
M  V30 1247 H 123.593 1.90335 3.75966 0
M  V30 1248 H 122.268 0.899659 3.10947 0
M  V30 1249 H 121.175 3.02908 2.19539 0
M  V30 1250 H 122.508 3.97375 2.90437 0
M  V30 1251 N 124.16 -0.719506 1.40217 0
M  V30 1252 C 125.107 -1.83359 1.40172 0
M  V30 1253 C 126.077 -1.64065 0.259206 0
M  V30 1254 O 127.262 -1.85254 0.456677 0
M  V30 1255 C 124.402 -3.2103 1.26624 0
M  V30 1256 C 123.515 -3.51923 2.50548 0
M  V30 1257 C 122.65 -4.79079 2.29471 0
M  V30 1258 C 121.689 -5.02863 3.48992 0
M  V30 1259 N 120.826 -6.2123 3.27135 0
M  V30 1260 H 125.666 -1.82733 2.35399 0
M  V30 1261 H 123.203 -0.892688 1.16917 0
M  V30 1262 H 125.161 -4.00524 1.16776 0
M  V30 1263 H 123.791 -3.20895 0.350176 0
M  V30 1264 H 122.843 -2.67014 2.70939 0
M  V30 1265 H 124.155 -3.6541 3.39525 0
M  V30 1266 H 123.309 -5.66582 2.16955 0
M  V30 1267 H 122.048 -4.67794 1.37913 0
M  V30 1268 H 121.053 -4.13816 3.6199 0
M  V30 1269 H 122.278 -5.16023 4.41472 0
M  V30 1270 H 120.224 -6.11204 2.38256 0
M  V30 1271 H 120.141 -6.35375 4.09675 0
M  V30 1272 H 121.409 -7.11532 3.18344 0
M  V30 1273 N 125.638 -1.25649 -0.95132 0
M  V30 1274 C 126.884 -1.11766 -1.69941 0
M  V30 1275 C 127.239 0.33735 -1.89419 0
M  V30 1276 O 126.532 1.24491 -1.45645 0
M  V30 1277 C 126.726 -1.80909 -3.08231 0
M  V30 1278 C 126.555 -3.32984 -3.02245 0
M  V30 1279 C 125.325 -4.02247 -3.05819 0
M  V30 1280 C 127.523 -4.29332 -2.83157 0
M  V30 1281 N 125.505 -5.41072 -2.90024 0
M  V30 1282 C 126.876 -5.55265 -2.75828 0
M  V30 1283 C 128.931 -4.19707 -2.67863 0
M  V30 1284 C 127.634 -6.72671 -2.54767 0
M  V30 1285 C 129.66 -5.36809 -2.48173 0
M  V30 1286 C 129.022 -6.61683 -2.41567 0
M  V30 1287 H 125.121 -0.463708 -0.629682 0
M  V30 1288 H 127.705 -1.58796 -1.12659 0
M  V30 1289 H 125.876 -1.36369 -3.63673 0
M  V30 1290 H 127.608 -1.59739 -3.71841 0
M  V30 1291 H 124.363 -3.53531 -3.15139 0
M  V30 1292 H 124.787 -6.13938 -2.85323 0
M  V30 1293 H 129.429 -3.23907 -2.71743 0
M  V30 1294 H 127.147 -7.68577 -2.49629 0
M  V30 1295 H 130.733 -5.31224 -2.37259 0
M  V30 1296 H 129.613 -7.50768 -2.26531 0
M  V30 1297 N 127.117 1.15442 -1.07289 0
M  V30 1298 C 128.065 2.22225 -0.686952 0
M  V30 1299 C 129.059 1.66688 0.30193 0
M  V30 1300 O 130.265 1.79236 0.165712 0
M  V30 1301 H 126.64 0.723783 -0.204064 0
M  V30 1302 H 128.611 2.52056 -1.5972 0
M  V30 1303 C 127.36 3.47556 -0.100149 0
M  V30 1304 H 126.683 3.90612 -0.852211 0
M  V30 1305 H 128.123 4.23794 0.132235 0
M  V30 1306 C 126.582 3.16337 1.159 0
M  V30 1307 O 127.112 3.33074 2.24555 0
M  V30 1308 N 125.318 2.70385 1.06491 0
M  V30 1309 H 124.865 2.56966 0.180668 0
M  V30 1310 H 124.823 2.49871 1.90819 0
M  V30 1311 N 128.595 0.856903 1.32268 0
M  V30 1312 C 129.823 0.475439 2.01363 0
M  V30 1313 C 130.238 -0.928486 1.64392 0
M  V30 1314 O 129.595 -1.60624 0.866387 0
M  V30 1315 C 129.646 0.607545 3.56358 0
M  V30 1316 O 129.367 1.95617 3.92002 0
M  V30 1317 C 130.868 0.225382 4.42727 0
M  V30 1318 H 128.088 0.186636 0.644521 0
M  V30 1319 H 130.632 1.15446 1.68797 0
M  V30 1320 H 128.787 -0.0237719 3.87393 0
M  V30 1321 H 129.201 1.95455 4.86721 0
M  V30 1322 H 130.675 0.368813 5.50767 0
M  V30 1323 H 131.152 -0.834369 4.31202 0
M  V30 1324 H 131.758 0.831864 4.17085 0
M  V30 1325 N 130.073 -1.45103 0.615059 0
M  V30 1326 C 131.35 -1.95549 0.0448276 0
M  V30 1327 C 131.73 -1.55737 -1.4251 0
M  V30 1328 O 131.078 -0.823556 -2.13143 0
M  V30 1329 C 131.288 -3.48098 0.250785 0
M  V30 1330 C 132.636 -4.24384 0.135509 0
M  V30 1331 O 133.66 -3.55738 0.181299 0
M  V30 1332 O 132.519 -5.46493 0.0268878 0
M  V30 1333 H 129.613 -0.8264 -0.0314845 0
M  V30 1334 H 132.159 -1.55232 0.685642 0
M  V30 1335 H 130.931 -3.7007 1.27139 0
M  V30 1336 H 130.554 -3.95323 -0.424937 0
M  V30 1337 N 131.551 -0.354651 -1.53558 0
M  V30 1338 C 132.499 0.512195 -2.26891 0
M  V30 1339 C 133.493 1.09263 -1.29452 0
M  V30 1340 O 134.699 1.03709 -1.47121 0
M  V30 1341 H 131.074 0.183878 -0.729173 0
M  V30 1342 H 133.045 -0.128202 -2.98124 0
M  V30 1343 C 131.794 1.64563 -3.06291 0
M  V30 1344 H 131.117 1.20829 -3.81104 0
M  V30 1345 H 132.557 2.22711 -3.60799 0
M  V30 1346 C 131.016 2.58158 -2.16462 0
M  V30 1347 O 131.546 3.60695 -1.76811 0
M  V30 1348 N 129.752 2.27096 -1.81317 0
M  V30 1349 H 129.299 1.43751 -2.1376 0
M  V30 1350 H 129.257 2.89975 -1.21498 0
M  V30 1351 N 133.029 1.57378 -0.0835403 0
M  V30 1352 C 134.257 1.98263 0.59157 0
M  V30 1353 C 134.672 0.962302 1.62435 0
M  V30 1354 O 134.029 -0.049581 1.82433 0
M  V30 1355 C 134.08 3.39214 1.24965 0
M  V30 1356 O 133.801 4.37339 0.258186 0
M  V30 1357 C 135.302 3.95038 2.01147 0
M  V30 1358 H 132.522 0.651773 0.159477 0
M  V30 1359 H 135.066 2.03878 -0.159415 0
M  V30 1360 H 133.221 3.34649 1.95164 0
M  V30 1361 H 133.635 5.19371 0.731734 0
M  V30 1362 H 135.109 4.95848 2.42567 0
M  V30 1363 H 135.586 3.32222 2.87272 0
M  V30 1364 H 136.192 4.0304 1.35789 0
M  V30 1365 N 134.507 -0.190092 1.56449 0
M  V30 1366 C 135.437 -1.23816 1.97969 0
M  V30 1367 C 136.418 -1.47201 0.852395 0
M  V30 1368 O 137.603 -1.58854 1.1171 0
M  V30 1369 C 134.733 -2.5813 2.3235 0
M  V30 1370 C 133.687 -2.49348 3.47864 0
M  V30 1371 C 133.013 -3.8798 3.67934 0
M  V30 1372 C 134.313 -2.01424 4.81898 0
M  V30 1373 H 136.007 -0.89311 2.85769 0
M  V30 1374 H 133.553 -0.428177 1.37487 0
M  V30 1375 H 135.506 -3.31637 2.59991 0
M  V30 1376 H 134.23 -2.94386 1.41438 0
M  V30 1377 H 132.889 -1.78297 3.20321 0
M  V30 1378 H 132.537 -4.21597 2.74344 0
M  V30 1379 H 132.237 -3.82978 4.45648 0
M  V30 1380 H 133.761 -4.63101 3.97957 0
M  V30 1381 H 135.175 -2.64693 5.08538 0
M  V30 1382 H 133.572 -2.07413 5.63116 0
M  V30 1383 H 134.642 -0.967677 4.75146 0
M  V30 1384 N 135.985 -1.50799 -0.457987 0
M  V30 1385 C 137.233 -1.62121 -1.2067 0
M  V30 1386 C 137.554 -0.329793 -1.92191 0
M  V30 1387 O 136.824 0.653409 -1.84682 0
M  V30 1388 H 135.404 -0.597441 -0.448411 0
M  V30 1389 H 138.066 -1.87637 -0.527096 0
M  V30 1390 H 137.162 -2.43882 -1.94751 0
M  V30 1391 N 137.463 0.71206 -1.40597 0
M  V30 1392 C 138.691 1.50111 -1.42388 0
M  V30 1393 C 139.106 1.88784 -0.0245395 0
M  V30 1394 O 138.463 1.55681 0.952351 0
M  V30 1395 C 138.514 2.7742 -2.31776 0
M  V30 1396 O 138.235 2.40382 -3.66262 0
M  V30 1397 C 139.736 3.7129 -2.42196 0
M  V30 1398 H 136.956 0.46314 -0.485533 0
M  V30 1399 H 139.5 0.878068 -1.8469 0
M  V30 1400 H 137.655 3.36001 -1.92827 0
M  V30 1401 H 138.069 3.22324 -4.13772 0
M  V30 1402 H 139.543 4.57448 -3.08943 0
M  V30 1403 H 140.02 4.14641 -1.44809 0
M  V30 1404 H 140.626 3.18619 -2.81712 0
M  V30 1405 N 138.941 1.26152 0.944643 0
M  V30 1406 C 139.851 1.09176 2.07648 0
M  V30 1407 C 140.867 0.0261935 1.7398 0
M  V30 1408 O 142.043 0.229208 2.00091 0
M  V30 1409 C 139.108 0.722915 3.39079 0
M  V30 1410 C 138.169 1.86752 3.86552 0
M  V30 1411 C 137.402 1.51617 5.11711 0
M  V30 1412 O 137.625 0.416331 5.68879 0
M  V30 1413 O 136.559 2.34975 5.54139 0
M  V30 1414 H 140.385 2.0412 2.24875 0
M  V30 1415 H 137.97 1.05182 1.061 0
M  V30 1416 H 139.852 0.529787 4.18056 0
M  V30 1417 H 138.527 -0.197159 3.23099 0
M  V30 1418 H 137.434 2.11558 3.08535 0
M  V30 1419 H 138.767 2.76719 4.07047 0
M  V30 1420 N 140.419 -1.14872 1.07899 0
M  V30 1421 C 141.668 -1.85135 0.800499 0
M  V30 1422 C 141.981 -1.83547 -0.676014 0
M  V30 1423 O 143.187 -2.49548 -1.06948 0
M  V30 1424 C 141.643 -3.3231 1.38197 0
M  V30 1425 C 141.251 -3.42329 2.8899 0
M  V30 1426 C 142.995 -4.0772 1.18174 0
M  V30 1427 C 140.902 -4.83684 3.403 0
M  V30 1428 H 139.832 -0.693563 0.29578 0
M  V30 1429 H 142.483 -1.29532 1.29976 0
M  V30 1430 H 140.865 -3.87618 0.810431 0
M  V30 1431 H 142.039 -2.97097 3.52236 0
M  V30 1432 H 140.354 -2.80369 3.07867 0
M  V30 1433 H 142.951 -5.12049 1.5398 0
M  V30 1434 H 143.294 -4.16124 0.12117 0
M  V30 1435 H 143.827 -3.58696 1.71994 0
M  V30 1436 H 140.566 -4.80465 4.45907 0
M  V30 1437 H 140.086 -5.29474 2.81811 0
M  V30 1438 H 141.765 -5.52558 3.36584 0
M  V30 1439 N 141.898 -0.863906 -1.31812 0
M  V30 1440 C 142.861 -0.320212 -2.26952 0
M  V30 1441 C 143.861 0.525369 -1.51975 0
M  V30 1442 O 145.051 0.335547 -1.70938 0
M  V30 1443 C 142.183 0.545919 -3.365 0
M  V30 1444 H 143.376 -1.16004 -2.76556 0
M  V30 1445 H 140.929 -0.638995 -1.42641 0
M  V30 1446 H 141.664 1.40718 -2.92179 0
M  V30 1447 H 141.449 -0.0594674 -3.92055 0
M  V30 1448 H 142.939 0.918796 -4.07367 0
M  V30 1449 N 143.376 1.44774 -0.622745 0
M  V30 1450 C 144.625 2.01334 -0.121397 0
M  V30 1451 C 144.938 1.49505 1.26125 0
M  V30 1452 O 146.144 1.98139 1.85616 0
M  V30 1453 C 144.6 3.59516 -0.166298 0
M  V30 1454 C 144.208 4.20342 -1.54974 0
M  V30 1455 C 145.952 4.23582 0.279021 0
M  V30 1456 C 143.859 5.70721 -1.55021 0
M  V30 1457 H 142.789 0.752851 -0.0416172 0
M  V30 1458 H 145.44 1.66083 -0.780309 0
M  V30 1459 H 143.822 3.92027 0.559557 0
M  V30 1460 H 144.996 3.99381 -2.29851 0
M  V30 1461 H 143.311 3.68529 -1.93843 0
M  V30 1462 H 145.908 5.33868 0.298083 0
M  V30 1463 H 146.251 3.95327 1.30471 0
M  V30 1464 H 146.784 3.95843 -0.394063 0
M  V30 1465 H 143.523 6.03698 -2.55399 0
M  V30 1466 H 143.043 5.93829 -0.844245 0
M  V30 1467 H 144.722 6.34203 -1.28047 0
M  V30 1468 N 144.854 0.36279 1.53368 0
M  V30 1469 C 145.764 -0.492994 2.29362 0
M  V30 1470 C 146.78 -1.09507 1.35219 0
M  V30 1471 O 147.956 -1.10662 1.68273 0
M  V30 1472 C 145.021 -1.61855 3.066 0
M  V30 1473 C 144.082 -1.04429 4.16405 0
M  V30 1474 C 143.315 -2.11621 4.89951 0
M  V30 1475 O 143.538 -3.32684 4.63333 0
M  V30 1476 O 142.472 -1.74835 5.75948 0
M  V30 1477 H 146.298 0.125331 3.03441 0
M  V30 1478 H 143.883 0.127253 1.48857 0
M  V30 1479 H 145.765 -2.27302 3.54841 0
M  V30 1480 H 144.44 -2.22233 2.3536 0
M  V30 1481 H 143.347 -0.353819 3.72423 0
M  V30 1482 H 144.68 -0.485113 4.89804 0
M  V30 1483 N 146.332 -1.57332 0.0918853 0
M  V30 1484 C 147.609 -1.85691 -0.614668 0
M  V30 1485 C 147.989 -0.988146 -1.86545 0
M  V30 1486 O 147.337 -0.0597055 -2.28422 0
M  V30 1487 C 147.547 -3.36294 -0.933126 0
M  V30 1488 C 148.895 -4.04275 -1.29796 0
M  V30 1489 O 149.919 -3.41157 -1.02424 0
M  V30 1490 O 148.778 -5.1564 -1.81047 0
M  V30 1491 H 145.872 -0.767802 -0.307261 0
M  V30 1492 H 148.418 -1.69244 0.12434 0
M  V30 1493 H 147.19 -3.91273 -0.0456404 0
M  V30 1494 H 146.813 -3.58076 -1.72822 0
M  V30 1495 N 147.81 0.181792 -1.56548 0
M  V30 1496 C 148.742 1.24956 -1.92142 0
M  V30 1497 C 149.755 1.41022 -0.813422 0
M  V30 1498 O 150.944 1.41212 -1.09186 0
M  V30 1499 C 148.044 2.61981 -2.14987 0
M  V30 1500 C 147.217 2.6735 -3.46183 0
M  V30 1501 C 146.276 3.85664 -3.5798 0
M  V30 1502 O 145.302 3.72148 -4.30691 0
M  V30 1503 N 146.504 5.01683 -2.92053 0
M  V30 1504 H 149.269 0.947329 -2.84334 0
M  V30 1505 H 146.83 0.371629 -1.57577 0
M  V30 1506 H 148.822 3.3958 -2.20154 0
M  V30 1507 H 147.392 2.84637 -1.2923 0
M  V30 1508 H 146.612 1.75925 -3.52766 0
M  V30 1509 H 147.9 2.67939 -4.32534 0
M  V30 1510 H 147.298 5.15564 -2.32832 0
M  V30 1511 H 145.855 5.77181 -3.0283 0
M  V30 1512 N 149.288 1.51039 0.449983 0
M  V30 1513 C 150.537 1.62317 1.19733 0
M  V30 1514 C 150.85 0.339101 1.92638 0
M  V30 1515 O 152.056 0.331069 2.69474 0
M  V30 1516 C 150.512 2.86608 2.17678 0
M  V30 1517 C 150.12 4.21972 1.50479 0
M  V30 1518 C 151.864 3.07239 2.92924 0
M  V30 1519 C 149.771 5.37426 2.46834 0
M  V30 1520 H 148.701 0.604532 0.450619 0
M  V30 1521 H 151.352 1.77494 0.465625 0
M  V30 1522 H 149.734 2.65037 2.94231 0
M  V30 1523 H 150.908 4.53878 0.795716 0
M  V30 1524 H 149.223 4.07117 0.874344 0
M  V30 1525 H 151.82 3.90668 3.65079 0
M  V30 1526 H 152.163 2.19807 3.5354 0
M  V30 1527 H 152.696 3.29091 2.23481 0
M  V30 1528 H 149.435 6.27079 1.90926 0
M  V30 1529 H 148.955 5.09912 3.15832 0
M  V30 1530 H 150.634 5.68862 3.08228 0
M  V30 1531 N 150.766 -0.704594 1.40972 0
M  V30 1532 C 152.006 -1.47691 1.41304 0
M  V30 1533 C 152.37 -1.91992 0.0178582 0
M  V30 1534 O 153.571 -2.68599 -0.103996 0
M  V30 1535 C 151.842 -2.66254 2.38419 0
M  V30 1536 S 153.401 -3.55516 2.57204 0
M  V30 1537 H 150.219 -0.504808 0.500689 0
M  V30 1538 H 152.821 -0.822962 1.77335 0
M  V30 1539 H 151.525 -2.31897 3.38603 0
M  V30 1540 H 151.056 -3.3655 2.03711 0
M  V30 1541 H 153.071 -4.61115 1.83268 0
M  V30 1542 N 152.244 -1.26651 -0.937939 0
M  V30 1543 C 153.176 -1.04283 -2.04102 0
M  V30 1544 C 154.189 -0.00221014 -1.628 0
M  V30 1545 O 155.378 -0.242645 -1.76843 0
M  V30 1546 C 152.478 -0.557846 -3.34277 0
M  V30 1547 C 151.651 -1.66843 -4.04329 0
M  V30 1548 C 150.71 -1.18095 -5.12777 0
M  V30 1549 O 149.736 -1.87865 -5.37304 0
M  V30 1550 N 150.938 -0.0311006 -5.80492 0
M  V30 1551 H 153.703 -1.9927 -2.23856 0
M  V30 1552 H 151.264 -1.1808 -1.10764 0
M  V30 1553 H 153.256 -0.215836 -4.04124 0
M  V30 1554 H 151.826 0.298523 -3.11171 0
M  V30 1555 H 151.046 -2.18123 -3.28353 0
M  V30 1556 H 152.334 -2.41408 -4.47883 0
M  V30 1557 H 151.732 0.551486 -5.63005 0
M  V30 1558 H 150.289 0.251809 -6.51313 0
M  V30 1559 N 153.722 1.14298 -1.08507 0
M  V30 1560 C 154.97 1.84993 -0.813763 0
M  V30 1561 C 155.291 1.83405 0.662393 0
M  V30 1562 O 154.561 1.28319 1.48024 0
M  V30 1563 H 153.141 0.684966 -0.298045 0
M  V30 1564 H 155.803 1.385 -1.37126 0
M  V30 1565 H 154.899 2.89788 -1.15884 0
M  V30 1566 N 155.201 0.870884 1.31352 0
M  V30 1567 C 156.131 0.343096 2.30966 0
M  V30 1568 C 157.112 -0.566507 1.60389 0
M  V30 1569 O 158.297 -0.483336 1.88089 0
M  V30 1570 C 155.427 -0.455487 3.443 0
M  V30 1571 C 154.381 0.361103 4.26474 0
M  V30 1572 C 153.707 -0.563221 5.31725 0
M  V30 1573 C 155.007 1.59566 4.97329 0
M  V30 1574 H 156.701 1.17548 2.75359 0
M  V30 1575 H 154.247 0.566686 1.32381 0
M  V30 1576 H 156.2 -0.83525 4.13039 0
M  V30 1577 H 154.924 -1.32139 2.98675 0
M  V30 1578 H 153.583 0.722825 3.59403 0
M  V30 1579 H 153.231 -1.42643 4.82351 0
M  V30 1580 H 152.931 -0.0207409 5.87596 0
M  V30 1581 H 154.455 -0.939808 6.03324 0
M  V30 1582 H 155.869 1.28728 5.58661 0
M  V30 1583 H 154.266 2.07728 5.63 0
M  V30 1584 H 155.336 2.34798 4.24262 0
M  V30 1585 N 156.679 -1.44442 0.630414 0
M  V30 1586 C 157.626 -2.30678 -0.0749355 0
M  V30 1587 C 158.596 -1.4344 -0.837502 0
M  V30 1588 O 159.781 -1.72343 -0.818684 0
M  V30 1589 C 156.921 -3.28706 -1.05103 0
M  V30 1590 C 156.034 -4.31046 -0.286954 0
M  V30 1591 C 155.169 -5.16167 -1.2548 0
M  V30 1592 C 154.208 -6.10216 -0.479843 0
M  V30 1593 N 153.345 -6.88039 -1.39811 0
M  V30 1594 H 158.185 -2.90454 0.666386 0
M  V30 1595 H 155.722 -1.43107 0.340404 0
M  V30 1596 H 157.68 -3.84027 -1.63031 0
M  V30 1597 H 156.31 -2.70632 -1.75949 0
M  V30 1598 H 155.362 -3.78203 0.408243 0
M  V30 1599 H 156.674 -4.97794 0.316657 0
M  V30 1600 H 155.828 -5.76002 -1.90544 0
M  V30 1601 H 154.567 -4.49491 -1.89233 0
M  V30 1602 H 153.572 -5.49491 0.184295 0
M  V30 1603 H 154.797 -6.78928 0.152965 0
M  V30 1604 H 152.743 -6.24032 -2.02287 0
M  V30 1605 H 152.66 -7.51223 -0.848508 0
M  V30 1606 H 153.928 -7.52397 -2.03762 0
M  V30 1607 N 158.157 -0.370918 -1.53173 0
M  V30 1608 C 159.087 0.464847 -2.28826 0
M  V30 1609 C 160.068 1.07936 -1.31468 0
M  V30 1610 O 161.253 1.0956 -1.60344 0
M  V30 1611 C 158.383 1.60196 -3.08147 0
M  V30 1612 C 157.337 1.11443 -4.13237 0
M  V30 1613 C 156.663 2.3422 -4.80672 0
M  V30 1614 C 157.963 0.195384 -5.21934 0
M  V30 1615 H 159.657 -0.166329 -2.98938 0
M  V30 1616 H 157.203 -0.0814359 -1.4377 0
M  V30 1617 H 159.156 2.19332 -3.59822 0
M  V30 1618 H 157.88 2.26045 -2.35735 0
M  V30 1619 H 156.539 0.545727 -3.62515 0
M  V30 1620 H 156.187 2.98537 -4.04827 0
M  V30 1621 H 155.887 2.02269 -5.51689 0
M  V30 1622 H 157.411 2.94032 -5.35143 0
M  V30 1623 H 158.825 0.694375 -5.69079 0
M  V30 1624 H 157.222 -0.0335027 -6.00091 0
M  V30 1625 H 158.292 -0.760961 -4.78892 0
M  V30 1626 N 159.635 1.57281 -0.100228 0
M  V30 1627 C 160.863 1.98879 0.570509 0
M  V30 1628 C 161.278 0.979476 1.61405 0
M  V30 1629 O 160.635 -0.0302288 1.82475 0
M  V30 1630 C 160.686 3.4052 1.2136 0
M  V30 1631 O 160.407 4.37588 0.211786 0
M  V30 1632 C 161.908 3.97149 1.96945 0
M  V30 1633 H 159.128 0.653428 0.152555 0
M  V30 1634 H 161.672 2.03697 -0.18103 0
M  V30 1635 H 159.827 3.367 1.91603 0
M  V30 1636 H 160.241 5.20118 0.676607 0
M  V30 1637 H 161.715 4.98393 2.37294 0
M  V30 1638 H 162.192 3.3525 2.83733 0
M  V30 1639 H 162.798 4.04458 1.31506 0
M  V30 1640 N 161.113 -0.173488 1.56642 0
M  V30 1641 C 162.36 -0.890465 1.81871 0
M  V30 1642 C 162.688 -1.82339 0.67696 0
M  V30 1643 O 161.943 -1.92795 -0.335926 0
M  V30 1644 C 162.242 -1.72069 3.13252 0
M  V30 1645 C 161.908 -0.936878 4.41059 0
M  V30 1646 C 160.57 -0.720545 4.75775 0
M  V30 1647 C 162.922 -0.386919 5.19762 0
M  V30 1648 C 160.25 0.0568829 5.86672 0
M  V30 1649 C 162.602 0.37741 6.31473 0
M  V30 1650 C 161.266 0.604563 6.64757 0
M  V30 1651 H 160.536 -0.325844 0.665512 0
M  V30 1652 H 163.183 -0.155527 1.90867 0
M  V30 1653 H 161.488 -2.52496 2.99588 0
M  V30 1654 H 163.185 -2.27844 3.29982 0
M  V30 1655 H 159.775 -1.11553 4.13828 0
M  V30 1656 H 163.959 -0.541398 4.93338 0
M  V30 1657 H 159.215 0.242635 6.10918 0
M  V30 1658 H 163.389 0.810825 6.91664 0
M  V30 1659 H 161.016 1.20885 7.50527 0
M  V30 1660 N 162.591 -1.51276 -0.441967 0
M  V30 1661 C 163.868 -1.54252 -1.20273 0
M  V30 1662 C 164.248 -0.30408 -2.08898 0
M  V30 1663 O 163.596 0.711084 -2.17154 0
M  V30 1664 C 163.806 -2.85406 -2.00859 0
M  V30 1665 C 165.154 -3.37181 -2.58059 0
M  V30 1666 O 166.178 -2.86925 -2.11074 0
M  V30 1667 O 165.037 -4.24858 -3.43741 0
M  V30 1668 H 162.131 -0.619969 -0.547328 0
M  V30 1669 H 164.677 -1.63586 -0.451413 0
M  V30 1670 H 163.449 -3.67003 -1.35736 0
M  V30 1671 H 163.072 -2.79213 -2.83065 0
M  V30 1672 N 164.069 0.697108 -1.41344 0
M  V30 1673 C 165.297 1.48593 -1.43972 0
M  V30 1674 C 165.712 1.88747 -0.0445612 0
M  V30 1675 O 165.069 1.56682 0.935785 0
M  V30 1676 C 165.12 2.74946 -2.34706 0
M  V30 1677 O 164.841 2.36484 -3.68791 0
M  V30 1678 C 166.342 3.687 -2.46121 0
M  V30 1679 H 163.562 0.457964 -0.490418 0
M  V30 1680 H 166.106 0.858429 -1.8561 0
M  V30 1681 H 164.261 3.33937 -1.9638 0
M  V30 1682 H 164.675 3.17918 -4.17167 0
M  V30 1683 H 166.149 4.54145 -3.13777 0
M  V30 1684 H 166.626 4.13081 -1.49199 0
M  V30 1685 H 167.232 3.15613 -2.85076 0
M  V30 1686 N 165.547 1.27147 0.931209 0
M  V30 1687 C 166.775 1.16082 1.71267 0
M  V30 1688 C 167.19 -0.282772 1.8667 0
M  V30 1689 O 166.547 -1.19283 1.38122 0
M  V30 1690 C 166.598 1.8358 3.11417 0
M  V30 1691 O 166.319 3.22299 2.96741 0
M  V30 1692 C 167.82 1.78597 4.05732 0
M  V30 1693 H 165.04 0.403758 0.535929 0
M  V30 1694 H 167.584 1.67953 1.16671 0
M  V30 1695 H 165.739 1.35623 3.62885 0
M  V30 1696 H 166.153 3.55851 3.85319 0
M  V30 1697 H 167.627 2.30444 5.01597 0
M  V30 1698 H 168.104 0.754564 4.3267 0
M  V30 1699 H 168.71 2.26152 3.60188 0
M  V30 1700 N 167.025 -1.13721 1.09112 0
M  V30 1701 C 168.272 -1.84924 0.825192 0
M  V30 1702 C 168.6 -1.83347 -0.649151 0
M  V30 1703 O 167.855 -1.26449 -1.49362 0
M  V30 1704 C 168.154 -3.32861 1.30146 0
M  V30 1705 C 167.82 -3.54621 2.78486 0
M  V30 1706 C 166.482 -3.60268 3.18999 0
M  V30 1707 C 168.834 -3.62855 3.74146 0
M  V30 1708 C 166.162 -3.71679 4.53951 0
M  V30 1709 C 168.514 -3.75793 5.08883 0
M  V30 1710 C 167.178 -3.79692 5.4899 0
M  V30 1711 H 166.448 -0.676684 0.301959 0
M  V30 1712 H 169.095 -1.3428 1.36533 0
M  V30 1713 H 167.4 -3.85835 0.681064 0
M  V30 1714 H 169.097 -3.86395 1.07236 0
M  V30 1715 H 165.687 -3.50879 2.46134 0
M  V30 1716 H 169.871 -3.57775 3.43963 0
M  V30 1717 H 165.127 -3.72963 4.84467 0
M  V30 1718 H 169.301 -3.81107 5.82864 0
M  V30 1719 H 166.928 -3.88287 6.53558 0
M  V30 1720 N 168.503 -0.877838 -1.30888 0
M  V30 1721 C 169.728 -0.506629 -2.01117 0
M  V30 1722 C 170.153 0.895564 -1.65412 0
M  V30 1723 O 169.511 1.5923 -0.866922 0
M  V30 1724 C 169.559 -0.680223 -3.54126 0
M  V30 1725 O 168.663 0.277033 -4.11468 0
M  V30 1726 H 168.004 -0.200518 -0.633 0
M  V30 1727 H 170.534 -1.18342 -1.66902 0
M  V30 1728 H 170.544 -0.5765 -4.03907 0
M  V30 1729 H 169.219 -1.70261 -3.79452 0
M  V30 1730 H 167.796 0.127606 -3.72682 0
M  V30 1731 N 169.982 1.44106 -0.638065 0
M  V30 1732 C 171.393 1.85316 -0.226894 0
M  V30 1733 C 171.744 1.53399 1.22324 0
M  V30 1734 O 170.869 0.975463 1.93167 0
M  V30 1735 C 171.464 3.3637 -0.405013 0
M  V30 1736 C 170.023 3.76369 -0.0482902 0
M  V30 1737 C 169.17 2.67921 -0.715108 0
M  V30 1738 H 172.121 1.34474 -0.842764 0
M  V30 1739 H 172.142 3.7885 0.354 0
M  V30 1740 H 171.654 3.59569 -1.46053 0
M  V30 1741 H 169.755 3.58784 1.00522 0
M  V30 1742 H 169.868 4.76856 -0.463187 0
M  V30 1743 H 168.232 2.54259 -0.149753 0
M  V30 1744 H 169.015 2.93951 -1.77335 0
M  V30 1745 N 171.46 0.379036 1.52974 0
M  V30 1746 C 172.408 -0.476033 2.27677 0
M  V30 1747 C 173.402 -1.0719 1.31174 0
M  V30 1748 O 174.608 -1.01355 1.48752 0
M  V30 1749 H 170.983 -0.172255 0.732006 0
M  V30 1750 H 172.954 0.175615 2.97883 0
M  V30 1751 C 171.703 -1.5967 3.0887 0
M  V30 1752 H 171.026 -1.1475 3.82978 0
M  V30 1753 H 172.466 -2.16943 3.64296 0
M  V30 1754 C 170.925 -2.54682 2.20542 0
M  V30 1755 O 171.455 -3.57836 1.82527 0
M  V30 1756 N 169.661 -2.24183 1.84907 0
M  V30 1757 H 169.208 -1.40333 2.1602 0
M  V30 1758 H 169.166 -2.88006 1.26096 0
M  V30 1759 N 172.938 -1.57226 0.108567 0
M  V30 1760 C 174.166 -1.99179 -0.559954 0
M  V30 1761 C 174.581 -0.988022 -1.60884 0
M  V30 1762 O 173.938 0.0205512 -1.82488 0
M  V30 1763 C 173.989 -3.41159 -1.19552 0
M  V30 1764 O 173.71 -4.37694 -0.188577 0
M  V30 1765 C 175.211 -3.98188 -1.94837 0
M  V30 1766 H 172.431 -0.654228 -0.149088 0
M  V30 1767 H 174.975 -2.03598 0.19183 0
M  V30 1768 H 173.13 -3.37711 -1.89815 0
M  V30 1769 H 173.544 -5.20469 -0.649014 0
M  V30 1770 H 175.018 -4.99644 -2.34648 0
M  V30 1771 H 175.495 -3.3675 -2.81951 0
M  V30 1772 H 176.101 -4.0515 -1.2936 0
M  V30 1773 N 174.416 0.165178 -1.56732 0
M  V30 1774 C 175.664 0.879068 -1.8198 0
M  V30 1775 C 175.985 1.82514 -0.686561 0
M  V30 1776 O 175.255 1.93694 0.293146 0
M  V30 1777 H 173.835 0.327608 -0.671329 0
M  V30 1778 H 176.497 0.163526 -1.94213 0
M  V30 1779 H 175.593 1.45228 -2.76252 0
M  V30 1780 N 175.894 1.51508 0.433938 0
M  V30 1781 C 176.841 1.73068 1.52696 0
M  V30 1782 C 177.811 0.572441 1.55924 0
M  V30 1783 O 178.996 0.807253 1.72882 0
M  V30 1784 C 176.136 1.86474 2.90381 0
M  V30 1785 C 175.249 3.14037 2.96656 0
M  V30 1786 C 174.384 3.18019 4.25485 0
M  V30 1787 C 173.423 4.39882 4.2564 0
M  V30 1788 N 172.56 4.41394 5.45999 0
M  V30 1789 H 177.4 2.66366 1.33615 0
M  V30 1790 H 174.937 1.32008 0.649018 0
M  V30 1791 H 176.895 1.92229 3.70275 0
M  V30 1792 H 175.525 0.965809 3.08013 0
M  V30 1793 H 174.577 3.17575 2.09404 0
M  V30 1794 H 175.889 4.0394 2.92633 0
M  V30 1795 H 175.043 3.22708 5.13755 0
M  V30 1796 H 173.782 2.2601 4.3217 0
M  V30 1797 H 172.787 4.35366 3.35763 0
M  V30 1798 H 174.012 5.33159 4.20617 0
M  V30 1799 H 171.958 3.52258 5.53399 0
M  V30 1800 H 171.875 5.25111 5.4387 0
M  V30 1801 H 173.143 4.50281 6.36292 0
M  V30 1802 N 177.372 -0.689602 1.41712 0
M  V30 1803 C 178.319 -1.80345 1.44029 0
M  V30 1804 C 179.289 -1.63478 0.293948 0
M  V30 1805 O 180.474 -1.84244 0.495869 0
M  V30 1806 C 177.614 -3.18272 1.33405 0
M  V30 1807 C 176.727 -3.46529 2.57956 0
M  V30 1808 C 175.862 -4.74103 2.39582 0
M  V30 1809 C 174.901 -4.95347 3.5958 0
M  V30 1810 N 174.038 -6.14151 3.40239 0
M  V30 1811 H 178.878 -1.77698 2.39222 0
M  V30 1812 H 176.415 -0.867688 1.18784 0
M  V30 1813 H 178.373 -3.97956 1.25246 0
M  V30 1814 H 177.003 -3.2008 0.418164 0
M  V30 1815 H 176.055 -2.61207 2.76542 0
M  V30 1816 H 177.367 -3.58126 3.47199 0
M  V30 1817 H 176.521 -5.61853 2.28924 0
M  V30 1818 H 175.26 -4.64763 1.47805 0
M  V30 1819 H 174.265 -4.06044 3.70686 0
M  V30 1820 H 175.49 -5.06542 4.52318 0
M  V30 1821 H 173.436 -6.06013 2.51167 0
M  V30 1822 H 173.353 -6.26543 4.23061 0
M  V30 1823 H 174.621 -7.04619 3.33365 0
M  V30 1824 N 178.85 -1.27639 -0.924453 0
M  V30 1825 C 180.075 -1.17101 -1.71179 0
M  V30 1826 C 180.5 0.268134 -1.86179 0
M  V30 1827 O 179.858 1.19415 -1.36418 0
M  V30 1828 C 179.906 -1.86313 -3.08739 0
M  V30 1829 O 179.01 -1.16331 -3.95652 0
M  V30 1830 H 178.351 -0.407091 -0.524569 0
M  V30 1831 H 180.881 -1.68767 -1.15666 0
M  V30 1832 H 180.891 -1.938 -3.59034 0
M  V30 1833 H 179.566 -2.91001 -2.97138 0
M  V30 1834 H 178.143 -1.16935 -3.54091 0
M  V30 1835 N 180.328 1.1314 -1.09713 0
M  V30 1836 C 181.576 1.84119 -0.833338 0
M  V30 1837 C 181.897 1.84097 0.642904 0
M  V30 1838 O 181.167 1.29881 1.46655 0
M  V30 1839 H 179.747 0.681766 -0.305293 0
M  V30 1840 H 182.409 1.37038 -1.38588 0
M  V30 1841 H 181.505 2.88543 -1.18951 0
M  V30 1842 N 181.806 0.884767 1.30421 0
M  V30 1843 C 182.753 0.349642 2.28136 0
M  V30 1844 C 183.723 -0.560061 1.56373 0
M  V30 1845 O 184.908 -0.488524 1.8444 0
M  V30 1846 C 182.048 -0.42999 3.42411 0
M  V30 1847 C 181.161 0.508907 4.28992 0
M  V30 1848 C 180.296 -0.286301 5.30428 0
M  V30 1849 C 179.335 0.648079 6.08659 0
M  V30 1850 N 178.472 -0.111792 7.02011 0
M  V30 1851 H 183.312 1.18807 2.73293 0
M  V30 1852 H 180.849 0.597231 1.3443 0
M  V30 1853 H 182.807 -0.897923 4.07423 0
M  V30 1854 H 181.437 -1.23299 2.98324 0
M  V30 1855 H 180.489 1.09533 3.64289 0
M  V30 1856 H 181.801 1.22475 4.8353 0
M  V30 1857 H 180.955 -0.816098 6.01186 0
M  V30 1858 H 179.694 -1.03536 4.76583 0
M  V30 1859 H 178.699 1.18951 5.36778 0
M  V30 1860 H 179.924 1.39623 6.64592 0
M  V30 1861 H 177.87 -0.843395 6.50556 0
M  V30 1862 H 177.787 0.544429 7.54037 0
M  V30 1863 H 179.055 -0.622339 7.77012 0
M  V30 1864 N 183.284 -1.43765 0.645699 0
M  V30 1865 C 184.533 -2.01116 0.153412 0
M  V30 1866 C 184.846 -1.51493 -1.23731 0
M  V30 1867 O 186.052 -2.01067 -1.8244 0
M  V30 1868 C 184.508 -3.59206 0.223473 0
M  V30 1869 C 184.116 -4.17823 1.61642 0
M  V30 1870 C 185.86 -4.23972 -0.211597 0
M  V30 1871 C 183.767 -5.68183 1.64081 0
M  V30 1872 H 182.697 -0.752093 0.0535891 0
M  V30 1873 H 185.348 -1.6482 0.806633 0
M  V30 1874 H 183.73 -3.92867 -0.497118 0
M  V30 1875 H 184.904 -3.95674 2.36176 0
M  V30 1876 H 183.219 -3.65399 1.99681 0
M  V30 1877 H 185.816 -5.34275 -0.213112 0
M  V30 1878 H 186.159 -3.97352 -1.24165 0
M  V30 1879 H 186.692 -3.95166 0.456988 0
M  V30 1880 H 183.431 -5.99559 2.64971 0
M  V30 1881 H 182.951 -5.9241 0.938611 0
M  V30 1882 H 184.63 -6.32085 1.3812 0
M  V30 1883 N 184.763 -0.387143 -1.52771 0
M  V30 1884 C 185.71 0.449048 -2.26389 0
M  V30 1885 C 186.68 1.05961 -1.27912 0
M  V30 1886 O 187.865 1.08804 -1.56737 0
M  V30 1887 C 185.005 1.57155 -3.0724 0
M  V30 1888 C 184.118 0.984066 -4.20643 0
M  V30 1889 C 183.253 2.07745 -4.88892 0
M  V30 1890 C 182.292 1.46574 -5.94292 0
M  V30 1891 N 181.429 2.49834 -6.56146 0
M  V30 1892 H 186.269 -0.185205 -2.97424 0
M  V30 1893 H 183.806 -0.103164 -1.46738 0
M  V30 1894 H 185.764 2.23309 -3.52405 0
M  V30 1895 H 184.394 2.17615 -2.38419 0
M  V30 1896 H 183.446 0.212193 -3.79808 0
M  V30 1897 H 184.758 0.497029 -4.96318 0
M  V30 1898 H 183.912 2.81673 -5.3735 0
M  V30 1899 H 182.651 2.59807 -4.12737 0
M  V30 1900 H 181.656 0.711696 -5.45174 0
M  V30 1901 H 182.881 0.953088 -6.72379 0
M  V30 1902 H 180.827 3.0107 -5.82832 0
M  V30 1903 H 180.744 2.05879 -7.27427 0
M  V30 1904 H 182.012 3.23399 -7.09249 0
M  V30 1905 N 186.241 1.57166 -0.116904 0
M  V30 1906 C 187.466 1.999 0.55271 0
M  V30 1907 C 187.891 0.996039 1.59564 0
M  V30 1908 O 187.249 -0.032556 1.81271 0
M  V30 1909 C 187.297 3.4152 1.15742 0
M  V30 1910 O 186.401 3.44106 2.27299 0
M  V30 1911 H 185.742 0.649447 0.138258 0
M  V30 1912 H 188.272 2.03573 -0.204759 0
M  V30 1913 H 188.282 3.79684 1.49346 0
M  V30 1914 H 186.957 4.14034 0.393493 0
M  V30 1915 H 185.534 3.17759 1.9515 0
M  V30 1916 N 187.719 -0.156864 1.56817 0
M  V30 1917 C 188.944 -0.890331 1.87318 0
M  V30 1918 C 189.369 -1.74394 0.704855 0
M  V30 1919 O 188.727 -1.77972 -0.345786 0
M  V30 1920 C 188.775 -1.73102 3.16336 0
M  V30 1921 O 187.879 -2.83422 2.99576 0
M  V30 1922 H 187.22 -0.24857 0.615718 0
M  V30 1923 H 189.75 -0.150649 2.04045 0
M  V30 1924 H 189.76 -2.12803 3.48107 0
M  V30 1925 H 188.435 -1.10412 4.00976 0
M  V30 1926 H 187.012 -2.47199 2.7919 0
M  V30 1927 N 189.197 -1.51736 -0.425897 0
M  V30 1928 C 190.427 -1.68549 -1.19476 0
M  V30 1929 C 190.835 -0.387288 -1.85194 0
M  V30 1930 O 190.178 0.645142 -1.71999 0
M  V30 1931 C 190.24 -2.75275 -2.31223 0
M  V30 1932 C 189.904 -4.17534 -1.8578 0
M  V30 1933 C 190.901 -5.01936 -1.35485 0
M  V30 1934 C 188.586 -4.6369 -1.93123 0
M  V30 1935 C 190.58 -6.30559 -0.931347 0
M  V30 1936 C 188.267 -5.92307 -1.50384 0
M  V30 1937 C 189.265 -6.75569 -1.00473 0
M  V30 1938 O 188.953 -8.0178 -0.583452 0
M  V30 1939 H 188.685 -0.568525 -0.365725 0
M  V30 1940 H 191.239 -1.98982 -0.509444 0
M  V30 1941 H 189.469 -2.40182 -3.03067 0
M  V30 1942 H 191.158 -2.80853 -2.93047 0
M  V30 1943 H 191.924 -4.67475 -1.29197 0
M  V30 1944 H 187.803 -3.98997 -2.30916 0
M  V30 1945 H 191.347 -6.95498 -0.541084 0
M  V30 1946 H 187.244 -6.2628 -1.56346 0
M  V30 1947 H 188.012 -8.1543 -0.708275 0
M  V30 1948 N 190.675 0.682077 -1.42076 0
M  V30 1949 C 191.622 1.79578 -1.44984 0
M  V30 1950 C 192.592 1.6332 -0.302614 0
M  V30 1951 O 193.777 1.83978 -0.505633 0
M  V30 1952 C 190.917 3.1756 -1.35091 0
M  V30 1953 C 190.03 3.45156 -2.59791 0
M  V30 1954 C 189.165 4.72826 -2.42093 0
M  V30 1955 C 188.204 4.93433 -3.62202 0
M  V30 1956 N 187.341 6.12338 -3.43491 0
M  V30 1957 H 192.181 1.76427 -2.40161 0
M  V30 1958 H 189.718 0.861376 -1.19242 0
M  V30 1959 H 191.676 3.97287 -1.27354 0
M  V30 1960 H 190.306 3.19854 -0.435133 0
M  V30 1961 H 189.358 2.59736 -2.77923 0
M  V30 1962 H 190.67 3.5628 -3.49094 0
M  V30 1963 H 189.824 5.60631 -2.319 0
M  V30 1964 H 188.563 4.63973 -1.50268 0
M  V30 1965 H 187.568 4.04073 -3.72834 0
M  V30 1966 H 188.793 5.04136 -4.54998 0
M  V30 1967 H 186.739 6.04672 -2.54377 0
M  V30 1968 H 186.656 6.2429 -4.26377 0
M  V30 1969 H 187.924 7.02841 -3.37097 0
M  V30 1970 N 192.153 1.28127 0.917671 0
M  V30 1971 C 193.569 1.05749 1.19538 0
M  V30 1972 C 193.769 -0.202633 2.00479 0
M  V30 1973 O 192.825 -0.905382 2.3571 0
M  V30 1974 C 194.138 2.30273 1.93378 0
M  V30 1975 C 195.686 2.35412 2.06277 0
M  V30 1976 C 196.161 3.59692 2.83524 0
M  V30 1977 N 197.652 3.60309 2.91087 0
M  V30 1978 C 198.387 4.53147 3.51348 0
M  V30 1979 N 197.883 5.563 4.12919 0
M  V30 1980 N 199.676 4.40751 3.48849 0
M  V30 1981 H 191.827 2.09024 0.377184 0
M  V30 1982 H 194.09 0.919798 0.22951 0
M  V30 1983 H 193.796 3.22055 1.41328 0
M  V30 1984 H 193.67 2.36378 2.93947 0
M  V30 1985 H 196.057 1.4413 2.57508 0
M  V30 1986 H 196.138 2.33304 1.04895 0
M  V30 1987 H 195.782 4.51316 2.32973 0
M  V30 1988 H 195.712 3.59054 3.85211 0
M  V30 1989 H 198.203 2.85714 2.47338 0
M  V30 1990 H 198.516 6.2329 4.56869 0
M  V30 1991 H 196.861 5.60131 4.11435 0
M  V30 1992 H 200.052 3.59367 2.99955 0
M  V30 1993 H 200.225 5.13291 3.9552 0
M  V30 1994 N 193.631 -1.12557 1.10312 0
M  V30 1995 C 194.541 -2.21841 0.763142 0
M  V30 1996 C 195.557 -1.72354 -0.238801 0
M  V30 1997 O 196.733 -2.01249 -0.0778746 0
M  V30 1998 C 193.798 -3.46131 0.198632 0
M  V30 1999 C 192.859 -4.10464 1.25769 0
M  V30 2000 C 192.092 -5.28821 0.72002 0
M  V30 2001 O 192.315 -5.6859 -0.453993 0
M  V30 2002 O 191.249 -5.83437 1.47935 0
M  V30 2003 H 195.075 -2.53312 1.67532 0
M  V30 2004 H 192.66 -1.20867 0.878157 0
M  V30 2005 H 194.542 -4.2125 -0.112401 0
M  V30 2006 H 193.217 -3.16338 -0.686419 0
M  V30 2007 H 192.124 -3.3713 1.62156 0
M  V30 2008 H 193.457 -4.44408 2.11571 0
M  V30 2009 N 195.109 -0.891671 -1.2995 0
M  V30 2010 C 196.349 -0.520296 -1.97667 0
M  V30 2011 C 196.713 0.914797 -1.68806 0
M  V30 2012 O 197.914 1.39263 -2.29911 0
M  V30 2013 C 196.185 -0.795222 -3.48441 0
M  V30 2014 S 197.744 -0.526953 -4.35624 0
M  V30 2015 H 194.562 -0.19333 -0.684211 0
M  V30 2016 H 197.164 -1.15238 -1.57926 0
M  V30 2017 H 195.868 -1.83805 -3.66938 0
M  V30 2018 H 195.399 -0.15095 -3.9311 0
M  V30 2019 H 197.414 0.631533 -4.92165 0
M  V30 2020 N 196.587 1.43421 -0.653314 0
M  V30 2021 C 197.836 2.01032 -0.164076 0
M  V30 2022 C 198.149 1.52147 1.22926 0
M  V30 2023 O 199.355 2.02031 1.81371 0
M  V30 2024 C 197.811 3.59082 -0.24252 0
M  V30 2025 C 197.419 4.1696 -1.63855 0
M  V30 2026 C 199.163 4.24079 0.18911 0
M  V30 2027 C 197.07 5.67304 -1.67092 0
M  V30 2028 H 196 0.751798 -0.0575769 0
M  V30 2029 H 198.651 1.6439 -0.815362 0
M  V30 2030 H 197.033 3.93125 0.476276 0
M  V30 2031 H 198.207 3.94416 -2.38271 0
M  V30 2032 H 196.522 3.64335 -2.01616 0
M  V30 2033 H 199.119 5.34381 0.184775 0
M  V30 2034 H 199.462 3.98005 1.22056 0
M  V30 2035 H 199.995 3.94918 -0.477938 0
M  V30 2036 H 196.734 5.98145 -2.68146 0
M  V30 2037 H 196.254 5.91904 -0.970014 0
M  V30 2038 H 197.933 6.31344 -1.4147 0
M  V30 2039 N 198.065 0.39524 1.52563 0
M  V30 2040 C 199.013 -0.451859 2.28169 0
M  V30 2041 C 200.007 -1.05792 1.32304 0
M  V30 2042 O 201.213 -0.997718 1.49818 0
M  V30 2043 H 197.588 -0.164481 0.733792 0
M  V30 2044 H 199.559 0.207199 2.9768 0
M  V30 2045 C 198.308 -1.56385 3.10546 0
M  V30 2046 H 197.631 -1.10682 3.84174 0
M  V30 2047 H 199.071 -2.13067 3.66577 0
M  V30 2048 C 197.53 -2.52328 2.23231 0
M  V30 2049 O 198.06 -3.5588 1.86312 0
M  V30 2050 N 196.266 -2.22209 1.87274 0
M  V30 2051 H 195.813 -1.38033 2.17496 0
M  V30 2052 H 195.771 -2.86652 1.29143 0
M  V30 2053 N 199.544 -1.57102 0.125237 0
M  V30 2054 C 200.474 -2.18659 -0.819174 0
M  V30 2055 C 201.455 -1.12843 -1.27281 0
M  V30 2056 O 202.64 -1.41104 -1.33429 0
M  V30 2057 C 199.77 -2.79096 -2.06695 0
M  V30 2058 C 198.724 -3.90548 -1.75088 0
M  V30 2059 C 198.05 -4.37821 -3.06948 0
M  V30 2060 C 199.35 -5.12356 -1.01435 0
M  V30 2061 H 201.044 -2.9783 -0.306202 0
M  V30 2062 H 198.59 -1.4326 -0.145839 0
M  V30 2063 H 200.543 -3.2082 -2.73226 0
M  V30 2064 H 199.267 -1.97223 -2.60328 0
M  V30 2065 H 197.926 -3.49409 -1.10944 0
M  V30 2066 H 197.574 -3.52799 -3.58527 0
M  V30 2067 H 197.274 -5.12982 -2.86571 0
M  V30 2068 H 198.798 -4.822 -3.74587 0
M  V30 2069 H 200.212 -5.5106 -1.58132 0
M  V30 2070 H 198.609 -5.9314 -0.911319 0
M  V30 2071 H 199.679 -4.849 -0.00218681 0
M  V30 2072 N 201.022 0.148545 -1.56898 0
M  V30 2073 C 202.27 0.859717 -1.82902 0
M  V30 2074 C 202.591 1.81775 -0.70588 0
M  V30 2075 O 201.861 1.93994 0.272586 0
M  V30 2076 H 200.441 0.320469 -0.674766 0
M  V30 2077 H 203.103 0.142918 -1.94375 0
M  V30 2078 H 202.199 1.4229 -2.77777 0
M  V30 2079 N 202.5 1.5196 0.417844 0
M  V30 2080 C 203.74 1.67262 1.17486 0
M  V30 2081 C 204.104 0.38983 1.88001 0
M  V30 2082 O 205.305 0.418845 2.65517 0
M  V30 2083 C 203.576 2.85526 2.14965 0
M  V30 2084 S 205.135 3.21263 2.98891 0
M  V30 2085 H 201.953 0.589077 0.398132 0
M  V30 2086 H 204.555 1.89927 0.463452 0
M  V30 2087 H 203.259 3.77145 1.61833 0
M  V30 2088 H 202.79 2.65107 2.90657 0
M  V30 2089 H 204.805 2.69208 4.16823 0
M  V30 2090 N 203.978 -0.674533 1.42435 0
M  V30 2091 C 205.255 -1.4305 1.33402 0
M  V30 2092 C 205.635 -2.11081 -0.0284674 0
M  V30 2093 O 204.983 -2.03257 -1.04397 0
M  V30 2094 C 205.193 -2.43272 2.50239 0
M  V30 2095 C 206.541 -3.07907 2.92367 0
M  V30 2096 O 207.565 -2.53599 2.50132 0
M  V30 2097 O 206.424 -4.0632 3.65467 0
M  V30 2098 H 203.518 -0.638076 0.526106 0
M  V30 2099 H 206.064 -0.703235 1.54443 0
M  V30 2100 H 204.836 -1.91803 3.41068 0
M  V30 2101 H 204.459 -3.23479 2.31186 0
M  V30 2102 N 205.456 -1.28612 -0.910864 0
M  V30 2103 C 206.702 -1.16106 -1.66274 0
M  V30 2104 C 207.035 0.289113 -1.92036 0
M  V30 2105 O 206.31 1.21 -1.52281 0
M  V30 2106 C 206.593 -1.96309 -3.01885 0
M  V30 2107 C 206.446 -3.49405 -2.8326 0
M  V30 2108 C 207.765 -1.78076 -4.02463 0
M  V30 2109 H 204.884 -0.423152 -0.603417 0
M  V30 2110 H 207.526 -1.57961 -1.05586 0
M  V30 2111 H 205.676 -1.60742 -3.53687 0
M  V30 2112 H 207.348 -3.94894 -2.38446 0
M  V30 2113 H 205.591 -3.74893 -2.18261 0
M  V30 2114 H 206.262 -4.00784 -3.79574 0
M  V30 2115 H 208.738 -2.0912 -3.59733 0
M  V30 2116 H 207.614 -2.36561 -4.95308 0
M  V30 2117 H 207.875 -0.733008 -4.35981 0
M  V30 2118 N 206.934 1.1197 -1.10907 0
M  V30 2119 C 208.211 1.79959 -0.766432 0
M  V30 2120 C 208.591 1.97466 0.746363 0
M  V30 2121 O 207.939 1.55491 1.67436 0
M  V30 2122 C 208.149 3.14009 -1.52314 0
M  V30 2123 C 209.497 3.89134 -1.69883 0
M  V30 2124 O 210.521 3.2368 -1.48692 0
M  V30 2125 O 209.38 5.06572 -2.05054 0
M  V30 2126 H 206.474 0.779208 -0.277062 0
M  V30 2127 H 209.02 1.18762 -1.21217 0
M  V30 2128 H 207.792 2.96587 -2.55249 0
M  V30 2129 H 207.415 3.82915 -1.07059 0
M  V30 2130 N 208.412 0.89855 1.29475 0
M  V30 2131 C 209.659 0.523882 1.95606 0
M  V30 2132 C 209.987 -0.929608 1.70847 0
M  V30 2133 O 209.242 -1.67401 1.01367 0
M  V30 2134 C 209.541 0.761398 3.49195 0
M  V30 2135 C 209.207 2.19207 3.94029 0
M  V30 2136 C 207.869 2.58326 4.05982 0
M  V30 2137 C 210.221 3.12379 4.17216 0
M  V30 2138 C 207.549 3.898 4.38489 0
M  V30 2139 C 209.901 4.43401 4.51197 0
M  V30 2140 C 208.565 4.82394 4.61359 0
M  V30 2141 H 207.835 0.191702 0.715773 0
M  V30 2142 H 210.482 1.13699 1.54094 0
M  V30 2143 H 208.787 0.0653622 3.91745 0
M  V30 2144 H 210.484 0.450904 3.98457 0
M  V30 2145 H 207.074 1.87846 3.85242 0
M  V30 2146 H 211.258 2.83371 4.07449 0
M  V30 2147 H 206.514 4.19734 4.44559 0
M  V30 2148 H 210.688 5.15623 4.68087 0
M  V30 2149 H 208.315 5.84306 4.86303 0
M  V30 2150 N 209.89 -1.43072 0.660911 0
M  V30 2151 C 211.167 -1.95307 0.107017 0
M  V30 2152 C 211.547 -1.60192 -1.37484 0
M  V30 2153 O 210.895 -0.890949 -2.10415 0
M  V30 2154 C 211.105 -3.47124 0.361402 0
M  V30 2155 C 212.453 -4.23738 0.270455 0
M  V30 2156 O 213.477 -3.54981 0.294382 0
M  V30 2157 O 212.336 -5.46131 0.200737 0
M  V30 2158 H 209.43 -0.826984 -0.00517729 0
M  V30 2159 H 211.976 -1.52972 0.734681 0
M  V30 2160 H 210.748 -3.65837 1.38848 0
M  V30 2161 H 210.371 -3.96475 -0.298953 0
M  V30 2162 N 211.368 -0.403325 -1.52352 0
M  V30 2163 C 212.615 0.174347 -2.01748 0
M  V30 2164 C 212.943 1.45636 -1.2892 0
M  V30 2165 O 212.198 1.9193 -0.382258 0
M  V30 2166 C 212.497 0.474665 -3.54234 0
M  V30 2167 C 212.163 -0.717458 -4.45155 0
M  V30 2168 C 210.825 -1.04447 -4.69728 0
M  V30 2169 C 213.177 -1.51432 -4.98716 0
M  V30 2170 C 210.505 -2.16963 -5.45109 0
M  V30 2171 C 212.857 -2.6302 -5.75329 0
M  V30 2172 C 211.521 -2.96213 -5.98175 0
M  V30 2173 H 210.791 0.0637981 -0.738248 0
M  V30 2174 H 213.438 -0.543553 -1.83624 0
M  V30 2175 H 211.743 1.27406 -3.70506 0
M  V30 2176 H 213.44 0.934496 -3.89959 0
M  V30 2177 H 210.03 -0.452596 -4.26204 0
M  V30 2178 H 214.214 -1.27491 -4.79645 0
M  V30 2179 H 209.47 -2.43034 -5.61021 0
M  V30 2180 H 213.644 -3.25158 -6.15829 0
M  V30 2181 H 211.271 -3.83516 -6.56368 0
M  V30 2182 N 212.846 1.57033 -0.133567 0
M  V30 2183 C 213.809 2.14897 0.796995 0
M  V30 2184 C 214.809 1.0874 1.18458 0
M  V30 2185 O 215.999 1.34446 1.1077 0
M  V30 2186 C 213.131 2.70112 2.07973 0
M  V30 2187 H 214.324 2.98457 0.293873 0
M  V30 2188 H 211.877 1.55871 0.115787 0
M  V30 2189 H 212.612 1.9018 2.62682 0
M  V30 2190 H 212.397 3.47764 1.81115 0
M  V30 2191 H 213.887 3.14738 2.74462 0
M  V30 2192 N 214.325 -0.140222 1.56975 0
M  V30 2193 C 215.573 -0.850005 1.83356 0
M  V30 2194 C 215.894 -1.81399 0.71551 0
M  V30 2195 O 215.164 -1.94136 -0.262294 0
M  V30 2196 H 213.744 -0.316886 0.676456 0
M  V30 2197 H 216.406 -0.132608 1.94448 0
M  V30 2198 H 215.502 -1.40814 2.78528 0
M  V30 2199 N 215.803 -1.52179 -0.40978 0
M  V30 2200 C 217.214 -1.58377 -0.988615 0
M  V30 2201 C 217.565 -0.423879 -1.91566 0
M  V30 2202 O 216.69 0.455844 -2.11544 0
M  V30 2203 C 217.285 -2.87044 -1.79976 0
M  V30 2204 C 215.844 -2.95722 -2.32863 0
M  V30 2205 C 214.991 -2.53309 -1.12828 0
M  V30 2206 H 217.942 -1.57558 -0.190039 0
M  V30 2207 H 217.963 -2.7236 -2.65707 0
M  V30 2208 H 217.475 -3.71444 -1.12478 0
M  V30 2209 H 215.576 -2.15814 -3.03735 0
M  V30 2210 H 215.689 -3.99951 -2.63773 0
M  V30 2211 H 214.053 -2.07142 -1.48204 0
M  V30 2212 H 214.836 -3.40082 -0.46897 0
M  V30 2213 N 217.281 0.66697 -1.42791 0
M  V30 2214 C 218.244 1.76211 -1.46568 0
M  V30 2215 C 219.244 1.56896 -0.352196 0
M  V30 2216 O 220.434 1.63044 -0.613364 0
M  V30 2217 C 217.566 3.14935 -1.30494 0
M  V30 2218 H 218.759 1.74247 -2.44086 0
M  V30 2219 H 216.312 0.877342 -1.29354 0
M  V30 2220 H 217.047 3.2252 -0.339301 0
M  V30 2221 H 216.832 3.30359 -2.11199 0
M  V30 2222 H 218.322 3.94821 -1.36038 0
M  V30 2223 N 218.759 1.29093 0.90403 0
M  V30 2224 C 220.008 1.16187 1.64874 0
M  V30 2225 C 220.321 -0.286742 1.93487 0
M  V30 2226 O 221.527 -0.537062 2.66135 0
M  V30 2227 C 219.983 2.03177 2.97064 0
M  V30 2228 C 219.591 3.52836 2.76062 0
M  V30 2229 C 221.335 1.98984 3.74974 0
M  V30 2230 C 219.242 4.31945 4.03952 0
M  V30 2231 H 218.172 0.431246 0.618501 0
M  V30 2232 H 220.823 1.53699 1.00243 0
M  V30 2233 H 219.205 1.5853 3.62883 0
M  V30 2234 H 220.379 4.05507 2.18863 0
M  V30 2235 H 218.694 3.58656 2.11553 0
M  V30 2236 H 221.291 2.55351 4.69787 0
M  V30 2237 H 221.634 0.968815 4.0487 0
M  V30 2238 H 222.167 2.41652 3.15989 0
M  V30 2239 H 218.906 5.34667 3.79225 0
M  V30 2240 H 218.426 3.84045 4.60727 0
M  V30 2241 H 220.105 4.42379 4.72133 0
M  V30 2242 N 220.237 -1.11381 1.11499 0
M  V30 2243 C 221.187 -2.15555 0.74298 0
M  V30 2244 C 222.171 -1.58894 -0.253276 0
M  V30 2245 O 223.363 -1.76897 -0.0602918 0
M  V30 2246 C 220.492 -3.42782 0.188481 0
M  V30 2247 C 219.578 -4.064 1.21244 0
M  V30 2248 N 219.969 -4.44864 2.40685 0
M  V30 2249 C 218.267 -4.3333 1.05552 0
M  V30 2250 C 218.968 -4.94715 3.05994 0
M  V30 2251 N 217.944 -4.90909 2.33472 0
M  V30 2252 H 221.746 -2.43074 1.65203 0
M  V30 2253 H 219.26 -1.28401 0.994329 0
M  V30 2254 H 221.257 -4.16789 -0.0961693 0
M  V30 2255 H 219.917 -3.16727 -0.715149 0
M  V30 2256 H 220.928 -4.36876 2.78136 0
M  V30 2257 H 217.605 -4.1698 0.208372 0
M  V30 2258 H 218.995 -5.34103 4.07656 0
M  V30 2259 N 221.715 -0.905404 -1.28997 0
M  V30 2260 C 222.963 -0.533192 -1.9494 0
M  V30 2261 C 223.284 0.924618 -1.71685 0
M  V30 2262 O 222.554 1.65268 -1.05183 0
M  V30 2263 H 221.134 -0.194194 -0.721317 0
M  V30 2264 H 223.796 -1.15294 -1.57141 0
M  V30 2265 H 222.892 -0.72059 -3.03667 0
M  V30 2266 N 223.193 1.4272 -0.668489 0
M  V30 2267 C 224.418 2.06484 -0.194758 0
M  V30 2268 C 224.843 1.49862 1.13679 0
M  V30 2269 O 224.201 0.614582 1.70565 0
M  V30 2270 C 224.249 3.60353 -0.133546 0
M  V30 2271 O 223.353 4.02464 0.899806 0
M  V30 2272 H 222.694 0.656137 -0.10188 0
M  V30 2273 H 225.224 1.82964 -0.915722 0
M  V30 2274 H 225.234 4.07976 0.0447041 0
M  V30 2275 H 223.909 4.00938 -1.1055 0
M  V30 2276 H 222.486 3.66402 0.693109 0
M  V30 2277 N 224.671 0.411399 1.52136 0
M  V30 2278 C 225.634 -0.401089 2.25663 0
M  V30 2279 C 226.634 -0.971732 1.28117 0
M  V30 2280 O 227.824 -0.850254 1.52041 0
M  V30 2281 C 224.956 -1.56483 3.02863 0
M  V30 2282 H 226.149 0.24295 2.98914 0
M  V30 2283 H 223.702 0.163968 1.55438 0
M  V30 2284 H 224.437 -2.24567 2.33967 0
M  V30 2285 H 224.222 -1.16211 3.74483 0
M  V30 2286 H 225.712 -2.13951 3.58629 0
M  V30 2287 N 226.149 -1.5696 0.141893 0
M  V30 2288 C 227.395 -1.9625 -0.511248 0
M  V30 2289 C 227.728 -1.02654 -1.64851 0
M  V30 2290 O 227.003 -0.0679676 -1.94381 0
M  V30 2291 C 227.286 -3.45285 -1.02227 0
M  V30 2292 C 227.139 -4.49658 0.113138 0
M  V30 2293 C 228.458 -3.96698 -1.90574 0
M  V30 2294 H 225.577 -0.713567 -0.184367 0
M  V30 2295 H 228.219 -1.88698 0.222087 0
M  V30 2296 H 226.369 -3.51852 -1.64719 0
M  V30 2297 H 228.041 -4.55174 0.749302 0
M  V30 2298 H 226.284 -4.26857 0.773026 0
M  V30 2299 H 226.955 -5.51258 -0.286053 0
M  V30 2300 H 229.431 -3.92578 -1.37918 0
M  V30 2301 H 228.307 -5.01453 -2.2324 0
M  V30 2302 H 228.568 -3.3875 -2.84079 0
M  V30 2303 N 227.627 0.131896 -1.57047 0
M  V30 2304 C 228.874 0.841932 -1.84168 0
M  V30 2305 C 229.202 1.8048 -0.725066 0
M  V30 2306 O 228.457 1.93618 0.284692 0
M  V30 2307 C 228.756 1.63703 -3.17704 0
M  V30 2308 C 228.422 0.81961 -4.43388 0
M  V30 2309 C 227.084 0.594148 -4.77518 0
M  V30 2310 C 229.436 0.248977 -5.20605 0
M  V30 2311 C 226.764 -0.212409 -5.86315 0
M  V30 2312 C 229.116 -0.544701 -6.30251 0
M  V30 2313 C 227.78 -0.780599 -6.6292 0
M  V30 2314 H 227.05 0.308085 -0.673917 0
M  V30 2315 H 229.697 0.104867 -1.91213 0
M  V30 2316 H 228.002 2.44464 -3.06177 0
M  V30 2317 H 229.699 2.19015 -3.35907 0
M  V30 2318 H 226.289 1.00542 -4.16641 0
M  V30 2319 H 230.473 0.410408 -4.946 0
M  V30 2320 H 225.729 -0.404524 -6.1006 0
M  V30 2321 H 229.903 -0.993922 -6.89271 0
M  V30 2322 H 227.53 -1.40742 -7.47058 0
M  V30 2323 N 229.106 1.52395 0.401703 0
M  V30 2324 C 230.354 1.66488 1.14569 0
M  V30 2325 C 230.675 0.400897 1.90835 0
M  V30 2326 O 229.945 -0.584415 1.8698 0
M  V30 2327 H 228.525 0.613672 0.425929 0
M  V30 2328 H 231.187 1.89464 0.457093 0
M  V30 2329 H 230.283 2.50942 1.85566 0
M  V30 2330 N 230.584 -0.659388 1.43143 0
M  V30 2331 C 231.814 -1.44513 1.47646 0
M  V30 2332 C 232.222 -1.88981 0.0910095 0
M  V30 2333 O 231.565 -1.59702 -0.907789 0
M  V30 2334 C 231.627 -2.71663 2.35456 0
M  V30 2335 C 231.291 -2.49175 3.83094 0
M  V30 2336 C 232.288 -2.1279 4.74359 0
M  V30 2337 C 229.973 -2.63691 4.27519 0
M  V30 2338 C 231.967 -1.9121 6.08044 0
M  V30 2339 C 229.654 -2.41726 5.61259 0
M  V30 2340 C 230.652 -2.0554 6.51339 0
M  V30 2341 O 230.34 -1.838 7.82606 0
M  V30 2342 H 230.072 -0.45064 0.503884 0
M  V30 2343 H 232.626 -0.816248 1.88485 0
M  V30 2344 H 230.856 -3.37089 1.89493 0
M  V30 2345 H 232.545 -3.33595 2.31235 0
M  V30 2346 H 233.311 -2.01157 4.41317 0
M  V30 2347 H 229.19 -2.90832 3.57684 0
M  V30 2348 H 232.734 -1.62889 6.78316 0
M  V30 2349 H 228.631 -2.52959 5.9387 0
M  V30 2350 H 229.399 -1.98275 7.94122 0
M  V30 2351 N 232.062 -1.29571 -0.897171 0
M  V30 2352 C 232.972 -1.16808 -2.03453 0
M  V30 2353 C 233.988 -0.0907471 -1.73763 0
M  V30 2354 O 235.164 -0.303312 -1.99103 0
M  V30 2355 C 232.229 -0.848264 -3.36163 0
M  V30 2356 C 231.29 -2.0097 -3.79354 0
M  V30 2357 C 230.523 -1.70505 -5.05731 0
M  V30 2358 O 230.746 -0.62718 -5.66941 0
M  V30 2359 O 229.68 -2.5538 -5.45036 0
M  V30 2360 H 233.506 -2.12325 -2.17144 0
M  V30 2361 H 231.091 -1.09047 -1.02123 0
M  V30 2362 H 232.973 -0.684581 -4.15802 0
M  V30 2363 H 231.648 0.0771071 -3.23608 0
M  V30 2364 H 230.555 -2.22863 -3.00471 0
M  V30 2365 H 231.888 -2.91636 -3.96496 0
M  V30 2366 N 233.54 1.10788 -1.12088 0
M  V30 2367 C 234.788 1.8231 -0.872205 0
M  V30 2368 C 235.109 1.85419 0.603709 0
M  V30 2369 O 234.379 1.32963 1.43867 0
M  V30 2370 H 232.959 0.675137 -0.319686 0
M  V30 2371 H 235.621 1.34068 -1.41463 0
M  V30 2372 H 234.717 2.85955 -1.25045 0
M  V30 2373 N 235.018 0.912232 1.28515 0
M  V30 2374 C 236.264 0.554851 1.95686 0
M  V30 2375 C 236.619 -0.89138 1.70506 0
M  V30 2376 O 235.912 -1.62529 1.01464 0
M  V30 2377 C 236.106 0.798392 3.48368 0
M  V30 2378 C 235.935 2.26674 3.88393 0
M  V30 2379 C 234.705 2.91657 4.12631 0
M  V30 2380 C 236.903 3.24303 3.99164 0
M  V30 2381 N 234.885 4.28805 4.39317 0
M  V30 2382 C 236.256 4.4661 4.30046 0
M  V30 2383 C 238.311 3.19723 3.81683 0
M  V30 2384 C 237.014 5.64915 4.45268 0
M  V30 2385 C 239.04 4.37325 3.98121 0
M  V30 2386 C 238.402 5.58406 4.29375 0
M  V30 2387 H 234.501 0.252876 0.739985 0
M  V30 2388 H 237.085 1.17565 1.55199 0
M  V30 2389 H 235.256 0.20688 3.87849 0
M  V30 2390 H 236.988 0.405193 4.02666 0
M  V30 2391 H 233.743 2.42393 4.06869 0
M  V30 2392 H 234.167 4.99712 4.56746 0
M  V30 2393 H 238.809 2.27191 3.56573 0
M  V30 2394 H 236.527 6.57927 4.6921 0
M  V30 2395 H 240.113 4.35282 3.86033 0
M  V30 2396 H 238.993 6.47889 4.41825 0
M  V30 2397 N 236.496 -1.42363 0.676048 0
M  V30 2398 C 237.426 -2.33497 0.0124832 0
M  V30 2399 C 238.407 -1.50748 -0.787981 0
M  V30 2400 O 239.592 -1.79346 -0.744884 0
M  V30 2401 C 236.722 -3.34377 -0.938582 0
M  V30 2402 C 235.676 -4.27289 -0.246622 0
M  V30 2403 C 235.002 -5.18386 -1.31071 0
M  V30 2404 C 236.302 -5.14916 0.875125 0
M  V30 2405 H 237.996 -2.89233 0.773593 0
M  V30 2406 H 235.542 -1.39073 0.37346 0
M  V30 2407 H 237.495 -3.97044 -1.41188 0
M  V30 2408 H 236.219 -2.76947 -1.73113 0
M  V30 2409 H 234.878 -3.66018 0.206456 0
M  V30 2410 H 234.526 -4.57282 -2.09528 0
M  V30 2411 H 234.226 -5.81378 -0.852839 0
M  V30 2412 H 235.75 -5.83929 -1.78492 0
M  V30 2413 H 237.164 -5.71262 0.482983 0
M  V30 2414 H 235.561 -5.86747 1.25887 0
M  V30 2415 H 236.631 -4.53242 1.72335 0
M  V30 2416 N 237.974 -0.419461 -1.51915 0
M  V30 2417 C 238.937 0.389116 -2.25873 0
M  V30 2418 C 239.937 0.964924 -1.28631 0
M  V30 2419 O 241.127 0.842179 -1.52489 0
M  V30 2420 C 238.259 1.54874 -3.03689 0
M  V30 2421 H 239.452 -0.258799 -2.98781 0
M  V30 2422 H 237.005 -0.172209 -1.55348 0
M  V30 2423 H 237.74 2.23323 -2.35154 0
M  V30 2424 H 237.525 1.14223 -3.75094 0
M  V30 2425 H 239.015 2.12046 -3.59759 0
M  V30 2426 N 239.452 1.56882 -0.150215 0
M  V30 2427 C 240.7 1.9584 0.499105 0
M  V30 2428 C 241.021 1.03623 1.65188 0
M  V30 2429 O 240.291 0.0984084 1.95653 0
M  V30 2430 H 238.871 0.723119 0.187373 0
M  V30 2431 H 241.533 1.9358 -0.226466 0
M  V30 2432 H 240.629 2.99638 0.873122 0
M  V30 2433 N 240.93 -0.123565 1.57115 0
M  V30 2434 C 242.16 -0.845233 1.88519 0
M  V30 2435 C 242.568 -1.74168 0.739064 0
M  V30 2436 O 241.911 -1.81244 -0.299355 0
M  V30 2437 C 241.973 -1.73452 3.14888 0
M  V30 2438 C 241.637 -1.01285 4.45635 0
M  V30 2439 C 242.634 -0.355774 5.18681 0
M  V30 2440 C 240.319 -0.99538 4.92339 0
M  V30 2441 C 242.313 0.309114 6.3665 0
M  V30 2442 C 240 -0.32669 6.10226 0
M  V30 2443 C 240.998 0.324406 6.82229 0
M  V30 2444 O 240.686 0.982437 7.97874 0
M  V30 2445 H 240.418 -0.248534 0.628655 0
M  V30 2446 H 242.972 -0.113907 2.05084 0
M  V30 2447 H 241.202 -2.50737 2.94394 0
M  V30 2448 H 242.891 -2.33021 3.32349 0
M  V30 2449 H 243.657 -0.360918 4.83655 0
M  V30 2450 H 239.536 -1.49159 4.36202 0
M  V30 2451 H 243.08 0.8179 6.92789 0
M  V30 2452 H 238.977 -0.319294 6.4471 0
M  V30 2453 H 239.745 0.886454 8.13686 0
M  V30 2454 N 242.408 -1.52605 -0.393616 0
M  V30 2455 C 243.34 -1.73303 -1.49995 0
M  V30 2456 C 244.353 -0.613473 -1.50799 0
M  V30 2457 O 245.542 -0.889049 -1.54784 0
M  V30 2458 C 242.642 -1.77245 -2.88855 0
M  V30 2459 C 241.815 -3.06483 -3.12069 0
M  V30 2460 C 240.874 -3.02033 -4.30886 0
M  V30 2461 O 239.9 -3.75907 -4.27414 0
M  V30 2462 N 241.102 -2.20897 -5.36828 0
M  V30 2463 H 243.867 -2.68756 -1.32629 0
M  V30 2464 H 241.428 -1.51036 -0.583083 0
M  V30 2465 H 243.42 -1.7178 -3.66434 0
M  V30 2466 H 241.99 -0.891993 -2.99603 0
M  V30 2467 H 241.21 -3.25474 -2.22396 0
M  V30 2468 H 242.498 -3.91947 -3.2443 0
M  V30 2469 H 241.896 -1.60336 -5.42502 0
M  V30 2470 H 240.453 -2.21275 -6.13091 0
M  V30 2471 N 243.887 0.651787 -1.4349 0
M  V30 2472 C 244.82 1.77668 -1.43211 0
M  V30 2473 C 245.798 1.59931 -0.29338 0
M  V30 2474 O 246.982 1.82095 -0.487191 0
M  V30 2475 C 244.109 3.14986 -1.24505 0
M  V30 2476 C 243.155 3.51421 -2.41673 0
M  V30 2477 S 243.988 3.51234 -4.04222 0
M  V30 2478 C 245.144 4.91206 -3.87902 0
M  V30 2479 H 245.377 1.77635 -2.38397 0
M  V30 2480 H 242.91 0.824558 -1.30539 0
M  V30 2481 H 244.868 3.94237 -1.144 0
M  V30 2482 H 243.529 3.1258 -0.308651 0
M  V30 2483 H 242.722 4.51291 -2.24393 0
M  V30 2484 H 242.324 2.79585 -2.48411 0
M  V30 2485 H 244.616 5.79902 -3.50315 0
M  V30 2486 H 245.559 5.13537 -4.8753 0
M  V30 2487 H 245.967 4.64808 -3.20334 0
M  V30 2488 N 245.365 1.30045 0.890287 0
M  V30 2489 C 246.593 1.21472 1.67487 0
M  V30 2490 C 247.008 -0.223241 1.87476 0
M  V30 2491 O 246.365 -1.14828 1.41847 0
M  V30 2492 C 246.416 1.93394 3.05419 0
M  V30 2493 O 246.137 3.31576 2.86337 0
M  V30 2494 C 247.638 1.91414 3.99844 0
M  V30 2495 H 244.858 0.420604 0.522813 0
M  V30 2496 H 247.402 1.7158 1.11268 0
M  V30 2497 H 245.557 1.47099 3.58386 0
M  V30 2498 H 245.971 3.67929 3.73802 0
M  V30 2499 H 247.445 2.46285 4.94012 0
M  V30 2500 H 247.922 0.891833 4.3005 0
M  V30 2501 H 248.528 2.37496 3.52811 0
M  V30 2502 N 246.843 -1.10192 1.12674 0
M  V30 2503 C 248.09 -1.82205 0.883606 0
M  V30 2504 C 248.418 -1.8532 -0.590492 0
M  V30 2505 O 247.673 -1.31137 -1.45264 0
M  V30 2506 C 247.972 -3.28552 1.4067 0
M  V30 2507 C 247.638 -3.45582 2.89627 0
M  V30 2508 C 246.3 -3.49937 3.30299 0
M  V30 2509 C 248.652 -3.50768 3.85501 0
M  V30 2510 C 245.98 -3.57049 4.65546 0
M  V30 2511 C 248.332 -3.59414 5.20581 0
M  V30 2512 C 246.996 -3.62034 5.60792 0
M  V30 2513 H 246.266 -0.666735 0.323334 0
M  V30 2514 H 248.913 -1.29868 1.40736 0
M  V30 2515 H 247.218 -3.83473 0.80347 0
M  V30 2516 H 248.915 -3.82788 1.19475 0
M  V30 2517 H 245.505 -3.42871 2.57172 0
M  V30 2518 H 249.689 -3.46651 3.55171 0
M  V30 2519 H 244.945 -3.57361 4.96088 0
M  V30 2520 H 249.119 -3.62371 5.94693 0
M  V30 2521 H 246.746 -3.67298 6.6558 0
M  V30 2522 N 248.321 -0.919034 -1.28029 0
M  V30 2523 C 249.598 -0.473668 -1.89778 0
M  V30 2524 C 249.978 1.04783 -1.83259 0
M  V30 2525 O 249.326 1.8982 -1.27202 0
M  V30 2526 C 249.536 -1.00998 -3.34066 0
M  V30 2527 C 250.884 -1.06525 -4.1102 0
M  V30 2528 O 251.908 -0.958996 -3.43048 0
M  V30 2529 O 250.767 -1.22776 -5.3253 0
M  V30 2530 H 247.861 -0.15098 -0.813101 0
M  V30 2531 H 250.407 -1.01016 -1.36359 0
M  V30 2532 H 249.179 -2.05392 -3.33061 0
M  V30 2533 H 248.802 -0.454626 -3.94992 0
M  V30 2534 N 249.799 1.42003 -0.683588 0
M  V30 2535 C 251.024 2.06265 -0.216647 0
M  V30 2536 C 251.449 1.51059 1.12083 0
M  V30 2537 O 250.807 0.632638 1.69904 0
M  V30 2538 C 250.855 3.60191 -0.171759 0
M  V30 2539 O 249.959 4.03396 0.857069 0
M  V30 2540 H 249.3 0.65502 -0.108834 0
M  V30 2541 H 251.83 1.81982 -0.935077 0
M  V30 2542 H 251.84 4.08 0.0014303 0
M  V30 2543 H 250.515 3.99743 -1.14796 0
M  V30 2544 H 249.092 3.67117 0.654208 0
M  V30 2545 N 251.277 0.427512 1.51691 0
M  V30 2546 C 252.24 -0.377132 2.26076 0
M  V30 2547 C 253.24 -0.958089 1.29141 0
M  V30 2548 O 254.43 -0.83408 1.52934 0
M  V30 2549 C 251.562 -1.53262 3.04506 0
M  V30 2550 H 252.755 0.27464 2.9864 0
M  V30 2551 H 250.308 0.180445 1.55255 0
M  V30 2552 H 251.043 -2.22072 2.36335 0
M  V30 2553 H 250.828 -1.12232 3.75694 0
M  V30 2554 H 252.318 -2.10135 3.60878 0
M  V30 2555 N 252.755 -1.56801 0.158532 0
M  V30 2556 C 253.702 -2.17337 -0.776729 0
M  V30 2557 C 254.672 -1.1096 -1.23601 0
M  V30 2558 O 255.857 -1.39054 -1.30647 0
M  V30 2559 C 252.997 -2.80822 -2.00582 0
M  V30 2560 C 252.11 -4.01624 -1.59129 0
M  V30 2561 C 251.245 -4.53072 -2.77306 0
M  V30 2562 C 250.284 -5.66314 -2.32282 0
M  V30 2563 N 249.421 -6.12329 -3.43508 0
M  V30 2564 H 254.261 -2.96918 -0.253701 0
M  V30 2565 H 251.798 -1.46661 -0.113504 0
M  V30 2566 H 253.756 -3.15779 -2.72652 0
M  V30 2567 H 252.386 -2.03866 -2.50277 0
M  V30 2568 H 251.438 -3.72571 -0.767806 0
M  V30 2569 H 252.75 -4.83633 -1.2207 0
M  V30 2570 H 251.904 -4.90145 -3.57551 0
M  V30 2571 H 250.643 -3.70095 -3.17617 0
M  V30 2572 H 249.648 -5.28806 -1.5048 0
M  V30 2573 H 250.873 -6.51085 -1.93043 0
M  V30 2574 H 248.819 -5.32284 -3.83418 0
M  V30 2575 H 248.736 -6.89293 -3.105 0
M  V30 2576 H 250.004 -6.5405 -4.24075 0
M  V30 2577 N 254.233 0.115231 -1.57178 0
M  V30 2578 C 255.458 0.840354 -1.89612 0
M  V30 2579 C 255.883 1.72464 -0.750845 0
M  V30 2580 O 255.241 1.78826 0.298478 0
M  V30 2581 C 255.289 1.64654 -3.20814 0
M  V30 2582 O 254.393 2.7538 -3.06985 0
M  V30 2583 H 253.734 0.232158 -0.622092 0
M  V30 2584 H 256.264 0.0964977 -2.04372 0
M  V30 2585 H 256.274 2.03499 -3.53627 0
M  V30 2586 H 254.949 0.997416 -4.03763 0
M  V30 2587 H 253.526 2.3971 -2.85646 0
M  V30 2588 N 255.711 1.52812 0.385517 0
M  V30 2589 C 256.658 1.77838 1.47113 0
M  V30 2590 C 257.628 0.621757 1.54024 0
M  V30 2591 O 258.813 0.861846 1.70226 0
M  V30 2592 C 255.953 1.95618 2.84302 0
M  V30 2593 C 255.066 3.23316 2.86515 0
M  V30 2594 C 254.201 3.31394 4.15152 0
M  V30 2595 C 253.24 4.53201 4.1143 0
M  V30 2596 N 252.377 4.58542 5.3168 0
M  V30 2597 H 257.217 2.70482 1.25073 0
M  V30 2598 H 254.754 1.34006 0.606692 0
M  V30 2599 H 256.712 2.03912 3.63972 0
M  V30 2600 H 255.342 1.06331 3.04784 0
M  V30 2601 H 254.394 3.24076 1.99195 0
M  V30 2602 H 255.706 4.13045 2.79634 0
M  V30 2603 H 254.86 3.3889 5.03228 0
M  V30 2604 H 253.599 2.39645 4.24761 0
M  V30 2605 H 252.604 4.45827 3.21742 0
M  V30 2606 H 253.829 5.46271 4.03442 0
M  V30 2607 H 251.775 3.69686 5.41912 0
M  V30 2608 H 251.692 5.42148 5.26889 0
M  V30 2609 H 252.96 4.70296 6.21644 0
M  V30 2610 N 257.189 -0.644168 1.43834 0
M  V30 2611 C 258.119 -1.76814 1.52509 0
M  V30 2612 C 259.1 -1.65823 0.379052 0
M  V30 2613 O 260.285 -1.84781 0.597466 0
M  V30 2614 C 257.415 -3.15288 1.4564 0
M  V30 2615 C 256.369 -3.41053 2.58586 0
M  V30 2616 C 255.695 -4.79421 2.36769 0
M  V30 2617 C 256.995 -3.34902 4.00797 0
M  V30 2618 H 258.689 -1.69812 2.46586 0
M  V30 2619 H 256.235 -0.815542 1.1868 0
M  V30 2620 H 258.188 -3.93681 1.50311 0
M  V30 2621 H 256.912 -3.23043 0.480725 0
M  V30 2622 H 255.571 -2.65035 2.53282 0
M  V30 2623 H 255.219 -4.83863 1.37424 0
M  V30 2624 H 254.919 -4.9762 3.12487 0
M  V30 2625 H 256.443 -5.6006 2.43238 0
M  V30 2626 H 257.857 -4.03218 4.07539 0
M  V30 2627 H 256.254 -3.64637 4.76613 0
M  V30 2628 H 257.324 -2.32928 4.25291 0
M  V30 2629 N 258.668 -1.30515 -0.883378 0
M  V30 2630 C 259.896 -1.22359 -1.66841 0
M  V30 2631 C 260.311 0.213296 -1.87591 0
M  V30 2632 O 259.668 1.14075 -1.42454 0
M  V30 2633 C 259.719 -1.95011 -3.04389 0
M  V30 2634 O 259.44 -3.3309 -2.84575 0
M  V30 2635 C 260.941 -1.93532 -3.98824 0
M  V30 2636 H 258.161 -0.423371 -0.520575 0
M  V30 2637 H 260.705 -1.72167 -1.10357 0
M  V30 2638 H 258.86 -1.48997 -3.57601 0
M  V30 2639 H 259.274 -3.69907 -3.71846 0
M  V30 2640 H 260.748 -2.48902 -4.92699 0
M  V30 2641 H 261.225 -0.914627 -4.29571 0
M  V30 2642 H 261.831 -2.39364 -3.51547 0
M  V30 2643 N 260.146 1.09593 -1.13257 0
M  V30 2644 C 261.562 1.33775 -0.870423 0
M  V30 2645 C 261.762 1.95327 0.494926 0
M  V30 2646 O 260.818 2.19853 1.2418 0
M  V30 2647 C 262.131 2.25106 -1.99369 0
M  V30 2648 C 263.679 2.3862 -2.02558 0
M  V30 2649 C 264.154 3.33285 -3.14142 0
M  V30 2650 N 265.645 3.40857 -3.13641 0
M  V30 2651 C 266.38 4.14101 -3.96621 0
M  V30 2652 N 265.876 4.90157 -4.8961 0
M  V30 2653 N 267.669 4.09808 -3.84726 0
M  V30 2654 H 259.82 0.680136 -2.01216 0
M  V30 2655 H 262.083 0.362133 -0.876107 0
M  V30 2656 H 261.789 1.87103 -2.97801 0
M  V30 2657 H 261.663 3.25481 -1.90635 0
M  V30 2658 H 264.05 2.75887 -1.0474 0
M  V30 2659 H 264.131 1.38028 -2.15364 0
M  V30 2660 H 263.775 2.96741 -4.12198 0
M  V30 2661 H 263.705 4.33776 -2.98574 0
M  V30 2662 H 266.196 2.86624 -2.46282 0
M  V30 2663 H 266.509 5.4347 -5.49418 0
M  V30 2664 H 264.854 4.89251 -4.93617 0
M  V30 2665 H 268.045 3.4949 -3.11408 0
M  V30 2666 H 268.218 4.66629 -4.49623 0
M  V30 2667 N 261.624 0.925811 1.2754 0
M  V30 2668 C 262.572 0.413897 2.28888 0
M  V30 2669 C 263.566 -0.500779 1.61829 0
M  V30 2670 O 264.772 -0.38069 1.75928 0
M  V30 2671 H 261.147 0.115274 0.743112 0
M  V30 2672 H 263.118 1.28151 2.69481 0
M  V30 2673 C 261.867 -0.319792 3.46226 0
M  V30 2674 H 261.19 0.374846 3.98039 0
M  V30 2675 H 262.63 -0.642435 4.19105 0
M  V30 2676 C 261.089 -1.53209 3.00048 0
M  V30 2677 O 261.619 -2.6309 3.03557 0
M  V30 2678 N 259.825 -1.38326 2.55566 0
M  V30 2679 H 259.372 -0.489292 2.5291 0
M  V30 2680 H 259.33 -2.19564 2.25031 0
M  V30 2681 N 263.102 -1.41638 0.69111 0
M  V30 2682 C 264.05 -2.32597 0.0115199 0
M  V30 2683 C 265.044 -1.5072 -0.773296 0
M  V30 2684 O 266.25 -1.66685 -0.67942 0
M  V30 2685 H 262.625 -0.751849 -0.0150746 0
M  V30 2686 H 264.596 -2.87593 0.795791 0
M  V30 2687 C 263.345 -3.35467 -0.914172 0
M  V30 2688 H 262.668 -3.9852 -0.319687 0
M  V30 2689 H 264.108 -4.01662 -1.35808 0
M  V30 2690 C 262.567 -2.69004 -2.02826 0
M  V30 2691 O 263.097 -2.53444 -3.11655 0
M  V30 2692 N 261.303 -2.2777 -1.80469 0
M  V30 2693 H 260.85 -2.40626 -0.919615 0
M  V30 2694 H 260.808 -1.83635 -2.55197 0
M  V30 2695 N 264.58 -0.43555 -1.51462 0
M  V30 2696 C 265.827 0.131514 -2.02072 0
M  V30 2697 C 266.155 1.42868 -1.31981 0
M  V30 2698 O 265.41 1.91076 -0.422883 0
M  V30 2699 C 265.709 0.39942 -3.55161 0
M  V30 2700 C 265.375 -0.81172 -4.43533 0
M  V30 2701 C 264.037 -1.14387 -4.67407 0
M  V30 2702 C 266.389 -1.61976 -4.95392 0
M  V30 2703 C 263.717 -2.28477 -5.40384 0
M  V30 2704 C 266.069 -2.75164 -5.6962 0
M  V30 2705 C 264.733 -3.08835 -5.91758 0
M  V30 2706 H 264.003 0.0481244 -0.739436 0
M  V30 2707 H 266.65 -0.58238 -1.8243 0
M  V30 2708 H 264.955 1.19519 -3.73125 0
M  V30 2709 H 266.652 0.85157 -3.91854 0
M  V30 2710 H 263.242 -0.542898 -4.25148 0
M  V30 2711 H 267.426 -1.37637 -4.76833 0
M  V30 2712 H 262.682 -2.5488 -5.55739 0
M  V30 2713 H 266.856 -3.38147 -6.08793 0
M  V30 2714 H 264.483 -3.97353 -6.48086 0
M  V30 2715 N 266.058 1.56714 -0.166846 0
M  V30 2716 C 267.021 2.16539 0.751232 0
M  V30 2717 C 268.021 1.11228 1.16125 0
M  V30 2718 O 269.211 1.36765 1.07894 0
M  V30 2719 C 266.343 2.74462 2.02196 0
M  V30 2720 H 267.536 2.99013 0.230499 0
M  V30 2721 H 265.089 1.56081 0.0826982 0
M  V30 2722 H 265.824 1.95709 2.58589 0
M  V30 2723 H 265.609 3.51527 1.73698 0
M  V30 2724 H 267.099 3.20489 2.67725 0
M  V30 2725 N 267.536 -0.106894 1.57237 0
M  V30 2726 C 268.782 -0.81373 1.85759 0
M  V30 2727 C 269.115 -1.78952 0.754315 0
M  V30 2728 O 268.39 -1.93029 -0.23879 0
M  V30 2729 C 268.673 -1.55293 3.24894 0
M  V30 2730 C 268.526 -0.595929 4.45835 0
M  V30 2731 C 269.845 -2.5063 3.61763 0
M  V30 2732 H 266.964 -0.294369 0.67566 0
M  V30 2733 H 269.606 -0.0776472 1.89841 0
M  V30 2734 H 267.756 -2.1804 3.21544 0
M  V30 2735 H 269.428 0.0236262 4.61294 0
M  V30 2736 H 267.671 0.0916191 4.33703 0
M  V30 2737 H 268.342 -1.15004 5.39887 0
M  V30 2738 H 270.818 -1.97982 3.65981 0
M  V30 2739 H 269.694 -2.99376 4.60071 0
M  V30 2740 H 269.955 -3.3385 2.89821 0
M  V30 2741 N 269.014 -1.53014 -0.377408 0
M  V30 2742 C 270.262 -1.6829 -1.11906 0
M  V30 2743 C 270.583 -0.431206 -1.90173 0
M  V30 2744 O 269.853 0.554595 -1.87886 0
M  V30 2745 H 268.433 -0.620371 -0.416112 0
M  V30 2746 H 271.095 -1.90167 -0.426893 0
M  V30 2747 H 270.191 -2.53862 -1.8155 0
M  V30 2748 N 270.492 0.636531 -1.44174 0
M  V30 2749 C 271.722 1.42146 -1.49927 0
M  V30 2750 C 272.13 1.88812 -0.121063 0
M  V30 2751 O 271.473 1.61126 0.882267 0
M  V30 2752 C 271.535 2.67883 -2.39748 0
M  V30 2753 C 271.199 2.43048 -3.8701 0
M  V30 2754 C 272.196 2.05216 -4.77684 0
M  V30 2755 C 269.881 2.56856 -4.3166 0
M  V30 2756 C 271.875 1.81512 -6.11009 0
M  V30 2757 C 269.562 2.32766 -5.65034 0
M  V30 2758 C 270.56 1.95152 -6.54526 0
M  V30 2759 O 270.248 1.71326 -7.85431 0
M  V30 2760 H 269.98 0.442567 -0.51099 0
M  V30 2761 H 272.534 0.786158 -1.8976 0
M  V30 2762 H 270.764 3.34032 -1.94832 0
M  V30 2763 H 272.453 3.29874 -2.36513 0
M  V30 2764 H 273.219 1.94111 -4.44462 0
M  V30 2765 H 269.098 2.85104 -3.62266 0
M  V30 2766 H 272.642 1.52077 -6.80822 0
M  V30 2767 H 268.539 2.43479 -5.97819 0
M  V30 2768 H 269.307 1.85616 -7.97176 0
M  V30 2769 N 271.97 1.30982 0.876444 0
M  V30 2770 C 273.386 1.09498 1.16113 0
M  V30 2771 C 273.586 -0.13875 2.01022 0
M  V30 2772 O 272.642 -0.829935 2.38471 0
M  V30 2773 C 273.955 2.36308 1.85954 0
M  V30 2774 C 275.503 2.41856 1.98683 0
M  V30 2775 C 275.978 3.6853 2.71937 0
M  V30 2776 N 277.469 3.69387 2.79477 0
M  V30 2777 C 278.204 4.64096 3.36753 0
M  V30 2778 N 277.7 5.69155 3.95012 0
M  V30 2779 N 279.493 4.51626 3.3465 0
M  V30 2780 H 271.644 2.10118 0.310494 0
M  V30 2781 H 273.907 0.926634 0.200131 0
M  V30 2782 H 273.613 3.26388 1.31011 0
M  V30 2783 H 273.487 2.4561 2.86278 0
M  V30 2784 H 275.874 1.52249 2.52793 0
M  V30 2785 H 275.955 2.36523 0.9742 0
M  V30 2786 H 275.599 4.58499 2.18496 0
M  V30 2787 H 275.529 3.71127 3.73593 0
M  V30 2788 H 278.02 2.93438 2.38123 0
M  V30 2789 H 278.333 6.3751 4.36808 0
M  V30 2790 H 276.678 5.72937 3.93406 0
M  V30 2791 H 279.869 3.68728 2.8837 0
M  V30 2792 H 280.042 5.25614 3.7899 0
M  V30 2793 N 273.449 -1.08991 1.13837 0
M  V30 2794 C 274.677 -1.85011 0.926202 0
M  V30 2795 C 275.092 -1.8135 -0.525127 0
M  V30 2796 O 274.449 -1.21287 -1.36366 0
M  V30 2797 C 274.5 -3.32802 1.41155 0
M  V30 2798 O 274.221 -3.36444 2.80601 0
M  V30 2799 C 275.722 -4.25649 1.23847 0
M  V30 2800 H 272.942 -0.584249 0.32999 0
M  V30 2801 H 275.486 -1.37688 1.51202 0
M  V30 2802 H 273.641 -3.77536 0.868631 0
M  V30 2803 H 274.055 -4.28657 3.02248 0
M  V30 2804 H 275.529 -5.27485 1.62675 0
M  V30 2805 H 276.006 -4.38828 0.18065 0
M  V30 2806 H 276.612 -3.86735 1.76964 0
M  V30 2807 N 274.927 -0.932562 -1.27047 0
M  V30 2808 C 276.175 -0.574422 -1.93765 0
M  V30 2809 C 276.496 0.887993 -1.73608 0
M  V30 2810 O 275.766 1.62999 -1.08665 0
M  V30 2811 H 274.346 -0.209451 -0.717035 0
M  V30 2812 H 277.008 -1.18601 -1.5466 0
M  V30 2813 H 276.104 -0.784841 -3.02071 0
M  V30 2814 N 276.405 1.4127 -0.698611 0
M  V30 2815 C 277.682 1.94955 -0.158762 0
M  V30 2816 C 278.062 1.63781 1.33188 0
M  V30 2817 O 277.41 0.946423 2.07979 0
M  V30 2818 C 277.62 3.46044 -0.453309 0
M  V30 2819 C 278.968 4.22872 -0.382707 0
M  V30 2820 O 279.992 3.54076 -0.388396 0
M  V30 2821 O 278.851 5.45407 -0.345463 0
M  V30 2822 H 275.945 0.82683 -0.0167505 0
M  V30 2823 H 278.491 1.50971 -0.77498 0
M  V30 2824 H 277.263 3.62028 -1.48498 0
M  V30 2825 H 276.886 3.97128 0.19373 0
M  V30 2826 N 277.883 0.443576 1.51229 0
M  V30 2827 C 279.13 -0.120796 2.02139 0
M  V30 2828 C 279.458 -1.42166 1.32736 0
M  V30 2829 O 278.713 -1.90849 0.43301 0
M  V30 2830 C 279.012 -0.380579 3.55368 0
M  V30 2831 C 278.678 0.83523 4.43097 0
M  V30 2832 C 277.34 1.16864 4.66794 0
M  V30 2833 C 279.692 1.64601 4.94526 0
M  V30 2834 C 277.02 2.31339 5.39165 0
M  V30 2835 C 279.372 2.78181 5.68153 0
M  V30 2836 C 278.036 3.11969 5.90112 0
M  V30 2837 H 277.306 -0.0442023 0.73968 0
M  V30 2838 H 279.953 0.592046 1.82118 0
M  V30 2839 H 278.258 -1.17538 3.73754 0
M  V30 2840 H 279.955 -0.830777 3.923 0
M  V30 2841 H 276.545 0.565437 4.24854 0
M  V30 2842 H 280.729 1.40163 4.76097 0
M  V30 2843 H 275.985 2.57823 5.5438 0
M  V30 2844 H 280.159 3.41371 6.06992 0
M  V30 2845 H 277.786 4.00784 6.45969 0
M  V30 2846 N 279.361 -1.56624 0.175154 0
M  V30 2847 C 280.293 -2.15333 -0.785128 0
M  V30 2848 C 281.306 -1.1099 -1.19101 0
M  V30 2849 O 282.495 -1.38162 -1.13019 0
M  V30 2850 C 279.595 -2.68427 -2.06882 0
M  V30 2851 C 278.768 -3.97466 -1.8259 0
M  V30 2852 C 277.827 -4.35585 -2.95215 0
M  V30 2853 O 276.853 -5.03389 -2.65684 0
M  V30 2854 N 278.055 -3.97457 -4.23094 0
M  V30 2855 H 280.82 -2.98359 -0.283187 0
M  V30 2856 H 278.381 -1.61898 -0.00749817 0
M  V30 2857 H 280.373 -2.90924 -2.81328 0
M  V30 2858 H 278.943 -1.89968 -2.48256 0
M  V30 2859 H 278.163 -3.83307 -0.920287 0
M  V30 2860 H 279.451 -4.81736 -1.63733 0
M  V30 2861 H 278.849 -3.42878 -4.49945 0
M  V30 2862 H 277.406 -4.24947 -4.9423 0
M  V30 2863 N 280.839 0.0985539 -1.57292 0
M  V30 2864 C 281.769 1.12064 -2.04851 0
M  V30 2865 C 282.75 1.41981 -0.936767 0
M  V30 2866 O 283.935 1.52071 -1.20781 0
M  V30 2867 C 281.065 2.44144 -2.47004 0
M  V30 2868 C 280.019 2.28643 -3.6181 0
M  V30 2869 C 279.345 3.65869 -3.89929 0
M  V30 2870 C 280.645 1.72986 -4.92822 0
M  V30 2871 H 282.339 0.724979 -2.9049 0
M  V30 2872 H 279.885 0.34729 -1.39749 0
M  V30 2873 H 281.838 3.15914 -2.78884 0
M  V30 2874 H 280.562 2.85639 -1.5836 0
M  V30 2875 H 279.221 1.59318 -3.30172 0
M  V30 2876 H 278.869 4.04885 -2.98458 0
M  V30 2877 H 278.569 3.56344 -4.67218 0
M  V30 2878 H 280.093 4.39112 -4.2428 0
M  V30 2879 H 281.507 2.34593 -5.23105 0
M  V30 2880 H 279.904 1.74229 -5.74251 0
M  V30 2881 H 280.974 0.689007 -4.7998 0
M  V30 2882 N 282.317 1.53212 0.369288 0
M  V30 2883 C 283.267 1.75769 1.45222 0
M  V30 2884 C 284.251 0.612136 1.48801 0
M  V30 2885 O 285.443 0.870674 1.54105 0
M  V30 2886 C 282.572 1.94769 2.82701 0
M  V30 2887 C 281.658 3.15315 2.83615 0
M  V30 2888 N 282.049 4.37295 2.54178 0
M  V30 2889 C 280.347 3.15962 3.14776 0
M  V30 2890 C 281.048 5.19015 2.62675 0
M  V30 2891 N 280.024 4.55142 2.97232 0
M  V30 2892 H 283.826 2.67691 1.2132 0
M  V30 2893 H 281.34 1.51787 0.577438 0
M  V30 2894 H 283.337 2.09056 3.60696 0
M  V30 2895 H 281.997 1.04073 3.07569 0
M  V30 2896 H 283.008 4.65091 2.27839 0
M  V30 2897 H 279.685 2.35144 3.44983 0
M  V30 2898 H 281.075 6.26305 2.43294 0
M  V30 2899 N 283.795 -0.628877 1.44509 0
M  V30 2900 C 285.023 -1.41554 1.50897 0
M  V30 2901 C 285.438 -1.8832 0.134564 0
M  V30 2902 O 284.795 -1.60969 -0.859965 0
M  V30 2903 C 284.846 -2.63435 2.47556 0
M  V30 2904 O 284.567 -2.18619 3.79654 0
M  V30 2905 C 286.068 -3.56537 2.63431 0
M  V30 2906 H 283.288 -0.434044 0.511709 0
M  V30 2907 H 285.832 -0.768895 1.89495 0
M  V30 2908 H 283.987 -3.24187 2.12089 0
M  V30 2909 H 284.401 -2.97652 4.31861 0
M  V30 2910 H 285.875 -4.38657 3.35088 0
M  V30 2911 H 286.352 -4.05493 1.68738 0
M  V30 2912 H 286.958 -3.01653 2.9981 0
M  V30 2913 N 285.273 -1.31445 -0.869486 0
M  V30 2914 C 286.221 -1.19067 -1.99814 0
M  V30 2915 C 287.215 -0.0988569 -1.69111 0
M  V30 2916 O 288.421 -0.260781 -1.78101 0
M  V30 2917 H 284.796 -0.368677 -0.655425 0
M  V30 2918 H 286.767 -2.14555 -2.07385 0
M  V30 2919 C 285.516 -0.915323 -3.35436 0
M  V30 2920 H 284.839 -1.74759 -3.59582 0
M  V30 2921 H 286.279 -0.868895 -4.15001 0
M  V30 2922 C 284.738 0.381928 -3.34728 0
M  V30 2923 O 285.268 1.39857 -3.76567 0
M  V30 2924 N 283.474 0.398633 -2.87853 0
M  V30 2925 H 283.021 -0.429186 -2.54 0
M  V30 2926 H 282.979 1.26651 -2.87762 0
M  V30 2927 N 286.751 1.08385 -1.14413 0
M  V30 2928 C 287.997 1.81044 -0.913834 0
M  V30 2929 C 288.33 1.86004 0.558209 0
M  V30 2930 O 287.605 1.33606 1.4135 0
M  V30 2931 C 287.888 3.26648 -1.51569 0
M  V30 2932 C 287.741 3.29895 -3.0576 0
M  V30 2933 C 289.06 4.23629 -1.19273 0
M  V30 2934 H 286.179 0.65727 -0.333414 0
M  V30 2935 H 288.821 1.26896 -1.41412 0
M  V30 2936 H 286.971 3.72889 -1.09023 0
M  V30 2937 H 288.643 2.91977 -3.57137 0
M  V30 2938 H 286.886 2.69163 -3.40197 0
M  V30 2939 H 287.557 4.32516 -3.42977 0
M  V30 2940 H 290.033 3.85727 -1.56057 0
M  V30 2941 H 288.909 5.23822 -1.64017 0
M  V30 2942 H 289.17 4.41968 -0.108068 0
M  V30 2943 N 288.23 0.939286 1.26551 0
M  V30 2944 C 289.178 0.43815 2.28436 0
M  V30 2945 C 290.172 -0.483587 1.62351 0
M  V30 2946 O 291.378 -0.362009 1.76322 0
M  V30 2947 H 287.753 0.123149 0.741848 0
M  V30 2948 H 289.724 1.31002 2.68106 0
M  V30 2949 C 288.473 -0.283052 3.46546 0
M  V30 2950 H 287.796 0.417043 3.97619 0
M  V30 2951 H 289.236 -0.597948 4.19763 0
M  V30 2952 C 287.695 -1.50018 3.01656 0
M  V30 2953 O 288.225 -2.59855 3.0633 0
M  V30 2954 N 286.431 -1.35608 2.57019 0
M  V30 2955 H 285.978 -0.46244 2.53415 0
M  V30 2956 H 285.936 -2.17165 2.27347 0
M  V30 2957 N 289.708 -1.40897 0.706093 0
M  V30 2958 C 290.985 -1.94868 0.169099 0
M  V30 2959 C 291.365 -1.64485 -1.32318 0
M  V30 2960 O 290.713 -0.95744 -2.07474 0
M  V30 2961 C 290.923 -3.45798 0.471654 0
M  V30 2962 C 292.271 -4.22663 0.405127 0
M  V30 2963 O 293.295 -3.53865 0.407168 0
M  V30 2964 O 292.154 -5.45216 0.374383 0
M  V30 2965 H 289.248 -0.82673 0.0211352 0
M  V30 2966 H 291.794 -1.50558 0.782976 0
M  V30 2967 H 290.566 -3.61235 1.50416 0
M  V30 2968 H 290.189 -3.97225 -0.172666 0
M  V30 2969 N 291.186 -0.45159 -1.50991 0
M  V30 2970 C 292.434 0.109857 -2.01801 0
M  V30 2971 C 292.755 1.41958 -1.3369 0
M  V30 2972 O 292.025 1.9003 -0.475951 0
M  V30 2973 H 290.605 0.0435884 -0.745727 0
M  V30 2974 H 293.267 -0.597557 -1.85514 0
M  V30 2975 H 292.363 0.275489 -3.10882 0
M  V30 2976 N 292.664 1.56529 -0.183458 0
M  V30 2977 C 293.892 2.01623 0.464285 0
M  V30 2978 C 294.307 1.06366 1.55986 0
M  V30 2979 O 293.664 0.0665398 1.82379 0
M  V30 2980 C 293.715 3.46475 1.03139 0
M  V30 2981 O 293.436 4.38095 -0.0204675 0
M  V30 2982 C 294.937 4.0703 1.75617 0
M  V30 2983 H 292.157 0.660596 0.117704 0
M  V30 2984 H 294.701 2.02451 -0.288751 0
M  V30 2985 H 292.856 3.46383 1.73486 0
M  V30 2986 H 293.27 5.22973 0.399952 0
M  V30 2987 H 294.744 5.10271 2.10542 0
M  V30 2988 H 295.221 3.49819 2.65563 0
M  V30 2989 H 295.827 4.1086 1.09882 0
M  V30 2990 N 294.142 -0.090211 1.57342 0
M  V30 2991 C 295.052 -1.12735 2.05738 0
M  V30 2992 C 296.068 -1.43557 0.983231 0
M  V30 2993 O 297.244 -1.54101 1.29672 0
M  V30 2994 C 294.309 -2.42659 2.47624 0
M  V30 2995 C 293.37 -2.18975 3.69254 0
M  V30 2996 C 292.603 -3.42704 4.09133 0
M  V30 2997 O 292.826 -4.51127 3.49057 0
M  V30 2998 O 291.76 -3.32003 5.02053 0
M  V30 2999 H 295.586 -0.746279 2.94388 0
M  V30 3000 H 293.171 -0.303064 1.46294 0
M  V30 3001 H 295.053 -3.19155 2.7517 0
M  V30 3002 H 293.728 -2.80182 1.62109 0
M  V30 3003 H 292.635 -1.40244 3.46818 0
M  V30 3004 H 293.968 -1.86342 4.55563 0
M  V30 3005 N 295.62 -1.53406 -0.361157 0
M  V30 3006 C 296.867 -1.69802 -1.10333 0
M  V30 3007 C 297.195 -0.452087 -1.89173 0
M  V30 3008 O 296.45 0.566017 -1.87336 0
M  V30 3009 C 296.749 -2.90211 -2.08596 0
M  V30 3010 C 296.415 -4.26539 -1.46203 0
M  V30 3011 C 295.077 -4.6361 -1.28915 0
M  V30 3012 C 297.429 -5.113 -1.01101 0
M  V30 3013 C 294.757 -5.83075 -0.651157 0
M  V30 3014 C 297.109 -6.31415 -0.387007 0
M  V30 3015 C 295.773 -6.67195 -0.201657 0
M  V30 3016 H 295.043 -0.621351 -0.403737 0
M  V30 3017 H 297.69 -1.87598 -0.384609 0
M  V30 3018 H 295.995 -2.66946 -2.86788 0
M  V30 3019 H 297.692 -3.00091 -2.65982 0
M  V30 3020 H 294.282 -3.97352 -1.60653 0
M  V30 3021 H 298.466 -4.83206 -1.13249 0
M  V30 3022 H 293.722 -6.09385 -0.496006 0
M  V30 3023 H 297.896 -6.96394 -0.0293563 0
M  V30 3024 H 295.523 -7.59628 0.294766 0
M  V30 3025 N 297.098 0.621204 -1.44841 0
M  V30 3026 C 298.346 1.37783 -1.47852 0
M  V30 3027 C 298.667 1.94653 -0.116224 0
M  V30 3028 O 297.937 1.76367 0.852737 0
M  V30 3029 H 296.517 0.511453 -0.544449 0
M  V30 3030 H 299.179 0.730446 -1.80694 0
M  V30 3031 H 298.275 2.20414 -2.20961 0
M  V30 3032 N 298.576 1.31904 0.862503 0
M  V30 3033 C 299.824 1.21776 1.61292 0
M  V30 3034 C 300.145 -0.222413 1.93727 0
M  V30 3035 O 299.415 -1.1451 1.58947 0
M  V30 3036 H 297.995 0.447717 0.597962 0
M  V30 3037 H 300.657 1.65326 1.03215 0
M  V30 3038 H 299.753 1.7948 2.5533 0
M  V30 3039 N 300.054 -1.07777 1.14986 0
M  V30 3040 C 301.279 -1.84558 0.946213 0
M  V30 3041 C 301.704 -1.81323 -0.500362 0
M  V30 3042 O 301.062 -1.20301 -1.35637 0
M  V30 3043 C 301.11 -3.29736 1.45968 0
M  V30 3044 O 300.214 -4.07149 0.65601 0
M  V30 3045 H 299.555 -0.571641 0.33782 0
M  V30 3046 H 302.085 -1.35991 1.52865 0
M  V30 3047 H 302.095 -3.80574 1.47063 0
M  V30 3048 H 300.77 -3.31406 2.51283 0
M  V30 3049 H 299.347 -3.65994 0.714322 0
M  V30 3050 N 301.532 -0.945985 -1.26051 0
M  V30 3051 C 302.781 -0.591836 -1.92822 0
M  V30 3052 C 303.094 0.873956 -1.7499 0
M  V30 3053 O 304.3 1.33769 -2.36259 0
M  V30 3054 C 302.756 -1.00776 -3.45503 0
M  V30 3055 C 302.364 -2.4955 -3.7206 0
M  V30 3056 C 304.108 -0.725735 -4.1825 0
M  V30 3057 C 302.015 -2.84988 -5.18205 0
M  V30 3058 H 300.945 -0.217635 -0.721908 0
M  V30 3059 H 303.596 -1.14927 -1.43052 0
M  V30 3060 H 301.978 -0.378812 -3.94184 0
M  V30 3061 H 303.152 -3.1739 -3.34066 0
M  V30 3062 H 301.467 -2.75133 -3.12555 0
M  V30 3063 H 304.064 -0.966771 -5.25887 0
M  V30 3064 H 304.407 0.337639 -4.14929 0
M  V30 3065 H 304.94 -1.31463 -3.7545 0
M  V30 3066 H 301.679 -3.90307 -5.26631 0
M  V30 3067 H 301.199 -2.21813 -5.57278 0
M  V30 3068 H 302.878 -2.73712 -5.86252 0
M  V30 3069 N 303.011 1.40521 -0.713556 0
M  V30 3070 C 304.241 2.0494 -0.261395 0
M  V30 3071 C 304.649 1.53861 1.10107 0
M  V30 3072 O 303.992 0.689321 1.70276 0
M  V30 3073 C 304.054 3.59138 -0.161227 0
M  V30 3074 C 303.718 4.33096 -1.45865 0
M  V30 3075 C 304.715 4.61182 -2.40016 0
M  V30 3076 C 302.4 4.72043 -1.71701 0
M  V30 3077 C 304.394 5.27196 -3.58251 0
M  V30 3078 C 302.081 5.37789 -2.90218 0
M  V30 3079 C 303.079 5.65295 -3.83315 0
M  V30 3080 O 302.767 6.29683 -4.99754 0
M  V30 3081 H 302.499 0.666041 -0.115608 0
M  V30 3082 H 305.053 1.80954 -0.971849 0
M  V30 3083 H 303.283 3.81936 0.605153 0
M  V30 3084 H 304.972 4.05091 0.256105 0
M  V30 3085 H 305.738 4.31559 -2.21318 0
M  V30 3086 H 301.617 4.50003 -1.00092 0
M  V30 3087 H 305.161 5.48582 -4.30934 0
M  V30 3088 H 301.058 5.66831 -3.08825 0
M  V30 3089 H 301.826 6.4818 -4.99805 0
M  V30 3090 N 304.489 0.459591 1.5075 0
M  V30 3091 C 305.421 -0.37665 2.26084 0
M  V30 3092 C 306.434 -0.967109 1.30961 0
M  V30 3093 O 307.623 -0.857468 1.56556 0
M  V30 3094 C 304.723 -1.54112 3.01832 0
M  V30 3095 C 303.896 -1.06553 4.24223 0
M  V30 3096 C 302.955 -2.1027 4.82362 0
M  V30 3097 O 301.981 -1.68798 5.43595 0
M  V30 3098 N 303.183 -3.42974 4.68347 0
M  V30 3099 H 305.948 0.269124 2.98489 0
M  V30 3100 H 303.509 0.28972 1.59287 0
M  V30 3101 H 305.501 -2.23165 3.37608 0
M  V30 3102 H 304.071 -2.0918 2.32298 0
M  V30 3103 H 303.291 -0.201274 3.93686 0
M  V30 3104 H 304.579 -0.725516 5.03601 0
M  V30 3105 H 303.977 -3.79385 4.19623 0
M  V30 3106 H 302.534 -4.07858 5.08424 0
M  V30 3107 N 305.967 -1.56429 0.191757 0
M  V30 3108 C 306.914 -2.18936 -0.730454 0
M  V30 3109 C 307.884 -1.13557 -1.21219 0
M  V30 3110 O 309.069 -1.41794 -1.27668 0
M  V30 3111 C 306.209 -2.85013 -1.9458 0
M  V30 3112 C 305.322 -4.04909 -1.50574 0
M  V30 3113 C 304.457 -4.58853 -2.67634 0
M  V30 3114 C 303.496 -5.71114 -2.20217 0
M  V30 3115 N 302.633 -6.19478 -3.30442 0
M  V30 3116 H 307.473 -2.97389 -0.190664 0
M  V30 3117 H 305.01 -1.46869 -0.0823694 0
M  V30 3118 H 306.968 -3.21492 -2.65893 0
M  V30 3119 H 305.598 -2.09129 -2.45896 0
M  V30 3120 H 304.65 -3.74115 -0.688605 0
M  V30 3121 H 305.962 -4.86113 -1.11784 0
M  V30 3122 H 305.116 -4.97619 -3.47074 0
M  V30 3123 H 303.855 -3.76749 -3.09696 0
M  V30 3124 H 302.86 -5.31879 -1.3923 0
M  V30 3125 H 304.085 -6.55033 -1.79189 0
M  V30 3126 H 302.031 -5.40297 -3.72041 0
M  V30 3127 H 301.948 -6.95725 -2.9581 0
M  V30 3128 H 303.216 -6.62898 -4.10106 0
M  V30 3129 N 307.445 0.0818655 -1.57387 0
M  V30 3130 C 308.691 0.784074 -1.8703 0
M  V30 3131 C 309.024 1.77729 -0.782689 0
M  V30 3132 O 308.299 1.93384 0.208051 0
M  V30 3133 C 308.582 1.50105 -3.27323 0
M  V30 3134 C 308.435 0.524925 -4.46727 0
M  V30 3135 C 309.754 2.44843 -3.65705 0
M  V30 3136 H 306.873 0.283582 -0.680257 0
M  V30 3137 H 309.515 0.0474352 -1.89941 0
M  V30 3138 H 307.665 2.12897 -3.24972 0
M  V30 3139 H 309.337 -0.0970111 -4.61198 0
M  V30 3140 H 307.58 -0.160606 -4.33503 0
M  V30 3141 H 308.251 1.064 -5.41648 0
M  V30 3142 H 310.727 1.92135 -3.69085 0
M  V30 3143 H 309.603 2.92018 -4.64776 0
M  V30 3144 H 309.864 3.29197 -2.95096 0
M  V30 3145 N 308.923 1.53595 0.353017 0
M  V30 3146 C 310.163 1.72094 1.10286 0
M  V30 3147 C 310.527 0.469217 1.86178 0
M  V30 3148 O 311.728 0.531083 2.63501 0
M  V30 3149 C 309.999 2.94386 2.02661 0
M  V30 3150 S 311.558 3.33651 2.84996 0
M  V30 3151 H 308.376 0.605433 0.372789 0
M  V30 3152 H 310.978 1.91722 0.38248 0
M  V30 3153 H 309.682 3.83669 1.45691 0
M  V30 3154 H 309.213 2.77197 2.79152 0
M  V30 3155 H 311.228 2.86645 4.0503 0
M  V30 3156 N 310.401 -0.613514 1.45168 0
M  V30 3157 C 311.311 -1.75296 1.55912 0
M  V30 3158 C 312.327 -1.68244 0.443856 0
M  V30 3159 O 313.503 -1.88706 0.70371 0
M  V30 3160 C 310.568 -3.1174 1.5172 0
M  V30 3161 C 309.629 -3.30291 2.74238 0
M  V30 3162 C 308.862 -4.60226 2.70236 0
M  V30 3163 O 309.085 -5.42168 1.77229 0
M  V30 3164 O 308.019 -4.81361 3.61352 0
M  V30 3165 H 311.845 -1.69183 2.52212 0
M  V30 3166 H 309.43 -0.776886 1.27612 0
M  V30 3167 H 311.312 -3.93044 1.51968 0
M  V30 3168 H 309.987 -3.18357 0.585697 0
M  V30 3169 H 308.894 -2.48598 2.79553 0
M  V30 3170 H 310.227 -3.28547 3.66494 0
M  V30 3171 N 311.879 -1.3236 -0.855495 0
M  V30 3172 C 313.156 -1.13491 -1.59309 0
M  V30 3173 C 313.536 0.30503 -2.08885 0
M  V30 3174 O 312.884 1.30151 -1.87811 0
M  V30 3175 C 313.094 -2.16176 -2.73987 0
M  V30 3176 C 314.442 -2.49463 -3.43589 0
M  V30 3177 O 315.466 -2.14715 -2.84211 0
M  V30 3178 O 314.325 -3.09027 -4.50738 0
M  V30 3179 H 311.419 -0.437887 -0.701559 0
M  V30 3180 H 313.965 -1.43887 -0.899696 0
M  V30 3181 H 312.737 -3.1297 -2.34873 0
M  V30 3182 H 312.36 -1.86769 -3.51003 0
M  V30 3183 N 313.357 1.07166 -1.15556 0
M  V30 3184 C 314.287 2.16403 -0.877046 0
M  V30 3185 C 315.268 1.69217 0.173111 0
M  V30 3186 O 316.453 1.94181 0.027084 0
M  V30 3187 C 313.583 3.45349 -0.367632 0
M  V30 3188 C 312.537 4.05995 -1.35468 0
M  V30 3189 C 311.863 5.30045 -0.704038 0
M  V30 3190 C 313.163 4.45804 -2.72132 0
M  V30 3191 H 314.857 2.39959 -1.79053 0
M  V30 3192 H 312.403 1.15325 -0.862331 0
M  V30 3193 H 314.356 4.21095 -0.160317 0
M  V30 3194 H 313.08 3.21385 0.581326 0
M  V30 3195 H 311.739 3.32296 -1.54839 0
M  V30 3196 H 311.387 5.02373 0.251128 0
M  V30 3197 H 311.087 5.71579 -1.36277 0
M  V30 3198 H 312.611 6.08495 -0.50654 0
M  V30 3199 H 314.025 5.12671 -2.56595 0
M  V30 3200 H 312.422 4.98296 -3.34397 0
M  V30 3201 H 313.492 3.57083 -3.28054 0
M  V30 3202 N 314.835 0.952656 1.25548 0
M  V30 3203 C 316.112 0.523818 1.88456 0
M  V30 3204 C 316.492 -0.998871 1.85973 0
M  V30 3205 O 315.84 -1.86381 1.3219 0
M  V30 3206 C 316.05 1.0982 3.31271 0
M  V30 3207 C 317.398 1.17385 4.08051 0
M  V30 3208 O 318.422 1.04961 3.40384 0
M  V30 3209 O 317.281 1.36852 5.29088 0
M  V30 3210 H 314.375 0.172485 0.808813 0
M  V30 3211 H 316.921 1.04596 1.33633 0
M  V30 3212 H 315.693 2.1415 3.27499 0
M  V30 3213 H 315.316 0.559191 3.93648 0
M  V30 3214 N 316.313 -1.40141 0.720998 0
M  V30 3215 C 317.541 -2.05096 0.272656 0
M  V30 3216 C 317.956 -1.54334 -1.0875 0
M  V30 3217 O 317.313 -0.702211 -1.6845 0
M  V30 3218 C 317.364 -3.60636 0.249835 0
M  V30 3219 O 317.085 -4.09526 1.55629 0
M  V30 3220 C 318.586 -4.42772 -0.216396 0
M  V30 3221 H 315.806 -0.659897 0.121558 0
M  V30 3222 H 318.35 -1.79449 0.980723 0
M  V30 3223 H 316.505 -3.85232 -0.409237 0
M  V30 3224 H 316.919 -5.03758 1.4604 0
M  V30 3225 H 318.393 -5.51702 -0.181212 0
M  V30 3226 H 318.87 -4.20756 -1.25941 0
M  V30 3227 H 319.476 -4.23294 0.412596 0
M  V30 3228 N 317.792 -0.46758 -1.50504 0
M  V30 3229 C 319.017 0.0886943 -2.0721 0
M  V30 3230 C 319.442 1.33057 -1.32956 0
M  V30 3231 O 318.8 1.77354 -0.376197 0
M  V30 3232 C 318.848 0.359202 -3.58806 0
M  V30 3233 O 317.952 1.44034 -3.8643 0
M  V30 3234 H 317.293 -0.0114349 -0.663902 0
M  V30 3235 H 319.823 -0.657613 -1.93744 0
M  V30 3236 H 319.833 0.600742 -4.03553 0
M  V30 3237 H 318.508 -0.548311 -4.1227 0
M  V30 3238 H 317.085 1.18638 -3.53524 0
M  V30 3239 N 319.27 1.56325 -0.20005 0
M  V30 3240 C 320.516 1.98012 0.438059 0
M  V30 3241 C 320.849 1.08702 1.60927 0
M  V30 3242 O 320.124 0.140064 1.93995 0
M  V30 3243 C 320.407 3.48841 0.893419 0
M  V30 3244 C 320.26 4.48928 -0.279947 0
M  V30 3245 C 321.579 4.03498 1.75719 0
M  V30 3246 H 318.698 0.719918 0.157757 0
M  V30 3247 H 321.34 1.87743 -0.291968 0
M  V30 3248 H 319.49 3.57723 1.51547 0
M  V30 3249 H 321.162 4.52079 -0.91772 0
M  V30 3250 H 319.405 4.23694 -0.930919 0
M  V30 3251 H 320.076 5.5194 0.0812601 0
M  V30 3252 H 322.552 3.97427 1.23253 0
M  V30 3253 H 321.428 5.09393 2.04476 0
M  V30 3254 H 321.689 3.4906 2.71311 0
M  V30 3255 N 320.748 -0.0735177 1.57428 0
M  V30 3256 C 321.696 -1.10628 2.04607 0
M  V30 3257 C 322.69 -1.40181 0.951088 0
M  V30 3258 O 323.896 -1.39608 1.1362 0
M  V30 3259 H 320.271 -0.374088 0.652351 0
M  V30 3260 H 322.242 -0.682218 2.90497 0
M  V30 3261 C 320.991 -2.41212 2.50423 0
M  V30 3262 H 320.314 -2.19322 3.34272 0
M  V30 3263 H 321.754 -3.11927 2.87189 0
M  V30 3264 C 320.213 -3.0705 1.38644 0
M  V30 3265 O 320.743 -3.95056 0.727582 0
M  V30 3266 N 318.949 -2.67645 1.132 0
M  V30 3267 H 318.496 -1.96169 1.66959 0
M  V30 3268 H 318.454 -3.1202 0.386147 0
M  V30 3269 N 322.226 -1.5378 -0.344866 0
M  V30 3270 C 323.156 -1.84662 -1.42906 0
M  V30 3271 C 324.137 -0.701648 -1.54955 0
M  V30 3272 O 325.322 -0.953438 -1.69184 0
M  V30 3273 C 322.452 -2.05503 -2.79974 0
M  V30 3274 C 321.406 -3.21318 -2.82734 0
M  V30 3275 C 320.732 -3.2749 -4.22675 0
M  V30 3276 C 322.032 -4.59456 -2.48389 0
M  V30 3277 H 323.726 -2.75461 -1.17311 0
M  V30 3278 H 321.272 -1.32542 -0.562896 0
M  V30 3279 H 323.225 -2.25691 -3.55867 0
M  V30 3280 H 321.949 -1.11434 -3.07002 0
M  V30 3281 H 320.608 -3.00984 -2.09294 0
M  V30 3282 H 320.256 -2.31019 -4.4681 0
M  V30 3283 H 319.956 -4.05316 -4.25433 0
M  V30 3284 H 321.48 -3.49887 -5.00412 0
M  V30 3285 H 322.894 -4.79667 -3.13995 0
M  V30 3286 H 321.291 -5.39675 -2.62432 0
M  V30 3287 H 322.361 -4.63155 -1.4358 0
M  V30 3288 N 323.704 0.605807 -1.45491 0
M  V30 3289 C 324.667 1.69836 -1.5391 0
M  V30 3290 C 325.667 1.55261 -0.418424 0
M  V30 3291 O 326.857 1.60296 -0.681965 0
M  V30 3292 C 323.989 3.09117 -1.43734 0
M  V30 3293 H 325.182 1.63738 -2.51257 0
M  V30 3294 H 322.735 0.821689 -1.32959 0
M  V30 3295 H 323.47 3.20791 -0.475788 0
M  V30 3296 H 323.255 3.21104 -2.25021 0
M  V30 3297 H 324.745 3.88696 -1.52661 0
M  V30 3298 N 325.182 1.32811 0.848464 0
M  V30 3299 C 326.428 1.24917 1.60522 0
M  V30 3300 C 326.783 -0.185761 1.91501 0
M  V30 3301 O 326.076 -1.12524 1.55077 0
M  V30 3302 C 326.27 2.04831 2.92881 0
M  V30 3303 C 326.099 3.55949 2.74828 0
M  V30 3304 C 324.869 4.25277 2.72887 0
M  V30 3305 C 327.067 4.50476 2.48145 0
M  V30 3306 N 325.049 5.62408 2.46111 0
M  V30 3307 C 326.42 5.75427 2.30832 0
M  V30 3308 C 328.475 4.39665 2.33664 0
M  V30 3309 C 327.178 6.90789 2.00508 0
M  V30 3310 C 329.204 5.54833 2.04731 0
M  V30 3311 C 328.566 6.78787 1.88223 0
M  V30 3312 H 324.665 0.512279 0.590842 0
M  V30 3313 H 327.249 1.67246 0.996839 0
M  V30 3314 H 325.42 1.64837 3.51686 0
M  V30 3315 H 327.152 1.88782 3.57971 0
M  V30 3316 H 323.907 3.77456 2.86049 0
M  V30 3317 H 324.331 6.3467 2.35634 0
M  V30 3318 H 328.973 3.44477 2.45144 0
M  V30 3319 H 326.691 7.85984 1.87765 0
M  V30 3320 H 330.277 5.48398 1.94295 0
M  V30 3321 H 329.157 7.66396 1.66155 0
M  V30 3322 N 326.66 -1.06551 1.16123 0
M  V30 3323 C 327.888 -1.83005 0.965237 0
M  V30 3324 C 328.303 -1.82423 -0.486542 0
M  V30 3325 O 327.66 -1.24152 -1.33763 0
M  V30 3326 C 327.711 -3.29733 1.48183 0
M  V30 3327 O 327.432 -3.30416 2.87674 0
M  V30 3328 C 328.933 -4.22926 1.32848 0
M  V30 3329 H 326.153 -0.577118 0.342309 0
M  V30 3330 H 328.697 -1.3445 1.54089 0
M  V30 3331 H 326.852 -3.75609 0.948517 0
M  V30 3332 H 327.266 -4.22149 3.11272 0
M  V30 3333 H 328.74 -5.23916 1.73827 0
M  V30 3334 H 329.217 -4.38346 0.273692 0
M  V30 3335 H 329.823 -3.82894 1.85127 0
M  V30 3336 N 328.138 -0.959301 -1.25041 0
M  V30 3337 C 329.363 -0.633507 -1.97488 0
M  V30 3338 C 329.788 0.788555 -1.70773 0
M  V30 3339 O 329.146 1.53394 -0.966431 0
M  V30 3340 C 329.194 -0.904057 -3.49083 0
M  V30 3341 O 328.298 0.0147939 -4.12397 0
M  V30 3342 H 327.639 -0.240368 -0.618966 0
M  V30 3343 H 330.169 -1.28717 -1.59038 0
M  V30 3344 H 330.179 -0.832203 -3.99423 0
M  V30 3345 H 328.854 -1.94048 -3.67856 0
M  V30 3346 H 327.431 -0.109664 -3.72739 0
M  V30 3347 N 329.616 1.39756 -0.72842 0
M  V30 3348 C 330.864 2.00248 -0.272946 0
M  V30 3349 C 331.185 1.58077 1.14178 0
M  V30 3350 O 330.455 0.826014 1.77634 0
M  V30 3351 H 329.035 0.740554 -0.0979247 0
M  V30 3352 H 331.697 1.70903 -0.936912 0
M  V30 3353 H 330.793 3.10495 -0.316142 0
M  V30 3354 N 331.094 0.475555 1.50254 0
M  V30 3355 C 332.322 -0.0754493 2.06762 0
M  V30 3356 C 332.737 -1.33111 1.33891 0
M  V30 3357 O 332.094 -1.77846 0.40952 0
M  V30 3358 C 332.145 -0.359008 3.59713 0
M  V30 3359 O 331.866 0.846851 4.29837 0
M  V30 3360 C 333.367 -0.956484 4.32858 0
M  V30 3361 H 330.587 0.00907525 0.670939 0
M  V30 3362 H 333.131 0.665618 1.93364 0
M  V30 3363 H 331.286 -1.05001 3.72899 0
M  V30 3364 H 331.7 0.594162 5.21124 0
M  V30 3365 H 333.174 -1.10463 5.40834 0
M  V30 3366 H 333.651 -1.94775 3.93649 0
M  V30 3367 H 334.257 -0.303723 4.24214 0
M  V30 3368 N 332.573 -1.56217 0.208337 0
M  V30 3369 C 333.521 -2.21053 -0.723769 0
M  V30 3370 C 334.515 -1.18578 -1.20978 0
M  V30 3371 O 335.721 -1.36691 -1.17114 0
M  V30 3372 H 332.096 -0.708595 -0.251788 0
M  V30 3373 H 334.067 -2.98006 -0.153365 0
M  V30 3374 C 332.816 -2.89417 -1.927 0
M  V30 3375 H 332.139 -3.68019 -1.56212 0
M  V30 3376 H 333.579 -3.38201 -2.55727 0
M  V30 3377 C 332.038 -1.91166 -2.77411 0
M  V30 3378 O 332.568 -1.42026 -3.75754 0
M  V30 3379 N 330.774 -1.59105 -2.43175 0
M  V30 3380 H 330.321 -1.99259 -1.63259 0
M  V30 3381 H 330.279 -0.936255 -3.00136 0
M  V30 3382 N 334.051 0.0651679 -1.57465 0
M  V30 3383 C 335.291 0.768329 -1.8941 0
M  V30 3384 C 335.655 1.74406 -0.802894 0
M  V30 3385 O 336.856 2.49281 -1.0056 0
M  V30 3386 C 335.127 1.45199 -3.26576 0
M  V30 3387 S 336.686 2.1893 -3.80283 0
M  V30 3388 H 333.504 0.255359 -0.663561 0
M  V30 3389 H 336.106 0.024167 -1.95485 0
M  V30 3390 H 334.81 0.728123 -4.03889 0
M  V30 3391 H 334.341 2.23545 -3.23715 0
M  V30 3392 H 336.356 3.45551 -3.56102 0
M  V30 3393 N 335.529 1.53961 0.336706 0
M  V30 3394 C 336.757 1.75483 1.09605 0
M  V30 3395 C 337.172 0.4972 1.82136 0
M  V30 3396 O 336.529 -0.53149 1.74589 0
M  V30 3397 C 336.58 2.93943 2.10428 0
M  V30 3398 O 336.301 4.14842 1.40846 0
M  V30 3399 C 337.802 3.27571 2.98684 0
M  V30 3400 H 335.022 0.586166 0.326574 0
M  V30 3401 H 337.566 2.00808 0.38683 0
M  V30 3402 H 335.721 2.70929 2.76905 0
M  V30 3403 H 336.135 4.81383 2.08255 0
M  V30 3404 H 337.609 4.13791 3.6535 0
M  V30 3405 H 338.086 2.44168 3.65074 0
M  V30 3406 H 338.692 3.52615 2.37787 0
M  V30 3407 N 337.007 -0.598083 1.45811 0
M  V30 3408 C 338.423 -0.919847 1.30426 0
M  V30 3409 C 338.623 -1.99759 0.264303 0
M  V30 3410 O 337.679 -2.50221 -0.338472 0
M  V30 3411 C 338.992 -1.35176 2.68603 0
M  V30 3412 C 340.54 -1.46546 2.76574 0
M  V30 3413 C 341.015 -1.9311 4.15298 0
M  V30 3414 N 342.506 -2.00328 4.1764 0
M  V30 3415 C 343.241 -2.37599 5.21856 0
M  V30 3416 N 342.737 -2.73771 6.36413 0
M  V30 3417 N 344.53 -2.38021 5.09218 0
M  V30 3418 H 336.681 0.114111 2.12093 0
M  V30 3419 H 338.944 -0.0116121 0.947929 0
M  V30 3420 H 338.65 -0.633969 3.45939 0
M  V30 3421 H 338.524 -2.3164 2.97696 0
M  V30 3422 H 340.911 -2.17415 1.99537 0
M  V30 3423 H 340.992 -0.483727 2.51185 0
M  V30 3424 H 340.636 -1.22824 4.92825 0
M  V30 3425 H 340.566 -2.92213 4.38086 0
M  V30 3426 H 343.057 -1.74925 3.34977 0
M  V30 3427 H 343.37 -3.0112 7.11721 0
M  V30 3428 H 341.715 -2.71445 6.39799 0
M  V30 3429 H 344.906 -2.09174 4.18765 0
M  V30 3430 H 345.079 -2.66741 5.90554 0
M  V30 3431 N 338.485 -1.33259 -0.841409 0
M  V30 3432 C 339.732 -1.24572 -1.5965 0
M  V30 3433 C 340.06 0.189137 -1.93578 0
M  V30 3434 O 339.315 1.14566 -1.5866 0
M  V30 3435 C 339.614 -2.06381 -2.9179 0
M  V30 3436 C 339.28 -3.556 -2.77235 0
M  V30 3437 C 337.942 -3.96282 -2.72973 0
M  V30 3438 C 340.294 -4.50433 -2.62221 0
M  V30 3439 C 337.622 -5.30017 -2.51592 0
M  V30 3440 C 339.974 -5.84327 -2.42374 0
M  V30 3441 C 338.638 -6.24194 -2.36512 0
M  V30 3442 H 337.908 -0.455842 -0.5842 0
M  V30 3443 H 340.555 -1.6482 -0.975016 0
M  V30 3444 H 338.86 -1.58903 -3.5813 0
M  V30 3445 H 340.557 -1.97019 -3.49263 0
M  V30 3446 H 337.147 -3.23298 -2.81384 0
M  V30 3447 H 341.331 -4.19914 -2.64549 0
M  V30 3448 H 336.587 -5.59947 -2.45499 0
M  V30 3449 H 340.761 -6.57414 -2.29739 0
M  V30 3450 H 338.388 -7.27759 -2.19706 0
M  V30 3451 N 339.963 1.05934 -1.16686 0
M  V30 3452 C 341.211 1.78447 -0.948744 0
M  V30 3453 C 341.532 1.87813 0.524523 0
M  V30 3454 O 340.802 1.38945 1.38098 0
M  V30 3455 H 339.382 0.660971 -0.348033 0
M  V30 3456 H 342.044 1.27947 -1.47022 0
M  V30 3457 H 341.14 2.80394 -1.37061 0
M  V30 3458 N 341.441 0.965919 1.2453 0
M  V30 3459 C 342.69 0.622437 1.91856 0
M  V30 3460 C 343.003 -0.846006 1.76358 0
M  V30 3461 O 344.209 -1.29993 2.38357 0
M  V30 3462 C 342.665 1.0626 3.43856 0
M  V30 3463 C 342.273 2.55437 3.68043 0
M  V30 3464 C 344.017 0.792183 4.17043 0
M  V30 3465 C 341.924 2.93196 5.13605 0
M  V30 3466 H 340.854 0.229092 0.718354 0
M  V30 3467 H 343.505 1.17189 1.41206 0
M  V30 3468 H 341.887 0.441476 3.93531 0
M  V30 3469 H 343.061 3.22665 3.28974 0
M  V30 3470 H 341.376 2.8007 3.08139 0
M  V30 3471 H 343.973 1.05031 5.24283 0
M  V30 3472 H 344.316 -0.271584 4.15413 0
M  V30 3473 H 344.849 1.37419 3.73311 0
M  V30 3474 H 341.588 3.98636 5.20355 0
M  V30 3475 H 341.108 2.30651 5.53679 0
M  V30 3476 H 342.787 2.83004 5.81823 0
M  V30 3477 N 342.919 -1.39368 0.735821 0
M  V30 3478 C 343.882 -2.2896 0.104874 0
M  V30 3479 C 344.882 -1.46347 -0.666274 0
M  V30 3480 O 346.072 -1.67014 -0.49517 0
M  V30 3481 C 343.204 -3.29857 -0.860656 0
M  V30 3482 H 344.397 -2.86259 0.894205 0
M  V30 3483 H 341.95 -1.48029 0.501704 0
M  V30 3484 H 342.685 -2.77615 -1.67631 0
M  V30 3485 H 342.47 -3.9087 -0.310327 0
M  V30 3486 H 343.96 -3.96893 -1.29867 0
M  V30 3487 N 344.397 -0.483516 -1.5 0
M  V30 3488 C 345.36 0.292965 -2.2732 0
M  V30 3489 C 346.36 0.909499 -1.32608 0
M  V30 3490 O 347.55 0.776745 -1.55924 0
M  V30 3491 C 344.682 1.41854 -3.09984 0
M  V30 3492 H 345.875 -0.385289 -2.97415 0
M  V30 3493 H 343.428 -0.237942 -1.54478 0
M  V30 3494 H 344.163 2.13148 -2.44414 0
M  V30 3495 H 343.948 0.982114 -3.79601 0
M  V30 3496 H 345.438 1.96597 -3.68429 0
M  V30 3497 N 345.875 1.56104 -0.216619 0
M  V30 3498 C 346.822 2.2007 0.695531 0
M  V30 3499 C 347.792 1.15471 1.19397 0
M  V30 3500 O 348.977 1.43807 1.25396 0
M  V30 3501 C 346.117 2.88073 1.90021 0
M  V30 3502 C 345.23 4.07253 1.44113 0
M  V30 3503 C 344.365 4.63052 2.603 0
M  V30 3504 C 343.404 5.74545 2.11103 0
M  V30 3505 N 342.541 6.24656 3.20545 0
M  V30 3506 H 347.381 2.97655 0.143327 0
M  V30 3507 H 344.918 1.46982 0.0589934 0
M  V30 3508 H 346.876 3.25681 2.60745 0
M  V30 3509 H 345.506 2.13015 2.42538 0
M  V30 3510 H 344.558 3.75164 0.628999 0
M  V30 3511 H 345.87 4.8783 1.04036 0
M  V30 3512 H 345.024 5.03078 3.39113 0
M  V30 3513 H 343.763 3.81628 3.03663 0
M  V30 3514 H 342.768 5.34027 1.3075 0
M  V30 3515 H 343.993 6.57801 1.68746 0
M  V30 3516 H 341.939 5.46148 3.63399 0
M  V30 3517 H 341.856 7.00343 2.84704 0
M  V30 3518 H 343.124 6.69338 3.99508 0
M  V30 3519 N 347.353 -0.0568162 1.57498 0
M  V30 3520 C 348.583 -0.764515 1.91934 0
M  V30 3521 C 348.991 -1.70877 0.81227 0
M  V30 3522 O 348.334 -1.82351 -0.222213 0
M  V30 3523 C 348.396 -1.5994 3.21962 0
M  V30 3524 C 348.06 -0.822925 4.4953 0
M  V30 3525 C 349.057 -0.135464 5.19723 0
M  V30 3526 C 346.742 -0.785666 4.96117 0
M  V30 3527 C 348.736 0.578861 6.34766 0
M  V30 3528 C 346.423 -0.0675784 6.11063 0
M  V30 3529 C 347.421 0.613471 6.80239 0
M  V30 3530 O 347.109 1.31996 7.92989 0
M  V30 3531 H 346.841 -0.221647 0.63863 0
M  V30 3532 H 349.395 -0.0268218 2.05382 0
M  V30 3533 H 347.625 -2.38026 3.04763 0
M  V30 3534 H 349.314 -2.18715 3.41934 0
M  V30 3535 H 350.08 -0.155458 4.84751 0
M  V30 3536 H 345.959 -1.30524 4.42136 0
M  V30 3537 H 349.503 1.111 6.88696 0
M  V30 3538 H 345.4 -0.0455636 6.45484 0
M  V30 3539 H 346.168 1.23077 8.09194 0
M  V30 3540 N 348.832 -1.54138 -0.328536 0
M  V30 3541 C 349.764 -1.79509 -1.4251 0
M  V30 3542 C 350.777 -0.67688 -1.48061 0
M  V30 3543 O 351.966 -0.953898 -1.50874 0
M  V30 3544 C 349.066 -1.89337 -2.81078 0
M  V30 3545 C 348.239 -3.19443 -2.98789 0
M  V30 3546 C 347.298 -3.20036 -4.17688 0
M  V30 3547 O 346.324 -3.93697 -4.11086 0
M  V30 3548 N 347.526 -2.43467 -5.26976 0
M  V30 3549 H 350.291 -2.74139 -1.21111 0
M  V30 3550 H 347.852 -1.53373 -0.518499 0
M  V30 3551 H 349.844 -1.87167 -3.58818 0
M  V30 3552 H 348.414 -1.01826 -2.95551 0
M  V30 3553 H 347.634 -3.34614 -2.08391 0
M  V30 3554 H 348.922 -4.05354 -3.07515 0
M  V30 3555 H 348.32 -1.83201 -5.35214 0
M  V30 3556 H 346.877 -2.4708 -6.03154 0
M  V30 3557 N 350.31 0.590341 -1.46126 0
M  V30 3558 C 351.24 1.71032 -1.58966 0
M  V30 3559 C 352.221 1.64302 -0.440335 0
M  V30 3560 O 353.406 1.82436 -0.665634 0
M  V30 3561 C 350.536 3.09665 -1.57241 0
M  V30 3562 C 349.49 3.31221 -2.71066 0
M  V30 3563 C 348.816 4.70303 -2.54399 0
M  V30 3564 C 350.116 3.19796 -4.1295 0
M  V30 3565 H 351.81 1.60543 -2.52718 0
M  V30 3566 H 349.356 0.770933 -1.21625 0
M  V30 3567 H 351.309 3.87831 -1.64819 0
M  V30 3568 H 350.033 3.21036 -0.600289 0
M  V30 3569 H 348.692 2.55452 -2.62944 0
M  V30 3570 H 348.34 4.78429 -1.55288 0
M  V30 3571 H 348.04 4.85679 -3.30741 0
M  V30 3572 H 349.564 5.50647 -2.63857 0
M  V30 3573 H 350.978 3.87815 -4.22223 0
M  V30 3574 H 349.375 3.46696 -4.89818 0
M  V30 3575 H 350.445 2.16983 -4.33643 0
M  V30 3576 N 351.788 1.33704 0.83433 0
M  V30 3577 C 353.065 1.16011 1.57483 0
M  V30 3578 C 353.445 -0.27176 2.09343 0
M  V30 3579 O 352.793 -1.27146 1.89858 0
M  V30 3580 C 353.003 2.20507 2.70514 0
M  V30 3581 C 354.351 2.54898 3.39577 0
M  V30 3582 O 355.375 2.19209 2.80759 0
M  V30 3583 O 354.234 3.16158 4.45765 0
M  V30 3584 H 351.328 0.448992 0.694503 0
M  V30 3585 H 353.874 1.453 0.876691 0
M  V30 3586 H 352.646 3.16667 2.29865 0
M  V30 3587 H 352.269 1.92329 3.47987 0
M  V30 3588 N 353.266 -1.05314 1.17247 0
M  V30 3589 C 354.677 -1.59753 0.96623 0
M  V30 3590 C 355.028 -1.9005 -0.487378 0
M  V30 3591 O 354.153 -1.68126 -1.36245 0
M  V30 3592 C 354.748 -2.90249 1.74759 0
M  V30 3593 C 353.307 -3.41352 1.58606 0
M  V30 3594 C 352.454 -2.15103 1.75002 0
M  V30 3595 H 355.405 -0.881406 1.31973 0
M  V30 3596 H 355.426 -3.60097 1.22925 0
M  V30 3597 H 354.938 -2.68166 2.8055 0
M  V30 3598 H 353.039 -3.68474 0.552985 0
M  V30 3599 H 353.152 -4.16019 2.37624 0
M  V30 3600 H 351.516 -2.25804 1.17833 0
M  V30 3601 H 352.299 -1.95491 2.82202 0
M  V30 3602 N 354.744 -0.972509 -1.24016 0
M  V30 3603 C 355.972 -0.654803 -1.96265 0
M  V30 3604 C 356.387 0.776708 -1.72083 0
M  V30 3605 O 355.744 1.52171 -1.00748 0
M  V30 3606 C 355.795 -0.92592 -3.49441 0
M  V30 3607 O 355.516 -2.30116 -3.72798 0
M  V30 3608 C 357.017 -0.623068 -4.38899 0
M  V30 3609 H 354.237 -0.243907 -0.6251 0
M  V30 3610 H 356.781 -1.30175 -1.57717 0
M  V30 3611 H 354.936 -0.325108 -3.86033 0
M  V30 3612 H 355.35 -2.38483 -4.67147 0
M  V30 3613 H 356.824 -0.863189 -5.45209 0
M  V30 3614 H 357.301 0.442754 -4.36963 0
M  V30 3615 H 357.907 -1.204 -4.07902 0
M  V30 3616 N 356.222 1.38976 -0.743202 0
M  V30 3617 C 357.185 2.28901 -0.117014 0
M  V30 3618 C 358.185 1.46698 0.658503 0
M  V30 3619 O 359.375 1.67274 0.486305 0
M  V30 3620 C 356.507 3.30309 0.84315 0
M  V30 3621 H 357.7 2.8578 -0.909373 0
M  V30 3622 H 355.253 1.47761 -0.509547 0
M  V30 3623 H 355.988 2.785 1.66157 0
M  V30 3624 H 355.773 3.91029 0.289594 0
M  V30 3625 H 357.263 3.97577 1.2776 0
M  V30 3626 N 357.7 0.491464 1.49741 0
M  V30 3627 C 358.925 -0.0557177 2.07325 0
M  V30 3628 C 359.35 -1.30925 1.35056 0
M  V30 3629 O 358.708 -1.76733 0.404365 0
M  V30 3630 C 358.756 -0.302074 3.59333 0
M  V30 3631 O 357.86 -1.37868 3.88672 0
M  V30 3632 H 357.201 0.0219956 0.663636 0
M  V30 3633 H 359.731 0.688352 1.92673 0
M  V30 3634 H 359.741 -0.536464 4.04458 0
M  V30 3635 H 358.416 0.61383 4.11345 0
M  V30 3636 H 356.993 -1.12999 3.55367 0
M  V30 3637 N 359.178 -1.55987 0.224894 0
M  V30 3638 C 360.427 -1.97566 -0.406273 0
M  V30 3639 C 360.74 -1.11569 -1.6066 0
M  V30 3640 O 361.946 -1.43062 -2.3075 0
M  V30 3641 C 360.402 -3.51474 -0.774207 0
M  V30 3642 C 360.01 -4.46179 0.403496 0
M  V30 3643 C 361.754 -4.01758 -1.37079 0
M  V30 3644 C 359.661 -5.91399 0.0129412 0
M  V30 3645 H 358.591 -0.737777 -0.155565 0
M  V30 3646 H 361.242 -1.80659 0.321635 0
M  V30 3647 H 359.624 -3.63994 -1.55963 0
M  V30 3648 H 360.798 -4.45409 1.18101 0
M  V30 3649 H 359.113 -4.06255 0.913536 0
M  V30 3650 H 361.71 -5.07756 -1.67596 0
M  V30 3651 H 362.053 -3.47805 -2.28773 0
M  V30 3652 H 362.586 -3.92475 -0.648733 0
M  V30 3653 H 359.325 -6.49341 0.896451 0
M  V30 3654 H 358.845 -5.95356 -0.728821 0
M  V30 3655 H 360.524 -6.45683 -0.412582 0
M  V30 3656 N 360.656 0.0484629 -1.57525 0
M  V30 3657 C 361.881 0.759177 -1.93006 0
M  V30 3658 C 362.306 1.69125 -0.823317 0
M  V30 3659 O 361.664 1.79931 0.222364 0
M  V30 3660 C 361.712 1.50899 -3.27509 0
M  V30 3661 O 360.816 2.62112 -3.18388 0
M  V30 3662 H 360.157 0.205564 -0.631379 0
M  V30 3663 H 362.687 0.00972959 -2.04598 0
M  V30 3664 H 362.697 1.88317 -3.6194 0
M  V30 3665 H 361.372 0.825269 -4.0763 0
M  V30 3666 H 359.949 2.27379 -2.95556 0
M  V30 3667 N 362.134 1.5431 0.320358 0
M  V30 3668 C 363.097 1.83195 1.3774 0
M  V30 3669 C 364.097 0.703906 1.44575 0
M  V30 3670 O 365.287 0.972214 1.44546 0
M  V30 3671 C 362.419 1.99487 2.76438 0
M  V30 3672 H 363.612 2.77642 1.1338 0
M  V30 3673 H 361.165 1.46076 0.556012 0
M  V30 3674 H 361.9 1.07262 3.06048 0
M  V30 3675 H 361.685 2.81575 2.7287 0
M  V30 3676 H 363.175 2.23271 3.52902 0
M  V30 3677 N 363.613 -0.582584 1.46437 0
M  V30 3678 C 364.56 -1.69164 1.5701 0
M  V30 3679 C 365.53 -1.60847 0.414403 0
M  V30 3680 O 366.715 -1.80058 0.631171 0
M  V30 3681 C 363.855 -3.075 1.56646 0
M  V30 3682 C 362.968 -3.2644 2.82951 0
M  V30 3683 C 362.103 -4.55026 2.7409 0
M  V30 3684 C 361.142 -4.6731 3.95333 0
M  V30 3685 N 360.279 -5.87221 3.84858 0
M  V30 3686 H 365.119 -1.59464 2.51744 0
M  V30 3687 H 362.656 -0.777186 1.24893 0
M  V30 3688 H 364.614 -3.8757 1.5442 0
M  V30 3689 H 363.244 -3.16096 0.654439 0
M  V30 3690 H 362.296 -2.39974 2.95155 0
M  V30 3691 H 363.608 -3.31385 3.72808 0
M  V30 3692 H 362.762 -5.43324 2.6997 0
M  V30 3693 H 361.501 -4.52519 1.81873 0
M  V30 3694 H 360.506 -3.77429 3.99784 0
M  V30 3695 H 361.731 -4.71595 4.88646 0
M  V30 3696 H 359.677 -5.85712 2.95427 0
M  V30 3697 H 359.594 -5.93435 4.6837 0
M  V30 3698 H 360.862 -6.7795 3.84713 0
M  V30 3699 N 365.091 -1.34144 -0.827227 0
M  V30 3700 C 366.337 -1.26446 -1.58554 0
M  V30 3701 C 366.67 0.1664 -1.93486 0
M  V30 3702 O 365.945 1.1107 -1.59667 0
M  V30 3703 C 366.228 -2.15111 -2.8879 0
M  V30 3704 C 366.081 -3.66712 -2.60465 0
M  V30 3705 C 367.4 -2.03311 -3.90324 0
M  V30 3706 H 364.519 -0.46067 -0.575284 0
M  V30 3707 H 367.161 -1.64356 -0.953269 0
M  V30 3708 H 365.311 -1.8291 -3.42748 0
M  V30 3709 H 366.983 -4.09259 -2.1285 0
M  V30 3710 H 365.226 -3.88014 -1.93978 0
M  V30 3711 H 365.897 -4.24112 -3.53317 0
M  V30 3712 H 368.373 -2.31574 -3.45706 0
M  V30 3713 H 367.249 -2.67582 -4.79261 0
M  V30 3714 H 367.51 -1.00879 -4.30437 0
M  V30 3715 N 366.569 1.04691 -1.17803 0
M  V30 3716 C 367.517 2.14665 -0.895635 0
M  V30 3717 C 368.511 1.68806 0.141679 0
M  V30 3718 O 369.717 1.79999 -0.00587914 0
M  V30 3719 H 366.092 0.701038 -0.272121 0
M  V30 3720 H 368.063 2.35685 -1.83017 0
M  V30 3721 C 366.812 3.45019 -0.430962 0
M  V30 3722 H 366.135 3.8071 -1.22064 0
M  V30 3723 H 367.575 4.23125 -0.272301 0
M  V30 3724 C 366.034 3.25943 0.852207 0
M  V30 3725 O 366.564 3.5296 1.91786 0
M  V30 3726 N 364.77 2.79304 0.802346 0
M  V30 3727 H 364.317 2.57518 -0.0650788 0
M  V30 3728 H 364.275 2.66921 1.66134 0
M  V30 3729 N 368.047 0.979072 1.23499 0
M  V30 3730 C 368.995 0.510604 2.26926 0
M  V30 3731 C 369.989 -0.431691 1.63807 0
M  V30 3732 O 371.195 -0.30573 1.77385 0
M  V30 3733 H 367.57 0.146688 0.737554 0
M  V30 3734 H 369.541 1.39466 2.63803 0
M  V30 3735 C 368.29 -0.172658 3.47271 0
M  V30 3736 H 367.613 0.543331 3.96091 0
M  V30 3737 H 369.053 -0.464101 4.21452 0
M  V30 3738 C 367.512 -1.40345 3.06276 0
M  V30 3739 O 368.042 -2.49978 3.14442 0
M  V30 3740 N 366.248 -1.27362 2.61203 0
M  V30 3741 H 365.795 -0.381584 2.54758 0
M  V30 3742 H 365.753 -2.09822 2.34141 0
M  V30 3743 N 369.525 -1.3858 0.750561 0
M  V30 3744 C 370.75 -2.04997 0.314812 0
M  V30 3745 C 371.175 -1.56235 -1.04749 0
M  V30 3746 O 370.533 -0.712981 -1.66692 0
M  V30 3747 C 370.581 -3.58961 0.343415 0
M  V30 3748 O 369.685 -4.07025 -0.663628 0
M  V30 3749 H 369.026 -0.649081 0.139962 0
M  V30 3750 H 371.556 -1.77313 1.02084 0
M  V30 3751 H 371.566 -4.07542 0.193233 0
M  V30 3752 H 370.241 -3.93811 1.33738 0
M  V30 3753 H 368.818 -3.6982 -0.478307 0
M  V30 3754 N 371.003 -0.499398 -1.49478 0
M  V30 3755 C 372.228 0.044722 -2.07352 0
M  V30 3756 C 372.653 1.30207 -1.35749 0
M  V30 3757 O 372.011 1.76516 -0.413732 0
M  V30 3758 C 372.059 0.283013 -3.59488 0
M  V30 3759 O 371.163 1.35804 -3.89398 0
M  V30 3760 H 370.504 -0.0255147 -0.66351 0
M  V30 3761 H 373.034 -0.698561 -1.92305 0
M  V30 3762 H 373.044 0.515007 -4.04737 0
M  V30 3763 H 371.719 -0.635636 -4.11014 0
M  V30 3764 H 370.296 1.11113 -3.55961 0
M  V30 3765 N 372.481 1.55866 -0.233164 0
M  V30 3766 C 373.411 2.23783 0.666599 0
M  V30 3767 C 374.392 1.21343 1.19205 0
M  V30 3768 O 375.577 1.4996 1.23392 0
M  V30 3769 C 372.707 2.92671 1.86978 0
M  V30 3770 C 371.661 4.01682 1.47768 0
M  V30 3771 C 370.987 4.57926 2.76058 0
M  V30 3772 C 372.287 5.18126 0.658993 0
M  V30 3773 H 373.981 2.99232 0.100306 0
M  V30 3774 H 371.527 1.43924 0.046804 0
M  V30 3775 H 373.48 3.3888 2.50476 0
M  V30 3776 H 372.204 2.14688 2.46123 0
M  V30 3777 H 370.863 3.56222 0.866106 0
M  V30 3778 H 370.511 3.76659 3.33372 0
M  V30 3779 H 370.211 5.31505 2.50552 0
M  V30 3780 H 371.735 5.06859 3.40479 0
M  V30 3781 H 373.149 5.60644 1.19795 0
M  V30 3782 H 371.546 5.98009 0.500552 0
M  V30 3783 H 372.616 4.83763 -0.331856 0
M  V30 3784 N 373.959 -0.0401083 1.57549 0
M  V30 3785 C 375.208 -0.732108 1.87944 0
M  V30 3786 C 375.521 -1.77107 0.830206 0
M  V30 3787 O 376.727 -2.51488 1.02302 0
M  V30 3788 C 375.183 -1.35315 3.33494 0
M  V30 3789 C 374.791 -0.351105 4.46622 0
M  V30 3790 C 376.535 -2.02566 3.73051 0
M  V30 3791 C 374.442 -0.979859 5.83226 0
M  V30 3792 H 373.372 -0.277188 0.701201 0
M  V30 3793 H 376.023 0.0138501 1.83495 0
M  V30 3794 H 374.405 -2.14844 3.32653 0
M  V30 3795 H 375.579 0.416674 4.58912 0
M  V30 3796 H 373.894 0.218708 4.15825 0
M  V30 3797 H 376.491 -2.50441 4.72423 0
M  V30 3798 H 376.834 -2.83904 3.04474 0
M  V30 3799 H 377.367 -1.29827 3.76018 0
M  V30 3800 H 374.106 -0.206135 6.55176 0
M  V30 3801 H 373.626 -1.71774 5.74677 0
M  V30 3802 H 375.305 -1.49046 6.29599 0
M  V30 3803 N 375.437 -1.54477 -0.31217 0
M  V30 3804 C 376.685 -1.72884 -1.04668 0
M  V30 3805 C 377.006 -0.511477 -1.88173 0
M  V30 3806 O 376.276 0.474407 -1.90069 0
M  V30 3807 H 374.856 -0.637461 -0.389425 0
M  V30 3808 H 377.518 -1.91807 -0.345852 0
M  V30 3809 H 376.614 -2.61334 -1.70619 0
M  V30 3810 N 376.915 0.57481 -1.46744 0
M  V30 3811 C 378.161 1.3347 -1.52688 0
M  V30 3812 C 378.494 1.93353 -0.181229 0
M  V30 3813 O 377.769 1.76912 0.808237 0
M  V30 3814 C 378.052 2.45811 -2.63152 0
M  V30 3815 C 377.905 1.90912 -4.07275 0
M  V30 3816 C 379.224 3.47822 -2.69644 0
M  V30 3817 H 376.343 0.483935 -0.555856 0
M  V30 3818 H 378.985 0.644968 -1.78718 0
M  V30 3819 H 377.135 3.04646 -2.41088 0
M  V30 3820 H 378.807 1.36473 -4.4065 0
M  V30 3821 H 377.05 1.21691 -4.16382 0
M  V30 3822 H 377.721 2.72042 -4.80309 0
M  V30 3823 H 380.197 2.9888 -2.895 0
M  V30 3824 H 379.073 4.23876 -3.48742 0
M  V30 3825 H 379.334 4.05555 -1.76005 0
M  V30 3826 N 378.394 1.34581 0.820102 0
M  V30 3827 C 379.642 1.26845 1.57336 0
M  V30 3828 C 379.963 -0.160667 1.94337 0
M  V30 3829 O 379.233 -1.09396 1.6251 0
M  V30 3830 H 377.813 0.466514 0.583415 0
M  V30 3831 H 380.475 1.68526 0.979027 0
M  V30 3832 H 379.571 1.87513 2.4949 0
M  V30 3833 N 379.872 -1.04064 1.18357 0
M  V30 3834 C 381.102 -1.80654 1.00238 0
M  V30 3835 C 381.51 -1.83713 -0.452362 0
M  V30 3836 O 380.853 -1.27135 -1.32599 0
M  V30 3837 C 380.915 -3.27582 1.48088 0
M  V30 3838 C 380.579 -3.48184 2.96002 0
M  V30 3839 C 381.576 -3.39372 3.93856 0
M  V30 3840 C 379.261 -3.7478 3.34433 0
M  V30 3841 C 381.255 -3.5686 5.28138 0
M  V30 3842 C 378.942 -3.91915 4.68877 0
M  V30 3843 C 379.94 -3.82956 5.65539 0
M  V30 3844 O 379.628 -3.996 6.97549 0
M  V30 3845 H 379.36 -0.575751 0.354241 0
M  V30 3846 H 381.914 -1.32044 1.57333 0
M  V30 3847 H 380.144 -3.77161 0.853588 0
M  V30 3848 H 381.833 -3.8573 1.2636 0
M  V30 3849 H 382.599 -3.18789 3.65511 0
M  V30 3850 H 378.478 -3.80852 2.59756 0
M  V30 3851 H 382.022 -3.49783 6.03571 0
M  V30 3852 H 377.919 -4.11992 4.96923 0
M  V30 3853 H 378.687 -4.1676 7.04452 0
M  V30 3854 N 381.35 -0.985608 -1.22978 0
M  V30 3855 C 382.578 -0.675582 -1.95559 0
M  V30 3856 C 382.993 0.758413 -1.72897 0
M  V30 3857 O 382.35 1.51094 -1.02357 0
M  V30 3858 C 382.401 -0.96293 -3.48439 0
M  V30 3859 O 382.122 -2.34057 -3.70336 0
M  V30 3860 C 383.623 -0.669585 -4.38214 0
M  V30 3861 H 380.843 -0.250523 -0.622478 0
M  V30 3862 H 383.387 -1.3184 -1.56328 0
M  V30 3863 H 381.542 -0.366033 -3.85667 0
M  V30 3864 H 381.956 -2.43424 -4.64591 0
M  V30 3865 H 383.43 -0.920967 -5.44263 0
M  V30 3866 H 383.907 0.396383 -4.37408 0
M  V30 3867 H 384.513 -1.2472 -4.06602 0
M  V30 3868 N 382.828 1.3818 -0.7579 0
M  V30 3869 C 383.76 2.2901 -0.0932177 0
M  V30 3870 C 384.773 1.47958 0.679136 0
M  V30 3871 O 385.962 1.70773 0.519514 0
M  V30 3872 C 383.062 3.26953 0.89192 0
M  V30 3873 C 382.235 4.37045 0.176303 0
M  V30 3874 C 381.294 5.15148 1.07281 0
M  V30 3875 O 380.32 5.66616 0.541728 0
M  V30 3876 N 381.522 5.28542 2.40049 0
M  V30 3877 H 384.287 2.86694 -0.873303 0
M  V30 3878 H 381.848 1.50007 -0.609054 0
M  V30 3879 H 383.84 3.76083 1.49479 0
M  V30 3880 H 382.41 2.70136 1.57306 0
M  V30 3881 H 381.63 3.89493 -0.607328 0
M  V30 3882 H 382.918 5.07801 -0.318718 0
M  V30 3883 H 382.316 4.88285 2.85647 0
M  V30 3884 H 380.873 5.8103 2.95376 0
M  V30 3885 N 384.306 0.507319 1.49211 0
M  V30 3886 C 385.534 -0.0315749 2.06876 0
M  V30 3887 C 385.949 -1.30241 1.36685 0
M  V30 3888 O 385.306 -1.76937 0.447152 0
M  V30 3889 C 385.357 -0.282627 3.60393 0
M  V30 3890 O 385.078 0.937835 4.27944 0
M  V30 3891 C 386.579 -0.864453 4.3479 0
M  V30 3892 H 383.799 0.0233048 0.670595 0
M  V30 3893 H 386.343 0.706484 1.91909 0
M  V30 3894 H 384.498 -0.97068 3.75042 0
M  V30 3895 H 384.912 0.704567 5.19746 0
M  V30 3896 H 386.386 -0.989664 5.43056 0
M  V30 3897 H 386.863 -1.86382 3.97692 0
M  V30 3898 H 387.469 -0.213672 4.24763 0
M  V30 3899 N 385.784 -1.5574 0.241426 0
M  V30 3900 C 386.714 -2.24133 -0.654722 0
M  V30 3901 C 387.695 -1.21974 -1.1856 0
M  V30 3902 O 388.88 -1.50612 -1.22595 0
M  V30 3903 C 386.01 -2.93659 -1.85423 0
M  V30 3904 C 384.964 -4.0246 -1.45636 0
M  V30 3905 C 384.29 -4.59383 -2.73626 0
M  V30 3906 C 385.59 -5.18468 -0.631506 0
M  V30 3907 H 387.284 -2.99281 -0.0844353 0
M  V30 3908 H 384.83 -1.43947 -0.0391707 0
M  V30 3909 H 386.783 -3.40203 -2.48676 0
M  V30 3910 H 385.507 -2.15991 -2.44981 0
M  V30 3911 H 384.166 -3.56676 -0.847202 0
M  V30 3912 H 383.814 -3.78422 -3.3137 0
M  V30 3913 H 383.514 -5.32826 -2.4773 0
M  V30 3914 H 385.038 -5.08658 -3.37786 0
M  V30 3915 H 386.452 -5.61272 -1.1682 0
M  V30 3916 H 384.849 -5.98266 -0.468831 0
M  V30 3917 H 385.919 -4.8358 0.357506 0
M  V30 3918 N 387.262 0.0317525 -1.57568 0
M  V30 3919 C 388.678 0.38735 -1.54828 0
M  V30 3920 C 388.878 1.7677 -0.967187 0
M  V30 3921 O 387.934 2.45581 -0.587063 0
M  V30 3922 C 389.247 0.291667 -2.99282 0
M  V30 3923 C 390.795 0.368946 -3.10818 0
M  V30 3924 C 391.27 0.302741 -4.56998 0
M  V30 3925 N 392.761 0.361617 -4.61786 0
M  V30 3926 C 393.496 0.333238 -5.72431 0
M  V30 3927 N 392.992 0.257308 -6.92322 0
M  V30 3928 N 394.785 0.382769 -5.60795 0
M  V30 3929 H 386.936 -0.871609 -1.93692 0
M  V30 3930 H 389.199 -0.331161 -0.888277 0
M  V30 3931 H 388.905 -0.656794 -3.45513 0
M  V30 3932 H 388.779 1.08638 -3.61217 0
M  V30 3933 H 391.166 1.30784 -2.64536 0
M  V30 3934 H 391.247 -0.455066 -2.5172 0
M  V30 3935 H 390.891 -0.632473 -5.03947 0
M  V30 3936 H 390.821 1.14482 -5.14005 0
M  V30 3937 H 393.312 0.422923 -3.75526 0
M  V30 3938 H 393.625 0.24068 -7.72425 0
M  V30 3939 H 391.97 0.223396 -6.94641 0
M  V30 3940 H 395.161 0.44006 -4.66027 0
M  V30 3941 H 395.334 0.357184 -6.47015 0
M  V30 3942 N 388.74 1.54641 0.303973 0
M  V30 3943 C 390.151 1.64811 0.877163 0
M  V30 3944 C 390.502 0.554838 1.88191 0
M  V30 3945 O 389.627 -0.309033 2.14182 0
M  V30 3946 C 390.222 2.9876 1.59775 0
M  V30 3947 C 388.781 3.11061 2.11938 0
M  V30 3948 C 387.928 2.60479 0.951097 0
M  V30 3949 H 390.879 1.58493 0.0810486 0
M  V30 3950 H 390.9 2.90017 2.46314 0
M  V30 3951 H 390.412 3.7831 0.866226 0
M  V30 3952 H 388.513 2.36225 2.88146 0
M  V30 3953 H 388.626 4.17171 2.35595 0
M  V30 3954 H 386.99 2.16859 1.33583 0
M  V30 3955 H 387.773 3.42504 0.233581 0
M  V30 3956 N 390.218 -0.567019 1.47046 0
M  V30 3957 C 391.466 -1.322 1.52864 0
M  V30 3958 C 391.787 -1.94088 0.188388 0
M  V30 3959 O 391.057 -1.7941 -0.786693 0
M  V30 3960 H 389.637 -0.490894 0.563056 0
M  V30 3961 H 392.299 -0.662879 1.83281 0
M  V30 3962 H 391.395 -2.12062 2.2899 0
M  V30 3963 N 391.696 -1.35014 -0.812953 0
M  V30 3964 C 392.942 -1.2812 -1.57204 0
M  V30 3965 C 393.275 0.145869 -1.93651 0
M  V30 3966 O 392.55 1.0937 -1.60836 0
M  V30 3967 C 392.833 -2.18162 -2.86492 0
M  V30 3968 C 392.686 -3.69454 -2.56561 0
M  V30 3969 C 394.005 -2.07439 -3.88145 0
M  V30 3970 H 391.124 -0.466746 -0.570366 0
M  V30 3971 H 393.766 -1.65357 -0.935783 0
M  V30 3972 H 391.916 -1.86535 -3.40789 0
M  V30 3973 H 393.588 -4.11493 -2.08497 0
M  V30 3974 H 391.831 -3.9005 -1.89851 0
M  V30 3975 H 392.502 -4.27835 -3.48799 0
M  V30 3976 H 394.978 -2.35228 -3.4323 0
M  V30 3977 H 393.854 -2.7265 -4.76396 0
M  V30 3978 H 394.115 -1.05439 -4.29343 0
M  V30 3979 N 393.175 1.03435 -1.18907 0
M  V30 3980 C 394.122 2.11591 -0.921837 0
M  V30 3981 C 395.092 1.65499 0.141226 0
M  V30 3982 O 396.277 1.908 0.000242829 0
M  V30 3983 C 393.417 3.42012 -0.460616 0
M  V30 3984 C 392.53 4.01682 -1.58982 0
M  V30 3985 C 391.665 5.20091 -1.08069 0
M  V30 3986 C 390.704 5.71805 -2.18416 0
M  V30 3987 N 389.841 6.81494 -1.68849 0
M  V30 3988 H 394.681 2.33787 -1.8479 0
M  V30 3989 H 392.218 1.1467 -0.921373 0
M  V30 3990 H 394.176 4.16834 -0.174642 0
M  V30 3991 H 392.806 3.19944 0.428467 0
M  V30 3992 H 391.858 3.24127 -1.99113 0
M  V30 3993 H 393.17 4.36084 -2.4214 0
M  V30 3994 H 392.324 6.02051 -0.749615 0
M  V30 3995 H 391.063 4.87209 -0.218771 0
M  V30 3996 H 390.068 4.88461 -2.5236 0
M  V30 3997 H 391.293 6.06728 -3.05054 0
M  V30 3998 H 389.239 6.50475 -0.849572 0
M  V30 3999 H 389.156 7.14994 -2.45601 0
M  V30 4000 H 390.424 7.67063 -1.38689 0
M  V30 4001 N 394.653 0.992116 1.22453 0
M  V30 4002 C 395.583 0.561677 2.26644 0
M  V30 4003 C 396.564 -0.411055 1.65059 0
M  V30 4004 O 397.749 -0.301861 1.9184 0
M  V30 4005 C 394.879 -0.125247 3.47074 0
M  V30 4006 C 393.833 0.765948 4.21091 0
M  V30 4007 C 393.159 -0.0538484 5.34673 0
M  V30 4008 C 394.459 2.06242 4.79856 0
M  V30 4009 H 396.153 1.43259 2.62902 0
M  V30 4010 H 393.699 0.690283 1.26377 0
M  V30 4011 H 395.652 -0.437764 4.1912 0
M  V30 4012 H 394.376 -1.03069 3.0991 0
M  V30 4013 H 393.035 1.0621 3.50878 0
M  V30 4014 H 392.683 -0.960188 4.9375 0
M  V30 4015 H 392.383 0.539415 5.85119 0
M  V30 4016 H 393.907 -0.360477 6.09535 0
M  V30 4017 H 395.321 1.8139 5.43848 0
M  V30 4018 H 393.718 2.60444 5.40638 0
M  V30 4019 H 394.788 2.74167 3.99951 0
M  V30 4020 N 396.131 -1.37776 0.765217 0
M  V30 4021 C 397.359 -2.04124 0.337767 0
M  V30 4022 C 397.774 -1.57715 -1.03785 0
M  V30 4023 O 397.131 -0.755447 -1.6613 0
M  V30 4024 C 397.182 -3.59658 0.364442 0
M  V30 4025 O 396.903 -4.04367 1.68579 0
M  V30 4026 C 398.404 -4.43236 -0.0754221 0
M  V30 4027 H 395.624 -0.655696 0.142491 0
M  V30 4028 H 398.168 -1.76238 1.03732 0
M  V30 4029 H 396.323 -3.86339 -0.286471 0
M  V30 4030 H 396.737 -4.98857 1.61993 0
M  V30 4031 H 398.211 -5.52 -0.00560067 0
M  V30 4032 H 398.688 -4.2455 -1.12491 0
M  V30 4033 H 399.294 -4.21767 0.547055 0
M  V30 4034 N 397.609 -0.515225 -1.4894 0
M  V30 4035 C 398.539 0.244628 -2.32215 0
M  V30 4036 C 399.52 0.949136 -1.41157 0
M  V30 4037 O 400.705 0.937783 -1.70057 0
M  V30 4038 C 397.835 1.30096 -3.22013 0
M  V30 4039 C 396.789 0.715486 -4.21977 0
M  V30 4040 C 396.115 1.87339 -5.00808 0
M  V30 4041 C 397.415 -0.302982 -5.2142 0
M  V30 4042 H 399.109 -0.450501 -2.95991 0
M  V30 4043 H 396.655 -0.218098 -1.42339 0
M  V30 4044 H 398.608 1.84037 -3.79089 0
M  V30 4045 H 397.332 2.02547 -2.56207 0
M  V30 4046 H 395.991 0.197715 -3.66066 0
M  V30 4047 H 395.639 2.58592 -4.31438 0
M  V30 4048 H 395.339 1.48764 -5.68457 0
M  V30 4049 H 396.863 2.41686 -5.60732 0
M  V30 4050 H 398.277 0.148802 -5.73107 0
M  V30 4051 H 396.674 -0.60532 -5.97039 0
M  V30 4052 H 397.744 -1.21395 -4.69459 0
M  V30 4053 N 399.087 1.5561 -0.249682 0
M  V30 4054 C 400.312 2.03865 0.381305 0
M  V30 4055 C 400.737 1.12769 1.50548 0
M  V30 4056 O 400.095 0.121189 1.80895 0
M  V30 4057 C 400.143 3.50101 0.863816 0
M  V30 4058 O 399.247 3.62132 1.97318 0
M  V30 4059 H 398.588 0.658827 0.0827194 0
M  V30 4060 H 401.118 2.01105 -0.376552 0
M  V30 4061 H 401.128 3.90975 1.1663 0
M  V30 4062 H 399.803 4.1588 0.0411816 0
M  V30 4063 H 398.38 3.33155 1.67517 0
M  V30 4064 N 400.565 -0.0233959 1.57583 0
M  V30 4065 C 401.528 -1.00693 2.05897 0
M  V30 4066 C 402.528 -1.28693 0.964092 0
M  V30 4067 O 403.718 -1.23602 1.22753 0
M  V30 4068 C 400.85 -2.33825 2.4807 0
M  V30 4069 H 402.043 -0.589476 2.9405 0
M  V30 4070 H 399.596 -0.270354 1.53944 0
M  V30 4071 H 400.331 -2.80307 1.6309 0
M  V30 4072 H 400.116 -2.1483 3.2801 0
M  V30 4073 H 401.606 -3.04426 2.85857 0
M  V30 4074 N 402.043 -1.548 -0.295768 0
M  V30 4075 C 402.973 -1.89115 -1.36959 0
M  V30 4076 C 403.954 -0.75059 -1.52644 0
M  V30 4077 O 405.139 -1.00678 -1.66065 0
M  V30 4078 C 402.269 -2.14307 -2.73295 0
M  V30 4079 C 401.223 -3.30151 -2.72368 0
M  V30 4080 C 400.549 -3.40772 -4.12042 0
M  V30 4081 C 401.849 -4.67126 -2.33646 0
M  V30 4082 H 403.543 -2.79053 -1.08488 0
M  V30 4083 H 401.089 -1.34266 -0.520443 0
M  V30 4084 H 403.042 -2.36898 -3.48507 0
M  V30 4085 H 401.766 -1.21145 -3.03301 0
M  V30 4086 H 400.425 -3.0749 -1.99613 0
M  V30 4087 H 400.073 -2.45117 -4.39234 0
M  V30 4088 H 399.773 -4.18645 -4.12322 0
M  V30 4089 H 401.297 -3.6563 -4.89027 0
M  V30 4090 H 402.711 -4.89414 -2.98575 0
M  V30 4091 H 401.108 -5.47751 -2.45129 0
M  V30 4092 H 402.178 -4.67489 -1.28772 0
M  V30 4093 N 403.521 0.559213 -1.47345 0
M  V30 4094 C 404.767 1.31843 -1.54095 0
M  V30 4095 C 405.1 1.93149 -0.201726 0
M  V30 4096 O 404.375 1.77759 0.789428 0
M  V30 4097 C 404.658 2.43006 -2.65744 0
M  V30 4098 C 404.511 1.86581 -4.09277 0
M  V30 4099 C 405.83 3.44943 -2.73318 0
M  V30 4100 H 402.949 0.478012 -0.560957 0
M  V30 4101 H 405.591 0.625977 -1.79392 0
M  V30 4102 H 403.741 3.02072 -2.44305 0
M  V30 4103 H 405.413 1.31792 -4.42073 0
M  V30 4104 H 403.656 1.17268 -4.17649 0
M  V30 4105 H 404.327 2.66933 -4.83168 0
M  V30 4106 H 406.803 2.95793 -2.92653 0
M  V30 4107 H 405.679 4.20153 -3.53218 0
M  V30 4108 H 405.94 4.03665 -1.80296 0
M  V30 4109 N 404.999 1.35443 0.805782 0
M  V30 4110 C 406.276 1.19325 1.54987 0
M  V30 4111 C 406.656 -0.227294 2.09873 0
M  V30 4112 O 406.004 -1.2309 1.92512 0
M  V30 4113 C 406.214 2.26196 2.65775 0
M  V30 4114 C 407.562 2.62043 3.34094 0
M  V30 4115 O 408.586 2.25115 2.76046 0
M  V30 4116 O 407.445 3.25542 4.38958 0
M  V30 4117 H 404.539 0.463623 0.684823 0
M  V30 4118 H 407.085 1.47127 0.845674 0
M  V30 4119 H 405.857 3.21471 2.23096 0
M  V30 4120 H 405.48 1.99667 3.43829 0
M  V30 4121 N 406.477 -1.02803 1.19454 0
M  V30 4122 C 407.725 -1.75869 0.995722 0
M  V30 4123 C 408.046 -1.89138 -0.474543 0
M  V30 4124 O 407.316 -1.42558 -1.34366 0
M  V30 4125 H 405.896 -0.651511 0.365435 0
M  V30 4126 H 408.558 -1.24004 1.50363 0
M  V30 4127 H 407.654 -2.76661 1.44447 0
M  V30 4128 N 407.956 -0.998596 -1.21925 0
M  V30 4129 C 408.903 -0.553621 -2.24062 0
M  V30 4130 C 409.873 0.416999 -1.6078 0
M  V30 4131 O 411.058 0.320482 -1.88089 0
M  V30 4132 C 408.198 0.119959 -3.44891 0
M  V30 4133 C 407.311 -0.893077 -4.22668 0
M  V30 4134 C 406.446 -0.192424 -5.30851 0
M  V30 4135 C 405.485 -1.19344 -6.00353 0
M  V30 4136 N 404.622 -0.520707 -7.00166 0
M  V30 4137 H 409.462 -1.4293 -2.61486 0
M  V30 4138 H 406.999 -0.715838 -1.28507 0
M  V30 4139 H 408.957 0.527459 -4.13852 0
M  V30 4140 H 407.587 0.959389 -3.08214 0
M  V30 4141 H 406.639 -1.41886 -3.52948 0
M  V30 4142 H 407.951 -1.65512 -4.70539 0
M  V30 4143 H 407.105 0.271515 -6.06092 0
M  V30 4144 H 405.844 0.602075 -4.83969 0
M  V30 4145 H 404.849 -1.66795 -5.23889 0
M  V30 4146 H 406.074 -1.98891 -6.49322 0
M  V30 4147 H 404.02 0.254252 -6.55507 0
M  V30 4148 H 403.937 -1.2211 -7.46073 0
M  V30 4149 H 405.205 -0.0797596 -7.79459 0
M  V30 4150 N 409.434 1.37368 -0.772513 0
M  V30 4151 C 410.659 2.0447 -0.347386 0
M  V30 4152 C 411.084 1.57882 1.0225 0
M  V30 4153 O 410.442 0.73941 1.65537 0
M  V30 4154 C 410.49 3.58369 -0.400479 0
M  V30 4155 O 409.594 4.0803 0.598789 0
M  V30 4156 H 408.935 0.646773 -0.15027 0
M  V30 4157 H 411.465 1.75667 -1.04892 0
M  V30 4158 H 411.475 4.07183 -0.258045 0
M  V30 4159 H 410.15 3.91633 -1.39986 0
M  V30 4160 H 408.727 3.70534 0.419411 0
M  V30 4161 N 410.912 0.523116 1.48665 0
M  V30 4162 C 412.161 -0.01544 2.01694 0
M  V30 4163 C 412.474 -1.35975 1.40606 0
M  V30 4164 O 413.68 -1.98627 1.85093 0
M  V30 4165 C 412.136 -0.0779303 3.59816 0
M  V30 4166 C 411.744 1.26107 4.29885 0
M  V30 4167 C 413.488 -0.565678 4.20714 0
M  V30 4168 C 411.395 1.15954 5.79921 0
M  V30 4169 H 410.325 -0.00954163 0.75394 0
M  V30 4170 H 412.976 0.665865 1.70993 0
M  V30 4171 H 411.358 -0.824165 3.87329 0
M  V30 4172 H 412.532 2.02233 4.14051 0
M  V30 4173 H 410.847 1.68401 3.80828 0
M  V30 4174 H 413.444 -0.6595 5.30617 0
M  V30 4175 H 413.787 -1.56984 3.85567 0
M  V30 4176 H 414.32 0.12467 3.97605 0
M  V30 4177 H 411.059 2.13864 6.19631 0
M  V30 4178 H 410.579 0.439529 5.98187 0
M  V30 4179 H 412.258 0.847361 6.41427 0
M  V30 4180 N 412.39 -1.55475 0.257931 0
M  V30 4181 C 413.338 -2.23244 -0.653076 0
M  V30 4182 C 414.332 -1.22366 -1.17144 0
M  V30 4183 O 415.538 -1.40347 -1.12706 0
M  V30 4184 H 411.913 -0.716247 -0.229117 0
M  V30 4185 H 413.884 -2.98343 -0.0584788 0
M  V30 4186 C 412.633 -2.95401 -1.83395 0
M  V30 4187 H 411.956 -3.72802 -1.44424 0
M  V30 4188 H 413.396 -3.46165 -2.44838 0
M  V30 4189 C 411.855 -1.99895 -2.71189 0
M  V30 4190 O 412.385 -1.53909 -3.71046 0
M  V30 4191 N 410.591 -1.6676 -2.3799 0
M  V30 4192 H 410.138 -2.04352 -1.56837 0
M  V30 4193 H 410.096 -1.03127 -2.97005 0
M  V30 4194 N 413.868 0.0150385 -1.57593 0
M  V30 4195 C 414.831 0.995996 -2.06428 0
M  V30 4196 C 415.831 1.2818 -0.970903 0
M  V30 4197 O 417.021 1.22949 -1.23406 0
M  V30 4198 C 414.153 2.32506 -2.49307 0
M  V30 4199 H 415.346 0.573873 -2.94358 0
M  V30 4200 H 412.899 0.262186 -1.54085 0
M  V30 4201 H 413.634 2.79438 -1.64575 0
M  V30 4202 H 413.419 2.13087 -3.29145 0
M  V30 4203 H 414.909 3.02906 -2.87468 0
M  V30 4204 N 415.346 1.54954 0.287554 0
M  V30 4205 C 416.594 1.74528 1.01904 0
M  V30 4206 C 416.915 0.541349 1.87335 0
M  V30 4207 O 416.185 -0.444108 1.908 0
M  V30 4208 H 414.765 0.643576 0.379235 0
M  V30 4209 H 417.427 1.92333 0.315294 0
M  V30 4210 H 416.523 2.64015 1.6644 0
M  V30 4211 N 416.824 -0.551391 1.4764 0
M  V30 4212 C 418.072 -1.30572 1.54258 0
M  V30 4213 C 418.393 -1.93877 0.208963 0
M  V30 4214 O 417.663 -1.80234 -0.767619 0
M  V30 4215 H 416.243 -0.484894 0.568231 0
M  V30 4216 H 418.905 -0.643402 1.83974 0
M  V30 4217 H 418.001 -2.09621 2.31226 0
M  V30 4218 N 418.302 -1.35869 -0.798587 0
M  V30 4219 C 419.252 -1.25982 -1.90033 0
M  V30 4220 C 420.236 -0.153303 -1.60168 0
M  V30 4221 O 421.428 -0.38527 -1.72756 0
M  V30 4222 C 418.557 -1.04211 -3.27101 0
M  V30 4223 C 417.643 -2.19289 -3.63006 0
M  V30 4224 N 418.034 -3.44559 -3.70287 0
M  V30 4225 C 416.332 -2.10852 -3.93011 0
M  V30 4226 C 417.033 -4.20283 -4.02166 0
M  V30 4227 N 416.009 -3.49124 -4.16669 0
M  V30 4228 H 419.811 -2.20883 -1.93876 0
M  V30 4229 H 417.325 -1.28457 -0.993614 0
M  V30 4230 H 419.322 -0.952155 -4.05881 0
M  V30 4231 H 417.982 -0.102013 -3.2454 0
M  V30 4232 H 418.993 -3.7881 -3.53162 0
M  V30 4233 H 415.67 -1.24744 -3.98428 0
M  V30 4234 H 417.06 -5.28575 -4.14799 0
M  V30 4235 N 419.78 1.02168 -1.19998 0
M  V30 4236 C 420.727 2.10601 -0.944228 0
M  V30 4237 C 421.697 1.65639 0.123664 0
M  V30 4238 O 422.882 1.9079 -0.0199941 0
M  V30 4239 C 420.022 3.41504 -0.496865 0
M  V30 4240 C 419.135 3.99973 -1.63234 0
M  V30 4241 C 418.27 5.18915 -1.13579 0
M  V30 4242 C 417.309 5.69456 -2.24468 0
M  V30 4243 N 416.446 6.79665 -1.76068 0
M  V30 4244 H 421.286 2.31814 -1.8726 0
M  V30 4245 H 418.823 1.13686 -0.933483 0
M  V30 4246 H 420.781 4.16626 -0.218843 0
M  V30 4247 H 419.411 3.2038 0.394508 0
M  V30 4248 H 418.463 3.21997 -2.0254 0
M  V30 4249 H 419.775 4.33492 -2.46752 0
M  V30 4250 H 418.929 6.01222 -0.813429 0
M  V30 4251 H 417.668 4.8695 -0.270434 0
M  V30 4252 H 416.673 4.85757 -2.57526 0
M  V30 4253 H 417.898 6.03459 -3.11472 0
M  V30 4254 H 415.844 6.49538 -0.918516 0
M  V30 4255 H 415.761 7.12349 -2.5317 0
M  V30 4256 H 417.029 7.65549 -1.46817 0
M  V30 4257 N 421.258 1.00505 1.21394 0
M  V30 4258 C 422.504 0.688793 1.90745 0
M  V30 4259 C 422.837 -0.778486 1.77914 0
M  V30 4260 O 422.112 -1.56433 1.15581 0
M  V30 4261 C 422.395 1.11063 3.42545 0
M  V30 4262 C 422.248 2.63737 3.64367 0
M  V30 4263 C 423.567 0.673059 4.34923 0
M  V30 4264 H 420.686 0.251702 0.692687 0
M  V30 4265 H 423.328 1.25074 1.43026 0
M  V30 4266 H 421.478 0.632508 3.83317 0
M  V30 4267 H 423.15 3.19313 3.32922 0
M  V30 4268 H 421.393 3.05248 3.08231 0
M  V30 4269 H 422.064 2.88305 4.70727 0
M  V30 4270 H 424.54 1.08392 4.01734 0
M  V30 4271 H 423.416 0.996383 5.39781 0
M  V30 4272 H 423.677 -0.425808 4.40045 0
M  V30 4273 N 422.737 -1.36956 0.779787 0
M  V30 4274 C 423.985 -1.99097 0.347079 0
M  V30 4275 C 424.306 -1.62206 -1.08232 0
M  V30 4276 O 423.576 -0.891373 -1.74446 0
M  V30 4277 H 422.156 -0.736409 0.125342 0
M  V30 4278 H 424.818 -1.67308 0.999696 0
M  V30 4279 H 423.914 -3.09107 0.431162 0
M  V30 4280 N 424.215 -0.530993 -1.48385 0
M  V30 4281 C 425.145 0.219985 -2.32461 0
M  V30 4282 C 426.126 0.934111 -1.42156 0
M  V30 4283 O 427.311 0.919694 -1.71042 0
M  V30 4284 C 424.441 1.26674 -3.23375 0
M  V30 4285 C 423.395 0.67069 -4.22712 0
M  V30 4286 C 422.721 1.82017 -5.02766 0
M  V30 4287 C 424.021 -0.358268 -5.2107 0
M  V30 4288 H 425.715 -0.48187 -2.95497 0
M  V30 4289 H 423.261 -0.233182 -1.42099 0
M  V30 4290 H 425.214 1.80006 -3.81019 0
M  V30 4291 H 423.938 1.99818 -2.58341 0
M  V30 4292 H 422.597 0.158878 -3.66256 0
M  V30 4293 H 422.245 2.54002 -4.34157 0
M  V30 4294 H 421.945 1.42727 -5.70003 0
M  V30 4295 H 423.469 2.35725 -5.63264 0
M  V30 4296 H 424.883 0.0880081 -5.73232 0
M  V30 4297 H 423.28 -0.66861 -5.96364 0
M  V30 4298 H 424.35 -1.26367 -4.68145 0
M  V30 4299 N 425.693 1.55336 -0.266172 0
M  V30 4300 C 426.656 2.20878 0.612001 0
M  V30 4301 C 427.656 1.18388 1.08816 0
M  V30 4302 O 428.846 1.4335 0.989774 0
M  V30 4303 C 425.978 2.86765 1.84332 0
M  V30 4304 H 427.171 2.99873 0.0398718 0
M  V30 4305 H 424.724 1.56291 -0.0167309 0
M  V30 4306 H 425.459 2.11759 2.45619 0
M  V30 4307 H 425.244 3.61862 1.5099 0
M  V30 4308 H 426.734 3.36867 2.46801 0
M  V30 4309 N 427.171 -0.0066808 1.57599 0
M  V30 4310 C 428.101 -0.999296 2.11036 0
M  V30 4311 C 429.082 -1.36278 1.01795 0
M  V30 4312 O 430.267 -1.4477 1.29442 0
M  V30 4313 C 427.397 -2.29328 2.60818 0
M  V30 4314 C 426.351 -2.07159 3.74525 0
M  V30 4315 C 425.677 -3.42512 4.10596 0
M  V30 4316 C 426.977 -1.43959 5.02069 0
M  V30 4317 H 428.671 -0.554382 2.94223 0
M  V30 4318 H 426.217 -0.265221 1.41536 0
M  V30 4319 H 428.17 -2.99117 2.96828 0
M  V30 4320 H 426.894 -2.7592 1.74745 0
M  V30 4321 H 425.553 -1.39797 3.38899 0
M  V30 4322 H 425.201 -3.86795 3.21556 0
M  V30 4323 H 424.901 -3.28498 4.87199 0
M  V30 4324 H 426.425 -4.13628 4.4916 0
M  V30 4325 H 427.839 -2.03696 5.35893 0
M  V30 4326 H 426.236 -1.40452 5.83432 0
M  V30 4327 H 427.306 -0.407992 4.83181 0
M  V30 4328 N 428.649 -1.55105 -0.279332 0
M  V30 4329 C 429.559 -1.90638 -1.36727 0
M  V30 4330 C 430.575 -0.802899 -1.54368 0
M  V30 4331 O 431.751 -1.10138 -1.68616 0
M  V30 4332 C 428.816 -2.16547 -2.70755 0
M  V30 4333 C 427.877 -3.40146 -2.61915 0
M  V30 4334 C 427.11 -3.6481 -3.8955 0
M  V30 4335 O 427.333 -2.92095 -4.89935 0
M  V30 4336 O 426.267 -4.58343 -3.90135 0
M  V30 4337 H 430.093 -2.83237 -1.09591 0
M  V30 4338 H 427.678 -1.4157 -0.477306 0
M  V30 4339 H 429.56 -2.34665 -3.50014 0
M  V30 4340 H 428.235 -1.27131 -2.9769 0
M  V30 4341 H 427.142 -3.2737 -1.81052 0
M  V30 4342 H 428.475 -4.29761 -2.3993 0
M  V30 4343 N 430.127 0.543554 -1.4793 0
M  V30 4344 C 431.057 1.65888 -1.64327 0
M  V30 4345 C 432.038 1.62818 -0.492383 0
M  V30 4346 O 433.223 1.80226 -0.723338 0
M  V30 4347 C 430.353 3.04506 -1.67013 0
M  V30 4348 C 429.307 3.2243 -2.81466 0
M  V30 4349 C 428.633 4.61972 -2.69233 0
M  V30 4350 C 429.933 3.06496 -4.22915 0
M  V30 4351 H 431.627 1.52421 -2.57698 0
M  V30 4352 H 429.173 0.731849 -1.24016 0
M  V30 4353 H 431.126 3.82391 -1.77074 0
M  V30 4354 H 429.85 3.18964 -0.70212 0
M  V30 4355 H 428.509 2.46957 -2.70938 0
M  V30 4356 H 428.157 4.73247 -1.7043 0
M  V30 4357 H 427.857 4.74911 -3.46025 0
M  V30 4358 H 429.381 5.41974 -2.81242 0
M  V30 4359 H 430.795 3.74186 -4.34348 0
M  V30 4360 H 429.192 3.30938 -5.006 0
M  V30 4361 H 430.262 2.03077 -4.40327 0
M  V30 4362 N 431.605 1.3629 0.791371 0
M  V30 4363 C 432.515 1.32606 1.93527 0
M  V30 4364 C 433.531 0.228541 1.72493 0
M  V30 4365 O 434.707 0.460571 1.96063 0
M  V30 4366 C 431.772 1.11271 3.28359 0
M  V30 4367 C 430.833 2.3048 3.62185 0
M  V30 4368 C 430.066 2.10154 4.90583 0
M  V30 4369 O 430.289 1.07572 5.60165 0
M  V30 4370 O 429.223 2.97884 5.23019 0
M  V30 4371 H 433.049 2.28909 1.99585 0
M  V30 4372 H 430.634 1.16818 0.931344 0
M  V30 4373 H 432.516 1.01283 4.09047 0
M  V30 4374 H 431.191 0.180292 3.23198 0
M  V30 4375 H 430.098 2.46036 2.81811 0
M  V30 4376 H 431.431 3.22221 3.72068 0
M  V30 4377 N 433.083 -1.0153 1.20538 0
M  V30 4378 C 434.046 -2.0826 0.957098 0
M  V30 4379 C 435.046 -1.60657 -0.0678655 0
M  V30 4380 O 436.236 -1.73385 0.168332 0
M  V30 4381 C 433.368 -3.38033 0.441188 0
M  V30 4382 H 434.561 -2.31719 1.90384 0
M  V30 4383 H 432.114 -1.1835 1.02093 0
M  V30 4384 H 432.849 -3.20249 -0.510961 0
M  V30 4385 H 432.634 -3.73911 1.18038 0
M  V30 4386 H 434.124 -4.16613 0.287009 0
M  V30 4387 O 434.6 -1.13875 -1.14519 0
M  V30 4388 H 435.291 -0.85746 -1.73687 0
M  V30 END ATOM
M  V30 BEGIN BOND
M  V30 END BOND
M  V30 END CTAB
M  END
$$$$
