drugbank_target|P45877 Peptidyl-prolyl cis-trans isomerase C (DB00172)
 OpenBabel12092120093D

  0  0  0     0  0            999 V3000
M  V30 BEGIN CTAB
M  V30 COUNTS 3228 3266 0 0 0
M  V30 BEGIN ATOM
M  V30 1 H -0.908 1.98254 -0.117106 0
M  V30 2 N 0 1.576 0 0
M  V30 3 C 0.933 2.03868 1.02534 0
M  V30 4 C 1.911 0.928543 1.3348 0
M  V30 5 O 3.095 1.19667 1.45644 0
M  V30 6 C 0.222 2.43627 2.35294 0
M  V30 7 C -0.732 3.65373 2.2001 0
M  V30 8 S 0.101 5.13292 1.52614 0
M  V30 9 C 1.257 5.56322 2.86805 0
M  V30 10 H 1.49 2.90518 0.631377 0
M  V30 11 H -0.977 1.52953 0.210867 0
M  V30 12 H 0.981 2.67203 3.11629 0
M  V30 13 H -0.358 1.57376 2.7183 0
M  V30 14 H -1.165 3.90944 3.18086 0
M  V30 15 H -1.563 3.418 1.51819 0
M  V30 16 H 0.729 5.58782 3.83104 0
M  V30 17 H 1.672 6.56266 2.65933 0
M  V30 18 H 2.08 4.83886 2.90714 0
M  V30 19 N 1.4781 -0.272755 1.55222 0
M  V30 20 C 2.7261 -1.00234 1.75492 0
M  V30 21 C 3.0471 -1.8681 0.5592 0
M  V30 22 O 2.3171 -1.91215 -0.425882 0
M  V30 23 H 0.8971 -0.373076 0.647166 0
M  V30 24 H 3.5591 -0.296926 1.92625 0
M  V30 25 H 2.6551 -1.63913 2.65592 0
M  V30 26 N 2.9562 -1.48159 -0.537278 0
M  V30 27 C 4.3672 -1.49429 -1.11928 0
M  V30 28 C 4.7182 -0.26 -1.9447 0
M  V30 29 O 3.8432 0.633489 -2.0692 0
M  V30 30 C 4.4382 -2.70758 -2.03656 0
M  V30 31 C 2.9972 -2.74923 -2.57088 0
M  V30 32 C 2.1442 -2.42835 -1.3389 0
M  V30 33 H 5.0952 -1.55381 -0.322886 0
M  V30 34 H 5.1162 -2.48861 -2.87834 0
M  V30 35 H 4.6282 -3.60575 -1.43553 0
M  V30 36 H 2.7292 -1.89296 -3.20933 0
M  V30 37 H 2.8422 -3.76157 -2.9672 0
M  V30 38 H 1.2062 -1.93836 -1.65226 0
M  V30 39 H 1.9892 -3.34884 -0.755504 0
M  V30 40 N 4.4343 0.785586 -1.36625 0
M  V30 41 C 5.6823 1.54057 -1.30808 0
M  V30 42 C 6.0033 1.94683 0.111157 0
M  V30 43 O 5.2733 1.65241 1.05224 0
M  V30 44 H 3.8533 0.571354 -0.481211 0
M  V30 45 H 6.5153 0.935821 -1.70963 0
M  V30 46 H 5.6113 2.44637 -1.93801 0
M  V30 47 N 5.9124 1.20967 1.01018 0
M  V30 48 C 7.3234 1.02319 1.56165 0
M  V30 49 C 7.6744 -0.418546 1.91684 0
M  V30 50 O 6.7994 -1.30096 1.72928 0
M  V30 51 C 7.3944 1.85109 2.8376 0
M  V30 52 C 5.9534 1.70809 3.35412 0
M  V30 53 C 5.1004 1.82643 2.08655 0
M  V30 54 H 8.0514 1.35065 0.833255 0
M  V30 55 H 8.0724 1.35827 3.55431 0
M  V30 56 H 7.5844 2.90035 2.57878 0
M  V30 57 H 5.6854 0.685464 3.66241 0
M  V30 58 H 5.7984 2.52467 4.07182 0
M  V30 59 H 4.1624 1.25896 2.21409 0
M  V30 60 H 4.9454 2.89066 1.85191 0
M  V30 61 N 7.3905 -1.2043 1.01659 0
M  V30 62 C 8.8065 -1.41852 0.731442 0
M  V30 63 C 9.0065 -1.89358 -0.688898 0
M  V30 64 O 8.0625 -2.06247 -1.45666 0
M  V30 65 C 9.3755 -2.44019 1.75714 0
M  V30 66 C 10.9235 -2.57785 1.77527 0
M  V30 67 C 11.3985 -3.63194 2.79023 0
M  V30 68 N 12.8895 -3.70678 2.77763 0
M  V30 69 C 13.6245 -4.51897 3.52954 0
M  V30 70 N 13.1205 -5.36921 4.37821 0
M  V30 71 N 14.9135 -4.4643 3.41551 0
M  V30 72 H 7.0645 -0.879093 1.93354 0
M  V30 73 H 9.3275 -0.448425 0.835236 0
M  V30 74 H 9.0335 -2.1611 2.77469 0
M  V30 75 H 8.9075 -3.43007 1.56927 0
M  V30 76 H 11.2945 -2.85023 0.764569 0
M  V30 77 H 11.3755 -1.58992 2.00387 0
M  V30 78 H 11.0195 -3.36699 3.80258 0
M  V30 79 H 10.9495 -4.61609 2.53425 0
M  V30 80 H 13.4405 -3.09944 2.16201 0
M  V30 81 H 13.7535 -5.95981 4.91962 0
M  V30 82 H 12.0985 -5.36424 4.41899 0
M  V30 83 H 15.2895 -3.79042 2.74672 0
M  V30 84 H 15.4625 -5.09491 4.00404 0
M  V30 85 N 8.8686 -0.792821 -1.36206 0
M  V30 86 C 9.7986 -0.207853 -2.32573 0
M  V30 87 C 10.7796 0.659055 -1.56813 0
M  V30 88 O 11.9646 0.592176 -1.84951 0
M  V30 89 C 9.0946 0.655449 -3.41059 0
M  V30 90 C 8.0486 -0.111842 -4.27854 0
M  V30 91 C 7.3746 0.872274 -5.27537 0
M  V30 92 C 8.6746 -1.30299 -5.05786 0
M  V30 93 H 10.3686 -1.01294 -2.81744 0
M  V30 94 H 7.9146 -0.48854 -1.3546 0
M  V30 95 H 9.8676 1.07464 -4.07467 0
M  V30 96 H 8.5916 1.49328 -2.90463 0
M  V30 97 H 7.2506 -0.512053 -3.63006 0
M  V30 98 H 6.8986 1.70523 -4.73214 0
M  V30 99 H 6.5986 0.363291 -5.86476 0
M  V30 100 H 8.1226 1.28996 -5.96818 0
M  V30 101 H 9.5366 -0.959379 -5.65216 0
M  V30 102 H 7.9336 -1.7455 -5.74154 0
M  V30 103 H 9.0036 -2.09663 -4.37229 0
M  V30 104 N 10.3467 1.47872 -0.545128 0
M  V30 105 C 11.2767 2.32661 0.197793 0
M  V30 106 C 12.2577 1.43041 0.920504 0
M  V30 107 O 13.4427 1.71912 0.90333 0
M  V30 108 C 10.5727 3.24569 1.23582 0
M  V30 109 C 9.5267 4.23333 0.630323 0
M  V30 110 C 8.8527 5.0448 1.77211 0
M  V30 111 C 10.1527 5.20704 -0.407974 0
M  V30 112 H 11.8467 2.95024 -0.510045 0
M  V30 113 H 9.3927 1.4187 -0.246731 0
M  V30 114 H 11.3457 3.8272 1.76362 0
M  V30 115 H 10.0697 2.60236 1.97344 0
M  V30 116 H 8.7287 3.6639 0.123922 0
M  V30 117 H 8.3767 4.36561 2.49847 0
M  V30 118 H 8.0767 5.71339 1.37281 0
M  V30 119 H 9.6007 5.65487 2.3034 0
M  V30 120 H 11.0147 5.7329 0.033305 0
M  V30 121 H 9.4117 5.95699 -0.725486 0
M  V30 122 H 10.4817 4.66917 -1.30828 0
M  V30 123 N 11.8248 0.280983 1.55075 0
M  V30 124 C 12.7548 -0.597469 2.25727 0
M  V30 125 C 13.7358 -1.15417 1.24952 0
M  V30 126 O 14.9208 -1.18722 1.53684 0
M  V30 127 C 12.0508 -1.7789 2.98283 0
M  V30 128 C 11.0048 -1.35347 4.06036 0
M  V30 129 C 10.3308 -2.61846 4.66198 0
M  V30 130 C 11.6308 -0.499354 5.19907 0
M  V30 131 H 13.3248 -0.00824265 2.99399 0
M  V30 132 H 10.8708 -0.0025244 1.44 0
M  V30 133 H 12.8238 -2.39937 3.46422 0
M  V30 134 H 11.5478 -2.39405 2.22155 0
M  V30 135 H 10.2068 -0.756156 3.58717 0
M  V30 136 H 9.8548 -3.21632 3.86732 0
M  V30 137 H 9.5548 -2.3409 5.38958 0
M  V30 138 H 11.0788 -3.24732 5.1709 0
M  V30 139 H 12.4928 -1.02498 5.64063 0
M  V30 140 H 10.8898 -0.316424 5.99265 0
M  V30 141 H 11.9598 0.480459 4.82514 0
M  V30 142 N 13.3029 -1.57598 0.00835791 0
M  V30 143 C 14.7139 -1.7892 -0.53333 0
M  V30 144 C 15.0649 -0.916609 -1.73473 0
M  V30 145 O 14.1899 -0.121336 -2.1606 0
M  V30 146 C 14.7849 -3.24488 -0.974313 0
M  V30 147 C 13.3439 -3.46878 -1.46125 0
M  V30 148 C 12.4909 -2.74157 -0.416302 0
M  V30 149 H 15.4419 -1.56958 0.234495 0
M  V30 150 H 15.4629 -3.3306 -1.83988 0
M  V30 151 H 14.9749 -3.87972 -0.099718 0
M  V30 152 H 13.0759 -2.8862 -2.35646 0
M  V30 153 H 13.1889 -4.55572 -1.48295 0
M  V30 154 H 11.5529 -2.39022 -0.87981 0
M  V30 155 H 12.3359 -3.40345 0.44947 0
M  V30 156 N 14.781 0.264519 -1.55364 0
M  V30 157 C 15.711 1.33121 -1.91836 0
M  V30 158 C 16.692 1.51101 -0.781192 0
M  V30 159 O 17.877 1.64003 -1.04003 0
M  V30 160 C 15.007 2.68921 -2.19769 0
M  V30 161 C 13.961 2.65661 -3.35571 0
M  V30 162 C 13.287 4.05093 -3.49004 0
M  V30 163 C 14.587 2.24187 -4.71739 0
M  V30 164 H 16.281 1.02844 -2.81182 0
M  V30 165 H 13.827 0.493286 -1.35287 0
M  V30 166 H 15.78 3.43663 -2.43872 0
M  V30 167 H 14.504 3.00799 -1.27231 0
M  V30 168 H 13.163 1.93377 -3.1145 0
M  V30 169 H 12.811 4.34206 -2.53917 0
M  V30 170 H 12.511 4.03804 -4.26868 0
M  V30 171 H 14.035 4.81561 -3.75408 0
M  V30 172 H 15.449 2.88654 -4.9533 0
M  V30 173 H 13.846 2.34044 -5.52579 0
M  V30 174 H 14.916 1.19327 -4.69988 0
M  V30 175 N 16.2591 1.48442 0.529413 0
M  V30 176 C 17.5051 1.5672 1.28711 0
M  V30 177 C 17.8381 0.2406 1.92704 0
M  V30 178 O 17.1131 -0.753454 1.79313 0
M  V30 179 C 17.3961 2.70587 2.37603 0
M  V30 180 C 17.2491 4.12953 1.78297 0
M  V30 181 C 18.5681 2.80212 3.39366 0
M  V30 182 H 15.6871 0.570474 0.466613 0
M  V30 183 H 18.3291 1.80617 0.589706 0
M  V30 184 H 16.4791 2.50342 2.97088 0
M  V30 185 H 18.1511 4.44639 1.22858 0
M  V30 186 H 16.3941 4.19927 1.0883 0
M  V30 187 H 17.0651 4.88448 2.57144 0
M  V30 188 H 19.5411 2.98553 2.89836 0
M  V30 189 H 18.4171 3.61611 4.12951 0
M  V30 190 H 18.6781 1.88393 3.99951 0
M  V30 191 N 17.7372 -0.778329 1.37039 0
M  V30 192 C 18.6672 -1.90546 1.34962 0
M  V30 193 C 19.6482 -1.68681 0.219274 0
M  V30 194 O 20.8332 -1.89634 0.418624 0
M  V30 195 C 17.9632 -3.27734 1.14925 0
M  V30 196 C 16.9172 -3.64147 2.24902 0
M  V30 197 C 16.2432 -4.99806 1.89996 0
M  V30 198 C 17.5432 -3.71579 3.67051 0
M  V30 199 H 19.2372 -1.92541 2.29277 0
M  V30 200 H 16.7832 -0.924948 1.10366 0
M  V30 201 H 18.7362 -4.06215 1.12104 0
M  V30 202 H 17.4602 -3.26154 0.170631 0
M  V30 203 H 16.1192 -2.8797 2.26868 0
M  V30 204 H 15.7672 -4.94759 0.906796 0
M  V30 205 H 15.4672 -5.25139 2.63634 0
M  V30 206 H 16.9912 -5.80694 1.88749 0
M  V30 207 H 18.4052 -4.40227 3.67251 0
M  V30 208 H 16.8022 -4.08405 4.39688 0
M  V30 209 H 17.8722 -2.72404 4.01154 0
M  V30 210 N 19.2153 -1.21501 -1.00376 0
M  V30 211 C 20.4553 -1.04444 -1.75701 0
M  V30 212 C 20.8193 0.414644 -1.87469 0
M  V30 213 O 22.0203 0.705763 -2.59369 0
M  V30 214 C 20.2913 -1.72389 -3.13077 0
M  V30 215 S 21.8503 -1.70604 -4.04277 0
M  V30 216 H 18.6683 -0.374249 -0.604532 0
M  V30 217 H 21.2703 -1.54267 -1.20091 0
M  V30 218 H 19.9743 -2.77734 -3.02146 0
M  V30 219 H 19.5053 -1.22751 -3.73759 0
M  V30 220 H 21.5203 -0.748012 -4.9053 0
M  V30 221 N 20.6934 1.19889 -1.02296 0
M  V30 222 C 21.9394 1.89701 -0.717033 0
M  V30 223 C 22.2724 1.7905 0.751989 0
M  V30 224 O 21.5474 1.17891 1.547 0
M  V30 225 C 21.8304 3.40858 -1.16136 0
M  V30 226 C 21.6834 3.60411 -2.69117 0
M  V30 227 C 23.0024 4.33876 -0.737549 0
M  V30 228 H 20.1214 0.688874 -0.261957 0
M  V30 229 H 22.7634 1.41154 -1.27183 0
M  V30 230 H 20.9134 3.82335 -0.689342 0
M  V30 231 H 22.5854 3.28145 -3.2422 0
M  V30 232 H 20.8284 3.03665 -3.0979 0
M  V30 233 H 21.4994 4.66396 -2.95261 0
M  V30 234 H 23.9754 4.00081 -1.14344 0
M  V30 235 H 22.8514 5.38242 -1.0764 0
M  V30 236 H 23.1124 4.40628 0.360436 0
M  V30 237 N 22.1715 0.800033 1.35784 0
M  V30 238 C 23.4195 0.376597 1.9856 0
M  V30 239 C 23.7405 -1.05812 1.63795 0
M  V30 240 O 23.0105 -1.73103 0.917171 0
M  V30 241 H 21.5905 0.136261 0.734467 0
M  V30 242 H 24.2525 1.02442 1.65806 0
M  V30 243 H 23.3485 0.477002 3.08433 0
M  V30 244 N 23.6496 -1.47581 0.552962 0
M  V30 245 C 24.5796 -2.32762 -0.185451 0
M  V30 246 C 25.5606 -1.43527 -0.912905 0
M  V30 247 O 26.7456 -1.72388 -0.894201 0
M  V30 248 C 23.8756 -3.25219 -1.21859 0
M  V30 249 C 22.8296 -4.23661 -0.607864 0
M  V30 250 C 22.1556 -5.05413 -1.74533 0
M  V30 251 C 23.4556 -5.20481 0.435582 0
M  V30 252 H 25.1496 -2.94749 0.525684 0
M  V30 253 H 22.6956 -1.41738 0.254251 0
M  V30 254 H 24.6486 -3.8365 -1.7433 0
M  V30 255 H 23.3726 -2.61279 -1.95961 0
M  V30 256 H 22.0316 -3.66451 -0.104489 0
M  V30 257 H 21.6796 -4.3788 -2.47529 0
M  V30 258 H 21.3796 -5.72059 -1.34249 0
M  V30 259 H 22.9036 -5.66701 -2.27338 0
M  V30 260 H 24.3176 -5.733 -0.00290157 0
M  V30 261 H 22.7146 -5.95305 0.757067 0
M  V30 262 H 23.7846 -4.66217 1.33303 0
M  V30 263 N 25.1277 -0.289203 -1.54924 0
M  V30 264 C 26.3757 0.322879 -1.99504 0
M  V30 265 C 26.6967 1.55313 -1.1791 0
M  V30 266 O 25.9667 1.94001 -0.272097 0
M  V30 267 H 24.5467 0.122291 -0.736922 0
M  V30 268 H 27.2087 -0.397802 -1.90797 0
M  V30 269 H 26.3047 0.603061 -3.06218 0
M  V30 270 N 26.6058 1.57591 -0.0167156 0
M  V30 271 C 27.5688 2.08393 0.954204 0
M  V30 272 C 28.5688 0.996531 1.26198 0
M  V30 273 O 29.7588 1.25858 1.20438 0
M  V30 274 C 26.8908 2.5394 2.27436 0
M  V30 275 H 28.0838 2.95455 0.514451 0
M  V30 276 H 25.6368 1.54582 0.231089 0
M  V30 277 H 26.3718 1.70171 2.76066 0
M  V30 278 H 26.1568 3.33371 2.06412 0
M  V30 279 H 27.6468 2.93512 2.97053 0
M  V30 280 N 28.0839 -0.256276 1.55502 0
M  V30 281 C 29.0139 -1.32102 1.92539 0
M  V30 282 C 29.9949 -1.50684 0.789194 0
M  V30 283 O 31.1799 -1.63449 1.04872 0
M  V30 284 C 28.3099 -2.67752 2.21192 0
M  V30 285 C 27.2639 -2.63878 3.36975 0
M  V30 286 C 26.5899 -4.03236 3.51147 0
M  V30 287 C 27.8899 -2.21682 4.72921 0
M  V30 288 H 29.5839 -1.01351 2.81724 0
M  V30 289 H 27.1299 -0.486105 1.35547 0
M  V30 290 H 29.0829 -3.42365 2.45691 0
M  V30 291 H 27.8069 -3.0012 1.28824 0
M  V30 292 H 26.4659 -1.91722 3.12471 0
M  V30 293 H 26.1139 -4.32854 2.56216 0
M  V30 294 H 25.8139 -4.01535 4.29003 0
M  V30 295 H 27.3379 -4.79563 3.77957 0
M  V30 296 H 28.7519 -2.86023 4.96854 0
M  V30 297 H 27.1489 -2.3111 5.53812 0
M  V30 298 H 28.2189 -1.16833 4.70615 0
M  V30 299 N 29.562 -1.4872 -0.521534 0
M  V30 300 C 30.808 -1.574 -1.27879 0
M  V30 301 C 31.141 -0.250817 -1.92573 0
M  V30 302 O 30.416 0.743934 -1.79711 0
M  V30 303 C 30.699 -2.71843 -2.36164 0
M  V30 304 C 30.552 -4.13893 -1.76105 0
M  V30 305 C 31.871 -2.82008 -3.37875 0
M  V30 306 H 28.99 -0.572941 -0.463581 0
M  V30 307 H 31.632 -1.80927 -0.580119 0
M  V30 308 H 29.782 -2.51914 -2.95756 0
M  V30 309 H 31.454 -4.45284 -1.20499 0
M  V30 310 H 29.697 -4.20498 -1.06601 0
M  V30 311 H 30.368 -4.89804 -2.5455 0
M  V30 312 H 32.844 -3.00086 -2.88249 0
M  V30 313 H 31.72 -3.63796 -4.11028 0
M  V30 314 H 31.981 -1.90511 -3.98946 0
M  V30 315 N 31.0401 0.771051 -1.3745 0
M  V30 316 C 32.2871 1.52963 -1.32697 0
M  V30 317 C 32.6151 1.94299 0.0883274 0
M  V30 318 O 31.8701 1.64397 1.0617 0
M  V30 319 C 32.1691 2.80676 -2.2126 0
M  V30 320 C 31.8351 2.58389 -3.69521 0
M  V30 321 C 30.4971 2.52019 -4.09927 0
M  V30 322 C 32.8491 2.38469 -4.63446 0
M  V30 323 C 30.1771 2.23721 -5.42371 0
M  V30 324 C 32.5291 2.11694 -5.96128 0
M  V30 325 C 31.1931 2.03769 -6.35637 0
M  V30 326 H 30.4631 0.559732 -0.485573 0
M  V30 327 H 33.1101 0.888083 -1.69662 0
M  V30 328 H 31.4151 3.49392 -1.77291 0
M  V30 329 H 33.1121 3.38557 -2.14895 0
M  V30 330 H 29.7021 2.6421 -3.37478 0
M  V30 331 H 33.8861 2.4238 -4.33089 0
M  V30 332 H 29.1421 2.16081 -5.71943 0
M  V30 333 H 33.3161 1.9528 -6.6846 0
M  V30 334 H 30.9431 1.81606 -7.38189 0
M  V30 335 N 32.5182 1.22032 0.997298 0
M  V30 336 C 33.7432 1.06921 1.77715 0
M  V30 337 C 34.1682 -0.376226 1.84299 0
M  V30 338 O 33.5262 -1.27165 1.29223 0
M  V30 339 C 33.5742 1.67996 3.19076 0
M  V30 340 O 32.6782 0.930653 4.01762 0
M  V30 341 H 32.0192 0.375814 0.547412 0
M  V30 342 H 34.5492 1.61737 1.25309 0
M  V30 343 H 34.5592 1.72538 3.69723 0
M  V30 344 H 33.2342 2.73182 3.13599 0
M  V30 345 H 31.8112 0.960917 3.60307 0
M  V30 346 N 33.9963 -1.19345 1.0293 0
M  V30 347 C 35.2213 -1.93538 0.745511 0
M  V30 348 C 35.6463 -1.75007 -0.689511 0
M  V30 349 O 35.0043 -1.05265 -1.47611 0
M  V30 350 C 35.0523 -3.43336 1.10239 0
M  V30 351 O 34.1563 -4.11806 0.221289 0
M  V30 352 H 33.4973 -0.604193 0.275404 0
M  V30 353 H 36.0273 -1.5141 1.37609 0
M  V30 354 H 36.0373 -3.94004 1.05947 0
M  V30 355 H 34.7123 -3.56146 2.14786 0
M  V30 356 H 33.2893 -3.715 0.322842 0
M  V30 357 N 35.4744 -0.807222 -1.35358 0
M  V30 358 C 36.7224 -0.387122 -1.98358 0
M  V30 359 C 37.0434 1.04942 -1.64354 0
M  V30 360 O 36.3134 1.72615 -0.926339 0
M  V30 361 H 34.8934 -0.140154 -0.733734 0
M  V30 362 H 37.5554 -1.0332 -1.6526 0
M  V30 363 H 36.6514 -0.493352 -3.08176 0
M  V30 364 N 36.9525 1.47285 -0.560781 0
M  V30 365 C 37.9155 2.28535 0.174488 0
M  V30 366 C 38.9155 1.37153 0.839388 0
M  V30 367 O 40.1055 1.59748 0.694702 0
M  V30 368 C 37.2375 3.16934 1.25561 0
M  V30 369 H 38.4305 2.95012 -0.539262 0
M  V30 370 H 35.9835 1.53034 -0.317865 0
M  V30 371 H 36.7185 2.55157 2.00164 0
M  V30 372 H 36.5035 3.8419 0.783604 0
M  V30 373 H 37.9935 3.78143 1.77193 0
M  V30 374 N 38.4306 0.297415 1.54768 0
M  V30 375 C 39.3406 -0.58983 2.27064 0
M  V30 376 C 40.3566 -1.15144 1.30453 0
M  V30 377 O 41.5326 -1.17699 1.63428 0
M  V30 378 C 38.5976 -1.74714 2.9946 0
M  V30 379 C 37.6586 -1.21997 4.11601 0
M  V30 380 C 36.8916 -2.32212 4.80535 0
M  V30 381 O 37.1146 -3.52036 4.48806 0
M  V30 382 O 36.0486 -1.99106 5.68014 0
M  V30 383 H 39.8746 -0.00348199 3.037 0
M  V30 384 H 37.4596 0.0640035 1.49263 0
M  V30 385 H 39.3416 -2.42147 3.44881 0
M  V30 386 H 38.0166 -2.32016 2.25722 0
M  V30 387 H 36.9236 -0.511458 3.70587 0
M  V30 388 H 38.2566 -0.692419 4.87305 0
M  V30 389 N 39.9087 -1.5758 0.0250728 0
M  V30 390 C 41.1567 -1.91255 -0.653151 0
M  V30 391 C 41.4777 -0.901691 -1.729 0
M  V30 392 O 40.7477 0.0573785 -1.95816 0
M  V30 393 H 39.3277 -0.705942 -0.244243 0
M  V30 394 H 41.9897 -1.94767 0.0719209 0
M  V30 395 H 41.0857 -2.91752 -1.10847 0
M  V30 396 N 41.3868 0.248026 -1.55636 0
M  V30 397 C 42.6338 0.976224 -1.77415 0
M  V30 398 C 42.9618 1.85361 -0.589193 0
M  V30 399 O 42.2168 1.90973 0.427529 0
M  V30 400 C 42.5158 1.86819 -3.04686 0
M  V30 401 C 42.1818 1.14625 -4.36087 0
M  V30 402 C 40.8438 0.946723 -4.71795 0
M  V30 403 C 43.1958 0.634463 -5.17324 0
M  V30 404 C 40.5238 0.223091 -5.86276 0
M  V30 405 C 42.8758 -0.0756959 -6.32555 0
M  V30 406 C 41.5398 -0.286711 -6.66884 0
M  V30 407 H 40.8098 0.357226 -0.649208 0
M  V30 408 H 43.4568 0.246415 -1.89908 0
M  V30 409 H 41.7618 2.66502 -2.872 0
M  V30 410 H 43.4588 2.43329 -3.18735 0
M  V30 411 H 40.0488 1.3117 -4.08035 0
M  V30 412 H 44.2328 0.77616 -4.90193 0
M  V30 413 H 39.4888 0.0491185 -6.1138 0
M  V30 414 H 43.6628 -0.479899 -6.94745 0
M  V30 415 H 41.2898 -0.849389 -7.5544 0
M  V30 416 N 42.8649 1.48995 0.513639 0
M  V30 417 C 44.2809 1.35478 0.843682 0
M  V30 418 C 44.4809 0.378213 1.97919 0
M  V30 419 O 43.5369 -0.194689 2.51748 0
M  V30 420 C 44.8499 2.75901 1.1958 0
M  V30 421 C 46.3979 2.84509 1.30474 0
M  V30 422 C 46.8729 4.25671 1.69021 0
M  V30 423 N 48.3639 4.28422 1.76094 0
M  V30 424 C 49.0989 5.34601 2.07338 0
M  V30 425 N 48.5949 6.5104 2.36894 0
M  V30 426 N 50.3879 5.22007 2.08483 0
M  V30 427 H 42.5389 2.11092 -0.235328 0
M  V30 428 H 44.8019 0.947039 -0.0426669 0
M  V30 429 H 44.5079 3.49001 0.434913 0
M  V30 430 H 44.3819 3.10467 2.1422 0
M  V30 431 H 46.7689 2.11655 2.05637 0
M  V30 432 H 46.8499 2.53542 0.339155 0
M  V30 433 H 46.4939 4.99048 0.944135 0
M  V30 434 H 46.4239 4.54094 2.66658 0
M  V30 435 H 48.9149 3.44441 1.55464 0
M  V30 436 H 49.2279 7.2779 2.59887 0
M  V30 437 H 47.5729 6.54287 2.34378 0
M  V30 438 H 50.7639 4.30051 1.84861 0
M  V30 439 H 50.9369 6.04854 2.325 0
M  V30 440 N 44.343 -0.763751 1.37857 0
M  V30 441 C 45.29 -1.87726 1.34267 0
M  V30 442 C 46.26 -1.64807 0.206879 0
M  V30 443 O 47.445 -1.86613 0.397508 0
M  V30 444 C 44.585 -3.24896 1.16346 0
M  V30 445 C 43.698 -3.59716 2.39225 0
M  V30 446 C 42.833 -4.86137 2.14114 0
M  V30 447 C 41.872 -5.13711 3.32817 0
M  V30 448 N 41.009 -6.31323 3.07206 0
M  V30 449 H 45.849 -1.90129 2.29466 0
M  V30 450 H 43.386 -0.929433 1.14017 0
M  V30 451 H 45.344 -4.04036 1.03975 0
M  V30 452 H 43.974 -3.21847 0.247909 0
M  V30 453 H 43.026 -2.75498 2.62307 0
M  V30 454 H 44.338 -3.76027 3.27728 0
M  V30 455 H 43.492 -5.73198 1.9882 0
M  V30 456 H 42.231 -4.71945 1.22961 0
M  V30 457 H 41.236 -4.25123 3.48641 0
M  V30 458 H 42.461 -5.29807 4.24832 0
M  V30 459 H 40.407 -6.18474 2.1869 0
M  V30 460 H 40.324 -6.48087 3.89254 0
M  V30 461 H 41.592 -7.213 2.95546 0
M  V30 462 N 45.8211 -1.22559 -0.990812 0
M  V30 463 C 47.2371 -0.985996 -1.255 0
M  V30 464 C 47.4371 0.319173 -1.98956 0
M  V30 465 O 46.4931 1.04127 -2.3003 0
M  V30 466 C 47.8061 -2.18607 -2.06474 0
M  V30 467 C 49.3541 -2.22985 -2.19651 0
M  V30 468 C 49.8291 -3.4255 -3.04012 0
M  V30 469 N 51.3201 -3.42725 -3.11599 0
M  V30 470 C 52.0551 -4.31892 -3.7717 0
M  V30 471 N 51.5511 -5.31279 -4.44651 0
M  V30 472 N 53.3441 -4.19662 -3.73952 0
M  V30 473 H 45.4951 -2.06469 -0.49841 0
M  V30 474 H 47.7581 -0.904853 -0.282747 0
M  V30 475 H 47.4641 -3.13267 -1.59865 0
M  V30 476 H 47.3381 -2.18838 -3.07229 0
M  V30 477 H 49.7251 -1.28871 -2.65474 0
M  V30 478 H 49.8061 -2.26791 -1.18319 0
M  V30 479 H 49.4501 -4.36965 -2.58889 0
M  V30 480 H 49.3801 -3.35984 -4.0549 0
M  V30 481 H 51.8711 -2.70807 -2.63575 0
M  V30 482 H 52.1841 -5.95593 -4.92431 0
M  V30 483 H 50.5291 -5.3519 -4.43392 0
M  V30 484 H 53.7201 -3.41268 -3.20396 0
M  V30 485 H 53.8931 -4.89358 -4.24774 0
M  V30 486 N 47.2992 1.18797 -1.03562 0
M  V30 487 C 48.5472 1.88278 -0.734569 0
M  V30 488 C 48.8682 1.8043 0.739586 0
M  V30 489 O 48.1382 1.21925 1.53333 0
M  V30 490 H 46.7182 0.696991 -0.268725 0
M  V30 491 H 49.3802 1.44192 -1.31129 0
M  V30 492 H 48.4762 2.94443 -1.03489 0
M  V30 493 N 48.7773 0.814389 1.34928 0
M  V30 494 C 50.1883 0.458364 1.80986 0
M  V30 495 C 50.5393 -1.02042 1.67577 0
M  V30 496 O 49.6643 -1.79352 1.21086 0
M  V30 497 C 50.2593 0.825212 3.28597 0
M  V30 498 C 48.8183 0.521677 3.72767 0
M  V30 499 C 47.9653 1.04668 2.56788 0
M  V30 500 H 50.9163 1.00533 1.22795 0
M  V30 501 H 50.9373 0.12571 3.80292 0
M  V30 502 H 50.4493 1.90154 3.38324 0
M  V30 503 H 48.5503 -0.545589 3.68584 0
M  V30 504 H 48.6633 1.05977 4.67232 0
M  V30 505 H 47.0273 0.468622 2.50352 0
M  V30 506 H 47.8103 2.12927 2.6929 0
M  V30 507 N 50.2554 -1.46986 0.568584 0
M  V30 508 C 51.4804 -2.07335 0.0520528 0
M  V30 509 C 51.9054 -1.41675 -1.23733 0
M  V30 510 O 51.2634 -0.495623 -1.74394 0
M  V30 511 C 51.3114 -3.60417 -0.11501 0
M  V30 512 O 50.4154 -3.95309 -1.17492 0
M  V30 513 H 49.7564 -0.661597 0.0564385 0
M  V30 514 H 52.2864 -1.88837 0.787507 0
M  V30 515 H 52.2964 -4.06698 -0.325644 0
M  V30 516 H 50.9714 -4.07601 0.826675 0
M  V30 517 H 49.5484 -3.60757 -0.943869 0
M  V30 518 N 51.7335 -0.305618 -1.54608 0
M  V30 519 C 52.9795 0.302746 -2.00528 0
M  V30 520 C 53.3125 1.53184 -1.19367 0
M  V30 521 O 52.5875 1.92598 -0.271321 0
M  V30 522 C 52.8705 0.654756 -3.54097 0
M  V30 523 C 52.7235 -0.583793 -4.45995 0
M  V30 524 C 54.0425 1.47947 -4.14487 0
M  V30 525 H 51.1615 0.108564 -0.72896 0
M  V30 526 H 53.8035 -0.418634 -1.85331 0
M  V30 527 H 51.9535 1.26935 -3.67178 0
M  V30 528 H 53.6255 -1.22224 -4.44814 0
M  V30 529 H 51.8685 -1.21615 -4.16404 0
M  V30 530 H 52.5395 -0.293287 -5.5122 0
M  V30 531 H 55.0155 0.96013 -4.04871 0
M  V30 532 H 53.8915 1.69454 -5.22088 0
M  V30 533 H 54.1525 2.47011 -3.66658 0
M  V30 534 N 53.2116 1.57565 -0.0334293 0
M  V30 535 C 54.4396 1.9628 0.654347 0
M  V30 536 C 54.8546 0.910138 1.65414 0
M  V30 537 O 54.2116 -0.107595 1.82183 0
M  V30 538 C 54.2626 3.35067 1.35693 0
M  V30 539 O 53.9836 4.36296 0.397191 0
M  V30 540 C 55.4846 3.88439 2.13613 0
M  V30 541 H 52.7046 0.646369 0.180132 0
M  V30 542 H 55.2486 2.04282 -0.0944721 0
M  V30 543 H 53.4036 3.2827 2.05712 0
M  V30 544 H 53.8176 5.1678 0.896597 0
M  V30 545 H 55.2916 4.8788 2.58219 0
M  V30 546 H 55.7686 3.22914 2.97696 0
M  V30 547 H 56.3746 3.98516 1.48543 0
M  V30 548 N 54.6897 -0.239769 1.55765 0
M  V30 549 C 55.6527 -1.28038 1.90103 0
M  V30 550 C 56.6527 -1.40723 0.778055 0
M  V30 551 O 57.8427 -1.39301 1.04599 0
M  V30 552 C 54.9747 -2.65702 2.13577 0
M  V30 553 H 56.1677 -0.988048 2.83157 0
M  V30 554 H 53.7207 -0.479382 1.48767 0
M  V30 555 H 54.4557 -3.00063 1.23015 0
M  V30 556 H 54.2407 -2.57875 2.95369 0
M  V30 557 H 55.7307 -3.40828 2.41301 0
M  V30 558 N 56.1678 -1.49265 -0.50573 0
M  V30 559 C 57.1148 -1.65585 -1.6078 0
M  V30 560 C 58.0848 -0.497396 -1.58478 0
M  V30 561 O 59.2698 -0.72385 -1.76536 0
M  V30 562 C 56.4098 -1.72408 -2.98948 0
M  V30 563 C 55.5228 -2.99525 -3.11301 0
M  V30 564 C 54.6578 -2.97356 -4.40174 0
M  V30 565 C 53.6968 -4.19074 -4.46143 0
M  V30 566 N 52.8338 -4.14841 -5.66437 0
M  V30 567 H 57.6738 -2.59688 -1.46172 0
M  V30 568 H 55.2108 -1.28761 -0.711261 0
M  V30 569 H 57.1688 -1.74344 -3.79025 0
M  V30 570 H 55.7988 -0.817753 -3.1227 0
M  V30 571 H 54.8508 -3.07222 -2.24318 0
M  V30 572 H 56.1628 -3.89518 -3.11572 0
M  V30 573 H 55.3168 -2.97829 -5.28567 0
M  V30 574 H 54.0558 -2.05133 -4.42461 0
M  V30 575 H 53.0608 -4.1885 -3.56153 0
M  V30 576 H 54.2858 -5.12483 -4.45575 0
M  V30 577 H 52.2318 -3.25453 -5.69575 0
M  V30 578 H 52.1488 -4.98564 -5.68304 0
M  V30 579 H 53.4168 -4.1941 -6.57051 0
M  V30 580 N 57.6459 0.756429 -1.3826 0
M  V30 581 C 58.8919 1.51772 -1.34511 0
M  V30 582 C 59.2249 1.94089 0.0656691 0
M  V30 583 O 58.4999 1.65221 1.02626 0
M  V30 584 C 58.7829 2.77226 -2.29821 0
M  V30 585 C 58.6359 2.41065 -3.79747 0
M  V30 586 C 59.9549 3.79236 -2.23312 0
M  V30 587 H 57.0739 0.550578 -0.489931 0
M  V30 588 H 59.7159 0.866607 -1.69086 0
M  V30 589 H 57.8659 3.32784 -2.00467 0
M  V30 590 H 59.5379 1.91303 -4.19763 0
M  V30 591 H 57.7809 1.7356 -3.97567 0
M  V30 592 H 58.4519 3.3081 -4.41892 0
M  V30 593 H 60.9279 3.3321 -2.49219 0
M  V30 594 H 59.8039 4.64714 -2.92116 0
M  V30 595 H 60.0649 4.24615 -1.23102 0
M  V30 596 N 59.124 1.23083 0.984299 0
M  V30 597 C 60.371 1.06057 1.72505 0
M  V30 598 C 60.699 -0.403105 1.90277 0
M  V30 599 O 59.954 -1.3149 1.44944 0
M  V30 600 C 60.253 1.72673 3.1292 0
M  V30 601 C 59.919 3.22586 3.15038 0
M  V30 602 C 58.581 3.63489 3.15324 0
M  V30 603 C 60.933 4.185 3.10657 0
M  V30 604 C 58.261 4.98772 3.08939 0
M  V30 605 C 60.613 5.53769 3.05814 0
M  V30 606 C 59.277 5.94041 3.04419 0
M  V30 607 H 58.547 0.388091 0.631242 0
M  V30 608 H 61.194 1.52963 1.15215 0
M  V30 609 H 59.499 1.18116 3.73572 0
M  V30 610 H 61.196 1.56982 3.68996 0
M  V30 611 H 57.786 2.90022 3.15571 0
M  V30 612 H 61.97 3.87911 3.09579 0
M  V30 613 H 57.226 5.29193 3.0621 0
M  V30 614 H 61.4 6.27808 3.0138 0
M  V30 615 H 59.027 6.98833 2.99227 0
M  V30 616 N 60.6021 -1.18246 1.0419 0
M  V30 617 C 61.8491 -1.88257 0.746017 0
M  V30 618 C 62.1771 -1.80429 -0.726331 0
M  V30 619 O 61.4321 -1.2 -1.54591 0
M  V30 620 C 61.7311 -3.38082 1.15911 0
M  V30 621 C 61.3971 -3.66114 2.63195 0
M  V30 622 C 60.0591 -3.73474 3.03432 0
M  V30 623 C 62.4111 -3.78398 3.5842 0
M  V30 624 C 59.7391 -3.90599 4.37778 0
M  V30 625 C 62.0911 -3.97039 4.92487 0
M  V30 626 C 60.7551 -4.02635 5.32392 0
M  V30 627 H 60.0251 -0.688883 0.272987 0
M  V30 628 H 62.6721 -1.3995 1.30715 0
M  V30 629 H 60.9771 -3.88377 0.516806 0
M  V30 630 H 62.6741 -3.90596 0.907516 0
M  V30 631 H 59.2641 -3.61003 2.3103 0
M  V30 632 H 63.4481 -3.72042 3.28479 0
M  V30 633 H 58.7041 -3.93175 4.68213 0
M  V30 634 H 62.8781 -4.05486 5.66175 0
M  V30 635 H 60.5051 -4.15657 6.36501 0
M  V30 636 N 62.0802 -0.821533 -1.34494 0
M  V30 637 C 63.3572 -0.33159 -1.92769 0
M  V30 638 C 63.7372 1.18088 -1.74981 0
M  V30 639 O 63.0852 1.98733 -1.12772 0
M  V30 640 C 63.2952 -0.759398 -3.40638 0
M  V30 641 C 64.6432 -0.757433 -4.1779 0
M  V30 642 O 65.6672 -0.70189 -3.49216 0
M  V30 643 O 64.5262 -0.829361 -5.4017 0
M  V30 644 H 61.6202 -0.0902502 -0.822061 0
M  V30 645 H 64.1662 -0.906231 -1.43477 0
M  V30 646 H 62.9382 -1.8012 -3.47379 0
M  V30 647 H 62.5612 -0.160378 -3.97276 0
M  V30 648 N 63.5583 1.46682 -0.576371 0
M  V30 649 C 64.8043 2.02712 -0.0596221 0
M  V30 650 C 65.1373 1.44765 1.29448 0
M  V30 651 O 64.4123 0.610355 1.84675 0
M  V30 652 C 64.6953 3.60098 0.0129503 0
M  V30 653 C 64.5483 4.28441 -1.3696 0
M  V30 654 C 65.8673 4.34224 0.71678 0
M  V30 655 H 62.9863 0.736637 -0.0231407 0
M  V30 656 H 65.6283 1.74898 -0.742351 0
M  V30 657 H 63.7783 3.83926 0.594378 0
M  V30 658 H 65.4503 4.15896 -1.9957 0
M  V30 659 H 63.6933 3.8805 -1.93907 0
M  V30 660 H 64.3643 5.3716 -1.27135 0
M  V30 661 H 66.8403 4.15503 0.222908 0
M  V30 662 H 65.7163 5.43936 0.73657 0
M  V30 663 H 65.9773 4.04823 1.77682 0
M  V30 664 N 65.0364 0.313813 1.54444 0
M  V30 665 C 66.4524 -0.0391619 1.59552 0
M  V30 666 C 66.6524 -1.51322 1.33056 0
M  V30 667 O 65.7084 -2.26782 1.11022 0
M  V30 668 C 67.0214 0.370302 2.98411 0
M  V30 669 C 68.5694 0.320139 3.11358 0
M  V30 670 C 69.0444 0.704617 4.52547 0
M  V30 671 N 70.5354 0.657645 4.58508 0
M  V30 672 C 71.2704 0.927453 5.6585 0
M  V30 673 N 70.7664 1.26389 6.81174 0
M  V30 674 N 72.5594 0.853662 5.5558 0
M  V30 675 H 64.7104 1.27433 1.69925 0
M  V30 676 H 66.9734 0.517511 0.794284 0
M  V30 677 H 66.6794 1.39694 3.22767 0
M  V30 678 H 66.5534 -0.269619 3.76235 0
M  V30 679 H 68.9404 -0.697275 2.86744 0
M  V30 680 H 69.0214 0.99486 2.35661 0
M  V30 681 H 68.6654 1.7199 4.77893 0
M  V30 682 H 68.5954 0.00768843 5.26599 0
M  V30 683 H 71.0864 0.409067 3.75679 0
M  V30 684 H 71.3994 1.4554 7.58972 0
M  V30 685 H 69.7444 1.30206 6.82694 0
M  V30 686 H 72.9354 0.590383 4.64362 0
M  V30 687 H 73.1084 1.0673 6.3915 0
M  V30 688 N 66.5145 -1.57545 0.0417849 0
M  V30 689 C 67.7635 -1.91494 -0.633492 0
M  V30 690 C 68.0765 -0.921084 -1.72556 0
M  V30 691 O 69.2825 -1.15228 -2.45835 0
M  V30 692 C 67.7385 -3.40072 -1.17808 0
M  V30 693 C 67.3465 -4.47843 -0.118633 0
M  V30 694 C 69.0905 -3.8307 -1.82915 0
M  V30 695 C 66.9975 -5.87529 -0.675578 0
M  V30 696 H 65.9275 -0.714653 -0.24039 0
M  V30 697 H 68.5785 -1.83175 0.109148 0
M  V30 698 H 66.9605 -3.43364 -1.97274 0
M  V30 699 H 68.1345 -4.56128 0.654494 0
M  V30 700 H 66.4495 -4.14128 0.434414 0
M  V30 701 H 69.0465 -4.84794 -2.25563 0
M  V30 702 H 69.3895 -3.1881 -2.67705 0
M  V30 703 H 69.9225 -3.82255 -1.10119 0
M  V30 704 H 66.6615 -6.55362 0.134475 0
M  V30 705 H 66.1815 -5.82824 -1.4169 0
M  V30 706 H 67.8605 -6.36491 -1.1614 0
M  V30 707 N 67.9926 0.231505 -1.5589 0
M  V30 708 C 69.2406 0.955461 -1.78088 0
M  V30 709 C 69.5616 1.85262 -0.608533 0
M  V30 710 O 68.8316 1.92277 0.375035 0
M  V30 711 H 67.4116 0.355787 -0.656829 0
M  V30 712 H 70.0736 0.245751 -1.93344 0
M  V30 713 H 69.1696 1.56814 -2.69844 0
M  V30 714 N 69.4707 1.49531 0.497807 0
M  V30 715 C 70.7477 1.49682 1.25915 0
M  V30 716 C 71.1277 0.226339 2.09883 0
M  V30 717 O 70.4757 -0.791189 2.14365 0
M  V30 718 C 70.6857 2.77755 2.11313 0
M  V30 719 C 72.0337 3.27371 2.70395 0
M  V30 720 O 73.0577 2.78894 2.21578 0
M  V30 721 O 71.9167 4.11808 3.59272 0
M  V30 722 H 69.0107 0.599228 0.56996 0
M  V30 723 H 71.5567 1.61798 0.511816 0
M  V30 724 H 70.3287 3.61713 1.49264 0
M  V30 725 H 69.9517 2.68515 2.93233 0
M  V30 726 N 70.9488 -0.749086 1.3866 0
M  V30 727 C 71.8958 -1.86291 1.36251 0
M  V30 728 C 72.8658 -1.64578 0.224347 0
M  V30 729 O 74.0508 -1.86181 0.417279 0
M  V30 730 C 71.1908 -3.23644 1.19786 0
M  V30 731 C 70.3038 -3.57158 2.43027 0
M  V30 732 C 69.4388 -4.83838 2.19258 0
M  V30 733 C 68.4778 -5.10152 3.38247 0
M  V30 734 N 67.6148 -6.28029 3.13884 0
M  V30 735 H 72.4548 -1.87685 2.3147 0
M  V30 736 H 69.9918 -0.917287 1.14997 0
M  V30 737 H 71.9498 -4.0291 1.08254 0
M  V30 738 H 70.5798 -3.21566 0.282031 0
M  V30 739 H 69.6318 -2.72701 2.65214 0
M  V30 740 H 70.9438 -3.7253 3.31697 0
M  V30 741 H 70.0978 -5.71057 2.04888 0
M  V30 742 H 68.8368 -4.70614 1.2796 0
M  V30 743 H 67.8418 -4.21401 3.53131 0
M  V30 744 H 69.0668 -5.25271 4.30427 0
M  V30 745 H 67.0128 -6.1612 2.25238 0
M  V30 746 H 66.9298 -6.43922 3.96106 0
M  V30 747 H 68.1978 -7.18124 3.03179 0
M  V30 748 N 72.4269 -1.23603 -0.977757 0
M  V30 749 C 73.7039 -0.977897 -1.69401 0
M  V30 750 C 74.0839 0.502738 -2.05026 0
M  V30 751 O 73.4319 1.47459 -1.74551 0
M  V30 752 C 73.6419 -1.89077 -2.93345 0
M  V30 753 C 74.9899 -2.15579 -3.65802 0
M  V30 754 O 76.0139 -1.86648 -3.03383 0
M  V30 755 O 74.8729 -2.64658 -4.78141 0
M  V30 756 H 71.9669 -0.369025 -0.740101 0
M  V30 757 H 74.5129 -1.34657 -1.03274 0
M  V30 758 H 73.2849 -2.89158 -2.63634 0
M  V30 759 H 72.9079 -1.52463 -3.67207 0
M  V30 760 N 73.905 1.17692 -1.04816 0
M  V30 761 C 75.151 1.88137 -0.75711 0
M  V30 762 C 75.484 1.80604 0.713841 0
M  V30 763 O 74.759 1.21146 1.52164 0
M  V30 764 C 75.042 3.38318 -1.2334 0
M  V30 765 C 74.895 3.54622 -2.76701 0
M  V30 766 C 76.214 4.32214 -0.829415 0
M  V30 767 H 73.333 0.683163 -0.27651 0
M  V30 768 H 75.975 1.38424 -1.30149 0
M  V30 769 H 74.125 3.80787 -0.770286 0
M  V30 770 H 75.797 3.21194 -3.31107 0
M  V30 771 H 74.04 2.97026 -3.16161 0
M  V30 772 H 74.711 4.60028 -3.05088 0
M  V30 773 H 77.187 3.97565 -1.22805 0
M  V30 774 H 76.063 5.35838 -1.19033 0
M  V30 775 H 76.324 4.41294 0.266891 0
M  V30 776 N 75.3831 0.828654 1.34056 0
M  V30 777 C 76.6311 0.41863 1.97717 0
M  V30 778 C 76.9521 -1.02314 1.66002 0
M  V30 779 O 76.2221 -1.71119 0.953683 0
M  V30 780 H 74.8021 0.151809 0.731412 0
M  V30 781 H 77.4641 1.05936 1.63596 0
M  V30 782 H 76.5601 0.542318 3.07352 0
M  V30 783 N 76.8612 -1.46375 0.584142 0
M  V30 784 C 78.2772 -1.57694 0.245929 0
M  V30 785 C 78.4772 -1.57903 -1.25175 0
M  V30 786 O 77.5332 -1.49676 -2.03355 0
M  V30 787 C 78.8462 -2.87028 0.896402 0
M  V30 788 C 80.3942 -3.00662 0.870127 0
M  V30 789 C 80.8692 -4.32734 1.50017 0
M  V30 790 N 82.3602 -4.39436 1.46458 0
M  V30 791 C 83.0952 -5.40248 1.92144 0
M  V30 792 N 82.5912 -6.47726 2.4581 0
M  V30 793 N 84.3842 -5.31459 1.83052 0
M  V30 794 H 76.5352 -1.44483 1.55687 0
M  V30 795 H 78.7982 -0.689291 0.650831 0
M  V30 796 H 78.5042 -2.9269 1.95002 0
M  V30 797 H 78.3782 -3.75014 0.405486 0
M  V30 798 H 80.7652 -2.94581 -0.174871 0
M  V30 799 H 80.8462 -2.14148 1.39908 0
M  V30 800 H 80.4902 -4.39573 2.54437 0
M  V30 801 H 80.4202 -5.18025 0.946432 0
M  V30 802 H 82.9112 -3.62367 1.07231 0
M  V30 803 H 83.2242 -7.20863 2.78525 0
M  V30 804 H 81.5692 -6.48542 2.49836 0
M  V30 805 H 84.7602 -4.46396 1.40883 0
M  V30 806 H 84.9332 -6.09881 2.18973 0
M  V30 807 N 78.3393 -0.321999 -1.54275 0
M  V30 808 C 79.5883 0.281931 -1.9972 0
M  V30 809 C 79.9013 1.53369 -1.21397 0
M  V30 810 O 81.1073 2.21352 -1.57211 0
M  V30 811 C 79.5633 0.5529 -3.55628 0
M  V30 812 C 79.1713 -0.681721 -4.42783 0
M  V30 813 C 80.9153 1.11687 -4.09544 0
M  V30 814 C 78.8223 -0.382742 -5.9016 0
M  V30 815 H 77.7523 0.109124 -0.746062 0
M  V30 816 H 80.4033 -0.43398 -1.78294 0
M  V30 817 H 78.7853 1.32896 -3.73035 0
M  V30 818 H 79.9593 -1.45723 -4.37151 0
M  V30 819 H 78.2743 -1.1658 -3.99748 0
M  V30 820 H 80.8713 1.35515 -5.17242 0
M  V30 821 H 81.2143 2.06575 -3.61431 0
M  V30 822 H 81.7473 0.402032 -3.95763 0
M  V30 823 H 78.4863 -1.30076 -6.42464 0
M  V30 824 H 78.0063 0.355094 -5.98748 0
M  V30 825 H 79.6853 0.00800157 -6.47 0
M  V30 826 N 79.8174 1.5752 -0.0501392 0
M  V30 827 C 81.0634 1.92936 0.624798 0
M  V30 828 C 81.3964 0.928685 1.70555 0
M  V30 829 O 80.6714 -0.0454779 1.94447 0
M  V30 830 C 80.9544 3.38737 1.22185 0
M  V30 831 C 80.8074 4.49552 0.149218 0
M  V30 832 C 82.1264 3.84913 2.13378 0
M  V30 833 H 79.2454 0.701604 0.225657 0
M  V30 834 H 81.8874 1.89671 -0.111693 0
M  V30 835 H 80.0374 3.4165 1.84953 0
M  V30 836 H 81.7094 4.58768 -0.482648 0
M  V30 837 H 79.9524 4.30638 -0.522841 0
M  V30 838 H 80.6234 5.48653 0.606966 0
M  V30 839 H 83.0994 3.8387 1.60572 0
M  V30 840 H 81.9754 4.87584 2.52097 0
M  V30 841 H 82.2364 3.21611 3.03346 0
M  V30 842 N 81.2955 -0.223234 1.56011 0
M  V30 843 C 82.5445 -0.945912 1.78144 0
M  V30 844 C 82.8575 -1.85567 0.618396 0
M  V30 845 O 84.0635 -2.61688 0.723318 0
M  V30 846 C 82.5195 -1.73216 3.15475 0
M  V30 847 C 82.1275 -0.868619 4.39499 0
M  V30 848 C 83.8715 -2.44615 3.46935 0
M  V30 849 C 81.7785 -1.65212 5.67855 0
M  V30 850 H 80.7085 -0.356929 0.664167 0
M  V30 851 H 83.3595 -0.199845 1.82409 0
M  V30 852 H 81.7415 -2.52107 3.05382 0
M  V30 853 H 82.9155 -0.120366 4.60643 0
M  V30 854 H 81.2305 -0.26683 4.15544 0
M  V30 855 H 83.8275 -3.03732 4.40058 0
M  V30 856 H 84.1705 -3.17417 2.69355 0
M  V30 857 H 84.7035 -1.72715 3.58349 0
M  V30 858 H 81.4425 -0.967407 6.48322 0
M  V30 859 H 80.9625 -2.37503 5.50774 0
M  V30 860 H 82.6415 -2.21322 6.07968 0
M  V30 861 N 82.7736 -1.49793 -0.48987 0
M  V30 862 C 84.0216 -1.59525 -1.24081 0
M  V30 863 C 84.3426 -0.288953 -1.92847 0
M  V30 864 O 83.6126 0.692436 -1.83254 0
M  V30 865 H 82.1926 -0.587796 -0.460983 0
M  V30 866 H 84.8546 -1.86477 -0.566778 0
M  V30 867 H 83.9506 -2.39696 -1.99881 0
M  V30 868 N 84.2517 0.741722 -1.39055 0
M  V30 869 C 85.1817 1.869 -1.39966 0
M  V30 870 C 86.1627 1.6804 -0.26392 0
M  V30 871 O 87.3477 1.88458 -0.468755 0
M  V30 872 C 84.4777 3.24572 -1.23574 0
M  V30 873 C 83.4317 3.58056 -2.34477 0
M  V30 874 C 82.7577 4.94593 -2.0318 0
M  V30 875 C 84.0577 3.61716 -3.76774 0
M  V30 876 H 85.7517 1.86395 -2.34302 0
M  V30 877 H 83.2977 0.895361 -1.1278 0
M  V30 878 H 85.2507 4.031 -1.22834 0
M  V30 879 H 83.9747 3.25587 -0.257045 0
M  V30 880 H 82.6337 2.81854 -2.34423 0
M  V30 881 H 82.2817 4.92181 -1.03765 0
M  V30 882 H 81.9817 5.17964 -2.77465 0
M  V30 883 H 83.5057 5.75486 -2.04079 0
M  V30 884 H 84.9197 4.30335 -3.78794 0
M  V30 885 H 83.3167 3.96603 -4.50362 0
M  V30 886 H 84.3867 2.61672 -4.08235 0
M  V30 887 N 85.7298 1.2412 0.971189 0
M  V30 888 C 86.9768 1.07881 1.71371 0
M  V30 889 C 87.3048 -0.382901 1.90694 0
M  V30 890 O 86.5598 -1.29945 1.46331 0
M  V30 891 C 86.8588 1.75983 3.11071 0
M  V30 892 C 86.5248 3.25909 3.11599 0
M  V30 893 C 85.1868 3.66813 3.11451 0
M  V30 894 C 87.5388 4.21771 3.062 0
M  V30 895 C 84.8668 5.02021 3.03631 0
M  V30 896 C 87.2188 5.56982 2.99923 0
M  V30 897 C 85.8828 5.97237 2.98102 0
M  V30 898 H 85.1528 0.394764 0.62709 0
M  V30 899 H 87.7998 1.54176 1.13587 0
M  V30 900 H 86.1048 1.22072 3.72298 0
M  V30 901 H 87.8018 1.60887 3.6731 0
M  V30 902 H 84.3918 2.93353 3.12477 0
M  V30 903 H 88.5758 3.91172 3.05447 0
M  V30 904 H 83.8318 5.32411 3.0058 0
M  V30 905 H 88.0058 6.30969 2.94704 0
M  V30 906 H 85.6328 7.01967 2.91798 0
M  V30 907 N 87.2079 -1.17134 1.05439 0
M  V30 908 C 88.4559 -1.87085 0.764429 0
M  V30 909 C 88.7769 -1.81584 -0.710787 0
M  V30 910 O 88.0469 -1.24349 -1.51374 0
M  V30 911 H 86.6269 -0.692627 0.279779 0
M  V30 912 H 89.2889 -1.42087 1.33406 0
M  V30 913 H 88.3849 -2.92759 1.0816 0
M  V30 914 N 88.686 -0.835752 -1.33615 0
M  V30 915 C 89.633 -0.26473 -2.29277 0
M  V30 916 C 90.603 0.617712 -1.54187 0
M  V30 917 O 91.788 0.556641 -1.825 0
M  V30 918 C 88.928 0.556777 -3.40579 0
M  V30 919 C 88.041 -0.349339 -4.30585 0
M  V30 920 C 87.176 0.482969 -5.29 0
M  V30 921 C 86.215 -0.421732 -6.10645 0
M  V30 922 N 85.352 0.372262 -7.01112 0
M  V30 923 H 90.192 -1.08582 -2.77514 0
M  V30 924 H 87.729 -0.546927 -1.36554 0
M  V30 925 H 89.687 1.04852 -4.03809 0
M  V30 926 H 88.317 1.34286 -2.93542 0
M  V30 927 H 87.369 -0.959372 -3.68104 0
M  V30 928 H 88.681 -1.04445 -4.87742 0
M  V30 929 H 87.835 1.03866 -5.97743 0
M  V30 930 H 86.574 1.21153 -4.72412 0
M  V30 931 H 85.579 -0.989464 -5.40823 0
M  V30 932 H 86.804 -1.14861 -6.69316 0
M  V30 933 H 84.75 1.08426 -6.46977 0
M  V30 934 H 84.667 -0.264198 -7.55538 0
M  V30 935 H 85.935 0.910293 -7.74167 0
M  V30 936 N 90.1641 1.46063 -0.591896 0
M  V30 937 C 91.4101 2.02638 -0.0811191 0
M  V30 938 C 91.7431 1.4613 1.27905 0
M  V30 939 O 91.0181 0.629908 1.84017 0
M  V30 940 C 91.3011 3.60091 -0.0252436 0
M  V30 941 C 91.1541 4.26965 -1.41496 0
M  V30 942 C 92.4731 4.3496 0.670685 0
M  V30 943 H 89.5921 0.73635 -0.0309524 0
M  V30 944 H 92.2341 1.741 -0.760859 0
M  V30 945 H 90.3841 3.84535 0.553624 0
M  V30 946 H 92.0561 4.13756 -2.0397 0
M  V30 947 H 90.2991 3.85971 -1.98011 0
M  V30 948 H 90.9701 5.35781 -1.32825 0
M  V30 949 H 93.4461 4.15716 0.178825 0
M  V30 950 H 92.3221 5.44686 0.678837 0
M  V30 951 H 92.5831 4.06685 1.73379 0
M  V30 952 N 91.6422 0.330177 1.54103 0
M  V30 953 C 92.8882 -0.270806 2.00984 0
M  V30 954 C 93.2212 -1.51265 1.21789 0
M  V30 955 O 92.4962 -1.92142 0.301927 0
M  V30 956 C 92.7792 -0.598339 3.55094 0
M  V30 957 C 92.6322 0.654674 4.4501 0
M  V30 958 C 93.9512 -1.41334 4.16789 0
M  V30 959 H 91.0702 -0.0969531 0.730595 0
M  V30 960 H 93.7122 0.448066 1.84641 0
M  V30 961 H 91.8622 -1.21078 3.69151 0
M  V30 962 H 93.5342 1.29285 4.42813 0
M  V30 963 H 91.7772 1.28224 4.14416 0
M  V30 964 H 92.4482 0.380944 5.50684 0
M  V30 965 H 94.9242 -0.895597 4.06347 0
M  V30 966 H 93.8002 -1.61127 5.24718 0
M  V30 967 H 94.0612 -2.41146 3.70541 0
M  V30 968 N 93.1203 -1.57491 0.0584922 0
M  V30 969 C 94.5313 -1.80526 -0.476138 0
M  V30 970 C 94.8823 -0.971334 -1.70469 0
M  V30 971 O 94.0073 -0.190012 -2.15564 0
M  V30 972 C 94.6023 -3.27424 -0.870587 0
M  V30 973 C 93.1613 -3.51351 -1.35015 0
M  V30 974 C 92.3083 -2.75343 -0.32887 0
M  V30 975 H 95.2593 -1.56133 0.284312 0
M  V30 976 H 95.2803 -3.38745 -1.73299 0
M  V30 977 H 94.7923 -3.88093 0.0237627 0
M  V30 978 H 92.8933 -2.95971 -2.26345 0
M  V30 979 H 93.0063 -4.60059 -1.33726 0
M  V30 980 H 91.3703 -2.417 -0.803321 0
M  V30 981 H 92.1533 -3.38743 0.557521 0
M  V30 982 N 94.5984 0.214957 -1.56127 0
M  V30 983 C 95.5454 1.26642 -1.92952 0
M  V30 984 C 96.5154 1.46244 -0.78753 0
M  V30 985 O 97.7004 1.59704 -1.04399 0
M  V30 986 C 94.8404 2.6104 -2.25726 0
M  V30 987 C 93.9534 2.49183 -3.52891 0
M  V30 988 C 93.0884 3.76149 -3.7508 0
M  V30 989 C 92.1274 3.59041 -4.95738 0
M  V30 990 N 91.2644 4.77972 -5.14283 0
M  V30 991 H 96.1044 0.945384 -2.82607 0
M  V30 992 H 93.6414 0.455489 -1.3987 0
M  V30 993 H 95.5994 3.39313 -2.42739 0
M  V30 994 H 94.2294 2.91227 -1.39236 0
M  V30 995 H 93.2814 1.6231 -3.44034 0
M  V30 996 H 94.5934 2.32466 -4.41318 0
M  V30 997 H 93.7474 4.62865 -3.92226 0
M  V30 998 H 92.4864 3.95799 -2.84947 0
M  V30 999 H 91.4914 2.7071 -4.78535 0
M  V30 1000 H 92.7164 3.40856 -5.87362 0
M  V30 1001 H 90.6624 4.97923 -4.27093 0
M  V30 1002 H 90.5794 4.64006 -5.96853 0
M  V30 1003 H 91.8474 5.66096 -5.35869 0
M  V30 1004 N 96.0765 1.50051 0.48192 0
M  V30 1005 C 97.3045 1.64237 1.25832 0
M  V30 1006 C 97.7195 0.321336 1.86045 0
M  V30 1007 O 97.0765 -0.695478 1.68729 0
M  V30 1008 C 97.1275 2.72548 2.37487 0
M  V30 1009 O 96.8485 3.99529 1.79745 0
M  V30 1010 C 98.3495 2.9761 3.28547 0
M  V30 1011 H 95.5695 0.55237 0.380957 0
M  V30 1012 H 98.1135 1.96207 0.576467 0
M  V30 1013 H 96.2685 2.43303 3.01467 0
M  V30 1014 H 96.6825 4.59342 2.5319 0
M  V30 1015 H 98.1565 3.77084 4.03127 0
M  V30 1016 H 98.6335 2.0826 3.86684 0
M  V30 1017 H 99.2395 3.28345 2.70314 0
M  V30 1018 N 97.5546 -0.734337 1.39446 0
M  V30 1019 C 98.8006 -1.49613 1.36908 0
M  V30 1020 C 99.1336 -1.94169 -0.0347829 0
M  V30 1021 O 98.4086 -1.66833 -0.999847 0
M  V30 1022 C 98.6916 -2.73534 2.34203 0
M  V30 1023 C 98.5446 -2.34993 3.83534 0
M  V30 1024 C 99.8636 -3.75635 2.29317 0
M  V30 1025 H 96.9826 -0.542714 0.498629 0
M  V30 1026 H 99.6246 -0.839597 1.70443 0
M  V30 1027 H 97.7746 -3.29553 2.05736 0
M  V30 1028 H 99.4466 -1.84601 4.22753 0
M  V30 1029 H 97.6896 -1.67213 4.00278 0
M  V30 1030 H 98.3606 -3.23738 4.47099 0
M  V30 1031 H 100.837 -3.29203 2.54489 0
M  V30 1032 H 99.7126 -4.60008 2.99472 0
M  V30 1033 H 99.9736 -4.22603 1.29842 0
M  V30 1034 N 99.0327 -1.24633 -0.964593 0
M  V30 1035 C 99.9427 -1.05859 -2.09359 0
M  V30 1036 C 100.959 0.00148855 -1.74 0
M  V30 1037 O 102.135 -0.197346 -2.00431 0
M  V30 1038 C 99.1997 -0.668879 -3.40187 0
M  V30 1039 C 98.2607 -1.80578 -3.89474 0
M  V30 1040 C 97.4937 -1.43457 -5.14058 0
M  V30 1041 O 97.7167 -0.325775 -5.69469 0
M  V30 1042 O 96.6507 -2.2613 -5.57807 0
M  V30 1043 H 100.477 -2.00516 -2.28094 0
M  V30 1044 H 98.0617 -1.03481 -1.0776 0
M  V30 1045 H 99.9437 -0.463211 -4.18846 0
M  V30 1046 H 98.6187 0.248536 -3.22744 0
M  V30 1047 H 97.5257 -2.06623 -3.11862 0
M  V30 1048 H 98.8587 -2.70208 -4.11398 0
M  V30 1049 N 100.511 1.16574 -1.06058 0
M  V30 1050 C 101.459 2.22941 -0.663343 0
M  V30 1051 C 102.453 1.66358 0.319593 0
M  V30 1052 O 103.659 1.7905 0.184713 0
M  V30 1053 H 100.034 0.725907 -0.196376 0
M  V30 1054 H 102.005 2.53736 -1.57037 0
M  V30 1055 C 100.754 3.47642 -0.0632808 0
M  V30 1056 H 100.077 3.91493 -0.810733 0
M  V30 1057 H 101.517 4.2363 0.177177 0
M  V30 1058 C 99.9758 3.1509 1.19248 0
M  V30 1059 O 100.506 3.30673 2.28075 0
M  V30 1060 N 98.7118 2.6924 1.09353 0
M  V30 1061 H 98.2588 2.5676 0.207912 0
M  V30 1062 H 98.2168 2.47833 1.93458 0
M  V30 1063 N 101.989 0.842826 1.3317 0
M  V30 1064 C 103.236 0.440447 1.97652 0
M  V30 1065 C 103.564 -1.00123 1.6675 0
M  V30 1066 O 102.819 -1.7155 0.941761 0
M  V30 1067 C 103.118 0.612607 3.52111 0
M  V30 1068 C 102.784 2.02297 4.02972 0
M  V30 1069 C 101.446 2.40874 4.16573 0
M  V30 1070 C 103.798 2.94402 4.30089 0
M  V30 1071 C 101.126 3.70852 4.54627 0
M  V30 1072 C 103.478 4.23865 4.69597 0
M  V30 1073 C 102.142 4.62392 4.81404 0
M  V30 1074 H 101.412 0.161171 0.72326 0
M  V30 1075 H 104.059 1.07061 1.58777 0
M  V30 1076 H 102.364 -0.100849 3.9167 0
M  V30 1077 H 104.061 0.2815 4.00011 0
M  V30 1078 H 100.651 1.71338 3.92863 0
M  V30 1079 H 104.835 2.65835 4.19101 0
M  V30 1080 H 100.091 4.00501 4.61962 0
M  V30 1081 H 104.265 4.95306 4.89536 0
M  V30 1082 H 101.892 5.63154 5.10648 0
M  V30 1083 N 103.467 -1.45747 0.599634 0
M  V30 1084 C 104.713 -2.02592 0.0918643 0
M  V30 1085 C 105.046 -1.46806 -1.27128 0
M  V30 1086 O 104.321 -0.639658 -1.83681 0
M  V30 1087 C 104.604 -3.60073 0.0443398 0
M  V30 1088 C 104.457 -4.26208 1.43759 0
M  V30 1089 C 105.776 -4.35309 -0.647608 0
M  V30 1090 H 102.895 -0.736175 0.034857 0
M  V30 1091 H 105.537 -1.73694 0.770081 0
M  V30 1092 H 103.687 -3.84823 -0.533224 0
M  V30 1093 H 105.359 -4.12668 2.06162 0
M  V30 1094 H 103.602 -3.84916 2.00056 0
M  V30 1095 H 104.273 -5.35069 1.35665 0
M  V30 1096 H 106.749 -4.15805 -0.156776 0
M  V30 1097 H 105.625 -5.45038 -0.649942 0
M  V30 1098 H 105.886 -4.07598 -1.71219 0
M  V30 1099 N 104.945 -0.338344 -1.53925 0
M  V30 1100 C 105.908 0.508299 -2.23493 0
M  V30 1101 C 106.908 1.03175 -1.23335 0
M  V30 1102 O 108.098 0.921826 -1.47811 0
M  V30 1103 C 105.23 1.70754 -2.95052 0
M  V30 1104 H 106.423 -0.100058 -2.99733 0
M  V30 1105 H 103.976 -0.0896198 -1.56043 0
M  V30 1106 H 104.711 2.35474 -2.22986 0
M  V30 1107 H 104.496 1.33946 -3.68512 0
M  V30 1108 H 105.986 2.30818 -3.48013 0
M  V30 1109 N 106.423 1.57458 -0.0668435 0
M  V30 1110 C 107.353 2.15468 0.899764 0
M  V30 1111 C 108.334 1.08042 1.31381 0
M  V30 1112 O 109.519 1.36054 1.38574 0
M  V30 1113 C 106.649 2.71232 2.16911 0
M  V30 1114 C 105.603 3.83781 1.89463 0
M  V30 1115 C 104.929 4.26127 3.22986 0
M  V30 1116 C 106.229 5.08238 1.20381 0
M  V30 1117 H 107.923 2.96488 0.416529 0
M  V30 1118 H 105.469 1.4262 0.198908 0
M  V30 1119 H 107.422 3.10458 2.84945 0
M  V30 1120 H 106.146 1.87426 2.67468 0
M  V30 1121 H 104.805 3.45051 1.23836 0
M  V30 1122 H 104.453 3.39249 3.71374 0
M  V30 1123 H 104.153 5.01993 3.05413 0
M  V30 1124 H 105.677 4.67966 3.92225 0
M  V30 1125 H 107.091 5.44811 1.78475 0
M  V30 1126 H 105.488 5.89349 1.13083 0
M  V30 1127 H 106.558 4.84558 0.182153 0
M  V30 1128 N 107.901 -0.206675 1.56239 0
M  V30 1129 C 108.864 -1.23976 1.92776 0
M  V30 1130 C 109.864 -1.39041 0.807729 0
M  V30 1131 O 111.054 -1.37051 1.0753 0
M  V30 1132 C 108.186 -2.61112 2.19165 0
M  V30 1133 H 109.379 -0.927764 2.85189 0
M  V30 1134 H 106.932 -0.447718 1.4975 0
M  V30 1135 H 107.667 -2.97386 1.29352 0
M  V30 1136 H 107.452 -2.51552 3.00772 0
M  V30 1137 H 108.942 -3.35633 2.48476 0
M  V30 1138 N 109.379 -1.50304 -0.473955 0
M  V30 1139 C 110.607 -1.64902 -1.24959 0
M  V30 1140 C 111.022 -0.331198 -1.85872 0
M  V30 1141 O 110.379 0.68652 -1.69095 0
M  V30 1142 C 110.43 -2.73803 -2.36038 0
M  V30 1143 O 110.151 -4.00477 -1.77624 0
M  V30 1144 C 111.652 -2.99349 -3.26964 0
M  V30 1145 H 108.872 -0.554383 -0.378022 0
M  V30 1146 H 111.416 -1.9651 -0.566054 0
M  V30 1147 H 109.571 -2.44898 -3.00173 0
M  V30 1148 H 109.985 -4.60678 -2.5075 0
M  V30 1149 H 111.459 -3.79217 -4.01121 0
M  V30 1150 H 111.936 -2.10307 -3.85574 0
M  V30 1151 H 112.542 -3.29774 -2.68569 0
M  V30 1152 N 110.857 0.726932 -1.39834 0
M  V30 1153 C 112.105 1.4837 -1.37225 0
M  V30 1154 C 112.426 1.94979 0.0284857 0
M  V30 1155 O 111.696 1.69555 0.981213 0
M  V30 1156 H 110.276 0.55043 -0.505011 0
M  V30 1157 H 112.938 0.862468 -1.74778 0
M  V30 1158 H 112.034 2.36198 -2.04003 0
M  V30 1159 N 112.336 1.25143 0.95797 0
M  V30 1160 C 113.246 1.06968 2.08794 0
M  V30 1161 C 114.262 0.00773911 1.73998 0
M  V30 1162 O 115.438 0.207972 2.00323 0
M  V30 1163 C 112.503 0.68691 3.39827 0
M  V30 1164 C 111.564 1.82641 3.88511 0
M  V30 1165 C 110.797 1.46181 5.1329 0
M  V30 1166 O 111.02 0.355971 5.69288 0
M  V30 1167 O 109.954 2.29085 5.566 0
M  V30 1168 H 113.78 2.01723 2.27027 0
M  V30 1169 H 111.365 1.04051 1.07209 0
M  V30 1170 H 113.247 0.485417 4.18595 0
M  V30 1171 H 111.922 -0.231417 3.22872 0
M  V30 1172 H 110.829 2.08274 3.10762 0
M  V30 1173 H 112.162 2.72386 4.09959 0
M  V30 1174 N 113.814 -1.1601 1.06675 0
M  V30 1175 C 114.761 -2.20525 0.680967 0
M  V30 1176 C 115.731 -1.62904 -0.324283 0
M  V30 1177 O 116.916 -1.89615 -0.212294 0
M  V30 1178 C 114.056 -3.45013 0.0776551 0
M  V30 1179 C 113.169 -4.16863 1.13355 0
M  V30 1180 C 112.304 -5.2888 0.49597 0
M  V30 1181 C 111.343 -5.92537 1.53513 0
M  V30 1182 N 110.48 -6.96038 0.920631 0
M  V30 1183 H 115.32 -2.52876 1.57663 0
M  V30 1184 H 112.857 -1.24199 0.788223 0
M  V30 1185 H 114.815 -4.16193 -0.289704 0
M  V30 1186 H 113.445 -3.132 -0.781393 0
M  V30 1187 H 112.497 -3.44248 1.61857 0
M  V30 1188 H 113.809 -4.60294 1.92174 0
M  V30 1189 H 112.963 -6.06653 0.0758604 0
M  V30 1190 H 111.702 -4.86622 -0.324062 0
M  V30 1191 H 110.707 -5.13482 1.9651 0
M  V30 1192 H 111.932 -6.36873 2.35733 0
M  V30 1193 H 109.878 -6.55888 0.12138 0
M  V30 1194 H 109.795 -7.3786 1.64616 0
M  V30 1195 H 111.063 -7.77725 0.525795 0
M  V30 1196 N 115.292 -0.849877 -1.32721 0
M  V30 1197 C 116.54 -0.450032 -1.97026 0
M  V30 1198 C 116.861 0.996604 -1.67609 0
M  V30 1199 O 116.131 1.6958 -0.980786 0
M  V30 1200 H 114.711 -0.163426 -0.728904 0
M  V30 1201 H 117.373 -1.08526 -1.6189 0
M  V30 1202 H 116.469 -0.591146 -3.0645 0
M  V30 1203 N 116.77 1.45427 -0.607355 0
M  V30 1204 C 118 2.06314 -0.108656 0
M  V30 1205 C 118.408 1.45269 1.21217 0
M  V30 1206 O 117.751 0.561115 1.74921 0
M  V30 1207 C 117.813 3.59345 0.105618 0
M  V30 1208 C 117.477 4.42723 -1.13337 0
M  V30 1209 C 118.474 4.77715 -2.05145 0
M  V30 1210 C 116.159 4.83478 -1.36213 0
M  V30 1211 C 118.153 5.52317 -3.18158 0
M  V30 1212 C 115.84 5.57835 -2.49527 0
M  V30 1213 C 116.838 5.92171 -3.40327 0
M  V30 1214 O 116.526 6.65019 -4.51669 0
M  V30 1215 H 116.258 0.672782 -0.0658842 0
M  V30 1216 H 118.812 1.87664 -0.834945 0
M  V30 1217 H 117.042 3.76394 0.886796 0
M  V30 1218 H 118.731 4.02076 0.555886 0
M  V30 1219 H 119.497 4.46787 -1.88697 0
M  V30 1220 H 115.376 4.56188 -0.664362 0
M  V30 1221 H 118.92 5.79036 -3.89054 0
M  V30 1222 H 114.817 5.88177 -2.65928 0
M  V30 1223 H 115.585 6.83469 -4.50348 0
M  V30 1224 N 118.248 0.346503 1.53744 0
M  V30 1225 C 119.496 -0.248612 2.00565 0
M  V30 1226 C 119.817 -1.5083 1.23593 0
M  V30 1227 O 119.087 -1.92858 0.343912 0
M  V30 1228 H 117.667 -0.0948564 0.740953 0
M  V30 1229 H 120.329 0.468341 1.89189 0
M  V30 1230 H 119.425 -0.488994 3.08245 0
M  V30 1231 N 119.726 -1.57421 0.075193 0
M  V30 1232 C 120.956 -1.97659 -0.601203 0
M  V30 1233 C 121.364 -0.952427 -1.63479 0
M  V30 1234 O 120.707 0.0688241 -1.83571 0
M  V30 1235 C 120.769 -3.34218 -1.32434 0
M  V30 1236 C 120.433 -4.5484 -0.443826 0
M  V30 1237 C 121.43 -5.19034 0.299969 0
M  V30 1238 C 119.115 -5.00952 -0.367709 0
M  V30 1239 C 121.109 -6.27695 1.10807 0
M  V30 1240 C 118.796 -6.09484 0.444058 0
M  V30 1241 C 119.794 -6.72719 1.18061 0
M  V30 1242 O 119.482 -7.79161 1.97898 0
M  V30 1243 H 119.214 -0.65494 -0.167422 0
M  V30 1244 H 121.768 -2.04886 0.145157 0
M  V30 1245 H 119.998 -3.23615 -2.11685 0
M  V30 1246 H 121.687 -3.59038 -1.89331 0
M  V30 1247 H 122.453 -4.84351 0.250776 0
M  V30 1248 H 118.332 -4.51509 -0.930638 0
M  V30 1249 H 121.876 -6.76982 1.68347 0
M  V30 1250 H 117.773 -6.43601 0.494803 0
M  V30 1251 H 118.541 -7.96055 1.90367 0
M  V30 1252 N 121.204 0.198386 -1.56346 0
M  V30 1253 C 122.151 1.24589 -1.94284 0
M  V30 1254 C 123.121 1.454 -0.802997 0
M  V30 1255 O 124.306 1.58588 -1.06087 0
M  V30 1256 C 121.446 2.58631 -2.28482 0
M  V30 1257 C 120.559 2.45426 -3.55514 0
M  V30 1258 C 119.694 3.7215 -3.79049 0
M  V30 1259 C 118.733 3.53763 -4.99518 0
M  V30 1260 N 117.87 4.72491 -5.19323 0
M  V30 1261 H 122.71 0.915356 -2.83593 0
M  V30 1262 H 120.247 0.440629 -1.40346 0
M  V30 1263 H 122.205 3.3672 -2.46324 0
M  V30 1264 H 120.835 2.89734 -1.42317 0
M  V30 1265 H 119.887 1.58652 -3.45737 0
M  V30 1266 H 121.199 2.27772 -4.43758 0
M  V30 1267 H 120.353 4.58679 -3.97113 0
M  V30 1268 H 119.092 3.92754 -2.89129 0
M  V30 1269 H 118.097 2.65619 -4.8138 0
M  V30 1270 H 119.322 3.34607 -5.90944 0
M  V30 1271 H 117.268 4.93365 -4.3235 0
M  V30 1272 H 117.185 4.5765 -6.01741 0
M  V30 1273 H 118.453 5.6038 -5.41843 0
M  V30 1274 N 122.682 1.50554 0.465978 0
M  V30 1275 C 123.93 1.61479 1.21528 0
M  V30 1276 C 124.251 0.319596 1.92363 0
M  V30 1277 O 123.521 -0.663194 1.84333 0
M  V30 1278 H 122.101 0.595055 0.451573 0
M  V30 1279 H 124.763 1.87355 0.53704 0
M  V30 1280 H 123.859 2.42846 1.96042 0
M  V30 1281 N 124.16 -0.719506 1.40217 0
M  V30 1282 C 125.385 -1.51371 1.4178 0
M  V30 1283 C 125.81 -1.88091 0.0182355 0
M  V30 1284 O 125.168 -1.52997 -0.972707 0
M  V30 1285 C 125.216 -2.768 2.31115 0
M  V30 1286 O 124.32 -3.73349 1.7517 0
M  V30 1287 H 123.661 -0.456529 0.482159 0
M  V30 1288 H 126.191 -0.88644 1.844 0
M  V30 1289 H 126.201 -3.25371 2.46167 0
M  V30 1290 H 124.876 -2.49407 3.3282 0
M  V30 1291 H 123.453 -3.32179 1.69444 0
M  V30 1292 N 125.638 -1.25649 -0.95132 0
M  V30 1293 C 126.585 -1.06323 -2.04851 0
M  V30 1294 C 127.555 0.0286491 -1.66075 0
M  V30 1295 O 128.74 -0.12917 -1.90362 0
M  V30 1296 C 125.88 -0.691529 -3.381 0
M  V30 1297 C 124.993 -1.85861 -3.89974 0
M  V30 1298 C 124.128 -1.43096 -5.11563 0
M  V30 1299 C 123.167 -2.56696 -5.55674 0
M  V30 1300 N 122.304 -2.14684 -6.68472 0
M  V30 1301 H 127.144 -2.00222 -2.20715 0
M  V30 1302 H 124.681 -0.997027 -1.08156 0
M  V30 1303 H 126.639 -0.456963 -4.1469 0
M  V30 1304 H 125.269 0.210474 -3.22113 0
M  V30 1305 H 124.321 -2.20639 -3.09875 0
M  V30 1306 H 125.633 -2.71161 -4.18657 0
M  V30 1307 H 124.787 -1.15624 -5.9558 0
M  V30 1308 H 123.526 -0.548722 -4.84603 0
M  V30 1309 H 122.531 -2.84909 -4.7022 0
M  V30 1310 H 123.756 -3.45503 -5.8464 0
M  V30 1311 H 121.702 -1.28881 -6.43215 0
M  V30 1312 H 121.619 -2.9353 -6.96689 0
M  V30 1313 H 122.887 -1.90397 -7.5589 0
M  V30 1314 N 127.117 1.15442 -1.07289 0
M  V30 1315 C 128.364 1.86213 -0.795668 0
M  V30 1316 C 128.692 1.82291 0.678238 0
M  V30 1317 O 127.947 1.24057 1.51355 0
M  V30 1318 C 128.246 3.3489 -1.24834 0
M  V30 1319 C 127.912 3.59007 -2.72809 0
M  V30 1320 C 126.574 3.65298 -3.13227 0
M  V30 1321 C 128.926 3.68762 -3.68326 0
M  V30 1322 C 126.254 3.78854 -4.4798 0
M  V30 1323 C 128.606 3.83842 -5.0284 0
M  V30 1324 C 127.27 3.88378 -5.4288 0
M  V30 1325 H 126.54 0.681403 -0.291155 0
M  V30 1326 H 129.187 1.36435 -1.34379 0
M  V30 1327 H 127.492 3.8687 -0.619595 0
M  V30 1328 H 129.189 3.88052 -1.01076 0
M  V30 1329 H 125.779 3.5475 -2.40521 0
M  V30 1330 H 129.963 3.63202 -3.38227 0
M  V30 1331 H 125.219 3.80623 -4.78472 0
M  V30 1332 H 129.393 3.90332 -5.76727 0
M  V30 1333 H 127.02 3.98635 -6.47298 0
M  V30 1334 N 128.595 0.856903 1.32268 0
M  V30 1335 C 129.545 0.274899 2.26337 0
M  V30 1336 C 130.529 -0.580543 1.50062 0
M  V30 1337 O 131.721 -0.429559 1.71708 0
M  V30 1338 C 128.85 -0.533841 3.39124 0
M  V30 1339 C 127.936 0.334114 4.22782 0
M  V30 1340 N 128.327 1.42143 4.85416 0
M  V30 1341 C 126.625 0.124256 4.45827 0
M  V30 1342 C 127.326 1.95559 5.47843 0
M  V30 1343 N 126.302 1.25444 5.28928 0
M  V30 1344 H 130.104 1.10612 2.72291 0
M  V30 1345 H 127.618 0.703258 1.46383 0
M  V30 1346 H 129.615 -0.96722 4.05525 0
M  V30 1347 H 128.275 -1.36283 2.94715 0
M  V30 1348 H 129.286 1.80436 4.85451 0
M  V30 1349 H 125.963 -0.669837 4.12092 0
M  V30 1350 H 127.353 2.86714 6.07655 0
M  V30 1351 N 130.073 -1.45103 0.615059 0
M  V30 1352 C 131.489 -1.57137 0.279322 0
M  V30 1353 C 131.689 -1.60523 -1.21797 0
M  V30 1354 O 130.745 -1.53956 -2.00134 0
M  V30 1355 C 132.058 -2.85062 0.957083 0
M  V30 1356 C 133.606 -2.98749 0.933706 0
M  V30 1357 C 134.081 -4.29455 1.59162 0
M  V30 1358 N 135.572 -4.36231 1.55746 0
M  V30 1359 C 136.307 -5.36051 2.0356 0
M  V30 1360 N 135.803 -6.42367 2.59494 0
M  V30 1361 N 137.596 -5.27456 1.94284 0
M  V30 1362 H 129.747 -1.41148 1.58717 0
M  V30 1363 H 132.01 -0.675331 0.665306 0
M  V30 1364 H 131.716 -2.88488 2.01166 0
M  V30 1365 H 131.59 -3.7407 0.48494 0
M  V30 1366 H 133.977 -2.94886 -0.112347 0
M  V30 1367 H 134.058 -2.11132 1.44419 0
M  V30 1368 H 133.702 -4.34077 2.63704 0
M  V30 1369 H 133.632 -5.15901 1.0561 0
M  V30 1370 H 136.123 -3.60011 1.14893 0
M  V30 1371 H 136.436 -7.14793 2.93752 0
M  V30 1372 H 134.781 -6.43097 2.63537 0
M  V30 1373 H 137.972 -4.43308 1.5032 0
M  V30 1374 H 138.145 -6.05099 2.3186 0
M  V30 1375 N 131.551 -0.354651 -1.53558 0
M  V30 1376 C 132.797 0.238797 -2.01389 0
M  V30 1377 C 133.13 1.49309 -1.2418 0
M  V30 1378 O 132.405 1.91638 -0.332457 0
M  V30 1379 C 132.688 0.541771 -3.56001 0
M  V30 1380 C 132.541 -0.725388 -4.43912 0
M  V30 1381 C 133.86 1.34685 -4.18984 0
M  V30 1382 H 130.979 0.0853177 -0.732045 0
M  V30 1383 H 133.621 -0.477384 -1.83905 0
M  V30 1384 H 131.771 1.15189 -3.71031 0
M  V30 1385 H 133.443 -1.36313 -4.407 0
M  V30 1386 H 131.686 -1.34801 -4.12324 0
M  V30 1387 H 132.357 -0.468505 -5.50008 0
M  V30 1388 H 134.833 0.830837 -4.07721 0
M  V30 1389 H 133.709 1.52759 -5.27215 0
M  V30 1390 H 133.97 2.35221 -3.74331 0
M  V30 1391 N 133.029 1.57378 -0.0835403 0
M  V30 1392 C 134.278 1.93106 0.582498 0
M  V30 1393 C 134.591 0.96651 1.70053 0
M  V30 1394 O 135.797 1.21705 2.42693 0
M  V30 1395 C 134.253 3.43076 1.08751 0
M  V30 1396 C 133.861 4.48 -0.000146404 0
M  V30 1397 C 135.605 3.87785 1.72694 0
M  V30 1398 C 133.512 5.89113 0.519568 0
M  V30 1399 H 132.442 0.720775 0.221358 0
M  V30 1400 H 135.093 1.82821 -0.157675 0
M  V30 1401 H 133.475 3.48474 1.88101 0
M  V30 1402 H 134.649 4.54233 -0.775199 0
M  V30 1403 H 132.964 4.1283 -0.54406 0
M  V30 1404 H 135.561 4.90604 2.1263 0
M  V30 1405 H 135.904 3.25796 2.59158 0
M  V30 1406 H 136.437 3.8504 0.999457 0
M  V30 1407 H 133.176 6.54775 -0.308186 0
M  V30 1408 H 132.696 5.86376 1.26188 0
M  V30 1409 H 134.375 6.39346 0.992237 0
M  V30 1410 N 134.507 -0.190092 1.56449 0
M  V30 1411 C 135.454 -1.23557 1.94942 0
M  V30 1412 C 136.424 -1.44972 0.810696 0
M  V30 1413 O 137.609 -1.58023 1.06927 0
M  V30 1414 C 134.749 -2.57416 2.2985 0
M  V30 1415 C 133.862 -2.43537 3.5681 0
M  V30 1416 C 132.997 -3.70134 3.81017 0
M  V30 1417 C 132.036 -3.51109 5.01387 0
M  V30 1418 N 131.173 -4.6973 5.21822 0
M  V30 1419 H 136.013 -0.900304 2.84075 0
M  V30 1420 H 133.55 -0.43318 1.40577 0
M  V30 1421 H 135.508 -3.35409 2.48106 0
M  V30 1422 H 134.138 -2.88975 1.43852 0
M  V30 1423 H 133.19 -1.56816 3.46573 0
M  V30 1424 H 134.502 -2.25415 4.4496 0
M  V30 1425 H 133.656 -4.56566 3.9954 0
M  V30 1426 H 132.395 -3.91215 2.91207 0
M  V30 1427 H 131.4 -2.63063 4.82782 0
M  V30 1428 H 132.625 -3.31468 5.9271 0
M  V30 1429 H 130.571 -4.91065 4.34961 0
M  V30 1430 H 130.488 -4.54452 6.0416 0
M  V30 1431 H 131.756 -5.57499 5.44808 0
M  V30 1432 N 135.985 -1.50799 -0.457987 0
M  V30 1433 C 137.262 -1.52968 -1.21902 0
M  V30 1434 C 137.642 -0.281906 -2.09209 0
M  V30 1435 O 136.99 0.734076 -2.16388 0
M  V30 1436 C 137.2 -2.8326 -2.03875 0
M  V30 1437 C 138.548 -3.34425 -2.6162 0
M  V30 1438 O 139.572 -2.8467 -2.14106 0
M  V30 1439 O 138.431 -4.21188 -3.48228 0
M  V30 1440 H 135.525 -0.614129 -0.553873 0
M  V30 1441 H 138.071 -1.63098 -0.468739 0
M  V30 1442 H 136.843 -3.65543 -1.39621 0
M  V30 1443 H 136.466 -2.76195 -2.8601 0
M  V30 1444 N 137.463 0.71206 -1.40597 0
M  V30 1445 C 138.71 1.47197 -1.39065 0
M  V30 1446 C 139.038 1.94499 0.00583891 0
M  V30 1447 O 138.293 1.68752 0.99102 0
M  V30 1448 C 138.592 2.71039 -2.32965 0
M  V30 1449 C 138.258 2.42484 -3.80148 0
M  V30 1450 C 136.92 2.34406 -4.20247 0
M  V30 1451 C 139.272 2.18598 -4.73143 0
M  V30 1452 C 136.6 2.00516 -5.51371 0
M  V30 1453 C 138.952 1.8622 -6.0457 0
M  V30 1454 C 137.616 1.76626 -6.43708 0
M  V30 1455 H 136.886 0.538634 -0.508876 0
M  V30 1456 H 139.533 0.815325 -1.73276 0
M  V30 1457 H 137.838 3.41558 -1.91951 0
M  V30 1458 H 139.535 3.29138 -2.29061 0
M  V30 1459 H 136.125 2.49659 -3.4838 0
M  V30 1460 H 140.309 2.23793 -4.42979 0
M  V30 1461 H 135.565 1.91628 -5.80593 0
M  V30 1462 H 139.739 1.66752 -6.76141 0
M  V30 1463 H 137.366 1.50133 -7.45228 0
M  V30 1464 N 138.941 1.26152 0.944643 0
M  V30 1465 C 139.874 1.01729 2.04271 0
M  V30 1466 C 140.852 -0.0568101 1.62501 0
M  V30 1467 O 142.036 0.0848987 1.88309 0
M  V30 1468 C 139.163 0.539792 3.34371 0
M  V30 1469 C 138.209 1.60593 3.9511 0
M  V30 1470 S 139.042 3.19392 4.29825 0
M  V30 1471 C 140.198 2.73402 5.63029 0
M  V30 1472 H 140.431 1.94703 2.24673 0
M  V30 1473 H 137.964 1.09793 1.08558 0
M  V30 1474 H 139.922 0.270956 4.09605 0
M  V30 1475 H 138.583 -0.369609 3.11918 0
M  V30 1476 H 137.776 1.22275 4.88943 0
M  V30 1477 H 137.378 1.82596 3.26397 0
M  V30 1478 H 139.67 2.1765 6.41588 0
M  V30 1479 H 140.613 3.65913 6.06229 0
M  V30 1480 H 141.021 2.13077 5.22741 0
M  V30 1481 N 140.419 -1.14872 1.07899 0
M  V30 1482 C 141.668 -1.85135 0.800499 0
M  V30 1483 C 141.981 -1.83547 -0.676014 0
M  V30 1484 O 143.187 -2.49548 -1.06948 0
M  V30 1485 C 141.643 -3.3231 1.38197 0
M  V30 1486 C 141.251 -3.42329 2.8899 0
M  V30 1487 C 142.995 -4.0772 1.18174 0
M  V30 1488 C 140.902 -4.83684 3.403 0
M  V30 1489 H 139.832 -0.693563 0.29578 0
M  V30 1490 H 142.483 -1.29532 1.29976 0
M  V30 1491 H 140.865 -3.87618 0.810431 0
M  V30 1492 H 142.039 -2.97097 3.52236 0
M  V30 1493 H 140.354 -2.80369 3.07867 0
M  V30 1494 H 142.951 -5.12049 1.5398 0
M  V30 1495 H 143.294 -4.16124 0.12117 0
M  V30 1496 H 143.827 -3.58696 1.71994 0
M  V30 1497 H 140.566 -4.80465 4.45907 0
M  V30 1498 H 140.086 -5.29474 2.81811 0
M  V30 1499 H 141.765 -5.52558 3.36584 0
M  V30 1500 N 141.898 -0.863906 -1.31812 0
M  V30 1501 C 142.83 -0.272485 -2.27575 0
M  V30 1502 C 143.843 0.56104 -1.52827 0
M  V30 1503 O 145.032 0.384021 -1.7432 0
M  V30 1504 C 142.132 0.63283 -3.32939 0
M  V30 1505 C 141.305 -0.166902 -4.37081 0
M  V30 1506 C 140.364 0.665608 -5.21973 0
M  V30 1507 O 139.39 0.0958091 -5.69119 0
M  V30 1508 N 140.592 1.9787 -5.45736 0
M  V30 1509 H 143.357 -1.0954 -2.78964 0
M  V30 1510 H 140.918 -0.724791 -1.4477 0
M  V30 1511 H 142.91 1.19532 -3.86645 0
M  V30 1512 H 141.48 1.35642 -2.81638 0
M  V30 1513 H 140.7 -0.910838 -3.83533 0
M  V30 1514 H 141.988 -0.715874 -5.03739 0
M  V30 1515 H 141.386 2.46484 -5.09178 0
M  V30 1516 H 139.943 2.48911 -6.024 0
M  V30 1517 N 143.376 1.44774 -0.622745 0
M  V30 1518 C 144.624 2.01721 -0.123655 0
M  V30 1519 C 144.945 1.49172 1.25589 0
M  V30 1520 O 144.215 0.691974 1.83272 0
M  V30 1521 H 142.795 0.745777 -0.0427225 0
M  V30 1522 H 145.457 1.77382 -0.807559 0
M  V30 1523 H 144.553 3.11984 -0.0849534 0
M  V30 1524 N 144.854 0.36279 1.53368 0
M  V30 1525 C 146.102 -0.227326 2.00817 0
M  V30 1526 C 146.423 -1.49511 1.25186 0
M  V30 1527 O 145.693 -1.92482 0.364348 0
M  V30 1528 H 144.273 -0.0869923 0.741917 0
M  V30 1529 H 146.935 0.488381 1.88682 0
M  V30 1530 H 146.031 -0.456273 3.08747 0
M  V30 1531 N 146.332 -1.57332 0.0918853 0
M  V30 1532 C 147.609 -1.85691 -0.614668 0
M  V30 1533 C 147.989 -0.988146 -1.86545 0
M  V30 1534 O 147.337 -0.0597055 -2.28422 0
M  V30 1535 C 147.547 -3.36294 -0.933126 0
M  V30 1536 C 148.895 -4.04275 -1.29796 0
M  V30 1537 O 149.919 -3.41157 -1.02424 0
M  V30 1538 O 148.778 -5.1564 -1.81047 0
M  V30 1539 H 145.872 -0.767802 -0.307261 0
M  V30 1540 H 148.418 -1.69244 0.12434 0
M  V30 1541 H 147.19 -3.91273 -0.0456404 0
M  V30 1542 H 146.813 -3.58076 -1.72822 0
M  V30 1543 N 147.81 0.181792 -1.56548 0
M  V30 1544 C 149.059 0.898348 -1.8059 0
M  V30 1545 C 149.372 1.83862 -0.667379 0
M  V30 1546 O 150.578 2.59678 -0.792446 0
M  V30 1547 C 149.034 1.64791 -3.19956 0
M  V30 1548 C 148.642 0.751789 -4.41647 0
M  V30 1549 C 150.386 2.35331 -3.53298 0
M  V30 1550 C 148.293 1.50098 -5.72035 0
M  V30 1551 H 147.223 0.339194 -0.673397 0
M  V30 1552 H 149.874 0.151413 -1.82874 0
M  V30 1553 H 148.256 2.43921 -3.11959 0
M  V30 1554 H 149.43 -0.0018076 -4.608 0
M  V30 1555 H 147.745 0.156562 -4.16106 0
M  V30 1556 H 150.342 2.91958 -4.47956 0
M  V30 1557 H 150.685 3.10164 -2.77676 0
M  V30 1558 H 151.218 1.63154 -3.62803 0
M  V30 1559 H 147.957 0.795175 -6.50659 0
M  V30 1560 H 147.477 2.22817 -5.56878 0
M  V30 1561 H 149.156 2.05125 -6.13622 0
M  V30 1562 N 149.288 1.51039 0.449983 0
M  V30 1563 C 150.516 1.66869 1.2232 0
M  V30 1564 C 150.931 0.360727 1.85322 0
M  V30 1565 O 150.288 -0.659531 1.70166 0
M  V30 1566 C 150.339 2.77524 2.31652 0
M  V30 1567 O 150.06 4.03252 1.7123 0
M  V30 1568 C 151.561 3.04512 3.2216 0
M  V30 1569 H 148.781 0.560326 0.369155 0
M  V30 1570 H 151.325 1.97385 0.534719 0
M  V30 1571 H 149.48 2.49642 2.96239 0
M  V30 1572 H 149.894 4.64609 2.43389 0
M  V30 1573 H 151.368 3.85551 3.95038 0
M  V30 1574 H 151.845 2.16415 3.8218 0
M  V30 1575 H 152.451 3.34005 2.63288 0
M  V30 1576 N 150.766 -0.704594 1.40972 0
M  V30 1577 C 151.994 -1.49354 1.43182 0
M  V30 1578 C 152.409 -1.88768 0.0345508 0
M  V30 1579 O 151.766 -1.56184 -0.944081 0
M  V30 1580 C 151.817 -2.76187 2.33244 0
M  V30 1581 O 151.538 -2.38436 3.67532 0
M  V30 1582 C 153.039 -3.7 2.44162 0
M  V30 1583 H 150.259 -0.460559 0.487982 0
M  V30 1584 H 152.803 -0.868261 1.85153 0
M  V30 1585 H 150.958 -3.34974 1.94606 0
M  V30 1586 H 151.372 -3.20126 4.15475 0
M  V30 1587 H 152.846 -4.55803 3.11364 0
M  V30 1588 H 153.323 -4.13867 1.47006 0
M  V30 1589 H 153.929 -3.17121 2.83398 0
M  V30 1590 N 152.244 -1.26651 -0.937939 0
M  V30 1591 C 153.492 -1.12165 -1.68118 0
M  V30 1592 C 153.813 0.334983 -1.92101 0
M  V30 1593 O 153.083 1.23583 -1.52 0
M  V30 1594 H 151.663 -0.412093 -0.623048 0
M  V30 1595 H 154.325 -1.59027 -1.12678 0
M  V30 1596 H 153.421 -1.64289 -2.6536 0
M  V30 1597 N 153.722 1.14298 -1.08507 0
M  V30 1598 C 154.999 1.81544 -0.728088 0
M  V30 1599 C 155.379 1.95838 0.78808 0
M  V30 1600 O 154.727 1.51904 1.70697 0
M  V30 1601 C 154.937 3.17169 -1.45619 0
M  V30 1602 C 156.285 3.9265 -1.61591 0
M  V30 1603 O 157.309 3.26762 -1.41793 0
M  V30 1604 O 156.168 5.10807 -1.94263 0
M  V30 1605 H 153.262 0.78491 -0.260471 0
M  V30 1606 H 155.808 1.21307 -1.18671 0
M  V30 1607 H 154.58 3.01934 -2.489 0
M  V30 1608 H 154.203 3.851 -0.989124 0
M  V30 1609 N 155.201 0.870884 1.31352 0
M  V30 1610 C 156.449 0.48132 1.96285 0
M  V30 1611 C 156.77 -0.969813 1.69173 0
M  V30 1612 O 156.04 -1.67998 1.00764 0
M  V30 1613 H 154.62 0.175002 0.726212 0
M  V30 1614 H 157.282 1.11087 1.60143 0
M  V30 1615 H 156.378 0.639825 3.05471 0
M  V30 1616 N 156.679 -1.44442 0.630414 0
M  V30 1617 C 157.907 -2.06414 0.141671 0
M  V30 1618 C 158.322 -1.47105 -1.18345 0
M  V30 1619 O 157.679 -0.593662 -1.72574 0
M  V30 1620 C 157.73 -3.61494 0.0199784 0
M  V30 1621 O 157.451 -4.18594 1.29269 0
M  V30 1622 C 158.952 -4.40499 -0.497544 0
M  V30 1623 H 156.172 -0.666292 0.0793452 0
M  V30 1624 H 158.716 -1.85323 0.864614 0
M  V30 1625 H 156.871 -3.8185 -0.653402 0
M  V30 1626 H 157.285 -5.12026 1.13707 0
M  V30 1627 H 158.759 -5.49433 -0.531708 0
M  V30 1628 H 159.236 -4.11895 -1.52445 0
M  V30 1629 H 159.842 -4.25061 0.142562 0
M  V30 1630 N 158.157 -0.370918 -1.53173 0
M  V30 1631 C 159.405 0.216673 -2.00935 0
M  V30 1632 C 159.726 1.48845 -1.25977 0
M  V30 1633 O 158.996 1.92286 -0.374551 0
M  V30 1634 H 157.576 0.0830565 -0.742368 0
M  V30 1635 H 160.238 -0.49838 -1.8842 0
M  V30 1636 H 159.334 0.439893 -3.08984 0
M  V30 1637 N 159.635 1.57281 -0.100228 0
M  V30 1638 C 160.883 1.94153 0.561157 0
M  V30 1639 C 161.204 0.983157 1.68401 0
M  V30 1640 O 160.474 0.0361132 1.95867 0
M  V30 1641 H 159.054 0.716791 0.210283 0
M  V30 1642 H 161.716 1.94202 -0.164765 0
M  V30 1643 H 160.812 2.96709 0.968008 0
M  V30 1644 N 161.113 -0.173488 1.56642 0
M  V30 1645 C 162.359 -0.891784 1.8214 0
M  V30 1646 C 162.692 -1.8199 0.677736 0
M  V30 1647 O 161.967 -1.91842 -0.320446 0
M  V30 1648 C 162.25 -1.68933 3.18015 0
M  V30 1649 C 162.103 -0.784487 4.42906 0
M  V30 1650 C 163.422 -2.65748 3.50808 0
M  V30 1651 H 160.541 -0.322761 0.662567 0
M  V30 1652 H 163.183 -0.158095 1.89341 0
M  V30 1653 H 161.333 -2.31482 3.12007 0
M  V30 1654 H 163.005 -0.172046 4.60979 0
M  V30 1655 H 161.248 -0.0924117 4.33702 0
M  V30 1656 H 161.919 -1.37799 5.34524 0
M  V30 1657 H 164.395 -2.13327 3.57255 0
M  V30 1658 H 163.271 -3.18619 4.4696 0
M  V30 1659 H 163.532 -3.45842 2.75401 0
M  V30 1660 N 162.591 -1.51276 -0.441967 0
M  V30 1661 C 163.816 -1.67799 -1.21895 0
M  V30 1662 C 164.241 -0.372864 -1.84367 0
M  V30 1663 O 163.599 0.666501 -1.68604 0
M  V30 1664 C 163.647 -2.79199 -2.28211 0
M  V30 1665 O 162.751 -2.42479 -3.33583 0
M  V30 1666 H 162.092 -0.559649 -0.357336 0
M  V30 1667 H 164.622 -1.97815 -0.522522 0
M  V30 1668 H 164.632 -3.03146 -2.73069 0
M  V30 1669 H 163.307 -3.73906 -1.82118 0
M  V30 1670 H 161.884 -2.29087 -2.94234 0
M  V30 1671 N 164.069 0.697108 -1.41344 0
M  V30 1672 C 165.318 1.45279 -1.39918 0
M  V30 1673 C 165.631 1.95597 -0.0109624 0
M  V30 1674 O 166.837 2.71208 0.125919 0
M  V30 1675 C 165.293 2.62695 -2.46007 0
M  V30 1676 C 164.901 2.19169 -3.90729 0
M  V30 1677 C 166.645 3.40336 -2.53715 0
M  V30 1678 C 164.552 3.33535 -4.88373 0
M  V30 1679 H 163.482 0.545692 -0.520323 0
M  V30 1680 H 166.133 0.756929 -1.67161 0
M  V30 1681 H 164.515 3.34541 -2.11892 0
M  V30 1682 H 165.689 1.54623 -4.34083 0
M  V30 1683 H 164.004 1.54525 -3.86666 0
M  V30 1684 H 166.601 4.2547 -3.2385 0
M  V30 1685 H 166.944 3.85418 -1.5735 0
M  V30 1686 H 167.477 2.75546 -2.86913 0
M  V30 1687 H 164.216 2.93468 -5.86137 0
M  V30 1688 H 163.736 3.96936 -4.49668 0
M  V30 1689 H 165.415 3.99335 -5.09059 0
M  V30 1690 N 165.547 1.27147 0.931209 0
M  V30 1691 C 166.777 1.15914 1.71019 0
M  V30 1692 C 167.185 -0.287112 1.87009 0
M  V30 1693 O 166.528 -1.20761 1.38429 0
M  V30 1694 C 166.59 1.76647 3.13107 0
M  V30 1695 C 166.254 3.25807 3.20467 0
M  V30 1696 C 167.251 4.22489 3.02983 0
M  V30 1697 C 164.936 3.66452 3.43538 0
M  V30 1698 C 166.93 5.57794 3.08454 0
M  V30 1699 C 164.617 5.01888 3.48643 0
M  V30 1700 C 165.615 5.97369 3.31119 0
M  V30 1701 O 165.303 7.30337 3.35952 0
M  V30 1702 H 165.035 0.404062 0.54195 0
M  V30 1703 H 167.589 1.68457 1.17521 0
M  V30 1704 H 165.819 1.18578 3.68071 0
M  V30 1705 H 167.508 1.60179 3.72958 0
M  V30 1706 H 168.274 3.92425 2.85004 0
M  V30 1707 H 164.153 2.92611 3.5623 0
M  V30 1708 H 167.697 6.32298 2.94694 0
M  V30 1709 H 163.594 5.31609 3.66145 0
M  V30 1710 H 164.362 7.38739 3.5243 0
M  V30 1711 N 167.025 -1.13721 1.09112 0
M  V30 1712 C 168.273 -1.84559 0.823562 0
M  V30 1713 C 168.594 -1.83754 -0.652658 0
M  V30 1714 O 167.864 -1.29102 -1.47342 0
M  V30 1715 H 166.444 -0.683376 0.301673 0
M  V30 1716 H 169.106 -1.37771 1.37859 0
M  V30 1717 H 168.202 -2.8917 1.17419 0
M  V30 1718 N 168.503 -0.877838 -1.30888 0
M  V30 1719 C 169.413 -0.343096 -2.32078 0
M  V30 1720 C 170.429 0.551022 -1.65045 0
M  V30 1721 O 171.605 0.445854 -1.96403 0
M  V30 1722 C 168.67 0.439905 -3.43898 0
M  V30 1723 C 167.731 -0.483111 -4.26573 0
M  V30 1724 C 166.964 0.262616 -5.33053 0
M  V30 1725 O 167.187 1.48967 -5.50604 0
M  V30 1726 O 166.121 -0.383593 -6.00676 0
M  V30 1727 H 169.947 -1.18203 -2.79753 0
M  V30 1728 H 167.532 -0.64145 -1.34929 0
M  V30 1729 H 169.414 0.883504 -4.12034 0
M  V30 1730 H 168.089 1.25526 -2.98371 0
M  V30 1731 H 166.996 -0.975374 -3.61161 0
M  V30 1732 H 168.329 -1.26427 -4.75686 0
M  V30 1733 N 169.982 1.44106 -0.638065 0
M  V30 1734 C 171.21 2.06336 -0.152615 0
M  V30 1735 C 171.625 1.47731 1.17563 0
M  V30 1736 O 170.982 0.602806 1.72257 0
M  V30 1737 C 171.033 3.61479 -0.0391491 0
M  V30 1738 O 170.754 4.17903 -1.31487 0
M  V30 1739 C 172.255 4.40757 0.474176 0
M  V30 1740 H 169.475 0.665862 -0.0828776 0
M  V30 1741 H 172.019 1.84862 -0.87443 0
M  V30 1742 H 170.174 3.82191 0.633142 0
M  V30 1743 H 170.588 5.11416 -1.16421 0
M  V30 1744 H 172.062 5.49707 0.502562 0
M  V30 1745 H 172.539 4.12697 1.50258 0
M  V30 1746 H 173.145 4.24979 -0.165102 0
M  V30 1747 N 171.46 0.379036 1.52974 0
M  V30 1748 C 172.707 -0.206421 2.01445 0
M  V30 1749 C 173.035 -1.47668 1.26587 0
M  V30 1750 O 172.29 -1.92514 0.351675 0
M  V30 1751 C 172.589 -0.53096 3.53434 0
M  V30 1752 C 172.255 0.646546 4.46241 0
M  V30 1753 C 170.917 0.969604 4.7133 0
M  V30 1754 C 173.269 1.43479 5.01062 0
M  V30 1755 C 170.597 2.08263 5.48492 0
M  V30 1756 C 172.949 2.53834 5.7944 0
M  V30 1757 C 171.613 2.86659 6.02812 0
M  V30 1758 H 170.883 -0.0755349 0.73714 0
M  V30 1759 H 173.53 0.514271 1.84465 0
M  V30 1760 H 171.835 -1.33285 3.68432 0
M  V30 1761 H 173.532 -0.996417 3.88423 0
M  V30 1762 H 170.122 0.384734 4.2687 0
M  V30 1763 H 174.306 1.19844 4.81613 0
M  V30 1764 H 169.562 2.34078 5.64816 0
M  V30 1765 H 173.736 3.15319 6.20924 0
M  V30 1766 H 171.363 3.73026 6.62387 0
M  V30 1767 N 172.938 -1.57226 0.108567 0
M  V30 1768 C 174.349 -1.8195 -0.418464 0
M  V30 1769 C 174.7 -1.02508 -1.67292 0
M  V30 1770 O 173.825 -0.258496 -2.14851 0
M  V30 1771 C 174.42 -3.30028 -0.765979 0
M  V30 1772 C 172.979 -3.55469 -1.23769 0
M  V30 1773 C 172.126 -2.7625 -0.241106 0
M  V30 1774 H 175.077 -1.55149 0.33384 0
M  V30 1775 H 175.098 -3.44086 -1.62434 0
M  V30 1776 H 174.61 -3.87821 0.147219 0
M  V30 1777 H 172.711 -3.03022 -2.16814 0
M  V30 1778 H 172.824 -4.6408 -1.19022 0
M  V30 1779 H 171.188 -2.44133 -0.72602 0
M  V30 1780 H 171.971 -3.36797 0.665007 0
M  V30 1781 N 174.416 0.165178 -1.56732 0
M  V30 1782 C 175.693 0.908443 -1.73224 0
M  V30 1783 C 176.073 2.0013 -0.67165 0
M  V30 1784 O 175.421 2.26353 0.31253 0
M  V30 1785 C 175.631 1.46756 -3.16644 0
M  V30 1786 C 176.979 1.93809 -3.77787 0
M  V30 1787 O 178.003 1.56537 -3.1996 0
M  V30 1788 O 176.862 2.62486 -4.79336 0
M  V30 1789 H 173.956 0.428025 -0.707618 0
M  V30 1790 H 176.502 0.152526 -1.69013 0
M  V30 1791 H 175.274 0.68129 -3.85323 0
M  V30 1792 H 174.897 2.28749 -3.25207 0
M  V30 1793 N 175.894 1.51508 0.433938 0
M  V30 1794 C 176.804 1.75917 1.5521 0
M  V30 1795 C 177.82 0.643545 1.61662 0
M  V30 1796 O 178.996 0.926183 1.7884 0
M  V30 1797 C 176.061 1.88213 2.91164 0
M  V30 1798 C 175.122 3.12074 2.94802 0
M  V30 1799 C 174.355 3.23774 4.24271 0
M  V30 1800 O 174.578 2.4133 5.16833 0
M  V30 1801 O 173.512 4.16774 4.34262 0
M  V30 1802 H 177.338 2.70777 1.37527 0
M  V30 1803 H 174.923 1.36051 0.617293 0
M  V30 1804 H 176.805 1.98267 3.71845 0
M  V30 1805 H 175.48 0.965413 3.08968 0
M  V30 1806 H 174.387 3.07497 2.13065 0
M  V30 1807 H 175.72 4.03446 2.81943 0
M  V30 1808 N 177.372 -0.689602 1.41712 0
M  V30 1809 C 178.32 -1.82475 1.44242 0
M  V30 1810 C 179.314 -1.66354 0.319774 0
M  V30 1811 O 180.52 -1.73143 0.492089 0
M  V30 1812 H 176.895 -0.601416 0.451445 0
M  V30 1813 H 178.866 -1.77458 2.39899 0
M  V30 1814 C 177.615 -3.20535 1.3473 0
M  V30 1815 H 176.938 -3.33559 2.20405 0
M  V30 1816 H 178.378 -4.00023 1.40562 0
M  V30 1817 C 176.837 -3.36846 0.0603281 0
M  V30 1818 O 177.367 -3.91656 -0.892663 0
M  V30 1819 N 175.573 -2.90595 -0.0177039 0
M  V30 1820 H 175.12 -2.46178 0.758572 0
M  V30 1821 H 175.078 -3.01886 -0.878201 0
M  V30 1822 N 178.85 -1.27639 -0.924453 0
M  V30 1823 C 180.097 -1.14167 -1.67249 0
M  V30 1824 C 180.425 0.311863 -1.91984 0
M  V30 1825 O 179.68 1.24425 -1.51053 0
M  V30 1826 C 179.979 -1.87407 -3.04325 0
M  V30 1827 C 179.645 -3.37249 -2.99289 0
M  V30 1828 C 178.307 -3.7812 -2.97622 0
M  V30 1829 C 180.659 -4.32845 -2.90336 0
M  V30 1830 C 177.987 -5.12944 -2.8479 0
M  V30 1831 C 180.339 -5.6773 -2.79045 0
M  V30 1832 C 179.003 -6.07889 -2.7573 0
M  V30 1833 H 178.273 -0.417766 -0.612007 0
M  V30 1834 H 180.92 -1.58286 -1.07786 0
M  V30 1835 H 179.225 -1.35805 -3.67511 0
M  V30 1836 H 180.922 -1.74408 -3.61086 0
M  V30 1837 H 177.512 -3.04748 -3.01374 0
M  V30 1838 H 181.696 -4.02239 -2.90719 0
M  V30 1839 H 176.952 -5.432 -2.80612 0
M  V30 1840 H 181.126 -6.41472 -2.71083 0
M  V30 1841 H 178.753 -7.12314 -2.65544 0
M  V30 1842 N 180.328 1.1314 -1.09713 0
M  V30 1843 C 181.275 2.18642 -0.739196 0
M  V30 1844 C 182.245 1.63706 0.280978 0
M  V30 1845 O 183.43 1.90111 0.161946 0
M  V30 1846 C 180.57 3.44685 -0.169102 0
M  V30 1847 C 179.683 4.13711 -1.24367 0
M  V30 1848 C 178.818 5.27379 -0.636019 0
M  V30 1849 C 177.857 5.88259 -1.69169 0
M  V30 1850 N 176.994 6.93352 -1.10485 0
M  V30 1851 H 181.834 2.48607 -1.64312 0
M  V30 1852 H 179.371 1.22066 -0.820875 0
M  V30 1853 H 181.329 4.16815 0.179256 0
M  V30 1854 H 179.959 3.15161 0.698079 0
M  V30 1855 H 179.011 3.39835 -1.70927 0
M  V30 1856 H 180.323 4.55037 -2.04311 0
M  V30 1857 H 179.477 6.06238 -0.236677 0
M  V30 1858 H 178.216 4.8731 0.194928 0
M  V30 1859 H 177.221 5.08092 -2.10055 0
M  V30 1860 H 178.446 6.30399 -2.52536 0
M  V30 1861 H 176.392 6.55335 -0.295234 0
M  V30 1862 H 176.309 7.33236 -1.84121 0
M  V30 1863 H 177.577 7.76057 -0.73181 0
M  V30 1864 N 181.806 0.884767 1.30421 0
M  V30 1865 C 182.736 0.367574 2.30589 0
M  V30 1866 C 183.717 -0.549464 1.60981 0
M  V30 1867 O 184.902 -0.46336 1.88591 0
M  V30 1868 C 182.032 -0.418944 3.44764 0
M  V30 1869 C 180.986 0.406316 4.26067 0
M  V30 1870 C 180.312 -0.506793 5.32293 0
M  V30 1871 C 181.612 1.64832 4.95608 0
M  V30 1872 H 183.306 1.20462 2.74097 0
M  V30 1873 H 180.852 0.580695 1.31772 0
M  V30 1874 H 182.805 -0.791395 4.13902 0
M  V30 1875 H 181.529 -1.28964 3.0006 0
M  V30 1876 H 180.188 0.760903 3.58617 0
M  V30 1877 H 179.836 -1.37519 4.83836 0
M  V30 1878 H 179.536 0.0415828 5.87585 0
M  V30 1879 H 181.06 -0.875764 6.04287 0
M  V30 1880 H 182.474 1.34646 5.57264 0
M  V30 1881 H 180.871 2.13688 5.60765 0
M  V30 1882 H 181.941 2.39284 4.21748 0
M  V30 1883 N 183.284 -1.43765 0.645699 0
M  V30 1884 C 184.231 -2.30745 -0.0504648 0
M  V30 1885 C 185.201 -1.4432 -0.822241 0
M  V30 1886 O 186.386 -1.73202 -0.800358 0
M  V30 1887 C 183.526 -3.29802 -1.0161 0
M  V30 1888 C 182.639 -4.31326 -0.241219 0
M  V30 1889 C 181.774 -5.17469 -1.19998 0
M  V30 1890 C 180.813 -6.10691 -0.415094 0
M  V30 1891 N 179.95 -6.89483 -1.32506 0
M  V30 1892 H 184.79 -2.8973 0.697155 0
M  V30 1893 H 182.327 -1.42738 0.355563 0
M  V30 1894 H 184.285 -3.85734 -1.58949 0
M  V30 1895 H 182.915 -2.72483 -1.73069 0
M  V30 1896 H 181.967 -3.77749 0.448334 0
M  V30 1897 H 183.279 -4.9743 0.369437 0
M  V30 1898 H 182.433 -5.7799 -1.84424 0
M  V30 1899 H 181.172 -4.51473 -1.84455 0
M  V30 1900 H 180.177 -5.49265 0.242565 0
M  V30 1901 H 181.402 -6.78727 0.224966 0
M  V30 1902 H 179.348 -6.26142 -1.95657 0
M  V30 1903 H 179.265 -7.52081 -0.768783 0
M  V30 1904 H 180.533 -7.54516 -1.9577 0
M  V30 1905 N 184.763 -0.387143 -1.52771 0
M  V30 1906 C 185.713 0.465942 -2.23188 0
M  V30 1907 C 186.697 1.03138 -1.23496 0
M  V30 1908 O 187.889 0.957845 -1.48843 0
M  V30 1909 C 185.018 1.59384 -3.04059 0
M  V30 1910 C 184.104 1.04024 -4.11144 0
M  V30 1911 N 184.495 0.211416 -5.05358 0
M  V30 1912 C 182.793 1.31295 -4.26237 0
M  V30 1913 C 183.494 -0.0941698 -5.81624 0
M  V30 1914 N 182.47 0.509207 -5.4121 0
M  V30 1915 H 186.272 -0.173856 -2.93385 0
M  V30 1916 H 183.786 -0.19633 -1.61209 0
M  V30 1917 H 185.783 2.21738 -3.53041 0
M  V30 1918 H 184.443 2.23648 -2.35397 0
M  V30 1919 H 185.454 -0.151151 -5.17679 0
M  V30 1920 H 182.131 1.95679 -3.68803 0
M  V30 1921 H 183.521 -0.765572 -6.67524 0
M  V30 1922 N 186.241 1.57166 -0.116904 0
M  V30 1923 C 187.471 1.99184 0.548586 0
M  V30 1924 C 187.879 0.995436 1.60897 0
M  V30 1925 O 187.222 -0.0201293 1.83689 0
M  V30 1926 C 187.284 3.37611 1.23526 0
M  V30 1927 C 186.948 4.55857 0.323077 0
M  V30 1928 C 187.945 5.18056 -0.437476 0
M  V30 1929 C 185.63 5.01751 0.234761 0
M  V30 1930 C 187.624 6.24536 -1.2741 0
M  V30 1931 C 185.311 6.08093 -0.605496 0
M  V30 1932 C 186.309 6.69352 -1.35856 0
M  V30 1933 O 185.997 7.7364 -2.18487 0
M  V30 1934 H 185.729 0.659148 0.149999 0
M  V30 1935 H 188.283 2.0443 -0.199428 0
M  V30 1936 H 186.513 3.29113 2.0303 0
M  V30 1937 H 188.202 3.63932 1.79745 0
M  V30 1938 H 188.968 4.83516 -0.379105 0
M  V30 1939 H 184.847 4.53817 0.810601 0
M  V30 1940 H 188.391 6.72281 -1.86237 0
M  V30 1941 H 184.288 6.42063 -0.665268 0
M  V30 1942 H 185.056 7.90727 -2.11406 0
M  V30 1943 N 187.719 -0.156864 1.56817 0
M  V30 1944 C 188.967 -0.869404 1.82444 0
M  V30 1945 C 189.288 -1.82147 0.69623 0
M  V30 1946 O 188.558 -1.93847 -0.28287 0
M  V30 1947 H 187.138 -0.324043 0.673056 0
M  V30 1948 H 189.8 -0.153224 1.94297 0
M  V30 1949 H 188.896 -1.43761 2.77019 0
M  V30 1950 N 189.197 -1.51736 -0.425897 0
M  V30 1951 C 190.446 -1.64201 -1.17136 0
M  V30 1952 C 190.759 -0.369705 -1.92074 0
M  V30 1953 O 191.965 -0.373898 -2.68913 0
M  V30 1954 C 190.421 -2.90035 -2.13091 0
M  V30 1955 C 190.029 -4.24312 -1.43747 0
M  V30 1956 C 191.773 -3.1186 -2.87999 0
M  V30 1957 C 189.68 -5.41285 -2.38253 0
M  V30 1958 H 188.61 -0.611624 -0.440944 0
M  V30 1959 H 191.261 -1.78212 -0.437328 0
M  V30 1960 H 189.643 -2.69684 -2.89977 0
M  V30 1961 H 190.817 -4.55086 -0.723408 0
M  V30 1962 H 189.132 -4.08456 -0.809465 0
M  V30 1963 H 191.729 -3.96427 -3.58817 0
M  V30 1964 H 192.072 -2.25403 -3.49999 0
M  V30 1965 H 192.605 -3.32605 -2.18217 0
M  V30 1966 H 189.344 -6.30037 -1.80925 0
M  V30 1967 H 188.864 -5.14872 -3.0768 0
M  V30 1968 H 190.543 -5.73694 -2.99139 0
M  V30 1969 N 190.675 0.682077 -1.42076 0
M  V30 1970 C 191.923 1.4393 -1.41876 0
M  V30 1971 C 192.244 1.94971 -0.0335599 0
M  V30 1972 O 191.514 1.72591 0.926773 0
M  V30 1973 H 190.094 0.534085 -0.522267 0
M  V30 1974 H 192.756 0.806427 -1.77434 0
M  V30 1975 H 191.852 2.29588 -2.11414 0
M  V30 1976 N 192.153 1.28127 0.917671 0
M  V30 1977 C 193.399 1.16232 1.66918 0
M  V30 1978 C 193.754 -0.28701 1.90247 0
M  V30 1979 O 193.047 -1.20586 1.48895 0
M  V30 1980 C 193.241 1.89018 3.03327 0
M  V30 1981 C 193.07 3.4088 2.9331 0
M  V30 1982 C 191.84 4.10214 2.95047 0
M  V30 1983 C 194.038 4.36689 2.71675 0
M  V30 1984 N 192.02 5.48571 2.75577 0
M  V30 1985 C 193.391 5.62382 2.6101 0
M  V30 1986 C 195.446 4.26661 2.56641 0
M  V30 1987 C 194.149 6.79189 2.36843 0
M  V30 1988 C 196.175 5.432 2.33853 0
M  V30 1989 C 195.537 6.67855 2.23939 0
M  V30 1990 H 191.636 0.48024 0.617166 0
M  V30 1991 H 194.22 1.61727 1.08409 0
M  V30 1992 H 192.391 1.45963 3.59929 0
M  V30 1993 H 194.123 1.69541 3.67475 0
M  V30 1994 H 190.878 3.61762 3.05655 0
M  V30 1995 H 191.302 6.21287 2.68945 0
M  V30 1996 H 195.944 3.30998 2.63059 0
M  V30 1997 H 193.662 7.74926 2.29164 0
M  V30 1998 H 197.248 5.37328 2.23091 0
M  V30 1999 H 196.128 7.56511 2.06546 0
M  V30 2000 N 193.631 -1.12557 1.10312 0
M  V30 2001 C 194.877 -1.84311 0.846011 0
M  V30 2002 C 195.21 -1.83805 -0.626859 0
M  V30 2003 O 194.485 -1.28268 -1.46211 0
M  V30 2004 C 194.768 -3.32048 1.39341 0
M  V30 2005 C 194.621 -3.41016 2.93305 0
M  V30 2006 C 195.94 -4.27764 1.03468 0
M  V30 2007 H 193.059 -0.669192 0.30879 0
M  V30 2008 H 195.701 -1.32057 1.36605 0
M  V30 2009 H 193.851 -3.76678 0.951087 0
M  V30 2010 H 195.523 -3.05031 3.46055 0
M  V30 2011 H 193.766 -2.81603 3.29973 0
M  V30 2012 H 194.437 -4.44948 3.26689 0
M  V30 2013 H 196.913 -3.91253 1.41633 0
M  V30 2014 H 195.789 -5.29549 1.44463 0
M  V30 2015 H 196.05 -4.42064 -0.0560404 0
M  V30 2016 N 195.109 -0.891671 -1.2995 0
M  V30 2017 C 196.334 -0.527932 -2.00568 0
M  V30 2018 C 196.759 0.877969 -1.66353 0
M  V30 2019 O 196.117 1.58301 -0.883762 0
M  V30 2020 C 196.165 -0.717745 -3.53385 0
M  V30 2021 O 195.269 0.233376 -4.11739 0
M  V30 2022 H 194.61 -0.20722 -0.630837 0
M  V30 2023 H 197.14 -1.20105 -1.65638 0
M  V30 2024 H 197.15 -0.619307 -4.03272 0
M  V30 2025 H 195.825 -1.74276 -3.77625 0
M  V30 2026 H 194.402 0.0880706 -3.72796 0
M  V30 2027 N 196.587 1.43421 -0.653314 0
M  V30 2028 C 197.52 2.2803 0.0879804 0
M  V30 2029 C 198.498 1.39833 0.82979 0
M  V30 2030 O 199.682 1.69275 0.829341 0
M  V30 2031 C 196.809 3.19247 1.13132 0
M  V30 2032 C 195.855 4.23704 0.487546 0
M  V30 2033 S 196.688 5.30377 -0.738961 0
M  V30 2034 C 197.844 6.25162 0.30384 0
M  V30 2035 H 198.077 2.90554 -0.629739 0
M  V30 2036 H 195.61 1.47934 -0.442156 0
M  V30 2037 H 197.568 3.72346 1.72827 0
M  V30 2038 H 196.229 2.55901 1.82136 0
M  V30 2039 H 195.422 4.87631 1.27407 0
M  V30 2040 H 195.024 3.73983 -0.0352915 0
M  V30 2041 H 197.316 6.67321 1.17 0
M  V30 2042 H 198.259 7.07463 -0.300402 0
M  V30 2043 H 198.667 5.60864 0.63969 0
M  V30 2044 N 198.065 0.39524 1.52563 0
M  V30 2045 C 199.028 -0.425001 2.25225 0
M  V30 2046 C 200.028 -0.985266 1.27079 0
M  V30 2047 O 201.218 -0.866332 1.5113 0
M  V30 2048 C 198.35 -1.59686 3.01186 0
M  V30 2049 H 199.543 0.211233 2.99155 0
M  V30 2050 H 197.096 0.147472 1.55603 0
M  V30 2051 H 197.831 -2.27035 2.31572 0
M  V30 2052 H 197.616 -1.20176 3.73229 0
M  V30 2053 H 199.106 -2.17743 3.5634 0
M  V30 2054 N 199.544 -1.57102 0.125237 0
M  V30 2055 C 200.492 -2.16905 -0.839927 0
M  V30 2056 C 201.486 -1.11998 -1.27094 0
M  V30 2057 O 202.692 -1.3029 -1.24195 0
M  V30 2058 H 199.067 -0.694252 -0.288995 0
M  V30 2059 H 201.038 -2.96774 -0.311115 0
M  V30 2060 C 199.787 -2.78795 -2.07771 0
M  V30 2061 H 199.11 -3.59221 -1.755 0
M  V30 2062 H 200.55 -3.2417 -2.73295 0
M  V30 2063 C 199.009 -1.76193 -2.87155 0
M  V30 2064 O 199.539 -1.21909 -3.82755 0
M  V30 2065 N 197.745 -1.45991 -2.51267 0
M  V30 2066 H 197.292 -1.90325 -1.73592 0
M  V30 2067 H 197.25 -0.775844 -3.04677 0
M  V30 2068 N 201.022 0.148545 -1.56898 0
M  V30 2069 C 201.985 1.16736 -1.97244 0
M  V30 2070 C 202.985 1.35947 -0.858777 0
M  V30 2071 O 204.175 1.32966 -1.12542 0
M  V30 2072 C 201.307 2.52798 -2.28705 0
M  V30 2073 H 202.5 0.821279 -2.88435 0
M  V30 2074 H 200.053 0.391831 -1.51309 0
M  V30 2075 H 200.788 2.92381 -1.403 0
M  V30 2076 H 200.573 2.40216 -3.09901 0
M  V30 2077 H 202.063 3.26179 -2.60762 0
M  V30 2078 N 202.5 1.5196 0.417844 0
M  V30 2079 C 203.748 1.65263 1.16329 0
M  V30 2080 C 204.069 0.380634 1.91249 0
M  V30 2081 O 203.339 -0.604214 1.86349 0
M  V30 2082 H 201.919 0.60912 0.432414 0
M  V30 2083 H 204.581 1.88969 0.477162 0
M  V30 2084 H 203.677 2.4896 1.88217 0
M  V30 2085 N 203.978 -0.674533 1.42435 0
M  V30 2086 C 205.389 -1.25514 1.38214 0
M  V30 2087 C 205.74 -1.96055 0.0755464 0
M  V30 2088 O 204.865 -2.00028 -0.8257 0
M  V30 2089 C 205.46 -2.28269 2.50357 0
M  V30 2090 C 204.019 -2.81856 2.49467 0
M  V30 2091 C 203.166 -1.56182 2.29134 0
M  V30 2092 H 206.117 -0.467902 1.51646 0
M  V30 2093 H 206.138 -3.10009 2.20624 0
M  V30 2094 H 205.65 -1.769 3.45439 0
M  V30 2095 H 203.751 -3.37346 1.58204 0
M  V30 2096 H 203.864 -3.30854 3.46515 0
M  V30 2097 H 202.228 -1.82761 1.774 0
M  V30 2098 H 203.011 -1.06778 3.26272 0
M  V30 2099 N 205.456 -1.28612 -0.910864 0
M  V30 2100 C 206.733 -1.06632 -1.63979 0
M  V30 2101 C 207.113 0.393351 -2.07403 0
M  V30 2102 O 206.461 1.37999 -1.82122 0
M  V30 2103 C 206.671 -2.0436 -2.8291 0
M  V30 2104 C 208.019 -2.34666 -3.5386 0
M  V30 2105 O 209.043 -2.02467 -2.93062 0
M  V30 2106 O 207.902 -2.89631 -4.63439 0
M  V30 2107 H 204.996 -0.407737 -0.7195 0
M  V30 2108 H 207.542 -1.39942 -0.959914 0
M  V30 2109 H 206.314 -3.02727 -2.47936 0
M  V30 2110 H 205.937 -1.71714 -3.58609 0
M  V30 2111 N 206.934 1.1197 -1.10907 0
M  V30 2112 C 208.162 1.87402 -0.876824 0
M  V30 2113 C 208.577 1.79894 0.573025 0
M  V30 2114 O 207.934 1.17629 1.39534 0
M  V30 2115 C 207.985 3.36428 -1.32282 0
M  V30 2116 O 207.706 3.43765 -2.71582 0
M  V30 2117 C 209.207 4.28783 -1.12518 0
M  V30 2118 H 206.427 0.592793 -0.314384 0
M  V30 2119 H 208.971 1.41649 -1.47499 0
M  V30 2120 H 207.126 3.79706 -0.768229 0
M  V30 2121 H 207.54 4.3652 -2.90776 0
M  V30 2122 H 209.014 5.31613 -1.48633 0
M  V30 2123 H 209.491 4.39153 -0.0642394 0
M  V30 2124 H 210.097 3.91291 -1.66648 0
M  V30 2125 N 208.412 0.89855 1.29475 0
M  V30 2126 C 209.36 0.365253 2.29714 0
M  V30 2127 C 210.354 -0.534993 1.6073 0
M  V30 2128 O 211.56 -0.417921 1.75081 0
M  V30 2129 H 207.935 0.0994853 0.74539 0
M  V30 2130 H 209.906 1.22406 2.72138 0
M  V30 2131 C 208.655 -0.393159 3.4547 0
M  V30 2132 H 207.978 0.290332 3.98744 0
M  V30 2133 H 209.418 -0.731189 4.17648 0
M  V30 2134 C 207.877 -1.59539 2.9673 0
M  V30 2135 O 208.407 -2.69469 2.97908 0
M  V30 2136 N 206.613 -1.43716 2.52575 0
M  V30 2137 H 206.16 -0.542828 2.51816 0
M  V30 2138 H 206.118 -2.24288 2.20323 0
M  V30 2139 N 209.89 -1.43072 0.660911 0
M  V30 2140 C 211.138 -2.01323 0.177094 0
M  V30 2141 C 211.459 -1.5245 -1.2159 0
M  V30 2142 O 210.729 -0.740322 -1.81373 0
M  V30 2143 H 209.309 -0.744382 0.0624804 0
M  V30 2144 H 211.971 -1.75179 0.854305 0
M  V30 2145 H 211.067 -3.11649 0.167641 0
M  V30 2146 N 211.368 -0.403325 -1.52352 0
M  V30 2147 C 212.593 0.176499 -2.06648 0
M  V30 2148 C 213.018 1.38577 -1.27193 0
M  V30 2149 O 212.376 1.7879 -0.300637 0
M  V30 2150 C 212.424 0.511061 -3.5696 0
M  V30 2151 O 211.528 1.60294 -3.79973 0
M  V30 2152 H 210.869 0.0167337 -0.663789 0
M  V30 2153 H 213.399 -0.574848 -1.96359 0
M  V30 2154 H 213.409 0.771362 -4.00642 0
M  V30 2155 H 212.084 -0.37296 -4.14224 0
M  V30 2156 H 210.661 1.33526 -3.48174 0
M  V30 2157 N 212.846 1.57033 -0.133567 0
M  V30 2158 C 213.778 2.13176 0.841944 0
M  V30 2159 C 214.791 1.07794 1.22001 0
M  V30 2160 O 215.98 1.35117 1.16643 0
M  V30 2161 C 213.08 2.62847 2.13926 0
M  V30 2162 C 212.253 3.92486 1.93064 0
M  V30 2163 C 211.312 4.27605 3.0666 0
M  V30 2164 O 210.338 4.96168 2.78937 0
M  V30 2165 N 211.54 3.861 4.33483 0
M  V30 2166 H 214.305 2.97503 0.362192 0
M  V30 2167 H 211.866 1.61821 0.05042 0
M  V30 2168 H 213.858 2.83363 2.88942 0
M  V30 2169 H 212.428 1.83319 2.53205 0
M  V30 2170 H 211.648 3.80732 1.02159 0
M  V30 2171 H 212.936 4.77225 1.76447 0
M  V30 2172 H 212.334 3.30828 4.58878 0
M  V30 2173 H 210.891 4.11694 5.05323 0
M  V30 2174 N 214.325 -0.140222 1.56975 0
M  V30 2175 C 215.572 -0.851687 1.83719 0
M  V30 2176 C 215.9 -1.80862 0.715485 0
M  V30 2177 O 215.155 -1.93464 -0.294956 0
M  V30 2178 C 215.454 -1.65386 3.16832 0
M  V30 2179 C 215.12 -0.843112 4.42947 0
M  V30 2180 C 213.782 -0.619464 4.77196 0
M  V30 2181 C 216.134 -0.276582 5.20466 0
M  V30 2182 C 213.462 0.181312 5.8642 0
M  V30 2183 C 215.814 0.51127 6.30531 0
M  V30 2184 C 214.478 0.745432 6.63325 0
M  V30 2185 H 213.748 -0.311654 0.672274 0
M  V30 2186 H 216.395 -0.115006 1.91154 0
M  V30 2187 H 214.7 -2.46084 3.04877 0
M  V30 2188 H 216.397 -2.20793 3.34741 0
M  V30 2189 H 212.987 -1.0275 4.16101 0
M  V30 2190 H 217.171 -0.436632 4.94376 0
M  V30 2191 H 212.427 0.372165 6.10266 0
M  V30 2192 H 216.601 0.957354 6.89788 0
M  V30 2193 H 214.228 1.36778 7.47794 0
M  V30 2194 N 215.803 -1.52179 -0.40978 0
M  V30 2195 C 217.05 -1.66206 -1.15679 0
M  V30 2196 C 217.378 -0.391674 -1.90516 0
M  V30 2197 O 216.633 0.62533 -1.8544 0
M  V30 2198 C 216.932 -2.83428 -2.17723 0
M  V30 2199 C 216.598 -4.21672 -1.59699 0
M  V30 2200 C 215.26 -4.59274 -1.43599 0
M  V30 2201 C 217.612 -5.07825 -1.17317 0
M  V30 2202 C 214.94 -5.80709 -0.836328 0
M  V30 2203 C 217.292 -6.29864 -0.587691 0
M  V30 2204 C 215.956 -6.66216 -0.413818 0
M  V30 2205 H 215.226 -0.608192 -0.423301 0
M  V30 2206 H 217.873 -1.86279 -0.444097 0
M  V30 2207 H 216.178 -2.57687 -2.95135 0
M  V30 2208 H 217.875 -2.91477 -2.75394 0
M  V30 2209 H 214.465 -3.9204 -1.73213 0
M  V30 2210 H 218.649 -4.79359 -1.28565 0
M  V30 2211 H 213.905 -6.07498 -0.689626 0
M  V30 2212 H 218.079 -6.95948 -0.250894 0
M  V30 2213 H 215.706 -7.60182 0.0529471 0
M  V30 2214 N 217.281 0.66697 -1.42791 0
M  V30 2215 C 218.53 1.42278 -1.42968 0
M  V30 2216 C 218.843 1.9553 -0.0524489 0
M  V30 2217 O 220.049 2.71414 0.068363 0
M  V30 2218 C 218.505 2.57418 -2.51524 0
M  V30 2219 C 218.113 2.10832 -3.9529 0
M  V30 2220 C 219.857 3.34878 -2.60877 0
M  V30 2221 C 217.764 3.23101 -4.95338 0
M  V30 2222 H 216.694 0.534533 -0.531781 0
M  V30 2223 H 219.345 0.721302 -1.68729 0
M  V30 2224 H 217.727 3.29971 -2.18941 0
M  V30 2225 H 218.901 1.4538 -4.37266 0
M  V30 2226 H 217.216 1.46289 -3.89857 0
M  V30 2227 H 219.813 4.18505 -3.32802 0
M  V30 2228 H 220.156 3.81993 -1.6549 0
M  V30 2229 H 220.689 2.69398 -2.92693 0
M  V30 2230 H 217.428 2.80969 -5.9223 0
M  V30 2231 H 216.948 3.87309 -4.57987 0
M  V30 2232 H 218.627 3.88447 -5.17415 0
M  V30 2233 N 218.759 1.29093 0.90403 0
M  V30 2234 C 219.987 1.19689 1.68766 0
M  V30 2235 C 220.402 -0.243113 1.87228 0
M  V30 2236 O 219.759 -1.16326 1.40621 0
M  V30 2237 C 219.81 1.90144 3.07453 0
M  V30 2238 O 219.531 3.2852 2.89838 0
M  V30 2239 C 221.032 1.87162 4.01852 0
M  V30 2240 H 218.252 0.415035 0.527244 0
M  V30 2241 H 220.796 1.7039 1.13082 0
M  V30 2242 H 218.951 1.43289 3.59926 0
M  V30 2243 H 219.365 3.63944 3.77684 0
M  V30 2244 H 220.839 2.41032 4.96596 0
M  V30 2245 H 221.316 0.84617 4.30972 0
M  V30 2246 H 221.922 2.33741 3.5531 0
M  V30 2247 N 220.237 -1.11381 1.11499 0
M  V30 2248 C 221.167 -2.19509 0.796125 0
M  V30 2249 C 222.148 -1.68458 -0.235796 0
M  V30 2250 O 223.333 -1.93947 -0.0991344 0
M  V30 2251 C 220.463 -3.46475 0.239205 0
M  V30 2252 C 219.417 -4.10744 1.20307 0
M  V30 2253 C 218.743 -5.32293 0.50683 0
M  V30 2254 C 220.043 -4.55597 2.55399 0
M  V30 2255 H 221.737 -2.46439 1.70024 0
M  V30 2256 H 219.283 -1.18446 0.818935 0
M  V30 2257 H 221.236 -4.214 0.00392006 0
M  V30 2258 H 219.96 -3.19006 -0.700206 0
M  V30 2259 H 218.619 -3.37813 1.42399 0
M  V30 2260 H 218.267 -5.01095 -0.437408 0
M  V30 2261 H 217.967 -5.76243 1.1497 0
M  V30 2262 H 219.491 -6.09956 0.280351 0
M  V30 2263 H 220.905 -5.21841 2.37391 0
M  V30 2264 H 219.302 -5.10363 3.15673 0
M  V30 2265 H 220.372 -3.69013 3.14575 0
M  V30 2266 N 221.715 -0.905404 -1.28997 0
M  V30 2267 C 222.943 -0.549846 -1.9946 0
M  V30 2268 C 223.358 0.866834 -1.67724 0
M  V30 2269 O 222.715 1.57298 -0.925404 0
M  V30 2270 C 222.766 -0.739387 -3.53858 0
M  V30 2271 O 222.487 -2.10031 -3.84472 0
M  V30 2272 C 223.988 -0.389541 -4.41585 0
M  V30 2273 H 221.208 -0.210429 -0.637151 0
M  V30 2274 H 223.752 -1.21632 -1.64396 0
M  V30 2275 H 221.907 -0.120023 -3.87214 0
M  V30 2276 H 222.321 -2.13385 -4.79132 0
M  V30 2277 H 223.795 -0.572972 -5.49018 0
M  V30 2278 H 224.272 0.673756 -4.34001 0
M  V30 2279 H 224.878 -0.986089 -4.1371 0
M  V30 2280 N 223.193 1.4272 -0.668489 0
M  V30 2281 C 224.14 2.30796 0.0137489 0
M  V30 2282 C 225.11 1.4561 0.799177 0
M  V30 2283 O 226.295 1.74453 0.772702 0
M  V30 2284 C 223.435 3.31377 0.963507 0
M  V30 2285 C 222.548 4.31655 0.172569 0
M  V30 2286 C 221.683 5.19312 1.1175 0
M  V30 2287 C 220.722 6.11274 0.317886 0
M  V30 2288 N 219.859 6.91504 1.2152 0
M  V30 2289 H 224.699 2.88585 -0.743161 0
M  V30 2290 H 222.236 1.42154 -0.378226 0
M  V30 2291 H 224.194 3.88214 1.52792 0
M  V30 2292 H 222.824 2.75202 1.68712 0
M  V30 2293 H 221.876 3.76988 -0.508374 0
M  V30 2294 H 223.188 4.96779 -0.448527 0
M  V30 2295 H 222.342 5.80851 1.75206 0
M  V30 2296 H 221.081 4.5435 1.77249 0
M  V30 2297 H 220.086 5.48809 -0.329918 0
M  V30 2298 H 221.311 6.78283 -0.332917 0
M  V30 2299 H 219.257 6.29176 1.85671 0
M  V30 2300 H 219.174 7.53209 0.649036 0
M  V30 2301 H 220.442 7.57535 1.83742 0
M  V30 2302 N 224.671 0.411399 1.52136 0
M  V30 2303 C 226.082 -0.0576826 1.86611 0
M  V30 2304 C 226.433 -1.44238 1.33003 0
M  V30 2305 O 225.558 -2.05759 0.670228 0
M  V30 2306 C 226.153 -0.111448 3.38617 0
M  V30 2307 C 224.712 -0.52487 3.72723 0
M  V30 2308 C 223.859 0.299176 2.75681 0
M  V30 2309 H 226.81 0.628368 1.4573 0
M  V30 2310 H 226.831 -0.926252 3.69054 0
M  V30 2311 H 226.343 0.896488 3.77604 0
M  V30 2312 H 224.444 -1.53936 3.39315 0
M  V30 2313 H 224.557 -0.267681 4.78352 0
M  V30 2314 H 222.921 -0.238814 2.53578 0
M  V30 2315 H 223.704 1.3055 3.17508 0
M  V30 2316 N 226.149 -1.5696 0.141893 0
M  V30 2317 C 227.377 -2.00322 -0.517579 0
M  V30 2318 C 227.792 -1.02193 -1.58752 0
M  V30 2319 O 227.149 -0.0181619 -1.82491 0
M  V30 2320 C 227.2 -3.43618 -1.12289 0
M  V30 2321 O 226.921 -4.37995 -0.0956929 0
M  V30 2322 C 228.422 -4.02231 -1.86347 0
M  V30 2323 H 225.642 -0.657243 -0.135177 0
M  V30 2324 H 228.186 -2.03146 0.234973 0
M  V30 2325 H 226.341 -3.41662 -1.82609 0
M  V30 2326 H 226.755 -5.21729 -0.538469 0
M  V30 2327 H 228.229 -5.04509 -2.23997 0
M  V30 2328 H 228.706 -3.42655 -2.74744 0
M  V30 2329 H 229.312 -4.07802 -1.20737 0
M  V30 2330 N 227.627 0.131896 -1.57047 0
M  V30 2331 C 228.873 0.838268 -1.85323 0
M  V30 2332 C 229.228 1.78098 -0.727937 0
M  V30 2333 O 228.521 1.89645 0.27304 0
M  V30 2334 C 228.715 1.63703 -3.17704 0
M  V30 2335 C 228.544 0.773167 -4.43004 0
M  V30 2336 C 227.314 0.432956 -5.03442 0
M  V30 2337 C 229.512 0.0966216 -5.14209 0
M  V30 2338 N 227.494 -0.442924 -6.123 0
M  V30 2339 C 228.865 -0.638778 -6.16701 0
M  V30 2340 C 230.92 0.018861 -4.97896 0
M  V30 2341 C 229.623 -1.44462 -7.04644 0
M  V30 2342 C 231.649 -0.773762 -5.86316 0
M  V30 2343 C 231.011 -1.4974 -6.883 0
M  V30 2344 H 227.11 0.284086 -0.728573 0
M  V30 2345 H 229.694 0.102731 -1.94429 0
M  V30 2346 H 227.865 2.3437 -3.09718 0
M  V30 2347 H 229.597 2.28774 -3.33833 0
M  V30 2348 H 226.352 0.772237 -4.67262 0
M  V30 2349 H 226.776 -0.872332 -6.71356 0
M  V30 2350 H 231.418 0.56397 -4.19022 0
M  V30 2351 H 229.136 -2.00093 -7.82936 0
M  V30 2352 H 232.722 -0.83612 -5.75761 0
M  V30 2353 H 231.602 -2.10087 -7.55535 0
M  V30 2354 N 229.106 1.52395 0.401703 0
M  V30 2355 C 230.036 1.79231 1.49661 0
M  V30 2356 C 231.017 0.643654 1.57452 0
M  V30 2357 O 232.202 0.889989 1.72606 0
M  V30 2358 C 229.332 1.94971 2.87409 0
M  V30 2359 C 228.286 3.10604 2.94465 0
M  V30 2360 C 227.612 3.11577 4.34538 0
M  V30 2361 C 228.912 4.49921 2.6527 0
M  V30 2362 H 230.606 2.70917 1.27454 0
M  V30 2363 H 228.152 1.30362 0.6117 0
M  V30 2364 H 230.105 2.12328 3.63999 0
M  V30 2365 H 228.829 0.999632 3.10926 0
M  V30 2366 H 227.488 2.93009 2.20321 0
M  V30 2367 H 227.136 2.14277 4.55076 0
M  V30 2368 H 226.836 3.89247 4.40183 0
M  V30 2369 H 228.36 3.31073 5.13053 0
M  V30 2370 H 229.774 4.67683 3.31581 0
M  V30 2371 H 228.171 5.29564 2.82281 0
M  V30 2372 H 229.241 4.57507 1.60671 0
M  V30 2373 N 230.584 -0.659388 1.43143 0
M  V30 2374 C 231.861 -1.41627 1.34912 0
M  V30 2375 C 232.241 -2.11099 -0.00607785 0
M  V30 2376 O 231.589 -2.04353 -1.02236 0
M  V30 2377 C 231.799 -2.40604 2.52805 0
M  V30 2378 C 233.147 -3.04789 2.95616 0
M  V30 2379 O 234.171 -2.50932 2.52807 0
M  V30 2380 O 233.03 -4.02421 3.69756 0
M  V30 2381 H 230.124 -0.63246 0.532844 0
M  V30 2382 H 232.67 -0.686814 1.5518 0
M  V30 2383 H 231.442 -1.88174 3.43083 0
M  V30 2384 H 231.065 -3.21009 2.34604 0
M  V30 2385 N 232.062 -1.29571 -0.897171 0
M  V30 2386 C 233.31 -1.17456 -1.64464 0
M  V30 2387 C 233.631 0.273698 -1.9307 0
M  V30 2388 O 232.901 1.18684 -1.55855 0
M  V30 2389 H 231.481 -0.431706 -0.609622 0
M  V30 2390 H 234.143 -1.62531 -1.07562 0
M  V30 2391 H 233.239 -1.72648 -2.59998 0
M  V30 2392 N 233.54 1.10788 -1.12088 0
M  V30 2393 C 234.487 2.17025 -0.785407 0
M  V30 2394 C 235.457 1.64265 0.246191 0
M  V30 2395 O 236.642 1.90412 0.121584 0
M  V30 2396 C 233.782 3.44249 -0.242177 0
M  V30 2397 C 232.895 4.1098 -1.33115 0
M  V30 2398 C 232.03 5.25911 -0.747741 0
M  V30 2399 C 231.069 5.84538 -1.81609 0
M  V30 2400 N 230.206 6.90853 -1.25167 0
M  V30 2401 H 235.046 2.45066 -1.69548 0
M  V30 2402 H 232.583 1.20297 -0.846582 0
M  V30 2403 H 234.541 4.17101 0.0908026 0
M  V30 2404 H 233.171 3.16571 0.631072 0
M  V30 2405 H 232.223 3.36133 -1.78097 0
M  V30 2406 H 233.535 4.50601 -2.13917 0
M  V30 2407 H 232.689 6.056 -0.365216 0
M  V30 2408 H 231.428 4.87614 0.0915188 0
M  V30 2409 H 230.433 5.03522 -2.20785 0
M  V30 2410 H 231.658 6.249 -2.6585 0
M  V30 2411 H 229.604 6.54562 -0.434174 0
M  V30 2412 H 229.521 7.29166 -1.99633 0
M  V30 2413 H 230.789 7.7433 -0.896259 0
M  V30 2414 N 235.018 0.912232 1.28515 0
M  V30 2415 C 235.968 0.370649 2.24967 0
M  V30 2416 C 236.952 -0.516375 1.52389 0
M  V30 2417 O 238.144 -0.356345 1.73376 0
M  V30 2418 C 235.273 -0.389526 3.41083 0
M  V30 2419 C 234.359 0.51313 4.20984 0
M  V30 2420 N 234.75 1.62604 4.78951 0
M  V30 2421 C 233.048 0.313235 4.44899 0
M  V30 2422 C 233.749 2.18619 5.39055 0
M  V30 2423 N 232.725 1.47765 5.23132 0
M  V30 2424 H 236.527 1.22061 2.67354 0
M  V30 2425 H 234.041 0.764712 1.43269 0
M  V30 2426 H 236.038 -0.794353 4.09262 0
M  V30 2427 H 234.698 -1.2366 3.0023 0
M  V30 2428 H 235.709 2.00864 4.77362 0
M  V30 2429 H 232.386 -0.494452 4.14562 0
M  V30 2430 H 233.776 3.12228 5.94948 0
M  V30 2431 N 236.496 -1.42363 0.676048 0
M  V30 2432 C 237.742 -2.0182 0.199125 0
M  V30 2433 C 238.075 -1.53339 -1.19168 0
M  V30 2434 O 237.35 -0.736124 -1.80032 0
M  V30 2435 C 237.633 -3.59331 0.235144 0
M  V30 2436 C 237.486 -4.17989 1.66149 0
M  V30 2437 C 238.805 -4.3813 -0.41595 0
M  V30 2438 H 235.924 -0.733293 0.0738311 0
M  V30 2439 H 238.566 -1.69368 0.86107 0
M  V30 2440 H 236.716 -3.87109 -0.328487 0
M  V30 2441 H 238.388 -4.0116 2.27747 0
M  V30 2442 H 236.631 -3.7377 2.20178 0
M  V30 2443 H 237.302 -5.27126 1.63837 0
M  V30 2444 H 239.778 -4.16051 0.0638529 0
M  V30 2445 H 238.654 -5.47717 -0.360115 0
M  V30 2446 H 238.915 -4.16101 -1.49373 0
M  V30 2447 N 237.974 -0.419461 -1.51915 0
M  V30 2448 C 239.22 0.153166 -2.02221 0
M  V30 2449 C 239.553 1.43907 -1.30401 0
M  V30 2450 O 238.828 1.90055 -0.413438 0
M  V30 2451 C 239.111 0.390291 -3.57979 0
M  V30 2452 C 238.964 -0.913014 -4.40436 0
M  V30 2453 C 240.283 1.16794 -4.2432 0
M  V30 2454 H 237.402 0.0541924 -0.735005 0
M  V30 2455 H 240.044 -0.554955 -1.81715 0
M  V30 2456 H 238.194 0.993491 -3.75582 0
M  V30 2457 H 239.866 -1.54882 -4.34522 0
M  V30 2458 H 238.109 -1.52168 -4.06236 0
M  V30 2459 H 238.78 -0.701361 -5.47526 0
M  V30 2460 H 241.256 0.657161 -4.10878 0
M  V30 2461 H 240.132 1.3026 -5.3322 0
M  V30 2462 H 240.393 2.19132 -3.83971 0
M  V30 2463 N 239.452 1.56882 -0.150215 0
M  V30 2464 C 240.699 1.96228 0.500093 0
M  V30 2465 C 241.027 1.03522 1.64661 0
M  V30 2466 O 240.282 0.0650683 1.95592 0
M  V30 2467 C 240.581 3.41801 1.04437 0
M  V30 2468 C 240.247 4.50897 0.0159671 0
M  V30 2469 C 238.909 4.8046 -0.266731 0
M  V30 2470 C 241.261 5.16703 -0.683192 0
M  V30 2471 C 238.589 5.73135 -1.25434 0
M  V30 2472 C 240.941 6.10441 -1.65964 0
M  V30 2473 C 239.605 6.38382 -1.95 0
M  V30 2474 H 238.875 0.718048 0.182997 0
M  V30 2475 H 241.522 1.90019 -0.237724 0
M  V30 2476 H 239.827 3.44857 1.85959 0
M  V30 2477 H 241.524 3.69573 1.55618 0
M  V30 2478 H 238.114 4.27891 0.246485 0
M  V30 2479 H 242.298 4.93993 -0.477983 0
M  V30 2480 H 237.554 5.93074 -1.48571 0
M  V30 2481 H 241.728 6.60507 -2.20689 0
M  V30 2482 H 239.355 7.09996 -2.71679 0
M  V30 2483 N 240.93 -0.123565 1.57115 0
M  V30 2484 C 242.178 -0.83051 1.84247 0
M  V30 2485 C 242.499 -1.80629 0.73471 0
M  V30 2486 O 241.769 -1.94403 -0.241688 0
M  V30 2487 H 240.349 -0.309694 0.679778 0
M  V30 2488 H 243.011 -0.111976 1.94578 0
M  V30 2489 H 242.107 -1.37852 2.80006 0
M  V30 2490 N 242.408 -1.52605 -0.393616 0
M  V30 2491 C 243.355 -1.77055 -1.48054 0
M  V30 2492 C 244.325 -0.61358 -1.54352 0
M  V30 2493 O 245.51 -0.852806 -1.70681 0
M  V30 2494 C 242.65 -1.94108 -2.85335 0
M  V30 2495 C 241.763 -3.21792 -2.88226 0
M  V30 2496 C 240.898 -3.29188 -4.16904 0
M  V30 2497 C 239.937 -4.51013 -4.13828 0
M  V30 2498 N 239.074 -4.55716 -5.34105 0
M  V30 2499 H 243.914 -2.69815 -1.26506 0
M  V30 2500 H 241.451 -1.33683 -0.61379 0
M  V30 2501 H 243.409 -2.01979 -3.65049 0
M  V30 2502 H 242.039 -1.04713 -3.05344 0
M  V30 2503 H 241.091 -3.23015 -2.00911 0
M  V30 2504 H 242.403 -4.11557 -2.8182 0
M  V30 2505 H 241.557 -3.36216 -5.05018 0
M  V30 2506 H 240.296 -2.37389 -4.26026 0
M  V30 2507 H 239.301 -4.44115 -3.24102 0
M  V30 2508 H 240.526 -5.44123 -4.06333 0
M  V30 2509 H 238.472 -3.66807 -5.43865 0
M  V30 2510 H 238.389 -5.39346 -5.29756 0
M  V30 2511 H 239.657 -4.66993 -6.2413 0
M  V30 2512 N 243.887 0.651787 -1.4349 0
M  V30 2513 C 245.133 1.41376 -1.45398 0
M  V30 2514 C 245.466 1.94041 -0.0784823 0
M  V30 2515 O 244.741 1.72379 0.900878 0
M  V30 2516 C 245.024 2.59414 -2.49752 0
M  V30 2517 C 244.877 2.12232 -3.96582 0
M  V30 2518 C 246.196 3.61626 -2.50827 0
M  V30 2519 H 243.315 0.512719 -0.529422 0
M  V30 2520 H 245.957 0.738796 -1.75048 0
M  V30 2521 H 244.107 3.16997 -2.246 0
M  V30 2522 H 245.779 1.59639 -4.32797 0
M  V30 2523 H 244.022 1.43592 -4.09346 0
M  V30 2524 H 244.693 2.9712 -4.65214 0
M  V30 2525 H 247.169 3.13805 -2.7325 0
M  V30 2526 H 246.045 4.41766 -3.25783 0
M  V30 2527 H 246.306 4.14314 -1.5426 0
M  V30 2528 N 245.365 1.30045 0.890287 0
M  V30 2529 C 246.614 1.17929 1.63633 0
M  V30 2530 C 246.927 -0.266204 1.9378 0
M  V30 2531 O 248.133 -0.508804 2.6669 0
M  V30 2532 C 246.589 2.06317 2.94892 0
M  V30 2533 C 246.197 3.55745 2.72305 0
M  V30 2534 C 247.941 2.0295 3.72843 0
M  V30 2535 C 245.848 4.36205 3.99348 0
M  V30 2536 H 244.778 0.437782 0.613892 0
M  V30 2537 H 247.429 1.54754 0.986075 0
M  V30 2538 H 245.811 1.6237 3.61182 0
M  V30 2539 H 246.985 4.07805 2.1455 0
M  V30 2540 H 245.3 3.6088 2.07737 0
M  V30 2541 H 247.897 2.60319 4.67053 0
M  V30 2542 H 248.24 1.0117 4.0382 0
M  V30 2543 H 248.773 2.4499 3.13408 0
M  V30 2544 H 245.512 5.38659 3.73533 0
M  V30 2545 H 245.032 3.8891 4.56628 0
M  V30 2546 H 246.711 4.47362 4.67415 0
M  V30 2547 N 246.843 -1.10192 1.12674 0
M  V30 2548 C 248.12 -1.78717 0.794965 0
M  V30 2549 C 248.5 -1.98628 -0.714853 0
M  V30 2550 O 247.848 -1.58135 -1.64941 0
M  V30 2551 C 248.058 -3.11546 1.5729 0
M  V30 2552 C 249.406 -3.86382 1.76052 0
M  V30 2553 O 250.43 -3.21274 1.53823 0
M  V30 2554 O 249.289 -5.03246 2.13087 0
M  V30 2555 H 246.383 -0.774702 0.289423 0
M  V30 2556 H 248.929 -1.16819 1.23091 0
M  V30 2557 H 247.701 -2.92489 2.59935 0
M  V30 2558 H 247.324 -3.81164 1.13137 0
M  V30 2559 N 248.321 -0.919034 -1.28029 0
M  V30 2560 C 249.569 -0.553838 -1.94363 0
M  V30 2561 C 249.89 0.906357 -1.72656 0
M  V30 2562 O 249.16 1.64143 -1.0693 0
M  V30 2563 H 247.74 -0.201834 -0.719216 0
M  V30 2564 H 250.402 -1.16954 -1.55909 0
M  V30 2565 H 249.498 -0.752758 -3.02886 0
M  V30 2566 N 249.799 1.42003 -0.683588 0
M  V30 2567 C 250.732 2.28166 0.039592 0
M  V30 2568 C 251.71 1.41562 0.799942 0
M  V30 2569 O 252.894 1.70997 0.793248 0
M  V30 2570 C 250.021 3.21575 1.06335 0
M  V30 2571 C 249.067 4.24643 0.397562 0
M  V30 2572 S 249.9 5.2869 -0.851296 0
M  V30 2573 C 251.056 6.25666 0.171166 0
M  V30 2574 H 251.289 2.89153 -0.691229 0
M  V30 2575 H 248.822 1.46962 -0.473435 0
M  V30 2576 H 250.78 3.75928 1.6489 0
M  V30 2577 H 249.441 2.59707 1.76667 0
M  V30 2578 H 248.634 4.90223 1.17035 0
M  V30 2579 H 248.236 3.73824 -0.114611 0
M  V30 2580 H 250.528 6.69653 1.02819 0
M  V30 2581 H 251.471 7.06666 -0.450397 0
M  V30 2582 H 251.879 5.62095 0.520578 0
M  V30 2583 N 251.277 0.427512 1.51691 0
M  V30 2584 C 252.505 -0.141191 2.06418 0
M  V30 2585 C 252.92 -1.37303 1.29589 0
M  V30 2586 O 252.277 -1.79059 0.352732 0
M  V30 2587 C 252.328 -0.473266 3.58389 0
M  V30 2588 O 252.049 0.709673 4.32314 0
M  V30 2589 C 253.55 -1.09371 4.29596 0
M  V30 2590 H 250.77 -0.0122747 0.670888 0
M  V30 2591 H 253.314 0.603764 1.95384 0
M  V30 2592 H 251.469 -1.16812 3.69369 0
M  V30 2593 H 251.883 0.42807 5.2275 0
M  V30 2594 H 253.357 -1.27613 5.37046 0
M  V30 2595 H 253.834 -2.072 3.87253 0
M  V30 2596 H 254.44 -0.43853 4.23033 0
M  V30 2597 N 252.755 -1.56801 0.158532 0
M  V30 2598 C 254.001 -1.96781 -0.490405 0
M  V30 2599 C 254.334 -1.04397 -1.63753 0
M  V30 2600 O 253.609 -0.0885805 -1.94298 0
M  V30 2601 C 253.892 -3.4635 -0.985594 0
M  V30 2602 C 253.745 -4.49512 0.160824 0
M  V30 2603 C 255.064 -3.98697 -1.86355 0
M  V30 2604 H 252.183 -0.715482 -0.176788 0
M  V30 2605 H 254.825 -1.88451 0.242088 0
M  V30 2606 H 252.975 -3.53579 -1.60978 0
M  V30 2607 H 254.647 -4.54353 0.797537 0
M  V30 2608 H 252.89 -4.26013 0.818256 0
M  V30 2609 H 253.561 -5.51531 -0.227569 0
M  V30 2610 H 256.037 -3.94019 -1.33746 0
M  V30 2611 H 254.913 -5.03792 -2.17909 0
M  V30 2612 H 255.174 -3.41744 -2.8047 0
M  V30 2613 N 254.233 0.115231 -1.57178 0
M  V30 2614 C 255.479 0.82357 -1.85325 0
M  V30 2615 C 255.812 1.79349 -0.744814 0
M  V30 2616 O 255.087 1.92899 0.249024 0
M  V30 2617 C 255.37 1.57014 -3.24066 0
M  V30 2618 C 255.223 0.619565 -4.45513 0
M  V30 2619 C 256.542 2.52545 -3.60429 0
M  V30 2620 H 253.661 0.297948 -0.674089 0
M  V30 2621 H 256.303 0.0877138 -1.89797 0
M  V30 2622 H 254.453 2.19742 -3.20383 0
M  V30 2623 H 256.125 0.000837639 -4.613 0
M  V30 2624 H 254.368 -0.0686174 -4.33746 0
M  V30 2625 H 255.039 1.17866 -5.3927 0
M  V30 2626 H 257.515 1.9992 -3.64926 0
M  V30 2627 H 256.391 3.01811 -4.58477 0
M  V30 2628 H 256.652 3.35383 -2.88047 0
M  V30 2629 N 255.711 1.52812 0.385517 0
M  V30 2630 C 256.661 1.74219 1.47078 0
M  V30 2631 C 257.645 0.59632 1.49442 0
M  V30 2632 O 258.837 0.85428 1.5502 0
M  V30 2633 C 255.966 1.9176 2.84751 0
M  V30 2634 C 255.052 3.12289 2.86943 0
M  V30 2635 N 255.443 4.34575 2.58802 0
M  V30 2636 C 253.741 3.12605 3.1811 0
M  V30 2637 C 254.442 5.162 2.68166 0
M  V30 2638 N 253.418 4.51964 3.02043 0
M  V30 2639 H 257.22 2.6639 1.24152 0
M  V30 2640 H 254.734 1.51166 0.593504 0
M  V30 2641 H 256.731 2.05218 3.62893 0
M  V30 2642 H 255.391 1.00805 3.08656 0
M  V30 2643 H 256.402 4.62649 2.32759 0
M  V30 2644 H 253.079 2.31472 3.47458 0
M  V30 2645 H 254.469 6.23689 2.49923 0
M  V30 2646 N 257.189 -0.644168 1.43834 0
M  V30 2647 C 258.414 -1.43642 1.49605 0
M  V30 2648 C 258.839 -1.8773 0.117913 0
M  V30 2649 O 258.197 -1.57938 -0.890239 0
M  V30 2650 C 258.245 -2.6416 2.45463 0
M  V30 2651 O 257.349 -3.63538 1.94714 0
M  V30 2652 H 256.69 -0.430329 0.50568 0
M  V30 2653 H 259.22 -0.787448 1.8884 0
M  V30 2654 H 259.23 -3.11864 2.63068 0
M  V30 2655 H 257.905 -2.31414 3.45572 0
M  V30 2656 H 256.482 -3.2273 1.86814 0
M  V30 2657 N 258.668 -1.30515 -0.883378 0
M  V30 2658 C 259.917 -1.18795 -1.63005 0
M  V30 2659 C 260.23 0.255923 -1.93919 0
M  V30 2660 O 261.436 0.494654 -2.66956 0
M  V30 2661 C 259.892 -2.07878 -2.93794 0
M  V30 2662 C 259.5 -3.57184 -2.70414 0
M  V30 2663 C 261.244 -2.04924 -3.71761 0
M  V30 2664 C 259.151 -4.38317 -3.97029 0
M  V30 2665 H 258.081 -0.441031 -0.611562 0
M  V30 2666 H 260.732 -1.55275 -0.977854 0
M  V30 2667 H 259.114 -1.64283 -3.60315 0
M  V30 2668 H 260.288 -4.08937 -2.12384 0
M  V30 2669 H 258.603 -3.61976 -2.0582 0
M  V30 2670 H 261.2 -2.62792 -4.65665 0
M  V30 2671 H 261.543 -1.0331 -4.03277 0
M  V30 2672 H 262.076 -2.46649 -3.12104 0
M  V30 2673 H 258.815 -5.40632 -3.70671 0
M  V30 2674 H 258.335 -3.91326 -4.54559 0
M  V30 2675 H 260.014 -4.49834 -4.65036 0
M  V30 2676 N 260.146 1.09593 -1.13257 0
M  V30 2677 C 261.056 2.19739 -0.821691 0
M  V30 2678 C 262.072 1.72926 0.19302 0
M  V30 2679 O 263.248 2.01385 0.0244895 0
M  V30 2680 C 260.313 3.45482 -0.290333 0
M  V30 2681 C 259.374 4.06985 -1.36607 0
M  V30 2682 C 258.607 5.26726 -0.859975 0
M  V30 2683 O 258.83 5.69594 0.303082 0
M  V30 2684 O 257.764 5.7931 -1.63351 0
M  V30 2685 H 261.59 2.48781 -1.74189 0
M  V30 2686 H 259.175 1.18496 -0.909894 0
M  V30 2687 H 261.057 4.214 0.000674022 0
M  V30 2688 H 259.732 3.18047 0.602306 0
M  V30 2689 H 258.639 3.32712 -1.71037 0
M  V30 2690 H 259.972 4.38643 -2.23279 0
M  V30 2691 N 261.624 0.925811 1.2754 0
M  V30 2692 C 262.554 0.440748 2.29303 0
M  V30 2693 C 263.535 -0.497971 1.62648 0
M  V30 2694 O 264.72 -0.403126 1.8997 0
M  V30 2695 C 261.85 -0.309048 3.45922 0
M  V30 2696 C 260.804 0.54166 4.24559 0
M  V30 2697 C 260.13 -0.337191 5.33636 0
M  V30 2698 C 261.43 1.80516 4.90114 0
M  V30 2699 H 263.124 1.29121 2.70126 0
M  V30 2700 H 260.67 0.622323 1.29858 0
M  V30 2701 H 262.623 -0.659315 4.1621 0
M  V30 2702 H 261.347 -1.19352 3.04011 0
M  V30 2703 H 260.006 0.874609 3.56014 0
M  V30 2704 H 259.654 -1.22056 4.87966 0
M  V30 2705 H 259.354 0.228497 5.87156 0
M  V30 2706 H 260.878 -0.683072 6.06767 0
M  V30 2707 H 262.292 1.52307 5.52698 0
M  V30 2708 H 260.689 2.3142 5.53683 0
M  V30 2709 H 261.759 2.52581 4.13921 0
M  V30 2710 N 263.102 -1.41638 0.69111 0
M  V30 2711 C 264.034 -2.29194 -0.0161523 0
M  V30 2712 C 265.047 -1.44549 -0.748955 0
M  V30 2713 O 266.236 -1.681 -0.6004 0
M  V30 2714 C 263.336 -3.22325 -1.0469 0
M  V30 2715 C 262.509 -4.35706 -0.384621 0
M  V30 2716 C 261.568 -5.09443 -1.31737 0
M  V30 2717 O 260.594 -5.63386 -0.811451 0
M  V30 2718 N 261.796 -5.16487 -2.64993 0
M  V30 2719 H 264.561 -2.90534 0.735523 0
M  V30 2720 H 262.122 -1.52742 0.53679 0
M  V30 2721 H 264.114 -3.68522 -1.67252 0
M  V30 2722 H 262.684 -2.62323 -1.70015 0
M  V30 2723 H 261.904 -3.91948 0.420804 0
M  V30 2724 H 263.192 -5.08743 0.0760765 0
M  V30 2725 H 262.59 -4.741 -3.08619 0
M  V30 2726 H 261.147 -5.66276 -3.22761 0
M  V30 2727 N 264.58 -0.43555 -1.51462 0
M  V30 2728 C 265.543 0.365137 -2.26273 0
M  V30 2729 C 266.543 0.951227 -1.29647 0
M  V30 2730 O 267.733 0.825958 -1.53374 0
M  V30 2731 C 264.865 1.51645 -3.05314 0
M  V30 2732 H 266.058 -0.290474 -2.9849 0
M  V30 2733 H 263.611 -0.188676 -1.55157 0
M  V30 2734 H 264.346 2.20816 -2.3751 0
M  V30 2735 H 264.131 1.10238 -3.76284 0
M  V30 2736 H 265.621 2.08218 -3.61987 0
M  V30 2737 N 266.058 1.56714 -0.166846 0
M  V30 2738 C 267.286 2.0112 0.485644 0
M  V30 2739 C 267.701 1.04705 1.57106 0
M  V30 2740 O 267.058 0.0471923 1.82439 0
M  V30 2741 C 267.109 3.45361 1.06808 0
M  V30 2742 O 266.83 4.38092 0.0259995 0
M  V30 2743 C 268.331 4.05145 1.79924 0
M  V30 2744 H 265.551 0.65931 0.124704 0
M  V30 2745 H 268.095 2.02746 -0.267262 0
M  V30 2746 H 266.25 3.44524 1.7715 0
M  V30 2747 H 266.664 5.22519 0.455398 0
M  V30 2748 H 268.138 5.08009 2.15942 0
M  V30 2749 H 268.615 3.46982 2.69258 0
M  V30 2750 H 269.221 4.09672 1.14234 0
M  V30 2751 N 267.536 -0.106894 1.57237 0
M  V30 2752 C 268.813 -0.843526 1.76477 0
M  V30 2753 C 269.193 -1.97499 0.745464 0
M  V30 2754 O 268.541 -2.27357 -0.228306 0
M  V30 2755 C 268.751 -1.34903 3.21873 0
M  V30 2756 C 270.099 -1.79654 3.8472 0
M  V30 2757 O 271.123 -1.44554 3.2555 0
M  V30 2758 O 269.982 -2.44515 4.88748 0
M  V30 2759 H 267.076 -0.401468 0.723016 0
M  V30 2760 H 269.622 -0.0896927 1.69463 0
M  V30 2761 H 268.394 -0.53781 3.87586 0
M  V30 2762 H 268.017 -2.16522 3.33473 0
M  V30 2763 N 269.014 -1.53014 -0.377408 0
M  V30 2764 C 270.262 -1.6829 -1.11906 0
M  V30 2765 C 270.583 -0.431206 -1.90173 0
M  V30 2766 O 269.853 0.554595 -1.87886 0
M  V30 2767 H 268.433 -0.620371 -0.416112 0
M  V30 2768 H 271.095 -1.90167 -0.426893 0
M  V30 2769 H 270.191 -2.53862 -1.8155 0
M  V30 2770 N 270.492 0.636531 -1.44174 0
M  V30 2771 C 271.442 1.74233 -1.47061 0
M  V30 2772 C 272.426 1.57331 -0.337034 0
M  V30 2773 O 273.618 1.67159 -0.581973 0
M  V30 2774 C 270.747 3.12897 -1.41246 0
M  V30 2775 C 269.833 3.35288 -2.59698 0
M  V30 2776 N 270.224 3.2807 -3.84972 0
M  V30 2777 C 268.522 3.66065 -2.54778 0
M  V30 2778 C 269.223 3.51001 -4.63867 0
M  V30 2779 N 268.199 3.73616 -3.94857 0
M  V30 2780 H 272.001 1.67103 -2.41773 0
M  V30 2781 H 269.515 0.838806 -1.3906 0
M  V30 2782 H 271.512 3.92189 -1.41398 0
M  V30 2783 H 270.172 3.21197 -0.47569 0
M  V30 2784 H 271.183 3.07109 -4.17019 0
M  V30 2785 H 267.86 3.81379 -1.6987 0
M  V30 2786 H 269.25 3.51059 -5.72894 0
M  V30 2787 N 271.97 1.30982 0.876444 0
M  V30 2788 C 273.247 1.10942 1.61094 0
M  V30 2789 C 273.627 -0.338223 2.08373 0
M  V30 2790 O 272.975 -1.33122 1.85717 0
M  V30 2791 C 273.185 2.11789 2.77392 0
M  V30 2792 C 274.533 2.43965 3.47514 0
M  V30 2793 O 275.557 2.10166 2.87591 0
M  V30 2794 O 274.416 3.01817 4.55597 0
M  V30 2795 H 271.51 0.42667 0.708436 0
M  V30 2796 H 274.056 1.42438 0.922474 0
M  V30 2797 H 272.828 3.09194 2.39823 0
M  V30 2798 H 272.451 1.81161 3.5393 0
M  V30 2799 N 273.449 -1.08991 1.13837 0
M  V30 2800 C 274.865 -1.33312 0.877506 0
M  V30 2801 C 275.065 -1.95587 -0.48456 0
M  V30 2802 O 274.121 -2.20509 -1.23013 0
M  V30 2803 C 275.434 -2.24045 2.0056 0
M  V30 2804 C 276.982 -2.37542 2.03821 0
M  V30 2805 C 277.457 -3.31614 3.15905 0
M  V30 2806 N 278.948 -3.39189 3.15445 0
M  V30 2807 C 279.683 -4.11992 3.98811 0
M  V30 2808 N 279.179 -4.87553 4.92203 0
M  V30 2809 N 280.972 -4.07762 3.86894 0
M  V30 2810 H 273.123 -0.669456 2.01574 0
M  V30 2811 H 275.386 -0.357482 0.878015 0
M  V30 2812 H 275.092 -1.85521 2.98789 0
M  V30 2813 H 274.966 -3.24466 1.92359 0
M  V30 2814 H 277.353 -2.75327 1.06202 0
M  V30 2815 H 277.434 -1.36884 2.16093 0
M  V30 2816 H 277.078 -2.94551 4.13766 0
M  V30 2817 H 277.008 -4.32186 3.0087 0
M  V30 2818 H 279.499 -2.85314 2.47799 0
M  V30 2819 H 279.812 -5.40549 5.52292 0
M  V30 2820 H 278.157 -4.86627 4.96205 0
M  V30 2821 H 281.348 -3.47833 3.13257 0
M  V30 2822 H 281.521 -4.64238 4.52092 0
M  V30 2823 N 274.927 -0.932562 -1.27047 0
M  V30 2824 C 276.338 -0.619451 -1.76124 0
M  V30 2825 C 276.689 0.865397 -1.76083 0
M  V30 2826 O 275.814 1.67722 -1.36742 0
M  V30 2827 C 276.409 -1.11771 -3.19832 0
M  V30 2828 C 274.968 -0.855174 -3.66557 0
M  V30 2829 C 274.115 -1.27362 -2.46321 0
M  V30 2830 H 277.066 -1.11181 -1.13245 0
M  V30 2831 H 277.087 -0.46759 -3.77616 0
M  V30 2832 H 276.599 -2.19842 -3.1983 0
M  V30 2833 H 274.7 0.211524 -3.71999 0
M  V30 2834 H 274.813 -1.47613 -4.55793 0
M  V30 2835 H 273.177 -0.692119 -2.45116 0
M  V30 2836 H 273.96 -2.36307 -2.49025 0
M  V30 2837 N 276.405 1.4127 -0.698611 0
M  V30 2838 C 277.335 2.33447 -0.049629 0
M  V30 2839 C 278.316 1.51982 0.763898 0
M  V30 2840 O 279.501 1.80509 0.716257 0
M  V30 2841 C 276.631 3.35828 0.885267 0
M  V30 2842 C 275.585 4.27627 0.178613 0
M  V30 2843 C 274.911 5.20406 1.22807 0
M  V30 2844 C 276.211 5.13459 -0.956933 0
M  V30 2845 H 277.905 2.87966 -0.81951 0
M  V30 2846 H 275.451 1.38461 -0.395538 0
M  V30 2847 H 277.404 3.9924 1.34854 0
M  V30 2848 H 276.128 2.79666 1.68685 0
M  V30 2849 H 274.787 3.65643 -0.26466 0
M  V30 2850 H 274.435 4.60558 2.02226 0
M  V30 2851 H 274.135 5.82661 0.760239 0
M  V30 2852 H 275.659 5.86695 1.69179 0
M  V30 2853 H 277.073 5.70421 -0.573805 0
M  V30 2854 H 275.47 5.8467 -1.35205 0
M  V30 2855 H 276.54 4.50443 -1.79524 0
M  V30 2856 N 277.883 0.443576 1.51229 0
M  V30 2857 C 279.111 -0.11929 2.06556 0
M  V30 2858 C 279.526 -1.35921 1.31038 0
M  V30 2859 O 278.883 -1.78675 0.371704 0
M  V30 2860 C 278.934 -0.435228 3.5887 0
M  V30 2861 O 278.655 0.755486 4.31537 0
M  V30 2862 C 280.156 -1.04808 4.30732 0
M  V30 2863 H 277.376 -0.0051584 0.67098 0
M  V30 2864 H 279.92 0.624453 1.94733 0
M  V30 2865 H 278.075 -1.12887 3.70588 0
M  V30 2866 H 278.489 0.483491 5.22267 0
M  V30 2867 H 279.963 -1.2191 5.3837 0
M  V30 2868 H 280.44 -2.03081 3.89429 0
M  V30 2869 H 281.046 -0.393637 4.23474 0
M  V30 2870 N 279.361 -1.56624 0.175154 0
M  V30 2871 C 280.309 -2.19468 -0.770495 0
M  V30 2872 C 281.303 -1.15985 -1.23466 0
M  V30 2873 O 282.509 -1.34176 -1.19987 0
M  V30 2874 H 278.884 -0.703095 -0.266761 0
M  V30 2875 H 280.855 -2.97613 -0.216542 0
M  V30 2876 C 279.604 -2.85264 -1.98796 0
M  V30 2877 H 278.927 -3.64623 -1.63983 0
M  V30 2878 H 280.367 -3.327 -2.62843 0
M  V30 2879 C 278.826 -1.85239 -2.81404 0
M  V30 2880 O 279.356 -1.34024 -3.78682 0
M  V30 2881 N 277.562 -1.53911 -2.46495 0
M  V30 2882 H 277.109 -1.95751 -1.67449 0
M  V30 2883 H 277.067 -0.872382 -3.02054 0
M  V30 2884 N 280.839 0.0985539 -1.57292 0
M  V30 2885 C 282.079 0.808332 -1.87737 0
M  V30 2886 C 282.443 1.7607 -0.76572 0
M  V30 2887 O 283.644 2.51358 -0.952499 0
M  V30 2888 C 281.915 1.52093 -3.23423 0
M  V30 2889 S 283.474 2.26947 -3.75554 0
M  V30 2890 H 280.292 0.269377 -0.657995 0
M  V30 2891 H 282.894 0.0656269 -1.9539 0
M  V30 2892 H 281.598 0.81363 -4.02254 0
M  V30 2893 H 281.129 2.30361 -3.189 0
M  V30 2894 H 283.144 3.53027 -3.48692 0
M  V30 2895 N 282.317 1.53212 0.369288 0
M  V30 2896 C 283.542 1.73423 1.1375 0
M  V30 2897 C 283.967 0.460404 1.82378 0
M  V30 2898 O 283.325 -0.585298 1.71592 0
M  V30 2899 C 283.373 2.89769 2.1463 0
M  V30 2900 O 282.477 2.58119 3.21634 0
M  V30 2901 H 281.818 0.576061 0.330227 0
M  V30 2902 H 284.348 2.00083 0.427547 0
M  V30 2903 H 284.358 3.15829 2.58294 0
M  V30 2904 H 283.033 3.8217 1.64071 0
M  V30 2905 H 281.61 2.42864 2.82969 0
M  V30 2906 N 283.795 -0.628877 1.44509 0
M  V30 2907 C 285.044 -1.38437 1.4669 0
M  V30 2908 C 285.357 -1.95322 0.104272 0
M  V30 2909 O 286.563 -2.715 0.00362163 0
M  V30 2910 C 285.019 -2.50659 2.5826 0
M  V30 2911 C 284.627 -2.00277 4.0074 0
M  V30 2912 C 286.371 -3.27844 2.69664 0
M  V30 2913 C 284.278 -3.09854 5.0373 0
M  V30 2914 H 283.208 -0.520245 0.545766 0
M  V30 2915 H 285.859 -0.676313 1.70582 0
M  V30 2916 H 284.241 -3.2405 2.27612 0
M  V30 2917 H 285.415 -1.33736 4.40966 0
M  V30 2918 H 283.73 -1.35901 3.93599 0
M  V30 2919 H 286.327 -4.09534 3.43781 0
M  V30 2920 H 286.67 -3.77471 1.75559 0
M  V30 2921 H 287.203 -2.61543 2.99733 0
M  V30 2922 H 283.942 -2.65168 5.99472 0
M  V30 2923 H 283.462 -3.7503 4.68095 0
M  V30 2924 H 285.141 -3.74592 5.27532 0
M  V30 2925 N 285.273 -1.31445 -0.869486 0
M  V30 2926 C 286.522 -1.20517 -1.61736 0
M  V30 2927 C 286.835 0.235341 -1.94179 0
M  V30 2928 O 288.041 0.466312 -2.67465 0
M  V30 2929 C 286.497 -2.10982 -2.91573 0
M  V30 2930 C 286.105 -3.60032 -2.66611 0
M  V30 2931 C 287.849 -2.08856 -3.69567 0
M  V30 2932 C 285.756 -4.42503 -3.92358 0
M  V30 2933 H 284.686 -0.447493 -0.606849 0
M  V30 2934 H 287.337 -1.56303 -0.96133 0
M  V30 2935 H 285.719 -1.68095 -3.58553 0
M  V30 2936 H 286.893 -4.11167 -2.08035 0
M  V30 2937 H 285.208 -3.64139 -2.0197 0
M  V30 2938 H 287.805 -2.67716 -4.62852 0
M  V30 2939 H 288.148 -1.07582 -4.02159 0
M  V30 2940 H 288.681 -2.49945 -3.09471 0
M  V30 2941 H 285.42 -5.44533 -3.64916 0
M  V30 2942 H 284.94 -3.96125 -4.50383 0
M  V30 2943 H 286.619 -4.54741 -4.60238 0
M  V30 2944 N 286.751 1.08385 -1.14413 0
M  V30 2945 C 287.699 2.17406 -0.826888 0
M  V30 2946 C 288.693 1.6827 0.195312 0
M  V30 2947 O 289.899 1.79927 0.0513892 0
M  V30 2948 H 286.274 0.70934 -0.249681 0
M  V30 2949 H 288.245 2.41388 -1.75426 0
M  V30 2950 C 286.994 3.46215 -0.320979 0
M  V30 2951 H 286.317 3.84401 -1.0989 0
M  V30 2952 H 287.757 4.23777 -0.137549 0
M  V30 2953 C 286.216 3.23067 0.955472 0
M  V30 2954 O 286.746 3.4668 2.02918 0
M  V30 2955 N 284.952 2.7661 0.890798 0
M  V30 2956 H 284.499 2.57594 0.0168815 0
M  V30 2957 H 284.457 2.61501 1.74542 0
M  V30 2958 N 288.23 0.939286 1.26551 0
M  V30 2959 C 289.455 0.602008 1.98471 0
M  V30 2960 C 289.88 -0.815624 1.69497 0
M  V30 2961 O 289.238 -1.54912 0.941905 0
M  V30 2962 C 289.286 0.848407 3.50477 0
M  V30 2963 O 288.39 -0.0804009 4.12322 0
M  V30 2964 H 287.731 0.23049 0.622712 0
M  V30 2965 H 290.261 1.2617 1.61066 0
M  V30 2966 H 290.271 0.768553 4.00696 0
M  V30 2967 H 288.946 1.88171 3.70897 0
M  V30 2968 H 287.523 0.0503508 3.72866 0
M  V30 2969 N 289.708 -1.40897 0.706093 0
M  V30 2970 C 290.956 -2.00657 0.241054 0
M  V30 2971 C 291.277 -1.56241 -1.16678 0
M  V30 2972 O 290.547 -0.79765 -1.78926 0
M  V30 2973 H 289.127 -0.742018 0.0861308 0
M  V30 2974 H 291.789 -1.72372 0.909604 0
M  V30 2975 H 290.885 -3.10958 0.266705 0
M  V30 2976 N 291.186 -0.45159 -1.50991 0
M  V30 2977 C 292.133 0.352625 -2.2809 0
M  V30 2978 C 293.103 1.0044 -1.32291 0
M  V30 2979 O 294.288 1.02058 -1.6121 0
M  V30 2980 C 291.428 1.43983 -3.13629 0
M  V30 2981 C 290.541 0.804772 -4.24438 0
M  V30 2982 C 289.676 1.86822 -4.97263 0
M  V30 2983 C 288.715 1.21236 -5.99973 0
M  V30 2984 N 287.852 2.2178 -6.66152 0
M  V30 2985 H 292.692 -0.311186 -2.96371 0
M  V30 2986 H 290.229 -0.165308 -1.46168 0
M  V30 2987 H 292.187 2.08161 -3.61559 0
M  V30 2988 H 290.817 2.07307 -2.47434 0
M  V30 2989 H 289.869 0.0509129 -3.80366 0
M  V30 2990 H 291.181 0.286076 -4.97979 0
M  V30 2991 H 290.335 2.58628 -5.48813 0
M  V30 2992 H 289.074 2.42068 -4.23385 0
M  V30 2993 H 288.079 0.479828 -5.47702 0
M  V30 2994 H 289.304 0.667051 -6.75816 0
M  V30 2995 H 287.25 2.76079 -5.95077 0
M  V30 2996 H 287.167 1.74841 -7.35504 0
M  V30 2997 H 288.435 2.93026 -7.22327 0
M  V30 2998 N 292.664 1.56529 -0.183458 0
M  V30 2999 C 293.913 1.96419 0.458511 0
M  V30 3000 C 294.226 1.0727 1.63562 0
M  V30 3001 O 295.432 1.36893 2.34462 0
M  V30 3002 C 293.888 3.49298 0.867122 0
M  V30 3003 C 293.496 4.47092 -0.285057 0
M  V30 3004 C 295.24 3.97983 1.47683 0
M  V30 3005 C 293.147 5.91225 0.143862 0
M  V30 3006 H 292.077 0.733394 0.175071 0
M  V30 3007 H 294.728 1.81448 -0.273624 0
M  V30 3008 H 293.11 3.59731 1.65559 0
M  V30 3009 H 294.284 4.48383 -1.0625 0
M  V30 3010 H 292.599 4.08535 -0.805503 0
M  V30 3011 H 295.196 5.03134 1.80999 0
M  V30 3012 H 295.539 3.41618 2.37914 0
M  V30 3013 H 296.072 3.90617 0.752562 0
M  V30 3014 H 292.811 6.5149 -0.723974 0
M  V30 3015 H 292.331 5.93214 0.886413 0
M  V30 3016 H 294.01 6.44362 0.583628 0
M  V30 3017 N 294.142 -0.090211 1.57342 0
M  V30 3018 C 295.419 -0.824761 1.77361 0
M  V30 3019 C 295.799 -1.96698 0.76637 0
M  V30 3020 O 295.147 -2.27586 -0.204179 0
M  V30 3021 C 295.357 -1.31481 3.23286 0
M  V30 3022 C 296.705 -1.75563 3.86604 0
M  V30 3023 O 297.729 -1.41093 3.27065 0
M  V30 3024 O 296.588 -2.39317 4.91314 0
M  V30 3025 H 293.682 -0.393776 0.727234 0
M  V30 3026 H 296.228 -0.0717138 1.69548 0
M  V30 3027 H 295 -0.496671 3.88135 0
M  V30 3028 H 294.623 -2.12973 3.35751 0
M  V30 3029 N 295.62 -1.53406 -0.361157 0
M  V30 3030 C 296.866 -1.70054 -1.10496 0
M  V30 3031 C 297.199 -0.453278 -1.88836 0
M  V30 3032 O 296.474 0.5495 -1.86576 0
M  V30 3033 C 296.757 -2.95317 -2.06058 0
M  V30 3034 C 296.61 -4.3021 -1.31298 0
M  V30 3035 C 297.929 -3.16193 -3.06121 0
M  V30 3036 H 295.048 -0.618799 -0.400321 0
M  V30 3037 H 297.69 -1.86052 -0.385318 0
M  V30 3038 H 295.84 -2.81809 -2.67425 0
M  V30 3039 H 297.512 -4.55538 -0.726807 0
M  V30 3040 H 295.755 -4.29421 -0.614853 0
M  V30 3041 H 296.426 -5.14 -2.01265 0
M  V30 3042 H 298.902 -3.28916 -2.5486 0
M  V30 3043 H 297.778 -4.05266 -3.70204 0
M  V30 3044 H 298.039 -2.31676 -3.76535 0
M  V30 3045 N 297.098 0.621204 -1.44841 0
M  V30 3046 C 298.045 1.73267 -1.5247 0
M  V30 3047 C 299.015 1.6189 -0.371611 0
M  V30 3048 O 300.2 1.81668 -0.58321 0
M  V30 3049 C 297.34 3.11545 -1.48438 0
M  V30 3050 C 296.453 3.33827 -2.74196 0
M  V30 3051 C 295.588 4.62133 -2.61929 0
M  V30 3052 C 294.627 4.77627 -3.82804 0
M  V30 3053 N 293.764 5.97219 -3.69153 0
M  V30 3054 H 298.604 1.66082 -2.47428 0
M  V30 3055 H 296.141 0.810026 -1.22788 0
M  V30 3056 H 298.099 3.91528 -1.4409 0
M  V30 3057 H 296.729 3.1772 -0.570402 0
M  V30 3058 H 295.781 2.47715 -2.88689 0
M  V30 3059 H 297.093 3.41153 -3.6389 0
M  V30 3060 H 296.247 5.50291 -2.5547 0
M  V30 3061 H 294.986 4.57182 -1.69811 0
M  V30 3062 H 293.991 3.87896 -3.89637 0
M  V30 3063 H 295.216 4.84385 -4.75971 0
M  V30 3064 H 293.162 5.93339 -2.79794 0
M  V30 3065 H 293.079 6.05644 -4.52472 0
M  V30 3066 H 294.347 6.87912 -3.66603 0
M  V30 3067 N 298.576 1.31904 0.862503 0
M  V30 3068 C 299.804 1.24998 1.64873 0
M  V30 3069 C 300.219 -0.183425 1.87907 0
M  V30 3070 O 299.576 -1.11794 1.44251 0
M  V30 3071 C 299.627 1.99829 3.01248 0
M  V30 3072 O 299.348 3.37575 2.79239 0
M  V30 3073 C 300.849 1.99852 3.95694 0
M  V30 3074 H 298.069 0.431599 0.513773 0
M  V30 3075 H 300.613 1.73901 1.07604 0
M  V30 3076 H 298.768 1.54668 3.55185 0
M  V30 3077 H 299.182 3.75776 3.65914 0
M  V30 3078 H 300.656 2.56709 4.88676 0
M  V30 3079 H 301.133 0.982852 4.28062 0
M  V30 3080 H 301.739 2.44926 3.47694 0
M  V30 3081 N 300.054 -1.07777 1.14986 0
M  V30 3082 C 301.465 -1.61766 0.932127 0
M  V30 3083 C 301.816 -1.88974 -0.527581 0
M  V30 3084 O 300.941 -1.65198 -1.39781 0
M  V30 3085 C 301.536 -2.93891 1.68563 0
M  V30 3086 C 300.095 -3.44639 1.5133 0
M  V30 3087 C 299.242 -2.18767 1.704 0
M  V30 3088 H 302.193 -0.909201 1.30074 0
M  V30 3089 H 302.214 -3.62623 1.15259 0
M  V30 3090 H 301.726 -2.74057 2.74799 0
M  V30 3091 H 299.827 -3.69564 0.474702 0
M  V30 3092 H 299.94 -4.20966 2.28746 0
M  V30 3093 H 298.304 -2.28253 1.13016 0
M  V30 3094 H 299.087 -2.01433 2.77992 0
M  V30 3095 N 301.532 -0.945985 -1.26051 0
M  V30 3096 C 302.779 -0.596118 -1.93527 0
M  V30 3097 C 303.107 0.865559 -1.74179 0
M  V30 3098 O 302.362 1.63524 -1.0751 0
M  V30 3099 C 302.661 -0.890475 -3.46129 0
M  V30 3100 C 302.327 -2.3368 -3.85622 0
M  V30 3101 C 300.989 -2.73216 -3.96114 0
M  V30 3102 C 303.341 -3.27648 -4.05334 0
M  V30 3103 C 300.669 -4.05806 -4.2372 0
M  V30 3104 C 303.021 -4.59841 -4.3443 0
M  V30 3105 C 301.685 -4.99185 -4.43137 0
M  V30 3106 H 300.955 -0.218135 -0.708165 0
M  V30 3107 H 303.602 -1.1934 -1.49768 0
M  V30 3108 H 301.907 -0.210711 -3.91233 0
M  V30 3109 H 303.604 -0.598478 -3.96509 0
M  V30 3110 H 300.194 -2.02015 -3.78005 0
M  V30 3111 H 304.378 -2.98298 -3.96651 0
M  V30 3112 H 299.634 -4.35945 -4.28675 0
M  V30 3113 H 303.808 -5.32641 -4.48628 0
M  V30 3114 H 301.435 -6.01952 -4.64282 0
M  V30 3115 N 303.011 1.40521 -0.713556 0
M  V30 3116 C 304.257 2.01221 -0.252564 0
M  V30 3117 C 304.59 1.56444 1.1506 0
M  V30 3118 O 303.865 0.783597 1.78017 0
M  V30 3119 C 304.148 3.58582 -0.330332 0
M  V30 3120 C 304.001 4.13437 -1.77173 0
M  V30 3121 C 305.32 4.39079 0.299641 0
M  V30 3122 H 302.439 0.731077 -0.0932471 0
M  V30 3123 H 305.081 1.67026 -0.905673 0
M  V30 3124 H 303.231 3.87844 0.225737 0
M  V30 3125 H 304.903 3.9498 -2.38303 0
M  V30 3126 H 303.146 3.67801 -2.3001 0
M  V30 3127 H 303.817 5.22597 -1.77755 0
M  V30 3128 H 306.293 4.15735 -0.174139 0
M  V30 3129 H 305.169 5.4848 0.214771 0
M  V30 3130 H 305.43 4.19915 1.38288 0
M  V30 3131 N 304.489 0.459591 1.5075 0
M  V30 3132 C 305.735 -0.0994966 2.02556 0
M  V30 3133 C 306.068 -1.40399 1.3417 0
M  V30 3134 O 305.343 -1.88892 0.463683 0
M  V30 3135 C 305.626 -0.295242 3.58888 0
M  V30 3136 C 305.479 1.02947 4.37861 0
M  V30 3137 C 306.798 -1.05502 4.27267 0
M  V30 3138 H 303.917 -0.034686 0.736183 0
M  V30 3139 H 306.559 0.602938 1.8018 0
M  V30 3140 H 304.709 -0.893563 3.78084 0
M  V30 3141 H 306.381 1.66348 4.30263 0
M  V30 3142 H 304.624 1.62885 4.02058 0
M  V30 3143 H 305.295 0.846281 5.45474 0
M  V30 3144 H 307.771 -0.547993 4.12476 0
M  V30 3145 H 306.647 -1.16077 5.36486 0
M  V30 3146 H 306.908 -2.08875 3.89645 0
M  V30 3147 N 305.967 -1.56429 0.191757 0
M  V30 3148 C 306.877 -2.22541 -0.742481 0
M  V30 3149 C 307.893 -1.22342 -1.23727 0
M  V30 3150 O 309.069 -1.55069 -1.28513 0
M  V30 3151 C 306.134 -2.8692 -1.94623 0
M  V30 3152 C 305.195 -4.02378 -1.49633 0
M  V30 3153 C 304.428 -4.63678 -2.6427 0
M  V30 3154 O 304.651 -4.23895 -3.81666 0
M  V30 3155 O 303.585 -5.53202 -2.37174 0
M  V30 3156 H 307.411 -3.02977 -0.209462 0
M  V30 3157 H 304.996 -1.49353 -0.0373832 0
M  V30 3158 H 306.878 -3.27663 -2.64982 0
M  V30 3159 H 305.553 -2.09466 -2.46791 0
M  V30 3160 H 304.46 -3.66265 -0.761636 0
M  V30 3161 H 305.793 -4.81487 -1.02134 0
M  V30 3162 N 307.445 0.0818655 -1.57387 0
M  V30 3163 C 308.694 0.781681 -1.85937 0
M  V30 3164 C 309.007 1.79246 -0.782957 0
M  V30 3165 O 310.213 2.54112 -0.955987 0
M  V30 3166 C 308.669 1.44109 -3.29789 0
M  V30 3167 C 308.277 0.469396 -4.45534 0
M  V30 3168 C 310.021 2.12386 -3.67549 0
M  V30 3169 C 307.928 1.13415 -5.80423 0
M  V30 3170 H 306.858 0.295682 -0.693605 0
M  V30 3171 H 309.509 0.0348051 -1.83467 0
M  V30 3172 H 307.891 2.23588 -3.2684 0
M  V30 3173 H 309.065 -0.294856 -4.59856 0
M  V30 3174 H 307.38 -0.108383 -4.16259 0
M  V30 3175 H 309.977 2.62878 -4.65617 0
M  V30 3176 H 310.32 2.91877 -2.96839 0
M  V30 3177 H 310.853 1.39751 -3.72444 0
M  V30 3178 H 307.592 0.379771 -6.54399 0
M  V30 3179 H 307.112 1.8695 -5.69921 0
M  V30 3180 H 308.791 1.65686 -6.25426 0
M  V30 3181 N 308.923 1.53595 0.353017 0
M  V30 3182 C 309.886 1.80232 1.41594 0
M  V30 3183 C 310.886 0.673081 1.46035 0
M  V30 3184 O 312.076 0.941335 1.46576 0
M  V30 3185 C 309.208 1.93578 2.80607 0
M  V30 3186 H 310.401 2.75174 1.19244 0
M  V30 3187 H 307.954 1.44864 0.586872 0
M  V30 3188 H 308.689 1.00746 3.08254 0
M  V30 3189 H 308.474 2.75724 2.78781 0
M  V30 3190 H 309.964 2.15735 3.57558 0
M  V30 3191 N 310.401 -0.613514 1.45168 0
M  V30 3192 C 311.678 -1.37263 1.39349 0
M  V30 3193 C 312.058 -2.11012 0.0610848 0
M  V30 3194 O 311.406 -2.07502 -0.956825 0
M  V30 3195 C 311.616 -2.3244 2.60332 0
M  V30 3196 C 312.964 -2.9523 3.05163 0
M  V30 3197 O 313.988 -2.42762 2.60663 0
M  V30 3198 O 312.847 -3.90454 3.82372 0
M  V30 3199 H 309.941 -0.615188 0.552696 0
M  V30 3200 H 312.487 -0.637097 1.57287 0
M  V30 3201 H 311.259 -1.77164 3.48896 0
M  V30 3202 H 310.882 -3.13383 2.44698 0
M  V30 3203 N 311.879 -1.3236 -0.855495 0
M  V30 3204 C 313.125 -1.24064 -1.61182 0
M  V30 3205 C 313.48 0.195914 -1.914 0
M  V30 3206 O 312.773 1.13345 -1.54478 0
M  V30 3207 C 312.967 -2.03275 -2.93963 0
M  V30 3208 C 312.796 -3.54486 -2.76712 0
M  V30 3209 C 311.566 -4.23824 -2.75139 0
M  V30 3210 C 313.764 -4.49154 -2.50531 0
M  V30 3211 N 311.746 -5.61095 -2.4909 0
M  V30 3212 C 313.117 -5.74195 -2.3388 0
M  V30 3213 C 315.172 -4.3842 -2.35992 0
M  V30 3214 C 313.875 -6.89716 -2.04168 0
M  V30 3215 C 315.901 -5.53739 -2.0767 0
M  V30 3216 C 315.263 -6.77779 -1.9182 0
M  V30 3217 H 311.362 -0.509139 -0.59355 0
M  V30 3218 H 313.946 -1.66715 -1.00569 0
M  V30 3219 H 312.117 -1.6297 -3.52555 0
M  V30 3220 H 313.849 -1.86881 -3.58967 0
M  V30 3221 H 310.604 -3.75934 -2.88047 0
M  V30 3222 H 311.028 -6.33411 -2.38996 0
M  V30 3223 H 315.67 -3.43172 -2.46967 0
M  V30 3224 H 313.388 -7.84977 -1.9193 0
M  V30 3225 H 316.974 -5.4736 -1.97201 0
M  V30 3226 H 315.854 -7.65504 -1.70217 0
M  V30 3227 O 313.396 0.992737 -1.27385 0
M  V30 3228 H 314.087 1.61512 -1.06928 0
M  V30 END ATOM
M  V30 BEGIN BOND
M  V30 END BOND
M  V30 END CTAB
M  END
$$$$
