drugbank_target|P45973 Chromobox protein homolog 5 (DB09130)
 OpenBabel12092121073D

  0  0  0     0  0            999 V3000
M  V30 BEGIN CTAB
M  V30 COUNTS 3096 3122 0 0 0
M  V30 BEGIN ATOM
M  V30 1 H -0.908 1.98254 -0.117106 0
M  V30 2 N 0 1.576 0 0
M  V30 3 C 0.933 2.03868 1.02534 0
M  V30 4 C 1.911 0.928543 1.3348 0
M  V30 5 O 3.095 1.19667 1.45644 0
M  V30 6 C 0.222 2.43627 2.35294 0
M  V30 7 C -0.732 3.65373 2.2001 0
M  V30 8 S 0.101 5.13292 1.52614 0
M  V30 9 C 1.257 5.56322 2.86805 0
M  V30 10 H 1.49 2.90518 0.631377 0
M  V30 11 H -0.977 1.52953 0.210867 0
M  V30 12 H 0.981 2.67203 3.11629 0
M  V30 13 H -0.358 1.57376 2.7183 0
M  V30 14 H -1.165 3.90944 3.18086 0
M  V30 15 H -1.563 3.418 1.51819 0
M  V30 16 H 0.729 5.58782 3.83104 0
M  V30 17 H 1.672 6.56266 2.65933 0
M  V30 18 H 2.08 4.83886 2.90714 0
M  V30 19 N 1.4781 -0.272755 1.55222 0
M  V30 20 C 2.7261 -1.00234 1.75492 0
M  V30 21 C 3.0471 -1.8681 0.5592 0
M  V30 22 O 2.3171 -1.91215 -0.425882 0
M  V30 23 H 0.8971 -0.373076 0.647166 0
M  V30 24 H 3.5591 -0.296926 1.92625 0
M  V30 25 H 2.6551 -1.63913 2.65592 0
M  V30 26 N 2.9562 -1.48159 -0.537278 0
M  V30 27 C 3.9032 -1.62138 -1.64256 0
M  V30 28 C 4.8732 -0.463668 -1.59497 0
M  V30 29 O 6.0582 -0.686241 -1.78032 0
M  V30 30 C 3.1982 -1.66028 -3.02537 0
M  V30 31 C 2.3112 -2.92855 -3.17585 0
M  V30 32 C 1.4462 -2.87952 -4.46382 0
M  V30 33 C 0.4852 -4.09516 -4.54932 0
M  V30 34 N -0.3778 -4.02733 -5.75109 0
M  V30 35 H 4.4622 -2.56529 -1.51647 0
M  V30 36 H 1.9992 -1.27224 -0.738414 0
M  V30 37 H 3.9572 -1.66265 -3.82638 0
M  V30 38 H 2.5872 -0.751331 -3.13934 0
M  V30 39 H 1.6392 -3.02395 -2.30784 0
M  V30 40 H 2.9512 -3.82822 -3.19764 0
M  V30 41 H 2.1052 -2.8655 -5.34765 0
M  V30 42 H 0.8442 -1.95702 -4.46712 0
M  V30 43 H -0.1508 -4.11201 -3.64957 0
M  V30 44 H 1.0742 -5.02917 -4.56346 0
M  V30 45 H -0.9798 -3.13299 -5.76351 0
M  V30 46 H -1.0628 -4.86397 -5.78752 0
M  V30 47 H 0.2052 -4.05379 -6.65799 0
M  V30 48 N 4.4343 0.785586 -1.36625 0
M  V30 49 C 5.3813 1.89838 -1.31264 0
M  V30 50 C 6.3513 1.65115 -0.180633 0
M  V30 51 O 7.5363 1.87222 -0.36777 0
M  V30 52 C 4.6763 3.26706 -1.11163 0
M  V30 53 C 3.7893 3.63476 -2.33472 0
M  V30 54 C 2.9243 4.89481 -2.06353 0
M  V30 55 C 1.9633 5.18941 -3.24602 0
M  V30 56 N 1.1003 6.36131 -2.97123 0
M  V30 57 H 5.9403 1.93756 -2.26413 0
M  V30 58 H 3.4773 0.947454 -1.12524 0
M  V30 59 H 5.4353 4.05639 -0.975337 0
M  V30 60 H 4.0653 3.222 -0.196674 0
M  V30 61 H 3.1173 2.79636 -2.57891 0
M  V30 62 H 4.4293 3.81193 -3.21704 0
M  V30 63 H 3.5833 5.76288 -1.89675 0
M  V30 64 H 2.3223 4.73841 -1.15437 0
M  V30 65 H 1.3273 4.30615 -3.41834 0
M  V30 66 H 2.5523 5.36498 -4.16349 0
M  V30 67 H 0.4983 6.21875 -2.08823 0
M  V30 68 H 0.4153 6.54198 -3.78894 0
M  V30 69 H 1.6833 7.2591 -2.84033 0
M  V30 70 N 5.9124 1.20967 1.01018 0
M  V30 71 C 7.1404 1.04956 1.78303 0
M  V30 72 C 7.5554 -0.400915 1.84494 0
M  V30 73 O 6.9124 -1.27826 1.30257 0
M  V30 74 C 6.9634 1.63403 3.22462 0
M  V30 75 O 6.6844 3.02775 3.16637 0
M  V30 76 C 8.1854 1.52432 4.16268 0
M  V30 77 H 5.4054 0.368858 0.560522 0
M  V30 78 H 7.9494 1.60193 1.27116 0
M  V30 79 H 6.1044 1.1227 3.70775 0
M  V30 80 H 6.5184 3.30626 4.07169 0
M  V30 81 H 7.9924 1.98078 5.15237 0
M  V30 82 H 8.4694 0.477875 4.36592 0
M  V30 83 H 9.0754 2.02787 3.73841 0
M  V30 84 N 7.3905 -1.2043 1.01659 0
M  V30 85 C 8.3375 -2.23215 0.586822 0
M  V30 86 C 9.3075 -1.61382 -0.393085 0
M  V30 87 O 10.4925 -1.88544 -0.292525 0
M  V30 88 C 7.6325 -3.45032 -0.0687464 0
M  V30 89 C 6.7455 -4.21296 0.955724 0
M  V30 90 C 5.8805 -5.30507 0.271208 0
M  V30 91 C 4.9195 -5.98515 1.28244 0
M  V30 92 N 4.0565 -6.99316 0.62459 0
M  V30 93 H 8.8965 -2.59336 1.46796 0
M  V30 94 H 6.4335 -1.27431 0.734836 0
M  V30 95 H 8.3915 -4.1459 -0.465965 0
M  V30 96 H 7.0215 -3.09604 -0.913529 0
M  V30 97 H 6.0735 -3.50803 1.4711 0
M  V30 98 H 7.3855 -4.6803 1.72479 0
M  V30 99 H 6.5395 -6.06428 -0.18151 0
M  V30 100 H 5.2785 -4.8481 -0.530163 0
M  V30 101 H 4.2835 -5.21355 1.74554 0
M  V30 102 H 5.5085 -6.46298 2.08509 0
M  V30 103 H 3.4545 -6.55812 -0.156914 0
M  V30 104 H 3.3715 -7.44178 1.33172 0
M  V30 105 H 4.6395 -7.79255 0.195462 0
M  V30 106 N 8.8686 -0.792821 -1.36206 0
M  V30 107 C 10.2846 -0.474903 -1.52371 0
M  V30 108 C 10.4846 1.00622 -1.74578 0
M  V30 109 O 9.5406 1.79162 -1.77924 0
M  V30 110 C 10.8536 -1.3083 -2.70747 0
M  V30 111 C 12.4016 -1.30234 -2.84619 0
M  V30 112 C 12.8766 -2.11956 -4.06004 0
M  V30 113 N 14.3676 -2.09419 -4.13156 0
M  V30 114 C 15.1026 -2.69419 -5.06163 0
M  V30 115 N 14.5986 -3.3829 -6.04592 0
M  V30 116 N 16.3916 -2.59134 -4.98804 0
M  V30 117 H 8.5426 -1.75222 -1.20046 0
M  V30 118 H 10.8056 -0.745024 -0.586211 0
M  V30 119 H 10.5116 -2.35881 -2.6087 0
M  V30 120 H 10.3856 -0.95196 -3.6499 0
M  V30 121 H 12.7726 -0.259748 -2.93955 0
M  V30 122 H 12.8536 -1.69847 -1.91274 0
M  V30 123 H 12.4976 -3.16248 -3.97429 0
M  V30 124 H 12.4276 -1.69711 -4.98503 0
M  V30 125 H 14.9186 -1.59297 -3.42685 0
M  V30 126 H 15.2316 -3.81394 -6.7213 0
M  V30 127 H 13.5766 -3.42393 -6.04807 0
M  V30 128 H 16.7676 -2.04927 -4.20859 0
M  V30 129 H 16.9406 -3.06185 -5.711 0
M  V30 130 N 10.3467 1.47872 -0.545128 0
M  V30 131 C 11.5747 2.06889 -0.021084 0
M  V30 132 C 11.9897 1.39955 1.2672 0
M  V30 133 O 11.3467 0.492036 1.75742 0
M  V30 134 C 11.3977 3.60996 0.190817 0
M  V30 135 O 11.1187 4.25419 -1.04644 0
M  V30 136 C 12.6197 4.36849 0.753521 0
M  V30 137 H 9.8397 0.669785 -0.0403635 0
M  V30 138 H 12.3837 1.90049 -0.755095 0
M  V30 139 H 10.5387 3.77391 0.87492 0
M  V30 140 H 10.9527 5.17785 -0.836611 0
M  V30 141 H 12.4267 5.45399 0.851139 0
M  V30 142 H 12.9037 4.02306 1.762 0
M  V30 143 H 13.5097 4.25169 0.105503 0
M  V30 144 N 11.8248 0.280983 1.55075 0
M  V30 145 C 12.7878 -0.590896 2.21452 0
M  V30 146 C 13.7878 -1.07682 1.19421 0
M  V30 147 O 14.9778 -0.97605 1.44288 0
M  V30 148 C 12.1098 -1.81587 2.88511 0
M  V30 149 H 13.3028 -0.0112554 2.99898 0
M  V30 150 H 10.8558 0.0316438 1.56268 0
M  V30 151 H 11.5908 -2.43587 2.14093 0
M  V30 152 H 11.3758 -1.4753 3.63287 0
M  V30 153 H 12.8658 -2.43575 3.39206 0
M  V30 154 N 13.3029 -1.57598 0.00835791 0
M  V30 155 C 14.5799 -1.82172 -0.712235 0
M  V30 156 C 14.9599 -0.887873 -1.9152 0
M  V30 157 O 14.3079 0.06146 -2.28417 0
M  V30 158 C 14.5179 -3.30875 -1.11008 0
M  V30 159 C 15.8659 -3.96826 -1.51044 0
M  V30 160 O 16.8899 -3.35248 -1.20364 0
M  V30 161 O 15.7489 -5.05318 -2.08125 0
M  V30 162 H 12.8429 -0.750435 -0.347529 0
M  V30 163 H 15.3889 -1.69665 0.0344523 0
M  V30 164 H 14.1609 -3.90481 -0.252982 0
M  V30 165 H 13.7839 -3.48412 -1.9156 0
M  V30 166 N 14.781 0.264519 -1.55364 0
M  V30 167 C 16.006 1.01726 -1.80739 0
M  V30 168 C 16.431 1.78836 -0.583044 0
M  V30 169 O 15.789 1.75167 0.467566 0
M  V30 170 C 15.837 1.94482 -3.03659 0
M  V30 171 O 14.941 3.03386 -2.7934 0
M  V30 172 H 14.282 0.290395 -0.597132 0
M  V30 173 H 16.812 0.290854 -2.02522 0
M  V30 174 H 16.822 2.36278 -3.32621 0
M  V30 175 H 15.497 1.37772 -3.92418 0
M  V30 176 H 14.074 2.65844 -2.61498 0
M  V30 177 N 16.2591 1.48442 0.529413 0
M  V30 178 C 17.4841 1.60406 1.31471 0
M  V30 179 C 17.9091 0.264738 1.86228 0
M  V30 180 O 17.2671 -0.763668 1.64432 0
M  V30 181 C 17.3151 2.65419 2.44101 0
M  V30 182 O 16.4191 2.22618 3.47153 0
M  V30 183 H 15.7601 0.537863 0.389357 0
M  V30 184 H 18.2901 1.94432 0.636965 0
M  V30 185 H 18.3001 2.86709 2.90279 0
M  V30 186 H 16.9751 3.62652 2.03608 0
M  V30 187 H 15.5521 2.11543 3.0709 0
M  V30 188 N 17.7372 -0.778329 1.37039 0
M  V30 189 C 18.9622 -1.57248 1.35233 0
M  V30 190 C 19.3872 -1.87999 -0.0615568 0
M  V30 191 O 18.7452 -1.48734 -1.03672 0
M  V30 192 C 18.7932 -2.86353 2.19167 0
M  V30 193 O 17.8972 -3.80442 1.59178 0
M  V30 194 H 17.2382 -0.476569 0.462362 0
M  V30 195 H 19.7682 -0.963853 1.80474 0
M  V30 196 H 19.7782 -3.35519 2.32145 0
M  V30 197 H 18.4532 -2.63299 3.21942 0
M  V30 198 H 17.0302 -3.39067 1.55203 0
M  V30 199 N 19.2153 -1.21501 -1.00376 0
M  V30 200 C 20.4403 -1.05977 -1.78279 0
M  V30 201 C 20.8653 0.385994 -1.84097 0
M  V30 202 O 20.2233 1.27849 -1.28547 0
M  V30 203 C 20.2713 -1.66302 -3.19963 0
M  V30 204 O 19.3753 -0.909333 -4.0225 0
M  V30 205 H 18.7163 -0.372906 -0.549397 0
M  V30 206 H 21.2463 -1.6107 -1.26165 0
M  V30 207 H 21.2563 -1.70574 -3.70632 0
M  V30 208 H 19.9313 -2.71515 -3.15043 0
M  V30 209 H 18.5083 -0.941795 -3.60811 0
M  V30 210 N 20.6934 1.19889 -1.02296 0
M  V30 211 C 21.6034 2.26571 -0.608508 0
M  V30 212 C 22.6194 1.70299 0.356964 0
M  V30 213 O 23.7954 2.00235 0.216326 0
M  V30 214 C 20.8604 3.46677 0.0402814 0
M  V30 215 C 19.9214 4.18153 -0.97194 0
M  V30 216 C 19.1544 5.32525 -0.354016 0
M  V30 217 O 19.3774 5.64112 0.844604 0
M  V30 218 O 18.3114 5.92242 -1.07391 0
M  V30 219 H 22.1374 2.64251 -1.49684 0
M  V30 220 H 19.7224 1.26629 -0.792809 0
M  V30 221 H 21.6044 4.19475 0.402324 0
M  V30 222 H 20.2794 3.10858 0.902707 0
M  V30 223 H 19.1864 3.47499 -1.38546 0
M  V30 224 H 20.5194 4.57927 -1.80454 0
M  V30 225 N 22.1715 0.800033 1.35784 0
M  V30 226 C 23.4485 0.30088 1.93272 0
M  V30 227 C 23.8285 -1.20857 1.73081 0
M  V30 228 O 23.1765 -2.00502 1.09596 0
M  V30 229 C 23.3865 0.70511 3.41803 0
M  V30 230 C 24.7345 0.690871 4.18942 0
M  V30 231 O 25.7585 0.646244 3.50289 0
M  V30 232 O 24.6175 0.74332 5.41421 0
M  V30 233 H 21.7115 0.0771605 0.823393 0
M  V30 234 H 24.2575 0.88329 1.449 0
M  V30 235 H 23.0295 1.74571 3.50201 0
M  V30 236 H 22.6525 0.0971541 3.97481 0
M  V30 237 N 23.6496 -1.47581 0.552962 0
M  V30 238 C 24.5596 -2.33743 -0.200353 0
M  V30 239 C 25.5756 -1.47928 -0.916151 0
M  V30 240 O 26.7516 -1.80865 -0.885993 0
M  V30 241 C 23.8166 -3.24536 -1.21973 0
M  V30 242 C 22.8776 -4.26238 -0.511819 0
M  V30 243 C 22.1106 -5.12693 -1.48263 0
M  V30 244 O 22.3336 -5.01525 -2.71714 0
M  V30 245 O 21.2676 -5.93375 -1.00945 0
M  V30 246 H 25.0936 -2.9945 0.506304 0
M  V30 247 H 22.6786 -1.46071 0.313622 0
M  V30 248 H 24.5606 -3.80631 -1.80827 0
M  V30 249 H 23.2356 -2.61462 -1.90839 0
M  V30 250 H 22.1426 -3.73914 0.117799 0
M  V30 251 H 23.4756 -4.92014 0.135308 0
M  V30 252 N 25.1277 -0.289203 -1.54924 0
M  V30 253 C 26.0377 0.601863 -2.26748 0
M  V30 254 C 27.0537 1.15834 -1.2984 0
M  V30 255 O 28.2297 1.18564 -1.62802 0
M  V30 256 C 25.2947 1.76299 -2.98529 0
M  V30 257 C 24.3557 1.24178 -4.10948 0
M  V30 258 C 23.5887 2.34757 -4.79296 0
M  V30 259 O 23.8117 3.54411 -4.46933 0
M  V30 260 O 22.7457 2.02115 -5.66951 0
M  V30 261 H 26.5717 0.0195879 -3.03694 0
M  V30 262 H 24.1567 -0.0560868 -1.49295 0
M  V30 263 H 26.0387 2.43973 -3.43592 0
M  V30 264 H 24.7137 2.33209 -2.24488 0
M  V30 265 H 23.6207 0.531104 -3.70311 0
M  V30 266 H 24.9537 0.718252 -4.86931 0
M  V30 267 N 26.6058 1.57591 -0.0167156 0
M  V30 268 C 27.5158 2.1291 0.98521 0
M  V30 269 C 28.5318 1.07834 1.36557 0
M  V30 270 O 29.7078 1.39826 1.44951 0
M  V30 271 C 26.7728 2.63512 2.25305 0
M  V30 272 C 25.8338 3.83256 1.93426 0
M  V30 273 C 25.0668 4.31435 3.14165 0
M  V30 274 O 25.2898 3.78851 4.26413 0
M  V30 275 O 24.2238 5.23416 2.97186 0
M  V30 276 H 28.0498 2.98772 0.544888 0
M  V30 277 H 25.6348 1.48012 0.203141 0
M  V30 278 H 27.5168 2.96183 2.99756 0
M  V30 279 H 26.1918 1.8074 2.68542 0
M  V30 280 H 25.0988 3.55531 1.16398 0
M  V30 281 H 26.4318 4.67153 1.55013 0
M  V30 282 N 28.0839 -0.256276 1.55502 0
M  V30 283 C 29.3139 -1.00196 1.80677 0
M  V30 284 C 29.7219 -1.79805 0.588797 0
M  V30 285 O 29.0649 -1.78055 -0.451883 0
M  V30 286 C 29.1269 -1.99515 2.99055 0
M  V30 287 C 28.7909 -1.38688 4.35448 0
M  V30 288 C 29.7879 -0.794079 5.138 0
M  V30 289 C 27.4729 -1.40906 4.82132 0
M  V30 290 C 29.4669 -0.231562 6.36979 0
M  V30 291 C 27.1539 -0.842684 6.05262 0
M  V30 292 C 28.1519 -0.254953 6.82524 0
M  V30 293 O 27.8399 0.3027 8.0333 0
M  V30 294 H 27.5719 -0.300919 0.60533 0
M  V30 295 H 30.1259 -0.287307 2.03381 0
M  V30 296 H 28.3559 -2.74785 2.72084 0
M  V30 297 H 30.0449 -2.60349 3.11405 0
M  V30 298 H 30.8109 -0.769519 4.78856 0
M  V30 299 H 26.6899 -1.85591 4.21992 0
M  V30 300 H 30.2339 0.227816 6.97228 0
M  V30 301 H 26.1309 -0.86454 6.39684 0
M  V30 302 H 26.8989 0.193662 8.18271 0
M  V30 303 N 29.562 -1.4872 -0.521534 0
M  V30 304 C 30.808 -1.574 -1.27879 0
M  V30 305 C 31.141 -0.250817 -1.92573 0
M  V30 306 O 30.416 0.743934 -1.79711 0
M  V30 307 C 30.699 -2.71843 -2.36164 0
M  V30 308 C 30.552 -4.13893 -1.76105 0
M  V30 309 C 31.871 -2.82008 -3.37875 0
M  V30 310 H 28.99 -0.572941 -0.463581 0
M  V30 311 H 31.632 -1.80927 -0.580119 0
M  V30 312 H 29.782 -2.51914 -2.95756 0
M  V30 313 H 31.454 -4.45284 -1.20499 0
M  V30 314 H 29.697 -4.20498 -1.06601 0
M  V30 315 H 30.368 -4.89804 -2.5455 0
M  V30 316 H 32.844 -3.00086 -2.88249 0
M  V30 317 H 31.72 -3.63796 -4.11028 0
M  V30 318 H 31.981 -1.90511 -3.98946 0
M  V30 319 N 31.0401 0.771051 -1.3745 0
M  V30 320 C 32.2861 1.5319 -1.32894 0
M  V30 321 C 32.6191 1.94008 0.0862511 0
M  V30 322 O 31.8941 1.64124 1.04373 0
M  V30 323 C 32.1771 2.79648 -2.26868 0
M  V30 324 C 32.0301 2.45079 -3.77169 0
M  V30 325 C 33.3491 3.81583 -2.19277 0
M  V30 326 H 30.4681 0.555744 -0.484064 0
M  V30 327 H 33.1101 0.884492 -1.68157 0
M  V30 328 H 31.2601 3.34891 -1.96926 0
M  V30 329 H 32.9321 1.95745 -4.1771 0
M  V30 330 H 31.1751 1.77767 -3.95704 0
M  V30 331 H 31.8461 3.35478 -4.38359 0
M  V30 332 H 34.3221 3.35835 -2.45671 0
M  V30 333 H 33.1981 4.67787 -2.87171 0
M  V30 334 H 33.4591 4.25897 -1.18592 0
M  V30 335 N 32.5182 1.22032 0.997298 0
M  V30 336 C 33.4282 1.00271 2.12092 0
M  V30 337 C 34.4442 -0.047621 1.73935 0
M  V30 338 O 35.6202 0.144136 2.00884 0
M  V30 339 C 32.6852 0.578449 3.4184 0
M  V30 340 C 31.7462 1.70189 3.94125 0
M  V30 341 C 30.9792 1.29778 5.17681 0
M  V30 342 O 31.2022 0.174676 5.70132 0
M  V30 343 O 30.1362 2.11261 5.63607 0
M  V30 344 H 33.9622 1.94398 2.3333 0
M  V30 345 H 31.5472 1.00587 1.10465 0
M  V30 346 H 33.4292 0.351998 4.19927 0
M  V30 347 H 32.1042 -0.334019 3.21972 0
M  V30 348 H 31.0112 1.98282 3.1723 0
M  V30 349 H 32.3442 2.59206 4.18417 0
M  V30 350 N 33.9963 -1.19345 1.0293 0
M  V30 351 C 34.9433 -2.2258 0.610464 0
M  V30 352 C 35.9133 -1.6179 -0.375946 0
M  V30 353 O 37.0983 -1.88844 -0.272511 0
M  V30 354 C 34.2383 -3.45085 -0.0321473 0
M  V30 355 C 33.3513 -4.20258 1.00035 0
M  V30 356 C 32.4863 -5.3019 0.32746 0
M  V30 357 C 31.5253 -5.97121 1.34584 0
M  V30 358 N 30.6623 -6.98615 0.698726 0
M  V30 359 H 35.5023 -2.57764 1.49538 0
M  V30 360 H 33.0393 -1.26644 0.748311 0
M  V30 361 H 34.9973 -4.15061 -0.421966 0
M  V30 362 H 33.6273 -3.10555 -0.88064 0
M  V30 363 H 32.6793 -3.49223 1.50823 0
M  V30 364 H 33.9913 -4.66175 1.77433 0
M  V30 365 H 33.1453 -6.06587 -0.11718 0
M  V30 366 H 31.8843 -4.85345 -0.478713 0
M  V30 367 H 30.8893 -5.19474 1.80074 0
M  V30 368 H 32.1143 -6.4405 2.15352 0
M  V30 369 H 30.0603 -6.55942 -0.0873471 0
M  V30 370 H 29.9773 -7.42724 1.41058 0
M  V30 371 H 31.2453 -7.79004 0.278102 0
M  V30 372 N 35.4744 -0.807222 -1.35358 0
M  V30 373 C 36.7204 -0.388463 -1.99045 0
M  V30 374 C 37.0534 1.04184 -1.63888 0
M  V30 375 O 36.3284 1.72292 -0.902535 0
M  V30 376 C 36.6114 -0.572783 -3.55515 0
M  V30 377 C 36.4644 -2.04807 -4.00468 0
M  V30 378 C 37.7834 0.00114064 -4.401 0
M  V30 379 H 34.9024 -0.142619 -0.723069 0
M  V30 380 H 37.5444 -1.01687 -1.60498 0
M  V30 381 H 35.6944 -0.0378425 -3.88482 0
M  V30 382 H 37.3664 -2.64544 -3.77908 0
M  V30 383 H 35.6094 -2.54427 -3.51353 0
M  V30 384 H 36.2804 -2.12792 -5.09337 0
M  V30 385 H 38.7564 -0.455716 -4.13597 0
M  V30 386 H 37.6324 -0.157737 -5.48673 0
M  V30 387 H 37.8934 1.09488 -4.28328 0
M  V30 388 N 36.9525 1.47285 -0.560781 0
M  V30 389 C 37.8825 2.32857 0.173105 0
M  V30 390 C 38.8635 1.44009 0.905281 0
M  V30 391 O 40.0485 1.7286 0.885046 0
M  V30 392 C 37.1785 3.25861 1.20133 0
M  V30 393 C 36.1325 4.23978 0.585388 0
M  V30 394 C 35.4585 5.06332 1.7185 0
M  V30 395 C 36.7585 5.20242 -0.463178 0
M  V30 396 H 38.4525 2.94466 -0.541307 0
M  V30 397 H 35.9985 1.41601 -0.261764 0
M  V30 398 H 37.9515 3.84569 1.72293 0
M  V30 399 H 36.6755 2.62315 1.94573 0
M  V30 400 H 35.3345 3.66501 0.085054 0
M  V30 401 H 34.9825 4.39186 2.45203 0
M  V30 402 H 34.6825 5.72762 1.31213 0
M  V30 403 H 36.2065 5.67899 2.24329 0
M  V30 404 H 37.6205 5.73293 -0.027502 0
M  V30 405 H 36.0175 5.94896 -0.788627 0
M  V30 406 H 37.0875 4.65504 -1.35773 0
M  V30 407 N 38.4306 0.297415 1.54768 0
M  V30 408 C 39.7076 -0.365847 1.92148 0
M  V30 409 C 40.0876 -1.71975 1.22424 0
M  V30 410 O 39.4356 -2.25666 0.358739 0
M  V30 411 C 39.6456 -0.484056 3.45627 0
M  V30 412 C 40.9936 -0.756594 4.17805 0
M  V30 413 O 42.0176 -0.568007 3.51642 0
M  V30 414 O 40.8766 -1.11863 5.34929 0
M  V30 415 H 37.9706 -0.203919 0.801465 0
M  V30 416 H 40.5166 0.34521 1.66152 0
M  V30 417 H 39.2886 0.467865 3.88493 0
M  V30 418 H 38.9116 -1.24372 3.77647 0
M  V30 419 N 39.9087 -1.5758 0.0250728 0
M  V30 420 C 41.3247 -1.56124 -0.331282 0
M  V30 421 C 41.5247 -1.03029 -1.73169 0
M  V30 422 O 40.5807 -0.675215 -2.43305 0
M  V30 423 C 41.8937 -3.00139 -0.183584 0
M  V30 424 C 43.4417 -3.11946 -0.256654 0
M  V30 425 C 43.9167 -4.57793 -0.137792 0
M  V30 426 N 45.4077 -4.6279 -0.194904 0
M  V30 427 C 46.1427 -5.7326 -0.126655 0
M  V30 428 N 45.6387 -6.928 -0.00755288 0
M  V30 429 N 47.4317 -5.61811 -0.180348 0
M  V30 430 H 39.5827 -1.90424 0.94087 0
M  V30 431 H 41.8457 -0.875761 0.362968 0
M  V30 432 H 41.5517 -3.4292 0.780927 0
M  V30 433 H 41.4257 -3.64899 -0.955448 0
M  V30 434 H 43.8127 -2.69079 -1.21162 0
M  V30 435 H 43.8937 -2.49915 0.545517 0
M  V30 436 H 43.5377 -5.01339 0.813739 0
M  V30 437 H 43.4677 -5.17798 -0.958775 0
M  V30 438 H 45.9587 -3.76807 -0.287267 0
M  V30 439 H 46.2717 -7.72791 0.0379428 0
M  V30 440 H 44.6167 -6.94995 0.0271731 0
M  V30 441 H 47.8077 -4.6731 -0.271767 0
M  V30 442 H 47.9807 -6.47882 -0.123697 0
M  V30 443 N 41.3868 0.248026 -1.55636 0
M  V30 444 C 42.8028 0.596483 -1.48035 0
M  V30 445 C 43.0028 1.88386 -0.715039 0
M  V30 446 O 42.0588 2.51319 -0.243944 0
M  V30 447 C 43.3718 0.700258 -2.92433 0
M  V30 448 C 44.9198 0.792659 -3.02797 0
M  V30 449 C 45.3948 0.928005 -4.485 0
M  V30 450 N 46.8858 0.992903 -4.52433 0
M  V30 451 C 47.6208 1.11687 -5.62418 0
M  V30 452 N 47.1168 1.20645 -6.82214 0
M  V30 453 N 48.9098 1.14994 -5.50212 0
M  V30 454 H 41.0608 -0.597109 -2.03834 0
M  V30 455 H 43.3238 -0.205925 -0.925364 0
M  V30 456 H 43.0298 -0.175658 -3.51261 0
M  V30 457 H 42.9038 1.57255 -3.42857 0
M  V30 458 H 45.2908 1.65903 -2.4405 0
M  V30 459 H 45.3718 -0.104762 -2.55585 0
M  V30 460 H 45.0158 0.0661971 -5.07857 0
M  V30 461 H 44.9458 1.84045 -4.93391 0
M  V30 462 H 47.4368 0.935064 -3.66149 0
M  V30 463 H 47.7498 1.30008 -7.61786 0
M  V30 464 H 46.0948 1.17605 -6.84977 0
M  V30 465 H 49.2858 1.07643 -4.55555 0
M  V30 466 H 49.4588 1.24311 -6.35965 0
M  V30 467 N 42.8649 1.48995 0.513639 0
M  V30 468 C 44.1109 1.58076 1.27042 0
M  V30 469 C 44.4439 0.261026 1.92438 0
M  V30 470 O 43.7189 -0.734393 1.80103 0
M  V30 471 C 44.0019 2.73091 2.34719 0
M  V30 472 C 43.8549 4.14821 1.73907 0
M  V30 473 C 45.1739 2.83796 3.36375 0
M  V30 474 H 42.2929 0.575391 0.460536 0
M  V30 475 H 44.9349 1.81232 0.570516 0
M  V30 476 H 43.0849 2.53479 2.94416 0
M  V30 477 H 44.7569 4.45917 1.18135 0
M  V30 478 H 42.9999 4.21058 1.0437 0
M  V30 479 H 43.6709 4.91147 2.51949 0
M  V30 480 H 46.1469 3.01611 2.86653 0
M  V30 481 H 45.0229 3.65971 4.09093 0
M  V30 482 H 45.2839 1.92624 3.9793 0
M  V30 483 N 44.343 -0.763751 1.37857 0
M  V30 484 C 45.589 -1.52483 1.33704 0
M  V30 485 C 45.922 -1.94051 -0.0759612 0
M  V30 486 O 45.197 -1.64675 -1.03501 0
M  V30 487 C 45.48 -2.78441 2.28348 0
M  V30 488 C 45.333 -2.43075 3.78463 0
M  V30 489 C 46.652 -3.80415 2.21298 0
M  V30 490 H 43.771 -0.553169 0.487005 0
M  V30 491 H 46.413 -0.875562 1.68624 0
M  V30 492 H 44.563 -3.33842 1.987 0
M  V30 493 H 46.235 -1.93527 4.18742 0
M  V30 494 H 44.478 -1.75666 3.96641 0
M  V30 495 H 45.149 -3.33149 4.40132 0
M  V30 496 H 47.625 -3.34527 2.47449 0
M  V30 497 H 46.501 -4.66257 2.89647 0
M  V30 498 H 46.762 -4.25262 1.20849 0
M  V30 499 N 45.8211 -1.22559 -0.990812 0
M  V30 500 C 46.7681 -0.997519 -2.0813 0
M  V30 501 C 47.7381 0.0814702 -1.659 0
M  V30 502 O 48.9231 -0.0685424 -1.90677 0
M  V30 503 C 46.0631 -0.583615 -3.40129 0
M  V30 504 C 45.1761 -1.7336 -3.9569 0
M  V30 505 C 44.3111 -1.26748 -5.15857 0
M  V30 506 C 43.3501 -2.38888 -5.63559 0
M  V30 507 N 42.4871 -1.93308 -6.74964 0
M  V30 508 H 47.3271 -1.93099 -2.26973 0
M  V30 509 H 44.8641 -0.962114 -1.11273 0
M  V30 510 H 46.8221 -0.324801 -4.15934 0
M  V30 511 H 45.4521 0.312845 -3.2128 0
M  V30 512 H 44.5041 -2.10669 -3.16738 0
M  V30 513 H 45.8161 -2.57704 -4.27071 0
M  V30 514 H 44.9701 -0.966173 -5.98957 0
M  V30 515 H 43.7091 -0.394272 -4.86104 0
M  V30 516 H 42.7141 -2.69805 -4.79046 0
M  V30 517 H 43.9391 -3.26728 -5.95336 0
M  V30 518 H 41.8851 -1.08352 -6.4699 0
M  V30 519 H 41.8021 -2.71217 -7.05675 0
M  V30 520 H 43.0701 -1.66252 -7.61564 0
M  V30 521 N 47.2992 1.18797 -1.03562 0
M  V30 522 C 48.5472 1.88278 -0.734569 0
M  V30 523 C 48.8682 1.8043 0.739586 0
M  V30 524 O 48.1382 1.21925 1.53333 0
M  V30 525 H 46.7182 0.696991 -0.268725 0
M  V30 526 H 49.3802 1.44192 -1.31129 0
M  V30 527 H 48.4762 2.94443 -1.03489 0
M  V30 528 N 48.7773 0.814389 1.34928 0
M  V30 529 C 49.7093 0.187834 2.28429 0
M  V30 530 C 50.7223 -0.617374 1.5064 0
M  V30 531 O 51.9113 -0.448454 1.72775 0
M  V30 532 C 49.0113 -0.755962 3.30361 0
M  V30 533 C 48.1843 0.00456686 4.374 0
M  V30 534 C 47.2433 -0.858876 5.19143 0
M  V30 535 O 46.2693 -0.306968 5.68372 0
M  V30 536 N 47.4713 -2.17988 5.38016 0
M  V30 537 H 50.2363 0.991105 2.82838 0
M  V30 538 H 47.7973 0.670561 1.4736 0
M  V30 539 H 49.7893 -1.338 3.81942 0
M  V30 540 H 48.3593 -1.46001 2.7641 0
M  V30 541 H 47.5793 0.767865 3.86649 0
M  V30 542 H 48.8673 0.528422 5.06049 0
M  V30 543 H 48.2653 -2.65212 4.99679 0
M  V30 544 H 46.8223 -2.71098 5.92747 0
M  V30 545 N 50.2554 -1.46986 0.568584 0
M  V30 546 C 51.5014 -2.02741 0.0488709 0
M  V30 547 C 51.8344 -1.44077 -1.30214 0
M  V30 548 O 51.1094 -0.600552 -1.84996 0
M  V30 549 C 51.3924 -3.60086 -0.032047 0
M  V30 550 C 51.2454 -4.29162 1.34686 0
M  V30 551 C 52.5644 -4.33838 -0.739798 0
M  V30 552 H 49.6834 -0.736749 0.0192338 0
M  V30 553 H 52.3254 -1.75289 0.733065 0
M  V30 554 H 50.4754 -3.83606 -0.61473 0
M  V30 555 H 52.1474 -4.16948 1.97362 0
M  V30 556 H 50.3904 -3.89073 1.91846 0
M  V30 557 H 51.0614 -5.37826 1.24285 0
M  V30 558 H 53.5374 -4.15378 -0.244939 0
M  V30 559 H 52.4134 -5.43537 -0.765406 0
M  V30 560 H 52.6744 -4.03875 -1.79827 0
M  V30 561 N 51.7335 -0.305618 -1.54608 0
M  V30 562 C 52.6435 0.57778 -2.27374 0
M  V30 563 C 53.6595 1.14451 -1.31061 0
M  V30 564 O 54.8355 1.16831 -1.6405 0
M  V30 565 C 51.9005 1.73123 -3.00382 0
M  V30 566 C 50.9615 1.19812 -4.12242 0
M  V30 567 C 50.1945 2.2966 -4.81759 0
M  V30 568 O 50.4175 3.49651 -4.50666 0
M  V30 569 O 49.3515 1.96091 -5.69062 0
M  V30 570 H 53.1775 -0.012624 -3.03697 0
M  V30 571 H 50.7625 -0.0719184 -1.49227 0
M  V30 572 H 52.6445 2.40315 -3.4616 0
M  V30 573 H 51.3195 2.30815 -2.26949 0
M  V30 574 H 50.2265 0.491798 -3.70853 0
M  V30 575 H 51.5595 0.666566 -4.87666 0
M  V30 576 N 53.2116 1.57565 -0.0334293 0
M  V30 577 C 54.4416 1.95996 0.653398 0
M  V30 578 C 54.8496 0.908749 1.65947 0
M  V30 579 O 54.1926 -0.117471 1.83324 0
M  V30 580 C 54.2546 3.30589 1.41249 0
M  V30 581 C 53.9186 4.53503 0.564263 0
M  V30 582 C 54.9156 5.19647 -0.16225 0
M  V30 583 C 52.6006 4.99801 0.500398 0
M  V30 584 C 54.5946 6.30412 -0.941255 0
M  V30 585 C 52.2816 6.10448 -0.282308 0
M  V30 586 C 53.2796 6.75612 -1.00184 0
M  V30 587 O 52.9676 7.84134 -1.77171 0
M  V30 588 H 52.6996 0.65027 0.184728 0
M  V30 589 H 55.2536 2.05199 -0.0907841 0
M  V30 590 H 53.4836 3.17888 2.20191 0
M  V30 591 H 55.1726 3.53892 1.98784 0
M  V30 592 H 55.9386 4.84846 -0.12227 0
M  V30 593 H 51.8176 4.48883 1.05002 0
M  V30 594 H 55.3616 6.81208 -1.50339 0
M  V30 595 H 51.2586 6.44686 -0.323989 0
M  V30 596 H 52.0266 8.00822 -1.69194 0
M  V30 597 N 54.6897 -0.239769 1.55765 0
M  V30 598 C 55.6197 -1.30052 1.9393 0
M  V30 599 C 56.6007 -1.49839 0.805132 0
M  V30 600 O 57.7857 -1.62328 1.06599 0
M  V30 601 C 54.9157 -2.65391 2.2402 0
M  V30 602 C 53.8697 -2.60289 3.39755 0
M  V30 603 C 53.1957 -3.99489 3.55405 0
M  V30 604 C 54.4957 -2.16654 4.75246 0
M  V30 605 H 56.1897 -0.983573 2.82783 0
M  V30 606 H 53.7357 -0.471701 1.36055 0
M  V30 607 H 55.6887 -3.3974 2.49308 0
M  V30 608 H 54.4127 -2.98736 1.32 0
M  V30 609 H 53.0717 -1.88398 3.14487 0
M  V30 610 H 52.7197 -4.30112 2.60793 0
M  V30 611 H 52.4197 -3.96962 4.33238 0
M  V30 612 H 53.9437 -4.75528 3.83022 0
M  V30 613 H 55.3577 -2.80737 4.99859 0
M  V30 614 H 53.7547 -2.25223 5.56232 0
M  V30 615 H 54.8247 -1.11835 4.71827 0
M  V30 616 N 56.1678 -1.49265 -0.50573 0
M  V30 617 C 57.0978 -1.68495 -1.61653 0
M  V30 618 C 58.0788 -0.53366 -1.61512 0
M  V30 619 O 59.2638 -0.76897 -1.78327 0
M  V30 620 C 56.3938 -1.74709 -3.00157 0
M  V30 621 C 55.3478 -2.89581 -3.15162 0
M  V30 622 C 54.6738 -2.80903 -4.5497 0
M  V30 623 C 55.9738 -4.30578 -2.95634 0
M  V30 624 H 57.6678 -2.61493 -1.45814 0
M  V30 625 H 55.2138 -1.25838 -0.70005 0
M  V30 626 H 57.1668 -1.86748 -3.77761 0
M  V30 627 H 55.8908 -0.783067 -3.17074 0
M  V30 628 H 54.5498 -2.77136 -2.39982 0
M  V30 629 H 54.1978 -1.82419 -4.68756 0
M  V30 630 H 53.8978 -3.57999 -4.65951 0
M  V30 631 H 55.4218 -2.94944 -5.34641 0
M  V30 632 H 56.8358 -4.4373 -3.63011 0
M  V30 633 H 55.2328 -5.0886 -3.18091 0
M  V30 634 H 56.3028 -4.45352 -1.91806 0
M  V30 635 N 57.6459 0.756429 -1.3826 0
M  V30 636 C 58.5929 1.87011 -1.35261 0
M  V30 637 C 59.5629 1.64695 -0.215616 0
M  V30 638 O 60.7479 1.864 -0.407399 0
M  V30 639 C 57.8879 3.24275 -1.18068 0
M  V30 640 C 57.0009 3.58442 -2.41129 0
M  V30 641 C 56.1359 4.84994 -2.16689 0
M  V30 642 C 55.1749 5.11939 -3.35537 0
M  V30 643 N 54.3119 6.29685 -3.10549 0
M  V30 644 H 59.1519 1.8891 -2.30472 0
M  V30 645 H 56.6889 0.923373 -1.14509 0
M  V30 646 H 58.6469 4.03479 -1.06116 0
M  V30 647 H 57.2769 3.21711 -0.264973 0
M  V30 648 H 56.3289 2.74103 -2.63764 0
M  V30 649 H 57.6409 3.74283 -3.29717 0
M  V30 650 H 56.7949 5.72135 -2.01857 0
M  V30 651 H 55.5339 4.71286 -1.25462 0
M  V30 652 H 54.5389 4.23268 -3.50891 0
M  V30 653 H 55.7639 5.27546 -4.27635 0
M  V30 654 H 53.7099 6.17306 -2.21967 0
M  V30 655 H 53.6269 6.46014 -3.92686 0
M  V30 656 H 54.8949 7.19722 -2.99367 0
M  V30 657 N 59.124 1.23083 0.984299 0
M  V30 658 C 60.37 1.07221 1.72845 0
M  V30 659 C 60.725 -0.387453 1.88458 0
M  V30 660 O 60.018 -1.28309 1.42293 0
M  V30 661 C 60.212 1.72673 3.1292 0
M  V30 662 C 60.041 3.24853 3.10967 0
M  V30 663 C 58.811 3.93998 3.16376 0
M  V30 664 C 61.009 4.21674 2.94441 0
M  V30 665 N 58.991 5.33192 3.04268 0
M  V30 666 C 60.362 5.47756 2.90453 0
M  V30 667 C 62.417 4.12457 2.78897 0
M  V30 668 C 61.12 6.6568 2.72512 0
M  V30 669 C 63.146 5.3004 2.62319 0
M  V30 670 C 62.508 6.55046 2.59026 0
M  V30 671 H 58.607 0.44685 0.641755 0
M  V30 672 H 61.191 1.55753 1.16829 0
M  V30 673 H 59.362 1.26679 3.67161 0
M  V30 674 H 61.094 1.49824 3.75945 0
M  V30 675 H 57.849 3.45052 3.24401 0
M  V30 676 H 58.273 6.06157 3.015 0
M  V30 677 H 62.915 3.16588 2.80235 0
M  V30 678 H 60.633 7.61689 2.69919 0
M  V30 679 H 64.219 5.24747 2.5126 0
M  V30 680 H 63.099 7.44498 2.46357 0
M  V30 681 N 60.6021 -1.18246 1.0419 0
M  V30 682 C 61.5491 -2.2192 0.634037 0
M  V30 683 C 62.5191 -1.62179 -0.358765 0
M  V30 684 O 63.7041 -1.89122 -0.252466 0
M  V30 685 C 60.8441 -3.451 0.00445535 0
M  V30 686 C 59.9571 -4.19174 1.04487 0
M  V30 687 C 59.0921 -5.29813 0.383676 0
M  V30 688 C 58.1311 -5.9566 1.4091 0
M  V30 689 N 57.2681 -6.97834 0.772784 0
M  V30 690 H 62.1081 -2.56164 1.52263 0
M  V30 691 H 59.6451 -1.25843 0.761701 0
M  V30 692 H 61.6031 -4.15485 -0.377919 0
M  V30 693 H 60.2331 -3.11472 -0.847652 0
M  V30 694 H 59.2851 -3.47604 1.54518 0
M  V30 695 H 60.5971 -4.64267 1.82368 0
M  V30 696 H 59.7511 -6.06677 -0.0528366 0
M  V30 697 H 58.4901 -4.85825 -0.427208 0
M  V30 698 H 57.4951 -5.17535 1.85574 0
M  V30 699 H 58.7201 -6.4173 2.22171 0
M  V30 700 H 56.6661 -6.55998 -0.0177708 0
M  V30 701 H 56.5831 -7.41186 1.48928 0
M  V30 702 H 57.8511 -7.78665 0.36071 0
M  V30 703 N 62.0802 -0.821533 -1.34494 0
M  V30 704 C 63.3282 -0.408139 -1.97936 0
M  V30 705 C 63.6492 1.03193 -1.65457 0
M  V30 706 O 62.9192 1.71622 -0.944595 0
M  V30 707 H 61.4992 -0.147928 -0.732206 0
M  V30 708 H 64.1612 -1.05067 -1.64155 0
M  V30 709 H 63.2572 -0.52601 -3.07635 0
M  V30 710 N 63.5583 1.46682 -0.576371 0
M  V30 711 C 64.8053 2.02412 -0.0595339 0
M  V30 712 C 65.1333 1.44859 1.29793 0
M  V30 713 O 64.3883 0.601099 1.8624 0
M  V30 714 C 64.6873 3.57345 0.062886 0
M  V30 715 C 64.3533 4.33908 -1.22616 0
M  V30 716 C 63.0153 4.54544 -1.57933 0
M  V30 717 C 65.3673 4.77919 -2.07948 0
M  V30 718 C 62.6953 5.16444 -2.78393 0
M  V30 719 C 65.0473 5.41149 -3.27629 0
M  V30 720 C 63.7113 5.60014 -3.63236 0
M  V30 721 H 62.9813 0.74068 -0.021785 0
M  V30 722 H 65.6283 1.76128 -0.751735 0
M  V30 723 H 63.9333 3.82729 0.838178 0
M  V30 724 H 65.6303 3.98136 0.478439 0
M  V30 725 H 62.2203 4.18138 -0.941202 0
M  V30 726 H 66.4043 4.61738 -1.81967 0
M  V30 727 H 61.6603 5.29242 -3.06126 0
M  V30 728 H 65.8343 5.74211 -3.94023 0
M  V30 729 H 63.4613 6.07748 -4.56669 0
M  V30 730 N 65.0364 0.313813 1.54444 0
M  V30 731 C 66.2614 -0.296681 2.05267 0
M  V30 732 C 66.6864 -1.45757 1.18897 0
M  V30 733 O 66.0444 -1.80239 0.195886 0
M  V30 734 C 66.0924 -0.71831 3.53373 0
M  V30 735 O 65.1964 -1.82175 3.69981 0
M  V30 736 H 64.5374 -0.0554061 0.661684 0
M  V30 737 H 67.0674 0.459387 1.99376 0
M  V30 738 H 67.0774 -1.00364 3.95463 0
M  V30 739 H 65.7524 0.130821 4.15694 0
M  V30 740 H 64.3294 -1.53598 3.39797 0
M  V30 741 N 66.5145 -1.57545 0.0417849 0
M  V30 742 C 67.4245 -2.14451 -0.951213 0
M  V30 743 C 68.4405 -1.09992 -1.34825 0
M  V30 744 O 69.6165 -1.42114 -1.42708 0
M  V30 745 C 66.6815 -2.67063 -2.21084 0
M  V30 746 C 65.7425 -3.86284 -1.87304 0
M  V30 747 C 64.9755 -4.36378 -3.07261 0
M  V30 748 O 65.1985 -3.85587 -4.20332 0
M  V30 749 O 64.1325 -5.28077 -2.88822 0
M  V30 750 H 67.9585 -2.99601 -0.497287 0
M  V30 751 H 65.5435 -1.48317 -0.179567 0
M  V30 752 H 67.4255 -3.00914 -2.95006 0
M  V30 753 H 66.1005 -1.84989 -2.65633 0
M  V30 754 H 65.0075 -3.57338 -1.10727 0
M  V30 755 H 66.3405 -4.6956 -1.47562 0
M  V30 756 N 67.9926 0.231505 -1.5589 0
M  V30 757 C 68.9026 1.308 -1.94752 0
M  V30 758 C 69.9186 1.51826 -0.849989 0
M  V30 759 O 71.0946 1.6515 -1.15271 0
M  V30 760 C 68.1596 2.63968 -2.24771 0
M  V30 761 C 67.2206 2.51331 -3.48039 0
M  V30 762 C 66.4536 3.78148 -3.76616 0
M  V30 763 O 66.6766 4.80722 -3.07022 0
M  V30 764 O 65.6106 3.75857 -4.70123 0
M  V30 765 H 69.4366 1.0083 -2.86474 0
M  V30 766 H 67.0216 0.433547 -1.42971 0
M  V30 767 H 68.9036 3.42633 -2.45318 0
M  V30 768 H 67.5786 2.9364 -1.36225 0
M  V30 769 H 66.4856 1.709 -3.32782 0
M  V30 770 H 67.8186 2.26601 -4.36936 0
M  V30 771 N 69.4707 1.49531 0.497807 0
M  V30 772 C 70.4207 1.62829 1.59596 0
M  V30 773 C 71.4047 0.483824 1.53453 0
M  V30 774 O 72.5967 0.736937 1.60929 0
M  V30 775 C 69.7257 1.7011 2.98191 0
M  V30 776 C 68.8117 2.90144 3.09317 0
M  V30 777 N 69.2027 4.1418 2.90324 0
M  V30 778 C 67.5007 2.88148 3.40422 0
M  V30 779 C 68.2017 4.94886 3.05717 0
M  V30 780 N 67.1777 4.28314 3.34736 0
M  V30 781 H 70.9797 2.56446 1.4357 0
M  V30 782 H 68.4937 1.46347 0.704001 0
M  V30 783 H 70.4907 1.77735 3.77115 0
M  V30 784 H 69.1507 0.776315 3.15283 0
M  V30 785 H 70.1617 4.44109 2.66436 0
M  V30 786 H 66.8387 2.05061 3.63671 0
M  V30 787 H 68.2287 6.03432 2.95499 0
M  V30 788 N 70.9488 -0.749086 1.3866 0
M  V30 789 C 71.8968 -1.88428 1.36373 0
M  V30 790 C 72.8908 -1.67561 0.248929 0
M  V30 791 O 74.0968 -1.75074 0.41821 0
M  V30 792 H 70.4718 -0.620023 0.42553 0
M  V30 793 H 72.4428 -1.87473 2.32156 0
M  V30 794 C 71.1918 -3.25961 1.21014 0
M  V30 795 H 70.5148 -3.42607 2.06059 0
M  V30 796 H 71.9548 -4.05625 1.23469 0
M  V30 797 C 70.4138 -3.36799 -0.0825941 0
M  V30 798 O 70.9438 -3.87517 -1.05797 0
M  V30 799 N 69.1498 -2.90258 -0.140939 0
M  V30 800 H 68.6968 -2.49174 0.653477 0
M  V30 801 H 68.6548 -2.97889 -1.00545 0
M  V30 802 N 72.4269 -1.23603 -0.977757 0
M  V30 803 C 73.6549 -1.09646 -1.75458 0
M  V30 804 C 74.0699 0.351859 -1.85492 0
M  V30 805 O 73.4269 1.24327 -1.336 0
M  V30 806 C 73.4779 -1.71895 -3.18016 0
M  V30 807 O 73.1989 -3.11063 -3.08498 0
M  V30 808 C 74.6999 -1.63415 -4.12081 0
M  V30 809 H 71.9199 -0.38359 -0.550545 0
M  V30 810 H 74.4639 -1.63507 -1.22824 0
M  V30 811 H 72.6189 -1.22061 -3.67668 0
M  V30 812 H 73.0329 -3.41305 -3.9826 0
M  V30 813 H 74.5069 -2.11669 -5.09804 0
M  V30 814 H 74.9839 -0.593462 -4.35172 0
M  V30 815 H 75.5899 -2.12628 -3.68334 0
M  V30 816 N 73.905 1.17692 -1.04816 0
M  V30 817 C 75.151 1.88389 -0.766892 0
M  V30 818 C 75.506 1.79282 0.698269 0
M  V30 819 O 74.799 1.18739 1.50372 0
M  V30 820 C 74.993 3.37462 -1.17703 0
M  V30 821 C 74.822 3.6108 -2.68051 0
M  V30 822 C 73.592 3.78018 -3.35307 0
M  V30 823 C 75.79 3.61039 -3.66273 0
M  V30 824 N 73.772 3.89444 -4.74559 0
M  V30 825 C 75.143 3.78269 -4.91235 0
M  V30 826 C 77.198 3.44168 -3.59796 0
M  V30 827 C 75.901 3.80376 -6.10497 0
M  V30 828 C 77.927 3.4756 -4.78493 0
M  V30 829 C 77.289 3.65295 -6.02278 0
M  V30 830 H 73.388 0.707651 -0.332798 0
M  V30 831 H 75.972 1.41314 -1.33934 0
M  V30 832 H 74.143 3.83214 -0.63257 0
M  V30 833 H 75.875 3.95759 -0.845989 0
M  V30 834 H 72.63 3.77714 -2.85708 0
M  V30 835 H 73.054 3.98962 -5.46954 0
M  V30 836 H 77.696 3.29396 -2.65062 0
M  V30 837 H 75.414 3.93933 -7.05579 0
M  V30 838 H 79 3.3577 -4.75131 0
M  V30 839 H 77.88 3.6782 -6.92588 0
M  V30 840 N 75.3831 0.828654 1.34056 0
M  V30 841 C 76.2931 0.256725 2.33191 0
M  V30 842 C 77.3091 -0.611898 1.62886 0
M  V30 843 O 78.4851 -0.51844 1.94613 0
M  V30 844 C 75.5501 -0.567238 3.42028 0
M  V30 845 C 74.6111 0.324458 4.28072 0
M  V30 846 C 73.8441 -0.460274 5.31712 0
M  V30 847 O 74.0671 -1.693 5.44696 0
M  V30 848 O 73.0011 0.160391 6.01686 0
M  V30 849 H 76.8271 1.07739 2.83947 0
M  V30 850 H 74.4121 0.59093 1.37217 0
M  V30 851 H 76.2941 -1.03582 4.08471 0
M  V30 852 H 74.9691 -1.36513 2.93506 0
M  V30 853 H 73.8761 0.840659 3.64532 0
M  V30 854 H 75.2091 1.08685 4.8005 0
M  V30 855 N 76.8612 -1.46375 0.584142 0
M  V30 856 C 78.2722 -1.86031 0.157959 0
M  V30 857 C 78.6232 -1.48753 -1.27933 0
M  V30 858 O 77.7482 -0.903098 -1.96655 0
M  V30 859 C 78.3432 -3.37642 0.279892 0
M  V30 860 C 76.9022 -3.76289 -0.09143 0
M  V30 861 C 76.0492 -2.7039 0.615178 0
M  V30 862 H 79.0002 -1.37509 0.792274 0
M  V30 863 H 79.0212 -3.77275 -0.494364 0
M  V30 864 H 78.5332 -3.64742 1.32607 0
M  V30 865 H 76.6342 -3.54806 -1.13769 0
M  V30 866 H 76.7472 -4.78246 0.285886 0
M  V30 867 H 75.1112 -2.5464 0.0552833 0
M  V30 868 H 75.8942 -3.0033 1.66303 0
M  V30 869 N 78.3393 -0.321999 -1.54275 0
M  V30 870 C 79.2493 0.553631 -2.27974 0
M  V30 871 C 80.2653 1.13054 -1.32268 0
M  V30 872 O 81.4413 1.15084 -1.6528 0
M  V30 873 C 78.5063 1.69927 -3.02201 0
M  V30 874 C 77.5673 1.15433 -4.1349 0
M  V30 875 C 76.8003 2.24537 -4.84168 0
M  V30 876 O 77.0233 3.44852 -4.5435 0
M  V30 877 O 75.9573 1.90044 -5.7111 0
M  V30 878 H 79.7833 -0.0448345 -3.03667 0
M  V30 879 H 77.3683 -0.0877418 -1.49142 0
M  V30 880 H 79.2503 2.3663 -3.48689 0
M  V30 881 H 77.9253 2.28395 -2.29385 0
M  V30 882 H 76.8323 0.452436 -3.71354 0
M  V30 883 H 78.1653 0.614805 -4.88345 0
M  V30 884 N 79.8174 1.5752 -0.0501392 0
M  V30 885 C 80.7644 2.1147 0.924603 0
M  V30 886 C 81.7344 1.02182 1.30951 0
M  V30 887 O 82.9194 1.29723 1.39916 0
M  V30 888 C 80.0594 2.66337 2.19451 0
M  V30 889 C 79.1724 3.89708 1.86418 0
M  V30 890 C 78.3074 4.32893 3.07859 0
M  V30 891 C 77.3464 5.48967 2.70742 0
M  V30 892 N 76.4834 5.87211 3.84874 0
M  V30 893 H 81.3234 2.94465 0.457639 0
M  V30 894 H 78.8604 1.45531 0.214266 0
M  V30 895 H 80.8184 2.96247 2.93758 0
M  V30 896 H 79.4484 1.86141 2.63726 0
M  V30 897 H 78.5004 3.66396 1.02264 0
M  V30 898 H 79.8124 4.74074 1.55096 0
M  V30 899 H 78.9664 4.6435 3.90466 0
M  V30 900 H 77.7054 3.47336 3.42358 0
M  V30 901 H 76.7104 5.17183 1.86551 0
M  V30 902 H 77.9354 6.3624 2.37436 0
M  V30 903 H 75.8814 5.04607 4.19175 0
M  V30 904 H 75.7984 6.66266 3.57247 0
M  V30 905 H 77.0664 6.23282 4.68123 0
M  V30 906 N 81.2955 -0.223234 1.56011 0
M  V30 907 C 82.2435 -1.29627 1.93131 0
M  V30 908 C 83.2375 -1.48608 0.813146 0
M  V30 909 O 84.4435 -1.49802 0.997966 0
M  V30 910 H 80.8185 -0.434563 0.613726 0
M  V30 911 H 82.7895 -0.955995 2.82672 0
M  V30 912 C 81.5385 -2.63983 2.26292 0
M  V30 913 H 80.8615 -2.50185 3.11846 0
M  V30 914 H 82.3015 -3.3788 2.56151 0
M  V30 915 C 80.7605 -3.18866 1.08747 0
M  V30 916 O 81.2905 -4.00192 0.347727 0
M  V30 917 N 79.4965 -2.77217 0.871743 0
M  V30 918 H 79.0435 -2.1119 1.47501 0
M  V30 919 H 79.0015 -3.1428 0.0869905 0
M  V30 920 N 82.7736 -1.49793 -0.48987 0
M  V30 921 C 83.7036 -1.70201 -1.59856 0
M  V30 922 C 84.6846 -0.55076 -1.60937 0
M  V30 923 O 85.8696 -0.787841 -1.77501 0
M  V30 924 C 82.9996 -1.77882 -2.98287 0
M  V30 925 C 81.9536 -2.92907 -3.12073 0
M  V30 926 C 81.2796 -2.85712 -4.51965 0
M  V30 927 C 82.5796 -4.3369 -2.91051 0
M  V30 928 H 84.2736 -2.63025 -1.43032 0
M  V30 929 H 81.8196 -1.26574 -0.686664 0
M  V30 930 H 83.7726 -1.90744 -3.75759 0
M  V30 931 H 82.4966 -0.816653 -3.16225 0
M  V30 932 H 81.1556 -2.79665 -2.37029 0
M  V30 933 H 80.8036 -1.8738 -4.66795 0
M  V30 934 H 80.5036 -3.62921 -4.62128 0
M  V30 935 H 82.0276 -3.00598 -5.31482 0
M  V30 936 H 83.4416 -4.47555 -3.58284 0
M  V30 937 H 81.8386 -5.12205 -3.12675 0
M  V30 938 H 82.9086 -4.47362 -1.87071 0
M  V30 939 N 84.2517 0.741722 -1.39055 0
M  V30 940 C 85.5287 1.49252 -1.26425 0
M  V30 941 C 85.9087 2.10705 0.129144 0
M  V30 942 O 85.2567 1.98045 1.13976 0
M  V30 943 C 85.4667 2.54934 -2.38347 0
M  V30 944 C 86.8147 3.21506 -2.77343 0
M  V30 945 O 87.8387 2.65245 -2.37747 0
M  V30 946 O 86.6977 4.23294 -3.45665 0
M  V30 947 H 83.7917 0.662451 -0.495064 0
M  V30 948 H 86.3377 0.776121 -1.50912 0
M  V30 949 H 85.1097 2.07857 -3.31529 0
M  V30 950 H 84.7327 3.34141 -2.15489 0
M  V30 951 N 85.7298 1.2412 0.971189 0
M  V30 952 C 86.9698 1.09066 1.7287 0
M  V30 953 C 87.3338 -0.364794 1.88503 0
M  V30 954 O 88.5348 -0.636748 2.61149 0
M  V30 955 C 86.8058 1.80629 3.08396 0
M  V30 956 S 88.3648 1.81263 3.99611 0
M  V30 957 H 85.1828 0.390145 0.594397 0
M  V30 958 H 87.7848 1.57397 1.15959 0
M  V30 959 H 86.4888 2.85647 2.94676 0
M  V30 960 H 86.0198 1.32617 3.70373 0
M  V30 961 H 88.0348 0.877804 4.88374 0
M  V30 962 N 87.2079 -1.17134 1.05439 0
M  V30 963 C 88.6189 -1.69084 0.791676 0
M  V30 964 C 88.9699 -1.83822 -0.685839 0
M  V30 965 O 88.0949 -1.52757 -1.53278 0
M  V30 966 C 88.6899 -3.07119 1.4305 0
M  V30 967 C 87.2489 -3.56225 1.21577 0
M  V30 968 C 86.3959 -2.32421 1.51247 0
M  V30 969 H 89.3469 -1.01617 1.219 0
M  V30 970 H 89.3679 -3.71087 0.84112 0
M  V30 971 H 88.8799 -2.9636 2.50584 0
M  V30 972 H 86.9809 -3.72257 0.159787 0
M  V30 973 H 87.0939 -4.38837 1.92246 0
M  V30 974 H 85.4579 -2.3701 0.932653 0
M  V30 975 H 86.2409 -2.24268 2.5992 0
M  V30 976 N 88.686 -0.835752 -1.33615 0
M  V30 977 C 89.596 -0.269088 -2.33052 0
M  V30 978 C 90.612 0.603251 -1.63208 0
M  V30 979 O 91.788 0.508112 -1.94885 0
M  V30 980 C 88.853 0.549091 -3.42324 0
M  V30 981 C 87.914 -0.347156 -4.27894 0
M  V30 982 C 87.147 0.43207 -5.31948 0
M  V30 983 O 87.37 1.66409 -5.45586 0
M  V30 984 O 86.304 -0.192298 -6.01593 0
M  V30 985 H 90.13 -1.09243 -2.83372 0
M  V30 986 H 87.715 -0.598198 -1.36901 0
M  V30 987 H 89.597 1.01414 -4.09015 0
M  V30 988 H 88.272 1.34955 -2.94226 0
M  V30 989 H 87.179 -0.859979 -3.64081 0
M  V30 990 H 88.512 -1.1123 -4.79467 0
M  V30 991 N 90.1641 1.46063 -0.591896 0
M  V30 992 C 91.0941 2.33172 0.123673 0
M  V30 993 C 92.0751 1.45897 0.87453 0
M  V30 994 O 93.2601 1.74698 0.848181 0
M  V30 995 C 90.3901 3.28336 1.13194 0
M  V30 996 C 89.3441 4.25124 0.495324 0
M  V30 997 C 88.6701 5.09863 1.61071 0
M  V30 998 C 89.9701 5.19143 -0.573425 0
M  V30 999 H 91.6641 2.93252 -0.603646 0
M  V30 1000 H 89.2101 1.41014 -0.291741 0
M  V30 1001 H 91.1631 3.88137 1.64097 0
M  V30 1002 H 89.8871 2.66383 1.88965 0
M  V30 1003 H 88.5461 3.66599 0.00729452 0
M  V30 1004 H 88.1941 4.44288 2.35832 0
M  V30 1005 H 87.8941 5.75417 1.19035 0
M  V30 1006 H 89.4181 5.72529 2.12233 0
M  V30 1007 H 90.8321 5.73106 -0.1491 0
M  V30 1008 H 89.2291 5.93089 -0.914636 0
M  V30 1009 H 90.2991 4.62519 -1.45617 0
M  V30 1010 N 91.6422 0.330177 1.54103 0
M  V30 1011 C 92.8912 -0.271336 1.99867 0
M  V30 1012 C 93.2042 -1.52723 1.22209 0
M  V30 1013 O 94.4102 -2.20515 1.58383 0
M  V30 1014 C 92.8662 -0.534032 3.55916 0
M  V30 1015 C 92.4742 0.705193 4.42415 0
M  V30 1016 C 94.2182 -1.09514 4.1013 0
M  V30 1017 C 92.1252 0.414035 5.89949 0
M  V30 1018 H 91.0552 -0.105166 0.74663 0
M  V30 1019 H 93.7062 0.443429 1.78062 0
M  V30 1020 H 92.0882 -1.30915 3.73734 0
M  V30 1021 H 93.2622 1.4804 4.36372 0
M  V30 1022 H 91.5772 1.18698 3.99124 0
M  V30 1023 H 94.1742 -1.3277 5.17954 0
M  V30 1024 H 94.5172 -2.04656 3.62521 0
M  V30 1025 H 95.0502 -0.381038 3.95971 0
M  V30 1026 H 91.7892 1.33481 6.41766 0
M  V30 1027 H 91.3092 -0.323336 5.98928 0
M  V30 1028 H 92.9882 0.0263105 6.46995 0
M  V30 1029 N 93.1203 -1.57491 0.0584922 0
M  V30 1030 C 94.3453 -1.97711 -0.62652 0
M  V30 1031 C 94.7703 -0.936132 -1.63151 0
M  V30 1032 O 94.1283 0.099811 -1.81025 0
M  V30 1033 C 94.1763 -3.36989 -1.28338 0
M  V30 1034 O 93.2803 -3.35433 -2.39913 0
M  V30 1035 H 92.6213 -0.643868 -0.162266 0
M  V30 1036 H 95.1513 -2.04193 0.129064 0
M  V30 1037 H 95.1613 -3.73879 -1.63335 0
M  V30 1038 H 93.8363 -4.12289 -0.546889 0
M  V30 1039 H 92.4133 -3.10298 -2.06809 0
M  V30 1040 N 94.5984 0.214957 -1.56127 0
M  V30 1041 C 95.5084 1.28727 -1.96129 0
M  V30 1042 C 96.5244 1.50916 -0.866044 0
M  V30 1043 O 97.7004 1.63918 -1.17016 0
M  V30 1044 C 94.7654 2.61569 -2.27558 0
M  V30 1045 C 93.8264 2.47625 -3.50685 0
M  V30 1046 C 93.0594 3.74132 -3.80606 0
M  V30 1047 O 93.2824 4.77438 -3.12104 0
M  V30 1048 O 92.2164 3.70849 -4.74083 0
M  V30 1049 H 96.0424 0.977855 -2.87527 0
M  V30 1050 H 93.6274 0.418358 -1.43423 0
M  V30 1051 H 95.5094 3.40012 -2.48938 0
M  V30 1052 H 94.1844 2.92178 -1.39332 0
M  V30 1053 H 93.0914 1.67361 -3.34576 0
M  V30 1054 H 94.4244 2.21954 -4.39315 0
M  V30 1055 N 96.0765 1.50051 0.48192 0
M  V30 1056 C 97.3235 1.60498 1.23477 0
M  V30 1057 C 97.6515 0.300331 1.92167 0
M  V30 1058 O 96.9065 -0.713094 1.82246 0
M  V30 1059 C 97.2055 2.72717 2.30998 0
M  V30 1060 C 96.8715 4.13572 1.79636 0
M  V30 1061 C 95.5335 4.519 1.65348 0
M  V30 1062 C 97.8855 5.01649 1.41412 0
M  V30 1063 C 95.2135 5.76057 1.11244 0
M  V30 1064 C 97.5655 6.26343 0.887538 0
M  V30 1065 C 96.2295 6.63483 0.731207 0
M  V30 1066 H 95.4995 0.587303 0.451836 0
M  V30 1067 H 98.1465 1.83948 0.532468 0
M  V30 1068 H 96.4515 2.43312 3.07094 0
M  V30 1069 H 98.1485 2.78006 2.88988 0
M  V30 1070 H 94.7385 3.83329 1.91721 0
M  V30 1071 H 98.9225 4.72679 1.51289 0
M  V30 1072 H 94.1785 6.03516 0.978686 0
M  V30 1073 H 98.3525 6.93958 0.582654 0
M  V30 1074 H 95.9795 7.59568 0.309806 0
M  V30 1075 N 97.5546 -0.734337 1.39446 0
M  V30 1076 C 98.4876 -1.85715 1.32609 0
M  V30 1077 C 99.4656 -1.6137 0.199636 0
M  V30 1078 O 100.65 -1.84626 0.380195 0
M  V30 1079 C 97.7766 -3.21709 1.05929 0
M  V30 1080 C 96.8226 -3.64913 2.20773 0
M  V30 1081 S 97.6556 -3.74203 3.83056 0
M  V30 1082 C 98.8116 -5.12986 3.58603 0
M  V30 1083 H 99.0446 -1.91232 2.27635 0
M  V30 1084 H 96.5776 -0.899263 1.25509 0
M  V30 1085 H 98.5356 -4.00236 0.912203 0
M  V30 1086 H 97.1966 -3.13848 0.125883 0
M  V30 1087 H 96.3896 -4.63606 1.97699 0
M  V30 1088 H 95.9916 -2.93593 2.31688 0
M  V30 1089 H 98.2836 -5.99339 3.15909 0
M  V30 1090 H 99.2266 -5.41088 4.5676 0
M  V30 1091 H 99.6346 -4.82694 2.9269 0
M  V30 1092 N 99.0327 -1.24633 -0.964593 0
M  V30 1093 C 99.9797 -1.04144 -2.05968 0
M  V30 1094 C 100.95 0.046262 -1.66036 0
M  V30 1095 O 102.135 -0.108972 -1.90489 0
M  V30 1096 C 99.2747 -0.65563 -3.38815 0
M  V30 1097 C 98.3877 -1.81714 -3.91923 0
M  V30 1098 C 97.5227 -1.37662 -5.13052 0
M  V30 1099 C 96.5617 -2.50788 -5.58365 0
M  V30 1100 N 95.6987 -2.07582 -6.70712 0
M  V30 1101 H 100.539 -1.9787 -2.22827 0
M  V30 1102 H 98.0757 -0.9855 -1.09208 0
M  V30 1103 H 100.034 -0.412954 -4.15151 0
M  V30 1104 H 98.6637 0.244627 -3.21872 0
M  V30 1105 H 97.7157 -2.1734 -3.12198 0
M  V30 1106 H 99.0277 -2.66705 -4.21509 0
M  V30 1107 H 98.1817 -1.093 -5.96773 0
M  V30 1108 H 96.9207 -0.497293 -4.85158 0
M  V30 1109 H 95.9257 -2.79906 -4.73215 0
M  V30 1110 H 97.1507 -3.39283 -5.88272 0
M  V30 1111 H 95.0967 -1.22051 -6.44546 0
M  V30 1112 H 95.0137 -2.86125 -6.99763 0
M  V30 1113 H 96.2817 -1.82369 -7.57867 0
M  V30 1114 N 100.511 1.16574 -1.06058 0
M  V30 1115 C 101.458 2.20883 -0.669263 0
M  V30 1116 C 102.428 1.62729 0.332918 0
M  V30 1117 O 103.613 1.895 0.222346 0
M  V30 1118 C 100.753 3.45049 -0.0593572 0
M  V30 1119 C 99.8658 4.17458 -1.11143 0
M  V30 1120 C 99.0008 5.29135 -0.467916 0
M  V30 1121 C 98.0398 5.93343 -1.50369 0
M  V30 1122 N 97.1768 6.96516 -0.883706 0
M  V30 1123 H 102.017 2.53709 -1.5632 0
M  V30 1124 H 99.5538 1.24616 -0.781625 0
M  V30 1125 H 101.512 4.16033 0.311771 0
M  V30 1126 H 100.142 3.12781 0.797992 0
M  V30 1127 H 99.1938 3.45101 -1.60029 0
M  V30 1128 H 100.506 4.61307 -1.89731 0
M  V30 1129 H 99.6598 6.06684 -0.0436871 0
M  V30 1130 H 98.3988 4.86443 0.349864 0
M  V30 1131 H 97.4038 5.14517 -1.93784 0
M  V30 1132 H 98.6288 6.38114 -2.32352 0
M  V30 1133 H 96.5748 6.55943 -0.086595 0
M  V30 1134 H 96.4918 7.38723 -1.607 0
M  V30 1135 H 97.7598 7.77993 -0.484543 0
M  V30 1136 N 101.989 0.842826 1.3317 0
M  V30 1137 C 103.219 0.453397 2.01564 0
M  V30 1138 C 103.627 -0.951147 1.63554 0
M  V30 1139 O 102.97 -1.63021 0.846746 0
M  V30 1140 C 103.032 0.499013 3.5602 0
M  V30 1141 C 102.696 1.86037 4.1742 0
M  V30 1142 C 103.693 2.82416 4.36506 0
M  V30 1143 C 101.378 2.15428 4.53757 0
M  V30 1144 C 103.372 4.06346 4.91082 0
M  V30 1145 C 101.059 3.39615 5.0804 0
M  V30 1146 C 102.057 4.3489 5.26649 0
M  V30 1147 O 101.745 5.5688 5.79776 0
M  V30 1148 H 101.477 0.177871 0.652179 0
M  V30 1149 H 104.031 1.13808 1.70988 0
M  V30 1150 H 102.261 -0.242467 3.85939 0
M  V30 1151 H 103.95 0.126852 4.05702 0
M  V30 1152 H 104.716 2.6101 4.08777 0
M  V30 1153 H 100.595 1.42061 4.38565 0
M  V30 1154 H 104.139 4.80722 5.05522 0
M  V30 1155 H 100.036 3.60876 5.352 0
M  V30 1156 H 100.804 5.58674 5.98185 0
M  V30 1157 N 103.467 -1.45747 0.599634 0
M  V30 1158 C 104.414 -2.30467 -0.123849 0
M  V30 1159 C 105.384 -1.41632 -0.86774 0
M  V30 1160 O 106.569 -1.70568 -0.855056 0
M  V30 1161 C 103.709 -3.26402 -1.12051 0
M  V30 1162 C 102.822 -4.3034 -0.37832 0
M  V30 1163 C 101.957 -5.13389 -1.364 0
M  V30 1164 C 100.996 -6.09061 -0.609171 0
M  V30 1165 N 100.133 -6.84918 -1.54374 0
M  V30 1166 H 104.973 -2.91802 0.604627 0
M  V30 1167 H 102.51 -1.43797 0.309972 0
M  V30 1168 H 104.468 -3.80482 -1.7114 0
M  V30 1169 H 103.098 -2.66839 -1.8165 0
M  V30 1170 H 102.15 -3.78984 0.327929 0
M  V30 1171 H 103.462 -4.98354 0.210997 0
M  V30 1172 H 102.616 -5.7183 -2.02719 0
M  V30 1173 H 101.355 -4.45376 -1.98725 0
M  V30 1174 H 100.36 -5.49758 0.0676979 0
M  V30 1175 H 101.585 -6.79099 0.00891991 0
M  V30 1176 H 99.531 -6.19601 -2.15478 0
M  V30 1177 H 99.448 -7.49254 -1.00766 0
M  V30 1178 H 100.716 -7.47906 -2.19676 0
M  V30 1179 N 104.945 -0.338344 -1.53925 0
M  V30 1180 C 105.892 0.520845 -2.24846 0
M  V30 1181 C 106.862 1.09976 -1.24477 0
M  V30 1182 O 108.047 1.13735 -1.53196 0
M  V30 1183 C 105.187 1.6685 -3.02084 0
M  V30 1184 C 104.3 1.11739 -4.17299 0
M  V30 1185 C 103.435 2.23193 -4.82036 0
M  V30 1186 C 102.474 1.65407 -5.89328 0
M  V30 1187 N 101.611 2.70582 -6.47866 0
M  V30 1188 H 106.451 -0.0904881 -2.97863 0
M  V30 1189 H 103.988 -0.0564282 -1.46992 0
M  V30 1190 H 105.946 2.34407 -3.45122 0
M  V30 1191 H 104.576 2.2509 -2.31375 0
M  V30 1192 H 103.628 0.332919 -3.7894 0
M  V30 1193 H 104.94 0.654677 -4.94485 0
M  V30 1194 H 104.094 2.98626 -5.28117 0
M  V30 1195 H 102.833 2.72807 -4.04262 0
M  V30 1196 H 101.838 0.884779 -5.42634 0
M  V30 1197 H 103.063 1.16652 -6.69006 0
M  V30 1198 H 101.009 3.1946 -5.72959 0
M  V30 1199 H 100.926 2.28917 -7.20509 0
M  V30 1200 H 102.194 3.45799 -6.98601 0
M  V30 1201 N 106.423 1.57458 -0.0668435 0
M  V30 1202 C 107.356 2.08033 0.93795 0
M  V30 1203 C 108.334 0.984321 1.29421 0
M  V30 1204 O 109.518 1.25736 1.40437 0
M  V30 1205 C 106.645 2.53388 2.24749 0
M  V30 1206 C 105.691 3.74376 2.04315 0
M  V30 1207 S 106.524 5.19303 1.30706 0
M  V30 1208 C 107.68 5.67986 2.62951 0
M  V30 1209 H 107.913 2.92935 0.50759 0
M  V30 1210 H 105.446 1.5371 0.145804 0
M  V30 1211 H 107.404 2.8018 3.00016 0
M  V30 1212 H 106.065 1.68763 2.64911 0
M  V30 1213 H 105.258 4.04083 3.01218 0
M  V30 1214 H 104.86 3.47931 1.37186 0
M  V30 1215 H 107.152 5.74528 3.5906 0
M  V30 1216 H 108.095 6.66955 2.3786 0
M  V30 1217 H 108.503 4.95781 2.69929 0
M  V30 1218 N 107.901 -0.206675 1.56239 0
M  V30 1219 C 108.848 -1.25617 1.93621 0
M  V30 1220 C 109.818 -1.45824 0.795274 0
M  V30 1221 O 111.003 -1.59148 1.05245 0
M  V30 1222 C 108.143 -2.59839 2.27107 0
M  V30 1223 C 107.256 -2.47308 3.54207 0
M  V30 1224 C 106.391 -3.74155 3.7707 0
M  V30 1225 C 105.43 -3.56407 4.97635 0
M  V30 1226 N 104.567 -4.75238 5.1681 0
M  V30 1227 H 109.407 -0.930383 2.83104 0
M  V30 1228 H 106.944 -0.448065 1.4011 0
M  V30 1229 H 108.902 -3.38021 2.44535 0
M  V30 1230 H 107.532 -2.90485 1.40778 0
M  V30 1231 H 106.584 -1.60483 3.4489 0
M  V30 1232 H 107.896 -2.30122 4.42544 0
M  V30 1233 H 107.05 -4.60778 3.94675 0
M  V30 1234 H 105.789 -3.94282 2.87042 0
M  V30 1235 H 104.794 -2.68168 4.79964 0
M  V30 1236 H 106.019 -3.37736 5.89161 0
M  V30 1237 H 103.965 -4.95651 4.29728 0
M  V30 1238 H 103.882 -4.60835 5.99306 0
M  V30 1239 H 105.15 -5.63246 5.38864 0
M  V30 1240 N 109.379 -1.50304 -0.473955 0
M  V30 1241 C 110.289 -1.7174 -1.5982 0
M  V30 1242 C 111.305 -0.600457 -1.63311 0
M  V30 1243 O 112.481 -0.878441 -1.81233 0
M  V30 1244 C 109.546 -1.80427 -2.96052 0
M  V30 1245 C 108.607 -3.04148 -3.02972 0
M  V30 1246 C 107.84 -3.12411 -4.32706 0
M  V30 1247 O 108.063 -2.27542 -5.23049 0
M  V30 1248 O 106.997 -4.05113 -4.45159 0
M  V30 1249 H 110.823 -2.67035 -1.44657 0
M  V30 1250 H 108.408 -1.34366 -0.653148 0
M  V30 1251 H 110.29 -1.88338 -3.7697 0
M  V30 1252 H 108.965 -0.883156 -3.11419 0
M  V30 1253 H 107.872 -3.0174 -2.21142 0
M  V30 1254 H 109.205 -3.95829 -2.92541 0
M  V30 1255 N 110.857 0.726932 -1.39834 0
M  V30 1256 C 112.105 1.4837 -1.37225 0
M  V30 1257 C 112.426 1.94979 0.0284857 0
M  V30 1258 O 111.696 1.69555 0.981213 0
M  V30 1259 H 110.276 0.55043 -0.505011 0
M  V30 1260 H 112.938 0.862468 -1.74778 0
M  V30 1261 H 112.034 2.36198 -2.04003 0
M  V30 1262 N 112.336 1.25143 0.95797 0
M  V30 1263 C 113.246 1.06968 2.08794 0
M  V30 1264 C 114.262 0.00773911 1.73998 0
M  V30 1265 O 115.438 0.207972 2.00323 0
M  V30 1266 C 112.503 0.68691 3.39827 0
M  V30 1267 C 111.564 1.82641 3.88511 0
M  V30 1268 C 110.797 1.46181 5.1329 0
M  V30 1269 O 111.02 0.355971 5.69288 0
M  V30 1270 O 109.954 2.29085 5.566 0
M  V30 1271 H 113.78 2.01723 2.27027 0
M  V30 1272 H 111.365 1.04051 1.07209 0
M  V30 1273 H 113.247 0.485417 4.18595 0
M  V30 1274 H 111.922 -0.231417 3.22872 0
M  V30 1275 H 110.829 2.08274 3.10762 0
M  V30 1276 H 112.162 2.72386 4.09959 0
M  V30 1277 N 113.814 -1.1601 1.06675 0
M  V30 1278 C 114.762 -2.22586 0.675157 0
M  V30 1279 C 115.756 -1.66525 -0.310766 0
M  V30 1280 O 116.962 -1.79145 -0.175215 0
M  V30 1281 H 113.337 -0.724855 0.200223 0
M  V30 1282 H 115.308 -2.52899 1.58381 0
M  V30 1283 C 114.057 -3.47604 0.0817162 0
M  V30 1284 H 113.38 -3.91058 0.831484 0
M  V30 1285 H 114.82 -4.23718 -0.154708 0
M  V30 1286 C 113.279 -3.15718 -1.17576 0
M  V30 1287 O 113.809 -3.31878 -2.26318 0
M  V30 1288 N 112.015 -2.69816 -1.07923 0
M  V30 1289 H 111.562 -2.56866 -0.194293 0
M  V30 1290 H 111.52 -2.48855 -1.92141 0
M  V30 1291 N 115.292 -0.849877 -1.32721 0
M  V30 1292 C 116.24 -0.279745 -2.30912 0
M  V30 1293 C 117.234 0.594278 -1.58634 0
M  V30 1294 O 118.44 0.482613 -1.73409 0
M  V30 1295 H 114.815 -0.0717521 -0.748569 0
M  V30 1296 H 116.786 -1.12222 -2.76494 0
M  V30 1297 C 115.535 0.521108 -3.43773 0
M  V30 1298 H 114.858 -0.142141 -3.99547 0
M  V30 1299 H 116.298 0.885693 -4.14646 0
M  V30 1300 C 114.757 1.70442 -2.90605 0
M  V30 1301 O 115.287 2.8034 -2.87702 0
M  V30 1302 N 113.493 1.52991 -2.47067 0
M  V30 1303 H 113.04 0.635914 -2.49628 0
M  V30 1304 H 112.998 2.32311 -2.11847 0
M  V30 1305 N 116.77 1.45427 -0.607355 0
M  V30 1306 C 117.717 2.3053 0.111625 0
M  V30 1307 C 118.687 1.4209 0.860216 0
M  V30 1308 O 119.872 1.71019 0.845998 0
M  V30 1309 C 117.012 3.26992 1.10319 0
M  V30 1310 C 116.125 4.30535 0.355493 0
M  V30 1311 C 115.26 5.14105 1.33676 0
M  V30 1312 C 114.299 6.09376 0.576862 0
M  V30 1313 N 113.436 6.85727 1.5074 0
M  V30 1314 H 118.276 2.91477 -0.620093 0
M  V30 1315 H 115.813 1.43631 -0.317594 0
M  V30 1316 H 117.771 3.81385 1.6912 0
M  V30 1317 H 116.401 2.67799 1.80232 0
M  V30 1318 H 115.453 3.78805 -0.348023 0
M  V30 1319 H 116.765 4.98235 -0.237423 0
M  V30 1320 H 115.919 5.72897 1.99684 0
M  V30 1321 H 114.658 4.46423 1.9636 0
M  V30 1322 H 113.663 5.49715 -0.0968519 0
M  V30 1323 H 114.888 6.79085 -0.0449341 0
M  V30 1324 H 112.834 6.20735 2.12189 0
M  V30 1325 H 112.751 7.49778 0.967913 0
M  V30 1326 H 114.019 7.4906 2.15706 0
M  V30 1327 N 118.248 0.346503 1.53744 0
M  V30 1328 C 119.659 -0.136779 1.86198 0
M  V30 1329 C 120.01 -1.49749 1.26766 0
M  V30 1330 O 119.135 -2.08417 0.582355 0
M  V30 1331 C 119.73 -0.254966 3.37839 0
M  V30 1332 C 118.289 -0.682482 3.70161 0
M  V30 1333 C 117.436 0.181981 2.76702 0
M  V30 1334 H 120.387 0.565994 1.48264 0
M  V30 1335 H 120.408 -1.08195 3.64793 0
M  V30 1336 H 119.92 0.735526 3.81066 0
M  V30 1337 H 118.021 -1.68189 3.3248 0
M  V30 1338 H 118.134 -0.470326 4.76786 0
M  V30 1339 H 116.498 -0.34615 2.52337 0
M  V30 1340 H 117.281 1.16966 3.2276 0
M  V30 1341 N 119.726 -1.57421 0.075193 0
M  V30 1342 C 121.142 -1.57099 -0.281444 0
M  V30 1343 C 121.342 -1.08486 -1.69803 0
M  V30 1344 O 120.398 -0.752279 -2.41033 0
M  V30 1345 C 121.711 -3.00571 -0.0880041 0
M  V30 1346 C 123.259 -3.12605 -0.157281 0
M  V30 1347 C 123.734 -4.57999 0.0079207 0
M  V30 1348 N 125.225 -4.63176 -0.0475725 0
M  V30 1349 C 125.96 -5.73373 0.0557876 0
M  V30 1350 N 125.456 -6.92473 0.21286 0
M  V30 1351 N 127.249 -5.621 -0.00152098 0
M  V30 1352 H 119.4 -1.87335 1.00098 0
M  V30 1353 H 121.663 -0.86377 0.390646 0
M  V30 1354 H 121.369 -3.40262 0.889629 0
M  V30 1355 H 121.243 -3.67754 -0.838875 0
M  V30 1356 H 123.63 -2.72798 -1.1254 0
M  V30 1357 H 123.711 -2.48053 0.62475 0
M  V30 1358 H 123.355 -4.98496 0.972824 0
M  V30 1359 H 123.285 -5.20586 -0.793556 0
M  V30 1360 H 125.776 -3.7753 -0.167244 0
M  V30 1361 H 126.089 -7.72279 0.283781 0
M  V30 1362 H 124.434 -6.94556 0.248267 0
M  V30 1363 H 127.625 -4.67938 -0.122958 0
M  V30 1364 H 127.798 -6.47948 0.0824844 0
M  V30 1365 N 121.204 0.198386 -1.56346 0
M  V30 1366 C 122.114 1.2664 -1.97483 0
M  V30 1367 C 123.13 1.49989 -0.882002 0
M  V30 1368 O 124.306 1.62668 -1.18748 0
M  V30 1369 C 121.371 2.59141 -2.30319 0
M  V30 1370 C 120.432 2.43892 -3.53292 0
M  V30 1371 C 119.665 3.70074 -3.84553 0
M  V30 1372 O 119.888 4.74101 -3.1715 0
M  V30 1373 O 118.822 3.658 -4.7799 0
M  V30 1374 H 122.648 0.947304 -2.88548 0
M  V30 1375 H 120.233 0.403123 -1.43859 0
M  V30 1376 H 122.115 3.37352 -2.5253 0
M  V30 1377 H 120.79 2.90684 -1.42423 0
M  V30 1378 H 119.697 1.63803 -3.36332 0
M  V30 1379 H 121.03 2.17282 -4.41644 0
M  V30 1380 N 122.682 1.50554 0.465978 0
M  V30 1381 C 123.629 1.6979 1.56333 0
M  V30 1382 C 124.599 0.539239 1.57103 0
M  V30 1383 O 125.784 0.770401 1.74555 0
M  V30 1384 C 122.924 1.80273 2.94271 0
M  V30 1385 C 122.037 3.07674 3.0325 0
M  V30 1386 C 121.172 3.08922 4.32135 0
M  V30 1387 C 120.211 4.30755 4.34875 0
M  V30 1388 N 119.348 4.29714 5.55239 0
M  V30 1389 H 124.188 2.63472 1.39235 0
M  V30 1390 H 121.725 1.30602 0.676873 0
M  V30 1391 H 123.683 1.84332 3.74269 0
M  V30 1392 H 122.313 0.900258 3.09992 0
M  V30 1393 H 121.365 3.13062 2.16094 0
M  V30 1394 H 122.677 3.97642 3.01135 0
M  V30 1395 H 121.831 3.11738 5.20485 0
M  V30 1396 H 120.57 2.16792 4.36866 0
M  V30 1397 H 119.575 4.28146 3.44922 0
M  V30 1398 H 120.8 5.24117 4.31831 0
M  V30 1399 H 118.746 3.4044 5.60746 0
M  V30 1400 H 118.663 5.13456 5.54886 0
M  V30 1401 H 119.931 4.36683 6.457 0
M  V30 1402 N 124.16 -0.719506 1.40217 0
M  V30 1403 C 125.385 -1.51371 1.4178 0
M  V30 1404 C 125.81 -1.88091 0.0182355 0
M  V30 1405 O 125.168 -1.52997 -0.972707 0
M  V30 1406 C 125.216 -2.768 2.31115 0
M  V30 1407 O 124.32 -3.73349 1.7517 0
M  V30 1408 H 123.661 -0.456529 0.482159 0
M  V30 1409 H 126.191 -0.88644 1.844 0
M  V30 1410 H 126.201 -3.25371 2.46167 0
M  V30 1411 H 124.876 -2.49407 3.3282 0
M  V30 1412 H 123.453 -3.32179 1.69444 0
M  V30 1413 N 125.638 -1.25649 -0.95132 0
M  V30 1414 C 126.548 -1.08073 -2.08224 0
M  V30 1415 C 127.564 -0.0169666 -1.73992 0
M  V30 1416 O 128.74 -0.218593 -2.0021 0
M  V30 1417 C 125.805 -0.704922 -3.39458 0
M  V30 1418 C 124.866 -1.84699 -3.87537 0
M  V30 1419 C 124.099 -1.48902 -5.12508 0
M  V30 1420 O 124.322 -0.386156 -5.69091 0
M  V30 1421 O 123.256 -2.32033 -5.55378 0
M  V30 1422 H 127.082 -2.02924 -2.25954 0
M  V30 1423 H 124.667 -1.04618 -1.06656 0
M  V30 1424 H 126.549 -0.507609 -4.18332 0
M  V30 1425 H 125.224 0.214291 -3.2299 0
M  V30 1426 H 124.131 -2.09919 -3.09653 0
M  V30 1427 H 125.464 -2.74557 -4.08509 0
M  V30 1428 N 127.117 1.15442 -1.07289 0
M  V30 1429 C 128.342 1.90638 -0.816828 0
M  V30 1430 C 128.767 1.77445 0.624083 0
M  V30 1431 O 128.125 1.10671 1.43602 0
M  V30 1432 C 128.173 3.39008 -1.22906 0
M  V30 1433 O 127.277 4.10701 -0.373975 0
M  V30 1434 H 126.618 0.593555 -0.297638 0
M  V30 1435 H 129.148 1.46198 -1.43134 0
M  V30 1436 H 129.158 3.89801 -1.20497 0
M  V30 1437 H 127.833 3.47929 -2.27856 0
M  V30 1438 H 126.41 3.70046 -0.460499 0
M  V30 1439 N 128.595 0.856903 1.32268 0
M  V30 1440 C 129.543 0.291987 2.3076 0
M  V30 1441 C 130.537 -0.585857 1.58947 0
M  V30 1442 O 131.743 -0.47341 1.73663 0
M  V30 1443 H 128.118 0.075721 0.748178 0
M  V30 1444 H 130.089 1.13687 2.75895 0
M  V30 1445 C 128.838 -0.502869 3.44044 0
M  V30 1446 H 128.161 0.163328 3.99466 0
M  V30 1447 H 129.601 -0.863691 4.1511 0
M  V30 1448 C 128.06 -1.68898 2.91505 0
M  V30 1449 O 128.59 -2.78811 2.89184 0
M  V30 1450 N 126.796 -1.51679 2.47875 0
M  V30 1451 H 126.343 -0.622666 2.49961 0
M  V30 1452 H 126.301 -2.31184 2.13076 0
M  V30 1453 N 130.073 -1.45103 0.615059 0
M  V30 1454 C 131.02 -2.30586 -0.0993978 0
M  V30 1455 C 131.99 -1.42544 -0.852669 0
M  V30 1456 O 133.175 -1.71465 -0.836917 0
M  V30 1457 C 130.315 -3.27572 -1.08583 0
M  V30 1458 C 129.428 -4.30717 -0.332656 0
M  V30 1459 C 128.563 -5.14807 -1.30947 0
M  V30 1460 C 127.602 -6.09673 -0.544538 0
M  V30 1461 N 126.739 -6.86517 -1.47101 0
M  V30 1462 H 131.579 -2.91144 0.635542 0
M  V30 1463 H 129.116 -1.4346 0.325206 0
M  V30 1464 H 131.074 -3.82276 -1.67095 0
M  V30 1465 H 129.704 -2.68751 -1.78809 0
M  V30 1466 H 128.756 -3.78615 0.368107 0
M  V30 1467 H 130.068 -4.98102 0.263842 0
M  V30 1468 H 129.222 -5.73948 -1.96643 0
M  V30 1469 H 127.961 -4.47458 -1.9399 0
M  V30 1470 H 126.966 -5.49656 0.126003 0
M  V30 1471 H 128.191 -6.79052 0.080947 0
M  V30 1472 H 126.137 -6.21851 -2.08895 0
M  V30 1473 H 126.054 -7.50281 -0.928137 0
M  V30 1474 H 127.322 -7.50194 -2.11731 0
M  V30 1475 N 131.551 -0.354651 -1.53558 0
M  V30 1476 C 132.967 -0.00315426 -1.596 0
M  V30 1477 C 133.167 1.47741 -1.37021 0
M  V30 1478 O 132.223 2.23759 -1.16996 0
M  V30 1479 C 133.536 -0.44929 -2.97325 0
M  V30 1480 C 135.084 -0.402578 -3.104 0
M  V30 1481 C 135.559 -0.824355 -4.5052 0
M  V30 1482 N 137.05 -0.778979 -4.56603 0
M  V30 1483 C 137.785 -1.07715 -5.63192 0
M  V30 1484 N 137.281 -1.44405 -6.77583 0
M  V30 1485 N 139.074 -1.00066 -5.53121 0
M  V30 1486 H 131.225 -1.31893 -1.66487 0
M  V30 1487 H 133.488 -0.538388 -0.780284 0
M  V30 1488 H 133.194 -1.48202 -3.1895 0
M  V30 1489 H 133.068 0.169772 -3.76818 0
M  V30 1490 H 135.455 0.621004 -2.88492 0
M  V30 1491 H 135.536 -1.05699 -2.32941 0
M  V30 1492 H 135.18 -1.846 -4.73165 0
M  V30 1493 H 135.11 -0.147304 -5.26394 0
M  V30 1494 H 137.601 -0.508528 -3.74463 0
M  V30 1495 H 137.914 -1.65612 -7.54846 0
M  V30 1496 H 136.259 -1.4826 -6.79002 0
M  V30 1497 H 139.45 -0.713293 -4.62633 0
M  V30 1498 H 139.623 -1.23638 -6.36096 0
M  V30 1499 N 133.029 1.57378 -0.0835403 0
M  V30 1500 C 133.976 2.13384 0.879539 0
M  V30 1501 C 134.946 1.04936 1.28754 0
M  V30 1502 O 136.131 1.32662 1.37133 0
M  V30 1503 C 133.271 2.70932 2.13752 0
M  V30 1504 C 132.384 3.93575 1.7811 0
M  V30 1505 C 131.519 4.39326 2.98607 0
M  V30 1506 C 130.558 5.54587 2.59037 0
M  V30 1507 N 129.695 5.95243 3.72331 0
M  V30 1508 H 134.535 2.9537 0.395076 0
M  V30 1509 H 132.072 1.45953 0.183349 0
M  V30 1510 H 134.03 3.02411 2.87408 0
M  V30 1511 H 132.66 1.91693 2.59718 0
M  V30 1512 H 131.712 3.68483 0.94469 0
M  V30 1513 H 133.024 4.77258 1.45005 0
M  V30 1514 H 132.178 4.72528 3.80529 0
M  V30 1515 H 130.917 3.5452 3.34913 0
M  V30 1516 H 129.922 5.21024 1.75539 0
M  V30 1517 H 131.147 6.41133 2.23887 0
M  V30 1518 H 129.093 5.13385 4.08378 0
M  V30 1519 H 129.01 6.73694 3.43034 0
M  V30 1520 H 130.278 6.33072 4.54797 0
M  V30 1521 N 134.507 -0.190092 1.56449 0
M  V30 1522 C 135.732 -0.929864 1.85387 0
M  V30 1523 C 136.157 -1.7585 0.667704 0
M  V30 1524 O 135.515 -1.77198 -0.383459 0
M  V30 1525 C 135.563 -1.79773 3.12593 0
M  V30 1526 O 134.667 -2.89713 2.93496 0
M  V30 1527 H 134.008 -0.261574 0.610307 0
M  V30 1528 H 136.538 -0.193896 2.03679 0
M  V30 1529 H 136.548 -2.20139 3.43515 0
M  V30 1530 H 135.223 -1.18892 3.98544 0
M  V30 1531 H 133.8 -2.53065 2.73884 0
M  V30 1532 N 135.985 -1.50799 -0.457987 0
M  V30 1533 C 136.933 -1.71162 -1.575 0
M  V30 1534 C 137.927 -0.577592 -1.59249 0
M  V30 1535 O 139.133 -0.758443 -1.63241 0
M  V30 1536 H 135.508 -0.540468 -0.522875 0
M  V30 1537 H 137.479 -2.64837 -1.37492 0
M  V30 1538 C 136.228 -1.83496 -2.95338 0
M  V30 1539 H 135.551 -2.70153 -2.94716 0
M  V30 1540 H 136.991 -2.01765 -3.72917 0
M  V30 1541 C 135.45 -0.589694 -3.31699 0
M  V30 1542 O 135.98 0.265163 -4.00824 0
M  V30 1543 N 134.186 -0.439845 -2.87252 0
M  V30 1544 H 133.733 -1.13655 -2.31172 0
M  V30 1545 H 133.691 0.392159 -3.11945 0
M  V30 1546 N 137.463 0.71206 -1.40597 0
M  V30 1547 C 138.71 1.47197 -1.39065 0
M  V30 1548 C 139.038 1.94499 0.00583891 0
M  V30 1549 O 138.293 1.68752 0.99102 0
M  V30 1550 C 138.592 2.71039 -2.32965 0
M  V30 1551 C 138.258 2.42484 -3.80148 0
M  V30 1552 C 136.92 2.34406 -4.20247 0
M  V30 1553 C 139.272 2.18598 -4.73143 0
M  V30 1554 C 136.6 2.00516 -5.51371 0
M  V30 1555 C 138.952 1.8622 -6.0457 0
M  V30 1556 C 137.616 1.76626 -6.43708 0
M  V30 1557 H 136.886 0.538634 -0.508876 0
M  V30 1558 H 139.533 0.815325 -1.73276 0
M  V30 1559 H 137.838 3.41558 -1.91951 0
M  V30 1560 H 139.535 3.29138 -2.29061 0
M  V30 1561 H 136.125 2.49659 -3.4838 0
M  V30 1562 H 140.309 2.23793 -4.42979 0
M  V30 1563 H 135.565 1.91628 -5.80593 0
M  V30 1564 H 139.739 1.66752 -6.76141 0
M  V30 1565 H 137.366 1.50133 -7.45228 0
M  V30 1566 N 138.941 1.26152 0.944643 0
M  V30 1567 C 140.166 1.14363 1.7302 0
M  V30 1568 C 140.591 -0.29772 1.85729 0
M  V30 1569 O 139.949 -1.2157 1.34501 0
M  V30 1570 C 139.997 1.81378 3.11664 0
M  V30 1571 O 139.101 1.10022 3.97453 0
M  V30 1572 H 138.442 0.398694 0.53098 0
M  V30 1573 H 140.972 1.66906 1.18337 0
M  V30 1574 H 140.982 1.88064 3.62072 0
M  V30 1575 H 139.657 2.86237 3.0173 0
M  V30 1576 H 138.234 1.11287 3.55907 0
M  V30 1577 N 140.419 -1.14872 1.07899 0
M  V30 1578 C 141.367 -2.21857 0.698727 0
M  V30 1579 C 142.361 -1.66845 -0.293086 0
M  V30 1580 O 143.567 -1.79321 -0.156204 0
M  V30 1581 H 139.942 -0.722691 0.207899 0
M  V30 1582 H 141.913 -2.51205 1.61054 0
M  V30 1583 C 140.662 -3.47498 0.11858 0
M  V30 1584 H 139.985 -3.90154 0.872914 0
M  V30 1585 H 141.425 -4.23858 -0.109759 0
M  V30 1586 C 139.884 -3.16947 -1.1422 0
M  V30 1587 O 140.414 -3.3426 -2.22785 0
M  V30 1588 N 138.62 -2.70946 -1.05055 0
M  V30 1589 H 138.167 -2.57058 -0.167038 0
M  V30 1590 H 138.125 -2.50879 -1.89491 0
M  V30 1591 N 141.898 -0.863906 -1.31812 0
M  V30 1592 C 143.123 -0.48527 -2.01643 0
M  V30 1593 C 143.548 0.913058 -1.64453 0
M  V30 1594 O 142.906 1.6014 -0.849985 0
M  V30 1595 C 142.954 -0.642625 -3.54828 0
M  V30 1596 O 142.058 0.320659 -4.11151 0
M  V30 1597 H 141.399 -0.193793 -0.635091 0
M  V30 1598 H 143.929 -1.16565 -1.68148 0
M  V30 1599 H 143.939 -0.533628 -4.04495 0
M  V30 1600 H 142.614 -1.66227 -3.81237 0
M  V30 1601 H 141.191 0.167126 -3.72525 0
M  V30 1602 N 143.376 1.44774 -0.622745 0
M  V30 1603 C 144.339 2.29069 0.0774015 0
M  V30 1604 C 145.339 1.4059 0.780461 0
M  V30 1605 O 146.529 1.62551 0.626322 0
M  V30 1606 C 143.661 3.21974 1.12006 0
M  V30 1607 H 144.854 2.92459 -0.663901 0
M  V30 1608 H 142.407 1.51548 -0.382486 0
M  V30 1609 H 143.142 2.63417 1.89162 0
M  V30 1610 H 142.927 3.87168 0.619951 0
M  V30 1611 H 144.417 3.85318 1.60995 0
M  V30 1612 N 144.854 0.36279 1.53368 0
M  V30 1613 C 146.131 -0.284021 1.93527 0
M  V30 1614 C 146.511 -1.66628 1.29608 0
M  V30 1615 O 145.859 -2.23942 0.45413 0
M  V30 1616 C 146.069 -0.337028 3.47369 0
M  V30 1617 C 147.417 -0.578708 4.20638 0
M  V30 1618 O 148.441 -0.418352 3.53735 0
M  V30 1619 O 147.3 -0.89074 5.39192 0
M  V30 1620 H 144.394 -0.169743 0.809393 0
M  V30 1621 H 146.94 0.41537 1.64538 0
M  V30 1622 H 145.712 0.632217 3.86159 0
M  V30 1623 H 145.335 -1.08243 3.82582 0
M  V30 1624 N 146.332 -1.57332 0.0918853 0
M  V30 1625 C 147.609 -1.85691 -0.614668 0
M  V30 1626 C 147.989 -0.988146 -1.86545 0
M  V30 1627 O 147.337 -0.0597055 -2.28422 0
M  V30 1628 C 147.547 -3.36294 -0.933126 0
M  V30 1629 C 148.895 -4.04275 -1.29796 0
M  V30 1630 O 149.919 -3.41157 -1.02424 0
M  V30 1631 O 148.778 -5.1564 -1.81047 0
M  V30 1632 H 145.872 -0.767802 -0.307261 0
M  V30 1633 H 148.418 -1.69244 0.12434 0
M  V30 1634 H 147.19 -3.91273 -0.0456404 0
M  V30 1635 H 146.813 -3.58076 -1.72822 0
M  V30 1636 N 147.81 0.181792 -1.56548 0
M  V30 1637 C 149.059 0.898348 -1.8059 0
M  V30 1638 C 149.372 1.83862 -0.667379 0
M  V30 1639 O 150.578 2.59678 -0.792446 0
M  V30 1640 C 149.034 1.64791 -3.19956 0
M  V30 1641 C 148.642 0.751789 -4.41647 0
M  V30 1642 C 150.386 2.35331 -3.53298 0
M  V30 1643 C 148.293 1.50098 -5.72035 0
M  V30 1644 H 147.223 0.339194 -0.673397 0
M  V30 1645 H 149.874 0.151413 -1.82874 0
M  V30 1646 H 148.256 2.43921 -3.11959 0
M  V30 1647 H 149.43 -0.0018076 -4.608 0
M  V30 1648 H 147.745 0.156562 -4.16106 0
M  V30 1649 H 150.342 2.91958 -4.47956 0
M  V30 1650 H 150.685 3.10164 -2.77676 0
M  V30 1651 H 151.218 1.63154 -3.62803 0
M  V30 1652 H 147.957 0.795175 -6.50659 0
M  V30 1653 H 147.477 2.22817 -5.56878 0
M  V30 1654 H 149.156 2.05125 -6.13622 0
M  V30 1655 N 149.288 1.51039 0.449983 0
M  V30 1656 C 150.235 1.71439 1.54523 0
M  V30 1657 C 151.205 0.555871 1.56522 0
M  V30 1658 O 152.39 0.788871 1.73728 0
M  V30 1659 C 149.53 1.83384 2.92343 0
M  V30 1660 C 148.643 3.10873 2.9997 0
M  V30 1661 C 147.778 3.13488 4.28834 0
M  V30 1662 C 146.817 4.35343 4.30282 0
M  V30 1663 N 145.954 4.35579 5.5065 0
M  V30 1664 H 150.794 2.64934 1.36433 0
M  V30 1665 H 148.331 1.31312 0.662982 0
M  V30 1666 H 150.289 1.88291 3.72293 0
M  V30 1667 H 148.919 0.933086 3.0902 0
M  V30 1668 H 147.971 3.15336 2.12761 0
M  V30 1669 H 149.283 4.00814 2.96901 0
M  V30 1670 H 148.437 3.17241 5.17149 0
M  V30 1671 H 147.176 2.21414 4.34543 0
M  V30 1672 H 146.181 4.3178 3.40362 0
M  V30 1673 H 147.406 5.28668 4.26248 0
M  V30 1674 H 145.352 3.46369 5.57104 0
M  V30 1675 H 145.269 5.19313 5.49409 0
M  V30 1676 H 146.537 4.43507 6.41032 0
M  V30 1677 N 150.766 -0.704594 1.40972 0
M  V30 1678 C 151.991 -1.49858 1.43378 0
M  V30 1679 C 152.416 -1.88061 0.038184 0
M  V30 1680 O 151.774 -1.5402 -0.956425 0
M  V30 1681 C 151.822 -2.74333 2.34038 0
M  V30 1682 O 150.926 -3.7147 1.7912 0
M  V30 1683 H 150.267 -0.45139 0.486974 0
M  V30 1684 H 152.797 -0.866832 1.8533 0
M  V30 1685 H 152.807 -3.22741 2.49604 0
M  V30 1686 H 151.482 -2.45863 3.35446 0
M  V30 1687 H 150.059 -3.30363 1.72958 0
M  V30 1688 N 152.244 -1.26651 -0.937939 0
M  V30 1689 C 153.191 -1.0849 -2.03712 0
M  V30 1690 C 154.161 0.011033 -1.66096 0
M  V30 1691 O 155.346 -0.149353 -1.90215 0
M  V30 1692 C 152.486 -0.72735 -3.37348 0
M  V30 1693 C 151.599 -1.89986 -3.87981 0
M  V30 1694 C 150.734 -1.48513 -5.10017 0
M  V30 1695 C 149.773 -2.62575 -5.5292 0
M  V30 1696 N 148.91 -2.21762 -6.66158 0
M  V30 1697 H 153.75 -2.02551 -2.18579 0
M  V30 1698 H 151.287 -1.00844 -1.07093 0
M  V30 1699 H 153.245 -0.50092 -4.14182 0
M  V30 1700 H 151.875 0.176298 -3.22318 0
M  V30 1701 H 150.927 -2.23913 -3.07518 0
M  V30 1702 H 152.239 -2.75586 -4.15757 0
M  V30 1703 H 151.393 -1.21934 -5.94321 0
M  V30 1704 H 150.132 -0.60009 -4.83994 0
M  V30 1705 H 149.137 -2.8988 -4.67172 0
M  V30 1706 H 150.362 -3.51685 -5.80943 0
M  V30 1707 H 148.308 -1.35696 -6.41812 0
M  V30 1708 H 148.225 -3.00903 -6.93537 0
M  V30 1709 H 149.493 -1.98403 -7.53828 0
M  V30 1710 N 153.722 1.14298 -1.08507 0
M  V30 1711 C 154.669 2.19414 -0.715965 0
M  V30 1712 C 155.639 1.63399 0.298326 0
M  V30 1713 O 156.824 1.89929 0.182101 0
M  V30 1714 C 153.964 3.44845 -0.132534 0
M  V30 1715 C 153.077 4.15007 -1.19973 0
M  V30 1716 C 152.212 5.28024 -0.580048 0
M  V30 1717 C 151.251 5.9002 -1.62921 0
M  V30 1718 N 150.388 6.94485 -1.03125 0
M  V30 1719 H 155.228 2.50336 -1.61666 0
M  V30 1720 H 152.765 1.2293 -0.807882 0
M  V30 1721 H 154.723 4.16601 0.223454 0
M  V30 1722 H 153.353 3.14403 0.731467 0
M  V30 1723 H 152.405 3.41629 -1.67313 0
M  V30 1724 H 153.717 4.57178 -1.99473 0
M  V30 1725 H 152.871 6.06455 -0.172364 0
M  V30 1726 H 151.61 4.87076 0.246603 0
M  V30 1727 H 150.615 5.10291 -2.04654 0
M  V30 1728 H 151.84 6.33042 -2.45835 0
M  V30 1729 H 149.786 6.55612 -0.225711 0
M  V30 1730 H 149.703 7.35148 -1.76334 0
M  V30 1731 H 150.971 7.7679 -0.649458 0
M  V30 1732 N 155.201 0.870884 1.31352 0
M  V30 1733 C 156.148 0.325425 2.28494 0
M  V30 1734 C 157.118 -0.576615 1.5577 0
M  V30 1735 O 158.303 -0.508059 1.83911 0
M  V30 1736 C 155.443 -0.466283 3.41935 0
M  V30 1737 C 154.556 0.463378 4.29508 0
M  V30 1738 C 153.691 -0.342544 5.30094 0
M  V30 1739 C 152.73 0.583486 6.09313 0
M  V30 1740 N 151.867 -0.186244 7.01853 0
M  V30 1741 H 156.707 1.15901 2.74538 0
M  V30 1742 H 154.244 0.58294 1.35056 0
M  V30 1743 H 156.202 -0.941085 4.06447 0
M  V30 1744 H 154.832 -1.26456 2.97 0
M  V30 1745 H 153.884 1.05663 3.65431 0
M  V30 1746 H 155.196 1.1734 4.84802 0
M  V30 1747 H 154.35 -0.879816 6.00287 0
M  V30 1748 H 153.089 -1.08585 4.75458 0
M  V30 1749 H 152.094 1.13251 5.3801 0
M  V30 1750 H 153.319 1.32566 6.66035 0
M  V30 1751 H 151.265 -0.912348 6.49625 0
M  V30 1752 H 151.182 0.464422 7.54572 0
M  V30 1753 H 152.45 -0.704716 7.76308 0
M  V30 1754 N 156.679 -1.44442 0.630414 0
M  V30 1755 C 158.095 -1.56832 0.295973 0
M  V30 1756 C 158.295 -1.61806 -1.20088 0
M  V30 1757 O 157.351 -1.5607 -1.9849 0
M  V30 1758 C 158.664 -2.84031 0.987264 0
M  V30 1759 C 160.212 -2.97742 0.96534 0
M  V30 1760 C 160.687 -4.27743 1.63708 0
M  V30 1761 N 162.178 -4.34555 1.60364 0
M  V30 1762 C 162.913 -5.33862 2.09234 0
M  V30 1763 N 162.409 -6.39578 2.66292 0
M  V30 1764 N 164.202 -5.25366 1.99867 0
M  V30 1765 H 156.353 -1.39457 1.60205 0
M  V30 1766 H 158.616 -0.668237 0.672431 0
M  V30 1767 H 158.322 -2.86338 2.04215 0
M  V30 1768 H 158.196 -3.73534 0.524588 0
M  V30 1769 H 160.583 -2.94989 -0.0810639 0
M  V30 1770 H 160.664 -2.09589 1.4665 0
M  V30 1771 H 160.308 -4.31255 2.68293 0
M  V30 1772 H 160.238 -5.14752 1.11076 0
M  V30 1773 H 162.729 -3.58772 1.18705 0
M  V30 1774 H 163.042 -7.11637 3.01317 0
M  V30 1775 H 161.387 -6.40265 2.70343 0
M  V30 1776 H 164.578 -4.41688 1.55013 0
M  V30 1777 H 164.751 -6.02606 2.38265 0
M  V30 1778 N 158.157 -0.370918 -1.53173 0
M  V30 1779 C 159.067 0.480823 -2.2962 0
M  V30 1780 C 160.083 1.08789 -1.35798 0
M  V30 1781 O 161.259 1.09768 -1.68858 0
M  V30 1782 C 158.324 1.60227 -3.07454 0
M  V30 1783 C 157.385 1.0222 -4.16953 0
M  V30 1784 C 156.618 2.0902 -4.91066 0
M  V30 1785 O 156.841 3.30222 -4.65091 0
M  V30 1786 O 155.775 1.71778 -5.76867 0
M  V30 1787 H 159.601 -0.141421 -3.03371 0
M  V30 1788 H 157.186 -0.135146 -1.48787 0
M  V30 1789 H 159.068 2.25417 -3.56041 0
M  V30 1790 H 157.743 2.20982 -2.36535 0
M  V30 1791 H 156.65 0.334064 -3.72605 0
M  V30 1792 H 157.983 0.459131 -4.90054 0
M  V30 1793 N 159.635 1.57281 -0.100228 0
M  V30 1794 C 160.567 2.11342 0.886972 0
M  V30 1795 C 161.58 1.05182 1.24261 0
M  V30 1796 O 162.769 1.32613 1.19483 0
M  V30 1797 C 159.869 2.5825 2.19454 0
M  V30 1798 C 159.042 3.88302 2.01346 0
M  V30 1799 C 158.101 4.21004 3.15661 0
M  V30 1800 O 157.127 4.9014 2.89398 0
M  V30 1801 N 158.329 3.76818 4.41575 0
M  V30 1802 H 161.094 2.96668 0.425216 0
M  V30 1803 H 158.655 1.61678 0.0847334 0
M  V30 1804 H 160.647 2.7717 2.94888 0
M  V30 1805 H 159.217 1.77907 2.57037 0
M  V30 1806 H 158.437 3.7848 1.10212 0
M  V30 1807 H 159.725 4.73375 1.8653 0
M  V30 1808 H 159.123 3.2102 4.65792 0
M  V30 1809 H 157.68 4.00882 5.13942 0
M  V30 1810 N 161.113 -0.173488 1.56642 0
M  V30 1811 C 162.338 -0.910149 1.86363 0
M  V30 1812 C 162.763 -1.75132 0.686318 0
M  V30 1813 O 162.121 -1.77595 -0.364643 0
M  V30 1814 C 162.169 -1.76447 3.14482 0
M  V30 1815 O 161.273 -2.86584 2.96553 0
M  V30 1816 H 160.614 -0.255086 0.613047 0
M  V30 1817 H 163.144 -0.172283 2.03873 0
M  V30 1818 H 163.154 -2.16483 3.45831 0
M  V30 1819 H 161.829 -1.14658 3.99783 0
M  V30 1820 H 160.406 -2.50146 2.76553 0
M  V30 1821 N 162.591 -1.51276 -0.441967 0
M  V30 1822 C 163.539 -1.72823 -1.55676 0
M  V30 1823 C 164.533 -0.59445 -1.58627 0
M  V30 1824 O 165.739 -0.775715 -1.62427 0
M  V30 1825 H 162.114 -0.545983 -0.517113 0
M  V30 1826 H 164.085 -2.6628 -1.34675 0
M  V30 1827 C 162.834 -1.86619 -2.93375 0
M  V30 1828 H 162.157 -2.73264 -2.91834 0
M  V30 1829 H 163.597 -2.05709 -3.70756 0
M  V30 1830 C 162.056 -0.624842 -3.31055 0
M  V30 1831 O 162.586 0.222636 -4.01083 0
M  V30 1832 N 160.792 -0.470288 -2.86769 0
M  V30 1833 H 160.339 -1.161 -2.29953 0
M  V30 1834 H 160.297 0.359051 -3.12343 0
M  V30 1835 N 164.069 0.697108 -1.41344 0
M  V30 1836 C 165.346 1.45154 -1.31109 0
M  V30 1837 C 165.726 2.11009 0.0620449 0
M  V30 1838 O 165.074 2.01571 1.07618 0
M  V30 1839 C 165.284 2.47223 -2.46337 0
M  V30 1840 C 166.632 3.1252 -2.87431 0
M  V30 1841 O 167.656 2.57547 -2.46065 0
M  V30 1842 O 166.515 4.12083 -3.58957 0
M  V30 1843 H 163.609 0.646365 -0.515889 0
M  V30 1844 H 166.155 0.727716 -1.53305 0
M  V30 1845 H 164.927 1.97204 -3.37974 0
M  V30 1846 H 164.55 3.27116 -2.2601 0
M  V30 1847 N 165.547 1.27147 0.931209 0
M  V30 1848 C 166.796 1.12664 1.67302 0
M  V30 1849 C 167.109 -0.327718 1.92835 0
M  V30 1850 O 168.315 -0.593392 2.64936 0
M  V30 1851 C 166.771 1.9683 3.01307 0
M  V30 1852 C 166.379 3.46901 2.83485 0
M  V30 1853 C 168.123 1.90985 3.79111 0
M  V30 1854 C 166.03 4.23279 4.13024 0
M  V30 1855 H 164.96 0.41803 0.627509 0
M  V30 1856 H 167.611 1.51539 1.03481 0
M  V30 1857 H 165.993 1.50797 3.66164 0
M  V30 1858 H 167.167 4.00773 2.27415 0
M  V30 1859 H 165.482 3.54088 2.19113 0
M  V30 1860 H 168.079 2.45328 4.75098 0
M  V30 1861 H 168.422 0.882718 4.06834 0
M  V30 1862 H 168.955 2.34895 3.21044 0
M  V30 1863 H 165.694 5.26503 3.90481 0
M  V30 1864 H 165.214 3.74186 4.6877 0
M  V30 1865 H 166.893 4.32265 4.81411 0
M  V30 1866 N 167.025 -1.13721 1.09112 0
M  V30 1867 C 167.988 -2.17222 0.731241 0
M  V30 1868 C 168.988 -1.59035 -0.237566 0
M  V30 1869 O 170.178 -1.74192 -0.0161704 0
M  V30 1870 C 167.31 -3.40804 0.0808443 0
M  V30 1871 H 168.503 -2.50573 1.64783 0
M  V30 1872 H 166.056 -1.28493 0.889897 0
M  V30 1873 H 166.791 -3.1304 -0.847127 0
M  V30 1874 H 166.576 -3.84306 0.777896 0
M  V30 1875 H 168.066 -4.1731 -0.155657 0
M  V30 1876 N 168.503 -0.877838 -1.30888 0
M  V30 1877 C 169.919 -0.570844 -1.49042 0
M  V30 1878 C 170.119 0.893159 -1.80624 0
M  V30 1879 O 169.175 1.67485 -1.88958 0
M  V30 1880 C 170.488 -1.47784 -2.61878 0
M  V30 1881 C 172.036 -1.48071 -2.75761 0
M  V30 1882 C 172.511 -2.37347 -3.91702 0
M  V30 1883 N 174.002 -2.35271 -3.99001 0
M  V30 1884 C 174.737 -3.01063 -4.88004 0
M  V30 1885 N 174.233 -3.76055 -5.81854 0
M  V30 1886 N 176.026 -2.90332 -4.81315 0
M  V30 1887 H 168.177 -1.82502 -1.0866 0
M  V30 1888 H 170.44 -0.780797 -0.537644 0
M  V30 1889 H 170.146 -2.51993 -2.45341 0
M  V30 1890 H 170.02 -1.18215 -3.58197 0
M  V30 1891 H 172.407 -0.446166 -2.91708 0
M  V30 1892 H 172.488 -1.81668 -1.80085 0
M  V30 1893 H 172.132 -3.40883 -3.76512 0
M  V30 1894 H 172.062 -2.01071 -4.86701 0
M  V30 1895 H 174.553 -1.80768 -3.3186 0
M  V30 1896 H 174.866 -4.23366 -6.46514 0
M  V30 1897 H 173.211 -3.80163 -5.81808 0
M  V30 1898 H 176.402 -2.31278 -4.06974 0
M  V30 1899 H 176.575 -3.41885 -5.50471 0
M  V30 1900 N 169.982 1.44106 -0.638065 0
M  V30 1901 C 171.23 2.01579 -0.145043 0
M  V30 1902 C 171.551 1.50496 1.24 0
M  V30 1903 O 170.821 0.711374 1.82527 0
M  V30 1904 H 169.401 0.745282 -0.05063 0
M  V30 1905 H 172.063 1.76516 -0.826327 0
M  V30 1906 H 171.159 3.11877 -0.118039 0
M  V30 1907 N 171.46 0.379036 1.52974 0
M  V30 1908 C 172.707 -0.206421 2.01445 0
M  V30 1909 C 173.035 -1.47668 1.26587 0
M  V30 1910 O 172.29 -1.92514 0.351675 0
M  V30 1911 C 172.589 -0.53096 3.53434 0
M  V30 1912 C 172.255 0.646546 4.46241 0
M  V30 1913 C 170.917 0.969604 4.7133 0
M  V30 1914 C 173.269 1.43479 5.01062 0
M  V30 1915 C 170.597 2.08263 5.48492 0
M  V30 1916 C 172.949 2.53834 5.7944 0
M  V30 1917 C 171.613 2.86659 6.02812 0
M  V30 1918 H 170.883 -0.0755349 0.73714 0
M  V30 1919 H 173.53 0.514271 1.84465 0
M  V30 1920 H 171.835 -1.33285 3.68432 0
M  V30 1921 H 173.532 -0.996417 3.88423 0
M  V30 1922 H 170.122 0.384734 4.2687 0
M  V30 1923 H 174.306 1.19844 4.81613 0
M  V30 1924 H 169.562 2.34078 5.64816 0
M  V30 1925 H 173.736 3.15319 6.20924 0
M  V30 1926 H 171.363 3.73026 6.62387 0
M  V30 1927 N 172.938 -1.57226 0.108567 0
M  V30 1928 C 173.848 -2.18292 -0.859401 0
M  V30 1929 C 174.864 -1.15612 -1.30038 0
M  V30 1930 O 176.04 -1.48039 -1.36552 0
M  V30 1931 C 173.105 -2.762 -2.09558 0
M  V30 1932 C 172.166 -3.93881 -1.70752 0
M  V30 1933 C 171.399 -4.49018 -2.88477 0
M  V30 1934 O 171.622 -4.03068 -4.036 0
M  V30 1935 O 170.556 -5.39852 -2.66164 0
M  V30 1936 H 174.382 -3.01441 -0.369769 0
M  V30 1937 H 171.967 -1.48945 -0.1165 0
M  V30 1938 H 173.849 -3.13156 -2.81978 0
M  V30 1939 H 172.524 -1.96089 -2.57548 0
M  V30 1940 H 171.431 -3.61713 -0.954714 0
M  V30 1941 H 172.764 -4.75396 -1.27513 0
M  V30 1942 N 174.416 0.165178 -1.56732 0
M  V30 1943 C 175.832 0.517174 -1.50988 0
M  V30 1944 C 176.032 1.84331 -0.813894 0
M  V30 1945 O 175.088 2.49672 -0.37682 0
M  V30 1946 C 176.401 0.544261 -2.95733 0
M  V30 1947 C 177.949 0.631039 -3.06573 0
M  V30 1948 C 178.424 0.68896 -4.52788 0
M  V30 1949 N 179.915 0.751683 -4.5706 0
M  V30 1950 C 180.65 0.817177 -5.67547 0
M  V30 1951 N 180.146 0.843129 -6.8765 0
M  V30 1952 N 181.939 0.856668 -5.55534 0
M  V30 1953 H 174.09 -0.704318 -2.00382 0
M  V30 1954 H 176.353 -0.254687 -0.913148 0
M  V30 1955 H 176.059 -0.361607 -3.49836 0
M  V30 1956 H 175.933 1.3886 -3.5071 0
M  V30 1957 H 178.32 1.52733 -2.52501 0
M  V30 1958 H 178.401 -0.240095 -2.54671 0
M  V30 1959 H 178.045 -0.2031 -5.07494 0
M  V30 1960 H 177.975 1.57633 -5.02454 0
M  V30 1961 H 180.466 0.739661 -3.70591 0
M  V30 1962 H 180.779 0.894448 -7.67606 0
M  V30 1963 H 179.124 0.811304 -6.90248 0
M  V30 1964 H 182.315 0.833437 -4.60621 0
M  V30 1965 H 182.488 0.904247 -6.4166 0
M  V30 1966 N 175.894 1.51508 0.433938 0
M  V30 1967 C 177.142 1.6402 1.18075 0
M  V30 1968 C 177.463 0.360328 1.91642 0
M  V30 1969 O 176.733 -0.623945 1.85698 0
M  V30 1970 H 175.313 0.6045 0.43885 0
M  V30 1971 H 177.975 1.88452 0.497178 0
M  V30 1972 H 177.071 2.46949 1.90847 0
M  V30 1973 N 177.372 -0.689602 1.41712 0
M  V30 1974 C 178.302 -1.81577 1.46806 0
M  V30 1975 C 179.283 -1.66945 0.326105 0
M  V30 1976 O 180.468 -1.86588 0.538377 0
M  V30 1977 C 177.598 -3.19762 1.35535 0
M  V30 1978 C 176.552 -3.49107 2.47605 0
M  V30 1979 C 175.878 -4.86711 2.21397 0
M  V30 1980 C 177.178 -3.47483 3.89939 0
M  V30 1981 H 178.872 -1.7757 2.41058 0
M  V30 1982 H 176.418 -0.852887 1.16025 0
M  V30 1983 H 178.371 -3.98263 1.3771 0
M  V30 1984 H 177.095 -3.24409 0.377708 0
M  V30 1985 H 175.754 -2.72959 2.44722 0
M  V30 1986 H 175.402 -4.8799 1.21961 0
M  V30 1987 H 175.102 -5.0731 2.96497 0
M  V30 1988 H 176.626 -5.67515 2.25297 0
M  V30 1989 H 178.04 -4.1598 3.94505 0
M  V30 1990 H 176.437 -3.79615 4.64771 0
M  V30 1991 H 177.507 -2.46341 4.17665 0
M  V30 1992 N 178.85 -1.27639 -0.924453 0
M  V30 1993 C 179.76 -1.12466 -2.05885 0
M  V30 1994 C 180.776 -0.053869 -1.73917 0
M  V30 1995 O 181.952 -0.261012 -1.99702 0
M  V30 1996 C 179.017 -0.776768 -3.37886 0
M  V30 1997 C 178.078 -1.92878 -3.83532 0
M  V30 1998 C 177.311 -1.59739 -5.09234 0
M  V30 1999 O 177.534 -0.506782 -5.68144 0
M  V30 2000 O 176.468 -2.43761 -5.50331 0
M  V30 2001 H 180.294 -2.07671 -2.21599 0
M  V30 2002 H 177.879 -1.06857 -1.04413 0
M  V30 2003 H 179.761 -0.596229 -4.17161 0
M  V30 2004 H 178.436 0.145732 -3.23372 0
M  V30 2005 H 177.343 -2.1644 -3.0513 0
M  V30 2006 H 178.676 -2.8316 -4.02593 0
M  V30 2007 N 180.328 1.1314 -1.09713 0
M  V30 2008 C 181.739 1.66029 -0.853885 0
M  V30 2009 C 182.09 1.86241 0.617142 0
M  V30 2010 O 181.215 1.5834 1.47503 0
M  V30 2011 C 181.81 3.01599 -1.5435 0
M  V30 2012 C 180.369 3.51467 -1.34714 0
M  V30 2013 C 179.516 2.26648 -1.59769 0
M  V30 2014 H 182.467 0.970226 -1.25588 0
M  V30 2015 H 182.488 3.67709 -0.978267 0
M  V30 2016 H 182 2.86856 -2.6141 0
M  V30 2017 H 180.101 3.71408 -0.297838 0
M  V30 2018 H 180.214 4.314 -2.08401 0
M  V30 2019 H 178.578 2.33385 -1.01998 0
M  V30 2020 H 179.361 2.14467 -2.68065 0
M  V30 2021 N 181.806 0.884767 1.30421 0
M  V30 2022 C 182.716 0.355398 2.31892 0
M  V30 2023 C 183.732 -0.542261 1.65335 0
M  V30 2024 O 184.908 -0.435432 1.96637 0
M  V30 2025 C 181.973 -0.421661 3.44126 0
M  V30 2026 C 181.034 0.505727 4.26311 0
M  V30 2027 C 180.267 -0.234343 5.33185 0
M  V30 2028 O 180.49 -1.46045 5.51386 0
M  V30 2029 O 179.424 0.415443 6.00465 0
M  V30 2030 H 183.25 1.19685 2.79122 0
M  V30 2031 H 180.835 0.648596 1.34587 0
M  V30 2032 H 182.717 -0.861641 4.12497 0
M  V30 2033 H 181.392 -1.23942 2.99032 0
M  V30 2034 H 180.299 0.994513 3.60639 0
M  V30 2035 H 181.632 1.28948 4.75009 0
M  V30 2036 N 183.284 -1.43765 0.645699 0
M  V30 2037 C 184.231 -2.30745 -0.0504648 0
M  V30 2038 C 185.201 -1.4432 -0.822241 0
M  V30 2039 O 186.386 -1.73202 -0.800358 0
M  V30 2040 C 183.526 -3.29802 -1.0161 0
M  V30 2041 C 182.639 -4.31326 -0.241219 0
M  V30 2042 C 181.774 -5.17469 -1.19998 0
M  V30 2043 C 180.813 -6.10691 -0.415094 0
M  V30 2044 N 179.95 -6.89483 -1.32506 0
M  V30 2045 H 184.79 -2.8973 0.697155 0
M  V30 2046 H 182.327 -1.42738 0.355563 0
M  V30 2047 H 184.285 -3.85734 -1.58949 0
M  V30 2048 H 182.915 -2.72483 -1.73069 0
M  V30 2049 H 181.967 -3.77749 0.448334 0
M  V30 2050 H 183.279 -4.9743 0.369437 0
M  V30 2051 H 182.433 -5.7799 -1.84424 0
M  V30 2052 H 181.172 -4.51473 -1.84455 0
M  V30 2053 H 180.177 -5.49265 0.242565 0
M  V30 2054 H 181.402 -6.78727 0.224966 0
M  V30 2055 H 179.348 -6.26142 -1.95657 0
M  V30 2056 H 179.265 -7.52081 -0.768783 0
M  V30 2057 H 180.533 -7.54516 -1.9577 0
M  V30 2058 N 184.763 -0.387143 -1.52771 0
M  V30 2059 C 186.012 0.19697 -2.00736 0
M  V30 2060 C 186.325 1.48082 -1.27793 0
M  V30 2061 O 187.531 2.14485 -1.66458 0
M  V30 2062 C 185.987 0.401568 -3.57653 0
M  V30 2063 C 185.595 -0.868907 -4.39493 0
M  V30 2064 C 187.339 0.942164 -4.13912 0
M  V30 2065 C 185.246 -0.632705 -5.88006 0
M  V30 2066 H 184.176 0.0773827 -0.750019 0
M  V30 2067 H 186.827 -0.50921 -1.76293 0
M  V30 2068 H 185.209 1.16954 -3.78335 0
M  V30 2069 H 186.383 -1.64133 -4.30577 0
M  V30 2070 H 184.698 -1.33429 -3.94443 0
M  V30 2071 H 187.295 1.13455 -5.22525 0
M  V30 2072 H 187.638 1.9106 -3.69867 0
M  V30 2073 H 188.171 0.233814 -3.97112 0
M  V30 2074 H 184.91 -1.57208 -6.36369 0
M  V30 2075 H 184.43 0.100825 -5.99715 0
M  V30 2076 H 186.109 -0.26642 -6.46451 0
M  V30 2077 N 186.241 1.57166 -0.116904 0
M  V30 2078 C 187.49 1.94298 0.541407 0
M  V30 2079 C 187.803 1.00236 1.67964 0
M  V30 2080 O 189.009 1.26826 2.40057 0
M  V30 2081 C 187.465 3.45306 1.01449 0
M  V30 2082 C 187.073 4.47899 -0.0951738 0
M  V30 2083 C 188.817 3.91361 1.6443 0
M  V30 2084 C 186.724 5.90083 0.394491 0
M  V30 2085 H 185.654 0.725308 0.206019 0
M  V30 2086 H 188.305 1.82446 -0.196419 0
M  V30 2087 H 186.687 3.52385 1.80667 0
M  V30 2088 H 187.861 4.52486 -0.871374 0
M  V30 2089 H 186.176 4.11583 -0.631505 0
M  V30 2090 H 188.773 4.95004 2.02176 0
M  V30 2091 H 189.116 3.3122 2.52189 0
M  V30 2092 H 189.649 3.87073 0.917559 0
M  V30 2093 H 186.388 6.53974 -0.447004 0
M  V30 2094 H 185.908 5.88921 1.13722 0
M  V30 2095 H 187.587 6.41307 0.856399 0
M  V30 2096 N 187.719 -0.156864 1.56817 0
M  V30 2097 C 188.967 -0.869404 1.82444 0
M  V30 2098 C 189.288 -1.82147 0.69623 0
M  V30 2099 O 188.558 -1.93847 -0.28287 0
M  V30 2100 H 187.138 -0.324043 0.673056 0
M  V30 2101 H 189.8 -0.153224 1.94297 0
M  V30 2102 H 188.896 -1.43761 2.77019 0
M  V30 2103 N 189.197 -1.51736 -0.425897 0
M  V30 2104 C 190.16 -1.73271 -1.50032 0
M  V30 2105 C 191.16 -0.602639 -1.4908 0
M  V30 2106 O 192.35 -0.87033 -1.509 0
M  V30 2107 C 189.482 -1.79969 -2.89523 0
M  V30 2108 H 190.675 -2.69172 -1.32237 0
M  V30 2109 H 188.228 -1.41899 -0.65532 0
M  V30 2110 H 188.963 -0.859241 -3.1271 0
M  V30 2111 H 188.748 -2.62109 -2.91619 0
M  V30 2112 H 190.238 -1.9843 -3.67444 0
M  V30 2113 N 190.675 0.682077 -1.42076 0
M  V30 2114 C 191.903 1.47057 -1.4554 0
M  V30 2115 C 192.318 1.8869 -0.0645779 0
M  V30 2116 O 191.675 1.57666 0.919115 0
M  V30 2117 C 191.726 2.72442 -2.37609 0
M  V30 2118 O 191.447 2.32559 -3.71279 0
M  V30 2119 C 192.948 3.66069 -2.50017 0
M  V30 2120 H 190.168 0.452737 -0.495248 0
M  V30 2121 H 192.712 0.838695 -1.8651 0
M  V30 2122 H 190.867 3.31835 -1.9991 0
M  V30 2123 H 191.281 3.13475 -4.20516 0
M  V30 2124 H 192.755 4.50792 -3.18576 0
M  V30 2125 H 193.232 4.11476 -1.53572 0
M  V30 2126 H 193.838 3.12572 -2.88407 0
M  V30 2127 N 192.153 1.28127 0.917671 0
M  V30 2128 C 193.43 1.05761 1.64542 0
M  V30 2129 C 193.81 -0.404344 2.07191 0
M  V30 2130 O 193.158 -1.38963 1.81388 0
M  V30 2131 C 193.368 2.02857 2.83989 0
M  V30 2132 C 194.716 2.32786 3.551 0
M  V30 2133 O 195.74 2.0091 2.94132 0
M  V30 2134 O 194.599 2.87169 4.64969 0
M  V30 2135 H 191.693 0.403916 0.721652 0
M  V30 2136 H 194.239 1.39431 0.967322 0
M  V30 2137 H 193.011 3.01407 2.49538 0
M  V30 2138 H 192.634 1.69809 3.59514 0
M  V30 2139 N 193.631 -1.12557 1.10312 0
M  V30 2140 C 194.856 -1.88405 0.867085 0
M  V30 2141 C 195.281 -1.79038 -0.576817 0
M  V30 2142 O 194.639 -1.14439 -1.40618 0
M  V30 2143 C 194.687 -3.3563 1.31851 0
M  V30 2144 O 193.791 -4.09565 0.482734 0
M  V30 2145 H 193.132 -0.585455 0.313271 0
M  V30 2146 H 195.662 -1.42352 1.4696 0
M  V30 2147 H 195.672 -3.86469 1.3079 0
M  V30 2148 H 194.347 -3.41765 2.37001 0
M  V30 2149 H 192.924 -3.68695 0.558448 0
M  V30 2150 N 195.109 -0.891671 -1.2995 0
M  V30 2151 C 196.349 -0.520296 -1.97667 0
M  V30 2152 C 196.713 0.914797 -1.68806 0
M  V30 2153 O 197.914 1.39263 -2.29911 0
M  V30 2154 C 196.185 -0.795222 -3.48441 0
M  V30 2155 S 197.744 -0.526953 -4.35624 0
M  V30 2156 H 194.562 -0.19333 -0.684211 0
M  V30 2157 H 197.164 -1.15238 -1.57926 0
M  V30 2158 H 195.868 -1.83805 -3.66938 0
M  V30 2159 H 195.399 -0.15095 -3.9311 0
M  V30 2160 H 197.414 0.631533 -4.92165 0
M  V30 2161 N 196.587 1.43421 -0.653314 0
M  V30 2162 C 197.835 2.01414 -0.166415 0
M  V30 2163 C 198.156 1.51803 1.22397 0
M  V30 2164 O 197.426 0.730693 1.81763 0
M  V30 2165 H 196.006 0.744703 -0.0585319 0
M  V30 2166 H 198.668 1.75629 -0.845003 0
M  V30 2167 H 197.764 3.11734 -0.151111 0
M  V30 2168 N 198.065 0.39524 1.52563 0
M  V30 2169 C 199.342 -0.242908 1.94086 0
M  V30 2170 C 199.722 -1.63841 1.33114 0
M  V30 2171 O 199.07 -2.22928 0.501529 0
M  V30 2172 C 199.28 -0.26327 3.48006 0
M  V30 2173 C 200.628 -0.489354 4.21771 0
M  V30 2174 O 201.652 -0.343226 3.54543 0
M  V30 2175 O 200.511 -0.776169 5.4096 0
M  V30 2176 H 197.605 -0.152536 0.812811 0
M  V30 2177 H 200.151 0.450178 1.6362 0
M  V30 2178 H 198.923 0.713985 3.84731 0
M  V30 2179 H 198.546 -1.00103 3.84792 0
M  V30 2180 N 199.544 -1.57102 0.125237 0
M  V30 2181 C 200.474 -2.18659 -0.819174 0
M  V30 2182 C 201.455 -1.12843 -1.27281 0
M  V30 2183 O 202.64 -1.41104 -1.33429 0
M  V30 2184 C 199.77 -2.79096 -2.06695 0
M  V30 2185 C 198.724 -3.90548 -1.75088 0
M  V30 2186 C 198.05 -4.37821 -3.06948 0
M  V30 2187 C 199.35 -5.12356 -1.01435 0
M  V30 2188 H 201.044 -2.9783 -0.306202 0
M  V30 2189 H 198.59 -1.4326 -0.145839 0
M  V30 2190 H 200.543 -3.2082 -2.73226 0
M  V30 2191 H 199.267 -1.97223 -2.60328 0
M  V30 2192 H 197.926 -3.49409 -1.10944 0
M  V30 2193 H 197.574 -3.52799 -3.58527 0
M  V30 2194 H 197.274 -5.12982 -2.86571 0
M  V30 2195 H 198.798 -4.822 -3.74587 0
M  V30 2196 H 200.212 -5.5106 -1.58132 0
M  V30 2197 H 198.609 -5.9314 -0.911319 0
M  V30 2198 H 199.679 -4.849 -0.00218681 0
M  V30 2199 N 201.022 0.148545 -1.56898 0
M  V30 2200 C 201.955 1.21293 -1.93296 0
M  V30 2201 C 202.933 1.41637 -0.798599 0
M  V30 2202 O 204.117 1.56275 -1.05406 0
M  V30 2203 C 201.244 2.5721 -2.20365 0
M  V30 2204 C 200.29 2.53469 -3.4301 0
M  V30 2205 S 201.123 2.00315 -4.96623 0
M  V30 2206 C 202.279 3.37964 -5.26812 0
M  V30 2207 H 202.512 0.902393 -2.83274 0
M  V30 2208 H 200.045 0.354094 -1.50285 0
M  V30 2209 H 202.003 3.35427 -2.36641 0
M  V30 2210 H 200.664 2.85454 -1.31054 0
M  V30 2211 H 199.857 3.53518 -3.59223 0
M  V30 2212 H 199.459 1.83359 -3.25968 0
M  V30 2213 H 201.751 4.34066 -5.20185 0
M  V30 2214 H 202.694 3.26606 -6.28279 0
M  V30 2215 H 203.102 3.35028 -4.54331 0
M  V30 2216 N 202.5 1.5196 0.417844 0
M  V30 2217 C 203.747 1.65591 1.16559 0
M  V30 2218 C 204.075 0.381565 1.90721 0
M  V30 2219 O 203.33 -0.635156 1.85106 0
M  V30 2220 C 203.629 2.82269 2.19223 0
M  V30 2221 C 203.295 4.20819 1.61933 0
M  V30 2222 C 201.957 4.58506 1.46033 0
M  V30 2223 C 204.309 5.07196 1.20008 0
M  V30 2224 C 201.637 5.80257 0.867113 0
M  V30 2225 C 203.989 6.29544 0.621086 0
M  V30 2226 C 202.653 6.65987 0.449144 0
M  V30 2227 H 201.923 0.605939 0.42652 0
M  V30 2228 H 204.57 1.86041 0.45397 0
M  V30 2229 H 202.875 2.56118 2.96498 0
M  V30 2230 H 204.572 2.90012 2.76936 0
M  V30 2231 H 201.162 3.91116 1.7529 0
M  V30 2232 H 205.346 4.7867 1.31105 0
M  V30 2233 H 200.602 6.07124 0.721833 0
M  V30 2234 H 204.776 6.95805 0.287798 0
M  V30 2235 H 202.403 7.60199 -0.012632 0
M  V30 2236 N 203.978 -0.674533 1.42435 0
M  V30 2237 C 204.908 -1.80009 1.48724 0
M  V30 2238 C 205.889 -1.6659 0.343793 0
M  V30 2239 O 207.074 -1.86007 0.558137 0
M  V30 2240 C 204.204 -3.18306 1.38919 0
M  V30 2241 C 203.158 -3.46461 2.51294 0
M  V30 2242 C 202.484 -4.84335 2.26547 0
M  V30 2243 C 203.784 -3.43328 3.93603 0
M  V30 2244 H 205.478 -1.75004 2.42928 0
M  V30 2245 H 203.024 -0.840533 1.16923 0
M  V30 2246 H 204.977 -3.9678 1.41927 0
M  V30 2247 H 203.701 -3.2399 0.412094 0
M  V30 2248 H 202.36 -2.70348 2.47604 0
M  V30 2249 H 202.008 -4.86669 1.2713 0
M  V30 2250 H 201.708 -5.04136 3.01861 0
M  V30 2251 H 203.232 -5.65094 2.31304 0
M  V30 2252 H 204.646 -4.11772 3.98894 0
M  V30 2253 H 203.043 -3.74664 4.68771 0
M  V30 2254 H 204.113 -2.41897 4.20255 0
M  V30 2255 N 205.456 -1.28612 -0.910864 0
M  V30 2256 C 206.389 -1.07109 -2.01502 0
M  V30 2257 C 207.367 0.013706 -1.62594 0
M  V30 2258 O 208.551 -0.134796 -1.88017 0
M  V30 2259 C 205.678 -0.628255 -3.32822 0
M  V30 2260 C 204.724 -1.71012 -3.90714 0
M  V30 2261 S 205.557 -3.30676 -4.21205 0
M  V30 2262 C 206.713 -2.88234 -5.55583 0
M  V30 2263 H 206.946 -2.00591 -2.19432 0
M  V30 2264 H 204.479 -1.12633 -1.05609 0
M  V30 2265 H 206.437 -0.37946 -4.08742 0
M  V30 2266 H 205.098 0.28678 -3.12788 0
M  V30 2267 H 204.291 -1.35195 -4.85529 0
M  V30 2268 H 203.893 -1.91186 -3.21441 0
M  V30 2269 H 206.185 -2.34584 -6.35591 0
M  V30 2270 H 207.128 -3.81857 -5.96314 0
M  V30 2271 H 207.536 -2.26862 -5.16908 0
M  V30 2272 N 206.934 1.1197 -1.10907 0
M  V30 2273 C 207.881 2.17846 -0.762345 0
M  V30 2274 C 208.851 1.63995 0.263599 0
M  V30 2275 O 210.036 1.90273 0.141773 0
M  V30 2276 C 207.176 3.44487 -0.205651 0
M  V30 2277 C 206.289 4.12369 -1.28748 0
M  V30 2278 C 205.424 5.26674 -0.691919 0
M  V30 2279 C 204.463 5.86431 -1.75399 0
M  V30 2280 N 203.6 6.92142 -1.17833 0
M  V30 2281 H 208.44 2.46851 -1.6694 0
M  V30 2282 H 205.977 1.21188 -0.833776 0
M  V30 2283 H 207.935 4.16981 0.135037 0
M  V30 2284 H 206.565 3.15884 0.664613 0
M  V30 2285 H 205.617 3.38003 -1.74522 0
M  V30 2286 H 206.929 4.52844 -2.09125 0
M  V30 2287 H 206.083 6.05953 -0.300963 0
M  V30 2288 H 204.822 4.8749 0.143232 0
M  V30 2289 H 203.827 5.05835 -2.15432 0
M  V30 2290 H 205.052 6.27685 -2.59208 0
M  V30 2291 H 202.998 6.54985 -0.364725 0
M  V30 2292 H 202.915 7.31242 -1.91887 0
M  V30 2293 H 204.183 7.75237 -0.81408 0
M  V30 2294 N 208.412 0.89855 1.29475 0
M  V30 2295 C 209.658 0.534065 1.96263 0
M  V30 2296 C 210.013 -0.909415 1.69551 0
M  V30 2297 O 209.306 -1.63596 0.997349 0
M  V30 2298 C 209.5 0.761398 3.49195 0
M  V30 2299 C 209.329 2.22542 3.90775 0
M  V30 2300 C 208.099 2.87264 4.15701 0
M  V30 2301 C 210.297 3.20051 4.02581 0
M  V30 2302 N 208.279 4.24121 4.4384 0
M  V30 2303 C 209.65 4.42023 4.34759 0
M  V30 2304 C 211.705 3.15657 3.85052 0
M  V30 2305 C 210.408 5.60161 4.51235 0
M  V30 2306 C 212.434 4.33078 4.02737 0
M  V30 2307 C 211.796 5.5382 4.35273 0
M  V30 2308 H 207.895 0.245013 0.742625 0
M  V30 2309 H 210.479 1.15912 1.56437 0
M  V30 2310 H 208.65 0.165732 3.88046 0
M  V30 2311 H 210.382 0.362462 4.03074 0
M  V30 2312 H 207.137 2.38064 4.09417 0
M  V30 2313 H 207.561 4.94839 4.6202 0
M  V30 2314 H 212.203 2.23396 3.58962 0
M  V30 2315 H 209.921 6.52913 4.76162 0
M  V30 2316 H 213.507 4.31163 3.90628 0
M  V30 2317 H 212.387 6.43166 4.48672 0
M  V30 2318 N 209.89 -1.43072 0.660911 0
M  V30 2319 C 210.837 -2.30785 -0.0259884 0
M  V30 2320 C 211.807 -1.45184 -0.806888 0
M  V30 2321 O 212.992 -1.74041 -0.781943 0
M  V30 2322 C 210.132 -3.30861 -0.981067 0
M  V30 2323 C 209.245 -4.31558 -0.195458 0
M  V30 2324 C 208.38 -5.18712 -1.14503 0
M  V30 2325 C 207.419 -6.11097 -0.350299 0
M  V30 2326 N 206.556 -6.90849 -1.25186 0
M  V30 2327 H 211.396 -2.88975 0.727846 0
M  V30 2328 H 208.933 -1.42353 0.370682 0
M  V30 2329 H 210.891 -3.87399 -1.54849 0
M  V30 2330 H 209.521 -2.74304 -1.70169 0
M  V30 2331 H 208.573 -3.77252 0.488374 0
M  V30 2332 H 209.885 -4.9701 0.422176 0
M  V30 2333 H 209.039 -5.79914 -1.78284 0
M  V30 2334 H 207.778 -4.53404 -1.79656 0
M  V30 2335 H 206.783 -5.48976 0.300808 0
M  V30 2336 H 208.008 -6.7845 0.296941 0
M  V30 2337 H 205.954 -6.28182 -1.89005 0
M  V30 2338 H 205.871 -7.52854 -0.688971 0
M  V30 2339 H 207.139 -7.5655 -1.87757 0
M  V30 2340 N 211.368 -0.403325 -1.52352 0
M  V30 2341 C 212.645 0.232611 -1.94212 0
M  V30 2342 C 213.025 1.63133 -1.33981 0
M  V30 2343 O 212.373 2.22659 -0.513344 0
M  V30 2344 C 212.583 0.244811 -3.4814 0
M  V30 2345 C 213.931 0.46698 -4.22024 0
M  V30 2346 O 214.955 0.324419 -3.5472 0
M  V30 2347 O 213.814 0.74747 -5.41364 0
M  V30 2348 H 210.908 0.148223 -0.813609 0
M  V30 2349 H 213.454 -0.458848 -1.63379 0
M  V30 2350 H 212.226 -0.734378 -3.84347 0
M  V30 2351 H 211.849 0.980611 -3.85318 0
M  V30 2352 N 212.846 1.57033 -0.133567 0
M  V30 2353 C 214.074 2.00044 0.528195 0
M  V30 2354 C 214.489 1.01349 1.59291 0
M  V30 2355 O 213.846 0.00848369 1.82498 0
M  V30 2356 C 213.897 3.43018 1.1411 0
M  V30 2357 O 213.618 4.37939 0.11892 0
M  V30 2358 C 215.119 4.01237 1.88477 0
M  V30 2359 H 212.339 0.656517 0.138661 0
M  V30 2360 H 214.883 2.03267 -0.224196 0
M  V30 2361 H 213.038 3.40688 1.84418 0
M  V30 2362 H 213.452 5.21436 0.56613 0
M  V30 2363 H 214.926 5.03314 2.26669 0
M  V30 2364 H 215.403 3.41193 2.76558 0
M  V30 2365 H 216.009 4.07156 1.22898 0
M  V30 2366 N 214.325 -0.140222 1.56975 0
M  V30 2367 C 215.602 -0.880769 1.74648 0
M  V30 2368 C 215.982 -1.99036 0.703404 0
M  V30 2369 O 215.33 -2.26821 -0.27648 0
M  V30 2370 C 215.54 -1.417 3.18939 0
M  V30 2371 C 216.888 -1.87774 3.80823 0
M  V30 2372 O 217.912 -1.51427 3.2241 0
M  V30 2373 O 216.771 -2.54827 4.83452 0
M  V30 2374 H 213.865 -0.416713 0.714338 0
M  V30 2375 H 216.411 -0.125618 1.69234 0
M  V30 2376 H 215.183 -0.619902 3.86359 0
M  V30 2377 H 214.806 -2.23546 3.28805 0
M  V30 2378 N 215.803 -1.52179 -0.40978 0
M  V30 2379 C 216.713 -1.78364 -1.52392 0
M  V30 2380 C 217.729 -0.669183 -1.60617 0
M  V30 2381 O 218.905 -0.954518 -1.77344 0
M  V30 2382 C 215.97 -1.92822 -2.88133 0
M  V30 2383 C 215.031 -3.16725 -2.898 0
M  V30 2384 C 214.264 -3.30483 -4.19067 0
M  V30 2385 O 214.487 -2.49522 -5.12928 0
M  V30 2386 O 213.421 -4.2363 -4.27576 0
M  V30 2387 H 217.247 -2.72931 -1.33201 0
M  V30 2388 H 214.832 -1.37016 -0.59557 0
M  V30 2389 H 216.714 -2.04157 -3.68643 0
M  V30 2390 H 215.389 -1.01444 -3.07393 0
M  V30 2391 H 214.296 -3.10848 -2.08146 0
M  V30 2392 H 215.629 -4.07881 -2.75489 0
M  V30 2393 N 217.281 0.66697 -1.42791 0
M  V30 2394 C 218.244 1.76211 -1.46568 0
M  V30 2395 C 219.244 1.56896 -0.352196 0
M  V30 2396 O 220.434 1.63044 -0.613364 0
M  V30 2397 C 217.566 3.14935 -1.30494 0
M  V30 2398 H 218.759 1.74247 -2.44086 0
M  V30 2399 H 216.312 0.877342 -1.29354 0
M  V30 2400 H 217.047 3.2252 -0.339301 0
M  V30 2401 H 216.832 3.30359 -2.11199 0
M  V30 2402 H 218.322 3.94821 -1.36038 0
M  V30 2403 N 218.759 1.29093 0.90403 0
M  V30 2404 C 220.036 1.075 1.63411 0
M  V30 2405 C 220.416 -0.382346 2.07609 0
M  V30 2406 O 219.764 -1.37031 1.82851 0
M  V30 2407 C 219.974 2.05858 2.81822 0
M  V30 2408 C 221.322 2.36539 3.52611 0
M  V30 2409 O 222.346 2.04019 2.91984 0
M  V30 2410 O 221.205 2.92085 4.61897 0
M  V30 2411 H 218.299 0.411547 0.717327 0
M  V30 2412 H 220.845 1.40449 0.952479 0
M  V30 2413 H 219.617 3.04037 2.46327 0
M  V30 2414 H 219.24 1.73613 3.57693 0
M  V30 2415 N 220.237 -1.11381 1.11499 0
M  V30 2416 C 221.167 -2.19509 0.796125 0
M  V30 2417 C 222.148 -1.68458 -0.235796 0
M  V30 2418 O 223.333 -1.93947 -0.0991344 0
M  V30 2419 C 220.463 -3.46475 0.239205 0
M  V30 2420 C 219.417 -4.10744 1.20307 0
M  V30 2421 C 218.743 -5.32293 0.50683 0
M  V30 2422 C 220.043 -4.55597 2.55399 0
M  V30 2423 H 221.737 -2.46439 1.70024 0
M  V30 2424 H 219.283 -1.18446 0.818935 0
M  V30 2425 H 221.236 -4.214 0.00392006 0
M  V30 2426 H 219.96 -3.19006 -0.700206 0
M  V30 2427 H 218.619 -3.37813 1.42399 0
M  V30 2428 H 218.267 -5.01095 -0.437408 0
M  V30 2429 H 217.967 -5.76243 1.1497 0
M  V30 2430 H 219.491 -6.09956 0.280351 0
M  V30 2431 H 220.905 -5.21841 2.37391 0
M  V30 2432 H 219.302 -5.10363 3.15673 0
M  V30 2433 H 220.372 -3.69013 3.14575 0
M  V30 2434 N 221.715 -0.905404 -1.28997 0
M  V30 2435 C 222.961 -0.535039 -1.95615 0
M  V30 2436 C 223.294 0.917404 -1.71165 0
M  V30 2437 O 222.569 1.65123 -1.02785 0
M  V30 2438 C 222.852 -0.834918 -3.50287 0
M  V30 2439 C 222.705 -2.33948 -3.84172 0
M  V30 2440 C 224.024 -0.325318 -4.38896 0
M  V30 2441 H 221.143 -0.195861 -0.710498 0
M  V30 2442 H 223.785 -1.13313 -1.52513 0
M  V30 2443 H 221.935 -0.325904 -3.87131 0
M  V30 2444 H 223.607 -2.91847 -3.57243 0
M  V30 2445 H 221.85 -2.79789 -3.31513 0
M  V30 2446 H 222.521 -2.49987 -4.92149 0
M  V30 2447 H 224.997 -0.761256 -4.09077 0
M  V30 2448 H 223.873 -0.564295 -5.45992 0
M  V30 2449 H 224.134 0.774144 -4.35269 0
M  V30 2450 N 223.193 1.4272 -0.668489 0
M  V30 2451 C 224.123 2.335 -0.000100175 0
M  V30 2452 C 225.104 1.50328 0.795964 0
M  V30 2453 O 226.289 1.78949 0.754385 0
M  V30 2454 C 223.419 3.33874 0.956302 0
M  V30 2455 C 222.373 4.27152 0.269278 0
M  V30 2456 C 221.699 5.17684 1.33818 0
M  V30 2457 C 222.999 5.15373 -0.847805 0
M  V30 2458 H 224.693 2.89639 -0.758244 0
M  V30 2459 H 222.239 1.39269 -0.366079 0
M  V30 2460 H 224.192 3.9629 1.43292 0
M  V30 2461 H 222.916 2.76025 1.74579 0
M  V30 2462 H 221.575 3.66123 -0.187042 0
M  V30 2463 H 221.223 4.56165 2.1195 0
M  V30 2464 H 220.923 5.80918 0.883659 0
M  V30 2465 H 222.447 5.82974 1.81586 0
M  V30 2466 H 223.861 5.7151 -0.452681 0
M  V30 2467 H 222.258 5.87407 -1.22773 0
M  V30 2468 H 223.328 4.5415 -1.69929 0
M  V30 2469 N 224.671 0.411399 1.52136 0
M  V30 2470 C 225.634 -0.401089 2.25663 0
M  V30 2471 C 226.634 -0.971732 1.28117 0
M  V30 2472 O 227.824 -0.850254 1.52041 0
M  V30 2473 C 224.956 -1.56483 3.02863 0
M  V30 2474 H 226.149 0.24295 2.98914 0
M  V30 2475 H 223.702 0.163968 1.55438 0
M  V30 2476 H 224.437 -2.24567 2.33967 0
M  V30 2477 H 224.222 -1.16211 3.74483 0
M  V30 2478 H 225.712 -2.13951 3.58629 0
M  V30 2479 N 226.149 -1.5696 0.141893 0
M  V30 2480 C 227.096 -2.16501 -0.799737 0
M  V30 2481 C 228.066 -1.09643 -1.24771 0
M  V30 2482 O 229.251 -1.3766 -1.32115 0
M  V30 2483 C 226.391 -2.78679 -2.03549 0
M  V30 2484 C 225.504 -3.99914 -1.6338 0
M  V30 2485 C 224.639 -4.50106 -2.82096 0
M  V30 2486 C 223.678 -5.63819 -2.38275 0
M  V30 2487 N 222.815 -6.08651 -3.49983 0
M  V30 2488 H 227.655 -2.96632 -0.285179 0
M  V30 2489 H 225.192 -1.46533 -0.129053 0
M  V30 2490 H 227.15 -3.1287 -2.75986 0
M  V30 2491 H 225.78 -2.012 -2.52425 0
M  V30 2492 H 224.832 -3.71735 -0.807279 0
M  V30 2493 H 226.144 -4.82311 -1.27192 0
M  V30 2494 H 225.298 -4.86325 -3.62729 0
M  V30 2495 H 224.037 -3.66706 -3.21525 0
M  V30 2496 H 223.042 -5.2718 -1.56081 0
M  V30 2497 H 224.267 -6.49 -1.99938 0
M  V30 2498 H 222.213 -5.28188 -3.89042 0
M  V30 2499 H 222.13 -6.85961 -3.17794 0
M  V30 2500 H 223.398 -6.49515 -4.30988 0
M  V30 2501 N 227.627 0.131896 -1.57047 0
M  V30 2502 C 228.537 1.1815 -2.02676 0
M  V30 2503 C 229.553 1.46113 -0.944824 0
M  V30 2504 O 230.729 1.57485 -1.25541 0
M  V30 2505 C 227.794 2.49139 -2.41103 0
M  V30 2506 C 226.855 2.28688 -3.63318 0
M  V30 2507 C 226.088 3.53431 -3.99903 0
M  V30 2508 O 226.311 4.60223 -3.36973 0
M  V30 2509 O 225.245 3.45198 -4.93074 0
M  V30 2510 H 229.071 0.824069 -2.92306 0
M  V30 2511 H 226.656 0.341745 -1.45439 0
M  V30 2512 H 228.538 3.26338 -2.66611 0
M  V30 2513 H 227.213 2.84382 -1.54624 0
M  V30 2514 H 226.12 1.4939 -3.42977 0
M  V30 2515 H 227.453 1.98355 -4.50462 0
M  V30 2516 N 229.106 1.52395 0.401703 0
M  V30 2517 C 230.069 1.75636 1.47257 0
M  V30 2518 C 231.069 0.62628 1.48103 0
M  V30 2519 O 232.259 0.894227 1.49497 0
M  V30 2520 C 229.391 1.84553 2.86624 0
M  V30 2521 H 230.584 2.71241 1.27938 0
M  V30 2522 H 228.137 1.42923 0.632662 0
M  V30 2523 H 228.872 0.908882 3.11303 0
M  V30 2524 H 228.657 2.66715 2.87412 0
M  V30 2525 H 230.147 2.04251 3.64241 0
M  V30 2526 N 230.584 -0.659388 1.43143 0
M  V30 2527 C 231.532 -1.79374 1.4808 0
M  V30 2528 C 232.526 -1.65639 0.354988 0
M  V30 2529 O 233.732 -1.7206 0.528704 0
M  V30 2530 H 230.107 -0.591705 0.4641 0
M  V30 2531 H 232.078 -1.72329 2.43609 0
M  V30 2532 C 230.827 -3.17606 1.41499 0
M  V30 2533 H 230.15 -3.28809 2.27431 0
M  V30 2534 H 231.59 -3.96951 1.49015 0
M  V30 2535 C 230.049 -3.36642 0.131765 0
M  V30 2536 O 230.579 -3.93461 -0.809386 0
M  V30 2537 N 228.785 -2.90567 0.0439396 0
M  V30 2538 H 228.332 -2.44513 0.810619 0
M  V30 2539 H 228.29 -3.03681 -0.813969 0
M  V30 2540 N 232.062 -1.29571 -0.897171 0
M  V30 2541 C 233.308 -1.17863 -1.65034 0
M  V30 2542 C 233.641 0.268729 -1.92332 0
M  V30 2543 O 232.916 1.19378 -1.53555 0
M  V30 2544 C 233.199 -1.995 -2.99786 0
M  V30 2545 C 233.052 -3.5239 -2.79538 0
M  V30 2546 C 234.371 -1.82335 -4.00552 0
M  V30 2547 H 231.49 -0.429528 -0.598895 0
M  V30 2548 H 234.132 -1.59072 -1.03905 0
M  V30 2549 H 232.282 -1.64485 -3.51962 0
M  V30 2550 H 233.954 -3.97401 -2.34244 0
M  V30 2551 H 232.197 -3.77187 -2.14273 0
M  V30 2552 H 232.868 -4.04787 -3.75302 0
M  V30 2553 H 235.344 -2.12924 -3.57495 0
M  V30 2554 H 234.22 -2.41801 -4.92771 0
M  V30 2555 H 234.481 -0.779209 -4.35179 0
M  V30 2556 N 233.54 1.10788 -1.12088 0
M  V30 2557 C 234.487 2.17025 -0.785407 0
M  V30 2558 C 235.457 1.64265 0.246191 0
M  V30 2559 O 236.642 1.90412 0.121584 0
M  V30 2560 C 233.782 3.44249 -0.242177 0
M  V30 2561 C 232.895 4.1098 -1.33115 0
M  V30 2562 C 232.03 5.25911 -0.747741 0
M  V30 2563 C 231.069 5.84538 -1.81609 0
M  V30 2564 N 230.206 6.90853 -1.25167 0
M  V30 2565 H 235.046 2.45066 -1.69548 0
M  V30 2566 H 232.583 1.20297 -0.846582 0
M  V30 2567 H 234.541 4.17101 0.0908026 0
M  V30 2568 H 233.171 3.16571 0.631072 0
M  V30 2569 H 232.223 3.36133 -1.78097 0
M  V30 2570 H 233.535 4.50601 -2.13917 0
M  V30 2571 H 232.689 6.056 -0.365216 0
M  V30 2572 H 231.428 4.87614 0.0915188 0
M  V30 2573 H 230.433 5.03522 -2.20785 0
M  V30 2574 H 231.658 6.249 -2.6585 0
M  V30 2575 H 229.604 6.54562 -0.434174 0
M  V30 2576 H 229.521 7.29166 -1.99633 0
M  V30 2577 H 230.789 7.7433 -0.896259 0
M  V30 2578 N 235.018 0.912232 1.28515 0
M  V30 2579 C 236.258 0.551677 1.96814 0
M  V30 2580 C 236.622 -0.887825 1.7024 0
M  V30 2581 O 237.823 -1.35588 2.32098 0
M  V30 2582 C 236.094 0.850555 3.47132 0
M  V30 2583 S 237.653 0.59619 4.34731 0
M  V30 2584 H 234.471 0.204191 0.681049 0
M  V30 2585 H 237.073 1.17736 1.56072 0
M  V30 2586 H 235.777 1.8962 3.63968 0
M  V30 2587 H 235.308 0.213471 3.9282 0
M  V30 2588 H 237.323 -0.553154 4.93107 0
M  V30 2589 N 236.496 -1.42363 0.676048 0
M  V30 2590 C 237.907 -1.84649 0.275948 0
M  V30 2591 C 238.258 -1.56588 -1.18214 0
M  V30 2592 O 237.383 -1.02634 -1.90513 0
M  V30 2593 C 237.978 -3.35178 0.494053 0
M  V30 2594 C 236.537 -3.76109 0.148061 0
M  V30 2595 C 235.684 -2.65931 0.785891 0
M  V30 2596 H 238.635 -1.32192 0.878121 0
M  V30 2597 H 238.656 -3.79655 -0.25343 0
M  V30 2598 H 238.168 -3.55571 1.55535 0
M  V30 2599 H 236.269 -3.61323 -0.909742 0
M  V30 2600 H 236.382 -4.7546 0.589454 0
M  V30 2601 H 234.746 -2.53773 0.217113 0
M  V30 2602 H 235.529 -2.89146 1.85067 0
M  V30 2603 N 237.974 -0.419461 -1.51915 0
M  V30 2604 C 238.906 0.43646 -2.25006 0
M  V30 2605 C 239.919 1.00149 -1.28351 0
M  V30 2606 O 241.108 0.898674 -1.54227 0
M  V30 2607 C 238.208 1.6206 -2.9764 0
M  V30 2608 C 237.381 1.17763 -4.21249 0
M  V30 2609 C 236.44 2.22985 -4.76617 0
M  V30 2610 O 235.466 1.83151 -5.38929 0
M  V30 2611 N 236.668 3.55271 -4.59089 0
M  V30 2612 H 239.433 -0.18989 -2.99098 0
M  V30 2613 H 236.994 -0.247386 -1.59999 0
M  V30 2614 H 238.986 2.32038 -3.31573 0
M  V30 2615 H 237.556 2.15266 -2.2667 0
M  V30 2616 H 236.776 0.305582 -3.93014 0
M  V30 2617 H 238.064 0.858781 -5.015 0
M  V30 2618 H 237.462 3.90377 -4.09417 0
M  V30 2619 H 236.019 4.21195 -4.97432 0
M  V30 2620 N 239.452 1.56882 -0.150215 0
M  V30 2621 C 240.701 1.95403 0.500071 0
M  V30 2622 C 241.014 1.03777 1.658 0
M  V30 2623 O 242.22 1.31889 2.37313 0
M  V30 2624 C 240.676 3.4738 0.941018 0
M  V30 2625 C 240.284 4.47596 -0.190158 0
M  V30 2626 C 242.028 3.9476 1.56091 0
M  V30 2627 C 239.935 5.90787 0.269237 0
M  V30 2628 H 238.865 0.729515 0.190588 0
M  V30 2629 H 241.516 1.81988 -0.235074 0
M  V30 2630 H 239.898 3.56138 1.73152 0
M  V30 2631 H 241.072 4.50536 -0.967157 0
M  V30 2632 H 239.387 4.10151 -0.718666 0
M  V30 2633 H 241.984 4.99181 1.9163 0
M  V30 2634 H 242.327 3.36494 2.45107 0
M  V30 2635 H 242.86 3.88932 0.835249 0
M  V30 2636 H 239.599 6.52879 -0.585621 0
M  V30 2637 H 239.119 5.912 1.01204 0
M  V30 2638 H 240.798 6.42979 0.720176 0
M  V30 2639 N 240.93 -0.123565 1.57115 0
M  V30 2640 C 242.176 -0.833386 1.84885 0
M  V30 2641 C 242.509 -1.79742 0.735292 0
M  V30 2642 O 241.784 -1.92764 -0.25925 0
M  V30 2643 C 242.067 -1.5873 3.23228 0
M  V30 2644 C 241.92 -0.643183 4.45178 0
M  V30 2645 C 243.239 -2.54453 3.59085 0
M  V30 2646 H 240.358 -0.301518 0.6725 0
M  V30 2647 H 243 -0.097778 1.89748 0
M  V30 2648 H 241.15 -2.21438 3.19214 0
M  V30 2649 H 242.822 -0.0253015 4.61293 0
M  V30 2650 H 241.065 0.0456139 4.33776 0
M  V30 2651 H 241.736 -1.20724 5.38637 0
M  V30 2652 H 244.212 -2.01853 3.63861 0
M  V30 2653 H 243.088 -3.04238 4.5687 0
M  V30 2654 H 243.349 -3.36906 2.86264 0
M  V30 2655 N 242.408 -1.52605 -0.393616 0
M  V30 2656 C 243.657 -1.66649 -1.13627 0
M  V30 2657 C 243.97 -0.410364 -1.91247 0
M  V30 2658 O 245.176 -0.430854 -2.68059 0
M  V30 2659 C 243.632 -2.9449 -2.06891 0
M  V30 2660 C 243.24 -4.27266 -1.34714 0
M  V30 2661 C 244.984 -3.17899 -2.81319 0
M  V30 2662 C 242.891 -5.46217 -2.26717 0
M  V30 2663 H 241.821 -0.62084 -0.427871 0
M  V30 2664 H 244.472 -1.791 -0.399428 0
M  V30 2665 H 242.854 -2.75774 -2.84191 0
M  V30 2666 H 244.028 -4.56518 -0.626714 0
M  V30 2667 H 242.343 -4.10081 -0.722643 0
M  V30 2668 H 244.94 -4.03949 -3.50328 0
M  V30 2669 H 245.283 -2.32777 -3.45139 0
M  V30 2670 H 245.816 -3.37159 -2.11113 0
M  V30 2671 H 242.555 -6.33733 -1.67521 0
M  V30 2672 H 242.075 -5.21283 -2.96689 0
M  V30 2673 H 243.754 -5.7991 -2.86903 0
M  V30 2674 N 243.887 0.651787 -1.4349 0
M  V30 2675 C 244.85 1.74647 -1.48429 0
M  V30 2676 C 245.85 1.56513 -0.368817 0
M  V30 2677 O 247.04 1.62385 -0.630623 0
M  V30 2678 C 244.172 3.13533 -1.33827 0
M  V30 2679 H 245.365 1.71649 -2.4592 0
M  V30 2680 H 242.918 0.863573 -1.30277 0
M  V30 2681 H 243.653 3.22142 -0.37349 0
M  V30 2682 H 243.438 3.28101 -2.14691 0
M  V30 2683 H 244.928 3.93356 -1.40218 0
M  V30 2684 N 245.365 1.30045 0.890287 0
M  V30 2685 C 246.612 1.18561 1.64163 0
M  V30 2686 C 246.94 -0.260852 1.92743 0
M  V30 2687 O 246.195 -1.20376 1.54299 0
M  V30 2688 C 246.494 1.95409 2.99249 0
M  V30 2689 C 246.16 3.45066 2.90242 0
M  V30 2690 C 244.822 3.85878 2.87492 0
M  V30 2691 C 247.174 4.4039 2.78758 0
M  V30 2692 C 244.502 5.20314 2.7109 0
M  V30 2693 C 246.854 5.74928 2.63894 0
M  V30 2694 C 245.518 6.14986 2.59516 0
M  V30 2695 H 244.788 0.433846 0.600715 0
M  V30 2696 H 247.435 1.61088 1.03552 0
M  V30 2697 H 245.74 1.45501 3.63781 0
M  V30 2698 H 247.437 1.8392 3.56334 0
M  V30 2699 H 244.027 3.12631 2.93189 0
M  V30 2700 H 248.211 4.09806 2.79952 0
M  V30 2701 H 243.467 5.50449 2.66112 0
M  V30 2702 H 247.641 6.48434 2.53981 0
M  V30 2703 H 245.268 7.19104 2.46565 0
M  V30 2704 N 246.843 -1.10192 1.12674 0
M  V30 2705 C 248.073 -1.85713 0.905213 0
M  V30 2706 C 248.481 -1.81056 -0.549108 0
M  V30 2707 O 247.824 -1.19927 -1.39151 0
M  V30 2708 C 247.886 -3.34972 1.30516 0
M  V30 2709 C 247.55 -3.63385 2.77129 0
M  V30 2710 C 248.547 -3.59772 3.75313 0
M  V30 2711 C 246.232 -3.91981 3.14096 0
M  V30 2712 C 248.226 -3.84354 5.08479 0
M  V30 2713 C 245.913 -4.16218 4.47443 0
M  V30 2714 C 246.911 -4.12395 5.44444 0
M  V30 2715 O 246.599 -4.36014 6.75387 0
M  V30 2716 H 246.331 -0.593719 0.323223 0
M  V30 2717 H 248.885 -1.40198 1.50112 0
M  V30 2718 H 247.115 -3.81156 0.652463 0
M  V30 2719 H 248.804 -3.91886 1.05736 0
M  V30 2720 H 249.57 -3.37716 3.48099 0
M  V30 2721 H 245.449 -3.94085 2.39202 0
M  V30 2722 H 248.993 -3.81285 5.84181 0
M  V30 2723 H 244.89 -4.37754 4.74386 0
M  V30 2724 H 245.658 -4.53516 6.8137 0
M  V30 2725 N 248.321 -0.919034 -1.28029 0
M  V30 2726 C 249.231 -0.416756 -2.30869 0
M  V30 2727 C 250.247 0.498235 -1.66714 0
M  V30 2728 O 251.423 0.383144 -1.97722 0
M  V30 2729 C 248.488 0.330274 -3.45123 0
M  V30 2730 C 247.549 -0.618578 -4.2482 0
M  V30 2731 C 246.782 0.0928959 -5.33619 0
M  V30 2732 O 247.005 1.31375 -5.55065 0
M  V30 2733 O 245.939 -0.574499 -5.99152 0
M  V30 2734 H 249.765 -1.27043 -2.75851 0
M  V30 2735 H 247.35 -0.684052 -1.3282 0
M  V30 2736 H 249.232 0.751972 -4.14636 0
M  V30 2737 H 247.907 1.1597 -3.02213 0
M  V30 2738 H 246.814 -1.08978 -3.57875 0
M  V30 2739 H 248.147 -1.41497 -4.71423 0
M  V30 2740 N 249.799 1.42003 -0.683588 0
M  V30 2741 C 250.709 2.34597 -0.0109075 0
M  V30 2742 C 251.725 1.55576 0.779245 0
M  V30 2743 O 252.901 1.88107 0.719555 0
M  V30 2744 C 249.966 3.34199 0.922588 0
M  V30 2745 C 249.027 4.29115 0.125984 0
M  V30 2746 C 248.26 5.23959 1.01502 0
M  V30 2747 O 248.483 5.23952 2.25456 0
M  V30 2748 O 247.417 6.00053 0.47111 0
M  V30 2749 H 251.243 2.93675 -0.773853 0
M  V30 2750 H 248.828 1.42654 -0.443861 0
M  V30 2751 H 250.71 3.95365 1.45823 0
M  V30 2752 H 249.385 2.77582 1.66523 0
M  V30 2753 H 248.292 3.71335 -0.453969 0
M  V30 2754 H 249.625 4.88798 -0.577736 0
M  V30 2755 N 251.277 0.427512 1.51691 0
M  V30 2756 C 252.693 0.0792977 1.59403 0
M  V30 2757 C 252.893 -1.41035 1.43914 0
M  V30 2758 O 251.949 -2.17922 1.27539 0
M  V30 2759 C 253.262 0.590636 2.94842 0
M  V30 2760 C 254.81 0.550215 3.08126 0
M  V30 2761 C 255.285 1.03836 4.46074 0
M  V30 2762 N 256.776 0.995943 4.52366 0
M  V30 2763 C 257.511 1.34463 5.57411 0
M  V30 2764 N 257.007 1.76569 6.69922 0
M  V30 2765 N 258.8 1.26343 5.47717 0
M  V30 2766 H 250.951 1.39687 1.60004 0
M  V30 2767 H 253.214 0.575003 0.753708 0
M  V30 2768 H 252.92 1.63251 3.11516 0
M  V30 2769 H 252.794 0.0102061 3.77199 0
M  V30 2770 H 255.181 -0.482654 2.91126 0
M  V30 2771 H 255.262 1.16693 2.27632 0
M  V30 2772 H 254.906 2.06965 4.63819 0
M  V30 2773 H 254.836 0.398286 5.25092 0
M  V30 2774 H 257.327 0.68661 3.7161 0
M  V30 2775 H 257.64 2.01438 7.46085 0
M  V30 2776 H 255.985 1.80488 6.71155 0
M  V30 2777 H 259.176 0.933209 4.58703 0
M  V30 2778 H 259.349 1.53846 6.29472 0
M  V30 2779 N 252.755 -1.56801 0.158532 0
M  V30 2780 C 253.685 -2.20347 -0.772609 0
M  V30 2781 C 254.666 -1.15518 -1.24859 0
M  V30 2782 O 255.851 -1.43902 -1.30406 0
M  V30 2783 C 252.981 -2.83417 -2.00729 0
M  V30 2784 C 251.935 -3.94174 -1.66765 0
M  V30 2785 C 251.261 -4.44233 -2.97592 0
M  V30 2786 C 252.561 -5.14392 -0.905447 0
M  V30 2787 H 254.255 -2.98413 -0.242959 0
M  V30 2788 H 251.801 -1.43537 -0.115419 0
M  V30 2789 H 253.754 -3.26543 -2.6636 0
M  V30 2790 H 252.478 -2.02701 -2.56086 0
M  V30 2791 H 251.137 -3.51684 -1.03508 0
M  V30 2792 H 250.785 -3.60325 -3.50963 0
M  V30 2793 H 250.485 -5.18945 -2.75626 0
M  V30 2794 H 252.009 -4.90037 -3.64274 0
M  V30 2795 H 253.423 -5.5429 -1.46408 0
M  V30 2796 H 251.82 -5.9494 -0.7853 0
M  V30 2797 H 252.89 -4.84795 0.100668 0
M  V30 2798 N 254.233 0.115231 -1.57178 0
M  V30 2799 C 255.461 0.836437 -1.89239 0
M  V30 2800 C 255.876 1.73256 -0.750175 0
M  V30 2801 O 255.233 1.80357 0.278832 0
M  V30 2802 C 255.284 1.66671 -3.20785 0
M  V30 2803 O 255.005 0.806652 -4.3061 0
M  V30 2804 C 256.506 2.49274 -3.66575 0
M  V30 2805 H 253.726 0.240253 -0.626514 0
M  V30 2806 H 256.27 0.0984932 -2.04263 0
M  V30 2807 H 254.425 2.35737 -3.0742 0
M  V30 2808 H 254.839 1.37969 -5.06028 0
M  V30 2809 H 256.313 3.03055 -4.6137 0
M  V30 2810 H 256.79 3.26807 -2.93417 0
M  V30 2811 H 257.396 1.85443 -3.82741 0
M  V30 2812 N 255.711 1.52812 0.385517 0
M  V30 2813 C 256.957 1.69225 1.12847 0
M  V30 2814 C 257.312 0.42864 1.87564 0
M  V30 2815 O 256.605 -0.57779 1.8268 0
M  V30 2816 C 256.799 2.86856 2.13187 0
M  V30 2817 C 256.628 4.24535 1.48325 0
M  V30 2818 C 255.398 4.89701 1.24585 0
M  V30 2819 C 257.596 5.05794 0.931501 0
M  V30 2820 N 255.578 6.11353 0.558644 0
M  V30 2821 C 256.949 6.1888 0.372552 0
M  V30 2822 C 259.004 4.90963 0.828248 0
M  V30 2823 C 257.707 7.18757 -0.279556 0
M  V30 2824 C 259.733 5.91095 0.189956 0
M  V30 2825 C 259.095 7.03489 -0.358207 0
M  V30 2826 H 255.194 0.67268 0.39878 0
M  V30 2827 H 257.778 1.9017 0.417528 0
M  V30 2828 H 255.949 2.67484 2.81614 0
M  V30 2829 H 257.681 2.92188 2.80014 0
M  V30 2830 H 254.436 4.48485 1.52178 0
M  V30 2831 H 254.86 6.76606 0.230983 0
M  V30 2832 H 259.502 4.04274 1.23784 0
M  V30 2833 H 257.22 8.05052 -0.701152 0
M  V30 2834 H 260.806 5.81694 0.111264 0
M  V30 2835 H 259.686 7.79642 -0.844314 0
M  V30 2836 N 257.189 -0.644168 1.43834 0
M  V30 2837 C 258.139 -1.7501 1.46135 0
M  V30 2838 C 259.123 -1.57507 0.328685 0
M  V30 2839 O 260.315 -1.67465 0.5731 0
M  V30 2840 C 257.444 -3.13641 1.39585 0
M  V30 2841 C 256.53 -3.3666 2.57916 0
M  V30 2842 N 256.921 -3.30107 3.83227 0
M  V30 2843 C 255.219 -3.67411 2.52834 0
M  V30 2844 C 255.92 -3.53456 4.61999 0
M  V30 2845 N 254.896 -3.75705 3.9287 0
M  V30 2846 H 258.698 -1.68382 2.40883 0
M  V30 2847 H 256.212 -0.846169 1.38614 0
M  V30 2848 H 258.209 -3.92933 1.39317 0
M  V30 2849 H 256.869 -3.21444 0.45865 0
M  V30 2850 H 257.88 -3.09316 4.15384 0
M  V30 2851 H 254.557 -3.82275 1.67845 0
M  V30 2852 H 255.947 -3.54093 5.71024 0
M  V30 2853 N 258.668 -1.30515 -0.883378 0
M  V30 2854 C 259.631 -1.1701 -1.97082 0
M  V30 2855 C 260.631 -0.10089 -1.60483 0
M  V30 2856 O 261.821 -0.349127 -1.70666 0
M  V30 2857 C 258.953 -0.793045 -3.31547 0
M  V30 2858 H 260.146 -2.13622 -2.10489 0
M  V30 2859 H 257.699 -1.13935 -1.06998 0
M  V30 2860 H 258.434 0.172499 -3.23841 0
M  V30 2861 H 258.219 -1.56576 -3.5948 0
M  V30 2862 H 259.709 -0.722073 -4.1131 0
M  V30 2863 N 260.146 1.09593 -1.13257 0
M  V30 2864 C 261.376 1.85231 -0.915049 0
M  V30 2865 C 261.784 1.81345 0.539498 0
M  V30 2866 O 261.127 1.20664 1.38513 0
M  V30 2867 C 261.189 3.34275 -1.3229 0
M  V30 2868 C 260.853 3.6191 -2.79052 0
M  V30 2869 C 261.85 3.57777 -3.77216 0
M  V30 2870 C 259.535 3.90309 -3.16171 0
M  V30 2871 C 261.529 3.81652 -5.1051 0
M  V30 2872 C 259.216 4.13839 -4.49644 0
M  V30 2873 C 260.214 4.09502 -5.46623 0
M  V30 2874 O 259.902 4.32426 -6.77689 0
M  V30 2875 H 259.634 0.591997 -0.326367 0
M  V30 2876 H 262.188 1.394 -1.50854 0
M  V30 2877 H 260.418 3.80805 -0.672667 0
M  V30 2878 H 262.107 3.9132 -1.07812 0
M  V30 2879 H 262.873 3.35865 -3.49885 0
M  V30 2880 H 258.752 3.92811 -2.41289 0
M  V30 2881 H 262.296 3.78182 -5.86195 0
M  V30 2882 H 258.193 4.35232 -4.767 0
M  V30 2883 H 258.961 4.49896 -6.83766 0
M  V30 2884 N 261.624 0.925811 1.2754 0
M  V30 2885 C 263.035 0.610102 1.7645 0
M  V30 2886 C 263.386 -0.874723 1.75622 0
M  V30 2887 O 262.511 -1.68444 1.35851 0
M  V30 2888 C 263.106 1.10073 3.20421 0
M  V30 2889 C 261.665 0.835723 3.67005 0
M  V30 2890 C 260.812 1.26054 2.46993 0
M  V30 2891 H 263.763 1.10579 1.13833 0
M  V30 2892 H 263.784 0.447557 3.77859 0
M  V30 2893 H 263.296 2.18143 3.20991 0
M  V30 2894 H 261.397 -0.231249 3.71882 0
M  V30 2895 H 261.51 1.45193 4.56569 0
M  V30 2896 H 259.874 0.679111 2.45479 0
M  V30 2897 H 260.657 2.34984 2.50275 0
M  V30 2898 N 263.102 -1.41638 0.69111 0
M  V30 2899 C 264.012 -2.34588 0.0233487 0
M  V30 2900 C 265.028 -1.55987 -0.770984 0
M  V30 2901 O 266.204 -1.88486 -0.709569 0
M  V30 2902 C 263.269 -3.34684 -0.904851 0
M  V30 2903 C 262.33 -4.29176 -0.103225 0
M  V30 2904 C 261.563 -5.2449 -0.987216 0
M  V30 2905 O 261.786 -5.2514 -2.22674 0
M  V30 2906 O 260.72 -6.00295 -0.439281 0
M  V30 2907 H 264.546 -2.93261 0.789416 0
M  V30 2908 H 262.131 -1.42417 0.45142 0
M  V30 2909 H 264.013 -3.96133 -1.43724 0
M  V30 2910 H 262.688 -2.78461 -1.65049 0
M  V30 2911 H 261.595 -3.71089 0.473655 0
M  V30 2912 H 262.928 -4.88484 0.60365 0
M  V30 2913 N 264.58 -0.43555 -1.51462 0
M  V30 2914 C 265.857 0.191364 -1.94662 0
M  V30 2915 C 266.237 1.60254 -1.37411 0
M  V30 2916 O 265.585 2.2152 -0.560458 0
M  V30 2917 C 265.795 0.17091 -3.48581 0
M  V30 2918 C 267.143 0.377357 -4.2292 0
M  V30 2919 O 268.167 0.249104 -3.55328 0
M  V30 2920 O 267.026 0.63247 -5.42828 0
M  V30 2921 H 264.12 0.130932 -0.816569 0
M  V30 2922 H 266.666 -0.4934 -1.62369 0
M  V30 2923 H 265.438 -0.815738 -3.82703 0
M  V30 2924 H 265.061 0.898659 -3.87311 0
M  V30 2925 N 266.058 1.56714 -0.166846 0
M  V30 2926 C 267.021 2.16539 0.751232 0
M  V30 2927 C 268.021 1.11228 1.16125 0
M  V30 2928 O 269.211 1.36765 1.07894 0
M  V30 2929 C 266.343 2.74462 2.02196 0
M  V30 2930 H 267.536 2.99013 0.230499 0
M  V30 2931 H 265.089 1.56081 0.0826982 0
M  V30 2932 H 265.824 1.95709 2.58589 0
M  V30 2933 H 265.609 3.51527 1.73698 0
M  V30 2934 H 267.099 3.20489 2.67725 0
M  V30 2935 N 267.536 -0.106894 1.57237 0
M  V30 2936 C 268.446 -1.14911 2.0453 0
M  V30 2937 C 269.462 -1.44592 0.96795 0
M  V30 2938 O 270.638 -1.55468 1.2803 0
M  V30 2939 C 267.703 -2.45272 2.45036 0
M  V30 2940 C 266.764 -2.22879 3.66911 0
M  V30 2941 C 265.997 -3.47024 4.05475 0
M  V30 2942 O 266.22 -4.54804 3.44252 0
M  V30 2943 O 265.154 -3.3731 4.98504 0
M  V30 2944 H 268.98 -0.777461 2.9358 0
M  V30 2945 H 266.565 -0.318563 1.45964 0
M  V30 2946 H 268.447 -3.22055 2.71769 0
M  V30 2947 H 267.122 -2.81886 1.59129 0
M  V30 2948 H 266.029 -1.43915 3.45311 0
M  V30 2949 H 267.362 -1.91163 4.53561 0
M  V30 2950 N 269.014 -1.53014 -0.377408 0
M  V30 2951 C 269.962 -1.7927 -1.48206 0
M  V30 2952 C 270.956 -0.661195 -1.55963 0
M  V30 2953 O 272.162 -0.843908 -1.58991 0
M  V30 2954 H 268.537 -0.567425 -0.493491 0
M  V30 2955 H 270.508 -2.71753 -1.2326 0
M  V30 2956 C 269.257 -1.98894 -2.85196 0
M  V30 2957 H 268.58 -2.85395 -2.79981 0
M  V30 2958 H 270.02 -2.21249 -3.61698 0
M  V30 2959 C 268.479 -0.764691 -3.28107 0
M  V30 2960 O 269.009 0.0523226 -4.01666 0
M  V30 2961 N 267.215 -0.591493 -2.84517 0
M  V30 2962 H 266.762 -1.25749 -2.24822 0
M  V30 2963 H 266.72 0.226253 -3.13585 0
M  V30 2964 N 270.492 0.636531 -1.44174 0
M  V30 2965 C 271.439 1.74875 -1.50624 0
M  V30 2966 C 272.409 1.62275 -0.35442 0
M  V30 2967 O 273.594 1.82276 -0.563908 0
M  V30 2968 C 270.734 3.13102 -1.45125 0
M  V30 2969 C 269.847 3.36717 -2.7064 0
M  V30 2970 C 268.982 4.64885 -2.57013 0
M  V30 2971 C 268.021 4.8166 -3.77717 0
M  V30 2972 N 267.158 6.01101 -3.62798 0
M  V30 2973 H 271.998 1.68697 -2.45653 0
M  V30 2974 H 269.535 0.823004 -1.21922 0
M  V30 2975 H 271.493 3.93034 -1.39929 0
M  V30 2976 H 270.123 3.18308 -0.536671 0
M  V30 2977 H 269.175 2.50763 -2.86046 0
M  V30 2978 H 270.487 3.44993 -3.60252 0
M  V30 2979 H 269.641 5.52969 -2.49619 0
M  V30 2980 H 268.38 4.58957 -1.64953 0
M  V30 2981 H 267.385 3.92007 -3.85501 0
M  V30 2982 H 268.61 4.89406 -4.70807 0
M  V30 2983 H 266.556 5.96273 -2.73486 0
M  V30 2984 H 266.473 6.10409 -4.46023 0
M  V30 2985 H 267.741 6.91761 -3.59286 0
M  V30 2986 N 271.97 1.30982 0.876444 0
M  V30 2987 C 272.88 1.2003 2.01569 0
M  V30 2988 C 273.896 0.11838 1.73597 0
M  V30 2989 O 275.072 0.33495 1.98595 0
M  V30 2990 C 272.137 0.901637 3.34771 0
M  V30 2991 C 271.198 2.06979 3.76109 0
M  V30 2992 C 270.431 1.78529 5.02954 0
M  V30 2993 O 270.654 0.717296 5.65872 0
M  V30 2994 O 269.588 2.64019 5.40905 0
M  V30 2995 H 273.414 2.15753 2.13739 0
M  V30 2996 H 270.999 1.10658 1.00375 0
M  V30 2997 H 272.881 0.750645 4.1466 0
M  V30 2998 H 271.556 -0.0256141 3.2369 0
M  V30 2999 H 270.463 2.27616 2.96887 0
M  V30 3000 H 271.796 2.97907 3.91807 0
M  V30 3001 N 273.449 -1.08991 1.13837 0
M  V30 3002 C 274.396 -2.15748 0.819835 0
M  V30 3003 C 275.366 -1.64636 -0.220026 0
M  V30 3004 O 276.551 -1.90582 -0.0912757 0
M  V30 3005 C 273.691 -3.4382 0.296913 0
M  V30 3006 C 272.804 -4.0881 1.39636 0
M  V30 3007 C 271.939 -5.24655 0.831314 0
M  V30 3008 C 270.978 -5.81575 1.90886 0
M  V30 3009 N 270.115 -6.88774 1.36142 0
M  V30 3010 H 274.955 -2.42338 1.73426 0
M  V30 3011 H 272.492 -1.18935 0.865613 0
M  V30 3012 H 274.45 -4.17193 -0.0244339 0
M  V30 3013 H 273.08 -3.17535 -0.580628 0
M  V30 3014 H 272.132 -3.33258 1.83422 0
M  V30 3015 H 273.444 -4.47141 2.21058 0
M  V30 3016 H 272.598 -6.04942 0.461515 0
M  V30 3017 H 271.337 -4.87698 -0.013932 0
M  V30 3018 H 270.342 -4.99946 2.28767 0
M  V30 3019 H 271.567 -6.20592 2.75758 0
M  V30 3020 H 269.513 -6.53788 0.538254 0
M  V30 3021 H 269.43 -7.25898 2.11208 0
M  V30 3022 H 270.698 -7.72806 1.01933 0
M  V30 3023 N 274.927 -0.932562 -1.27047 0
M  V30 3024 C 275.837 -0.441219 -2.30414 0
M  V30 3025 C 276.853 0.480525 -1.67233 0
M  V30 3026 O 278.029 0.362151 -1.98117 0
M  V30 3027 C 275.094 0.293651 -3.45454 0
M  V30 3028 C 274.155 -0.663601 -4.2414 0
M  V30 3029 C 273.388 0.0362932 -5.33688 0
M  V30 3030 O 273.611 1.2548 -5.56427 0
M  V30 3031 O 272.545 -0.638015 -5.98509 0
M  V30 3032 H 276.371 -1.29962 -2.74488 0
M  V30 3033 H 273.956 -0.6981 -1.32087 0
M  V30 3034 H 275.838 0.707951 -4.15411 0
M  V30 3035 H 274.513 1.12758 -3.03426 0
M  V30 3036 H 273.42 -1.12768 -3.56699 0
M  V30 3037 H 274.753 -1.46489 -4.69896 0
M  V30 3038 N 276.405 1.4127 -0.698611 0
M  V30 3039 C 277.633 2.05503 -0.239992 0
M  V30 3040 C 278.048 1.52584 1.11191 0
M  V30 3041 O 277.405 0.675323 1.69545 0
M  V30 3042 C 277.456 3.60987 -0.192429 0
M  V30 3043 O 277.177 4.1195 -1.49094 0
M  V30 3044 C 278.678 4.42371 0.28681 0
M  V30 3045 H 275.898 0.661748 -0.111045 0
M  V30 3046 H 278.442 1.80987 -0.95205 0
M  V30 3047 H 276.597 3.84533 0.470472 0
M  V30 3048 H 277.011 5.06018 -1.38007 0
M  V30 3049 H 278.485 5.51344 0.26896 0
M  V30 3050 H 278.962 4.18699 1.32619 0
M  V30 3051 H 279.568 4.23897 -0.345201 0
M  V30 3052 N 277.883 0.443576 1.51229 0
M  V30 3053 C 278.846 -0.353132 2.26463 0
M  V30 3054 C 279.846 -0.944338 1.3015 0
M  V30 3055 O 281.036 -0.817813 1.5381 0
M  V30 3056 C 278.168 -1.50023 3.06114 0
M  V30 3057 H 279.361 0.3063 2.98332 0
M  V30 3058 H 276.914 0.196902 1.55055 0
M  V30 3059 H 277.649 -2.19553 2.38677 0
M  V30 3060 H 277.434 -1.08241 3.76864 0
M  V30 3061 H 278.924 -2.06296 3.63087 0
M  V30 3062 N 279.361 -1.56624 0.175154 0
M  V30 3063 C 280.308 -2.18149 -0.753634 0
M  V30 3064 C 281.278 -1.12265 -1.22417 0
M  V30 3065 O 282.463 -1.40432 -1.29165 0
M  V30 3066 C 279.603 -2.82933 -1.97592 0
M  V30 3067 C 278.716 -4.03289 -1.5486 0
M  V30 3068 C 277.851 -4.55988 -2.72485 0
M  V30 3069 C 276.89 -5.68746 -2.26262 0
M  V30 3070 N 276.027 -6.15938 -3.36994 0
M  V30 3071 H 280.867 -2.9717 -0.222195 0
M  V30 3072 H 278.404 -1.46774 -0.0979422 0
M  V30 3073 H 280.362 -3.18653 -2.69288 0
M  V30 3074 H 278.992 -2.06509 -2.481 0
M  V30 3075 H 278.044 -3.73364 -0.728246 0
M  V30 3076 H 279.356 -4.849 -1.16933 0
M  V30 3077 H 278.51 -4.9391 -3.52332 0
M  V30 3078 H 277.249 -3.73443 -3.13674 0
M  V30 3079 H 276.254 -5.30372 -1.44863 0
M  V30 3080 H 277.479 -6.53095 -1.86127 0
M  V30 3081 H 275.425 -5.36321 -3.77751 0
M  V30 3082 H 275.342 -6.92548 -3.03172 0
M  V30 3083 H 276.61 -6.58511 -4.17114 0
M  V30 3084 N 280.839 0.0985539 -1.57292 0
M  V30 3085 C 282.064 0.820196 -1.90493 0
M  V30 3086 C 282.489 1.71658 -0.769094 0
M  V30 3087 O 281.847 1.79133 0.279495 0
M  V30 3088 C 281.895 1.61242 -3.22542 0
M  V30 3089 O 280.999 2.72108 -3.09888 0
M  V30 3090 H 280.34 0.225547 -0.62452 0
M  V30 3091 H 282.87 0.0748159 -2.04463 0
M  V30 3092 H 282.88 1.99737 -3.55766 0
M  V30 3093 H 281.555 0.954535 -4.04798 0
M  V30 3094 H 280.132 2.36667 -2.88172 0
M  V30 3095 O 282.356 1.59668 0.242586 0
M  V30 3096 H 283.047 1.72276 0.885483 0
M  V30 END ATOM
M  V30 BEGIN BOND
M  V30 END BOND
M  V30 END CTAB
M  END
$$$$
