drugbank_target|P46072 Major NAD(P)H-flavin oxidoreductase (DB01650; DB03247; DB03410)
 OpenBabel12092119503D

  0  0  0     0  0            999 V3000
M  V30 BEGIN CTAB
M  V30 COUNTS 3449 3488 0 0 0
M  V30 BEGIN ATOM
M  V30 1 H -0.908 1.98254 -0.117106 0
M  V30 2 N 0 1.576 0 0
M  V30 3 C 0.933 2.03868 1.02534 0
M  V30 4 C 1.911 0.928543 1.3348 0
M  V30 5 O 3.095 1.19667 1.45644 0
M  V30 6 C 0.222 2.43627 2.35294 0
M  V30 7 C -0.732 3.65373 2.2001 0
M  V30 8 S 0.101 5.13292 1.52614 0
M  V30 9 C 1.257 5.56322 2.86805 0
M  V30 10 H 1.49 2.90518 0.631377 0
M  V30 11 H -0.977 1.52953 0.210867 0
M  V30 12 H 0.981 2.67203 3.11629 0
M  V30 13 H -0.358 1.57376 2.7183 0
M  V30 14 H -1.165 3.90944 3.18086 0
M  V30 15 H -1.563 3.418 1.51819 0
M  V30 16 H 0.729 5.58782 3.83104 0
M  V30 17 H 1.672 6.56266 2.65933 0
M  V30 18 H 2.08 4.83886 2.90714 0
M  V30 19 N 1.4781 -0.272755 1.55222 0
M  V30 20 C 2.7061 -1.02255 1.79865 0
M  V30 21 C 3.1211 -1.79924 0.572088 0
M  V30 22 O 2.4781 -1.76638 -0.458842 0
M  V30 23 C 2.5291 -1.98094 3.02392 0
M  V30 24 O 2.2501 -1.23572 4.20311 0
M  V30 25 C 3.7511 -2.84884 3.39641 0
M  V30 26 H 0.9711 -0.302057 0.599168 0
M  V30 27 H 3.5151 -0.303465 2.02236 0
M  V30 28 H 1.6701 -2.65465 2.82147 0
M  V30 29 H 2.0841 -1.88172 4.89583 0
M  V30 30 H 3.5581 -3.47927 4.28545 0
M  V30 31 H 4.0351 -3.54665 2.59055 0
M  V30 32 H 4.6411 -2.23003 3.62146 0
M  V30 33 N 2.9562 -1.48159 -0.537278 0
M  V30 34 C 3.9062 -1.5854 -1.63857 0
M  V30 35 C 4.8902 -0.442969 -1.54682 0
M  V30 36 O 6.0822 -0.69401 -1.62827 0
M  V30 37 C 3.2112 -1.62144 -3.02596 0
M  V30 38 C 2.2972 -2.81841 -3.16901 0
M  V30 39 N 2.6882 -4.06337 -3.01204 0
M  V30 40 C 0.9862 -2.79021 -3.47942 0
M  V30 41 C 1.6872 -4.86606 -3.18731 0
M  V30 42 N 0.6632 -4.19288 -3.45974 0
M  V30 43 H 4.4652 -2.5255 -1.50319 0
M  V30 44 H 1.9792 -1.4443 -0.742555 0
M  V30 45 H 3.9762 -1.67674 -3.81695 0
M  V30 46 H 2.6362 -0.69245 -3.17231 0
M  V30 47 H 3.6472 -4.36888 -2.78117 0
M  V30 48 H 0.3242 -1.95347 -3.6898 0
M  V30 49 H 1.7142 -5.95385 -3.11394 0
M  V30 50 N 4.4343 0.785586 -1.36625 0
M  V30 51 C 5.8453 1.36101 -1.27803 0
M  V30 52 C 6.1963 1.96035 0.0804875 0
M  V30 53 O 5.3213 1.92834 0.982042 0
M  V30 54 C 5.9163 2.47442 -2.31426 0
M  V30 55 C 4.4753 3.00789 -2.26281 0
M  V30 56 C 3.6223 1.73896 -2.15999 0
M  V30 57 H 6.5733 0.586928 -1.47448 0
M  V30 58 H 6.5943 3.2656 -1.95291 0
M  V30 59 H 6.1063 2.03791 -3.30289 0
M  V30 60 H 4.2073 3.48851 -1.30896 0
M  V30 61 H 4.3203 3.57343 -3.19128 0
M  V30 62 H 2.6843 1.9628 -1.62316 0
M  V30 63 H 3.4673 1.32368 -3.16755 0
M  V30 64 N 5.9124 1.20967 1.01018 0
M  V30 65 C 7.1614 1.01796 1.74128 0
M  V30 66 C 7.4744 -0.449691 1.90361 0
M  V30 67 O 8.6804 -0.76068 2.60626 0
M  V30 68 C 7.1364 1.7727 3.13215 0
M  V30 69 C 6.7444 3.28171 3.04972 0
M  V30 70 C 8.4884 1.66489 3.90489 0
M  V30 71 C 6.3954 3.96156 4.39107 0
M  V30 72 H 5.3254 0.377276 0.652824 0
M  V30 73 H 7.9764 1.44651 1.12909 0
M  V30 74 H 6.3584 1.27205 3.75013 0
M  V30 75 H 7.5324 3.85499 2.52443 0
M  V30 76 H 5.8474 3.39437 2.41188 0
M  V30 77 H 8.4444 2.14617 4.89738 0
M  V30 78 H 8.7874 0.6222 4.11624 0
M  V30 79 H 9.3204 2.14003 3.35332 0
M  V30 80 H 6.0594 5.00604 4.23174 0
M  V30 81 H 5.5794 3.43617 4.91617 0
M  V30 82 H 7.2584 4.00774 5.07926 0
M  V30 83 N 7.3905 -1.2043 1.01659 0
M  V30 84 C 8.6395 -1.89118 0.701237 0
M  V30 85 C 8.9525 -1.79705 -0.772358 0
M  V30 86 O 10.1585 -2.43528 -1.20026 0
M  V30 87 C 8.6145 -3.39168 1.20388 0
M  V30 88 C 8.2225 -3.57166 2.70438 0
M  V30 89 C 9.9665 -4.1341 0.963953 0
M  V30 90 C 7.8735 -5.01042 3.14183 0
M  V30 91 H 6.8035 -0.708267 0.2586 0
M  V30 92 H 9.4545 -1.36239 1.22927 0
M  V30 93 H 7.8365 -3.91369 0.603824 0
M  V30 94 H 9.0105 -3.15351 3.35992 0
M  V30 95 H 7.3255 -2.96294 2.92572 0
M  V30 96 H 9.9225 -5.19491 1.26621 0
M  V30 97 H 10.2655 -4.16181 -0.099578 0
M  V30 98 H 10.7985 -3.67309 1.52738 0
M  V30 99 H 7.5375 -5.03426 4.19812 0
M  V30 100 H 7.0575 -5.43668 2.53348 0
M  V30 101 H 8.7365 -5.69623 3.0682 0
M  V30 102 N 8.8686 -0.792821 -1.36206 0
M  V30 103 C 9.8186 -0.166598 -2.27391 0
M  V30 104 C 10.8026 0.651479 -1.47121 0
M  V30 105 O 11.9946 0.510994 -1.69463 0
M  V30 106 C 9.1236 0.695033 -3.36191 0
M  V30 107 C 8.2096 -0.132019 -4.23894 0
M  V30 108 N 8.6006 -1.18822 -4.91645 0
M  V30 109 C 6.8986 0.0885952 -4.45912 0
M  V30 110 C 7.5996 -1.69198 -5.56549 0
M  V30 111 N 6.5756 -1.00065 -5.34311 0
M  V30 112 H 10.3776 -0.974947 -2.77258 0
M  V30 113 H 7.8916 -0.632616 -1.49572 0
M  V30 114 H 9.8886 1.1596 -4.00448 0
M  V30 115 H 8.5486 1.50189 -2.87877 0
M  V30 116 H 9.5596 -1.57069 -4.93507 0
M  V30 117 H 6.2366 0.865688 -4.08426 0
M  V30 118 H 7.6266 -2.57395 -6.20643 0
M  V30 119 N 10.3467 1.47872 -0.545128 0
M  V30 120 C 11.6237 1.9554 0.0485222 0
M  V30 121 C 12.0037 1.4876 1.49779 0
M  V30 122 O 11.3517 0.720925 2.16829 0
M  V30 123 C 11.5617 3.48898 -0.084417 0
M  V30 124 C 12.9097 4.24547 0.0671239 0
M  V30 125 O 13.9337 3.56198 -0.0113649 0
M  V30 126 O 12.7927 5.45999 0.233882 0
M  V30 127 H 9.8867 0.823957 0.0708773 0
M  V30 128 H 12.4327 1.58327 -0.610798 0
M  V30 129 H 11.2047 3.75714 -1.09337 0
M  V30 130 H 10.8277 3.92845 0.613066 0
M  V30 131 N 11.8248 0.280983 1.55075 0
M  V30 132 C 12.7548 -0.597469 2.25727 0
M  V30 133 C 13.7358 -1.15417 1.24952 0
M  V30 134 O 14.9208 -1.18722 1.53684 0
M  V30 135 C 12.0508 -1.7789 2.98283 0
M  V30 136 C 11.0048 -1.35347 4.06036 0
M  V30 137 C 10.3308 -2.61846 4.66198 0
M  V30 138 C 11.6308 -0.499354 5.19907 0
M  V30 139 H 13.3248 -0.00824265 2.99399 0
M  V30 140 H 10.8708 -0.0025244 1.44 0
M  V30 141 H 12.8238 -2.39937 3.46422 0
M  V30 142 H 11.5478 -2.39405 2.22155 0
M  V30 143 H 10.2068 -0.756156 3.58717 0
M  V30 144 H 9.8548 -3.21632 3.86732 0
M  V30 145 H 9.5548 -2.3409 5.38958 0
M  V30 146 H 11.0788 -3.24732 5.1709 0
M  V30 147 H 12.4928 -1.02498 5.64063 0
M  V30 148 H 10.8898 -0.316424 5.99265 0
M  V30 149 H 11.9598 0.480459 4.82514 0
M  V30 150 N 13.3029 -1.57598 0.00835791 0
M  V30 151 C 14.2129 -2.12385 -0.996487 0
M  V30 152 C 15.2289 -1.07108 -1.37127 0
M  V30 153 O 16.4049 -1.39055 -1.4569 0
M  V30 154 C 13.4699 -2.62314 -2.26699 0
M  V30 155 C 12.5309 -3.82225 -1.95456 0
M  V30 156 C 11.7639 -4.29763 -3.16449 0
M  V30 157 O 11.9869 -3.76584 -4.28416 0
M  V30 158 O 10.9209 -5.21832 -2.99958 0
M  V30 159 H 14.7469 -2.98479 -0.560725 0
M  V30 160 H 12.3319 -1.47903 -0.210987 0
M  V30 161 H 14.2139 -2.94589 -3.01322 0
M  V30 162 H 12.8889 -1.79313 -2.69497 0
M  V30 163 H 11.7959 -3.54909 -1.18282 0
M  V30 164 H 13.1289 -4.66324 -1.57489 0
M  V30 165 N 14.781 0.264519 -1.55364 0
M  V30 166 C 15.729 1.34702 -1.89626 0
M  V30 167 C 16.723 1.50712 -0.773459 0
M  V30 168 O 17.929 1.52395 -0.957897 0
M  V30 169 H 14.304 0.450682 -0.601988 0
M  V30 170 H 16.275 1.0306 -2.80038 0
M  V30 171 C 15.024 2.6989 -2.19214 0
M  V30 172 H 14.347 2.58365 -3.05103 0
M  V30 173 H 15.787 3.44553 -2.47102 0
M  V30 174 C 14.246 3.21637 -1.00254 0
M  V30 175 O 14.776 4.00973 -0.241501 0
M  V30 176 N 12.982 2.7943 -0.797938 0
M  V30 177 H 12.529 2.15026 -1.4185 0
M  V30 178 H 12.487 3.144 -0.00363422 0
M  V30 179 N 16.2591 1.48442 0.529413 0
M  V30 180 C 17.6751 1.34575 0.858004 0
M  V30 181 C 17.8751 0.3572 1.98309 0
M  V30 182 O 16.9311 -0.221379 2.51528 0
M  V30 183 C 18.2441 2.74617 1.22499 0
M  V30 184 C 19.7921 2.83109 1.33484 0
M  V30 185 C 20.2671 4.23854 1.73526 0
M  V30 186 N 21.7581 4.2653 1.80628 0
M  V30 187 C 22.4931 5.32372 2.12997 0
M  V30 188 N 21.9891 6.48491 2.43786 0
M  V30 189 N 23.7821 5.19766 2.14008 0
M  V30 190 H 15.9331 2.1133 -0.212925 0
M  V30 191 H 18.1961 0.947439 -0.0326199 0
M  V30 192 H 17.9021 3.4852 0.471905 0
M  V30 193 H 17.7761 3.08177 2.17501 0
M  V30 194 H 20.1631 2.09462 2.0787 0
M  V30 195 H 20.2441 2.53168 0.366027 0
M  V30 196 H 19.8881 4.98018 0.997013 0
M  V30 197 H 19.8181 4.5124 2.71459 0
M  V30 198 H 22.3091 3.42772 1.59108 0
M  V30 199 H 22.6221 7.24993 2.67592 0
M  V30 200 H 20.9671 6.51765 2.41304 0
M  V30 201 H 24.1581 4.28066 1.89412 0
M  V30 202 H 24.3311 6.02354 2.38902 0
M  V30 203 N 17.7372 -0.778329 1.37039 0
M  V30 204 C 18.9672 -1.56507 1.34868 0
M  V30 205 C 19.3752 -1.89072 -0.0694802 0
M  V30 206 O 18.7182 -1.51434 -1.03987 0
M  V30 207 C 18.7802 -2.90641 2.11585 0
M  V30 208 C 18.4442 -2.80746 3.60598 0
M  V30 209 C 19.4412 -2.52226 4.54618 0
M  V30 210 C 17.1262 -2.98974 4.03633 0
M  V30 211 C 19.1202 -2.42054 5.89651 0
M  V30 212 C 16.8072 -2.88423 5.38754 0
M  V30 213 C 17.8052 -2.60002 6.31576 0
M  V30 214 O 17.4932 -2.49465 7.64214 0
M  V30 215 H 17.2252 -0.491723 0.463879 0
M  V30 216 H 19.7792 -0.973053 1.80889 0
M  V30 217 H 18.0092 -3.51936 1.60243 0
M  V30 218 H 19.6982 -3.51992 2.0213 0
M  V30 219 H 20.4642 -2.37835 4.22681 0
M  V30 220 H 16.3432 -3.20099 3.31749 0
M  V30 221 H 19.8872 -2.19791 6.62071 0
M  V30 222 H 15.7842 -3.0238 5.70295 0
M  V30 223 H 16.5522 -2.64864 7.74461 0
M  V30 224 N 19.2153 -1.21501 -1.00376 0
M  V30 225 C 20.4433 -1.059 -1.77744 0
M  V30 226 C 20.8583 0.391125 -1.84704 0
M  V30 227 O 20.2153 1.27133 -1.30933 0
M  V30 228 C 20.2663 -1.65111 -3.21591 0
M  V30 229 O 19.9873 -3.0445 -3.15027 0
M  V30 230 C 21.4883 -1.54637 -4.15454 0
M  V30 231 H 18.7083 -0.371825 -0.558558 0
M  V30 232 H 21.2523 -1.60865 -1.26264 0
M  V30 233 H 19.4073 -1.14235 -3.70175 0
M  V30 234 H 19.8213 -3.3278 -4.0541 0
M  V30 235 H 21.2953 -2.00808 -5.14179 0
M  V30 236 H 21.7723 -0.501022 -4.36333 0
M  V30 237 H 22.3783 -2.04767 -3.72761 0
M  V30 238 N 20.6934 1.19889 -1.02296 0
M  V30 239 C 21.9184 1.9393 -0.735237 0
M  V30 240 C 22.3434 1.74639 0.698782 0
M  V30 241 O 21.7014 1.04481 1.48167 0
M  V30 242 C 21.7494 3.43916 -1.08417 0
M  V30 243 O 20.8534 4.11917 -0.199446 0
M  V30 244 H 20.1944 0.605645 -0.272196 0
M  V30 245 H 22.7244 1.52137 -1.36804 0
M  V30 246 H 22.7344 3.9456 -1.03856 0
M  V30 247 H 21.4094 3.5728 -2.12894 0
M  V30 248 H 19.9864 3.71666 -0.303136 0
M  V30 249 N 22.1715 0.800033 1.35784 0
M  V30 250 C 23.1185 0.203848 2.29898 0
M  V30 251 C 24.0885 -0.658375 1.52495 0
M  V30 252 O 25.2735 -0.604832 1.8096 0
M  V30 253 C 22.4135 -0.64688 3.38983 0
M  V30 254 C 21.5265 0.235054 4.3136 0
M  V30 255 C 20.6615 -0.623054 5.27533 0
M  V30 256 C 19.7005 0.259682 6.11549 0
M  V30 257 N 18.8375 -0.558019 6.99879 0
M  V30 258 H 23.6775 1.01186 2.80295 0
M  V30 259 H 21.2145 0.51053 1.37957 0
M  V30 260 H 23.1725 -1.15521 4.00887 0
M  V30 261 H 21.8025 -1.42021 2.89879 0
M  V30 262 H 20.8545 0.861438 3.70518 0
M  V30 263 H 22.1665 0.914768 4.9034 0
M  V30 264 H 21.3205 -1.19678 5.94779 0
M  V30 265 H 20.0595 -1.33636 4.69034 0
M  V30 266 H 19.0645 0.845726 5.43256 0
M  V30 267 H 20.2895 0.970748 6.72126 0
M  V30 268 H 18.2355 -1.25542 6.43875 0
M  V30 269 H 18.1525 0.0637872 7.55973 0
M  V30 270 H 19.4205 -1.11523 7.71481 0
M  V30 271 N 23.6496 -1.47581 0.552962 0
M  V30 272 C 24.5966 -2.29957 -0.197108 0
M  V30 273 C 25.5666 -1.38799 -0.912359 0
M  V30 274 O 26.7516 -1.67761 -0.908888 0
M  V30 275 C 23.8916 -3.22672 -1.22379 0
M  V30 276 C 23.0046 -4.28919 -0.515038 0
M  V30 277 C 22.1396 -5.0879 -1.52664 0
M  V30 278 C 21.1786 -6.06815 -0.802631 0
M  V30 279 N 20.3156 -6.7966 -1.76086 0
M  V30 280 H 25.1556 -2.93578 0.511486 0
M  V30 281 H 22.6926 -1.4471 0.264067 0
M  V30 282 H 24.6506 -3.74845 -1.83159 0
M  V30 283 H 23.2806 -2.60925 -1.90047 0
M  V30 284 H 22.3326 -3.79835 0.207192 0
M  V30 285 H 23.6446 -4.98773 0.0523425 0
M  V30 286 H 22.7986 -5.65091 -2.20809 0
M  V30 287 H 21.5376 -4.38828 -2.12794 0
M  V30 288 H 20.5426 -5.49695 -0.107238 0
M  V30 289 H 21.7676 -6.78784 -0.207135 0
M  V30 290 H 19.7136 -6.12432 -2.35081 0
M  V30 291 H 19.6306 -7.45669 -1.24552 0
M  V30 292 H 20.8986 -7.40538 -2.43359 0
M  V30 293 N 25.1277 -0.289203 -1.54924 0
M  V30 294 C 26.3577 0.325989 -2.04012 0
M  V30 295 C 26.7657 1.48961 -1.1665 0
M  V30 296 O 26.1087 1.82794 -0.1822 0
M  V30 297 C 26.1707 0.856112 -3.49158 0
M  V30 298 C 25.8347 -0.180697 -4.56643 0
M  V30 299 C 26.8317 -1.0051 -5.10092 0
M  V30 300 C 24.5167 -0.318998 -5.01286 0
M  V30 301 C 26.5107 -1.95385 -6.06715 0
M  V30 302 C 24.1977 -1.27121 -5.97732 0
M  V30 303 C 25.1957 -2.08713 -6.50329 0
M  V30 304 O 24.8837 -3.02322 -7.44887 0
M  V30 305 H 24.6157 0.0765276 -0.671654 0
M  V30 306 H 27.1697 -0.423254 -2.00992 0
M  V30 307 H 25.3997 1.65567 -3.49463 0
M  V30 308 H 27.0887 1.38591 -3.81507 0
M  V30 309 H 27.8547 -0.90906 -4.76404 0
M  V30 310 H 23.7337 0.306108 -4.59983 0
M  V30 311 H 27.2777 -2.59111 -6.47694 0
M  V30 312 H 23.1747 -1.36801 -6.30837 0
M  V30 313 H 23.9427 -2.97165 -7.6265 0
M  V30 314 N 26.6058 1.57591 -0.0167156 0
M  V30 315 C 27.8828 1.82547 0.702564 0
M  V30 316 C 28.2628 0.898018 1.91047 0
M  V30 317 O 27.6108 -0.0493456 2.28447 0
M  V30 318 C 27.8208 3.31459 1.09251 0
M  V30 319 C 29.1688 3.97622 1.48937 0
M  V30 320 O 30.1928 3.35881 1.18584 0
M  V30 321 O 29.0518 5.06415 2.05442 0
M  V30 322 H 26.1458 0.752268 0.343544 0
M  V30 323 H 28.6918 1.69644 -0.0434495 0
M  V30 324 H 27.4638 3.9061 0.23227 0
M  V30 325 H 27.0868 3.49422 1.89709 0
M  V30 326 N 28.0839 -0.256276 1.55502 0
M  V30 327 C 29.4949 -0.826068 1.67431 0
M  V30 328 C 29.8459 -1.86396 0.612446 0
M  V30 329 O 28.9709 -2.15031 -0.243025 0
M  V30 330 C 29.5659 -1.50512 3.03532 0
M  V30 331 C 28.1249 -2.02273 3.17431 0
M  V30 332 C 27.2719 -0.870548 2.63281 0
M  V30 333 H 30.2229 -0.0322728 1.58667 0
M  V30 334 H 30.2439 -2.37279 2.97454 0
M  V30 335 H 29.7559 -0.749484 3.80794 0
M  V30 336 H 27.8569 -2.80746 2.44974 0
M  V30 337 H 27.9699 -2.22655 4.24219 0
M  V30 338 H 26.3339 -1.26851 2.20864 0
M  V30 339 H 27.1169 -0.128149 3.43061 0
M  V30 340 N 29.562 -1.4872 -0.521534 0
M  V30 341 C 30.787 -1.61101 -1.30618 0
M  V30 342 C 31.212 -0.274611 -1.86085 0
M  V30 343 O 30.57 0.754937 -1.64834 0
M  V30 344 C 30.618 -2.66709 -2.4269 0
M  V30 345 O 29.722 -2.24456 -3.45967 0
M  V30 346 H 29.063 -0.539921 -0.386499 0
M  V30 347 H 31.593 -1.94767 -0.626645 0
M  V30 348 H 31.603 -2.88245 -2.88754 0
M  V30 349 H 30.278 -3.63727 -2.01682 0
M  V30 350 H 28.855 -2.13168 -3.05964 0
M  V30 351 N 31.0401 0.771051 -1.3745 0
M  V30 352 C 31.9871 1.88435 -1.3327 0
M  V30 353 C 32.9571 1.64914 -0.198136 0
M  V30 354 O 34.1421 1.86821 -0.387606 0
M  V30 355 C 31.2821 3.25509 -1.14622 0
M  V30 356 C 30.3951 3.60979 -2.37314 0
M  V30 357 C 29.5301 4.87265 -2.11533 0
M  V30 358 C 28.5691 5.15469 -3.30088 0
M  V30 359 N 27.7061 6.32944 -3.03853 0
M  V30 360 H 32.5461 1.91344 -2.28455 0
M  V30 361 H 30.0831 0.935466 -1.13523 0
M  V30 362 H 32.0411 4.04582 -1.01831 0
M  V30 363 H 30.6711 3.21974 -0.230837 0
M  V30 364 H 29.7231 2.76885 -2.60842 0
M  V30 365 H 31.0351 3.77759 -3.25729 0
M  V30 366 H 30.1891 5.74244 -1.95777 0
M  V30 367 H 28.9281 4.7259 -1.20457 0
M  V30 368 H 27.9331 4.26966 -3.46382 0
M  V30 369 H 29.1581 5.32052 -4.22016 0
M  V30 370 H 27.1041 6.19625 -2.15407 0
M  V30 371 H 27.0211 6.50143 -3.85812 0
M  V30 372 H 28.2891 7.22857 -2.91716 0
M  V30 373 N 32.5182 1.22032 0.997298 0
M  V30 374 C 33.4652 0.986467 2.08656 0
M  V30 375 C 34.4352 -0.0902671 1.65855 0
M  V30 376 O 35.6202 0.0584294 1.90711 0
M  V30 377 C 32.7602 0.565569 3.40434 0
M  V30 378 C 31.8732 1.71259 3.96604 0
M  V30 379 C 31.0082 1.24011 5.16522 0
M  V30 380 C 30.0472 2.35896 5.64818 0
M  V30 381 N 29.1842 1.89726 6.7598 0
M  V30 382 H 34.0242 1.91892 2.27994 0
M  V30 383 H 31.5612 0.956199 1.11782 0
M  V30 384 H 33.5192 0.302738 4.161 0
M  V30 385 H 32.1492 -0.329879 3.2111 0
M  V30 386 H 31.2012 2.08986 3.17851 0
M  V30 387 H 32.5132 2.55436 4.28432 0
M  V30 388 H 31.6672 0.934395 5.99461 0
M  V30 389 H 30.4062 0.368487 4.86306 0
M  V30 390 H 29.4112 2.67261 4.8047 0
M  V30 391 H 30.6362 3.23567 5.97061 0
M  V30 392 H 28.5822 1.0492 6.47555 0
M  V30 393 H 28.4992 2.67471 7.07103 0
M  V30 394 H 29.7672 1.62211 7.62435 0
M  V30 395 N 33.9963 -1.19345 1.0293 0
M  V30 396 C 35.2423 -1.89318 0.727083 0
M  V30 397 C 35.5753 -1.79446 -0.742483 0
M  V30 398 O 34.8503 -1.1871 -1.54072 0
M  V30 399 C 35.1333 -3.40238 1.17942 0
M  V30 400 C 34.9863 -3.58979 2.71024 0
M  V30 401 C 36.3053 -4.33479 0.760548 0
M  V30 402 H 33.4243 -0.687475 0.265606 0
M  V30 403 H 36.0663 -1.40477 1.2793 0
M  V30 404 H 34.2163 -3.81964 0.709608 0
M  V30 405 H 35.8883 -3.26421 3.25955 0
M  V30 406 H 34.1313 -3.02018 3.11396 0
M  V30 407 H 34.8023 -4.64823 2.9773 0
M  V30 408 H 37.2783 -3.99469 1.16464 0
M  V30 409 H 36.1543 -5.37664 1.10493 0
M  V30 410 H 36.4153 -4.40813 -0.337063 0
M  V30 411 N 35.4744 -0.807222 -1.35358 0
M  V30 412 C 36.6994 -0.399309 -2.0352 0
M  V30 413 C 37.1244 0.981986 -1.60433 0
M  V30 414 O 36.4824 1.63601 -0.781299 0
M  V30 415 C 36.5304 -0.491552 -3.57234 0
M  V30 416 O 35.6344 0.494754 -4.09421 0
M  V30 417 H 34.9754 -0.166682 -0.642739 0
M  V30 418 H 37.5054 -1.09328 -1.72941 0
M  V30 419 H 37.5154 -0.361588 -4.06395 0
M  V30 420 H 36.1904 -1.49907 -3.87944 0
M  V30 421 H 34.7674 0.324977 -3.71481 0
M  V30 422 N 36.9525 1.47285 -0.560781 0
M  V30 423 C 37.8845 2.28118 0.222438 0
M  V30 424 C 38.8975 1.37219 0.876056 0
M  V30 425 O 40.0865 1.62011 0.749307 0
M  V30 426 C 37.1865 3.1159 1.33285 0
M  V30 427 C 36.3595 4.30473 0.77534 0
M  V30 428 C 35.4185 4.95513 1.77069 0
M  V30 429 O 34.4445 5.53792 1.31539 0
M  V30 430 N 35.6465 4.90531 3.10418 0
M  V30 431 H 38.4115 2.95976 -0.470958 0
M  V30 432 H 35.9725 1.56955 -0.39709 0
M  V30 433 H 37.9645 3.51967 1.99752 0
M  V30 434 H 36.5345 2.45951 1.92943 0
M  V30 435 H 35.7545 3.94144 -0.0662113 0
M  V30 436 H 37.0425 5.07362 0.382272 0
M  V30 437 H 36.4405 4.44389 3.5005 0
M  V30 438 H 34.9975 5.34917 3.72434 0
M  V30 439 N 38.4306 0.297415 1.54768 0
M  V30 440 C 39.3406 -0.58983 2.27064 0
M  V30 441 C 40.3566 -1.15144 1.30453 0
M  V30 442 O 41.5326 -1.17699 1.63428 0
M  V30 443 C 38.5976 -1.74714 2.9946 0
M  V30 444 C 37.6586 -1.21997 4.11601 0
M  V30 445 C 36.8916 -2.32212 4.80535 0
M  V30 446 O 37.1146 -3.52036 4.48806 0
M  V30 447 O 36.0486 -1.99106 5.68014 0
M  V30 448 H 39.8746 -0.00348199 3.037 0
M  V30 449 H 37.4596 0.0640035 1.49263 0
M  V30 450 H 39.3416 -2.42147 3.44881 0
M  V30 451 H 38.0166 -2.32016 2.25722 0
M  V30 452 H 36.9236 -0.511458 3.70587 0
M  V30 453 H 38.2566 -0.692419 4.87305 0
M  V30 454 N 39.9087 -1.5758 0.0250728 0
M  V30 455 C 41.1857 -1.82917 -0.692873 0
M  V30 456 C 41.5657 -0.908137 -1.90568 0
M  V30 457 O 40.9137 0.0372298 -2.2847 0
M  V30 458 C 41.1237 -3.32034 -1.07492 0
M  V30 459 C 42.4717 -3.98406 -1.46826 0
M  V30 460 O 43.4957 -3.36505 -1.16801 0
M  V30 461 O 42.3547 -5.07497 -2.02754 0
M  V30 462 H 39.4487 -0.754079 -0.33955 0
M  V30 463 H 41.9947 -1.69619 0.0524456 0
M  V30 464 H 40.7667 -3.90728 -0.211552 0
M  V30 465 H 40.3897 -3.50424 -1.87854 0
M  V30 466 N 41.3868 0.248026 -1.55636 0
M  V30 467 C 42.3168 1.31079 -1.93237 0
M  V30 468 C 43.2978 1.50264 -0.797174 0
M  V30 469 O 44.4828 1.62891 -1.05737 0
M  V30 470 C 41.6128 2.66575 -2.22609 0
M  V30 471 C 40.5668 2.62087 -3.3837 0
M  V30 472 C 39.8928 4.01369 -3.53281 0
M  V30 473 C 41.1928 2.19171 -4.7409 0
M  V30 474 H 42.8868 0.998556 -2.82257 0
M  V30 475 H 40.4328 0.47891 -1.35803 0
M  V30 476 H 42.3858 3.41057 -2.47503 0
M  V30 477 H 41.1098 2.99432 -1.30414 0
M  V30 478 H 39.7688 1.90063 -3.13483 0
M  V30 479 H 39.4168 4.31489 -2.58508 0
M  V30 480 H 39.1168 3.99254 -4.31127 0
M  V30 481 H 40.6408 4.77552 -3.80495 0
M  V30 482 H 42.0548 2.83384 -4.98363 0
M  V30 483 H 40.4518 2.2817 -5.5503 0
M  V30 484 H 41.5218 1.14336 -4.71227 0
M  V30 485 N 42.8649 1.48995 0.513639 0
M  V30 486 C 43.8279 1.64229 1.59879 0
M  V30 487 C 44.8279 0.514696 1.5234 0
M  V30 488 O 46.0179 0.78087 1.55718 0
M  V30 489 C 43.1499 1.62783 2.99524 0
M  V30 490 H 44.3429 2.61004 1.47705 0
M  V30 491 H 41.8959 1.37837 0.736936 0
M  V30 492 H 42.6309 0.675461 3.17188 0
M  V30 493 H 42.4159 2.4466 3.06404 0
M  V30 494 H 43.9059 1.76669 3.78388 0
M  V30 495 N 44.343 -0.763751 1.37857 0
M  V30 496 C 45.589 -1.52483 1.33704 0
M  V30 497 C 45.922 -1.94051 -0.0759612 0
M  V30 498 O 45.197 -1.64675 -1.03501 0
M  V30 499 C 45.48 -2.78441 2.28348 0
M  V30 500 C 45.333 -2.43075 3.78463 0
M  V30 501 C 46.652 -3.80415 2.21298 0
M  V30 502 H 43.771 -0.553169 0.487005 0
M  V30 503 H 46.413 -0.875562 1.68624 0
M  V30 504 H 44.563 -3.33842 1.987 0
M  V30 505 H 46.235 -1.93527 4.18742 0
M  V30 506 H 44.478 -1.75666 3.96641 0
M  V30 507 H 45.149 -3.33149 4.40132 0
M  V30 508 H 47.625 -3.34527 2.47449 0
M  V30 509 H 46.501 -4.66257 2.89647 0
M  V30 510 H 46.762 -4.25262 1.20849 0
M  V30 511 N 45.8211 -1.22559 -0.990812 0
M  V30 512 C 46.7511 -1.0218 -2.09956 0
M  V30 513 C 47.7321 0.0579394 -1.70001 0
M  V30 514 O 48.9171 -0.104684 -1.93918 0
M  V30 515 C 46.0471 -0.601023 -3.4206 0
M  V30 516 C 45.0011 -1.62694 -3.95872 0
M  V30 517 C 44.3271 -1.06193 -5.24049 0
M  V30 518 C 45.6271 -3.01743 -4.2632 0
M  V30 519 H 47.3211 -1.94916 -2.27262 0
M  V30 520 H 44.8671 -0.938566 -1.09211 0
M  V30 521 H 46.8201 -0.445561 -4.19038 0
M  V30 522 H 45.5441 0.362005 -3.24588 0
M  V30 523 H 44.2031 -1.77021 -3.21028 0
M  V30 524 H 43.8511 -0.0901903 -5.02919 0
M  V30 525 H 43.5511 -1.74732 -5.61019 0
M  V30 526 H 45.0751 -0.918092 -6.03658 0
M  V30 527 H 46.4891 -2.90777 -4.94087 0
M  V30 528 H 44.8861 -3.67425 -4.74467 0
M  V30 529 H 45.9561 -3.51518 -3.34011 0
M  V30 530 N 47.2992 1.18797 -1.03562 0
M  V30 531 C 48.2292 2.24472 -0.643019 0
M  V30 532 C 49.2102 1.66433 0.351283 0
M  V30 533 O 50.3952 1.92803 0.232505 0
M  V30 534 C 47.5252 3.473 4.24935e-05 0
M  V30 535 C 46.4792 4.18055 -0.917257 0
M  V30 536 C 45.8052 5.34519 -0.138941 0
M  V30 537 C 47.1052 4.72109 -2.23407 0
M  V30 538 H 48.7992 2.57566 -1.52643 0
M  V30 539 H 46.3452 1.23806 -0.735394 0
M  V30 540 H 48.2982 4.20426 0.286383 0
M  V30 541 H 47.0222 3.13424 0.918299 0
M  V30 542 H 45.6812 3.46821 -1.1879 0
M  V30 543 H 45.3292 4.96891 0.781562 0
M  V30 544 H 45.0292 5.82794 -0.750005 0
M  V30 545 H 46.5532 6.10438 0.1405 0
M  V30 546 H 47.9672 5.36955 -2.00879 0
M  V30 547 H 46.3642 5.30897 -2.79765 0
M  V30 548 H 47.4342 3.89807 -2.88407 0
M  V30 549 N 48.7773 0.814389 1.34928 0
M  V30 550 C 49.6873 0.231978 2.3345 0
M  V30 551 C 50.7033 -0.629139 1.62228 0
M  V30 552 O 51.8793 -0.539052 1.94052 0
M  V30 553 C 48.9443 -0.603482 3.41407 0
M  V30 554 C 48.0053 0.279037 4.28392 0
M  V30 555 C 47.2383 -0.516643 5.31193 0
M  V30 556 O 47.4613 -1.75068 5.4287 0
M  V30 557 O 46.3953 0.0965652 6.01823 0
M  V30 558 H 50.2213 1.04721 2.85074 0
M  V30 559 H 47.8063 0.576343 1.37836 0
M  V30 560 H 49.6883 -1.07908 4.0735 0
M  V30 561 H 48.3633 -1.39618 2.92042 0
M  V30 562 H 47.2703 0.801948 3.65403 0
M  V30 563 H 48.6033 1.03588 4.81176 0
M  V30 564 N 50.2554 -1.46986 0.568584 0
M  V30 565 C 51.2184 -2.28624 -0.162366 0
M  V30 566 C 52.2184 -1.37596 -0.832103 0
M  V30 567 O 53.4084 -1.60115 -0.68622 0
M  V30 568 C 50.5404 -3.17596 -1.23878 0
M  V30 569 H 51.7334 -2.94722 0.554899 0
M  V30 570 H 49.2864 -1.52863 0.325976 0
M  V30 571 H 50.0214 -2.56214 -1.98808 0
M  V30 572 H 49.8064 -3.846 -0.763219 0
M  V30 573 H 51.2964 -3.79078 -1.75185 0
M  V30 574 N 51.7335 -0.305618 -1.54608 0
M  V30 575 C 52.6635 0.561482 -2.26649 0
M  V30 576 C 53.6445 1.13415 -1.26772 0
M  V30 577 O 54.8295 1.16262 -1.55553 0
M  V30 578 C 51.9595 1.73122 -3.01075 0
M  V30 579 C 50.9135 1.2887 -4.08138 0
M  V30 580 C 50.2395 2.54396 -4.70305 0
M  V30 581 C 51.5395 0.416578 -5.20636 0
M  V30 582 H 53.2335 -0.0393902 -2.99374 0
M  V30 583 H 50.7795 -0.020385 -1.43986 0
M  V30 584 H 52.7325 2.34396 -3.50195 0
M  V30 585 H 51.4565 2.3584 -2.25936 0
M  V30 586 H 50.1155 0.698991 -3.59875 0
M  V30 587 H 49.7635 3.15439 -3.918 0
M  V30 588 H 49.4635 2.25486 -5.42614 0
M  V30 589 H 50.9875 3.16464 -5.2219 0
M  V30 590 H 52.4015 0.935116 -5.65622 0
M  V30 591 H 50.7985 0.221046 -5.99693 0
M  V30 592 H 51.8685 -0.557162 -4.81688 0
M  V30 593 N 53.2116 1.57565 -0.0334293 0
M  V30 594 C 54.6276 1.56297 0.322997 0
M  V30 595 C 54.8276 1.03945 1.7262 0
M  V30 596 O 53.8836 0.688109 2.42943 0
M  V30 597 C 55.1966 3.00232 0.167664 0
M  V30 598 C 56.7446 3.12078 0.240107 0
M  V30 599 C 57.2196 4.57859 0.113513 0
M  V30 600 N 58.7106 4.62887 0.170359 0
M  V30 601 C 59.4456 5.73319 0.0962517 0
M  V30 602 N 58.9416 6.92794 -0.0291881 0
M  V30 603 N 60.7346 5.61898 0.150551 0
M  V30 604 H 52.8856 1.89923 -0.950956 0
M  V30 605 H 55.1486 0.873824 -0.367608 0
M  V30 606 H 54.8546 3.42501 -0.799102 0
M  V30 607 H 54.7286 3.654 0.936083 0
M  V30 608 H 57.1156 2.69718 1.19733 0
M  V30 609 H 57.1966 2.49623 -0.558763 0
M  V30 610 H 56.8406 5.009 -0.840314 0
M  V30 611 H 56.7706 5.18299 0.931302 0
M  V30 612 H 59.2616 3.76954 0.26728 0
M  V30 613 H 59.5746 7.7276 -0.0789252 0
M  V30 614 H 57.9196 6.94971 -0.0640299 0
M  V30 615 H 61.1106 4.67448 0.246981 0
M  V30 616 H 61.2836 6.47938 0.0893365 0
M  V30 617 N 54.6897 -0.239769 1.55765 0
M  V30 618 C 55.6197 -1.30052 1.9393 0
M  V30 619 C 56.6007 -1.49839 0.805132 0
M  V30 620 O 57.7857 -1.62328 1.06599 0
M  V30 621 C 54.9157 -2.65391 2.2402 0
M  V30 622 C 53.8697 -2.60289 3.39755 0
M  V30 623 C 53.1957 -3.99489 3.55405 0
M  V30 624 C 54.4957 -2.16654 4.75246 0
M  V30 625 H 56.1897 -0.983573 2.82783 0
M  V30 626 H 53.7357 -0.471701 1.36055 0
M  V30 627 H 55.6887 -3.3974 2.49308 0
M  V30 628 H 54.4127 -2.98736 1.32 0
M  V30 629 H 53.0717 -1.88398 3.14487 0
M  V30 630 H 52.7197 -4.30112 2.60793 0
M  V30 631 H 52.4197 -3.96962 4.33238 0
M  V30 632 H 53.9437 -4.75528 3.83022 0
M  V30 633 H 55.3577 -2.80737 4.99859 0
M  V30 634 H 53.7547 -2.25223 5.56232 0
M  V30 635 H 54.8247 -1.11835 4.71827 0
M  V30 636 N 56.1678 -1.49265 -0.50573 0
M  V30 637 C 57.3928 -1.62478 -1.28902 0
M  V30 638 C 57.8178 -0.294332 -1.85783 0
M  V30 639 O 57.1758 0.737412 -1.65626 0
M  V30 640 C 57.2238 -2.69268 -2.39848 0
M  V30 641 O 56.3278 -2.28113 -3.43567 0
M  V30 642 H 55.6688 -0.54399 -0.380751 0
M  V30 643 H 58.1988 -1.95421 -0.605952 0
M  V30 644 H 58.2088 -2.91291 -2.85681 0
M  V30 645 H 56.8838 -3.65846 -1.97812 0
M  V30 646 H 55.4608 -2.16401 -3.03685 0
M  V30 647 N 57.6459 0.756429 -1.3826 0
M  V30 648 C 58.6089 1.85176 -1.35065 0
M  V30 649 C 59.6089 1.58818 -0.251703 0
M  V30 650 O 60.7989 1.66615 -0.508433 0
M  V30 651 C 57.9309 3.22596 -1.10201 0
M  V30 652 H 59.1239 1.89417 -2.3251 0
M  V30 653 H 56.6769 0.95783 -1.23512 0
M  V30 654 H 57.4119 3.24025 -0.133504 0
M  V30 655 H 57.1969 3.43122 -1.89762 0
M  V30 656 H 58.6869 4.02673 -1.10654 0
M  V30 657 N 59.124 1.23083 0.984299 0
M  V30 658 C 60.349 1.088 1.76571 0
M  V30 659 C 60.774 -0.356657 1.84688 0
M  V30 660 O 60.132 -1.25788 1.30565 0
M  V30 661 C 60.18 1.71371 3.17277 0
M  V30 662 O 59.284 0.973213 4.00752 0
M  V30 663 H 58.625 0.381599 0.543395 0
M  V30 664 H 61.155 1.63057 1.23587 0
M  V30 665 H 61.165 1.76449 3.67872 0
M  V30 666 H 59.84 2.76493 3.10684 0
M  V30 667 H 58.417 0.999078 3.59267 0
M  V30 668 N 60.6021 -1.18246 1.0419 0
M  V30 669 C 61.8271 -1.92736 0.765996 0
M  V30 670 C 62.2521 -1.75728 -0.67091 0
M  V30 671 O 61.6101 -1.06825 -1.46486 0
M  V30 672 C 61.6581 -3.42148 1.13875 0
M  V30 673 O 60.7621 -4.11548 0.264954 0
M  V30 674 H 60.1031 -0.601238 0.281797 0
M  V30 675 H 62.6331 -1.49942 1.39207 0
M  V30 676 H 62.6431 -3.92858 1.1012 0
M  V30 677 H 61.3181 -3.53848 2.18551 0
M  V30 678 H 59.8951 -3.71137 0.362226 0
M  V30 679 N 62.0802 -0.821533 -1.34494 0
M  V30 680 C 63.3292 -0.405355 -1.97585 0
M  V30 681 C 63.6422 1.03677 -1.65863 0
M  V30 682 O 64.8482 1.55679 -2.22433 0
M  V30 683 C 63.3042 -0.673861 -3.53535 0
M  V30 684 C 62.9122 -2.12951 -3.94152 0
M  V30 685 C 64.6562 -0.32378 -4.23263 0
M  V30 686 C 62.5632 -2.34298 -5.43009 0
M  V30 687 H 61.4932 -0.147836 -0.739365 0
M  V30 688 H 64.1442 -1.00769 -1.53355 0
M  V30 689 H 62.5262 -0.00137554 -3.96 0
M  V30 690 H 63.7002 -2.84104 -3.62797 0
M  V30 691 H 62.0152 -2.44089 -3.37356 0
M  V30 692 H 64.6122 -0.461126 -5.32708 0
M  V30 693 H 64.9552 0.731586 -4.09821 0
M  V30 694 H 65.4882 -0.950786 -3.8627 0
M  V30 695 H 62.2272 -3.38335 -5.61435 0
M  V30 696 H 61.7472 -1.67687 -5.75883 0
M  V30 697 H 63.4262 -2.16588 -6.09671 0
M  V30 698 N 63.5583 1.46682 -0.576371 0
M  V30 699 C 64.5063 2.31953 0.17335 0
M  V30 700 C 65.5003 1.44098 0.89062 0
M  V30 701 O 66.7063 1.60759 0.809728 0
M  V30 702 H 63.0813 0.748273 0.0747727 0
M  V30 703 H 65.0523 2.93007 -0.564738 0
M  V30 704 C 63.8013 3.27142 1.17786 0
M  V30 705 H 63.1243 3.94719 0.635361 0
M  V30 706 H 64.5643 3.896 1.67296 0
M  V30 707 C 63.0233 2.52036 2.23561 0
M  V30 708 O 63.5533 2.27877 3.3081 0
M  V30 709 N 61.7593 2.12709 1.97998 0
M  V30 710 H 61.3063 2.32557 1.10792 0
M  V30 711 H 61.2643 1.62776 2.68982 0
M  V30 712 N 65.0364 0.313813 1.54444 0
M  V30 713 C 66.2614 -0.296681 2.05267 0
M  V30 714 C 66.6864 -1.45757 1.18897 0
M  V30 715 O 66.0444 -1.80239 0.195886 0
M  V30 716 C 66.0924 -0.71831 3.53373 0
M  V30 717 O 65.1964 -1.82175 3.69981 0
M  V30 718 H 64.5374 -0.0554061 0.661684 0
M  V30 719 H 67.0674 0.459387 1.99376 0
M  V30 720 H 67.0774 -1.00364 3.95463 0
M  V30 721 H 65.7524 0.130821 4.15694 0
M  V30 722 H 64.3294 -1.53598 3.39797 0
M  V30 723 N 66.5145 -1.57545 0.0417849 0
M  V30 724 C 67.4465 -2.07904 -0.964799 0
M  V30 725 C 68.4595 -1.00497 -1.28079 0
M  V30 726 O 69.6485 -1.28087 -1.24322 0
M  V30 727 C 66.7485 -2.49928 -2.28887 0
M  V30 728 C 65.9215 -3.80562 -2.15619 0
M  V30 729 C 64.9805 -4.08999 -3.31069 0
M  V30 730 O 64.0065 -4.79061 -3.0739 0
M  V30 731 N 65.2085 -3.6017 -4.55256 0
M  V30 732 H 67.9735 -2.94886 -0.535029 0
M  V30 733 H 65.5345 -1.61252 -0.144681 0
M  V30 734 H 67.5265 -2.66034 -3.04972 0
M  V30 735 H 66.0965 -1.68245 -2.63463 0
M  V30 736 H 65.3165 -3.74129 -1.24183 0
M  V30 737 H 66.6045 -4.66126 -2.03971 0
M  V30 738 H 66.0025 -3.03512 -4.77386 0
M  V30 739 H 64.5595 -3.81532 -5.28466 0
M  V30 740 N 67.9926 0.231505 -1.5589 0
M  V30 741 C 69.4036 0.799327 -1.68724 0
M  V30 742 C 69.7546 1.85398 -0.642022 0
M  V30 743 O 68.8796 2.1539 0.208784 0
M  V30 744 C 69.4746 1.45664 -3.05888 0
M  V30 745 C 68.0336 1.97197 -3.20609 0
M  V30 746 C 67.1806 0.828552 -2.64632 0
M  V30 747 H 70.1316 0.00702616 -1.58698 0
M  V30 748 H 70.1526 2.32517 -3.01191 0
M  V30 749 H 69.6646 0.688808 -3.81939 0
M  V30 750 H 67.7656 2.76813 -2.4941 0
M  V30 751 H 67.8786 2.15878 -4.27707 0
M  V30 752 H 66.2426 1.23321 -2.22854 0
M  V30 753 H 67.0256 0.0735544 -3.43221 0
M  V30 754 N 69.4707 1.49531 0.497807 0
M  V30 755 C 70.7167 1.60388 1.25089 0
M  V30 756 C 71.0717 0.288328 1.90227 0
M  V30 757 O 70.3647 -0.711706 1.77891 0
M  V30 758 C 70.5587 2.70252 2.33878 0
M  V30 759 C 70.3877 4.12363 1.79408 0
M  V30 760 C 69.1577 4.7911 1.60566 0
M  V30 761 C 71.3557 4.97491 1.30412 0
M  V30 762 N 69.3377 6.05525 1.01059 0
M  V30 763 C 70.7087 6.14411 0.830595 0
M  V30 764 C 72.7637 4.83466 1.19015 0
M  V30 765 C 71.4667 7.1885 0.254371 0
M  V30 766 C 73.4927 5.88057 0.627892 0
M  V30 767 C 72.8547 7.04208 0.16461 0
M  V30 768 H 68.9537 0.641246 0.447579 0
M  V30 769 H 71.5377 1.86549 0.557441 0
M  V30 770 H 69.7087 2.45858 3.0068 0
M  V30 771 H 71.4407 2.70613 3.00917 0
M  V30 772 H 68.1957 4.35961 1.85026 0
M  V30 773 H 68.6197 6.73028 0.732236 0
M  V30 774 H 73.2617 3.93978 1.53431 0
M  V30 775 H 70.9797 8.08036 -0.102052 0
M  V30 776 H 74.5657 5.79266 0.542444 0
M  V30 777 H 73.4457 7.83757 -0.263669 0
M  V30 778 N 70.9488 -0.749086 1.3866 0
M  V30 779 C 71.8958 -1.86291 1.36251 0
M  V30 780 C 72.8658 -1.64578 0.224347 0
M  V30 781 O 74.0508 -1.86181 0.417279 0
M  V30 782 C 71.1908 -3.23644 1.19786 0
M  V30 783 C 70.3038 -3.57158 2.43027 0
M  V30 784 C 69.4388 -4.83838 2.19258 0
M  V30 785 C 68.4778 -5.10152 3.38247 0
M  V30 786 N 67.6148 -6.28029 3.13884 0
M  V30 787 H 72.4548 -1.87685 2.3147 0
M  V30 788 H 69.9918 -0.917287 1.14997 0
M  V30 789 H 71.9498 -4.0291 1.08254 0
M  V30 790 H 70.5798 -3.21566 0.282031 0
M  V30 791 H 69.6318 -2.72701 2.65214 0
M  V30 792 H 70.9438 -3.7253 3.31697 0
M  V30 793 H 70.0978 -5.71057 2.04888 0
M  V30 794 H 68.8368 -4.70614 1.2796 0
M  V30 795 H 67.8418 -4.21401 3.53131 0
M  V30 796 H 69.0668 -5.25271 4.30427 0
M  V30 797 H 67.0128 -6.1612 2.25238 0
M  V30 798 H 66.9298 -6.43922 3.96106 0
M  V30 799 H 68.1978 -7.18124 3.03179 0
M  V30 800 N 72.4269 -1.23603 -0.977757 0
M  V30 801 C 73.6739 -1.06971 -1.71941 0
M  V30 802 C 74.0019 0.393009 -1.90488 0
M  V30 803 O 73.2569 1.30719 -1.4564 0
M  V30 804 C 73.5559 -1.7433 -3.11999 0
M  V30 805 C 73.2219 -3.24252 -3.13323 0
M  V30 806 C 71.8839 -3.65156 -3.13392 0
M  V30 807 C 74.2359 -4.20141 -3.08433 0
M  V30 808 C 71.5639 -5.00403 -3.0629 0
M  V30 809 C 73.9159 -5.55384 -3.02873 0
M  V30 810 C 72.5799 -5.95647 -3.01265 0
M  V30 811 H 71.8499 -0.391433 -0.629175 0
M  V30 812 H 74.4969 -1.53572 -1.14403 0
M  V30 813 H 72.8019 -1.20096 -3.7294 0
M  V30 814 H 74.4989 -1.58936 -3.68158 0
M  V30 815 H 71.0889 -2.91692 -3.14029 0
M  V30 816 H 75.2729 -3.89547 -3.07517 0
M  V30 817 H 70.5289 -5.3081 -3.03399 0
M  V30 818 H 74.7029 -6.29398 -2.98046 0
M  V30 819 H 72.3299 -7.0041 -2.95516 0
M  V30 820 N 73.905 1.17692 -1.04816 0
M  V30 821 C 75.154 1.87192 -0.751132 0
M  V30 822 C 75.467 1.8169 0.724441 0
M  V30 823 O 76.673 2.46625 1.13527 0
M  V30 824 C 75.129 3.35857 -1.29338 0
M  V30 825 C 74.737 3.4987 -2.79812 0
M  V30 826 C 76.481 4.10709 -1.07322 0
M  V30 827 C 74.388 4.92536 -3.27356 0
M  V30 828 H 73.318 0.701162 -0.277288 0
M  V30 829 H 75.969 1.32932 -1.26496 0
M  V30 830 H 74.351 3.89631 -0.707376 0
M  V30 831 H 75.525 3.06332 -3.44235 0
M  V30 832 H 73.84 2.88433 -3.00325 0
M  V30 833 H 76.437 5.15952 -1.4035 0
M  V30 834 H 76.78 4.16299 -0.0108001 0
M  V30 835 H 77.313 3.6313 -1.62423 0
M  V30 836 H 74.052 4.92119 -4.33012 0
M  V30 837 H 73.572 5.3676 -2.67673 0
M  V30 838 H 75.251 5.61288 -3.21815 0
M  V30 839 N 75.3831 0.828654 1.34056 0
M  V30 840 C 76.6291 0.42008 1.98402 0
M  V30 841 C 76.9621 -1.01564 1.65525 0
M  V30 842 O 76.2371 -1.70834 0.929831 0
M  V30 843 C 76.5201 0.62927 3.54559 0
M  V30 844 C 76.3731 2.11152 3.97159 0
M  V30 845 C 77.6921 0.0688756 4.40046 0
M  V30 846 H 74.8111 0.154104 0.720709 0
M  V30 847 H 77.4531 1.04228 1.5886 0
M  V30 848 H 75.6031 0.0996418 3.88372 0
M  V30 849 H 77.2751 2.70522 3.73651 0
M  V30 850 H 75.5181 2.59985 3.47261 0
M  V30 851 H 76.1891 2.20868 5.05887 0
M  V30 852 H 78.6651 0.521458 4.1282 0
M  V30 853 H 77.5411 0.245006 5.48353 0
M  V30 854 H 77.8021 -1.0266 4.30015 0
M  V30 855 N 76.8612 -1.46375 0.584142 0
M  V30 856 C 78.1102 -2.01585 0.0679741 0
M  V30 857 C 78.4232 -1.46109 -1.30045 0
M  V30 858 O 79.6292 -1.93148 -1.90804 0
M  V30 859 C 78.0852 -3.5983 0.0709207 0
M  V30 860 C 77.6932 -4.24303 1.43775 0
M  V30 861 C 79.4372 -4.22693 -0.391228 0
M  V30 862 C 77.3442 -5.74631 1.39834 0
M  V30 863 H 76.2742 -0.753689 0.0216421 0
M  V30 864 H 78.9252 -1.68093 0.736001 0
M  V30 865 H 77.3072 -3.90405 -0.663299 0
M  V30 866 H 78.4812 -4.05335 2.19181 0
M  V30 867 H 76.7962 -3.73539 1.84004 0
M  V30 868 H 79.3932 -5.3289 -0.439524 0
M  V30 869 H 79.7362 -3.91728 -1.40906 0
M  V30 870 H 80.2692 -3.96749 0.288974 0
M  V30 871 H 77.0082 -6.10258 2.39303 0
M  V30 872 H 76.5282 -5.95858 0.686505 0
M  V30 873 H 78.2072 -6.37375 1.11187 0
M  V30 874 N 78.3393 -0.321999 -1.54275 0
M  V30 875 C 79.2493 0.553631 -2.27974 0
M  V30 876 C 80.2653 1.13054 -1.32268 0
M  V30 877 O 81.4413 1.15084 -1.6528 0
M  V30 878 C 78.5063 1.69927 -3.02201 0
M  V30 879 C 77.5673 1.15433 -4.1349 0
M  V30 880 C 76.8003 2.24537 -4.84168 0
M  V30 881 O 77.0233 3.44852 -4.5435 0
M  V30 882 O 75.9573 1.90044 -5.7111 0
M  V30 883 H 79.7833 -0.0448345 -3.03667 0
M  V30 884 H 77.3683 -0.0877418 -1.49142 0
M  V30 885 H 79.2503 2.3663 -3.48689 0
M  V30 886 H 77.9253 2.28395 -2.29385 0
M  V30 887 H 76.8323 0.452436 -3.71354 0
M  V30 888 H 78.1653 0.614805 -4.88345 0
M  V30 889 N 79.8174 1.5752 -0.0501392 0
M  V30 890 C 81.0424 1.97376 0.636997 0
M  V30 891 C 81.4674 0.927466 1.63645 0
M  V30 892 O 80.8254 -0.10941 1.8097 0
M  V30 893 C 80.8734 3.36304 1.30123 0
M  V30 894 O 79.9774 3.34156 2.41689 0
M  V30 895 H 79.3184 0.642998 0.165679 0
M  V30 896 H 81.8484 2.04258 -0.118233 0
M  V30 897 H 81.8584 3.73008 1.65315 0
M  V30 898 H 80.5334 4.11993 0.568746 0
M  V30 899 H 79.1104 3.09196 2.08451 0
M  V30 900 N 81.2955 -0.223234 1.56011 0
M  V30 901 C 82.5725 -0.972108 1.69733 0
M  V30 902 C 82.9525 -2.02485 0.59691 0
M  V30 903 O 82.3005 -2.25037 -0.396324 0
M  V30 904 C 82.5105 -1.58407 3.10979 0
M  V30 905 C 83.8585 -2.07696 3.70334 0
M  V30 906 O 84.8825 -1.68304 3.1393 0
M  V30 907 O 83.7415 -2.80096 4.69264 0
M  V30 908 H 80.8355 -0.453993 0.691245 0
M  V30 909 H 83.3815 -0.215149 1.68331 0
M  V30 910 H 82.1535 -0.823831 3.82529 0
M  V30 911 H 81.7765 -2.40661 3.16493 0
M  V30 912 N 82.7736 -1.49793 -0.48987 0
M  V30 913 C 83.7366 -1.66752 -1.57246 0
M  V30 914 C 84.7366 -0.538867 -1.51502 0
M  V30 915 O 85.9266 -0.805545 -1.54456 0
M  V30 916 C 83.0586 -1.67528 -2.96896 0
M  V30 917 H 84.2516 -2.63321 -1.43534 0
M  V30 918 H 81.8046 -1.38992 -0.714914 0
M  V30 919 H 82.5396 -0.725837 -3.16073 0
M  V30 920 H 82.3246 -2.49504 -3.02473 0
M  V30 921 H 83.8146 -1.82667 -3.7553 0
M  V30 922 N 84.2517 0.741722 -1.39055 0
M  V30 923 C 85.2147 1.83733 -1.37021 0
M  V30 924 C 86.2147 1.58542 -0.268534 0
M  V30 925 O 87.4047 1.66067 -0.526076 0
M  V30 926 C 84.5367 3.2141 -1.13617 0
M  V30 927 H 85.7297 1.86941 -2.34506 0
M  V30 928 H 83.2827 0.944676 -1.24521 0
M  V30 929 H 84.0177 3.23865 -0.167863 0
M  V30 930 H 83.8027 3.4109 -1.93391 0
M  V30 931 H 85.2927 4.01477 -1.14918 0
M  V30 932 N 85.7298 1.2412 0.971189 0
M  V30 933 C 86.6768 1.0305 2.06517 0
M  V30 934 C 87.6468 -0.0550666 1.66009 0
M  V30 935 O 88.8318 0.0988688 1.90544 0
M  V30 936 C 85.9718 0.637653 3.39158 0
M  V30 937 C 85.0848 1.79633 3.92882 0
M  V30 938 C 84.2198 1.34939 5.13775 0
M  V30 939 C 83.2588 2.47823 5.59687 0
M  V30 940 N 82.3958 2.04022 6.71803 0
M  V30 941 H 87.2358 1.96685 2.23873 0
M  V30 942 H 84.7728 0.979694 1.09729 0
M  V30 943 H 86.7308 0.390931 4.15364 0
M  V30 944 H 85.3608 -0.261693 3.21737 0
M  V30 945 H 84.4128 2.15681 3.13346 0
M  V30 946 H 85.7248 2.64466 4.22918 0
M  V30 947 H 84.8788 1.06134 5.97345 0
M  V30 948 H 83.6178 0.471557 4.85415 0
M  V30 949 H 82.6228 2.77392 4.74693 0
M  V30 950 H 83.8478 3.36158 5.90063 0
M  V30 951 H 81.7938 1.18632 6.45184 0
M  V30 952 H 81.7108 2.82409 7.01271 0
M  V30 953 H 82.9788 1.78347 7.58823 0
M  V30 954 N 87.2079 -1.17134 1.05439 0
M  V30 955 C 88.1399 -2.2078 0.615539 0
M  V30 956 C 89.1529 -1.59584 -0.322001 0
M  V30 957 O 90.3419 -1.78133 -0.114344 0
M  V30 958 C 87.4419 -3.38691 -0.118938 0
M  V30 959 C 86.6149 -4.29454 0.829924 0
M  V30 960 C 85.6739 -5.26024 0.136258 0
M  V30 961 O 84.6999 -5.63952 0.77115 0
M  V30 962 N 85.9019 -5.69487 -1.1254 0
M  V30 963 H 88.6669 -2.59052 1.50705 0
M  V30 964 H 86.2279 -1.32058 0.936603 0
M  V30 965 H 88.2199 -4.00329 -0.593179 0
M  V30 966 H 86.7899 -2.98996 -0.91215 0
M  V30 967 H 86.0099 -3.65211 1.48373 0
M  V30 968 H 87.2979 -4.86984 1.47392 0
M  V30 969 H 86.6959 -5.4075 -1.6615 0
M  V30 970 H 85.2529 -6.33257 -1.54366 0
M  V30 971 N 88.686 -0.835752 -1.33615 0
M  V30 972 C 90.102 -0.523139 -1.50783 0
M  V30 973 C 90.302 0.950171 -1.77691 0
M  V30 974 O 89.358 1.73411 -1.83534 0
M  V30 975 C 90.671 -1.39378 -2.66448 0
M  V30 976 C 92.219 -1.39223 -2.80332 0
M  V30 977 C 92.694 -2.24765 -3.99055 0
M  V30 978 N 94.185 -2.22458 -4.06284 0
M  V30 979 C 94.92 -2.85386 -4.97336 0
M  V30 980 N 94.416 -3.57354 -5.93523 0
M  V30 981 N 96.209 -2.74872 -4.90308 0
M  V30 982 H 88.36 -1.78952 -1.14411 0
M  V30 983 H 90.623 -0.763297 -0.562212 0
M  V30 984 H 90.329 -2.44061 -2.53234 0
M  V30 985 H 90.203 -1.0676 -3.61776 0
M  V30 986 H 92.59 -0.353136 -2.92979 0
M  V30 987 H 92.671 -1.75846 -1.85773 0
M  V30 988 H 92.315 -3.28732 -3.87167 0
M  V30 989 H 92.245 -1.85485 -4.92852 0
M  V30 990 H 94.736 -1.70119 -3.37443 0
M  V30 991 H 95.049 -4.02584 -6.59656 0
M  V30 992 H 93.394 -3.61461 -5.93608 0
M  V30 993 H 96.585 -2.18213 -4.14126 0
M  V30 994 H 96.758 -3.24199 -5.61069 0
M  V30 995 N 90.1641 1.46063 -0.591896 0
M  V30 996 C 91.0971 2.27452 0.184617 0
M  V30 997 C 92.0751 1.36188 0.888351 0
M  V30 998 O 93.2591 1.65606 0.90039 0
M  V30 999 C 90.3861 3.14162 1.26571 0
M  V30 1000 C 89.4321 4.21255 0.666814 0
M  V30 1001 S 90.2651 5.33034 -0.513345 0
M  V30 1002 C 91.4211 6.23311 0.56872 0
M  V30 1003 H 91.6541 2.92963 -0.505939 0
M  V30 1004 H 89.1871 1.49676 -0.379014 0
M  V30 1005 H 91.1451 3.6468 1.88463 0
M  V30 1006 H 89.8061 2.47946 1.92826 0
M  V30 1007 H 88.9991 4.81788 1.47974 0
M  V30 1008 H 88.6011 3.73797 0.123359 0
M  V30 1009 H 90.8931 6.61758 1.45198 0
M  V30 1010 H 91.8361 7.081 -7.23824e-05 0
M  V30 1011 H 92.2441 5.57646 0.876996 0
M  V30 1012 N 91.6422 0.330177 1.54103 0
M  V30 1013 C 92.5922 -0.548456 2.21305 0
M  V30 1014 C 93.5762 -1.07651 1.19583 0
M  V30 1015 O 94.7682 -1.01243 1.45186 0
M  V30 1016 C 91.8972 -1.70559 2.97934 0
M  V30 1017 C 90.9832 -1.19212 4.07 0
M  V30 1018 N 91.3742 -0.398831 5.04225 0
M  V30 1019 C 89.6722 -1.47024 4.2107 0
M  V30 1020 C 90.3732 -0.121761 5.81573 0
M  V30 1021 N 89.3492 -0.709722 5.38947 0
M  V30 1022 H 93.1512 0.0648483 2.93828 0
M  V30 1023 H 90.6652 0.136363 1.61826 0
M  V30 1024 H 92.6622 -2.34688 3.44568 0
M  V30 1025 H 91.3222 -2.32231 2.26934 0
M  V30 1026 H 92.3332 -0.0410869 5.17884 0
M  V30 1027 H 89.0102 -2.09232 3.61287 0
M  V30 1028 H 90.4002 0.517298 6.69906 0
M  V30 1029 N 93.1203 -1.57491 0.0584922 0
M  V30 1030 C 94.3973 -1.84346 -0.653918 0
M  V30 1031 C 94.7773 -0.948355 -1.88599 0
M  V30 1032 O 94.1253 -0.0112403 -2.28497 0
M  V30 1033 C 94.3353 -3.34239 -1.00425 0
M  V30 1034 C 95.6833 -4.01431 -1.38342 0
M  V30 1035 O 96.7073 -3.38907 -1.09637 0
M  V30 1036 O 95.5663 -5.11683 -1.91943 0
M  V30 1037 H 92.6603 -0.761112 -0.323478 0
M  V30 1038 H 95.2063 -1.6947 0.0884125 0
M  V30 1039 H 93.9783 -3.91089 -0.128625 0
M  V30 1040 H 93.6013 -3.54329 -1.80378 0
M  V30 1041 N 94.5984 0.214957 -1.56127 0
M  V30 1042 C 95.8234 0.95924 -1.83884 0
M  V30 1043 C 96.2484 1.7689 -0.639644 0
M  V30 1044 O 95.6064 1.76566 0.411601 0
M  V30 1045 C 95.6544 1.84723 -3.09693 0
M  V30 1046 O 94.7584 2.94346 -2.8885 0
M  V30 1047 H 94.0994 0.27125 -0.606069 0
M  V30 1048 H 96.6294 0.226276 -2.03345 0
M  V30 1049 H 96.6394 2.25576 -3.39969 0
M  V30 1050 H 95.3144 1.25218 -3.96602 0
M  V30 1051 H 93.8914 2.57391 -2.69823 0
M  V30 1052 N 96.0765 1.50051 0.48192 0
M  V30 1053 C 97.3235 1.60498 1.23477 0
M  V30 1054 C 97.6515 0.300331 1.92167 0
M  V30 1055 O 96.9065 -0.713094 1.82246 0
M  V30 1056 C 97.2055 2.72717 2.30998 0
M  V30 1057 C 96.8715 4.13572 1.79636 0
M  V30 1058 C 95.5335 4.519 1.65348 0
M  V30 1059 C 97.8855 5.01649 1.41412 0
M  V30 1060 C 95.2135 5.76057 1.11244 0
M  V30 1061 C 97.5655 6.26343 0.887538 0
M  V30 1062 C 96.2295 6.63483 0.731207 0
M  V30 1063 H 95.4995 0.587303 0.451836 0
M  V30 1064 H 98.1465 1.83948 0.532468 0
M  V30 1065 H 96.4515 2.43312 3.07094 0
M  V30 1066 H 98.1485 2.78006 2.88988 0
M  V30 1067 H 94.7385 3.83329 1.91721 0
M  V30 1068 H 98.9225 4.72679 1.51289 0
M  V30 1069 H 94.1785 6.03516 0.978686 0
M  V30 1070 H 98.3525 6.93958 0.582654 0
M  V30 1071 H 95.9795 7.59568 0.309806 0
M  V30 1072 N 97.5546 -0.734337 1.39446 0
M  V30 1073 C 98.5176 -1.83004 1.37994 0
M  V30 1074 C 99.5176 -1.58397 0.276938 0
M  V30 1075 O 100.708 -1.65785 0.534875 0
M  V30 1076 C 97.8396 -3.20802 1.1532 0
M  V30 1077 H 99.0326 -1.85694 2.35494 0
M  V30 1078 H 96.5856 -0.938059 1.25021 0
M  V30 1079 H 97.3206 -3.23772 0.185036 0
M  V30 1080 H 97.1056 -3.4006 1.95197 0
M  V30 1081 H 98.5956 -4.00862 1.17046 0
M  V30 1082 N 99.0327 -1.24633 -0.964593 0
M  V30 1083 C 99.9807 -1.03917 -2.08096 0
M  V30 1084 C 100.975 0.0268581 -1.69379 0
M  V30 1085 O 102.181 -0.127952 -1.79545 0
M  V30 1086 H 98.5557 -0.319044 -0.680966 0
M  V30 1087 H 100.527 -1.98581 -2.22729 0
M  V30 1088 C 99.2757 -0.663983 -3.41301 0
M  V30 1089 H 98.5987 -1.47605 -3.71555 0
M  V30 1090 H 100.039 -0.558663 -4.20303 0
M  V30 1091 C 98.4977 0.629169 -3.30973 0
M  V30 1092 O 99.0277 1.67404 -3.65156 0
M  V30 1093 N 97.2337 0.611057 -2.84103 0
M  V30 1094 H 96.7807 -0.239593 -2.56483 0
M  V30 1095 H 96.7387 1.47647 -2.77575 0
M  V30 1096 N 100.511 1.16574 -1.06058 0
M  V30 1097 C 101.444 2.19798 -0.61352 0
M  V30 1098 C 102.422 1.58509 0.362453 0
M  V30 1099 O 103.606 1.86527 0.271994 0
M  V30 1100 C 100.733 3.3855 0.100915 0
M  V30 1101 C 99.7788 4.18317 -0.831438 0
M  V30 1102 S 100.612 4.82375 -2.32539 0
M  V30 1103 C 101.768 6.04508 -1.62238 0
M  V30 1104 H 102.001 2.5738 -1.48805 0
M  V30 1105 H 99.5338 1.27327 -0.873338 0
M  V30 1106 H 101.492 4.07358 0.506898 0
M  V30 1107 H 100.153 2.99338 0.951604 0
M  V30 1108 H 99.3458 5.03232 -0.278071 0
M  V30 1109 H 98.9478 3.5499 -1.17719 0
M  V30 1110 H 101.24 6.71133 -0.926622 0
M  V30 1111 H 102.183 6.64389 -2.44934 0
M  V30 1112 H 102.591 5.53559 -1.106 0
M  V30 1113 N 101.989 0.842826 1.3317 0
M  V30 1114 C 102.939 0.250877 2.26616 0
M  V30 1115 C 103.923 -0.596427 1.49437 0
M  V30 1116 O 105.115 -0.447747 1.71243 0
M  V30 1117 C 102.244 -0.569779 3.38539 0
M  V30 1118 C 101.33 0.289254 4.23112 0
M  V30 1119 N 101.721 1.36987 4.86897 0
M  V30 1120 C 100.019 0.0769631 4.45934 0
M  V30 1121 C 100.72 1.89737 5.49886 0
M  V30 1122 N 99.6959 1.19827 5.30229 0
M  V30 1123 H 103.498 1.07718 2.73448 0
M  V30 1124 H 101.012 0.687693 1.47121 0
M  V30 1125 H 103.009 -1.01018 4.04476 0
M  V30 1126 H 101.669 -1.39401 2.93253 0
M  V30 1127 H 102.68 1.75277 4.87338 0
M  V30 1128 H 99.3569 -0.713507 4.11358 0
M  V30 1129 H 100.747 2.80253 6.10662 0
M  V30 1130 N 103.467 -1.45747 0.599634 0
M  V30 1131 C 104.399 -2.28628 -0.161879 0
M  V30 1132 C 105.412 -1.39494 -0.839367 0
M  V30 1133 O 106.601 -1.63941 -0.706089 0
M  V30 1134 C 103.701 -3.15014 -1.24976 0
M  V30 1135 C 102.874 -4.32378 -0.660935 0
M  V30 1136 C 101.933 -5.00033 -1.63869 0
M  V30 1137 O 100.959 -5.57085 -1.1681 0
M  V30 1138 N 102.161 -4.98589 -2.97303 0
M  V30 1139 H 104.926 -2.94624 0.549265 0
M  V30 1140 H 102.487 -1.55847 0.438565 0
M  V30 1141 H 104.479 -3.5714 -1.9035 0
M  V30 1142 H 103.049 -2.5098 -1.86354 0
M  V30 1143 H 102.269 -3.9383 0.170688 0
M  V30 1144 H 103.557 -5.08197 -0.247619 0
M  V30 1145 H 102.955 -4.53514 -3.38145 0
M  V30 1146 H 101.512 -5.44603 -3.58121 0
M  V30 1147 N 104.945 -0.338344 -1.53925 0
M  V30 1148 C 106.192 0.259758 -2.00827 0
M  V30 1149 C 106.52 1.50973 -1.22628 0
M  V30 1150 O 105.775 1.93379 -0.300509 0
M  V30 1151 C 106.074 0.62448 -3.51902 0
M  V30 1152 C 105.74 -0.528006 -4.47798 0
M  V30 1153 C 104.402 -0.844298 -4.73735 0
M  V30 1154 C 106.754 -1.30143 -5.0469 0
M  V30 1155 C 104.082 -1.93648 -5.53821 0
M  V30 1156 C 106.434 -2.38382 -5.85967 0
M  V30 1157 C 105.098 -2.70576 -6.10201 0
M  V30 1158 H 104.368 0.0950523 -0.734878 0
M  V30 1159 H 107.015 -0.465182 -1.85764 0
M  V30 1160 H 105.32 1.43006 -3.64769 0
M  V30 1161 H 107.017 1.09905 -3.85645 0
M  V30 1162 H 103.607 -0.271421 -4.2774 0
M  V30 1163 H 107.791 -1.07033 -4.84621 0
M  V30 1164 H 103.047 -2.19021 -5.70824 0
M  V30 1165 H 107.221 -2.98746 -6.29066 0
M  V30 1166 H 104.848 -3.55333 -6.72044 0
M  V30 1167 N 106.423 1.57458 -0.0668435 0
M  V30 1168 C 107.371 2.13639 0.919851 0
M  V30 1169 C 108.365 1.07204 1.31163 0
M  V30 1170 O 109.571 1.25591 1.28945 0
M  V30 1171 H 105.946 0.683048 0.314562 0
M  V30 1172 H 107.917 2.95415 0.421047 0
M  V30 1173 C 106.666 2.70892 2.17975 0
M  V30 1174 H 105.989 3.5246 1.88711 0
M  V30 1175 H 107.429 3.13803 2.85138 0
M  V30 1176 C 105.888 1.65414 2.93496 0
M  V30 1177 O 106.418 1.07619 3.87015 0
M  V30 1178 N 104.624 1.36564 2.56512 0
M  V30 1179 H 104.171 1.83751 1.80536 0
M  V30 1180 H 104.129 0.66223 3.07347 0
M  V30 1181 N 107.901 -0.206675 1.56239 0
M  V30 1182 C 108.833 -1.27997 1.9013 0
M  V30 1183 C 109.846 -1.42299 0.790883 0
M  V30 1184 O 111.035 -1.42931 1.06925 0
M  V30 1185 C 108.135 -2.65368 2.10792 0
M  V30 1186 C 107.308 -2.72824 3.41886 0
M  V30 1187 C 106.367 -3.9131 3.51799 0
M  V30 1188 O 105.393 -3.78953 4.24716 0
M  V30 1189 N 106.595 -5.06265 2.84035 0
M  V30 1190 H 109.36 -0.992444 2.82791 0
M  V30 1191 H 106.921 -0.396652 1.56966 0
M  V30 1192 H 108.913 -3.43039 2.14724 0
M  V30 1193 H 107.483 -2.86657 1.24685 0
M  V30 1194 H 106.703 -1.81515 3.49923 0
M  V30 1195 H 107.991 -2.74786 4.28217 0
M  V30 1196 H 107.389 -5.19203 2.246 0
M  V30 1197 H 105.946 -5.81925 2.93609 0
M  V30 1198 N 109.379 -1.50304 -0.473955 0
M  V30 1199 C 110.79 -1.54042 -1.0549 0
M  V30 1200 C 111.141 -0.342248 -1.93192 0
M  V30 1201 O 110.266 0.545157 -2.09421 0
M  V30 1202 C 110.861 -2.79152 -1.91989 0
M  V30 1203 C 109.42 -2.8558 -2.45196 0
M  V30 1204 C 108.567 -2.48295 -1.2347 0
M  V30 1205 H 111.518 -1.5661 -0.256693 0
M  V30 1206 H 111.539 -2.60845 -2.7702 0
M  V30 1207 H 111.051 -3.66339 -1.28131 0
M  V30 1208 H 109.152 -2.02738 -3.12615 0
M  V30 1209 H 109.265 -3.88403 -2.80499 0
M  V30 1210 H 107.629 -2.00669 -1.56856 0
M  V30 1211 H 108.412 -3.37787 -0.612789 0
M  V30 1212 N 110.857 0.726932 -1.39834 0
M  V30 1213 C 111.807 1.83232 -1.35683 0
M  V30 1214 C 112.791 1.59155 -0.236295 0
M  V30 1215 O 113.983 1.70522 -0.474488 0
M  V30 1216 C 111.112 3.21246 -1.21062 0
M  V30 1217 C 110.198 3.51125 -2.37849 0
M  V30 1218 N 110.589 3.51889 -3.63329 0
M  V30 1219 C 108.887 3.81527 -2.30982 0
M  V30 1220 C 109.588 3.79791 -4.40606 0
M  V30 1221 N 108.564 3.97971 -3.70297 0
M  V30 1222 H 112.366 1.8214 -2.30656 0
M  V30 1223 H 109.88 0.925545 -1.33444 0
M  V30 1224 H 111.877 4.00387 -1.16171 0
M  V30 1225 H 110.537 3.23572 -0.270458 0
M  V30 1226 H 111.548 3.33008 -3.96643 0
M  V30 1227 H 108.225 3.91411 -1.45272 0
M  V30 1228 H 109.615 3.86783 -5.49408 0
M  V30 1229 N 112.336 1.25143 0.95797 0
M  V30 1230 C 113.585 1.0909 1.69654 0
M  V30 1231 C 113.898 -0.368548 1.92097 0
M  V30 1232 O 115.104 -0.649455 2.63618 0
M  V30 1233 C 113.56 1.90395 3.05414 0
M  V30 1234 C 113.168 3.4081 2.90779 0
M  V30 1235 C 114.912 1.82901 3.83076 0
M  V30 1236 C 112.819 4.14423 4.21909 0
M  V30 1237 H 111.749 0.404625 0.636235 0
M  V30 1238 H 114.4 1.4931 1.06672 0
M  V30 1239 H 112.782 1.42996 3.69281 0
M  V30 1240 H 113.956 3.95859 2.35865 0
M  V30 1241 H 112.271 3.49361 2.26575 0
M  V30 1242 H 114.868 2.35196 4.80195 0
M  V30 1243 H 115.211 0.796224 4.08615 0
M  V30 1244 H 115.744 2.28033 3.25954 0
M  V30 1245 H 112.483 5.18102 4.01561 0
M  V30 1246 H 112.003 3.64159 4.76601 0
M  V30 1247 H 113.682 4.21956 4.90471 0
M  V30 1248 N 113.814 -1.1601 1.06675 0
M  V30 1249 C 114.761 -2.20525 0.680967 0
M  V30 1250 C 115.731 -1.62904 -0.324283 0
M  V30 1251 O 116.916 -1.89615 -0.212294 0
M  V30 1252 C 114.056 -3.45013 0.0776551 0
M  V30 1253 C 113.169 -4.16863 1.13355 0
M  V30 1254 C 112.304 -5.2888 0.49597 0
M  V30 1255 C 111.343 -5.92537 1.53513 0
M  V30 1256 N 110.48 -6.96038 0.920631 0
M  V30 1257 H 115.32 -2.52876 1.57663 0
M  V30 1258 H 112.857 -1.24199 0.788223 0
M  V30 1259 H 114.815 -4.16193 -0.289704 0
M  V30 1260 H 113.445 -3.132 -0.781393 0
M  V30 1261 H 112.497 -3.44248 1.61857 0
M  V30 1262 H 113.809 -4.60294 1.92174 0
M  V30 1263 H 112.963 -6.06653 0.0758604 0
M  V30 1264 H 111.702 -4.86622 -0.324062 0
M  V30 1265 H 110.707 -5.13482 1.9651 0
M  V30 1266 H 111.932 -6.36873 2.35733 0
M  V30 1267 H 109.878 -6.55888 0.12138 0
M  V30 1268 H 109.795 -7.3786 1.64616 0
M  V30 1269 H 111.063 -7.77725 0.525795 0
M  V30 1270 N 115.292 -0.849877 -1.32721 0
M  V30 1271 C 116.255 -0.296122 -2.27279 0
M  V30 1272 C 117.255 0.541458 -1.5141 0
M  V30 1273 O 118.445 0.353658 -1.70572 0
M  V30 1274 C 115.577 0.581579 -3.35902 0
M  V30 1275 H 116.77 -1.13064 -2.77771 0
M  V30 1276 H 114.323 -0.62383 -1.43311 0
M  V30 1277 H 115.058 1.43809 -2.9067 0
M  V30 1278 H 114.843 -0.0178814 -3.92096 0
M  V30 1279 H 116.333 0.961951 -4.0637 0
M  V30 1280 N 116.77 1.45427 -0.607355 0
M  V30 1281 C 118.01 2.04128 -0.105458 0
M  V30 1282 C 118.374 1.46555 1.24039 0
M  V30 1283 O 119.575 1.96608 1.833 0
M  V30 1284 C 117.846 3.57338 -0.0665324 0
M  V30 1285 S 119.405 4.37201 0.374207 0
M  V30 1286 H 116.223 0.709278 -0.0494575 0
M  V30 1287 H 118.825 1.78139 -0.805404 0
M  V30 1288 H 117.529 3.96752 -1.04957 0
M  V30 1289 H 117.06 3.87902 0.655415 0
M  V30 1290 H 119.075 4.6888 1.62377 0
M  V30 1291 N 118.248 0.346503 1.53744 0
M  V30 1292 C 119.473 -0.253074 2.0585 0
M  V30 1293 C 119.898 -1.43202 1.21962 0
M  V30 1294 O 119.256 -1.79783 0.234073 0
M  V30 1295 C 119.304 -0.643193 3.54817 0
M  V30 1296 O 118.408 -1.74286 3.73762 0
M  V30 1297 H 117.749 -0.0413583 0.662711 0
M  V30 1298 H 120.279 0.501574 1.98357 0
M  V30 1299 H 120.289 -0.919526 3.97503 0
M  V30 1300 H 118.964 0.218966 4.15323 0
M  V30 1301 H 117.541 -1.46356 3.42979 0
M  V30 1302 N 119.726 -1.57421 0.075193 0
M  V30 1303 C 120.676 -2.09441 -0.901025 0
M  V30 1304 C 121.66 -1.00486 -1.25663 0
M  V30 1305 O 122.852 -1.2679 -1.23504 0
M  V30 1306 C 119.981 -2.66233 -2.16737 0
M  V30 1307 C 119.067 -3.82198 -1.83808 0
M  V30 1308 N 119.458 -4.91028 -1.21345 0
M  V30 1309 C 117.756 -3.91558 -2.13538 0
M  V30 1310 C 118.457 -5.71852 -1.06585 0
M  V30 1311 N 117.433 -5.20233 -1.57667 0
M  V30 1312 H 121.235 -2.90972 -0.413815 0
M  V30 1313 H 118.749 -1.6189 -0.128601 0
M  V30 1314 H 120.746 -3.01819 -2.87595 0
M  V30 1315 H 119.406 -1.8615 -2.66042 0
M  V30 1316 H 120.417 -5.10323 -0.88268 0
M  V30 1317 H 117.094 -3.22454 -2.65197 0
M  V30 1318 H 118.484 -6.69401 -0.578933 0
M  V30 1319 N 121.204 0.198386 -1.56346 0
M  V30 1320 C 122.45 0.920648 -1.80698 0
M  V30 1321 C 122.783 1.83045 -0.648697 0
M  V30 1322 O 122.058 1.91308 0.350925 0
M  V30 1323 C 122.341 1.73971 -3.15287 0
M  V30 1324 C 122.194 0.85485 -4.41602 0
M  V30 1325 C 123.513 2.71296 -3.46535 0
M  V30 1326 H 120.632 0.333261 -0.657348 0
M  V30 1327 H 123.274 0.188198 -1.89066 0
M  V30 1328 H 121.424 2.36416 -3.08285 0
M  V30 1329 H 123.096 0.245362 -4.60647 0
M  V30 1330 H 121.339 0.161398 -4.335 0
M  V30 1331 H 122.01 1.46286 -5.32264 0
M  V30 1332 H 124.486 2.18983 -3.53816 0
M  V30 1333 H 123.362 3.2569 -4.41834 0
M  V30 1334 H 123.623 3.5018 -2.69864 0
M  V30 1335 N 122.682 1.50554 0.465978 0
M  V30 1336 C 123.931 1.61038 1.21448 0
M  V30 1337 C 124.244 0.31865 1.92987 0
M  V30 1338 O 125.45 0.302469 2.6981 0
M  V30 1339 C 123.906 2.84283 2.20706 0
M  V30 1340 C 123.514 4.20352 1.54946 0
M  V30 1341 C 125.258 3.04115 2.96166 0
M  V30 1342 C 123.165 5.34778 2.5252 0
M  V30 1343 H 122.095 0.599718 0.457005 0
M  V30 1344 H 124.746 1.7699 0.484424 0
M  V30 1345 H 123.128 2.61901 2.97025 0
M  V30 1346 H 124.302 4.53008 0.843811 0
M  V30 1347 H 122.617 4.06167 0.917475 0
M  V30 1348 H 125.214 3.86774 3.69202 0
M  V30 1349 H 125.557 2.16045 3.55852 0
M  V30 1350 H 126.09 3.26702 2.26959 0
M  V30 1351 H 122.829 6.25018 1.97566 0
M  V30 1352 H 122.349 5.06534 3.21222 0
M  V30 1353 H 124.028 5.65561 3.14245 0
M  V30 1354 N 124.16 -0.719506 1.40217 0
M  V30 1355 C 125.09 -1.8465 1.42922 0
M  V30 1356 C 126.071 -1.67599 0.29062 0
M  V30 1357 O 127.256 -1.87688 0.498677 0
M  V30 1358 C 124.386 -3.22565 1.28722 0
M  V30 1359 C 123.34 -3.54281 2.40144 0
M  V30 1360 C 122.666 -4.91298 2.11023 0
M  V30 1361 C 123.966 -3.55676 3.82481 0
M  V30 1362 H 125.66 -1.82644 2.37237 0
M  V30 1363 H 123.206 -0.877305 1.1419 0
M  V30 1364 H 125.159 -4.01095 1.29232 0
M  V30 1365 H 123.883 -3.25137 0.308811 0
M  V30 1366 H 122.542 -2.78088 2.38877 0
M  V30 1367 H 122.19 -4.90468 1.11582 0
M  V30 1368 H 121.89 -5.13485 2.8567 0
M  V30 1369 H 123.414 -5.72166 2.13209 0
M  V30 1370 H 124.828 -4.24254 3.85592 0
M  V30 1371 H 123.225 -3.89388 4.56614 0
M  V30 1372 H 124.295 -2.55144 4.12346 0
M  V30 1373 N 125.638 -1.25649 -0.95132 0
M  V30 1374 C 126.885 -1.10594 -1.69633 0
M  V30 1375 C 127.213 0.352515 -1.91279 0
M  V30 1376 O 126.468 1.27601 -1.4838 0
M  V30 1377 C 126.767 -1.80909 -3.08231 0
M  V30 1378 C 126.433 -3.30825 -3.06375 0
M  V30 1379 C 125.095 -3.71722 -3.05576 0
M  V30 1380 C 127.447 -4.26589 -2.99452 0
M  V30 1381 C 124.775 -5.06788 -2.95606 0
M  V30 1382 C 127.127 -5.61683 -2.91024 0
M  V30 1383 C 125.791 -6.01904 -2.88562 0
M  V30 1384 H 125.061 -0.404691 -0.620731 0
M  V30 1385 H 127.708 -1.55964 -1.11119 0
M  V30 1386 H 126.013 -1.27979 -3.70309 0
M  V30 1387 H 127.71 -1.6671 -3.64704 0
M  V30 1388 H 124.3 -2.98287 -3.07771 0
M  V30 1389 H 128.484 -3.95982 -2.99185 0
M  V30 1390 H 123.74 -5.37126 -2.92071 0
M  V30 1391 H 127.914 -6.35578 -2.84629 0
M  V30 1392 H 125.541 -7.06521 -2.80593 0
M  V30 1393 N 127.117 1.15442 -1.07289 0
M  V30 1394 C 128.08 2.18358 -0.696591 0
M  V30 1395 C 129.08 1.58637 0.262837 0
M  V30 1396 O 130.27 1.74145 0.0438809 0
M  V30 1397 C 127.402 3.4089 -0.0266151 0
M  V30 1398 H 128.595 2.53162 -1.60776 0
M  V30 1399 H 126.148 1.29893 -0.869342 0
M  V30 1400 H 126.883 3.11653 0.896822 0
M  V30 1401 H 126.668 3.85495 -0.716657 0
M  V30 1402 H 128.158 4.17009 0.222028 0
M  V30 1403 N 128.595 0.856903 1.32268 0
M  V30 1404 C 129.543 0.291987 2.3076 0
M  V30 1405 C 130.537 -0.585857 1.58947 0
M  V30 1406 O 131.743 -0.47341 1.73663 0
M  V30 1407 H 128.118 0.075721 0.748178 0
M  V30 1408 H 130.089 1.13687 2.75895 0
M  V30 1409 C 128.838 -0.502869 3.44044 0
M  V30 1410 H 128.161 0.163328 3.99466 0
M  V30 1411 H 129.601 -0.863691 4.1511 0
M  V30 1412 C 128.06 -1.68898 2.91505 0
M  V30 1413 O 128.59 -2.78811 2.89184 0
M  V30 1414 N 126.796 -1.51679 2.47875 0
M  V30 1415 H 126.343 -0.622666 2.49961 0
M  V30 1416 H 126.301 -2.31184 2.13076 0
M  V30 1417 N 130.073 -1.45103 0.615059 0
M  V30 1418 C 131.02 -2.30586 -0.0993978 0
M  V30 1419 C 131.99 -1.42544 -0.852669 0
M  V30 1420 O 133.175 -1.71465 -0.836917 0
M  V30 1421 C 130.315 -3.27572 -1.08583 0
M  V30 1422 C 129.428 -4.30717 -0.332656 0
M  V30 1423 C 128.563 -5.14807 -1.30947 0
M  V30 1424 C 127.602 -6.09673 -0.544538 0
M  V30 1425 N 126.739 -6.86517 -1.47101 0
M  V30 1426 H 131.579 -2.91144 0.635542 0
M  V30 1427 H 129.116 -1.4346 0.325206 0
M  V30 1428 H 131.074 -3.82276 -1.67095 0
M  V30 1429 H 129.704 -2.68751 -1.78809 0
M  V30 1430 H 128.756 -3.78615 0.368107 0
M  V30 1431 H 130.068 -4.98102 0.263842 0
M  V30 1432 H 129.222 -5.73948 -1.96643 0
M  V30 1433 H 127.961 -4.47458 -1.9399 0
M  V30 1434 H 126.966 -5.49656 0.126003 0
M  V30 1435 H 128.191 -6.79052 0.080947 0
M  V30 1436 H 126.137 -6.21851 -2.08895 0
M  V30 1437 H 126.054 -7.50281 -0.928137 0
M  V30 1438 H 127.322 -7.50194 -2.11731 0
M  V30 1439 N 131.551 -0.354651 -1.53558 0
M  V30 1440 C 132.481 0.489091 -2.2832 0
M  V30 1441 C 133.462 1.09324 -1.30316 0
M  V30 1442 O 134.647 1.11255 -1.59173 0
M  V30 1443 C 131.777 1.63456 -3.0643 0
M  V30 1444 C 130.731 1.1582 -4.12031 0
M  V30 1445 C 130.057 2.39305 -4.7816 0
M  V30 1446 C 131.357 0.250731 -5.21698 0
M  V30 1447 H 133.051 -0.134614 -2.99097 0
M  V30 1448 H 130.597 -0.0661826 -1.43848 0
M  V30 1449 H 132.55 2.23136 -3.57475 0
M  V30 1450 H 131.274 2.28533 -2.33325 0
M  V30 1451 H 129.933 0.584146 -3.61916 0
M  V30 1452 H 129.581 3.02814 -4.01637 0
M  V30 1453 H 129.281 2.08109 -5.49513 0
M  V30 1454 H 130.805 2.99691 -5.31994 0
M  V30 1455 H 132.219 0.754695 -5.68311 0
M  V30 1456 H 130.616 0.0301468 -6.00092 0
M  V30 1457 H 131.686 -0.710125 -4.79672 0
M  V30 1458 N 133.029 1.57378 -0.0835403 0
M  V30 1459 C 134.254 1.98682 0.594987 0
M  V30 1460 C 134.679 0.961969 1.61641 0
M  V30 1461 O 134.037 -0.0709989 1.81161 0
M  V30 1462 C 134.085 3.38988 1.2296 0
M  V30 1463 O 133.189 3.39208 2.34546 0
M  V30 1464 H 132.53 0.646368 0.152002 0
M  V30 1465 H 135.06 2.03961 -0.161533 0
M  V30 1466 H 135.07 3.76431 1.57366 0
M  V30 1467 H 133.745 4.13107 0.481228 0
M  V30 1468 H 132.322 3.13548 2.01846 0
M  V30 1469 N 134.507 -0.190092 1.56449 0
M  V30 1470 C 135.737 -0.92443 1.84764 0
M  V30 1471 C 136.145 -1.77146 0.664529 0
M  V30 1472 O 135.488 -1.79812 -0.375957 0
M  V30 1473 C 135.55 -1.86651 3.07248 0
M  V30 1474 C 135.214 -1.20094 4.40938 0
M  V30 1475 C 136.211 -0.575445 5.16706 0
M  V30 1476 C 133.896 -1.2033 4.87674 0
M  V30 1477 C 135.89 0.0388111 6.37388 0
M  V30 1478 C 133.577 -0.585214 6.08291 0
M  V30 1479 C 134.575 0.0347578 6.82991 0
M  V30 1480 O 134.263 0.643147 8.01323 0
M  V30 1481 H 133.995 -0.274974 0.617548 0
M  V30 1482 H 136.549 -0.200788 2.04416 0
M  V30 1483 H 134.779 -2.62998 2.83494 0
M  V30 1484 H 136.468 -2.46907 3.22167 0
M  V30 1485 H 137.234 -0.565728 4.81689 0
M  V30 1486 H 133.113 -1.67526 4.29484 0
M  V30 1487 H 136.657 0.523329 6.95634 0
M  V30 1488 H 132.554 -0.592451 6.42775 0
M  V30 1489 H 133.322 0.540545 8.16713 0
M  V30 1490 N 135.985 -1.50799 -0.457987 0
M  V30 1491 C 137.213 -1.66218 -1.23203 0
M  V30 1492 C 137.628 -0.350894 -1.85511 0
M  V30 1493 O 136.985 0.668546 -1.69814 0
M  V30 1494 C 137.036 -2.76291 -2.33121 0
M  V30 1495 O 136.757 -4.02338 -1.73366 0
M  V30 1496 C 138.258 -3.028 -3.2377 0
M  V30 1497 H 135.478 -0.558361 -0.372121 0
M  V30 1498 H 138.022 -1.97099 -0.545179 0
M  V30 1499 H 136.177 -2.48068 -2.97558 0
M  V30 1500 H 136.591 -4.63312 -2.4585 0
M  V30 1501 H 138.065 -3.8345 -3.97077 0
M  V30 1502 H 138.542 -2.14385 -3.83322 0
M  V30 1503 H 139.148 -3.32604 -2.65056 0
M  V30 1504 N 137.463 0.71206 -1.40597 0
M  V30 1505 C 138.879 1.02058 -1.22704 0
M  V30 1506 C 139.079 2.01228 -0.104729 0
M  V30 1507 O 138.135 2.4674 0.53624 0
M  V30 1508 C 139.448 1.56094 -2.57012 0
M  V30 1509 C 140.996 1.6806 -2.64054 0
M  V30 1510 C 141.471 2.25501 -3.9864 0
M  V30 1511 N 142.962 2.32882 -4.004 0
M  V30 1512 C 143.697 2.78317 -5.01325 0
M  V30 1513 N 143.193 3.23478 -6.12645 0
M  V30 1514 N 144.986 2.77733 -4.88693 0
M  V30 1515 H 137.137 0.0547896 -2.12329 0
M  V30 1516 H 139.4 0.0869027 -0.944008 0
M  V30 1517 H 139.106 0.906865 -3.39807 0
M  V30 1518 H 138.98 2.54564 -2.78347 0
M  V30 1519 H 141.367 2.32583 -1.81629 0
M  V30 1520 H 141.448 0.681802 -2.46546 0
M  V30 1521 H 141.092 1.61598 -4.81506 0
M  V30 1522 H 141.022 3.26102 -4.13479 0
M  V30 1523 H 143.513 2.00991 -3.20017 0
M  V30 1524 H 143.826 3.56725 -6.85542 0
M  V30 1525 H 142.171 3.21429 -6.16205 0
M  V30 1526 H 145.362 2.4179 -4.00818 0
M  V30 1527 H 145.535 3.12826 -5.67489 0
M  V30 1528 N 138.941 1.26152 0.944643 0
M  V30 1529 C 140.218 1.02247 1.66748 0
M  V30 1530 C 140.598 -0.448202 2.06287 0
M  V30 1531 O 139.946 -1.42779 1.78399 0
M  V30 1532 C 140.156 1.96788 2.88228 0
M  V30 1533 C 141.504 2.25201 3.59958 0
M  V30 1534 O 142.528 1.94626 2.98327 0
M  V30 1535 O 141.387 2.77242 4.70956 0
M  V30 1536 H 138.481 0.388517 0.730057 0
M  V30 1537 H 141.027 1.37348 0.99668 0
M  V30 1538 H 139.799 2.96047 2.55875 0
M  V30 1539 H 139.422 1.62145 3.63035 0
M  V30 1540 N 140.419 -1.14872 1.07899 0
M  V30 1541 C 141.696 -1.81928 0.71845 0
M  V30 1542 C 142.076 -1.95417 -0.798455 0
M  V30 1543 O 141.424 -1.50997 -1.715 0
M  V30 1544 C 141.634 -3.17937 1.43935 0
M  V30 1545 C 142.982 -3.93501 1.59506 0
M  V30 1546 O 144.006 -3.27509 1.40058 0
M  V30 1547 O 142.865 -5.1183 1.91551 0
M  V30 1548 H 139.959 -0.78628 0.256305 0
M  V30 1549 H 142.505 -1.21934 1.18026 0
M  V30 1550 H 141.277 -3.0325 2.47295 0
M  V30 1551 H 140.9 -3.85619 0.968687 0
M  V30 1552 N 141.898 -0.863906 -1.31812 0
M  V30 1553 C 143.128 -0.485406 -2.00817 0
M  V30 1554 C 143.536 0.925007 -1.65046 0
M  V30 1555 O 142.879 1.61653 -0.872574 0
M  V30 1556 C 142.941 -0.555589 -3.55181 0
M  V30 1557 C 142.605 -1.92654 -4.14407 0
M  V30 1558 C 143.602 -2.89324 -4.31958 0
M  V30 1559 C 141.287 -2.2262 -4.50273 0
M  V30 1560 C 143.281 -4.14108 -4.84555 0
M  V30 1561 C 140.968 -3.47654 -5.02573 0
M  V30 1562 C 141.966 -4.43214 -5.19664 0
M  V30 1563 O 141.654 -5.66033 -5.70843 0
M  V30 1564 H 141.386 -0.188224 -0.649267 0
M  V30 1565 H 143.94 -1.16514 -1.69156 0
M  V30 1566 H 142.17 0.181037 -3.86276 0
M  V30 1567 H 143.859 -0.19138 -4.05449 0
M  V30 1568 H 144.625 -2.6748 -4.04573 0
M  V30 1569 H 140.504 -1.4902 -4.3625 0
M  V30 1570 H 144.048 -4.88703 -4.9781 0
M  V30 1571 H 139.945 -3.69345 -5.29391 0
M  V30 1572 H 140.713 -5.6812 -5.89222 0
M  V30 1573 N 143.376 1.44774 -0.622745 0
M  V30 1574 C 144.653 1.95522 -0.0551974 0
M  V30 1575 C 145.033 1.5649 1.41683 0
M  V30 1576 O 144.381 0.834848 2.12703 0
M  V30 1577 C 144.591 3.4796 -0.269242 0
M  V30 1578 C 145.939 4.24306 -0.158014 0
M  V30 1579 O 146.963 3.55637 -0.200162 0
M  V30 1580 O 145.822 5.46471 -0.0558693 0
M  V30 1581 H 142.916 0.826556 0.0271015 0
M  V30 1582 H 145.462 1.54866 -0.693864 0
M  V30 1583 H 144.234 3.6939 -1.29099 0
M  V30 1584 H 143.857 3.95543 0.403966 0
M  V30 1585 N 144.854 0.36279 1.53368 0
M  V30 1586 C 146.1 -0.228113 2.01513 0
M  V30 1587 C 146.433 -1.48648 1.2497 0
M  V30 1588 O 145.708 -1.91459 0.342616 0
M  V30 1589 C 145.991 -0.522884 3.56284 0
M  V30 1590 C 145.844 0.74892 4.43521 0
M  V30 1591 C 147.163 -1.32461 4.19693 0
M  V30 1592 H 144.282 -0.0814343 0.732487 0
M  V30 1593 H 146.924 0.48713 1.83649 0
M  V30 1594 H 145.074 -1.1322 3.71636 0
M  V30 1595 H 146.746 1.38648 4.39971 0
M  V30 1596 H 144.989 1.36986 4.11603 0
M  V30 1597 H 145.66 0.497667 5.49752 0
M  V30 1598 H 148.136 -0.809203 4.08156 0
M  V30 1599 H 147.012 -1.49961 5.28018 0
M  V30 1600 H 147.273 -2.33232 3.75573 0
M  V30 1601 N 146.332 -1.57332 0.0918853 0
M  V30 1602 C 147.578 -1.94524 -0.573425 0
M  V30 1603 C 147.911 -0.973578 -1.68033 0
M  V30 1604 O 147.186 -0.00609226 -1.94499 0
M  V30 1605 C 147.469 -3.41858 -1.13161 0
M  V30 1606 C 147.322 -4.4979 -0.0299747 0
M  V30 1607 C 148.641 -3.90435 -2.03098 0
M  V30 1608 H 145.76 -0.70734 -0.206975 0
M  V30 1609 H 148.402 -1.89309 0.161942 0
M  V30 1610 H 146.552 -3.46433 -1.7583 0
M  V30 1611 H 148.224 -4.57327 0.604112 0
M  V30 1612 H 146.467 -4.291 0.636833 0
M  V30 1613 H 147.138 -5.50069 -0.461287 0
M  V30 1614 H 149.614 -3.87992 -1.50338 0
M  V30 1615 H 148.49 -4.94097 -2.39081 0
M  V30 1616 H 148.751 -3.29541 -2.94712 0
M  V30 1617 N 147.81 0.181792 -1.56548 0
M  V30 1618 C 148.74 1.22765 -1.98623 0
M  V30 1619 C 149.721 1.46747 -0.860189 0
M  V30 1620 O 150.906 1.58259 -1.12551 0
M  V30 1621 C 148.036 2.56894 -2.33715 0
M  V30 1622 C 146.99 2.475 -3.49182 0
M  V30 1623 C 146.316 3.86023 -3.69986 0
M  V30 1624 C 147.616 1.98866 -4.82959 0
M  V30 1625 H 149.31 0.877942 -2.86239 0
M  V30 1626 H 146.856 0.42088 -1.37712 0
M  V30 1627 H 148.809 3.30253 -2.61746 0
M  V30 1628 H 147.533 2.93632 -1.42997 0
M  V30 1629 H 146.192 1.76596 -3.21262 0
M  V30 1630 H 145.84 4.20136 -2.76576 0
M  V30 1631 H 145.54 3.80609 -4.47672 0
M  V30 1632 H 147.064 4.60984 -4.00407 0
M  V30 1633 H 148.478 2.61992 -5.09934 0
M  V30 1634 H 146.875 2.04424 -5.64208 0
M  V30 1635 H 147.945 0.942465 -4.75653 0
M  V30 1636 N 149.288 1.51039 0.449983 0
M  V30 1637 C 150.513 1.6715 1.22783 0
M  V30 1638 C 150.938 0.363081 1.84563 0
M  V30 1639 O 150.296 -0.675433 1.68249 0
M  V30 1640 C 150.344 2.77985 2.29689 0
M  V30 1641 O 149.448 2.40707 3.34864 0
M  V30 1642 H 148.789 0.557746 0.360299 0
M  V30 1643 H 151.319 1.97535 0.533005 0
M  V30 1644 H 151.329 3.01693 2.74673 0
M  V30 1645 H 150.004 3.72935 1.84098 0
M  V30 1646 H 148.581 2.27523 2.95445 0
M  V30 1647 N 150.766 -0.704594 1.40972 0
M  V30 1648 C 151.713 -1.81862 1.42109 0
M  V30 1649 C 152.683 -1.63781 0.276593 0
M  V30 1650 O 153.868 -1.84759 0.4763 0
M  V30 1651 C 151.008 -3.19669 1.30022 0
M  V30 1652 C 150.121 -3.49246 2.54267 0
M  V30 1653 C 149.256 -4.76618 2.3454 0
M  V30 1654 C 148.295 -4.99133 3.54306 0
M  V30 1655 N 147.432 -6.17726 3.33706 0
M  V30 1656 H 152.272 -1.80226 2.37324 0
M  V30 1657 H 149.809 -0.880238 1.17857 0
M  V30 1658 H 151.767 -3.99263 1.21018 0
M  V30 1659 H 150.397 -3.20506 0.384192 0
M  V30 1660 H 149.449 -2.64125 2.73756 0
M  V30 1661 H 150.761 -3.61788 3.43381 0
M  V30 1662 H 149.915 -5.64249 2.22952 0
M  V30 1663 H 148.654 -4.66305 1.42867 0
M  V30 1664 H 147.659 -4.09953 3.66359 0
M  V30 1665 H 148.884 -5.11311 4.4692 0
M  V30 1666 H 146.83 -6.08642 2.44725 0
M  V30 1667 H 146.747 -6.30995 4.16391 0
M  V30 1668 H 148.015 -7.08115 3.25873 0
M  V30 1669 N 152.244 -1.26651 -0.937939 0
M  V30 1670 C 153.207 -1.08546 -2.01867 0
M  V30 1671 C 154.207 -0.0327327 -1.60767 0
M  V30 1672 O 155.397 -0.276427 -1.71993 0
M  V30 1673 C 152.529 -0.651711 -3.34613 0
M  V30 1674 H 153.722 -2.04502 -2.1936 0
M  V30 1675 H 151.275 -1.09294 -1.11734 0
M  V30 1676 H 152.01 0.309696 -3.22818 0
M  V30 1677 H 151.795 -1.41189 -3.65798 0
M  V30 1678 H 153.285 -0.546973 -4.14002 0
M  V30 1679 N 153.722 1.14298 -1.08507 0
M  V30 1680 C 154.968 1.85633 -0.816581 0
M  V30 1681 C 155.301 1.82784 0.656021 0
M  V30 1682 O 154.576 1.25926 1.48233 0
M  V30 1683 C 154.859 3.34223 -1.34041 0
M  V30 1684 C 154.712 3.45639 -2.87843 0
M  V30 1685 C 156.031 4.29356 -0.9665 0
M  V30 1686 H 153.15 0.67402 -0.298104 0
M  V30 1687 H 155.792 1.34214 -1.34487 0
M  V30 1688 H 153.942 3.78144 -0.89104 0
M  V30 1689 H 155.614 3.10498 -3.41158 0
M  V30 1690 H 153.857 2.86817 -3.25451 0
M  V30 1691 H 154.528 4.50089 -3.19569 0
M  V30 1692 H 157.004 3.93457 -1.35391 0
M  V30 1693 H 155.88 5.3178 -1.3602 0
M  V30 1694 H 156.141 4.41919 0.126362 0
M  V30 1695 N 155.201 0.870884 1.31352 0
M  V30 1696 C 156.164 0.332243 2.26779 0
M  V30 1697 C 157.164 -0.517302 1.52252 0
M  V30 1698 O 158.354 -0.326477 1.71113 0
M  V30 1699 C 155.486 -0.528066 3.36785 0
M  V30 1700 H 156.679 1.17469 2.75937 0
M  V30 1701 H 154.232 0.64655 1.423 0
M  V30 1702 H 154.967 -1.39167 2.92922 0
M  V30 1703 H 154.752 0.0802582 3.92018 0
M  V30 1704 H 156.242 -0.897179 4.07849 0
M  V30 1705 N 156.679 -1.44442 0.630414 0
M  V30 1706 C 157.956 -1.9549 0.0655657 0
M  V30 1707 C 158.336 -1.5724 -1.40851 0
M  V30 1708 O 157.684 -0.846116 -2.12257 0
M  V30 1709 C 157.894 -3.47812 0.287691 0
M  V30 1710 C 159.242 -4.24216 0.180513 0
M  V30 1711 O 160.266 -3.55526 0.219019 0
M  V30 1712 O 159.125 -5.46434 0.0848493 0
M  V30 1713 H 156.219 -0.826688 -0.0227177 0
M  V30 1714 H 158.765 -1.54496 0.702068 0
M  V30 1715 H 157.537 -3.687 1.31056 0
M  V30 1716 H 157.16 -3.95751 -0.382984 0
M  V30 1717 N 158.157 -0.370918 -1.53173 0
M  V30 1718 C 159.104 0.473035 -2.259 0
M  V30 1719 C 160.074 1.07311 -1.26781 0
M  V30 1720 O 161.259 1.1046 -1.55574 0
M  V30 1721 C 158.399 1.60405 -3.05556 0
M  V30 1722 C 157.512 1.02863 -4.19575 0
M  V30 1723 C 156.647 2.12918 -4.86661 0
M  V30 1724 C 155.686 1.52869 -5.92704 0
M  V30 1725 N 154.823 2.56779 -6.53459 0
M  V30 1726 H 159.663 -0.153649 -2.97604 0
M  V30 1727 H 157.2 -0.0875946 -1.46839 0
M  V30 1728 H 159.158 2.27034 -3.50016 0
M  V30 1729 H 157.788 2.20131 -2.36097 0
M  V30 1730 H 156.84 0.252465 -3.79561 0
M  V30 1731 H 158.152 0.549642 -4.95762 0
M  V30 1732 H 157.306 2.87356 -5.34333 0
M  V30 1733 H 156.045 2.6417 -4.09958 0
M  V30 1734 H 155.05 0.769479 -5.44389 0
M  V30 1735 H 156.275 1.02435 -6.7133 0
M  V30 1736 H 154.221 3.07235 -5.79606 0
M  V30 1737 H 154.138 2.13583 -7.25202 0
M  V30 1738 H 155.406 3.30903 -7.05779 0
M  V30 1739 N 159.635 1.57281 -0.100228 0
M  V30 1740 C 161.051 1.57527 0.256416 0
M  V30 1741 C 161.251 1.11173 1.68056 0
M  V30 1742 O 160.307 0.79053 2.39806 0
M  V30 1743 C 161.62 3.00673 0.0401747 0
M  V30 1744 C 163.168 3.12815 0.107528 0
M  V30 1745 C 163.643 4.57929 -0.0807834 0
M  V30 1746 N 165.134 4.63193 -0.0261207 0
M  V30 1747 C 165.869 5.73212 -0.146999 0
M  V30 1748 N 165.365 6.92047 -0.322999 0
M  V30 1749 N 167.158 5.62031 -0.0879044 0
M  V30 1750 H 159.309 1.85718 -1.03065 0
M  V30 1751 H 161.572 0.857446 -0.404339 0
M  V30 1752 H 161.278 3.38804 -0.943649 0
M  V30 1753 H 161.152 3.69042 0.780262 0
M  V30 1754 H 163.539 2.74554 1.08186 0
M  V30 1755 H 163.62 2.47028 -0.664134 0
M  V30 1756 H 163.264 4.96886 -1.05201 0
M  V30 1757 H 163.194 5.21783 0.710635 0
M  V30 1758 H 165.685 3.77748 0.107161 0
M  V30 1759 H 165.998 7.7173 -0.406608 0
M  V30 1760 H 164.343 6.94074 -0.358733 0
M  V30 1761 H 167.534 4.68075 0.048498 0
M  V30 1762 H 167.707 6.47734 -0.185557 0
M  V30 1763 N 161.113 -0.173488 1.56642 0
M  V30 1764 C 162.362 -0.888758 1.81063 0
M  V30 1765 C 162.675 -1.83506 0.67712 0
M  V30 1766 O 163.881 -2.59254 0.806206 0
M  V30 1767 C 162.337 -1.63091 3.20826 0
M  V30 1768 C 161.945 -0.728357 4.4204 0
M  V30 1769 C 163.689 -2.33454 3.54541 0
M  V30 1770 C 161.596 -1.47062 5.72823 0
M  V30 1771 H 160.526 -0.335618 0.675186 0
M  V30 1772 H 163.177 -0.141712 1.82952 0
M  V30 1773 H 161.559 -2.42263 3.13248 0
M  V30 1774 H 162.733 0.0262449 4.60793 0
M  V30 1775 H 161.048 -0.134492 4.16183 0
M  V30 1776 H 163.645 -2.89578 4.49498 0
M  V30 1777 H 163.988 -3.08687 2.79317 0
M  V30 1778 H 164.521 -1.61227 3.63663 0
M  V30 1779 H 161.26 -0.760658 6.51072 0
M  V30 1780 H 160.78 -2.1986 5.58052 0
M  V30 1781 H 162.459 -2.01868 6.14702 0
M  V30 1782 N 162.591 -1.51276 -0.441967 0
M  V30 1783 C 163.819 -1.67516 -1.21434 0
M  V30 1784 C 164.234 -0.37055 -1.85128 0
M  V30 1785 O 163.591 0.650498 -1.70513 0
M  V30 1786 C 163.642 -2.78748 -2.30177 0
M  V30 1787 O 163.363 -4.04154 -1.69089 0
M  V30 1788 C 164.864 -3.06217 -3.20541 0
M  V30 1789 H 162.084 -0.562276 -0.366178 0
M  V30 1790 H 164.628 -1.97666 -0.524244 0
M  V30 1791 H 162.783 -2.5121 -2.94911 0
M  V30 1792 H 163.197 -4.65894 -2.40922 0
M  V30 1793 H 164.671 -3.8764 -3.92987 0
M  V30 1794 H 165.148 -2.18439 -3.81026 0
M  V30 1795 H 165.754 -3.35397 -2.61513 0
M  V30 1796 N 164.069 0.697108 -1.41344 0
M  V30 1797 C 164.979 1.84088 -1.45427 0
M  V30 1798 C 165.995 1.70545 -0.34501 0
M  V30 1799 O 167.171 1.92488 -0.592492 0
M  V30 1800 C 164.236 3.20056 -1.33286 0
M  V30 1801 C 163.297 3.45718 -2.54514 0
M  V30 1802 C 162.53 4.75199 -2.42944 0
M  V30 1803 O 162.753 5.51579 -1.45318 0
M  V30 1804 O 161.687 5.0161 -3.32672 0
M  V30 1805 H 165.513 1.836 -2.41919 0
M  V30 1806 H 163.098 0.849966 -1.22866 0
M  V30 1807 H 164.98 4.01236 -1.28794 0
M  V30 1808 H 163.655 3.2123 -0.39909 0
M  V30 1809 H 162.562 2.64474 -2.64583 0
M  V30 1810 H 163.895 3.49356 -3.46715 0
M  V30 1811 N 165.547 1.27147 0.931209 0
M  V30 1812 C 166.457 1.11372 2.06478 0
M  V30 1813 C 167.473 0.044645 1.73943 0
M  V30 1814 O 168.649 0.250417 1.99837 0
M  V30 1815 C 165.714 0.758838 3.38294 0
M  V30 1816 C 164.775 1.90841 3.84549 0
M  V30 1817 C 164.008 1.57036 5.10074 0
M  V30 1818 O 164.231 0.476645 5.68405 0
M  V30 1819 O 163.165 2.40839 5.51616 0
M  V30 1820 H 166.991 2.06493 2.22698 0
M  V30 1821 H 164.576 1.06301 1.04978 0
M  V30 1822 H 166.458 0.574098 4.17471 0
M  V30 1823 H 165.133 -0.162879 3.2329 0
M  V30 1824 H 164.04 2.14819 3.06274 0
M  V30 1825 H 165.373 2.81021 4.04089 0
M  V30 1826 N 167.025 -1.13721 1.09112 0
M  V30 1827 C 167.957 -2.1871 0.685467 0
M  V30 1828 C 168.97 -1.60527 -0.271068 0
M  V30 1829 O 170.159 -1.78407 -0.0576148 0
M  V30 1830 C 167.259 -3.38898 -0.0111255 0
M  V30 1831 C 166.432 -4.26597 0.966131 0
M  V30 1832 C 165.491 -5.25324 0.303539 0
M  V30 1833 O 164.517 -5.61213 0.950177 0
M  V30 1834 N 165.719 -5.72779 -0.943651 0
M  V30 1835 H 168.484 -2.54126 1.58871 0
M  V30 1836 H 166.045 -1.29012 0.978143 0
M  V30 1837 H 168.037 -4.02014 -0.465517 0
M  V30 1838 H 166.607 -3.01747 -0.816565 0
M  V30 1839 H 165.827 -3.60306 1.59917 0
M  V30 1840 H 167.115 -4.82048 1.6281 0
M  V30 1841 H 166.513 -5.45762 -1.48862 0
M  V30 1842 H 165.07 -6.37847 -1.34142 0
M  V30 1843 N 168.503 -0.877838 -1.30888 0
M  V30 1844 C 169.45 -0.337538 -2.28318 0
M  V30 1845 C 170.42 0.568346 -1.56074 0
M  V30 1846 O 171.605 0.498298 -1.84178 0
M  V30 1847 C 168.745 0.448142 -3.42178 0
M  V30 1848 C 167.858 -0.48615 -4.29256 0
M  V30 1849 C 166.993 0.314427 -5.30269 0
M  V30 1850 C 166.032 -0.615791 -6.08995 0
M  V30 1851 N 165.169 0.14902 -7.01942 0
M  V30 1852 H 170.009 -1.17356 -2.73919 0
M  V30 1853 H 167.546 -0.590094 -1.34745 0
M  V30 1854 H 169.504 0.919517 -4.06941 0
M  V30 1855 H 168.134 1.24879 -2.97666 0
M  V30 1856 H 167.186 -1.076 -3.64865 0
M  V30 1857 H 168.498 -1.19909 -4.84173 0
M  V30 1858 H 167.652 0.847969 -6.00745 0
M  V30 1859 H 166.391 1.06062 -4.76027 0
M  V30 1860 H 165.396 -1.16102 -5.37401 0
M  V30 1861 H 166.621 -1.36097 -6.65323 0
M  V30 1862 H 164.567 0.877884 -6.50099 0
M  V30 1863 H 164.484 -0.504433 -7.54315 0
M  V30 1864 H 165.752 0.663537 -7.76671 0
M  V30 1865 N 169.982 1.44106 -0.638065 0
M  V30 1866 C 170.892 2.34513 0.0637334 0
M  V30 1867 C 171.908 1.53018 0.828346 0
M  V30 1868 O 173.084 1.85723 0.779036 0
M  V30 1869 C 170.149 3.31095 1.02844 0
M  V30 1870 C 169.21 4.28497 0.26244 0
M  V30 1871 C 168.443 5.20465 1.1812 0
M  V30 1872 O 168.666 5.16514 2.42011 0
M  V30 1873 O 167.6 5.98251 0.661774 0
M  V30 1874 H 171.426 2.95989 -0.68003 0
M  V30 1875 H 169.011 1.43994 -0.398252 0
M  V30 1876 H 170.893 3.90526 1.58327 0
M  V30 1877 H 169.568 2.72144 1.7527 0
M  V30 1878 H 168.475 3.72592 -0.335602 0
M  V30 1879 H 169.808 4.90388 -0.421936 0
M  V30 1880 N 171.46 0.379036 1.52974 0
M  V30 1881 C 172.423 -0.448865 2.24762 0
M  V30 1882 C 173.423 -0.998689 1.26027 0
M  V30 1883 O 174.613 -0.882313 1.50203 0
M  V30 1884 C 171.745 -1.62872 2.99476 0
M  V30 1885 H 172.938 0.179491 2.99362 0
M  V30 1886 H 170.491 0.13096 1.5575 0
M  V30 1887 H 171.226 -2.29479 2.29151 0
M  V30 1888 H 171.011 -1.24128 3.71934 0
M  V30 1889 H 172.501 -2.2151 3.5401 0
M  V30 1890 N 172.938 -1.57226 0.108567 0
M  V30 1891 C 173.901 -2.13602 -0.831082 0
M  V30 1892 C 174.901 -1.06841 -1.20173 0
M  V30 1893 O 176.091 -1.32666 -1.12895 0
M  V30 1894 C 173.223 -2.66769 -2.12243 0
M  V30 1895 H 174.416 -2.97951 -0.341317 0
M  V30 1896 H 171.969 -1.55667 -0.14057 0
M  V30 1897 H 172.704 -1.85977 -2.65675 0
M  V30 1898 H 172.489 -3.44839 -1.86625 0
M  V30 1899 H 173.979 -3.10332 -2.79435 0
M  V30 1900 N 174.416 0.165178 -1.56732 0
M  V30 1901 C 175.663 0.880807 -1.8234 0
M  V30 1902 C 175.991 1.81977 -0.686621 0
M  V30 1903 O 175.246 1.92971 0.325697 0
M  V30 1904 C 175.545 1.70405 -3.1416 0
M  V30 1905 C 175.211 0.913475 -4.4155 0
M  V30 1906 C 173.873 0.695303 -4.7615 0
M  V30 1907 C 176.225 0.359349 -5.1996 0
M  V30 1908 C 173.553 -0.0879947 -5.86634 0
M  V30 1909 C 175.905 -0.410893 -6.31264 0
M  V30 1910 C 174.569 -0.639808 -6.64427 0
M  V30 1911 H 173.839 0.32231 -0.667231 0
M  V30 1912 H 176.486 0.145402 -1.90947 0
M  V30 1913 H 174.791 2.50903 -3.00923 0
M  V30 1914 H 176.488 2.26091 -3.31186 0
M  V30 1915 H 173.078 1.09357 -4.14414 0
M  V30 1916 H 177.262 0.515228 -4.93618 0
M  V30 1917 H 172.518 -0.27503 -6.10781 0
M  V30 1918 H 176.692 -0.847494 -6.91224 0
M  V30 1919 H 174.319 -1.24864 -7.49875 0
M  V30 1920 N 175.894 1.51508 0.433938 0
M  V30 1921 C 176.857 1.72473 1.50949 0
M  V30 1922 C 177.857 0.594725 1.49398 0
M  V30 1923 O 179.047 0.862315 1.5136 0
M  V30 1924 C 176.179 1.78431 2.90474 0
M  V30 1925 H 177.372 2.68467 1.33662 0
M  V30 1926 H 174.925 1.41549 0.662836 0
M  V30 1927 H 175.66 0.842645 3.13161 0
M  V30 1928 H 175.445 2.60558 2.93005 0
M  V30 1929 H 176.935 1.96479 3.68491 0
M  V30 1930 N 177.372 -0.689602 1.41712 0
M  V30 1931 C 178.597 -1.48329 1.44959 0
M  V30 1932 C 179.022 -1.8801 0.0581283 0
M  V30 1933 O 178.38 -1.55026 -0.940035 0
M  V30 1934 C 178.428 -2.71835 2.36935 0
M  V30 1935 O 177.532 -3.69549 1.8305 0
M  V30 1936 H 176.873 -0.446199 0.491734 0
M  V30 1937 H 179.403 -0.847127 1.86239 0
M  V30 1938 H 179.413 -3.20076 2.53013 0
M  V30 1939 H 178.088 -2.42291 3.38035 0
M  V30 1940 H 176.665 -3.2851 1.76452 0
M  V30 1941 N 178.85 -1.27639 -0.924453 0
M  V30 1942 C 180.097 -1.14167 -1.67249 0
M  V30 1943 C 180.425 0.311863 -1.91984 0
M  V30 1944 O 179.68 1.24425 -1.51053 0
M  V30 1945 C 179.979 -1.87407 -3.04325 0
M  V30 1946 C 179.645 -3.37249 -2.99289 0
M  V30 1947 C 178.307 -3.7812 -2.97622 0
M  V30 1948 C 180.659 -4.32845 -2.90336 0
M  V30 1949 C 177.987 -5.12944 -2.8479 0
M  V30 1950 C 180.339 -5.6773 -2.79045 0
M  V30 1951 C 179.003 -6.07889 -2.7573 0
M  V30 1952 H 178.273 -0.417766 -0.612007 0
M  V30 1953 H 180.92 -1.58286 -1.07786 0
M  V30 1954 H 179.225 -1.35805 -3.67511 0
M  V30 1955 H 180.922 -1.74408 -3.61086 0
M  V30 1956 H 177.512 -3.04748 -3.01374 0
M  V30 1957 H 181.696 -4.02239 -2.90719 0
M  V30 1958 H 176.952 -5.432 -2.80612 0
M  V30 1959 H 181.126 -6.41472 -2.71083 0
M  V30 1960 H 178.753 -7.12314 -2.65544 0
M  V30 1961 N 180.328 1.1314 -1.09713 0
M  V30 1962 C 181.275 2.18642 -0.739196 0
M  V30 1963 C 182.245 1.63706 0.280978 0
M  V30 1964 O 183.43 1.90111 0.161946 0
M  V30 1965 C 180.57 3.44685 -0.169102 0
M  V30 1966 C 179.683 4.13711 -1.24367 0
M  V30 1967 C 178.818 5.27379 -0.636019 0
M  V30 1968 C 177.857 5.88259 -1.69169 0
M  V30 1969 N 176.994 6.93352 -1.10485 0
M  V30 1970 H 181.834 2.48607 -1.64312 0
M  V30 1971 H 179.371 1.22066 -0.820875 0
M  V30 1972 H 181.329 4.16815 0.179256 0
M  V30 1973 H 179.959 3.15161 0.698079 0
M  V30 1974 H 179.011 3.39835 -1.70927 0
M  V30 1975 H 180.323 4.55037 -2.04311 0
M  V30 1976 H 179.477 6.06238 -0.236677 0
M  V30 1977 H 178.216 4.8731 0.194928 0
M  V30 1978 H 177.221 5.08092 -2.10055 0
M  V30 1979 H 178.446 6.30399 -2.52536 0
M  V30 1980 H 176.392 6.55335 -0.295234 0
M  V30 1981 H 176.309 7.33236 -1.84121 0
M  V30 1982 H 177.577 7.76057 -0.73181 0
M  V30 1983 N 181.806 0.884767 1.30421 0
M  V30 1984 C 183.053 0.503105 1.96151 0
M  V30 1985 C 183.381 -0.947676 1.69851 0
M  V30 1986 O 182.636 -1.68467 0.995861 0
M  V30 1987 C 182.935 0.724318 3.49983 0
M  V30 1988 C 182.601 2.15015 3.96332 0
M  V30 1989 C 181.263 2.54005 4.08699 0
M  V30 1990 C 183.615 3.07936 4.20505 0
M  V30 1991 C 180.943 3.85128 4.42599 0
M  V30 1992 C 183.295 4.3859 4.55874 0
M  V30 1993 C 181.959 4.77474 4.66449 0
M  V30 1994 H 181.229 0.184099 0.717766 0
M  V30 1995 H 183.876 1.12058 1.55291 0
M  V30 1996 H 182.181 0.0238086 3.91793 0
M  V30 1997 H 183.878 0.408617 3.98913 0
M  V30 1998 H 180.468 1.8375 3.87213 0
M  V30 1999 H 184.652 2.79033 4.10431 0
M  V30 2000 H 179.908 4.14996 4.48986 0
M  V30 2001 H 184.082 5.10629 4.7353 0
M  V30 2002 H 181.709 5.79115 4.92473 0
M  V30 2003 N 183.284 -1.43765 0.645699 0
M  V30 2004 C 184.53 -2.02197 0.156271 0
M  V30 2005 C 184.863 -1.50776 -1.22393 0
M  V30 2006 O 184.138 -0.697771 -1.81553 0
M  V30 2007 C 184.421 -3.59749 0.158872 0
M  V30 2008 C 184.274 -4.21419 1.57245 0
M  V30 2009 C 185.593 -4.37149 -0.50879 0
M  V30 2010 H 182.712 -0.734694 0.0582602 0
M  V30 2011 H 185.354 -1.71157 0.824951 0
M  V30 2012 H 183.504 -3.86325 -0.410525 0
M  V30 2013 H 185.176 -4.059 2.19186 0
M  V30 2014 H 183.419 -3.78356 2.122 0
M  V30 2015 H 184.09 -5.30482 1.52619 0
M  V30 2016 H 186.566 -4.16093 -0.024412 0
M  V30 2017 H 185.442 -5.4683 -0.476213 0
M  V30 2018 H 185.703 -4.12839 -1.58165 0
M  V30 2019 N 184.763 -0.387143 -1.52771 0
M  V30 2020 C 185.673 0.456442 -2.30117 0
M  V30 2021 C 186.689 1.07342 -1.36944 0
M  V30 2022 O 187.865 1.07971 -1.70013 0
M  V30 2023 C 184.93 1.56957 -3.09136 0
M  V30 2024 C 183.991 0.977916 -4.18014 0
M  V30 2025 C 183.224 2.038 -4.93256 0
M  V30 2026 O 183.447 3.25271 -4.68567 0
M  V30 2027 O 182.381 1.6565 -5.78657 0
M  V30 2028 H 186.207 -0.17359 -3.03203 0
M  V30 2029 H 183.792 -0.150919 -1.48636 0
M  V30 2030 H 185.674 2.21628 -3.58412 0
M  V30 2031 H 184.349 2.18461 -2.38865 0
M  V30 2032 H 183.256 0.294525 -3.72939 0
M  V30 2033 H 184.589 0.407128 -4.90513 0
M  V30 2034 N 186.241 1.57166 -0.116904 0
M  V30 2035 C 187.171 2.18222 0.830759 0
M  V30 2036 C 188.152 1.12167 1.27877 0
M  V30 2037 O 189.337 1.40394 1.34176 0
M  V30 2038 C 186.467 2.77996 2.08172 0
M  V30 2039 C 185.421 3.89614 1.77157 0
M  V30 2040 C 184.747 4.36187 3.09265 0
M  V30 2041 C 186.047 5.1181 1.04151 0
M  V30 2042 H 187.741 2.97664 0.321992 0
M  V30 2043 H 185.287 1.4318 0.153434 0
M  V30 2044 H 187.24 3.19366 2.74924 0
M  V30 2045 H 185.964 1.9584 2.6137 0
M  V30 2046 H 184.623 3.48816 1.12796 0
M  V30 2047 H 184.271 3.50893 3.60393 0
M  V30 2048 H 183.971 5.11455 2.89288 0
M  V30 2049 H 185.495 4.80207 3.77139 0
M  V30 2050 H 186.909 5.50214 1.61052 0
M  V30 2051 H 185.306 5.92648 0.942762 0
M  V30 2052 H 186.376 4.84892 0.0279022 0
M  V30 2053 N 187.719 -0.156864 1.56817 0
M  V30 2054 C 188.667 -1.21319 1.98455 0
M  V30 2055 C 189.661 -1.45025 0.875444 0
M  V30 2056 O 190.867 -1.45435 1.0606 0
M  V30 2057 H 187.242 -0.408142 0.631605 0
M  V30 2058 H 189.213 -0.835244 2.86472 0
M  V30 2059 C 187.962 -2.54148 2.37285 0
M  V30 2060 H 187.285 -2.36733 3.22176 0
M  V30 2061 H 188.725 -3.26712 2.70251 0
M  V30 2062 C 187.184 -3.13967 1.22173 0
M  V30 2063 O 187.714 -3.98357 0.517149 0
M  V30 2064 N 185.92 -2.7327 0.988536 0
M  V30 2065 H 185.467 -2.04744 1.56326 0
M  V30 2066 H 185.425 -3.13628 0.220209 0
M  V30 2067 N 189.197 -1.51736 -0.425897 0
M  V30 2068 C 190.437 -1.66636 -1.18371 0
M  V30 2069 C 190.801 -0.379854 -1.88205 0
M  V30 2070 O 192.002 -0.404758 -2.65735 0
M  V30 2071 C 190.273 -2.84382 -2.16476 0
M  V30 2072 S 191.832 -3.19673 -3.0059 0
M  V30 2073 H 188.65 -0.586957 -0.40125 0
M  V30 2074 H 191.252 -1.89679 -0.473518 0
M  V30 2075 H 189.956 -3.76281 -1.63831 0
M  V30 2076 H 189.487 -2.63562 -2.92059 0
M  V30 2077 H 191.502 -2.66994 -4.18245 0
M  V30 2078 N 190.675 0.682077 -1.42076 0
M  V30 2079 C 191.952 1.43755 -1.32642 0
M  V30 2080 C 192.332 2.11063 0.0396611 0
M  V30 2081 O 191.68 2.02701 1.05474 0
M  V30 2082 C 191.89 2.44596 -2.48946 0
M  V30 2083 C 193.238 3.09454 -2.9073 0
M  V30 2084 O 194.262 2.54922 -2.48783 0
M  V30 2085 O 193.121 4.08253 -3.63307 0
M  V30 2086 H 190.215 0.640857 -0.522715 0
M  V30 2087 H 192.761 0.711415 -1.54068 0
M  V30 2088 H 191.533 1.93609 -3.40046 0
M  V30 2089 H 191.156 3.24701 -2.29467 0
M  V30 2090 N 192.153 1.28127 0.917671 0
M  V30 2091 C 193.063 1.13556 2.05286 0
M  V30 2092 C 194.079 0.0630914 1.73886 0
M  V30 2093 O 195.255 0.271598 1.9956 0
M  V30 2094 C 192.32 0.794676 3.3747 0
M  V30 2095 C 191.381 1.94909 3.82504 0
M  V30 2096 C 190.614 1.62437 5.0838 0
M  V30 2097 O 190.837 0.536905 5.67867 0
M  V30 2098 O 189.771 2.46677 5.4903 0
M  V30 2099 H 193.597 2.08844 2.20495 0
M  V30 2100 H 191.182 1.07409 1.03845 0
M  V30 2101 H 193.064 0.618344 4.16839 0
M  V30 2102 H 191.739 -0.128581 3.23445 0
M  V30 2103 H 190.646 2.18055 3.03978 0
M  V30 2104 H 191.979 2.85291 4.01086 0
M  V30 2105 N 193.631 -1.12557 1.10312 0
M  V30 2106 C 194.579 -2.20325 0.745629 0
M  V30 2107 C 195.573 -1.67429 -0.25763 0
M  V30 2108 O 196.779 -1.79612 -0.118132 0
M  V30 2109 H 193.154 -0.718118 0.223182 0
M  V30 2110 H 195.125 -2.47733 1.66346 0
M  V30 2111 C 193.874 -3.47168 0.192262 0
M  V30 2112 H 193.197 -3.88215 0.955475 0
M  V30 2113 H 194.637 -4.23995 -0.0198274 0
M  V30 2114 C 193.096 -3.19298 -1.07472 0
M  V30 2115 O 193.626 -3.3891 -2.15645 0
M  V30 2116 N 191.832 -2.73113 -0.992847 0
M  V30 2117 H 191.379 -2.57354 -0.112474 0
M  V30 2118 H 191.337 -2.54842 -1.84127 0
M  V30 2119 N 195.109 -0.891671 -1.2995 0
M  V30 2120 C 196.357 -0.512486 -1.95494 0
M  V30 2121 C 196.678 0.942776 -1.70695 0
M  V30 2122 O 195.948 1.66374 -1.03424 0
M  V30 2123 H 194.528 -0.186533 -0.723336 0
M  V30 2124 H 197.19 -1.13621 -1.58355 0
M  V30 2125 H 196.286 -0.688342 -3.04415 0
M  V30 2126 N 196.587 1.43421 -0.653314 0
M  V30 2127 C 197.497 2.34568 0.0388565 0
M  V30 2128 C 198.513 1.53888 0.81207 0
M  V30 2129 O 199.689 1.86539 0.759294 0
M  V30 2130 C 196.754 3.32167 0.993269 0
M  V30 2131 C 195.815 4.28751 0.216977 0
M  V30 2132 C 195.048 5.21688 1.12593 0
M  V30 2133 O 195.271 5.19052 2.36519 0
M  V30 2134 O 194.205 5.98919 0.598284 0
M  V30 2135 H 198.031 2.95251 -0.711386 0
M  V30 2136 H 195.616 1.43564 -0.413502 0
M  V30 2137 H 197.498 3.92183 1.54176 0
M  V30 2138 H 196.173 2.73987 1.72374 0
M  V30 2139 H 195.08 3.72215 -0.375101 0
M  V30 2140 H 196.413 4.89913 -0.473924 0
M  V30 2141 N 198.065 0.39524 1.52563 0
M  V30 2142 C 199.015 -0.4541 2.23432 0
M  V30 2143 C 199.999 -1.02482 1.24042 0
M  V30 2144 O 201.191 -0.949938 1.49349 0
M  V30 2145 C 198.32 -1.57769 3.049 0
M  V30 2146 C 197.406 -1.01842 4.1169 0
M  V30 2147 N 197.797 -0.184613 5.05463 0
M  V30 2148 C 196.095 -1.29033 4.26927 0
M  V30 2149 C 196.796 0.125013 5.81566 0
M  V30 2150 N 195.772 -0.480498 5.41472 0
M  V30 2151 H 199.574 0.189413 2.93289 0
M  V30 2152 H 197.088 0.204877 1.61102 0
M  V30 2153 H 199.085 -2.19862 3.54212 0
M  V30 2154 H 197.745 -2.22397 2.36579 0
M  V30 2155 H 198.756 0.178602 5.17592 0
M  V30 2156 H 195.433 -1.93721 3.69836 0
M  V30 2157 H 196.823 0.800962 6.67109 0
M  V30 2158 N 199.544 -1.57102 0.125237 0
M  V30 2159 C 200.491 -2.15641 -0.822655 0
M  V30 2160 C 201.461 -1.08313 -1.25927 0
M  V30 2161 O 202.646 -1.36251 -1.33567 0
M  V30 2162 C 199.786 -2.76504 -2.06494 0
M  V30 2163 C 198.899 -3.98158 -1.67612 0
M  V30 2164 C 198.034 -4.47088 -2.86854 0
M  V30 2165 C 197.073 -5.6126 -2.44242 0
M  V30 2166 N 196.21 -6.04905 -3.56419 0
M  V30 2167 H 201.05 -2.96313 -0.316625 0
M  V30 2168 H 198.587 -1.46388 -0.144588 0
M  V30 2169 H 200.545 -3.09925 -2.79289 0
M  V30 2170 H 199.175 -1.98512 -2.54545 0
M  V30 2171 H 198.227 -3.70858 -0.846661 0
M  V30 2172 H 199.539 -4.80934 -1.32301 0
M  V30 2173 H 198.693 -4.82451 -3.67867 0
M  V30 2174 H 197.432 -3.63275 -3.25396 0
M  V30 2175 H 196.437 -5.25495 -1.61663 0
M  V30 2176 H 197.662 -6.46843 -2.0681 0
M  V30 2177 H 195.608 -5.24032 -3.94623 0
M  V30 2178 H 195.525 -6.82552 -3.25051 0
M  V30 2179 H 196.793 -6.44907 -4.37853 0
M  V30 2180 N 201.022 0.148545 -1.56898 0
M  V30 2181 C 201.985 1.16736 -1.97244 0
M  V30 2182 C 202.985 1.35947 -0.858777 0
M  V30 2183 O 204.175 1.32966 -1.12542 0
M  V30 2184 C 201.307 2.52798 -2.28705 0
M  V30 2185 H 202.5 0.821279 -2.88435 0
M  V30 2186 H 200.053 0.391831 -1.51309 0
M  V30 2187 H 200.788 2.92381 -1.403 0
M  V30 2188 H 200.573 2.40216 -3.09901 0
M  V30 2189 H 202.063 3.26179 -2.60762 0
M  V30 2190 N 202.5 1.5196 0.417844 0
M  V30 2191 C 203.746 1.66793 1.16411 0
M  V30 2192 C 204.101 0.388758 1.88432 0
M  V30 2193 O 203.394 -0.616409 1.81414 0
M  V30 2194 C 203.588 2.82269 2.19223 0
M  V30 2195 C 203.417 4.21293 1.57297 0
M  V30 2196 C 202.187 4.86948 1.34944 0
M  V30 2197 C 204.385 5.03704 1.03858 0
M  V30 2198 N 202.367 6.1003 0.688195 0
M  V30 2199 C 203.738 6.1795 0.503742 0
M  V30 2200 C 205.793 4.89095 0.932203 0
M  V30 2201 C 204.496 7.19188 -0.127034 0
M  V30 2202 C 206.522 5.90559 0.315293 0
M  V30 2203 C 205.884 7.0409 -0.208906 0
M  V30 2204 H 201.983 0.66407 0.412959 0
M  V30 2205 H 204.567 1.89242 0.457772 0
M  V30 2206 H 202.738 2.61451 2.87225 0
M  V30 2207 H 204.47 2.86183 2.86149 0
M  V30 2208 H 201.225 4.45156 1.61657 0
M  V30 2209 H 201.649 6.75964 0.374449 0
M  V30 2210 H 206.291 4.01557 1.32332 0
M  V30 2211 H 204.009 8.06359 -0.530231 0
M  V30 2212 H 207.595 5.81327 0.234625 0
M  V30 2213 H 206.475 7.81257 -0.67875 0
M  V30 2214 N 203.978 -0.674533 1.42435 0
M  V30 2215 C 205.206 -1.46283 1.46317 0
M  V30 2216 C 205.621 -1.88653 0.0745836 0
M  V30 2217 O 204.978 -1.58151 -0.91074 0
M  V30 2218 C 205.029 -2.71178 2.3905 0
M  V30 2219 O 204.75 -2.30586 3.72507 0
M  V30 2220 C 206.251 -3.64738 2.51955 0
M  V30 2221 H 203.471 -0.450104 0.497642 0
M  V30 2222 H 206.015 -0.828792 1.86953 0
M  V30 2223 H 204.17 -3.3077 2.01667 0
M  V30 2224 H 204.584 -3.11241 4.22172 0
M  V30 2225 H 206.058 -4.49096 3.20962 0
M  V30 2226 H 206.535 -4.10656 1.55752 0
M  V30 2227 H 207.141 -3.11038 2.90061 0
M  V30 2228 N 205.456 -1.28612 -0.910864 0
M  V30 2229 C 206.403 -1.12786 -2.01365 0
M  V30 2230 C 207.373 -0.024201 -1.66082 0
M  V30 2231 O 208.558 -0.189667 -1.89855 0
M  V30 2232 C 205.698 -0.798743 -3.35729 0
M  V30 2233 C 204.811 -1.98173 -3.83864 0
M  V30 2234 C 203.946 -1.59298 -5.06752 0
M  V30 2235 C 202.985 -2.74245 -5.47226 0
M  V30 2236 N 202.122 -2.35842 -6.61304 0
M  V30 2237 H 206.962 -2.07142 -2.14234 0
M  V30 2238 H 204.499 -1.03093 -1.0493 0
M  V30 2239 H 206.457 -0.588662 -4.13026 0
M  V30 2240 H 205.087 0.10789 -3.2262 0
M  V30 2241 H 204.139 -2.30386 -3.02699 0
M  V30 2242 H 205.451 -2.84343 -4.09818 0
M  V30 2243 H 204.605 -1.34513 -5.916 0
M  V30 2244 H 203.344 -0.702618 -4.82612 0
M  V30 2245 H 202.349 -2.99725 -4.60918 0
M  V30 2246 H 203.574 -3.63928 -5.73353 0
M  V30 2247 H 201.52 -1.49279 -6.38789 0
M  V30 2248 H 201.437 -3.15546 -6.86998 0
M  V30 2249 H 202.705 -2.14348 -7.4945 0
M  V30 2250 N 206.934 1.1197 -1.10907 0
M  V30 2251 C 208.345 1.65114 -0.871446 0
M  V30 2252 C 208.696 1.86885 0.597353 0
M  V30 2253 O 207.821 1.59896 1.45816 0
M  V30 2254 C 208.416 2.99944 -1.5754 0
M  V30 2255 C 206.975 3.50018 -1.38435 0
M  V30 2256 C 206.122 2.24941 -1.62164 0
M  V30 2257 H 209.073 0.956851 -1.2661 0
M  V30 2258 H 209.094 3.66651 -1.01721 0
M  V30 2259 H 208.606 2.84067 -2.64438 0
M  V30 2260 H 206.707 3.71071 -0.337214 0
M  V30 2261 H 206.82 4.29165 -2.12965 0
M  V30 2262 H 205.184 2.3229 -1.04467 0
M  V30 2263 H 205.967 2.11612 -2.70324 0
M  V30 2264 N 208.412 0.89855 1.29475 0
M  V30 2265 C 209.344 0.332726 2.26772 0
M  V30 2266 C 210.357 -0.520323 1.54261 0
M  V30 2267 O 211.546 -0.337668 1.75277 0
M  V30 2268 C 208.646 -0.544334 3.345 0
M  V30 2269 C 207.819 0.282728 4.36485 0
M  V30 2270 C 206.878 -0.526982 5.23555 0
M  V30 2271 O 205.904 0.0551165 5.69173 0
M  V30 2272 N 207.106 -1.83331 5.5079 0
M  V30 2273 H 209.871 1.16897 2.75962 0
M  V30 2274 H 207.432 0.762919 1.42798 0
M  V30 2275 H 209.424 -1.09239 3.89678 0
M  V30 2276 H 207.994 -1.28127 2.85136 0
M  V30 2277 H 207.214 1.01221 3.80983 0
M  V30 2278 H 208.502 0.84918 5.01664 0
M  V30 2279 H 207.9 -2.32898 5.15534 0
M  V30 2280 H 206.457 -2.32852 6.08788 0
M  V30 2281 N 209.89 -1.43072 0.660911 0
M  V30 2282 C 210.853 -2.29194 -0.0166406 0
M  V30 2283 C 211.853 -1.42609 -0.742912 0
M  V30 2284 O 213.043 -1.64155 -0.583004 0
M  V30 2285 C 210.175 -3.24831 -1.0343 0
M  V30 2286 H 211.368 -2.90596 0.741208 0
M  V30 2287 H 208.921 -1.5048 0.422532 0
M  V30 2288 H 209.656 -2.68339 -1.82111 0
M  V30 2289 H 209.441 -3.88676 -0.517082 0
M  V30 2290 H 210.931 -3.89451 -1.50723 0
M  V30 2291 N 211.368 -0.403325 -1.52352 0
M  V30 2292 C 212.598 0.17376 -2.05868 0
M  V30 2293 C 213.006 1.39898 -1.27378 0
M  V30 2294 O 212.349 1.80939 -0.31729 0
M  V30 2295 C 212.411 0.594756 -3.54546 0
M  V30 2296 C 212.075 -0.518926 -4.54044 0
M  V30 2297 C 213.072 -1.3807 -5.01231 0
M  V30 2298 C 210.757 -0.689961 -4.97539 0
M  V30 2299 C 212.751 -2.39852 -5.90551 0
M  V30 2300 C 210.438 -1.71109 -5.86656 0
M  V30 2301 C 211.436 -2.56378 -6.33056 0
M  V30 2302 O 211.124 -3.56743 -7.20409 0
M  V30 2303 H 210.856 0.0264951 -0.675481 0
M  V30 2304 H 213.41 -0.571179 -1.97299 0
M  V30 2305 H 211.64 1.39189 -3.60782 0
M  V30 2306 H 213.329 1.0991 -3.90736 0
M  V30 2307 H 214.095 -1.25994 -4.68349 0
M  V30 2308 H 209.974 -0.035939 -4.60986 0
M  V30 2309 H 213.518 -3.06441 -6.26689 0
M  V30 2310 H 209.415 -1.83218 -6.18952 0
M  V30 2311 H 210.183 -3.52918 -7.38506 0
M  V30 2312 N 212.846 1.57033 -0.133567 0
M  V30 2313 C 213.776 2.1909 0.807567 0
M  V30 2314 C 214.757 1.13517 1.26681 0
M  V30 2315 O 215.942 1.41809 1.32679 0
M  V30 2316 C 213.072 2.80188 2.05212 0
M  V30 2317 C 212.026 3.91471 1.73015 0
M  V30 2318 C 211.352 4.39443 3.04622 0
M  V30 2319 C 212.652 5.12886 0.987168 0
M  V30 2320 H 214.346 2.97988 0.290403 0
M  V30 2321 H 211.892 1.43335 0.138239 0
M  V30 2322 H 213.845 3.22264 2.71521 0
M  V30 2323 H 212.569 1.98601 2.59278 0
M  V30 2324 H 211.228 3.49993 1.0909 0
M  V30 2325 H 210.876 3.54695 3.56651 0
M  V30 2326 H 210.576 5.14495 2.83847 0
M  V30 2327 H 212.1 4.8418 3.72024 0
M  V30 2328 H 213.514 5.51891 1.55208 0
M  V30 2329 H 211.911 5.93615 0.87985 0
M  V30 2330 H 212.981 4.84894 -0.0235286 0
M  V30 2331 N 214.325 -0.140222 1.56975 0
M  V30 2332 C 215.288 -1.15689 1.97861 0
M  V30 2333 C 216.288 -1.3549 0.865974 0
M  V30 2334 O 217.478 -1.32367 1.13246 0
M  V30 2335 C 214.61 -2.51582 2.30042 0
M  V30 2336 H 215.803 -0.805971 2.88867 0
M  V30 2337 H 213.356 -0.383801 1.51515 0
M  V30 2338 H 214.091 -2.91632 1.41849 0
M  V30 2339 H 213.876 -2.38569 3.11171 0
M  V30 2340 H 215.366 -3.24792 2.62488 0
M  V30 2341 N 215.803 -1.52179 -0.40978 0
M  V30 2342 C 216.733 -1.78435 -1.5061 0
M  V30 2343 C 217.714 -0.635295 -1.57791 0
M  V30 2344 O 218.899 -0.880823 -1.73076 0
M  V30 2345 C 216.029 -1.93444 -2.88439 0
M  V30 2346 C 214.983 -3.09038 -2.96108 0
M  V30 2347 C 214.309 -3.09268 -4.36185 0
M  V30 2348 C 215.609 -4.48508 -2.67652 0
M  V30 2349 H 217.303 -2.70237 -1.28889 0
M  V30 2350 H 214.849 -1.30036 -0.618605 0
M  V30 2351 H 216.802 -2.10394 -3.65119 0
M  V30 2352 H 215.526 -0.983129 -3.11452 0
M  V30 2353 H 214.185 -2.91837 -2.21872 0
M  V30 2354 H 213.833 -2.11861 -4.56206 0
M  V30 2355 H 213.533 -3.86907 -4.42241 0
M  V30 2356 H 215.057 -3.28348 -5.14801 0
M  V30 2357 H 216.471 -4.65918 -3.34056 0
M  V30 2358 H 214.868 -5.28059 -2.85085 0
M  V30 2359 H 215.938 -4.56649 -1.63095 0
M  V30 2360 N 217.281 0.66697 -1.42791 0
M  V30 2361 C 218.529 1.42417 -1.43394 0
M  V30 2362 C 218.85 1.94925 -0.0542373 0
M  V30 2363 O 218.12 1.73564 0.908415 0
M  V30 2364 H 216.7 0.528515 -0.527902 0
M  V30 2365 H 219.362 0.787562 -1.78279 0
M  V30 2366 H 218.458 2.27333 -2.13837 0
M  V30 2367 N 218.759 1.29093 0.90403 0
M  V30 2368 C 219.707 1.13727 2.02901 0
M  V30 2369 C 220.701 0.0539853 1.69314 0
M  V30 2370 O 221.907 0.213469 1.7873 0
M  V30 2371 H 218.282 0.35117 0.664969 0
M  V30 2372 H 220.253 2.08982 2.13001 0
M  V30 2373 C 219.002 0.826066 3.37745 0
M  V30 2374 H 218.325 1.65164 3.64089 0
M  V30 2375 H 219.765 0.758559 4.17159 0
M  V30 2376 C 218.224 -0.470541 3.33598 0
M  V30 2377 O 218.754 -1.49792 3.72727 0
M  V30 2378 N 216.96 -0.474812 2.86695 0
M  V30 2379 H 216.507 0.361692 2.55048 0
M  V30 2380 H 216.465 -1.34236 2.84303 0
M  V30 2381 N 220.237 -1.11381 1.11499 0
M  V30 2382 C 221.2 -2.15622 0.777153 0
M  V30 2383 C 222.2 -1.59504 -0.203779 0
M  V30 2384 O 223.39 -1.74188 0.020782 0
M  V30 2385 C 220.522 -3.40556 0.153116 0
M  V30 2386 H 221.715 -2.47021 1.70061 0
M  V30 2387 H 219.268 -1.26577 0.916952 0
M  V30 2388 H 220.003 -3.14767 -0.780536 0
M  V30 2389 H 219.788 -3.8257 0.859238 0
M  V30 2390 H 221.278 -4.17546 -0.0671044 0
M  V30 2391 N 221.715 -0.905404 -1.28997 0
M  V30 2392 C 222.645 -0.404212 -2.29975 0
M  V30 2393 C 223.626 0.523784 -1.61835 0
M  V30 2394 O 224.811 0.433298 -1.89304 0
M  V30 2395 C 221.941 0.364042 -3.45387 0
M  V30 2396 C 220.895 -0.474048 -4.25367 0
M  V30 2397 C 220.221 0.422045 -5.33032 0
M  V30 2398 C 221.521 -1.72696 -4.92923 0
M  V30 2399 H 223.215 -1.24807 -2.72146 0
M  V30 2400 H 220.761 -0.601585 -1.30832 0
M  V30 2401 H 222.714 0.725447 -4.15109 0
M  V30 2402 H 221.438 1.24174 -3.02074 0
M  V30 2403 H 220.097 -0.81786 -3.57361 0
M  V30 2404 H 219.745 1.29804 -4.85963 0
M  V30 2405 H 219.445 -0.135057 -5.87445 0
M  V30 2406 H 220.969 0.779517 -6.05604 0
M  V30 2407 H 222.383 -1.43495 -5.55051 0
M  V30 2408 H 220.78 -2.22582 -5.57295 0
M  V30 2409 H 221.85 -2.45964 -4.17887 0
M  V30 2410 N 223.193 1.4272 -0.668489 0
M  V30 2411 C 224.143 2.27971 0.0363806 0
M  V30 2412 C 225.127 1.40741 0.779794 0
M  V30 2413 O 226.319 1.64245 0.659745 0
M  V30 2414 C 223.448 3.28673 0.991398 0
M  V30 2415 C 222.534 4.23388 0.245658 0
M  V30 2416 N 222.925 5.00267 -0.746069 0
M  V30 2417 C 221.223 4.43355 0.484988 0
M  V30 2418 C 221.924 5.69396 -1.19009 0
M  V30 2419 N 220.9 5.41095 -0.521287 0
M  V30 2420 H 224.702 2.84833 -0.724394 0
M  V30 2421 H 222.216 1.54607 -0.497028 0
M  V30 2422 H 224.213 3.88543 1.51129 0
M  V30 2423 H 222.873 2.73373 1.75207 0
M  V30 2424 H 223.884 5.05525 -1.12537 0
M  V30 2425 H 220.561 3.99104 1.22565 0
M  V30 2426 H 221.951 6.41083 -2.01153 0
M  V30 2427 N 224.671 0.411399 1.52136 0
M  V30 2428 C 225.899 -0.163076 2.06256 0
M  V30 2429 C 226.314 -1.3867 1.28125 0
M  V30 2430 O 225.671 -1.79423 0.333721 0
M  V30 2431 C 225.722 -0.511252 3.57867 0
M  V30 2432 O 225.443 0.66378 4.33042 0
M  V30 2433 C 226.944 -1.13921 4.28412 0
M  V30 2434 H 224.164 -0.0193897 0.67072 0
M  V30 2435 H 226.708 0.583007 1.96013 0
M  V30 2436 H 224.863 -1.20723 3.6811 0
M  V30 2437 H 225.277 0.372601 5.23175 0
M  V30 2438 H 226.751 -1.33302 5.35663 0
M  V30 2439 H 227.228 -2.11296 3.85033 0
M  V30 2440 H 227.834 -0.483373 4.22544 0
M  V30 2441 N 226.149 -1.5696 0.141893 0
M  V30 2442 C 227.079 -2.19516 -0.795936 0
M  V30 2443 C 228.06 -1.14187 -1.26077 0
M  V30 2444 O 229.245 -1.42511 -1.31925 0
M  V30 2445 C 226.375 -2.81272 -2.03723 0
M  V30 2446 C 225.329 -3.92384 -1.70936 0
M  V30 2447 C 224.655 -4.41052 -3.02287 0
M  V30 2448 C 225.955 -5.13403 -0.959954 0
M  V30 2449 H 227.649 -2.98138 -0.274596 0
M  V30 2450 H 225.195 -1.43406 -0.130636 0
M  V30 2451 H 227.148 -3.237 -2.69808 0
M  V30 2452 H 225.872 -1.99973 -2.58221 0
M  V30 2453 H 224.531 -3.50566 -1.07232 0
M  V30 2454 H 224.179 -3.56582 -3.54765 0
M  V30 2455 H 223.879 -5.15993 -2.81114 0
M  V30 2456 H 225.403 -4.86146 -3.69451 0
M  V30 2457 H 226.817 -5.52706 -1.52279 0
M  V30 2458 H 225.214 -5.94073 -0.848357 0
M  V30 2459 H 226.284 -4.84875 0.0492434 0
M  V30 2460 N 227.627 0.131896 -1.57047 0
M  V30 2461 C 228.59 1.14638 -1.98471 0
M  V30 2462 C 229.59 1.35029 -0.873148 0
M  V30 2463 O 230.78 1.31764 -1.13946 0
M  V30 2464 C 227.912 2.50358 -2.31373 0
M  V30 2465 H 229.105 0.79064 -2.8929 0
M  V30 2466 H 226.658 0.375761 -1.51716 0
M  V30 2467 H 227.393 2.90876 -1.43393 0
M  V30 2468 H 227.178 2.36915 -3.12432 0
M  V30 2469 H 228.668 3.23395 -2.64207 0
M  V30 2470 N 229.106 1.52395 0.401703 0
M  V30 2471 C 230.522 1.41363 0.740864 0
M  V30 2472 C 230.722 0.523982 1.94568 0
M  V30 2473 O 229.778 -0.00741204 2.52499 0
M  V30 2474 C 231.091 2.84011 0.987847 0
M  V30 2475 C 232.639 2.93404 1.09011 0
M  V30 2476 C 233.114 4.37036 1.3698 0
M  V30 2477 N 234.605 4.40304 1.43829 0
M  V30 2478 C 235.34 5.48508 1.67112 0
M  V30 2479 N 234.836 6.66819 1.87949 0
M  V30 2480 N 236.629 5.36034 1.69187 0
M  V30 2481 H 228.78 2.08765 -0.391262 0
M  V30 2482 H 231.043 0.941265 -0.112798 0
M  V30 2483 H 230.749 3.51265 0.174835 0
M  V30 2484 H 230.623 3.25502 1.906 0
M  V30 2485 H 233.01 2.26325 1.8937 0
M  V30 2486 H 233.091 2.55359 0.15015 0
M  V30 2487 H 232.735 5.04676 0.571353 0
M  V30 2488 H 232.665 4.72623 2.3224 0
M  V30 2489 H 235.156 3.55024 1.29486 0
M  V30 2490 H 235.469 7.45063 2.05185 0
M  V30 2491 H 233.814 6.6987 1.85199 0
M  V30 2492 H 237.005 4.42579 1.52451 0
M  V30 2493 H 237.178 6.20434 1.86993 0
M  V30 2494 N 230.584 -0.659388 1.43143 0
M  V30 2495 C 231.514 -1.78422 1.50625 0
M  V30 2496 C 232.495 -1.66216 0.361443 0
M  V30 2497 O 233.68 -1.85404 0.577834 0
M  V30 2498 C 230.81 -3.16815 1.42287 0
M  V30 2499 C 229.764 -3.43777 2.54954 0
M  V30 2500 C 229.09 -4.81905 2.31671 0
M  V30 2501 C 230.39 -3.39134 3.97222 0
M  V30 2502 H 232.084 -1.72417 2.44771 0
M  V30 2503 H 229.63 -0.828084 1.17808 0
M  V30 2504 H 231.583 -3.95253 1.46127 0
M  V30 2505 H 230.307 -3.23534 0.446435 0
M  V30 2506 H 228.966 -2.67707 2.50457 0
M  V30 2507 H 228.614 -4.85294 1.32284 0
M  V30 2508 H 228.314 -5.00906 3.07192 0
M  V30 2509 H 229.838 -5.62609 2.37284 0
M  V30 2510 H 231.252 -4.07518 4.03239 0
M  V30 2511 H 229.649 -3.69671 4.72719 0
M  V30 2512 H 230.719 -2.37426 4.22797 0
M  V30 2513 N 232.062 -1.29571 -0.897171 0
M  V30 2514 C 233.01 -1.14802 -2.02295 0
M  V30 2515 C 234.004 -0.0629637 -1.69283 0
M  V30 2516 O 235.21 -0.222945 -1.78614 0
M  V30 2517 H 231.585 -0.354692 -0.663097 0
M  V30 2518 H 233.556 -2.10108 -2.11889 0
M  V30 2519 C 232.305 -0.843966 -3.37302 0
M  V30 2520 H 231.628 -1.67093 -3.63208 0
M  V30 2521 H 233.068 -0.780672 -4.16751 0
M  V30 2522 C 231.527 0.452843 -3.33843 0
M  V30 2523 O 232.057 1.47813 -3.73516 0
M  V30 2524 N 230.263 0.459601 -2.86943 0
M  V30 2525 H 229.81 -0.375213 -2.54853 0
M  V30 2526 H 229.768 1.32726 -2.85011 0
M  V30 2527 N 233.54 1.10788 -1.12088 0
M  V30 2528 C 234.789 1.82036 -0.868659 0
M  V30 2529 C 235.102 1.85929 0.607426 0
M  V30 2530 O 236.308 2.53346 0.97613 0
M  V30 2531 C 234.764 3.26951 -1.50435 0
M  V30 2532 C 234.372 3.31367 -3.01496 0
M  V30 2533 C 236.116 4.03053 -1.33225 0
M  V30 2534 C 234.023 4.7072 -3.58017 0
M  V30 2535 H 232.953 0.682108 -0.321318 0
M  V30 2536 H 235.604 1.24618 -1.34694 0
M  V30 2537 H 233.986 3.84343 -0.953735 0
M  V30 2538 H 235.16 2.83819 -3.6302 0
M  V30 2539 H 233.475 2.6875 -3.18061 0
M  V30 2540 H 236.072 5.05981 -1.72878 0
M  V30 2541 H 236.415 4.15387 -0.275529 0
M  V30 2542 H 236.948 3.52066 -1.85188 0
M  V30 2543 H 233.687 4.63585 -4.63432 0
M  V30 2544 H 233.207 5.1865 -3.01268 0
M  V30 2545 H 234.886 5.39685 -3.56859 0
M  V30 2546 N 235.018 0.912232 1.28515 0
M  V30 2547 C 236.295 0.463597 1.90027 0
M  V30 2548 C 236.675 -1.05753 1.82701 0
M  V30 2549 O 236.023 -1.90492 1.26194 0
M  V30 2550 C 236.233 0.992253 3.34597 0
M  V30 2551 C 237.581 1.04344 4.11579 0
M  V30 2552 O 238.605 0.94079 3.43551 0
M  V30 2553 O 237.464 1.1995 5.33174 0
M  V30 2554 H 234.558 0.146666 0.813891 0
M  V30 2555 H 237.104 1.00292 1.36893 0
M  V30 2556 H 235.876 2.03623 3.34146 0
M  V30 2557 H 235.499 0.433672 3.95228 0
M  V30 2558 N 236.496 -1.42363 0.676048 0
M  V30 2559 C 237.721 -2.06377 0.205705 0
M  V30 2560 C 238.146 -1.50463 -1.12883 0
M  V30 2561 O 237.504 -0.623619 -1.70237 0
M  V30 2562 C 237.552 -3.60277 0.152655 0
M  V30 2563 O 236.656 -4.02935 -0.87845 0
M  V30 2564 H 235.997 -0.655588 0.105359 0
M  V30 2565 H 238.527 -1.82475 0.925412 0
M  V30 2566 H 238.537 -4.07993 -0.0230675 0
M  V30 2567 H 237.212 -4.00346 1.12675 0
M  V30 2568 H 235.789 -3.66764 -0.673668 0
M  V30 2569 N 237.974 -0.419461 -1.51915 0
M  V30 2570 C 239.202 0.152136 -2.0634 0
M  V30 2571 C 239.617 1.37988 -1.28859 0
M  V30 2572 O 238.974 1.79243 -0.343232 0
M  V30 2573 C 239.025 0.492266 -3.58133 0
M  V30 2574 O 238.746 -0.686736 -4.32684 0
M  V30 2575 C 240.247 1.11648 -4.2901 0
M  V30 2576 H 237.467 0.0158325 -0.670813 0
M  V30 2577 H 240.011 -0.593394 -1.95702 0
M  V30 2578 H 238.166 1.18769 -3.68745 0
M  V30 2579 H 238.58 -0.400341 -5.2297 0
M  V30 2580 H 240.054 1.3046 -5.36362 0
M  V30 2581 H 240.531 2.09251 -3.86148 0
M  V30 2582 H 241.137 0.460958 -4.22795 0
M  V30 2583 N 239.452 1.56882 -0.150215 0
M  V30 2584 C 240.68 2.00593 0.506948 0
M  V30 2585 C 241.095 1.03033 1.58208 0
M  V30 2586 O 240.452 0.0278396 1.82479 0
M  V30 2587 C 240.503 3.44209 1.10465 0
M  V30 2588 O 240.224 4.3804 0.0724636 0
M  V30 2589 C 241.725 4.03214 1.84211 0
M  V30 2590 H 238.945 0.65795 0.13169 0
M  V30 2591 H 241.489 2.03018 -0.245743 0
M  V30 2592 H 239.644 3.42625 1.80795 0
M  V30 2593 H 240.058 5.22007 0.510793 0
M  V30 2594 H 241.532 5.0569 2.21318 0
M  V30 2595 H 242.009 3.44107 2.72923 0
M  V30 2596 H 242.615 4.08437 1.18572 0
M  V30 2597 N 240.93 -0.123565 1.57115 0
M  V30 2598 C 241.863 -1.18202 1.95201 0
M  V30 2599 C 242.841 -1.40349 0.821031 0
M  V30 2600 O 244.025 -1.54578 1.07879 0
M  V30 2601 C 241.152 -2.53671 2.24429 0
M  V30 2602 C 240.198 -2.4798 3.46999 0
M  V30 2603 S 241.031 -1.92389 4.99747 0
M  V30 2604 C 242.187 -3.2954 5.32123 0
M  V30 2605 H 242.42 -0.857212 2.84674 0
M  V30 2606 H 239.953 -0.33014 1.50829 0
M  V30 2607 H 241.911 -3.3162 2.41947 0
M  V30 2608 H 240.572 -2.83332 1.35579 0
M  V30 2609 H 239.765 -3.47758 3.64801 0
M  V30 2610 H 239.367 -1.7815 3.28844 0
M  V30 2611 H 241.659 -4.25736 5.27025 0
M  V30 2612 H 242.602 -3.16569 6.33395 0
M  V30 2613 H 243.01 -3.27758 4.59603 0
M  V30 2614 N 242.408 -1.52605 -0.393616 0
M  V30 2615 C 243.318 -1.79971 -1.50492 0
M  V30 2616 C 244.334 -0.686181 -1.59899 0
M  V30 2617 O 245.51 -0.973274 -1.76322 0
M  V30 2618 C 242.575 -1.95867 -2.86072 0
M  V30 2619 C 241.636 -3.19781 -2.86424 0
M  V30 2620 C 240.869 -3.34909 -4.15538 0
M  V30 2621 O 241.092 -2.54948 -5.10253 0
M  V30 2622 O 240.026 -4.28141 -4.23059 0
M  V30 2623 H 243.852 -2.74328 -1.30299 0
M  V30 2624 H 241.437 -1.3764 -0.581005 0
M  V30 2625 H 243.319 -2.08056 -3.66457 0
M  V30 2626 H 241.994 -1.04699 -3.063 0
M  V30 2627 H 240.901 -3.13038 -2.04837 0
M  V30 2628 H 242.234 -4.1078 -2.71147 0
M  V30 2629 N 243.887 0.651787 -1.4349 0
M  V30 2630 C 245.135 1.40888 -1.44897 0
M  V30 2631 C 245.456 1.94856 -0.0749086 0
M  V30 2632 O 244.726 1.74518 0.889956 0
M  V30 2633 H 243.306 0.522887 -0.533478 0
M  V30 2634 H 245.968 0.768609 -1.79104 0
M  V30 2635 H 245.064 2.25052 -2.16236 0
M  V30 2636 N 245.365 1.30045 0.890287 0
M  V30 2637 C 246.614 1.17929 1.63633 0
M  V30 2638 C 246.927 -0.266204 1.9378 0
M  V30 2639 O 248.133 -0.508804 2.6669 0
M  V30 2640 C 246.589 2.06317 2.94892 0
M  V30 2641 C 246.197 3.55745 2.72305 0
M  V30 2642 C 247.941 2.0295 3.72843 0
M  V30 2643 C 245.848 4.36205 3.99348 0
M  V30 2644 H 244.778 0.437782 0.613892 0
M  V30 2645 H 247.429 1.54754 0.986075 0
M  V30 2646 H 245.811 1.6237 3.61182 0
M  V30 2647 H 246.985 4.07805 2.1455 0
M  V30 2648 H 245.3 3.6088 2.07737 0
M  V30 2649 H 247.897 2.60319 4.67053 0
M  V30 2650 H 248.24 1.0117 4.0382 0
M  V30 2651 H 248.773 2.4499 3.13408 0
M  V30 2652 H 245.512 5.38659 3.73533 0
M  V30 2653 H 245.032 3.8891 4.56628 0
M  V30 2654 H 246.711 4.47362 4.67415 0
M  V30 2655 N 246.843 -1.10192 1.12674 0
M  V30 2656 C 248.12 -1.78717 0.794965 0
M  V30 2657 C 248.5 -1.98628 -0.714853 0
M  V30 2658 O 247.848 -1.58135 -1.64941 0
M  V30 2659 C 248.058 -3.11546 1.5729 0
M  V30 2660 C 249.406 -3.86382 1.76052 0
M  V30 2661 O 250.43 -3.21274 1.53823 0
M  V30 2662 O 249.289 -5.03246 2.13087 0
M  V30 2663 H 246.383 -0.774702 0.289423 0
M  V30 2664 H 248.929 -1.16819 1.23091 0
M  V30 2665 H 247.701 -2.92489 2.59935 0
M  V30 2666 H 247.324 -3.81164 1.13137 0
M  V30 2667 N 248.321 -0.919034 -1.28029 0
M  V30 2668 C 249.732 -0.600735 -1.76771 0
M  V30 2669 C 250.083 0.884024 -1.75156 0
M  V30 2670 O 249.208 1.69163 -1.34956 0
M  V30 2671 C 249.803 -1.08372 -3.21 0
M  V30 2672 C 248.362 -0.816248 -3.67443 0
M  V30 2673 C 247.509 -1.24742 -2.47658 0
M  V30 2674 H 250.46 -1.09974 -1.14418 0
M  V30 2675 H 250.481 -0.427512 -3.78091 0
M  V30 2676 H 249.993 -2.16437 -3.22144 0
M  V30 2677 H 248.094 0.250968 -3.71754 0
M  V30 2678 H 248.207 -1.4277 -4.57333 0
M  V30 2679 H 246.571 -0.666083 -2.45836 0
M  V30 2680 H 247.354 -2.33653 -2.51518 0
M  V30 2681 N 249.799 1.42003 -0.683588 0
M  V30 2682 C 250.709 2.34597 -0.0109075 0
M  V30 2683 C 251.725 1.55576 0.779245 0
M  V30 2684 O 252.901 1.88107 0.719555 0
M  V30 2685 C 249.966 3.34199 0.922588 0
M  V30 2686 C 249.027 4.29115 0.125984 0
M  V30 2687 C 248.26 5.23959 1.01502 0
M  V30 2688 O 248.483 5.23952 2.25456 0
M  V30 2689 O 247.417 6.00053 0.47111 0
M  V30 2690 H 251.243 2.93675 -0.773853 0
M  V30 2691 H 248.828 1.42654 -0.443861 0
M  V30 2692 H 250.71 3.95365 1.45823 0
M  V30 2693 H 249.385 2.77582 1.66523 0
M  V30 2694 H 248.292 3.71335 -0.453969 0
M  V30 2695 H 249.625 4.88798 -0.577736 0
M  V30 2696 N 251.277 0.427512 1.51691 0
M  V30 2697 C 252.207 -0.3796 2.30394 0
M  V30 2698 C 253.188 -1.02982 1.35384 0
M  V30 2699 O 254.373 -1.03534 1.643 0
M  V30 2700 C 251.503 -1.48649 3.1388 0
M  V30 2701 C 250.457 -0.960294 4.17088 0
M  V30 2702 C 249.783 -2.16219 4.89033 0
M  V30 2703 C 251.083 -0.00153679 5.223 0
M  V30 2704 H 252.777 0.277164 2.98114 0
M  V30 2705 H 250.323 0.134739 1.43368 0
M  V30 2706 H 252.276 -2.05826 3.67714 0
M  V30 2707 H 251 -2.1714 2.43962 0
M  V30 2708 H 249.659 -0.410806 3.64291 0
M  V30 2709 H 249.307 -2.83307 4.15628 0
M  V30 2710 H 249.007 -1.81654 5.58816 0
M  V30 2711 H 250.531 -2.73968 5.45687 0
M  V30 2712 H 251.945 -0.482687 5.71264 0
M  V30 2713 H 250.342 0.256199 5.99553 0
M  V30 2714 H 251.412 0.938174 4.75738 0
M  V30 2715 N 252.755 -1.56801 0.158532 0
M  V30 2716 C 253.685 -2.20347 -0.772609 0
M  V30 2717 C 254.666 -1.15518 -1.24859 0
M  V30 2718 O 255.851 -1.43902 -1.30406 0
M  V30 2719 C 252.981 -2.83417 -2.00729 0
M  V30 2720 C 251.935 -3.94174 -1.66765 0
M  V30 2721 C 251.261 -4.44233 -2.97592 0
M  V30 2722 C 252.561 -5.14392 -0.905447 0
M  V30 2723 H 254.255 -2.98413 -0.242959 0
M  V30 2724 H 251.801 -1.43537 -0.115419 0
M  V30 2725 H 253.754 -3.26543 -2.6636 0
M  V30 2726 H 252.478 -2.02701 -2.56086 0
M  V30 2727 H 251.137 -3.51684 -1.03508 0
M  V30 2728 H 250.785 -3.60325 -3.50963 0
M  V30 2729 H 250.485 -5.18945 -2.75626 0
M  V30 2730 H 252.009 -4.90037 -3.64274 0
M  V30 2731 H 253.423 -5.5429 -1.46408 0
M  V30 2732 H 251.82 -5.9494 -0.7853 0
M  V30 2733 H 252.89 -4.84795 0.100668 0
M  V30 2734 N 254.233 0.115231 -1.57178 0
M  V30 2735 C 255.458 0.840354 -1.89612 0
M  V30 2736 C 255.883 1.72464 -0.750845 0
M  V30 2737 O 255.241 1.78826 0.298478 0
M  V30 2738 C 255.289 1.64654 -3.20814 0
M  V30 2739 O 254.393 2.7538 -3.06985 0
M  V30 2740 H 253.734 0.232158 -0.622092 0
M  V30 2741 H 256.264 0.0964977 -2.04372 0
M  V30 2742 H 256.274 2.03499 -3.53627 0
M  V30 2743 H 254.949 0.997416 -4.03763 0
M  V30 2744 H 253.526 2.3971 -2.85646 0
M  V30 2745 N 255.711 1.52812 0.385517 0
M  V30 2746 C 256.621 1.80766 1.49535 0
M  V30 2747 C 257.637 0.694651 1.59532 0
M  V30 2748 O 258.813 0.982611 1.75803 0
M  V30 2749 C 255.878 1.97381 2.85029 0
M  V30 2750 C 254.939 3.21295 2.84724 0
M  V30 2751 C 254.172 3.37108 4.13756 0
M  V30 2752 O 254.395 2.5765 5.08893 0
M  V30 2753 O 253.329 4.30378 4.20783 0
M  V30 2754 H 257.155 2.75015 1.28842 0
M  V30 2755 H 254.74 1.37946 0.573697 0
M  V30 2756 H 256.622 2.09996 3.65349 0
M  V30 2757 H 255.297 1.06322 3.05741 0
M  V30 2758 H 254.204 3.1412 2.03174 0
M  V30 2759 H 255.537 4.12212 2.68965 0
M  V30 2760 N 257.189 -0.644168 1.43834 0
M  V30 2761 C 258.438 -1.39985 1.45214 0
M  V30 2762 C 258.751 -1.95421 0.0835494 0
M  V30 2763 O 259.957 -2.71488 -0.0251748 0
M  V30 2764 C 258.413 -2.53384 2.55587 0
M  V30 2765 C 258.021 -2.04517 3.98594 0
M  V30 2766 C 259.765 -3.30685 2.66172 0
M  V30 2767 C 257.672 -3.1518 5.00416 0
M  V30 2768 H 256.602 -0.526005 0.540218 0
M  V30 2769 H 259.253 -0.694367 1.69855 0
M  V30 2770 H 257.635 -3.26446 2.24163 0
M  V30 2771 H 258.809 -1.38405 4.39523 0
M  V30 2772 H 257.124 -1.40068 3.92135 0
M  V30 2773 H 259.721 -4.13158 3.39418 0
M  V30 2774 H 260.064 -3.79312 1.71546 0
M  V30 2775 H 260.597 -2.64708 2.96942 0
M  V30 2776 H 257.336 -2.71511 5.96625 0
M  V30 2777 H 256.856 -3.79974 4.64091 0
M  V30 2778 H 258.535 -3.80166 5.23529 0
M  V30 2779 N 258.668 -1.30515 -0.883378 0
M  V30 2780 C 259.915 -1.1943 -1.63532 0
M  V30 2781 C 260.243 0.250627 -1.92878 0
M  V30 2782 O 259.498 1.19556 -1.54935 0
M  V30 2783 C 259.797 -1.96994 -2.98209 0
M  V30 2784 C 259.463 -3.466 -2.88408 0
M  V30 2785 C 258.125 -3.87397 -2.85442 0
M  V30 2786 C 260.477 -4.41863 -2.76418 0
M  V30 2787 C 257.805 -5.21745 -2.68327 0
M  V30 2788 C 260.157 -5.7632 -2.60841 0
M  V30 2789 C 258.821 -6.16354 -2.56251 0
M  V30 2790 H 258.091 -0.437025 -0.598406 0
M  V30 2791 H 260.738 -1.61635 -1.02696 0
M  V30 2792 H 259.043 -1.47429 -3.63004 0
M  V30 2793 H 260.74 -1.85808 -3.55354 0
M  V30 2794 H 257.33 -3.14182 -2.91527 0
M  V30 2795 H 261.514 -4.11285 -2.77775 0
M  V30 2796 H 256.77 -5.51853 -2.63189 0
M  V30 2797 H 260.944 -6.49772 -2.50538 0
M  V30 2798 H 258.571 -7.20401 -2.42748 0
M  V30 2799 N 260.146 1.09593 -1.13257 0
M  V30 2800 C 261.109 2.14359 -0.811358 0
M  V30 2801 C 262.109 1.59808 0.178377 0
M  V30 2802 O 263.299 1.74132 -0.0484911 0
M  V30 2803 C 260.431 3.40269 -0.207276 0
M  V30 2804 H 261.624 2.44284 -1.73969 0
M  V30 2805 H 259.177 1.25102 -0.936973 0
M  V30 2806 H 259.912 3.15969 0.73036 0
M  V30 2807 H 259.697 3.81154 -0.919992 0
M  V30 2808 H 261.187 4.176 0.000667944 0
M  V30 2809 N 261.624 0.925811 1.2754 0
M  V30 2810 C 262.901 0.483726 1.89524 0
M  V30 2811 C 263.281 -1.03809 1.83812 0
M  V30 2812 O 262.629 -1.89143 1.28207 0
M  V30 2813 C 262.839 1.02769 3.33526 0
M  V30 2814 C 264.187 1.08703 4.10449 0
M  V30 2815 O 265.211 0.977175 3.42534 0
M  V30 2816 O 264.07 1.25599 5.31871 0
M  V30 2817 H 261.164 0.15529 0.812289 0
M  V30 2818 H 263.71 1.01738 1.35822 0
M  V30 2819 H 262.482 2.07155 3.31967 0
M  V30 2820 H 262.105 0.475567 3.94746 0
M  V30 2821 N 263.102 -1.41638 0.69111 0
M  V30 2822 C 264.012 -2.34588 0.0233487 0
M  V30 2823 C 265.028 -1.55987 -0.770984 0
M  V30 2824 O 266.204 -1.88486 -0.709569 0
M  V30 2825 C 263.269 -3.34684 -0.904851 0
M  V30 2826 C 262.33 -4.29176 -0.103225 0
M  V30 2827 C 261.563 -5.2449 -0.987216 0
M  V30 2828 O 261.786 -5.2514 -2.22674 0
M  V30 2829 O 260.72 -6.00295 -0.439281 0
M  V30 2830 H 264.546 -2.93261 0.789416 0
M  V30 2831 H 262.131 -1.42417 0.45142 0
M  V30 2832 H 264.013 -3.96133 -1.43724 0
M  V30 2833 H 262.688 -2.78461 -1.65049 0
M  V30 2834 H 261.595 -3.71089 0.473655 0
M  V30 2835 H 262.928 -4.88484 0.60365 0
M  V30 2836 N 264.58 -0.43555 -1.51462 0
M  V30 2837 C 265.51 0.367376 -2.30592 0
M  V30 2838 C 266.491 1.02263 -1.35928 0
M  V30 2839 O 267.676 1.02661 -1.64847 0
M  V30 2840 C 264.806 1.46983 -3.14664 0
M  V30 2841 C 263.76 0.938161 -4.17591 0
M  V30 2842 C 263.086 2.13622 -4.90173 0
M  V30 2843 C 264.386 -0.0261621 -5.22293 0
M  V30 2844 H 266.08 -0.292969 -2.97963 0
M  V30 2845 H 263.626 -0.14234 -1.43295 0
M  V30 2846 H 265.579 2.03873 -3.688 0
M  V30 2847 H 264.303 2.15843 -2.4511 0
M  V30 2848 H 262.962 0.391481 -3.64504 0
M  V30 2849 H 262.61 2.81098 -4.17124 0
M  V30 2850 H 262.31 1.78688 -5.59772 0
M  V30 2851 H 263.834 2.7107 -5.47132 0
M  V30 2852 H 265.248 0.452384 -5.71512 0
M  V30 2853 H 263.645 -0.287992 -5.99409 0
M  V30 2854 H 264.715 -0.963391 -4.75233 0
M  V30 2855 N 266.058 1.56714 -0.166846 0
M  V30 2856 C 267.005 2.17746 0.765193 0
M  V30 2857 C 267.975 1.11614 1.23011 0
M  V30 2858 O 269.16 1.39745 1.29908 0
M  V30 2859 C 266.3 2.81882 1.9909 0
M  V30 2860 C 265.413 4.02462 1.56997 0
M  V30 2861 C 264.548 4.54537 2.749 0
M  V30 2862 C 263.587 5.67538 2.29275 0
M  V30 2863 N 262.724 6.14142 3.40255 0
M  V30 2864 H 267.564 2.97048 0.237952 0
M  V30 2865 H 265.101 1.4672 0.105725 0
M  V30 2866 H 267.059 3.17221 2.70974 0
M  V30 2867 H 265.689 2.05191 2.49192 0
M  V30 2868 H 264.741 3.72973 0.748037 0
M  V30 2869 H 266.053 4.84273 1.19503 0
M  V30 2870 H 265.207 4.92035 3.54946 0
M  V30 2871 H 263.946 3.71774 3.1565 0
M  V30 2872 H 262.951 5.29597 1.47674 0
M  V30 2873 H 264.176 6.52099 1.89588 0
M  V30 2874 H 262.122 5.3431 3.8059 0
M  V30 2875 H 262.039 6.9093 3.06841 0
M  V30 2876 H 263.307 6.56289 4.206 0
M  V30 2877 N 267.536 -0.106894 1.57237 0
M  V30 2878 C 268.784 -0.810921 1.85117 0
M  V30 2879 C 269.105 -1.7984 0.753827 0
M  V30 2880 O 268.375 -1.94649 -0.221056 0
M  V30 2881 H 266.955 -0.302466 0.683025 0
M  V30 2882 H 269.617 -0.0913324 1.94686 0
M  V30 2883 H 268.713 -1.34875 2.81452 0
M  V30 2884 N 269.014 -1.53014 -0.377408 0
M  V30 2885 C 270.244 -1.72265 -1.14054 0
M  V30 2886 C 270.652 -0.44601 -1.83868 0
M  V30 2887 O 269.995 0.590095 -1.73964 0
M  V30 2888 C 270.057 -2.82492 -2.22348 0
M  V30 2889 C 269.721 -4.23233 -1.72402 0
M  V30 2890 C 270.718 -5.05992 -1.19448 0
M  V30 2891 C 268.403 -4.696 -1.78273 0
M  V30 2892 C 270.397 -6.33203 -0.730268 0
M  V30 2893 C 268.084 -5.96792 -1.31464 0
M  V30 2894 C 269.082 -6.78424 -0.789297 0
M  V30 2895 O 268.77 -8.0323 -0.328077 0
M  V30 2896 H 268.502 -0.579873 -0.347453 0
M  V30 2897 H 271.056 -2.00502 -0.445882 0
M  V30 2898 H 269.286 -2.49702 -2.95272 0
M  V30 2899 H 270.975 -2.90034 -2.83963 0
M  V30 2900 H 271.741 -4.71349 -1.14259 0
M  V30 2901 H 267.62 -4.06142 -2.18106 0
M  V30 2902 H 271.164 -6.96868 -0.319542 0
M  V30 2903 H 267.061 -6.30937 -1.36342 0
M  V30 2904 H 267.829 -8.1727 -0.448493 0
M  V30 2905 N 270.492 0.636531 -1.44174 0
M  V30 2906 C 271.402 1.77754 -1.53103 0
M  V30 2907 C 272.418 1.68928 -0.417034 0
M  V30 2908 O 273.594 1.89801 -0.6736 0
M  V30 2909 C 270.659 3.14115 -1.46741 0
M  V30 2910 C 269.72 3.34612 -2.68948 0
M  V30 2911 C 268.953 4.64467 -2.6288 0
M  V30 2912 O 269.176 5.44919 -1.68581 0
M  V30 2913 O 268.11 4.87049 -3.53648 0
M  V30 2914 H 271.936 1.73174 -2.49489 0
M  V30 2915 H 269.521 0.79709 -1.2636 0
M  V30 2916 H 271.403 3.95412 -1.45696 0
M  V30 2917 H 270.078 3.19249 -0.534975 0
M  V30 2918 H 268.985 2.53014 -2.75562 0
M  V30 2919 H 270.318 3.34336 -3.61221 0
M  V30 2920 N 271.97 1.30982 0.876444 0
M  V30 2921 C 273.21 1.21589 1.64303 0
M  V30 2922 C 273.574 -0.223962 1.90689 0
M  V30 2923 O 274.775 -0.44128 2.65153 0
M  V30 2924 C 273.046 2.03007 2.94148 0
M  V30 2925 S 274.605 2.10405 3.85065 0
M  V30 2926 H 271.423 0.433161 0.563819 0
M  V30 2927 H 274.025 1.65565 1.03964 0
M  V30 2928 H 272.729 3.06719 2.72675 0
M  V30 2929 H 272.26 1.59725 3.59515 0
M  V30 2930 H 274.275 1.23765 4.80517 0
M  V30 2931 N 273.449 -1.08991 1.13837 0
M  V30 2932 C 274.399 -2.1393 0.788535 0
M  V30 2933 C 275.383 -1.59396 -0.219516 0
M  V30 2934 O 276.575 -1.76985 -0.0227557 0
M  V30 2935 C 273.704 -3.42305 0.261147 0
M  V30 2936 C 272.79 -4.03736 1.29837 0
M  V30 2937 N 273.181 -4.39659 2.50067 0
M  V30 2938 C 271.479 -4.30993 1.1472 0
M  V30 2939 C 272.18 -4.88113 3.16419 0
M  V30 2940 N 271.156 -4.85846 2.43832 0
M  V30 2941 H 274.958 -2.39516 1.70322 0
M  V30 2942 H 272.472 -1.26263 1.02134 0
M  V30 2943 H 274.469 -4.16899 -0.0077405 0
M  V30 2944 H 273.129 -3.18172 -0.647805 0
M  V30 2945 H 274.14 -4.30878 2.8734 0
M  V30 2946 H 270.817 -4.16444 0.296773 0
M  V30 2947 H 272.207 -5.25336 4.18894 0
M  V30 2948 N 274.927 -0.932562 -1.27047 0
M  V30 2949 C 276.173 -0.576412 -1.94436 0
M  V30 2950 C 276.506 0.880891 -1.73072 0
M  V30 2951 O 275.781 1.62905 -1.06264 0
M  V30 2952 C 276.064 -0.909031 -3.48437 0
M  V30 2953 C 275.917 -2.42044 -3.79123 0
M  V30 2954 C 277.236 -0.418341 -4.38107 0
M  V30 2955 H 274.355 -0.210888 -0.706184 0
M  V30 2956 H 276.997 -1.16522 -1.50075 0
M  V30 2957 H 275.147 -0.407947 -3.86352 0
M  V30 2958 H 276.819 -2.99359 -3.50973 0
M  V30 2959 H 275.062 -2.86758 -3.25503 0
M  V30 2960 H 275.733 -2.6037 -4.86736 0
M  V30 2961 H 278.209 -0.847856 -4.0737 0
M  V30 2962 H 277.085 -0.679981 -5.44672 0
M  V30 2963 H 277.346 0.681642 -4.36814 0
M  V30 2964 N 276.405 1.4127 -0.698611 0
M  V30 2965 C 277.368 2.29158 -0.044132 0
M  V30 2966 C 278.368 1.44529 0.704841 0
M  V30 2967 O 279.558 1.65643 0.539276 0
M  V30 2968 C 276.69 3.27459 0.947809 0
M  V30 2969 H 277.883 2.88529 -0.817994 0
M  V30 2970 H 275.436 1.49307 -0.46228 0
M  V30 2971 H 276.171 2.73073 1.74933 0
M  V30 2972 H 275.956 3.8991 0.41385 0
M  V30 2973 H 277.446 3.93311 1.40344 0
M  V30 2974 N 277.883 0.443576 1.51229 0
M  V30 2975 C 278.813 -0.355142 2.30783 0
M  V30 2976 C 279.794 -1.0154 1.36468 0
M  V30 2977 O 280.979 -1.01785 1.65389 0
M  V30 2978 C 278.109 -1.45312 3.15439 0
M  V30 2979 C 277.063 -0.916002 4.18083 0
M  V30 2980 C 276.389 -2.1102 4.91299 0
M  V30 2981 C 277.689 0.0538602 5.22272 0
M  V30 2982 H 279.383 0.308767 2.97804 0
M  V30 2983 H 276.929 0.149937 1.43217 0
M  V30 2984 H 278.882 -2.01914 3.69876 0
M  V30 2985 H 277.606 -2.14541 2.46252 0
M  V30 2986 H 276.265 -0.372145 3.64706 0
M  V30 2987 H 275.913 -2.78882 4.18609 0
M  V30 2988 H 275.613 -1.75717 5.60712 0
M  V30 2989 H 277.137 -2.68164 5.48562 0
M  V30 2990 H 278.551 -0.422069 5.71744 0
M  V30 2991 H 276.948 0.319776 5.99247 0
M  V30 2992 H 278.018 0.98858 4.74716 0
M  V30 2993 N 279.361 -1.56624 0.175154 0
M  V30 2994 C 280.324 -2.16934 -0.739738 0
M  V30 2995 C 281.324 -1.11842 -1.15533 0
M  V30 2996 O 282.514 -1.37335 -1.07167 0
M  V30 2997 C 279.646 -2.75531 -2.00738 0
M  V30 2998 H 280.839 -2.99131 -0.214639 0
M  V30 2999 H 278.392 -1.56123 -0.0744197 0
M  V30 3000 H 279.127 -1.97078 -2.57548 0
M  V30 3001 H 278.912 -3.52444 -1.71831 0
M  V30 3002 H 280.402 -3.21904 -2.66021 0
M  V30 3003 N 280.839 0.0985539 -1.57292 0
M  V30 3004 C 282.088 0.801358 -1.85098 0
M  V30 3005 C 282.401 1.80066 -0.763902 0
M  V30 3006 O 283.607 2.55112 -0.928981 0
M  V30 3007 C 282.063 1.47599 -3.28242 0
M  V30 3008 C 281.671 0.516624 -4.45011 0
M  V30 3009 C 283.415 2.16272 -3.65276 0
M  V30 3010 C 281.322 1.19564 -5.79188 0
M  V30 3011 H 280.252 0.303022 -0.69043 0
M  V30 3012 H 282.903 0.0542623 -1.8342 0
M  V30 3013 H 281.285 2.27042 -3.2445 0
M  V30 3014 H 282.459 -0.246065 -4.60143 0
M  V30 3015 H 280.774 -0.064227 -4.1635 0
M  V30 3016 H 283.371 2.67802 -4.62803 0
M  V30 3017 H 283.714 2.95009 -2.93727 0
M  V30 3018 H 284.247 1.43693 -3.70941 0
M  V30 3019 H 280.986 0.449157 -6.53959 0
M  V30 3020 H 280.506 1.92984 -5.67906 0
M  V30 3021 H 282.185 1.7231 -6.23633 0
M  V30 3022 N 282.317 1.53212 0.369288 0
M  V30 3023 C 283.565 1.68881 1.11012 0
M  V30 3024 C 283.886 0.441285 1.89941 0
M  V30 3025 O 283.156 -0.544623 1.88177 0
M  V30 3026 H 281.736 0.622569 0.412816 0
M  V30 3027 H 284.398 1.90391 0.416802 0
M  V30 3028 H 283.494 2.54822 1.80201 0
M  V30 3029 N 283.795 -0.628877 1.44509 0
M  V30 3030 C 285.025 -1.41349 1.50678 0
M  V30 3031 C 285.433 -1.88745 0.131075 0
M  V30 3032 O 284.776 -1.61592 -0.87371 0
M  V30 3033 C 284.838 -2.66608 2.41165 0
M  V30 3034 C 284.502 -2.40993 3.88293 0
M  V30 3035 C 285.499 -2.0268 4.78766 0
M  V30 3036 C 283.184 -2.54563 4.33016 0
M  V30 3037 C 285.178 -1.78269 6.11963 0
M  V30 3038 C 282.865 -2.29766 5.6626 0
M  V30 3039 C 283.863 -1.91678 6.55552 0
M  V30 3040 O 283.551 -1.67158 7.86329 0
M  V30 3041 H 283.283 -0.439851 0.51333 0
M  V30 3042 H 285.837 -0.776084 1.90174 0
M  V30 3043 H 284.067 -3.32994 1.96601 0
M  V30 3044 H 285.756 -3.28615 2.38259 0
M  V30 3045 H 286.522 -1.91751 4.45485 0
M  V30 3046 H 282.401 -2.83179 3.63773 0
M  V30 3047 H 285.945 -1.48465 6.81619 0
M  V30 3048 H 281.842 -2.40306 5.99102 0
M  V30 3049 H 282.61 -1.81386 7.98149 0
M  V30 3050 N 285.273 -1.31445 -0.869486 0
M  V30 3051 C 286.223 -1.15731 -1.96444 0
M  V30 3052 C 287.207 -0.0681855 -1.60755 0
M  V30 3053 O 288.399 -0.293154 -1.74555 0
M  V30 3054 C 285.528 -0.867255 -3.32165 0
M  V30 3055 C 284.614 -1.99738 -3.74119 0
M  V30 3056 N 285.005 -3.24447 -3.88031 0
M  V30 3057 C 283.303 -1.89723 -4.03635 0
M  V30 3058 C 284.004 -3.98374 -4.23879 0
M  V30 3059 N 282.98 -3.26547 -4.3459 0
M  V30 3060 H 286.782 -2.10296 -2.05312 0
M  V30 3061 H 284.296 -1.23009 -1.06031 0
M  V30 3062 H 286.293 -0.735668 -4.10358 0
M  V30 3063 H 284.953 0.0701614 -3.24624 0
M  V30 3064 H 285.964 -3.59557 -3.72746 0
M  V30 3065 H 282.641 -1.03449 -4.04481 0
M  V30 3066 H 284.031 -5.05844 -4.42235 0
M  V30 3067 N 286.751 1.08385 -1.14413 0
M  V30 3068 C 287.701 2.13509 -0.79987 0
M  V30 3069 C 288.685 1.5951 0.211059 0
M  V30 3070 O 289.877 1.76995 0.0133694 0
M  V30 3071 C 287.006 3.42162 -0.279297 0
M  V30 3072 C 286.092 4.03042 -1.31976 0
M  V30 3073 N 286.483 4.38327 -2.52395 0
M  V30 3074 C 284.781 4.30379 -1.17004 0
M  V30 3075 C 285.482 4.86428 -3.19003 0
M  V30 3076 N 284.458 4.84547 -2.46405 0
M  V30 3077 H 288.26 2.38609 -1.7159 0
M  V30 3078 H 285.774 1.2572 -1.02802 0
M  V30 3079 H 287.771 4.16898 -0.0143688 0
M  V30 3080 H 286.431 3.18511 0.630923 0
M  V30 3081 H 287.442 4.29349 -2.89621 0
M  V30 3082 H 284.119 4.16281 -0.318854 0
M  V30 3083 H 285.509 5.23107 -4.21674 0
M  V30 3084 N 288.23 0.939286 1.26551 0
M  V30 3085 C 289.641 0.628782 1.75793 0
M  V30 3086 C 289.992 -0.856046 1.7654 0
M  V30 3087 O 289.117 -1.66994 1.3763 0
M  V30 3088 C 289.712 1.13465 3.19235 0
M  V30 3089 C 288.271 0.874601 3.66098 0
M  V30 3090 C 287.418 1.28667 2.45642 0
M  V30 3091 H 290.369 1.1178 1.12654 0
M  V30 3092 H 290.39 0.487609 3.77363 0
M  V30 3093 H 289.902 2.21535 3.1866 0
M  V30 3094 H 288.003 -0.191793 3.72106 0
M  V30 3095 H 288.116 1.50028 4.55004 0
M  V30 3096 H 286.48 0.705109 2.44745 0
M  V30 3097 H 287.263 2.37625 2.47769 0
M  V30 3098 N 289.708 -1.40897 0.706093 0
M  V30 3099 C 290.933 -2.05895 0.249435 0
M  V30 3100 C 291.358 -1.52823 -1.09666 0
M  V30 3101 O 290.716 -0.659589 -1.68876 0
M  V30 3102 C 290.764 -3.59872 0.22904 0
M  V30 3103 O 289.868 -4.04708 -0.792784 0
M  V30 3104 H 289.209 -0.653206 0.119241 0
M  V30 3105 H 291.739 -1.80471 0.96391 0
M  V30 3106 H 291.749 -4.07951 0.0634791 0
M  V30 3107 H 290.424 -3.97866 1.21141 0
M  V30 3108 H 289.001 -3.68111 -0.59572 0
M  V30 3109 N 291.186 -0.45159 -1.50991 0
M  V30 3110 C 292.096 0.358431 -2.31846 0
M  V30 3111 C 293.112 1.01438 -1.41373 0
M  V30 3112 O 294.288 1.00663 -1.74439 0
M  V30 3113 C 291.353 1.43704 -3.15515 0
M  V30 3114 C 290.414 0.799742 -4.21785 0
M  V30 3115 C 289.647 1.82696 -5.01456 0
M  V30 3116 O 289.87 3.05105 -4.81941 0
M  V30 3117 O 288.804 1.40958 -5.85162 0
M  V30 3118 H 292.63 -0.302032 -3.02194 0
M  V30 3119 H 290.215 -0.213825 -1.47862 0
M  V30 3120 H 292.097 2.06227 -3.67489 0
M  V30 3121 H 290.772 2.08133 -2.47916 0
M  V30 3122 H 289.679 0.136084 -3.73852 0
M  V30 3123 H 291.012 0.198718 -4.91799 0
M  V30 3124 N 292.664 1.56529 -0.183458 0
M  V30 3125 C 293.941 1.88959 0.50536 0
M  V30 3126 C 294.321 1.09523 1.80466 0
M  V30 3127 O 293.669 0.19278 2.27685 0
M  V30 3128 C 293.879 3.41162 0.73547 0
M  V30 3129 C 295.227 4.11155 1.06005 0
M  V30 3130 O 296.251 3.46548 0.823594 0
M  V30 3131 O 295.11 5.25318 1.50675 0
M  V30 3132 H 292.204 0.78441 0.261973 0
M  V30 3133 H 294.75 1.68231 -0.222802 0
M  V30 3134 H 293.522 3.90874 -0.182561 0
M  V30 3135 H 293.145 3.67543 1.51651 0
M  V30 3136 N 294.142 -0.090211 1.57342 0
M  V30 3137 C 295.372 -0.805055 1.90269 0
M  V30 3138 C 295.78 -1.72561 0.775842 0
M  V30 3139 O 295.123 -1.81839 -0.260843 0
M  V30 3140 C 295.185 -1.66734 3.18497 0
M  V30 3141 C 294.849 -0.918092 4.47683 0
M  V30 3142 C 295.846 -0.245674 5.19319 0
M  V30 3143 C 293.531 -0.890724 4.94339 0
M  V30 3144 C 295.525 0.444088 6.35851 0
M  V30 3145 C 293.212 -0.197179 6.10782 0
M  V30 3146 C 294.21 0.469044 6.81388 0
M  V30 3147 O 293.898 1.15146 7.95611 0
M  V30 3148 H 293.63 -0.235143 0.633785 0
M  V30 3149 H 296.184 -0.0703805 2.05279 0
M  V30 3150 H 294.414 -2.44437 2.99646 0
M  V30 3151 H 296.103 -2.25919 3.37217 0
M  V30 3152 H 296.869 -0.258246 4.84312 0
M  V30 3153 H 292.748 -1.39873 4.39268 0
M  V30 3154 H 296.292 0.964667 6.90898 0
M  V30 3155 H 292.189 -0.18247 6.45242 0
M  V30 3156 H 292.957 1.05885 8.11622 0
M  V30 3157 N 295.62 -1.53406 -0.361157 0
M  V30 3158 C 296.568 -1.80832 -1.46296 0
M  V30 3159 C 297.562 -0.677699 -1.55253 0
M  V30 3160 O 298.768 -0.860723 -1.58087 0
M  V30 3161 H 295.143 -0.572627 -0.487445 0
M  V30 3162 H 297.114 -2.73045 -1.20371 0
M  V30 3163 C 295.863 -2.01907 -2.8307 0
M  V30 3164 H 295.186 -2.88349 -2.76938 0
M  V30 3165 H 296.626 -2.25072 -3.59331 0
M  V30 3166 C 295.085 -0.799449 -3.27277 0
M  V30 3167 O 295.615 0.00971761 -4.01699 0
M  V30 3168 N 293.821 -0.621637 -2.83873 0
M  V30 3169 H 293.368 -1.28126 -2.23476 0
M  V30 3170 H 293.326 0.19298 -3.13807 0
M  V30 3171 N 297.098 0.621204 -1.44841 0
M  V30 3172 C 298.061 1.71459 -1.521 0
M  V30 3173 C 299.061 1.55696 -0.401933 0
M  V30 3174 O 300.251 1.61011 -0.664925 0
M  V30 3175 C 297.383 3.10624 -1.40447 0
M  V30 3176 H 298.576 1.66394 -2.49506 0
M  V30 3177 H 296.129 0.835745 -1.3208 0
M  V30 3178 H 296.864 3.21277 -0.441737 0
M  V30 3179 H 296.649 3.23473 -2.21602 0
M  V30 3180 H 298.139 3.90293 -1.4853 0
M  V30 3181 N 298.576 1.31904 0.862503 0
M  V30 3182 C 299.801 1.25135 1.65397 0
M  V30 3183 C 300.226 -0.179 1.87246 0
M  V30 3184 O 299.584 -1.1277 1.4196 0
M  V30 3185 C 299.632 2.00832 2.99498 0
M  V30 3186 O 298.736 1.35075 3.89652 0
M  V30 3187 H 298.077 0.431655 0.504549 0
M  V30 3188 H 300.607 1.74094 1.07483 0
M  V30 3189 H 300.617 2.10709 3.49379 0
M  V30 3190 H 299.292 3.04847 2.82916 0
M  V30 3191 H 297.869 1.33696 3.48109 0
M  V30 3192 N 300.054 -1.07777 1.14986 0
M  V30 3193 C 300.984 -2.16865 0.865557 0
M  V30 3194 C 301.965 -1.69123 -0.182083 0
M  V30 3195 O 303.15 -1.94164 -0.0373815 0
M  V30 3196 C 300.28 -3.45539 0.349313 0
M  V30 3197 C 299.234 -4.06708 1.33313 0
M  V30 3198 C 298.56 -5.30411 0.675918 0
M  V30 3199 C 299.86 -4.47241 2.69764 0
M  V30 3200 H 301.554 -2.40905 1.77778 0
M  V30 3201 H 299.1 -1.15781 0.856203 0
M  V30 3202 H 301.053 -4.21174 0.137983 0
M  V30 3203 H 299.777 -3.21072 -0.598362 0
M  V30 3204 H 298.436 -3.33112 1.53075 0
M  V30 3205 H 298.084 -5.02232 -0.277767 0
M  V30 3206 H 297.784 -5.72293 1.33244 0
M  V30 3207 H 299.308 -6.08755 0.474262 0
M  V30 3208 H 300.722 -5.14025 2.53873 0
M  V30 3209 H 299.119 -5.00062 3.3175 0
M  V30 3210 H 300.189 -3.58818 3.26156 0
M  V30 3211 N 301.532 -0.945985 -1.26051 0
M  V30 3212 C 302.943 -0.638096 -1.75457 0
M  V30 3213 C 303.294 0.846672 -1.76991 0
M  V30 3214 O 302.419 1.66262 -1.38513 0
M  V30 3215 C 303.014 -1.15157 -3.18629 0
M  V30 3216 C 301.573 -0.894004 -3.65629 0
M  V30 3217 C 300.72 -1.29967 -2.44957 0
M  V30 3218 H 303.671 -1.12376 -1.1206 0
M  V30 3219 H 303.692 -0.507615 -3.77099 0
M  V30 3220 H 303.204 -2.23222 -3.1748 0
M  V30 3221 H 301.305 0.172057 -3.72203 0
M  V30 3222 H 301.418 -1.52439 -4.54202 0
M  V30 3223 H 299.782 -0.718078 -2.44368 0
M  V30 3224 H 300.565 -2.38935 -2.46505 0
M  V30 3225 N 303.011 1.40521 -0.713556 0
M  V30 3226 C 303.958 2.30723 -0.059684 0
M  V30 3227 C 304.928 1.48079 0.752448 0
M  V30 3228 O 306.113 1.76823 0.71681 0
M  V30 3229 C 303.253 3.34274 0.857594 0
M  V30 3230 C 302.366 4.31986 0.0351536 0
M  V30 3231 C 301.501 5.22605 0.951724 0
M  V30 3232 C 300.54 6.11976 0.123253 0
M  V30 3233 N 299.677 6.9502 0.99459 0
M  V30 3234 H 304.517 2.86074 -0.834596 0
M  V30 3235 H 302.054 1.40879 -0.42326 0
M  V30 3236 H 304.012 3.92879 1.40364 0
M  V30 3237 H 302.642 2.8043 1.59871 0
M  V30 3238 H 301.694 3.7518 -0.628052 0
M  V30 3239 H 303.006 4.95101 -0.606347 0
M  V30 3240 H 302.16 5.86131 1.56638 0
M  V30 3241 H 300.899 4.59759 1.62705 0
M  V30 3242 H 299.904 5.47482 -0.50435 0
M  V30 3243 H 301.129 6.76881 -0.548539 0
M  V30 3244 H 299.075 6.34764 1.6556 0
M  V30 3245 H 298.992 7.54892 0.40908 0
M  V30 3246 H 300.26 7.62997 1.59549 0
M  V30 3247 N 304.489 0.459591 1.5075 0
M  V30 3248 C 305.714 -0.0996819 2.0716 0
M  V30 3249 C 306.139 -1.33761 1.32249 0
M  V30 3250 O 305.497 -1.77551 0.366786 0
M  V30 3251 C 305.545 -0.378226 3.58611 0
M  V30 3252 O 304.649 -1.46081 3.85661 0
M  V30 3253 H 303.99 0.00791392 0.663953 0
M  V30 3254 H 306.52 0.647329 1.9409 0
M  V30 3255 H 306.53 -0.622135 4.03229 0
M  V30 3256 H 305.205 0.526439 4.12555 0
M  V30 3257 H 303.782 -1.20511 3.5289 0
M  V30 3258 N 305.967 -1.56429 0.191757 0
M  V30 3259 C 307.383 -1.58754 -0.164137 0
M  V30 3260 C 307.583 -1.20782 -1.61288 0
M  V30 3261 O 306.639 -0.928999 -2.34789 0
M  V30 3262 C 307.952 -3.00396 0.135195 0
M  V30 3263 C 309.5 -3.1291 0.0750351 0
M  V30 3264 C 309.975 -4.56679 0.347632 0
M  V30 3265 N 311.466 -4.62252 0.296131 0
M  V30 3266 C 312.201 -5.71379 0.480948 0
M  V30 3267 N 311.697 -6.88986 0.725933 0
M  V30 3268 N 313.49 -5.60563 0.415435 0
M  V30 3269 H 305.641 -1.79393 1.13718 0
M  V30 3270 H 307.904 -0.832414 0.453643 0
M  V30 3271 H 307.61 -3.32726 1.13958 0
M  V30 3272 H 307.484 -3.72963 -0.563773 0
M  V30 3273 H 309.871 -2.80394 -0.919948 0
M  V30 3274 H 309.952 -2.42736 0.807029 0
M  V30 3275 H 309.596 -4.89907 1.33992 0
M  V30 3276 H 309.526 -5.25039 -0.405212 0
M  V30 3277 H 312.017 -3.7773 0.113259 0
M  V30 3278 H 312.33 -7.68046 0.855857 0
M  V30 3279 H 310.675 -6.90801 0.762788 0
M  V30 3280 H 313.866 -4.67561 0.224486 0
M  V30 3281 H 314.039 -6.45551 0.562889 0
M  V30 3282 N 307.445 0.0818655 -1.57387 0
M  V30 3283 C 308.392 1.09834 -2.0299 0
M  V30 3284 C 309.362 1.39043 -0.908639 0
M  V30 3285 O 310.547 1.50282 -1.17559 0
M  V30 3286 C 307.687 2.40971 -2.47037 0
M  V30 3287 C 306.8 2.18379 -3.7274 0
M  V30 3288 C 305.935 3.43008 -4.0561 0
M  V30 3289 C 304.974 3.15736 -5.24383 0
M  V30 3290 N 304.111 4.32667 -5.52941 0
M  V30 3291 H 308.951 0.702472 -2.89602 0
M  V30 3292 H 306.488 0.33531 -1.43227 0
M  V30 3293 H 308.446 3.1752 -2.70623 0
M  V30 3294 H 307.076 2.78379 -1.63417 0
M  V30 3295 H 306.128 1.32569 -3.56552 0
M  V30 3296 H 307.44 1.94227 -4.59431 0
M  V30 3297 H 306.594 4.27958 -4.30043 0
M  V30 3298 H 305.333 3.70225 -3.17466 0
M  V30 3299 H 304.338 2.2918 -4.99757 0
M  V30 3300 H 305.563 2.8985 -6.14136 0
M  V30 3301 H 303.509 4.59935 -4.67756 0
M  V30 3302 H 303.426 4.11753 -6.34031 0
M  V30 3303 H 304.694 5.18644 -5.81918 0
M  V30 3304 N 308.923 1.53595 0.353017 0
M  V30 3305 C 309.886 1.80232 1.41594 0
M  V30 3306 C 310.886 0.673081 1.46035 0
M  V30 3307 O 312.076 0.941335 1.46576 0
M  V30 3308 C 309.208 1.93578 2.80607 0
M  V30 3309 H 310.401 2.75174 1.19244 0
M  V30 3310 H 307.954 1.44864 0.586872 0
M  V30 3311 H 308.689 1.00746 3.08254 0
M  V30 3312 H 308.474 2.75724 2.78781 0
M  V30 3313 H 309.964 2.15735 3.57558 0
M  V30 3314 N 310.401 -0.613514 1.45168 0
M  V30 3315 C 311.648 -1.37268 1.48875 0
M  V30 3316 C 311.976 -1.94077 0.128161 0
M  V30 3317 O 311.231 -1.75178 -0.872416 0
M  V30 3318 C 311.53 -2.54347 2.51083 0
M  V30 3319 C 311.196 -2.1572 3.95949 0
M  V30 3320 C 309.858 -2.04899 4.35396 0
M  V30 3321 C 312.21 -1.85485 4.87078 0
M  V30 3322 C 309.538 -1.62057 5.63875 0
M  V30 3323 C 311.89 -1.4413 6.15962 0
M  V30 3324 C 310.554 -1.31863 6.54346 0
M  V30 3325 H 309.824 -0.502299 0.544773 0
M  V30 3326 H 312.471 -0.694021 1.78481 0
M  V30 3327 H 310.776 -3.27524 2.15024 0
M  V30 3328 H 312.473 -3.12577 2.51191 0
M  V30 3329 H 309.063 -2.25066 3.64751 0
M  V30 3330 H 313.247 -1.92745 4.57343 0
M  V30 3331 H 308.503 -1.51177 5.92415 0
M  V30 3332 H 312.677 -1.19778 6.86022 0
M  V30 3333 H 310.304 -0.984392 7.538 0
M  V30 3334 N 311.879 -1.3236 -0.855495 0
M  V30 3335 C 312.789 -1.23221 -1.99634 0
M  V30 3336 C 313.805 -0.145983 -1.73387 0
M  V30 3337 O 314.981 -0.366502 -1.98037 0
M  V30 3338 C 312.046 -0.954782 -3.33294 0
M  V30 3339 C 311.107 -2.12937 -3.72769 0
M  V30 3340 C 310.34 -1.86508 -5.00051 0
M  V30 3341 O 310.563 -0.807231 -5.64659 0
M  V30 3342 O 309.497 -2.72591 -5.36636 0
M  V30 3343 H 313.323 -2.19126 -2.1028 0
M  V30 3344 H 310.908 -1.12241 -0.986018 0
M  V30 3345 H 312.79 -0.816519 -4.13414 0
M  V30 3346 H 311.465 -0.0258854 -3.2369 0
M  V30 3347 H 310.372 -2.3231 -2.93228 0
M  V30 3348 H 311.705 -3.04102 -3.87018 0
M  V30 3349 N 313.357 1.07166 -1.15556 0
M  V30 3350 C 314.634 1.76546 -0.842069 0
M  V30 3351 C 315.014 2.00453 0.661939 0
M  V30 3352 O 314.362 1.62452 1.60691 0
M  V30 3353 C 314.572 3.07266 -1.65495 0
M  V30 3354 C 315.92 3.81578 -1.86234 0
M  V30 3355 O 316.944 3.17083 -1.62287 0
M  V30 3356 O 315.803 4.97419 -2.26355 0
M  V30 3357 H 312.897 0.766756 -0.309862 0
M  V30 3358 H 315.443 1.13514 -1.26145 0
M  V30 3359 H 314.215 2.85494 -2.67598 0
M  V30 3360 H 313.838 3.7803 -1.23203 0
M  V30 3361 N 314.835 0.952656 1.25548 0
M  V30 3362 C 316.081 0.607272 1.93494 0
M  V30 3363 C 316.414 -0.853245 1.74452 0
M  V30 3364 O 315.689 -1.61194 1.08843 0
M  V30 3365 C 315.972 0.96435 3.46947 0
M  V30 3366 C 315.825 2.48045 3.75225 0
M  V30 3367 C 317.144 0.487987 4.37386 0
M  V30 3368 H 314.263 0.222096 0.702739 0
M  V30 3369 H 316.905 1.18895 1.48203 0
M  V30 3370 H 315.055 0.469361 3.85654 0
M  V30 3371 H 316.727 3.04905 3.46166 0
M  V30 3372 H 314.97 2.919 3.209 0
M  V30 3373 H 315.641 2.6808 4.82532 0
M  V30 3374 H 318.117 0.912558 4.0597 0
M  V30 3375 H 316.993 0.766547 5.43521 0
M  V30 3376 H 317.254 -0.612063 4.37843 0
M  V30 3377 N 316.313 -1.40141 0.720998 0
M  V30 3378 C 317.562 -2.0002 0.259804 0
M  V30 3379 C 317.875 -1.57839 -1.15526 0
M  V30 3380 O 319.081 -2.10455 -1.71525 0
M  V30 3381 C 317.537 -3.57516 0.413566 0
M  V30 3382 C 317.145 -4.08667 1.83562 0
M  V30 3383 C 318.889 -4.24498 0.0134387 0
M  V30 3384 C 316.796 -5.58686 1.93968 0
M  V30 3385 H 315.726 -0.748195 0.0933806 0
M  V30 3386 H 318.377 -1.60313 0.892866 0
M  V30 3387 H 316.759 -3.9495 -0.288169 0
M  V30 3388 H 317.933 -3.82598 2.56817 0
M  V30 3389 H 316.248 -3.543 2.1877 0
M  V30 3390 H 318.845 -5.34654 0.0703954 0
M  V30 3391 H 319.188 -4.03375 -1.02927 0
M  V30 3392 H 319.721 -3.92188 0.665815 0
M  V30 3393 H 316.46 -5.8467 2.96379 0
M  V30 3394 H 315.98 -5.86602 1.25131 0
M  V30 3395 H 317.659 -6.23875 1.71431 0
M  V30 3396 N 317.792 -0.46758 -1.50504 0
M  V30 3397 C 319.02 0.0864133 -2.06719 0
M  V30 3398 C 319.435 1.33819 -1.33184 0
M  V30 3399 O 318.792 1.78061 -0.400083 0
M  V30 3400 C 318.843 0.378079 -3.59517 0
M  V30 3401 O 318.564 -0.824044 -4.3028 0
M  V30 3402 C 320.065 0.979426 -4.32345 0
M  V30 3403 H 317.285 -0.00551697 -0.670977 0
M  V30 3404 H 319.829 -0.655354 -1.93715 0
M  V30 3405 H 317.984 1.06977 -3.72337 0
M  V30 3406 H 318.398 -0.566518 -5.21432 0
M  V30 3407 H 319.872 1.1333 -5.40241 0
M  V30 3408 H 320.349 1.9686 -3.9261 0
M  V30 3409 H 320.955 0.326216 -4.24047 0
M  V30 3410 N 319.27 1.56325 -0.20005 0
M  V30 3411 C 320.519 1.96895 0.437652 0
M  V30 3412 C 320.832 1.08999 1.62415 0
M  V30 3413 O 322.038 1.39372 2.32997 0
M  V30 3414 C 320.494 3.50198 0.830025 0
M  V30 3415 C 320.102 4.46765 -0.332461 0
M  V30 3416 C 321.846 3.99526 1.43453 0
M  V30 3417 C 319.753 5.91344 0.0811468 0
M  V30 3418 H 318.683 0.735209 0.167282 0
M  V30 3419 H 321.334 1.81148 -0.292853 0
M  V30 3420 H 319.716 3.61467 1.61734 0
M  V30 3421 H 320.89 4.47231 -1.11 0
M  V30 3422 H 319.205 4.07657 -0.848789 0
M  V30 3423 H 321.802 5.05025 1.75652 0
M  V30 3424 H 322.145 3.44122 2.34277 0
M  V30 3425 H 322.678 3.91393 0.71109 0
M  V30 3426 H 319.417 6.50685 -0.793033 0
M  V30 3427 H 318.937 5.94121 0.823445 0
M  V30 3428 H 320.616 6.44945 0.515252 0
M  V30 3429 N 320.748 -0.0735177 1.57428 0
M  V30 3430 C 321.678 -1.0879 2.06608 0
M  V30 3431 C 322.659 -1.40473 0.959237 0
M  V30 3432 O 323.844 -1.5013 1.23185 0
M  V30 3433 C 320.974 -2.40183 2.50857 0
M  V30 3434 C 319.928 -2.22858 3.65402 0
M  V30 3435 C 319.254 -3.59619 3.957 0
M  V30 3436 C 320.554 -1.65123 4.95511 0
M  V30 3437 H 322.248 -0.678673 2.91607 0
M  V30 3438 H 319.794 -0.325013 1.40284 0
M  V30 3439 H 321.747 -3.11437 2.83874 0
M  V30 3440 H 320.471 -2.83083 1.62885 0
M  V30 3441 H 319.13 -1.54045 3.32664 0
M  V30 3442 H 318.778 -4.00086 3.04861 0
M  V30 3443 H 318.478 -3.48866 4.72828 0
M  V30 3444 H 320.002 -4.32306 4.31212 0
M  V30 3445 H 321.416 -2.26241 5.26771 0
M  V30 3446 H 319.813 -1.65071 5.7695 0
M  V30 3447 H 320.883 -0.612559 4.81015 0
M  V30 3448 O 322.265 -1.60033 -0.217154 0
M  V30 3449 H 322.956 -1.73663 -0.857964 0
M  V30 END ATOM
M  V30 BEGIN BOND
M  V30 END BOND
M  V30 END CTAB
M  END
$$$$
