drugbank_target|P46336 Protein IolS (DB03461)
 OpenBabel12092120233D

  0  0  0     0  0            999 V3000
M  V30 BEGIN CTAB
M  V30 COUNTS 4965 5014 0 0 0
M  V30 BEGIN ATOM
M  V30 1 H -0.908 1.98254 -0.117106 0
M  V30 2 N 0 1.576 0 0
M  V30 3 C 0.933 2.03868 1.02534 0
M  V30 4 C 1.911 0.928543 1.3348 0
M  V30 5 O 3.095 1.19667 1.45644 0
M  V30 6 C 0.222 2.43627 2.35294 0
M  V30 7 C -0.732 3.65373 2.2001 0
M  V30 8 S 0.101 5.13292 1.52614 0
M  V30 9 C 1.257 5.56322 2.86805 0
M  V30 10 H 1.49 2.90518 0.631377 0
M  V30 11 H -0.977 1.52953 0.210867 0
M  V30 12 H 0.981 2.67203 3.11629 0
M  V30 13 H -0.358 1.57376 2.7183 0
M  V30 14 H -1.165 3.90944 3.18086 0
M  V30 15 H -1.563 3.418 1.51819 0
M  V30 16 H 0.729 5.58782 3.83104 0
M  V30 17 H 1.672 6.56266 2.65933 0
M  V30 18 H 2.08 4.83886 2.90714 0
M  V30 19 N 1.4781 -0.272755 1.55222 0
M  V30 20 C 2.4251 -1.33716 1.88119 0
M  V30 21 C 3.3951 -1.49066 0.73271 0
M  V30 22 O 4.5801 -1.63469 0.984002 0
M  V30 23 C 1.7201 -2.69238 2.15882 0
M  V30 24 C 0.8331 -2.62108 3.43399 0
M  V30 25 C -0.0319 -3.89811 3.60861 0
M  V30 26 C -0.9929 -3.77193 4.8207 0
M  V30 27 N -1.8559 -4.9673 4.96189 0
M  V30 28 H 2.9841 -1.04962 2.78903 0
M  V30 29 H 0.5211 -0.507088 1.38083 0
M  V30 30 H 2.4791 -3.48089 2.29978 0
M  V30 31 H 1.1091 -2.96194 1.28331 0
M  V30 32 H 0.1611 -1.74967 3.37773 0
M  V30 33 H 1.4731 -2.48685 4.32386 0
M  V30 34 H 0.6271 -4.77103 3.74777 0
M  V30 35 H -0.6339 -4.06102 2.7006 0
M  V30 36 H -1.6289 -2.88284 4.68159 0
M  V30 37 H -0.4039 -3.62421 5.74307 0
M  V30 38 H -2.4579 -5.13431 4.08319 0
M  V30 39 H -2.5409 -4.85839 5.79221 0
M  V30 40 H -1.2729 -5.85594 5.1449 0
M  V30 41 N 2.9562 -1.48159 -0.537278 0
M  V30 42 C 3.9032 -1.62138 -1.64256 0
M  V30 43 C 4.8732 -0.463668 -1.59497 0
M  V30 44 O 6.0582 -0.686241 -1.78032 0
M  V30 45 C 3.1982 -1.66028 -3.02537 0
M  V30 46 C 2.3112 -2.92855 -3.17585 0
M  V30 47 C 1.4462 -2.87952 -4.46382 0
M  V30 48 C 0.4852 -4.09516 -4.54932 0
M  V30 49 N -0.3778 -4.02733 -5.75109 0
M  V30 50 H 4.4622 -2.56529 -1.51647 0
M  V30 51 H 1.9992 -1.27224 -0.738414 0
M  V30 52 H 3.9572 -1.66265 -3.82638 0
M  V30 53 H 2.5872 -0.751331 -3.13934 0
M  V30 54 H 1.6392 -3.02395 -2.30784 0
M  V30 55 H 2.9512 -3.82822 -3.19764 0
M  V30 56 H 2.1052 -2.8655 -5.34765 0
M  V30 57 H 0.8442 -1.95702 -4.46712 0
M  V30 58 H -0.1508 -4.11201 -3.64957 0
M  V30 59 H 1.0742 -5.02917 -4.56346 0
M  V30 60 H -0.9798 -3.13299 -5.76351 0
M  V30 61 H -1.0628 -4.86397 -5.78752 0
M  V30 62 H 0.2052 -4.05379 -6.65799 0
M  V30 63 N 4.4343 0.785586 -1.36625 0
M  V30 64 C 5.3973 1.87999 -1.31107 0
M  V30 65 C 6.3973 1.59316 -0.217959 0
M  V30 66 O 7.5873 1.67656 -0.472977 0
M  V30 67 C 4.7193 3.24861 -1.03334 0
M  V30 68 H 5.9123 1.94307 -2.2844 0
M  V30 69 H 3.4653 0.983813 -1.21453 0
M  V30 70 H 4.2003 3.24235 -0.0647432 0
M  V30 71 H 3.9853 3.4707 -1.82441 0
M  V30 72 H 5.4753 4.04929 -1.02088 0
M  V30 73 N 5.9124 1.20967 1.01018 0
M  V30 74 C 6.8594 0.964281 2.09691 0
M  V30 75 C 7.8294 -0.107853 1.65749 0
M  V30 76 O 9.0144 0.0381987 1.90762 0
M  V30 77 C 6.1544 0.52943 3.41015 0
M  V30 78 C 5.2674 1.67043 3.98398 0
M  V30 79 C 4.4024 1.18525 5.17808 0
M  V30 80 C 3.4414 2.29892 5.67288 0
M  V30 81 N 2.5784 1.82546 6.77954 0
M  V30 82 H 7.4184 1.89463 2.30017 0
M  V30 83 H 4.9554 0.944289 1.1279 0
M  V30 84 H 6.9134 0.258588 4.16398 0
M  V30 85 H 5.5434 -0.363919 3.20742 0
M  V30 86 H 4.5954 2.05603 3.20049 0
M  V30 87 H 5.9074 2.50877 4.31117 0
M  V30 88 H 5.0614 0.870762 6.00419 0
M  V30 89 H 3.8004 0.316887 4.86669 0
M  V30 90 H 2.8054 2.6215 4.83278 0
M  V30 91 H 4.0304 3.17216 6.00459 0
M  V30 92 H 1.9764 0.980454 6.48632 0
M  V30 93 H 1.8934 2.59956 7.09901 0
M  V30 94 H 3.1614 1.54115 7.64113 0
M  V30 95 N 7.3905 -1.2043 1.01659 0
M  V30 96 C 8.3205 -2.25466 0.607226 0
M  V30 97 C 9.3015 -1.65853 -0.377716 0
M  V30 98 O 10.4865 -1.92409 -0.263149 0
M  V30 99 C 7.6165 -3.47256 -0.0552949 0
M  V30 100 C 6.5705 -4.19462 0.850632 0
M  V30 101 C 5.8965 -5.34673 0.0538859 0
M  V30 102 C 7.1965 -4.75603 2.15868 0
M  V30 103 H 8.8905 -2.59962 1.48526 0
M  V30 104 H 6.4365 -1.2496 0.715605 0
M  V30 105 H 8.3895 -4.19917 -0.353233 0
M  V30 106 H 7.1135 -3.11924 -0.968045 0
M  V30 107 H 5.7725 -3.48667 1.13257 0
M  V30 108 H 5.4205 -4.95585 -0.860514 0
M  V30 109 H 5.1205 -5.83913 0.657192 0
M  V30 110 H 6.6445 -6.10138 -0.237598 0
M  V30 111 H 8.0585 -5.40083 1.92311 0
M  V30 112 H 6.4555 -5.3528 2.71284 0
M  V30 113 H 7.5255 -3.94346 2.82169 0
M  V30 114 N 8.8686 -0.792821 -1.36206 0
M  V30 115 C 10.1166 -0.366062 -1.98757 0
M  V30 116 C 10.4376 1.0668 -1.63231 0
M  V30 117 O 9.7076 1.73587 -0.907978 0
M  V30 118 H 8.2876 -0.132364 -0.735179 0
M  V30 119 H 10.9496 -1.01562 -1.66347 0
M  V30 120 H 10.0456 -0.460638 -3.08682 0
M  V30 121 N 10.3467 1.47872 -0.545128 0
M  V30 122 C 11.2937 2.29849 0.2093 0
M  V30 123 C 12.2637 1.38313 0.919707 0
M  V30 124 O 13.4487 1.67277 0.917772 0
M  V30 125 C 10.5887 3.22019 1.24088 0
M  V30 126 C 9.7017 4.2864 0.537778 0
M  V30 127 C 8.8367 5.07973 1.5536 0
M  V30 128 C 7.8757 6.06381 0.8348 0
M  V30 129 N 7.0127 6.78717 1.79688 0
M  V30 130 H 11.8527 2.93845 -0.49591 0
M  V30 131 H 9.3897 1.44848 -0.256389 0
M  V30 132 H 11.3477 3.73868 1.85144 0
M  V30 133 H 9.9777 2.59914 1.91428 0
M  V30 134 H 9.0297 3.7994 -0.187046 0
M  V30 135 H 10.3417 4.98793 -0.0258907 0
M  V30 136 H 9.4957 5.63912 2.23803 0
M  V30 137 H 8.2347 4.37693 2.15118 0
M  V30 138 H 7.2397 5.49631 0.136388 0
M  V30 139 H 8.4647 6.78665 0.24313 0
M  V30 140 H 6.4107 6.11177 2.38326 0
M  V30 141 H 6.3277 7.44998 1.28505 0
M  V30 142 H 7.5957 7.39237 2.47282 0
M  V30 143 N 11.8248 0.280983 1.55075 0
M  V30 144 C 13.0498 -0.340154 2.04592 0
M  V30 145 C 13.4748 -1.48246 1.15779 0
M  V30 146 O 12.8328 -1.80614 0.15761 0
M  V30 147 C 12.8808 -0.793104 3.5177 0
M  V30 148 O 11.9848 -1.89981 3.66034 0
M  V30 149 H 11.3258 -0.0694289 0.66036 0
M  V30 150 H 13.8558 0.416993 2.00306 0
M  V30 151 H 13.8658 -1.08729 3.93245 0
M  V30 152 H 12.5408 0.0426163 4.15878 0
M  V30 153 H 11.1178 -1.60771 3.36463 0
M  V30 154 N 13.3029 -1.57598 0.00835791 0
M  V30 155 C 14.5799 -1.82172 -0.712235 0
M  V30 156 C 14.9599 -0.887873 -1.9152 0
M  V30 157 O 14.3079 0.06146 -2.28417 0
M  V30 158 C 14.5179 -3.30875 -1.11008 0
M  V30 159 C 15.8659 -3.96826 -1.51044 0
M  V30 160 O 16.8899 -3.35248 -1.20364 0
M  V30 161 O 15.7489 -5.05318 -2.08125 0
M  V30 162 H 12.8429 -0.750435 -0.347529 0
M  V30 163 H 15.3889 -1.69665 0.0344523 0
M  V30 164 H 14.1609 -3.90481 -0.252982 0
M  V30 165 H 13.7839 -3.48412 -1.9156 0
M  V30 166 N 14.781 0.264519 -1.55364 0
M  V30 167 C 15.711 1.33121 -1.91836 0
M  V30 168 C 16.692 1.51101 -0.781192 0
M  V30 169 O 17.877 1.64003 -1.04003 0
M  V30 170 C 15.007 2.68921 -2.19769 0
M  V30 171 C 13.961 2.65661 -3.35571 0
M  V30 172 C 13.287 4.05093 -3.49004 0
M  V30 173 C 14.587 2.24187 -4.71739 0
M  V30 174 H 16.281 1.02844 -2.81182 0
M  V30 175 H 13.827 0.493286 -1.35287 0
M  V30 176 H 15.78 3.43663 -2.43872 0
M  V30 177 H 14.504 3.00799 -1.27231 0
M  V30 178 H 13.163 1.93377 -3.1145 0
M  V30 179 H 12.811 4.34206 -2.53917 0
M  V30 180 H 12.511 4.03804 -4.26868 0
M  V30 181 H 14.035 4.81561 -3.75408 0
M  V30 182 H 15.449 2.88654 -4.9533 0
M  V30 183 H 13.846 2.34044 -5.52579 0
M  V30 184 H 14.916 1.19327 -4.69988 0
M  V30 185 N 16.2591 1.48442 0.529413 0
M  V30 186 C 17.1911 1.59095 1.64989 0
M  V30 187 C 18.2041 0.475212 1.5571 0
M  V30 188 O 19.3931 0.746081 1.6216 0
M  V30 189 C 16.4931 1.50518 3.0364 0
M  V30 190 C 15.6661 2.77142 3.38395 0
M  V30 191 C 14.7251 2.62012 4.56329 0
M  V30 192 O 13.7511 3.35898 4.59522 0
M  V30 193 N 14.9531 1.71667 5.54536 0
M  V30 194 H 17.7181 2.55723 1.56287 0
M  V30 195 H 15.2791 1.45173 0.716697 0
M  V30 196 H 17.2711 1.38091 3.80412 0
M  V30 197 H 15.8411 0.618627 3.06418 0
M  V30 198 H 15.0611 3.0413 2.50796 0
M  V30 199 H 16.3491 3.61146 3.58401 0
M  V30 200 H 15.7471 1.10841 5.54735 0
M  V30 201 H 14.3041 1.65178 6.30523 0
M  V30 202 N 17.7372 -0.778329 1.37039 0
M  V30 203 C 18.9832 -1.53892 1.32079 0
M  V30 204 C 19.3162 -1.9396 -0.0965386 0
M  V30 205 O 18.5912 -1.63568 -1.05242 0
M  V30 206 C 18.8742 -2.80847 2.25382 0
M  V30 207 C 18.7272 -2.47076 3.75864 0
M  V30 208 C 20.0462 -3.82741 2.1725 0
M  V30 209 H 17.1652 -0.558303 0.48111 0
M  V30 210 H 19.8072 -0.893397 1.67685 0
M  V30 211 H 17.9572 -3.35931 1.95148 0
M  V30 212 H 19.6292 -1.97957 4.16666 0
M  V30 213 H 17.8722 -1.79863 3.94755 0
M  V30 214 H 18.5432 -3.37798 4.36574 0
M  V30 215 H 21.0192 -3.37133 2.43887 0
M  V30 216 H 19.8952 -4.69303 2.84686 0
M  V30 217 H 20.1562 -4.2652 1.16331 0
M  V30 218 N 19.2153 -1.21501 -1.00376 0
M  V30 219 C 20.4623 -1.03299 -1.74171 0
M  V30 220 C 20.7903 0.433326 -1.89612 0
M  V30 221 O 20.0453 1.33779 -1.42834 0
M  V30 222 C 20.3443 -1.67673 -3.15627 0
M  V30 223 C 20.0103 -3.17533 -3.2013 0
M  V30 224 C 18.6723 -3.58427 -3.21067 0
M  V30 225 C 21.0243 -4.13504 -3.17275 0
M  V30 226 C 18.3523 -4.93794 -3.16835 0
M  V30 227 C 20.7043 -5.48834 -3.14585 0
M  V30 228 C 19.3683 -5.89123 -3.13831 0
M  V30 229 H 18.6383 -0.377999 -0.637336 0
M  V30 230 H 21.2853 -1.51111 -1.17634 0
M  V30 231 H 19.5903 -1.12158 -3.75404 0
M  V30 232 H 21.2873 -1.51091 -3.71446 0
M  V30 233 H 17.8773 -2.84965 -3.20145 0
M  V30 234 H 22.0613 -3.82936 -3.15711 0
M  V30 235 H 17.3173 -5.24255 -3.1459 0
M  V30 236 H 21.4913 -6.22934 -3.1133 0
M  V30 237 H 19.1183 -6.93984 -3.10307 0
M  V30 238 N 20.6934 1.19889 -1.02296 0
M  V30 239 C 22.1044 1.71124 -0.746568 0
M  V30 240 C 22.4554 1.81939 0.734335 0
M  V30 241 O 21.5804 1.48639 1.57275 0
M  V30 242 C 22.1754 3.10804 -1.34857 0
M  V30 243 C 20.7344 3.59323 -1.1209 0
M  V30 244 C 19.8814 2.3635 -1.45031 0
M  V30 245 H 22.8324 1.04813 -1.19163 0
M  V30 246 H 22.8534 3.73186 -0.742437 0
M  V30 247 H 22.3654 3.029 -2.42638 0
M  V30 248 H 20.4664 3.7255 -0.0610337 0
M  V30 249 H 20.5794 4.4378 -1.80544 0
M  V30 250 H 18.9434 2.39399 -0.869487 0
M  V30 251 H 19.7264 2.31081 -2.53883 0
M  V30 252 N 22.1715 0.800033 1.35784 0
M  V30 253 C 23.4205 0.37387 1.98205 0
M  V30 254 C 23.7335 -1.06302 1.64193 0
M  V30 255 O 24.9395 -1.59198 2.19928 0
M  V30 256 C 23.3955 0.617532 3.54562 0
M  V30 257 C 23.0035 2.06654 3.9749 0
M  V30 258 C 24.7475 0.256401 4.23725 0
M  V30 259 C 22.6545 2.2563 5.46667 0
M  V30 260 H 21.5845 0.136055 0.741623 0
M  V30 261 H 24.2355 0.983166 1.54939 0
M  V30 262 H 22.6175 -0.0616248 3.95952 0
M  V30 263 H 23.7915 2.78296 3.67271 0
M  V30 264 H 22.1065 2.38691 3.41197 0
M  V30 265 H 24.7035 0.376318 5.33374 0
M  V30 266 H 25.0465 -0.796692 4.08606 0
M  V30 267 H 25.5795 0.889214 3.87734 0
M  V30 268 H 22.3185 3.2936 5.66747 0
M  V30 269 H 21.8385 1.58504 5.78478 0
M  V30 270 H 23.5175 2.06861 6.1304 0
M  V30 271 N 23.6496 -1.47581 0.552962 0
M  V30 272 C 24.8976 -2.02082 0.0272703 0
M  V30 273 C 25.2186 -1.4301 -1.32563 0
M  V30 274 O 24.4886 -0.603745 -1.86365 0
M  V30 275 H 23.0686 -0.746966 0.00709182 0
M  V30 276 H 25.7306 -1.81033 0.722008 0
M  V30 277 H 24.8266 -3.12034 -0.0639951 0
M  V30 278 N 25.1277 -0.289203 -1.54924 0
M  V30 279 C 26.0577 0.58549 -2.2604 0
M  V30 280 C 27.0387 1.14753 -1.25562 0
M  V30 281 O 28.2237 1.17906 -1.54311 0
M  V30 282 C 25.3537 1.76305 -2.99222 0
M  V30 283 C 24.3077 1.33191 -4.06748 0
M  V30 284 C 23.6337 2.5937 -4.6758 0
M  V30 285 C 24.9337 0.471775 -5.20165 0
M  V30 286 H 26.6277 -0.00763532 -2.99399 0
M  V30 287 H 24.1737 -0.00511229 -1.43999 0
M  V30 288 H 26.1267 2.38097 -3.47689 0
M  V30 289 H 24.8507 2.38223 -2.23422 0
M  V30 290 H 23.5097 0.737121 -3.59113 0
M  V30 291 H 23.1577 3.19576 -3.88433 0
M  V30 292 H 22.8577 2.31228 -5.40192 0
M  V30 293 H 24.3817 3.21985 -5.18804 0
M  V30 294 H 25.7957 0.995056 -5.64599 0
M  V30 295 H 24.1927 0.284639 -5.99425 0
M  V30 296 H 25.2627 -0.506041 -4.82252 0
M  V30 297 N 26.6058 1.57591 -0.0167156 0
M  V30 298 C 27.8538 1.90906 0.663285 0
M  V30 299 C 28.1748 0.892509 1.73376 0
M  V30 300 O 27.4448 -0.0677623 1.95783 0
M  V30 301 H 26.0248 0.704637 0.247983 0
M  V30 302 H 28.6868 1.94803 -0.0615909 0
M  V30 303 H 27.7828 2.9116 1.12393 0
M  V30 304 N 28.0839 -0.256276 1.55502 0
M  V30 305 C 29.3119 -1.00342 1.8094 0
M  V30 306 C 29.7269 -1.79307 0.59114 0
M  V30 307 O 29.0839 -1.77114 -0.440081 0
M  V30 308 C 29.1349 -1.94875 3.04476 0
M  V30 309 O 28.8559 -1.19107 4.21598 0
M  V30 310 C 30.3569 -2.81266 3.42644 0
M  V30 311 H 27.5769 -0.295685 0.602338 0
M  V30 312 H 30.1209 -0.281998 2.02546 0
M  V30 313 H 28.2759 -2.62457 2.84947 0
M  V30 314 H 28.6899 -1.82969 4.91551 0
M  V30 315 H 30.1639 -3.43362 4.32211 0
M  V30 316 H 30.6409 -3.51897 2.62802 0
M  V30 317 H 31.2469 -2.1915 3.64491 0
M  V30 318 N 29.562 -1.4872 -0.521534 0
M  V30 319 C 30.51 -1.64328 -1.64618 0
M  V30 320 C 31.504 -0.50953 -1.61555 0
M  V30 321 O 32.71 -0.688525 -1.66311 0
M  V30 322 H 29.085 -0.517805 -0.545328 0
M  V30 323 H 31.056 -2.58767 -1.48601 0
M  V30 324 C 29.805 -1.70805 -3.02855 0
M  V30 325 H 29.128 -2.5741 -3.05909 0
M  V30 326 H 30.568 -1.85766 -3.81139 0
M  V30 327 C 29.027 -0.448479 -3.33902 0
M  V30 328 O 29.557 0.434928 -3.99339 0
M  V30 329 N 27.763 -0.317616 -2.88859 0
M  V30 330 H 27.31 -1.03748 -2.35784 0
M  V30 331 H 27.268 0.524113 -3.10001 0
M  V30 332 N 31.0401 0.771051 -1.3745 0
M  V30 333 C 32.0031 1.86598 -1.33093 0
M  V30 334 C 33.0031 1.59076 -0.234845 0
M  V30 335 O 34.1931 1.67145 -0.490732 0
M  V30 336 C 31.3251 3.23747 -1.06773 0
M  V30 337 H 32.5181 1.91873 -2.30488 0
M  V30 338 H 30.0711 0.970876 -1.2249 0
M  V30 339 H 30.8061 3.24148 -0.099129 0
M  V30 340 H 30.5911 3.45115 -1.86112 0
M  V30 341 H 32.0811 4.03824 -1.06377 0
M  V30 342 N 32.5182 1.22032 0.997298 0
M  V30 343 C 33.7642 1.04376 1.73878 0
M  V30 344 C 34.0972 -0.420716 1.89588 0
M  V30 345 O 33.3722 -1.31202 1.43583 0
M  V30 346 C 33.6552 1.75047 3.14691 0
M  V30 347 C 33.5082 3.29062 3.06656 0
M  V30 348 C 34.8272 1.49928 4.13775 0
M  V30 349 H 31.9462 0.380578 0.631133 0
M  V30 350 H 34.5882 1.50312 1.16217 0
M  V30 351 H 32.7382 1.35996 3.63919 0
M  V30 352 H 34.4102 3.7753 2.65083 0
M  V30 353 H 32.6532 3.58967 2.43568 0
M  V30 354 H 33.3242 3.73683 4.06282 0
M  V30 355 H 35.8002 1.83842 3.73285 0
M  V30 356 H 34.6762 2.01878 5.10428 0
M  V30 357 H 34.9372 0.430929 4.39995 0
M  V30 358 N 33.9963 -1.19345 1.0293 0
M  V30 359 C 35.2443 -1.88665 0.724574 0
M  V30 360 C 35.5653 -1.80036 -0.749144 0
M  V30 361 O 34.8353 -1.2111 -1.53978 0
M  V30 362 H 33.4153 -0.698406 0.265025 0
M  V30 363 H 36.0773 -1.44885 1.30362 0
M  V30 364 H 35.1733 -2.94987 1.01926 0
M  V30 365 N 35.4744 -0.807222 -1.35358 0
M  V30 366 C 36.7224 -0.387122 -1.98358 0
M  V30 367 C 37.0434 1.04942 -1.64354 0
M  V30 368 O 36.3134 1.72615 -0.926339 0
M  V30 369 H 34.8934 -0.140154 -0.733734 0
M  V30 370 H 37.5554 -1.0332 -1.6526 0
M  V30 371 H 36.6514 -0.493352 -3.08176 0
M  V30 372 N 36.9525 1.47285 -0.560781 0
M  V30 373 C 37.9025 2.27073 0.205384 0
M  V30 374 C 38.8865 1.34569 0.882044 0
M  V30 375 O 40.0785 1.58899 0.77976 0
M  V30 376 C 37.2075 3.20414 1.23247 0
M  V30 377 C 36.2935 4.20399 0.559041 0
M  V30 378 N 36.6845 5.04423 -0.372927 0
M  V30 379 C 34.9825 4.38536 0.812522 0
M  V30 380 C 35.6835 5.76655 -0.764446 0
M  V30 381 N 34.6595 5.43471 -0.11848 0
M  V30 382 H 38.4615 2.89422 -0.511117 0
M  V30 383 H 35.9755 1.57868 -0.380975 0
M  V30 384 H 37.9725 3.76262 1.79534 0
M  V30 385 H 36.6325 2.59623 1.95002 0
M  V30 386 H 37.6435 5.1248 -0.747287 0
M  V30 387 H 34.3205 3.88913 1.51832 0
M  V30 388 H 35.7105 6.54238 -1.53045 0
M  V30 389 N 38.4306 0.297415 1.54768 0
M  V30 390 C 39.3786 -0.596051 2.24833 0
M  V30 391 C 40.3726 -1.13992 1.25308 0
M  V30 392 O 41.5786 -1.09098 1.4317 0
M  V30 393 H 37.9536 -0.210814 0.721846 0
M  V30 394 H 39.9246 0.0174667 2.98395 0
M  V30 395 C 38.6736 -1.75818 2.99972 0
M  V30 396 H 37.9966 -1.3489 3.76357 0
M  V30 397 H 39.4366 -2.35949 3.52284 0
M  V30 398 C 37.8956 -2.66014 2.06732 0
M  V30 399 O 38.4256 -3.67009 1.63302 0
M  V30 400 N 36.6316 -2.33669 1.72763 0
M  V30 401 H 36.1786 -1.51586 2.08277 0
M  V30 402 H 36.1366 -2.94285 1.10652 0
M  V30 403 N 39.9087 -1.5758 0.0250728 0
M  V30 404 C 40.8387 -2.13007 -0.956575 0
M  V30 405 C 41.8197 -1.0452 -1.342 0
M  V30 406 O 43.0047 -1.32332 -1.42133 0
M  V30 407 C 40.1347 -2.65386 -2.24026 0
M  V30 408 C 39.0887 -3.78623 -1.99571 0
M  V30 409 C 38.4147 -4.17414 -3.3417 0
M  V30 410 C 39.7147 -5.04867 -1.33814 0
M  V30 411 H 41.4087 -2.9528 -0.494991 0
M  V30 412 H 38.9547 -1.42042 -0.236651 0
M  V30 413 H 40.9077 -3.02794 -2.93076 0
M  V30 414 H 39.6317 -1.80268 -2.72343 0
M  V30 415 H 38.2907 -3.41646 -1.32941 0
M  V30 416 H 37.9387 -3.29284 -3.80238 0
M  V30 417 H 37.6387 -4.93719 -3.18615 0
M  V30 418 H 39.1627 -4.57402 -4.04495 0
M  V30 419 H 40.5767 -5.39888 -1.92857 0
M  V30 420 H 38.9737 -5.86144 -1.28669 0
M  V30 421 H 40.0437 -4.83904 -0.310561 0
M  V30 422 N 41.3868 0.248026 -1.55636 0
M  V30 423 C 42.6168 0.992367 -1.81206 0
M  V30 424 C 43.0248 1.7949 -0.598324 0
M  V30 425 O 42.3678 1.78292 0.442434 0
M  V30 426 C 42.4298 1.97926 -3.00109 0
M  V30 427 C 42.0938 1.36377 -4.36177 0
M  V30 428 C 43.0908 0.76682 -5.14214 0
M  V30 429 C 40.7758 1.38347 -4.82872 0
M  V30 430 C 42.7698 0.197778 -6.37093 0
M  V30 431 C 40.4568 0.810574 -6.057 0
M  V30 432 C 41.4548 0.218754 -6.8265 0
M  V30 433 O 41.1428 -0.345298 -8.03158 0
M  V30 434 H 40.8748 0.297704 -0.606917 0
M  V30 435 H 43.4288 0.276517 -2.0353 0
M  V30 436 H 41.6588 2.73339 -2.73538 0
M  V30 437 H 43.3478 2.58694 -3.12781 0
M  V30 438 H 44.1138 0.744114 -4.79258 0
M  V30 439 H 39.9928 1.8335 -4.2297 0
M  V30 440 H 43.5368 -0.264788 -6.97097 0
M  V30 441 H 39.4338 0.830604 -6.40134 0
M  V30 442 H 40.2018 -0.237055 -8.18157 0
M  V30 443 N 42.8649 1.48995 0.513639 0
M  V30 444 C 44.2759 1.5119 1.09537 0
M  V30 445 C 44.6269 0.290906 1.94031 0
M  V30 446 O 43.7519 -0.60049 2.07902 0
M  V30 447 C 44.3469 2.73964 1.99322 0
M  V30 448 C 42.9059 2.78978 2.52682 0
M  V30 449 C 42.0529 2.44934 1.30009 0
M  V30 450 H 45.0039 1.55875 0.298125 0
M  V30 451 H 45.0249 2.53409 2.83838 0
M  V30 452 H 44.5369 3.62813 1.37799 0
M  V30 453 H 42.6379 1.94378 3.1788 0
M  V30 454 H 42.7509 3.8083 2.90698 0
M  V30 455 H 41.1149 1.9644 1.62122 0
M  V30 456 H 41.8979 3.36043 0.702131 0
M  V30 457 N 44.343 -0.763751 1.37857 0
M  V30 458 C 45.291 -1.89864 1.34367 0
M  V30 459 C 46.285 -1.67816 0.231143 0
M  V30 460 O 47.491 -1.75508 0.399617 0
M  V30 461 H 43.866 -0.624501 0.41893 0
M  V30 462 H 45.837 -1.89925 2.30155 0
M  V30 463 C 44.586 -3.27227 1.1755 0
M  V30 464 H 43.909 -3.44773 2.02414 0
M  V30 465 H 45.349 -4.06911 1.1916 0
M  V30 466 C 43.808 -3.36692 -0.118311 0
M  V30 467 O 44.338 -3.86374 -1.09902 0
M  V30 468 N 42.544 -2.90092 -0.171717 0
M  V30 469 H 42.091 -2.49853 0.627012 0
M  V30 470 H 42.049 -2.96806 -1.03699 0
M  V30 471 N 45.8211 -1.22559 -0.990812 0
M  V30 472 C 46.7511 -1.0218 -2.09956 0
M  V30 473 C 47.7321 0.0579394 -1.70001 0
M  V30 474 O 48.9171 -0.104684 -1.93918 0
M  V30 475 C 46.0471 -0.601023 -3.4206 0
M  V30 476 C 45.0011 -1.62694 -3.95872 0
M  V30 477 C 44.3271 -1.06193 -5.24049 0
M  V30 478 C 45.6271 -3.01743 -4.2632 0
M  V30 479 H 47.3211 -1.94916 -2.27262 0
M  V30 480 H 44.8671 -0.938566 -1.09211 0
M  V30 481 H 46.8201 -0.445561 -4.19038 0
M  V30 482 H 45.5441 0.362005 -3.24588 0
M  V30 483 H 44.2031 -1.77021 -3.21028 0
M  V30 484 H 43.8511 -0.0901903 -5.02919 0
M  V30 485 H 43.5511 -1.74732 -5.61019 0
M  V30 486 H 45.0751 -0.918092 -6.03658 0
M  V30 487 H 46.4891 -2.90777 -4.94087 0
M  V30 488 H 44.8861 -3.67425 -4.74467 0
M  V30 489 H 45.9561 -3.51518 -3.34011 0
M  V30 490 N 47.2992 1.18797 -1.03562 0
M  V30 491 C 48.2472 2.24297 -0.615905 0
M  V30 492 C 49.2412 1.65643 0.354808 0
M  V30 493 O 50.4472 1.78618 0.22265 0
M  V30 494 H 46.8222 0.729909 -0.180934 0
M  V30 495 H 48.7932 2.5701 -1.5162 0
M  V30 496 C 47.5422 3.47698 0.0104735 0
M  V30 497 H 46.8652 3.93125 -0.727509 0
M  V30 498 H 48.3052 4.23159 0.266995 0
M  V30 499 C 46.7642 3.12489 1.25905 0
M  V30 500 O 47.2942 3.25761 2.35038 0
M  V30 501 N 45.5002 2.6686 1.15039 0
M  V30 502 H 45.0472 2.56261 0.262328 0
M  V30 503 H 45.0052 2.43674 1.98672 0
M  V30 504 N 48.7773 0.814389 1.34928 0
M  V30 505 C 49.6873 0.231978 2.3345 0
M  V30 506 C 50.7033 -0.629139 1.62228 0
M  V30 507 O 51.8793 -0.539052 1.94052 0
M  V30 508 C 48.9443 -0.603482 3.41407 0
M  V30 509 C 48.0053 0.279037 4.28392 0
M  V30 510 C 47.2383 -0.516643 5.31193 0
M  V30 511 O 47.4613 -1.75068 5.4287 0
M  V30 512 O 46.3953 0.0965652 6.01823 0
M  V30 513 H 50.2213 1.04721 2.85074 0
M  V30 514 H 47.8063 0.576343 1.37836 0
M  V30 515 H 49.6883 -1.07908 4.0735 0
M  V30 516 H 48.3633 -1.39618 2.92042 0
M  V30 517 H 47.2703 0.801948 3.65403 0
M  V30 518 H 48.6033 1.03588 4.81176 0
M  V30 519 N 50.2554 -1.46986 0.568584 0
M  V30 520 C 51.1654 -2.33942 -0.17555 0
M  V30 521 C 52.1814 -1.48891 -0.90041 0
M  V30 522 O 53.3574 -1.81794 -0.86676 0
M  V30 523 C 50.4224 -3.25811 -1.18524 0
M  V30 524 C 49.4834 -4.26757 -0.466582 0
M  V30 525 C 48.7164 -5.14236 -1.42817 0
M  V30 526 O 48.9394 -5.04379 -2.66379 0
M  V30 527 O 47.8734 -5.94412 -0.946453 0
M  V30 528 H 51.6994 -2.98896 0.538036 0
M  V30 529 H 49.2844 -1.4573 0.329097 0
M  V30 530 H 51.1664 -3.82527 -1.76779 0
M  V30 531 H 49.8414 -2.63471 -1.88055 0
M  V30 532 H 48.7484 -3.73769 0.157451 0
M  V30 533 H 50.0814 -4.91843 0.187485 0
M  V30 534 N 51.7335 -0.305618 -1.54608 0
M  V30 535 C 52.9615 0.304775 -2.04643 0
M  V30 536 C 53.3765 1.47167 -1.18268 0
M  V30 537 O 52.7335 1.81296 -0.209328 0
M  V30 538 C 52.7845 0.756564 -3.53495 0
M  V30 539 O 52.5055 -0.36389 -4.36586 0
M  V30 540 C 54.0065 1.43163 -4.19546 0
M  V30 541 H 51.2265 0.0655481 -0.667791 0
M  V30 542 H 53.7705 -0.446592 -1.99564 0
M  V30 543 H 51.9255 1.45794 -3.58919 0
M  V30 544 H 52.3395 -0.0113121 -5.24499 0
M  V30 545 H 53.8135 1.69886 -5.25207 0
M  V30 546 H 54.2905 2.37318 -3.69563 0
M  V30 547 H 54.8965 0.773307 -4.18211 0
M  V30 548 N 53.2116 1.57565 -0.0334293 0
M  V30 549 C 54.4596 1.91598 0.642999 0
M  V30 550 C 54.7806 0.910847 1.7242 0
M  V30 551 O 54.0506 -0.0469931 1.95844 0
M  V30 552 H 52.6306 0.707228 0.240496 0
M  V30 553 H 55.2926 1.94726 -0.0822488 0
M  V30 554 H 54.3886 2.92336 1.09298 0
M  V30 555 N 54.6897 -0.239769 1.55765 0
M  V30 556 C 55.6367 -1.29696 1.90913 0
M  V30 557 C 56.6067 -1.47478 0.764164 0
M  V30 558 O 57.7917 -1.61345 1.01845 0
M  V30 559 C 54.9317 -2.64598 2.21544 0
M  V30 560 C 54.0447 -2.54765 3.48882 0
M  V30 561 C 53.1797 -3.82069 3.69049 0
M  V30 562 C 52.2187 -3.66883 4.89963 0
M  V30 563 N 51.3557 -4.86094 5.06614 0
M  V30 564 H 56.1957 -0.990224 2.81067 0
M  V30 565 H 53.7327 -0.477684 1.39128 0
M  V30 566 H 55.6907 -3.43132 2.3731 0
M  V30 567 H 54.3207 -2.93405 1.34585 0
M  V30 568 H 53.3727 -1.67763 3.41409 0
M  V30 569 H 54.6847 -2.39457 4.37563 0
M  V30 570 H 53.8387 -4.69046 3.84812 0
M  V30 571 H 52.5777 -4.00282 2.78614 0
M  V30 572 H 51.5827 -2.78289 4.74168 0
M  V30 573 H 52.8077 -3.50157 5.81865 0
M  V30 574 H 50.7537 -5.04655 4.19117 0
M  V30 575 H 50.6707 -4.73443 5.89396 0
M  V30 576 H 51.9387 -5.74549 5.26795 0
M  V30 577 N 56.1678 -1.49265 -0.50573 0
M  V30 578 C 57.0778 -1.68312 -1.63427 0
M  V30 579 C 58.0938 -0.565682 -1.64548 0
M  V30 580 O 59.2698 -0.839801 -1.83055 0
M  V30 581 C 56.3348 -1.74107 -2.99813 0
M  V30 582 C 55.3958 -2.97653 -3.09356 0
M  V30 583 C 54.6288 -3.03163 -4.39236 0
M  V30 584 O 54.8518 -2.16396 -5.27758 0
M  V30 585 O 53.7858 -3.9558 -4.53652 0
M  V30 586 H 57.6118 -2.63907 -1.50289 0
M  V30 587 H 55.1968 -1.32951 -0.681502 0
M  V30 588 H 57.0788 -1.803 -3.80881 0
M  V30 589 H 55.7538 -0.816901 -3.13223 0
M  V30 590 H 54.6608 -2.96981 -2.27493 0
M  V30 591 H 55.9938 -3.89535 -3.00871 0
M  V30 592 N 57.6459 0.756429 -1.3826 0
M  V30 593 C 58.5759 1.88374 -1.37976 0
M  V30 594 C 59.5569 1.68311 -0.246082 0
M  V30 595 O 60.7419 1.88944 -0.44874 0
M  V30 596 C 57.8719 3.25864 -1.20125 0
M  V30 597 C 56.8259 3.60523 -2.30666 0
M  V30 598 C 56.1519 4.9672 -1.97923 0
M  V30 599 C 57.4519 3.65692 -3.72916 0
M  V30 600 H 59.1459 1.88869 -2.32312 0
M  V30 601 H 56.6919 0.907272 -1.11824 0
M  V30 602 H 58.6449 4.0438 -1.18552 0
M  V30 603 H 57.3689 3.25841 -0.222498 0
M  V30 604 H 56.0279 2.84324 -2.3142 0
M  V30 605 H 55.6759 4.93253 -0.985393 0
M  V30 606 H 55.3759 5.20878 -2.71955 0
M  V30 607 H 56.8999 5.77618 -1.97964 0
M  V30 608 H 58.3139 4.34328 -3.74208 0
M  V30 609 H 56.7109 4.01358 -4.4613 0
M  V30 610 H 57.7809 2.65987 -4.05436 0
M  V30 611 N 59.124 1.23083 0.984299 0
M  V30 612 C 60.37 1.06214 1.72761 0
M  V30 613 C 60.703 -0.400584 1.90024 0
M  V30 614 O 59.978 -1.29672 1.44967 0
M  V30 615 C 60.261 1.78375 3.12817 0
M  V30 616 C 60.114 3.32296 3.03149 0
M  V30 617 C 61.433 1.54309 4.12161 0
M  V30 618 H 58.552 0.387251 0.627061 0
M  V30 619 H 61.194 1.51536 1.14616 0
M  V30 620 H 59.344 1.39848 3.62457 0
M  V30 621 H 61.016 3.8032 2.61064 0
M  V30 622 H 59.259 3.6153 2.39747 0
M  V30 623 H 59.93 3.77972 4.02295 0
M  V30 624 H 62.406 1.87791 3.71314 0
M  V30 625 H 61.282 2.07281 5.08258 0
M  V30 626 H 61.543 0.477572 4.39513 0
M  V30 627 N 60.6021 -1.18246 1.0419 0
M  V30 628 C 62.0181 -1.40269 0.761366 0
M  V30 629 C 62.2181 -1.90777 -0.648578 0
M  V30 630 O 61.2741 -2.0929 -1.41258 0
M  V30 631 C 62.5871 -2.40237 1.8085 0
M  V30 632 C 64.1351 -2.53961 1.82955 0
M  V30 633 C 64.6101 -3.57194 2.86664 0
M  V30 634 N 66.1011 -3.64702 2.85563 0
M  V30 635 C 66.8361 -4.44309 3.6246 0
M  V30 636 N 66.3321 -5.27514 4.49111 0
M  V30 637 N 68.1251 -4.39084 3.50944 0
M  V30 638 H 60.2761 -0.837882 1.95175 0
M  V30 639 H 62.5391 -0.430608 0.84456 0
M  V30 640 H 62.2451 -2.10176 2.81991 0
M  V30 641 H 62.1191 -3.39601 1.64168 0
M  V30 642 H 64.5061 -2.83338 0.824855 0
M  V30 643 H 64.5871 -1.54706 2.03715 0
M  V30 644 H 64.2311 -3.28558 3.87314 0
M  V30 645 H 64.1611 -4.5613 2.6316 0
M  V30 646 H 66.6521 -3.05289 2.22727 0
M  V30 647 H 66.9651 -5.85411 5.04493 0
M  V30 648 H 65.3101 -5.2693 4.53178 0
M  V30 649 H 68.5011 -3.7313 2.82651 0
M  V30 650 H 68.6741 -5.00883 4.11121 0
M  V30 651 N 62.0802 -0.821533 -1.34494 0
M  V30 652 C 62.9902 -0.244355 -2.33324 0
M  V30 653 C 64.0062 0.620527 -1.62559 0
M  V30 654 O 65.1822 0.528754 -1.94335 0
M  V30 655 C 62.2472 0.585368 -3.41723 0
M  V30 656 C 61.3082 -0.301752 -4.28238 0
M  V30 657 C 60.5412 0.488466 -5.3146 0
M  V30 658 O 60.7642 1.72186 -5.4379 0
M  V30 659 O 59.6982 -0.12848 -6.01763 0
M  V30 660 H 63.5242 -1.06231 -2.84515 0
M  V30 661 H 61.1092 -0.583645 -1.37528 0
M  V30 662 H 62.9912 1.05747 -4.07916 0
M  V30 663 H 61.6662 1.38068 -2.92778 0
M  V30 664 H 60.5732 -0.821315 -3.64973 0
M  V30 665 H 61.9062 -1.06138 -4.8062 0
M  V30 666 N 63.5583 1.46682 -0.576371 0
M  V30 667 C 64.5213 2.28707 0.150239 0
M  V30 668 C 65.5213 1.38035 0.824794 0
M  V30 669 O 66.7113 1.60476 0.677719 0
M  V30 670 C 63.8433 3.18248 1.22192 0
M  V30 671 H 65.0363 2.94423 -0.570521 0
M  V30 672 H 62.5893 1.52688 -0.334078 0
M  V30 673 H 63.3243 2.57265 1.97447 0
M  V30 674 H 63.1093 3.85 0.742812 0
M  V30 675 H 64.5993 3.80001 1.73172 0
M  V30 676 N 65.0364 0.313813 1.54444 0
M  V30 677 C 66.2854 -0.292519 1.99568 0
M  V30 678 C 66.5984 -1.54011 1.20582 0
M  V30 679 O 67.8044 -2.22183 1.56035 0
M  V30 680 C 66.2604 -0.571752 3.55329 0
M  V30 681 C 65.8684 0.658229 4.43138 0
M  V30 682 C 67.6124 -1.13857 4.08946 0
M  V30 683 C 65.5194 0.351439 5.90355 0
M  V30 684 H 64.4494 -0.113079 0.745472 0
M  V30 685 H 67.1004 0.424518 1.78522 0
M  V30 686 H 65.4824 -1.34872 3.72325 0
M  V30 687 H 66.6564 1.43403 4.37918 0
M  V30 688 H 64.9714 1.14458 4.0036 0
M  V30 689 H 67.5684 -1.38257 5.16516 0
M  V30 690 H 67.9114 -2.08489 3.6033 0
M  V30 691 H 68.4444 -0.423015 3.95544 0
M  V30 692 H 65.1834 1.26667 6.43145 0
M  V30 693 H 64.7034 -0.386842 5.98551 0
M  V30 694 H 66.3824 -0.0423134 6.46986 0
M  V30 695 N 66.5145 -1.57545 0.0417849 0
M  V30 696 C 67.9305 -1.56467 -0.314704 0
M  V30 697 C 68.1305 -1.04859 -1.72066 0
M  V30 698 O 67.1865 -0.700983 -2.42575 0
M  V30 699 C 68.4995 -3.00317 -0.15174 0
M  V30 700 C 70.0475 -3.12201 -0.223553 0
M  V30 701 C 70.5225 -4.57913 -0.0892295 0
M  V30 702 N 72.0135 -4.6297 -0.145808 0
M  V30 703 C 72.7485 -5.73362 -0.0658459 0
M  V30 704 N 72.2445 -6.92769 0.0659282 0
M  V30 705 N 74.0375 -5.6197 -0.12075 0
M  V30 706 H 66.1885 -1.89416 0.961014 0
M  V30 707 H 68.4515 -0.871862 0.372237 0
M  V30 708 H 68.1575 -3.42073 0.817254 0
M  V30 709 H 68.0315 -3.65892 -0.916692 0
M  V30 710 H 70.4185 -2.70349 -1.18301 0
M  V30 711 H 70.4995 -2.49323 0.571994 0
M  V30 712 H 70.1435 -5.00448 0.866867 0
M  V30 713 H 70.0735 -5.18786 -0.903802 0
M  V30 714 H 72.5645 -3.7709 -0.247286 0
M  V30 715 H 72.8775 -7.72707 0.119905 0
M  V30 716 H 71.2225 -6.94927 0.100885 0
M  V30 717 H 74.4135 -4.67572 -0.222187 0
M  V30 718 H 74.5865 -6.47977 -0.0549735 0
M  V30 719 N 67.9926 0.231505 -1.5589 0
M  V30 720 C 68.9406 1.30649 -1.92441 0
M  V30 721 C 69.9346 1.49037 -0.805254 0
M  V30 722 O 71.1406 1.50329 -0.990007 0
M  V30 723 H 67.5156 0.437812 -0.611412 0
M  V30 724 H 69.4866 0.970973 -2.82161 0
M  V30 725 C 68.2356 2.65179 -2.24889 0
M  V30 726 H 67.5586 2.51835 -3.10514 0
M  V30 727 H 68.9986 3.39234 -2.54355 0
M  V30 728 C 67.4576 3.19439 -1.07054 0
M  V30 729 O 67.9876 4.00371 -0.326499 0
M  V30 730 N 66.1936 2.77675 -0.85703 0
M  V30 731 H 65.7406 2.11969 -1.46379 0
M  V30 732 H 65.6986 3.14321 -0.0703223 0
M  V30 733 N 69.4707 1.49531 0.497807 0
M  V30 734 C 70.7187 1.58865 1.24926 0
M  V30 735 C 71.0397 0.278721 1.92998 0
M  V30 736 O 70.3097 -0.702144 1.82885 0
M  V30 737 H 68.8897 0.585343 0.464094 0
M  V30 738 H 71.5517 1.86174 0.57666 0
M  V30 739 H 70.6477 2.38633 2.01149 0
M  V30 740 N 70.9488 -0.749086 1.3866 0
M  V30 741 C 72.1948 -1.51056 1.35314 0
M  V30 742 C 72.5278 -1.94121 -0.0553751 0
M  V30 743 O 71.8028 -1.65763 -1.01749 0
M  V30 744 C 72.0858 -2.76003 2.31288 0
M  V30 745 C 71.9388 -2.39047 3.8102 0
M  V30 746 C 73.2578 -3.78046 2.2532 0
M  V30 747 H 70.3768 -0.547972 0.492844 0
M  V30 748 H 73.0188 -0.857628 1.69543 0
M  V30 749 H 71.1688 -3.31716 2.02229 0
M  V30 750 H 72.8408 -1.89074 4.20771 0
M  V30 751 H 71.0838 -1.71449 3.98482 0
M  V30 752 H 71.7548 -3.28462 4.4364 0
M  V30 753 H 74.2308 -3.31884 2.50983 0
M  V30 754 H 73.1068 -4.63159 2.94576 0
M  V30 755 H 73.3678 -4.23957 1.25352 0
M  V30 756 N 72.4269 -1.23603 -0.977757 0
M  V30 757 C 73.6549 -1.09646 -1.75458 0
M  V30 758 C 74.0699 0.351859 -1.85492 0
M  V30 759 O 73.4269 1.24327 -1.336 0
M  V30 760 C 73.4779 -1.71895 -3.18016 0
M  V30 761 O 73.1989 -3.11063 -3.08498 0
M  V30 762 C 74.6999 -1.63415 -4.12081 0
M  V30 763 H 71.9199 -0.38359 -0.550545 0
M  V30 764 H 74.4639 -1.63507 -1.22824 0
M  V30 765 H 72.6189 -1.22061 -3.67668 0
M  V30 766 H 73.0329 -3.41305 -3.9826 0
M  V30 767 H 74.5069 -2.11669 -5.09804 0
M  V30 768 H 74.9839 -0.593462 -4.35172 0
M  V30 769 H 75.5899 -2.12628 -3.68334 0
M  V30 770 N 73.905 1.17692 -1.04816 0
M  V30 771 C 74.838 2.20436 -0.590173 0
M  V30 772 C 75.816 1.58115 0.379244 0
M  V30 773 O 77 1.86228 0.291762 0
M  V30 774 C 74.127 3.38424 0.136817 0
M  V30 775 C 73.173 4.19176 -0.787023 0
M  V30 776 S 74.006 4.84815 -2.27409 0
M  V30 777 C 75.162 6.06195 -1.55817 0
M  V30 778 H 75.395 2.58944 -1.46067 0
M  V30 779 H 72.928 1.28246 -0.859784 0
M  V30 780 H 74.886 4.06798 0.550076 0
M  V30 781 H 73.547 2.98312 0.983299 0
M  V30 782 H 72.74 5.03499 -0.224681 0
M  V30 783 H 72.342 3.56219 -1.13947 0
M  V30 784 H 74.634 6.72078 -0.855387 0
M  V30 785 H 75.577 6.6695 -2.37873 0
M  V30 786 H 75.985 5.54701 -1.04722 0
M  V30 787 N 75.3831 0.828654 1.34056 0
M  V30 788 C 76.3131 0.269443 2.3194 0
M  V30 789 C 77.2941 -0.617247 1.58506 0
M  V30 790 O 78.4791 -0.542931 1.86456 0
M  V30 791 C 75.6091 -0.564793 3.42677 0
M  V30 792 C 74.5631 0.225241 4.27407 0
M  V30 793 C 73.8891 -0.7321 5.29664 0
M  V30 794 C 75.1891 1.43663 5.02154 0
M  V30 795 H 76.8831 1.08728 2.7896 0
M  V30 796 H 74.4291 0.524283 1.34117 0
M  V30 797 H 76.3821 -0.966233 4.10173 0
M  V30 798 H 75.1061 -1.41574 2.9432 0
M  V30 799 H 73.7651 0.608117 3.61521 0
M  V30 800 H 73.4131 -1.57916 4.77568 0
M  V30 801 H 73.1131 -0.20767 5.87233 0
M  V30 802 H 74.6371 -1.13128 6.00029 0
M  V30 803 H 76.0511 1.1089 5.62473 0
M  V30 804 H 74.4481 1.89711 5.69324 0
M  V30 805 H 75.5181 2.21181 4.31517 0
M  V30 806 N 76.8612 -1.46375 0.584142 0
M  V30 807 C 78.1382 -1.956 0.0033388 0
M  V30 808 C 78.5182 -1.52679 -1.45782 0
M  V30 809 O 77.8662 -0.77816 -2.14842 0
M  V30 810 C 78.0762 -3.48551 0.176891 0
M  V30 811 C 79.4242 -4.24576 0.0454609 0
M  V30 812 O 80.4482 -3.56043 0.105801 0
M  V30 813 O 79.3072 -5.46427 -0.0890376 0
M  V30 814 H 76.4012 -0.825547 -0.0490066 0
M  V30 815 H 78.9472 -1.56652 0.65256 0
M  V30 816 H 77.7192 -3.72683 1.1926 0
M  V30 817 H 77.3422 -3.94332 -0.508695 0
M  V30 818 N 78.3393 -0.321999 -1.54275 0
M  V30 819 C 79.5673 0.283052 -2.04955 0
M  V30 820 C 79.9823 1.45904 -1.19823 0
M  V30 821 O 79.3393 1.81063 -0.228545 0
M  V30 822 C 79.3903 0.719028 -3.54277 0
M  V30 823 O 79.1113 -0.410175 -4.36176 0
M  V30 824 C 80.6123 1.38705 -4.21041 0
M  V30 825 H 77.8323 0.0584616 -0.668448 0
M  V30 826 H 80.3763 -0.467734 -1.99079 0
M  V30 827 H 78.5313 1.41979 -3.60445 0
M  V30 828 H 78.9453 -0.0669416 -5.24457 0
M  V30 829 H 80.4193 1.64306 -5.2698 0
M  V30 830 H 80.8963 2.33385 -3.72059 0
M  V30 831 H 81.5023 0.728906 -4.19007 0
M  V30 832 N 79.8174 1.5752 -0.0501392 0
M  V30 833 C 80.7804 2.1037 0.909786 0
M  V30 834 C 81.7804 1.02308 1.24056 0
M  V30 835 O 82.9704 1.28385 1.17741 0
M  V30 836 C 80.1024 2.58708 2.21998 0
M  V30 837 H 81.2954 2.96479 0.451665 0
M  V30 838 H 78.8484 1.55038 0.198248 0
M  V30 839 H 79.5834 1.75989 2.72394 0
M  V30 840 H 79.3684 3.37675 1.99295 0
M  V30 841 H 80.8584 2.99747 2.9076 0
M  V30 842 N 81.2955 -0.223234 1.56011 0
M  V30 843 C 82.5255 -0.963413 1.82762 0
M  V30 844 C 82.9335 -1.78516 0.626804 0
M  V30 845 O 82.2765 -1.78974 -0.414014 0
M  V30 846 C 82.3385 -1.93126 3.0322 0
M  V30 847 C 82.0025 -1.2942 4.38291 0
M  V30 848 C 82.9995 -0.684916 5.15369 0
M  V30 849 C 80.6845 -1.30647 4.85012 0
M  V30 850 C 82.6785 -0.0963971 6.37327 0
M  V30 851 C 80.3655 -0.71411 6.06913 0
M  V30 852 C 81.3635 -0.110123 6.82911 0
M  V30 853 O 81.0515 0.47303 8.02507 0
M  V30 854 H 80.7835 -0.288011 0.611576 0
M  V30 855 H 83.3375 -0.244103 2.03944 0
M  V30 856 H 81.5675 -2.68952 2.77852 0
M  V30 857 H 83.2565 -2.53685 3.16857 0
M  V30 858 H 84.0225 -0.667774 4.80381 0
M  V30 859 H 79.9015 -1.76598 4.25833 0
M  V30 860 H 83.4455 0.375657 6.96588 0
M  V30 861 H 79.3425 -0.728659 6.41374 0
M  V30 862 H 80.1105 0.367186 8.17676 0
M  V30 863 N 82.7736 -1.49793 -0.48987 0
M  V30 864 C 84.0226 -1.59085 -1.23995 0
M  V30 865 C 84.3356 -0.287907 -1.9347 0
M  V30 866 O 85.5416 -0.259506 -2.70257 0
M  V30 867 C 83.9976 -2.80736 -2.252 0
M  V30 868 C 83.6056 -4.17833 -1.61614 0
M  V30 869 C 85.3496 -2.99364 -3.00967 0
M  V30 870 C 83.2566 -5.30693 -2.60996 0
M  V30 871 H 82.1866 -0.592372 -0.466488 0
M  V30 872 H 84.8376 -1.76197 -0.51252 0
M  V30 873 H 83.2196 -2.57142 -3.01154 0
M  V30 874 H 84.3936 -4.51608 -0.915774 0
M  V30 875 H 82.7086 -4.04656 -0.981977 0
M  V30 876 H 85.3056 -3.80851 -3.75308 0
M  V30 877 H 85.6486 -2.10356 -3.59244 0
M  V30 878 H 86.1816 -3.2305 -2.32128 0
M  V30 879 H 82.9206 -6.21796 -2.07485 0
M  V30 880 H 82.4406 -5.01359 -3.2924 0
M  V30 881 H 84.1196 -5.6049 -3.23202 0
M  V30 882 N 84.2517 0.741722 -1.39055 0
M  V30 883 C 85.4817 1.52876 -1.3897 0
M  V30 884 C 85.8897 1.8919 0.0193266 0
M  V30 885 O 85.2327 1.54138 0.999356 0
M  V30 886 C 85.2947 2.84929 -2.19216 0
M  V30 887 C 84.9587 2.71086 -3.67915 0
M  V30 888 C 85.9557 2.40084 -4.61146 0
M  V30 889 C 83.6407 2.88168 -4.11418 0
M  V30 890 C 85.6347 2.26335 -5.95862 0
M  V30 891 C 83.3217 2.74037 -5.46211 0
M  V30 892 C 84.3197 2.43166 -6.38247 0
M  V30 893 O 84.0077 2.29115 -7.70559 0
M  V30 894 H 83.7397 0.479252 -0.476753 0
M  V30 895 H 86.2937 0.924751 -1.83405 0
M  V30 896 H 84.5237 3.47564 -1.69518 0
M  V30 897 H 86.2127 3.46509 -2.11392 0
M  V30 898 H 86.9787 2.26545 -4.28838 0
M  V30 899 H 82.8577 3.11191 -3.40119 0
M  V30 900 H 86.4017 2.0216 -6.67665 0
M  V30 901 H 82.2987 2.87153 -5.78112 0
M  V30 902 H 83.0667 2.44237 -7.81211 0
M  V30 903 N 85.7298 1.2412 0.971189 0
M  V30 904 C 86.9778 1.07668 1.71032 0
M  V30 905 C 87.2988 -0.385797 1.91146 0
M  V30 906 O 86.5688 -1.27569 1.4867 0
M  V30 907 H 85.1488 0.395429 0.633755 0
M  V30 908 H 87.8108 1.55984 1.16855 0
M  V30 909 H 86.9068 1.57195 2.69622 0
M  V30 910 N 87.2079 -1.17134 1.05439 0
M  V30 911 C 88.4569 -1.86791 0.761049 0
M  V30 912 C 88.7699 -1.82072 -0.714795 0
M  V30 913 O 89.9759 -2.47223 -1.12218 0
M  V30 914 C 88.4319 -3.35166 1.31117 0
M  V30 915 C 88.0399 -3.48381 2.81664 0
M  V30 916 C 89.7839 -4.10134 1.09499 0
M  V30 917 C 87.6909 -4.90793 3.29964 0
M  V30 918 H 86.6209 -0.699681 0.281002 0
M  V30 919 H 89.2719 -1.3226 1.27199 0
M  V30 920 H 87.6539 -3.8925 0.72803 0
M  V30 921 H 88.8279 -3.04502 3.45855 0
M  V30 922 H 87.1429 -2.86836 3.01851 0
M  V30 923 H 89.7399 -5.152 1.43084 0
M  V30 924 H 90.0829 -4.16287 0.0328772 0
M  V30 925 H 90.6159 -3.62264 1.64346 0
M  V30 926 H 87.3549 -4.89816 4.35616 0
M  V30 927 H 86.8749 -5.35333 2.70516 0
M  V30 928 H 88.5539 -5.59573 3.24787 0
M  V30 929 N 88.686 -0.835752 -1.33615 0
M  V30 930 C 89.934 -0.429109 -1.97492 0
M  V30 931 C 90.255 1.01433 -1.66543 0
M  V30 932 O 89.525 1.70611 -0.962744 0
M  V30 933 H 88.105 -0.155686 -0.730596 0
M  V30 934 H 90.767 -1.06802 -1.63031 0
M  V30 935 H 89.863 -0.55861 -3.0706 0
M  V30 936 N 90.1641 1.46063 -0.591896 0
M  V30 937 C 91.5801 1.57561 -0.254288 0
M  V30 938 C 91.7801 1.58565 1.24336 0
M  V30 939 O 90.8361 1.50753 2.02558 0
M  V30 940 C 92.1491 2.86549 -0.911611 0
M  V30 941 C 93.6971 3.00197 -0.886059 0
M  V30 942 C 94.1721 4.31933 -1.5231 0
M  V30 943 N 95.6631 4.38654 -1.48786 0
M  V30 944 C 96.3981 5.39222 -1.95006 0
M  V30 945 N 95.8941 6.46414 -2.49241 0
M  V30 946 N 97.6871 5.3048 -1.85868 0
M  V30 947 H 89.8381 1.43655 -1.56451 0
M  V30 948 H 92.1011 0.68583 -0.654478 0
M  V30 949 H 91.8071 2.91651 -1.96551 0
M  V30 950 H 91.6811 3.74794 -0.425368 0
M  V30 951 H 94.0681 2.9467 0.159246 0
M  V30 952 H 94.1491 2.13403 -1.41041 0
M  V30 953 H 93.7931 4.38217 -2.56765 0
M  V30 954 H 93.7231 5.17516 -0.973891 0
M  V30 955 H 96.2141 3.61793 -1.09151 0
M  V30 956 H 96.5271 7.19376 -2.82344 0
M  V30 957 H 94.8721 6.47208 -2.53272 0
M  V30 958 H 98.0631 4.45643 -1.43248 0
M  V30 959 H 98.2361 6.08711 -2.22204 0
M  V30 960 N 91.6422 0.330177 1.54103 0
M  V30 961 C 92.8672 -0.274893 2.0557 0
M  V30 962 C 93.2922 -1.44487 1.20437 0
M  V30 963 O 92.6502 -1.80021 0.214991 0
M  V30 964 C 92.6982 -0.68079 3.54115 0
M  V30 965 O 91.8022 -1.7824 3.71893 0
M  V30 966 H 91.1432 -0.0483849 0.662235 0
M  V30 967 H 93.6732 0.480508 1.98878 0
M  V30 968 H 93.6832 -0.961635 3.96505 0
M  V30 969 H 92.3582 0.174903 4.15532 0
M  V30 970 H 90.9352 -1.49985 3.41407 0
M  V30 971 N 93.1203 -1.57491 0.0584922 0
M  V30 972 C 94.0303 -2.15448 -0.928414 0
M  V30 973 C 95.0463 -1.11416 -1.3365 0
M  V30 974 O 96.2223 -1.4362 -1.41193 0
M  V30 975 C 93.2873 -2.69393 -2.18239 0
M  V30 976 C 92.3483 -3.88249 -1.83196 0
M  V30 977 C 91.5813 -4.39613 -3.02616 0
M  V30 978 O 91.8043 -3.90023 -4.16219 0
M  V30 979 O 90.7383 -5.31111 -2.83204 0
M  V30 980 H 94.5643 -3.00112 -0.465483 0
M  V30 981 H 92.1493 -1.48499 -0.163826 0
M  V30 982 H 94.0313 -3.04026 -2.91798 0
M  V30 983 H 92.7063 -1.87796 -2.63656 0
M  V30 984 H 91.6133 -3.58492 -1.06931 0
M  V30 985 H 92.9463 -4.71098 -1.42573 0
M  V30 986 N 94.5984 0.214957 -1.56127 0
M  V30 987 C 95.5084 1.28727 -1.96129 0
M  V30 988 C 96.5244 1.50916 -0.866044 0
M  V30 989 O 97.7004 1.63918 -1.17016 0
M  V30 990 C 94.7654 2.61569 -2.27558 0
M  V30 991 C 93.8264 2.47625 -3.50685 0
M  V30 992 C 93.0594 3.74132 -3.80606 0
M  V30 993 O 93.2824 4.77438 -3.12104 0
M  V30 994 O 92.2164 3.70849 -4.74083 0
M  V30 995 H 96.0424 0.977855 -2.87527 0
M  V30 996 H 93.6274 0.418358 -1.43423 0
M  V30 997 H 95.5094 3.40012 -2.48938 0
M  V30 998 H 94.1844 2.92178 -1.39332 0
M  V30 999 H 93.0914 1.67361 -3.34576 0
M  V30 1000 H 94.4244 2.21954 -4.39315 0
M  V30 1001 N 96.0765 1.50051 0.48192 0
M  V30 1002 C 97.0065 1.71046 1.58951 0
M  V30 1003 C 97.9875 0.559288 1.60642 0
M  V30 1004 O 99.1725 0.797243 1.77081 0
M  V30 1005 C 96.3025 1.79462 2.97339 0
M  V30 1006 C 95.2565 2.94558 3.10515 0
M  V30 1007 C 94.5825 2.88105 4.50444 0
M  V30 1008 C 95.8825 4.35227 2.88747 0
M  V30 1009 H 97.5765 2.6378 1.41635 0
M  V30 1010 H 95.1225 1.26936 0.679942 0
M  V30 1011 H 97.0755 1.92734 3.74742 0
M  V30 1012 H 95.7995 0.833412 3.15788 0
M  V30 1013 H 94.4585 2.80918 2.35543 0
M  V30 1014 H 94.1065 1.89853 4.65795 0
M  V30 1015 H 93.8065 3.65366 4.60197 0
M  V30 1016 H 95.3305 3.03412 5.29881 0
M  V30 1017 H 96.7445 4.49449 3.55905 0
M  V30 1018 H 95.1415 5.13856 3.09955 0
M  V30 1019 H 96.2115 4.48347 1.84696 0
M  V30 1020 N 97.5546 -0.734337 1.39446 0
M  V30 1021 C 98.8036 -1.48937 1.36017 0
M  V30 1022 C 99.1166 -1.95557 -0.0409005 0
M  V30 1023 O 100.323 -2.70779 -0.19778 0
M  V30 1024 C 98.7786 -2.69125 2.38955 0
M  V30 1025 C 98.3866 -2.29452 3.8478 0
M  V30 1026 C 100.131 -3.46944 2.44603 0
M  V30 1027 C 98.0376 -3.46366 4.79358 0
M  V30 1028 H 96.9676 -0.559296 0.505672 0
M  V30 1029 H 99.6186 -0.800983 1.65095 0
M  V30 1030 H 98.0006 -3.40041 2.02948 0
M  V30 1031 H 99.1746 -1.66077 4.29831 0
M  V30 1032 H 97.4896 -1.64723 3.82433 0
M  V30 1033 H 100.087 -4.33907 3.12456 0
M  V30 1034 H 100.43 -3.89454 1.47076 0
M  V30 1035 H 100.963 -2.83056 2.79507 0
M  V30 1036 H 97.7016 -3.08905 5.78151 0
M  V30 1037 H 97.2216 -4.08719 4.38986 0
M  V30 1038 H 98.9006 -4.12691 4.98292 0
M  V30 1039 N 99.0327 -1.24633 -0.964593 0
M  V30 1040 C 100.281 -1.08573 -1.70459 0
M  V30 1041 C 100.602 0.375655 -1.91347 0
M  V30 1042 O 99.8717 1.26779 -1.49345 0
M  V30 1043 H 98.4517 -0.398784 -0.631649 0
M  V30 1044 H 101.114 -1.56601 -1.16026 0
M  V30 1045 H 100.21 -1.58623 -2.68785 0
M  V30 1046 N 100.511 1.16574 -1.06058 0
M  V30 1047 C 101.421 2.2452 -0.680282 0
M  V30 1048 C 102.437 1.71348 0.302604 0
M  V30 1049 O 103.613 2.00822 0.152513 0
M  V30 1050 C 100.678 3.46629 -0.0700315 0
M  V30 1051 C 99.7388 4.14849 -1.10448 0
M  V30 1052 C 98.9718 5.31129 -0.523256 0
M  V30 1053 O 99.1948 5.66514 0.664709 0
M  V30 1054 O 98.1288 5.88526 -1.26179 0
M  V30 1055 H 101.955 2.59355 -1.58015 0
M  V30 1056 H 99.5398 1.24043 -0.832694 0
M  V30 1057 H 101.422 4.20543 0.268667 0
M  V30 1058 H 100.097 3.13573 0.803353 0
M  V30 1059 H 99.0038 3.42916 -1.49532 0
M  V30 1060 H 100.337 4.51954 -1.94931 0
M  V30 1061 N 101.989 0.842826 1.3317 0
M  V30 1062 C 103.235 0.441099 1.97945 0
M  V30 1063 C 103.568 -0.998024 1.66593 0
M  V30 1064 O 102.843 -1.69839 0.947898 0
M  V30 1065 C 103.126 0.666841 3.53872 0
M  V30 1066 C 102.979 2.15352 3.94897 0
M  V30 1067 C 104.298 0.115544 4.39948 0
M  V30 1068 H 101.417 0.161739 0.719034 0
M  V30 1069 H 104.059 1.05907 1.57746 0
M  V30 1070 H 102.209 0.140828 3.88245 0
M  V30 1071 H 103.881 2.7447 3.70761 0
M  V30 1072 H 102.124 2.63653 3.44484 0
M  V30 1073 H 102.795 2.26221 5.03516 0
M  V30 1074 H 105.271 0.565213 4.12243 0
M  V30 1075 H 104.147 0.303152 5.48062 0
M  V30 1076 H 104.408 -0.980935 4.3108 0
M  V30 1077 N 103.467 -1.45747 0.599634 0
M  V30 1078 C 104.397 -2.33235 -0.111306 0
M  V30 1079 C 105.378 -1.46359 -0.866781 0
M  V30 1080 O 106.563 -1.75146 -0.838904 0
M  V30 1081 C 103.693 -3.28932 -1.11451 0
M  V30 1082 C 102.647 -4.25381 -0.472772 0
M  V30 1083 C 101.973 -5.1071 -1.58365 0
M  V30 1084 C 103.273 -5.18831 0.600948 0
M  V30 1085 H 104.967 -2.92927 0.61919 0
M  V30 1086 H 102.513 -1.40857 0.299215 0
M  V30 1087 H 104.466 -3.89002 -1.62036 0
M  V30 1088 H 103.19 -2.67381 -1.8755 0
M  V30 1089 H 101.849 -3.66598 0.0121472 0
M  V30 1090 H 101.497 -4.45533 -2.33473 0
M  V30 1091 H 101.197 -5.7604 -1.15982 0
M  V30 1092 H 102.721 -5.73647 -2.09194 0
M  V30 1093 H 104.135 -5.73019 0.179491 0
M  V30 1094 H 102.532 -5.92595 0.946076 0
M  V30 1095 H 103.602 -4.6174 1.48068 0
M  V30 1096 N 104.945 -0.338344 -1.53925 0
M  V30 1097 C 106.361 0.0137736 -1.59594 0
M  V30 1098 C 106.561 1.49186 -1.35447 0
M  V30 1099 O 105.617 2.24987 -1.14616 0
M  V30 1100 C 106.93 -0.41773 -2.97784 0
M  V30 1101 C 108.478 -0.369633 -3.1081 0
M  V30 1102 C 108.953 -0.776524 -4.51369 0
M  V30 1103 N 110.444 -0.730506 -4.57403 0
M  V30 1104 C 111.179 -1.01736 -5.64303 0
M  V30 1105 N 110.675 -1.3721 -6.79077 0
M  V30 1106 N 112.468 -0.941942 -5.54151 0
M  V30 1107 H 104.619 -1.3012 -1.67876 0
M  V30 1108 H 106.882 -0.530082 -0.78595 0
M  V30 1109 H 106.588 -1.44811 -3.20504 0
M  V30 1110 H 106.462 0.209729 -3.76616 0
M  V30 1111 H 108.849 0.651568 -2.87817 0
M  V30 1112 H 108.93 -1.03223 -2.34049 0
M  V30 1113 H 108.574 -1.79571 -4.75096 0
M  V30 1114 H 108.504 -0.0914649 -5.26521 0
M  V30 1115 H 110.995 -0.468783 -3.74981 0
M  V30 1116 H 111.308 -1.57597 -7.5656 0
M  V30 1117 H 109.653 -1.4105 -6.80536 0
M  V30 1118 H 112.844 -0.664184 -4.63364 0
M  V30 1119 H 113.017 -1.16884 -6.37371 0
M  V30 1120 N 106.423 1.57458 -0.0668435 0
M  V30 1121 C 107.333 2.15937 0.916975 0
M  V30 1122 C 108.349 1.12123 1.33058 0
M  V30 1123 O 109.525 1.44366 1.40429 0
M  V30 1124 C 106.59 2.70547 2.16807 0
M  V30 1125 C 105.651 3.89215 1.81135 0
M  V30 1126 C 104.884 4.41211 3.0028 0
M  V30 1127 O 105.107 3.92225 4.14144 0
M  V30 1128 O 104.041 5.32605 2.80384 0
M  V30 1129 H 107.867 3.00354 0.449561 0
M  V30 1130 H 105.452 1.48584 0.155949 0
M  V30 1131 H 107.334 3.0557 2.90181 0
M  V30 1132 H 106.009 1.89192 2.62656 0
M  V30 1133 H 104.916 3.59054 1.05028 0
M  V30 1134 H 106.249 4.71848 1.40073 0
M  V30 1135 N 107.901 -0.206675 1.56239 0
M  V30 1136 C 109.148 -0.928842 1.79941 0
M  V30 1137 C 109.476 -1.83734 0.638131 0
M  V30 1138 O 108.731 -1.92039 -0.376746 0
M  V30 1139 C 109.03 -1.78675 3.09532 0
M  V30 1140 C 108.696 -1.03022 4.38973 0
M  V30 1141 C 107.358 -0.821302 4.74139 0
M  V30 1142 C 109.71 -0.497081 5.18824 0
M  V30 1143 C 107.038 -0.0675719 5.86661 0
M  V30 1144 C 109.39 0.24338 6.32132 0
M  V30 1145 C 108.054 0.463422 6.65889 0
M  V30 1146 H 107.324 -0.339887 0.658451 0
M  V30 1147 H 109.971 -0.195977 1.90495 0
M  V30 1148 H 108.276 -2.58794 2.94165 0
M  V30 1149 H 109.973 -2.34792 3.25075 0
M  V30 1150 H 106.563 -1.20306 4.11369 0
M  V30 1151 H 110.747 -0.645921 4.92079 0
M  V30 1152 H 106.003 0.112995 6.11296 0
M  V30 1153 H 110.177 0.66393 6.93228 0
M  V30 1154 H 107.804 1.04938 7.52922 0
M  V30 1155 N 109.379 -1.50304 -0.473955 0
M  V30 1156 C 110.327 -1.69482 -1.59307 0
M  V30 1157 C 111.321 -0.560669 -1.59853 0
M  V30 1158 O 112.527 -0.741087 -1.64036 0
M  V30 1159 H 108.902 -0.534892 -0.528578 0
M  V30 1160 H 110.873 -2.63364 -1.40293 0
M  V30 1161 C 109.622 -1.80354 -2.97267 0
M  V30 1162 H 108.945 -2.67012 -2.97564 0
M  V30 1163 H 110.385 -1.97798 -3.75036 0
M  V30 1164 C 108.844 -0.55448 -3.32306 0
M  V30 1165 O 109.374 0.307661 -4.0052 0
M  V30 1166 N 107.58 -0.409354 -2.87702 0
M  V30 1167 H 107.127 -1.11196 -2.32364 0
M  V30 1168 H 107.085 0.425223 -3.11511 0
M  V30 1169 N 110.857 0.726932 -1.39834 0
M  V30 1170 C 112.273 1.03354 -1.21615 0
M  V30 1171 C 112.473 2.01327 -0.08338 0
M  V30 1172 O 111.529 2.46158 0.56238 0
M  V30 1173 C 112.842 1.58811 -2.55342 0
M  V30 1174 C 114.39 1.70851 -2.62257 0
M  V30 1175 C 114.865 2.29716 -3.96225 0
M  V30 1176 N 116.356 2.37116 -3.97907 0
M  V30 1177 C 117.091 2.83619 -4.98345 0
M  V30 1178 N 116.587 3.29958 -6.09179 0
M  V30 1179 N 118.38 2.82901 -4.8572 0
M  V30 1180 H 110.531 0.0773069 -2.12259 0
M  V30 1181 H 112.794 0.0969102 -0.943034 0
M  V30 1182 H 112.5 0.942855 -3.38826 0
M  V30 1183 H 112.374 2.57502 -2.75632 0
M  V30 1184 H 114.761 2.34497 -1.79152 0
M  V30 1185 H 114.842 0.707913 -2.45809 0
M  V30 1186 H 114.486 1.66696 -4.79765 0
M  V30 1187 H 114.416 3.30469 -4.09997 0
M  V30 1188 H 116.907 2.04374 -3.17868 0
M  V30 1189 H 117.22 3.63976 -6.8172 0
M  V30 1190 H 115.565 3.27946 -6.12761 0
M  V30 1191 H 118.756 2.46027 -3.98231 0
M  V30 1192 H 118.929 3.18827 -5.6414 0
M  V30 1193 N 112.336 1.25143 0.95797 0
M  V30 1194 C 113.246 1.06968 2.08794 0
M  V30 1195 C 114.262 0.00773911 1.73998 0
M  V30 1196 O 115.438 0.207972 2.00323 0
M  V30 1197 C 112.503 0.68691 3.39827 0
M  V30 1198 C 111.564 1.82641 3.88511 0
M  V30 1199 C 110.797 1.46181 5.1329 0
M  V30 1200 O 111.02 0.355971 5.69288 0
M  V30 1201 O 109.954 2.29085 5.566 0
M  V30 1202 H 113.78 2.01723 2.27027 0
M  V30 1203 H 111.365 1.04051 1.07209 0
M  V30 1204 H 113.247 0.485417 4.18595 0
M  V30 1205 H 111.922 -0.231417 3.22872 0
M  V30 1206 H 110.829 2.08274 3.10762 0
M  V30 1207 H 112.162 2.72386 4.09959 0
M  V30 1208 N 113.814 -1.1601 1.06675 0
M  V30 1209 C 115.091 -1.82679 0.699114 0
M  V30 1210 C 115.471 -1.94559 -0.819137 0
M  V30 1211 O 114.819 -1.49169 -1.73092 0
M  V30 1212 C 115.029 -3.19445 1.40555 0
M  V30 1213 C 116.377 -3.95171 1.55323 0
M  V30 1214 O 117.401 -3.28976 1.36577 0
M  V30 1215 O 116.26 -5.13833 1.86112 0
M  V30 1216 H 113.354 -0.788954 0.247951 0
M  V30 1217 H 115.9 -1.23179 1.16726 0
M  V30 1218 H 114.672 -3.05856 2.44065 0
M  V30 1219 H 114.295 -3.86625 0.927733 0
M  V30 1220 N 115.292 -0.849877 -1.32721 0
M  V30 1221 C 116.538 -0.451591 -1.97708 0
M  V30 1222 C 116.871 0.989175 -1.6712 0
M  V30 1223 O 116.146 1.69334 -0.956891 0
M  V30 1224 C 116.429 -0.685598 -3.53513 0
M  V30 1225 C 116.282 -2.17444 -3.93749 0
M  V30 1226 C 117.601 -0.138874 -4.39881 0
M  V30 1227 H 114.72 -0.16555 -0.718166 0
M  V30 1228 H 117.362 -1.06742 -1.57182 0
M  V30 1229 H 115.512 -0.161416 -3.88165 0
M  V30 1230 H 117.184 -2.76433 -3.693 0
M  V30 1231 H 115.427 -2.65476 -3.43081 0
M  V30 1232 H 116.098 -2.28888 -5.02309 0
M  V30 1233 H 118.574 -0.587068 -4.11938 0
M  V30 1234 H 117.45 -0.332213 -5.47894 0
M  V30 1235 H 117.711 0.95806 -4.31594 0
M  V30 1236 N 116.77 1.45427 -0.607355 0
M  V30 1237 C 118.016 2.0254 -0.102607 0
M  V30 1238 C 118.349 1.47478 1.26348 0
M  V30 1239 O 117.624 0.64939 1.83339 0
M  V30 1240 C 117.907 3.60044 -0.0634347 0
M  V30 1241 C 117.76 4.2544 -1.46017 0
M  V30 1242 C 119.079 4.35646 0.624514 0
M  V30 1243 H 116.198 0.73598 -0.0387607 0
M  V30 1244 H 118.84 1.73284 -0.779282 0
M  V30 1245 H 116.99 3.85101 0.512808 0
M  V30 1246 H 118.662 4.11569 -2.08347 0
M  V30 1247 H 116.905 3.83849 -2.02094 0
M  V30 1248 H 117.576 5.34342 -1.385 0
M  V30 1249 H 120.052 4.15882 0.134723 0
M  V30 1250 H 118.928 5.45376 0.621028 0
M  V30 1251 H 119.189 4.08501 1.69055 0
M  V30 1252 N 118.248 0.346503 1.53744 0
M  V30 1253 C 119.497 -0.250122 2.00143 0
M  V30 1254 C 119.81 -1.51418 1.23822 0
M  V30 1255 O 121.016 -2.18823 1.60713 0
M  V30 1256 C 119.472 -0.496252 3.56462 0
M  V30 1257 C 119.08 0.752077 4.41642 0
M  V30 1258 C 120.824 -1.05157 4.11269 0
M  V30 1259 C 118.731 0.476583 5.89477 0
M  V30 1260 H 117.661 -0.0972409 0.747703 0
M  V30 1261 H 120.312 0.46229 1.77581 0
M  V30 1262 H 118.694 -1.26944 3.75102 0
M  V30 1263 H 119.868 1.5266 4.34778 0
M  V30 1264 H 118.183 1.22925 3.97842 0
M  V30 1265 H 120.78 -1.27269 5.19333 0
M  V30 1266 H 121.123 -2.00799 3.64672 0
M  V30 1267 H 121.656 -0.339019 3.96353 0
M  V30 1268 H 118.395 1.4028 6.40314 0
M  V30 1269 H 117.915 -0.259794 5.99237 0
M  V30 1270 H 119.594 0.0949315 6.4693 0
M  V30 1271 N 119.726 -1.57421 0.075193 0
M  V30 1272 C 120.689 -2.11791 -0.876203 0
M  V30 1273 C 121.689 -1.04268 -1.22412 0
M  V30 1274 O 122.879 -1.30242 -1.15684 0
M  V30 1275 C 120.011 -2.62207 -2.17854 0
M  V30 1276 H 121.204 -2.9716 -0.40444 0
M  V30 1277 H 118.757 -1.55333 -0.173557 0
M  V30 1278 H 119.492 -1.803 -2.6956 0
M  V30 1279 H 119.277 -3.40802 -1.93897 0
M  V30 1280 H 120.767 -3.04335 -2.85955 0
M  V30 1281 N 121.204 0.198386 -1.56346 0
M  V30 1282 C 122.432 0.935572 -1.84539 0
M  V30 1283 C 122.847 1.76989 -0.657281 0
M  V30 1284 O 122.204 1.78626 0.374043 0
M  V30 1285 C 122.255 1.8344 -3.11499 0
M  V30 1286 O 121.976 1.03377 -4.25728 0
M  V30 1287 C 123.477 2.68355 -3.52846 0
M  V30 1288 H 120.697 0.273126 -0.612897 0
M  V30 1289 H 123.241 0.20663 -2.03453 0
M  V30 1290 H 121.396 2.51701 -2.94492 0
M  V30 1291 H 121.81 1.64599 -4.98003 0
M  V30 1292 H 123.284 3.27085 -4.44657 0
M  V30 1293 H 123.761 3.41901 -2.75681 0
M  V30 1294 H 124.367 2.05471 -3.72373 0
M  V30 1295 N 122.682 1.50554 0.465978 0
M  V30 1296 C 123.629 1.6979 1.56333 0
M  V30 1297 C 124.599 0.539239 1.57103 0
M  V30 1298 O 125.784 0.770401 1.74555 0
M  V30 1299 C 122.924 1.80273 2.94271 0
M  V30 1300 C 122.037 3.07674 3.0325 0
M  V30 1301 C 121.172 3.08922 4.32135 0
M  V30 1302 C 120.211 4.30755 4.34875 0
M  V30 1303 N 119.348 4.29714 5.55239 0
M  V30 1304 H 124.188 2.63472 1.39235 0
M  V30 1305 H 121.725 1.30602 0.676873 0
M  V30 1306 H 123.683 1.84332 3.74269 0
M  V30 1307 H 122.313 0.900258 3.09992 0
M  V30 1308 H 121.365 3.13062 2.16094 0
M  V30 1309 H 122.677 3.97642 3.01135 0
M  V30 1310 H 121.831 3.11738 5.20485 0
M  V30 1311 H 120.57 2.16792 4.36866 0
M  V30 1312 H 119.575 4.28146 3.44922 0
M  V30 1313 H 120.8 5.24117 4.31831 0
M  V30 1314 H 118.746 3.4044 5.60746 0
M  V30 1315 H 118.663 5.13456 5.54886 0
M  V30 1316 H 119.931 4.36683 6.457 0
M  V30 1317 N 124.16 -0.719506 1.40217 0
M  V30 1318 C 125.123 -1.8153 1.39927 0
M  V30 1319 C 126.123 -1.58095 0.293723 0
M  V30 1320 O 127.313 -1.65209 0.552429 0
M  V30 1321 C 124.445 -3.19561 1.18716 0
M  V30 1322 H 125.638 -1.83186 2.37451 0
M  V30 1323 H 123.191 -0.924746 1.26008 0
M  V30 1324 H 123.926 -3.23557 0.219366 0
M  V30 1325 H 123.711 -3.3797 1.98793 0
M  V30 1326 H 125.201 -3.99598 1.21291 0
M  V30 1327 N 125.638 -1.25649 -0.95132 0
M  V30 1328 C 126.601 -1.06399 -2.03007 0
M  V30 1329 C 127.601 -0.0156794 -1.60792 0
M  V30 1330 O 128.791 -0.25817 -1.72276 0
M  V30 1331 C 125.923 -0.616184 -3.35285 0
M  V30 1332 H 127.116 -2.02164 -2.21517 0
M  V30 1333 H 124.669 -1.08103 -1.12887 0
M  V30 1334 H 125.404 0.343917 -3.22471 0
M  V30 1335 H 125.189 -1.37301 -3.67275 0
M  V30 1336 H 126.679 -0.503032 -4.14559 0
M  V30 1337 N 127.117 1.15442 -1.07289 0
M  V30 1338 C 128.067 2.18164 -0.662467 0
M  V30 1339 C 129.051 1.57845 0.312074 0
M  V30 1340 O 130.243 1.76552 0.125905 0
M  V30 1341 C 127.372 3.43246 -0.0611295 0
M  V30 1342 C 126.458 4.1062 -1.06077 0
M  V30 1343 N 126.849 4.53491 -2.24008 0
M  V30 1344 C 125.147 4.36949 -0.893964 0
M  V30 1345 C 125.848 5.05731 -2.87422 0
M  V30 1346 N 124.824 4.99236 -2.15091 0
M  V30 1347 H 128.626 2.49038 -1.56068 0
M  V30 1348 H 126.14 1.32003 -0.945988 0
M  V30 1349 H 128.137 4.16145 0.250792 0
M  V30 1350 H 126.797 3.13854 0.832207 0
M  V30 1351 H 127.808 4.46898 -2.6173 0
M  V30 1352 H 124.485 4.17466 -0.0534693 0
M  V30 1353 H 125.875 5.48865 -3.87553 0
M  V30 1354 N 128.595 0.856903 1.32268 0
M  V30 1355 C 130.011 0.547061 1.49931 0
M  V30 1356 C 130.211 -0.921781 1.7918 0
M  V30 1357 O 129.267 -1.70469 1.8627 0
M  V30 1358 C 130.58 1.43599 2.64196 0
M  V30 1359 C 132.128 1.43665 2.78081 0
M  V30 1360 C 132.603 2.31085 3.95428 0
M  V30 1361 N 134.094 2.28893 4.02694 0
M  V30 1362 C 134.829 2.93262 4.92732 0
M  V30 1363 N 134.325 3.66751 5.87763 0
M  V30 1364 N 136.118 2.82638 4.85873 0
M  V30 1365 H 128.269 1.8075 1.11549 0
M  V30 1366 H 130.532 0.772144 0.549997 0
M  V30 1367 H 130.238 2.48058 2.49319 0
M  V30 1368 H 130.112 1.12502 3.60032 0
M  V30 1369 H 132.499 0.399701 2.92381 0
M  V30 1370 H 132.58 1.7878 1.82952 0
M  V30 1371 H 132.224 3.34849 3.81888 0
M  V30 1372 H 132.154 1.93302 4.89839 0
M  V30 1373 H 134.645 1.75466 3.34694 0
M  V30 1374 H 134.958 4.13027 6.53168 0
M  V30 1375 H 133.303 3.70859 5.87783 0
M  V30 1376 H 136.494 2.24774 4.10602 0
M  V30 1377 H 136.667 3.33084 5.55841 0
M  V30 1378 N 130.073 -1.45103 0.615059 0
M  V30 1379 C 131.02 -2.30586 -0.0993978 0
M  V30 1380 C 131.99 -1.42544 -0.852669 0
M  V30 1381 O 133.175 -1.71465 -0.836917 0
M  V30 1382 C 130.315 -3.27572 -1.08583 0
M  V30 1383 C 129.428 -4.30717 -0.332656 0
M  V30 1384 C 128.563 -5.14807 -1.30947 0
M  V30 1385 C 127.602 -6.09673 -0.544538 0
M  V30 1386 N 126.739 -6.86517 -1.47101 0
M  V30 1387 H 131.579 -2.91144 0.635542 0
M  V30 1388 H 129.116 -1.4346 0.325206 0
M  V30 1389 H 131.074 -3.82276 -1.67095 0
M  V30 1390 H 129.704 -2.68751 -1.78809 0
M  V30 1391 H 128.756 -3.78615 0.368107 0
M  V30 1392 H 130.068 -4.98102 0.263842 0
M  V30 1393 H 129.222 -5.73948 -1.96643 0
M  V30 1394 H 127.961 -4.47458 -1.9399 0
M  V30 1395 H 126.966 -5.49656 0.126003 0
M  V30 1396 H 128.191 -6.79052 0.080947 0
M  V30 1397 H 126.137 -6.21851 -2.08895 0
M  V30 1398 H 126.054 -7.50281 -0.928137 0
M  V30 1399 H 127.322 -7.50194 -2.11731 0
M  V30 1400 N 131.551 -0.354651 -1.53558 0
M  V30 1401 C 132.483 0.5315 -2.22952 0
M  V30 1402 C 133.496 1.05503 -1.23988 0
M  V30 1403 O 134.685 0.963279 -1.50277 0
M  V30 1404 C 131.785 1.74538 -2.90499 0
M  V30 1405 C 130.958 1.35524 -4.15875 0
M  V30 1406 C 130.017 2.42999 -4.66731 0
M  V30 1407 O 129.043 2.05844 -5.30676 0
M  V30 1408 N 130.245 3.74423 -4.43608 0
M  V30 1409 H 133.01 -0.0628615 -2.99634 0
M  V30 1410 H 130.571 -0.179302 -1.60904 0
M  V30 1411 H 132.563 2.45892 -3.21433 0
M  V30 1412 H 131.133 2.24686 -2.17336 0
M  V30 1413 H 130.353 0.471998 -3.91364 0
M  V30 1414 H 131.641 1.07071 -4.97406 0
M  V30 1415 H 131.039 4.07391 -3.92491 0
M  V30 1416 H 129.596 4.41913 -4.7912 0
M  V30 1417 N 133.029 1.57378 -0.0835403 0
M  V30 1418 C 134.277 1.93547 0.581718 0
M  V30 1419 C 134.598 0.96524 1.69435 0
M  V30 1420 O 133.868 0.0153369 1.95894 0
M  V30 1421 H 132.448 0.714521 0.217874 0
M  V30 1422 H 135.11 1.94366 -0.144158 0
M  V30 1423 H 134.206 2.95665 0.999423 0
M  V30 1424 N 134.507 -0.190092 1.56449 0
M  V30 1425 C 135.455 -1.25501 1.95837 0
M  V30 1426 C 136.449 -1.4685 0.844485 0
M  V30 1427 O 137.655 -1.47651 1.02952 0
M  V30 1428 H 134.03 -0.421447 0.622805 0
M  V30 1429 H 136.001 -0.895821 2.84636 0
M  V30 1430 C 134.75 -2.59124 2.31841 0
M  V30 1431 H 134.073 -2.43514 3.17082 0
M  V30 1432 H 135.513 -3.32371 2.6326 0
M  V30 1433 C 133.972 -3.16488 1.15486 0
M  V30 1434 O 134.502 -3.99365 0.432535 0
M  V30 1435 N 132.708 -2.75305 0.930349 0
M  V30 1436 H 132.255 -2.08013 1.51948 0
M  V30 1437 H 132.213 -3.14024 0.153634 0
M  V30 1438 N 135.985 -1.50799 -0.457987 0
M  V30 1439 C 137.262 -1.52968 -1.21902 0
M  V30 1440 C 137.642 -0.281906 -2.09209 0
M  V30 1441 O 136.99 0.734076 -2.16388 0
M  V30 1442 C 137.2 -2.8326 -2.03875 0
M  V30 1443 C 138.548 -3.34425 -2.6162 0
M  V30 1444 O 139.572 -2.8467 -2.14106 0
M  V30 1445 O 138.431 -4.21188 -3.48228 0
M  V30 1446 H 135.525 -0.614129 -0.553873 0
M  V30 1447 H 138.071 -1.63098 -0.468739 0
M  V30 1448 H 136.843 -3.65543 -1.39621 0
M  V30 1449 H 136.466 -2.76195 -2.8601 0
M  V30 1450 N 137.463 0.71206 -1.40597 0
M  V30 1451 C 138.71 1.47197 -1.39065 0
M  V30 1452 C 139.038 1.94499 0.00583891 0
M  V30 1453 O 138.293 1.68752 0.99102 0
M  V30 1454 C 138.592 2.71039 -2.32965 0
M  V30 1455 C 138.258 2.42484 -3.80148 0
M  V30 1456 C 136.92 2.34406 -4.20247 0
M  V30 1457 C 139.272 2.18598 -4.73143 0
M  V30 1458 C 136.6 2.00516 -5.51371 0
M  V30 1459 C 138.952 1.8622 -6.0457 0
M  V30 1460 C 137.616 1.76626 -6.43708 0
M  V30 1461 H 136.886 0.538634 -0.508876 0
M  V30 1462 H 139.533 0.815325 -1.73276 0
M  V30 1463 H 137.838 3.41558 -1.91951 0
M  V30 1464 H 139.535 3.29138 -2.29061 0
M  V30 1465 H 136.125 2.49659 -3.4838 0
M  V30 1466 H 140.309 2.23793 -4.42979 0
M  V30 1467 H 135.565 1.91628 -5.80593 0
M  V30 1468 H 139.739 1.66752 -6.76141 0
M  V30 1469 H 137.366 1.50133 -7.45228 0
M  V30 1470 N 138.941 1.26152 0.944643 0
M  V30 1471 C 140.187 1.11657 1.69294 0
M  V30 1472 C 140.52 -0.339926 1.91202 0
M  V30 1473 O 139.795 -1.24994 1.49019 0
M  V30 1474 C 140.078 1.88236 3.06984 0
M  V30 1475 C 139.931 3.41772 2.92424 0
M  V30 1476 C 141.25 1.67343 4.07043 0
M  V30 1477 H 138.369 0.407004 0.614424 0
M  V30 1478 H 141.011 1.55106 1.09737 0
M  V30 1479 H 139.161 1.51308 3.57824 0
M  V30 1480 H 140.833 3.88433 2.48832 0
M  V30 1481 H 139.076 3.68974 2.28124 0
M  V30 1482 H 139.747 3.90579 3.90067 0
M  V30 1483 H 142.223 1.99509 3.65151 0
M  V30 1484 H 141.099 2.23346 5.01406 0
M  V30 1485 H 141.36 0.617158 4.37771 0
M  V30 1486 N 140.419 -1.14872 1.07899 0
M  V30 1487 C 141.666 -1.85789 0.805532 0
M  V30 1488 C 141.994 -1.82649 -0.668561 0
M  V30 1489 O 141.249 -1.24858 -1.50695 0
M  V30 1490 C 141.548 -3.34223 1.26609 0
M  V30 1491 C 141.214 -3.57555 2.74709 0
M  V30 1492 C 139.876 -3.63631 3.1516 0
M  V30 1493 C 142.228 -3.66803 3.70277 0
M  V30 1494 C 139.556 -3.76473 4.49983 0
M  V30 1495 C 141.908 -3.8117 5.04869 0
M  V30 1496 C 140.572 -3.85494 5.44932 0
M  V30 1497 H 139.842 -0.679849 0.294765 0
M  V30 1498 H 142.489 -1.3572 1.35101 0
M  V30 1499 H 140.794 -3.86536 0.640103 0
M  V30 1500 H 142.491 -3.87511 1.03132 0
M  V30 1501 H 139.081 -3.5347 2.42398 0
M  V30 1502 H 143.265 -3.61404 3.40149 0
M  V30 1503 H 138.521 -3.7808 4.80484 0
M  V30 1504 H 142.695 -3.87268 5.78789 0
M  V30 1505 H 140.322 -3.95197 6.49403 0
M  V30 1506 N 141.898 -0.863906 -1.31812 0
M  V30 1507 C 143.175 -0.39275 -1.91616 0
M  V30 1508 C 143.555 1.12461 -1.7865 0
M  V30 1509 O 142.903 1.95045 -1.19037 0
M  V30 1510 C 143.113 -0.867385 -3.38049 0
M  V30 1511 C 144.461 -0.889966 -4.15168 0
M  V30 1512 O 145.485 -0.812635 -3.46806 0
M  V30 1513 O 144.344 -1.00079 -5.37258 0
M  V30 1514 H 141.438 -0.116358 -0.818773 0
M  V30 1515 H 143.984 -0.951418 -1.40521 0
M  V30 1516 H 142.756 -1.91081 -3.41473 0
M  V30 1517 H 142.379 -0.286687 -3.96565 0
M  V30 1518 N 143.376 1.44774 -0.622745 0
M  V30 1519 C 144.324 2.32387 0.0994683 0
M  V30 1520 C 145.318 1.46859 0.844326 0
M  V30 1521 O 146.524 1.63254 0.758174 0
M  V30 1522 H 142.899 0.750273 0.0509291 0
M  V30 1523 H 144.87 2.91062 -0.65767 0
M  V30 1524 C 143.619 3.30723 1.07319 0
M  V30 1525 H 142.942 3.96541 0.509462 0
M  V30 1526 H 144.382 3.94725 1.54817 0
M  V30 1527 C 142.841 2.59021 2.15429 0
M  V30 1528 O 143.371 2.38286 3.23393 0
M  V30 1529 N 141.577 2.189 1.91131 0
M  V30 1530 H 141.124 2.35964 1.03337 0
M  V30 1531 H 141.082 1.71251 2.63668 0
M  V30 1532 N 144.854 0.36279 1.53368 0
M  V30 1533 C 146.079 -0.231226 2.06107 0
M  V30 1534 C 146.504 -1.419 1.23474 0
M  V30 1535 O 145.862 -1.79524 0.253128 0
M  V30 1536 C 145.91 -0.605523 3.5548 0
M  V30 1537 O 145.014 -1.70312 3.7559 0
M  V30 1538 H 144.355 -0.034327 0.663112 0
M  V30 1539 H 146.885 0.522584 1.97814 0
M  V30 1540 H 146.895 -0.877314 3.98456 0
M  V30 1541 H 145.57 0.263004 4.15068 0
M  V30 1542 H 144.147 -1.4271 3.44512 0
M  V30 1543 N 146.332 -1.57332 0.0918853 0
M  V30 1544 C 147.743 -1.81496 -0.437739 0
M  V30 1545 C 148.094 -1.00727 -1.6837 0
M  V30 1546 O 147.219 -0.235694 -2.15113 0
M  V30 1547 C 147.814 -3.29197 -0.800939 0
M  V30 1548 C 146.373 -3.54136 -1.27532 0
M  V30 1549 C 145.52 -2.75979 -0.270392 0
M  V30 1550 H 148.471 -1.55494 0.317366 0
M  V30 1551 H 148.492 -3.42344 -1.66074 0
M  V30 1552 H 148.004 -3.87955 0.106078 0
M  V30 1553 H 146.105 -3.00705 -2.20016 0
M  V30 1554 H 146.218 -4.62792 -1.23938 0
M  V30 1555 H 144.582 -2.43349 -0.751872 0
M  V30 1556 H 145.365 -3.37484 0.629248 0
M  V30 1557 N 147.81 0.181792 -1.56548 0
M  V30 1558 C 149.087 0.926765 -1.72251 0
M  V30 1559 C 149.467 2.00831 -0.650386 0
M  V30 1560 O 148.815 2.26008 0.336521 0
M  V30 1561 C 149.025 1.50106 -3.1507 0
M  V30 1562 C 150.373 1.97805 -3.75711 0
M  V30 1563 O 151.397 1.59922 -3.18282 0
M  V30 1564 O 150.256 2.67555 -4.76525 0
M  V30 1565 H 147.35 0.435506 -0.703039 0
M  V30 1566 H 149.896 0.170443 -1.68842 0
M  V30 1567 H 148.668 0.72212 -3.84579 0
M  V30 1568 H 148.291 2.32186 -3.22763 0
M  V30 1569 N 149.288 1.51039 0.449983 0
M  V30 1570 C 150.535 1.63081 1.20045 0
M  V30 1571 C 150.863 0.341024 1.91487 0
M  V30 1572 O 150.118 -0.674276 1.83717 0
M  V30 1573 C 150.417 2.77556 2.25161 0
M  V30 1574 C 150.083 4.17289 1.70823 0
M  V30 1575 C 148.745 4.55305 1.55725 0
M  V30 1576 C 151.097 5.04536 1.3074 0
M  V30 1577 C 148.425 5.78287 0.989999 0
M  V30 1578 C 150.777 6.28085 0.754482 0
M  V30 1579 C 149.441 6.64885 0.590308 0
M  V30 1580 H 148.711 0.596755 0.439277 0
M  V30 1581 H 151.358 1.85037 0.49333 0
M  V30 1582 H 149.663 2.49771 3.01863 0
M  V30 1583 H 151.36 2.84073 2.83026 0
M  V30 1584 H 147.95 3.8731 1.83546 0
M  V30 1585 H 152.134 4.75782 1.41229 0
M  V30 1586 H 147.39 6.05456 0.850451 0
M  V30 1587 H 151.564 6.95038 0.435324 0
M  V30 1588 H 149.191 7.60055 0.14862 0
M  V30 1589 N 150.766 -0.704594 1.40972 0
M  V30 1590 C 151.696 -1.83124 1.44872 0
M  V30 1591 C 152.677 -1.67281 0.30838 0
M  V30 1592 O 153.862 -1.87149 0.518556 0
M  V30 1593 C 150.992 -3.21181 1.32136 0
M  V30 1594 C 149.946 -3.51714 2.43888 0
M  V30 1595 C 149.272 -4.89032 2.16222 0
M  V30 1596 C 150.572 -3.516 3.86232 0
M  V30 1597 H 152.266 -1.80117 2.39161 0
M  V30 1598 H 149.812 -0.865145 1.15114 0
M  V30 1599 H 151.765 -3.99702 1.33479 0
M  V30 1600 H 150.489 -3.24791 0.343279 0
M  V30 1601 H 149.148 -2.75539 2.41813 0
M  V30 1602 H 148.796 -4.89256 1.16778 0
M  V30 1603 H 148.496 -5.10426 2.911 0
M  V30 1604 H 150.02 -5.69873 2.19265 0
M  V30 1605 H 151.434 -4.2014 3.9007 0
M  V30 1606 H 149.831 -3.84523 4.60719 0
M  V30 1607 H 150.901 -2.50757 4.15029 0
M  V30 1608 N 152.244 -1.26651 -0.937939 0
M  V30 1609 C 153.191 -1.0849 -2.03712 0
M  V30 1610 C 154.161 0.011033 -1.66096 0
M  V30 1611 O 155.346 -0.149353 -1.90215 0
M  V30 1612 C 152.486 -0.72735 -3.37348 0
M  V30 1613 C 151.599 -1.89986 -3.87981 0
M  V30 1614 C 150.734 -1.48513 -5.10017 0
M  V30 1615 C 149.773 -2.62575 -5.5292 0
M  V30 1616 N 148.91 -2.21762 -6.66158 0
M  V30 1617 H 153.75 -2.02551 -2.18579 0
M  V30 1618 H 151.287 -1.00844 -1.07093 0
M  V30 1619 H 153.245 -0.50092 -4.14182 0
M  V30 1620 H 151.875 0.176298 -3.22318 0
M  V30 1621 H 150.927 -2.23913 -3.07518 0
M  V30 1622 H 152.239 -2.75586 -4.15757 0
M  V30 1623 H 151.393 -1.21934 -5.94321 0
M  V30 1624 H 150.132 -0.60009 -4.83994 0
M  V30 1625 H 149.137 -2.8988 -4.67172 0
M  V30 1626 H 150.362 -3.51685 -5.80943 0
M  V30 1627 H 148.308 -1.35696 -6.41812 0
M  V30 1628 H 148.225 -3.00903 -6.93537 0
M  V30 1629 H 149.493 -1.98403 -7.53828 0
M  V30 1630 N 153.722 1.14298 -1.08507 0
M  V30 1631 C 154.669 2.19414 -0.715965 0
M  V30 1632 C 155.639 1.63399 0.298326 0
M  V30 1633 O 156.824 1.89929 0.182101 0
M  V30 1634 C 153.964 3.44845 -0.132534 0
M  V30 1635 C 153.077 4.15007 -1.19973 0
M  V30 1636 C 152.212 5.28024 -0.580048 0
M  V30 1637 C 151.251 5.9002 -1.62921 0
M  V30 1638 N 150.388 6.94485 -1.03125 0
M  V30 1639 H 155.228 2.50336 -1.61666 0
M  V30 1640 H 152.765 1.2293 -0.807882 0
M  V30 1641 H 154.723 4.16601 0.223454 0
M  V30 1642 H 153.353 3.14403 0.731467 0
M  V30 1643 H 152.405 3.41629 -1.67313 0
M  V30 1644 H 153.717 4.57178 -1.99473 0
M  V30 1645 H 152.871 6.06455 -0.172364 0
M  V30 1646 H 151.61 4.87076 0.246603 0
M  V30 1647 H 150.615 5.10291 -2.04654 0
M  V30 1648 H 151.84 6.33042 -2.45835 0
M  V30 1649 H 149.786 6.55612 -0.225711 0
M  V30 1650 H 149.703 7.35148 -1.76334 0
M  V30 1651 H 150.971 7.7679 -0.649458 0
M  V30 1652 N 155.201 0.870884 1.31352 0
M  V30 1653 C 156.426 0.495957 2.01383 0
M  V30 1654 C 156.851 -0.904324 1.64935 0
M  V30 1655 O 156.209 -1.59687 0.858466 0
M  V30 1656 C 156.257 0.661433 3.54482 0
M  V30 1657 O 155.361 -0.298851 4.11316 0
M  V30 1658 H 154.702 0.197158 0.634054 0
M  V30 1659 H 157.232 1.17455 1.67527 0
M  V30 1660 H 157.242 0.555072 4.04207 0
M  V30 1661 H 155.917 1.68246 3.8035 0
M  V30 1662 H 154.494 -0.147368 3.72609 0
M  V30 1663 N 156.679 -1.44442 0.630414 0
M  V30 1664 C 157.925 -2.02351 0.134816 0
M  V30 1665 C 158.258 -1.4947 -1.23986 0
M  V30 1666 O 157.533 -0.678475 -1.82283 0
M  V30 1667 C 157.816 -3.59898 0.120707 0
M  V30 1668 C 157.669 -4.23063 1.52767 0
M  V30 1669 C 158.988 -4.36585 -0.555127 0
M  V30 1670 H 156.107 -0.73527 0.0504646 0
M  V30 1671 H 158.749 -1.72022 0.806751 0
M  V30 1672 H 156.899 -3.85868 -0.451477 0
M  V30 1673 H 158.571 -4.08202 2.14869 0
M  V30 1674 H 156.814 -3.80586 2.08175 0
M  V30 1675 H 157.485 -5.32071 1.46984 0
M  V30 1676 H 159.961 -4.16044 -0.0685429 0
M  V30 1677 H 158.837 -5.46294 -0.534185 0
M  V30 1678 H 159.098 -4.11138 -1.62535 0
M  V30 1679 N 158.157 -0.370918 -1.53173 0
M  V30 1680 C 159.434 0.273754 -1.93675 0
M  V30 1681 C 159.814 1.65938 -1.3049 0
M  V30 1682 O 159.162 2.23698 -0.465999 0
M  V30 1683 C 159.372 0.318602 -3.47543 0
M  V30 1684 C 160.72 0.556392 -4.20939 0
M  V30 1685 O 161.744 0.399587 -3.53952 0
M  V30 1686 O 160.603 0.862133 -5.39657 0
M  V30 1687 H 157.697 0.165448 -0.810281 0
M  V30 1688 H 160.243 -0.42409 -1.64315 0
M  V30 1689 H 159.015 -0.652687 -3.85818 0
M  V30 1690 H 158.638 1.06212 -3.83151 0
M  V30 1691 N 159.635 1.57281 -0.100228 0
M  V30 1692 C 160.545 2.17833 0.870965 0
M  V30 1693 C 161.561 1.14921 1.30649 0
M  V30 1694 O 162.737 1.47313 1.37335 0
M  V30 1695 C 159.802 2.75085 2.1102 0
M  V30 1696 C 158.863 3.9297 1.72838 0
M  V30 1697 C 158.096 4.47482 2.90854 0
M  V30 1698 O 158.319 4.00922 4.05731 0
M  V30 1699 O 157.253 5.38433 2.69023 0
M  V30 1700 H 161.079 3.0124 0.38575 0
M  V30 1701 H 158.664 1.48881 0.124397 0
M  V30 1702 H 160.546 3.11656 2.83634 0
M  V30 1703 H 159.221 1.94721 2.58584 0
M  V30 1704 H 158.128 3.61201 0.973883 0
M  V30 1705 H 159.461 4.74713 1.30033 0
M  V30 1706 N 161.113 -0.173488 1.56642 0
M  V30 1707 C 162.338 -0.910149 1.86363 0
M  V30 1708 C 162.763 -1.75132 0.686318 0
M  V30 1709 O 162.121 -1.77595 -0.364643 0
M  V30 1710 C 162.169 -1.76447 3.14482 0
M  V30 1711 O 161.273 -2.86584 2.96553 0
M  V30 1712 H 160.614 -0.255086 0.613047 0
M  V30 1713 H 163.144 -0.172283 2.03873 0
M  V30 1714 H 163.154 -2.16483 3.45831 0
M  V30 1715 H 161.829 -1.14658 3.99783 0
M  V30 1716 H 160.406 -2.50146 2.76553 0
M  V30 1717 N 162.591 -1.51276 -0.441967 0
M  V30 1718 C 163.521 -1.752 -1.54361 0
M  V30 1719 C 164.502 -0.601682 -1.59103 0
M  V30 1720 O 165.687 -0.843913 -1.74905 0
M  V30 1721 C 162.817 -1.87282 -2.92477 0
M  V30 1722 C 161.771 -3.02687 -3.02596 0
M  V30 1723 C 161.097 -2.99947 -4.42647 0
M  V30 1724 C 162.397 -4.4273 -2.77106 0
M  V30 1725 H 164.091 -2.67442 -1.34592 0
M  V30 1726 H 161.637 -1.28694 -0.646048 0
M  V30 1727 H 163.59 -2.02602 -3.695 0
M  V30 1728 H 162.314 -0.916844 -3.13467 0
M  V30 1729 H 160.973 -2.87065 -2.28012 0
M  V30 1730 H 160.621 -2.02136 -4.60597 0
M  V30 1731 H 160.321 -3.77439 -4.50348 0
M  V30 1732 H 161.845 -3.17354 -5.2165 0
M  V30 1733 H 163.259 -4.58727 -3.43864 0
M  V30 1734 H 161.656 -5.21893 -2.96222 0
M  V30 1735 H 162.726 -4.53087 -1.72744 0
M  V30 1736 N 164.069 0.697108 -1.41344 0
M  V30 1737 C 165.016 1.81106 -1.43071 0
M  V30 1738 C 165.986 1.63632 -0.285275 0
M  V30 1739 O 167.171 1.84504 -0.486091 0
M  V30 1740 C 164.311 3.18975 -1.31715 0
M  V30 1741 C 163.424 3.47892 -2.56115 0
M  V30 1742 C 162.559 4.75367 -2.37064 0
M  V30 1743 C 161.598 4.97247 -3.56948 0
M  V30 1744 N 160.735 6.15947 -3.36977 0
M  V30 1745 H 165.575 1.78965 -2.38276 0
M  V30 1746 H 163.112 0.873975 -1.18322 0
M  V30 1747 H 165.07 3.98615 -1.23133 0
M  V30 1748 H 163.7 3.20297 -0.401183 0
M  V30 1749 H 162.752 2.62669 -2.75153 0
M  V30 1750 H 164.064 3.59962 -3.45295 0
M  V30 1751 H 163.218 5.63059 -2.25941 0
M  V30 1752 H 161.957 4.65541 -1.45338 0
M  V30 1753 H 160.962 4.08004 -3.68527 0
M  V30 1754 H 162.187 5.08934 -4.49626 0
M  V30 1755 H 160.133 6.07336 -2.47949 0
M  V30 1756 H 160.05 6.28777 -4.19732 0
M  V30 1757 H 161.318 7.06377 -3.29623 0
M  V30 1758 N 165.547 1.27147 0.931209 0
M  V30 1759 C 166.963 1.04475 1.20653 0
M  V30 1760 C 167.163 -0.223885 2.00252 0
M  V30 1761 O 166.219 -0.930332 2.34736 0
M  V30 1762 C 167.532 2.28209 1.95809 0
M  V30 1763 C 169.08 2.33211 2.08762 0
M  V30 1764 C 169.555 3.56665 2.87323 0
M  V30 1765 N 171.046 3.57201 2.94892 0
M  V30 1766 C 171.781 4.49395 3.56134 0
M  V30 1767 N 171.277 5.51889 4.18796 0
M  V30 1768 N 173.07 4.37026 3.53504 0
M  V30 1769 H 165.221 2.08612 0.399333 0
M  V30 1770 H 167.484 0.917312 0.239253 0
M  V30 1771 H 167.19 3.20538 1.44736 0
M  V30 1772 H 167.064 2.33247 2.96438 0
M  V30 1773 H 169.451 1.41391 2.59023 0
M  V30 1774 H 169.532 2.32178 1.07364 0
M  V30 1775 H 169.176 4.4882 2.37746 0
M  V30 1776 H 169.106 3.54948 3.88998 0
M  V30 1777 H 171.597 2.83074 2.50354 0
M  V30 1778 H 171.91 6.18409 4.63454 0
M  V30 1779 H 170.255 5.55735 4.17353 0
M  V30 1780 H 173.446 3.56166 3.03749 0
M  V30 1781 H 173.619 5.09067 4.00942 0
M  V30 1782 N 167.025 -1.13721 1.09112 0
M  V30 1783 C 167.955 -2.21148 0.749385 0
M  V30 1784 C 168.936 -1.6792 -0.271475 0
M  V30 1785 O 170.121 -1.93693 -0.140251 0
M  V30 1786 C 167.251 -3.46905 0.165659 0
M  V30 1787 C 166.205 -4.13203 1.11567 0
M  V30 1788 C 165.531 -5.33248 0.393809 0
M  V30 1789 C 166.831 -4.60912 2.45678 0
M  V30 1790 H 168.525 -2.4999 1.64758 0
M  V30 1791 H 166.071 -1.20156 0.793626 0
M  V30 1792 H 168.024 -4.21313 -0.085466 0
M  V30 1793 H 166.748 -3.17449 -0.767714 0
M  V30 1794 H 165.407 -3.40758 1.35202 0
M  V30 1795 H 165.055 -5.00054 -0.543599 0
M  V30 1796 H 164.755 -5.78552 1.02721 0
M  V30 1797 H 166.279 -6.10413 0.150908 0
M  V30 1798 H 167.693 -5.26759 2.26269 0
M  V30 1799 H 166.09 -5.16944 3.04776 0
M  V30 1800 H 167.16 -3.75603 3.06677 0
M  V30 1801 N 168.503 -0.877838 -1.30888 0
M  V30 1802 C 169.451 -0.328662 -2.30266 0
M  V30 1803 C 170.445 0.560496 -1.59859 0
M  V30 1804 O 171.651 0.445722 -1.74394 0
M  V30 1805 H 168.026 -0.0876142 -0.746879 0
M  V30 1806 H 169.997 -1.18061 -2.74051 0
M  V30 1807 C 168.746 0.448071 -3.44801 0
M  V30 1808 H 168.069 -0.226859 -3.99156 0
M  V30 1809 H 169.509 0.797541 -4.16432 0
M  V30 1810 C 167.968 1.64239 -2.94155 0
M  V30 1811 O 168.498 2.74175 -2.93583 0
M  V30 1812 N 166.704 1.47716 -2.50256 0
M  V30 1813 H 166.251 0.582821 -2.5092 0
M  V30 1814 H 166.209 2.27765 -2.16727 0
M  V30 1815 N 169.982 1.44106 -0.638065 0
M  V30 1816 C 171.21 2.06336 -0.152615 0
M  V30 1817 C 171.625 1.47731 1.17563 0
M  V30 1818 O 170.982 0.602806 1.72257 0
M  V30 1819 C 171.033 3.61479 -0.0391491 0
M  V30 1820 O 170.754 4.17903 -1.31487 0
M  V30 1821 C 172.255 4.40757 0.474176 0
M  V30 1822 H 169.475 0.665862 -0.0828776 0
M  V30 1823 H 172.019 1.84862 -0.87443 0
M  V30 1824 H 170.174 3.82191 0.633142 0
M  V30 1825 H 170.588 5.11416 -1.16421 0
M  V30 1826 H 172.062 5.49707 0.502562 0
M  V30 1827 H 172.539 4.12697 1.50258 0
M  V30 1828 H 173.145 4.24979 -0.165102 0
M  V30 1829 N 171.46 0.379036 1.52974 0
M  V30 1830 C 172.737 -0.263479 1.93817 0
M  V30 1831 C 173.117 -1.65244 1.31368 0
M  V30 1832 O 172.465 -2.23448 0.477856 0
M  V30 1833 C 172.675 -0.300166 3.47707 0
M  V30 1834 C 174.023 -0.534061 4.21228 0
M  V30 1835 O 175.047 -0.38081 3.54159 0
M  V30 1836 O 173.906 -0.833501 5.40106 0
M  V30 1837 H 171 -0.161149 0.811147 0
M  V30 1838 H 173.546 0.432798 1.64088 0
M  V30 1839 H 172.318 0.673138 3.85467 0
M  V30 1840 H 171.941 -1.04179 3.83709 0
M  V30 1841 N 172.938 -1.57226 0.108567 0
M  V30 1842 C 174.168 -1.9889 -0.559142 0
M  V30 1843 C 174.576 -0.986889 -1.61422 0
M  V30 1844 O 173.919 0.0298705 -1.83676 0
M  V30 1845 C 173.981 -3.36952 -1.25315 0
M  V30 1846 C 173.645 -4.55679 -0.347248 0
M  V30 1847 C 174.642 -5.18281 0.409996 0
M  V30 1848 C 172.327 -5.0162 -0.261367 0
M  V30 1849 C 174.321 -6.25203 1.24096 0
M  V30 1850 C 172.008 -6.08405 0.573238 0
M  V30 1851 C 173.006 -6.70063 1.32304 0
M  V30 1852 O 172.694 -7.74788 2.14381 0
M  V30 1853 H 172.426 -0.658343 -0.153492 0
M  V30 1854 H 174.98 -2.04532 0.188584 0
M  V30 1855 H 173.21 -3.28032 -2.04773 0
M  V30 1856 H 174.899 -3.62974 -1.81673 0
M  V30 1857 H 175.665 -4.8371 0.353457 0
M  V30 1858 H 171.544 -4.53381 -0.834656 0
M  V30 1859 H 175.088 -6.73259 1.82669 0
M  V30 1860 H 170.985 -6.42406 0.631208 0
M  V30 1861 H 171.753 -7.91837 2.07209 0
M  V30 1862 N 174.416 0.165178 -1.56732 0
M  V30 1863 C 175.665 0.879143 -1.81532 0
M  V30 1864 C 175.978 1.83144 -0.686842 0
M  V30 1865 O 177.184 2.58823 -0.819944 0
M  V30 1866 C 175.64 1.61388 -3.21686 0
M  V30 1867 C 175.248 0.704904 -4.4242 0
M  V30 1868 C 176.992 2.3157 -3.55774 0
M  V30 1869 C 174.899 1.44022 -5.73595 0
M  V30 1870 H 173.829 0.332033 -0.676957 0
M  V30 1871 H 176.48 0.132008 -1.83025 0
M  V30 1872 H 174.862 2.40599 -3.14529 0
M  V30 1873 H 176.036 -0.0506815 -4.60772 0
M  V30 1874 H 174.351 0.112419 -4.16248 0
M  V30 1875 H 176.948 2.8719 -4.51028 0
M  V30 1876 H 177.291 3.07201 -2.8095 0
M  V30 1877 H 177.824 1.59297 -3.64513 0
M  V30 1878 H 174.563 0.72612 -6.51466 0
M  V30 1879 H 174.083 2.16898 -5.5921 0
M  V30 1880 H 175.762 1.98606 -6.15764 0
M  V30 1881 N 175.894 1.51508 0.433938 0
M  V30 1882 C 177.171 1.54888 1.19453 0
M  V30 1883 C 177.551 0.315154 2.08734 0
M  V30 1884 O 176.899 -0.699558 2.17528 0
M  V30 1885 C 177.109 2.86467 1.99342 0
M  V30 1886 C 178.457 3.38545 2.56267 0
M  V30 1887 O 179.481 2.88041 2.0955 0
M  V30 1888 O 178.34 4.26675 3.41483 0
M  V30 1889 H 175.434 0.622863 0.544032 0
M  V30 1890 H 177.98 1.63823 0.442732 0
M  V30 1891 H 176.752 3.67718 1.33788 0
M  V30 1892 H 176.375 2.8071 2.8158 0
M  V30 1893 N 177.372 -0.689602 1.41712 0
M  V30 1894 C 178.302 -1.81577 1.46806 0
M  V30 1895 C 179.283 -1.66945 0.326105 0
M  V30 1896 O 180.468 -1.86588 0.538377 0
M  V30 1897 C 177.598 -3.19762 1.35535 0
M  V30 1898 C 176.552 -3.49107 2.47605 0
M  V30 1899 C 175.878 -4.86711 2.21397 0
M  V30 1900 C 177.178 -3.47483 3.89939 0
M  V30 1901 H 178.872 -1.7757 2.41058 0
M  V30 1902 H 176.418 -0.852887 1.16025 0
M  V30 1903 H 178.371 -3.98263 1.3771 0
M  V30 1904 H 177.095 -3.24409 0.377708 0
M  V30 1905 H 175.754 -2.72959 2.44722 0
M  V30 1906 H 175.402 -4.8799 1.21961 0
M  V30 1907 H 175.102 -5.0731 2.96497 0
M  V30 1908 H 176.626 -5.67515 2.25297 0
M  V30 1909 H 178.04 -4.1598 3.94505 0
M  V30 1910 H 176.437 -3.79615 4.64771 0
M  V30 1911 H 177.507 -2.46341 4.17665 0
M  V30 1912 N 178.85 -1.27639 -0.924453 0
M  V30 1913 C 180.097 -1.14167 -1.67249 0
M  V30 1914 C 180.425 0.311863 -1.91984 0
M  V30 1915 O 179.68 1.24425 -1.51053 0
M  V30 1916 C 179.979 -1.87407 -3.04325 0
M  V30 1917 C 179.645 -3.37249 -2.99289 0
M  V30 1918 C 178.307 -3.7812 -2.97622 0
M  V30 1919 C 180.659 -4.32845 -2.90336 0
M  V30 1920 C 177.987 -5.12944 -2.8479 0
M  V30 1921 C 180.339 -5.6773 -2.79045 0
M  V30 1922 C 179.003 -6.07889 -2.7573 0
M  V30 1923 H 178.273 -0.417766 -0.612007 0
M  V30 1924 H 180.92 -1.58286 -1.07786 0
M  V30 1925 H 179.225 -1.35805 -3.67511 0
M  V30 1926 H 180.922 -1.74408 -3.61086 0
M  V30 1927 H 177.512 -3.04748 -3.01374 0
M  V30 1928 H 181.696 -4.02239 -2.90719 0
M  V30 1929 H 176.952 -5.432 -2.80612 0
M  V30 1930 H 181.126 -6.41472 -2.71083 0
M  V30 1931 H 178.753 -7.12314 -2.65544 0
M  V30 1932 N 180.328 1.1314 -1.09713 0
M  V30 1933 C 181.558 1.88048 -0.855656 0
M  V30 1934 C 181.966 1.79537 0.596919 0
M  V30 1935 O 181.309 1.16196 1.42282 0
M  V30 1936 C 181.371 3.38314 -1.21589 0
M  V30 1937 C 181.035 3.70605 -2.67397 0
M  V30 1938 C 182.032 3.69596 -3.65643 0
M  V30 1939 C 179.717 4.0017 -3.03593 0
M  V30 1940 C 181.711 3.977 -4.9811 0
M  V30 1941 C 179.398 4.27935 -4.36251 0
M  V30 1942 C 180.396 4.26685 -5.33318 0
M  V30 1943 O 180.084 4.53767 -6.63589 0
M  V30 1944 H 179.816 0.60208 -0.307368 0
M  V30 1945 H 182.37 1.44128 -1.46343 0
M  V30 1946 H 180.6 3.82752 -0.551177 0
M  V30 1947 H 182.289 3.94552 -0.953083 0
M  V30 1948 H 183.055 3.46826 -3.39023 0
M  V30 1949 H 178.934 4.00289 -2.2867 0
M  V30 1950 H 182.478 3.9664 -5.73866 0
M  V30 1951 H 178.375 4.50178 -4.62613 0
M  V30 1952 H 179.143 4.71422 -6.69107 0
M  V30 1953 N 181.806 0.884767 1.30421 0
M  V30 1954 C 183.055 0.499164 1.95426 0
M  V30 1955 C 183.368 -0.95645 1.70621 0
M  V30 1956 O 184.574 -1.44889 2.29607 0
M  V30 1957 C 183.03 0.84177 3.49917 0
M  V30 1958 C 182.638 2.31514 3.83543 0
M  V30 1959 C 184.382 0.525355 4.21237 0
M  V30 1960 C 182.289 2.59939 5.31212 0
M  V30 1961 H 181.219 0.182944 0.73147 0
M  V30 1962 H 183.87 1.07971 1.48373 0
M  V30 1963 H 182.252 0.190311 3.95542 0
M  V30 1964 H 183.426 3.0109 3.48829 0
M  V30 1965 H 181.741 2.59907 3.25326 0
M  V30 1966 H 184.338 0.714762 5.29901 0
M  V30 1967 H 184.681 -0.535222 4.12845 0
M  V30 1968 H 185.214 1.134 3.81294 0
M  V30 1969 H 181.953 3.64736 5.44654 0
M  V30 1970 H 181.473 1.94972 5.67227 0
M  V30 1971 H 183.152 2.45429 5.98643 0
M  V30 1972 N 183.284 -1.43765 0.645699 0
M  V30 1973 C 184.234 -2.27884 -0.0726442 0
M  V30 1974 C 185.218 -1.39483 -0.802086 0
M  V30 1975 O 186.41 -1.63174 -0.685791 0
M  V30 1976 C 183.539 -3.27055 -1.04356 0
M  V30 1977 C 182.625 -4.22944 -0.312985 0
M  V30 1978 N 183.016 -5.01391 0.666386 0
M  V30 1979 C 181.314 -4.42528 -0.55546 0
M  V30 1980 C 182.015 -5.71217 1.09935 0
M  V30 1981 N 180.991 -5.41856 0.435137 0
M  V30 1982 H 184.793 -2.85949 0.678988 0
M  V30 1983 H 182.307 -1.55378 0.472368 0
M  V30 1984 H 184.304 -3.86089 -1.57292 0
M  V30 1985 H 182.964 -2.70551 -1.79534 0
M  V30 1986 H 183.975 -5.07252 1.04481 0
M  V30 1987 H 180.652 -3.97104 -1.28899 0
M  V30 1988 H 182.042 -6.44202 1.90929 0
M  V30 1989 N 184.763 -0.387143 -1.52771 0
M  V30 1990 C 186.01 0.195735 -2.01552 0
M  V30 1991 C 186.338 1.46995 -1.27369 0
M  V30 1992 O 185.593 1.92325 -0.361879 0
M  V30 1993 C 185.892 0.512209 -3.53711 0
M  V30 1994 C 185.558 -0.670202 -4.45891 0
M  V30 1995 C 184.22 -0.994586 -4.70809 0
M  V30 1996 C 186.572 -1.46134 -5.00294 0
M  V30 1997 C 183.9 -2.11169 -5.4738 0
M  V30 1998 C 186.252 -2.56903 -5.78086 0
M  V30 1999 C 184.916 -2.89852 -6.01284 0
M  V30 2000 H 184.186 0.0716246 -0.73753 0
M  V30 2001 H 186.833 -0.524046 -1.8419 0
M  V30 2002 H 185.138 1.31329 -3.69134 0
M  V30 2003 H 186.835 0.975804 -3.88946 0
M  V30 2004 H 183.425 -0.407366 -4.2666 0
M  V30 2005 H 187.609 -1.22397 -4.80971 0
M  V30 2006 H 182.865 -2.3707 -5.63567 0
M  V30 2007 H 187.039 -3.18608 -6.19243 0
M  V30 2008 H 184.666 -3.76533 -6.60399 0
M  V30 2009 N 186.241 1.57166 -0.116904 0
M  V30 2010 C 187.652 1.82169 0.408809 0
M  V30 2011 C 188.003 1.03393 1.66746 0
M  V30 2012 O 187.128 0.269886 2.1471 0
M  V30 2013 C 187.723 3.30429 0.748466 0
M  V30 2014 C 186.282 3.5612 1.21882 0
M  V30 2015 C 185.429 2.76374 0.226452 0
M  V30 2016 H 188.38 1.5497 -0.342063 0
M  V30 2017 H 188.401 3.44943 1.60607 0
M  V30 2018 H 187.913 3.87737 -0.167784 0
M  V30 2019 H 186.014 3.04168 2.15204 0
M  V30 2020 H 186.127 4.64705 1.16559 0
M  V30 2021 H 184.491 2.44515 0.713063 0
M  V30 2022 H 185.274 3.3644 -0.682859 0
M  V30 2023 N 187.719 -0.156864 1.56817 0
M  V30 2024 C 188.996 -0.899244 1.73704 0
M  V30 2025 C 189.376 -1.99771 0.682254 0
M  V30 2026 O 188.724 -2.26515 -0.300522 0
M  V30 2027 C 188.934 -1.45075 3.17418 0
M  V30 2028 C 190.282 -1.91802 3.7881 0
M  V30 2029 O 191.306 -1.54838 3.20786 0
M  V30 2030 O 190.165 -2.5994 4.80722 0
M  V30 2031 H 187.259 -0.424267 0.709878 0
M  V30 2032 H 189.805 -0.143561 1.69092 0
M  V30 2033 H 188.577 -0.660846 3.85679 0
M  V30 2034 H 188.2 -2.27021 3.26416 0
M  V30 2035 N 189.197 -1.51736 -0.425897 0
M  V30 2036 C 190.107 -1.76738 -1.54275 0
M  V30 2037 C 191.123 -0.65211 -1.61318 0
M  V30 2038 O 192.299 -0.935654 -1.78346 0
M  V30 2039 C 189.364 -1.89755 -2.90162 0
M  V30 2040 C 188.425 -3.13633 -2.93143 0
M  V30 2041 C 187.658 -3.2602 -4.22548 0
M  V30 2042 O 187.881 -2.44067 -5.15546 0
M  V30 2043 O 186.815 -4.19071 -4.32046 0
M  V30 2044 H 190.641 -2.71502 -1.36089 0
M  V30 2045 H 188.226 -1.36376 -0.610069 0
M  V30 2046 H 190.108 -2.00236 -3.70788 0
M  V30 2047 H 188.783 -0.981785 -3.08452 0
M  V30 2048 H 187.69 -3.08622 -2.11431 0
M  V30 2049 H 189.023 -4.04936 -2.798 0
M  V30 2050 N 190.675 0.682077 -1.42076 0
M  V30 2051 C 191.625 1.78823 -1.41444 0
M  V30 2052 C 192.609 1.58323 -0.28681 0
M  V30 2053 O 193.801 1.68926 -0.528498 0
M  V30 2054 C 190.93 3.17232 -1.3122 0
M  V30 2055 C 190.016 3.4338 -2.489 0
M  V30 2056 N 190.407 3.40152 -3.7434 0
M  V30 2057 C 188.705 3.73986 -2.43003 0
M  V30 2058 C 189.406 3.65581 -4.52466 0
M  V30 2059 N 188.382 3.85989 -3.8277 0
M  V30 2060 H 192.184 1.7471 -2.36334 0
M  V30 2061 H 189.698 0.882622 -1.36321 0
M  V30 2062 H 191.695 3.96489 -1.2885 0
M  V30 2063 H 190.355 3.22547 -0.373263 0
M  V30 2064 H 191.366 3.20221 -4.07037 0
M  V30 2065 H 188.043 3.86591 -1.57651 0
M  V30 2066 H 189.433 3.69108 -5.61435 0
M  V30 2067 N 192.153 1.28127 0.917671 0
M  V30 2068 C 193.381 1.17892 1.70026 0
M  V30 2069 C 193.796 -0.262958 1.8696 0
M  V30 2070 O 193.153 -1.17811 1.3938 0
M  V30 2071 C 193.204 1.86872 3.09453 0
M  V30 2072 O 192.925 3.25428 2.93306 0
M  V30 2073 C 194.426 1.8289 4.03815 0
M  V30 2074 H 191.646 0.40942 0.531617 0
M  V30 2075 H 194.19 1.69181 1.14883 0
M  V30 2076 H 192.345 1.39464 3.61426 0
M  V30 2077 H 192.759 3.59918 3.81523 0
M  V30 2078 H 194.233 2.35751 4.99125 0
M  V30 2079 H 194.71 0.800412 4.31845 0
M  V30 2080 H 195.316 2.29959 3.57769 0
M  V30 2081 N 193.631 -1.12557 1.10312 0
M  V30 2082 C 195.042 -1.65574 0.862678 0
M  V30 2083 C 195.393 -1.86566 -0.607256 0
M  V30 2084 O 194.518 -1.59121 -1.46662 0
M  V30 2085 C 195.113 -3.00776 1.55947 0
M  V30 2086 C 193.672 -3.50748 1.36576 0
M  V30 2087 C 192.819 -2.25797 1.60968 0
M  V30 2088 H 195.77 -0.963552 1.26101 0
M  V30 2089 H 195.791 -3.67185 0.997753 0
M  V30 2090 H 195.303 -2.85465 2.62928 0
M  V30 2091 H 193.404 -3.71245 0.317531 0
M  V30 2092 H 193.517 -4.30289 2.10686 0
M  V30 2093 H 191.881 -2.32841 1.03234 0
M  V30 2094 H 192.664 -2.13043 2.69198 0
M  V30 2095 N 195.109 -0.891671 -1.2995 0
M  V30 2096 C 196.056 -0.361736 -2.27948 0
M  V30 2097 C 197.026 0.551761 -1.56668 0
M  V30 2098 O 198.211 0.478736 -1.84696 0
M  V30 2099 C 195.351 0.411825 -3.42634 0
M  V30 2100 C 194.464 -0.531651 -4.28716 0
M  V30 2101 C 193.599 0.258167 -5.30572 0
M  V30 2102 C 192.638 -0.680349 -6.08307 0
M  V30 2103 N 191.775 0.0745613 -7.0206 0
M  V30 2104 H 196.615 -1.20254 -2.72659 0
M  V30 2105 H 194.152 -0.604352 -1.34112 0
M  V30 2106 H 196.11 0.876304 -4.07893 0
M  V30 2107 H 194.74 1.21715 -2.98974 0
M  V30 2108 H 193.792 -1.11463 -3.63703 0
M  V30 2109 H 195.104 -1.25038 -4.82874 0
M  V30 2110 H 194.258 0.784204 -6.0161 0
M  V30 2111 H 192.997 1.01008 -4.77126 0
M  V30 2112 H 192.002 -1.21796 -5.3614 0
M  V30 2113 H 193.227 -1.43145 -6.63842 0
M  V30 2114 H 191.173 0.808883 -6.50994 0
M  V30 2115 H 191.09 -0.584409 -7.53738 0
M  V30 2116 H 192.358 0.581123 -7.77331 0
M  V30 2117 N 196.587 1.43421 -0.653314 0
M  V30 2118 C 197.864 1.95361 -0.0966581 0
M  V30 2119 C 198.244 1.59461 1.38331 0
M  V30 2120 O 197.592 0.879777 2.10884 0
M  V30 2121 C 197.802 3.47311 -0.342988 0
M  V30 2122 C 199.15 4.23875 -0.24798 0
M  V30 2123 O 200.174 3.55133 -0.275553 0
M  V30 2124 O 199.033 5.4623 -0.171771 0
M  V30 2125 H 196.127 0.826945 0.00956291 0
M  V30 2126 H 198.673 1.5336 -0.726558 0
M  V30 2127 H 197.445 3.66569 -1.36906 0
M  V30 2128 H 197.068 3.9631 0.319975 0
M  V30 2129 N 198.065 0.39524 1.52563 0
M  V30 2130 C 198.975 -0.444232 2.30356 0
M  V30 2131 C 199.991 -1.06615 1.37511 0
M  V30 2132 O 201.167 -1.07067 1.70583 0
M  V30 2133 C 198.232 -1.55315 3.09964 0
M  V30 2134 C 197.293 -0.955734 4.18526 0
M  V30 2135 C 196.526 -2.01181 4.9433 0
M  V30 2136 O 196.749 -3.22781 4.70285 0
M  V30 2137 O 195.683 -1.62579 5.79527 0
M  V30 2138 H 199.509 0.189667 3.03107 0
M  V30 2139 H 197.094 0.1588 1.48554 0
M  V30 2140 H 198.976 -2.19724 3.59582 0
M  V30 2141 H 197.651 -2.17191 2.4002 0
M  V30 2142 H 196.558 -0.274743 3.7309 0
M  V30 2143 H 197.891 -0.381109 4.90722 0
M  V30 2144 N 199.544 -1.57102 0.125237 0
M  V30 2145 C 200.507 -2.14471 -0.80838 0
M  V30 2146 C 201.507 -1.0811 -1.19033 0
M  V30 2147 O 202.697 -1.33856 -1.11482 0
M  V30 2148 C 199.829 -2.69005 -2.09402 0
M  V30 2149 H 201.022 -2.98297 -0.309696 0
M  V30 2150 H 198.575 -1.55807 -0.124051 0
M  V30 2151 H 199.31 -1.88785 -2.63687 0
M  V30 2152 H 199.095 -3.46799 -1.82957 0
M  V30 2153 H 200.585 -3.13278 -2.76128 0
M  V30 2154 N 201.022 0.148545 -1.56898 0
M  V30 2155 C 202.268 0.862694 -1.83536 0
M  V30 2156 C 202.601 1.80889 -0.706604 0
M  V30 2157 O 201.876 1.92328 0.289885 0
M  V30 2158 C 202.159 1.63853 -3.20662 0
M  V30 2159 C 202.012 0.713925 -4.44098 0
M  V30 2160 C 203.331 2.60133 -3.54991 0
M  V30 2161 H 200.45 0.312179 -0.667618 0
M  V30 2162 H 203.092 0.127953 -1.89569 0
M  V30 2163 H 201.242 2.26489 -3.1565 0
M  V30 2164 H 202.914 0.098686 -4.61194 0
M  V30 2165 H 201.157 0.0234019 -4.33794 0
M  V30 2166 H 201.828 1.29278 -5.36648 0
M  V30 2167 H 204.304 2.07616 -3.60603 0
M  V30 2168 H 203.18 3.11468 -4.51972 0
M  V30 2169 H 203.441 3.41417 -2.80868 0
M  V30 2170 N 202.5 1.5196 0.417844 0
M  V30 2171 C 203.448 1.75278 1.52907 0
M  V30 2172 C 204.442 0.619611 1.57662 0
M  V30 2173 O 205.648 0.801457 1.61173 0
M  V30 2174 H 202.023 0.554141 0.508362 0
M  V30 2175 H 203.994 2.68389 1.30422 0
M  V30 2176 C 202.743 1.91262 2.90369 0
M  V30 2177 H 202.066 2.77872 2.8745 0
M  V30 2178 H 203.506 2.11581 3.67436 0
M  V30 2179 C 201.965 0.677431 3.30019 0
M  V30 2180 O 202.495 -0.158799 4.01386 0
M  V30 2181 N 200.701 0.515851 2.85985 0
M  V30 2182 H 200.248 1.19744 2.28077 0
M  V30 2183 H 200.206 -0.309315 3.12875 0
M  V30 2184 N 203.978 -0.674533 1.42435 0
M  V30 2185 C 204.941 -1.76986 1.45632 0
M  V30 2186 C 205.941 -1.5708 0.343871 0
M  V30 2187 O 207.131 -1.63367 0.604709 0
M  V30 2188 C 204.263 -3.15623 1.28822 0
M  V30 2189 H 205.456 -1.75539 2.43158 0
M  V30 2190 H 203.009 -0.884189 1.28887 0
M  V30 2191 H 203.744 -3.22696 0.322193 0
M  V30 2192 H 203.529 -3.31475 2.09444 0
M  V30 2193 H 205.019 -3.95537 1.33942 0
M  V30 2194 N 205.456 -1.28612 -0.910864 0
M  V30 2195 C 206.386 -1.15326 -2.03032 0
M  V30 2196 C 207.367 -0.0502924 -1.70026 0
M  V30 2197 O 208.552 -0.227797 -1.92859 0
M  V30 2198 C 205.682 -0.817343 -3.37545 0
M  V30 2199 C 204.636 -1.8754 -3.84724 0
M  V30 2200 C 203.962 -1.39305 -5.16235 0
M  V30 2201 C 205.262 -3.28244 -4.06267 0
M  V30 2202 H 206.956 -2.08975 -2.14406 0
M  V30 2203 H 204.502 -1.00612 -1.03021 0
M  V30 2204 H 206.455 -0.711151 -4.15356 0
M  V30 2205 H 205.179 0.154846 -3.26233 0
M  V30 2206 H 203.838 -1.97079 -3.09121 0
M  V30 2207 H 203.486 -0.409846 -5.01328 0
M  V30 2208 H 203.186 -2.10057 -5.48771 0
M  V30 2209 H 204.71 -1.30014 -5.96598 0
M  V30 2210 H 206.124 -3.21611 -4.74594 0
M  V30 2211 H 204.521 -3.96855 -4.5014 0
M  V30 2212 H 205.591 -3.72048 -3.10979 0
M  V30 2213 N 206.934 1.1197 -1.10907 0
M  V30 2214 C 207.882 2.19927 -0.757303 0
M  V30 2215 C 208.876 1.67564 0.248747 0
M  V30 2216 O 210.082 1.79672 0.108605 0
M  V30 2217 H 206.457 0.716925 -0.226987 0
M  V30 2218 H 208.428 2.46847 -1.67658 0
M  V30 2219 C 207.177 3.47061 -0.210671 0
M  V30 2220 H 206.5 3.87703 -0.976049 0
M  V30 2221 H 207.94 4.24 -0.0026584 0
M  V30 2222 C 206.399 3.19864 1.05777 0
M  V30 2223 O 206.929 3.40049 2.13845 0
M  V30 2224 N 205.135 2.73636 0.978349 0
M  V30 2225 H 204.682 2.5741 0.0988246 0
M  V30 2226 H 204.64 2.55815 1.82773 0
M  V30 2227 N 208.412 0.89855 1.29475 0
M  V30 2228 C 209.322 0.379974 2.31502 0
M  V30 2229 C 210.338 -0.524695 1.659 0
M  V30 2230 O 211.514 -0.414551 1.97087 0
M  V30 2231 C 208.579 -0.385138 3.44554 0
M  V30 2232 C 207.64 0.550914 4.2575 0
M  V30 2233 C 206.873 -0.177778 5.33404 0
M  V30 2234 O 207.096 -1.40189 5.52904 0
M  V30 2235 O 206.03 0.479106 5.9999 0
M  V30 2236 H 209.856 1.22639 2.77837 0
M  V30 2237 H 207.441 0.662834 1.33891 0
M  V30 2238 H 209.323 -0.817841 4.13388 0
M  V30 2239 H 207.998 -1.20763 3.0033 0
M  V30 2240 H 206.905 1.03271 3.59564 0
M  V30 2241 H 208.238 1.33979 4.73614 0
M  V30 2242 N 209.89 -1.43072 0.660911 0
M  V30 2243 C 210.823 -2.28074 -0.0758862 0
M  V30 2244 C 211.801 -1.40271 -0.822362 0
M  V30 2245 O 212.985 -1.69713 -0.820352 0
M  V30 2246 C 210.112 -3.19843 -1.11437 0
M  V30 2247 C 209.158 -4.23957 -0.465069 0
M  V30 2248 S 209.991 -5.29978 0.767078 0
M  V30 2249 C 211.147 -6.25314 -0.270682 0
M  V30 2250 H 211.38 -2.90216 0.645139 0
M  V30 2251 H 208.913 -1.47697 0.449995 0
M  V30 2252 H 210.871 -3.73257 -1.70849 0
M  V30 2253 H 209.532 -2.56863 -1.80776 0
M  V30 2254 H 208.725 -4.88299 -1.24819 0
M  V30 2255 H 208.327 -3.73959 0.0551242 0
M  V30 2256 H 210.619 -6.67932 -1.13459 0
M  V30 2257 H 211.562 -7.07293 0.337916 0
M  V30 2258 H 211.97 -5.61195 -0.609937 0
M  V30 2259 N 211.368 -0.403325 -1.52352 0
M  V30 2260 C 212.315 0.425011 -2.26853 0
M  V30 2261 C 213.285 1.04598 -1.29029 0
M  V30 2262 O 214.47 1.07135 -1.57882 0
M  V30 2263 C 211.61 1.53888 -3.08889 0
M  V30 2264 C 210.723 0.939396 -4.21663 0
M  V30 2265 C 209.858 2.02547 -4.91068 0
M  V30 2266 C 208.897 1.40263 -5.95813 0
M  V30 2267 N 208.034 2.4286 -6.58759 0
M  V30 2268 H 212.874 -0.21674 -2.97211 0
M  V30 2269 H 210.411 -0.118722 -1.4662 0
M  V30 2270 H 212.369 2.19558 -3.54753 0
M  V30 2271 H 210.999 2.15074 -2.40714 0
M  V30 2272 H 210.051 0.171898 -3.80011 0
M  V30 2273 H 211.363 0.44436 -4.96817 0
M  V30 2274 H 210.517 2.75958 -5.40308 0
M  V30 2275 H 209.256 2.55415 -4.15469 0
M  V30 2276 H 208.261 0.653833 -5.45898 0
M  V30 2277 H 209.486 0.881719 -6.73352 0
M  V30 2278 H 207.432 2.94871 -5.85992 0
M  V30 2279 H 207.349 1.98152 -7.2957 0
M  V30 2280 H 208.617 3.15858 -7.12639 0
M  V30 2281 N 212.846 1.57033 -0.133567 0
M  V30 2282 C 213.793 2.16074 0.811208 0
M  V30 2283 C 214.763 1.08979 1.2535 0
M  V30 2284 O 215.948 1.36958 1.32843 0
M  V30 2285 C 213.088 2.77595 2.05024 0
M  V30 2286 C 212.201 3.99042 1.65498 0
M  V30 2287 C 211.336 4.48603 2.84479 0
M  V30 2288 C 210.375 5.62547 2.41262 0
M  V30 2289 N 209.512 6.06787 3.53206 0
M  V30 2290 H 214.352 2.96477 0.300906 0
M  V30 2291 H 211.889 1.46462 0.136822 0
M  V30 2292 H 213.847 3.11402 2.77642 0
M  V30 2293 H 212.477 1.99859 2.53488 0
M  V30 2294 H 211.529 3.71302 0.826981 0
M  V30 2295 H 212.841 4.81629 1.29748 0
M  V30 2296 H 211.995 4.84395 3.65303 0
M  V30 2297 H 210.734 3.64995 3.23465 0
M  V30 2298 H 209.739 5.26345 1.58874 0
M  V30 2299 H 210.964 6.47931 2.03377 0
M  V30 2300 H 208.91 5.26117 3.91838 0
M  V30 2301 H 208.827 6.84266 3.21427 0
M  V30 2302 H 210.095 6.4722 4.34427 0
M  V30 2303 N 214.325 -0.140222 1.56975 0
M  V30 2304 C 215.288 -1.15689 1.97861 0
M  V30 2305 C 216.288 -1.3549 0.865974 0
M  V30 2306 O 217.478 -1.32367 1.13246 0
M  V30 2307 C 214.61 -2.51582 2.30042 0
M  V30 2308 H 215.803 -0.805971 2.88867 0
M  V30 2309 H 213.356 -0.383801 1.51515 0
M  V30 2310 H 214.091 -2.91632 1.41849 0
M  V30 2311 H 213.876 -2.38569 3.11171 0
M  V30 2312 H 215.366 -3.24792 2.62488 0
M  V30 2313 N 215.803 -1.52179 -0.40978 0
M  V30 2314 C 217.051 -1.65878 -1.15451 0
M  V30 2315 C 217.372 -0.390771 -1.91044 0
M  V30 2316 O 216.642 0.594323 -1.86667 0
M  V30 2317 H 215.222 -0.611405 -0.429177 0
M  V30 2318 H 217.884 -1.89219 -0.467134 0
M  V30 2319 H 216.98 -2.49954 -1.86894 0
M  V30 2320 N 217.281 0.66697 -1.42791 0
M  V30 2321 C 218.228 1.7803 -1.4688 0
M  V30 2322 C 219.198 1.6299 -0.319919 0
M  V30 2323 O 220.383 1.83432 -0.525118 0
M  V30 2324 C 217.523 3.1611 -1.38451 0
M  V30 2325 C 216.636 3.42381 -2.63437 0
M  V30 2326 C 215.771 4.70232 -2.47094 0
M  V30 2327 C 214.81 4.89564 -3.67415 0
M  V30 2328 N 213.947 6.08661 -3.49966 0
M  V30 2329 H 218.787 1.7387 -2.42019 0
M  V30 2330 H 216.324 0.84868 -1.20149 0
M  V30 2331 H 218.282 3.95914 -1.31561 0
M  V30 2332 H 216.912 3.19374 -0.469033 0
M  V30 2333 H 215.964 2.56774 -2.80662 0
M  V30 2334 H 217.276 3.52557 -3.52853 0
M  V30 2335 H 216.43 5.5814 -2.37834 0
M  V30 2336 H 215.169 4.62353 -1.5518 0
M  V30 2337 H 214.174 4.00096 -3.77099 0
M  V30 2338 H 215.399 4.99282 -4.6032 0
M  V30 2339 H 213.345 6.0194 -2.60776 0
M  V30 2340 H 213.262 6.19733 -4.32975 0
M  V30 2341 H 214.53 6.99226 -3.44532 0
M  V30 2342 N 218.759 1.29093 0.90403 0
M  V30 2343 C 220.008 1.16187 1.64874 0
M  V30 2344 C 220.321 -0.286742 1.93487 0
M  V30 2345 O 221.527 -0.537062 2.66135 0
M  V30 2346 C 219.983 2.03177 2.97064 0
M  V30 2347 C 219.591 3.52836 2.76062 0
M  V30 2348 C 221.335 1.98984 3.74974 0
M  V30 2349 C 219.242 4.31945 4.03952 0
M  V30 2350 H 218.172 0.431246 0.618501 0
M  V30 2351 H 220.823 1.53699 1.00243 0
M  V30 2352 H 219.205 1.5853 3.62883 0
M  V30 2353 H 220.379 4.05507 2.18863 0
M  V30 2354 H 218.694 3.58656 2.11553 0
M  V30 2355 H 221.291 2.55351 4.69787 0
M  V30 2356 H 221.634 0.968815 4.0487 0
M  V30 2357 H 222.167 2.41652 3.15989 0
M  V30 2358 H 218.906 5.34667 3.79225 0
M  V30 2359 H 218.426 3.84045 4.60727 0
M  V30 2360 H 220.105 4.42379 4.72133 0
M  V30 2361 N 220.237 -1.11381 1.11499 0
M  V30 2362 C 221.653 -1.35143 0.849031 0
M  V30 2363 C 221.853 -1.94515 -0.525938 0
M  V30 2364 O 220.909 -2.1785 -1.27662 0
M  V30 2365 C 222.222 -2.28249 1.95762 0
M  V30 2366 C 223.77 -2.41812 1.98736 0
M  V30 2367 C 224.245 -3.3824 3.088 0
M  V30 2368 N 225.736 -3.45803 3.08179 0
M  V30 2369 C 226.471 -4.20358 3.89982 0
M  V30 2370 N 225.967 -4.97884 4.8175 0
M  V30 2371 N 227.76 -4.15877 3.78157 0
M  V30 2372 H 219.911 -0.712062 2.00109 0
M  V30 2373 H 222.174 -0.376025 0.870235 0
M  V30 2374 H 221.88 -1.91817 2.94787 0
M  V30 2375 H 221.754 -3.28473 1.85433 0
M  V30 2376 H 224.141 -2.77518 1.00338 0
M  V30 2377 H 224.222 -1.41437 2.13141 0
M  V30 2378 H 223.866 -3.03261 4.07425 0
M  V30 2379 H 223.796 -4.38471 2.91635 0
M  V30 2380 H 226.287 -2.90506 2.41691 0
M  V30 2381 H 226.6 -5.52142 5.40702 0
M  V30 2382 H 224.945 -4.97043 4.85771 0
M  V30 2383 H 228.136 -3.544 3.05808 0
M  V30 2384 H 228.309 -4.73723 4.42143 0
M  V30 2385 N 221.715 -0.905404 -1.28997 0
M  V30 2386 C 222.94 -0.549175 -1.99997 0
M  V30 2387 C 223.365 0.860276 -1.67275 0
M  V30 2388 O 222.723 1.57355 -0.900502 0
M  V30 2389 C 222.771 -0.755185 -3.52604 0
M  V30 2390 O 221.875 0.189692 -4.11964 0
M  V30 2391 H 221.216 -0.213899 -0.628604 0
M  V30 2392 H 223.746 -1.21856 -1.64354 0
M  V30 2393 H 223.756 -0.662045 -4.02593 0
M  V30 2394 H 222.431 -1.78271 -3.75755 0
M  V30 2395 H 221.008 0.0485257 -3.72868 0
M  V30 2396 N 223.193 1.4272 -0.668489 0
M  V30 2397 C 224.442 2.00846 -0.185389 0
M  V30 2398 C 224.755 1.53442 1.21305 0
M  V30 2399 O 225.961 2.03944 1.79218 0
M  V30 2400 C 224.417 3.58805 -0.280591 0
M  V30 2401 C 224.025 4.15198 -1.68268 0
M  V30 2402 C 225.769 4.24255 0.14412 0
M  V30 2403 C 223.676 5.655 -1.73099 0
M  V30 2404 H 222.606 0.751145 -0.0655475 0
M  V30 2405 H 225.257 1.63516 -0.832752 0
M  V30 2406 H 223.639 3.93608 0.434553 0
M  V30 2407 H 224.813 3.91866 -2.42441 0
M  V30 2408 H 223.128 3.62176 -2.05469 0
M  V30 2409 H 225.725 5.34547 0.128086 0
M  V30 2410 H 226.068 3.99277 1.17827 0
M  V30 2411 H 226.601 3.94389 -0.519798 0
M  V30 2412 H 223.34 5.95268 -2.74475 0
M  V30 2413 H 222.86 5.90842 -1.03274 0
M  V30 2414 H 224.539 6.29808 -1.48158 0
M  V30 2415 N 224.671 0.411399 1.52136 0
M  V30 2416 C 225.919 -0.163322 2.01439 0
M  V30 2417 C 226.24 -1.45453 1.29879 0
M  V30 2418 O 225.51 -1.91225 0.4254 0
M  V30 2419 H 224.09 -0.0633447 0.744309 0
M  V30 2420 H 226.752 0.548161 1.87033 0
M  V30 2421 H 225.848 -0.357817 3.10042 0
M  V30 2422 N 226.149 -1.5696 0.141893 0
M  V30 2423 C 227.395 -1.9625 -0.511248 0
M  V30 2424 C 227.728 -1.02654 -1.64851 0
M  V30 2425 O 227.003 -0.0679676 -1.94381 0
M  V30 2426 C 227.286 -3.45285 -1.02227 0
M  V30 2427 C 227.139 -4.49658 0.113138 0
M  V30 2428 C 228.458 -3.96698 -1.90574 0
M  V30 2429 H 225.577 -0.713567 -0.184367 0
M  V30 2430 H 228.219 -1.88698 0.222087 0
M  V30 2431 H 226.369 -3.51852 -1.64719 0
M  V30 2432 H 228.041 -4.55174 0.749302 0
M  V30 2433 H 226.284 -4.26857 0.773026 0
M  V30 2434 H 226.955 -5.51258 -0.286053 0
M  V30 2435 H 229.431 -3.92578 -1.37918 0
M  V30 2436 H 228.307 -5.01453 -2.2324 0
M  V30 2437 H 228.568 -3.3875 -2.84079 0
M  V30 2438 N 227.627 0.131896 -1.57047 0
M  V30 2439 C 228.852 0.860418 -1.8871 0
M  V30 2440 C 229.277 1.73251 -0.73251 0
M  V30 2441 O 228.635 1.785 0.317429 0
M  V30 2442 C 228.683 1.68047 -3.19049 0
M  V30 2443 O 227.787 2.7862 -3.04047 0
M  V30 2444 H 227.128 0.238743 -0.619595 0
M  V30 2445 H 229.658 0.118169 -2.04258 0
M  V30 2446 H 229.668 2.07238 -3.51449 0
M  V30 2447 H 228.343 1.04018 -4.02682 0
M  V30 2448 H 226.92 2.42726 -2.83088 0
M  V30 2449 N 229.106 1.52395 0.401703 0
M  V30 2450 C 230.054 1.7689 1.51039 0
M  V30 2451 C 231.048 0.636298 1.56996 0
M  V30 2452 O 232.254 0.818507 1.60314 0
M  V30 2453 H 228.629 0.559502 0.502456 0
M  V30 2454 H 230.6 2.69757 1.27568 0
M  V30 2455 C 229.349 1.94331 2.88324 0
M  V30 2456 H 228.672 2.80905 2.84486 0
M  V30 2457 H 230.112 2.15466 3.65172 0
M  V30 2458 C 228.571 0.712396 3.29282 0
M  V30 2459 O 229.101 -0.116218 4.01532 0
M  V30 2460 N 227.307 0.546154 2.85422 0
M  V30 2461 H 226.854 1.22156 2.26794 0
M  V30 2462 H 226.812 -0.276113 3.13185 0
M  V30 2463 N 230.584 -0.659388 1.43143 0
M  V30 2464 C 231.831 -1.41935 1.44433 0
M  V30 2465 C 232.159 -1.94387 0.0663522 0
M  V30 2466 O 231.414 -1.72314 -0.927706 0
M  V30 2467 C 231.713 -2.62206 2.42864 0
M  V30 2468 C 231.379 -2.28208 3.88886 0
M  V30 2469 C 230.041 -2.18647 4.28657 0
M  V30 2470 C 232.393 -2.00887 4.8093 0
M  V30 2471 C 229.721 -1.79914 5.58433 0
M  V30 2472 C 232.073 -1.63653 6.11065 0
M  V30 2473 C 230.737 -1.52614 6.49819 0
M  V30 2474 H 230.007 -0.519376 0.528517 0
M  V30 2475 H 232.654 -0.750453 1.76183 0
M  V30 2476 H 230.959 -3.34199 2.04495 0
M  V30 2477 H 232.656 -3.2041 2.41119 0
M  V30 2478 H 229.246 -2.36557 3.57406 0
M  V30 2479 H 233.43 -2.07198 4.5098 0
M  V30 2480 H 228.686 -1.69948 5.87305 0
M  V30 2481 H 232.86 -1.41543 6.81864 0
M  V30 2482 H 230.487 -1.22371 7.50286 0
M  V30 2483 N 232.062 -1.29571 -0.897171 0
M  V30 2484 C 233.287 -1.20705 -1.68656 0
M  V30 2485 C 233.712 0.228582 -1.86706 0
M  V30 2486 O 233.07 1.16494 -1.3892 0
M  V30 2487 C 233.118 -1.9282 -3.04717 0
M  V30 2488 O 232.222 -1.24697 -3.93096 0
M  V30 2489 H 231.563 -0.418126 -0.515816 0
M  V30 2490 H 234.093 -1.71183 -1.12061 0
M  V30 2491 H 234.103 -2.01372 -3.54843 0
M  V30 2492 H 232.778 -2.97239 -2.90899 0
M  V30 2493 H 231.355 -1.2442 -3.51531 0
M  V30 2494 N 233.54 1.10788 -1.12088 0
M  V30 2495 C 234.47 2.19083 -0.807755 0
M  V30 2496 C 235.451 1.6858 0.226859 0
M  V30 2497 O 236.636 1.93997 0.0888475 0
M  V30 2498 C 233.766 3.46344 -0.257576 0
M  V30 2499 C 232.72 4.101 -1.22483 0
M  V30 2500 C 232.046 5.32016 -0.535052 0
M  V30 2501 C 233.346 4.54236 -2.57811 0
M  V30 2502 H 235.04 2.45534 -1.71328 0
M  V30 2503 H 232.586 1.1801 -0.825205 0
M  V30 2504 H 234.539 4.21392 -0.0262679 0
M  V30 2505 H 233.263 3.19373 0.683278 0
M  V30 2506 H 231.922 3.37054 -1.44189 0
M  V30 2507 H 231.57 5.01319 0.410827 0
M  V30 2508 H 231.27 5.75625 -1.18024 0
M  V30 2509 H 232.794 6.09799 -0.312695 0
M  V30 2510 H 234.208 5.20575 -2.40155 0
M  V30 2511 H 232.605 5.08682 -3.18375 0
M  V30 2512 H 233.675 3.6734 -3.16528 0
M  V30 2513 N 235.018 0.912232 1.28515 0
M  V30 2514 C 235.928 0.404506 2.31086 0
M  V30 2515 C 236.944 -0.50707 1.66448 0
M  V30 2516 O 238.12 -0.393624 1.97516 0
M  V30 2517 C 235.185 -0.348572 3.44943 0
M  V30 2518 C 234.246 0.59604 4.25142 0
M  V30 2519 C 233.479 -0.121194 5.33562 0
M  V30 2520 O 233.702 -1.34317 5.5436 0
M  V30 2521 O 232.636 0.542716 5.99448 0
M  V30 2522 H 236.462 1.25579 2.76521 0
M  V30 2523 H 234.047 0.676998 1.33181 0
M  V30 2524 H 235.929 -0.77395 4.14232 0
M  V30 2525 H 234.604 -1.17571 3.01594 0
M  V30 2526 H 233.511 1.07079 3.58448 0
M  V30 2527 H 234.844 1.38995 4.72167 0
M  V30 2528 N 236.496 -1.42363 0.676048 0
M  V30 2529 C 237.428 -2.29164 -0.0404605 0
M  V30 2530 C 238.441 -1.43747 -0.764245 0
M  V30 2531 O 239.63 -1.67453 -0.618195 0
M  V30 2532 C 236.73 -3.21196 -1.08103 0
M  V30 2533 C 235.903 -4.35273 -0.430812 0
M  V30 2534 C 234.962 -5.08017 -1.37133 0
M  V30 2535 O 233.988 -5.62494 -0.87116 0
M  V30 2536 N 235.19 -5.13647 -2.70456 0
M  V30 2537 H 237.955 -2.91298 0.704667 0
M  V30 2538 H 235.516 -1.53303 0.520559 0
M  V30 2539 H 237.508 -3.66728 -1.71152 0
M  V30 2540 H 236.078 -2.60505 -1.72788 0
M  V30 2541 H 235.298 -3.92372 0.379209 0
M  V30 2542 H 236.586 -5.08795 0.0221132 0
M  V30 2543 H 235.984 -4.708 -3.1363 0
M  V30 2544 H 234.541 -5.62821 -3.28749 0
M  V30 2545 N 237.974 -0.419461 -1.51915 0
M  V30 2546 C 238.904 0.391813 -2.30189 0
M  V30 2547 C 239.885 1.03699 -1.34836 0
M  V30 2548 O 241.07 1.04403 -1.63748 0
M  V30 2549 C 238.2 1.50312 -3.13087 0
M  V30 2550 C 237.154 0.9824 -4.16573 0
M  V30 2551 C 236.48 2.18809 -4.8788 0
M  V30 2552 C 237.78 0.0292356 -5.22292 0
M  V30 2553 H 239.474 -0.26135 -2.98257 0
M  V30 2554 H 237.02 -0.127134 -1.43438 0
M  V30 2555 H 238.973 2.07773 -3.66617 0
M  V30 2556 H 237.697 2.18431 -2.42807 0
M  V30 2557 H 236.356 0.430119 -3.64068 0
M  V30 2558 H 236.004 2.85507 -4.14119 0
M  V30 2559 H 235.704 1.84615 -5.57845 0
M  V30 2560 H 237.228 2.76858 -5.44226 0
M  V30 2561 H 238.642 0.512976 -5.71 0
M  V30 2562 H 237.039 -0.2244 -5.9968 0
M  V30 2563 H 238.109 -0.912931 -4.76228 0
M  V30 2564 N 239.452 1.56882 -0.150215 0
M  V30 2565 C 240.399 2.16922 0.788244 0
M  V30 2566 C 241.369 1.10303 1.24187 0
M  V30 2567 O 242.554 1.38359 1.31383 0
M  V30 2568 C 239.694 2.79754 2.02068 0
M  V30 2569 C 238.807 4.00775 1.61257 0
M  V30 2570 C 237.942 4.51595 2.79705 0
M  V30 2571 C 236.981 5.65074 2.35282 0
M  V30 2572 N 236.118 6.10499 3.4675 0
M  V30 2573 H 240.958 2.96779 0.269444 0
M  V30 2574 H 238.495 1.46599 0.12128 0
M  V30 2575 H 240.453 3.14329 2.74323 0
M  V30 2576 H 239.083 2.02536 2.51354 0
M  V30 2577 H 238.135 3.72158 0.787553 0
M  V30 2578 H 239.447 4.82978 1.24633 0
M  V30 2579 H 238.601 4.88242 3.60145 0
M  V30 2580 H 237.34 3.68406 3.19576 0
M  V30 2581 H 236.345 5.28 1.53283 0
M  V30 2582 H 237.57 6.50052 1.96493 0
M  V30 2583 H 235.516 5.30243 3.86236 0
M  V30 2584 H 235.433 6.87637 3.14152 0
M  V30 2585 H 236.701 6.51791 4.27537 0
M  V30 2586 N 240.93 -0.123565 1.57115 0
M  V30 2587 C 241.84 -1.17074 2.033 0
M  V30 2588 C 242.856 -1.4561 0.952559 0
M  V30 2589 O 244.032 -1.56817 1.26374 0
M  V30 2590 C 241.097 -2.47857 2.42421 0
M  V30 2591 C 240.158 -2.26758 3.64526 0
M  V30 2592 C 239.391 -3.51305 4.01771 0
M  V30 2593 O 239.614 -4.5843 3.39409 0
M  V30 2594 O 238.548 -3.42578 4.94898 0
M  V30 2595 H 242.374 -0.808555 2.92739 0
M  V30 2596 H 239.959 -0.334027 1.45618 0
M  V30 2597 H 241.841 -3.2492 2.68338 0
M  V30 2598 H 240.516 -2.83558 1.5613 0
M  V30 2599 H 239.423 -1.47569 3.43765 0
M  V30 2600 H 240.756 -1.95963 4.51508 0
M  V30 2601 N 242.408 -1.52605 -0.393616 0
M  V30 2602 C 243.371 -1.76415 -1.46323 0
M  V30 2603 C 244.371 -0.634126 -1.47768 0
M  V30 2604 O 245.561 -0.902142 -1.4902 0
M  V30 2605 C 242.693 -1.8607 -2.85641 0
M  V30 2606 H 243.886 -2.71916 -1.26498 0
M  V30 2607 H 241.439 -1.43257 -0.625073 0
M  V30 2608 H 242.174 -0.925378 -3.10817 0
M  V30 2609 H 241.959 -2.68235 -2.85993 0
M  V30 2610 H 243.449 -2.06179 -3.63153 0
M  V30 2611 N 243.887 0.651787 -1.4349 0
M  V30 2612 C 244.835 1.78586 -1.49029 0
M  V30 2613 C 245.829 1.65448 -0.363767 0
M  V30 2614 O 247.035 1.71777 -0.537821 0
M  V30 2615 H 243.41 0.589236 -0.467231 0
M  V30 2616 H 245.381 1.71035 -2.44519 0
M  V30 2617 C 244.13 3.16851 -1.43181 0
M  V30 2618 H 243.453 3.27598 -2.29171 0
M  V30 2619 H 244.893 3.96156 -1.51118 0
M  V30 2620 C 243.352 3.36568 -0.149616 0
M  V30 2621 O 243.882 3.93885 0.788509 0
M  V30 2622 N 242.088 2.90539 -0.0593484 0
M  V30 2623 H 241.635 2.4408 -0.823575 0
M  V30 2624 H 241.593 3.04108 0.797853 0
M  V30 2625 N 245.365 1.30045 0.890287 0
M  V30 2626 C 246.312 1.15976 1.99545 0
M  V30 2627 C 247.282 0.0506202 1.66023 0
M  V30 2628 O 248.467 0.219847 1.89529 0
M  V30 2629 C 245.607 0.852054 3.34416 0
M  V30 2630 C 244.72 2.04255 3.80662 0
M  V30 2631 C 243.855 1.6734 5.04154 0
M  V30 2632 C 242.894 2.82916 5.42794 0
M  V30 2633 N 242.031 2.46333 6.57468 0
M  V30 2634 H 246.871 2.10524 2.10911 0
M  V30 2635 H 244.408 1.04749 1.03276 0
M  V30 2636 H 246.366 0.654296 4.12037 0
M  V30 2637 H 244.996 -0.0565502 3.2275 0
M  V30 2638 H 244.048 2.35172 2.98995 0
M  V30 2639 H 245.36 2.90826 4.05242 0
M  V30 2640 H 244.514 1.43908 5.89386 0
M  V30 2641 H 243.253 0.779308 4.81433 0
M  V30 2642 H 242.258 3.0702 4.56091 0
M  V30 2643 H 243.483 3.73004 5.6749 0
M  V30 2644 H 241.429 1.59423 6.36334 0
M  V30 2645 H 241.346 3.26436 6.81891 0
M  V30 2646 H 242.614 2.26244 7.45945 0
M  V30 2647 N 246.843 -1.10192 1.12674 0
M  V30 2648 C 248.12 -1.78717 0.794965 0
M  V30 2649 C 248.5 -1.98628 -0.714853 0
M  V30 2650 O 247.848 -1.58135 -1.64941 0
M  V30 2651 C 248.058 -3.11546 1.5729 0
M  V30 2652 C 249.406 -3.86382 1.76052 0
M  V30 2653 O 250.43 -3.21274 1.53823 0
M  V30 2654 O 249.289 -5.03246 2.13087 0
M  V30 2655 H 246.383 -0.774702 0.289423 0
M  V30 2656 H 248.929 -1.16819 1.23091 0
M  V30 2657 H 247.701 -2.92489 2.59935 0
M  V30 2658 H 247.324 -3.81164 1.13137 0
M  V30 2659 N 248.321 -0.919034 -1.28029 0
M  V30 2660 C 249.569 -0.553838 -1.94363 0
M  V30 2661 C 249.89 0.906357 -1.72656 0
M  V30 2662 O 249.16 1.64143 -1.0693 0
M  V30 2663 H 247.74 -0.201834 -0.719216 0
M  V30 2664 H 250.402 -1.16954 -1.55909 0
M  V30 2665 H 249.498 -0.752758 -3.02886 0
M  V30 2666 N 249.799 1.42003 -0.683588 0
M  V30 2667 C 250.729 2.33487 -0.024866 0
M  V30 2668 C 251.71 1.51163 0.779975 0
M  V30 2669 O 252.895 1.79739 0.735362 0
M  V30 2670 C 250.025 3.3487 0.920836 0
M  V30 2671 C 248.979 4.27414 0.223958 0
M  V30 2672 C 248.305 5.19074 1.2832 0
M  V30 2673 C 249.605 5.14445 -0.90242 0
M  V30 2674 H 251.299 2.88819 -0.788921 0
M  V30 2675 H 248.845 1.38873 -0.38083 0
M  V30 2676 H 250.798 3.97787 1.39081 0
M  V30 2677 H 249.522 2.77861 1.71642 0
M  V30 2678 H 248.181 3.65904 -0.225864 0
M  V30 2679 H 247.829 4.58387 2.071 0
M  V30 2680 H 247.529 5.81822 0.821995 0
M  V30 2681 H 249.053 5.84867 1.75392 0
M  V30 2682 H 250.467 5.70998 -0.513272 0
M  V30 2683 H 248.864 5.86072 -1.28997 0
M  V30 2684 H 249.934 4.52322 -1.74737 0
M  V30 2685 N 251.277 0.427512 1.51691 0
M  V30 2686 C 252.523 -0.142439 2.02299 0
M  V30 2687 C 252.856 -1.43214 1.31162 0
M  V30 2688 O 252.131 -1.89833 0.423511 0
M  V30 2689 C 252.414 -0.371301 3.58181 0
M  V30 2690 C 252.267 0.936358 4.39946 0
M  V30 2691 C 253.586 -1.14542 4.24933 0
M  V30 2692 H 250.705 -0.0502937 0.735282 0
M  V30 2693 H 253.347 0.564584 1.81418 0
M  V30 2694 H 251.497 -0.973559 3.76104 0
M  V30 2695 H 253.169 1.57184 4.33694 0
M  V30 2696 H 251.412 1.5432 4.05423 0
M  V30 2697 H 252.083 0.730388 5.47147 0
M  V30 2698 H 254.559 -0.635362 4.11221 0
M  V30 2699 H 253.435 -1.27431 5.33903 0
M  V30 2700 H 253.696 -2.17093 3.85127 0
M  V30 2701 N 252.755 -1.56801 0.158532 0
M  V30 2702 C 254.032 -1.88131 -0.535357 0
M  V30 2703 C 254.412 -1.06638 -1.82186 0
M  V30 2704 O 253.76 -0.156533 -2.27963 0
M  V30 2705 C 253.97 -3.39949 -0.789653 0
M  V30 2706 C 255.318 -4.09416 -1.12533 0
M  V30 2707 O 256.342 -3.45194 -0.878622 0
M  V30 2708 O 255.201 -5.22855 -1.59014 0
M  V30 2709 H 252.295 -0.780143 -0.27442 0
M  V30 2710 H 254.841 -1.68564 0.19601 0
M  V30 2711 H 253.613 -3.91115 0.120353 0
M  V30 2712 H 253.236 -3.65084 -1.57479 0
M  V30 2713 N 254.233 0.115231 -1.57178 0
M  V30 2714 C 255.479 0.82357 -1.85325 0
M  V30 2715 C 255.812 1.79349 -0.744814 0
M  V30 2716 O 255.087 1.92899 0.249024 0
M  V30 2717 C 255.37 1.57014 -3.24066 0
M  V30 2718 C 255.223 0.619565 -4.45513 0
M  V30 2719 C 256.542 2.52545 -3.60429 0
M  V30 2720 H 253.661 0.297948 -0.674089 0
M  V30 2721 H 256.303 0.0877138 -1.89797 0
M  V30 2722 H 254.453 2.19742 -3.20383 0
M  V30 2723 H 256.125 0.000837639 -4.613 0
M  V30 2724 H 254.368 -0.0686174 -4.33746 0
M  V30 2725 H 255.039 1.17866 -5.3927 0
M  V30 2726 H 257.515 1.9992 -3.64926 0
M  V30 2727 H 256.391 3.01811 -4.58477 0
M  V30 2728 H 256.652 3.35383 -2.88047 0
M  V30 2729 N 255.711 1.52812 0.385517 0
M  V30 2730 C 256.641 1.80808 1.47752 0
M  V30 2731 C 257.622 0.660318 1.5676 0
M  V30 2732 O 258.807 0.908246 1.71652 0
M  V30 2733 C 255.937 1.98008 2.85324 0
M  V30 2734 C 254.891 3.13709 2.91154 0
M  V30 2735 C 254.217 3.16169 4.31209 0
M  V30 2736 C 255.517 4.52709 2.60483 0
M  V30 2737 H 257.211 2.72253 1.24573 0
M  V30 2738 H 254.757 1.31003 0.597839 0
M  V30 2739 H 256.71 2.16176 3.61726 0
M  V30 2740 H 255.434 1.03255 3.09848 0
M  V30 2741 H 254.093 2.95329 2.17201 0
M  V30 2742 H 253.741 2.19092 4.52778 0
M  V30 2743 H 253.441 3.93894 4.36029 0
M  V30 2744 H 254.965 3.36496 5.09512 0
M  V30 2745 H 256.379 4.71173 3.26602 0
M  V30 2746 H 254.776 5.32528 2.76648 0
M  V30 2747 H 255.846 4.59186 1.55809 0
M  V30 2748 N 257.189 -0.644168 1.43834 0
M  V30 2749 C 258.121 -1.76955 1.45669 0
M  V30 2750 C 259.134 -1.58956 0.351666 0
M  V30 2751 O 260.323 -1.6751 0.616644 0
M  V30 2752 C 257.423 -3.14507 1.26248 0
M  V30 2753 C 256.596 -3.59083 2.49757 0
M  V30 2754 C 255.655 -4.75467 2.25427 0
M  V30 2755 O 254.681 -4.84444 2.98836 0
M  V30 2756 N 255.883 -5.66289 1.27661 0
M  V30 2757 H 258.648 -1.75856 2.42682 0
M  V30 2758 H 256.209 -0.828312 1.39106 0
M  V30 2759 H 258.201 -3.90067 1.0784 0
M  V30 2760 H 256.771 -3.10325 0.376478 0
M  V30 2761 H 255.991 -2.7387 2.8353 0
M  V30 2762 H 257.279 -3.85613 3.31934 0
M  V30 2763 H 256.677 -5.61718 0.670064 0
M  V30 2764 H 255.234 -6.41533 1.15234 0
M  V30 2765 N 258.668 -1.30515 -0.883378 0
M  V30 2766 C 259.916 -1.19194 -1.63209 0
M  V30 2767 C 260.237 0.253205 -1.93349 0
M  V30 2768 O 259.507 1.17025 -1.57105 0
M  V30 2769 H 258.087 -0.438148 -0.605009 0
M  V30 2770 H 260.749 -1.63663 -1.05832 0
M  V30 2771 H 259.845 -1.75396 -2.58153 0
M  V30 2772 N 260.146 1.09593 -1.13257 0
M  V30 2773 C 261.056 2.19739 -0.821691 0
M  V30 2774 C 262.072 1.72926 0.19302 0
M  V30 2775 O 263.248 2.01385 0.0244895 0
M  V30 2776 C 260.313 3.45482 -0.290333 0
M  V30 2777 C 259.374 4.06985 -1.36607 0
M  V30 2778 C 258.607 5.26726 -0.859975 0
M  V30 2779 O 258.83 5.69594 0.303082 0
M  V30 2780 O 257.764 5.7931 -1.63351 0
M  V30 2781 H 261.59 2.48781 -1.74189 0
M  V30 2782 H 259.175 1.18496 -0.909894 0
M  V30 2783 H 261.057 4.214 0.000674022 0
M  V30 2784 H 259.732 3.18047 0.602306 0
M  V30 2785 H 258.639 3.32712 -1.71037 0
M  V30 2786 H 259.972 4.38643 -2.23279 0
M  V30 2787 N 261.624 0.925811 1.2754 0
M  V30 2788 C 262.854 0.580666 1.98272 0
M  V30 2789 C 263.262 -0.845207 1.69272 0
M  V30 2790 O 262.605 -1.57306 0.948707 0
M  V30 2791 C 262.667 0.724418 3.52126 0
M  V30 2792 C 262.331 2.12206 4.04744 0
M  V30 2793 C 263.328 3.09604 4.17662 0
M  V30 2794 C 261.013 2.4385 4.39138 0
M  V30 2795 C 263.007 4.36755 4.64246 0
M  V30 2796 C 260.694 3.71237 4.85414 0
M  V30 2797 C 261.692 4.67503 4.97926 0
M  V30 2798 O 261.38 5.92624 5.43187 0
M  V30 2799 H 261.112 0.218987 0.639547 0
M  V30 2800 H 263.666 1.24452 1.63404 0
M  V30 2801 H 261.896 0.0034663 3.867 0
M  V30 2802 H 263.585 0.384607 4.04074 0
M  V30 2803 H 264.351 2.86478 3.91351 0
M  V30 2804 H 260.23 1.69665 4.28643 0
M  V30 2805 H 263.774 5.11898 4.73927 0
M  V30 2806 H 259.671 3.94182 5.11166 0
M  V30 2807 H 260.439 5.95585 5.61445 0
M  V30 2808 N 263.102 -1.41638 0.69111 0
M  V30 2809 C 264.05 -2.32597 0.0115199 0
M  V30 2810 C 265.044 -1.5072 -0.773296 0
M  V30 2811 O 266.25 -1.66685 -0.67942 0
M  V30 2812 H 262.625 -0.751849 -0.0150746 0
M  V30 2813 H 264.596 -2.87593 0.795791 0
M  V30 2814 C 263.345 -3.35467 -0.914172 0
M  V30 2815 H 262.668 -3.9852 -0.319687 0
M  V30 2816 H 264.108 -4.01662 -1.35808 0
M  V30 2817 C 262.567 -2.69004 -2.02826 0
M  V30 2818 O 263.097 -2.53444 -3.11655 0
M  V30 2819 N 261.303 -2.2777 -1.80469 0
M  V30 2820 H 260.85 -2.40626 -0.919615 0
M  V30 2821 H 260.808 -1.83635 -2.55197 0
M  V30 2822 N 264.58 -0.43555 -1.51462 0
M  V30 2823 C 265.51 0.367376 -2.30592 0
M  V30 2824 C 266.491 1.02263 -1.35928 0
M  V30 2825 O 267.676 1.02661 -1.64847 0
M  V30 2826 C 264.806 1.46983 -3.14664 0
M  V30 2827 C 263.76 0.938161 -4.17591 0
M  V30 2828 C 263.086 2.13622 -4.90173 0
M  V30 2829 C 264.386 -0.0261621 -5.22293 0
M  V30 2830 H 266.08 -0.292969 -2.97963 0
M  V30 2831 H 263.626 -0.14234 -1.43295 0
M  V30 2832 H 265.579 2.03873 -3.688 0
M  V30 2833 H 264.303 2.15843 -2.4511 0
M  V30 2834 H 262.962 0.391481 -3.64504 0
M  V30 2835 H 262.61 2.81098 -4.17124 0
M  V30 2836 H 262.31 1.78688 -5.59772 0
M  V30 2837 H 263.834 2.7107 -5.47132 0
M  V30 2838 H 265.248 0.452384 -5.71512 0
M  V30 2839 H 263.645 -0.287992 -5.99409 0
M  V30 2840 H 264.715 -0.963391 -4.75233 0
M  V30 2841 N 266.058 1.56714 -0.166846 0
M  V30 2842 C 266.988 2.20754 0.760913 0
M  V30 2843 C 267.969 1.16178 1.24244 0
M  V30 2844 O 269.154 1.44592 1.29641 0
M  V30 2845 C 266.284 2.84478 1.99223 0
M  V30 2846 C 265.238 3.95053 1.64672 0
M  V30 2847 C 264.564 4.45805 2.95232 0
M  V30 2848 C 265.864 5.14865 0.878155 0
M  V30 2849 H 267.558 2.98537 0.22713 0
M  V30 2850 H 265.104 1.43596 0.107805 0
M  V30 2851 H 267.057 3.27951 2.64624 0
M  V30 2852 H 265.781 2.04056 2.55007 0
M  V30 2853 H 264.44 3.52228 1.01641 0
M  V30 2854 H 264.088 3.62181 3.49047 0
M  V30 2855 H 263.788 5.204 2.7287 0
M  V30 2856 H 265.312 4.91962 3.6167 0
M  V30 2857 H 266.726 5.55059 1.43466 0
M  V30 2858 H 265.123 5.95348 0.753738 0
M  V30 2859 H 266.193 4.84735 -0.126377 0
M  V30 2860 N 267.536 -0.106894 1.57237 0
M  V30 2861 C 268.484 -1.14944 2.02215 0
M  V30 2862 C 269.478 -1.42167 0.92114 0
M  V30 2863 O 270.684 -1.41987 1.10634 0
M  V30 2864 H 267.059 -0.387841 0.64427 0
M  V30 2865 H 269.03 -0.743683 2.88984 0
M  V30 2866 C 267.779 -2.4647 2.4525 0
M  V30 2867 H 267.102 -2.26363 3.29545 0
M  V30 2868 H 268.542 -3.17948 2.80508 0
M  V30 2869 C 267.001 -3.09921 1.321 0
M  V30 2870 O 267.531 -3.9651 0.643622 0
M  V30 2871 N 265.737 -2.69986 1.07497 0
M  V30 2872 H 265.284 -1.99667 1.62761 0
M  V30 2873 H 265.242 -3.12769 0.319876 0
M  V30 2874 N 269.014 -1.53014 -0.377408 0
M  V30 2875 C 270.43 -1.42523 -0.718281 0
M  V30 2876 C 270.63 -0.55487 -1.9371 0
M  V30 2877 O 269.686 -0.0327593 -2.52479 0
M  V30 2878 C 270.999 -2.85546 -0.942539 0
M  V30 2879 C 272.547 -2.95101 -1.04329 0
M  V30 2880 C 273.022 -4.3916 -1.3001 0
M  V30 2881 N 274.513 -4.42536 -1.36806 0
M  V30 2882 C 275.248 -5.51097 -1.58364 0
M  V30 2883 N 274.744 -6.69724 -1.77317 0
M  V30 2884 N 276.537 -5.38657 -1.60638 0
M  V30 2885 H 268.688 -2.08116 0.424426 0
M  V30 2886 H 270.951 -0.939352 0.127759 0
M  V30 2887 H 270.657 -3.51499 -0.118929 0
M  V30 2888 H 270.531 -3.28493 -1.85397 0
M  V30 2889 H 272.918 -2.29309 -1.85745 0
M  V30 2890 H 272.999 -2.55566 -0.109505 0
M  V30 2891 H 272.643 -5.05521 -0.490991 0
M  V30 2892 H 272.573 -4.76258 -2.24691 0
M  V30 2893 H 275.064 -3.57039 -1.23821 0
M  V30 2894 H 275.377 -7.48233 -1.93306 0
M  V30 2895 H 273.722 -6.72732 -1.74518 0
M  V30 2896 H 276.913 -4.44948 -1.45391 0
M  V30 2897 H 277.086 -6.2333 -1.77098 0
M  V30 2898 N 270.492 0.636531 -1.44174 0
M  V30 2899 C 271.402 1.77754 -1.53103 0
M  V30 2900 C 272.418 1.68928 -0.417034 0
M  V30 2901 O 273.594 1.89801 -0.6736 0
M  V30 2902 C 270.659 3.14115 -1.46741 0
M  V30 2903 C 269.72 3.34612 -2.68948 0
M  V30 2904 C 268.953 4.64467 -2.6288 0
M  V30 2905 O 269.176 5.44919 -1.68581 0
M  V30 2906 O 268.11 4.87049 -3.53648 0
M  V30 2907 H 271.936 1.73174 -2.49489 0
M  V30 2908 H 269.521 0.79709 -1.2636 0
M  V30 2909 H 271.403 3.95412 -1.45696 0
M  V30 2910 H 270.078 3.19249 -0.534975 0
M  V30 2911 H 268.985 2.53014 -2.75562 0
M  V30 2912 H 270.318 3.34336 -3.61221 0
M  V30 2913 N 271.97 1.30982 0.876444 0
M  V30 2914 C 272.933 1.18054 1.96459 0
M  V30 2915 C 273.933 0.109399 1.60427 0
M  V30 2916 O 275.123 0.358173 1.70478 0
M  V30 2917 C 272.255 0.810616 3.31122 0
M  V30 2918 H 273.448 2.14735 2.09354 0
M  V30 2919 H 271.001 1.145 1.06392 0
M  V30 2920 H 271.736 -0.155322 3.23928 0
M  V30 2921 H 271.521 1.58481 3.58645 0
M  V30 2922 H 273.011 0.743876 4.10921 0
M  V30 2923 N 273.449 -1.08991 1.13837 0
M  V30 2924 C 274.359 -2.19301 0.833333 0
M  V30 2925 C 275.375 -1.73026 -0.183847 0
M  V30 2926 O 276.551 -2.01395 -0.0138092 0
M  V30 2927 C 273.616 -3.45323 0.308651 0
M  V30 2928 C 272.677 -4.06255 1.38764 0
M  V30 2929 C 271.91 -5.26262 0.887896 0
M  V30 2930 O 272.133 -5.69747 -0.27287 0
M  V30 2931 O 271.067 -5.78435 1.66421 0
M  V30 2932 H 274.893 -2.47854 1.75506 0
M  V30 2933 H 272.478 -1.18012 0.916166 0
M  V30 2934 H 274.36 -4.21394 0.0216739 0
M  V30 2935 H 273.035 -3.18362 -0.585431 0
M  V30 2936 H 271.942 -3.318 1.72799 0
M  V30 2937 H 273.275 -4.37452 2.25602 0
M  V30 2938 N 274.927 -0.932562 -1.27047 0
M  V30 2939 C 275.874 -0.434072 -2.26681 0
M  V30 2940 C 276.844 0.501639 -1.58344 0
M  V30 2941 O 278.029 0.419734 -1.86126 0
M  V30 2942 C 275.169 0.30261 -3.43771 0
M  V30 2943 C 274.282 -0.667774 -4.26808 0
M  V30 2944 C 273.417 0.0892393 -5.31125 0
M  V30 2945 C 272.456 -0.873532 -6.05835 0
M  V30 2946 N 271.593 -0.148832 -7.01942 0
M  V30 2947 H 276.433 -1.28868 -2.68695 0
M  V30 2948 H 273.97 -0.646713 -1.32121 0
M  V30 2949 H 275.928 0.746092 -4.10474 0
M  V30 2950 H 274.558 1.12142 -3.02695 0
M  V30 2951 H 273.61 -1.22978 -3.59973 0
M  V30 2952 H 274.922 -1.40337 -4.78651 0
M  V30 2953 H 274.076 0.592409 -6.03801 0
M  V30 2954 H 272.815 0.85777 -4.80097 0
M  V30 2955 H 271.82 -1.38791 -5.31994 0
M  V30 2956 H 273.045 -1.64193 -6.58952 0
M  V30 2957 H 270.991 0.601365 -6.53238 0
M  V30 2958 H 270.908 -0.82391 -7.51497 0
M  V30 2959 H 272.176 0.333527 -7.78786 0
M  V30 2960 N 276.405 1.4127 -0.698611 0
M  V30 2961 C 277.633 2.05503 -0.239992 0
M  V30 2962 C 278.048 1.52584 1.11191 0
M  V30 2963 O 277.405 0.675323 1.69545 0
M  V30 2964 C 277.456 3.60987 -0.192429 0
M  V30 2965 O 277.177 4.1195 -1.49094 0
M  V30 2966 C 278.678 4.42371 0.28681 0
M  V30 2967 H 275.898 0.661748 -0.111045 0
M  V30 2968 H 278.442 1.80987 -0.95205 0
M  V30 2969 H 276.597 3.84533 0.470472 0
M  V30 2970 H 277.011 5.06018 -1.38007 0
M  V30 2971 H 278.485 5.51344 0.26896 0
M  V30 2972 H 278.962 4.18699 1.32619 0
M  V30 2973 H 279.568 4.23897 -0.345201 0
M  V30 2974 N 277.883 0.443576 1.51229 0
M  V30 2975 C 279.13 -0.120796 2.02139 0
M  V30 2976 C 279.458 -1.42166 1.32736 0
M  V30 2977 O 278.713 -1.90849 0.43301 0
M  V30 2978 C 279.012 -0.380579 3.55368 0
M  V30 2979 C 278.678 0.83523 4.43097 0
M  V30 2980 C 277.34 1.16864 4.66794 0
M  V30 2981 C 279.692 1.64601 4.94526 0
M  V30 2982 C 277.02 2.31339 5.39165 0
M  V30 2983 C 279.372 2.78181 5.68153 0
M  V30 2984 C 278.036 3.11969 5.90112 0
M  V30 2985 H 277.306 -0.0442023 0.73968 0
M  V30 2986 H 279.953 0.592046 1.82118 0
M  V30 2987 H 278.258 -1.17538 3.73754 0
M  V30 2988 H 279.955 -0.830777 3.923 0
M  V30 2989 H 276.545 0.565437 4.24854 0
M  V30 2990 H 280.729 1.40163 4.76097 0
M  V30 2991 H 275.985 2.57823 5.5438 0
M  V30 2992 H 280.159 3.41371 6.06992 0
M  V30 2993 H 277.786 4.00784 6.45969 0
M  V30 2994 N 279.361 -1.56624 0.175154 0
M  V30 2995 C 280.608 -1.96999 -0.468811 0
M  V30 2996 C 280.936 -1.06129 -1.62994 0
M  V30 2997 O 280.191 -0.0961771 -1.95464 0
M  V30 2998 C 280.49 -3.43419 -0.989864 0
M  V30 2999 C 280.156 -4.50866 0.0557687 0
M  V30 3000 C 278.818 -4.79975 0.343134 0
M  V30 3001 C 281.17 -5.15551 0.765308 0
M  V30 3002 C 278.498 -5.71066 1.34536 0
M  V30 3003 C 280.85 -6.07724 1.75654 0
M  V30 3004 C 279.514 -6.35199 2.05132 0
M  V30 3005 H 278.784 -0.720869 -0.17155 0
M  V30 3006 H 281.431 -1.89616 0.267924 0
M  V30 3007 H 279.736 -3.47772 -1.80449 0
M  V30 3008 H 281.433 -3.72002 -1.49719 0
M  V30 3009 H 278.023 -4.28229 -0.178381 0
M  V30 3010 H 282.207 -4.9317 0.556513 0
M  V30 3011 H 277.463 -5.90635 1.57988 0
M  V30 3012 H 281.637 -6.56912 2.31169 0
M  V30 3013 H 279.264 -7.05584 2.8294 0
M  V30 3014 N 280.839 0.0985539 -1.57292 0
M  V30 3015 C 282.25 0.653457 -1.74891 0
M  V30 3016 C 282.601 1.7929 -0.796838 0
M  V30 3017 O 281.726 2.16385 0.0254886 0
M  V30 3018 C 282.321 1.19216 -3.17133 0
M  V30 3019 C 280.88 1.69316 -3.36168 0
M  V30 3020 C 280.027 0.601294 -2.70702 0
M  V30 3021 H 282.978 -0.127497 -1.58187 0
M  V30 3022 H 282.999 2.06154 -3.19814 0
M  V30 3023 H 282.511 0.362635 -3.86402 0
M  V30 3024 H 280.612 2.5468 -2.71972 0
M  V30 3025 H 280.725 1.78853 -4.44464 0
M  V30 3026 H 279.089 1.0399 -2.32504 0
M  V30 3027 H 279.872 -0.217592 -3.4261 0
M  V30 3028 N 282.317 1.53212 0.369288 0
M  V30 3029 C 283.547 1.72868 1.13139 0
M  V30 3030 C 283.955 0.455754 1.83629 0
M  V30 3031 O 283.298 -0.580861 1.74275 0
M  V30 3032 C 283.36 2.83667 2.20847 0
M  V30 3033 C 283.024 4.24142 1.70155 0
M  V30 3034 C 284.021 5.06619 1.16763 0
M  V30 3035 C 281.706 4.70539 1.7578 0
M  V30 3036 C 283.7 6.33581 0.696678 0
M  V30 3037 C 281.387 5.97481 1.28297 0
M  V30 3038 C 282.385 6.78833 0.753307 0
M  V30 3039 O 282.073 8.03393 0.285475 0
M  V30 3040 H 281.805 0.581707 0.344373 0
M  V30 3041 H 284.359 2.00736 0.435243 0
M  V30 3042 H 282.589 2.51265 2.93944 0
M  V30 3043 H 284.278 2.91536 2.82421 0
M  V30 3044 H 285.044 4.71948 1.11758 0
M  V30 3045 H 280.923 4.07293 2.15949 0
M  V30 3046 H 284.467 6.97027 0.282581 0
M  V30 3047 H 280.364 6.31651 1.32994 0
M  V30 3048 H 281.132 8.17497 0.405145 0
M  V30 3049 N 283.795 -0.628877 1.44509 0
M  V30 3050 C 285.023 -1.41554 1.50897 0
M  V30 3051 C 285.438 -1.8832 0.134564 0
M  V30 3052 O 284.795 -1.60969 -0.859965 0
M  V30 3053 C 284.846 -2.63435 2.47556 0
M  V30 3054 O 284.567 -2.18619 3.79654 0
M  V30 3055 C 286.068 -3.56537 2.63431 0
M  V30 3056 H 283.288 -0.434044 0.511709 0
M  V30 3057 H 285.832 -0.768895 1.89495 0
M  V30 3058 H 283.987 -3.24187 2.12089 0
M  V30 3059 H 284.401 -2.97652 4.31861 0
M  V30 3060 H 285.875 -4.38657 3.35088 0
M  V30 3061 H 286.352 -4.05493 1.68738 0
M  V30 3062 H 286.958 -3.01653 2.9981 0
M  V30 3063 N 285.273 -1.31445 -0.869486 0
M  V30 3064 C 286.22 -1.19135 -1.97675 0
M  V30 3065 C 287.19 -0.0770266 -1.65921 0
M  V30 3066 O 288.375 -0.249972 -1.89155 0
M  V30 3067 C 285.515 -0.905149 -3.33018 0
M  V30 3068 C 284.628 -2.10285 -3.77365 0
M  V30 3069 C 283.763 -1.75339 -5.01427 0
M  V30 3070 C 282.802 -2.91515 -5.38224 0
M  V30 3071 N 281.939 -2.56762 -6.53466 0
M  V30 3072 H 286.779 -2.13853 -2.07535 0
M  V30 3073 H 284.316 -1.06379 -1.01597 0
M  V30 3074 H 286.274 -0.719765 -4.10944 0
M  V30 3075 H 284.904 0.00519624 -3.228 0
M  V30 3076 H 283.956 -2.39899 -2.95216 0
M  V30 3077 H 285.268 -2.97237 -4.00564 0
M  V30 3078 H 284.422 -1.53266 -5.87022 0
M  V30 3079 H 283.161 -0.855801 -4.80133 0
M  V30 3080 H 282.166 -3.14237 -4.51149 0
M  V30 3081 H 283.391 -3.81985 -5.61484 0
M  V30 3082 H 281.337 -1.69526 -6.33717 0
M  V30 3083 H 281.254 -3.37243 -6.76612 0
M  V30 3084 H 282.522 -2.38083 -7.42251 0
M  V30 3085 N 286.751 1.08385 -1.14413 0
M  V30 3086 C 287.661 2.18856 -0.844951 0
M  V30 3087 C 288.677 1.73121 0.174668 0
M  V30 3088 O 289.853 2.014 0.00312857 0
M  V30 3089 C 286.918 3.45155 -0.32696 0
M  V30 3090 C 285.979 4.05513 -1.40916 0
M  V30 3091 C 285.212 5.25784 -0.915793 0
M  V30 3092 O 285.435 5.69884 0.242651 0
M  V30 3093 O 284.369 5.77545 -1.69487 0
M  V30 3094 H 288.195 2.46919 -1.76818 0
M  V30 3095 H 285.78 1.17524 -0.922411 0
M  V30 3096 H 287.662 4.21377 -0.0440211 0
M  V30 3097 H 286.337 3.18668 0.568539 0
M  V30 3098 H 285.244 3.30879 -1.74556 0
M  V30 3099 H 286.577 4.3625 -2.27919 0
M  V30 3100 N 288.23 0.939286 1.26551 0
M  V30 3101 C 289.18 0.418284 2.2413 0
M  V30 3102 C 290.164 -0.483935 1.5345 0
M  V30 3103 O 291.356 -0.319489 1.74093 0
M  V30 3104 C 288.485 -0.31709 3.41832 0
M  V30 3105 C 287.571 0.602311 4.19801 0
M  V30 3106 N 287.962 1.72726 4.75394 0
M  V30 3107 C 286.26 0.407534 4.44134 0
M  V30 3108 C 286.961 2.30004 5.34297 0
M  V30 3109 N 285.937 1.58828 5.1988 0
M  V30 3110 H 289.739 1.27705 2.64705 0
M  V30 3111 H 287.253 0.794929 1.41614 0
M  V30 3112 H 289.25 -0.707364 4.10855 0
M  V30 3113 H 287.91 -1.17264 3.02786 0
M  V30 3114 H 288.921 2.10944 4.72994 0
M  V30 3115 H 285.598 -0.406406 4.15517 0
M  V30 3116 H 286.988 3.24778 5.88191 0
M  V30 3117 N 289.708 -1.40897 0.706093 0
M  V30 3118 C 290.656 -2.32572 0.0361893 0
M  V30 3119 C 291.65 -1.51532 -0.757266 0
M  V30 3120 O 292.856 -1.67396 -0.661703 0
M  V30 3121 H 289.231 -0.751966 -0.00709935 0
M  V30 3122 H 291.202 -2.86733 0.826249 0
M  V30 3123 C 289.951 -3.36418 -0.87854 0
M  V30 3124 H 289.274 -3.98836 -0.277401 0
M  V30 3125 H 290.714 -4.0308 -1.3154 0
M  V30 3126 C 289.173 -2.71141 -1.99961 0
M  V30 3127 O 289.703 -2.56735 -3.0895 0
M  V30 3128 N 287.909 -2.29671 -1.78043 0
M  V30 3129 H 287.456 -2.41588 -0.894042 0
M  V30 3130 H 287.414 -1.86332 -2.53235 0
M  V30 3131 N 291.186 -0.45159 -1.50991 0
M  V30 3132 C 292.435 0.111653 -2.01391 0
M  V30 3133 C 292.748 1.42529 -1.33959 0
M  V30 3134 O 293.954 2.07232 -1.75405 0
M  V30 3135 C 292.41 0.249514 -3.59034 0
M  V30 3136 C 292.018 -1.05453 -4.35412 0
M  V30 3137 C 293.762 0.765762 -4.17536 0
M  V30 3138 C 291.669 -0.881529 -5.84793 0
M  V30 3139 H 290.599 0.0455022 -0.752626 0
M  V30 3140 H 293.25 -0.583524 -1.73975 0
M  V30 3141 H 291.632 1.00803 -3.82955 0
M  V30 3142 H 292.806 -1.82248 -4.23229 0
M  V30 3143 H 291.121 -1.50039 -3.88429 0
M  V30 3144 H 293.718 0.911913 -5.26866 0
M  V30 3145 H 294.061 1.75201 -3.77638 0
M  V30 3146 H 294.594 0.0651744 -3.97747 0
M  V30 3147 H 291.333 -1.84057 -6.29129 0
M  V30 3148 H 290.853 -0.153625 -5.99603 0
M  V30 3149 H 292.532 -0.540363 -6.4474 0
M  V30 3150 N 292.664 1.56529 -0.183458 0
M  V30 3151 C 293.889 2.02064 0.467428 0
M  V30 3152 C 294.314 1.06282 1.55196 0
M  V30 3153 O 293.672 0.0443565 1.81246 0
M  V30 3154 C 293.72 3.46122 1.01153 0
M  V30 3155 O 292.824 3.53437 2.12499 0
M  V30 3156 H 292.165 0.654726 0.110588 0
M  V30 3157 H 294.695 2.02521 -0.290917 0
M  V30 3158 H 294.705 3.85676 1.33108 0
M  V30 3159 H 293.38 4.15331 0.217533 0
M  V30 3160 H 291.957 3.2575 1.81497 0
M  V30 3161 N 294.142 -0.090211 1.57342 0
M  V30 3162 C 295.389 -0.792807 1.86335 0
M  V30 3163 C 295.717 -1.78494 0.772662 0
M  V30 3164 O 294.972 -1.94305 -0.233258 0
M  V30 3165 C 295.271 -1.55222 3.21933 0
M  V30 3166 C 294.937 -0.701765 4.45406 0
M  V30 3167 C 293.599 -0.467334 4.78925 0
M  V30 3168 C 295.951 -0.11086 5.21082 0
M  V30 3169 C 293.279 0.367785 5.85546 0
M  V30 3170 C 295.631 0.711609 6.28585 0
M  V30 3171 C 294.295 0.956086 6.60617 0
M  V30 3172 H 293.565 -0.290109 0.681849 0
M  V30 3173 H 296.212 -0.0541332 1.91423 0
M  V30 3174 H 294.517 -2.3626 3.12551 0
M  V30 3175 H 296.214 -2.10032 3.41595 0
M  V30 3176 H 292.804 -0.894598 4.1916 0
M  V30 3177 H 296.988 -0.279129 4.95514 0
M  V30 3178 H 292.244 0.566128 6.08773 0
M  V30 3179 H 296.418 1.17632 6.86393 0
M  V30 3180 H 294.045 1.60499 7.43064 0
M  V30 3181 N 295.62 -1.53406 -0.361157 0
M  V30 3182 C 296.869 -1.69022 -1.10066 0
M  V30 3183 C 297.182 -0.450838 -1.90333 0
M  V30 3184 O 298.388 -0.487617 -2.67085 0
M  V30 3185 C 296.844 -2.98812 -2.00598 0
M  V30 3186 C 296.452 -4.30027 -1.25621 0
M  V30 3187 C 298.196 -3.23795 -2.74513 0
M  V30 3188 C 296.103 -5.50903 -2.1508 0
M  V30 3189 H 295.033 -0.629776 -0.414606 0
M  V30 3190 H 297.684 -1.79907 -0.361348 0
M  V30 3191 H 296.066 -2.8174 -2.78278 0
M  V30 3192 H 297.24 -4.57745 -0.529739 0
M  V30 3193 H 295.555 -4.11522 -0.635496 0
M  V30 3194 H 298.152 -4.11289 -3.41681 0
M  V30 3195 H 298.495 -2.40045 -3.40123 0
M  V30 3196 H 299.028 -3.41561 -2.03914 0
M  V30 3197 H 295.767 -6.37143 -1.54041 0
M  V30 3198 H 295.287 -5.27459 -2.85565 0
M  V30 3199 H 296.966 -5.85865 -2.74538 0
M  V30 3200 N 297.098 0.621204 -1.44841 0
M  V30 3201 C 298.509 1.20298 -1.42777 0
M  V30 3202 C 298.86 1.95639 -0.148259 0
M  V30 3203 O 297.985 2.02955 0.750892 0
M  V30 3204 C 298.58 2.1882 -2.58657 0
M  V30 3205 C 297.139 2.72403 -2.59756 0
M  V30 3206 C 296.286 1.4757 -2.34773 0
M  V30 3207 H 299.237 0.411297 -1.53278 0
M  V30 3208 H 299.258 3.01607 -2.31977 0
M  V30 3209 H 298.77 1.63957 -3.51766 0
M  V30 3210 H 296.871 3.31242 -1.70615 0
M  V30 3211 H 296.984 3.17765 -3.58556 0
M  V30 3212 H 295.348 1.76051 -1.8406 0
M  V30 3213 H 296.131 0.945954 -3.3001 0
M  V30 3214 N 298.576 1.31904 0.862503 0
M  V30 3215 C 299.806 1.24817 1.64634 0
M  V30 3216 C 300.214 -0.187579 1.88268 0
M  V30 3217 O 299.557 -1.13253 1.44635 0
M  V30 3218 C 299.619 1.92996 3.03303 0
M  V30 3219 C 299.283 3.42336 3.02746 0
M  V30 3220 C 300.28 4.37956 2.80162 0
M  V30 3221 C 297.965 3.84147 3.2363 0
M  V30 3222 C 299.959 5.73361 2.78453 0
M  V30 3223 C 297.646 5.19663 3.21549 0
M  V30 3224 C 298.644 6.14081 2.98988 0
M  V30 3225 O 298.332 7.47118 2.96766 0
M  V30 3226 H 298.064 0.432222 0.519769 0
M  V30 3227 H 300.618 1.7445 1.08427 0
M  V30 3228 H 298.848 1.37922 3.61268 0
M  V30 3229 H 300.537 1.79723 3.63943 0
M  V30 3230 H 301.303 4.06981 2.63802 0
M  V30 3231 H 297.182 3.11083 3.40218 0
M  V30 3232 H 300.726 6.4703 2.60763 0
M  V30 3233 H 296.623 5.5027 3.37451 0
M  V30 3234 H 297.391 7.56382 3.12775 0
M  V30 3235 N 300.054 -1.07777 1.14986 0
M  V30 3236 C 301.301 -1.8029 0.922056 0
M  V30 3237 C 301.629 -1.86531 -0.55105 0
M  V30 3238 O 300.884 -1.34189 -1.42449 0
M  V30 3239 C 301.183 -3.25495 1.47608 0
M  V30 3240 C 300.849 -3.39361 2.96893 0
M  V30 3241 C 299.511 -3.42852 3.37647 0
M  V30 3242 C 301.863 -3.42512 3.92854 0
M  V30 3243 C 299.191 -3.47094 4.73015 0
M  V30 3244 C 301.543 -3.4829 5.28088 0
M  V30 3245 C 300.207 -3.50058 5.68345 0
M  V30 3246 H 299.477 -0.659727 0.337404 0
M  V30 3247 H 302.124 -1.26854 1.43459 0
M  V30 3248 H 300.429 -3.81683 0.88463 0
M  V30 3249 H 302.126 -3.80168 1.27568 0
M  V30 3250 H 298.716 -3.37339 2.64387 0
M  V30 3251 H 302.9 -3.3904 3.62444 0
M  V30 3252 H 298.156 -3.46758 5.03556 0
M  V30 3253 H 302.33 -3.49675 6.02246 0
M  V30 3254 H 299.957 -3.53097 6.73221 0
M  V30 3255 N 301.532 -0.945985 -1.26051 0
M  V30 3256 C 302.943 -0.638096 -1.75457 0
M  V30 3257 C 303.294 0.846672 -1.76991 0
M  V30 3258 O 302.419 1.66262 -1.38513 0
M  V30 3259 C 303.014 -1.15157 -3.18629 0
M  V30 3260 C 301.573 -0.894004 -3.65629 0
M  V30 3261 C 300.72 -1.29967 -2.44957 0
M  V30 3262 H 303.671 -1.12376 -1.1206 0
M  V30 3263 H 303.692 -0.507615 -3.77099 0
M  V30 3264 H 303.204 -2.23222 -3.1748 0
M  V30 3265 H 301.305 0.172057 -3.72203 0
M  V30 3266 H 301.418 -1.52439 -4.54202 0
M  V30 3267 H 299.782 -0.718078 -2.44368 0
M  V30 3268 H 300.565 -2.38935 -2.46505 0
M  V30 3269 N 303.011 1.40521 -0.713556 0
M  V30 3270 C 303.941 2.33381 -0.0743864 0
M  V30 3271 C 304.922 1.52784 0.747735 0
M  V30 3272 O 306.107 1.81258 0.697071 0
M  V30 3273 C 303.237 3.36748 0.849598 0
M  V30 3274 C 302.191 4.27793 0.133247 0
M  V30 3275 C 301.517 5.21679 1.17281 0
M  V30 3276 C 302.817 5.12415 -1.01134 0
M  V30 3277 H 304.511 2.87081 -0.850007 0
M  V30 3278 H 302.057 1.38034 -0.410201 0
M  V30 3279 H 304.01 4.00648 1.30612 0
M  V30 3280 H 302.734 2.81439 1.65709 0
M  V30 3281 H 301.393 3.65342 -0.303426 0
M  V30 3282 H 301.041 4.62677 1.9733 0
M  V30 3283 H 300.741 5.83435 0.698397 0
M  V30 3284 H 302.265 5.88456 1.62947 0
M  V30 3285 H 303.679 5.69781 -0.634274 0
M  V30 3286 H 302.076 5.83203 -1.41399 0
M  V30 3287 H 303.146 4.48514 -1.84292 0
M  V30 3288 N 304.489 0.459591 1.5075 0
M  V30 3289 C 305.735 -0.0994966 2.02556 0
M  V30 3290 C 306.068 -1.40399 1.3417 0
M  V30 3291 O 305.343 -1.88892 0.463683 0
M  V30 3292 C 305.626 -0.295242 3.58888 0
M  V30 3293 C 305.479 1.02947 4.37861 0
M  V30 3294 C 306.798 -1.05502 4.27267 0
M  V30 3295 H 303.917 -0.034686 0.736183 0
M  V30 3296 H 306.559 0.602938 1.8018 0
M  V30 3297 H 304.709 -0.893563 3.78084 0
M  V30 3298 H 306.381 1.66348 4.30263 0
M  V30 3299 H 304.624 1.62885 4.02058 0
M  V30 3300 H 305.295 0.846281 5.45474 0
M  V30 3301 H 307.771 -0.547993 4.12476 0
M  V30 3302 H 306.647 -1.16077 5.36486 0
M  V30 3303 H 306.908 -2.08875 3.89645 0
M  V30 3304 N 305.967 -1.56429 0.191757 0
M  V30 3305 C 307.192 -2.02309 -0.456706 0
M  V30 3306 C 307.617 -1.07103 -1.5463 0
M  V30 3307 O 306.975 -0.0539677 -1.8122 0
M  V30 3308 C 307.023 -3.46654 -0.993159 0
M  V30 3309 O 306.127 -3.54559 -2.10622 0
M  V30 3310 H 305.468 -0.655303 -0.107114 0
M  V30 3311 H 307.998 -2.02364 0.301653 0
M  V30 3312 H 308.008 -3.86377 -1.31061 0
M  V30 3313 H 306.683 -4.1544 -0.195504 0
M  V30 3314 H 305.26 -3.26708 -1.79767 0
M  V30 3315 N 307.445 0.0818655 -1.57387 0
M  V30 3316 C 308.693 0.781368 -1.86384 0
M  V30 3317 C 309.014 1.78618 -0.782342 0
M  V30 3318 O 308.284 1.94976 0.190061 0
M  V30 3319 H 306.864 0.291562 -0.687751 0
M  V30 3320 H 309.526 0.060348 -1.94807 0
M  V30 3321 H 308.622 1.3038 -2.83562 0
M  V30 3322 N 308.923 1.53595 0.353017 0
M  V30 3323 C 309.853 1.83902 1.43883 0
M  V30 3324 C 310.834 0.693421 1.55324 0
M  V30 3325 O 312.019 0.944452 1.69687 0
M  V30 3326 C 309.149 2.04016 2.8106 0
M  V30 3327 C 308.103 3.19814 2.84434 0
M  V30 3328 C 307.429 3.25244 4.24406 0
M  V30 3329 C 308.729 4.58133 2.50822 0
M  V30 3330 H 310.423 2.74835 1.1877 0
M  V30 3331 H 307.969 1.32242 0.569917 0
M  V30 3332 H 309.922 2.238 3.57059 0
M  V30 3333 H 308.646 1.09804 3.07588 0
M  V30 3334 H 307.305 2.9987 2.10887 0
M  V30 3335 H 306.953 2.28646 4.48029 0
M  V30 3336 H 306.653 4.03054 4.27576 0
M  V30 3337 H 308.177 3.47228 5.0226 0
M  V30 3338 H 309.591 4.77995 3.16534 0
M  V30 3339 H 307.988 5.38276 2.6529 0
M  V30 3340 H 309.058 4.62387 1.46034 0
M  V30 3341 N 310.401 -0.613514 1.45168 0
M  V30 3342 C 311.331 -1.7354 1.56225 0
M  V30 3343 C 312.312 -1.64981 0.41414 0
M  V30 3344 O 313.497 -1.83472 0.636526 0
M  V30 3345 C 310.627 -3.12128 1.52295 0
M  V30 3346 C 309.581 -3.35491 2.65762 0
M  V30 3347 C 308.907 -4.74291 2.46885 0
M  V30 3348 C 310.207 -3.26325 4.0781 0
M  V30 3349 H 311.901 -1.64543 2.50132 0
M  V30 3350 H 309.447 -0.790185 1.20383 0
M  V30 3351 H 311.4 -3.90404 1.58628 0
M  V30 3352 H 310.124 -3.2195 0.549139 0
M  V30 3353 H 308.783 -2.59603 2.58847 0
M  V30 3354 H 308.431 -4.80839 1.47657 0
M  V30 3355 H 308.131 -4.9088 3.22972 0
M  V30 3356 H 309.655 -5.54775 2.55063 0
M  V30 3357 H 311.069 -3.94483 4.16 0
M  V30 3358 H 309.466 -3.54445 4.8424 0
M  V30 3359 H 310.536 -2.23855 4.30136 0
M  V30 3360 N 311.879 -1.3236 -0.855495 0
M  V30 3361 C 312.842 -1.21164 -1.94556 0
M  V30 3362 C 313.842 -0.134908 -1.60233 0
M  V30 3363 O 315.032 -0.385249 -1.69887 0
M  V30 3364 C 312.164 -0.863192 -3.29791 0
M  V30 3365 H 313.357 -2.18038 -2.05911 0
M  V30 3366 H 310.91 -1.16179 -1.04557 0
M  V30 3367 H 311.645 0.103769 -3.24134 0
M  V30 3368 H 311.43 -1.64166 -3.56078 0
M  V30 3369 H 312.92 -0.809156 -4.09686 0
M  V30 3370 N 313.357 1.07166 -1.15556 0
M  V30 3371 C 314.605 1.79443 -0.929764 0
M  V30 3372 C 314.926 1.87246 0.544414 0
M  V30 3373 O 314.196 1.37473 1.39564 0
M  V30 3374 H 312.776 0.664625 -0.341003 0
M  V30 3375 H 315.438 1.29499 -1.45657 0
M  V30 3376 H 314.534 2.81832 -1.34079 0
M  V30 3377 N 314.835 0.952656 1.25548 0
M  V30 3378 C 315.782 0.47008 2.25962 0
M  V30 3379 C 316.752 -0.476384 1.59122 0
M  V30 3380 O 317.937 -0.39007 1.8677 0
M  V30 3381 C 315.077 -0.247881 3.44209 0
M  V30 3382 C 314.19 0.735591 4.25691 0
M  V30 3383 C 313.325 -0.0047306 5.312 0
M  V30 3384 C 312.364 0.969805 6.04368 0
M  V30 3385 N 311.501 0.260486 7.01617 0
M  V30 3386 H 316.341 1.33126 2.66611 0
M  V30 3387 H 313.878 0.66765 1.31076 0
M  V30 3388 H 315.836 -0.680695 4.1161 0
M  V30 3389 H 314.466 -1.07312 3.0444 0
M  V30 3390 H 313.518 1.28689 3.57971 0
M  V30 3391 H 314.83 1.47934 4.76358 0
M  V30 3392 H 313.984 -0.496275 6.04667 0
M  V30 3393 H 312.723 -0.781282 4.81401 0
M  V30 3394 H 311.728 1.47237 5.29718 0
M  V30 3395 H 312.953 1.74655 6.56256 0
M  V30 3396 H 310.899 -0.497364 6.54112 0
M  V30 3397 H 310.816 0.943362 7.50091 0
M  V30 3398 H 312.084 -0.209587 7.79218 0
M  V30 3399 N 316.313 -1.40141 0.720998 0
M  V30 3400 C 317.543 -2.04798 0.27226 0
M  V30 3401 C 317.951 -1.54442 -1.09289 0
M  V30 3402 O 317.294 -0.698342 -1.69908 0
M  V30 3403 C 317.356 -3.59048 0.18027 0
M  V30 3404 C 317.02 -4.32317 1.48159 0
M  V30 3405 C 318.017 -4.59902 2.42458 0
M  V30 3406 C 315.702 -4.71125 1.74202 0
M  V30 3407 C 317.696 -5.25288 3.61042 0
M  V30 3408 C 315.383 -5.36242 2.93066 0
M  V30 3409 C 316.381 -5.63254 3.86308 0
M  V30 3410 O 316.069 -6.27024 5.03086 0
M  V30 3411 H 315.801 -0.665419 0.119139 0
M  V30 3412 H 318.355 -1.80436 0.981432 0
M  V30 3413 H 316.585 -3.82251 -0.58489 0
M  V30 3414 H 318.274 -4.05221 -0.234618 0
M  V30 3415 H 319.04 -4.30379 2.23604 0
M  V30 3416 H 314.919 -4.49466 1.02477 0
M  V30 3417 H 318.463 -5.46289 4.33837 0
M  V30 3418 H 314.36 -5.65185 3.11826 0
M  V30 3419 H 315.128 -6.4552 5.03235 0
M  V30 3420 N 317.792 -0.46758 -1.50504 0
M  V30 3421 C 319.02 0.0864133 -2.06719 0
M  V30 3422 C 319.435 1.33819 -1.33184 0
M  V30 3423 O 318.792 1.78061 -0.400083 0
M  V30 3424 C 318.843 0.378079 -3.59517 0
M  V30 3425 O 318.564 -0.824044 -4.3028 0
M  V30 3426 C 320.065 0.979426 -4.32345 0
M  V30 3427 H 317.285 -0.00551697 -0.670977 0
M  V30 3428 H 319.829 -0.655354 -1.93715 0
M  V30 3429 H 317.984 1.06977 -3.72337 0
M  V30 3430 H 318.398 -0.566518 -5.21432 0
M  V30 3431 H 319.872 1.1333 -5.40241 0
M  V30 3432 H 320.349 1.9686 -3.9261 0
M  V30 3433 H 320.955 0.326216 -4.24047 0
M  V30 3434 N 319.27 1.56325 -0.20005 0
M  V30 3435 C 320.18 2.22931 0.730668 0
M  V30 3436 C 321.196 1.22997 1.23076 0
M  V30 3437 O 322.372 1.55748 1.27689 0
M  V30 3438 C 319.437 2.87948 1.93098 0
M  V30 3439 C 318.498 4.03166 1.47497 0
M  V30 3440 C 317.731 4.65073 2.61807 0
M  V30 3441 O 317.954 4.25913 3.79413 0
M  V30 3442 O 316.888 5.54452 2.34237 0
M  V30 3443 H 320.714 3.03084 0.193391 0
M  V30 3444 H 318.299 1.49371 0.0294621 0
M  V30 3445 H 320.181 3.29063 2.6324 0
M  V30 3446 H 318.856 2.10771 2.45677 0
M  V30 3447 H 317.763 3.66664 0.742201 0
M  V30 3448 H 319.096 4.82022 0.995796 0
M  V30 3449 N 320.748 -0.0735177 1.57428 0
M  V30 3450 C 322.025 -0.805903 1.78226 0
M  V30 3451 C 322.405 -1.95874 0.787189 0
M  V30 3452 O 321.753 -2.2779 -0.180029 0
M  V30 3453 C 321.963 -1.28045 3.24662 0
M  V30 3454 C 323.311 -1.71453 3.88444 0
M  V30 3455 O 324.335 -1.37616 3.28543 0
M  V30 3456 O 323.194 -2.34093 4.93825 0
M  V30 3457 H 320.288 -0.386041 0.73137 0
M  V30 3458 H 322.834 -0.0537269 1.69615 0
M  V30 3459 H 321.606 -0.455476 3.8864 0
M  V30 3460 H 321.229 -2.094 3.37991 0
M  V30 3461 N 322.226 -1.5378 -0.344866 0
M  V30 3462 C 323.454 -1.74899 -1.10534 0
M  V30 3463 C 323.869 -0.487534 -1.82397 0
M  V30 3464 O 323.226 0.540741 -1.74305 0
M  V30 3465 C 323.277 -2.92822 -2.11984 0
M  V30 3466 O 322.998 -4.14089 -1.43044 0
M  V30 3467 C 324.499 -3.25982 -3.00417 0
M  V30 3468 H 321.719 -0.584426 -0.329678 0
M  V30 3469 H 324.263 -2.006 -0.397474 0
M  V30 3470 H 322.418 -2.69457 -2.78338 0
M  V30 3471 H 322.832 -4.80272 -2.10805 0
M  V30 3472 H 324.306 -4.11848 -3.67539 0
M  V30 3473 H 324.783 -2.42228 -3.66363 0
M  V30 3474 H 325.389 -3.51349 -2.39654 0
M  V30 3475 N 323.704 0.605807 -1.45491 0
M  V30 3476 C 324.932 1.39136 -1.5313 0
M  V30 3477 C 325.347 1.88082 -0.164507 0
M  V30 3478 O 324.704 1.62316 0.834247 0
M  V30 3479 C 324.755 2.59463 -2.51716 0
M  V30 3480 O 324.476 2.12551 -3.83084 0
M  V30 3481 C 325.977 3.52301 -2.6907 0
M  V30 3482 H 323.197 0.425849 -0.51855 0
M  V30 3483 H 325.741 0.73865 -1.90694 0
M  V30 3484 H 323.896 3.20772 -2.17219 0
M  V30 3485 H 324.31 2.90744 -4.36541 0
M  V30 3486 H 325.784 4.33271 -3.42024 0
M  V30 3487 H 326.261 4.02757 -1.75167 0
M  V30 3488 H 326.867 2.96845 -3.04571 0
M  V30 3489 N 325.182 1.32811 0.848464 0
M  V30 3490 C 326.429 1.23724 1.60308 0
M  V30 3491 C 326.757 -0.1994 1.93475 0
M  V30 3492 O 326.012 -1.15406 1.5805 0
M  V30 3493 C 326.311 2.04831 2.92881 0
M  V30 3494 C 325.977 3.54125 2.79117 0
M  V30 3495 C 324.639 3.94829 2.7507 0
M  V30 3496 C 326.991 4.49036 2.64606 0
M  V30 3497 C 324.319 5.28675 2.544 0
M  V30 3498 C 326.671 5.83033 2.4547 0
M  V30 3499 C 325.335 6.22931 2.39819 0
M  V30 3500 H 324.605 0.452737 0.586609 0
M  V30 3501 H 327.252 1.64301 0.983743 0
M  V30 3502 H 325.557 1.57001 3.58968 0
M  V30 3503 H 327.254 1.95164 3.50303 0
M  V30 3504 H 323.844 3.21801 2.83094 0
M  V30 3505 H 328.028 4.18505 2.66772 0
M  V30 3506 H 323.284 5.58637 2.48465 0
M  V30 3507 H 327.458 6.56186 2.33222 0
M  V30 3508 H 325.085 7.26584 2.23562 0
M  V30 3509 N 326.66 -1.06551 1.16123 0
M  V30 3510 C 328.071 -1.60768 0.949232 0
M  V30 3511 C 328.422 -1.89523 -0.507508 0
M  V30 3512 O 327.547 -1.66671 -1.38021 0
M  V30 3513 C 328.142 -2.92086 1.71671 0
M  V30 3514 C 326.701 -3.43015 1.54977 0
M  V30 3515 C 325.848 -2.16947 1.72711 0
M  V30 3516 H 328.799 -0.895354 1.31031 0
M  V30 3517 H 328.82 -3.6138 1.19099 0
M  V30 3518 H 328.332 -2.71127 2.7769 0
M  V30 3519 H 326.433 -3.69039 0.513873 0
M  V30 3520 H 326.546 -4.18516 2.33198 0
M  V30 3521 H 324.91 -2.27041 1.15431 0
M  V30 3522 H 325.693 -1.98473 2.80113 0
M  V30 3523 N 328.138 -0.959301 -1.25041 0
M  V30 3524 C 329.048 -0.489994 -2.29426 0
M  V30 3525 C 330.064 0.444944 -1.68215 0
M  V30 3526 O 331.24 0.320046 -1.98841 0
M  V30 3527 C 328.305 0.220309 -3.45999 0
M  V30 3528 C 327.366 -0.753418 -4.22637 0
M  V30 3529 C 326.599 -0.076918 -5.33645 0
M  V30 3530 O 326.822 1.13649 -5.58963 0
M  V30 3531 O 325.756 -0.764824 -5.97021 0
M  V30 3532 H 329.582 -1.35755 -2.71669 0
M  V30 3533 H 327.167 -0.725961 -1.30576 0
M  V30 3534 H 329.049 0.619677 -4.16819 0
M  V30 3535 H 327.724 1.06296 -3.0575 0
M  V30 3536 H 326.631 -1.20308 -3.54227 0
M  V30 3537 H 327.964 -1.56423 -4.66683 0
M  V30 3538 N 329.616 1.39756 -0.72842 0
M  V30 3539 C 330.864 2.00248 -0.272946 0
M  V30 3540 C 331.185 1.58077 1.14178 0
M  V30 3541 O 330.455 0.826014 1.77634 0
M  V30 3542 H 329.035 0.740554 -0.0979247 0
M  V30 3543 H 331.697 1.70903 -0.936912 0
M  V30 3544 H 330.793 3.10495 -0.316142 0
M  V30 3545 N 331.094 0.475555 1.50254 0
M  V30 3546 C 332.371 -0.139685 1.95101 0
M  V30 3547 C 332.751 -1.56555 1.41611 0
M  V30 3548 O 332.099 -2.19956 0.618993 0
M  V30 3549 C 332.309 -0.0784298 3.48912 0
M  V30 3550 C 333.657 -0.265095 4.23772 0
M  V30 3551 O 334.681 -0.154808 3.55863 0
M  V30 3552 O 333.54 -0.488327 5.44314 0
M  V30 3553 H 330.634 -0.109236 0.819754 0
M  V30 3554 H 333.18 0.536276 1.61004 0
M  V30 3555 H 331.952 0.916918 3.80405 0
M  V30 3556 H 331.575 -0.795655 3.89558 0
M  V30 3557 N 332.573 -1.56217 0.208337 0
M  V30 3558 C 333.503 -2.22694 -0.702116 0
M  V30 3559 C 334.484 -1.19432 -1.2112 0
M  V30 3560 O 335.669 -1.47978 -1.25762 0
M  V30 3561 C 332.799 -2.8966 -1.9161 0
M  V30 3562 C 331.753 -3.9928 -1.5414 0
M  V30 3563 C 331.079 -4.53476 -2.83308 0
M  V30 3564 C 332.379 -5.17012 -0.741339 0
M  V30 3565 H 334.073 -2.99034 -0.147898 0
M  V30 3566 H 331.619 -1.43831 -0.0696951 0
M  V30 3567 H 333.572 -3.34852 -2.55836 0
M  V30 3568 H 332.296 -2.10746 -2.49507 0
M  V30 3569 H 330.955 -3.54799 -0.922668 0
M  V30 3570 H 330.603 -3.71308 -3.39322 0
M  V30 3571 H 330.303 -5.27451 -2.58976 0
M  V30 3572 H 331.827 -5.01378 -3.485 0
M  V30 3573 H 333.241 -5.58667 -1.28699 0
M  V30 3574 H 331.638 -5.97137 -0.595627 0
M  V30 3575 H 332.708 -4.8423 0.254851 0
M  V30 3576 N 334.051 0.0651679 -1.57465 0
M  V30 3577 C 335.467 0.420105 -1.53972 0
M  V30 3578 C 335.667 1.78782 -0.929474 0
M  V30 3579 O 334.723 2.46771 -0.534839 0
M  V30 3580 C 336.036 0.355084 -2.98596 0
M  V30 3581 C 337.584 0.434792 -3.09965 0
M  V30 3582 C 338.059 0.399609 -4.56253 0
M  V30 3583 N 339.55 0.459488 -4.60915 0
M  V30 3584 C 340.285 0.454584 -5.71595 0
M  V30 3585 N 339.781 0.404102 -6.9162 0
M  V30 3586 N 341.574 0.501635 -5.59857 0
M  V30 3587 H 333.725 -0.830328 -1.95498 0
M  V30 3588 H 335.988 -0.312244 -0.895102 0
M  V30 3589 H 335.694 -0.583357 -3.46828 0
M  V30 3590 H 335.568 1.16275 -3.58831 0
M  V30 3591 H 337.955 1.36366 -2.61703 0
M  V30 3592 H 338.036 -0.40157 -2.52628 0
M  V30 3593 H 337.68 -0.525436 -5.05175 0
M  V30 3594 H 337.61 1.25359 -5.11461 0
M  V30 3595 H 340.101 0.502482 -3.74544 0
M  V30 3596 H 340.414 0.404468 -7.71741 0
M  V30 3597 H 338.759 0.37069 -6.94011 0
M  V30 3598 H 341.95 0.538812 -4.64989 0
M  V30 3599 H 342.123 0.494345 -6.46112 0
M  V30 3600 N 335.529 1.53961 0.336706 0
M  V30 3601 C 336.477 1.83136 1.43401 0
M  V30 3602 C 337.471 0.702313 1.54156 0
M  V30 3603 O 338.677 0.885765 1.56698 0
M  V30 3604 H 335.052 0.580309 0.478273 0
M  V30 3605 H 337.023 2.74925 1.16012 0
M  V30 3606 C 335.772 2.06385 2.79822 0
M  V30 3607 H 335.095 2.92718 2.72316 0
M  V30 3608 H 336.535 2.30761 3.55704 0
M  V30 3609 C 334.994 0.851414 3.25964 0
M  V30 3610 O 335.524 0.0541904 4.01663 0
M  V30 3611 N 333.73 0.66672 2.82848 0
M  V30 3612 H 333.277 1.31665 2.21409 0
M  V30 3613 H 333.235 -0.143032 3.14074 0
M  V30 3614 N 337.007 -0.598083 1.45811 0
M  V30 3615 C 337.917 -1.73632 1.57763 0
M  V30 3616 C 338.933 -1.67763 0.461676 0
M  V30 3617 O 340.109 -1.87949 0.723685 0
M  V30 3618 C 337.174 -3.10114 1.55018 0
M  V30 3619 C 336.235 -3.27364 2.77726 0
M  V30 3620 C 335.468 -4.57334 2.75102 0
M  V30 3621 O 335.691 -5.40258 1.8297 0
M  V30 3622 O 334.625 -4.77502 3.66437 0
M  V30 3623 H 338.451 -1.66498 2.53992 0
M  V30 3624 H 336.036 -0.763308 1.28429 0
M  V30 3625 H 337.918 -3.9141 1.56129 0
M  V30 3626 H 336.593 -3.17718 0.619431 0
M  V30 3627 H 335.5 -2.45619 2.82174 0
M  V30 3628 H 336.833 -3.24641 3.69958 0
M  V30 3629 N 338.485 -1.33259 -0.841409 0
M  V30 3630 C 339.417 -1.19136 -1.95804 0
M  V30 3631 C 340.43 -0.122965 -1.62335 0
M  V30 3632 O 341.619 -0.373154 -1.74556 0
M  V30 3633 C 338.719 -0.804268 -3.29218 0
M  V30 3634 C 337.892 -1.96376 -3.90839 0
M  V30 3635 C 336.951 -1.55806 -5.02604 0
M  V30 3636 O 335.977 -2.27203 -5.21888 0
M  V30 3637 N 337.179 -0.461609 -5.78662 0
M  V30 3638 H 339.944 -2.15326 -2.08458 0
M  V30 3639 H 337.505 -1.25971 -1.017 0
M  V30 3640 H 339.497 -0.51501 -4.0141 0
M  V30 3641 H 338.067 0.0668809 -3.12528 0
M  V30 3642 H 337.287 -2.41879 -3.11269 0
M  V30 3643 H 338.575 -2.73966 -4.28742 0
M  V30 3644 H 337.973 0.132343 -5.65545 0
M  V30 3645 H 336.53 -0.232013 -6.51387 0
M  V30 3646 N 339.963 1.05934 -1.16686 0
M  V30 3647 C 340.873 2.17014 -0.891183 0
M  V30 3648 C 341.889 1.73453 0.137907 0
M  V30 3649 O 343.065 2.01361 -0.039592 0
M  V30 3650 C 340.13 3.44384 -0.400099 0
M  V30 3651 C 339.191 4.02433 -1.49486 0
M  V30 3652 C 338.424 5.23723 -1.02711 0
M  V30 3653 O 338.647 5.7027 0.121716 0
M  V30 3654 O 337.581 5.7382 -1.81699 0
M  V30 3655 H 341.407 2.43113 -1.82015 0
M  V30 3656 H 338.992 1.15541 -0.947132 0
M  V30 3657 H 340.874 4.21189 -0.133392 0
M  V30 3658 H 339.549 3.19802 0.500817 0
M  V30 3659 H 338.456 3.27102 -1.81535 0
M  V30 3660 H 339.789 4.31317 -2.37121 0
M  V30 3661 N 341.441 0.965919 1.2453 0
M  V30 3662 C 342.391 0.465731 2.23193 0
M  V30 3663 C 343.375 -0.451277 1.54442 0
M  V30 3664 O 344.567 -0.282489 1.74731 0
M  V30 3665 C 341.696 -0.244511 3.42428 0
M  V30 3666 C 340.782 0.691222 4.18429 0
M  V30 3667 N 341.173 1.82771 4.71623 0
M  V30 3668 C 339.471 0.501649 4.4317 0
M  V30 3669 C 340.172 2.41285 5.29298 0
M  V30 3670 N 339.148 1.69819 5.16394 0
M  V30 3671 H 342.95 1.33291 2.61937 0
M  V30 3672 H 340.464 0.824789 1.39896 0
M  V30 3673 H 342.461 -0.620056 4.12263 0
M  V30 3674 H 341.121 -1.10815 3.05205 0
M  V30 3675 H 342.132 2.20929 4.68413 0
M  V30 3676 H 338.809 -0.318177 4.16286 0
M  V30 3677 H 340.199 3.37181 5.8117 0
M  V30 3678 N 342.919 -1.39368 0.735821 0
M  V30 3679 C 344.166 -2.00497 0.284123 0
M  V30 3680 C 344.494 -1.58387 -1.12889 0
M  V30 3681 O 343.749 -0.804359 -1.78406 0
M  V30 3682 C 344.048 -3.5583 0.334651 0
M  V30 3683 C 343.714 -4.17593 1.7008 0
M  V30 3684 C 342.376 -4.34176 2.07472 0
M  V30 3685 C 344.728 -4.51848 2.59775 0
M  V30 3686 C 342.056 -4.82304 3.34065 0
M  V30 3687 C 344.408 -5.01384 3.85741 0
M  V30 3688 C 343.072 -5.16175 4.23225 0
M  V30 3689 H 342.342 -0.73367 0.103968 0
M  V30 3690 H 344.989 -1.66683 0.942825 0
M  V30 3691 H 343.294 -3.89674 -0.407625 0
M  V30 3692 H 344.991 -4.00986 -0.0329927 0
M  V30 3693 H 341.581 -4.05087 1.40008 0
M  V30 3694 H 345.765 -4.38653 2.32157 0
M  V30 3695 H 341.021 -4.91941 3.63049 0
M  V30 3696 H 345.195 -5.26863 4.55399 0
M  V30 3697 H 342.822 -5.5323 5.21384 0
M  V30 3698 N 344.397 -0.483516 -1.5 0
M  V30 3699 C 345.344 0.304164 -2.28787 0
M  V30 3700 C 346.314 0.976114 -1.34392 0
M  V30 3701 O 347.499 0.986156 -1.63339 0
M  V30 3702 C 344.639 1.37298 -3.16612 0
M  V30 3703 C 343.752 0.714561 -4.26049 0
M  V30 3704 C 342.887 1.76232 -5.01114 0
M  V30 3705 C 341.926 1.08483 -6.0241 0
M  V30 3706 N 341.063 2.076 -6.70706 0
M  V30 3707 H 345.903 -0.373981 -2.95644 0
M  V30 3708 H 343.44 -0.196275 -1.45785 0
M  V30 3709 H 345.398 2.00445 -3.65893 0
M  V30 3710 H 344.028 2.02012 -2.51776 0
M  V30 3711 H 343.08 -0.0297798 -3.80388 0
M  V30 3712 H 344.392 0.180383 -4.98474 0
M  V30 3713 H 343.546 2.46929 -5.54176 0
M  V30 3714 H 342.285 2.33033 -4.28424 0
M  V30 3715 H 341.29 0.363545 -5.48597 0
M  V30 3716 H 342.515 0.523551 -6.77079 0
M  V30 3717 H 340.461 2.63394 -6.00799 0
M  V30 3718 H 340.378 1.59201 -7.39047 0
M  V30 3719 H 341.646 2.77639 -7.2838 0
M  V30 3720 N 345.875 1.56104 -0.216619 0
M  V30 3721 C 347.123 1.97781 0.415593 0
M  V30 3722 C 347.444 1.10536 1.60645 0
M  V30 3723 O 346.714 0.181303 1.95059 0
M  V30 3724 H 345.294 0.730415 0.156534 0
M  V30 3725 H 347.956 1.92445 -0.308366 0
M  V30 3726 H 347.052 3.03072 0.74525 0
M  V30 3727 N 347.353 -0.0568162 1.57498 0
M  V30 3728 C 348.263 -1.08346 2.08083 0
M  V30 3729 C 349.279 -1.41439 1.01346 0
M  V30 3730 O 350.455 -1.51316 1.32912 0
M  V30 3731 C 347.52 -2.37352 2.52715 0
M  V30 3732 C 346.581 -2.11093 3.73816 0
M  V30 3733 C 345.814 -3.33949 4.1631 0
M  V30 3734 O 346.037 -4.43622 3.58547 0
M  V30 3735 O 344.971 -3.21279 5.08983 0
M  V30 3736 H 348.797 -0.683667 2.95905 0
M  V30 3737 H 346.382 -0.271965 1.46904 0
M  V30 3738 H 348.264 -3.13246 2.81877 0
M  V30 3739 H 346.939 -2.76681 1.68016 0
M  V30 3740 H 345.846 -1.32856 3.49714 0
M  V30 3741 H 347.179 -1.76637 4.59413 0
M  V30 3742 N 348.832 -1.54138 -0.328536 0
M  V30 3743 C 350.248 -1.44736 -0.672574 0
M  V30 3744 C 350.448 -0.616217 -1.91846 0
M  V30 3745 O 349.504 -0.113067 -2.52247 0
M  V30 3746 C 350.817 -2.884 -0.851217 0
M  V30 3747 C 352.365 -2.98271 -0.948877 0
M  V30 3748 C 352.84 -4.43074 -1.15973 0
M  V30 3749 N 354.331 -4.46665 -1.22658 0
M  V30 3750 C 355.066 -5.55857 -1.40751 0
M  V30 3751 N 354.562 -6.75026 -1.5592 0
M  V30 3752 N 356.355 -5.43495 -1.4342 0
M  V30 3753 H 348.506 -2.06661 0.490421 0
M  V30 3754 H 350.769 -0.934812 0.157579 0
M  V30 3755 H 350.475 -3.51699 -0.00704236 0
M  V30 3756 H 350.349 -3.34225 -1.74853 0
M  V30 3757 H 352.736 -2.35102 -1.78356 0
M  V30 3758 H 352.817 -2.55785 -0.0281435 0
M  V30 3759 H 352.461 -5.06827 -0.329915 0
M  V30 3760 H 352.391 -4.83165 -2.09426 0
M  V30 3761 H 354.882 -3.60797 -1.124 0
M  V30 3762 H 355.195 -7.54004 -1.69404 0
M  V30 3763 H 353.54 -6.77944 -1.53027 0
M  V30 3764 H 356.731 -4.49349 -1.31162 0
M  V30 3765 H 356.904 -6.28649 -1.57178 0
M  V30 3766 N 350.31 0.590341 -1.46126 0
M  V30 3767 C 351.557 1.34882 -1.5104 0
M  V30 3768 C 351.885 1.93849 -0.159021 0
M  V30 3769 O 351.14 1.76544 0.844436 0
M  V30 3770 C 351.439 2.5032 -2.55097 0
M  V30 3771 C 351.105 2.09394 -3.99331 0
M  V30 3772 C 349.767 1.97947 -4.38601 0
M  V30 3773 C 352.119 1.77712 -4.89967 0
M  V30 3774 C 349.447 1.53065 -5.66381 0
M  V30 3775 C 351.799 1.34312 -6.18177 0
M  V30 3776 C 350.463 1.21436 -6.56361 0
M  V30 3777 H 349.733 0.493568 -0.552695 0
M  V30 3778 H 352.38 0.665539 -1.79563 0
M  V30 3779 H 350.685 3.24062 -2.20207 0
M  V30 3780 H 352.382 3.08541 -2.56132 0
M  V30 3781 H 348.972 2.19235 -3.68285 0
M  V30 3782 H 353.156 1.85445 -4.60352 0
M  V30 3783 H 348.412 1.41733 -5.94745 0
M  V30 3784 H 352.586 1.08849 -6.87841 0
M  V30 3785 H 350.213 0.864345 -7.5527 0
M  V30 3786 N 351.788 1.33704 0.83433 0
M  V30 3787 C 352.735 1.24335 1.94447 0
M  V30 3788 C 353.705 0.120991 1.65659 0
M  V30 3789 O 354.89 0.300035 1.88426 0
M  V30 3790 C 352.03 0.993124 3.30501 0
M  V30 3791 C 351.143 2.20217 3.71657 0
M  V30 3792 C 350.278 1.88572 4.96602 0
M  V30 3793 C 349.317 3.05683 5.30306 0
M  V30 3794 N 348.454 2.73997 6.46429 0
M  V30 3795 H 353.294 2.1928 2.01792 0
M  V30 3796 H 350.831 1.09035 0.987404 0
M  V30 3797 H 352.789 0.828467 4.08892 0
M  V30 3798 H 351.419 0.0803902 3.227 0
M  V30 3799 H 350.471 2.47642 2.88752 0
M  V30 3800 H 351.783 3.07752 3.92543 0
M  V30 3801 H 350.937 1.68776 5.82752 0
M  V30 3802 H 349.676 0.982799 4.77695 0
M  V30 3803 H 348.681 3.26088 4.42659 0
M  V30 3804 H 349.906 3.96737 5.51159 0
M  V30 3805 H 347.852 1.86268 6.28999 0
M  V30 3806 H 347.769 3.55064 6.67432 0
M  V30 3807 H 349.037 2.57679 7.35678 0
M  V30 3808 N 353.266 -1.05314 1.17247 0
M  V30 3809 C 354.176 -2.16538 0.90268 0
M  V30 3810 C 355.192 -1.73523 -0.128707 0
M  V30 3811 O 356.368 -2.01337 0.0502701 0
M  V30 3812 C 353.433 -3.44167 0.418356 0
M  V30 3813 C 352.494 -4.01635 1.51618 0
M  V30 3814 C 351.727 -5.23171 1.05487 0
M  V30 3815 O 351.95 -5.70327 -0.0914715 0
M  V30 3816 O 350.884 -5.72848 1.8474 0
M  V30 3817 H 354.71 -2.42145 1.83302 0
M  V30 3818 H 352.295 -1.15037 0.953246 0
M  V30 3819 H 354.177 -4.21112 0.155726 0
M  V30 3820 H 352.852 -3.20063 -0.48385 0
M  V30 3821 H 351.759 -3.26135 1.83268 0
M  V30 3822 H 353.092 -4.30053 2.39405 0
M  V30 3823 N 354.744 -0.972509 -1.24016 0
M  V30 3824 C 355.692 -0.498562 -2.27194 0
M  V30 3825 C 356.686 0.440372 -1.63576 0
M  V30 3826 O 357.892 0.315133 -1.7722 0
M  V30 3827 H 354.267 -0.142775 -0.738322 0
M  V30 3828 H 356.238 -1.38065 -2.64539 0
M  V30 3829 C 354.987 0.191072 -3.47175 0
M  V30 3830 H 354.31 -0.522318 -3.96373 0
M  V30 3831 H 355.75 0.486445 -4.212 0
M  V30 3832 C 354.209 1.41967 -3.05527 0
M  V30 3833 O 354.739 2.51642 -3.13112 0
M  V30 3834 N 352.945 1.28746 -2.60524 0
M  V30 3835 H 352.492 0.395089 -2.54552 0
M  V30 3836 H 352.45 2.11061 -2.33025 0
M  V30 3837 N 356.222 1.38976 -0.743202 0
M  V30 3838 C 357.471 1.99581 -0.291592 0
M  V30 3839 C 357.784 1.59656 1.13001 0
M  V30 3840 O 358.99 2.13157 1.68156 0
M  V30 3841 C 357.446 3.56813 -0.470391 0
M  V30 3842 C 357.054 4.05695 -1.90041 0
M  V30 3843 C 358.798 4.24423 -0.0809709 0
M  V30 3844 C 356.705 5.5553 -2.02832 0
M  V30 3845 H 355.635 0.746615 -0.105272 0
M  V30 3846 H 358.286 1.58872 -0.918258 0
M  V30 3847 H 356.668 3.95359 0.225299 0
M  V30 3848 H 357.842 3.78464 -2.62872 0
M  V30 3849 H 356.157 3.50775 -2.24379 0
M  V30 3850 H 358.754 5.34474 -0.155445 0
M  V30 3851 H 359.097 4.04962 0.96497 0
M  V30 3852 H 359.63 3.9108 -0.728124 0
M  V30 3853 H 356.369 5.79881 -3.05643 0
M  V30 3854 H 355.889 5.84537 -1.34448 0
M  V30 3855 H 357.568 6.21069 -1.81335 0
M  V30 3856 N 357.7 0.491464 1.49741 0
M  V30 3857 C 359.116 0.146835 1.58923 0
M  V30 3858 C 359.316 -1.34804 1.49767 0
M  V30 3859 O 358.372 -2.12317 1.36667 0
M  V30 3860 C 359.685 0.715157 2.92072 0
M  V30 3861 C 361.233 0.680407 3.05515 0
M  V30 3862 C 361.708 1.22663 4.41269 0
M  V30 3863 N 363.199 1.18691 4.47735 0
M  V30 3864 C 363.934 1.57984 5.51207 0
M  V30 3865 N 363.43 2.04824 6.6183 0
M  V30 3866 N 365.223 1.49459 5.41866 0
M  V30 3867 H 357.374 1.46347 1.53936 0
M  V30 3868 H 359.637 0.606453 0.728642 0
M  V30 3869 H 359.343 1.76317 3.04311 0
M  V30 3870 H 359.217 0.17018 3.76816 0
M  V30 3871 H 361.604 -0.358743 2.92911 0
M  V30 3872 H 361.685 1.26242 2.22478 0
M  V30 3873 H 361.329 2.26451 4.54623 0
M  V30 3874 H 361.259 0.620637 5.2293 0
M  V30 3875 H 363.75 0.843605 3.68364 0
M  V30 3876 H 364.063 2.32901 7.3687 0
M  V30 3877 H 362.408 2.08791 6.62896 0
M  V30 3878 H 365.599 1.12692 4.54333 0
M  V30 3879 H 365.772 1.80406 6.22381 0
M  V30 3880 N 359.178 -1.55987 0.224894 0
M  V30 3881 C 360.125 -2.20436 -0.68385 0
M  V30 3882 C 361.095 -1.16102 -1.18783 0
M  V30 3883 O 362.28 -1.4447 -1.24632 0
M  V30 3884 C 359.42 -2.89076 -1.88491 0
M  V30 3885 C 358.533 -4.08012 -1.41951 0
M  V30 3886 C 357.668 -4.64426 -2.5784 0
M  V30 3887 C 356.707 -5.75656 -2.08053 0
M  V30 3888 N 355.844 -6.26347 -3.17227 0
M  V30 3889 H 360.684 -2.97727 -0.12754 0
M  V30 3890 H 358.221 -1.47011 -0.0511978 0
M  V30 3891 H 360.179 -3.27059 -2.59014 0
M  V30 3892 H 358.809 -2.14298 -2.41405 0
M  V30 3893 H 357.861 -3.75492 -0.609095 0
M  V30 3894 H 359.173 -4.88375 -1.01447 0
M  V30 3895 H 358.327 -5.04869 -3.3644 0
M  V30 3896 H 357.066 -3.83233 -3.01635 0
M  V30 3897 H 356.071 -5.34712 -1.27916 0
M  V30 3898 H 357.296 -6.58686 -1.65255 0
M  V30 3899 H 355.242 -5.48067 -3.60497 0
M  V30 3900 H 355.159 -7.01843 -2.80986 0
M  V30 3901 H 356.427 -6.71447 -3.95953 0
M  V30 3902 N 360.656 0.0484629 -1.57525 0
M  V30 3903 C 361.902 0.744226 -1.88651 0
M  V30 3904 C 362.235 1.76029 -0.820212 0
M  V30 3905 O 361.51 1.93782 0.166985 0
M  V30 3906 C 361.793 1.43128 -3.30434 0
M  V30 3907 C 361.646 0.43005 -4.47739 0
M  V30 3908 C 362.965 2.37031 -3.70816 0
M  V30 3909 H 360.084 0.269089 -0.68612 0
M  V30 3910 H 362.726 0.00713532 -1.89999 0
M  V30 3911 H 360.876 2.05956 -3.29415 0
M  V30 3912 H 362.548 -0.194816 -4.60888 0
M  V30 3913 H 360.791 -0.252522 -4.33064 0
M  V30 3914 H 361.462 0.948874 -5.43783 0
M  V30 3915 H 363.938 1.84263 -3.73077 0
M  V30 3916 H 362.814 2.82094 -4.70865 0
M  V30 3917 H 363.075 3.22864 -3.02012 0
M  V30 3918 N 362.134 1.5431 0.320358 0
M  V30 3919 C 363.082 1.84647 1.4145 0
M  V30 3920 C 364.076 0.718624 1.53402 0
M  V30 3921 O 365.282 0.902335 1.5575 0
M  V30 3922 H 361.657 0.585349 0.472091 0
M  V30 3923 H 363.628 2.7614 1.13089 0
M  V30 3924 C 362.377 2.09341 2.77617 0
M  V30 3925 H 361.7 2.9559 2.69196 0
M  V30 3926 H 363.14 2.3452 3.53237 0
M  V30 3927 C 361.599 0.885939 3.25043 0
M  V30 3928 O 362.129 0.0967891 4.01583 0
M  V30 3929 N 360.335 0.696682 2.82125 0
M  V30 3930 H 359.882 1.34006 2.2 0
M  V30 3931 H 359.84 -0.109712 3.14209 0
M  V30 3932 N 363.613 -0.582584 1.46437 0
M  V30 3933 C 364.56 -1.69164 1.5701 0
M  V30 3934 C 365.53 -1.60847 0.414403 0
M  V30 3935 O 366.715 -1.80058 0.631171 0
M  V30 3936 C 363.855 -3.075 1.56646 0
M  V30 3937 C 362.968 -3.2644 2.82951 0
M  V30 3938 C 362.103 -4.55026 2.7409 0
M  V30 3939 C 361.142 -4.6731 3.95333 0
M  V30 3940 N 360.279 -5.87221 3.84858 0
M  V30 3941 H 365.119 -1.59464 2.51744 0
M  V30 3942 H 362.656 -0.777186 1.24893 0
M  V30 3943 H 364.614 -3.8757 1.5442 0
M  V30 3944 H 363.244 -3.16096 0.654439 0
M  V30 3945 H 362.296 -2.39974 2.95155 0
M  V30 3946 H 363.608 -3.31385 3.72808 0
M  V30 3947 H 362.762 -5.43324 2.6997 0
M  V30 3948 H 361.501 -4.52519 1.81873 0
M  V30 3949 H 360.506 -3.77429 3.99784 0
M  V30 3950 H 361.731 -4.71595 4.88646 0
M  V30 3951 H 359.677 -5.85712 2.95427 0
M  V30 3952 H 359.594 -5.93435 4.6837 0
M  V30 3953 H 360.862 -6.7795 3.84713 0
M  V30 3954 N 365.091 -1.34144 -0.827227 0
M  V30 3955 C 366.021 -1.28005 -1.95287 0
M  V30 3956 C 367.002 -0.158321 -1.69362 0
M  V30 3957 O 368.187 -0.349987 -1.9102 0
M  V30 3958 C 365.317 -1.03036 -3.31664 0
M  V30 3959 C 364.271 -2.11628 -3.72019 0
M  V30 3960 C 363.597 -1.71854 -5.0633 0
M  V30 3961 C 364.897 -3.53417 -3.8457 0
M  V30 3962 H 366.591 -2.22187 -2.00682 0
M  V30 3963 H 364.137 -1.0696 -0.964135 0
M  V30 3964 H 366.09 -0.973863 -4.09993 0
M  V30 3965 H 364.814 -0.0529391 -3.26557 0
M  V30 3966 H 363.473 -2.16339 -2.95961 0
M  V30 3967 H 363.121 -0.727841 -4.97706 0
M  V30 3968 H 362.821 -2.44531 -5.34302 0
M  V30 3969 H 364.345 -1.67692 -5.87122 0
M  V30 3970 H 365.759 -3.51142 -4.5318 0
M  V30 3971 H 364.156 -4.24679 -4.2399 0
M  V30 3972 H 365.226 -3.91072 -2.86689 0
M  V30 3973 N 366.569 1.04691 -1.17803 0
M  V30 3974 C 367.532 2.10724 -0.901545 0
M  V30 3975 C 368.532 1.6042 0.110437 0
M  V30 3976 O 369.722 1.7377 -0.122303 0
M  V30 3977 C 366.854 3.39084 -0.351409 0
M  V30 3978 H 368.047 2.36686 -1.84174 0
M  V30 3979 H 365.6 1.21015 -0.98919 0
M  V30 3980 H 366.335 3.18782 0.59569 0
M  V30 3981 H 366.12 3.76909 -1.08083 0
M  V30 3982 H 367.61 4.17227 -0.176451 0
M  V30 3983 N 368.047 0.979072 1.23499 0
M  V30 3984 C 369.458 0.684391 1.73704 0
M  V30 3985 C 369.809 -0.799448 1.79174 0
M  V30 3986 O 368.934 -1.62531 1.42873 0
M  V30 3987 C 369.529 1.23564 3.15464 0
M  V30 3988 C 368.088 0.99063 3.6313 0
M  V30 3989 C 367.235 1.36416 2.41425 0
M  V30 3990 H 370.186 1.15307 1.09041 0
M  V30 3991 H 370.207 0.607417 3.7562 0
M  V30 3992 H 369.719 2.31561 3.1145 0
M  V30 3993 H 367.82 -0.0733136 3.72528 0
M  V30 3994 H 367.933 1.64427 4.5 0
M  V30 3995 H 366.297 0.782616 2.42378 0
M  V30 3996 H 367.08 2.45387 2.40083 0
M  V30 3997 N 369.525 -1.3858 0.750561 0
M  V30 3998 C 370.774 -1.99424 0.302172 0
M  V30 3999 C 371.087 -1.60254 -1.12152 0
M  V30 4000 O 372.293 -2.14046 -1.67023 0
M  V30 4001 C 370.749 -3.56558 0.489307 0
M  V30 4002 C 370.357 -4.04682 1.92189 0
M  V30 4003 C 372.101 -4.24374 0.103478 0
M  V30 4004 C 370.008 -5.54446 2.05775 0
M  V30 4005 H 368.938 -0.746046 0.10923 0
M  V30 4006 H 371.589 -1.58383 0.92667 0
M  V30 4007 H 369.971 -3.95472 -0.204329 0
M  V30 4008 H 371.145 -3.77065 2.64875 0
M  V30 4009 H 369.46 -3.4958 2.26236 0
M  V30 4010 H 372.057 -5.34384 0.183787 0
M  V30 4011 H 372.4 -4.05468 -0.943481 0
M  V30 4012 H 372.933 -3.90688 0.748854 0
M  V30 4013 H 369.672 -5.78252 3.08714 0
M  V30 4014 H 369.192 -5.83816 1.37546 0
M  V30 4015 H 370.871 -6.20099 1.84626 0
M  V30 4016 N 371.003 -0.499398 -1.49478 0
M  V30 4017 C 371.966 0.268838 -2.27618 0
M  V30 4018 C 372.966 0.895383 -1.33565 0
M  V30 4019 O 374.156 0.760164 -1.56739 0
M  V30 4020 C 371.288 1.38559 -3.11471 0
M  V30 4021 H 372.481 -0.416812 -2.96989 0
M  V30 4022 H 370.034 -0.254313 -1.54217 0
M  V30 4023 H 370.769 2.10544 -2.46661 0
M  V30 4024 H 370.554 0.941797 -3.80621 0
M  V30 4025 H 372.044 1.92678 -3.70493 0
M  V30 4026 N 372.481 1.55866 -0.233164 0
M  V30 4027 C 373.391 2.24431 0.683217 0
M  V30 4028 C 374.407 1.2558 1.2044 0
M  V30 4029 O 375.583 1.58422 1.24356 0
M  V30 4030 C 372.648 2.91979 1.86947 0
M  V30 4031 C 371.709 4.06204 1.38912 0
M  V30 4032 C 370.942 4.70522 2.51883 0
M  V30 4033 O 371.165 4.33865 3.70293 0
M  V30 4034 O 370.099 5.59296 2.22423 0
M  V30 4035 H 373.925 3.03426 0.129059 0
M  V30 4036 H 371.51 1.494 -0.0022283 0
M  V30 4037 H 373.392 3.34573 2.56201 0
M  V30 4038 H 372.067 2.15935 2.41151 0
M  V30 4039 H 370.974 3.68155 0.664259 0
M  V30 4040 H 372.307 4.84025 0.893328 0
M  V30 4041 N 373.959 -0.0401083 1.57549 0
M  V30 4042 C 374.906 -1.04413 2.05831 0
M  V30 4043 C 375.876 -1.36585 0.945184 0
M  V30 4044 O 377.061 -1.47112 1.21502 0
M  V30 4045 C 374.201 -2.34336 2.53339 0
M  V30 4046 C 373.314 -2.08419 3.78398 0
M  V30 4047 C 372.449 -3.32133 4.14561 0
M  V30 4048 C 371.488 -3.01721 5.3257 0
M  V30 4049 N 370.625 -4.17855 5.64218 0
M  V30 4050 H 375.465 -0.625442 2.91363 0
M  V30 4051 H 373.002 -0.297218 1.44066 0
M  V30 4052 H 374.96 -3.10234 2.78946 0
M  V30 4053 H 373.59 -2.73948 1.7074 0
M  V30 4054 H 372.642 -1.23069 3.59942 0
M  V30 4055 H 373.954 -1.81978 4.64419 0
M  V30 4056 H 373.108 -4.16406 4.41238 0
M  V30 4057 H 371.847 -3.61678 3.2717 0
M  V30 4058 H 370.852 -2.15849 5.05657 0
M  V30 4059 H 372.077 -2.73466 6.21605 0
M  V30 4060 H 370.023 -4.47372 4.79786 0
M  V30 4061 H 369.94 -3.94798 6.44725 0
M  V30 4062 H 371.208 -5.03033 5.95465 0
M  V30 4063 N 375.437 -1.54477 -0.31217 0
M  V30 4064 C 376.387 -1.81037 -1.38598 0
M  V30 4065 C 377.371 -0.666941 -1.46426 0
M  V30 4066 O 378.563 -0.927269 -1.50767 0
M  V30 4067 C 375.692 -2.05127 -2.75277 0
M  V30 4068 C 374.778 -3.25624 -2.71716 0
M  V30 4069 N 375.169 -4.46428 -2.37773 0
M  V30 4070 C 373.467 -3.27427 -3.02833 0
M  V30 4071 C 374.168 -5.28406 -2.43232 0
M  V30 4072 N 373.144 -4.6586 -2.80135 0
M  V30 4073 H 376.946 -2.7201 -1.11301 0
M  V30 4074 H 374.46 -1.53826 -0.520705 0
M  V30 4075 H 376.457 -2.22299 -3.52688 0
M  V30 4076 H 375.117 -1.15416 -3.03495 0
M  V30 4077 H 376.128 -4.73227 -2.1042 0
M  V30 4078 H 372.805 -2.47786 -3.36018 0
M  V30 4079 H 374.195 -6.34903 -2.19882 0
M  V30 4080 N 376.915 0.57481 -1.46744 0
M  V30 4081 C 377.863 1.70435 -1.58286 0
M  V30 4082 C 378.857 1.63287 -0.450956 0
M  V30 4083 O 380.063 1.68685 -0.628121 0
M  V30 4084 H 376.438 0.56364 -0.497809 0
M  V30 4085 H 378.409 1.57833 -2.53242 0
M  V30 4086 C 377.158 3.08815 -1.59776 0
M  V30 4087 H 376.481 3.1499 -2.46214 0
M  V30 4088 H 377.921 3.87588 -1.71905 0
M  V30 4089 C 376.38 3.35301 -0.327812 0
M  V30 4090 O 376.91 3.97511 0.57861 0
M  V30 4091 N 375.116 2.89816 -0.213274 0
M  V30 4092 H 374.663 2.39371 -0.951798 0
M  V30 4093 H 374.621 3.0791 0.63553 0
M  V30 4094 N 378.394 1.34581 0.820102 0
M  V30 4095 C 379.64 1.27285 1.57881 0
M  V30 4096 C 379.973 -0.156137 1.93571 0
M  V30 4097 O 379.248 -1.10222 1.60254 0
M  V30 4098 C 379.531 2.16639 2.87645 0
M  V30 4099 C 379.384 3.68088 2.58517 0
M  V30 4100 C 380.703 2.05378 3.8924 0
M  V30 4101 H 377.822 0.463714 0.572833 0
M  V30 4102 H 380.464 1.64859 0.944539 0
M  V30 4103 H 378.614 1.84725 3.41773 0
M  V30 4104 H 380.286 4.10382 2.10676 0
M  V30 4105 H 378.529 3.89038 1.91917 0
M  V30 4106 H 379.2 4.2598 3.51063 0
M  V30 4107 H 381.676 2.33404 3.44473 0
M  V30 4108 H 380.552 2.7012 4.77835 0
M  V30 4109 H 380.813 1.0316 4.29896 0
M  V30 4110 N 379.872 -1.04064 1.18357 0
M  V30 4111 C 381.149 -1.74252 0.888581 0
M  V30 4112 C 381.529 -2.02138 -0.60856 0
M  V30 4113 O 380.877 -1.66656 -1.56327 0
M  V30 4114 C 381.087 -3.0277 1.73584 0
M  V30 4115 C 382.435 -3.76506 1.96286 0
M  V30 4116 O 383.459 -3.12668 1.70637 0
M  V30 4117 O 382.318 -4.91243 2.39464 0
M  V30 4118 H 379.412 -0.758271 0.330082 0
M  V30 4119 H 381.958 -1.1013 1.2911 0
M  V30 4120 H 380.73 -2.78299 2.75073 0
M  V30 4121 H 380.353 -3.74631 1.33183 0
M  V30 4122 N 381.35 -0.985608 -1.22978 0
M  V30 4123 C 382.599 -0.652881 -1.90841 0
M  V30 4124 C 382.912 0.817842 -1.77681 0
M  V30 4125 O 384.118 1.26185 -2.40395 0
M  V30 4126 C 382.574 -1.11717 -3.42122 0
M  V30 4127 C 382.182 -2.6126 -3.63933 0
M  V30 4128 C 383.926 -0.85843 -4.1573 0
M  V30 4129 C 381.833 -3.0133 -5.08876 0
M  V30 4130 H 380.763 -0.240491 -0.714619 0
M  V30 4131 H 383.414 -1.1942 -1.39324 0
M  V30 4132 H 381.796 -0.504027 -3.92779 0
M  V30 4133 H 382.97 -3.27858 -3.23799 0
M  V30 4134 H 381.285 -2.84937 -3.03644 0
M  V30 4135 H 383.882 -1.13359 -5.22546 0
M  V30 4136 H 384.225 0.205461 -4.15793 0
M  V30 4137 H 384.758 -1.43341 -3.71077 0
M  V30 4138 H 381.497 -4.06864 -5.13947 0
M  V30 4139 H 381.017 -2.3943 -5.49939 0
M  V30 4140 H 382.696 -2.92224 -5.77247 0
M  V30 4141 N 382.828 1.3818 -0.7579 0
M  V30 4142 C 384.239 1.82726 -0.383134 0
M  V30 4143 C 384.59 1.63214 1.08884 0
M  V30 4144 O 383.715 1.13566 1.84205 0
M  V30 4145 C 384.31 3.31728 -0.688631 0
M  V30 4146 C 382.869 3.74606 -0.367091 0
M  V30 4147 C 382.016 2.60896 -0.939599 0
M  V30 4148 H 384.967 1.26847 -0.953699 0
M  V30 4149 H 384.988 3.80487 0.0316492 0
M  V30 4150 H 384.5 3.45898 -1.76001 0
M  V30 4151 H 382.601 3.66013 0.697532 0
M  V30 4152 H 382.714 4.71215 -0.865658 0
M  V30 4153 H 381.078 2.52075 -0.3647 0
M  V30 4154 H 381.861 2.77864 -2.0161 0
M  V30 4155 N 384.306 0.507319 1.49211 0
M  V30 4156 C 385.256 -0.287112 2.26185 0
M  V30 4157 C 386.24 -0.929983 1.31302 0
M  V30 4158 O 387.432 -0.836538 1.55984 0
M  V30 4159 C 384.561 -1.34718 3.15763 0
M  V30 4160 C 383.647 -0.710235 4.18111 0
M  V30 4161 N 384.038 0.190836 5.0544 0
M  V30 4162 C 382.336 -0.97009 4.35322 0
M  V30 4163 C 383.037 0.55606 5.79036 0
M  V30 4164 N 382.013 -0.0775232 5.43545 0
M  V30 4165 H 385.815 0.406445 2.91076 0
M  V30 4166 H 383.329 0.323814 1.59139 0
M  V30 4167 H 385.326 -1.92982 3.69545 0
M  V30 4168 H 383.986 -2.04235 2.52424 0
M  V30 4169 H 384.997 0.562047 5.14841 0
M  V30 4170 H 381.674 -1.65753 3.83187 0
M  V30 4171 H 383.064 1.2936 6.5933 0
M  V30 4172 N 385.784 -1.5574 0.241426 0
M  V30 4173 C 387.033 -1.97986 -0.385295 0
M  V30 4174 C 387.346 -1.13267 -1.59468 0
M  V30 4175 O 388.552 -1.45501 -2.2922 0
M  V30 4176 C 387.008 -3.52275 -0.736884 0
M  V30 4177 C 386.616 -4.45726 0.450796 0
M  V30 4178 C 388.36 -4.03189 -1.3281 0
M  V30 4179 C 386.267 -5.91352 0.0756662 0
M  V30 4180 H 385.197 -0.739386 -0.147731 0
M  V30 4181 H 387.848 -1.80308 0.340779 0
M  V30 4182 H 386.23 -3.65628 -1.52094 0
M  V30 4183 H 387.404 -4.44131 1.22819 0
M  V30 4184 H 385.719 -4.05264 0.956573 0
M  V30 4185 H 388.316 -5.09505 -1.62201 0
M  V30 4186 H 388.659 -3.50212 -2.25071 0
M  V30 4187 H 389.192 -3.93141 -0.607069 0
M  V30 4188 H 385.931 -6.48354 0.965272 0
M  V30 4189 H 385.451 -5.96095 -0.665635 0
M  V30 4190 H 387.13 -6.46084 -0.344075 0
M  V30 4191 N 387.262 0.0317525 -1.57568 0
M  V30 4192 C 388.508 0.724175 -1.8943 0
M  V30 4193 C 388.841 1.75149 -0.838836 0
M  V30 4194 O 388.116 1.93948 0.146422 0
M  V30 4195 C 388.399 1.39615 -3.31933 0
M  V30 4196 C 388.252 0.382537 -4.4817 0
M  V30 4197 C 389.571 2.33084 -3.73309 0
M  V30 4198 H 386.69 0.261797 -0.688935 0
M  V30 4199 H 389.332 -0.013017 -1.89996 0
M  V30 4200 H 387.482 2.02451 -3.31581 0
M  V30 4201 H 389.154 -0.243689 -4.60656 0
M  V30 4202 H 387.397 -0.29844 -4.32772 0
M  V30 4203 H 388.068 0.891145 -5.44759 0
M  V30 4204 H 390.544 1.80295 -3.7501 0
M  V30 4205 H 389.42 2.77084 -4.73831 0
M  V30 4206 H 389.681 3.19643 -3.05419 0
M  V30 4207 N 388.74 1.54641 0.303973 0
M  V30 4208 C 389.67 1.88386 1.3796 0
M  V30 4209 C 390.651 0.742485 1.5304 0
M  V30 4210 O 391.836 0.997959 1.66597 0
M  V30 4211 C 388.966 2.12854 2.74427 0
M  V30 4212 C 387.92 3.28702 2.74115 0
M  V30 4213 C 387.246 3.38582 4.13844 0
M  V30 4214 C 388.546 4.65881 2.3612 0
M  V30 4215 H 390.24 2.78474 1.09966 0
M  V30 4216 H 387.786 1.33988 0.527556 0
M  V30 4217 H 389.739 2.35047 3.49758 0
M  V30 4218 H 388.463 1.19535 3.03939 0
M  V30 4219 H 387.122 3.06428 2.0124 0
M  V30 4220 H 386.77 2.42784 4.40528 0
M  V30 4221 H 386.47 4.16453 4.14537 0
M  V30 4222 H 387.994 3.63031 4.90959 0
M  V30 4223 H 389.408 4.87823 3.01167 0
M  V30 4224 H 387.805 5.46444 2.48031 0
M  V30 4225 H 388.875 4.66799 1.3125 0
M  V30 4226 N 390.218 -0.567019 1.47046 0
M  V30 4227 C 391.181 -1.65696 1.58359 0
M  V30 4228 C 392.181 -1.54097 0.459441 0
M  V30 4229 O 393.371 -1.58432 0.724225 0
M  V30 4230 C 390.503 -3.05197 1.51879 0
M  V30 4231 H 391.696 -1.57019 2.5551 0
M  V30 4232 H 389.249 -0.786148 1.3509 0
M  V30 4233 H 389.984 -3.19417 0.560673 0
M  V30 4234 H 389.769 -3.15025 2.33455 0
M  V30 4235 H 391.259 -3.84511 1.62913 0
M  V30 4236 N 391.696 -1.35014 -0.812953 0
M  V30 4237 C 392.942 -1.29129 -1.57154 0
M  V30 4238 C 393.297 0.134922 -1.91926 0
M  V30 4239 O 392.59 1.08373 -1.58006 0
M  V30 4240 C 392.784 -2.12524 -2.87347 0
M  V30 4241 C 392.613 -3.6311 -2.65294 0
M  V30 4242 C 391.383 -4.32363 -2.61516 0
M  V30 4243 C 393.581 -4.56897 -2.36114 0
M  V30 4244 N 391.563 -5.68735 -2.31113 0
M  V30 4245 C 392.934 -5.81345 -2.15494 0
M  V30 4246 C 394.989 -4.45706 -2.21925 0
M  V30 4247 C 393.692 -6.95862 -1.82122 0
M  V30 4248 C 395.718 -5.60066 -1.89948 0
M  V30 4249 C 395.08 -6.83539 -1.7016 0
M  V30 4250 H 391.179 -0.527764 -0.577052 0
M  V30 4251 H 393.763 -1.6983 -0.952146 0
M  V30 4252 H 391.934 -1.74104 -3.47192 0
M  V30 4253 H 393.666 -1.98207 -3.5284 0
M  V30 4254 H 390.421 -3.84907 -2.75941 0
M  V30 4255 H 390.845 -6.40694 -2.18724 0
M  V30 4256 H 395.487 -3.50855 -2.35925 0
M  V30 4257 H 393.205 -7.90685 -1.6686 0
M  V30 4258 H 396.791 -5.53357 -1.79687 0
M  V30 4259 H 395.671 -7.70531 -1.45777 0
M  V30 4260 N 393.175 1.03435 -1.18907 0
M  V30 4261 C 394.405 1.8012 -1.01195 0
M  V30 4262 C 394.813 1.8395 0.442613 0
M  V30 4263 O 394.156 1.27836 1.31923 0
M  V30 4264 C 394.218 3.26792 -1.49823 0
M  V30 4265 C 393.882 3.46609 -2.97844 0
M  V30 4266 C 394.879 3.37278 -3.95651 0
M  V30 4267 C 392.564 3.73001 -3.36416 0
M  V30 4268 C 394.558 3.54054 -5.30023 0
M  V30 4269 C 392.245 3.89423 -4.70949 0
M  V30 4270 C 393.243 3.79951 -5.67562 0
M  V30 4271 O 392.931 3.95895 -6.99659 0
M  V30 4272 H 392.663 0.573865 -0.357289 0
M  V30 4273 H 395.217 1.31207 -1.58031 0
M  V30 4274 H 393.447 3.76703 -0.873578 0
M  V30 4275 H 395.136 3.85055 -1.28404 0
M  V30 4276 H 395.902 3.16846 -3.67197 0
M  V30 4277 H 391.781 3.79469 -2.61772 0
M  V30 4278 H 395.325 3.46577 -6.05417 0
M  V30 4279 H 391.222 4.09351 -4.99101 0
M  V30 4280 H 391.99 4.13019 -7.06653 0
M  V30 4281 N 394.653 0.992116 1.22453 0
M  V30 4282 C 395.583 0.561677 2.26644 0
M  V30 4283 C 396.564 -0.411055 1.65059 0
M  V30 4284 O 397.749 -0.301861 1.9184 0
M  V30 4285 C 394.879 -0.125247 3.47074 0
M  V30 4286 C 393.833 0.765948 4.21091 0
M  V30 4287 C 393.159 -0.0538484 5.34673 0
M  V30 4288 C 394.459 2.06242 4.79856 0
M  V30 4289 H 396.153 1.43259 2.62902 0
M  V30 4290 H 393.699 0.690283 1.26377 0
M  V30 4291 H 395.652 -0.437764 4.1912 0
M  V30 4292 H 394.376 -1.03069 3.0991 0
M  V30 4293 H 393.035 1.0621 3.50878 0
M  V30 4294 H 392.683 -0.960188 4.9375 0
M  V30 4295 H 392.383 0.539415 5.85119 0
M  V30 4296 H 393.907 -0.360477 6.09535 0
M  V30 4297 H 395.321 1.8139 5.43848 0
M  V30 4298 H 393.718 2.60444 5.40638 0
M  V30 4299 H 394.788 2.74167 3.99951 0
M  V30 4300 N 396.131 -1.37776 0.765217 0
M  V30 4301 C 397.094 -2.28686 0.153416 0
M  V30 4302 C 398.094 -1.47727 -0.635081 0
M  V30 4303 O 399.284 -1.68027 -0.459632 0
M  V30 4304 C 396.416 -3.31608 -0.790495 0
M  V30 4305 H 397.609 -2.84297 0.954723 0
M  V30 4306 H 395.162 -1.46932 0.53299 0
M  V30 4307 H 395.897 -2.81109 -1.61705 0
M  V30 4308 H 395.682 -3.9144 -0.227348 0
M  V30 4309 H 397.172 -3.99559 -1.21419 0
M  V30 4310 N 397.609 -0.515225 -1.4894 0
M  V30 4311 C 399.025 -0.172099 -1.58669 0
M  V30 4312 C 399.225 1.32405 -1.51892 0
M  V30 4313 O 398.281 2.10116 -1.40027 0
M  V30 4314 C 399.594 -0.761533 -2.90897 0
M  V30 4315 C 401.142 -0.728926 -3.04394 0
M  V30 4316 C 401.617 -1.29667 -4.39261 0
M  V30 4317 N 403.108 -1.25799 -4.4579 0
M  V30 4318 C 403.843 -1.66733 -5.48623 0
M  V30 4319 N 403.339 -2.15327 -6.58488 0
M  V30 4320 N 405.132 -1.58061 -5.39419 0
M  V30 4321 H 397.283 -1.48778 -1.51588 0
M  V30 4322 H 399.546 -0.617968 -0.718901 0
M  V30 4323 H 399.252 -1.81136 -3.01468 0
M  V30 4324 H 399.126 -0.230106 -3.76497 0
M  V30 4325 H 401.513 0.312098 -2.93445 0
M  V30 4326 H 401.594 -1.29766 -2.20442 0
M  V30 4327 H 401.238 -2.33655 -4.50963 0
M  V30 4328 H 401.168 -0.703752 -5.21876 0
M  V30 4329 H 403.659 -0.902102 -3.66975 0
M  V30 4330 H 403.972 -2.44594 -7.33071 0
M  V30 4331 H 402.317 -2.19311 -6.59491 0
M  V30 4332 H 405.508 -1.19906 -4.52482 0
M  V30 4333 H 405.681 -1.90284 -6.19432 0
M  V30 4334 N 399.087 1.5561 -0.249682 0
M  V30 4335 C 400.498 1.84979 0.252949 0
M  V30 4336 C 400.849 1.17153 1.57384 0
M  V30 4337 O 399.974 0.450884 2.11651 0
M  V30 4338 C 400.569 3.35584 0.465732 0
M  V30 4339 C 399.128 3.65169 0.912624 0
M  V30 4340 C 398.275 2.77299 -0.00859085 0
M  V30 4341 H 401.226 1.51513 -0.47217 0
M  V30 4342 H 401.247 3.57313 1.30795 0
M  V30 4343 H 400.759 3.8492 -0.49579 0
M  V30 4344 H 398.86 3.21312 1.88652 0
M  V30 4345 H 398.973 4.72912 0.767559 0
M  V30 4346 H 397.337 2.49678 0.50327 0
M  V30 4347 H 398.12 3.29442 -0.965537 0
M  V30 4348 N 400.565 -0.0233959 1.57583 0
M  V30 4349 C 401.475 -1.03907 2.10334 0
M  V30 4350 C 402.491 -1.39257 1.04323 0
M  V30 4351 O 403.667 -1.48462 1.36091 0
M  V30 4352 C 400.732 -2.31938 2.57693 0
M  V30 4353 C 399.793 -2.03117 3.78209 0
M  V30 4354 C 399.026 -3.25043 4.233 0
M  V30 4355 O 399.249 -4.35916 3.67876 0
M  V30 4356 O 398.183 -3.10411 5.15683 0
M  V30 4357 H 402.009 -0.620748 2.97288 0
M  V30 4358 H 399.594 -0.240743 1.47448 0
M  V30 4359 H 401.476 -3.07196 2.88458 0
M  V30 4360 H 400.151 -2.73055 1.73847 0
M  V30 4361 H 399.058 -1.25408 3.52454 0
M  V30 4362 H 400.391 -1.66852 4.63056 0
M  V30 4363 N 402.043 -1.548 -0.295768 0
M  V30 4364 C 403.292 -1.73538 -1.02798 0
M  V30 4365 C 403.605 -0.531159 -1.8825 0
M  V30 4366 O 404.811 -0.600458 -2.64777 0
M  V30 4367 C 403.267 -3.07051 -1.87744 0
M  V30 4368 C 402.875 -4.34968 -1.07269 0
M  V30 4369 C 404.619 -3.35146 -2.60533 0
M  V30 4370 C 402.526 -5.5953 -1.91521 0
M  V30 4371 H 401.456 -0.646794 -0.387522 0
M  V30 4372 H 404.107 -1.81278 -0.284718 0
M  V30 4373 H 402.489 -2.93289 -2.66078 0
M  V30 4374 H 403.663 -4.5958 -0.335117 0
M  V30 4375 H 401.978 -4.13847 -0.460384 0
M  V30 4376 H 404.575 -4.2541 -3.23929 0
M  V30 4377 H 404.918 -2.54255 -3.29636 0
M  V30 4378 H 405.451 -3.49902 -1.89244 0
M  V30 4379 H 402.19 -6.43103 -1.26878 0
M  V30 4380 H 401.71 -5.39096 -2.62937 0
M  V30 4381 H 403.389 -5.96982 -2.49442 0
M  V30 4382 N 403.521 0.559213 -1.47345 0
M  V30 4383 C 404.798 1.31997 -1.44348 0
M  V30 4384 C 405.178 2.1064 -0.139358 0
M  V30 4385 O 404.526 2.1091 0.879153 0
M  V30 4386 C 404.736 2.22618 -2.68779 0
M  V30 4387 C 406.084 2.83701 -3.1591 0
M  V30 4388 O 407.108 2.32921 -2.69493 0
M  V30 4389 O 405.967 3.75993 -3.966 0
M  V30 4390 H 403.061 0.594251 -0.575147 0
M  V30 4391 H 405.607 0.578282 -1.59543 0
M  V30 4392 H 404.379 1.64093 -3.55231 0
M  V30 4393 H 404.002 3.04085 -2.5616 0
M  V30 4394 N 404.999 1.35443 0.805782 0
M  V30 4395 C 406.248 1.28097 1.55801 0
M  V30 4396 C 406.561 -0.142428 1.95081 0
M  V30 4397 O 407.767 -0.33817 2.69386 0
M  V30 4398 C 406.223 2.24653 2.81174 0
M  V30 4399 C 405.831 3.72342 2.49129 0
M  V30 4400 C 407.575 2.2625 3.59181 0
M  V30 4401 C 405.482 4.60719 3.70799 0
M  V30 4402 H 404.412 0.475937 0.584808 0
M  V30 4403 H 407.063 1.60712 0.885661 0
M  V30 4404 H 405.445 1.85011 3.50124 0
M  V30 4405 H 406.619 4.20624 1.88181 0
M  V30 4406 H 404.934 3.73361 1.84366 0
M  V30 4407 H 407.531 2.89495 4.49552 0
M  V30 4408 H 407.874 1.26647 3.96568 0
M  V30 4409 H 408.407 2.64426 2.97193 0
M  V30 4410 H 405.146 5.61324 3.3852 0
M  V30 4411 H 404.666 4.17163 4.3097 0
M  V30 4412 H 406.345 4.76182 4.38018 0
M  V30 4413 N 406.477 -1.02803 1.19454 0
M  V30 4414 C 407.407 -2.12999 0.956758 0
M  V30 4415 C 408.388 -1.69743 -0.110188 0
M  V30 4416 O 409.573 -1.94148 0.0450038 0
M  V30 4417 C 406.703 -3.43746 0.495553 0
M  V30 4418 C 405.657 -4.00688 1.50443 0
M  V30 4419 C 404.983 -5.27067 0.900275 0
M  V30 4420 C 406.283 -4.35397 2.8849 0
M  V30 4421 H 407.977 -2.33148 1.87836 0
M  V30 4422 H 405.523 -1.12045 0.904539 0
M  V30 4423 H 407.476 -4.2021 0.316493 0
M  V30 4424 H 406.2 -3.23321 -0.461646 0
M  V30 4425 H 404.859 -3.2632 1.67065 0
M  V30 4426 H 404.507 -5.02959 -0.064503 0
M  V30 4427 H 404.207 -5.66127 1.57397 0
M  V30 4428 H 405.731 -6.06196 0.73203 0
M  V30 4429 H 407.145 -5.02795 2.75446 0
M  V30 4430 H 405.542 -4.85541 3.52661 0
M  V30 4431 H 406.612 -3.44662 3.41081 0
M  V30 4432 N 407.956 -0.998596 -1.21925 0
M  V30 4433 C 409.205 -0.673085 -1.90138 0
M  V30 4434 C 409.518 0.79895 -1.78539 0
M  V30 4435 O 410.724 1.23628 -2.4172 0
M  V30 4436 C 409.18 -1.15339 -3.40918 0
M  V30 4437 C 408.788 -2.65106 -3.61141 0
M  V30 4438 C 410.532 -0.902476 -4.14796 0
M  V30 4439 C 408.439 -3.0671 -5.05651 0
M  V30 4440 H 407.369 -0.248057 -0.712028 0
M  V30 4441 H 410.02 -1.20891 -1.38049 0
M  V30 4442 H 408.402 -0.545658 -3.92223 0
M  V30 4443 H 409.576 -3.31274 -3.20304 0
M  V30 4444 H 407.891 -2.88142 -3.00605 0
M  V30 4445 H 410.488 -1.18895 -5.21314 0
M  V30 4446 H 410.831 0.161349 -4.15987 0
M  V30 4447 H 411.364 -1.47269 -3.69536 0
M  V30 4448 H 408.103 -4.12292 -5.09603 0
M  V30 4449 H 407.623 -2.45249 -5.47369 0
M  V30 4450 H 409.302 -2.9833 -5.74115 0
M  V30 4451 N 409.434 1.37368 -0.772513 0
M  V30 4452 C 410.845 1.8231 -0.402493 0
M  V30 4453 C 411.196 1.6436 1.07146 0
M  V30 4454 O 410.321 1.15514 1.82991 0
M  V30 4455 C 410.916 3.30979 -0.723776 0
M  V30 4456 C 409.475 3.74195 -0.406802 0
M  V30 4457 C 408.622 2.59885 -0.967218 0
M  V30 4458 H 411.573 1.25829 -0.967099 0
M  V30 4459 H 411.594 3.80499 -0.00870832 0
M  V30 4460 H 411.106 3.44011 -1.7966 0
M  V30 4461 H 409.207 3.66732 0.658673 0
M  V30 4462 H 409.32 4.7027 -0.915588 0
M  V30 4463 H 407.684 2.51674 -0.391416 0
M  V30 4464 H 408.467 2.7571 -2.04546 0
M  V30 4465 N 410.912 0.523116 1.48665 0
M  V30 4466 C 412.16 -0.0134497 2.02096 0
M  V30 4467 C 412.481 -1.35418 1.40311 0
M  V30 4468 O 411.751 -1.87543 0.566074 0
M  V30 4469 H 410.331 -0.00795915 0.746958 0
M  V30 4470 H 412.993 0.685388 1.82451 0
M  V30 4471 H 412.089 -0.126849 3.11842 0
M  V30 4472 N 412.39 -1.55475 0.257931 0
M  V30 4473 C 413.353 -2.20551 -0.623706 0
M  V30 4474 C 414.353 -1.17809 -1.09443 0
M  V30 4475 O 415.543 -1.42823 -0.997362 0
M  V30 4476 C 412.675 -2.85784 -1.8585 0
M  V30 4477 H 413.868 -2.99848 -0.0557743 0
M  V30 4478 H 411.421 -1.56298 0.0084422 0
M  V30 4479 H 412.156 -2.10453 -2.46739 0
M  V30 4480 H 411.941 -3.61057 -1.52907 0
M  V30 4481 H 413.431 -3.35553 -2.48584 0
M  V30 4482 N 413.868 0.0150385 -1.57593 0
M  V30 4483 C 414.815 1.01126 -2.07466 0
M  V30 4484 C 415.785 1.35064 -0.966794 0
M  V30 4485 O 416.97 1.4516 -1.23827 0
M  V30 4486 C 414.11 2.30276 -2.57035 0
M  V30 4487 C 413.223 2.02373 -3.81666 0
M  V30 4488 C 412.358 3.25496 -4.19793 0
M  V30 4489 C 411.397 2.93211 -5.37303 0
M  V30 4490 N 410.534 4.08826 -5.70794 0
M  V30 4491 H 415.374 0.57901 -2.92321 0
M  V30 4492 H 412.911 0.27426 -1.44521 0
M  V30 4493 H 414.869 3.05757 -2.83846 0
M  V30 4494 H 413.499 2.71197 -1.75077 0
M  V30 4495 H 412.551 1.17327 -3.61854 0
M  V30 4496 H 413.863 1.74567 -4.67256 0
M  V30 4497 H 413.017 4.09333 -4.47807 0
M  V30 4498 H 411.756 3.56428 -3.32882 0
M  V30 4499 H 410.761 2.07777 -5.09027 0
M  V30 4500 H 411.986 2.63542 -6.25877 0
M  V30 4501 H 409.932 4.39682 -4.86842 0
M  V30 4502 H 409.849 3.84491 -6.50924 0
M  V30 4503 H 411.117 4.93496 -6.03392 0
M  V30 4504 N 415.346 1.54954 0.287554 0
M  V30 4505 C 416.762 1.46469 0.633964 0
M  V30 4506 C 416.962 0.666865 1.90145 0
M  V30 4507 O 416.018 0.179906 2.51858 0
M  V30 4508 C 417.331 2.90556 0.774454 0
M  V30 4509 C 418.879 3.00681 0.869462 0
M  V30 4510 C 419.354 4.45993 1.04184 0
M  V30 4511 N 420.845 4.4976 1.10772 0
M  V30 4512 C 421.58 5.59393 1.25964 0
M  V30 4513 N 421.076 6.78923 1.37968 0
M  V30 4514 N 422.869 5.47107 1.28959 0
M  V30 4515 H 415.02 2.05288 -0.545041 0
M  V30 4516 H 417.283 0.930305 -0.182308 0
M  V30 4517 H 416.989 3.51594 -0.086207 0
M  V30 4518 H 416.863 3.38743 1.6593 0
M  V30 4519 H 419.25 2.39749 1.7206 0
M  V30 4520 H 419.331 2.55769 -0.0396831 0
M  V30 4521 H 418.975 5.07524 0.195422 0
M  V30 4522 H 418.905 4.88548 1.96542 0
M  V30 4523 H 421.396 3.63651 1.02794 0
M  V30 4524 H 421.709 7.58231 1.49353 0
M  V30 4525 H 420.054 6.81763 1.34999 0
M  V30 4526 H 423.245 4.52668 1.19202 0
M  V30 4527 H 423.418 6.32595 1.40455 0
M  V30 4528 N 416.824 -0.551391 1.4764 0
M  V30 4529 C 417.787 -1.64007 1.60107 0
M  V30 4530 C 418.787 -1.53601 0.47576 0
M  V30 4531 O 419.977 -1.57655 0.740988 0
M  V30 4532 C 417.109 -3.03569 1.55108 0
M  V30 4533 H 418.302 -1.543 2.57161 0
M  V30 4534 H 415.855 -0.771776 1.35917 0
M  V30 4535 H 416.59 -3.18804 0.594519 0
M  V30 4536 H 416.375 -3.12532 2.36783 0
M  V30 4537 H 417.865 -3.82762 1.66982 0
M  V30 4538 N 418.302 -1.35869 -0.798587 0
M  V30 4539 C 419.579 -1.20145 -1.54352 0
M  V30 4540 C 419.959 0.216161 -2.0999 0
M  V30 4541 O 419.307 1.22068 -1.93162 0
M  V30 4542 C 419.517 -2.27602 -2.64572 0
M  V30 4543 C 420.865 -2.63811 -3.32699 0
M  V30 4544 O 421.889 -2.26576 -2.74849 0
M  V30 4545 O 420.748 -3.27866 -4.37226 0
M  V30 4546 H 417.842 -0.467248 -0.682355 0
M  V30 4547 H 420.388 -1.47574 -0.837859 0
M  V30 4548 H 419.16 -3.2265 -2.21388 0
M  V30 4549 H 418.783 -2.01488 -3.42766 0
M  V30 4550 N 419.78 1.02168 -1.19998 0
M  V30 4551 C 420.712 2.10705 -0.901994 0
M  V30 4552 C 421.725 1.6244 0.108216 0
M  V30 4553 O 422.914 1.78082 -0.12214 0
M  V30 4554 C 420.014 3.37291 -0.329834 0
M  V30 4555 C 419.187 4.14714 -1.39035 0
M  V30 4556 C 418.246 5.19606 -0.830432 0
M  V30 4557 O 417.272 5.48809 -1.50989 0
M  V30 4558 N 418.474 5.79366 0.362696 0
M  V30 4559 H 421.239 2.36856 -1.83628 0
M  V30 4560 H 418.8 1.18518 -1.10296 0
M  V30 4561 H 420.792 4.04657 0.0587633 0
M  V30 4562 H 419.362 3.0843 0.508891 0
M  V30 4563 H 418.582 3.42392 -1.9535 0
M  V30 4564 H 419.87 4.63226 -2.10474 0
M  V30 4565 H 419.268 5.57968 0.932081 0
M  V30 4566 H 417.825 6.48106 0.69299 0
M  V30 4567 N 421.258 1.00505 1.21394 0
M  V30 4568 C 422.188 0.585684 2.26035 0
M  V30 4569 C 423.169 -0.393525 1.65485 0
M  V30 4570 O 424.354 -0.281497 1.92149 0
M  V30 4571 C 421.484 -0.0884283 3.47187 0
M  V30 4572 C 420.438 0.810567 4.20254 0
M  V30 4573 C 419.764 0.00286382 5.347 0
M  V30 4574 C 421.064 2.1132 4.77641 0
M  V30 4575 H 422.758 1.46039 2.61368 0
M  V30 4576 H 420.304 0.703648 1.25638 0
M  V30 4577 H 422.257 -0.393286 4.19561 0
M  V30 4578 H 420.981 -0.997766 3.10986 0
M  V30 4579 H 419.64 1.09925 3.49731 0
M  V30 4580 H 419.288 -0.907765 4.94741 0
M  V30 4581 H 418.988 0.601444 5.84514 0
M  V30 4582 H 420.512 -0.295808 6.09883 0
M  V30 4583 H 421.926 1.87148 5.41893 0
M  V30 4584 H 420.323 2.66164 5.37845 0
M  V30 4585 H 421.393 2.78393 3.9702 0
M  V30 4586 N 422.737 -1.36956 0.779787 0
M  V30 4587 C 423.986 -1.98738 0.344405 0
M  V30 4588 C 424.299 -1.62596 -1.08728 0
M  V30 4589 O 425.505 -2.1754 -1.62445 0
M  V30 4590 C 423.961 -3.5544 0.564829 0
M  V30 4591 C 423.569 -4.00514 2.0073 0
M  V30 4592 C 425.313 -4.24059 0.193471 0
M  V30 4593 C 423.22 -5.49957 2.17489 0
M  V30 4594 H 422.15 -0.743561 0.12503 0
M  V30 4595 H 424.801 -1.56381 0.960057 0
M  V30 4596 H 423.183 -3.95817 -0.120397 0
M  V30 4597 H 424.357 -3.71362 2.72814 0
M  V30 4598 H 422.672 -3.44703 2.336 0
M  V30 4599 H 425.269 -5.33874 0.297097 0
M  V30 4600 H 425.612 -4.07378 -0.857263 0
M  V30 4601 H 426.145 -3.89012 0.831556 0
M  V30 4602 H 422.884 -5.71574 3.2091 0
M  V30 4603 H 422.404 -5.80767 1.49899 0
M  V30 4604 H 424.083 -6.16043 1.97738 0
M  V30 4605 N 424.215 -0.530993 -1.48385 0
M  V30 4606 C 425.492 0.0671788 -1.95485 0
M  V30 4607 C 425.872 1.51191 -1.47324 0
M  V30 4608 O 425.22 2.17507 -0.700202 0
M  V30 4609 C 425.43 -0.0511206 -3.48963 0
M  V30 4610 C 426.778 0.107632 -4.24464 0
M  V30 4611 O 427.802 0.0226248 -3.56193 0
M  V30 4612 O 426.661 0.285972 -5.45751 0
M  V30 4613 H 423.755 0.0787365 -0.823243 0
M  V30 4614 H 426.301 -0.595662 -1.58902 0
M  V30 4615 H 425.073 -1.05747 -3.7674 0
M  V30 4616 H 424.696 0.650525 -3.92242 0
M  V30 4617 N 425.693 1.55336 -0.266172 0
M  V30 4618 C 426.641 2.23587 0.641228 0
M  V30 4619 C 427.635 1.22986 1.16494 0
M  V30 4620 O 428.841 1.40943 1.1196 0
M  V30 4621 H 425.216 0.717452 0.225315 0
M  V30 4622 H 427.187 2.9837 0.0426561 0
M  V30 4623 C 425.936 2.96369 1.81826 0
M  V30 4624 H 425.259 3.73563 1.42445 0
M  V30 4625 H 426.699 3.47459 2.42998 0
M  V30 4626 C 425.158 2.0133 2.70125 0
M  V30 4627 O 425.688 1.55875 3.70224 0
M  V30 4628 N 423.894 1.6802 2.37102 0
M  V30 4629 H 423.441 2.05181 1.55751 0
M  V30 4630 H 423.399 1.047 2.96454 0
M  V30 4631 N 427.171 -0.0066808 1.57599 0
M  V30 4632 C 428.42 -0.692078 1.89455 0
M  V30 4633 C 428.733 -1.75306 0.867586 0
M  V30 4634 O 429.939 -2.49262 1.07614 0
M  V30 4635 C 428.395 -1.2821 3.36289 0
M  V30 4636 C 428.003 -0.256291 4.47266 0
M  V30 4637 C 429.747 -1.94608 3.77264 0
M  V30 4638 C 427.654 -0.855927 5.85173 0
M  V30 4639 H 426.584 -0.262252 0.706923 0
M  V30 4640 H 429.235 0.052769 1.83424 0
M  V30 4641 H 427.617 -2.0774 3.37135 0
M  V30 4642 H 428.791 0.513923 4.57925 0
M  V30 4643 H 427.106 0.306862 4.15268 0
M  V30 4644 H 429.703 -2.40364 4.77629 0
M  V30 4645 H 430.046 -2.77382 3.10427 0
M  V30 4646 H 430.579 -1.21822 3.78688 0
M  V30 4647 H 427.318 -0.0671161 6.55466 0
M  V30 4648 H 426.838 -1.59546 5.78191 0
M  V30 4649 H 428.517 -1.35658 6.32618 0
M  V30 4650 N 428.649 -1.55105 -0.279332 0
M  V30 4651 C 429.596 -1.8755 -1.34513 0
M  V30 4652 C 430.566 -0.726384 -1.49375 0
M  V30 4653 O 431.751 -0.977063 -1.63884 0
M  V30 4654 C 428.891 -2.14738 -2.70151 0
M  V30 4655 C 428.004 -3.42285 -2.63562 0
M  V30 4656 C 427.139 -3.59206 -3.91337 0
M  V30 4657 C 426.178 -4.80467 -3.79233 0
M  V30 4658 N 425.315 -4.94079 -4.98829 0
M  V30 4659 H 430.155 -2.78456 -1.06143 0
M  V30 4660 H 427.692 -1.37867 -0.512936 0
M  V30 4661 H 429.65 -2.28501 -3.49061 0
M  V30 4662 H 428.28 -1.27075 -2.96735 0
M  V30 4663 H 427.332 -3.37029 -1.76397 0
M  V30 4664 H 428.644 -4.31328 -2.50515 0
M  V30 4665 H 427.798 -3.72751 -4.78687 0
M  V30 4666 H 426.537 -2.68337 -4.07243 0
M  V30 4667 H 425.542 -4.66932 -2.90266 0
M  V30 4668 H 426.767 -5.72765 -3.64852 0
M  V30 4669 H 424.713 -4.06139 -5.15158 0
M  V30 4670 H 424.63 -5.77156 -4.8829 0
M  V30 4671 H 425.898 -5.12003 -5.8777 0
M  V30 4672 N 430.127 0.543554 -1.4793 0
M  V30 4673 C 431.355 1.32516 -1.58894 0
M  V30 4674 C 431.77 1.87215 -0.244131 0
M  V30 4675 O 431.127 1.65709 0.764652 0
M  V30 4676 C 431.178 2.48554 -2.62494 0
M  V30 4677 O 430.899 1.96112 -3.91755 0
M  V30 4678 C 432.4 3.40572 -2.8377 0
M  V30 4679 H 429.62 0.403472 -0.536145 0
M  V30 4680 H 432.164 0.657106 -1.93655 0
M  V30 4681 H 430.319 3.1127 -2.30629 0
M  V30 4682 H 430.733 2.71967 -4.4848 0
M  V30 4683 H 432.207 4.18375 -3.60093 0
M  V30 4684 H 432.684 3.94965 -1.92092 0
M  V30 4685 H 433.29 2.8366 -3.16887 0
M  V30 4686 N 431.605 1.3629 0.791371 0
M  V30 4687 C 432.568 1.30309 1.88553 0
M  V30 4688 C 433.568 0.211204 1.59407 0
M  V30 4689 O 434.758 0.465865 1.67855 0
M  V30 4690 C 431.89 1.01956 3.25297 0
M  V30 4691 H 433.083 2.27614 1.95273 0
M  V30 4692 H 430.636 1.21035 0.988953 0
M  V30 4693 H 431.371 0.050998 3.2426 0
M  V30 4694 H 431.156 1.80968 3.4784 0
M  V30 4695 H 432.646 1.0037 4.05359 0
M  V30 4696 N 433.083 -1.0153 1.20538 0
M  V30 4697 C 434.36 -1.72327 0.925343 0
M  V30 4698 C 434.74 -2.03383 -0.565547 0
M  V30 4699 O 434.088 -1.69934 -1.52757 0
M  V30 4700 C 434.298 -2.9902 1.79967 0
M  V30 4701 C 435.646 -3.72258 2.04228 0
M  V30 4702 O 436.67 -3.08979 1.77231 0
M  V30 4703 O 435.529 -4.86053 2.4983 0
M  V30 4704 H 432.623 -0.751099 0.346092 0
M  V30 4705 H 435.169 -1.07366 1.31417 0
M  V30 4706 H 433.941 -2.72402 2.80915 0
M  V30 4707 H 433.564 -3.71721 1.41099 0
M  V30 4708 N 434.561 -1.01147 -1.20859 0
M  V30 4709 C 435.807 -0.698899 -1.90377 0
M  V30 4710 C 436.14 0.76904 -1.78324 0
M  V30 4711 O 435.415 1.55817 -1.16409 0
M  V30 4712 C 435.698 -1.12878 -3.41951 0
M  V30 4713 C 435.551 -2.65665 -3.62963 0
M  V30 4714 C 436.87 -0.696114 -4.3456 0
M  V30 4715 H 433.989 -0.255372 -0.691342 0
M  V30 4716 H 436.631 -1.25831 -1.42361 0
M  V30 4717 H 434.781 -0.652827 -3.82976 0
M  V30 4718 H 436.453 -3.21074 -3.31224 0
M  V30 4719 H 434.696 -3.06878 -3.06608 0
M  V30 4720 H 435.367 -2.90797 -4.69192 0
M  V30 4721 H 437.843 -1.10521 -4.01154 0
M  V30 4722 H 436.719 -1.025 -5.39245 0
M  V30 4723 H 436.98 0.402465 -4.40264 0
M  V30 4724 N 436.039 1.36541 -0.78704 0
M  V30 4725 C 437.267 2.03561 -0.370199 0
M  V30 4726 C 437.682 1.59347 1.01263 0
M  V30 4727 O 437.039 0.781781 1.64907 0
M  V30 4728 C 437.09 3.59033 -0.421614 0
M  V30 4729 O 436.811 4.01634 -1.7499 0
M  V30 4730 C 438.312 4.433 0.00489763 0
M  V30 4731 H 435.532 0.653346 -0.152904 0
M  V30 4732 H 438.076 1.74566 -1.06522 0
M  V30 4733 H 436.231 3.86746 0.224971 0
M  V30 4734 H 436.645 4.96217 -1.69909 0
M  V30 4735 H 438.119 5.51939 -0.0822184 0
M  V30 4736 H 438.596 4.26285 1.05723 0
M  V30 4737 H 439.202 4.20843 -0.614085 0
M  V30 4738 N 437.518 0.538854 1.48102 0
M  V30 4739 C 438.448 -0.207654 2.32575 0
M  V30 4740 C 439.429 -0.926559 1.4265 0
M  V30 4741 O 440.614 -0.91061 1.71527 0
M  V30 4742 C 437.744 -1.24957 3.24042 0
M  V30 4743 C 436.698 -0.648263 4.23062 0
M  V30 4744 C 436.024 -1.79348 5.03725 0
M  V30 4745 C 437.324 0.385897 5.20872 0
M  V30 4746 H 439.018 0.497534 2.95237 0
M  V30 4747 H 436.564 0.240715 1.41974 0
M  V30 4748 H 438.517 -1.77983 3.81969 0
M  V30 4749 H 437.241 -1.98446 2.59397 0
M  V30 4750 H 435.9 -0.139452 3.66335 0
M  V30 4751 H 435.548 -2.51696 4.35498 0
M  V30 4752 H 435.248 -1.39702 5.70751 0
M  V30 4753 H 436.772 -2.32735 5.64506 0
M  V30 4754 H 438.186 -0.057607 5.73271 0
M  V30 4755 H 436.583 0.700227 5.96001 0
M  V30 4756 H 437.653 1.28848 4.67468 0
M  V30 4757 N 438.996 -1.55193 0.274407 0
M  V30 4758 C 440.221 -2.04446 -0.348824 0
M  V30 4759 C 440.646 -1.15149 -1.48735 0
M  V30 4760 O 440.004 -0.149952 -1.80679 0
M  V30 4761 C 440.052 -3.51431 -0.808009 0
M  V30 4762 O 439.156 -3.65225 -1.91531 0
M  V30 4763 H 438.497 -0.66006 -0.0722276 0
M  V30 4764 H 441.027 -2.00481 0.408498 0
M  V30 4765 H 441.037 -3.92781 -1.10395 0
M  V30 4766 H 439.712 -4.15892 0.0249865 0
M  V30 4767 H 438.289 -3.35778 -1.62196 0
M  V30 4768 N 440.474 -0.00167713 -1.576 0
M  V30 4769 C 441.406 1.0174 -2.05382 0
M  V30 4770 C 442.419 1.30595 -0.972052 0
M  V30 4771 O 443.608 1.27542 -1.24882 0
M  V30 4772 C 440.708 2.35174 -2.44022 0
M  V30 4773 C 439.881 2.25234 -3.74951 0
M  V30 4774 C 438.94 3.4137 -4.00441 0
M  V30 4775 O 437.966 3.19483 -4.71083 0
M  V30 4776 N 439.168 4.64275 -3.48467 0
M  V30 4777 H 441.933 0.609902 -2.93428 0
M  V30 4778 H 439.494 0.185672 -1.60832 0
M  V30 4779 H 441.486 3.11643 -2.58187 0
M  V30 4780 H 440.056 2.67659 -1.61485 0
M  V30 4781 H 439.276 1.33664 -3.70847 0
M  V30 4782 H 440.564 2.15767 -4.60784 0
M  V30 4783 H 439.962 4.84955 -2.91264 0
M  V30 4784 H 438.519 5.38005 -3.67959 0
M  V30 4785 N 441.952 1.55251 0.271103 0
M  V30 4786 C 442.862 1.9136 1.35714 0
M  V30 4787 C 443.878 0.811075 1.5394 0
M  V30 4788 O 445.054 1.11031 1.6803 0
M  V30 4789 C 442.119 2.1798 2.69603 0
M  V30 4790 C 441.18 3.4153 2.60107 0
M  V30 4791 C 440.413 3.66871 3.8761 0
M  V30 4792 O 440.636 2.94689 4.8838 0
M  V30 4793 O 439.57 4.60405 3.87699 0
M  V30 4794 H 443.396 2.83815 1.08088 0
M  V30 4795 H 440.981 1.41821 0.469792 0
M  V30 4796 H 442.863 2.36518 3.48765 0
M  V30 4797 H 441.538 1.28708 2.97012 0
M  V30 4798 H 440.445 3.28325 1.79314 0
M  V30 4799 H 441.778 4.31027 2.37647 0
M  V30 4800 N 443.43 -0.535701 1.48216 0
M  V30 4801 C 444.707 -1.29683 1.46429 0
M  V30 4802 C 445.087 -2.10391 0.172852 0
M  V30 4803 O 444.435 -2.12282 -0.845488 0
M  V30 4804 C 444.645 -2.18313 2.72287 0
M  V30 4805 C 445.993 -2.78639 3.20383 0
M  V30 4806 O 447.017 -2.28604 2.73164 0
M  V30 4807 O 445.876 -3.69636 4.02531 0
M  V30 4808 H 442.97 -0.585026 0.584529 0
M  V30 4809 H 445.516 -0.552827 1.60443 0
M  V30 4810 H 444.288 -1.58421 3.57797 0
M  V30 4811 H 443.911 -2.99971 2.60966 0
M  V30 4812 N 444.908 -1.36708 -0.784132 0
M  V30 4813 C 446.157 -1.30559 -1.53744 0
M  V30 4814 C 446.47 0.111374 -1.95283 0
M  V30 4815 O 447.676 0.29527 -2.6989 0
M  V30 4816 C 446.132 -2.29098 -2.77565 0
M  V30 4817 C 445.74 -3.76258 -2.43174 0
M  V30 4818 C 447.484 -2.31936 -3.55536 0
M  V30 4819 C 445.391 -4.6656 -3.63422 0
M  V30 4820 H 444.321 -0.48518 -0.577162 0
M  V30 4821 H 446.972 -1.62101 -0.859981 0
M  V30 4822 H 445.354 -1.90557 -3.47137 0
M  V30 4823 H 446.528 -4.23565 -1.81465 0
M  V30 4824 H 444.843 -3.76246 -1.78403 0
M  V30 4825 H 447.44 -2.9661 -4.44889 0
M  V30 4826 H 447.783 -1.3294 -3.94503 0
M  V30 4827 H 448.316 -2.6912 -2.92949 0
M  V30 4828 H 445.055 -5.66638 -3.29547 0
M  V30 4829 H 444.575 -4.23966 -4.24279 0
M  V30 4830 H 446.254 -4.8309 -4.30387 0
M  V30 4831 N 446.386 1.0089 -1.21074 0
M  V30 4832 C 447.611 1.78727 -1.05221 0
M  V30 4833 C 448.036 1.83932 0.393795 0
M  V30 4834 O 447.394 1.28004 1.28393 0
M  V30 4835 C 447.442 3.20665 -1.64944 0
M  V30 4836 O 446.546 4.02632 -0.892273 0
M  V30 4837 H 445.887 0.550973 -0.370574 0
M  V30 4838 H 448.417 1.26847 -1.60534 0
M  V30 4839 H 448.427 3.71352 -1.69002 0
M  V30 4840 H 447.102 3.16191 -2.70177 0
M  V30 4841 H 445.679 3.61207 -0.926492 0
M  V30 4842 N 447.864 1.01787 1.20321 0
M  V30 4843 C 449.111 0.707936 1.89722 0
M  V30 4844 C 449.439 -0.762535 1.78929 0
M  V30 4845 O 448.694 -1.56977 1.16861 0
M  V30 4846 C 448.993 1.09076 3.40349 0
M  V30 4847 C 448.659 2.55765 3.71342 0
M  V30 4848 C 447.321 2.95845 3.79511 0
M  V30 4849 C 449.673 3.50723 3.85542 0
M  V30 4850 C 447.001 4.2982 3.99339 0
M  V30 4851 C 449.353 4.84387 4.06881 0
M  V30 4852 C 448.017 5.24172 4.1328 0
M  V30 4853 H 447.287 0.259052 0.694243 0
M  V30 4854 H 449.934 1.27868 1.42555 0
M  V30 4855 H 448.239 0.438453 3.89339 0
M  V30 4856 H 449.936 0.828636 3.92345 0
M  V30 4857 H 446.526 2.2371 3.65584 0
M  V30 4858 H 450.71 3.20916 3.78585 0
M  V30 4859 H 445.966 4.60196 4.02529 0
M  V30 4860 H 450.14 5.57891 4.1681 0
M  V30 4861 H 447.767 6.27997 4.28396 0
M  V30 4862 N 449.342 -1.36122 0.79427 0
M  V30 4863 C 450.591 -1.98361 0.365464 0
M  V30 4864 C 450.904 -1.6374 -1.06997 0
M  V30 4865 O 452.11 -2.19251 -1.60129 0
M  V30 4866 C 450.566 -3.54821 0.602496 0
M  V30 4867 C 450.174 -3.98362 2.04967 0
M  V30 4868 C 451.918 -4.2383 0.238437 0
M  V30 4869 C 449.825 -5.47619 2.2331 0
M  V30 4870 H 448.755 -0.742193 0.13291 0
M  V30 4871 H 451.406 -1.55354 0.976589 0
M  V30 4872 H 449.788 -3.95922 -0.078409 0
M  V30 4873 H 450.962 -3.68447 2.76737 0
M  V30 4874 H 449.277 -3.42206 2.37243 0
M  V30 4875 H 451.874 -5.33529 0.353705 0
M  V30 4876 H 452.217 -4.08264 -0.814006 0
M  V30 4877 H 452.75 -3.88108 0.872769 0
M  V30 4878 H 449.489 -5.68138 3.26955 0
M  V30 4879 H 449.009 -5.79145 1.5605 0
M  V30 4880 H 450.688 -6.13911 2.0426 0
M  V30 4881 N 450.82 -0.546701 -1.47814 0
M  V30 4882 C 452.097 0.0464413 -1.95545 0
M  V30 4883 C 452.477 1.4962 -1.48919 0
M  V30 4884 O 451.825 2.16752 -0.723232 0
M  V30 4885 C 452.035 -0.0881298 -3.48889 0
M  V30 4886 C 453.383 0.0626059 -4.24554 0
M  V30 4887 O 454.407 -0.0151555 -3.56197 0
M  V30 4888 O 453.266 0.228071 -5.46024 0
M  V30 4889 H 450.36 0.0700004 -0.824032 0
M  V30 4890 H 452.906 -0.612482 -1.58262 0
M  V30 4891 H 451.678 -1.09737 -3.75597 0
M  V30 4892 H 451.301 0.608886 -3.9291 0
M  V30 4893 N 452.299 1.55045 -0.282633 0
M  V30 4894 C 453.246 2.22822 0.601566 0
M  V30 4895 C 454.216 1.20431 1.14392 0
M  V30 4896 O 455.401 1.48996 1.19184 0
M  V30 4897 C 452.541 2.95873 1.77632 0
M  V30 4898 C 451.654 4.12999 1.26711 0
M  V30 4899 C 450.789 4.73676 2.40426 0
M  V30 4900 C 449.828 5.82981 1.86545 0
M  V30 4901 N 448.965 6.3769 2.93762 0
M  V30 4902 H 453.805 2.97995 0.0169528 0
M  V30 4903 H 451.342 1.471 -0.00339964 0
M  V30 4904 H 453.3 3.36447 2.46697 0
M  V30 4905 H 451.93 2.2311 2.33285 0
M  V30 4906 H 450.982 3.77494 0.469314 0
M  V30 4907 H 452.294 4.91803 0.832518 0
M  V30 4908 H 451.448 5.17008 3.17471 0
M  V30 4909 H 450.187 3.94164 2.87203 0
M  V30 4910 H 449.192 5.39092 1.07983 0
M  V30 4911 H 450.417 6.64366 1.40694 0
M  V30 4912 H 448.363 5.61069 3.39908 0
M  V30 4913 H 448.28 7.11788 2.54744 0
M  V30 4914 H 449.548 6.8568 3.7076 0
M  V30 4915 N 453.777 0.010035 1.57597 0
M  V30 4916 C 454.707 -0.976857 2.12084 0
M  V30 4917 C 455.688 -1.35191 1.03235 0
M  V30 4918 O 456.873 -1.43389 1.3097 0
M  V30 4919 C 454.003 -2.26548 2.63236 0
M  V30 4920 C 452.957 -2.03175 3.76701 0
M  V30 4921 C 452.283 -3.38138 4.14206 0
M  V30 4922 C 453.583 -1.38625 5.03568 0
M  V30 4923 H 455.277 -0.523145 2.94794 0
M  V30 4924 H 452.823 -0.250195 1.4181 0
M  V30 4925 H 454.776 -2.95952 2.99984 0
M  V30 4926 H 453.5 -2.74051 1.77661 0
M  V30 4927 H 452.159 -1.36195 3.40362 0
M  V30 4928 H 451.807 -3.83363 3.25641 0
M  V30 4929 H 451.507 -3.23312 4.90656 0
M  V30 4930 H 453.031 -4.08841 4.53521 0
M  V30 4931 H 454.445 -1.98 5.38023 0
M  V30 4932 H 452.842 -1.34256 5.84889 0
M  V30 4933 H 453.912 -0.356722 4.83586 0
M  V30 4934 N 455.255 -1.55392 -0.262866 0
M  V30 4935 C 456.502 -1.76476 -0.993109 0
M  V30 4936 C 456.83 -0.571479 -1.85915 0
M  V30 4937 O 456.085 0.445733 -1.90556 0
M  V30 4938 C 456.384 -3.02889 -1.89718 0
M  V30 4939 C 456.05 -4.34974 -1.18781 0
M  V30 4940 C 454.712 -4.7087 -0.991699 0
M  V30 4941 C 457.064 -5.16695 -0.683798 0
M  V30 4942 C 454.392 -5.86036 -0.279024 0
M  V30 4943 C 456.744 -6.32598 0.0153327 0
M  V30 4944 C 455.408 -6.67127 0.223062 0
M  V30 4945 H 454.678 -0.64577 -0.363404 0
M  V30 4946 H 457.325 -1.89664 -0.264525 0
M  V30 4947 H 455.63 -2.84644 -2.6923 0
M  V30 4948 H 457.327 -3.16399 -2.46359 0
M  V30 4949 H 453.917 -4.06765 -1.35058 0
M  V30 4950 H 458.101 -4.8943 -0.8229 0
M  V30 4951 H 453.357 -6.11306 -0.107456 0
M  V30 4952 H 457.531 -6.95171 0.413584 0
M  V30 4953 H 455.158 -7.56216 0.777265 0
M  V30 4954 N 456.733 0.527833 -1.48498 0
M  V30 4955 C 457.696 1.61439 -1.62696 0
M  V30 4956 C 458.696 1.52824 -0.500136 0
M  V30 4957 O 459.886 1.56456 -0.765976 0
M  V30 4958 C 457.018 3.01063 -1.59918 0
M  V30 4959 H 458.211 1.50189 -2.59583 0
M  V30 4960 H 455.764 0.750055 -1.37127 0
M  V30 4961 H 456.499 3.17818 -0.645163 0
M  V30 4962 H 456.284 3.08725 -2.41726 0
M  V30 4963 H 457.774 3.80057 -1.73051 0
M  V30 4964 O 458.25 1.46817 0.672841 0
M  V30 4965 H 458.941 1.41236 1.3256 0
M  V30 END ATOM
M  V30 BEGIN BOND
M  V30 END BOND
M  V30 END CTAB
M  END
$$$$
