drugbank_target|P46597 Acetylserotonin O-methyltransferase (DB01065)
 OpenBabel12092120343D

  0  0  0     0  0            999 V3000
M  V30 BEGIN CTAB
M  V30 COUNTS 5352 5411 0 0 0
M  V30 BEGIN ATOM
M  V30 1 H -0.908 1.98254 -0.117106 0
M  V30 2 N 0 1.576 0 0
M  V30 3 C 0.933 2.03868 1.02534 0
M  V30 4 C 1.911 0.928543 1.3348 0
M  V30 5 O 3.095 1.19667 1.45644 0
M  V30 6 C 0.222 2.43627 2.35294 0
M  V30 7 C -0.732 3.65373 2.2001 0
M  V30 8 S 0.101 5.13292 1.52614 0
M  V30 9 C 1.257 5.56322 2.86805 0
M  V30 10 H 1.49 2.90518 0.631377 0
M  V30 11 H -0.977 1.52953 0.210867 0
M  V30 12 H 0.981 2.67203 3.11629 0
M  V30 13 H -0.358 1.57376 2.7183 0
M  V30 14 H -1.165 3.90944 3.18086 0
M  V30 15 H -1.563 3.418 1.51819 0
M  V30 16 H 0.729 5.58782 3.83104 0
M  V30 17 H 1.672 6.56266 2.65933 0
M  V30 18 H 2.08 4.83886 2.90714 0
M  V30 19 N 1.4781 -0.272755 1.55222 0
M  V30 20 C 2.7261 -1.00234 1.75492 0
M  V30 21 C 3.0471 -1.8681 0.5592 0
M  V30 22 O 2.3171 -1.91215 -0.425882 0
M  V30 23 H 0.8971 -0.373076 0.647166 0
M  V30 24 H 3.5591 -0.296926 1.92625 0
M  V30 25 H 2.6551 -1.63913 2.65592 0
M  V30 26 N 2.9562 -1.48159 -0.537278 0
M  V30 27 C 4.1812 -1.59707 -1.32319 0
M  V30 28 C 4.6062 -0.254859 -1.86365 0
M  V30 29 O 3.9642 0.772378 -1.64024 0
M  V30 30 C 4.0122 -2.6412 -2.45505 0
M  V30 31 O 3.1162 -2.20774 -3.48328 0
M  V30 32 H 2.4572 -0.535791 -0.392204 0
M  V30 33 H 4.9872 -1.94092 -0.647268 0
M  V30 34 H 4.9972 -2.85166 -2.91795 0
M  V30 35 H 3.6722 -3.61567 -2.05528 0
M  V30 36 H 2.2492 -2.09911 -3.08207 0
M  V30 37 N 4.4343 0.785586 -1.36625 0
M  V30 38 C 5.6593 1.57963 -1.34397 0
M  V30 39 C 6.0843 1.87964 0.071526 0
M  V30 40 O 5.4423 1.48182 1.0446 0
M  V30 41 C 5.4903 2.87511 -2.17646 0
M  V30 42 O 4.5943 3.81281 -1.57158 0
M  V30 43 H 3.9353 0.479014 -0.459828 0
M  V30 44 H 6.4653 0.973411 -1.79961 0
M  V30 45 H 6.4753 3.36745 -2.30362 0
M  V30 46 H 5.1503 2.65002 -3.20541 0
M  V30 47 H 3.7273 3.39885 -1.53403 0
M  V30 48 N 5.9124 1.20967 1.01018 0
M  V30 49 C 6.8224 0.980157 2.13143 0
M  V30 50 C 7.8384 -0.0660665 1.73875 0
M  V30 51 O 9.0144 0.122821 2.01025 0
M  V30 52 C 6.0794 0.54216 3.42435 0
M  V30 53 C 5.1404 1.65999 3.95908 0
M  V30 54 C 4.3734 1.2428 5.19028 0
M  V30 55 O 4.5964 0.114196 5.70286 0
M  V30 56 O 3.5304 2.05271 5.65816 0
M  V30 57 H 7.3564 1.91913 2.35379 0
M  V30 58 H 4.9414 0.994099 1.11526 0
M  V30 59 H 6.8234 0.30744 4.20277 0
M  V30 60 H 5.4984 -0.36815 3.216 0
M  V30 61 H 4.4054 1.94906 3.19316 0
M  V30 62 H 5.7384 2.54753 4.21143 0
M  V30 63 N 7.3905 -1.2043 1.01659 0
M  V30 64 C 8.6675 -1.8548 0.621004 0
M  V30 65 C 9.0475 -1.9091 -0.900919 0
M  V30 66 O 8.3955 -1.41694 -1.79263 0
M  V30 67 C 8.6055 -3.25119 1.2688 0
M  V30 68 C 9.9535 -4.01403 1.38423 0
M  V30 69 O 10.9775 -3.34473 1.22501 0
M  V30 70 O 9.8365 -5.21265 1.64151 0
M  V30 71 H 6.9305 -0.798761 0.214266 0
M  V30 72 H 9.4765 -1.28019 1.11396 0
M  V30 73 H 8.2485 -3.15932 2.30873 0
M  V30 74 H 7.8715 -3.90212 0.762917 0
M  V30 75 N 8.8686 -0.792821 -1.36206 0
M  V30 76 C 9.8006 -0.151469 -2.28699 0
M  V30 77 C 10.8136 0.641262 -1.49638 0
M  V30 78 O 12.0026 0.475885 -1.72039 0
M  V30 79 C 9.1026 0.808424 -3.29117 0
M  V30 80 C 8.2756 0.0650202 -4.37352 0
M  V30 81 C 7.3346 0.941358 -5.17711 0
M  V30 82 O 6.3606 0.397352 -5.67811 0
M  V30 83 N 7.5626 2.2652 -5.3448 0
M  V30 84 H 10.3276 -0.945982 -2.84379 0
M  V30 85 H 7.8886 -0.647032 -1.48409 0
M  V30 86 H 9.8806 1.3986 -3.79765 0
M  V30 87 H 8.4506 1.5038 -2.74052 0
M  V30 88 H 7.6706 -0.706255 -3.87822 0
M  V30 89 H 8.9586 -0.447847 -5.06825 0
M  V30 90 H 8.3566 2.73128 -4.95396 0
M  V30 91 H 6.9136 2.80493 -5.88359 0
M  V30 92 N 10.3467 1.47872 -0.545128 0
M  V30 93 C 11.3097 2.28337 0.198717 0
M  V30 94 C 12.3097 1.36255 0.853888 0
M  V30 95 O 13.4997 1.59003 0.711606 0
M  V30 96 C 10.6317 3.15585 1.28915 0
M  V30 97 H 11.8247 2.95567 -0.507941 0
M  V30 98 H 9.3777 1.53362 -0.301616 0
M  V30 99 H 10.1127 2.53019 2.02859 0
M  V30 100 H 9.8977 3.83337 0.824309 0
M  V30 101 H 11.3877 3.76243 1.81194 0
M  V30 102 N 11.8248 0.280983 1.55075 0
M  V30 103 C 13.0548 -0.336804 2.03836 0
M  V30 104 C 13.4628 -1.49577 1.15859 0
M  V30 105 O 12.8058 -1.82888 0.172503 0
M  V30 106 C 12.8678 -0.874616 3.48699 0
M  V30 107 C 12.5318 0.156478 4.56732 0
M  V30 108 C 13.5288 0.978032 5.10618 0
M  V30 109 C 11.2138 0.292409 5.01448 0
M  V30 110 C 13.2078 1.92165 6.07743 0
M  V30 111 C 10.8948 1.23949 5.98398 0
M  V30 112 C 11.8928 2.05261 6.51427 0
M  V30 113 O 11.5808 2.98367 7.4648 0
M  V30 114 H 11.3128 -0.0800885 0.671239 0
M  V30 115 H 13.8668 0.412589 2.01213 0
M  V30 116 H 12.0968 -1.67418 3.4858 0
M  V30 117 H 13.7858 -1.40612 3.80766 0
M  V30 118 H 14.5518 0.883782 4.7688 0
M  V30 119 H 10.4308 -0.330498 4.59814 0
M  V30 120 H 13.9748 2.55672 6.49059 0
M  V30 121 H 9.8718 1.33454 6.31554 0
M  V30 122 H 10.6398 2.93116 7.64215 0
M  V30 123 N 13.3029 -1.57598 0.00835791 0
M  V30 124 C 14.7189 -1.55764 -0.347822 0
M  V30 125 C 14.9189 -1.01186 -1.74252 0
M  V30 126 O 13.9749 -0.649371 -2.44007 0
M  V30 127 C 15.2879 -2.99927 -0.215407 0
M  V30 128 C 16.8359 -3.11656 -0.289725 0
M  V30 129 C 17.3109 -4.57621 -0.18634 0
M  V30 130 N 18.8019 -4.62557 -0.243978 0
M  V30 131 C 19.5369 -5.73094 -0.18745 0
M  V30 132 N 19.0329 -6.92753 -0.0810331 0
M  V30 133 N 20.8259 -5.61588 -0.239925 0
M  V30 134 H 12.9769 -1.91411 0.92062 0
M  V30 135 H 15.2399 -0.879562 0.353659 0
M  V30 136 H 14.9459 -3.43729 0.744512 0
M  V30 137 H 14.8199 -3.63865 -0.994097 0
M  V30 138 H 17.2069 -2.67779 -1.24009 0
M  V30 139 H 17.2879 -2.5048 0.51898 0
M  V30 140 H 16.9319 -5.02174 0.760519 0
M  V30 141 H 16.8619 -5.16752 -1.01364 0
M  V30 142 H 19.3529 -3.76481 -0.327217 0
M  V30 143 H 19.6659 -7.72787 -0.0440241 0
M  V30 144 H 18.0109 -6.94984 -0.0465419 0
M  V30 145 H 21.2019 -4.66996 -0.321317 0
M  V30 146 H 21.3749 -6.47714 -0.192407 0
M  V30 147 N 14.781 0.264519 -1.55364 0
M  V30 148 C 15.711 1.33121 -1.91836 0
M  V30 149 C 16.692 1.51101 -0.781192 0
M  V30 150 O 17.877 1.64003 -1.04003 0
M  V30 151 C 15.007 2.68921 -2.19769 0
M  V30 152 C 13.961 2.65661 -3.35571 0
M  V30 153 C 13.287 4.05093 -3.49004 0
M  V30 154 C 14.587 2.24187 -4.71739 0
M  V30 155 H 16.281 1.02844 -2.81182 0
M  V30 156 H 13.827 0.493286 -1.35287 0
M  V30 157 H 15.78 3.43663 -2.43872 0
M  V30 158 H 14.504 3.00799 -1.27231 0
M  V30 159 H 13.163 1.93377 -3.1145 0
M  V30 160 H 12.811 4.34206 -2.53917 0
M  V30 161 H 12.511 4.03804 -4.26868 0
M  V30 162 H 14.035 4.81561 -3.75408 0
M  V30 163 H 15.449 2.88654 -4.9533 0
M  V30 164 H 13.846 2.34044 -5.52579 0
M  V30 165 H 14.916 1.19327 -4.69988 0
M  V30 166 N 16.2591 1.48442 0.529413 0
M  V30 167 C 17.1891 1.65902 1.64313 0
M  V30 168 C 18.1701 0.507897 1.6234 0
M  V30 169 O 19.3551 0.740503 1.79528 0
M  V30 170 C 16.4851 1.69911 3.02898 0
M  V30 171 C 15.4391 2.8453 3.19729 0
M  V30 172 C 14.7651 2.73629 4.59381 0
M  V30 173 C 16.0651 4.25821 3.02447 0
M  V30 174 H 17.7591 2.5914 1.49955 0
M  V30 175 H 15.3051 1.24709 0.719982 0
M  V30 176 H 17.2581 1.80715 3.80684 0
M  V30 177 H 15.9821 0.732524 3.18279 0
M  V30 178 H 14.6411 2.73283 2.44361 0
M  V30 179 H 14.2891 1.74938 4.71599 0
M  V30 180 H 13.9891 3.50541 4.71588 0
M  V30 181 H 15.5131 2.86401 5.39265 0
M  V30 182 H 16.9271 4.37898 3.70024 0
M  V30 183 H 15.3241 5.03735 3.26146 0
M  V30 184 H 16.3941 4.42244 1.98867 0
M  V30 185 N 17.7372 -0.778329 1.37039 0
M  V30 186 C 18.6852 -1.91278 1.32345 0
M  V30 187 C 19.6792 -1.68051 0.213331 0
M  V30 188 O 20.8852 -1.75922 0.38098 0
M  V30 189 H 17.2602 -0.628909 0.412283 0
M  V30 190 H 19.2312 -1.92355 2.28127 0
M  V30 191 C 17.9802 -3.28455 1.14073 0
M  V30 192 H 17.3032 -3.46901 1.98746 0
M  V30 193 H 18.7432 -4.08152 1.14837 0
M  V30 194 C 17.2022 -3.36548 -0.154015 0
M  V30 195 O 17.7322 -3.85186 -1.13993 0
M  V30 196 N 15.9382 -2.89894 -0.202475 0
M  V30 197 H 15.4852 -2.50504 0.600476 0
M  V30 198 H 15.4432 -2.9569 -1.06841 0
M  V30 199 N 19.2153 -1.21501 -1.00376 0
M  V30 200 C 20.4923 -0.941745 -1.71437 0
M  V30 201 C 20.8723 0.546114 -2.03914 0
M  V30 202 O 20.2203 1.51128 -1.71384 0
M  V30 203 C 20.4303 -1.82812 -2.97289 0
M  V30 204 C 21.7783 -2.07771 -3.70292 0
M  V30 205 O 22.8023 -1.80171 -3.07273 0
M  V30 206 O 21.6613 -2.54456 -4.83647 0
M  V30 207 H 18.7553 -0.353243 -0.747762 0
M  V30 208 H 21.3013 -1.32436 -1.06108 0
M  V30 209 H 20.0733 -2.83501 -2.69709 0
M  V30 210 H 19.6963 -1.4464 -3.70358 0
M  V30 211 N 20.6934 1.19889 -1.02296 0
M  V30 212 C 21.9234 1.93109 -0.734332 0
M  V30 213 C 22.3314 1.75377 0.709889 0
M  V30 214 O 21.6744 1.06912 1.49384 0
M  V30 215 C 21.7364 3.45362 -0.99827 0
M  V30 216 C 21.4004 3.8686 -2.43287 0
M  V30 217 C 22.3974 3.92102 -3.41397 0
M  V30 218 C 20.0824 4.18668 -2.77529 0
M  V30 219 C 22.0764 4.28573 -4.71809 0
M  V30 220 C 19.7634 4.54813 -4.08153 0
M  V30 221 C 20.7614 4.59739 -5.05103 0
M  V30 222 O 20.4494 4.95051 -6.33388 0
M  V30 223 H 20.1814 0.620409 -0.268456 0
M  V30 224 H 22.7354 1.53144 -1.3688 0
M  V30 225 H 20.9654 3.85482 -0.306645 0
M  V30 226 H 22.6544 3.99814 -0.700234 0
M  V30 227 H 23.4204 3.67685 -3.1628 0
M  V30 228 H 19.2994 4.14021 -2.0275 0
M  V30 229 H 22.8434 4.32333 -5.4748 0
M  V30 230 H 18.7404 4.78687 -4.33047 0
M  V30 231 H 19.5084 5.1302 -6.37772 0
M  V30 232 N 22.1715 0.800033 1.35784 0
M  V30 233 C 23.1345 0.211565 2.28221 0
M  V30 234 C 24.1345 -0.59728 1.49296 0
M  V30 235 O 25.3245 -0.416721 1.69142 0
M  V30 236 C 22.4565 -0.705846 3.33513 0
M  V30 237 H 23.6495 1.02677 2.81776 0
M  V30 238 H 21.2025 0.570211 1.45528 0
M  V30 239 H 21.9375 -1.54498 2.85133 0
M  V30 240 H 21.7225 -0.127655 3.91892 0
M  V30 241 H 23.2125 -1.11211 4.02519 0
M  V30 242 N 23.6496 -1.47581 0.552962 0
M  V30 243 C 24.5976 -2.31648 -0.21023 0
M  V30 244 C 25.5916 -1.42663 -0.913432 0
M  V30 245 O 26.7976 -1.5945 -0.835201 0
M  V30 246 H 23.1726 -0.746989 -0.0866676 0
M  V30 247 H 25.1436 -2.93869 0.518051 0
M  V30 248 C 23.8926 -3.25226 -1.22976 0
M  V30 249 H 23.2156 -3.93658 -0.698077 0
M  V30 250 H 24.6556 -3.86889 -1.73473 0
M  V30 251 C 23.1146 -2.48448 -2.27542 0
M  V30 252 O 23.6446 -2.22585 -3.34393 0
M  V30 253 N 21.8506 -2.09532 -2.01357 0
M  V30 254 H 21.3976 -2.30765 -1.14478 0
M  V30 255 H 21.3556 -1.58476 -2.71538 0
M  V30 256 N 25.1277 -0.289203 -1.54924 0
M  V30 257 C 26.3757 0.322879 -1.99504 0
M  V30 258 C 26.6967 1.55313 -1.1791 0
M  V30 259 O 25.9667 1.94001 -0.272097 0
M  V30 260 H 24.5467 0.122291 -0.736922 0
M  V30 261 H 27.2087 -0.397802 -1.90797 0
M  V30 262 H 26.3047 0.603061 -3.06218 0
M  V30 263 N 26.6058 1.57591 -0.0167156 0
M  V30 264 C 27.8528 1.91283 0.664597 0
M  V30 265 C 28.1808 0.891949 1.72842 0
M  V30 266 O 27.4358 -0.100931 1.9544 0
M  V30 267 C 27.7348 3.3172 1.33029 0
M  V30 268 C 27.4008 4.4914 0.398047 0
M  V30 269 C 26.0628 4.80992 0.141421 0
M  V30 270 C 28.4148 5.20634 -0.242825 0
M  V30 271 C 25.7428 5.81703 -0.764092 0
M  V30 272 C 28.0948 6.22311 -1.13632 0
M  V30 273 C 26.7588 6.52611 -1.40196 0
M  V30 274 H 26.0288 0.699956 0.243193 0
M  V30 275 H 28.6758 1.9135 -0.0758267 0
M  V30 276 H 26.9808 3.27856 2.14517 0
M  V30 277 H 28.6778 3.55055 1.86379 0
M  V30 278 H 25.2678 4.24262 0.608238 0
M  V30 279 H 29.4518 4.96267 -0.0576019 0
M  V30 280 H 24.7078 6.03532 -0.977732 0
M  V30 281 H 28.8818 6.76834 -1.63917 0
M  V30 282 H 26.5088 7.30467 -2.10529 0
M  V30 283 N 28.0839 -0.256276 1.55502 0
M  V30 284 C 29.0169 -1.34321 1.84481 0
M  V30 285 C 29.9949 -1.46802 0.699131 0
M  V30 286 O 31.1789 -1.63165 0.943904 0
M  V30 287 C 28.3059 -2.71779 2.02123 0
M  V30 288 C 27.3519 -2.76496 3.24734 0
M  V30 289 S 28.1849 -2.3405 4.81644 0
M  V30 290 C 29.3409 -3.73452 5.02279 0
M  V30 291 H 29.5739 -1.09539 2.76385 0
M  V30 292 H 27.1069 -0.45678 1.47489 0
M  V30 293 H 29.0649 -3.50932 2.12972 0
M  V30 294 H 27.7259 -2.93803 1.11078 0
M  V30 295 H 26.9189 -3.77424 3.34016 0
M  V30 296 H 26.5209 -2.05379 3.12563 0
M  V30 297 H 28.8129 -4.6887 4.89047 0
M  V30 298 H 29.7559 -3.6911 6.04287 0
M  V30 299 H 30.1639 -3.6553 4.30172 0
M  V30 300 N 29.562 -1.4872 -0.521534 0
M  V30 301 C 30.808 -1.574 -1.27879 0
M  V30 302 C 31.141 -0.250817 -1.92573 0
M  V30 303 O 30.416 0.743934 -1.79711 0
M  V30 304 C 30.699 -2.71843 -2.36164 0
M  V30 305 C 30.552 -4.13893 -1.76105 0
M  V30 306 C 31.871 -2.82008 -3.37875 0
M  V30 307 H 28.99 -0.572941 -0.463581 0
M  V30 308 H 31.632 -1.80927 -0.580119 0
M  V30 309 H 29.782 -2.51914 -2.95756 0
M  V30 310 H 31.454 -4.45284 -1.20499 0
M  V30 311 H 29.697 -4.20498 -1.06601 0
M  V30 312 H 30.368 -4.89804 -2.5455 0
M  V30 313 H 32.844 -3.00086 -2.88249 0
M  V30 314 H 31.72 -3.63796 -4.11028 0
M  V30 315 H 31.981 -1.90511 -3.98946 0
M  V30 316 N 31.0401 0.771051 -1.3745 0
M  V30 317 C 32.2651 1.56529 -1.36065 0
M  V30 318 C 32.6901 1.88029 0.0515859 0
M  V30 319 O 32.0481 1.49282 1.02882 0
M  V30 320 C 32.0961 2.85187 -2.20683 0
M  V30 321 O 31.2001 3.79593 -1.61193 0
M  V30 322 H 30.5411 0.47411 -0.464883 0
M  V30 323 H 33.0711 0.954269 -1.80983 0
M  V30 324 H 33.0811 3.34283 -2.33921 0
M  V30 325 H 31.7561 2.61588 -3.23334 0
M  V30 326 H 30.3331 3.38239 -1.56999 0
M  V30 327 N 32.5182 1.22032 0.997298 0
M  V30 328 C 33.4502 0.944263 2.08845 0
M  V30 329 C 34.4632 -0.0754663 1.62625 0
M  V30 330 O 35.6522 0.157994 1.77799 0
M  V30 331 C 32.7522 0.397723 3.36558 0
M  V30 332 C 31.9252 1.47362 4.11829 0
M  V30 333 C 30.9842 0.934951 5.17827 0
M  V30 334 O 30.0102 1.62016 5.45655 0
M  V30 335 N 31.2122 -0.245895 5.79979 0
M  V30 336 H 33.9772 1.88363 2.33109 0
M  V30 337 H 31.5382 1.12661 1.16272 0
M  V30 338 H 33.5302 0.0227771 4.04694 0
M  V30 339 H 32.1002 -0.446646 3.09393 0
M  V30 340 H 31.3202 2.02208 3.38386 0
M  V30 341 H 32.6082 2.19764 4.58891 0
M  V30 342 H 32.0062 -0.819475 5.59733 0
M  V30 343 H 30.5632 -0.562272 6.4937 0
M  V30 344 N 33.9963 -1.19345 1.0293 0
M  V30 345 C 35.2423 -1.89318 0.727083 0
M  V30 346 C 35.5753 -1.79446 -0.742483 0
M  V30 347 O 34.8503 -1.1871 -1.54072 0
M  V30 348 C 35.1333 -3.40238 1.17942 0
M  V30 349 C 34.9863 -3.58979 2.71024 0
M  V30 350 C 36.3053 -4.33479 0.760548 0
M  V30 351 H 33.4243 -0.687475 0.265606 0
M  V30 352 H 36.0663 -1.40477 1.2793 0
M  V30 353 H 34.2163 -3.81964 0.709608 0
M  V30 354 H 35.8883 -3.26421 3.25955 0
M  V30 355 H 34.1313 -3.02018 3.11396 0
M  V30 356 H 34.8023 -4.64823 2.9773 0
M  V30 357 H 37.2783 -3.99469 1.16464 0
M  V30 358 H 36.1543 -5.37664 1.10493 0
M  V30 359 H 36.4153 -4.40813 -0.337063 0
M  V30 360 N 35.4744 -0.807222 -1.35358 0
M  V30 361 C 36.4044 -0.232509 -2.3234 0
M  V30 362 C 37.3854 0.642386 -1.57504 0
M  V30 363 O 38.5704 0.572526 -1.85569 0
M  V30 364 C 35.7004 0.619238 -3.41735 0
M  V30 365 C 34.6544 -0.157215 -4.27711 0
M  V30 366 C 33.9804 0.816273 -5.28433 0
M  V30 367 C 35.2804 -1.35656 -5.04376 0
M  V30 368 H 36.9744 -1.04276 -2.80654 0
M  V30 369 H 34.5204 -0.50288 -1.34934 0
M  V30 370 H 36.4734 1.03137 -4.08584 0
M  V30 371 H 35.1974 1.46239 -2.92031 0
M  V30 372 H 33.8564 -0.550525 -3.62443 0
M  V30 373 H 33.5044 1.65494 -4.74996 0
M  V30 374 H 33.2044 0.301067 -5.86828 0
M  V30 375 H 34.7284 1.22659 -5.98153 0
M  V30 376 H 36.1424 -1.01927 -5.64166 0
M  V30 377 H 34.5394 -1.8063 -5.7227 0
M  V30 378 H 35.6094 -2.14288 -4.34981 0
M  V30 379 N 36.9525 1.47285 -0.560781 0
M  V30 380 C 38.1995 2.02464 -0.038062 0
M  V30 381 C 38.5275 1.43474 1.31322 0
M  V30 382 O 37.7825 0.581311 1.86867 0
M  V30 383 C 38.0815 3.57258 0.100784 0
M  V30 384 C 37.7475 4.35184 -1.18007 0
M  V30 385 C 36.4095 4.56194 -1.53103 0
M  V30 386 C 38.7615 4.80098 -2.02867 0
M  V30 387 C 36.0895 5.19367 -2.729 0
M  V30 388 C 38.4415 5.44593 -3.21871 0
M  V30 389 C 37.1055 5.63835 -3.57276 0
M  V30 390 H 36.3755 0.740869 -0.0139279 0
M  V30 391 H 39.0225 1.76916 -0.733012 0
M  V30 392 H 37.3275 3.81819 0.878724 0
M  V30 393 H 39.0245 3.97606 0.520639 0
M  V30 394 H 35.6145 4.19113 -0.8968 0
M  V30 395 H 39.7985 4.63642 -1.7706 0
M  V30 396 H 35.0545 5.32459 -3.00496 0
M  V30 397 H 39.2285 5.78358 -3.87911 0
M  V30 398 H 36.8555 6.12557 -4.50197 0
M  V30 399 N 38.4306 0.297415 1.54768 0
M  V30 400 C 39.3936 -0.567375 2.22066 0
M  V30 401 C 40.3936 -1.06409 1.20556 0
M  V30 402 O 41.5836 -0.960691 1.45315 0
M  V30 403 C 38.7156 -1.78517 2.90421 0
M  V30 404 H 39.9086 0.0205534 2.99893 0
M  V30 405 H 37.4616 0.0482163 1.56226 0
M  V30 406 H 38.1966 -2.41303 2.16664 0
M  V30 407 H 37.9816 -1.43669 3.64831 0
M  V30 408 H 39.4716 -2.39964 3.41771 0
M  V30 409 N 39.9087 -1.5758 0.0250728 0
M  V30 410 C 40.8717 -2.08896 -0.943139 0
M  V30 411 C 41.8717 -1.00321 -1.25668 0
M  V30 412 O 43.0617 -1.26495 -1.19769 0
M  V30 413 C 40.1937 -2.55143 -2.26086 0
M  V30 414 H 41.3867 -2.95723 -0.498775 0
M  V30 415 H 38.9397 -1.54703 -0.222888 0
M  V30 416 H 39.6747 -1.71633 -2.75159 0
M  V30 417 H 39.4597 -3.34461 -2.04641 0
M  V30 418 H 40.9497 -2.95083 -2.95492 0
M  V30 419 N 41.3868 0.248026 -1.55636 0
M  V30 420 C 42.6268 0.983592 -1.79178 0
M  V30 421 C 42.9908 1.82567 -0.594414 0
M  V30 422 O 44.1918 2.59292 -0.708583 0
M  V30 423 C 42.4628 1.82228 -3.07454 0
M  V30 424 S 44.0218 2.61709 -3.52213 0
M  V30 425 H 40.8398 0.330866 -0.629324 0
M  V30 426 H 43.4418 0.251562 -1.93875 0
M  V30 427 H 42.1458 1.19333 -3.92668 0
M  V30 428 H 41.6768 2.59708 -2.95492 0
M  V30 429 H 43.6918 3.84655 -3.13457 0
M  V30 430 N 42.8649 1.48995 0.513639 0
M  V30 431 C 43.7749 1.67443 1.64317 0
M  V30 432 C 44.7909 0.556947 1.64846 0
M  V30 433 O 45.9669 0.830082 1.83498 0
M  V30 434 C 43.0319 1.72515 3.00732 0
M  V30 435 C 42.0929 2.96009 3.1093 0
M  V30 436 C 41.3259 3.00829 4.40837 0
M  V30 437 O 41.5489 2.13594 5.28898 0
M  V30 438 O 40.4829 3.93168 4.55744 0
M  V30 439 H 44.3089 2.63106 1.51687 0
M  V30 440 H 41.8939 1.32588 0.688543 0
M  V30 441 H 43.7759 1.78277 3.81831 0
M  V30 442 H 42.4509 0.800278 3.13651 0
M  V30 443 H 41.3579 2.9577 2.29065 0
M  V30 444 H 42.6909 3.87934 3.02933 0
M  V30 445 N 44.343 -0.763751 1.37857 0
M  V30 446 C 45.273 -1.89103 1.36975 0
M  V30 447 C 46.254 -1.68439 0.237152 0
M  V30 448 O 47.439 -1.8918 0.438713 0
M  V30 449 C 44.569 -3.26496 1.18395 0
M  V30 450 C 43.523 -3.61741 2.28751 0
M  V30 451 C 42.849 -4.97762 1.95286 0
M  V30 452 C 44.149 -3.67665 3.70972 0
M  V30 453 H 45.843 -1.90099 2.31307 0
M  V30 454 H 43.389 -0.91319 1.11341 0
M  V30 455 H 45.342 -4.05003 1.16406 0
M  V30 456 H 44.066 -3.25955 0.205215 0
M  V30 457 H 42.725 -2.85547 2.29909 0
M  V30 458 H 42.373 -4.93769 0.959221 0
M  V30 459 H 42.073 -5.22313 2.69189 0
M  V30 460 H 43.597 -5.7866 1.94898 0
M  V30 461 H 45.011 -4.36307 3.719 0
M  V30 462 H 43.408 -4.03718 4.43995 0
M  V30 463 H 44.478 -2.68134 4.0402 0
M  V30 464 N 45.8211 -1.22559 -0.990812 0
M  V30 465 C 47.0691 -1.04933 -1.72724 0
M  V30 466 C 47.3901 0.416158 -1.90508 0
M  V30 467 O 46.6601 1.29918 -1.46622 0
M  V30 468 H 45.2401 -0.385296 -0.639965 0
M  V30 469 H 47.9021 -1.54105 -1.19322 0
M  V30 470 H 46.9981 -1.52886 -2.72089 0
M  V30 471 N 47.2992 1.18797 -1.03562 0
M  V30 472 C 48.5452 1.8893 -0.737113 0
M  V30 473 C 48.8782 1.79837 0.732956 0
M  V30 474 O 48.1532 1.19525 1.5344 0
M  V30 475 C 48.4362 3.39607 -1.19745 0
M  V30 476 C 48.2892 3.57537 -2.72924 0
M  V30 477 C 49.6082 4.33069 -0.783526 0
M  V30 478 H 46.7272 0.686057 -0.269249 0
M  V30 479 H 49.3692 1.39797 -1.28673 0
M  V30 480 H 47.5192 3.81583 -0.729855 0
M  V30 481 H 49.1912 3.24688 -3.27682 0
M  V30 482 H 47.4342 3.00363 -3.12993 0
M  V30 483 H 48.1052 4.63238 -3.00191 0
M  V30 484 H 50.5812 3.98846 -1.18581 0
M  V30 485 H 49.4572 5.3707 -1.13343 0
M  V30 486 H 49.7182 4.40986 0.313681 0
M  V30 487 N 48.7773 0.814389 1.34928 0
M  V30 488 C 50.0243 0.398423 1.98542 0
M  V30 489 C 50.3523 -1.03638 1.64589 0
M  V30 490 O 49.6073 -1.73509 0.90516 0
M  V30 491 C 49.9063 0.537781 3.53331 0
M  V30 492 C 49.5723 1.93704 4.07172 0
M  V30 493 C 48.2343 2.31984 4.21589 0
M  V30 494 C 50.5863 2.85213 4.36237 0
M  V30 495 C 47.9143 3.61125 4.62391 0
M  V30 496 C 50.2663 4.13809 4.78482 0
M  V30 497 C 48.9303 4.52077 4.91104 0
M  V30 498 H 48.2003 0.145793 0.726516 0
M  V30 499 H 50.8473 1.03669 1.61012 0
M  V30 500 H 49.1523 -0.183906 3.91368 0
M  V30 501 H 50.8493 0.196588 4.00518 0
M  V30 502 H 47.4393 1.62966 3.96409 0
M  V30 503 H 51.6233 2.56885 4.24645 0
M  V30 504 H 46.8793 3.90612 4.70353 0
M  V30 505 H 51.0533 4.84811 4.99932 0
M  V30 506 H 48.6803 5.52196 5.22478 0
M  V30 507 N 50.2554 -1.46986 0.568584 0
M  V30 508 C 51.5324 -1.95592 -0.0174074 0
M  V30 509 C 51.9124 -1.51124 -1.47393 0
M  V30 510 O 51.2604 -0.755329 -2.15655 0
M  V30 511 C 51.4704 -3.48719 0.139913 0
M  V30 512 C 52.8184 -4.246 0.000426376 0
M  V30 513 O 53.8424 -3.56135 0.0680316 0
M  V30 514 O 52.7014 -5.46302 -0.146988 0
M  V30 515 H 49.7954 -0.82498 -0.0577599 0
M  V30 516 H 52.3414 -1.57335 0.635909 0
M  V30 517 H 51.1134 -3.73927 1.15301 0
M  V30 518 H 50.7364 -3.93771 -0.550491 0
M  V30 519 N 51.7335 -0.305618 -1.54608 0
M  V30 520 C 52.6635 0.561482 -2.26649 0
M  V30 521 C 53.6445 1.13415 -1.26772 0
M  V30 522 O 54.8295 1.16262 -1.55553 0
M  V30 523 C 51.9595 1.73122 -3.01075 0
M  V30 524 C 50.9135 1.2887 -4.08138 0
M  V30 525 C 50.2395 2.54396 -4.70305 0
M  V30 526 C 51.5395 0.416578 -5.20636 0
M  V30 527 H 53.2335 -0.0393902 -2.99374 0
M  V30 528 H 50.7795 -0.020385 -1.43986 0
M  V30 529 H 52.7325 2.34396 -3.50195 0
M  V30 530 H 51.4565 2.3584 -2.25936 0
M  V30 531 H 50.1155 0.698991 -3.59875 0
M  V30 532 H 49.7635 3.15439 -3.918 0
M  V30 533 H 49.4635 2.25486 -5.42614 0
M  V30 534 H 50.9875 3.16464 -5.2219 0
M  V30 535 H 52.4015 0.935116 -5.65622 0
M  V30 536 H 50.7985 0.221046 -5.99693 0
M  V30 537 H 51.8685 -0.557162 -4.81688 0
M  V30 538 N 53.2116 1.57565 -0.0334293 0
M  V30 539 C 54.1416 2.13511 0.945265 0
M  V30 540 C 55.1226 1.05231 1.33643 0
M  V30 541 O 56.3076 1.33084 1.41429 0
M  V30 542 C 53.4376 2.6657 2.22616 0
M  V30 543 C 52.3916 3.79676 1.97561 0
M  V30 544 C 51.7176 4.1918 3.31952 0
M  V30 545 C 53.0176 5.0557 1.31135 0
M  V30 546 H 54.7116 2.95538 0.479325 0
M  V30 547 H 52.2576 1.42166 0.229115 0
M  V30 548 H 54.2106 3.04344 2.91466 0
M  V30 549 H 52.9346 1.8171 2.71384 0
M  V30 550 H 51.5936 3.42347 1.31127 0
M  V30 551 H 51.2416 3.31296 3.78487 0
M  V30 552 H 50.9416 4.95402 3.15992 0
M  V30 553 H 52.4656 4.59541 4.02063 0
M  V30 554 H 53.8796 5.40903 1.89992 0
M  V30 555 H 52.2766 5.86818 1.25559 0
M  V30 556 H 53.3466 4.84062 0.284894 0
M  V30 557 N 54.6897 -0.239769 1.55765 0
M  V30 558 C 55.6527 -1.28038 1.90103 0
M  V30 559 C 56.6527 -1.40723 0.778055 0
M  V30 560 O 57.8427 -1.39301 1.04599 0
M  V30 561 C 54.9747 -2.65702 2.13577 0
M  V30 562 H 56.1677 -0.988048 2.83157 0
M  V30 563 H 53.7207 -0.479382 1.48767 0
M  V30 564 H 54.4557 -3.00063 1.23015 0
M  V30 565 H 54.2407 -2.57875 2.95369 0
M  V30 566 H 55.7307 -3.40828 2.41301 0
M  V30 567 N 56.1678 -1.49265 -0.50573 0
M  V30 568 C 57.0778 -1.68312 -1.63427 0
M  V30 569 C 58.0938 -0.565682 -1.64548 0
M  V30 570 O 59.2698 -0.839801 -1.83055 0
M  V30 571 C 56.3348 -1.74107 -2.99813 0
M  V30 572 C 55.3958 -2.97653 -3.09356 0
M  V30 573 C 54.6288 -3.03163 -4.39236 0
M  V30 574 O 54.8518 -2.16396 -5.27758 0
M  V30 575 O 53.7858 -3.9558 -4.53652 0
M  V30 576 H 57.6118 -2.63907 -1.50289 0
M  V30 577 H 55.1968 -1.32951 -0.681502 0
M  V30 578 H 57.0788 -1.803 -3.80881 0
M  V30 579 H 55.7538 -0.816901 -3.13223 0
M  V30 580 H 54.6608 -2.96981 -2.27493 0
M  V30 581 H 55.9938 -3.89535 -3.00871 0
M  V30 582 N 57.6459 0.756429 -1.3826 0
M  V30 583 C 58.6089 1.85176 -1.35065 0
M  V30 584 C 59.6089 1.58818 -0.251703 0
M  V30 585 O 60.7989 1.66615 -0.508433 0
M  V30 586 C 57.9309 3.22596 -1.10201 0
M  V30 587 H 59.1239 1.89417 -2.3251 0
M  V30 588 H 56.6769 0.95783 -1.23512 0
M  V30 589 H 57.4119 3.24025 -0.133504 0
M  V30 590 H 57.1969 3.43122 -1.89762 0
M  V30 591 H 58.6869 4.02673 -1.10654 0
M  V30 592 N 59.124 1.23083 0.984299 0
M  V30 593 C 60.535 1.05609 1.5396 0
M  V30 594 C 60.886 -0.377793 1.92528 0
M  V30 595 O 60.011 -1.26398 1.75649 0
M  V30 596 C 60.606 1.91087 2.7977 0
M  V30 597 C 59.165 1.77885 3.31713 0
M  V30 598 C 58.312 1.87028 2.04733 0
M  V30 599 H 61.263 1.36802 0.804419 0
M  V30 600 H 61.284 1.43336 3.5247 0
M  V30 601 H 60.796 2.9544 2.51668 0
M  V30 602 H 58.897 0.762995 3.64704 0
M  V30 603 H 59.01 2.61047 4.01735 0
M  V30 604 H 57.374 1.30565 2.18689 0
M  V30 605 H 58.157 2.92929 1.79017 0
M  V30 606 N 60.6021 -1.18246 1.0419 0
M  V30 607 C 61.8501 -1.87886 0.744543 0
M  V30 608 C 62.1711 -1.8082 -0.730006 0
M  V30 609 O 61.4411 -1.22736 -1.52685 0
M  V30 610 H 60.0211 -0.695556 0.272417 0
M  V30 611 H 62.6831 -1.43494 1.31892 0
M  V30 612 H 61.7791 -2.9389 1.05049 0
M  V30 613 N 62.0802 -0.821533 -1.34494 0
M  V30 614 C 63.4912 -0.467956 -1.8074 0
M  V30 615 C 63.8422 1.01151 -1.68116 0
M  V30 616 O 62.9672 1.78707 -1.22036 0
M  V30 617 C 63.5622 -0.842627 -3.28154 0
M  V30 618 C 62.1212 -0.541439 -3.72485 0
M  V30 619 C 61.2682 -1.06028 -2.56229 0
M  V30 620 H 64.2192 -1.01183 -1.22261 0
M  V30 621 H 64.2402 -0.145876 -3.8022 0
M  V30 622 H 63.7522 -1.91945 -3.37311 0
M  V30 623 H 61.8532 0.526034 -3.68868 0
M  V30 624 H 61.9662 -1.08453 -4.66663 0
M  V30 625 H 60.3302 -0.481892 -2.501 0
M  V30 626 H 61.1132 -2.14352 -2.68157 0
M  V30 627 N 63.5583 1.46682 -0.576371 0
M  V30 628 C 64.4883 2.33028 0.148397 0
M  V30 629 C 65.4693 1.44961 0.889956 0
M  V30 630 O 66.6543 1.73789 0.866662 0
M  V30 631 C 63.7843 3.27117 1.1667 0
M  V30 632 C 62.7383 4.24575 0.540386 0
M  V30 633 C 62.0643 5.08126 1.6647 0
M  V30 634 C 63.3643 5.19722 -0.518331 0
M  V30 635 H 65.0583 2.93875 -0.572509 0
M  V30 636 H 62.6043 1.41315 -0.276768 0
M  V30 637 H 64.5573 3.86374 1.68204 0
M  V30 638 H 63.2813 2.64364 1.9178 0
M  V30 639 H 61.9403 3.66571 0.0461769 0
M  V30 640 H 61.5883 4.41762 2.40531 0
M  V30 641 H 61.2883 5.74122 1.25131 0
M  V30 642 H 62.8123 5.70246 2.18293 0
M  V30 643 H 64.2263 5.73232 -0.0883058 0
M  V30 644 H 62.6233 5.94026 -0.851679 0
M  V30 645 H 63.6933 4.64037 -1.40703 0
M  V30 646 N 65.0364 0.313813 1.54444 0
M  V30 647 C 66.3134 -0.345447 1.92525 0
M  V30 648 C 66.6934 -1.70667 1.24242 0
M  V30 649 O 66.0414 -2.25273 0.382654 0
M  V30 650 C 66.2514 -0.44737 3.46121 0
M  V30 651 C 67.5994 -0.712238 4.18584 0
M  V30 652 O 68.6234 -0.530678 3.52225 0
M  V30 653 O 67.4824 -1.06183 5.36085 0
M  V30 654 H 64.5764 -0.195407 0.803583 0
M  V30 655 H 67.1224 0.362813 1.65776 0
M  V30 656 H 65.8944 0.509043 3.87975 0
M  V30 657 H 65.5174 -1.20359 3.78945 0
M  V30 658 N 66.5145 -1.57545 0.0417849 0
M  V30 659 C 67.7605 -1.92601 -0.635021 0
M  V30 660 C 68.0935 -0.919627 -1.71045 0
M  V30 661 O 67.3685 0.0557892 -1.9442 0
M  V30 662 C 67.6515 -3.38085 -1.23979 0
M  V30 663 C 67.5045 -4.49467 -0.173057 0
M  V30 664 C 68.8235 -3.83776 -2.15416 0
M  V30 665 H 65.9425 -0.700397 -0.229374 0
M  V30 666 H 68.5845 -1.89728 0.101633 0
M  V30 667 H 66.7345 -3.40664 -1.86762 0
M  V30 668 H 68.4065 -4.59018 0.458312 0
M  V30 669 H 66.6495 -4.30909 0.499996 0
M  V30 670 H 67.3205 -5.48323 -0.636054 0
M  V30 671 H 69.7965 -3.83013 -1.62605 0
M  V30 672 H 68.6725 -4.8624 -2.54679 0
M  V30 673 H 68.9335 -3.19998 -3.05047 0
M  V30 674 N 67.9926 0.231505 -1.5589 0
M  V30 675 C 68.9556 1.27028 -1.90779 0
M  V30 676 C 69.9556 1.40308 -0.785507 0
M  V30 677 O 71.1456 1.38744 -1.05336 0
M  V30 678 C 68.2776 2.64566 -2.14983 0
M  V30 679 H 69.4706 0.973017 -2.83677 0
M  V30 680 H 67.0236 0.471486 -1.49019 0
M  V30 681 H 67.7586 2.99406 -1.24604 0
M  V30 682 H 67.5436 2.56305 -2.96732 0
M  V30 683 H 69.0336 3.39543 -2.43105 0
M  V30 684 N 69.4707 1.49531 0.497807 0
M  V30 685 C 70.4337 1.65916 1.58128 0
M  V30 686 C 71.4337 0.530825 1.51786 0
M  V30 687 O 72.6237 0.797342 1.54881 0
M  V30 688 C 69.7557 1.65951 2.9778 0
M  V30 689 H 70.9487 2.62556 1.44929 0
M  V30 690 H 68.5017 1.38611 0.722275 0
M  V30 691 H 69.2367 0.709065 3.16453 0
M  V30 692 H 69.0217 2.47897 3.03792 0
M  V30 693 H 70.5117 1.80673 3.76493 0
M  V30 694 N 70.9488 -0.749086 1.3866 0
M  V30 695 C 72.1948 -1.51056 1.35314 0
M  V30 696 C 72.5278 -1.94121 -0.0553751 0
M  V30 697 O 71.8028 -1.65763 -1.01749 0
M  V30 698 C 72.0858 -2.76003 2.31288 0
M  V30 699 C 71.9388 -2.39047 3.8102 0
M  V30 700 C 73.2578 -3.78046 2.2532 0
M  V30 701 H 70.3768 -0.547972 0.492844 0
M  V30 702 H 73.0188 -0.857628 1.69543 0
M  V30 703 H 71.1688 -3.31716 2.02229 0
M  V30 704 H 72.8408 -1.89074 4.20771 0
M  V30 705 H 71.0838 -1.71449 3.98482 0
M  V30 706 H 71.7548 -3.28462 4.4364 0
M  V30 707 H 74.2308 -3.31884 2.50983 0
M  V30 708 H 73.1068 -4.63159 2.94576 0
M  V30 709 H 73.3678 -4.23957 1.25352 0
M  V30 710 N 72.4269 -1.23603 -0.977757 0
M  V30 711 C 73.3899 -1.02069 -2.05218 0
M  V30 712 C 74.3899 0.0184305 -1.60789 0
M  V30 713 O 75.5799 -0.221569 -1.72785 0
M  V30 714 C 72.7119 -0.544926 -3.36517 0
M  V30 715 H 73.9049 -1.9742 -2.25755 0
M  V30 716 H 71.4579 -1.05684 -1.15155 0
M  V30 717 H 72.1929 0.412241 -3.21669 0
M  V30 718 H 71.9779 -1.2948 -3.70105 0
M  V30 719 H 73.4679 -0.414985 -4.15533 0
M  V30 720 N 73.905 1.17692 -1.04816 0
M  V30 721 C 74.868 2.19787 -0.650117 0
M  V30 722 C 75.868 1.58044 0.296427 0
M  V30 723 O 77.058 1.74012 0.0808097 0
M  V30 724 C 74.19 3.40869 0.0456987 0
M  V30 725 H 75.383 2.56516 -1.5537 0
M  V30 726 H 72.936 1.31708 -0.841594 0
M  V30 727 H 73.671 3.09681 0.962726 0
M  V30 728 H 73.456 3.86928 -0.634727 0
M  V30 729 H 74.946 4.16445 0.310432 0
M  V30 730 N 75.3831 0.828654 1.34056 0
M  V30 731 C 76.6311 0.41863 1.97717 0
M  V30 732 C 76.9521 -1.02314 1.66002 0
M  V30 733 O 76.2221 -1.71119 0.953683 0
M  V30 734 H 74.8021 0.151809 0.731412 0
M  V30 735 H 77.4641 1.05936 1.63596 0
M  V30 736 H 76.5601 0.542318 3.07352 0
M  V30 737 N 76.8612 -1.46375 0.584142 0
M  V30 738 C 78.1072 -2.02678 0.0703716 0
M  V30 739 C 78.4402 -1.4545 -1.28678 0
M  V30 740 O 77.7152 -0.62014 -1.84349 0
M  V30 741 C 77.9982 -3.60099 0.00614674 0
M  V30 742 C 77.8512 -4.27709 1.3923 0
M  V30 743 C 79.1702 -4.34598 -0.693742 0
M  V30 744 H 76.2892 -0.736504 0.027047 0
M  V30 745 H 78.9312 -1.74501 0.751615 0
M  V30 746 H 77.0812 -3.84236 -0.574009 0
M  V30 747 H 78.7532 -4.14832 2.01773 0
M  V30 748 H 76.9962 -3.87016 1.95962 0
M  V30 749 H 77.6672 -5.36478 1.29982 0
M  V30 750 H 80.1432 -4.15615 -0.200869 0
M  V30 751 H 79.0192 -5.44318 -0.707714 0
M  V30 752 H 79.2802 -4.05759 -1.75533 0
M  V30 753 N 78.3393 -0.321999 -1.54275 0
M  V30 754 C 79.7553 0.0306999 -1.5957 0
M  V30 755 C 79.9553 1.50614 -1.33857 0
M  V30 756 O 79.0113 2.2619 -1.12223 0
M  V30 757 C 80.3243 -0.386122 -2.98211 0
M  V30 758 C 81.8723 -0.336647 -3.11184 0
M  V30 759 C 82.3473 -0.728607 -4.52167 0
M  V30 760 N 83.8383 -0.681952 -4.58152 0
M  V30 761 C 84.5733 -0.957449 -5.6535 0
M  V30 762 N 84.0693 -1.3 -6.80494 0
M  V30 763 N 85.8623 -0.883113 -5.55119 0
M  V30 764 H 78.0133 -1.28332 -1.69247 0
M  V30 765 H 80.2763 -0.521716 -0.791528 0
M  V30 766 H 79.9823 -1.41404 -3.22022 0
M  V30 767 H 79.8563 0.249662 -3.76373 0
M  V30 768 H 82.2433 0.682058 -2.8711 0
M  V30 769 H 82.3243 -1.00734 -2.3513 0
M  V30 770 H 81.9683 -1.74522 -4.76974 0
M  V30 771 H 81.8983 -0.0356152 -5.26588 0
M  V30 772 H 84.3893 -0.428985 -3.75457 0
M  V30 773 H 84.7023 -1.49563 -7.58189 0
M  V30 774 H 83.0473 -1.33824 -6.81994 0
M  V30 775 H 86.2383 -0.615001 -4.64042 0
M  V30 776 H 86.4113 -1.10118 -6.38575 0
M  V30 777 N 79.8174 1.5752 -0.0501392 0
M  V30 778 C 80.7804 2.1037 0.909786 0
M  V30 779 C 81.7804 1.02308 1.24056 0
M  V30 780 O 82.9704 1.28385 1.17741 0
M  V30 781 C 80.1024 2.58708 2.21998 0
M  V30 782 H 81.2954 2.96479 0.451665 0
M  V30 783 H 78.8484 1.55038 0.198248 0
M  V30 784 H 79.5834 1.75989 2.72394 0
M  V30 785 H 79.3684 3.37675 1.99295 0
M  V30 786 H 80.8584 2.99747 2.9076 0
M  V30 787 N 81.2955 -0.223234 1.56011 0
M  V30 788 C 82.5205 -0.968978 1.83373 0
M  V30 789 C 82.9455 -1.77227 0.630254 0
M  V30 790 O 82.3035 -1.76345 -0.420959 0
M  V30 791 C 82.3515 -1.86363 3.08709 0
M  V30 792 O 81.4555 -2.95873 2.87285 0
M  V30 793 H 80.7965 -0.274461 0.604622 0
M  V30 794 H 83.3265 -0.237056 2.03222 0
M  V30 795 H 83.3365 -2.27376 3.38768 0
M  V30 796 H 82.0115 -1.27319 3.95933 0
M  V30 797 H 80.5885 -2.58818 2.68454 0
M  V30 798 N 82.7736 -1.49793 -0.48987 0
M  V30 799 C 83.7366 -1.66752 -1.57246 0
M  V30 800 C 84.7366 -0.538867 -1.51502 0
M  V30 801 O 85.9266 -0.805545 -1.54456 0
M  V30 802 C 83.0586 -1.67528 -2.96896 0
M  V30 803 H 84.2516 -2.63321 -1.43534 0
M  V30 804 H 81.8046 -1.38992 -0.714914 0
M  V30 805 H 82.5396 -0.725837 -3.16073 0
M  V30 806 H 82.3246 -2.49504 -3.02473 0
M  V30 807 H 83.8146 -1.82667 -3.7553 0
M  V30 808 N 84.2517 0.741722 -1.39055 0
M  V30 809 C 85.2017 1.84661 -1.33732 0
M  V30 810 C 86.1857 1.59397 -0.219401 0
M  V30 811 O 87.3777 1.71015 -0.456375 0
M  V30 812 C 84.5067 3.22512 -1.17647 0
M  V30 813 C 83.5927 3.53628 -2.34112 0
M  V30 814 N 83.9837 3.55723 -3.59576 0
M  V30 815 C 82.2817 3.83956 -2.26923 0
M  V30 816 C 82.9827 3.84443 -4.36553 0
M  V30 817 N 81.9587 4.01877 -3.66055 0
M  V30 818 H 85.7607 1.84576 -2.28711 0
M  V30 819 H 83.2747 0.939647 -1.32455 0
M  V30 820 H 85.2717 4.01597 -1.11917 0
M  V30 821 H 83.9317 3.2384 -0.236124 0
M  V30 822 H 84.9427 3.37196 -3.93089 0
M  V30 823 H 81.6197 3.92929 -1.41113 0
M  V30 824 H 83.0097 3.92588 -5.45274 0
M  V30 825 N 85.7298 1.2412 0.971189 0
M  V30 826 C 86.9778 1.07668 1.71032 0
M  V30 827 C 87.2988 -0.385797 1.91146 0
M  V30 828 O 86.5688 -1.27569 1.4867 0
M  V30 829 H 85.1488 0.395429 0.633755 0
M  V30 830 H 87.8108 1.55984 1.16855 0
M  V30 831 H 86.9068 1.57195 2.69622 0
M  V30 832 N 87.2079 -1.17134 1.05439 0
M  V30 833 C 88.4359 -1.91372 0.786414 0
M  V30 834 C 88.8509 -1.76955 -0.658202 0
M  V30 835 O 88.2079 -1.10838 -1.44987 0
M  V30 836 C 88.2589 -3.42356 1.1608 0
M  V30 837 O 87.9799 -3.56332 2.54871 0
M  V30 838 C 89.4809 -4.33663 0.919322 0
M  V30 839 H 86.7009 -0.607118 0.285743 0
M  V30 840 H 89.2449 -1.48525 1.40572 0
M  V30 841 H 87.3999 -3.82939 0.586191 0
M  V30 842 H 87.8139 -4.49896 2.69618 0
M  V30 843 H 89.2879 -5.38099 1.231 0
M  V30 844 H 89.7649 -4.38959 -0.145359 0
M  V30 845 H 90.3709 -3.98796 1.47789 0
M  V30 846 N 88.686 -0.835752 -1.33615 0
M  V30 847 C 89.596 -0.269088 -2.33052 0
M  V30 848 C 90.612 0.603251 -1.63208 0
M  V30 849 O 91.788 0.508112 -1.94885 0
M  V30 850 C 88.853 0.549091 -3.42324 0
M  V30 851 C 87.914 -0.347156 -4.27894 0
M  V30 852 C 87.147 0.43207 -5.31948 0
M  V30 853 O 87.37 1.66409 -5.45586 0
M  V30 854 O 86.304 -0.192298 -6.01593 0
M  V30 855 H 90.13 -1.09243 -2.83372 0
M  V30 856 H 87.715 -0.598198 -1.36901 0
M  V30 857 H 89.597 1.01414 -4.09015 0
M  V30 858 H 88.272 1.34955 -2.94226 0
M  V30 859 H 87.179 -0.859979 -3.64081 0
M  V30 860 H 88.512 -1.1123 -4.79467 0
M  V30 861 N 90.1641 1.46063 -0.591896 0
M  V30 862 C 91.0941 2.33172 0.123673 0
M  V30 863 C 92.0751 1.45897 0.87453 0
M  V30 864 O 93.2601 1.74698 0.848181 0
M  V30 865 C 90.3901 3.28336 1.13194 0
M  V30 866 C 89.3441 4.25124 0.495324 0
M  V30 867 C 88.6701 5.09863 1.61071 0
M  V30 868 C 89.9701 5.19143 -0.573425 0
M  V30 869 H 91.6641 2.93252 -0.603646 0
M  V30 870 H 89.2101 1.41014 -0.291741 0
M  V30 871 H 91.1631 3.88137 1.64097 0
M  V30 872 H 89.8871 2.66383 1.88965 0
M  V30 873 H 88.5461 3.66599 0.00729452 0
M  V30 874 H 88.1941 4.44288 2.35832 0
M  V30 875 H 87.8941 5.75417 1.19035 0
M  V30 876 H 89.4181 5.72529 2.12233 0
M  V30 877 H 90.8321 5.73106 -0.1491 0
M  V30 878 H 89.2291 5.93089 -0.914636 0
M  V30 879 H 90.2991 4.62519 -1.45617 0
M  V30 880 N 91.6422 0.330177 1.54103 0
M  V30 881 C 92.5722 -0.525353 2.27513 0
M  V30 882 C 93.5532 -1.11383 1.2856 0
M  V30 883 O 94.7382 -1.13773 1.57383 0
M  V30 884 C 91.8682 -1.6831 3.03791 0
M  V30 885 C 90.8222 -1.2236 4.10137 0
M  V30 886 C 90.1482 -2.46882 4.74293 0
M  V30 887 C 91.4482 -0.333697 5.21233 0
M  V30 888 H 93.1422 0.087013 2.99274 0
M  V30 889 H 90.6882 0.0432893 1.43935 0
M  V30 890 H 92.6412 -2.28795 3.5388 0
M  V30 891 H 91.3652 -2.32216 2.29659 0
M  V30 892 H 90.0242 -0.64165 3.60941 0
M  V30 893 H 89.6722 -3.09165 3.96769 0
M  V30 894 H 89.3722 -2.16825 5.46133 0
M  V30 895 H 90.8962 -3.08117 5.27159 0
M  V30 896 H 92.3102 -0.845013 5.67038 0
M  V30 897 H 90.7072 -0.125612 5.99969 0
M  V30 898 H 91.7772 0.633724 4.80741 0
M  V30 899 N 93.1203 -1.57491 0.0584922 0
M  V30 900 C 94.0503 -2.14988 -0.911178 0
M  V30 901 C 95.0313 -1.07343 -1.31952 0
M  V30 902 O 96.2163 -1.35318 -1.39294 0
M  V30 903 C 93.3463 -2.70078 -2.18347 0
M  V30 904 C 92.3003 -3.82771 -1.91495 0
M  V30 905 C 91.6263 -4.24408 -3.25241 0
M  V30 906 C 92.9263 -5.07592 -1.23075 0
M  V30 907 H 94.6203 -2.96263 -0.432246 0
M  V30 908 H 92.1663 -1.42512 -0.206469 0
M  V30 909 H 94.1193 -3.08943 -2.86587 0
M  V30 910 H 92.8433 -1.86005 -2.68458 0
M  V30 911 H 91.5023 -3.44389 -1.25664 0
M  V30 912 H 91.1503 -3.37275 -3.73168 0
M  V30 913 H 90.8503 -5.00366 -3.08071 0
M  V30 914 H 92.3743 -4.65879 -3.94701 0
M  V30 915 H 93.7883 -5.43857 -1.81362 0
M  V30 916 H 92.1853 -5.88741 -1.16207 0
M  V30 917 H 93.2553 -4.84454 -0.207847 0
M  V30 918 N 94.5984 0.214957 -1.56127 0
M  V30 919 C 95.8754 0.963093 -1.70247 0
M  V30 920 C 96.2554 2.02166 -0.60764 0
M  V30 921 O 95.6034 2.25244 0.384385 0
M  V30 922 C 95.8134 1.56756 -3.11815 0
M  V30 923 C 97.1614 2.0573 -3.7143 0
M  V30 924 O 98.1854 1.66637 -3.14818 0
M  V30 925 O 97.0444 2.77603 -4.70743 0
M  V30 926 H 94.1384 0.450321 -0.693643 0
M  V30 927 H 96.6844 0.206219 -1.68442 0
M  V30 928 H 95.4564 0.803533 -3.82961 0
M  V30 929 H 95.0794 2.3898 -3.17765 0
M  V30 930 N 96.0765 1.50051 0.48192 0
M  V30 931 C 97.3255 1.59741 1.23149 0
M  V30 932 C 97.6385 0.298163 1.93314 0
M  V30 933 O 98.8445 0.273835 2.70116 0
M  V30 934 C 97.3005 2.81926 2.23708 0
M  V30 935 C 96.9085 4.18685 1.59396 0
M  V30 936 C 98.6525 3.00956 2.99375 0
M  V30 937 C 96.5595 5.3207 2.58178 0
M  V30 938 H 95.4895 0.594838 0.46334 0
M  V30 939 H 98.1405 1.76467 0.503169 0
M  V30 940 H 96.5225 2.58736 2.99786 0
M  V30 941 H 97.6965 4.52088 0.891811 0
M  V30 942 H 96.0115 4.05171 0.960503 0
M  V30 943 H 98.6085 3.82836 3.73283 0
M  V30 944 H 98.9515 2.12258 3.58123 0
M  V30 945 H 99.4845 3.24277 2.30411 0
M  V30 946 H 96.2235 6.22888 2.04184 0
M  V30 947 H 95.7435 5.03098 3.26577 0
M  V30 948 H 97.4225 5.62196 3.20225 0
M  V30 949 N 97.5546 -0.734337 1.39446 0
M  V30 950 C 98.7946 -1.50655 1.38139 0
M  V30 951 C 99.1586 -1.91986 -0.0228701 0
M  V30 952 O 100.36 -2.68318 -0.160947 0
M  V30 953 C 98.6306 -2.71251 2.32718 0
M  V30 954 S 100.19 -3.60892 2.49605 0
M  V30 955 H 97.0076 -0.515315 0.489869 0
M  V30 956 H 99.6096 -0.860392 1.75549 0
M  V30 957 H 98.3136 -2.39027 3.33608 0
M  V30 958 H 97.8446 -3.40795 1.96526 0
M  V30 959 H 99.8596 -4.64899 1.73446 0
M  V30 960 N 99.0327 -1.24633 -0.964593 0
M  V30 961 C 100.279 -1.08949 -1.71049 0
M  V30 962 C 100.612 0.370302 -1.90637 0
M  V30 963 O 99.8867 1.27349 -1.47011 0
M  V30 964 C 100.17 -1.83329 -3.0994 0
M  V30 965 C 100.023 -3.37077 -2.97824 0
M  V30 966 C 101.342 -1.60846 -4.09654 0
M  V30 967 H 98.4607 -0.397178 -0.620821 0
M  V30 968 H 101.103 -1.5334 -1.12191 0
M  V30 969 H 99.2527 -1.45597 -3.60186 0
M  V30 970 H 100.925 -3.84425 -2.5498 0
M  V30 971 H 99.1677 -3.65298 -2.33965 0
M  V30 972 H 99.8387 -3.84324 -3.96231 0
M  V30 973 H 102.315 -1.93674 -3.68279 0
M  V30 974 H 101.191 -2.1534 -5.04896 0
M  V30 975 H 101.452 -0.547434 -4.38698 0
M  V30 976 N 100.511 1.16574 -1.06058 0
M  V30 977 C 101.736 1.91493 -0.796562 0
M  V30 978 C 102.161 1.76773 0.642868 0
M  V30 979 O 101.519 1.09142 1.44768 0
M  V30 980 C 101.567 3.40293 -1.19303 0
M  V30 981 O 100.671 4.11074 -0.330394 0
M  V30 982 H 100.012 0.596678 -0.291326 0
M  V30 983 H 102.542 1.47708 -1.41575 0
M  V30 984 H 102.552 3.91057 -1.16356 0
M  V30 985 H 101.227 3.50326 -2.24153 0
M  V30 986 H 99.8038 3.70513 -0.421225 0
M  V30 987 N 101.989 0.842826 1.3317 0
M  V30 988 C 102.919 0.294028 2.31641 0
M  V30 989 C 103.9 -0.600401 1.59151 0
M  V30 990 O 105.085 -0.523124 1.87022 0
M  V30 991 C 102.215 -0.528416 3.43257 0
M  V30 992 C 101.169 0.27056 4.27144 0
M  V30 993 C 100.495 -0.675881 5.30411 0
M  V30 994 C 101.795 1.48981 5.00602 0
M  V30 995 H 103.489 1.11681 2.77791 0
M  V30 996 H 101.035 0.538478 1.33553 0
M  V30 997 H 102.988 -0.922674 4.11175 0
M  V30 998 H 101.712 -1.38445 2.95805 0
M  V30 999 H 100.371 0.646427 3.60856 0
M  V30 1000 H 100.019 -1.52842 4.79216 0
M  V30 1001 H 99.7189 -0.145374 5.8742 0
M  V30 1002 H 101.243 -1.06757 6.01195 0
M  V30 1003 H 102.657 1.16849 5.61266 0
M  V30 1004 H 101.054 1.95739 5.6728 0
M  V30 1005 H 102.124 2.25746 4.29147 0
M  V30 1006 N 103.467 -1.45747 0.599634 0
M  V30 1007 C 104.414 -2.30467 -0.123849 0
M  V30 1008 C 105.384 -1.41632 -0.86774 0
M  V30 1009 O 106.569 -1.70568 -0.855056 0
M  V30 1010 C 103.709 -3.26402 -1.12051 0
M  V30 1011 C 102.822 -4.3034 -0.37832 0
M  V30 1012 C 101.957 -5.13389 -1.364 0
M  V30 1013 C 100.996 -6.09061 -0.609171 0
M  V30 1014 N 100.133 -6.84918 -1.54374 0
M  V30 1015 H 104.973 -2.91802 0.604627 0
M  V30 1016 H 102.51 -1.43797 0.309972 0
M  V30 1017 H 104.468 -3.80482 -1.7114 0
M  V30 1018 H 103.098 -2.66839 -1.8165 0
M  V30 1019 H 102.15 -3.78984 0.327929 0
M  V30 1020 H 103.462 -4.98354 0.210997 0
M  V30 1021 H 102.616 -5.7183 -2.02719 0
M  V30 1022 H 101.355 -4.45376 -1.98725 0
M  V30 1023 H 100.36 -5.49758 0.0676979 0
M  V30 1024 H 101.585 -6.79099 0.00891991 0
M  V30 1025 H 99.531 -6.19601 -2.15478 0
M  V30 1026 H 99.448 -7.49254 -1.00766 0
M  V30 1027 H 100.716 -7.47906 -2.19676 0
M  V30 1028 N 104.945 -0.338344 -1.53925 0
M  V30 1029 C 105.875 0.51328 -2.27789 0
M  V30 1030 C 106.856 1.107 -1.29149 0
M  V30 1031 O 108.041 1.12937 -1.57984 0
M  V30 1032 C 105.171 1.66697 -3.04679 0
M  V30 1033 C 104.125 1.20183 -4.1078 0
M  V30 1034 C 103.451 2.44363 -4.75595 0
M  V30 1035 C 104.751 0.30605 -5.21403 0
M  V30 1036 H 106.445 -0.102883 -2.99223 0
M  V30 1037 H 103.991 -0.0509219 -1.4391 0
M  V30 1038 H 105.944 2.26915 -3.55088 0
M  V30 1039 H 104.668 2.30995 -2.30887 0
M  V30 1040 H 103.327 0.622499 -3.61276 0
M  V30 1041 H 102.975 3.07057 -3.98403 0
M  V30 1042 H 102.675 2.13925 -5.47275 0
M  V30 1043 H 104.199 3.05317 -5.28786 0
M  V30 1044 H 105.613 0.814929 -5.67478 0
M  V30 1045 H 104.01 0.0937929 -6.00027 0
M  V30 1046 H 105.08 -0.65921 -4.80398 0
M  V30 1047 N 106.423 1.57458 -0.0668435 0
M  V30 1048 C 107.353 2.15468 0.899764 0
M  V30 1049 C 108.334 1.08042 1.31381 0
M  V30 1050 O 109.519 1.36054 1.38574 0
M  V30 1051 C 106.649 2.71232 2.16911 0
M  V30 1052 C 105.603 3.83781 1.89463 0
M  V30 1053 C 104.929 4.26127 3.22986 0
M  V30 1054 C 106.229 5.08238 1.20381 0
M  V30 1055 H 107.923 2.96488 0.416529 0
M  V30 1056 H 105.469 1.4262 0.198908 0
M  V30 1057 H 107.422 3.10458 2.84945 0
M  V30 1058 H 106.146 1.87426 2.67468 0
M  V30 1059 H 104.805 3.45051 1.23836 0
M  V30 1060 H 104.453 3.39249 3.71374 0
M  V30 1061 H 104.153 5.01993 3.05413 0
M  V30 1062 H 105.677 4.67966 3.92225 0
M  V30 1063 H 107.091 5.44811 1.78475 0
M  V30 1064 H 105.488 5.89349 1.13083 0
M  V30 1065 H 106.558 4.84558 0.182153 0
M  V30 1066 N 107.901 -0.206675 1.56239 0
M  V30 1067 C 108.848 -1.25617 1.93621 0
M  V30 1068 C 109.818 -1.45824 0.795274 0
M  V30 1069 O 111.003 -1.59148 1.05245 0
M  V30 1070 C 108.143 -2.59839 2.27107 0
M  V30 1071 C 107.256 -2.47308 3.54207 0
M  V30 1072 C 106.391 -3.74155 3.7707 0
M  V30 1073 C 105.43 -3.56407 4.97635 0
M  V30 1074 N 104.567 -4.75238 5.1681 0
M  V30 1075 H 109.407 -0.930383 2.83104 0
M  V30 1076 H 106.944 -0.448065 1.4011 0
M  V30 1077 H 108.902 -3.38021 2.44535 0
M  V30 1078 H 107.532 -2.90485 1.40778 0
M  V30 1079 H 106.584 -1.60483 3.4489 0
M  V30 1080 H 107.896 -2.30122 4.42544 0
M  V30 1081 H 107.05 -4.60778 3.94675 0
M  V30 1082 H 105.789 -3.94282 2.87042 0
M  V30 1083 H 104.794 -2.68168 4.79964 0
M  V30 1084 H 106.019 -3.37736 5.89161 0
M  V30 1085 H 103.965 -4.95651 4.29728 0
M  V30 1086 H 103.882 -4.60835 5.99306 0
M  V30 1087 H 105.15 -5.63246 5.38864 0
M  V30 1088 N 109.379 -1.50304 -0.473955 0
M  V30 1089 C 110.625 -1.61389 -1.22806 0
M  V30 1090 C 110.958 -0.311955 -1.91678 0
M  V30 1091 O 110.233 0.686384 -1.81986 0
M  V30 1092 C 110.516 -2.79219 -2.27396 0
M  V30 1093 C 110.369 -4.19286 -1.62848 0
M  V30 1094 C 111.688 -2.92614 -3.28732 0
M  V30 1095 H 108.807 -0.587399 -0.445119 0
M  V30 1096 H 111.449 -1.82681 -0.522265 0
M  V30 1097 H 109.599 -2.61195 -2.87592 0
M  V30 1098 H 111.271 -4.48892 -1.06271 0
M  V30 1099 H 109.514 -4.23677 -0.931693 0
M  V30 1100 H 110.185 -4.97655 -2.38838 0
M  V30 1101 H 112.661 -3.09105 -2.78556 0
M  V30 1102 H 111.537 -3.76688 -3.99246 0
M  V30 1103 H 111.798 -2.03107 -3.92683 0
M  V30 1104 N 110.857 0.726932 -1.39834 0
M  V30 1105 C 111.767 1.87131 -1.41489 0
M  V30 1106 C 112.783 1.71239 -0.308757 0
M  V30 1107 O 113.959 1.93701 -0.551529 0
M  V30 1108 C 111.024 3.22811 -1.26468 0
M  V30 1109 C 110.085 3.51039 -2.47124 0
M  V30 1110 C 109.318 4.80245 -2.3281 0
M  V30 1111 O 109.541 5.54537 -1.33585 0
M  V30 1112 O 108.475 5.08554 -3.21957 0
M  V30 1113 H 112.301 1.8869 -2.3797 0
M  V30 1114 H 109.886 0.875837 -1.21035 0
M  V30 1115 H 111.768 4.03877 -1.20255 0
M  V30 1116 H 110.443 3.22005 -0.330862 0
M  V30 1117 H 109.35 2.70027 -2.58914 0
M  V30 1118 H 110.683 3.56632 -3.39227 0
M  V30 1119 N 112.336 1.25143 0.95797 0
M  V30 1120 C 113.564 1.12424 1.73691 0
M  V30 1121 C 113.979 -0.322304 1.86029 0
M  V30 1122 O 113.336 -1.22186 1.35561 0
M  V30 1123 C 113.387 1.76933 3.15241 0
M  V30 1124 O 113.108 3.15932 3.03511 0
M  V30 1125 C 114.609 1.6995 4.09429 0
M  V30 1126 H 111.829 0.3923 0.544373 0
M  V30 1127 H 114.373 1.6544 1.20207 0
M  V30 1128 H 112.528 1.27895 3.6568 0
M  V30 1129 H 112.942 3.47598 3.9278 0
M  V30 1130 H 114.416 2.19753 5.06372 0
M  V30 1131 H 114.893 0.662619 4.34173 0
M  V30 1132 H 115.499 2.18461 3.64904 0
M  V30 1133 N 113.814 -1.1601 1.06675 0
M  V30 1134 C 115.23 -1.38622 0.790948 0
M  V30 1135 C 115.43 -1.92109 -0.607965 0
M  V30 1136 O 114.486 -2.12239 -1.36787 0
M  V30 1137 C 115.799 -2.36347 1.85905 0
M  V30 1138 C 117.347 -2.50023 1.88301 0
M  V30 1139 C 117.822 -3.51033 2.94176 0
M  V30 1140 N 119.313 -3.58563 2.93235 0
M  V30 1141 C 120.048 -4.36521 3.71803 0
M  V30 1142 N 119.544 -5.17869 4.602 0
M  V30 1143 N 121.337 -4.31541 3.60178 0
M  V30 1144 H 113.488 -0.796294 1.96908 0
M  V30 1145 H 115.751 -0.412597 0.853503 0
M  V30 1146 H 115.457 -2.04147 2.86386 0
M  V30 1147 H 115.331 -3.36042 1.71334 0
M  V30 1148 H 117.718 -2.81524 0.884769 0
M  V30 1149 H 117.799 -1.5035 2.06951 0
M  V30 1150 H 117.443 -3.20268 3.94196 0
M  V30 1151 H 117.373 -4.50445 2.72776 0
M  V30 1152 H 119.864 -3.00496 2.29152 0
M  V30 1153 H 120.177 -5.74578 5.16797 0
M  V30 1154 H 118.522 -5.17199 4.64253 0
M  V30 1155 H 121.713 -3.67051 2.90502 0
M  V30 1156 H 121.886 -4.9205 4.21653 0
M  V30 1157 N 115.292 -0.849877 -1.32721 0
M  V30 1158 C 116.54 -0.450032 -1.97026 0
M  V30 1159 C 116.861 0.996604 -1.67609 0
M  V30 1160 O 116.131 1.6958 -0.980786 0
M  V30 1161 H 114.711 -0.163426 -0.728904 0
M  V30 1162 H 117.373 -1.08526 -1.6189 0
M  V30 1163 H 116.469 -0.591146 -3.0645 0
M  V30 1164 N 116.77 1.45427 -0.607355 0
M  V30 1165 C 118.018 2.01841 -0.102253 0
M  V30 1166 C 118.339 1.47832 1.27164 0
M  V30 1167 O 117.609 0.672497 1.83995 0
M  V30 1168 H 116.189 0.746188 -0.0348101 0
M  V30 1169 H 118.851 1.78229 -0.7887 0
M  V30 1170 H 117.947 3.12057 -0.0518585 0
M  V30 1171 N 118.248 0.346503 1.53744 0
M  V30 1172 C 119.195 -0.508914 2.25119 0
M  V30 1173 C 120.165 -1.09315 1.25058 0
M  V30 1174 O 121.35 -1.12921 1.53797 0
M  V30 1175 C 118.49 -1.65246 3.02965 0
M  V30 1176 C 117.603 -1.09525 4.17886 0
M  V30 1177 C 116.738 -2.20634 4.83212 0
M  V30 1178 C 115.777 -1.62279 5.90196 0
M  V30 1179 N 114.914 -2.67143 6.49291 0
M  V30 1180 H 119.754 0.106283 2.9781 0
M  V30 1181 H 117.291 0.0642227 1.4696 0
M  V30 1182 H 119.249 -2.32574 3.4636 0
M  V30 1183 H 117.879 -2.2386 2.32565 0
M  V30 1184 H 116.931 -0.312818 3.79112 0
M  V30 1185 H 118.243 -0.628444 4.94825 0
M  V30 1186 H 117.397 -2.95821 5.29693 0
M  V30 1187 H 116.136 -2.70659 4.05703 0
M  V30 1188 H 115.141 -0.855989 5.43096 0
M  V30 1189 H 116.366 -1.13102 6.69615 0
M  V30 1190 H 114.312 -3.16417 5.74645 0
M  V30 1191 H 114.229 -2.25093 7.21713 0
M  V30 1192 H 115.497 -3.4209 7.00425 0
M  V30 1193 N 119.726 -1.57421 0.075193 0
M  V30 1194 C 120.689 -2.11791 -0.876203 0
M  V30 1195 C 121.689 -1.04268 -1.22412 0
M  V30 1196 O 122.879 -1.30242 -1.15684 0
M  V30 1197 C 120.011 -2.62207 -2.17854 0
M  V30 1198 H 121.204 -2.9716 -0.40444 0
M  V30 1199 H 118.757 -1.55333 -0.173557 0
M  V30 1200 H 119.492 -1.803 -2.6956 0
M  V30 1201 H 119.277 -3.40802 -1.93897 0
M  V30 1202 H 120.767 -3.04335 -2.85955 0
M  V30 1203 N 121.204 0.198386 -1.56346 0
M  V30 1204 C 122.451 0.919286 -1.80431 0
M  V30 1205 C 122.779 1.83393 -0.647866 0
M  V30 1206 O 122.034 1.92236 0.366556 0
M  V30 1207 C 122.333 1.77031 -3.10475 0
M  V30 1208 C 121.999 1.00693 -4.39513 0
M  V30 1209 C 120.661 0.796145 -4.74568 0
M  V30 1210 C 123.013 0.469559 -5.19081 0
M  V30 1211 C 120.341 0.0364588 -5.86689 0
M  V30 1212 C 122.693 -0.2769 -6.31994 0
M  V30 1213 C 121.357 -0.49873 -6.65634 0
M  V30 1214 H 120.627 0.336391 -0.660244 0
M  V30 1215 H 123.274 0.185872 -1.90596 0
M  V30 1216 H 121.579 2.5723 -2.95533 0
M  V30 1217 H 123.276 2.33065 -3.26315 0
M  V30 1218 H 119.866 1.18122 -4.12001 0
M  V30 1219 H 124.05 0.619816 -4.92414 0
M  V30 1220 H 119.306 -0.145412 -6.11227 0
M  V30 1221 H 123.48 -0.700684 -6.92866 0
M  V30 1222 H 121.107 -1.0893 -7.52355 0
M  V30 1223 N 122.682 1.50554 0.465978 0
M  V30 1224 C 123.912 1.65323 1.23903 0
M  V30 1225 C 124.32 0.338051 1.86155 0
M  V30 1226 O 123.663 -0.690518 1.70228 0
M  V30 1227 C 123.725 2.69048 2.3844 0
M  V30 1228 C 123.389 4.12462 1.96784 0
M  V30 1229 C 124.386 4.98168 1.48745 0
M  V30 1230 C 122.071 4.58407 2.05349 0
M  V30 1231 C 124.065 6.27868 1.0982 0
M  V30 1232 C 121.752 5.88112 1.66035 0
M  V30 1233 C 122.75 6.72668 1.18349 0
M  V30 1234 O 122.438 7.99951 0.795825 0
M  V30 1235 H 122.17 0.558629 0.38067 0
M  V30 1236 H 124.724 1.97561 0.562022 0
M  V30 1237 H 122.954 2.32062 3.09328 0
M  V30 1238 H 124.643 2.72985 3.0039 0
M  V30 1239 H 125.409 4.63885 1.41546 0
M  V30 1240 H 121.288 3.92735 2.41414 0
M  V30 1241 H 124.832 6.93819 0.725293 0
M  V30 1242 H 120.729 6.21914 1.72895 0
M  V30 1243 H 121.497 8.13265 0.924222 0
M  V30 1244 N 124.16 -0.719506 1.40217 0
M  V30 1245 C 125.576 -1.02707 1.22161 0
M  V30 1246 C 125.776 -2.0128 0.0940557 0
M  V30 1247 O 124.832 -2.46452 -0.549318 0
M  V30 1248 C 126.145 -1.57454 2.56181 0
M  V30 1249 C 127.693 -1.69458 2.63159 0
M  V30 1250 C 128.168 -2.27611 3.97438 0
M  V30 1251 N 129.659 -2.35002 3.99159 0
M  V30 1252 C 130.394 -2.80972 4.99842 0
M  V30 1253 N 129.89 -3.26723 6.10921 0
M  V30 1254 N 131.683 -2.80321 4.87213 0
M  V30 1255 H 123.834 -0.0660492 2.12297 0
M  V30 1256 H 126.097 -0.0919077 0.943534 0
M  V30 1257 H 125.803 -0.924873 3.39321 0
M  V30 1258 H 125.677 -2.56036 2.76993 0
M  V30 1259 H 128.064 -2.33543 1.80393 0
M  V30 1260 H 128.145 -0.694867 2.46181 0
M  V30 1261 H 127.789 -1.6415 4.80643 0
M  V30 1262 H 127.719 -3.2829 4.11744 0
M  V30 1263 H 130.21 -2.02685 3.18947 0
M  V30 1264 H 130.523 -3.60355 6.8364 0
M  V30 1265 H 128.868 -3.24692 6.14492 0
M  V30 1266 H 132.059 -2.43912 3.9953 0
M  V30 1267 H 132.232 -3.15831 5.65822 0
M  V30 1268 N 125.638 -1.25649 -0.95132 0
M  V30 1269 C 126.586 -1.06118 -2.06982 0
M  V30 1270 C 127.58 0.00889169 -1.69398 0
M  V30 1271 O 128.786 -0.146988 -1.79399 0
M  V30 1272 H 125.161 -0.326248 -0.677544 0
M  V30 1273 H 127.132 -2.00932 -2.2061 0
M  V30 1274 C 125.881 -0.700145 -3.40578 0
M  V30 1275 H 125.204 -1.51537 -3.69968 0
M  V30 1276 H 126.644 -0.603211 -4.19687 0
M  V30 1277 C 125.103 0.59403 -3.31622 0
M  V30 1278 O 125.633 1.63522 -3.66911 0
M  V30 1279 N 123.839 0.58089 -2.84735 0
M  V30 1280 H 123.386 -0.266783 -2.56215 0
M  V30 1281 H 123.344 1.44695 -2.79125 0
M  V30 1282 N 127.117 1.15442 -1.07289 0
M  V30 1283 C 128.345 1.90096 -0.81676 0
M  V30 1284 C 128.76 1.7798 0.629966 0
M  V30 1285 O 128.117 1.1313 1.43206 0
M  V30 1286 C 128.168 3.40466 -1.21512 0
M  V30 1287 O 127.889 3.52232 -2.60508 0
M  V30 1288 C 129.39 4.32145 -0.988198 0
M  V30 1289 H 126.61 0.602495 -0.295366 0
M  V30 1290 H 129.154 1.4627 -1.42918 0
M  V30 1291 H 127.309 3.81958 -0.647039 0
M  V30 1292 H 127.723 4.45549 -2.76742 0
M  V30 1293 H 129.197 5.36072 -1.31645 0
M  V30 1294 H 129.674 4.39135 0.0755063 0
M  V30 1295 H 130.28 3.96395 -1.54115 0
M  V30 1296 N 128.595 0.856903 1.32268 0
M  V30 1297 C 129.505 0.306131 2.32594 0
M  V30 1298 C 130.521 -0.577209 1.64147 0
M  V30 1299 O 131.697 -0.477043 1.95669 0
M  V30 1300 C 128.762 -0.494561 3.43154 0
M  V30 1301 C 127.823 0.415186 4.27288 0
M  V30 1302 C 127.056 -0.347387 5.32568 0
M  V30 1303 O 127.279 -1.57708 5.48165 0
M  V30 1304 O 126.213 0.287982 6.01211 0
M  V30 1305 H 130.039 1.13737 2.81598 0
M  V30 1306 H 127.624 0.619902 1.35932 0
M  V30 1307 H 129.506 -0.948944 4.10576 0
M  V30 1308 H 128.181 -1.30257 2.96336 0
M  V30 1309 H 127.088 0.917793 3.62667 0
M  V30 1310 H 128.421 1.18844 4.77637 0
M  V30 1311 N 130.073 -1.45103 0.615059 0
M  V30 1312 C 131.003 -2.33339 -0.0865619 0
M  V30 1313 C 131.984 -1.4727 -0.851209 0
M  V30 1314 O 133.169 -1.76026 -0.820281 0
M  V30 1315 C 130.299 -3.30095 -1.07956 0
M  V30 1316 C 129.253 -4.25858 -0.427628 0
M  V30 1317 C 128.579 -5.12361 -1.5294 0
M  V30 1318 C 129.879 -5.18165 0.655944 0
M  V30 1319 H 131.573 -2.92254 0.650224 0
M  V30 1320 H 129.119 -1.40532 0.314138 0
M  V30 1321 H 131.072 -3.90698 -1.57901 0
M  V30 1322 H 129.796 -2.69355 -1.84703 0
M  V30 1323 H 128.455 -3.66564 0.0510292 0
M  V30 1324 H 128.103 -4.47984 -2.28734 0
M  V30 1325 H 127.803 -5.77238 -1.09865 0
M  V30 1326 H 129.327 -5.75833 -2.03098 0
M  V30 1327 H 130.741 -5.72796 0.240257 0
M  V30 1328 H 129.138 -5.91559 1.00888 0
M  V30 1329 H 130.208 -4.60144 1.52957 0
M  V30 1330 N 131.551 -0.354651 -1.53558 0
M  V30 1331 C 132.776 0.242153 -2.05981 0
M  V30 1332 C 133.201 1.42553 -1.2272 0
M  V30 1333 O 132.559 1.79656 -0.243604 0
M  V30 1334 C 132.607 0.624367 -3.55154 0
M  V30 1335 O 131.711 1.72301 -3.74681 0
M  V30 1336 H 131.052 0.0378432 -0.662921 0
M  V30 1337 H 133.582 -0.512087 -1.98088 0
M  V30 1338 H 133.592 0.898433 -3.97985 0
M  V30 1339 H 132.267 -0.240989 -4.15201 0
M  V30 1340 H 130.844 1.44535 -3.4375 0
M  V30 1341 N 133.029 1.57378 -0.0835403 0
M  V30 1342 C 134.254 1.98682 0.594987 0
M  V30 1343 C 134.679 0.961969 1.61641 0
M  V30 1344 O 134.037 -0.0709989 1.81161 0
M  V30 1345 C 134.085 3.38988 1.2296 0
M  V30 1346 O 133.189 3.39208 2.34546 0
M  V30 1347 H 132.53 0.646368 0.152002 0
M  V30 1348 H 135.06 2.03961 -0.161533 0
M  V30 1349 H 135.07 3.76431 1.57366 0
M  V30 1350 H 133.745 4.13107 0.481228 0
M  V30 1351 H 132.322 3.13548 2.01846 0
M  V30 1352 N 134.507 -0.190092 1.56449 0
M  V30 1353 C 135.784 -0.935886 1.71757 0
M  V30 1354 C 136.164 -2.01173 0.639726 0
M  V30 1355 O 135.512 -2.25827 -0.348502 0
M  V30 1356 C 135.722 -1.51775 3.1427 0
M  V30 1357 C 137.07 -1.99794 3.74656 0
M  V30 1358 O 138.094 -1.61607 3.1743 0
M  V30 1359 O 136.953 -2.70079 4.751 0
M  V30 1360 H 134.047 -0.439229 0.700719 0
M  V30 1361 H 136.593 -0.179395 1.68749 0
M  V30 1362 H 135.365 -0.742505 3.84191 0
M  V30 1363 H 134.988 -2.33894 3.21527 0
M  V30 1364 N 135.985 -1.50799 -0.457987 0
M  V30 1365 C 137.215 -1.65977 -1.23025 0
M  V30 1366 C 137.623 -0.347918 -1.85974 0
M  V30 1367 O 136.966 0.68148 -1.70592 0
M  V30 1368 C 137.028 -2.70309 -2.3701 0
M  V30 1369 C 136.692 -4.135 -1.94594 0
M  V30 1370 C 137.689 -4.98949 -1.46101 0
M  V30 1371 C 135.374 -4.5949 -2.02915 0
M  V30 1372 C 137.368 -6.28442 -1.06489 0
M  V30 1373 C 135.055 -5.88984 -1.62914 0
M  V30 1374 C 136.053 -6.73286 -1.1478 0
M  V30 1375 O 135.741 -8.00362 -0.75339 0
M  V30 1376 H 135.473 -0.56064 -0.377702 0
M  V30 1377 H 138.027 -1.97857 -0.551537 0
M  V30 1378 H 136.257 -2.337 -3.08093 0
M  V30 1379 H 137.946 -2.74574 -2.98938 0
M  V30 1380 H 138.712 -4.6463 -1.39084 0
M  V30 1381 H 134.591 -3.94009 -2.39328 0
M  V30 1382 H 138.135 -6.94194 -0.688488 0
M  V30 1383 H 134.032 -6.22822 -1.69595 0
M  V30 1384 H 134.8 -8.13744 -0.88108 0
M  V30 1385 N 137.463 0.71206 -1.40597 0
M  V30 1386 C 138.393 1.83889 -1.43899 0
M  V30 1387 C 139.374 1.67442 -0.299504 0
M  V30 1388 O 140.559 1.87421 -0.508624 0
M  V30 1389 C 137.689 3.21877 -1.30431 0
M  V30 1390 C 136.643 3.53002 -2.42019 0
M  V30 1391 C 135.969 4.90172 -2.13626 0
M  V30 1392 C 137.269 3.53643 -3.84362 0
M  V30 1393 H 138.963 1.81383 -2.38203 0
M  V30 1394 H 136.509 0.871237 -1.14654 0
M  V30 1395 H 138.462 4.00404 -1.31357 0
M  V30 1396 H 137.186 3.24968 -0.326049 0
M  V30 1397 H 135.845 2.76818 -2.40349 0
M  V30 1398 H 135.493 4.89869 -1.14182 0
M  V30 1399 H 135.193 5.11962 -2.88389 0
M  V30 1400 H 136.717 5.71028 -2.1624 0
M  V30 1401 H 138.131 4.22203 -3.87837 0
M  V30 1402 H 136.528 3.86961 -4.58673 0
M  V30 1403 H 137.598 2.52954 -4.13693 0
M  V30 1404 N 138.941 1.26152 0.944643 0
M  V30 1405 C 140.169 1.14259 1.72489 0
M  V30 1406 C 140.584 -0.302555 1.8636 0
M  V30 1407 O 139.941 -1.20741 1.36849 0
M  V30 1408 C 139.992 1.80266 3.13347 0
M  V30 1409 O 139.713 3.19133 3.00143 0
M  V30 1410 C 141.214 1.74283 4.07603 0
M  V30 1411 H 138.434 0.398051 0.540181 0
M  V30 1412 H 140.978 1.66706 1.18446 0
M  V30 1413 H 139.133 1.31766 3.64303 0
M  V30 1414 H 139.547 3.51744 3.89071 0
M  V30 1415 H 141.021 2.25111 5.04013 0
M  V30 1416 H 141.498 0.708631 4.33446 0
M  V30 1417 H 142.104 2.22319 3.62567 0
M  V30 1418 N 140.419 -1.14872 1.07899 0
M  V30 1419 C 141.647 -1.89661 0.82683 0
M  V30 1420 C 142.062 -1.78312 -0.620519 0
M  V30 1421 O 141.419 -1.13888 -1.42604 0
M  V30 1422 C 141.47 -3.39817 1.23316 0
M  V30 1423 O 141.191 -3.50845 2.62372 0
M  V30 1424 C 142.692 -4.31615 1.0111 0
M  V30 1425 H 139.912 -0.60092 0.298557 0
M  V30 1426 H 142.456 -1.4551 1.43691 0
M  V30 1427 H 140.611 -3.8161 0.667286 0
M  V30 1428 H 141.025 -4.44076 2.79101 0
M  V30 1429 H 142.499 -5.35367 1.34486 0
M  V30 1430 H 142.976 -4.39169 -0.0522168 0
M  V30 1431 H 143.582 -3.95572 1.56215 0
M  V30 1432 N 141.898 -0.863906 -1.31812 0
M  V30 1433 C 143.144 -0.472535 -1.97218 0
M  V30 1434 C 143.477 0.971394 -1.68159 0
M  V30 1435 O 142.752 1.68309 -0.974798 0
M  V30 1436 C 143.035 -0.723054 -3.52766 0
M  V30 1437 C 142.888 -2.21608 -3.91421 0
M  V30 1438 C 144.207 -0.185522 -4.39709 0
M  V30 1439 H 141.326 -0.173158 -0.71637 0
M  V30 1440 H 143.968 -1.08403 -1.56041 0
M  V30 1441 H 142.118 -0.202577 -3.87971 0
M  V30 1442 H 143.79 -2.80334 -3.66347 0
M  V30 1443 H 142.033 -2.691 -3.40246 0
M  V30 1444 H 142.704 -2.34203 -4.99853 0
M  V30 1445 H 145.18 -0.630726 -4.11292 0
M  V30 1446 H 144.056 -0.390306 -5.47511 0
M  V30 1447 H 144.317 0.912229 -4.32586 0
M  V30 1448 N 143.376 1.44774 -0.622745 0
M  V30 1449 C 144.601 2.06999 -0.128968 0
M  V30 1450 C 145.026 1.4617 1.1839 0
M  V30 1451 O 144.384 0.560007 1.72434 0
M  V30 1452 C 144.432 3.60595 -0.0188351 0
M  V30 1453 O 143.536 3.99398 1.02739 0
M  V30 1454 H 142.877 0.659047 -0.0809544 0
M  V30 1455 H 145.407 1.85784 -0.85705 0
M  V30 1456 H 145.417 4.07627 0.174476 0
M  V30 1457 H 144.092 4.04252 -0.977384 0
M  V30 1458 H 142.669 3.64011 0.809326 0
M  V30 1459 N 144.854 0.36279 1.53368 0
M  V30 1460 C 146.265 -0.117022 1.86333 0
M  V30 1461 C 146.616 -1.48397 1.28347 0
M  V30 1462 O 145.741 -2.07787 0.604428 0
M  V30 1463 C 146.336 -0.21912 3.38091 0
M  V30 1464 C 144.895 -0.643184 3.70864 0
M  V30 1465 C 144.042 0.211318 2.76494 0
M  V30 1466 H 146.993 0.581687 1.47655 0
M  V30 1467 H 147.014 -1.04319 3.6592 0
M  V30 1468 H 146.526 0.775902 3.80265 0
M  V30 1469 H 144.627 -1.64654 3.34245 0
M  V30 1470 H 144.74 -0.41973 4.77258 0
M  V30 1471 H 143.104 -0.319367 2.5269 0
M  V30 1472 H 143.887 1.20383 3.21501 0
M  V30 1473 N 146.332 -1.57332 0.0918853 0
M  V30 1474 C 147.56 -1.98574 -0.581048 0
M  V30 1475 C 147.975 -0.970903 -1.61923 0
M  V30 1476 O 147.332 0.0399054 -1.82456 0
M  V30 1477 C 147.383 -3.39872 -1.23164 0
M  V30 1478 O 147.104 -4.37469 -0.234989 0
M  V30 1479 C 148.605 -3.96099 -1.99049 0
M  V30 1480 H 145.825 -0.65261 -0.156018 0
M  V30 1481 H 148.369 -2.0379 0.170225 0
M  V30 1482 H 146.524 -3.35679 -1.93386 0
M  V30 1483 H 146.938 -5.19751 -0.70418 0
M  V30 1484 H 148.412 -4.97127 -2.39934 0
M  V30 1485 H 148.889 -3.3374 -2.85507 0
M  V30 1486 H 149.495 -4.03755 -1.3365 0
M  V30 1487 N 147.81 0.181792 -1.56548 0
M  V30 1488 C 149.035 0.920019 -1.85877 0
M  V30 1489 C 149.46 1.75494 -0.677021 0
M  V30 1490 O 148.818 1.77399 0.374056 0
M  V30 1491 C 148.866 1.78112 -3.13542 0
M  V30 1492 O 147.97 2.88152 -2.95029 0
M  V30 1493 H 147.311 0.258334 -0.611686 0
M  V30 1494 H 149.841 0.183092 -2.03779 0
M  V30 1495 H 149.851 2.18314 -3.44678 0
M  V30 1496 H 148.526 1.16777 -3.99169 0
M  V30 1497 H 147.103 2.51609 -2.75222 0
M  V30 1498 N 149.288 1.51039 0.449983 0
M  V30 1499 C 150.22 1.67617 1.56324 0
M  V30 1500 C 151.233 0.557083 1.52972 0
M  V30 1501 O 152.422 0.830989 1.57977 0
M  V30 1502 C 149.522 1.66402 2.95235 0
M  V30 1503 C 148.695 2.9469 3.23229 0
M  V30 1504 C 147.754 2.85832 4.41799 0
M  V30 1505 O 146.78 3.59785 4.41071 0
M  V30 1506 N 147.982 2.00821 5.44657 0
M  V30 1507 H 150.747 2.63648 1.42512 0
M  V30 1508 H 148.308 1.48767 0.638737 0
M  V30 1509 H 150.3 1.58062 3.72557 0
M  V30 1510 H 148.87 0.780182 3.02708 0
M  V30 1511 H 148.09 3.16996 2.34323 0
M  V30 1512 H 149.378 3.79636 3.38754 0
M  V30 1513 H 148.776 1.40091 5.48079 0
M  V30 1514 H 147.333 1.98368 6.20881 0
M  V30 1515 N 150.766 -0.704594 1.40972 0
M  V30 1516 C 152.006 -1.47691 1.41304 0
M  V30 1517 C 152.37 -1.91992 0.0178582 0
M  V30 1518 O 153.571 -2.68599 -0.103996 0
M  V30 1519 C 151.842 -2.66254 2.38419 0
M  V30 1520 S 153.401 -3.55516 2.57204 0
M  V30 1521 H 150.219 -0.504808 0.500689 0
M  V30 1522 H 152.821 -0.822962 1.77335 0
M  V30 1523 H 151.525 -2.31897 3.38603 0
M  V30 1524 H 151.056 -3.3655 2.03711 0
M  V30 1525 H 153.071 -4.61115 1.83268 0
M  V30 1526 N 152.244 -1.26651 -0.937939 0
M  V30 1527 C 153.469 -1.15279 -1.72411 0
M  V30 1528 C 153.894 0.287866 -1.85884 0
M  V30 1529 O 153.252 1.20855 -1.35143 0
M  V30 1530 C 153.3 -1.83028 -3.10698 0
M  V30 1531 O 152.404 -1.12128 -3.96864 0
M  V30 1532 H 151.745 -0.401504 -0.528858 0
M  V30 1533 H 154.275 -1.67531 -1.1745 0
M  V30 1534 H 154.285 -1.89981 -3.6107 0
M  V30 1535 H 152.96 -2.87833 -3.00208 0
M  V30 1536 H 151.537 -1.13173 -3.55312 0
M  V30 1537 N 153.722 1.14298 -1.08507 0
M  V30 1538 C 154.655 2.18447 -0.660004 0
M  V30 1539 C 155.633 1.59242 0.328749 0
M  V30 1540 O 156.817 1.87062 0.232367 0
M  V30 1541 C 153.944 3.38688 0.0290807 0
M  V30 1542 C 152.99 4.1646 -0.919982 0
M  V30 1543 S 153.823 4.77334 -2.42718 0
M  V30 1544 C 154.979 6.00931 -1.75024 0
M  V30 1545 H 155.212 2.54166 -1.54231 0
M  V30 1546 H 152.745 1.25446 -0.900149 0
M  V30 1547 H 154.703 4.08342 0.420378 0
M  V30 1548 H 153.364 3.01289 0.887895 0
M  V30 1549 H 152.557 5.02529 -0.384751 0
M  V30 1550 H 152.159 3.52414 -1.25223 0
M  V30 1551 H 154.451 6.69017 -1.06877 0
M  V30 1552 H 155.394 6.59044 -2.58971 0
M  V30 1553 H 155.802 5.51089 -1.22317 0
M  V30 1554 N 155.201 0.870884 1.31352 0
M  V30 1555 C 156.131 0.343096 2.30966 0
M  V30 1556 C 157.112 -0.566507 1.60389 0
M  V30 1557 O 158.297 -0.483336 1.88089 0
M  V30 1558 C 155.427 -0.455487 3.443 0
M  V30 1559 C 154.381 0.361103 4.26474 0
M  V30 1560 C 153.707 -0.563221 5.31725 0
M  V30 1561 C 155.007 1.59566 4.97329 0
M  V30 1562 H 156.701 1.17548 2.75359 0
M  V30 1563 H 154.247 0.566686 1.32381 0
M  V30 1564 H 156.2 -0.83525 4.13039 0
M  V30 1565 H 154.924 -1.32139 2.98675 0
M  V30 1566 H 153.583 0.722825 3.59403 0
M  V30 1567 H 153.231 -1.42643 4.82351 0
M  V30 1568 H 152.931 -0.0207409 5.87596 0
M  V30 1569 H 154.455 -0.939808 6.03324 0
M  V30 1570 H 155.869 1.28728 5.58661 0
M  V30 1571 H 154.266 2.07728 5.63 0
M  V30 1572 H 155.336 2.34798 4.24262 0
M  V30 1573 N 156.679 -1.44442 0.630414 0
M  V30 1574 C 157.626 -2.30678 -0.0749355 0
M  V30 1575 C 158.596 -1.4344 -0.837502 0
M  V30 1576 O 159.781 -1.72343 -0.818684 0
M  V30 1577 C 156.921 -3.28706 -1.05103 0
M  V30 1578 C 156.034 -4.31046 -0.286954 0
M  V30 1579 C 155.169 -5.16167 -1.2548 0
M  V30 1580 C 154.208 -6.10216 -0.479843 0
M  V30 1581 N 153.345 -6.88039 -1.39811 0
M  V30 1582 H 158.185 -2.90454 0.666386 0
M  V30 1583 H 155.722 -1.43107 0.340404 0
M  V30 1584 H 157.68 -3.84027 -1.63031 0
M  V30 1585 H 156.31 -2.70632 -1.75949 0
M  V30 1586 H 155.362 -3.78203 0.408243 0
M  V30 1587 H 156.674 -4.97794 0.316657 0
M  V30 1588 H 155.828 -5.76002 -1.90544 0
M  V30 1589 H 154.567 -4.49491 -1.89233 0
M  V30 1590 H 153.572 -5.49491 0.184295 0
M  V30 1591 H 154.797 -6.78928 0.152965 0
M  V30 1592 H 152.743 -6.24032 -2.02287 0
M  V30 1593 H 152.66 -7.51223 -0.848508 0
M  V30 1594 H 153.928 -7.52397 -2.03762 0
M  V30 1595 N 158.157 -0.370918 -1.53173 0
M  V30 1596 C 159.387 0.217389 -2.05453 0
M  V30 1597 C 159.795 1.42568 -1.24382 0
M  V30 1598 O 159.138 1.81571 -0.278839 0
M  V30 1599 C 159.2 0.669827 -3.53205 0
M  V30 1600 C 158.864 -0.4225 -4.55043 0
M  V30 1601 C 159.861 -1.27407 -5.04047 0
M  V30 1602 C 157.546 -0.58427 -4.9889 0
M  V30 1603 C 159.54 -2.27271 -5.95505 0
M  V30 1604 C 157.227 -1.58627 -5.90153 0
M  V30 1605 C 158.225 -2.42892 -6.38351 0
M  V30 1606 O 157.913 -3.41382 -7.27814 0
M  V30 1607 H 157.645 0.0408171 -0.674767 0
M  V30 1608 H 160.199 -0.5292 -1.98466 0
M  V30 1609 H 158.429 1.4681 -3.57748 0
M  V30 1610 H 160.118 1.18173 -3.88317 0
M  V30 1611 H 160.884 -1.16031 -4.70916 0
M  V30 1612 H 156.763 0.061851 -4.60959 0
M  V30 1613 H 160.307 -2.93079 -6.33049 0
M  V30 1614 H 156.204 -1.70048 -6.22699 0
M  V30 1615 H 156.972 -3.37173 -7.45826 0
M  V30 1616 N 159.635 1.57281 -0.100228 0
M  V30 1617 C 160.568 2.09976 0.893612 0
M  V30 1618 C 161.546 1.01155 1.27304 0
M  V30 1619 O 162.73 1.28687 1.37739 0
M  V30 1620 C 159.857 2.58098 2.19324 0
M  V30 1621 C 158.903 3.78626 1.96328 0
M  V30 1622 S 159.736 5.21959 1.19662 0
M  V30 1623 C 160.892 5.73435 2.50844 0
M  V30 1624 H 161.125 2.93946 0.44534 0
M  V30 1625 H 158.658 1.53985 0.113167 0
M  V30 1626 H 160.616 2.8648 2.94005 0
M  V30 1627 H 159.277 1.74344 2.61272 0
M  V30 1628 H 158.47 4.10382 2.92579 0
M  V30 1629 H 158.072 3.50763 1.29775 0
M  V30 1630 H 160.364 5.82015 3.46792 0
M  V30 1631 H 161.307 6.7185 2.23659 0
M  V30 1632 H 161.715 5.01395 2.59352 0
M  V30 1633 N 161.113 -0.173488 1.56642 0
M  V30 1634 C 162.361 -0.888706 1.81512 0
M  V30 1635 C 162.682 -1.82875 0.676872 0
M  V30 1636 O 161.952 -1.93536 -0.303414 0
M  V30 1637 H 160.532 -0.331164 0.669582 0
M  V30 1638 H 163.194 -0.173823 1.94123 0
M  V30 1639 H 162.29 -1.46691 2.75478 0
M  V30 1640 N 162.591 -1.51276 -0.441967 0
M  V30 1641 C 164.007 -1.39349 -0.778083 0
M  V30 1642 C 164.207 -0.472212 -1.95889 0
M  V30 1643 O 163.263 0.0743551 -2.5239 0
M  V30 1644 C 164.576 -2.81292 -1.0628 0
M  V30 1645 C 166.124 -2.9041 -1.16751 0
M  V30 1646 C 166.599 -4.33251 -1.48519 0
M  V30 1647 N 168.09 -4.36336 -1.55453 0
M  V30 1648 C 168.825 -5.43885 -1.81596 0
M  V30 1649 N 168.321 -6.61601 -2.05562 0
M  V30 1650 N 170.114 -5.3136 -1.8334 0
M  V30 1651 H 162.265 -2.09729 0.335774 0
M  V30 1652 H 164.528 -0.943925 0.0878028 0
M  V30 1653 H 164.234 -3.50678 -0.267905 0
M  V30 1654 H 164.108 -3.20334 -1.99163 0
M  V30 1655 H 166.495 -2.21225 -1.95304 0
M  V30 1656 H 166.576 -2.54871 -0.217801 0
M  V30 1657 H 166.22 -5.02984 -0.704958 0
M  V30 1658 H 166.15 -4.66299 -2.44689 0
M  V30 1659 H 168.641 -3.51466 -1.38853 0
M  V30 1660 H 168.954 -7.39361 -2.24867 0
M  V30 1661 H 167.299 -6.64725 -2.02894 0
M  V30 1662 H 170.49 -4.38382 -1.64132 0
M  V30 1663 H 170.663 -6.15258 -2.03377 0
M  V30 1664 N 164.069 0.697108 -1.41344 0
M  V30 1665 C 165.297 1.48593 -1.43972 0
M  V30 1666 C 165.712 1.88747 -0.0445612 0
M  V30 1667 O 165.069 1.56682 0.935785 0
M  V30 1668 C 165.12 2.74946 -2.34706 0
M  V30 1669 O 164.841 2.36484 -3.68791 0
M  V30 1670 C 166.342 3.687 -2.46121 0
M  V30 1671 H 163.562 0.457964 -0.490418 0
M  V30 1672 H 166.106 0.858429 -1.8561 0
M  V30 1673 H 164.261 3.33937 -1.9638 0
M  V30 1674 H 164.675 3.17918 -4.17167 0
M  V30 1675 H 166.149 4.54145 -3.13777 0
M  V30 1676 H 166.626 4.13081 -1.49199 0
M  V30 1677 H 167.232 3.15613 -2.85076 0
M  V30 1678 N 165.547 1.27147 0.931209 0
M  V30 1679 C 166.772 1.16191 1.71797 0
M  V30 1680 C 167.197 -0.278004 1.86034 0
M  V30 1681 O 166.555 -1.20137 1.35782 0
M  V30 1682 C 166.603 1.84673 3.09723 0
M  V30 1683 O 165.707 1.14231 3.96264 0
M  V30 1684 H 165.048 0.404303 0.526721 0
M  V30 1685 H 167.578 1.68152 1.1656 0
M  V30 1686 H 167.588 1.91893 3.60057 0
M  V30 1687 H 166.263 2.89421 2.98677 0
M  V30 1688 H 164.84 1.15056 3.54706 0
M  V30 1689 N 167.025 -1.13721 1.09112 0
M  V30 1690 C 168.255 -1.88499 0.845671 0
M  V30 1691 C 168.663 -1.79218 -0.606432 0
M  V30 1692 O 168.006 -1.1544 -1.42896 0
M  V30 1693 C 168.068 -3.38954 1.19793 0
M  V30 1694 C 167.732 -3.72018 2.65428 0
M  V30 1695 C 168.729 -3.7153 3.63677 0
M  V30 1696 C 166.414 -4.01775 3.01467 0
M  V30 1697 C 168.408 -4.00336 4.95994 0
M  V30 1698 C 166.095 -4.30243 4.33975 0
M  V30 1699 C 167.093 -4.29508 5.31048 0
M  V30 1700 O 166.781 -4.5728 6.61173 0
M  V30 1701 H 166.513 -0.603702 0.304171 0
M  V30 1702 H 169.067 -1.44903 1.45576 0
M  V30 1703 H 167.297 -3.83039 0.530871 0
M  V30 1704 H 168.986 -3.95052 0.932146 0
M  V30 1705 H 169.752 -3.4862 3.37179 0
M  V30 1706 H 165.631 -4.01496 2.26544 0
M  V30 1707 H 169.175 -3.99678 5.71755 0
M  V30 1708 H 165.072 -4.52625 4.60219 0
M  V30 1709 H 165.84 -4.74964 6.66597 0
M  V30 1710 N 168.503 -0.877838 -1.30888 0
M  V30 1711 C 169.919 -0.570844 -1.49042 0
M  V30 1712 C 170.119 0.893159 -1.80624 0
M  V30 1713 O 169.175 1.67485 -1.88958 0
M  V30 1714 C 170.488 -1.47784 -2.61878 0
M  V30 1715 C 172.036 -1.48071 -2.75761 0
M  V30 1716 C 172.511 -2.37347 -3.91702 0
M  V30 1717 N 174.002 -2.35271 -3.99001 0
M  V30 1718 C 174.737 -3.01063 -4.88004 0
M  V30 1719 N 174.233 -3.76055 -5.81854 0
M  V30 1720 N 176.026 -2.90332 -4.81315 0
M  V30 1721 H 168.177 -1.82502 -1.0866 0
M  V30 1722 H 170.44 -0.780797 -0.537644 0
M  V30 1723 H 170.146 -2.51993 -2.45341 0
M  V30 1724 H 170.02 -1.18215 -3.58197 0
M  V30 1725 H 172.407 -0.446166 -2.91708 0
M  V30 1726 H 172.488 -1.81668 -1.80085 0
M  V30 1727 H 172.132 -3.40883 -3.76512 0
M  V30 1728 H 172.062 -2.01071 -4.86701 0
M  V30 1729 H 174.553 -1.80768 -3.3186 0
M  V30 1730 H 174.866 -4.23366 -6.46514 0
M  V30 1731 H 173.211 -3.80163 -5.81808 0
M  V30 1732 H 176.402 -2.31278 -4.06974 0
M  V30 1733 H 176.575 -3.41885 -5.50471 0
M  V30 1734 N 169.982 1.44106 -0.638065 0
M  V30 1735 C 171.222 2.03858 -0.148733 0
M  V30 1736 C 171.586 1.49153 1.20903 0
M  V30 1737 O 172.787 2.00452 1.79088 0
M  V30 1738 C 171.058 3.57117 -0.142314 0
M  V30 1739 S 172.617 4.37897 0.281385 0
M  V30 1740 H 169.435 0.708069 -0.0644912 0
M  V30 1741 H 172.037 1.7639 -0.843009 0
M  V30 1742 H 170.741 3.94436 -1.13349 0
M  V30 1743 H 170.272 3.89205 0.572988 0
M  V30 1744 H 172.287 4.72218 1.52395 0
M  V30 1745 N 171.46 0.379036 1.52974 0
M  V30 1746 C 172.706 -0.199244 2.02422 0
M  V30 1747 C 173.061 -1.4532 1.26095 0
M  V30 1748 O 172.354 -1.88377 0.34996 0
M  V30 1749 C 172.548 -0.53096 3.53434 0
M  V30 1750 C 172.377 0.689298 4.44386 0
M  V30 1751 C 171.147 1.20546 4.9071 0
M  V30 1752 C 173.345 1.55856 4.90116 0
M  V30 1753 N 171.327 2.38434 5.65705 0
M  V30 1754 C 172.698 2.58396 5.63588 0
M  V30 1755 C 174.753 1.57986 4.7217 0
M  V30 1756 C 173.456 3.62939 6.21022 0
M  V30 1757 C 175.482 2.6143 5.30479 0
M  V30 1758 C 174.844 3.62693 6.03849 0
M  V30 1759 H 170.943 -0.0352671 0.781204 0
M  V30 1760 H 173.527 0.526614 1.87443 0
M  V30 1761 H 171.698 -1.22588 3.68547 0
M  V30 1762 H 173.43 -1.0955 3.89591 0
M  V30 1763 H 170.185 0.768022 4.67331 0
M  V30 1764 H 170.609 2.98055 6.07859 0
M  V30 1765 H 175.251 0.810475 4.14959 0
M  V30 1766 H 172.969 4.40751 6.77321 0
M  V30 1767 H 176.555 2.63949 5.18481 0
M  V30 1768 H 175.435 4.41424 6.48163 0
M  V30 1769 N 172.938 -1.57226 0.108567 0
M  V30 1770 C 174.186 -1.94448 -0.550853 0
M  V30 1771 C 174.507 -0.992074 -1.67878 0
M  V30 1772 O 173.777 -0.0465 -1.95845 0
M  V30 1773 H 172.357 -0.717897 -0.206479 0
M  V30 1774 H 175.019 -1.94112 0.175062 0
M  V30 1775 H 174.115 -2.97218 -0.952259 0
M  V30 1776 N 174.416 0.165178 -1.56732 0
M  V30 1777 C 175.366 1.20917 -1.93295 0
M  V30 1778 C 176.35 1.39488 -0.801985 0
M  V30 1779 O 177.542 1.41356 -1.06525 0
M  V30 1780 C 174.671 2.54718 -2.3016 0
M  V30 1781 C 173.757 2.39815 -3.49785 0
M  V30 1782 N 174.148 1.94637 -4.66851 0
M  V30 1783 C 172.446 2.70623 -3.54513 0
M  V30 1784 C 173.147 1.92344 -5.4898 0
M  V30 1785 N 172.123 2.34978 -4.9019 0
M  V30 1786 H 175.925 0.851675 -2.81289 0
M  V30 1787 H 173.439 0.373399 -1.58049 0
M  V30 1788 H 175.436 3.30165 -2.54552 0
M  V30 1789 H 174.096 2.91265 -1.43508 0
M  V30 1790 H 175.107 1.6488 -4.90953 0
M  V30 1791 H 171.784 3.11167 -2.78354 0
M  V30 1792 H 173.174 1.5906 -6.52801 0
M  V30 1793 N 175.894 1.51508 0.433938 0
M  V30 1794 C 176.824 1.76016 1.53429 0
M  V30 1795 C 177.805 0.610112 1.58782 0
M  V30 1796 O 178.99 0.853177 1.74455 0
M  V30 1797 C 176.12 1.88831 2.9148 0
M  V30 1798 C 175.074 3.04288 3.00987 0
M  V30 1799 C 174.4 3.0229 4.4105 0
M  V30 1800 C 175.7 4.44193 2.74754 0
M  V30 1801 H 177.394 2.68152 1.33171 0
M  V30 1802 H 174.94 1.29035 0.639214 0
M  V30 1803 H 176.893 2.04559 3.6842 0
M  V30 1804 H 175.617 0.933455 3.12976 0
M  V30 1805 H 174.276 2.8827 2.26486 0
M  V30 1806 H 173.924 2.04576 4.59519 0
M  V30 1807 H 173.624 3.79822 4.4834 0
M  V30 1808 H 175.148 3.20116 5.1996 0
M  V30 1809 H 176.562 4.60544 3.41426 0
M  V30 1810 H 174.959 5.23457 2.9345 0
M  V30 1811 H 176.029 4.53996 1.70339 0
M  V30 1812 N 177.372 -0.689602 1.41712 0
M  V30 1813 C 178.335 -1.78521 1.43746 0
M  V30 1814 C 179.335 -1.57436 0.327191 0
M  V30 1815 O 180.525 -1.64 0.587348 0
M  V30 1816 C 177.657 -3.16971 1.25467 0
M  V30 1817 H 178.85 -1.78108 2.41283 0
M  V30 1818 H 176.403 -0.89781 1.27942 0
M  V30 1819 H 177.138 -3.23019 0.287948 0
M  V30 1820 H 176.923 -3.33678 2.05917 0
M  V30 1821 H 178.413 -3.96935 1.2974 0
M  V30 1822 N 178.85 -1.27639 -0.924453 0
M  V30 1823 C 180.127 -1.04887 -1.651 0
M  V30 1824 C 180.507 0.415327 -2.06974 0
M  V30 1825 O 179.855 1.39923 -1.80648 0
M  V30 1826 C 180.065 -2.01348 -2.85061 0
M  V30 1827 C 181.413 -2.30899 -3.56329 0
M  V30 1828 O 182.437 -1.99348 -2.95193 0
M  V30 1829 O 181.296 -2.84699 -4.66485 0
M  V30 1830 H 178.39 -0.400083 -0.723784 0
M  V30 1831 H 180.936 -1.38916 -0.974703 0
M  V30 1832 H 179.708 -3.0008 -2.51133 0
M  V30 1833 H 179.331 -1.679 -3.6041 0
M  V30 1834 N 180.328 1.1314 -1.09713 0
M  V30 1835 C 181.291 2.16831 -0.742751 0
M  V30 1836 C 182.291 1.59159 0.229129 0
M  V30 1837 O 183.481 1.74199 0.00693237 0
M  V30 1838 C 180.613 3.40756 -0.0989168 0
M  V30 1839 H 181.806 2.49695 -1.66109 0
M  V30 1840 H 179.359 1.2802 -0.896699 0
M  V30 1841 H 180.094 3.13485 0.830514 0
M  V30 1842 H 179.879 3.83888 -0.798265 0
M  V30 1843 H 181.369 4.17386 0.133524 0
M  V30 1844 N 181.806 0.884767 1.30421 0
M  V30 1845 C 183.052 0.503851 1.96441 0
M  V30 1846 C 183.385 -0.944518 1.69684 0
M  V30 1847 O 182.66 -1.66737 1.00145 0
M  V30 1848 C 182.943 0.779085 3.51571 0
M  V30 1849 C 182.796 2.27807 3.87846 0
M  V30 1850 C 184.115 0.255452 4.39358 0
M  V30 1851 H 181.234 0.184533 0.713524 0
M  V30 1852 H 183.876 1.10872 1.54297 0
M  V30 1853 H 182.026 0.264274 3.876 0
M  V30 1854 H 183.698 2.86127 3.61841 0
M  V30 1855 H 181.941 2.74479 3.35922 0
M  V30 1856 H 182.612 2.42125 4.96064 0
M  V30 1857 H 185.088 0.696079 4.10236 0
M  V30 1858 H 183.964 0.477361 5.4682 0
M  V30 1859 H 184.225 -0.843293 4.33983 0
M  V30 1860 N 183.284 -1.43765 0.645699 0
M  V30 1861 C 184.7 -1.56509 0.312591 0
M  V30 1862 C 184.9 -1.6307 -1.18365 0
M  V30 1863 O 183.956 -1.58167 -1.96824 0
M  V30 1864 C 185.269 -2.82968 1.01733 0
M  V30 1865 C 186.817 -2.96701 0.996865 0
M  V30 1866 C 187.292 -4.25982 1.68236 0
M  V30 1867 N 188.783 -4.32829 1.64964 0
M  V30 1868 C 189.518 -5.31613 2.14885 0
M  V30 1869 N 189.014 -6.36718 2.73061 0
M  V30 1870 N 190.807 -5.23217 2.05428 0
M  V30 1871 H 182.958 -1.3775 1.61675 0
M  V30 1872 H 185.221 -0.661067 0.679481 0
M  V30 1873 H 184.927 -2.84156 2.0724 0
M  V30 1874 H 184.801 -3.72957 0.564177 0
M  V30 1875 H 187.188 -2.95058 -0.0497719 0
M  V30 1876 H 187.269 -2.08022 1.48865 0
M  V30 1877 H 186.913 -4.28386 2.72852 0
M  V30 1878 H 186.843 -5.13545 1.16529 0
M  V30 1879 H 189.334 -3.57493 1.22503 0
M  V30 1880 H 189.647 -7.08401 3.08848 0
M  V30 1881 H 187.992 -6.37362 2.77118 0
M  V30 1882 H 191.183 -4.40019 1.59689 0
M  V30 1883 H 191.356 -6.00045 2.44643 0
M  V30 1884 N 184.763 -0.387143 -1.52771 0
M  V30 1885 C 185.673 0.456442 -2.30117 0
M  V30 1886 C 186.689 1.07342 -1.36944 0
M  V30 1887 O 187.865 1.07971 -1.70013 0
M  V30 1888 C 184.93 1.56957 -3.09136 0
M  V30 1889 C 183.991 0.977916 -4.18014 0
M  V30 1890 C 183.224 2.038 -4.93256 0
M  V30 1891 O 183.447 3.25271 -4.68567 0
M  V30 1892 O 182.381 1.6565 -5.78657 0
M  V30 1893 H 186.207 -0.17359 -3.03203 0
M  V30 1894 H 183.792 -0.150919 -1.48636 0
M  V30 1895 H 185.674 2.21628 -3.58412 0
M  V30 1896 H 184.349 2.18461 -2.38865 0
M  V30 1897 H 183.256 0.294525 -3.72939 0
M  V30 1898 H 184.589 0.407128 -4.90513 0
M  V30 1899 N 186.241 1.57166 -0.116904 0
M  V30 1900 C 187.489 1.94737 0.540533 0
M  V30 1901 C 187.81 1.00096 1.67349 0
M  V30 1902 O 187.08 0.0568854 1.95817 0
M  V30 1903 H 185.66 0.718981 0.202669 0
M  V30 1904 H 188.322 1.94017 -0.185353 0
M  V30 1905 H 187.418 2.97719 0.936483 0
M  V30 1906 N 187.719 -0.156864 1.56817 0
M  V30 1907 C 189.135 -0.50916 1.5126 0
M  V30 1908 C 189.335 -1.83897 0.823658 0
M  V30 1909 O 188.391 -2.49469 0.390055 0
M  V30 1910 C 189.704 -0.52857 2.96018 0
M  V30 1911 C 191.252 -0.614771 3.06903 0
M  V30 1912 C 191.727 -0.664938 4.53147 0
M  V30 1913 N 193.218 -0.727433 4.57452 0
M  V30 1914 C 193.953 -0.787067 5.67973 0
M  V30 1915 N 193.449 -0.806649 6.88088 0
M  V30 1916 N 195.242 -0.827195 5.5598 0
M  V30 1917 H 187.393 0.714935 2.00006 0
M  V30 1918 H 189.656 0.259526 0.911784 0
M  V30 1919 H 189.362 0.380154 3.49639 0
M  V30 1920 H 189.236 -1.36998 3.51442 0
M  V30 1921 H 191.623 -1.51392 2.53307 0
M  V30 1922 H 191.704 0.253597 2.5454 0
M  V30 1923 H 191.348 0.230011 5.07379 0
M  V30 1924 H 191.278 -1.54966 5.03282 0
M  V30 1925 H 193.769 -0.719998 3.70978 0
M  V30 1926 H 194.082 -0.853727 7.6807 0
M  V30 1927 H 192.427 -0.774687 6.90669 0
M  V30 1928 H 195.618 -0.808998 4.61056 0
M  V30 1929 H 195.791 -0.870206 6.4213 0
M  V30 1930 N 189.197 -1.51736 -0.425897 0
M  V30 1931 C 190.145 -1.74464 -1.53834 0
M  V30 1932 C 191.139 -0.611241 -1.57988 0
M  V30 1933 O 192.345 -0.792899 -1.61596 0
M  V30 1934 H 188.72 -0.551437 -0.511293 0
M  V30 1935 H 190.691 -2.67694 -1.31843 0
M  V30 1936 C 189.44 -1.8972 -2.91379 0
M  V30 1937 H 188.763 -2.76344 -2.88919 0
M  V30 1938 H 190.203 -2.09629 -3.68553 0
M  V30 1939 C 188.662 -0.65992 -3.30374 0
M  V30 1940 O 189.192 0.180083 -4.01296 0
M  V30 1941 N 187.398 -0.500677 -2.86254 0
M  V30 1942 H 186.945 -1.18532 -2.28709 0
M  V30 1943 H 186.903 0.325903 -3.12706 0
M  V30 1944 N 190.675 0.682077 -1.42076 0
M  V30 1945 C 191.607 1.80755 -1.40926 0
M  V30 1946 C 192.62 1.59833 -0.309398 0
M  V30 1947 O 193.809 1.69087 -0.572014 0
M  V30 1948 C 190.909 3.17744 -1.17865 0
M  V30 1949 C 190.082 3.65578 -2.40149 0
M  V30 1950 C 189.141 4.81277 -2.12742 0
M  V30 1951 O 188.167 4.92197 -2.85887 0
M  V30 1952 N 189.369 5.69474 -1.12602 0
M  V30 1953 H 192.134 1.82229 -2.37935 0
M  V30 1954 H 189.695 0.864903 -1.36861 0
M  V30 1955 H 191.687 3.9279 -0.9746 0
M  V30 1956 H 190.257 3.11214 -0.294068 0
M  V30 1957 H 189.477 2.81291 -2.76169 0
M  V30 1958 H 190.765 3.94278 -3.21593 0
M  V30 1959 H 190.163 5.63297 -0.520899 0
M  V30 1960 H 188.72 6.44363 -0.981842 0
M  V30 1961 N 192.153 1.28127 0.917671 0
M  V30 1962 C 193.383 1.17722 1.6978 0
M  V30 1963 C 193.791 -0.267261 1.87303 0
M  V30 1964 O 193.134 -1.19286 1.39702 0
M  V30 1965 C 193.196 1.79958 3.11216 0
M  V30 1966 C 192.86 3.29187 3.16993 0
M  V30 1967 C 193.857 4.25679 2.98485 0
M  V30 1968 C 191.542 3.70075 3.39632 0
M  V30 1969 C 193.536 5.61035 3.02521 0
M  V30 1970 C 191.223 5.05557 3.433 0
M  V30 1971 C 192.221 6.00847 3.24764 0
M  V30 1972 O 191.909 7.33859 3.28187 0
M  V30 1973 H 191.641 0.409788 0.537634 0
M  V30 1974 H 194.195 1.69694 1.15728 0
M  V30 1975 H 192.425 1.22475 3.66793 0
M  V30 1976 H 194.114 1.64125 3.71238 0
M  V30 1977 H 194.88 3.95426 2.80826 0
M  V30 1978 H 190.759 2.96373 3.53106 0
M  V30 1979 H 194.303 6.35388 2.87971 0
M  V30 1980 H 190.2 5.35462 3.60486 0
M  V30 1981 H 190.968 7.42436 3.44575 0
M  V30 1982 N 193.631 -1.12557 1.10312 0
M  V30 1983 C 194.561 -2.20341 0.772798 0
M  V30 1984 C 195.542 -1.68198 -0.25365 0
M  V30 1985 O 196.727 -1.93831 -0.119699 0
M  V30 1986 C 193.857 -3.46709 0.202443 0
M  V30 1987 C 192.811 -4.11996 1.15943 0
M  V30 1988 C 192.137 -5.328 0.450345 0
M  V30 1989 C 193.437 -4.5828 2.50552 0
M  V30 1990 H 195.131 -2.48229 1.674 0
M  V30 1991 H 192.677 -1.19308 0.806326 0
M  V30 1992 H 194.63 -4.2138 -0.0407752 0
M  V30 1993 H 193.354 -3.18245 -0.734001 0
M  V30 1994 H 192.013 -3.39305 1.38808 0
M  V30 1995 H 191.661 -5.00602 -0.490531 0
M  V30 1996 H 191.361 -5.7743 1.08851 0
M  V30 1997 H 192.885 -6.10219 0.215642 0
M  V30 1998 H 194.299 -5.2433 2.31843 0
M  V30 1999 H 192.696 -5.13683 3.10242 0
M  V30 2000 H 193.766 -3.72329 3.10643 0
M  V30 2001 N 195.109 -0.891671 -1.2995 0
M  V30 2002 C 196.019 -0.367691 -2.31701 0
M  V30 2003 C 197.035 0.533486 -1.6562 0
M  V30 2004 O 198.211 0.424997 -1.96865 0
M  V30 2005 C 195.276 0.403406 -3.44345 0
M  V30 2006 C 194.337 -0.528328 -4.26037 0
M  V30 2007 C 193.57 0.206063 -5.33302 0
M  V30 2008 O 193.793 1.43119 -5.52153 0
M  V30 2009 O 192.727 -0.447281 -6.00236 0
M  V30 2010 H 196.553 -1.21163 -2.78484 0
M  V30 2011 H 194.138 -0.655725 -1.34241 0
M  V30 2012 H 196.02 0.839753 -4.12948 0
M  V30 2013 H 194.695 1.22354 -2.99685 0
M  V30 2014 H 193.602 -1.01362 -3.60106 0
M  V30 2015 H 194.935 -1.31465 -4.74318 0
M  V30 2016 N 196.587 1.43421 -0.653314 0
M  V30 2017 C 197.815 2.06163 -0.174491 0
M  V30 2018 C 198.23 1.48969 1.1599 0
M  V30 2019 O 197.587 0.621042 1.71608 0
M  V30 2020 C 197.638 3.61417 -0.0774865 0
M  V30 2021 O 197.359 4.16485 -1.35912 0
M  V30 2022 C 198.86 4.41235 0.427402 0
M  V30 2023 H 196.08 0.664946 -0.0899353 0
M  V30 2024 H 198.624 1.83924 -0.893988 0
M  V30 2025 H 196.779 3.82841 0.59257 0
M  V30 2026 H 197.193 5.10153 -1.21839 0
M  V30 2027 H 198.667 5.5021 0.44423 0
M  V30 2028 H 199.144 4.14268 1.45873 0
M  V30 2029 H 199.75 4.2478 -0.210167 0
M  V30 2030 N 198.065 0.39524 1.52563 0
M  V30 2031 C 199.312 -0.185044 2.01653 0
M  V30 2032 C 199.64 -1.46317 1.28146 0
M  V30 2033 O 198.895 -1.9213 0.372074 0
M  V30 2034 C 199.194 -0.493444 3.53977 0
M  V30 2035 C 198.86 0.69384 4.4553 0
M  V30 2036 C 197.522 1.01954 4.70275 0
M  V30 2037 C 199.874 1.48785 4.99512 0
M  V30 2038 C 197.202 2.14069 5.46252 0
M  V30 2039 C 199.554 2.59965 5.76716 0
M  V30 2040 C 198.218 2.93037 5.99738 0
M  V30 2041 H 197.488 -0.0677123 0.7379 0
M  V30 2042 H 200.135 0.533807 1.8391 0
M  V30 2043 H 198.44 -1.29369 3.69825 0
M  V30 2044 H 200.137 -0.955163 3.89458 0
M  V30 2045 H 196.727 0.429987 4.26438 0
M  V30 2046 H 200.911 1.24946 4.80315 0
M  V30 2047 H 196.167 2.40056 5.62302 0
M  V30 2048 H 200.341 3.21887 6.17545 0
M  V30 2049 H 197.968 3.8003 6.58393 0
M  V30 2050 N 199.544 -1.57102 0.125237 0
M  V30 2051 C 200.792 -1.95021 -0.530198 0
M  V30 2052 C 201.113 -1.00982 -1.66816 0
M  V30 2053 O 200.383 -0.0672693 -1.95784 0
M  V30 2054 H 198.963 -0.720046 -0.198853 0
M  V30 2055 H 201.625 -1.93916 0.19564 0
M  V30 2056 H 200.721 -2.98211 -0.920681 0
M  V30 2057 N 201.022 0.148545 -1.56898 0
M  V30 2058 C 202.268 0.862694 -1.83536 0
M  V30 2059 C 202.601 1.80889 -0.706604 0
M  V30 2060 O 201.876 1.92328 0.289885 0
M  V30 2061 C 202.159 1.63853 -3.20662 0
M  V30 2062 C 202.012 0.713925 -4.44098 0
M  V30 2063 C 203.331 2.60133 -3.54991 0
M  V30 2064 H 200.45 0.312179 -0.667618 0
M  V30 2065 H 203.092 0.127953 -1.89569 0
M  V30 2066 H 201.242 2.26489 -3.1565 0
M  V30 2067 H 202.914 0.098686 -4.61194 0
M  V30 2068 H 201.157 0.0234019 -4.33794 0
M  V30 2069 H 201.828 1.29278 -5.36648 0
M  V30 2070 H 204.304 2.07616 -3.60603 0
M  V30 2071 H 203.18 3.11468 -4.51972 0
M  V30 2072 H 203.441 3.41417 -2.80868 0
M  V30 2073 N 202.5 1.5196 0.417844 0
M  V30 2074 C 203.911 1.57851 0.997 0
M  V30 2075 C 204.262 0.413714 1.91789 0
M  V30 2076 O 203.387 -0.467057 2.113 0
M  V30 2077 C 203.982 2.86085 1.81496 0
M  V30 2078 C 202.541 2.94483 2.34428 0
M  V30 2079 C 201.688 2.52707 1.14169 0
M  V30 2080 H 204.639 1.57455 0.198392 0
M  V30 2081 H 204.66 2.70947 2.67148 0
M  V30 2082 H 204.172 3.70842 1.14446 0
M  V30 2083 H 202.273 2.142 3.04875 0
M  V30 2084 H 202.386 3.98546 2.65891 0
M  V30 2085 H 200.75 2.06353 1.49301 0
M  V30 2086 H 201.533 3.39828 0.486999 0
M  V30 2087 N 203.978 -0.674533 1.42435 0
M  V30 2088 C 204.941 -1.76986 1.45632 0
M  V30 2089 C 205.941 -1.5708 0.343871 0
M  V30 2090 O 207.131 -1.63367 0.604709 0
M  V30 2091 C 204.263 -3.15623 1.28822 0
M  V30 2092 H 205.456 -1.75539 2.43158 0
M  V30 2093 H 203.009 -0.884189 1.28887 0
M  V30 2094 H 203.744 -3.22696 0.322193 0
M  V30 2095 H 203.529 -3.31475 2.09444 0
M  V30 2096 H 205.019 -3.95537 1.33942 0
M  V30 2097 N 205.456 -1.28612 -0.910864 0
M  V30 2098 C 206.366 -1.14643 -2.0468 0
M  V30 2099 C 207.382 -0.0723121 -1.7385 0
M  V30 2100 O 208.558 -0.282178 -1.99413 0
M  V30 2101 C 205.623 -0.812561 -3.37044 0
M  V30 2102 C 204.684 -1.96935 -3.81465 0
M  V30 2103 C 203.917 -1.65131 -5.07511 0
M  V30 2104 O 204.14 -0.567013 -5.67575 0
M  V30 2105 O 203.074 -2.49585 -5.47714 0
M  V30 2106 H 206.9 -2.1001 -2.19384 0
M  V30 2107 H 204.485 -1.07958 -1.03274 0
M  V30 2108 H 206.367 -0.640441 -4.16505 0
M  V30 2109 H 205.042 0.111426 -3.23508 0
M  V30 2110 H 203.949 -2.19664 -3.02818 0
M  V30 2111 H 205.282 -2.87414 -3.99567 0
M  V30 2112 N 206.934 1.1197 -1.10907 0
M  V30 2113 C 207.844 2.21433 -0.774896 0
M  V30 2114 C 208.86 1.72478 0.229657 0
M  V30 2115 O 210.036 2.01288 0.0672008 0
M  V30 2116 C 207.101 3.4602 -0.216986 0
M  V30 2117 C 206.162 4.09791 -1.27944 0
M  V30 2118 C 205.395 5.28431 -0.748055 0
M  V30 2119 O 205.618 5.68823 0.423833 0
M  V30 2120 O 204.552 5.82644 -1.51027 0
M  V30 2121 H 208.378 2.5242 -1.68873 0
M  V30 2122 H 205.963 1.20399 -0.884555 0
M  V30 2123 H 207.845 4.21304 0.090059 0
M  V30 2124 H 206.52 3.16698 0.669633 0
M  V30 2125 H 205.427 3.36265 -1.63941 0
M  V30 2126 H 206.76 4.4328 -2.13925 0
M  V30 2127 N 208.412 0.89855 1.29475 0
M  V30 2128 C 209.342 0.39201 2.30186 0
M  V30 2129 C 210.323 -0.532359 1.61555 0
M  V30 2130 O 211.508 -0.443331 1.89072 0
M  V30 2131 C 208.638 -0.382353 3.45189 0
M  V30 2132 C 207.592 0.451483 4.25612 0
M  V30 2133 C 206.918 -0.450307 5.328 0
M  V30 2134 C 208.218 1.70079 4.93832 0
M  V30 2135 H 209.912 1.23362 2.72804 0
M  V30 2136 H 207.458 0.594638 1.31149 0
M  V30 2137 H 209.411 -0.747451 4.14718 0
M  V30 2138 H 208.135 -1.25774 3.01411 0
M  V30 2139 H 206.794 0.798897 3.57789 0
M  V30 2140 H 206.442 -1.32379 4.85268 0
M  V30 2141 H 206.142 0.103902 5.87508 0
M  V30 2142 H 207.666 -0.811623 6.05182 0
M  V30 2143 H 209.08 1.40549 5.55805 0
M  V30 2144 H 207.477 2.19623 5.58467 0
M  V30 2145 H 208.547 2.43744 4.19186 0
M  V30 2146 N 209.89 -1.43072 0.660911 0
M  V30 2147 C 211.137 -2.01721 0.177445 0
M  V30 2148 C 211.465 -1.5218 -1.21126 0
M  V30 2149 O 210.72 -0.708659 -1.82419 0
M  V30 2150 C 211.019 -3.57103 0.145563 0
M  V30 2151 C 210.685 -4.26021 1.47705 0
M  V30 2152 C 209.347 -4.44563 1.84165 0
M  V30 2153 C 211.699 -4.64983 2.35458 0
M  V30 2154 C 209.027 -4.99334 3.0803 0
M  V30 2155 C 211.379 -5.21127 3.58622 0
M  V30 2156 C 210.043 -5.37884 3.95268 0
M  V30 2157 H 209.313 -0.73815 0.0649317 0
M  V30 2158 H 211.96 -1.71446 0.853144 0
M  V30 2159 H 210.265 -3.86965 -0.61361 0
M  V30 2160 H 211.962 -4.00248 -0.2455 0
M  V30 2161 H 208.552 -4.11939 1.18339 0
M  V30 2162 H 212.736 -4.50343 2.08579 0
M  V30 2163 H 207.992 -5.10493 3.36462 0
M  V30 2164 H 212.166 -5.50262 4.26831 0
M  V30 2165 H 209.793 -5.80089 4.91325 0
M  V30 2166 N 211.368 -0.403325 -1.52352 0
M  V30 2167 C 212.596 0.174012 -2.06167 0
M  V30 2168 C 213.011 1.39347 -1.27388 0
M  V30 2169 O 212.368 1.79597 -0.324201 0
M  V30 2170 C 212.419 0.530223 -3.5759 0
M  V30 2171 O 212.14 -0.640806 -4.33388 0
M  V30 2172 C 213.641 1.16192 -4.27802 0
M  V30 2173 H 210.861 0.0229464 -0.670608 0
M  V30 2174 H 213.405 -0.572604 -1.9632 0
M  V30 2175 H 211.56 1.22673 -3.67464 0
M  V30 2176 H 211.974 -0.344851 -5.23365 0
M  V30 2177 H 213.448 1.36141 -5.34948 0
M  V30 2178 H 213.925 2.13335 -3.83907 0
M  V30 2179 H 214.531 0.505775 -4.22282 0
M  V30 2180 N 212.846 1.57033 -0.133567 0
M  V30 2181 C 213.809 2.14897 0.796995 0
M  V30 2182 C 214.809 1.0874 1.18458 0
M  V30 2183 O 215.999 1.34446 1.1077 0
M  V30 2184 C 213.131 2.70112 2.07973 0
M  V30 2185 H 214.324 2.98457 0.293873 0
M  V30 2186 H 211.877 1.55871 0.115787 0
M  V30 2187 H 212.612 1.9018 2.62682 0
M  V30 2188 H 212.397 3.47764 1.81115 0
M  V30 2189 H 213.887 3.14738 2.74462 0
M  V30 2190 N 214.325 -0.140222 1.56975 0
M  V30 2191 C 215.574 -0.850152 1.82908 0
M  V30 2192 C 215.887 -1.82028 0.715892 0
M  V30 2193 O 217.093 -2.57485 0.861016 0
M  V30 2194 C 215.549 -1.5625 3.24213 0
M  V30 2195 C 215.157 -0.63443 4.43485 0
M  V30 2196 C 216.901 -2.25881 3.59413 0
M  V30 2197 C 214.808 -1.34879 5.75814 0
M  V30 2198 H 213.738 -0.321221 0.682153 0
M  V30 2199 H 216.389 -0.102874 1.83211 0
M  V30 2200 H 214.771 -2.35565 3.18316 0
M  V30 2201 H 215.945 0.12398 4.60633 0
M  V30 2202 H 214.26 -0.0461836 4.16374 0
M  V30 2203 H 216.857 -2.79978 4.5554 0
M  V30 2204 H 217.2 -3.02693 2.85802 0
M  V30 2205 H 217.733 -1.53477 3.67001 0
M  V30 2206 H 214.472 -0.622385 6.52539 0
M  V30 2207 H 213.992 -2.07974 5.6259 0
M  V30 2208 H 215.671 -1.88784 6.18845 0
M  V30 2209 N 215.803 -1.52179 -0.40978 0
M  V30 2210 C 217.033 -1.69807 -1.17682 0
M  V30 2211 C 217.441 -0.406908 -1.84773 0
M  V30 2212 O 216.784 0.626863 -1.72673 0
M  V30 2213 C 216.846 -2.77712 -2.2829 0
M  V30 2214 C 216.51 -4.19481 -1.81341 0
M  V30 2215 C 217.507 -5.03345 -1.30154 0
M  V30 2216 C 215.192 -4.65713 -1.88194 0
M  V30 2217 C 217.186 -6.31511 -0.864416 0
M  V30 2218 C 214.873 -5.93869 -1.44093 0
M  V30 2219 C 215.871 -6.76597 -0.933023 0
M  V30 2220 O 215.559 -8.02354 -0.49838 0
M  V30 2221 H 215.291 -0.572372 -0.359675 0
M  V30 2222 H 217.845 -1.99511 -0.488311 0
M  V30 2223 H 216.075 -2.43383 -3.00502 0
M  V30 2224 H 217.764 -2.83946 -2.90051 0
M  V30 2225 H 218.53 -4.68819 -1.24232 0
M  V30 2226 H 214.409 -4.01424 -2.26671 0
M  V30 2227 H 217.953 -6.96033 -0.467286 0
M  V30 2228 H 213.85 -6.27903 -1.49694 0
M  V30 2229 H 214.618 -8.16135 -0.621747 0
M  V30 2230 N 217.281 0.66697 -1.42791 0
M  V30 2231 C 218.697 0.981027 -1.25889 0
M  V30 2232 C 218.897 2.00793 -0.168695 0
M  V30 2233 O 217.953 2.48321 0.45747 0
M  V30 2234 C 219.266 1.47838 -2.61848 0
M  V30 2235 C 220.814 1.59575 -2.69267 0
M  V30 2236 C 221.289 2.12704 -4.05612 0
M  V30 2237 N 222.78 2.20026 -4.07606 0
M  V30 2238 C 223.515 2.62227 -5.09926 0
M  V30 2239 N 223.011 3.03824 -6.22626 0
M  V30 2240 N 224.804 2.62045 -4.97281 0
M  V30 2241 H 216.955 -0.0127891 -2.12396 0
M  V30 2242 H 219.218 0.0568258 -0.946295 0
M  V30 2243 H 218.924 0.798299 -3.4252 0
M  V30 2244 H 218.798 2.45579 -2.86305 0
M  V30 2245 H 221.185 2.26687 -1.88936 0
M  V30 2246 H 221.266 0.60302 -2.48591 0
M  V30 2247 H 220.91 1.46198 -4.86404 0
M  V30 2248 H 220.84 3.12782 -4.23645 0
M  V30 2249 H 223.331 1.90708 -3.2625 0
M  V30 2250 H 223.644 3.34734 -6.96544 0
M  V30 2251 H 221.989 3.01662 -6.26119 0
M  V30 2252 H 225.18 2.28916 -4.08308 0
M  V30 2253 H 225.353 2.94613 -5.77154 0
M  V30 2254 N 218.759 1.29093 0.90403 0
M  V30 2255 C 219.984 1.19809 1.69294 0
M  V30 2256 C 220.409 -0.238481 1.86582 0
M  V30 2257 O 219.767 -1.1723 1.383 0
M  V30 2258 C 219.815 1.91202 3.05736 0
M  V30 2259 O 218.919 1.22611 3.93752 0
M  V30 2260 H 218.26 0.415385 0.518027 0
M  V30 2261 H 220.79 1.70586 1.12967 0
M  V30 2262 H 220.8 1.99487 3.55906 0
M  V30 2263 H 219.475 2.95692 2.92471 0
M  V30 2264 H 218.052 1.22554 3.52186 0
M  V30 2265 N 220.237 -1.11381 1.11499 0
M  V30 2266 C 221.147 -2.21019 0.786628 0
M  V30 2267 C 222.163 -1.72597 -0.220507 0
M  V30 2268 O 223.339 -2.01321 -0.0565251 0
M  V30 2269 C 220.404 -3.459 0.235333 0
M  V30 2270 C 219.465 -4.09107 1.30115 0
M  V30 2271 C 218.698 -5.28027 0.776068 0
M  V30 2272 O 218.921 -5.6904 -0.393661 0
M  V30 2273 O 217.855 -5.81835 1.54114 0
M  V30 2274 H 221.681 -2.51521 1.70209 0
M  V30 2275 H 219.266 -1.19928 0.890928 0
M  V30 2276 H 221.148 -4.21346 -0.067715 0
M  V30 2277 H 219.823 -3.17049 -0.652828 0
M  V30 2278 H 218.73 -3.35391 1.65722 0
M  V30 2279 H 220.063 -4.42139 2.16273 0
M  V30 2280 N 221.715 -0.905404 -1.28997 0
M  V30 2281 C 222.963 -0.533192 -1.9494 0
M  V30 2282 C 223.284 0.924618 -1.71685 0
M  V30 2283 O 222.554 1.65268 -1.05183 0
M  V30 2284 H 221.134 -0.194194 -0.721317 0
M  V30 2285 H 223.796 -1.15294 -1.57141 0
M  V30 2286 H 222.892 -0.72059 -3.03667 0
M  V30 2287 N 223.193 1.4272 -0.668489 0
M  V30 2288 C 224.103 2.34596 0.0139753 0
M  V30 2289 C 225.119 1.5474 0.795703 0
M  V30 2290 O 226.295 1.87334 0.739466 0
M  V30 2291 C 223.36 3.33202 0.957982 0
M  V30 2292 C 222.421 4.28957 0.17149 0
M  V30 2293 C 221.654 5.22853 1.07053 0
M  V30 2294 O 221.877 5.21531 2.31001 0
M  V30 2295 O 220.811 5.9952 0.534727 0
M  V30 2296 H 224.637 2.9448 -0.742661 0
M  V30 2297 H 222.222 1.43117 -0.428705 0
M  V30 2298 H 224.104 3.93796 1.50008 0
M  V30 2299 H 222.779 2.758 1.69458 0
M  V30 2300 H 221.686 3.71796 -0.414558 0
M  V30 2301 H 223.019 4.89383 -0.52586 0
M  V30 2302 N 224.671 0.411399 1.52136 0
M  V30 2303 C 226.087 0.0623865 1.59478 0
M  V30 2304 C 226.287 -1.42554 1.4241 0
M  V30 2305 O 225.343 -2.19263 1.2522 0
M  V30 2306 C 226.656 0.559331 2.95452 0
M  V30 2307 C 228.204 0.517503 3.08692 0
M  V30 2308 C 228.679 0.990994 4.4715 0
M  V30 2309 N 230.17 0.947908 4.53397 0
M  V30 2310 C 230.905 1.28544 5.58806 0
M  V30 2311 N 230.401 1.69454 6.71757 0
M  V30 2312 N 232.194 1.20526 5.49026 0
M  V30 2313 H 224.345 1.37982 1.61477 0
M  V30 2314 H 226.608 0.566977 0.759764 0
M  V30 2315 H 226.314 1.59938 3.1323 0
M  V30 2316 H 226.188 -0.0298014 3.77188 0
M  V30 2317 H 228.575 -0.513505 2.90598 0
M  V30 2318 H 228.656 1.14272 2.28857 0
M  V30 2319 H 228.3 2.02034 4.65988 0
M  V30 2320 H 228.23 0.34257 5.25485 0
M  V30 2321 H 230.721 0.647157 3.72317 0
M  V30 2322 H 231.034 1.93513 7.48179 0
M  V30 2323 H 229.379 1.73359 6.73032 0
M  V30 2324 H 232.57 0.884505 4.59667 0
M  V30 2325 H 232.743 1.47161 6.31069 0
M  V30 2326 N 226.149 -1.5696 0.141893 0
M  V30 2327 C 227.079 -2.19516 -0.795936 0
M  V30 2328 C 228.06 -1.14187 -1.26077 0
M  V30 2329 O 229.245 -1.42511 -1.31925 0
M  V30 2330 C 226.375 -2.81272 -2.03723 0
M  V30 2331 C 225.329 -3.92384 -1.70936 0
M  V30 2332 C 224.655 -4.41052 -3.02287 0
M  V30 2333 C 225.955 -5.13403 -0.959954 0
M  V30 2334 H 227.649 -2.98138 -0.274596 0
M  V30 2335 H 225.195 -1.43406 -0.130636 0
M  V30 2336 H 227.148 -3.237 -2.69808 0
M  V30 2337 H 225.872 -1.99973 -2.58221 0
M  V30 2338 H 224.531 -3.50566 -1.07232 0
M  V30 2339 H 224.179 -3.56582 -3.54765 0
M  V30 2340 H 223.879 -5.15993 -2.81114 0
M  V30 2341 H 225.403 -4.86146 -3.69451 0
M  V30 2342 H 226.817 -5.52706 -1.52279 0
M  V30 2343 H 225.214 -5.94073 -0.848357 0
M  V30 2344 H 226.284 -4.84875 0.0492434 0
M  V30 2345 N 227.627 0.131896 -1.57047 0
M  V30 2346 C 228.559 1.1878 -1.9602 0
M  V30 2347 C 229.572 1.38363 -0.857875 0
M  V30 2348 O 230.761 1.37666 -1.13623 0
M  V30 2349 C 227.861 2.55008 -2.23213 0
M  V30 2350 C 227.034 2.56201 -3.54513 0
M  V30 2351 C 226.093 3.7408 -3.70069 0
M  V30 2352 O 225.119 3.58258 -4.42312 0
M  V30 2353 N 226.321 4.92137 -3.07866 0
M  V30 2354 H 229.086 0.85639 -2.87204 0
M  V30 2355 H 226.647 0.321309 -1.5868 0
M  V30 2356 H 228.639 3.32404 -2.30846 0
M  V30 2357 H 227.209 2.80382 -1.3822 0
M  V30 2358 H 226.429 1.64613 -3.58185 0
M  V30 2359 H 227.717 2.54043 -4.4084 0
M  V30 2360 H 227.115 5.07895 -2.49116 0
M  V30 2361 H 225.672 5.67254 -3.21039 0
M  V30 2362 N 229.106 1.52395 0.401703 0
M  V30 2363 C 230.353 1.66817 1.14796 0
M  V30 2364 C 230.681 0.401772 1.90305 0
M  V30 2365 O 229.936 -0.615487 1.85769 0
M  V30 2366 C 230.235 2.84578 2.16217 0
M  V30 2367 C 229.901 4.22513 1.5746 0
M  V30 2368 C 228.563 4.60029 1.41161 0
M  V30 2369 C 230.915 5.0844 1.14622 0
M  V30 2370 C 228.243 5.81144 0.80552 0
M  V30 2371 C 230.595 6.30167 0.55428 0
M  V30 2372 C 229.259 6.66426 0.378482 0
M  V30 2373 H 228.529 0.610428 0.420069 0
M  V30 2374 H 231.176 1.86512 0.434212 0
M  V30 2375 H 229.481 2.59248 2.93764 0
M  V30 2376 H 231.178 2.92933 2.73845 0
M  V30 2377 H 227.768 3.92953 1.71132 0
M  V30 2378 H 231.952 4.80034 1.26021 0
M  V30 2379 H 227.208 6.07855 0.657399 0
M  V30 2380 H 231.382 6.96071 0.213983 0
M  V30 2381 H 229.009 7.60143 -0.0932606 0
M  V30 2382 N 230.584 -0.659388 1.43143 0
M  V30 2383 C 231.517 -1.78425 1.42267 0
M  V30 2384 C 232.495 -1.60085 0.284894 0
M  V30 2385 O 233.679 -1.82351 0.477527 0
M  V30 2386 C 230.806 -3.15642 1.22833 0
M  V30 2387 C 229.852 -3.52698 2.39806 0
M  V30 2388 S 230.685 -3.53372 4.02353 0
M  V30 2389 C 231.841 -4.93256 3.85291 0
M  V30 2390 H 232.074 -1.78897 2.37452 0
M  V30 2391 H 229.607 -0.831469 1.301 0
M  V30 2392 H 231.565 -3.94838 1.12308 0
M  V30 2393 H 230.226 -3.12739 0.29207 0
M  V30 2394 H 229.419 -4.52475 2.21996 0
M  V30 2395 H 229.021 -2.80899 2.46925 0
M  V30 2396 H 231.313 -5.81751 3.47235 0
M  V30 2397 H 232.256 -5.16115 4.84799 0
M  V30 2398 H 232.664 -4.665 3.17865 0
M  V30 2399 N 232.062 -1.29571 -0.897171 0
M  V30 2400 C 232.994 -1.10724 -2.00681 0
M  V30 2401 C 234.007 -0.0540026 -1.6271 0
M  V30 2402 O 235.196 -0.298783 -1.75982 0
M  V30 2403 C 232.296 -0.663912 -3.32333 0
M  V30 2404 C 231.469 -1.79622 -3.98816 0
M  V30 2405 C 230.528 -1.34349 -5.0876 0
M  V30 2406 O 229.554 -2.04864 -5.31055 0
M  V30 2407 N 230.756 -0.215764 -5.80099 0
M  V30 2408 H 233.521 -2.06291 -2.17403 0
M  V30 2409 H 231.082 -1.21544 -1.06951 0
M  V30 2410 H 233.074 -0.344295 -4.03233 0
M  V30 2411 H 231.644 0.199375 -3.11964 0
M  V30 2412 H 230.864 -2.28459 -3.21248 0
M  V30 2413 H 232.152 -2.55535 -4.39976 0
M  V30 2414 H 231.55 0.372091 -5.64475 0
M  V30 2415 H 230.107 0.0444707 -6.51785 0
M  V30 2416 N 233.54 1.10788 -1.12088 0
M  V30 2417 C 234.503 2.15207 -0.788577 0
M  V30 2418 C 235.503 1.59609 0.195317 0
M  V30 2419 O 236.693 1.74174 -0.0300193 0
M  V30 2420 C 233.825 3.4047 -0.171174 0
M  V30 2421 H 235.018 2.46116 -1.71368 0
M  V30 2422 H 232.571 1.26089 -0.923652 0
M  V30 2423 H 233.306 3.15176 0.763832 0
M  V30 2424 H 233.091 3.82109 -0.879514 0
M  V30 2425 H 234.581 4.17576 0.04496 0
M  V30 2426 N 235.018 0.912232 1.28515 0
M  V30 2427 C 235.948 0.416403 2.29757 0
M  V30 2428 C 236.929 -0.515194 1.6211 0
M  V30 2429 O 238.114 -0.423253 1.89532 0
M  V30 2430 C 235.244 -0.34572 3.45575 0
M  V30 2431 C 234.198 0.496599 4.25109 0
M  V30 2432 C 233.524 -0.393771 5.33248 0
M  V30 2433 C 234.824 1.75307 4.92001 0
M  V30 2434 H 236.518 1.26249 2.7148 0
M  V30 2435 H 234.064 0.608515 1.30511 0
M  V30 2436 H 236.017 -0.703422 4.15488 0
M  V30 2437 H 234.741 -1.2257 3.02728 0
M  V30 2438 H 233.4 0.8368 3.56922 0
M  V30 2439 H 233.048 -1.27225 4.86644 0
M  V30 2440 H 232.748 0.166209 5.87365 0
M  V30 2441 H 234.272 -0.747389 6.06009 0
M  V30 2442 H 235.686 1.46437 5.54283 0
M  V30 2443 H 234.083 2.25534 5.56106 0
M  V30 2444 H 235.153 2.48176 4.16577 0
M  V30 2445 N 236.496 -1.42363 0.676048 0
M  V30 2446 C 237.428 -2.29164 -0.0404605 0
M  V30 2447 C 238.441 -1.43747 -0.764245 0
M  V30 2448 O 239.63 -1.67453 -0.618195 0
M  V30 2449 C 236.73 -3.21196 -1.08103 0
M  V30 2450 C 235.903 -4.35273 -0.430812 0
M  V30 2451 C 234.962 -5.08017 -1.37133 0
M  V30 2452 O 233.988 -5.62494 -0.87116 0
M  V30 2453 N 235.19 -5.13647 -2.70456 0
M  V30 2454 H 237.955 -2.91298 0.704667 0
M  V30 2455 H 235.516 -1.53303 0.520559 0
M  V30 2456 H 237.508 -3.66728 -1.71152 0
M  V30 2457 H 236.078 -2.60505 -1.72788 0
M  V30 2458 H 235.298 -3.92372 0.379209 0
M  V30 2459 H 236.586 -5.08795 0.0221132 0
M  V30 2460 H 235.984 -4.708 -3.1363 0
M  V30 2461 H 234.541 -5.62821 -3.28749 0
M  V30 2462 N 237.974 -0.419461 -1.51915 0
M  V30 2463 C 238.884 0.407528 -2.31033 0
M  V30 2464 C 239.9 1.04413 -1.3919 0
M  V30 2465 O 241.076 1.0434 -1.72265 0
M  V30 2466 C 238.141 1.50365 -3.12396 0
M  V30 2467 C 237.202 0.889029 -4.19994 0
M  V30 2468 C 236.435 1.93291 -4.97468 0
M  V30 2469 O 236.658 3.15259 -4.75361 0
M  V30 2470 O 235.592 1.53339 -5.8204 0
M  V30 2471 H 239.418 -0.237865 -3.02767 0
M  V30 2472 H 237.003 -0.182413 -1.48282 0
M  V30 2473 H 238.885 2.13975 -3.63032 0
M  V30 2474 H 237.56 2.13345 -2.43445 0
M  V30 2475 H 236.467 0.215353 -3.7348 0
M  V30 2476 H 237.8 0.302991 -4.91267 0
M  V30 2477 N 239.452 1.56882 -0.150215 0
M  V30 2478 C 240.698 1.96518 0.500834 0
M  V30 2479 C 241.031 1.03527 1.64304 0
M  V30 2480 O 240.306 0.0782751 1.94342 0
M  V30 2481 C 240.589 3.45822 1.00395 0
M  V30 2482 C 240.442 4.49591 -0.136983 0
M  V30 2483 C 241.761 3.97704 1.88467 0
M  V30 2484 H 238.88 0.714535 0.18058 0
M  V30 2485 H 241.522 1.88577 -0.232091 0
M  V30 2486 H 239.672 3.5272 1.62851 0
M  V30 2487 H 241.344 4.5477 -0.77343 0
M  V30 2488 H 239.587 4.26441 -0.795652 0
M  V30 2489 H 240.258 5.51402 0.256815 0
M  V30 2490 H 242.734 3.93304 1.35834 0
M  V30 2491 H 241.61 5.0263 2.20578 0
M  V30 2492 H 241.871 3.40252 2.82279 0
M  V30 2493 N 240.93 -0.123565 1.57115 0
M  V30 2494 C 242.176 -0.828428 1.85765 0
M  V30 2495 C 242.531 -1.77709 0.737371 0
M  V30 2496 O 241.824 -1.89787 -0.262978 0
M  V30 2497 C 242.018 -1.62016 3.18568 0
M  V30 2498 C 241.847 -0.749663 4.43407 0
M  V30 2499 C 240.617 -0.406251 5.03664 0
M  V30 2500 C 242.815 -0.0693505 5.14253 0
M  V30 2501 N 240.797 0.475389 6.12057 0
M  V30 2502 C 242.168 0.671474 6.16353 0
M  V30 2503 C 244.223 0.00754393 4.97899 0
M  V30 2504 C 242.926 1.48197 7.03868 0
M  V30 2505 C 244.952 0.804845 5.85898 0
M  V30 2506 C 244.314 1.53388 6.87497 0
M  V30 2507 H 240.413 -0.280219 0.73007 0
M  V30 2508 H 242.997 -0.0924183 1.94481 0
M  V30 2509 H 241.168 -2.32724 3.10957 0
M  V30 2510 H 242.9 -2.27 3.35042 0
M  V30 2511 H 239.655 -0.747446 4.67665 0
M  V30 2512 H 240.079 0.907924 6.70884 0
M  V30 2513 H 244.721 -0.541741 4.19315 0
M  V30 2514 H 242.439 2.04242 7.81864 0
M  V30 2515 H 246.025 0.866642 5.75309 0
M  V30 2516 H 244.905 2.1409 7.5441 0
M  V30 2517 N 242.408 -1.52605 -0.393616 0
M  V30 2518 C 243.633 -1.71592 -1.16495 0
M  V30 2519 C 244.058 -0.43133 -1.83088 0
M  V30 2520 O 243.416 0.612523 -1.7064 0
M  V30 2521 C 243.464 -2.86318 -2.19213 0
M  V30 2522 O 242.568 -2.52969 -3.257 0
M  V30 2523 H 241.909 -0.570734 -0.33935 0
M  V30 2524 H 244.439 -1.99377 -0.459324 0
M  V30 2525 H 244.449 -3.1168 -2.63286 0
M  V30 2526 H 243.124 -3.79511 -1.7013 0
M  V30 2527 H 241.701 -2.38332 -2.86797 0
M  V30 2528 N 243.887 0.651787 -1.4349 0
M  V30 2529 C 245.133 1.41376 -1.45398 0
M  V30 2530 C 245.466 1.94041 -0.0784823 0
M  V30 2531 O 244.741 1.72379 0.900878 0
M  V30 2532 C 245.024 2.59414 -2.49752 0
M  V30 2533 C 244.877 2.12232 -3.96582 0
M  V30 2534 C 246.196 3.61626 -2.50827 0
M  V30 2535 H 243.315 0.512719 -0.529422 0
M  V30 2536 H 245.957 0.738796 -1.75048 0
M  V30 2537 H 244.107 3.16997 -2.246 0
M  V30 2538 H 245.779 1.59639 -4.32797 0
M  V30 2539 H 244.022 1.43592 -4.09346 0
M  V30 2540 H 244.693 2.9712 -4.65214 0
M  V30 2541 H 247.169 3.13805 -2.7325 0
M  V30 2542 H 246.045 4.41766 -3.25783 0
M  V30 2543 H 246.306 4.14314 -1.5426 0
M  V30 2544 N 245.365 1.30045 0.890287 0
M  V30 2545 C 246.313 1.15873 2.01683 0
M  V30 2546 C 247.307 0.0719403 1.69247 0
M  V30 2547 O 248.513 0.232414 1.78493 0
M  V30 2548 H 244.888 0.358203 0.661207 0
M  V30 2549 H 246.859 2.11229 2.10772 0
M  V30 2550 C 245.608 0.861842 3.36849 0
M  V30 2551 H 244.931 1.69016 3.62317 0
M  V30 2552 H 246.371 0.802762 4.16331 0
M  V30 2553 C 244.83 -0.435132 3.34078 0
M  V30 2554 O 245.36 -1.4583 3.74295 0
M  V30 2555 N 243.566 -0.444377 2.87182 0
M  V30 2556 H 243.113 0.388723 2.5465 0
M  V30 2557 H 243.071 -1.31213 2.85711 0
M  V30 2558 N 246.843 -1.10192 1.12674 0
M  V30 2559 C 248.091 -1.81845 0.881861 0
M  V30 2560 C 248.412 -1.85737 -0.593867 0
M  V30 2561 O 247.682 -1.33724 -1.4316 0
M  V30 2562 H 246.262 -0.673432 0.323261 0
M  V30 2563 H 248.924 -1.33316 1.42172 0
M  V30 2564 H 248.02 -2.85288 1.2656 0
M  V30 2565 N 248.321 -0.919034 -1.28029 0
M  V30 2566 C 249.737 -0.617972 -1.4715 0
M  V30 2567 C 249.937 0.835242 -1.83374 0
M  V30 2568 O 248.993 1.61388 -1.94191 0
M  V30 2569 C 250.306 -1.56041 -2.57044 0
M  V30 2570 C 251.854 -1.56769 -2.7091 0
M  V30 2571 C 252.329 -2.49688 -3.83953 0
M  V30 2572 N 253.82 -2.47845 -3.91314 0
M  V30 2573 C 254.555 -3.16437 -4.78179 0
M  V30 2574 N 254.051 -3.94376 -5.69596 0
M  V30 2575 N 255.844 -3.05498 -4.71834 0
M  V30 2576 H 247.995 -1.85866 -1.02798 0
M  V30 2577 H 250.258 -0.797506 -0.512531 0
M  V30 2578 H 249.964 -2.59671 -2.372 0
M  V30 2579 H 249.838 -1.29551 -3.54255 0
M  V30 2580 H 252.225 -0.538745 -2.90141 0
M  V30 2581 H 252.306 -1.87305 -1.74214 0
M  V30 2582 H 251.95 -3.52688 -3.65477 0
M  V30 2583 H 251.88 -2.16453 -4.80058 0
M  V30 2584 H 254.371 -1.91234 -3.25941 0
M  V30 2585 H 254.684 -4.43721 -6.32718 0
M  V30 2586 H 253.029 -3.98481 -5.69419 0
M  V30 2587 H 256.22 -2.44108 -3.99411 0
M  V30 2588 H 256.393 -3.59225 -5.39316 0
M  V30 2589 N 249.799 1.42003 -0.683588 0
M  V30 2590 C 251.024 2.06265 -0.216647 0
M  V30 2591 C 251.449 1.51059 1.12083 0
M  V30 2592 O 250.807 0.632638 1.69904 0
M  V30 2593 C 250.855 3.60191 -0.171759 0
M  V30 2594 O 249.959 4.03396 0.857069 0
M  V30 2595 H 249.3 0.65502 -0.108834 0
M  V30 2596 H 251.83 1.81982 -0.935077 0
M  V30 2597 H 251.84 4.08 0.0014303 0
M  V30 2598 H 250.515 3.99743 -1.14796 0
M  V30 2599 H 249.092 3.67117 0.654208 0
M  V30 2600 N 251.277 0.427512 1.51691 0
M  V30 2601 C 252.523 -0.142439 2.02299 0
M  V30 2602 C 252.856 -1.43214 1.31162 0
M  V30 2603 O 252.131 -1.89833 0.423511 0
M  V30 2604 C 252.414 -0.371301 3.58181 0
M  V30 2605 C 252.267 0.936358 4.39946 0
M  V30 2606 C 253.586 -1.14542 4.24933 0
M  V30 2607 H 250.705 -0.0502937 0.735282 0
M  V30 2608 H 253.347 0.564584 1.81418 0
M  V30 2609 H 251.497 -0.973559 3.76104 0
M  V30 2610 H 253.169 1.57184 4.33694 0
M  V30 2611 H 251.412 1.5432 4.05423 0
M  V30 2612 H 252.083 0.730388 5.47147 0
M  V30 2613 H 254.559 -0.635362 4.11221 0
M  V30 2614 H 253.435 -1.27431 5.33903 0
M  V30 2615 H 253.696 -2.17093 3.85127 0
M  V30 2616 N 252.755 -1.56801 0.158532 0
M  V30 2617 C 253.685 -2.20347 -0.772609 0
M  V30 2618 C 254.666 -1.15518 -1.24859 0
M  V30 2619 O 255.851 -1.43902 -1.30406 0
M  V30 2620 C 252.981 -2.83417 -2.00729 0
M  V30 2621 C 251.935 -3.94174 -1.66765 0
M  V30 2622 C 251.261 -4.44233 -2.97592 0
M  V30 2623 C 252.561 -5.14392 -0.905447 0
M  V30 2624 H 254.255 -2.98413 -0.242959 0
M  V30 2625 H 251.801 -1.43537 -0.115419 0
M  V30 2626 H 253.754 -3.26543 -2.6636 0
M  V30 2627 H 252.478 -2.02701 -2.56086 0
M  V30 2628 H 251.137 -3.51684 -1.03508 0
M  V30 2629 H 250.785 -3.60325 -3.50963 0
M  V30 2630 H 250.485 -5.18945 -2.75626 0
M  V30 2631 H 252.009 -4.90037 -3.64274 0
M  V30 2632 H 253.423 -5.5429 -1.46408 0
M  V30 2633 H 251.82 -5.9494 -0.7853 0
M  V30 2634 H 252.89 -4.84795 0.100668 0
M  V30 2635 N 254.233 0.115231 -1.57178 0
M  V30 2636 C 255.461 0.836437 -1.89239 0
M  V30 2637 C 255.876 1.73256 -0.750175 0
M  V30 2638 O 255.233 1.80357 0.278832 0
M  V30 2639 C 255.284 1.66671 -3.20785 0
M  V30 2640 O 255.005 0.806652 -4.3061 0
M  V30 2641 C 256.506 2.49274 -3.66575 0
M  V30 2642 H 253.726 0.240253 -0.626514 0
M  V30 2643 H 256.27 0.0984932 -2.04263 0
M  V30 2644 H 254.425 2.35737 -3.0742 0
M  V30 2645 H 254.839 1.37969 -5.06028 0
M  V30 2646 H 256.313 3.03055 -4.6137 0
M  V30 2647 H 256.79 3.26807 -2.93417 0
M  V30 2648 H 257.396 1.85443 -3.82741 0
M  V30 2649 N 255.711 1.52812 0.385517 0
M  V30 2650 C 256.674 1.77188 1.45386 0
M  V30 2651 C 257.674 0.641953 1.4743 0
M  V30 2652 O 258.864 0.910033 1.4854 0
M  V30 2653 C 255.996 1.87582 2.8465 0
M  V30 2654 H 257.189 2.72583 1.25054 0
M  V30 2655 H 254.742 1.43586 0.617467 0
M  V30 2656 H 255.477 0.941849 3.10322 0
M  V30 2657 H 255.262 2.69748 2.84567 0
M  V30 2658 H 256.752 2.08102 3.62054 0
M  V30 2659 N 257.189 -0.644168 1.43834 0
M  V30 2660 C 258.436 -1.40395 1.4593 0
M  V30 2661 C 258.764 -1.94305 0.0869658 0
M  V30 2662 O 258.019 -1.73288 -0.909378 0
M  V30 2663 C 258.318 -2.59615 2.45631 0
M  V30 2664 C 257.984 -2.2407 3.91284 0
M  V30 2665 C 256.646 -2.14089 4.30952 0
M  V30 2666 C 258.998 -1.95775 4.83034 0
M  V30 2667 C 256.326 -1.73981 5.6031 0
M  V30 2668 C 258.678 -1.57163 6.12766 0
M  V30 2669 C 257.342 -1.45713 6.51402 0
M  V30 2670 H 256.612 -0.513741 0.533995 0
M  V30 2671 H 259.259 -0.731724 1.76969 0
M  V30 2672 H 257.564 -3.32011 2.08028 0
M  V30 2673 H 259.261 -3.17834 2.44504 0
M  V30 2674 H 255.851 -2.32753 3.59895 0
M  V30 2675 H 260.035 -2.02403 4.53152 0
M  V30 2676 H 255.291 -1.63709 5.89075 0
M  V30 2677 H 259.465 -1.34303 6.83327 0
M  V30 2678 H 257.092 -1.14406 7.51542 0
M  V30 2679 N 258.668 -1.30515 -0.883378 0
M  V30 2680 C 259.945 -1.10086 -1.6168 0
M  V30 2681 C 260.325 0.349269 -2.08191 0
M  V30 2682 O 259.673 1.34105 -1.85008 0
M  V30 2683 C 259.883 -2.10315 -2.78511 0
M  V30 2684 C 261.231 -2.42119 -3.48803 0
M  V30 2685 O 262.255 -2.08638 -2.88702 0
M  V30 2686 O 261.114 -2.99396 -4.57192 0
M  V30 2687 H 258.208 -0.422907 -0.710689 0
M  V30 2688 H 260.754 -1.41947 -0.930015 0
M  V30 2689 H 259.526 -3.07917 -2.41459 0
M  V30 2690 H 259.149 -1.79282 -3.54886 0
M  V30 2691 N 260.146 1.09593 -1.13257 0
M  V30 2692 C 261.076 2.18214 -0.830946 0
M  V30 2693 C 262.057 1.68812 0.208966 0
M  V30 2694 O 263.242 1.9408 0.0682666 0
M  V30 2695 C 260.372 3.46051 -0.294296 0
M  V30 2696 C 259.326 4.08778 -1.26826 0
M  V30 2697 C 258.652 5.31419 -0.591449 0
M  V30 2698 C 259.952 4.51476 -2.62615 0
M  V30 2699 H 261.646 2.43703 -1.73923 0
M  V30 2700 H 259.192 1.17128 -0.837675 0
M  V30 2701 H 261.145 4.2134 -0.0709606 0
M  V30 2702 H 259.869 3.20079 0.649366 0
M  V30 2703 H 258.528 3.35505 -1.47756 0
M  V30 2704 H 258.176 5.01727 0.357633 0
M  V30 2705 H 257.876 5.74341 -1.24123 0
M  V30 2706 H 259.4 6.09433 -0.377355 0
M  V30 2707 H 260.814 5.17999 -2.45663 0
M  V30 2708 H 259.211 5.05277 -3.23752 0
M  V30 2709 H 260.281 3.63962 -3.20406 0
M  V30 2710 N 261.624 0.925811 1.2754 0
M  V30 2711 C 262.849 0.580924 1.99098 0
M  V30 2712 C 263.274 -0.833555 1.68622 0
M  V30 2713 O 262.632 -1.55903 0.925422 0
M  V30 2714 C 262.68 0.811186 3.51358 0
M  V30 2715 O 261.784 -0.124129 4.12213 0
M  V30 2716 H 261.125 0.223873 0.625122 0
M  V30 2717 H 263.655 1.24455 1.62395 0
M  V30 2718 H 263.665 0.72601 4.01489 0
M  V30 2719 H 262.34 1.84227 3.72872 0
M  V30 2720 H 260.917 0.0108006 3.72898 0
M  V30 2721 N 263.102 -1.41638 0.69111 0
M  V30 2722 C 264.348 -2.01598 0.220519 0
M  V30 2723 C 264.681 -1.54594 -1.17535 0
M  V30 2724 O 263.956 -0.755177 -1.79241 0
M  V30 2725 C 264.239 -3.59062 0.273243 0
M  V30 2726 C 264.092 -4.16203 1.70573 0
M  V30 2727 C 265.411 -4.38546 -0.369457 0
M  V30 2728 H 262.53 -0.732468 0.0816045 0
M  V30 2729 H 265.172 -1.68445 0.878986 0
M  V30 2730 H 263.322 -3.87435 -0.287411 0
M  V30 2731 H 264.994 -3.98722 2.31989 0
M  V30 2732 H 263.237 -3.71414 2.2413 0
M  V30 2733 H 263.908 -5.25358 1.69419 0
M  V30 2734 H 266.384 -4.1596 0.107977 0
M  V30 2735 H 265.26 -5.48069 -0.302002 0
M  V30 2736 H 265.521 -4.17662 -1.44951 0
M  V30 2737 N 264.58 -0.43555 -1.51462 0
M  V30 2738 C 265.827 0.131514 -2.02072 0
M  V30 2739 C 266.155 1.42868 -1.31981 0
M  V30 2740 O 265.41 1.91076 -0.422883 0
M  V30 2741 C 265.709 0.39942 -3.55161 0
M  V30 2742 C 265.375 -0.81172 -4.43533 0
M  V30 2743 C 264.037 -1.14387 -4.67407 0
M  V30 2744 C 266.389 -1.61976 -4.95392 0
M  V30 2745 C 263.717 -2.28477 -5.40384 0
M  V30 2746 C 266.069 -2.75164 -5.6962 0
M  V30 2747 C 264.733 -3.08835 -5.91758 0
M  V30 2748 H 264.003 0.0481244 -0.739436 0
M  V30 2749 H 266.65 -0.58238 -1.8243 0
M  V30 2750 H 264.955 1.19519 -3.73125 0
M  V30 2751 H 266.652 0.85157 -3.91854 0
M  V30 2752 H 263.242 -0.542898 -4.25148 0
M  V30 2753 H 267.426 -1.37637 -4.76833 0
M  V30 2754 H 262.682 -2.5488 -5.55739 0
M  V30 2755 H 266.856 -3.38147 -6.08793 0
M  V30 2756 H 264.483 -3.97353 -6.48086 0
M  V30 2757 N 266.058 1.56714 -0.166846 0
M  V30 2758 C 267.469 1.83378 0.350646 0
M  V30 2759 C 267.82 1.08646 1.63372 0
M  V30 2760 O 266.945 0.338058 2.13743 0
M  V30 2761 C 267.54 3.32643 0.642963 0
M  V30 2762 C 266.099 3.59818 1.10491 0
M  V30 2763 C 265.246 2.76954 0.138411 0
M  V30 2764 H 268.197 1.53803 -0.391193 0
M  V30 2765 H 268.218 3.49878 1.49551 0
M  V30 2766 H 267.73 3.87007 -0.291055 0
M  V30 2767 H 265.831 3.1086 2.05418 0
M  V30 2768 H 265.944 4.68178 1.01716 0
M  V30 2769 H 264.308 2.4666 0.634911 0
M  V30 2770 H 265.091 3.34097 -0.789549 0
M  V30 2771 N 267.536 -0.106894 1.57237 0
M  V30 2772 C 268.466 -1.13148 2.04254 0
M  V30 2773 C 269.447 -1.42476 0.929224 0
M  V30 2774 O 270.632 -1.52709 1.19973 0
M  V30 2775 C 267.762 -2.4545 2.45706 0
M  V30 2776 C 266.716 -2.30558 3.60592 0
M  V30 2777 C 266.042 -3.67931 3.87983 0
M  V30 2778 C 267.342 -1.75597 4.91897 0
M  V30 2779 H 269.036 -0.740374 2.90101 0
M  V30 2780 H 266.582 -0.354696 1.39563 0
M  V30 2781 H 268.535 -3.17389 2.77205 0
M  V30 2782 H 267.259 -2.86475 1.56843 0
M  V30 2783 H 265.918 -1.61067 3.29322 0
M  V30 2784 H 265.566 -4.06462 2.96306 0
M  V30 2785 H 265.266 -3.58817 4.65322 0
M  V30 2786 H 266.79 -4.41356 4.21945 0
M  V30 2787 H 268.204 -2.37364 5.21854 0
M  V30 2788 H 266.601 -1.77272 5.73319 0
M  V30 2789 H 267.671 -0.714451 4.79608 0
M  V30 2790 N 269.014 -1.53014 -0.377408 0
M  V30 2791 C 269.947 -1.73382 -1.48371 0
M  V30 2792 C 270.925 -0.581879 -1.51832 0
M  V30 2793 O 272.109 -0.81307 -1.70063 0
M  V30 2794 C 269.236 -1.80192 -2.8679 0
M  V30 2795 C 268.282 -3.02056 -3.01105 0
M  V30 2796 S 269.115 -4.61811 -2.71093 0
M  V30 2797 C 270.271 -4.71453 -4.11683 0
M  V30 2798 H 270.504 -2.66946 -1.30872 0
M  V30 2799 H 268.037 -1.43453 -0.571012 0
M  V30 2800 H 269.995 -1.84802 -3.6655 0
M  V30 2801 H 268.656 -0.877008 -3.01608 0
M  V30 2802 H 267.849 -3.03396 -4.02451 0
M  V30 2803 H 267.451 -2.95498 -2.29253 0
M  V30 2804 H 269.743 -4.50781 -5.0577 0
M  V30 2805 H 270.686 -5.73487 -4.15353 0
M  V30 2806 H 271.094 -4.00189 -3.98132 0
M  V30 2807 N 270.492 0.636531 -1.44174 0
M  V30 2808 C 271.732 1.40781 -1.48189 0
M  V30 2809 C 272.096 1.91688 -0.10944 0
M  V30 2810 O 273.297 2.68789 -0.0242741 0
M  V30 2811 C 271.568 2.54575 -2.50851 0
M  V30 2812 S 273.127 3.4284 -2.73873 0
M  V30 2813 H 269.945 0.480345 -0.524204 0
M  V30 2814 H 272.547 0.737416 -1.81059 0
M  V30 2815 H 271.251 2.15478 -3.49281 0
M  V30 2816 H 270.782 3.26447 -2.19536 0
M  V30 2817 H 272.797 4.51846 -2.05059 0
M  V30 2818 N 271.97 1.30982 0.876444 0
M  V30 2819 C 273.247 1.10942 1.61094 0
M  V30 2820 C 273.627 -0.338223 2.08373 0
M  V30 2821 O 272.975 -1.33122 1.85717 0
M  V30 2822 C 273.185 2.11789 2.77392 0
M  V30 2823 C 274.533 2.43965 3.47514 0
M  V30 2824 O 275.557 2.10166 2.87591 0
M  V30 2825 O 274.416 3.01817 4.55597 0
M  V30 2826 H 271.51 0.42667 0.708436 0
M  V30 2827 H 274.056 1.42438 0.922474 0
M  V30 2828 H 272.828 3.09194 2.39823 0
M  V30 2829 H 272.451 1.81161 3.5393 0
M  V30 2830 N 273.449 -1.08991 1.13837 0
M  V30 2831 C 274.379 -2.17771 0.842507 0
M  V30 2832 C 275.36 -1.6892 -0.20001 0
M  V30 2833 O 276.545 -1.94113 -0.0579731 0
M  V30 2834 C 273.675 -3.4589 0.312644 0
M  V30 2835 C 272.629 -4.08099 1.28992 0
M  V30 2836 C 271.955 -5.31098 0.619623 0
M  V30 2837 C 273.255 -4.50077 2.65005 0
M  V30 2838 H 274.949 -2.42777 1.75213 0
M  V30 2839 H 272.495 -1.16682 0.843875 0
M  V30 2840 H 274.448 -4.21297 0.0933043 0
M  V30 2841 H 273.172 -3.20419 -0.632382 0
M  V30 2842 H 271.831 -3.34717 1.49533 0
M  V30 2843 H 271.479 -5.0191 -0.33102 0
M  V30 2844 H 271.179 -5.73674 1.27167 0
M  V30 2845 H 272.703 -6.09224 0.409669 0
M  V30 2846 H 274.117 -5.16688 2.48407 0
M  V30 2847 H 272.514 -5.03553 3.26427 0
M  V30 2848 H 273.584 -3.62257 3.22332 0
M  V30 2849 N 274.927 -0.932562 -1.27047 0
M  V30 2850 C 276.175 -0.574422 -1.93765 0
M  V30 2851 C 276.496 0.887993 -1.73608 0
M  V30 2852 O 275.766 1.62999 -1.08665 0
M  V30 2853 H 274.346 -0.209451 -0.717035 0
M  V30 2854 H 277.008 -1.18601 -1.5466 0
M  V30 2855 H 276.104 -0.784841 -3.02071 0
M  V30 2856 N 276.405 1.4127 -0.698611 0
M  V30 2857 C 277.653 2.00782 -0.230409 0
M  V30 2858 C 277.974 1.5562 1.17505 0
M  V30 2859 O 277.244 0.78815 1.79346 0
M  V30 2860 H 275.824 0.742464 -0.0821944 0
M  V30 2861 H 278.486 1.72852 -0.90045 0
M  V30 2862 H 277.582 3.11095 -0.25021 0
M  V30 2863 N 277.883 0.443576 1.51229 0
M  V30 2864 C 279.131 -0.120557 2.0174 0
M  V30 2865 C 279.452 -1.42665 1.32935 0
M  V30 2866 O 278.722 -1.9028 0.465866 0
M  V30 2867 H 277.302 -0.0475426 0.745486 0
M  V30 2868 H 279.964 0.587711 1.85828 0
M  V30 2869 H 279.06 -0.291972 3.10731 0
M  V30 2870 N 279.361 -1.56624 0.175154 0
M  V30 2871 C 280.324 -2.16934 -0.739738 0
M  V30 2872 C 281.324 -1.11842 -1.15533 0
M  V30 2873 O 282.514 -1.37335 -1.07167 0
M  V30 2874 C 279.646 -2.75531 -2.00738 0
M  V30 2875 H 280.839 -2.99131 -0.214639 0
M  V30 2876 H 278.392 -1.56123 -0.0744197 0
M  V30 2877 H 279.127 -1.97078 -2.57548 0
M  V30 2878 H 278.912 -3.52444 -1.71831 0
M  V30 2879 H 280.402 -3.21904 -2.66021 0
M  V30 2880 N 280.839 0.0985539 -1.57292 0
M  V30 2881 C 282.087 0.801092 -1.85545 0
M  V30 2882 C 282.408 1.79438 -0.763353 0
M  V30 2883 O 281.678 1.94763 0.21073 0
M  V30 2884 H 280.258 0.29884 -0.684619 0
M  V30 2885 H 282.92 0.0810064 -1.94732 0
M  V30 2886 H 282.016 1.3338 -2.82163 0
M  V30 2887 N 282.317 1.53212 0.369288 0
M  V30 2888 C 283.28 1.7872 1.43498 0
M  V30 2889 C 284.28 0.657554 1.46741 0
M  V30 2890 O 285.47 0.925736 1.47566 0
M  V30 2891 C 282.602 1.90591 2.82645 0
M  V30 2892 H 283.795 2.73894 1.22156 0
M  V30 2893 H 281.348 1.44233 0.602203 0
M  V30 2894 H 282.083 0.974709 3.09306 0
M  V30 2895 H 281.868 2.72751 2.8169 0
M  V30 2896 H 283.358 2.11931 3.59826 0
M  V30 2897 N 283.795 -0.628877 1.44509 0
M  V30 2898 C 284.725 -1.75187 1.54376 0
M  V30 2899 C 285.706 -1.65411 0.396618 0
M  V30 2900 O 286.891 -1.84137 0.617031 0
M  V30 2901 C 284.021 -3.13725 1.48976 0
M  V30 2902 C 282.975 -3.38291 2.62189 0
M  V30 2903 C 282.301 -4.76883 2.41841 0
M  V30 2904 C 283.601 -3.30632 4.04326 0
M  V30 2905 H 285.295 -1.67187 2.48373 0
M  V30 2906 H 282.841 -0.802909 1.19538 0
M  V30 2907 H 284.794 -3.92064 1.54478 0
M  V30 2908 H 283.518 -3.22515 0.514961 0
M  V30 2909 H 282.177 -2.62334 2.56079 0
M  V30 2910 H 281.825 -4.82378 1.42548 0
M  V30 2911 H 281.525 -4.94278 3.17747 0
M  V30 2912 H 283.049 -5.57449 2.49165 0
M  V30 2913 H 284.463 -3.98873 4.11793 0
M  V30 2914 H 282.86 -3.59561 4.80454 0
M  V30 2915 H 283.93 -2.28404 4.27738 0
M  V30 2916 N 285.273 -1.31445 -0.869486 0
M  V30 2917 C 286.236 -1.19094 -1.9583 0
M  V30 2918 C 287.236 -0.117906 -1.60367 0
M  V30 2919 O 288.426 -0.367208 -1.70286 0
M  V30 2920 C 285.558 -0.828165 -3.30688 0
M  V30 2921 H 286.751 -2.15842 -2.08212 0
M  V30 2922 H 284.304 -1.15063 -1.05784 0
M  V30 2923 H 285.039 0.138142 -3.24006 0
M  V30 2924 H 284.824 -1.6038 -3.578 0
M  V30 2925 H 286.314 -0.765658 -4.10521 0
M  V30 2926 N 286.751 1.08385 -1.14413 0
M  V30 2927 C 287.698 2.15311 -0.831265 0
M  V30 2928 C 288.668 1.64751 0.211292 0
M  V30 2929 O 289.853 1.90627 0.0811674 0
M  V30 2930 C 286.993 3.43658 -0.315143 0
M  V30 2931 C 286.106 4.08064 -1.41802 0
M  V30 2932 C 285.241 5.24207 -0.859126 0
M  V30 2933 C 284.28 5.80554 -1.93967 0
M  V30 2934 N 283.417 6.88042 -1.39793 0
M  V30 2935 H 288.257 2.41415 -1.74708 0
M  V30 2936 H 285.794 1.18474 -0.871909 0
M  V30 2937 H 287.752 4.172 0.00230884 0
M  V30 2938 H 286.382 3.17839 0.56378 0
M  V30 2939 H 285.434 3.3228 -1.85187 0
M  V30 2940 H 286.746 4.45962 -2.23427 0
M  V30 2941 H 285.9 6.04689 -0.49359 0
M  V30 2942 H 284.639 4.87699 -0.011932 0
M  V30 2943 H 283.644 4.98725 -2.31415 0
M  V30 2944 H 284.869 6.19121 -2.79046 0
M  V30 2945 H 282.815 6.53493 -0.572919 0
M  V30 2946 H 282.732 7.24767 -2.15054 0
M  V30 2947 H 284 7.72255 -1.0603 0
M  V30 2948 N 288.23 0.939286 1.26551 0
M  V30 2949 C 289.14 0.453432 2.30176 0
M  V30 2950 C 290.156 -0.471649 1.67486 0
M  V30 2951 O 291.332 -0.35164 1.98306 0
M  V30 2952 C 288.397 -0.275326 3.45605 0
M  V30 2953 C 287.458 0.686084 4.23782 0
M  V30 2954 C 286.691 -0.00798994 5.33699 0
M  V30 2955 O 286.914 -1.22528 5.57085 0
M  V30 2956 O 285.848 0.669746 5.98162 0
M  V30 2957 H 289.674 1.31416 2.73795 0
M  V30 2958 H 287.259 0.705095 1.31715 0
M  V30 2959 H 289.141 -0.685911 4.1578 0
M  V30 2960 H 287.816 -1.11147 3.0402 0
M  V30 2961 H 286.723 1.14658 3.56096 0
M  V30 2962 H 288.056 1.48979 4.69112 0
M  V30 2963 N 289.708 -1.40897 0.706093 0
M  V30 2964 C 290.948 -2.02916 0.245827 0
M  V30 2965 C 291.312 -1.54751 -1.13649 0
M  V30 2966 O 292.513 -2.08768 -1.69321 0
M  V30 2967 C 290.784 -3.56031 0.312537 0
M  V30 2968 S 292.343 -4.38741 -0.0721388 0
M  V30 2969 H 289.161 -0.704186 0.0982007 0
M  V30 2970 H 291.763 -1.72168 0.926207 0
M  V30 2971 H 290.467 -3.88579 1.32039 0
M  V30 2972 H 289.998 -3.91495 -0.386641 0
M  V30 2973 H 292.013 -4.78952 -1.29692 0
M  V30 2974 N 291.186 -0.45159 -1.50991 0
M  V30 2975 C 292.119 0.398179 -2.24699 0
M  V30 2976 C 293.097 1.01276 -1.27208 0
M  V30 2977 O 294.281 1.05247 -1.56382 0
M  V30 2978 C 291.408 1.55618 -3.00833 0
M  V30 2979 C 290.454 1.0609 -4.13095 0
M  V30 2980 S 291.287 -0.00865136 -5.35499 0
M  V30 2981 C 292.443 1.15369 -6.15175 0
M  V30 2982 H 292.676 -0.227555 -2.96428 0
M  V30 2983 H 290.209 -0.236251 -1.52582 0
M  V30 2984 H 292.167 2.21997 -3.45293 0
M  V30 2985 H 290.828 2.15337 -2.28667 0
M  V30 2986 H 290.021 1.92726 -4.65696 0
M  V30 2987 H 289.623 0.47513 -3.7097 0
M  V30 2988 H 291.915 2.06925 -6.45126 0
M  V30 2989 H 292.858 0.667344 -7.04948 0
M  V30 2990 H 293.266 1.3987 -5.46897 0
M  V30 2991 N 292.664 1.56529 -0.183458 0
M  V30 2992 C 293.889 2.02064 0.467428 0
M  V30 2993 C 294.314 1.06282 1.55196 0
M  V30 2994 O 293.672 0.0443565 1.81246 0
M  V30 2995 C 293.72 3.46122 1.01153 0
M  V30 2996 O 292.824 3.53437 2.12499 0
M  V30 2997 H 292.165 0.654726 0.110588 0
M  V30 2998 H 294.695 2.02521 -0.290917 0
M  V30 2999 H 294.705 3.85676 1.33108 0
M  V30 3000 H 293.38 4.15331 0.217533 0
M  V30 3001 H 291.957 3.2575 1.81497 0
M  V30 3002 N 294.142 -0.090211 1.57342 0
M  V30 3003 C 295.072 -1.10976 2.05443 0
M  V30 3004 C 296.053 -1.41482 0.944284 0
M  V30 3005 O 297.238 -1.51428 1.21586 0
M  V30 3006 C 294.368 -2.42831 2.48295 0
M  V30 3007 C 293.322 -2.26721 3.63018 0
M  V30 3008 C 292.648 -3.63796 3.91863 0
M  V30 3009 C 293.948 -1.7037 4.93732 0
M  V30 3010 H 295.642 -0.709564 2.9087 0
M  V30 3011 H 293.188 -0.339874 1.39932 0
M  V30 3012 H 295.141 -3.14431 2.80555 0
M  V30 3013 H 293.865 -2.84795 1.59873 0
M  V30 3014 H 292.524 -1.57565 3.31012 0
M  V30 3015 H 292.172 -4.03297 3.00601 0
M  V30 3016 H 291.872 -3.53861 4.69101 0
M  V30 3017 H 293.396 -4.36855 4.26603 0
M  V30 3018 H 294.81 -2.31816 5.24342 0
M  V30 3019 H 293.207 -1.71181 5.75167 0
M  V30 3020 H 294.277 -0.663542 4.80339 0
M  V30 3021 N 295.62 -1.53406 -0.361157 0
M  V30 3022 C 296.85 -1.73465 -1.1222 0
M  V30 3023 C 297.258 -0.465486 -1.83384 0
M  V30 3024 O 296.601 0.571611 -1.7458 0
M  V30 3025 C 296.663 -2.84834 -2.19339 0
M  V30 3026 C 296.327 -4.25038 -1.67903 0
M  V30 3027 C 297.324 -5.07231 -1.14074 0
M  V30 3028 C 295.009 -4.71464 -1.73282 0
M  V30 3029 C 297.003 -6.33942 -0.663068 0
M  V30 3030 C 294.69 -5.98153 -1.25127 0
M  V30 3031 C 295.688 -6.79223 -0.717296 0
M  V30 3032 O 295.376 -8.03533 -0.242865 0
M  V30 3033 H 295.108 -0.583526 -0.341283 0
M  V30 3034 H 297.662 -2.00964 -0.424591 0
M  V30 3035 H 295.892 -2.5282 -2.92607 0
M  V30 3036 H 297.581 -2.9303 -2.80871 0
M  V30 3037 H 298.347 -4.72534 -1.09254 0
M  V30 3038 H 294.226 -4.08432 -2.13786 0
M  V30 3039 H 297.77 -6.97167 -0.245612 0
M  V30 3040 H 293.667 -6.32347 -1.29642 0
M  V30 3041 H 294.435 -8.177 -0.361786 0
M  V30 3042 N 297.098 0.621204 -1.44841 0
M  V30 3043 C 298.509 1.20298 -1.42777 0
M  V30 3044 C 298.86 1.95639 -0.148259 0
M  V30 3045 O 297.985 2.02955 0.750892 0
M  V30 3046 C 298.58 2.1882 -2.58657 0
M  V30 3047 C 297.139 2.72403 -2.59756 0
M  V30 3048 C 296.286 1.4757 -2.34773 0
M  V30 3049 H 299.237 0.411297 -1.53278 0
M  V30 3050 H 299.258 3.01607 -2.31977 0
M  V30 3051 H 298.77 1.63957 -3.51766 0
M  V30 3052 H 296.871 3.31242 -1.70615 0
M  V30 3053 H 296.984 3.17765 -3.58556 0
M  V30 3054 H 295.348 1.76051 -1.8406 0
M  V30 3055 H 296.131 0.945954 -3.3001 0
M  V30 3056 N 298.576 1.31904 0.862503 0
M  V30 3057 C 299.824 1.21776 1.61292 0
M  V30 3058 C 300.145 -0.222413 1.93727 0
M  V30 3059 O 299.415 -1.1451 1.58947 0
M  V30 3060 H 297.995 0.447717 0.597962 0
M  V30 3061 H 300.657 1.65326 1.03215 0
M  V30 3062 H 299.753 1.7948 2.5533 0
M  V30 3063 N 300.054 -1.07777 1.14986 0
M  V30 3064 C 301.294 -1.81888 0.932527 0
M  V30 3065 C 301.658 -1.84509 -0.531064 0
M  V30 3066 O 302.859 -2.54448 -0.866577 0
M  V30 3067 C 301.13 -3.23244 1.52473 0
M  V30 3068 S 302.689 -4.14154 1.44989 0
M  V30 3069 H 299.507 -0.626752 0.335712 0
M  V30 3070 H 302.109 -1.29503 1.46455 0
M  V30 3071 H 300.813 -3.18922 2.58296 0
M  V30 3072 H 300.344 -3.80704 0.991381 0
M  V30 3073 H 302.359 -4.94247 0.439799 0
M  V30 3074 N 301.532 -0.945985 -1.26051 0
M  V30 3075 C 302.479 -0.45809 -2.26208 0
M  V30 3076 C 303.449 0.484816 -1.58867 0
M  V30 3077 O 304.634 0.399969 -1.86561 0
M  V30 3078 C 301.774 0.266131 -3.44072 0
M  V30 3079 C 300.887 -0.713005 -4.26075 0
M  V30 3080 C 300.022 0.0329013 -5.3119 0
M  V30 3081 C 299.061 -0.93774 -6.04874 0
M  V30 3082 N 298.198 -0.223274 -7.01745 0
M  V30 3083 H 303.038 -1.3171 -2.67313 0
M  V30 3084 H 300.575 -0.66069 -1.31428 0
M  V30 3085 H 302.533 0.702514 -4.11243 0
M  V30 3086 H 301.163 1.08925 -3.03867 0
M  V30 3087 H 300.215 -1.26789 -3.58648 0
M  V30 3088 H 301.527 -1.45406 -4.77136 0
M  V30 3089 H 300.681 0.528335 -6.04395 0
M  V30 3090 H 299.42 0.806801 -4.8098 0
M  V30 3091 H 298.425 -1.44425 -5.30492 0
M  V30 3092 H 299.65 -1.71172 -6.57173 0
M  V30 3093 H 297.596 0.532046 -6.53839 0
M  V30 3094 H 297.513 -0.90357 -7.50581 0
M  V30 3095 H 298.781 0.250907 -7.79096 0
M  V30 3096 N 303.011 1.40521 -0.713556 0
M  V30 3097 C 304.26 2.00155 -0.249192 0
M  V30 3098 C 304.573 1.57224 1.16362 0
M  V30 3099 O 305.779 2.09542 1.72639 0
M  V30 3100 C 304.235 3.5773 -0.3946 0
M  V30 3101 C 303.843 4.09635 -1.81392 0
M  V30 3102 C 305.587 4.24499 0.00907364 0
M  V30 3103 C 303.494 5.59707 -1.91003 0
M  V30 3104 H 302.424 0.74868 -0.0894114 0
M  V30 3105 H 305.075 1.60784 -0.884352 0
M  V30 3106 H 303.457 3.94792 0.30911 0
M  V30 3107 H 304.631 3.83955 -2.54785 0
M  V30 3108 H 302.946 3.55456 -2.16888 0
M  V30 3109 H 305.543 5.34683 -0.0420404 0
M  V30 3110 H 305.886 4.02824 1.05065 0
M  V30 3111 H 306.419 3.92536 -0.645007 0
M  V30 3112 H 303.158 5.86234 -2.93275 0
M  V30 3113 H 302.678 5.87258 -1.22019 0
M  V30 3114 H 304.357 6.24776 -1.6812 0
M  V30 3115 N 304.489 0.459591 1.5075 0
M  V30 3116 C 305.717 -0.0973749 2.06671 0
M  V30 3117 C 306.132 -1.34524 1.32472 0
M  V30 3118 O 305.489 -1.7827 0.390634 0
M  V30 3119 C 305.54 -0.39714 3.59312 0
M  V30 3120 O 305.261 0.801214 4.30711 0
M  V30 3121 C 306.762 -1.00234 4.31819 0
M  V30 3122 H 303.982 0.00195854 0.670997 0
M  V30 3123 H 306.526 0.645072 1.94059 0
M  V30 3124 H 304.681 -1.08951 3.71764 0
M  V30 3125 H 305.095 0.538857 5.21725 0
M  V30 3126 H 306.569 -1.16193 5.39632 0
M  V30 3127 H 307.046 -1.98939 3.91561 0
M  V30 3128 H 307.652 -0.348699 4.23868 0
M  V30 3129 N 305.967 -1.56429 0.191757 0
M  V30 3130 C 307.213 -1.97777 -0.448554 0
M  V30 3131 C 307.546 -1.07847 -1.61501 0
M  V30 3132 O 306.821 -0.129774 -1.94067 0
M  V30 3133 C 307.104 -3.48362 -0.911906 0
M  V30 3134 C 306.957 -4.4907 0.256136 0
M  V30 3135 C 308.276 -4.02561 -1.77857 0
M  V30 3136 H 305.395 -0.719071 -0.161572 0
M  V30 3137 H 308.037 -1.87896 0.282007 0
M  V30 3138 H 306.187 -3.56914 -1.53442 0
M  V30 3139 H 307.859 -4.5256 0.893733 0
M  V30 3140 H 306.102 -4.24181 0.908436 0
M  V30 3141 H 306.773 -5.51889 -0.11053 0
M  V30 3142 H 309.249 -3.96767 -1.25359 0
M  V30 3143 H 308.125 -5.08301 -2.07174 0
M  V30 3144 H 308.386 -3.47616 -2.73158 0
M  V30 3145 N 307.445 0.0818655 -1.57387 0
M  V30 3146 C 308.692 0.782914 -1.86753 0
M  V30 3147 C 309.02 1.78082 -0.782118 0
M  V30 3148 O 308.275 1.94426 0.22295 0
M  V30 3149 C 308.574 1.53513 -3.22752 0
M  V30 3150 C 308.24 0.678134 -4.45771 0
M  V30 3151 C 306.902 0.441929 -4.79166 0
M  V30 3152 C 309.254 0.0832243 -5.21134 0
M  V30 3153 C 306.582 -0.398833 -5.85343 0
M  V30 3154 C 308.934 -0.744935 -6.28199 0
M  V30 3155 C 307.598 -0.991107 -6.60101 0
M  V30 3156 H 306.868 0.286489 -0.683378 0
M  V30 3157 H 309.515 0.0439808 -1.91449 0
M  V30 3158 H 307.82 2.34599 -3.138 0
M  V30 3159 H 309.517 2.08218 -3.42705 0
M  V30 3160 H 306.107 0.872357 -4.19628 0
M  V30 3161 H 310.291 0.252847 -4.95655 0
M  V30 3162 H 305.547 -0.598405 -6.08465 0
M  V30 3163 H 309.721 -1.21271 -6.8576 0
M  V30 3164 H 307.348 -1.64437 -7.42202 0
M  V30 3165 N 308.923 1.53595 0.353017 0
M  V30 3166 C 310.2 1.61002 1.11075 0
M  V30 3167 C 310.58 0.425356 2.0677 0
M  V30 3168 O 309.928 -0.583267 2.2093 0
M  V30 3169 C 310.138 2.96631 1.83877 0
M  V30 3170 C 311.486 3.51653 2.37961 0
M  V30 3171 O 312.51 2.98743 1.93987 0
M  V30 3172 O 311.369 4.44177 3.18386 0
M  V30 3173 H 308.463 0.650825 0.510251 0
M  V30 3174 H 311.009 1.6594 0.35527 0
M  V30 3175 H 309.781 3.74293 1.14108 0
M  V30 3176 H 309.404 2.95242 2.66304 0
M  V30 3177 N 310.401 -0.613514 1.45168 0
M  V30 3178 C 311.65 -1.36874 1.4815 0
M  V30 3179 C 311.963 -1.952 0.124982 0
M  V30 3180 O 313.169 -2.71481 0.0324176 0
M  V30 3181 C 311.625 -2.47905 2.60904 0
M  V30 3182 C 311.233 -1.96016 4.02842 0
M  V30 3183 C 312.977 -3.24965 2.73126 0
M  V30 3184 C 310.884 -3.04494 5.06988 0
M  V30 3185 H 309.814 -0.514428 0.551253 0
M  V30 3186 H 312.465 -0.658182 1.7129 0
M  V30 3187 H 310.847 -3.21618 2.31037 0
M  V30 3188 H 312.021 -1.29051 4.4236 0
M  V30 3189 H 310.336 -1.31719 3.95018 0
M  V30 3190 H 312.933 -4.05865 3.48106 0
M  V30 3191 H 313.276 -3.75588 1.79553 0
M  V30 3192 H 313.809 -2.5835 3.0249 0
M  V30 3193 H 310.548 -2.58795 6.0225 0
M  V30 3194 H 310.068 -3.70044 4.72046 0
M  V30 3195 H 311.747 -3.68976 5.31475 0
M  V30 3196 N 311.879 -1.3236 -0.855495 0
M  V30 3197 C 313.29 -1.2056 -1.42556 0
M  V30 3198 C 313.641 0.182209 -1.95352 0
M  V30 3199 O 312.766 1.08088 -1.87472 0
M  V30 3200 C 313.361 -2.1826 -2.59129 0
M  V30 3201 C 311.92 -2.10351 -3.12137 0
M  V30 3202 C 311.067 -2.06674 -1.84882 0
M  V30 3203 H 314.018 -1.442 -0.662727 0
M  V30 3204 H 314.039 -1.78064 -3.36264 0
M  V30 3205 H 313.551 -3.19257 -2.20673 0
M  V30 3206 H 311.652 -1.12599 -3.55179 0
M  V30 3207 H 311.765 -3.00135 -3.73438 0
M  V30 3208 H 310.129 -1.51901 -2.04446 0
M  V30 3209 H 310.912 -3.09451 -1.48643 0
M  V30 3210 N 313.357 1.07166 -1.15556 0
M  V30 3211 C 314.267 2.17947 -0.868116 0
M  V30 3212 C 315.283 1.73297 0.156297 0
M  V30 3213 O 316.459 2.01392 -0.0182327 0
M  V30 3214 C 313.524 3.44789 -0.36355 0
M  V30 3215 C 312.585 4.03996 -1.45209 0
M  V30 3216 C 311.818 5.24783 -0.971508 0
M  V30 3217 O 312.041 5.70109 0.182194 0
M  V30 3218 O 310.975 5.75715 -1.75603 0
M  V30 3219 H 314.801 2.4503 -1.79427 0
M  V30 3220 H 312.386 1.16539 -0.934824 0
M  V30 3221 H 314.268 4.21307 -0.0887113 0
M  V30 3222 H 312.943 3.19253 0.534708 0
M  V30 3223 H 311.85 3.29009 -1.78056 0
M  V30 3224 H 313.183 4.33808 -2.32533 0
M  V30 3225 N 314.835 0.952656 1.25548 0
M  V30 3226 C 316.081 0.607272 1.93494 0
M  V30 3227 C 316.414 -0.853245 1.74452 0
M  V30 3228 O 315.689 -1.61194 1.08843 0
M  V30 3229 C 315.972 0.96435 3.46947 0
M  V30 3230 C 315.825 2.48045 3.75225 0
M  V30 3231 C 317.144 0.487987 4.37386 0
M  V30 3232 H 314.263 0.222096 0.702739 0
M  V30 3233 H 316.905 1.18895 1.48203 0
M  V30 3234 H 315.055 0.469361 3.85654 0
M  V30 3235 H 316.727 3.04905 3.46166 0
M  V30 3236 H 314.97 2.919 3.209 0
M  V30 3237 H 315.641 2.6808 4.82532 0
M  V30 3238 H 318.117 0.912558 4.0597 0
M  V30 3239 H 316.993 0.766547 5.43521 0
M  V30 3240 H 317.254 -0.612063 4.37843 0
M  V30 3241 N 316.313 -1.40141 0.720998 0
M  V30 3242 C 317.559 -2.01084 0.263231 0
M  V30 3243 C 317.892 -1.57052 -1.14229 0
M  V30 3244 O 317.167 -0.793027 -1.77599 0
M  V30 3245 C 317.45 -3.58401 0.349344 0
M  V30 3246 C 317.303 -4.12491 1.79363 0
M  V30 3247 C 318.622 -4.39231 -0.276351 0
M  V30 3248 H 315.741 -0.730572 0.0971228 0
M  V30 3249 H 318.383 -1.66543 0.914518 0
M  V30 3250 H 316.533 -3.87958 -0.205165 0
M  V30 3251 H 318.205 -3.93711 2.40394 0
M  V30 3252 H 316.448 -3.66576 2.31958 0
M  V30 3253 H 317.119 -5.21646 1.80524 0
M  V30 3254 H 319.595 -4.15637 0.196184 0
M  V30 3255 H 318.471 -5.48586 -0.185681 0
M  V30 3256 H 318.732 -4.20643 -1.36059 0
M  V30 3257 N 317.792 -0.46758 -1.50504 0
M  V30 3258 C 319.038 0.0808869 -2.03239 0
M  V30 3259 C 319.393 1.37721 -1.34353 0
M  V30 3260 O 318.686 1.86016 -0.459194 0
M  V30 3261 C 318.88 0.323995 -3.55928 0
M  V30 3262 C 318.709 -0.947215 -4.39611 0
M  V30 3263 C 317.479 -1.48951 -4.82848 0
M  V30 3264 C 319.677 -1.84166 -4.80195 0
M  V30 3265 N 317.659 -2.71011 -5.50842 0
M  V30 3266 C 319.03 -2.90815 -5.47564 0
M  V30 3267 C 321.085 -1.85246 -4.62156 0
M  V30 3268 C 319.788 -3.98529 -5.98805 0
M  V30 3269 C 321.814 -2.91914 -5.14335 0
M  V30 3270 C 321.176 -3.97282 -5.81676 0
M  V30 3271 H 317.275 -0.0103394 -0.781932 0
M  V30 3272 H 319.859 -0.635003 -1.84054 0
M  V30 3273 H 318.03 1.00892 -3.75067 0
M  V30 3274 H 319.762 0.866492 -3.95315 0
M  V30 3275 H 316.517 -1.03918 -4.62058 0
M  V30 3276 H 316.941 -3.32988 -5.89447 0
M  V30 3277 H 321.583 -1.05103 -4.09528 0
M  V30 3278 H 319.301 -4.79491 -6.50472 0
M  V30 3279 H 322.887 -2.93729 -5.0221 0
M  V30 3280 H 321.767 -4.78462 -6.21324 0
M  V30 3281 N 319.27 1.56325 -0.20005 0
M  V30 3282 C 320.498 2.02105 0.442874 0
M  V30 3283 C 320.913 1.08014 1.5485 0
M  V30 3284 O 320.27 0.0858797 1.82298 0
M  V30 3285 C 320.321 3.47549 0.994583 0
M  V30 3286 O 320.042 4.38049 -0.0669322 0
M  V30 3287 C 321.543 4.0887 1.7129 0
M  V30 3288 H 318.763 0.661807 0.110691 0
M  V30 3289 H 321.307 2.02134 -0.310207 0
M  V30 3290 H 319.462 3.48204 1.69803 0
M  V30 3291 H 319.876 5.23368 0.344462 0
M  V30 3292 H 321.35 5.12475 2.05118 0
M  V30 3293 H 321.827 3.52615 2.61838 0
M  V30 3294 H 322.433 4.12002 1.05518 0
M  V30 3295 N 320.748 -0.0735177 1.57428 0
M  V30 3296 C 321.711 -1.07192 2.02589 0
M  V30 3297 C 322.711 -1.31695 0.922661 0
M  V30 3298 O 323.901 -1.27445 1.18758 0
M  V30 3299 C 321.033 -2.41599 2.40506 0
M  V30 3300 H 322.226 -0.682727 2.92025 0
M  V30 3301 H 319.779 -0.319193 1.53006 0
M  V30 3302 H 320.514 -2.85354 1.5409 0
M  V30 3303 H 320.299 -2.25156 3.21009 0
M  V30 3304 H 321.789 -3.13367 2.76027 0
M  V30 3305 N 322.226 -1.5378 -0.344866 0
M  V30 3306 C 323.173 -1.81676 -1.42346 0
M  V30 3307 C 324.143 -0.662376 -1.52321 0
M  V30 3308 O 325.328 -0.906675 -1.67881 0
M  V30 3309 C 322.468 -2.03087 -2.79015 0
M  V30 3310 C 321.581 -3.30799 -2.77842 0
M  V30 3311 C 320.716 -3.42285 -4.0622 0
M  V30 3312 C 319.755 -4.6395 -3.9927 0
M  V30 3313 N 318.892 -4.72477 -5.19336 0
M  V30 3314 H 323.732 -2.73703 -1.17858 0
M  V30 3315 H 321.269 -1.35568 -0.570949 0
M  V30 3316 H 323.227 -2.1349 -3.58438 0
M  V30 3317 H 321.857 -1.14375 -3.01858 0
M  V30 3318 H 320.909 -3.29244 -1.90533 0
M  V30 3319 H 322.221 -4.20314 -2.68584 0
M  V30 3320 H 321.375 -3.52113 -4.94066 0
M  V30 3321 H 320.114 -2.50823 -4.18258 0
M  V30 3322 H 319.119 -4.54201 -3.09809 0
M  V30 3323 H 320.344 -5.56775 -3.88817 0
M  V30 3324 H 318.29 -3.83924 -5.3192 0
M  V30 3325 H 318.207 -5.55927 -5.12329 0
M  V30 3326 H 319.475 -4.86613 -6.08957 0
M  V30 3327 N 323.704 0.605807 -1.45491 0
M  V30 3328 C 324.636 1.73031 -1.5031 0
M  V30 3329 C 325.649 1.57968 -0.393687 0
M  V30 3330 O 326.838 1.65817 -0.660839 0
M  V30 3331 C 323.938 3.11049 -1.34543 0
M  V30 3332 C 323.111 3.52334 -2.59189 0
M  V30 3333 C 322.17 4.69323 -2.37954 0
M  V30 3334 O 321.196 4.7635 -3.11575 0
M  V30 3335 N 322.398 5.62705 -1.4263 0
M  V30 3336 H 325.163 1.6936 -2.4726 0
M  V30 3337 H 322.724 0.79114 -1.41254 0
M  V30 3338 H 324.716 3.87071 -1.18144 0
M  V30 3339 H 323.286 3.09217 -0.458623 0
M  V30 3340 H 322.506 2.66256 -2.90691 0
M  V30 3341 H 323.794 3.76677 -3.42041 0
M  V30 3342 H 323.192 5.59744 -0.818758 0
M  V30 3343 H 321.749 6.38252 -1.32202 0
M  V30 3344 N 325.182 1.32811 0.848464 0
M  V30 3345 C 326.132 1.18842 1.94578 0
M  V30 3346 C 327.116 0.0937517 1.60627 0
M  V30 3347 O 328.308 0.320887 1.74067 0
M  V30 3348 C 325.437 0.91999 3.30743 0
M  V30 3349 C 324.523 2.05665 3.70894 0
M  V30 3350 N 324.914 3.30579 3.8282 0
M  V30 3351 C 323.212 1.9612 4.00566 0
M  V30 3352 C 323.913 4.05067 4.17487 0
M  V30 3353 N 322.889 3.33419 4.2934 0
M  V30 3354 H 326.691 2.13536 2.0194 0
M  V30 3355 H 324.205 1.2468 1.0406 0
M  V30 3356 H 326.202 0.800859 4.09136 0
M  V30 3357 H 324.862 -0.0185076 3.24695 0
M  V30 3358 H 325.873 3.65441 3.66978 0
M  V30 3359 H 322.55 1.09871 4.02784 0
M  V30 3360 H 323.94 5.12815 4.34131 0
M  V30 3361 N 326.66 -1.06551 1.16123 0
M  V30 3362 C 327.907 -1.79302 0.941126 0
M  V30 3363 C 328.235 -1.87105 -0.531235 0
M  V30 3364 O 327.49 -1.35692 -1.41018 0
M  V30 3365 C 327.789 -3.23911 1.51052 0
M  V30 3366 C 327.455 -3.36193 3.00475 0
M  V30 3367 C 326.117 -3.39252 3.41265 0
M  V30 3368 C 328.469 -3.38326 3.96465 0
M  V30 3369 C 325.797 -3.42057 4.76669 0
M  V30 3370 C 328.149 -3.4267 5.31752 0
M  V30 3371 C 326.813 -3.4401 5.72026 0
M  V30 3372 H 326.083 -0.656111 0.344382 0
M  V30 3373 H 328.73 -1.25325 1.44796 0
M  V30 3374 H 327.035 -3.80723 0.925063 0
M  V30 3375 H 328.732 -3.78793 1.31593 0
M  V30 3376 H 325.322 -3.34516 2.6795 0
M  V30 3377 H 329.506 -3.35176 3.6602 0
M  V30 3378 H 324.762 -3.41398 5.07206 0
M  V30 3379 H 328.936 -3.43268 6.05921 0
M  V30 3380 H 326.563 -3.45937 6.76928 0
M  V30 3381 N 328.138 -0.959301 -1.25041 0
M  V30 3382 C 329.363 -0.633507 -1.97488 0
M  V30 3383 C 329.788 0.788555 -1.70773 0
M  V30 3384 O 329.146 1.53394 -0.966431 0
M  V30 3385 C 329.194 -0.904057 -3.49083 0
M  V30 3386 O 328.298 0.0147939 -4.12397 0
M  V30 3387 H 327.639 -0.240368 -0.618966 0
M  V30 3388 H 330.169 -1.28717 -1.59038 0
M  V30 3389 H 330.179 -0.832203 -3.99423 0
M  V30 3390 H 328.854 -1.94048 -3.67856 0
M  V30 3391 H 327.431 -0.109664 -3.72739 0
M  V30 3392 N 329.616 1.39756 -0.72842 0
M  V30 3393 C 330.863 2.00645 -0.273487 0
M  V30 3394 C 331.191 1.57786 1.13727 0
M  V30 3395 O 330.446 0.794886 1.7883 0
M  V30 3396 C 330.745 3.56002 -0.315776 0
M  V30 3397 C 330.411 4.18489 -1.67863 0
M  V30 3398 C 329.073 4.3527 -2.05166 0
M  V30 3399 C 331.425 4.53219 -2.57375 0
M  V30 3400 C 328.753 4.84069 -3.31503 0
M  V30 3401 C 331.105 5.03423 -3.83077 0
M  V30 3402 C 329.769 5.18413 -4.20481 0
M  V30 3403 H 329.039 0.734211 -0.100076 0
M  V30 3404 H 331.686 1.6718 -0.933972 0
M  V30 3405 H 329.991 3.89452 0.428285 0
M  V30 3406 H 331.688 4.00963 0.0542575 0
M  V30 3407 H 328.278 4.05824 -1.37858 0
M  V30 3408 H 332.462 4.39878 -2.29827 0
M  V30 3409 H 327.718 4.93859 -3.60435 0
M  V30 3410 H 331.892 5.2927 -4.52599 0
M  V30 3411 H 329.519 5.55987 -5.18443 0
M  V30 3412 N 331.094 0.475555 1.50254 0
M  V30 3413 C 332.026 -0.352649 2.26471 0
M  V30 3414 C 333.039 -0.953165 1.3198 0
M  V30 3415 O 334.228 -0.840815 1.57457 0
M  V30 3416 C 331.328 -1.50902 3.0345 0
M  V30 3417 C 330.501 -1.02047 4.25329 0
M  V30 3418 C 329.56 -2.05142 4.84565 0
M  V30 3419 O 328.586 -1.63023 5.45355 0
M  V30 3420 N 329.788 -3.37987 4.71959 0
M  V30 3421 H 332.553 0.300767 2.98187 0
M  V30 3422 H 330.114 0.306598 1.5897 0
M  V30 3423 H 332.106 -2.19572 3.39956 0
M  V30 3424 H 330.676 -2.06705 2.34504 0
M  V30 3425 H 329.896 -0.159507 3.93877 0
M  V30 3426 H 331.184 -0.672061 5.04342 0
M  V30 3427 H 330.582 -3.74913 4.23623 0
M  V30 3428 H 329.139 -4.02443 5.12721 0
M  V30 3429 N 332.573 -1.56217 0.208337 0
M  V30 3430 C 333.483 -2.23316 -0.718836 0
M  V30 3431 C 334.499 -1.23648 -1.22422 0
M  V30 3432 O 335.675 -1.56423 -1.26861 0
M  V30 3433 C 332.74 -2.88968 -1.91568 0
M  V30 3434 C 331.801 -4.03943 -1.45357 0
M  V30 3435 C 331.034 -4.66455 -2.59337 0
M  V30 3436 O 331.257 -4.27919 -3.77149 0
M  V30 3437 O 330.191 -5.55686 -2.31293 0
M  V30 3438 H 334.017 -3.03182 -0.177315 0
M  V30 3439 H 331.602 -1.49384 -0.0215402 0
M  V30 3440 H 333.484 -3.30455 -2.61491 0
M  V30 3441 H 332.159 -2.12071 -2.44556 0
M  V30 3442 H 331.066 -3.67052 -0.722746 0
M  V30 3443 H 332.399 -4.82543 -0.970219 0
M  V30 3444 N 334.051 0.0651679 -1.57465 0
M  V30 3445 C 334.961 1.09448 -2.07505 0
M  V30 3446 C 335.977 1.41974 -1.00595 0
M  V30 3447 O 337.153 1.52018 -1.32107 0
M  V30 3448 C 334.218 2.38689 -2.51453 0
M  V30 3449 C 333.279 2.13073 -3.72691 0
M  V30 3450 C 332.512 3.36152 -4.14533 0
M  V30 3451 O 332.735 4.45517 -3.56189 0
M  V30 3452 O 331.669 3.23974 -5.07272 0
M  V30 3453 H 335.495 0.69935 -2.95538 0
M  V30 3454 H 333.08 0.279752 -1.46757 0
M  V30 3455 H 334.962 3.14736 -2.80212 0
M  V30 3456 H 333.637 2.77568 -1.66546 0
M  V30 3457 H 332.544 1.34709 -3.49005 0
M  V30 3458 H 333.877 1.79071 -4.5847 0
M  V30 3459 N 335.529 1.53961 0.336706 0
M  V30 3460 C 336.439 1.85432 1.43708 0
M  V30 3461 C 337.455 0.745053 1.57242 0
M  V30 3462 O 338.631 1.03804 1.72588 0
M  V30 3463 C 335.696 2.06349 2.78605 0
M  V30 3464 C 334.757 3.30191 2.74358 0
M  V30 3465 C 333.99 3.50101 4.02822 0
M  V30 3466 O 334.213 2.7371 5.00439 0
M  V30 3467 O 333.147 4.43547 4.06878 0
M  V30 3468 H 336.973 2.78975 1.20028 0
M  V30 3469 H 334.558 1.39701 0.52952 0
M  V30 3470 H 336.44 2.21513 3.58483 0
M  V30 3471 H 335.115 1.15995 3.02203 0
M  V30 3472 H 334.022 3.20425 1.93078 0
M  V30 3473 H 335.355 4.2056 2.55715 0
M  V30 3474 N 337.007 -0.598083 1.45811 0
M  V30 3475 C 337.939 -1.72231 1.51225 0
M  V30 3476 C 338.952 -1.57757 0.402059 0
M  V30 3477 O 340.141 -1.65464 0.669624 0
M  V30 3478 C 337.241 -3.10331 1.3619 0
M  V30 3479 C 336.414 -3.50955 2.61054 0
M  V30 3480 C 335.473 -4.68055 2.40439 0
M  V30 3481 O 334.499 -4.74691 3.14097 0
M  V30 3482 N 335.701 -5.61941 1.45612 0
M  V30 3483 H 338.466 -1.68046 2.48154 0
M  V30 3484 H 336.027 -0.783637 1.41671 0
M  V30 3485 H 338.019 -3.86439 1.20195 0
M  V30 3486 H 336.589 -3.0897 0.475015 0
M  V30 3487 H 335.809 -2.64711 2.92099 0
M  V30 3488 H 337.097 -3.74858 3.44034 0
M  V30 3489 H 336.495 -5.59301 0.848431 0
M  V30 3490 H 335.052 -6.37542 1.35585 0
M  V30 3491 N 338.485 -1.33259 -0.841409 0
M  V30 3492 C 339.734 -1.23921 -1.59143 0
M  V30 3493 C 340.047 0.1941 -1.94635 0
M  V30 3494 O 341.253 0.409474 -2.68394 0
M  V30 3495 C 339.709 -2.17119 -2.87032 0
M  V30 3496 C 339.317 -3.65606 -2.58914 0
M  V30 3497 C 341.061 -2.16648 -3.65053 0
M  V30 3498 C 338.968 -4.50726 -3.82884 0
M  V30 3499 H 337.898 -0.460264 -0.597221 0
M  V30 3500 H 340.549 -1.58307 -0.927959 0
M  V30 3501 H 338.931 -1.75663 -3.54906 0
M  V30 3502 H 340.105 -4.15487 -1.99267 0
M  V30 3503 H 338.42 -3.68341 -1.942 0
M  V30 3504 H 341.017 -2.77474 -4.57069 0
M  V30 3505 H 341.36 -1.16088 -3.99787 0
M  V30 3506 H 341.893 -2.56453 -3.041 0
M  V30 3507 H 338.632 -5.52151 -3.53283 0
M  V30 3508 H 338.152 -4.0559 -4.41879 0
M  V30 3509 H 339.831 -4.64401 -4.50489 0
M  V30 3510 N 339.963 1.05934 -1.16686 0
M  V30 3511 C 341.24 1.75643 -0.860747 0
M  V30 3512 C 341.62 2.01144 0.640641 0
M  V30 3513 O 340.968 1.64147 1.58959 0
M  V30 3514 C 341.178 3.05493 -1.68745 0
M  V30 3515 C 342.526 3.79581 -1.90271 0
M  V30 3516 O 343.55 3.15344 -1.65641 0
M  V30 3517 O 342.409 4.9499 -2.31618 0
M  V30 3518 H 339.503 0.763426 -0.317977 0
M  V30 3519 H 342.049 1.1217 -1.27342 0
M  V30 3520 H 340.821 2.8264 -2.70611 0
M  V30 3521 H 340.444 3.76702 -1.27206 0
M  V30 3522 N 341.441 0.965919 1.2453 0
M  V30 3523 C 342.688 0.626831 1.92554 0
M  V30 3524 C 343.016 -0.837739 1.75534 0
M  V30 3525 O 342.271 -1.61793 1.10098 0
M  V30 3526 C 342.57 0.945428 3.44669 0
M  V30 3527 C 342.236 2.39785 3.81856 0
M  V30 3528 C 340.898 2.79483 3.91718 0
M  V30 3529 C 343.25 3.34055 4.00071 0
M  V30 3530 C 340.578 4.12496 4.1721 0
M  V30 3531 C 342.93 4.66694 4.27059 0
M  V30 3532 C 341.594 5.06172 4.3514 0
M  V30 3533 H 340.864 0.229374 0.704605 0
M  V30 3534 H 343.511 1.21707 1.4785 0
M  V30 3535 H 341.816 0.272926 3.90848 0
M  V30 3536 H 343.513 0.661484 3.95507 0
M  V30 3537 H 340.103 2.08003 3.74743 0
M  V30 3538 H 344.287 3.04571 3.91855 0
M  V30 3539 H 339.543 4.42709 4.21685 0
M  V30 3540 H 343.717 5.3971 4.40097 0
M  V30 3541 H 341.344 6.09262 4.54646 0
M  V30 3542 N 342.919 -1.39368 0.735821 0
M  V30 3543 C 343.851 -2.2913 0.0567723 0
M  V30 3544 C 344.864 -1.46859 -0.702589 0
M  V30 3545 O 346.053 -1.69925 -0.546616 0
M  V30 3546 C 343.153 -3.25492 -0.943823 0
M  V30 3547 C 342.326 -4.36709 -0.24581 0
M  V30 3548 C 341.385 -5.13376 -1.15463 0
M  V30 3549 O 340.411 -5.65683 -0.631803 0
M  V30 3550 N 341.613 -5.24656 -2.48427 0
M  V30 3551 H 344.378 -2.88047 0.827582 0
M  V30 3552 H 341.939 -1.50957 0.585112 0
M  V30 3553 H 343.931 -3.73657 -1.55443 0
M  V30 3554 H 342.501 -2.676 -1.61583 0
M  V30 3555 H 341.721 -3.9041 0.545286 0
M  V30 3556 H 343.009 -5.08244 0.237891 0
M  V30 3557 H 342.407 -4.83679 -2.93379 0
M  V30 3558 H 340.964 -5.76258 -3.04582 0
M  V30 3559 N 344.397 -0.483516 -1.5 0
M  V30 3560 C 345.307 0.309172 -2.32554 0
M  V30 3561 C 346.323 0.984159 -1.43493 0
M  V30 3562 O 347.499 0.969399 -1.76535 0
M  V30 3563 C 344.564 1.36979 -3.18493 0
M  V30 3564 C 343.625 0.710095 -4.23387 0
M  V30 3565 C 342.858 1.72018 -5.05218 0
M  V30 3566 O 343.081 2.94813 -4.88305 0
M  V30 3567 O 342.015 1.28515 -5.8802 0
M  V30 3568 H 345.841 -0.366064 -3.01486 0
M  V30 3569 H 343.426 -0.24514 -1.47375 0
M  V30 3570 H 345.308 1.98385 -3.71781 0
M  V30 3571 H 343.983 2.02828 -2.52275 0
M  V30 3572 H 342.89 0.0567539 -3.74057 0
M  V30 3573 H 344.223 0.0943557 -4.9211 0
M  V30 3574 N 345.875 1.56104 -0.216619 0
M  V30 3575 C 347.123 1.97781 0.415593 0
M  V30 3576 C 347.444 1.10536 1.60645 0
M  V30 3577 O 346.714 0.181303 1.95059 0
M  V30 3578 H 345.294 0.730415 0.156534 0
M  V30 3579 H 347.956 1.92445 -0.308366 0
M  V30 3580 H 347.052 3.03072 0.74525 0
M  V30 3581 N 347.353 -0.0568162 1.57498 0
M  V30 3582 C 348.63 -0.786954 1.79071 0
M  V30 3583 C 349.01 -1.95028 0.80792 0
M  V30 3584 O 348.358 -2.27968 -0.155858 0
M  V30 3585 C 348.568 -1.24594 3.26002 0
M  V30 3586 C 349.916 -1.67323 3.90241 0
M  V30 3587 O 350.94 -1.34124 3.29984 0
M  V30 3588 O 349.799 -2.28842 4.9628 0
M  V30 3589 H 346.893 -0.378262 0.735423 0
M  V30 3590 H 349.439 -0.035734 1.69662 0
M  V30 3591 H 348.211 -0.41423 3.89101 0
M  V30 3592 H 347.834 -2.05803 3.40192 0
M  V30 3593 N 348.832 -1.54138 -0.328536 0
M  V30 3594 C 350.079 -1.72105 -1.06706 0
M  V30 3595 C 350.407 -0.492111 -1.88171 0
M  V30 3596 O 349.662 0.526153 -1.88494 0
M  V30 3597 C 349.961 -2.9457 -2.02393 0
M  V30 3598 C 349.627 -4.29544 -1.37122 0
M  V30 3599 C 348.289 -4.6624 -1.19052 0
M  V30 3600 C 350.641 -5.1333 -0.902331 0
M  V30 3601 C 347.969 -5.84325 -0.527331 0
M  V30 3602 C 350.321 -6.32094 -0.252988 0
M  V30 3603 C 348.985 -6.67473 -0.0600901 0
M  V30 3604 H 348.255 -0.629775 -0.390466 0
M  V30 3605 H 350.902 -1.88372 -0.34473 0
M  V30 3606 H 349.207 -2.72969 -2.81061 0
M  V30 3607 H 350.904 -3.05665 -2.59557 0
M  V30 3608 H 347.494 -4.0067 -1.52188 0
M  V30 3609 H 351.678 -4.855 -1.02974 0
M  V30 3610 H 346.934 -6.103 -0.366634 0
M  V30 3611 H 351.108 -6.96299 0.118366 0
M  V30 3612 H 348.735 -7.58832 0.455828 0
M  V30 3613 N 350.31 0.590341 -1.46126 0
M  V30 3614 C 351.557 1.34882 -1.5104 0
M  V30 3615 C 351.885 1.93849 -0.159021 0
M  V30 3616 O 351.14 1.76544 0.844436 0
M  V30 3617 C 351.439 2.5032 -2.55097 0
M  V30 3618 C 351.105 2.09394 -3.99331 0
M  V30 3619 C 349.767 1.97947 -4.38601 0
M  V30 3620 C 352.119 1.77712 -4.89967 0
M  V30 3621 C 349.447 1.53065 -5.66381 0
M  V30 3622 C 351.799 1.34312 -6.18177 0
M  V30 3623 C 350.463 1.21436 -6.56361 0
M  V30 3624 H 349.733 0.493568 -0.552695 0
M  V30 3625 H 352.38 0.665539 -1.79563 0
M  V30 3626 H 350.685 3.24062 -2.20207 0
M  V30 3627 H 352.382 3.08541 -2.56132 0
M  V30 3628 H 348.972 2.19235 -3.68285 0
M  V30 3629 H 353.156 1.85445 -4.60352 0
M  V30 3630 H 348.412 1.41733 -5.94745 0
M  V30 3631 H 352.586 1.08849 -6.87841 0
M  V30 3632 H 350.213 0.864345 -7.5527 0
M  V30 3633 N 351.788 1.33704 0.83433 0
M  V30 3634 C 352.735 1.24335 1.94447 0
M  V30 3635 C 353.705 0.120991 1.65659 0
M  V30 3636 O 354.89 0.300035 1.88426 0
M  V30 3637 C 352.03 0.993124 3.30501 0
M  V30 3638 C 351.143 2.20217 3.71657 0
M  V30 3639 C 350.278 1.88572 4.96602 0
M  V30 3640 C 349.317 3.05683 5.30306 0
M  V30 3641 N 348.454 2.73997 6.46429 0
M  V30 3642 H 353.294 2.1928 2.01792 0
M  V30 3643 H 350.831 1.09035 0.987404 0
M  V30 3644 H 352.789 0.828467 4.08892 0
M  V30 3645 H 351.419 0.0803902 3.227 0
M  V30 3646 H 350.471 2.47642 2.88752 0
M  V30 3647 H 351.783 3.07752 3.92543 0
M  V30 3648 H 350.937 1.68776 5.82752 0
M  V30 3649 H 349.676 0.982799 4.77695 0
M  V30 3650 H 348.681 3.26088 4.42659 0
M  V30 3651 H 349.906 3.96737 5.51159 0
M  V30 3652 H 347.852 1.86268 6.28999 0
M  V30 3653 H 347.769 3.55064 6.67432 0
M  V30 3654 H 349.037 2.57679 7.35678 0
M  V30 3655 N 353.266 -1.05314 1.17247 0
M  V30 3656 C 354.543 -1.75184 0.87005 0
M  V30 3657 C 354.923 -2.01481 -0.629965 0
M  V30 3658 O 354.271 -1.64988 -1.58086 0
M  V30 3659 C 354.481 -3.04594 1.70363 0
M  V30 3660 C 355.829 -3.78567 1.92281 0
M  V30 3661 O 356.853 -3.14461 1.67311 0
M  V30 3662 O 355.712 -4.93755 2.3424 0
M  V30 3663 H 352.806 -0.761729 0.322021 0
M  V30 3664 H 355.352 -1.11493 1.27935 0
M  V30 3665 H 354.124 -2.81201 2.72106 0
M  V30 3666 H 353.747 -3.76022 1.29202 0
M  V30 3667 N 354.744 -0.972509 -1.24016 0
M  V30 3668 C 356.155 -0.67517 -1.74064 0
M  V30 3669 C 356.506 0.808939 -1.78747 0
M  V30 3670 O 355.631 1.63286 -1.42009 0
M  V30 3671 C 356.226 -1.21889 -3.16115 0
M  V30 3672 C 354.785 -0.971358 -3.6365 0
M  V30 3673 C 353.932 -1.35134 -2.42145 0
M  V30 3674 H 356.883 -1.14727 -1.09651 0
M  V30 3675 H 356.904 -0.587489 -3.75937 0
M  V30 3676 H 356.416 -2.29906 -3.12674 0
M  V30 3677 H 354.517 0.0930686 -3.72484 0
M  V30 3678 H 354.63 -1.62039 -4.50866 0
M  V30 3679 H 352.994 -0.769751 -2.4279 0
M  V30 3680 H 353.777 -2.4411 -2.41381 0
M  V30 3681 N 356.222 1.38976 -0.743202 0
M  V30 3682 C 357.152 2.33171 -0.123873 0
M  V30 3683 C 358.133 1.54336 0.71516 0
M  V30 3684 O 359.318 1.82696 0.658467 0
M  V30 3685 C 356.448 3.38474 0.777978 0
M  V30 3686 C 355.402 4.27979 0.0424758 0
M  V30 3687 C 354.728 5.2405 1.06189 0
M  V30 3688 C 356.028 5.10155 -1.1198 0
M  V30 3689 H 357.722 2.85213 -0.910709 0
M  V30 3690 H 355.268 1.37133 -0.439388 0
M  V30 3691 H 357.221 4.03328 1.22084 0
M  V30 3692 H 355.945 2.84891 1.59702 0
M  V30 3693 H 354.604 3.64616 -0.380853 0
M  V30 3694 H 354.252 4.66758 1.87472 0
M  V30 3695 H 353.952 5.84785 0.574485 0
M  V30 3696 H 355.476 5.9178 1.50428 0
M  V30 3697 H 356.89 5.68307 -0.75499 0
M  V30 3698 H 355.287 5.80073 -1.53738 0
M  V30 3699 H 356.357 4.44504 -1.93764 0
M  V30 3700 N 357.7 0.491464 1.49741 0
M  V30 3701 C 359.111 0.0413169 1.86654 0
M  V30 3702 C 359.462 -1.36985 1.40462 0
M  V30 3703 O 358.587 -2.01917 0.778354 0
M  V30 3704 C 359.182 0.0682023 3.38731 0
M  V30 3705 C 357.741 -0.32656 3.74981 0
M  V30 3706 C 356.888 0.444888 2.73708 0
M  V30 3707 H 359.839 0.704733 1.42194 0
M  V30 3708 H 359.86 -0.729322 3.73445 0
M  V30 3709 H 359.372 1.09539 3.72321 0
M  V30 3710 H 357.473 -1.35734 3.46997 0
M  V30 3711 H 357.586 -0.013741 4.79098 0
M  V30 3712 H 355.95 -0.104062 2.54487 0
M  V30 3713 H 356.733 1.47197 3.10142 0
M  V30 3714 N 359.178 -1.55987 0.224894 0
M  V30 3715 C 360.088 -2.24066 -0.69511 0
M  V30 3716 C 361.104 -1.24939 -1.21104 0
M  V30 3717 O 362.28 -1.5776 -1.25195 0
M  V30 3718 C 359.345 -2.90983 -1.88493 0
M  V30 3719 C 358.406 -4.05462 -1.41064 0
M  V30 3720 C 357.639 -4.69179 -2.54375 0
M  V30 3721 O 357.862 -4.31895 -3.72589 0
M  V30 3722 O 356.796 -5.58108 -2.25386 0
M  V30 3723 H 360.622 -3.03353 -0.145149 0
M  V30 3724 H 358.207 -1.49399 -0.00569476 0
M  V30 3725 H 360.089 -3.33209 -2.57972 0
M  V30 3726 H 358.764 -2.14653 -2.42293 0
M  V30 3727 H 357.671 -3.67798 -0.683774 0
M  V30 3728 H 359.004 -4.83545 -0.918985 0
M  V30 3729 N 360.656 0.0484629 -1.57525 0
M  V30 3730 C 361.619 1.03956 -2.04269 0
M  V30 3731 C 362.619 1.30211 -0.943496 0
M  V30 3732 O 363.809 1.25539 -1.20771 0
M  V30 3733 C 360.941 2.37742 -2.44319 0
M  V30 3734 H 362.134 0.636182 -2.93075 0
M  V30 3735 H 359.687 0.294811 -1.53494 0
M  V30 3736 H 360.422 2.82866 -1.5861 0
M  V30 3737 H 360.207 2.20021 -3.24551 0
M  V30 3738 H 361.697 3.08936 -2.80978 0
M  V30 3739 N 362.134 1.5431 0.320358 0
M  V30 3740 C 363.411 1.63322 1.07635 0
M  V30 3741 C 363.791 0.46912 2.05821 0
M  V30 3742 O 363.139 -0.536274 2.22118 0
M  V30 3743 C 363.349 3.00465 1.77544 0
M  V30 3744 C 364.697 3.56621 2.30449 0
M  V30 3745 O 365.721 3.02791 1.87606 0
M  V30 3746 O 364.58 4.5083 3.08892 0
M  V30 3747 H 361.674 0.661502 0.496331 0
M  V30 3748 H 364.22 1.66656 0.319992 0
M  V30 3749 H 362.992 3.76629 1.06143 0
M  V30 3750 H 362.615 3.00824 2.59982 0
M  V30 3751 N 363.613 -0.582584 1.46437 0
M  V30 3752 C 364.543 -1.70187 1.59871 0
M  V30 3753 C 365.524 -1.64066 0.449042 0
M  V30 3754 O 366.709 -1.82081 0.6753 0
M  V30 3755 C 363.839 -3.08827 1.58881 0
M  V30 3756 C 362.793 -3.29779 2.72819 0
M  V30 3757 C 362.119 -4.68947 2.5689 0
M  V30 3758 C 363.419 -3.17601 4.1464 0
M  V30 3759 H 365.113 -1.592 2.53566 0
M  V30 3760 H 362.659 -0.764472 1.22032 0
M  V30 3761 H 364.612 -3.86951 1.66873 0
M  V30 3762 H 363.336 -3.20713 0.617306 0
M  V30 3763 H 361.995 -2.54054 2.64296 0
M  V30 3764 H 361.643 -4.77599 1.57823 0
M  V30 3765 H 361.343 -4.83919 3.33312 0
M  V30 3766 H 362.867 -5.4924 2.66773 0
M  V30 3767 H 364.281 -3.8557 4.24274 0
M  V30 3768 H 362.678 -3.44094 4.9165 0
M  V30 3769 H 363.748 -2.14681 4.34788 0
M  V30 3770 N 365.091 -1.34144 -0.827227 0
M  V30 3771 C 366.321 -1.29138 -1.61267 0
M  V30 3772 C 366.729 0.137597 -1.88699 0
M  V30 3773 O 366.072 1.09379 -1.47587 0
M  V30 3774 C 366.134 -2.0097 -2.9808 0
M  V30 3775 C 365.798 -3.50242 -2.93563 0
M  V30 3776 C 366.795 -4.4523 -2.68452 0
M  V30 3777 C 364.48 -3.92592 -3.13331 0
M  V30 3778 C 366.474 -5.80542 -2.63154 0
M  V30 3779 C 364.161 -5.28005 -3.07658 0
M  V30 3780 C 365.159 -6.21792 -2.82602 0
M  V30 3781 O 364.847 -7.54723 -2.76853 0
M  V30 3782 H 364.579 -0.445851 -0.508127 0
M  V30 3783 H 367.133 -1.77263 -1.03763 0
M  V30 3784 H 365.363 -1.47451 -3.57484 0
M  V30 3785 H 367.052 -1.89309 -3.5905 0
M  V30 3786 H 367.818 -4.13832 -2.52919 0
M  V30 3787 H 363.697 -3.19994 -3.31851 0
M  V30 3788 H 367.241 -6.53717 -2.43516 0
M  V30 3789 H 363.138 -5.59023 -3.22743 0
M  V30 3790 H 363.906 -7.64409 -2.92611 0
M  V30 3791 N 366.569 1.04691 -1.17803 0
M  V30 3792 C 367.818 1.77176 -0.963931 0
M  V30 3793 C 368.131 1.88888 0.508015 0
M  V30 3794 O 369.337 2.58164 0.840465 0
M  V30 3795 C 367.793 3.18518 -1.67555 0
M  V30 3796 C 367.401 3.14919 -3.18637 0
M  V30 3797 C 369.145 3.95424 -1.54402 0
M  V30 3798 C 367.052 4.51081 -3.82466 0
M  V30 3799 H 365.982 0.664116 -0.357023 0
M  V30 3800 H 368.633 1.17303 -1.4111 0
M  V30 3801 H 367.015 3.78748 -1.15613 0
M  V30 3802 H 368.189 2.64178 -3.77554 0
M  V30 3803 H 366.504 2.51512 -3.31859 0
M  V30 3804 H 369.101 4.96106 -1.99456 0
M  V30 3805 H 369.444 4.13343 -0.495329 0
M  V30 3806 H 369.977 3.41754 -2.0359 0
M  V30 3807 H 366.716 4.38368 -4.87354 0
M  V30 3808 H 366.236 5.01951 -3.28337 0
M  V30 3809 H 367.915 5.2001 -3.84965 0
M  V30 3810 N 368.047 0.979072 1.23499 0
M  V30 3811 C 368.977 0.537606 2.27227 0
M  V30 3812 C 369.958 -0.428539 1.64613 0
M  V30 3813 O 371.143 -0.322191 1.91509 0
M  V30 3814 C 368.273 -0.162052 3.46922 0
M  V30 3815 C 367.227 0.721242 4.21879 0
M  V30 3816 C 366.553 -0.110555 5.34586 0
M  V30 3817 C 367.853 2.01141 4.82016 0
M  V30 3818 H 369.547 1.40462 2.64406 0
M  V30 3819 H 367.093 0.67684 1.27102 0
M  V30 3820 H 369.046 -0.482192 4.18632 0
M  V30 3821 H 367.77 -1.06351 3.08799 0
M  V30 3822 H 366.429 1.02482 3.51984 0
M  V30 3823 H 366.077 -1.0125 4.92704 0
M  V30 3824 H 365.777 0.477325 5.85658 0
M  V30 3825 H 367.301 -0.425107 6.09118 0
M  V30 3826 H 368.715 1.75612 5.45741 0
M  V30 3827 H 367.112 2.54695 5.43369 0
M  V30 3828 H 368.182 2.69909 4.02836 0
M  V30 3829 N 369.525 -1.3858 0.750561 0
M  V30 3830 C 370.488 -2.28836 0.129152 0
M  V30 3831 C 371.488 -1.47045 -0.650714 0
M  V30 3832 O 372.678 -1.6753 -0.477428 0
M  V30 3833 C 369.81 -3.30751 -0.825622 0
M  V30 3834 H 371.003 -2.85294 0.924516 0
M  V30 3835 H 368.556 -1.47489 0.517376 0
M  V30 3836 H 369.291 -2.79378 -1.64677 0
M  V30 3837 H 369.076 -3.91177 -0.268852 0
M  V30 3838 H 370.566 -3.98249 -1.2565 0
M  V30 3839 N 371.003 -0.499398 -1.49478 0
M  V30 3840 C 372.419 -0.155261 -1.58843 0
M  V30 3841 C 372.619 1.34008 -1.50479 0
M  V30 3842 O 371.675 2.11589 -1.37791 0
M  V30 3843 C 372.988 -0.730636 -2.91689 0
M  V30 3844 C 374.536 -0.696599 -3.0515 0
M  V30 3845 C 375.011 -1.25001 -4.40612 0
M  V30 3846 N 376.502 -1.21064 -4.47099 0
M  V30 3847 C 377.237 -1.60905 -5.50361 0
M  V30 3848 N 376.733 -2.08331 -6.60735 0
M  V30 3849 N 378.526 -1.52331 -5.41065 0
M  V30 3850 H 370.677 -1.47162 -1.53158 0
M  V30 3851 H 372.94 -0.610309 -0.725415 0
M  V30 3852 H 372.646 -1.77928 -3.03372 0
M  V30 3853 H 372.52 -0.190161 -3.7672 0
M  V30 3854 H 374.907 0.343204 -2.93097 0
M  V30 3855 H 374.988 -1.2742 -2.21806 0
M  V30 3856 H 374.632 -2.28859 -4.53416 0
M  V30 3857 H 374.562 -0.64836 -5.22593 0
M  V30 3858 H 377.053 -0.863128 -3.67911 0
M  V30 3859 H 377.366 -2.36805 -7.35624 0
M  V30 3860 H 375.711 -2.12304 -6.6178 0
M  V30 3861 H 378.902 -1.151 -4.53729 0
M  V30 3862 H 379.075 -1.83704 -6.21415 0
M  V30 3863 N 372.481 1.55866 -0.233164 0
M  V30 3864 C 373.727 1.98897 0.395959 0
M  V30 3865 C 374.06 1.12091 1.58585 0
M  V30 3866 O 373.335 0.181182 1.93654 0
M  V30 3867 C 373.618 3.50658 0.819224 0
M  V30 3868 C 373.471 4.48233 -0.375109 0
M  V30 3869 C 374.79 4.07135 1.67121 0
M  V30 3870 H 371.909 0.723102 0.142451 0
M  V30 3871 H 374.551 1.87082 -0.331725 0
M  V30 3872 H 372.701 3.60857 1.43925 0
M  V30 3873 H 374.373 4.50031 -1.01341 0
M  V30 3874 H 372.616 4.21624 -1.02058 0
M  V30 3875 H 373.287 5.51988 -0.0358328 0
M  V30 3876 H 375.763 3.99952 1.14795 0
M  V30 3877 H 374.639 5.13615 1.93625 0
M  V30 3878 H 374.9 3.54736 2.63846 0
M  V30 3879 N 373.959 -0.0401083 1.57549 0
M  V30 3880 C 374.889 -1.04384 2.08869 0
M  V30 3881 C 375.87 -1.38407 0.988817 0
M  V30 3882 O 377.055 -1.47483 1.26342 0
M  V30 3883 C 374.185 -2.34808 2.55895 0
M  V30 3884 C 373.139 -2.15057 3.70047 0
M  V30 3885 C 372.465 -3.51145 4.03239 0
M  V30 3886 C 373.765 -1.54576 4.98902 0
M  V30 3887 H 375.459 -0.616666 2.92981 0
M  V30 3888 H 373.005 -0.295184 1.40942 0
M  V30 3889 H 374.958 -3.05346 2.90417 0
M  V30 3890 H 373.682 -2.79565 1.68853 0
M  V30 3891 H 372.341 -1.46954 3.35857 0
M  V30 3892 H 371.989 -3.93529 3.13279 0
M  V30 3893 H 371.689 -3.38758 4.80122 0
M  V30 3894 H 373.213 -4.23062 4.40285 0
M  V30 3895 H 374.627 -2.15017 5.31451 0
M  V30 3896 H 373.024 -1.52796 5.80322 0
M  V30 3897 H 374.094 -0.51039 4.82206 0
M  V30 3898 N 375.437 -1.54477 -0.31217 0
M  V30 3899 C 376.387 -1.81037 -1.38598 0
M  V30 3900 C 377.371 -0.666941 -1.46426 0
M  V30 3901 O 378.563 -0.927269 -1.50767 0
M  V30 3902 C 375.692 -2.05127 -2.75277 0
M  V30 3903 C 374.778 -3.25624 -2.71716 0
M  V30 3904 N 375.169 -4.46428 -2.37773 0
M  V30 3905 C 373.467 -3.27427 -3.02833 0
M  V30 3906 C 374.168 -5.28406 -2.43232 0
M  V30 3907 N 373.144 -4.6586 -2.80135 0
M  V30 3908 H 376.946 -2.7201 -1.11301 0
M  V30 3909 H 374.46 -1.53826 -0.520705 0
M  V30 3910 H 376.457 -2.22299 -3.52688 0
M  V30 3911 H 375.117 -1.15416 -3.03495 0
M  V30 3912 H 376.128 -4.73227 -2.1042 0
M  V30 3913 H 372.805 -2.47786 -3.36018 0
M  V30 3914 H 374.195 -6.34903 -2.19882 0
M  V30 3915 N 376.915 0.57481 -1.46744 0
M  V30 3916 C 378.192 1.3352 -1.4294 0
M  V30 3917 C 378.572 2.10775 -0.117009 0
M  V30 3918 O 377.92 2.09966 0.901474 0
M  V30 3919 C 378.13 2.25456 -2.66403 0
M  V30 3920 C 379.478 2.87035 -3.12883 0
M  V30 3921 O 380.502 2.35766 -2.67007 0
M  V30 3922 O 379.361 3.80179 -3.92589 0
M  V30 3923 H 376.455 0.600318 -0.568812 0
M  V30 3924 H 379.001 0.595171 -1.58921 0
M  V30 3925 H 377.773 1.67851 -3.53471 0
M  V30 3926 H 377.396 3.06785 -2.52921 0
M  V30 3927 N 378.394 1.34581 0.820102 0
M  V30 3928 C 379.64 1.28294 1.57836 0
M  V30 3929 C 379.995 -0.145099 1.91852 0
M  V30 3930 O 379.288 -1.09209 1.57429 0
M  V30 3931 C 379.482 2.10997 2.8847 0
M  V30 3932 C 379.311 3.61698 2.67216 0
M  V30 3933 C 378.081 4.3097 2.63805 0
M  V30 3934 C 380.279 4.55638 2.38534 0
M  V30 3935 N 378.261 5.67502 2.34126 0
M  V30 3936 C 379.632 5.80194 2.18574 0
M  V30 3937 C 381.687 4.44523 2.24285 0
M  V30 3938 C 380.39 6.94886 1.8581 0
M  V30 3939 C 382.416 5.5905 1.92916 0
M  V30 3940 C 381.778 6.82627 1.73782 0
M  V30 3941 H 377.877 0.524697 0.579842 0
M  V30 3942 H 380.461 1.69323 0.961139 0
M  V30 3943 H 378.632 1.7226 3.48111 0
M  V30 3944 H 380.364 1.96333 3.53886 0
M  V30 3945 H 377.119 3.83438 2.77978 0
M  V30 3946 H 377.543 6.39525 2.22118 0
M  V30 3947 H 382.185 3.49599 2.37782 0
M  V30 3948 H 379.903 7.89789 1.7105 0
M  V30 3949 H 383.489 5.52396 1.82619 0
M  V30 3950 H 382.369 7.69748 1.49861 0
M  V30 3951 N 379.872 -1.04064 1.18357 0
M  V30 3952 C 380.835 -2.10243 0.912707 0
M  V30 3953 C 381.835 -1.60477 -0.101928 0
M  V30 3954 O 383.025 -1.73703 0.131517 0
M  V30 3955 C 380.157 -3.38893 0.369387 0
M  V30 3956 H 381.35 -2.35706 1.85426 0
M  V30 3957 H 378.903 -1.20489 0.995594 0
M  V30 3958 H 379.638 -3.19094 -0.578776 0
M  V30 3959 H 379.423 -3.76331 1.1008 0
M  V30 3960 H 380.913 -4.17128 0.198575 0
M  V30 3961 N 381.35 -0.985608 -1.22978 0
M  V30 3962 C 382.627 -0.573599 -1.87001 0
M  V30 3963 C 383.007 0.949213 -1.88555 0
M  V30 3964 O 382.355 1.82811 -1.37086 0
M  V30 3965 C 382.565 -1.18564 -3.28243 0
M  V30 3966 C 383.913 -1.28163 -4.04796 0
M  V30 3967 O 384.937 -1.13949 -3.37482 0
M  V30 3968 O 383.796 -1.50832 -5.25273 0
M  V30 3969 H 380.89 -0.193868 -0.803955 0
M  V30 3970 H 383.436 -1.08102 -1.30813 0
M  V30 3971 H 382.208 -2.22758 -3.21706 0
M  V30 3972 H 381.831 -0.663363 -3.92027 0
M  V30 3973 N 382.828 1.3818 -0.7579 0
M  V30 3974 C 384.076 1.99624 -0.315361 0
M  V30 3975 C 384.397 1.60464 1.10799 0
M  V30 3976 O 383.667 0.863507 1.75842 0
M  V30 3977 H 382.247 0.73831 -0.113611 0
M  V30 3978 H 384.909 1.68878 -0.972952 0
M  V30 3979 H 384.005 3.09754 -0.381931 0
M  V30 3980 N 384.306 0.507319 1.49211 0
M  V30 3981 C 385.253 -0.267728 2.29242 0
M  V30 3982 C 386.223 -0.954609 1.35928 0
M  V30 3983 O 387.408 -0.960046 1.64887 0
M  V30 3984 C 384.548 -1.32243 3.18756 0
M  V30 3985 C 383.661 -0.64669 4.27132 0
M  V30 3986 C 382.796 -1.68238 5.03855 0
M  V30 3987 C 381.835 -0.98885 6.0406 0
M  V30 3988 N 380.972 -1.96903 6.73924 0
M  V30 3989 H 385.812 0.420968 2.95012 0
M  V30 3990 H 383.349 0.219443 1.45454 0
M  V30 3991 H 385.307 -1.94599 3.69036 0
M  V30 3992 H 383.937 -1.97981 2.54958 0
M  V30 3993 H 382.989 0.0902926 3.80293 0
M  V30 3994 H 384.301 -0.101058 4.98698 0
M  V30 3995 H 383.455 -2.38081 5.58034 0
M  V30 3996 H 382.194 -2.26187 4.32077 0
M  V30 3997 H 381.199 -0.276222 5.49106 0
M  V30 3998 H 382.424 -0.415767 6.77826 0
M  V30 3999 H 380.37 -2.53803 6.04913 0
M  V30 4000 H 380.287 -1.47423 7.41487 0
M  V30 4001 H 381.555 -2.66015 7.32705 0
M  V30 4002 N 385.784 -1.5574 0.241426 0
M  V30 4003 C 387.024 -2.00714 -0.38644 0
M  V30 4004 C 387.388 -1.12586 -1.55526 0
M  V30 4005 O 388.589 -1.46992 -2.25048 0
M  V30 4006 C 386.86 -3.48534 -0.791128 0
M  V30 4007 S 388.419 -4.15519 -1.41029 0
M  V30 4008 H 385.237 -0.700484 -0.121834 0
M  V30 4009 H 387.839 -1.92243 0.355377 0
M  V30 4010 H 386.543 -4.10342 0.0689225 0
M  V30 4011 H 386.074 -3.6092 -1.56526 0
M  V30 4012 H 388.089 -4.16352 -2.69936 0
M  V30 4013 N 387.262 0.0317525 -1.57568 0
M  V30 4014 C 388.487 0.738664 -1.938 0
M  V30 4015 C 388.912 1.68242 -0.841208 0
M  V30 4016 O 388.27 1.80157 0.203267 0
M  V30 4017 C 388.318 1.47417 -3.29091 0
M  V30 4018 O 387.422 2.5872 -3.2115 0
M  V30 4019 H 386.763 0.198856 -0.633524 0
M  V30 4020 H 389.293 -0.0119713 -2.04596 0
M  V30 4021 H 389.303 1.84468 -3.63917 0
M  V30 4022 H 387.978 0.781988 -4.08482 0
M  V30 4023 H 386.555 2.24231 -2.97951 0
M  V30 4024 N 388.74 1.54641 0.303973 0
M  V30 4025 C 389.69 1.8177 1.37636 0
M  V30 4026 C 390.674 0.674697 1.46071 0
M  V30 4027 O 391.866 0.935251 1.50273 0
M  V30 4028 C 388.995 2.06584 2.74186 0
M  V30 4029 C 388.081 3.2706 2.69986 0
M  V30 4030 N 388.472 4.47682 2.35402 0
M  V30 4031 C 386.77 3.29028 3.01092 0
M  V30 4032 C 387.471 5.29689 2.40426 0
M  V30 4033 N 386.447 4.67339 2.7766 0
M  V30 4034 H 390.249 2.72596 1.09857 0
M  V30 4035 H 387.763 1.541 0.51254 0
M  V30 4036 H 389.76 2.24166 3.51504 0
M  V30 4037 H 388.42 1.17024 3.02879 0
M  V30 4038 H 389.431 4.74336 2.07908 0
M  V30 4039 H 386.108 2.49565 3.34699 0
M  V30 4040 H 387.498 6.3606 2.16512 0
M  V30 4041 N 390.218 -0.567019 1.47046 0
M  V30 4042 C 391.148 -1.68482 1.61667 0
M  V30 4043 C 392.129 -1.6358 0.466418 0
M  V30 4044 O 393.314 -1.81354 0.694574 0
M  V30 4045 C 390.444 -3.07124 1.62148 0
M  V30 4046 C 389.398 -3.26867 2.76301 0
M  V30 4047 C 388.724 -4.66196 2.61849 0
M  V30 4048 C 390.024 -3.13186 4.17986 0
M  V30 4049 H 391.718 -1.56502 2.5524 0
M  V30 4050 H 389.264 -0.751486 1.22836 0
M  V30 4051 H 391.217 -3.8516 1.70968 0
M  V30 4052 H 389.941 -3.2004 0.651287 0
M  V30 4053 H 388.6 -2.51237 2.66975 0
M  V30 4054 H 388.248 -4.75898 1.62879 0
M  V30 4055 H 387.948 -4.80356 3.38425 0
M  V30 4056 H 389.472 -5.46379 2.72584 0
M  V30 4057 H 390.886 -3.81049 4.2834 0
M  V30 4058 H 389.283 -3.3886 4.95272 0
M  V30 4059 H 390.353 -2.10057 4.3704 0
M  V30 4060 N 391.696 -1.35014 -0.812953 0
M  V30 4061 C 392.626 -1.30069 -1.93919 0
M  V30 4062 C 393.607 -0.176275 -1.69184 0
M  V30 4063 O 394.792 -0.370227 -1.90638 0
M  V30 4064 C 391.922 -1.06547 -3.30552 0
M  V30 4065 C 390.876 -2.15561 -3.69753 0
M  V30 4066 C 390.202 -1.77214 -5.04479 0
M  V30 4067 C 391.502 -3.57476 -3.808 0
M  V30 4068 H 393.196 -2.24303 -1.98314 0
M  V30 4069 H 390.742 -1.07977 -0.952736 0
M  V30 4070 H 392.695 -1.01729 -4.08937 0
M  V30 4071 H 391.419 -0.0875719 -3.26483 0
M  V30 4072 H 390.078 -2.19466 -2.9365 0
M  V30 4073 H 389.726 -0.780589 -4.96906 0
M  V30 4074 H 389.426 -2.50184 -5.31678 0
M  V30 4075 H 390.95 -1.7391 -5.8531 0
M  V30 4076 H 392.364 -3.55929 -4.4943 0
M  V30 4077 H 390.761 -4.29152 -4.19462 0
M  V30 4078 H 391.831 -3.94091 -2.82525 0
M  V30 4079 N 393.175 1.03435 -1.18907 0
M  V30 4080 C 394.085 2.15075 -0.937015 0
M  V30 4081 C 395.101 1.73706 0.101085 0
M  V30 4082 O 396.277 2.01232 -0.0822948 0
M  V30 4083 C 393.342 3.43458 -0.473057 0
M  V30 4084 C 392.403 3.99172 -1.57989 0
M  V30 4085 C 391.636 5.21427 -1.13797 0
M  V30 4086 O 391.859 5.704 0.000725941 0
M  V30 4087 O 390.793 5.69837 -1.9383 0
M  V30 4088 H 394.619 2.39198 -1.87131 0
M  V30 4089 H 392.204 1.13506 -0.971427 0
M  V30 4090 H 394.086 4.20811 -0.222702 0
M  V30 4091 H 392.761 3.20793 0.432869 0
M  V30 4092 H 391.668 3.23178 -1.88433 0
M  V30 4093 H 393.001 4.2619 -2.46217 0
M  V30 4094 N 394.653 0.992116 1.22453 0
M  V30 4095 C 396.069 0.702713 1.43297 0
M  V30 4096 C 396.269 -0.726909 1.87932 0
M  V30 4097 O 395.325 -1.49792 2.0327 0
M  V30 4098 C 396.638 1.70762 2.47509 0
M  V30 4099 C 398.186 1.72298 2.61309 0
M  V30 4100 C 398.661 2.71649 3.68742 0
M  V30 4101 N 400.152 2.70239 3.76199 0
M  V30 4102 C 400.887 3.43778 4.58917 0
M  V30 4103 N 400.383 4.26914 5.45633 0
M  V30 4104 N 402.176 3.32487 4.5322 0
M  V30 4105 H 394.327 1.91543 0.917871 0
M  V30 4106 H 396.59 0.826031 0.465162 0
M  V30 4107 H 396.296 2.73059 2.21657 0
M  V30 4108 H 396.17 1.49985 3.46099 0
M  V30 4109 H 398.557 0.706989 2.86506 0
M  V30 4110 H 398.638 1.97143 1.62997 0
M  V30 4111 H 398.282 3.73397 3.44292 0
M  V30 4112 H 398.212 2.44074 4.66622 0
M  V30 4113 H 400.703 2.09912 3.14237 0
M  V30 4114 H 401.016 4.79855 6.05771 0
M  V30 4115 H 399.361 4.31002 5.45218 0
M  V30 4116 H 402.552 2.6698 3.84499 0
M  V30 4117 H 402.725 3.90058 5.17454 0
M  V30 4118 N 396.131 -1.37776 0.765217 0
M  V30 4119 C 397.38 -1.99092 0.323307 0
M  V30 4120 C 397.693 -1.61434 -1.10446 0
M  V30 4121 O 398.899 -2.15805 -1.64743 0
M  V30 4122 C 397.355 -3.56019 0.527098 0
M  V30 4123 C 396.963 -4.0262 1.96471 0
M  V30 4124 C 398.707 -4.2424 0.148483 0
M  V30 4125 C 396.614 -5.52233 2.11644 0
M  V30 4126 H 395.544 -0.744846 0.117137 0
M  V30 4127 H 398.195 -1.57391 0.943417 0
M  V30 4128 H 396.577 -3.95667 -0.162372 0
M  V30 4129 H 397.751 -3.74234 2.68859 0
M  V30 4130 H 396.066 -3.47161 2.29931 0
M  V30 4131 H 398.663 -5.34159 0.240456 0
M  V30 4132 H 399.006 -4.06446 -0.900422 0
M  V30 4133 H 399.539 -3.89872 0.79025 0
M  V30 4134 H 396.278 -5.74945 3.1483 0
M  V30 4135 H 395.798 -5.82324 1.4373 0
M  V30 4136 H 397.477 -6.18106 1.91193 0
M  V30 4137 N 397.609 -0.515225 -1.4894 0
M  V30 4138 C 398.839 0.0205735 -2.0659 0
M  V30 4139 C 399.247 1.30064 -1.37405 0
M  V30 4140 O 398.59 1.78087 -0.450632 0
M  V30 4141 C 398.652 0.330124 -3.57981 0
M  V30 4142 C 398.316 -0.854295 -4.48944 0
M  V30 4143 C 399.313 -1.7487 -4.89609 0
M  V30 4144 C 396.998 -1.05712 -4.9105 0
M  V30 4145 C 398.992 -2.82996 -5.71132 0
M  V30 4146 C 396.679 -2.14154 -5.72347 0
M  V30 4147 C 397.677 -3.0263 -6.12294 0
M  V30 4148 O 397.365 -4.09198 -6.91962 0
M  V30 4149 H 397.097 -0.0236833 -0.675585 0
M  V30 4150 H 399.651 -0.715956 -1.92518 0
M  V30 4151 H 397.881 1.12044 -3.70112 0
M  V30 4152 H 399.57 0.806233 -3.97812 0
M  V30 4153 H 400.336 -1.60388 -4.57712 0
M  V30 4154 H 396.215 -0.377788 -4.59449 0
M  V30 4155 H 399.759 -3.52083 -6.02232 0
M  V30 4156 H 395.656 -2.28626 -6.03656 0
M  V30 4157 H 396.424 -4.06726 -7.10293 0
M  V30 4158 N 399.087 1.5561 -0.249682 0
M  V30 4159 C 400.037 2.18157 0.662673 0
M  V30 4160 C 401.021 1.1383 1.13717 0
M  V30 4161 O 402.213 1.39731 1.08648 0
M  V30 4162 C 399.342 2.88672 1.85805 0
M  V30 4163 C 398.428 4.00258 1.40193 0
M  V30 4164 N 398.819 5.01473 0.660213 0
M  V30 4165 C 397.117 4.12864 1.68698 0
M  V30 4166 C 397.818 5.80155 0.423695 0
M  V30 4167 N 396.794 5.34533 0.988721 0
M  V30 4168 H 400.596 2.93769 0.0878688 0
M  V30 4169 H 398.11 1.62316 -0.0521183 0
M  V30 4170 H 400.107 3.31912 2.5227 0
M  V30 4171 H 398.767 2.14564 2.43705 0
M  V30 4172 H 399.778 5.16971 0.310047 0
M  V30 4173 H 396.455 3.4993 2.27717 0
M  V30 4174 H 397.845 6.71688 -0.168616 0
M  V30 4175 N 400.565 -0.0233959 1.57583 0
M  V30 4176 C 401.793 -0.724682 1.93794 0
M  V30 4177 C 402.208 -1.68588 0.849912 0
M  V30 4178 O 401.565 -1.81676 -0.173204 0
M  V30 4179 C 401.616 -1.47684 3.29957 0
M  V30 4180 O 401.337 -0.554222 4.3458 0
M  V30 4181 C 402.838 -2.27477 3.80485 0
M  V30 4182 H 400.058 -0.203317 0.639455 0
M  V30 4183 H 402.602 0.0207653 2.04489 0
M  V30 4184 H 400.757 -2.17412 3.20641 0
M  V30 4185 H 401.171 -1.08232 5.13212 0
M  V30 4186 H 402.645 -2.7564 4.78254 0
M  V30 4187 H 403.122 -3.09144 3.11972 0
M  V30 4188 H 403.728 -1.62813 3.92902 0
M  V30 4189 N 402.043 -1.548 -0.295768 0
M  V30 4190 C 403.283 -1.76069 -1.03823 0
M  V30 4191 C 403.647 -0.537992 -1.84309 0
M  V30 4192 O 404.848 -0.628514 -2.61349 0
M  V30 4193 C 403.119 -3.01705 -1.91596 0
M  V30 4194 S 404.678 -3.43998 -2.72416 0
M  V30 4195 H 401.496 -0.618852 -0.350062 0
M  V30 4196 H 404.098 -1.93009 -0.31106 0
M  V30 4197 H 402.802 -3.88812 -1.31351 0
M  V30 4198 H 402.333 -2.87366 -2.68671 0
M  V30 4199 H 404.348 -3.0148 -3.94112 0
M  V30 4200 N 403.521 0.559213 -1.47345 0
M  V30 4201 C 404.468 1.66645 -1.59682 0
M  V30 4202 C 405.438 1.60168 -0.43994 0
M  V30 4203 O 406.623 1.79031 -0.659736 0
M  V30 4204 C 403.763 3.04969 -1.61518 0
M  V30 4205 C 402.876 3.21897 -2.88108 0
M  V30 4206 C 402.011 4.50608 -2.81294 0
M  V30 4207 C 401.05 4.60961 -4.02717 0
M  V30 4208 N 400.187 5.81024 -3.94151 0
M  V30 4209 H 405.027 1.55439 -2.54249 0
M  V30 4210 H 402.564 0.757219 -1.26113 0
M  V30 4211 H 404.522 3.85064 -1.60566 0
M  V30 4212 H 403.152 3.15015 -0.704645 0
M  V30 4213 H 402.204 2.35248 -2.98936 0
M  V30 4214 H 403.516 3.25412 -3.78032 0
M  V30 4215 H 402.67 5.3896 -2.7858 0
M  V30 4216 H 401.409 4.49568 -1.89049 0
M  V30 4217 H 400.414 3.71021 -4.05738 0
M  V30 4218 H 401.639 4.63761 -4.96087 0
M  V30 4219 H 399.585 5.80938 -3.04708 0
M  V30 4220 H 399.502 5.85909 -4.77752 0
M  V30 4221 H 400.77 6.71744 -3.9545 0
M  V30 4222 N 404.999 1.35443 0.805782 0
M  V30 4223 C 406.41 1.25768 1.37983 0
M  V30 4224 C 406.761 -0.10958 1.95894 0
M  V30 4225 O 405.886 -1.01056 1.91355 0
M  V30 4226 C 406.481 2.27727 2.5085 0
M  V30 4227 C 405.04 2.2179 3.04115 0
M  V30 4228 C 404.187 2.13393 1.77084 0
M  V30 4229 H 407.138 1.4656 0.608752 0
M  V30 4230 H 407.159 1.90422 3.29424 0
M  V30 4231 H 406.671 3.27227 2.08671 0
M  V30 4232 H 404.772 1.25703 3.50756 0
M  V30 4233 H 404.885 3.13788 3.62042 0
M  V30 4234 H 403.249 1.59384 1.98668 0
M  V30 4235 H 404.032 3.14755 1.37056 0
M  V30 4236 N 406.477 -1.02803 1.19454 0
M  V30 4237 C 407.725 -1.75869 0.995722 0
M  V30 4238 C 408.046 -1.89138 -0.474543 0
M  V30 4239 O 407.316 -1.42558 -1.34366 0
M  V30 4240 H 405.896 -0.651511 0.365435 0
M  V30 4241 H 408.558 -1.24004 1.50363 0
M  V30 4242 H 407.654 -2.76661 1.44447 0
M  V30 4243 N 407.956 -0.998596 -1.21925 0
M  V30 4244 C 409.204 -0.676325 -1.90448 0
M  V30 4245 C 409.525 0.794719 -1.78071 0
M  V30 4246 O 408.795 1.5701 -1.17152 0
M  V30 4247 H 407.375 -0.247165 -0.704925 0
M  V30 4248 H 410.037 -1.26633 -1.48156 0
M  V30 4249 H 409.133 -0.943858 -2.97486 0
M  V30 4250 N 409.434 1.37368 -0.772513 0
M  V30 4251 C 410.682 1.99279 -0.336516 0
M  V30 4252 C 411.003 1.6163 1.09091 0
M  V30 4253 O 410.273 0.882109 1.74916 0
M  V30 4254 H 408.853 0.737063 -0.121435 0
M  V30 4255 H 411.515 1.67836 -0.990809 0
M  V30 4256 H 410.611 3.09332 -0.414763 0
M  V30 4257 N 410.912 0.523116 1.48665 0
M  V30 4258 C 412.161 -0.01544 2.01694 0
M  V30 4259 C 412.474 -1.35975 1.40606 0
M  V30 4260 O 413.68 -1.98627 1.85093 0
M  V30 4261 C 412.136 -0.0779303 3.59816 0
M  V30 4262 C 411.744 1.26107 4.29885 0
M  V30 4263 C 413.488 -0.565678 4.20714 0
M  V30 4264 C 411.395 1.15954 5.79921 0
M  V30 4265 H 410.325 -0.00954163 0.75394 0
M  V30 4266 H 412.976 0.665865 1.70993 0
M  V30 4267 H 411.358 -0.824165 3.87329 0
M  V30 4268 H 412.532 2.02233 4.14051 0
M  V30 4269 H 410.847 1.68401 3.80828 0
M  V30 4270 H 413.444 -0.6595 5.30617 0
M  V30 4271 H 413.787 -1.56984 3.85567 0
M  V30 4272 H 414.32 0.12467 3.97605 0
M  V30 4273 H 411.059 2.13864 6.19631 0
M  V30 4274 H 410.579 0.439529 5.98187 0
M  V30 4275 H 412.258 0.847361 6.41427 0
M  V30 4276 N 412.39 -1.55475 0.257931 0
M  V30 4277 C 413.32 -2.24815 -0.630912 0
M  V30 4278 C 414.301 -1.23224 -1.17259 0
M  V30 4279 O 415.486 -1.51904 -1.20991 0
M  V30 4280 C 412.616 -2.95609 -1.82298 0
M  V30 4281 C 411.57 -4.03982 -1.41359 0
M  V30 4282 C 410.896 -4.6226 -2.68738 0
M  V30 4283 C 412.196 -5.19109 -0.57648 0
M  V30 4284 H 413.89 -2.99354 -0.0526878 0
M  V30 4285 H 411.436 -1.4398 -0.023901 0
M  V30 4286 H 413.389 -3.42822 -2.45054 0
M  V30 4287 H 412.113 -2.18577 -2.42676 0
M  V30 4288 H 410.772 -3.57555 -0.809324 0
M  V30 4289 H 410.42 -3.81915 -3.27338 0
M  V30 4290 H 410.12 -5.35424 -2.42065 0
M  V30 4291 H 411.644 -5.12212 -3.32372 0
M  V30 4292 H 413.058 -5.62479 -1.10861 0
M  V30 4293 H 411.455 -5.98729 -0.405351 0
M  V30 4294 H 412.525 -4.83174 0.408776 0
M  V30 4295 N 413.868 0.0150385 -1.57593 0
M  V30 4296 C 415.114 0.704043 -1.90187 0
M  V30 4297 C 415.447 1.74249 -0.857366 0
M  V30 4298 O 414.722 1.94092 0.125843 0
M  V30 4299 C 415.005 1.36087 -3.33395 0
M  V30 4300 C 414.858 0.334981 -4.48551 0
M  V30 4301 C 416.177 2.29112 -3.7576 0
M  V30 4302 H 413.296 0.254475 -0.691673 0
M  V30 4303 H 415.938 -0.0331678 -1.89971 0
M  V30 4304 H 414.088 1.98922 -3.3371 0
M  V30 4305 H 415.76 -0.292534 -4.60372 0
M  V30 4306 H 414.003 -0.344325 -4.32431 0
M  V30 4307 H 414.674 0.833316 -5.45674 0
M  V30 4308 H 417.15 1.76308 -3.76902 0
M  V30 4309 H 416.026 2.72043 -4.76743 0
M  V30 4310 H 416.287 3.16385 -3.08793 0
M  V30 4311 N 415.346 1.54954 0.287554 0
M  V30 4312 C 416.595 1.74081 1.01877 0
M  V30 4313 C 416.908 0.541135 1.87966 0
M  V30 4314 O 418.114 0.614491 2.64455 0
M  V30 4315 C 416.57 3.08042 1.86113 0
M  V30 4316 C 416.178 4.35531 1.04961 0
M  V30 4317 C 417.922 3.36523 2.58752 0
M  V30 4318 C 415.829 5.60538 1.88551 0
M  V30 4319 H 414.759 0.64884 0.384087 0
M  V30 4320 H 417.41 1.81426 0.275101 0
M  V30 4321 H 415.792 2.94696 2.64519 0
M  V30 4322 H 416.966 4.59751 0.31074 0
M  V30 4323 H 415.281 4.14085 0.43843 0
M  V30 4324 H 417.878 4.27122 3.21668 0
M  V30 4325 H 418.221 2.56 3.28283 0
M  V30 4326 H 418.754 3.50901 1.87386 0
M  V30 4327 H 415.493 6.43767 1.23466 0
M  V30 4328 H 415.013 5.40483 2.60074 0
M  V30 4329 H 416.692 5.98297 2.46273 0
M  V30 4330 N 416.824 -0.551391 1.4764 0
M  V30 4331 C 417.734 -1.68525 1.63207 0
M  V30 4332 C 418.75 -1.6621 0.514815 0
M  V30 4333 O 419.926 -1.85551 0.783113 0
M  V30 4334 C 416.991 -3.05025 1.64805 0
M  V30 4335 C 416.052 -3.18362 2.88 0
M  V30 4336 C 415.285 -4.4835 2.89513 0
M  V30 4337 O 415.508 -5.34163 2.00065 0
M  V30 4338 O 414.442 -4.65602 3.81443 0
M  V30 4339 H 418.268 -1.58333 2.59161 0
M  V30 4340 H 415.853 -0.722063 1.30792 0
M  V30 4341 H 417.735 -3.86245 1.68502 0
M  V30 4342 H 416.41 -3.15587 0.720197 0
M  V30 4343 H 415.317 -2.36518 2.89845 0
M  V30 4344 H 416.65 -3.12707 3.80099 0
M  V30 4345 N 418.302 -1.35869 -0.798587 0
M  V30 4346 C 419.527 -1.32883 -1.59238 0
M  V30 4347 C 419.952 0.0894587 -1.87887 0
M  V30 4348 O 419.31 1.05869 -1.47178 0
M  V30 4349 C 419.358 -2.14892 -2.89575 0
M  V30 4350 O 418.462 -1.53512 -3.82763 0
M  V30 4351 H 417.803 -0.455236 -0.48338 0
M  V30 4352 H 420.333 -1.79024 -0.990539 0
M  V30 4353 H 420.343 -2.27139 -3.38928 0
M  V30 4354 H 419.018 -3.17998 -2.68049 0
M  V30 4355 H 417.595 -1.50153 -3.41334 0
M  V30 4356 N 419.78 1.02168 -1.19998 0
M  V30 4357 C 420.71 2.12488 -0.96804 0
M  V30 4358 C 421.691 1.69799 0.101185 0
M  V30 4359 O 422.876 1.94121 -0.0552993 0
M  V30 4360 C 420.006 3.43479 -0.513776 0
M  V30 4361 C 418.96 3.99884 -1.52566 0
M  V30 4362 C 418.286 5.26582 -0.928214 0
M  V30 4363 C 419.586 4.33861 -2.90795 0
M  V30 4364 H 421.28 2.32149 -1.89069 0
M  V30 4365 H 418.826 1.11564 -0.910468 0
M  V30 4366 H 420.779 4.20036 -0.338774 0
M  V30 4367 H 419.503 3.23561 0.444493 0
M  V30 4368 H 418.162 3.25429 -1.68794 0
M  V30 4369 H 417.81 5.02986 0.0378289 0
M  V30 4370 H 417.51 5.65284 -1.60397 0
M  V30 4371 H 419.034 6.05799 -0.764167 0
M  V30 4372 H 420.448 5.01327 -2.78109 0
M  V30 4373 H 418.845 4.83664 -3.55231 0
M  V30 4374 H 419.915 3.42848 -3.42904 0
M  V30 4375 N 421.258 1.00505 1.21394 0
M  V30 4376 C 422.188 0.585684 2.26035 0
M  V30 4377 C 423.169 -0.393525 1.65485 0
M  V30 4378 O 424.354 -0.281497 1.92149 0
M  V30 4379 C 421.484 -0.0884283 3.47187 0
M  V30 4380 C 420.438 0.810567 4.20254 0
M  V30 4381 C 419.764 0.00286382 5.347 0
M  V30 4382 C 421.064 2.1132 4.77641 0
M  V30 4383 H 422.758 1.46039 2.61368 0
M  V30 4384 H 420.304 0.703648 1.25638 0
M  V30 4385 H 422.257 -0.393286 4.19561 0
M  V30 4386 H 420.981 -0.997766 3.10986 0
M  V30 4387 H 419.64 1.09925 3.49731 0
M  V30 4388 H 419.288 -0.907765 4.94741 0
M  V30 4389 H 418.988 0.601444 5.84514 0
M  V30 4390 H 420.512 -0.295808 6.09883 0
M  V30 4391 H 421.926 1.87148 5.41893 0
M  V30 4392 H 420.323 2.66164 5.37845 0
M  V30 4393 H 421.393 2.78393 3.9702 0
M  V30 4394 N 422.737 -1.36956 0.779787 0
M  V30 4395 C 424.014 -1.93697 0.272156 0
M  V30 4396 C 424.394 -1.71267 -1.23413 0
M  V30 4397 O 423.742 -1.06607 -2.02107 0
M  V30 4398 C 423.952 -3.42812 0.654291 0
M  V30 4399 C 425.3 -4.19921 0.628602 0
M  V30 4400 O 426.324 -3.51209 0.594172 0
M  V30 4401 O 425.183 -5.42465 0.662864 0
M  V30 4402 H 422.277 -0.824447 0.0649286 0
M  V30 4403 H 424.823 -1.46196 0.861682 0
M  V30 4404 H 423.595 -3.52754 1.69353 0
M  V30 4405 H 423.218 -3.97582 0.0381369 0
M  V30 4406 N 424.215 -0.530993 -1.48385 0
M  V30 4407 C 425.125 0.23503 -2.3342 0
M  V30 4408 C 426.141 0.93801 -1.46552 0
M  V30 4409 O 427.317 0.912745 -1.7953 0
M  V30 4410 C 424.382 1.26778 -3.22689 0
M  V30 4411 C 423.443 0.575038 -4.25431 0
M  V30 4412 C 422.676 1.55858 -5.10435 0
M  V30 4413 O 422.899 2.79129 -4.97437 0
M  V30 4414 O 421.833 1.09742 -5.91811 0
M  V30 4415 H 425.659 -0.461794 -3.00169 0
M  V30 4416 H 423.244 -0.291903 -1.46521 0
M  V30 4417 H 425.126 1.86457 -3.77904 0
M  V30 4418 H 423.801 1.94699 -2.586 0
M  V30 4419 H 422.708 -0.0622782 -3.74048 0
M  V30 4420 H 424.041 -0.062253 -4.92161 0
M  V30 4421 N 425.693 1.55336 -0.266172 0
M  V30 4422 C 426.97 1.91372 0.404486 0
M  V30 4423 C 427.35 1.18935 1.74407 0
M  V30 4424 O 426.698 0.3132 2.26343 0
M  V30 4425 C 426.908 3.44581 0.553593 0
M  V30 4426 C 428.256 4.16196 0.840618 0
M  V30 4427 O 429.28 3.50426 0.638739 0
M  V30 4428 O 428.139 5.32567 1.22618 0
M  V30 4429 H 425.233 0.797194 0.220025 0
M  V30 4430 H 427.779 1.66813 -0.311664 0
M  V30 4431 H 426.551 3.89357 -0.389498 0
M  V30 4432 H 426.174 3.75065 1.31955 0
M  V30 4433 N 427.171 -0.0066808 1.57599 0
M  V30 4434 C 428.587 -0.36267 1.55425 0
M  V30 4435 C 428.787 -1.75209 0.995187 0
M  V30 4436 O 427.843 -2.44616 0.626058 0
M  V30 4437 C 429.156 -0.244017 2.99708 0
M  V30 4438 C 430.704 -0.319451 3.11366 0
M  V30 4439 C 431.179 -0.229998 4.57422 0
M  V30 4440 N 432.67 -0.288105 4.62303 0
M  V30 4441 C 433.405 -0.242127 5.72889 0
M  V30 4442 N 432.901 -0.147133 6.92644 0
M  V30 4443 N 434.694 -0.293502 5.61333 0
M  V30 4444 H 426.845 0.902314 1.92281 0
M  V30 4445 H 429.108 0.34525 0.882896 0
M  V30 4446 H 428.814 0.711678 3.44424 0
M  V30 4447 H 428.688 -1.02877 3.629 0
M  V30 4448 H 431.075 -1.26559 2.66584 0
M  V30 4449 H 431.156 0.495055 2.50964 0
M  V30 4450 H 430.8 0.712566 5.02877 0
M  V30 4451 H 430.73 -1.0629 5.15761 0
M  V30 4452 H 433.221 -0.363126 3.76151 0
M  V30 4453 H 433.534 -0.117763 7.7271 0
M  V30 4454 H 431.879 -0.112857 6.94908 0
M  V30 4455 H 435.07 -0.365864 4.66668 0
M  V30 4456 H 435.243 -0.254204 6.47501 0
M  V30 4457 N 428.649 -1.55105 -0.279332 0
M  V30 4458 C 430.065 -1.46803 -0.626187 0
M  V30 4459 C 430.265 -0.676939 -1.89789 0
M  V30 4460 O 429.321 -0.19326 -2.51759 0
M  V30 4461 C 430.634 -2.90962 -0.759034 0
M  V30 4462 C 432.182 -3.01138 -0.853504 0
M  V30 4463 C 432.657 -4.46539 -1.01818 0
M  V30 4464 N 434.148 -4.50341 -1.08386 0
M  V30 4465 C 434.883 -5.60053 -1.22996 0
M  V30 4466 N 434.379 -6.79645 -1.34366 0
M  V30 4467 N 436.172 -5.47783 -1.26056 0
M  V30 4468 H 428.323 -2.04996 0.555921 0
M  V30 4469 H 430.586 -0.929325 0.187239 0
M  V30 4470 H 430.292 -3.51544 0.104852 0
M  V30 4471 H 430.166 -3.39619 -1.64131 0
M  V30 4472 H 432.553 -2.40658 -1.70786 0
M  V30 4473 H 432.634 -2.55745 0.0532466 0
M  V30 4474 H 432.278 -5.0762 -0.168504 0
M  V30 4475 H 432.208 -4.89583 -1.93948 0
M  V30 4476 H 434.699 -3.64191 -1.00864 0
M  V30 4477 H 435.012 -7.59012 -1.4533 0
M  V30 4478 H 433.357 -6.82469 -1.31382 0
M  V30 4479 H 436.548 -4.53294 -1.168 0
M  V30 4480 H 436.721 -6.33331 -1.37098 0
M  V30 4481 N 430.127 0.543554 -1.4793 0
M  V30 4482 C 431.375 1.29752 -1.54948 0
M  V30 4483 C 431.696 1.93764 -0.219242 0
M  V30 4484 O 430.966 1.80639 0.75805 0
M  V30 4485 H 429.546 0.481874 -0.570795 0
M  V30 4486 H 432.208 0.633636 -1.84312 0
M  V30 4487 H 431.304 2.08392 -2.32334 0
M  V30 4488 N 431.605 1.3629 0.791371 0
M  V30 4489 C 433.016 1.27225 1.36641 0
M  V30 4490 C 433.367 -0.0887968 1.95999 0
M  V30 4491 O 432.492 -0.990207 1.92416 0
M  V30 4492 C 433.087 2.30375 2.48421 0
M  V30 4493 C 431.646 2.25004 3.01746 0
M  V30 4494 C 430.793 2.15259 1.7481 0
M  V30 4495 H 433.744 1.47198 0.593173 0
M  V30 4496 H 433.765 1.93905 3.27385 0
M  V30 4497 H 433.277 3.29422 2.05189 0
M  V30 4498 H 431.378 1.29417 3.49403 0
M  V30 4499 H 431.491 3.1761 3.58693 0
M  V30 4500 H 429.855 1.61482 1.96966 0
M  V30 4501 H 430.638 3.16191 1.33709 0
M  V30 4502 N 433.083 -1.0153 1.20538 0
M  V30 4503 C 434.013 -2.11972 0.979295 0
M  V30 4504 C 434.994 -1.6985 -0.0921787 0
M  V30 4505 O 436.179 -1.94089 0.0655932 0
M  V30 4506 C 433.309 -3.43201 0.531984 0
M  V30 4507 C 432.263 -3.9907 1.54685 0
M  V30 4508 C 431.589 -5.26082 0.956127 0
M  V30 4509 C 432.889 -4.32313 2.93092 0
M  V30 4510 H 434.583 -2.31143 1.90298 0
M  V30 4511 H 432.129 -1.11079 0.916372 0
M  V30 4512 H 434.082 -4.1985 0.361044 0
M  V30 4513 H 432.806 -3.23792 -0.427327 0
M  V30 4514 H 431.465 -3.2453 1.70517 0
M  V30 4515 H 431.113 -5.02999 -0.0111538 0
M  V30 4516 H 430.813 -5.64426 1.63393 0
M  V30 4517 H 432.337 -6.05386 0.796284 0
M  V30 4518 H 433.751 -4.99845 2.80763 0
M  V30 4519 H 432.148 -4.81774 3.57791 0
M  V30 4520 H 433.218 -3.41025 3.44717 0
M  V30 4521 N 434.561 -1.01147 -1.20859 0
M  V30 4522 C 435.491 -0.597663 -2.25722 0
M  V30 4523 C 436.472 0.384744 -1.65692 0
M  V30 4524 O 437.657 0.271303 -1.92296 0
M  V30 4525 C 434.787 0.0700149 -3.47229 0
M  V30 4526 C 433.741 -0.832843 -4.19819 0
M  V30 4527 C 433.067 -0.0312202 -5.34691 0
M  V30 4528 C 434.367 -2.1385 -4.76514 0
M  V30 4529 H 436.061 -1.47423 -2.60589 0
M  V30 4530 H 433.607 -0.710301 -1.25263 0
M  V30 4531 H 435.56 0.37103 -4.19763 0
M  V30 4532 H 434.284 0.981259 -3.11511 0
M  V30 4533 H 432.943 -1.11778 -3.49144 0
M  V30 4534 H 432.591 0.881515 -4.95215 0
M  V30 4535 H 432.291 -0.632434 -5.84187 0
M  V30 4536 H 433.815 0.26346 -6.10031 0
M  V30 4537 H 435.229 -1.9002 -5.40893 0
M  V30 4538 H 433.626 -2.69012 -5.36426 0
M  V30 4539 H 434.696 -2.80495 -3.95538 0
M  V30 4540 N 436.039 1.36541 -0.78704 0
M  V30 4541 C 437.267 2.03561 -0.370199 0
M  V30 4542 C 437.682 1.59347 1.01263 0
M  V30 4543 O 437.039 0.781781 1.64907 0
M  V30 4544 C 437.09 3.59033 -0.421614 0
M  V30 4545 O 436.811 4.01634 -1.7499 0
M  V30 4546 C 438.312 4.433 0.00489763 0
M  V30 4547 H 435.532 0.653346 -0.152904 0
M  V30 4548 H 438.076 1.74566 -1.06522 0
M  V30 4549 H 436.231 3.86746 0.224971 0
M  V30 4550 H 436.645 4.96217 -1.69909 0
M  V30 4551 H 438.119 5.51939 -0.0822184 0
M  V30 4552 H 438.596 4.26285 1.05723 0
M  V30 4553 H 439.202 4.20843 -0.614085 0
M  V30 4554 N 437.518 0.538854 1.48102 0
M  V30 4555 C 438.45 -0.256278 2.27763 0
M  V30 4556 C 439.463 -0.89633 1.35904 0
M  V30 4557 O 440.652 -0.773275 1.60881 0
M  V30 4558 C 437.752 -1.37896 3.09577 0
M  V30 4559 C 436.925 -0.839159 4.29275 0
M  V30 4560 C 435.984 -1.84405 4.9283 0
M  V30 4561 O 435.01 -1.39746 5.51779 0
M  V30 4562 N 436.212 -3.17666 4.85869 0
M  V30 4563 H 438.977 0.426968 2.96643 0
M  V30 4564 H 436.538 0.373747 1.57527 0
M  V30 4565 H 438.53 -2.04955 3.48963 0
M  V30 4566 H 437.1 -1.96572 2.4306 0
M  V30 4567 H 436.32 0.00769287 3.94199 0
M  V30 4568 H 437.608 -0.457548 5.06739 0
M  V30 4569 H 437.006 -3.56609 4.39143 0
M  V30 4570 H 435.563 -3.80334 5.29329 0
M  V30 4571 N 438.996 -1.55193 0.274407 0
M  V30 4572 C 439.926 -2.25471 -0.607032 0
M  V30 4573 C 440.907 -1.24461 -1.15946 0
M  V30 4574 O 442.092 -1.53179 -1.19373 0
M  V30 4575 C 439.222 -2.97526 -1.79153 0
M  V30 4576 C 438.176 -4.05459 -1.37067 0
M  V30 4577 C 437.502 -4.65084 -2.6382 0
M  V30 4578 C 438.802 -5.19691 -0.521389 0
M  V30 4579 H 440.496 -2.99393 -0.0209343 0
M  V30 4580 H 438.042 -1.43997 -0.00862866 0
M  V30 4581 H 439.995 -3.45402 -2.41404 0
M  V30 4582 H 438.719 -2.21138 -2.40344 0
M  V30 4583 H 437.378 -3.58393 -0.771355 0
M  V30 4584 H 437.026 -3.85365 -3.23268 0
M  V30 4585 H 436.726 -5.37961 -2.36372 0
M  V30 4586 H 438.25 -5.15708 -3.26921 0
M  V30 4587 H 439.664 -5.63623 -1.04889 0
M  V30 4588 H 438.061 -5.99126 -0.341825 0
M  V30 4589 H 439.131 -4.82713 0.46 0
M  V30 4590 N 440.474 -0.00167713 -1.576 0
M  V30 4591 C 441.704 0.692754 -1.94639 0
M  V30 4592 C 442.112 1.67744 -0.87513 0
M  V30 4593 O 441.455 1.8305 0.154382 0
M  V30 4594 C 441.517 1.47881 -3.27676 0
M  V30 4595 C 441.181 0.655518 -4.52274 0
M  V30 4596 C 442.178 -0.0575214 -5.19868 0
M  V30 4597 C 439.863 0.600994 -4.98692 0
M  V30 4598 C 441.857 -0.814052 -6.3218 0
M  V30 4599 C 439.544 -0.15926 -6.10892 0
M  V30 4600 C 440.542 -0.865515 -6.77494 0
M  V30 4601 O 440.23 -1.61336 -7.87544 0
M  V30 4602 H 439.962 0.197792 -0.646417 0
M  V30 4603 H 442.516 -0.049423 -2.05341 0
M  V30 4604 H 440.746 2.2655 -3.13388 0
M  V30 4605 H 442.435 2.05874 -3.49816 0
M  V30 4606 H 443.201 -0.0245611 -4.84994 0
M  V30 4607 H 439.08 1.14025 -4.46676 0
M  V30 4608 H 442.624 -1.36584 -6.84098 0
M  V30 4609 H 438.521 -0.194035 -6.45208 0
M  V30 4610 H 439.289 -1.53025 -8.04068 0
M  V30 4611 N 441.952 1.55251 0.271103 0
M  V30 4612 C 443.177 1.80306 1.02491 0
M  V30 4613 C 443.602 0.575457 1.79081 0
M  V30 4614 O 442.96 -0.474987 1.74967 0
M  V30 4615 C 443.008 3.02832 1.95768 0
M  V30 4616 O 442.112 2.78051 3.04568 0
M  V30 4617 H 441.453 0.595896 0.292923 0
M  V30 4618 H 443.983 2.02397 0.299436 0
M  V30 4619 H 443.993 3.31616 2.37686 0
M  V30 4620 H 442.668 3.9183 1.39434 0
M  V30 4621 H 441.245 2.60369 2.66951 0
M  V30 4622 N 443.43 -0.535701 1.48216 0
M  V30 4623 C 444.36 -1.65014 1.65204 0
M  V30 4624 C 445.341 -1.62554 0.501011 0
M  V30 4625 O 446.526 -1.7984 0.732886 0
M  V30 4626 C 443.656 -3.03616 1.68626 0
M  V30 4627 C 442.61 -3.20932 2.83172 0
M  V30 4628 C 441.936 -4.60537 2.71679 0
M  V30 4629 C 443.236 -3.04249 4.24535 0
M  V30 4630 H 444.93 -1.51053 2.58502 0
M  V30 4631 H 442.476 -0.725262 1.24402 0
M  V30 4632 H 444.429 -3.81446 1.79099 0
M  V30 4633 H 443.153 -3.18587 0.719026 0
M  V30 4634 H 441.812 -2.45517 2.72244 0
M  V30 4635 H 441.46 -4.72336 1.72937 0
M  V30 4636 H 441.16 -4.73069 3.48538 0
M  V30 4637 H 442.684 -5.40475 2.84112 0
M  V30 4638 H 444.098 -3.71877 4.36326 0
M  V30 4639 H 442.495 -3.28278 5.02348 0
M  V30 4640 H 443.565 -2.00739 4.41397 0
M  V30 4641 N 444.908 -1.36708 -0.784132 0
M  V30 4642 C 445.856 -1.31533 -1.91838 0
M  V30 4643 C 446.85 -0.206205 -1.6814 0
M  V30 4644 O 448.056 -0.373519 -1.76082 0
M  V30 4645 H 444.431 -0.409613 -0.630651 0
M  V30 4646 H 446.402 -2.2731 -1.9332 0
M  V30 4647 C 445.151 -1.12679 -3.28936 0
M  V30 4648 H 444.474 -1.97274 -3.4774 0
M  V30 4649 H 445.914 -1.13106 -4.08636 0
M  V30 4650 C 444.373 0.168281 -3.36479 0
M  V30 4651 O 444.903 1.15625 -3.84699 0
M  V30 4652 N 443.109 0.214762 -2.89805 0
M  V30 4653 H 442.656 -0.589852 -2.50756 0
M  V30 4654 H 442.614 1.08094 -2.95234 0
M  V30 4655 N 446.386 1.0089 -1.21074 0
M  V30 4656 C 447.319 2.09279 -0.909806 0
M  V30 4657 C 448.297 1.61986 0.141145 0
M  V30 4658 O 449.481 1.88495 0.0130332 0
M  V30 4659 C 446.608 3.36723 -0.365374 0
M  V30 4660 C 445.654 4.02919 -1.39852 0
M  V30 4661 S 446.487 4.45835 -2.96633 0
M  V30 4662 C 447.643 5.76471 -2.43786 0
M  V30 4663 H 447.876 2.34484 -1.82769 0
M  V30 4664 H 445.409 1.14115 -1.04006 0
M  V30 4665 H 447.367 4.10459 -0.0578203 0
M  V30 4666 H 446.028 3.09577 0.531136 0
M  V30 4667 H 445.221 4.94634 -0.967117 0
M  V30 4668 H 444.823 3.35441 -1.65395 0
M  V30 4669 H 447.115 6.52027 -1.84029 0
M  V30 4670 H 448.058 6.24418 -3.33928 0
M  V30 4671 H 448.466 5.33104 -1.85636 0
M  V30 4672 N 447.864 1.01787 1.20321 0
M  V30 4673 C 448.794 0.609625 2.25401 0
M  V30 4674 C 449.775 -0.375951 1.65893 0
M  V30 4675 O 450.96 -0.261101 1.92437 0
M  V30 4676 C 448.09 -0.0515995 3.47262 0
M  V30 4677 C 447.044 0.855095 4.19371 0
M  V30 4678 C 446.37 0.0595757 5.34667 0
M  V30 4679 C 447.67 2.16374 4.75373 0
M  V30 4680 H 449.364 1.48803 2.59804 0
M  V30 4681 H 446.91 0.716934 1.24884 0
M  V30 4682 H 448.863 -0.348764 4.19954 0
M  V30 4683 H 447.587 -0.964726 3.12027 0
M  V30 4684 H 446.246 1.13628 3.48546 0
M  V30 4685 H 445.894 -0.85524 4.95676 0
M  V30 4686 H 445.594 0.663406 5.83843 0
M  V30 4687 H 447.118 -0.231105 6.10162 0
M  V30 4688 H 448.532 1.92885 5.39878 0
M  V30 4689 H 446.929 2.71853 5.34991 0
M  V30 4690 H 447.999 2.82589 3.94045 0
M  V30 4691 N 449.342 -1.36122 0.79427 0
M  V30 4692 C 450.588 -1.99406 0.369452 0
M  V30 4693 C 450.921 -1.62886 -1.05743 0
M  V30 4694 O 450.196 -0.886053 -1.73145 0
M  V30 4695 C 450.479 -3.56046 0.538833 0
M  V30 4696 C 450.332 -4.02404 2.00976 0
M  V30 4697 C 451.651 -4.40079 -0.0431359 0
M  V30 4698 H 448.77 -0.724397 0.135712 0
M  V30 4699 H 451.412 -1.61461 1.00151 0
M  V30 4700 H 449.562 -3.885 0.000771004 0
M  V30 4701 H 451.234 -3.80415 2.60926 0
M  V30 4702 H 449.477 -3.53765 2.51063 0
M  V30 4703 H 450.148 -5.11344 2.07922 0
M  V30 4704 H 452.624 -4.14013 0.416228 0
M  V30 4705 H 451.5 -5.48799 0.105374 0
M  V30 4706 H 451.761 -4.27264 -1.13571 0
M  V30 4707 N 450.82 -0.546701 -1.47814 0
M  V30 4708 C 451.752 0.244196 -2.27895 0
M  V30 4709 C 452.765 0.88911 -1.36377 0
M  V30 4710 O 453.954 0.764733 -1.61289 0
M  V30 4711 C 451.054 1.36252 -3.10304 0
M  V30 4712 C 450.227 0.816382 -4.29714 0
M  V30 4713 C 449.286 1.81789 -4.93801 0
M  V30 4714 O 448.312 1.36818 -5.52512 0
M  V30 4715 N 449.514 3.15085 -4.87547 0
M  V30 4716 H 452.279 -0.442694 -2.96412 0
M  V30 4717 H 449.84 -0.382095 -1.57327 0
M  V30 4718 H 451.832 2.03102 -3.50045 0
M  V30 4719 H 450.402 1.95281 -2.44099 0
M  V30 4720 H 449.622 -0.0285981 -3.9419 0
M  V30 4721 H 450.91 0.430668 -5.06974 0
M  V30 4722 H 450.308 3.54275 -4.41028 0
M  V30 4723 H 448.865 3.77522 -5.31339 0
M  V30 4724 N 452.299 1.55045 -0.282633 0
M  V30 4725 C 453.527 2.04168 0.33512 0
M  V30 4726 C 453.942 1.16071 1.48906 0
M  V30 4727 O 453.299 0.182391 1.81586 0
M  V30 4728 C 453.35 3.52332 0.808957 0
M  V30 4729 O 453.071 4.37078 -0.299038 0
M  V30 4730 C 454.572 4.17375 1.49375 0
M  V30 4731 H 451.792 0.666744 0.0754543 0
M  V30 4732 H 454.336 2.00205 -0.416918 0
M  V30 4733 H 452.491 3.56715 1.51106 0
M  V30 4734 H 452.905 5.24458 0.0665514 0
M  V30 4735 H 454.379 5.22627 1.77664 0
M  V30 4736 H 454.856 3.65999 2.42778 0
M  V30 4737 H 455.462 4.17016 0.835305 0
M  V30 4738 N 453.777 0.010035 1.57597 0
M  V30 4739 C 454.687 -0.994226 2.12491 0
M  V30 4740 C 455.703 -1.37013 1.07254 0
M  V30 4741 O 456.879 -1.45542 1.3921 0
M  V30 4742 C 453.944 -2.2642 2.62555 0
M  V30 4743 C 453.005 -1.95049 3.82432 0
M  V30 4744 C 452.238 -3.15991 4.30099 0
M  V30 4745 O 452.461 -4.28015 3.7704 0
M  V30 4746 O 451.395 -2.99403 5.22151 0
M  V30 4747 H 455.221 -0.557549 2.98538 0
M  V30 4748 H 452.806 -0.209413 1.47925 0
M  V30 4749 H 454.688 -3.01009 2.9491 0
M  V30 4750 H 453.363 -2.69306 1.796 0
M  V30 4751 H 452.27 -1.17904 3.55034 0
M  V30 4752 H 453.603 -1.56992 4.66491 0
M  V30 4753 N 455.255 -1.55392 -0.262866 0
M  V30 4754 C 456.503 -1.76127 -0.991147 0
M  V30 4755 C 456.824 -0.571083 -1.8645 0
M  V30 4756 O 456.094 0.413698 -1.91482 0
M  V30 4757 H 454.674 -0.649528 -0.368948 0
M  V30 4758 H 457.336 -1.9281 -0.284655 0
M  V30 4759 H 456.432 -2.6663 -1.62219 0
M  V30 4760 N 456.733 0.527833 -1.48498 0
M  V30 4761 C 457.665 1.6482 -1.5927 0
M  V30 4762 C 458.678 1.55659 -0.476869 0
M  V30 4763 O 459.867 1.62081 -0.747806 0
M  V30 4764 C 456.967 3.0348 -1.50842 0
M  V30 4765 C 456.14 3.381 -2.77502 0
M  V30 4766 C 455.199 4.5605 -2.62497 0
M  V30 4767 O 454.225 4.59165 -3.36387 0
M  V30 4768 N 455.427 5.54353 -1.72257 0
M  V30 4769 H 458.192 1.56015 -2.55889 0
M  V30 4770 H 455.753 0.715152 -1.45249 0
M  V30 4771 H 457.745 3.80264 -1.38496 0
M  V30 4772 H 456.315 3.06352 -0.621887 0
M  V30 4773 H 455.535 2.50473 -3.04396 0
M  V30 4774 H 456.823 3.58017 -3.61527 0
M  V30 4775 H 456.221 5.54617 -1.11431 0
M  V30 4776 H 454.778 6.30347 -1.65849 0
M  V30 4777 N 458.211 1.37122 0.776871 0
M  V30 4778 C 459.121 1.34651 1.9211 0
M  V30 4779 C 460.137 0.246824 1.7224 0
M  V30 4780 O 461.313 0.48134 1.95563 0
M  V30 4781 C 458.378 1.14748 3.2716 0
M  V30 4782 C 457.439 2.34308 3.5972 0
M  V30 4783 C 456.672 2.15345 4.88326 0
M  V30 4784 O 456.895 1.13507 5.58992 0
M  V30 4785 O 455.829 3.03414 5.1983 0
M  V30 4786 H 459.655 2.31013 1.97146 0
M  V30 4787 H 457.24 1.17799 0.918901 0
M  V30 4788 H 459.122 1.05616 4.0795 0
M  V30 4789 H 457.797 0.214562 3.22988 0
M  V30 4790 H 456.704 2.49011 2.79185 0
M  V30 4791 H 458.037 3.26149 3.68629 0
M  V30 4792 N 459.689 -1.00246 1.21608 0
M  V30 4793 C 461.105 -1.26435 0.973975 0
M  V30 4794 C 461.305 -1.98642 -0.338143 0
M  V30 4795 O 460.361 -2.29026 -1.06317 0
M  V30 4796 C 461.674 -2.08551 2.16626 0
M  V30 4797 C 463.222 -2.21769 2.20879 0
M  V30 4798 C 463.697 -3.07267 3.39633 0
M  V30 4799 N 465.188 -3.14855 3.39736 0
M  V30 4800 C 465.923 -3.81274 4.28273 0
M  V30 4801 N 465.419 -4.497 5.27012 0
M  V30 4802 N 467.212 -3.7794 4.16074 0
M  V30 4803 H 459.363 -0.518089 2.05984 0
M  V30 4804 H 461.626 -0.291368 0.902113 0
M  V30 4805 H 461.332 -1.62847 3.11727 0
M  V30 4806 H 461.206 -3.09303 2.15897 0
M  V30 4807 H 463.593 -2.66691 1.26332 0
M  V30 4808 H 463.674 -1.20478 2.25652 0
M  V30 4809 H 463.318 -2.63047 4.34475 0
M  V30 4810 H 463.248 -4.08678 3.321 0
M  V30 4811 H 465.739 -2.66147 2.6828 0
M  V30 4812 H 466.052 -4.98092 5.90867 0
M  V30 4813 H 464.397 -4.48479 5.30935 0
M  V30 4814 H 467.588 -3.23638 3.38195 0
M  V30 4815 H 467.761 -4.29424 4.85282 0
M  V30 4816 N 461.167 -1.02423 -1.1978 0
M  V30 4817 C 462.395 -0.737456 -1.93311 0
M  V30 4818 C 462.81 0.703023 -1.75223 0
M  V30 4819 O 462.167 1.47761 -1.07112 0
M  V30 4820 C 462.218 -1.0733 -3.45199 0
M  V30 4821 O 461.939 -2.4572 -3.62702 0
M  V30 4822 C 463.44 -0.80866 -4.35862 0
M  V30 4823 H 460.66 -0.2702 -0.614193 0
M  V30 4824 H 463.204 -1.36747 -1.52054 0
M  V30 4825 H 461.359 -0.488545 -3.84307 0
M  V30 4826 H 461.773 -2.58081 -4.56612 0
M  V30 4827 H 463.247 -1.09365 -5.41057 0
M  V30 4828 H 463.724 0.257025 -4.38447 0
M  V30 4829 H 464.33 -1.37592 -4.02428 0
M  V30 4830 N 462.645 1.35699 -0.801477 0
M  V30 4831 C 464.056 1.81415 -0.441073 0
M  V30 4832 C 464.407 1.66595 1.03636 0
M  V30 4833 O 463.532 1.19369 1.80499 0
M  V30 4834 C 464.127 3.29369 -0.793819 0
M  V30 4835 C 462.686 3.73248 -0.486083 0
M  V30 4836 C 461.833 2.57775 -1.02213 0
M  V30 4837 H 464.784 1.23749 -0.993572 0
M  V30 4838 H 464.805 3.80395 -0.0894158 0
M  V30 4839 H 464.317 3.40123 -1.86917 0
M  V30 4840 H 462.418 3.68046 0.580735 0
M  V30 4841 H 462.531 4.68222 -1.01513 0
M  V30 4842 H 460.895 2.50788 -0.444712 0
M  V30 4843 H 461.678 2.71309 -2.10348 0
M  V30 4844 N 464.123 0.554532 1.47522 0
M  V30 4845 C 465.351 0.034257 2.06872 0
M  V30 4846 C 465.766 -1.25826 1.40759 0
M  V30 4847 O 465.123 -1.75425 0.503217 0
M  V30 4848 C 465.174 -0.167827 3.6111 0
M  V30 4849 O 464.895 1.07351 4.24744 0
M  V30 4850 C 466.396 -0.72569 4.3732 0
M  V30 4851 H 463.616 0.0446275 0.669514 0
M  V30 4852 H 466.16 0.767181 1.89564 0
M  V30 4853 H 464.315 -0.850872 3.7794 0
M  V30 4854 H 464.729 0.869563 5.17242 0
M  V30 4855 H 466.203 -0.816394 5.45929 0
M  V30 4856 H 466.68 -1.73635 4.0342 0
M  V30 4857 H 467.286 -0.0784292 4.25228 0
M  V30 4858 N 465.601 -1.54893 0.290851 0
M  V30 4859 C 466.551 -2.19838 -0.604599 0
M  V30 4860 C 467.535 -1.16805 -1.10659 0
M  V30 4861 O 468.727 -1.42562 -1.04905 0
M  V30 4862 C 465.856 -2.93497 -1.78086 0
M  V30 4863 C 464.942 -4.03835 -1.29531 0
M  V30 4864 N 465.333 -5.03047 -0.527024 0
M  V30 4865 C 463.631 -4.17192 -1.57693 0
M  V30 4866 C 464.332 -5.81074 -0.269728 0
M  V30 4867 N 463.308 -5.36966 -0.846651 0
M  V30 4868 H 467.11 -2.93898 -0.00995032 0
M  V30 4869 H 464.624 -1.62121 0.0951353 0
M  V30 4870 H 466.621 -3.38484 -2.43381 0
M  V30 4871 H 465.281 -2.2095 -2.37931 0
M  V30 4872 H 466.292 -5.17611 -0.172872 0
M  V30 4873 H 462.969 -3.55845 -2.18359 0
M  V30 4874 H 464.359 -6.71005 0.346643 0
M  V30 4875 N 467.08 -0.0183926 -1.57589 0
M  V30 4876 C 468.31 0.67207 -1.95363 0
M  V30 4877 C 468.718 1.66807 -0.892872 0
M  V30 4878 O 468.061 1.83204 0.134958 0
M  V30 4879 C 468.123 1.44397 -3.29226 0
M  V30 4880 C 467.787 0.607511 -4.52944 0
M  V30 4881 C 468.784 -0.112657 -5.19778 0
M  V30 4882 C 466.469 0.548068 -4.99301 0
M  V30 4883 C 468.463 -0.881057 -6.31281 0
M  V30 4884 C 466.15 -0.224044 -6.10689 0
M  V30 4885 C 467.148 -0.937323 -6.76538 0
M  V30 4886 O 466.836 -1.6968 -7.85789 0
M  V30 4887 H 466.568 0.190925 -0.648478 0
M  V30 4888 H 469.122 -0.0711994 -2.05277 0
M  V30 4889 H 467.352 2.23214 -3.15773 0
M  V30 4890 H 469.041 2.02152 -3.51979 0
M  V30 4891 H 469.807 -0.0759998 -4.8494 0
M  V30 4892 H 465.686 1.09281 -4.4786 0
M  V30 4893 H 469.23 -1.43832 -6.82611 0
M  V30 4894 H 465.127 -0.262457 -6.44966 0
M  V30 4895 H 465.895 -1.61544 -8.024 0
M  V30 4896 N 468.558 1.5553 0.254621 0
M  V30 4897 C 469.508 1.86057 1.31783 0
M  V30 4898 C 470.492 0.720827 1.4385 0
M  V30 4899 O 471.684 0.982586 1.47222 0
M  V30 4900 C 468.813 2.15203 2.67475 0
M  V30 4901 C 467.899 3.35484 2.59444 0
M  V30 4902 N 468.29 4.54945 2.2104 0
M  V30 4903 C 466.588 3.38441 2.90472 0
M  V30 4904 C 467.289 5.3707 2.23453 0
M  V30 4905 N 466.265 4.75936 2.62652 0
M  V30 4906 H 470.067 2.75953 1.01129 0
M  V30 4907 H 467.581 1.55653 0.463255 0
M  V30 4908 H 469.578 2.35235 3.44195 0
M  V30 4909 H 468.238 1.26601 2.99002 0
M  V30 4910 H 469.249 4.8071 1.92712 0
M  V30 4911 H 465.926 2.60087 3.2659 0
M  V30 4912 H 467.316 6.42626 1.96166 0
M  V30 4913 N 470.036 -0.519951 1.48776 0
M  V30 4914 C 470.969 -1.64053 1.58625 0
M  V30 4915 C 471.947 -1.5664 0.43618 0
M  V30 4916 O 473.131 -1.76969 0.649159 0
M  V30 4917 C 470.258 -3.02497 1.52359 0
M  V30 4918 C 469.304 -3.28235 2.72331 0
M  V30 4919 S 470.137 -3.13414 4.34203 0
M  V30 4920 C 471.293 -4.54287 4.30551 0
M  V30 4921 H 471.526 -1.5545 2.53422 0
M  V30 4922 H 469.059 -0.703681 1.37433 0
M  V30 4923 H 471.017 -3.82336 1.4943 0
M  V30 4924 H 469.678 -3.08531 0.588824 0
M  V30 4925 H 468.871 -4.29256 2.64113 0
M  V30 4926 H 468.473 -2.56085 2.72574 0
M  V30 4927 H 470.765 -5.46006 4.01103 0
M  V30 4928 H 471.708 -4.67558 5.31785 0
M  V30 4929 H 472.116 -4.34079 3.60881 0
M  V30 4930 N 471.514 -1.37532 -0.769588 0
M  V30 4931 C 472.444 -1.36172 -1.89682 0
M  V30 4932 C 473.425 -0.23001 -1.68538 0
M  V30 4933 O 474.61 -0.43069 -1.89364 0
M  V30 4934 C 471.74 -1.1701 -3.26995 0
M  V30 4935 C 470.694 -2.27216 -3.62708 0
M  V30 4936 C 470.02 -1.93174 -4.98586 0
M  V30 4937 C 471.32 -3.6941 -3.69234 0
M  V30 4938 H 473.014 -2.30499 -1.91078 0
M  V30 4939 H 470.56 -1.10953 -0.917902 0
M  V30 4940 H 472.513 -1.14688 -4.05493 0
M  V30 4941 H 471.237 -0.191395 -3.26039 0
M  V30 4942 H 469.896 -2.28697 -2.86519 0
M  V30 4943 H 469.544 -0.938281 -4.94171 0
M  V30 4944 H 469.244 -2.66973 -5.23449 0
M  V30 4945 H 470.768 -1.92443 -5.79481 0
M  V30 4946 H 472.182 -3.70047 -4.37879 0
M  V30 4947 H 470.579 -4.4228 -4.05597 0
M  V30 4948 H 471.649 -4.0288 -2.69844 0
M  V30 4949 N 472.992 0.995999 -1.22138 0
M  V30 4950 C 473.922 2.10387 -1.01289 0
M  V30 4951 C 474.903 1.69975 0.0651454 0
M  V30 4952 O 476.088 1.9396 -0.0964628 0
M  V30 4953 C 473.218 3.42312 -0.586517 0
M  V30 4954 C 472.172 3.96558 -1.61014 0
M  V30 4955 C 471.498 5.24494 -1.0397 0
M  V30 4956 C 472.798 4.27595 -2.99933 0
M  V30 4957 H 474.492 2.28086 -1.93951 0
M  V30 4958 H 472.038 1.09607 -0.933928 0
M  V30 4959 H 473.991 4.19223 -0.427793 0
M  V30 4960 H 472.715 3.24431 0.375761 0
M  V30 4961 H 471.374 3.21776 -1.75658 0
M  V30 4962 H 471.022 5.02953 -0.0688703 0
M  V30 4963 H 470.722 5.61755 -1.72352 0
M  V30 4964 H 472.246 6.04042 -0.892494 0
M  V30 4965 H 473.66 4.95315 -2.8868 0
M  V30 4966 H 472.057 4.76021 -3.6541 0
M  V30 4967 H 473.127 3.35498 -3.50099 0
M  V30 4968 N 474.47 1.03057 1.19235 0
M  V30 4969 C 475.695 0.74757 1.93458 0
M  V30 4970 C 476.12 -0.687648 1.7508 0
M  V30 4971 O 475.478 -1.47499 1.05422 0
M  V30 4972 C 475.526 1.10604 3.43219 0
M  V30 4973 O 474.63 0.225671 4.11782 0
M  V30 4974 H 473.971 0.276047 0.603899 0
M  V30 4975 H 476.501 1.3777 1.51263 0
M  V30 4976 H 476.511 1.06366 3.93891 0
M  V30 4977 H 475.186 2.15165 3.55917 0
M  V30 4978 H 473.763 0.326795 3.71465 0
M  V30 4979 N 475.948 -1.35272 0.808662 0
M  V30 4980 C 477.173 -2.03477 0.401475 0
M  V30 4981 C 477.598 -1.60537 -0.980279 0
M  V30 4982 O 476.956 -0.78304 -1.63518 0
M  V30 4983 C 477.004 -3.57181 0.495354 0
M  V30 4984 O 476.108 -4.09474 -0.490397 0
M  V30 4985 H 475.449 -0.642561 0.167366 0
M  V30 4986 H 477.979 -1.72824 1.09512 0
M  V30 4987 H 477.989 -4.06356 0.365912 0
M  V30 4988 H 476.664 -3.87784 1.5032 0
M  V30 4989 H 475.241 -3.71516 -0.321023 0
M  V30 4990 N 477.426 -0.562348 -1.47226 0
M  V30 4991 C 478.389 0.172056 -2.28553 0
M  V30 4992 C 479.389 0.837928 -1.37242 0
M  V30 4993 O 480.579 0.693001 -1.59822 0
M  V30 4994 C 477.711 1.25223 -3.17068 0
M  V30 4995 H 478.904 -0.542401 -2.94954 0
M  V30 4996 H 476.457 -0.319493 -1.53 0
M  V30 4997 H 477.192 1.99892 -2.55369 0
M  V30 4998 H 476.977 0.779515 -3.84273 0
M  V30 4999 H 478.467 1.76791 -3.78332 0
M  V30 5000 N 478.904 1.54736 -0.299062 0
M  V30 5001 C 480.152 1.99706 0.31017 0
M  V30 5002 C 480.473 1.18896 1.54559 0
M  V30 5003 O 479.743 0.284445 1.93824 0
M  V30 5004 H 478.323 0.737686 0.117596 0
M  V30 5005 H 480.985 1.9054 -0.409943 0
M  V30 5006 H 480.081 3.06596 0.58355 0
M  V30 5007 N 480.382 0.0267497 1.57577 0
M  V30 5008 C 481.629 -0.652404 1.91703 0
M  V30 5009 C 481.957 -1.72271 0.902936 0
M  V30 5010 O 481.212 -1.955 -0.0884843 0
M  V30 5011 C 481.511 -1.30914 3.3256 0
M  V30 5012 C 481.177 -0.369441 4.49384 0
M  V30 5013 C 479.839 -0.110791 4.81072 0
M  V30 5014 C 482.191 0.275971 5.20469 0
M  V30 5015 C 479.519 0.801116 5.81205 0
M  V30 5016 C 481.871 1.17592 6.21575 0
M  V30 5017 C 480.535 1.44348 6.51705 0
M  V30 5018 H 479.805 -0.238732 0.70149 0
M  V30 5019 H 482.452 0.0880091 1.91298 0
M  V30 5020 H 480.757 -2.12425 3.29216 0
M  V30 5021 H 482.454 -1.84115 3.56234 0
M  V30 5022 H 479.044 -0.581211 4.24641 0
M  V30 5023 H 483.228 0.0892 4.9622 0
M  V30 5024 H 478.484 1.01614 6.02897 0
M  V30 5025 H 482.658 1.68223 6.75777 0
M  V30 5026 H 480.285 2.15176 7.29111 0
M  V30 5027 N 481.861 -1.55662 -0.24637 0
M  V30 5028 C 483.277 -1.48098 -0.594907 0
M  V30 5029 C 483.477 -0.717044 -1.8831 0
M  V30 5030 O 482.533 -0.246618 -2.51293 0
M  V30 5031 C 483.846 -2.92507 -0.697146 0
M  V30 5032 C 485.394 -3.02881 -0.789436 0
M  V30 5033 C 485.869 -4.48598 -0.923232 0
M  V30 5034 N 487.36 -4.52538 -0.988088 0
M  V30 5035 C 488.095 -5.62536 -1.11089 0
M  V30 5036 N 487.591 -6.82342 -1.19919 0
M  V30 5037 N 489.384 -5.50334 -1.14408 0
M  V30 5038 H 481.535 -2.0377 0.599278 0
M  V30 5039 H 483.798 -0.925145 0.20691 0
M  V30 5040 H 483.504 -3.51242 0.179396 0
M  V30 5041 H 483.378 -3.43024 -1.5689 0
M  V30 5042 H 485.765 -2.44226 -1.65643 0
M  V30 5043 H 485.846 -2.55574 0.107482 0
M  V30 5044 H 485.49 -5.07864 -0.0607927 0
M  V30 5045 H 485.42 -4.93587 -1.8352 0
M  V30 5046 H 487.911 -3.66248 -0.931167 0
M  V30 5047 H 488.224 -7.61924 -1.29197 0
M  V30 5048 H 486.569 -6.85102 -1.16876 0
M  V30 5049 H 489.76 -4.5567 -1.07158 0
M  V30 5050 H 489.933 -6.36096 -1.23634 0
M  V30 5051 N 483.339 0.512053 -1.4905 0
M  V30 5052 C 484.616 1.27337 -1.48474 0
M  V30 5053 C 484.996 2.1009 -0.206301 0
M  V30 5054 O 484.344 2.136 0.811609 0
M  V30 5055 C 484.554 2.13954 -2.75726 0
M  V30 5056 C 485.902 2.73507 -3.24776 0
M  V30 5057 O 486.926 2.24229 -2.76767 0
M  V30 5058 O 485.785 3.63186 -4.08361 0
M  V30 5059 H 482.879 0.575652 -0.593762 0
M  V30 5060 H 485.425 0.527232 -1.61302 0
M  V30 5061 H 484.197 1.52709 -3.60272 0
M  V30 5062 H 483.82 2.95782 -2.65705 0
M  V30 5063 N 484.817 1.37938 0.762283 0
M  V30 5064 C 486.064 1.33668 1.52115 0
M  V30 5065 C 486.392 -0.0759538 1.94352 0
M  V30 5066 O 485.647 -1.05121 1.6507 0
M  V30 5067 C 485.946 2.23042 2.79261 0
M  V30 5068 C 485.612 3.71159 2.56031 0
M  V30 5069 C 484.274 4.11523 2.49404 0
M  V30 5070 C 486.626 4.64955 2.35513 0
M  V30 5071 C 483.954 5.43784 2.20263 0
M  V30 5072 C 486.306 5.97464 2.07894 0
M  V30 5073 C 484.97 6.36922 1.99718 0
M  V30 5074 H 484.24 0.489127 0.556629 0
M  V30 5075 H 486.887 1.70224 0.877262 0
M  V30 5076 H 485.192 1.79512 3.48256 0
M  V30 5077 H 486.889 2.17047 3.37182 0
M  V30 5078 H 483.479 3.39153 2.62056 0
M  V30 5079 H 487.663 4.34623 2.39617 0
M  V30 5080 H 482.919 5.73307 2.12435 0
M  V30 5081 H 487.093 6.6969 1.91019 0
M  V30 5082 H 484.72 7.39331 1.76902 0
M  V30 5083 N 486.295 -0.989507 1.22664 0
M  V30 5084 C 487.227 -2.0824 0.957542 0
M  V30 5085 C 488.24 -1.6267 -0.0651098 0
M  V30 5086 O 489.429 -1.77695 0.169312 0
M  V30 5087 C 486.529 -3.36298 0.419145 0
M  V30 5088 C 485.702 -4.10882 1.49982 0
M  V30 5089 C 484.761 -5.17221 0.967904 0
M  V30 5090 O 483.787 -5.44613 1.65487 0
M  V30 5091 N 484.989 -5.80124 -0.20896 0
M  V30 5092 H 487.754 -2.31904 1.89843 0
M  V30 5093 H 485.315 -1.15552 1.13399 0
M  V30 5094 H 487.307 -4.04671 0.0485451 0
M  V30 5095 H 485.877 -3.09671 -0.426937 0
M  V30 5096 H 485.097 -3.37092 2.04359 0
M  V30 5097 H 486.385 -4.57482 2.22682 0
M  V30 5098 H 485.783 -5.60244 -0.783818 0
M  V30 5099 H 484.34 -6.49715 -0.520913 0
M  V30 5100 N 487.773 -1.03688 -1.18687 0
M  V30 5101 C 489.02 -0.73803 -1.88572 0
M  V30 5102 C 489.348 0.733973 -1.8012 0
M  V30 5103 O 488.603 1.55098 -1.19344 0
M  V30 5104 C 488.902 -1.14477 -3.3857 0
M  V30 5105 C 488.568 -2.61641 -3.67226 0
M  V30 5106 C 487.23 -3.01846 -3.74757 0
M  V30 5107 C 489.582 -3.56812 -3.79914 0
M  V30 5108 C 486.91 -4.36118 -3.92451 0
M  V30 5109 C 489.262 -4.90799 -3.99123 0
M  V30 5110 C 487.926 -5.3068 -4.04888 0
M  V30 5111 H 487.196 -0.270064 -0.690034 0
M  V30 5112 H 489.843 -1.3012 -1.40503 0
M  V30 5113 H 488.148 -0.500337 -3.88592 0
M  V30 5114 H 489.845 -0.89095 -3.90977 0
M  V30 5115 H 486.435 -2.29498 -3.61979 0
M  V30 5116 H 490.619 -3.26899 -3.73431 0
M  V30 5117 H 485.875 -4.66542 -3.95157 0
M  V30 5118 H 490.049 -5.64451 -4.07882 0
M  V30 5119 H 487.676 -6.34733 -4.18351 0
M  V30 5120 N 489.251 1.34841 -0.815825 0
M  V30 5121 C 490.198 2.29644 -0.230664 0
M  V30 5122 C 491.168 1.53253 0.640533 0
M  V30 5123 O 492.353 1.81653 0.583672 0
M  V30 5124 C 489.493 3.39715 0.607275 0
M  V30 5125 C 488.606 4.31056 -0.28538 0
M  V30 5126 C 487.741 5.28225 0.561446 0
M  V30 5127 C 486.78 6.11204 -0.331035 0
M  V30 5128 N 485.917 7.00483 0.476302 0
M  V30 5129 H 490.757 2.79095 -1.0445 0
M  V30 5130 H 488.294 1.37351 -0.526595 0
M  V30 5131 H 490.252 4.02208 1.10835 0
M  V30 5132 H 488.882 2.91517 1.38629 0
M  V30 5133 H 487.934 3.69487 -0.904621 0
M  V30 5134 H 489.246 4.89239 -0.97193 0
M  V30 5135 H 488.4 5.96135 1.12728 0
M  V30 5136 H 487.139 4.70562 1.28153 0
M  V30 5137 H 486.144 5.42232 -0.909069 0
M  V30 5138 H 487.369 6.70947 -1.04912 0
M  V30 5139 H 485.315 6.45296 1.18019 0
M  V30 5140 H 485.232 7.55847 -0.152008 0
M  V30 5141 H 486.5 7.7273 1.02512 0
M  V30 5142 N 490.729 0.570148 1.46925 0
M  V30 5143 C 491.676 -0.170257 2.30171 0
M  V30 5144 C 492.646 -0.896099 1.39855 0
M  V30 5145 O 493.831 -0.889248 1.68811 0
M  V30 5146 C 490.971 -1.18605 3.24079 0
M  V30 5147 C 490.084 -0.464947 4.29491 0
M  V30 5148 C 489.219 -1.46716 5.10537 0
M  V30 5149 C 488.258 -0.731758 6.0771 0
M  V30 5150 N 487.395 -1.68142 6.81669 0
M  V30 5151 H 492.235 0.545713 2.92961 0
M  V30 5152 H 489.772 0.280938 1.44392 0
M  V30 5153 H 491.73 -1.78771 3.76957 0
M  V30 5154 H 490.36 -1.86989 2.63125 0
M  V30 5155 H 489.412 0.251506 3.79568 0
M  V30 5156 H 490.724 0.110548 4.98677 0
M  V30 5157 H 489.878 -2.14199 5.6763 0
M  V30 5158 H 488.617 -2.07658 4.41282 0
M  V30 5159 H 487.622 -0.0430787 5.49783 0
M  V30 5160 H 488.847 -0.127904 6.7898 0
M  V30 5161 H 486.793 -2.27918 6.15134 0
M  V30 5162 H 486.71 -1.15841 7.47072 0
M  V30 5163 H 487.978 -2.347 7.43328 0
M  V30 5164 N 492.207 -1.54576 0.307264 0
M  V30 5165 C 493.435 -2.04675 -0.302597 0
M  V30 5166 C 493.85 -1.18425 -1.47041 0
M  V30 5167 O 493.207 -0.211257 -1.81273 0
M  V30 5168 C 493.258 -3.53575 -0.752801 0
M  V30 5169 O 492.979 -4.36547 0.368536 0
M  V30 5170 C 494.48 -4.19699 -1.42717 0
M  V30 5171 H 491.7 -0.66786 -0.0648374 0
M  V30 5172 H 494.244 -1.99516 0.448716 0
M  V30 5173 H 492.399 -3.59074 -1.45412 0
M  V30 5174 H 492.813 -5.24497 0.0168937 0
M  V30 5175 H 494.287 -5.25388 -1.69327 0
M  V30 5176 H 494.764 -3.69815 -2.36925 0
M  V30 5177 H 495.37 -4.18293 -0.768856 0
M  V30 5178 N 493.685 -0.035106 -1.57561 0
M  V30 5179 C 494.933 0.64096 -1.91667 0
M  V30 5180 C 495.254 1.72323 -0.912681 0
M  V30 5181 O 494.524 1.95849 0.0449089 0
M  V30 5182 H 493.104 0.239743 -0.707483 0
M  V30 5183 H 495.766 -0.084321 -1.94718 0
M  V30 5184 H 494.862 1.08987 -2.92452 0
M  V30 5185 N 495.163 1.55791 0.238111 0
M  V30 5186 C 496.126 1.90239 1.27835 0
M  V30 5187 C 497.126 0.779552 1.4064 0
M  V30 5188 O 498.316 1.04747 1.3919 0
M  V30 5189 C 495.448 2.13859 2.65475 0
M  V30 5190 H 496.641 2.83262 0.985034 0
M  V30 5191 H 494.194 1.48818 0.477799 0
M  V30 5192 H 494.929 1.23334 2.99932 0
M  V30 5193 H 494.714 2.95643 2.57561 0
M  V30 5194 H 496.204 2.41664 3.40571 0
M  V30 5195 N 496.642 -0.504142 1.49319 0
M  V30 5196 C 497.891 -1.25507 1.57895 0
M  V30 5197 C 498.204 -1.93735 0.269433 0
M  V30 5198 O 499.41 -2.70492 0.233706 0
M  V30 5199 C 497.866 -2.27869 2.78574 0
M  V30 5200 C 497.474 -1.65594 4.16272 0
M  V30 5201 C 499.218 -3.0381 2.96479 0
M  V30 5202 C 497.125 -2.66048 5.28178 0
M  V30 5203 H 496.055 -0.47212 0.587894 0
M  V30 5204 H 498.706 -0.52931 1.757 0
M  V30 5205 H 497.088 -3.03594 2.54257 0
M  V30 5206 H 498.262 -0.958826 4.50714 0
M  V30 5207 H 496.577 -1.02055 4.037 0
M  V30 5208 H 499.174 -3.78925 3.77253 0
M  V30 5209 H 499.517 -3.61235 2.06918 0
M  V30 5210 H 500.05 -2.352 3.20821 0
M  V30 5211 H 496.789 -2.13408 6.19788 0
M  V30 5212 H 496.309 -3.34009 4.98195 0
M  V30 5213 H 497.988 -3.28536 5.57381 0
M  V30 5214 N 498.12 -1.38341 -0.754957 0
M  V30 5215 C 499.35 -1.37504 -1.54195 0
M  V30 5216 C 499.758 0.0373787 -1.89163 0
M  V30 5217 O 499.101 1.01402 -1.53178 0
M  V30 5218 C 499.163 -2.16488 -2.87008 0
M  V30 5219 C 498.827 -3.65311 -2.74585 0
M  V30 5220 C 499.824 -4.58834 -2.44474 0
M  V30 5221 C 497.509 -4.08649 -2.9208 0
M  V30 5222 C 499.503 -5.93675 -2.32011 0
M  V30 5223 C 497.19 -5.43571 -2.79237 0
M  V30 5224 C 498.188 -6.35898 -2.49245 0
M  V30 5225 O 497.876 -7.68338 -2.36458 0
M  V30 5226 H 497.608 -0.472159 -0.483779 0
M  V30 5227 H 500.162 -1.82515 -0.94221 0
M  V30 5228 H 498.392 -1.66194 -3.49166 0
M  V30 5229 H 500.081 -2.08076 -3.4851 0
M  V30 5230 H 500.847 -4.26657 -2.30627 0
M  V30 5231 H 496.726 -3.37134 -3.14422 0
M  V30 5232 H 500.27 -6.65706 -2.08522 0
M  V30 5233 H 496.167 -5.75345 -2.92657 0
M  V30 5234 H 496.935 -7.78845 -2.5168 0
M  V30 5235 N 499.598 0.982988 -1.23187 0
M  V30 5236 C 500.875 1.69814 -0.970707 0
M  V30 5237 C 501.255 2.04811 0.511424 0
M  V30 5238 O 500.603 1.73924 1.48198 0
M  V30 5239 C 500.813 2.94143 -1.87831 0
M  V30 5240 C 502.161 3.66712 -2.14026 0
M  V30 5241 O 503.185 3.04171 -1.8536 0
M  V30 5242 O 502.044 4.79258 -2.62629 0
M  V30 5243 H 499.138 0.741659 -0.365884 0
M  V30 5244 H 501.684 1.03844 -1.34218 0
M  V30 5245 H 500.456 2.64858 -2.88038 0
M  V30 5246 H 500.079 3.6785 -1.50905 0
M  V30 5247 N 501.076 1.04316 1.18135 0
M  V30 5248 C 502.039 0.640794 2.2006 0
M  V30 5249 C 503.039 -0.303124 1.57917 0
M  V30 5250 O 504.229 -0.0881855 1.73977 0
M  V30 5251 C 501.361 -0.060148 3.40847 0
M  V30 5252 H 502.554 1.54281 2.57172 0
M  V30 5253 H 500.107 0.836004 1.32063 0
M  V30 5254 H 500.842 -0.975845 3.0927 0
M  V30 5255 H 500.627 0.618319 3.87194 0
M  V30 5256 H 502.117 -0.328082 4.16309 0
M  V30 5257 N 502.554 -1.34406 0.822964 0
M  V30 5258 C 503.803 -1.97542 0.407458 0
M  V30 5259 C 504.116 -1.65973 -1.035 0
M  V30 5260 O 505.322 -2.22598 -1.55442 0
M  V30 5261 C 503.778 -3.53463 0.677623 0
M  V30 5262 C 503.386 -3.93925 2.1337 0
M  V30 5263 C 505.13 -4.23229 0.328284 0
M  V30 5264 C 503.037 -5.42759 2.34876 0
M  V30 5265 H 501.967 -0.739207 0.148623 0
M  V30 5266 H 504.618 -1.53248 1.00932 0
M  V30 5267 H 503 -3.96 0.00558965 0
M  V30 5268 H 504.174 -3.62494 2.8449 0
M  V30 5269 H 502.489 -3.37097 2.44448 0
M  V30 5270 H 505.086 -5.32659 0.466794 0
M  V30 5271 H 505.429 -4.09899 -0.727224 0
M  V30 5272 H 505.962 -3.86169 0.954896 0
M  V30 5273 H 502.701 -5.61075 3.38932 0
M  V30 5274 H 502.221 -5.75704 1.68299 0
M  V30 5275 H 503.9 -6.0944 2.17236 0
M  V30 5276 N 504.032 -0.577932 -1.46621 0
M  V30 5277 C 504.962 0.145917 -2.33044 0
M  V30 5278 C 505.943 0.888412 -1.45056 0
M  V30 5279 O 507.128 0.864812 -1.73881 0
M  V30 5280 C 504.258 1.16322 -3.27241 0
M  V30 5281 C 503.212 0.535868 -4.24632 0
M  V30 5282 C 502.538 1.65929 -5.08303 0
M  V30 5283 C 503.838 -0.523861 -5.19666 0
M  V30 5284 H 505.532 -0.575636 -2.93814 0
M  V30 5285 H 503.078 -0.278272 -1.41286 0
M  V30 5286 H 505.031 1.67793 -3.86553 0
M  V30 5287 H 503.755 1.91498 -2.64567 0
M  V30 5288 H 502.414 0.0422759 -3.66576 0
M  V30 5289 H 502.062 2.40061 -4.42018 0
M  V30 5290 H 501.762 1.2452 -5.74255 0
M  V30 5291 H 503.286 2.17686 -5.70478 0
M  V30 5292 H 504.7 -0.0944059 -5.73222 0
M  V30 5293 H 503.097 -0.858 -5.93935 0
M  V30 5294 H 504.167 -1.41197 -4.63887 0
M  V30 5295 N 505.51 1.54411 -0.315457 0
M  V30 5296 C 506.473 2.22713 0.54142 0
M  V30 5297 C 507.473 1.2179 1.04995 0
M  V30 5298 O 508.663 1.46426 0.943667 0
M  V30 5299 C 505.795 2.92485 1.75116 0
M  V30 5300 H 506.988 2.99849 -0.0555508 0
M  V30 5301 H 504.541 1.56159 -0.0664453 0
M  V30 5302 H 505.276 2.19466 2.38758 0
M  V30 5303 H 505.061 3.66483 1.39401 0
M  V30 5304 H 506.551 3.44548 2.35959 0
M  V30 5305 N 506.988 0.0434614 1.5754 0
M  V30 5306 C 508.404 -0.313039 1.565 0
M  V30 5307 C 508.604 -1.71954 1.05043 0
M  V30 5308 O 507.66 -2.425 0.703564 0
M  V30 5309 C 508.973 -0.148544 3.00333 0
M  V30 5310 C 510.521 -0.220231 3.12224 0
M  V30 5311 C 510.996 -0.0843565 4.57922 0
M  V30 5312 N 512.487 -0.140881 4.62986 0
M  V30 5313 C 513.222 -0.0597443 5.73369 0
M  V30 5314 N 512.718 0.0733004 6.92761 0
M  V30 5315 N 514.511 -0.11477 5.61983 0
M  V30 5316 H 506.662 0.96303 1.89313 0
M  V30 5317 H 508.925 0.373164 0.871466 0
M  V30 5318 H 508.631 0.820894 3.41986 0
M  V30 5319 H 508.505 -0.912798 3.65989 0
M  V30 5320 H 510.892 -1.18014 2.70475 0
M  V30 5321 H 510.973 0.574646 2.49262 0
M  V30 5322 H 510.617 0.872192 5.00355 0
M  V30 5323 H 510.547 -0.898281 5.18882 0
M  V30 5324 H 513.038 -0.243273 3.77116 0
M  V30 5325 H 513.351 0.128128 7.72694 0
M  V30 5326 H 511.696 0.10828 6.94916 0
M  V30 5327 H 514.887 -0.217212 4.67596 0
M  V30 5328 H 515.06 -0.0480779 6.47982 0
M  V30 5329 N 508.466 -1.55915 -0.229846 0
M  V30 5330 C 509.413 -1.91734 -1.28478 0
M  V30 5331 C 510.383 -0.773539 -1.46988 0
M  V30 5332 O 511.568 -1.02871 -1.60693 0
M  V30 5333 C 508.708 -2.23224 -2.63182 0
M  V30 5334 C 507.821 -3.50497 -2.52539 0
M  V30 5335 C 506.956 -3.71474 -3.79711 0
M  V30 5336 C 505.995 -4.92289 -3.63755 0
M  V30 5337 N 505.132 -5.09698 -4.82858 0
M  V30 5338 H 509.972 -2.81692 -0.972308 0
M  V30 5339 H 507.509 -1.39429 -0.468815 0
M  V30 5340 H 509.467 -2.3949 -3.41614 0
M  V30 5341 H 508.097 -1.36451 -2.92542 0
M  V30 5342 H 507.149 -3.4247 -1.65585 0
M  V30 5343 H 508.461 -4.39079 -2.36666 0
M  V30 5344 H 507.615 -3.87791 -4.66586 0
M  V30 5345 H 506.354 -2.81157 -3.985 0
M  V30 5346 H 505.359 -4.7593 -2.75264 0
M  V30 5347 H 506.584 -5.84083 -3.46445 0
M  V30 5348 H 504.53 -4.22322 -5.01976 0
M  V30 5349 H 504.447 -5.92399 -4.69681 0
M  V30 5350 H 505.715 -5.30443 -5.71183 0
M  V30 5351 O 509.983 0.375361 -1.57077 0
M  V30 5352 H 510.674 1.02655 -1.64261 0
M  V30 END ATOM
M  V30 BEGIN BOND
M  V30 END BOND
M  V30 END CTAB
M  END
$$$$
