drugbank_target|P46736 Lys-63-specific deubiquitinase BRCC36 (DB01593; DB14487; DB14533; DB14548)
 OpenBabel12092121073D

  0  0  0     0  0            999 V3000
M  V30 BEGIN CTAB
M  V30 COUNTS 5024 5070 0 0 0
M  V30 BEGIN ATOM
M  V30 1 H -0.908 1.98254 -0.117106 0
M  V30 2 N 0 1.576 0 0
M  V30 3 C 0.933 2.03868 1.02534 0
M  V30 4 C 1.911 0.928543 1.3348 0
M  V30 5 O 3.095 1.19667 1.45644 0
M  V30 6 C 0.222 2.43627 2.35294 0
M  V30 7 C -0.732 3.65373 2.2001 0
M  V30 8 S 0.101 5.13292 1.52614 0
M  V30 9 C 1.257 5.56322 2.86805 0
M  V30 10 H 1.49 2.90518 0.631377 0
M  V30 11 H -0.977 1.52953 0.210867 0
M  V30 12 H 0.981 2.67203 3.11629 0
M  V30 13 H -0.358 1.57376 2.7183 0
M  V30 14 H -1.165 3.90944 3.18086 0
M  V30 15 H -1.563 3.418 1.51819 0
M  V30 16 H 0.729 5.58782 3.83104 0
M  V30 17 H 1.672 6.56266 2.65933 0
M  V30 18 H 2.08 4.83886 2.90714 0
M  V30 19 N 1.4781 -0.272755 1.55222 0
M  V30 20 C 2.4411 -1.32041 1.87344 0
M  V30 21 C 3.4411 -1.42342 0.74803 0
M  V30 22 O 4.6311 -1.41488 1.0162 0
M  V30 23 C 1.7631 -2.70173 2.07893 0
M  V30 24 H 2.9561 -1.04789 2.80997 0
M  V30 25 H 0.5091 -0.51083 1.47717 0
M  V30 26 H 1.2441 -3.02605 1.16622 0
M  V30 27 H 1.0291 -2.64082 2.89833 0
M  V30 28 H 2.5191 -3.45869 2.34017 0
M  V30 29 N 2.9562 -1.48159 -0.537278 0
M  V30 30 C 4.2022 -1.56035 -1.29541 0
M  V30 31 C 4.5352 -0.230377 -1.92829 0
M  V30 32 O 3.8102 0.762952 -1.78911 0
M  V30 33 C 4.0932 -2.69323 -2.39034 0
M  V30 34 C 3.9462 -4.12002 -1.80485 0
M  V30 35 C 5.2652 -2.78408 -3.40847 0
M  V30 36 H 2.3842 -0.567992 -0.469632 0
M  V30 37 H 5.0262 -1.80302 -0.599277 0
M  V30 38 H 3.1762 -2.48763 -2.98412 0
M  V30 39 H 4.8482 -4.43981 -1.25215 0
M  V30 40 H 3.0912 -4.19344 -1.11055 0
M  V30 41 H 3.7622 -4.87077 -2.59731 0
M  V30 42 H 6.2382 -2.97012 -2.91416 0
M  V30 43 H 5.1142 -3.59416 -4.14863 0
M  V30 44 H 5.3752 -1.86269 -4.00944 0
M  V30 45 N 4.4343 0.785586 -1.36625 0
M  V30 46 C 5.3663 1.90711 -1.2713 0
M  V30 47 C 6.3793 1.61688 -0.189986 0
M  V30 48 O 7.5683 1.72864 -0.445014 0
M  V30 49 C 4.6683 3.25611 -0.939713 0
M  V30 50 C 3.8413 3.82385 -2.12369 0
M  V30 51 C 2.9003 4.95732 -1.76456 0
M  V30 52 O 1.9263 5.12047 -2.48589 0
M  V30 53 N 3.1283 5.76258 -0.700492 0
M  V30 54 H 5.8933 1.99376 -2.23762 0
M  V30 55 H 3.4543 0.964041 -1.30069 0
M  V30 56 H 5.4463 3.98937 -0.680554 0
M  V30 57 H 4.0163 3.12538 -0.0624074 0
M  V30 58 H 3.2363 3.01001 -2.54543 0
M  V30 59 H 4.5243 4.17047 -2.9146 0
M  V30 60 H 3.9223 5.65609 -0.101624 0
M  V30 61 H 2.4793 6.4987 -0.501165 0
M  V30 62 N 5.9124 1.20967 1.01018 0
M  V30 63 C 7.1584 1.02526 1.74975 0
M  V30 64 C 7.4914 -0.4408 1.89131 0
M  V30 65 O 6.7664 -1.32718 1.42184 0
M  V30 66 C 7.0494 1.71699 3.1653 0
M  V30 67 C 6.9024 3.25791 3.10129 0
M  V30 68 C 8.2214 1.45531 4.15342 0
M  V30 69 H 5.3404 0.373863 0.635134 0
M  V30 70 H 7.9824 1.49071 1.17805 0
M  V30 71 H 6.1324 1.32128 3.65341 0
M  V30 72 H 7.8044 3.74697 2.69072 0
M  V30 73 H 6.0474 3.56363 2.47362 0
M  V30 74 H 6.7184 3.69353 4.10222 0
M  V30 75 H 9.1944 1.79872 3.75213 0
M  V30 76 H 8.0704 1.96453 5.1254 0
M  V30 77 H 8.3314 0.384237 4.40427 0
M  V30 78 N 7.3905 -1.2043 1.01659 0
M  V30 79 C 8.6365 -1.90079 0.706963 0
M  V30 80 C 8.9695 -1.78648 -0.761474 0
M  V30 81 O 8.2445 -1.17069 -1.55323 0
M  V30 82 C 8.5275 -3.41469 1.14327 0
M  V30 83 C 8.3805 -3.61833 2.67201 0
M  V30 84 C 9.6995 -4.34261 0.714529 0
M  V30 85 H 6.8185 -0.690254 0.2583 0
M  V30 86 H 9.4605 -1.41826 1.26433 0
M  V30 87 H 7.6105 -3.82696 0.669056 0
M  V30 88 H 9.2825 -3.2986 3.22475 0
M  V30 89 H 7.5255 -3.05304 3.08175 0
M  V30 90 H 8.1965 -4.67955 2.92783 0
M  V30 91 H 10.6725 -4.00682 1.12221 0
M  V30 92 H 9.5485 -5.38806 1.04784 0
M  V30 93 H 9.8095 -4.40431 -0.383799 0
M  V30 94 N 8.8686 -0.792821 -1.36206 0
M  V30 95 C 9.8006 -0.151469 -2.28699 0
M  V30 96 C 10.8136 0.641262 -1.49638 0
M  V30 97 O 12.0026 0.475885 -1.72039 0
M  V30 98 C 9.1026 0.808424 -3.29117 0
M  V30 99 C 8.2756 0.0650202 -4.37352 0
M  V30 100 C 7.3346 0.941358 -5.17711 0
M  V30 101 O 6.3606 0.397352 -5.67811 0
M  V30 102 N 7.5626 2.2652 -5.3448 0
M  V30 103 H 10.3276 -0.945982 -2.84379 0
M  V30 104 H 7.8886 -0.647032 -1.48409 0
M  V30 105 H 9.8806 1.3986 -3.79765 0
M  V30 106 H 8.4506 1.5038 -2.74052 0
M  V30 107 H 7.6706 -0.706255 -3.87822 0
M  V30 108 H 8.9586 -0.447847 -5.06825 0
M  V30 109 H 8.3566 2.73128 -4.95396 0
M  V30 110 H 6.9136 2.80493 -5.88359 0
M  V30 111 N 10.3467 1.47872 -0.545128 0
M  V30 112 C 11.3097 2.28337 0.198717 0
M  V30 113 C 12.3097 1.36255 0.853888 0
M  V30 114 O 13.4997 1.59003 0.711606 0
M  V30 115 C 10.6317 3.15585 1.28915 0
M  V30 116 H 11.8247 2.95567 -0.507941 0
M  V30 117 H 9.3777 1.53362 -0.301616 0
M  V30 118 H 10.1127 2.53019 2.02859 0
M  V30 119 H 9.8977 3.83337 0.824309 0
M  V30 120 H 11.3877 3.76243 1.81194 0
M  V30 121 N 11.8248 0.280983 1.55075 0
M  V30 122 C 13.0708 -0.33461 2.00021 0
M  V30 123 C 13.4038 -1.55063 1.16915 0
M  V30 124 O 12.6788 -1.93006 0.240646 0
M  V30 125 C 12.9618 -0.711007 3.53011 0
M  V30 126 C 12.8148 0.512766 4.46868 0
M  V30 127 C 14.1338 -1.54522 4.12081 0
M  V30 128 H 11.2528 -0.120147 0.727141 0
M  V30 129 H 13.8948 0.389097 1.85973 0
M  V30 130 H 12.0448 -1.32761 3.65112 0
M  V30 131 H 13.7168 1.15131 4.46702 0
M  V30 132 H 11.9598 1.14975 4.18286 0
M  V30 133 H 12.6308 0.205556 5.51617 0
M  V30 134 H 15.1068 -1.02442 4.03293 0
M  V30 135 H 13.9828 -1.77739 5.19327 0
M  V30 136 H 14.2438 -2.52813 3.62682 0
M  V30 137 N 13.3029 -1.57598 0.00835791 0
M  V30 138 C 14.2349 -2.05811 -1.00868 0
M  V30 139 C 15.2479 -0.977579 -1.30182 0
M  V30 140 O 16.4369 -1.25421 -1.27011 0
M  V30 141 C 13.5369 -2.45016 -2.34137 0
M  V30 142 C 12.7099 -3.75903 -2.23643 0
M  V30 143 C 11.7689 -4.01884 -3.3967 0
M  V30 144 O 10.7949 -4.72433 -3.17483 0
M  V30 145 N 11.9969 -3.50432 -4.62793 0
M  V30 146 H 14.7619 -2.93684 -0.597458 0
M  V30 147 H 12.3229 -1.60909 -0.178852 0
M  V30 148 H 14.3149 -2.59506 -3.10546 0
M  V30 149 H 12.8849 -1.62618 -2.66972 0
M  V30 150 H 12.1049 -3.7141 -1.32091 0
M  V30 151 H 13.3929 -4.61695 -2.13812 0
M  V30 152 H 12.7909 -2.93317 -4.83716 0
M  V30 153 H 11.3479 -3.70236 -5.3644 0
M  V30 154 N 14.781 0.264519 -1.55364 0
M  V30 155 C 15.744 1.31046 -1.88042 0
M  V30 156 C 16.744 1.41943 -0.755569 0
M  V30 157 O 17.934 1.40947 -1.02369 0
M  V30 158 C 15.066 2.69067 -2.09323 0
M  V30 159 H 16.259 1.03297 -2.81549 0
M  V30 160 H 13.812 0.502989 -1.47986 0
M  V30 161 H 14.547 3.01982 -1.18226 0
M  V30 162 H 14.332 2.62542 -2.91229 0
M  V30 163 H 15.822 3.44623 -2.35848 0
M  V30 164 N 16.2591 1.48442 0.529413 0
M  V30 165 C 17.5051 1.5672 1.28711 0
M  V30 166 C 17.8381 0.2406 1.92704 0
M  V30 167 O 17.1131 -0.753454 1.79313 0
M  V30 168 C 17.3961 2.70587 2.37603 0
M  V30 169 C 17.2491 4.12953 1.78297 0
M  V30 170 C 18.5681 2.80212 3.39366 0
M  V30 171 H 15.6871 0.570474 0.466613 0
M  V30 172 H 18.3291 1.80617 0.589706 0
M  V30 173 H 16.4791 2.50342 2.97088 0
M  V30 174 H 18.1511 4.44639 1.22858 0
M  V30 175 H 16.3941 4.19927 1.0883 0
M  V30 176 H 17.0651 4.88448 2.57144 0
M  V30 177 H 19.5411 2.98553 2.89836 0
M  V30 178 H 18.4171 3.61611 4.12951 0
M  V30 179 H 18.6781 1.88393 3.99951 0
M  V30 180 N 17.7372 -0.778329 1.37039 0
M  V30 181 C 18.6872 -1.88142 1.28789 0
M  V30 182 C 19.6712 -1.59923 0.177063 0
M  V30 183 O 20.8632 -1.72165 0.410873 0
M  V30 184 C 17.9922 -3.25518 1.09055 0
M  V30 185 C 17.0782 -3.5971 2.24654 0
M  V30 186 N 17.4692 -3.65131 3.50018 0
M  V30 187 C 15.7672 -3.89837 2.16663 0
M  V30 188 C 16.4682 -3.95882 4.26207 0
M  V30 189 N 15.4442 -4.11441 3.55271 0
M  V30 190 H 19.2462 -1.90575 2.23737 0
M  V30 191 H 16.7602 -0.974435 1.29917 0
M  V30 192 H 18.7572 -4.04423 1.0123 0
M  V30 193 H 17.4172 -3.24353 0.15018 0
M  V30 194 H 18.4282 -3.475 3.84011 0
M  V30 195 H 15.1052 -3.96533 1.30645 0
M  V30 196 H 16.4952 -4.06907 5.34674 0
M  V30 197 N 19.2153 -1.21501 -1.00376 0
M  V30 198 C 20.1453 -0.999478 -2.11028 0
M  V30 199 C 21.1263 0.0759671 -1.6993 0
M  V30 200 O 22.3113 -0.0841106 -1.94018 0
M  V30 201 C 19.4413 -0.564709 -3.42678 0
M  V30 202 C 18.3953 -1.58486 -3.97576 0
M  V30 203 C 17.7213 -1.00628 -5.25146 0
M  V30 204 C 19.0213 -2.97204 -4.29496 0
M  V30 205 H 20.7153 -1.92495 -2.29317 0
M  V30 206 H 18.2613 -0.92693 -1.102 0
M  V30 207 H 20.2143 -0.401091 -4.19487 0
M  V30 208 H 18.9383 0.396411 -3.24185 0
M  V30 209 H 17.5973 -1.73606 -3.22888 0
M  V30 210 H 17.2453 -0.0368439 -5.02987 0
M  V30 211 H 16.9453 -1.68771 -5.62841 0
M  V30 212 H 18.4693 -0.854015 -6.04598 0
M  V30 213 H 19.8833 -2.8552 -4.97143 0
M  V30 214 H 18.2803 -3.62372 -4.78338 0
M  V30 215 H 19.3503 -3.47956 -3.3772 0
M  V30 216 N 20.6934 1.19889 -1.02296 0
M  V30 217 C 21.6034 2.26571 -0.608508 0
M  V30 218 C 22.6194 1.70299 0.356964 0
M  V30 219 O 23.7954 2.00235 0.216326 0
M  V30 220 C 20.8604 3.46677 0.0402814 0
M  V30 221 C 19.9214 4.18153 -0.97194 0
M  V30 222 C 19.1544 5.32525 -0.354016 0
M  V30 223 O 19.3774 5.64112 0.844604 0
M  V30 224 O 18.3114 5.92242 -1.07391 0
M  V30 225 H 22.1374 2.64251 -1.49684 0
M  V30 226 H 19.7224 1.26629 -0.792809 0
M  V30 227 H 21.6044 4.19475 0.402324 0
M  V30 228 H 20.2794 3.10858 0.902707 0
M  V30 229 H 19.1864 3.47499 -1.38546 0
M  V30 230 H 20.5194 4.57927 -1.80454 0
M  V30 231 N 22.1715 0.800033 1.35784 0
M  V30 232 C 23.3965 0.388511 2.03729 0
M  V30 233 C 23.8215 -0.990481 1.5991 0
M  V30 234 O 23.1795 -1.64013 0.772612 0
M  V30 235 C 23.2275 0.4726 3.5749 0
M  V30 236 O 22.3315 -0.51646 4.09153 0
M  V30 237 H 21.6725 0.163271 0.643614 0
M  V30 238 H 24.2025 1.0841 1.73518 0
M  V30 239 H 24.2125 0.34003 4.06581 0
M  V30 240 H 22.8875 1.47848 3.88734 0
M  V30 241 H 21.4645 -0.344673 3.71304 0
M  V30 242 N 23.6496 -1.47581 0.552962 0
M  V30 243 C 24.9266 -1.95563 -0.0381515 0
M  V30 244 C 25.3066 -1.49552 -1.48988 0
M  V30 245 O 24.6546 -0.732414 -2.16444 0
M  V30 246 C 24.8646 -3.48848 0.102919 0
M  V30 247 C 26.2126 -4.24577 -0.0446082 0
M  V30 248 O 27.2366 -3.56187 0.0302548 0
M  V30 249 O 26.0956 -5.46116 -0.204923 0
M  V30 250 H 23.1896 -0.824321 -0.0665067 0
M  V30 251 H 25.7356 -1.58001 0.619186 0
M  V30 252 H 24.5076 -3.75129 1.11328 0
M  V30 253 H 24.1306 -3.93165 -0.592224 0
M  V30 254 N 25.1277 -0.289203 -1.54924 0
M  V30 255 C 26.0907 0.579144 -2.21762 0
M  V30 256 C 27.0907 1.07047 -1.1999 0
M  V30 257 O 28.2807 0.968384 -1.44803 0
M  V30 258 C 25.4127 1.80055 -2.8947 0
M  V30 259 H 26.6057 -0.00464908 -2.999 0
M  V30 260 H 24.1587 -0.0399306 -1.56249 0
M  V30 261 H 24.8937 2.42449 -2.15381 0
M  V30 262 H 24.6787 1.45602 -3.64064 0
M  V30 263 H 26.1687 2.41773 -3.40493 0
M  V30 264 N 26.6058 1.57591 -0.0167156 0
M  V30 265 C 27.8528 1.91283 0.664597 0
M  V30 266 C 28.1808 0.891949 1.72842 0
M  V30 267 O 27.4358 -0.100931 1.9544 0
M  V30 268 C 27.7348 3.3172 1.33029 0
M  V30 269 C 27.4008 4.4914 0.398047 0
M  V30 270 C 26.0628 4.80992 0.141421 0
M  V30 271 C 28.4148 5.20634 -0.242825 0
M  V30 272 C 25.7428 5.81703 -0.764092 0
M  V30 273 C 28.0948 6.22311 -1.13632 0
M  V30 274 C 26.7588 6.52611 -1.40196 0
M  V30 275 H 26.0288 0.699956 0.243193 0
M  V30 276 H 28.6758 1.9135 -0.0758267 0
M  V30 277 H 26.9808 3.27856 2.14517 0
M  V30 278 H 28.6778 3.55055 1.86379 0
M  V30 279 H 25.2678 4.24262 0.608238 0
M  V30 280 H 29.4518 4.96267 -0.0576019 0
M  V30 281 H 24.7078 6.03532 -0.977732 0
M  V30 282 H 28.8818 6.76834 -1.63917 0
M  V30 283 H 26.5088 7.30467 -2.10529 0
M  V30 284 N 28.0839 -0.256276 1.55502 0
M  V30 285 C 29.0139 -1.32102 1.92539 0
M  V30 286 C 29.9949 -1.50684 0.789194 0
M  V30 287 O 31.1799 -1.63449 1.04872 0
M  V30 288 C 28.3099 -2.67752 2.21192 0
M  V30 289 C 27.2639 -2.63878 3.36975 0
M  V30 290 C 26.5899 -4.03236 3.51147 0
M  V30 291 C 27.8899 -2.21682 4.72921 0
M  V30 292 H 29.5839 -1.01351 2.81724 0
M  V30 293 H 27.1299 -0.486105 1.35547 0
M  V30 294 H 29.0829 -3.42365 2.45691 0
M  V30 295 H 27.8069 -3.0012 1.28824 0
M  V30 296 H 26.4659 -1.91722 3.12471 0
M  V30 297 H 26.1139 -4.32854 2.56216 0
M  V30 298 H 25.8139 -4.01535 4.29003 0
M  V30 299 H 27.3379 -4.79563 3.77957 0
M  V30 300 H 28.7519 -2.86023 4.96854 0
M  V30 301 H 27.1489 -2.3111 5.53812 0
M  V30 302 H 28.2189 -1.16833 4.70615 0
M  V30 303 N 29.562 -1.4872 -0.521534 0
M  V30 304 C 30.808 -1.574 -1.27879 0
M  V30 305 C 31.141 -0.250817 -1.92573 0
M  V30 306 O 30.416 0.743934 -1.79711 0
M  V30 307 C 30.699 -2.71843 -2.36164 0
M  V30 308 C 30.552 -4.13893 -1.76105 0
M  V30 309 C 31.871 -2.82008 -3.37875 0
M  V30 310 H 28.99 -0.572941 -0.463581 0
M  V30 311 H 31.632 -1.80927 -0.580119 0
M  V30 312 H 29.782 -2.51914 -2.95756 0
M  V30 313 H 31.454 -4.45284 -1.20499 0
M  V30 314 H 29.697 -4.20498 -1.06601 0
M  V30 315 H 30.368 -4.89804 -2.5455 0
M  V30 316 H 32.844 -3.00086 -2.88249 0
M  V30 317 H 31.72 -3.63796 -4.11028 0
M  V30 318 H 31.981 -1.90511 -3.98946 0
M  V30 319 N 31.0401 0.771051 -1.3745 0
M  V30 320 C 32.2801 1.54264 -1.34096 0
M  V30 321 C 32.6441 1.91858 0.0737639 0
M  V30 322 O 33.8451 2.67797 0.23203 0
M  V30 323 C 32.1161 2.77326 -2.25445 0
M  V30 324 S 33.6751 3.67383 -2.39948 0
M  V30 325 H 30.4931 0.528122 -0.476034 0
M  V30 326 H 33.0951 0.906633 -1.73206 0
M  V30 327 H 31.7991 2.47788 -3.27153 0
M  V30 328 H 31.3301 3.45886 -1.87421 0
M  V30 329 H 33.3451 4.69334 -1.61059 0
M  V30 330 N 32.5182 1.22032 0.997298 0
M  V30 331 C 33.4482 1.01065 2.10495 0
M  V30 332 C 34.4292 -0.0669542 1.69968 0
M  V30 333 O 35.6142 0.0943987 1.9397 0
M  V30 334 C 32.7442 0.582874 3.42374 0
M  V30 335 C 31.6982 1.60592 3.96729 0
M  V30 336 C 31.0242 1.03412 5.24605 0
M  V30 337 C 32.3242 2.99478 4.27914 0
M  V30 338 H 34.0182 1.93708 2.28292 0
M  V30 339 H 31.5642 0.932761 1.09707 0
M  V30 340 H 33.5172 0.423332 4.19268 0
M  V30 341 H 32.2412 -0.379213 3.24391 0
M  V30 342 H 30.9002 1.75316 3.21963 0
M  V30 343 H 30.5482 0.063518 5.0296 0
M  V30 344 H 30.2482 1.71754 5.61938 0
M  V30 345 H 31.7722 0.886066 6.04137 0
M  V30 346 H 33.1862 2.88153 4.95622 0
M  V30 347 H 31.5832 3.64903 4.76409 0
M  V30 348 H 32.6532 3.49742 3.3587 0
M  V30 349 N 33.9963 -1.19345 1.0293 0
M  V30 350 C 34.9443 -2.24621 0.604001 0
M  V30 351 C 35.9383 -1.65452 -0.363587 0
M  V30 352 O 37.1443 -1.78497 -0.23212 0
M  V30 353 H 33.5193 -0.730858 0.177061 0
M  V30 354 H 35.4903 -2.5781 1.50255 0
M  V30 355 C 34.2393 -3.47688 -0.0289127 0
M  V30 356 H 33.5623 -3.93505 0.706651 0
M  V30 357 H 35.0023 -4.23011 -0.289432 0
M  V30 358 C 33.4613 -3.11817 -1.2756 0
M  V30 359 O 33.9913 -3.2451 -2.36762 0
M  V30 360 N 32.1973 -2.66246 -1.16453 0
M  V30 361 H 31.7443 -2.56118 -0.275914 0
M  V30 362 H 31.7023 -2.42617 -1.99961 0
M  V30 363 N 35.4744 -0.807222 -1.35358 0
M  V30 364 C 36.4244 -0.190706 -2.27201 0
M  V30 365 C 37.4084 0.635838 -1.47804 0
M  V30 366 O 38.6004 0.492991 -1.69996 0
M  V30 367 C 35.7294 0.659337 -3.36909 0
M  V30 368 C 34.8154 -0.176971 -4.23731 0
M  V30 369 N 35.2064 -1.24029 -4.90357 0
M  V30 370 C 33.5044 0.0412953 -4.45981 0
M  V30 371 C 34.2054 -1.75092 -5.54723 0
M  V30 372 N 33.1814 -1.05727 -5.33219 0
M  V30 373 H 36.9834 -1.0043 -2.76208 0
M  V30 374 H 34.4974 -0.648445 -1.48892 0
M  V30 375 H 36.4944 1.11706 -4.01656 0
M  V30 376 H 35.1544 1.47127 -2.89454 0
M  V30 377 H 36.1654 -1.62295 -4.91814 0
M  V30 378 H 32.8424 0.82232 -4.09322 0
M  V30 379 H 34.2324 -2.63963 -6.17878 0
M  V30 380 N 36.9525 1.47285 -0.560781 0
M  V30 381 C 37.9155 2.28535 0.174488 0
M  V30 382 C 38.9155 1.37153 0.839388 0
M  V30 383 O 40.1055 1.59748 0.694702 0
M  V30 384 C 37.2375 3.16934 1.25561 0
M  V30 385 H 38.4305 2.95012 -0.539262 0
M  V30 386 H 35.9835 1.53034 -0.317865 0
M  V30 387 H 36.7185 2.55157 2.00164 0
M  V30 388 H 36.5035 3.8419 0.783604 0
M  V30 389 H 37.9935 3.78143 1.77193 0
M  V30 390 N 38.4306 0.297415 1.54768 0
M  V30 391 C 39.3606 -0.573494 2.26348 0
M  V30 392 C 40.3416 -1.14085 1.26169 0
M  V30 393 O 41.5266 -1.17086 1.54934 0
M  V30 394 C 38.6566 -1.74716 3.00153 0
M  V30 395 C 37.6106 -1.31032 4.07449 0
M  V30 396 C 36.9366 -2.56887 4.68949 0
M  V30 397 C 38.2366 -0.444183 5.20408 0
M  V30 398 H 39.9306 0.0235131 2.99391 0
M  V30 399 H 37.4766 0.0127488 1.43994 0
M  V30 400 H 39.4296 -2.3625 3.48947 0
M  V30 401 H 38.1536 -2.37035 2.24682 0
M  V30 402 H 36.8126 -0.718066 3.59499 0
M  V30 403 H 36.4606 -3.17512 3.90122 0
M  V30 404 H 36.1606 -2.2836 5.41411 0
M  V30 405 H 37.6846 -3.19229 5.20505 0
M  V30 406 H 39.0986 -0.9651 5.65118 0
M  V30 407 H 37.4956 -0.252846 5.99567 0
M  V30 408 H 38.5656 0.531609 4.81977 0
M  V30 409 N 39.9087 -1.5758 0.0250728 0
M  V30 410 C 41.1337 -1.96337 -0.668317 0
M  V30 411 C 41.5587 -0.901314 -1.651 0
M  V30 412 O 40.9167 0.138187 -1.80773 0
M  V30 413 C 40.9647 -3.34191 -1.35457 0
M  V30 414 O 40.0687 -3.30269 -2.46974 0
M  V30 415 H 39.4097 -0.640281 -0.175887 0
M  V30 416 H 41.9397 -2.0442 0.0857224 0
M  V30 417 H 41.9497 -3.70331 -1.71228 0
M  V30 418 H 40.6247 -4.11036 -0.634218 0
M  V30 419 H 39.2017 -3.05841 -2.13344 0
M  V30 420 N 41.3868 0.248026 -1.55636 0
M  V30 421 C 42.6148 0.993808 -1.81469 0
M  V30 422 C 43.0298 1.78991 -0.60064 0
M  V30 423 O 42.3868 1.77345 0.430682 0
M  V30 424 C 42.4378 1.93258 -3.05506 0
M  V30 425 O 42.1588 1.16869 -4.22224 0
M  V30 426 C 43.6598 2.79444 -3.4413 0
M  V30 427 H 40.8798 0.292486 -0.603898 0
M  V30 428 H 43.4238 0.271253 -2.02693 0
M  V30 429 H 41.5788 2.60943 -2.86335 0
M  V30 430 H 41.9928 1.80359 -4.92515 0
M  V30 431 H 43.4668 3.41066 -4.34026 0
M  V30 432 H 43.9438 3.50499 -2.64665 0
M  V30 433 H 44.5498 2.17214 -3.65648 0
M  V30 434 N 42.8649 1.48995 0.513639 0
M  V30 435 C 43.7749 1.67443 1.64317 0
M  V30 436 C 44.7909 0.556947 1.64846 0
M  V30 437 O 45.9669 0.830082 1.83498 0
M  V30 438 C 43.0319 1.72515 3.00732 0
M  V30 439 C 42.0929 2.96009 3.1093 0
M  V30 440 C 41.3259 3.00829 4.40837 0
M  V30 441 O 41.5489 2.13594 5.28898 0
M  V30 442 O 40.4829 3.93168 4.55744 0
M  V30 443 H 44.3089 2.63106 1.51687 0
M  V30 444 H 41.8939 1.32588 0.688543 0
M  V30 445 H 43.7759 1.78277 3.81831 0
M  V30 446 H 42.4509 0.800278 3.13651 0
M  V30 447 H 41.3579 2.9577 2.29065 0
M  V30 448 H 42.6909 3.87934 3.02933 0
M  V30 449 N 44.343 -0.763751 1.37857 0
M  V30 450 C 45.29 -1.87726 1.34267 0
M  V30 451 C 46.26 -1.64807 0.206879 0
M  V30 452 O 47.445 -1.86613 0.397508 0
M  V30 453 C 44.585 -3.24896 1.16346 0
M  V30 454 C 43.698 -3.59716 2.39225 0
M  V30 455 C 42.833 -4.86137 2.14114 0
M  V30 456 C 41.872 -5.13711 3.32817 0
M  V30 457 N 41.009 -6.31323 3.07206 0
M  V30 458 H 45.849 -1.90129 2.29466 0
M  V30 459 H 43.386 -0.929433 1.14017 0
M  V30 460 H 45.344 -4.04036 1.03975 0
M  V30 461 H 43.974 -3.21847 0.247909 0
M  V30 462 H 43.026 -2.75498 2.62307 0
M  V30 463 H 44.338 -3.76027 3.27728 0
M  V30 464 H 43.492 -5.73198 1.9882 0
M  V30 465 H 42.231 -4.71945 1.22961 0
M  V30 466 H 41.236 -4.25123 3.48641 0
M  V30 467 H 42.461 -5.29807 4.24832 0
M  V30 468 H 40.407 -6.18474 2.1869 0
M  V30 469 H 40.324 -6.48087 3.89254 0
M  V30 470 H 41.592 -7.213 2.95546 0
M  V30 471 N 45.8211 -1.22559 -0.990812 0
M  V30 472 C 46.7311 -1.01394 -2.11557 0
M  V30 473 C 47.7471 0.0383962 -1.73958 0
M  V30 474 O 48.9231 -0.154787 -2.00804 0
M  V30 475 C 45.9881 -0.596569 -3.41529 0
M  V30 476 C 45.0491 -1.72276 -3.93217 0
M  V30 477 C 44.2821 -1.32521 -5.16985 0
M  V30 478 O 44.5051 -0.204909 -5.70032 0
M  V30 479 O 43.4391 -2.14247 -5.62478 0
M  V30 480 H 47.2651 -1.95633 -2.32296 0
M  V30 481 H 44.8501 -1.01172 -1.0993 0
M  V30 482 H 46.7321 -0.374263 -4.19735 0
M  V30 483 H 45.4071 0.316939 -3.22145 0
M  V30 484 H 44.3141 -1.99961 -3.16174 0
M  V30 485 H 45.6471 -2.61421 -4.17037 0
M  V30 486 N 47.2992 1.18797 -1.03562 0
M  V30 487 C 48.2092 2.25913 -0.632505 0
M  V30 488 C 49.2252 1.70668 0.338882 0
M  V30 489 O 50.4012 2.00453 0.195076 0
M  V30 490 C 47.4662 3.467 0.00350942 0
M  V30 491 C 46.5272 4.17098 -1.01624 0
M  V30 492 C 45.7602 5.32119 -0.410478 0
M  V30 493 O 45.9832 5.64976 0.784725 0
M  V30 494 O 44.9172 5.9107 -1.13667 0
M  V30 495 H 48.7432 2.62648 -1.52478 0
M  V30 496 H 46.3282 1.25781 -0.806195 0
M  V30 497 H 48.2102 4.19878 0.35781 0
M  V30 498 H 46.8852 3.11798 0.869686 0
M  V30 499 H 45.7922 3.4601 -1.42224 0
M  V30 500 H 47.1252 4.55987 -1.85301 0
M  V30 501 N 48.7773 0.814389 1.34928 0
M  V30 502 C 50.0233 0.399013 1.98836 0
M  V30 503 C 50.3563 -1.03314 1.64438 0
M  V30 504 O 49.6313 -1.71811 0.911659 0
M  V30 505 C 49.9143 0.591629 3.55207 0
M  V30 506 C 49.7673 2.06928 3.99376 0
M  V30 507 C 51.0863 0.022199 4.40094 0
M  V30 508 H 48.2053 0.146451 0.722303 0
M  V30 509 H 50.8473 1.02537 1.59957 0
M  V30 510 H 48.9973 0.0584441 3.88456 0
M  V30 511 H 50.6693 2.66544 3.76499 0
M  V30 512 H 48.9123 2.56287 3.49999 0
M  V30 513 H 49.5833 2.1549 5.08201 0
M  V30 514 H 52.0593 0.477643 4.13349 0
M  V30 515 H 50.9353 0.186832 5.48582 0
M  V30 516 H 51.1963 -1.07215 4.28902 0
M  V30 517 N 50.2554 -1.46986 0.568584 0
M  V30 518 C 51.1884 -2.27129 -0.220779 0
M  V30 519 C 52.1664 -1.34757 -0.909905 0
M  V30 520 O 53.3504 -1.64152 -0.926622 0
M  V30 521 C 50.4774 -3.12108 -1.31553 0
M  V30 522 C 49.5234 -4.20141 -0.733748 0
M  V30 523 S 50.3564 -5.33783 0.428479 0
M  V30 524 C 51.5124 -6.22327 -0.667811 0
M  V30 525 H 51.7454 -2.93731 0.459267 0
M  V30 526 H 49.2784 -1.5026 0.355154 0
M  V30 527 H 51.2364 -3.61636 -1.94241 0
M  V30 528 H 49.8974 -2.44847 -1.96746 0
M  V30 529 H 49.0904 -4.79373 -1.5562 0
M  V30 530 H 48.6924 -3.73553 -0.182812 0
M  V30 531 H 50.9844 -6.59364 -1.55708 0
M  V30 532 H 51.9274 -7.0801 -0.11258 0
M  V30 533 H 52.3354 -5.5618 -0.965601 0
M  V30 534 N 51.7335 -0.305618 -1.54608 0
M  V30 535 C 52.9815 0.301701 -1.99835 0
M  V30 536 C 53.3025 1.54054 -1.19551 0
M  V30 537 O 52.5725 1.93702 -0.292658 0
M  V30 538 H 51.1525 0.114468 -0.738178 0
M  V30 539 H 53.8145 -0.418016 -1.90364 0
M  V30 540 H 52.9105 0.570548 -3.06841 0
M  V30 541 N 53.2116 1.57565 -0.0334293 0
M  V30 542 C 54.1416 2.13511 0.945265 0
M  V30 543 C 55.1226 1.05231 1.33643 0
M  V30 544 O 56.3076 1.33084 1.41429 0
M  V30 545 C 53.4376 2.6657 2.22616 0
M  V30 546 C 52.3916 3.79676 1.97561 0
M  V30 547 C 51.7176 4.1918 3.31952 0
M  V30 548 C 53.0176 5.0557 1.31135 0
M  V30 549 H 54.7116 2.95538 0.479325 0
M  V30 550 H 52.2576 1.42166 0.229115 0
M  V30 551 H 54.2106 3.04344 2.91466 0
M  V30 552 H 52.9346 1.8171 2.71384 0
M  V30 553 H 51.5936 3.42347 1.31127 0
M  V30 554 H 51.2416 3.31296 3.78487 0
M  V30 555 H 50.9416 4.95402 3.15992 0
M  V30 556 H 52.4656 4.59541 4.02063 0
M  V30 557 H 53.8796 5.40903 1.89992 0
M  V30 558 H 52.2766 5.86818 1.25559 0
M  V30 559 H 53.3466 4.84062 0.284894 0
M  V30 560 N 54.6897 -0.239769 1.55765 0
M  V30 561 C 55.9297 -0.974076 1.79697 0
M  V30 562 C 56.2937 -1.82249 0.604088 0
M  V30 563 O 57.4947 -2.58913 0.722324 0
M  V30 564 C 55.7657 -1.80595 3.08416 0
M  V30 565 S 57.3247 -2.59838 3.53596 0
M  V30 566 H 54.1427 -0.327524 0.63107 0
M  V30 567 H 56.7447 -0.241277 1.94005 0
M  V30 568 H 55.4487 -1.17249 3.93295 0
M  V30 569 H 54.9797 -2.58137 2.96865 0
M  V30 570 H 56.9947 -3.82987 3.15492 0
M  V30 571 N 56.1678 -1.49265 -0.50573 0
M  V30 572 C 57.4168 -1.57761 -1.25675 0
M  V30 573 C 57.7298 -0.267371 -1.93764 0
M  V30 574 O 58.9358 -0.230827 -2.70517 0
M  V30 575 C 57.3918 -2.78332 -2.28165 0
M  V30 576 C 56.9998 -4.16096 -1.66037 0
M  V30 577 C 58.7438 -2.96155 -3.04125 0
M  V30 578 C 56.6508 -5.27895 -2.6661 0
M  V30 579 H 55.5808 -0.587391 -0.472745 0
M  V30 580 H 58.2318 -1.75644 -0.53118 0
M  V30 581 H 56.6138 -2.53934 -3.03865 0
M  V30 582 H 57.7878 -4.50612 -0.963622 0
M  V30 583 H 56.1028 -4.03591 -1.02484 0
M  V30 584 H 58.6998 -3.76849 -3.79327 0
M  V30 585 H 59.0428 -2.06534 -3.61455 0
M  V30 586 H 59.5758 -3.2057 -2.35541 0
M  V30 587 H 56.3148 -6.1956 -2.14068 0
M  V30 588 H 55.8348 -4.97839 -3.34539 0
M  V30 589 H 57.5138 -5.57031 -3.29129 0
M  V30 590 N 57.6459 0.756429 -1.3826 0
M  V30 591 C 58.8939 1.51248 -1.34047 0
M  V30 592 C 59.2149 1.94875 0.0698372 0
M  V30 593 O 58.4849 1.67436 1.01696 0
M  V30 594 H 57.0649 0.561018 -0.493222 0
M  V30 595 H 59.7269 0.899347 -1.7291 0
M  V30 596 H 58.8229 2.40472 -1.98947 0
M  V30 597 N 59.124 1.23083 0.984299 0
M  V30 598 C 60.034 1.02515 2.11016 0
M  V30 599 C 61.05 -0.0291702 1.73976 0
M  V30 600 O 62.226 0.165434 2.00719 0
M  V30 601 C 59.291 0.614673 3.41208 0
M  V30 602 C 58.352 1.74359 3.92297 0
M  V30 603 C 57.585 1.35261 5.16275 0
M  V30 604 O 57.808 0.235136 5.69915 0
M  V30 605 O 56.742 2.17227 5.61334 0
M  V30 606 H 60.568 1.96862 2.31255 0
M  V30 607 H 58.153 1.01753 1.09392 0
M  V30 608 H 60.035 0.396518 4.1953 0
M  V30 609 H 58.71 -0.299851 3.22308 0
M  V30 610 H 57.617 2.01635 3.1511 0
M  V30 611 H 58.95 2.63629 4.15645 0
M  V30 612 N 60.6021 -1.18246 1.0419 0
M  V30 613 C 61.5321 -2.24127 0.654914 0
M  V30 614 C 62.5131 -1.66617 -0.342451 0
M  V30 615 O 63.6981 -1.92924 -0.222277 0
M  V30 616 C 60.8281 -3.47295 0.0183757 0
M  V30 617 C 59.7821 -4.17563 0.939414 0
M  V30 618 C 59.1081 -5.34438 0.167286 0
M  V30 619 C 60.4081 -4.70917 2.25908 0
M  V30 620 H 62.1021 -2.56753 1.54007 0
M  V30 621 H 59.6481 -1.23414 0.74195 0
M  V30 622 H 61.6011 -4.20572 -0.264082 0
M  V30 623 H 60.3251 -3.13907 -0.901664 0
M  V30 624 H 58.9841 -3.46186 1.20628 0
M  V30 625 H 58.6321 -4.97298 -0.7552 0
M  V30 626 H 58.3321 -5.82388 0.780901 0
M  V30 627 H 59.8561 -6.10504 -0.108125 0
M  V30 628 H 61.2701 -5.35882 2.03724 0
M  V30 629 H 59.6671 -5.29406 2.82577 0
M  V30 630 H 60.7371 -3.88272 2.9047 0
M  V30 631 N 62.0802 -0.821533 -1.34494 0
M  V30 632 C 63.0282 -0.230702 -2.31453 0
M  V30 633 C 64.0222 0.627793 -1.57338 0
M  V30 634 O 65.2282 0.519288 -1.72347 0
M  V30 635 H 61.6032 -0.0558577 -0.749923 0
M  V30 636 H 63.5742 -1.06332 -2.78812 0
M  V30 637 C 62.3232 0.59391 -3.4259 0
M  V30 638 H 61.6462 -0.0573588 -3.99759 0
M  V30 639 H 63.0862 0.973446 -4.12674 0
M  V30 640 C 61.5452 1.76568 -2.86924 0
M  V30 641 O 62.0752 2.8638 -2.81691 0
M  V30 642 N 60.2812 1.58198 -2.43766 0
M  V30 643 H 59.8282 0.68872 -2.48222 0
M  V30 644 H 59.7862 2.36752 -2.06871 0
M  V30 645 N 63.5583 1.46682 -0.576371 0
M  V30 646 C 64.8353 1.95599 0.00703437 0
M  V30 647 C 65.2153 1.51904 1.46589 0
M  V30 648 O 64.5633 0.766755 2.15251 0
M  V30 649 C 64.7733 3.4864 -0.158404 0
M  V30 650 C 66.1213 4.24594 -0.0229439 0
M  V30 651 O 67.1453 3.56094 -0.0869173 0
M  V30 652 O 66.0043 5.46373 0.118015 0
M  V30 653 H 63.0983 0.825275 0.053384 0
M  V30 654 H 65.6443 1.56996 -0.644244 0
M  V30 655 H 64.4163 3.7331 -1.17282 0
M  V30 656 H 64.0393 3.94057 0.5296 0
M  V30 657 N 65.0364 0.313813 1.54444 0
M  V30 658 C 66.3134 -0.345447 1.92525 0
M  V30 659 C 66.6934 -1.70667 1.24242 0
M  V30 660 O 66.0414 -2.25273 0.382654 0
M  V30 661 C 66.2514 -0.44737 3.46121 0
M  V30 662 C 67.5994 -0.712238 4.18584 0
M  V30 663 O 68.6234 -0.530678 3.52225 0
M  V30 664 O 67.4824 -1.06183 5.36085 0
M  V30 665 H 64.5764 -0.195407 0.803583 0
M  V30 666 H 67.1224 0.362813 1.65776 0
M  V30 667 H 65.8944 0.509043 3.87975 0
M  V30 668 H 65.5174 -1.20359 3.78945 0
M  V30 669 N 66.5145 -1.57545 0.0417849 0
M  V30 670 C 67.7425 -1.96624 -0.643928 0
M  V30 671 C 68.1575 -0.918897 -1.64929 0
M  V30 672 O 67.5145 0.0979323 -1.82237 0
M  V30 673 C 67.5655 -3.35781 -1.33914 0
M  V30 674 O 67.2865 -4.365 -0.374048 0
M  V30 675 C 68.7875 -3.89566 -2.1155 0
M  V30 676 H 66.0075 -0.647316 -0.176702 0
M  V30 677 H 68.5515 -2.04229 0.105304 0
M  V30 678 H 66.7065 -3.29357 -2.03968 0
M  V30 679 H 67.1205 -5.17248 -0.869179 0
M  V30 680 H 68.5945 -4.89242 -2.55628 0
M  V30 681 H 69.0715 -3.24488 -2.9598 0
M  V30 682 H 69.6775 -3.99298 -1.46427 0
M  V30 683 N 67.9926 0.231505 -1.5589 0
M  V30 684 C 69.4086 0.580748 -1.48659 0
M  V30 685 C 69.6086 1.87617 -0.73498 0
M  V30 686 O 68.6646 2.51046 -0.270586 0
M  V30 687 C 69.9776 0.669202 -2.93159 0
M  V30 688 C 71.5256 0.760499 -3.03621 0
M  V30 689 C 72.0006 0.880383 -4.49459 0
M  V30 690 N 73.4916 0.944861 -4.53461 0
M  V30 691 C 74.2266 1.05716 -5.63571 0
M  V30 692 N 73.7226 1.13403 -6.83456 0
M  V30 693 N 75.5156 1.09152 -5.514 0
M  V30 694 H 67.6666 -0.618695 -2.03189 0
M  V30 695 H 69.9296 -0.215728 -0.923128 0
M  V30 696 H 69.6356 -0.212904 -3.51055 0
M  V30 697 H 69.5096 1.5361 -3.44505 0
M  V30 698 H 71.8966 1.63305 -2.45796 0
M  V30 699 H 71.9776 -0.131864 -2.5546 0
M  V30 700 H 71.6216 0.0123284 -5.07899 0
M  V30 701 H 71.5516 1.78802 -4.95316 0
M  V30 702 H 74.0426 0.896176 -3.6712 0
M  V30 703 H 74.3556 1.21921 -7.63122 0
M  V30 704 H 72.7006 1.10333 -6.86186 0
M  V30 705 H 75.8916 1.02805 -4.56671 0
M  V30 706 H 76.0646 1.17558 -6.37247 0
M  V30 707 N 69.4707 1.49531 0.497807 0
M  V30 708 C 70.6957 1.63159 1.28039 0
M  V30 709 C 71.1207 0.30418 1.85624 0
M  V30 710 O 70.4787 -0.728618 1.66015 0
M  V30 711 C 70.5267 2.70537 2.38416 0
M  V30 712 O 69.6307 2.29931 3.42353 0
M  V30 713 H 68.9717 0.546001 0.377861 0
M  V30 714 H 71.5017 1.9574 0.59558 0
M  V30 715 H 71.5117 2.92802 2.84132 0
M  V30 716 H 70.1867 3.6689 1.95869 0
M  V30 717 H 68.7637 2.18009 3.02533 0
M  V30 718 N 70.9488 -0.749086 1.3866 0
M  V30 719 C 72.2258 -1.4992 1.25632 0
M  V30 720 C 72.6058 -2.10633 -0.140317 0
M  V30 721 O 71.9538 -1.97437 -1.15025 0
M  V30 722 C 72.1638 -2.56195 2.36992 0
M  V30 723 C 73.5118 -3.22972 2.75634 0
M  V30 724 O 74.5358 -2.66502 2.36337 0
M  V30 725 O 73.3948 -4.25122 3.43415 0
M  V30 726 H 70.4888 -0.665067 0.491544 0
M  V30 727 H 73.0348 -0.784113 1.50498 0
M  V30 728 H 71.8068 -2.09612 3.30422 0
M  V30 729 H 71.4298 -3.35279 2.13714 0
M  V30 730 N 72.4269 -1.23603 -0.977757 0
M  V30 731 C 73.6519 -1.09735 -1.75991 0
M  V30 732 C 74.0769 0.346858 -1.84874 0
M  V30 733 O 73.4349 1.25093 -1.3123 0
M  V30 734 C 73.4829 -1.73051 -3.16363 0
M  V30 735 O 72.5869 -0.994452 -4.0023 0
M  V30 736 H 71.9279 -0.384476 -0.541364 0
M  V30 737 H 74.4579 -1.6371 -1.2272 0
M  V30 738 H 74.4679 -1.78398 -3.66931 0
M  V30 739 H 73.1429 -2.78137 -3.09213 0
M  V30 740 H 71.7199 -1.01812 -3.58732 0
M  V30 741 N 73.905 1.17692 -1.04816 0
M  V30 742 C 74.852 2.21581 -0.645797 0
M  V30 743 C 75.822 1.62367 0.350159 0
M  V30 744 O 77.007 1.89254 0.242433 0
M  V30 745 C 74.147 3.45092 -0.0227568 0
M  V30 746 C 73.26 4.18613 -1.06709 0
M  V30 747 C 72.395 5.29602 -0.411767 0
M  V30 748 C 71.434 5.94904 -1.44067 0
M  V30 749 N 70.571 6.97414 -0.809781 0
M  V30 750 H 75.411 2.55353 -1.5362 0
M  V30 751 H 72.948 1.25438 -0.768364 0
M  V30 752 H 74.906 4.15679 0.35588 0
M  V30 753 H 73.536 3.11917 0.831122 0
M  V30 754 H 72.588 3.46779 -1.5636 0
M  V30 755 H 73.9 4.63293 -1.84827 0
M  V30 756 H 73.054 6.06696 0.0206623 0
M  V30 757 H 71.793 4.86045 0.401438 0
M  V30 758 H 70.798 5.16544 -1.88316 0
M  V30 759 H 72.023 6.40542 -2.25571 0
M  V30 760 H 69.969 6.55998 -0.0170186 0
M  V30 761 H 69.886 7.40386 -1.52856 0
M  V30 762 H 71.154 7.78463 -0.401999 0
M  V30 763 N 75.3831 0.828654 1.34056 0
M  V30 764 C 76.6301 0.419458 1.98108 0
M  V30 765 C 76.9581 -1.01886 1.65679 0
M  V30 766 O 76.2131 -1.72539 0.923512 0
M  V30 767 C 76.5121 0.575226 3.52741 0
M  V30 768 C 76.1781 1.98012 4.05095 0
M  V30 769 C 74.8401 2.36442 4.19104 0
M  V30 770 C 77.1921 2.89824 4.33188 0
M  V30 771 C 74.5201 3.66009 4.58535 0
M  V30 772 C 76.8721 4.1886 4.74066 0
M  V30 773 C 75.5361 4.5726 4.86281 0
M  V30 774 H 74.8061 0.153491 0.724929 0
M  V30 775 H 77.4531 1.05371 1.59904 0
M  V30 776 H 75.7581 -0.142385 3.91541 0
M  V30 777 H 77.4551 0.239057 4.00287 0
M  V30 778 H 74.0451 1.67162 3.94658 0
M  V30 779 H 78.2291 2.61375 4.21897 0
M  V30 780 H 73.4851 3.95579 4.66184 0
M  V30 781 H 77.6591 4.90086 4.94761 0
M  V30 782 H 75.2861 5.57707 5.16592 0
M  V30 783 N 76.8612 -1.46375 0.584142 0
M  V30 784 C 77.8242 -2.28784 -0.138108 0
M  V30 785 C 78.8242 -1.38471 -0.817462 0
M  V30 786 O 80.0142 -1.60833 -0.669199 0
M  V30 787 C 77.1462 -3.18892 -1.20503 0
M  V30 788 H 78.3392 -2.94117 0.586127 0
M  V30 789 H 75.8922 -1.52509 0.342171 0
M  V30 790 H 76.6272 -2.58309 -1.96079 0
M  V30 791 H 76.4122 -3.85388 -0.722384 0
M  V30 792 H 77.9022 -3.80914 -1.71155 0
M  V30 793 N 78.3393 -0.321999 -1.54275 0
M  V30 794 C 79.5693 0.282642 -2.04658 0
M  V30 795 C 79.9773 1.46453 -1.19784 0
M  V30 796 O 79.3203 1.82367 -0.220932 0
M  V30 797 C 79.3823 0.781857 -3.50895 0
M  V30 798 C 79.0463 -0.277517 -4.56157 0
M  V30 799 C 80.0433 -1.11307 -5.07845 0
M  V30 800 C 77.7283 -0.425256 -5.00497 0
M  V30 801 C 79.7223 -2.08211 -6.02434 0
M  V30 802 C 77.4093 -1.39771 -5.94901 0
M  V30 803 C 78.4073 -2.2246 -6.45756 0
M  V30 804 O 78.0953 -3.18054 -7.38307 0
M  V30 805 H 77.8273 0.0622636 -0.673126 0
M  V30 806 H 80.3813 -0.465792 -2.00049 0
M  V30 807 H 78.6113 1.58118 -3.52896 0
M  V30 808 H 80.3003 1.30467 -3.84361 0
M  V30 809 H 81.0663 -1.00991 -4.74369 0
M  V30 810 H 76.9453 0.20847 -4.60528 0
M  V30 811 H 80.4893 -2.72791 -6.42052 0
M  V30 812 H 76.3863 -1.50152 -6.27794 0
M  V30 813 H 77.1543 -3.13275 -7.56175 0
M  V30 814 N 79.8174 1.5752 -0.0501392 0
M  V30 815 C 81.0454 1.96963 0.633492 0
M  V30 816 C 81.4604 0.927631 1.6444 0
M  V30 817 O 80.8174 -0.0882665 1.82286 0
M  V30 818 C 80.8684 3.36487 1.32132 0
M  V30 819 O 80.5894 4.36693 0.350894 0
M  V30 820 C 82.0904 3.90682 2.09481 0
M  V30 821 H 79.3104 0.648244 0.173266 0
M  V30 822 H 81.8544 2.0417 -0.116134 0
M  V30 823 H 80.0094 3.30434 2.02218 0
M  V30 824 H 80.4234 5.17702 0.841735 0
M  V30 825 H 81.8974 4.90591 2.5303 0
M  V30 826 H 82.3744 3.26053 2.94255 0
M  V30 827 H 82.9804 4.00069 1.44307 0
M  V30 828 N 81.2955 -0.223234 1.56011 0
M  V30 829 C 82.5435 -0.946003 1.78592 0
M  V30 830 C 82.8645 -1.84936 0.618349 0
M  V30 831 O 82.1345 -1.92473 -0.364833 0
M  V30 832 H 80.7145 -0.352298 0.658707 0
M  V30 833 H 83.3765 -0.235494 1.93472 0
M  V30 834 H 82.4725 -1.55381 2.70672 0
M  V30 835 N 82.7736 -1.49793 -0.48987 0
M  V30 836 C 84.0016 -1.63568 -1.26701 0
M  V30 837 C 84.4166 -0.311465 -1.86213 0
M  V30 838 O 83.7736 0.704416 -1.68357 0
M  V30 839 C 83.8246 -2.71284 -2.38929 0
M  V30 840 O 83.5456 -3.9857 -1.81861 0
M  V30 841 C 85.0466 -2.95864 -3.3012 0
M  V30 842 H 82.2666 -0.550342 -0.383881 0
M  V30 843 H 84.8106 -1.95898 -0.586864 0
M  V30 844 H 82.9656 -2.417 -3.02753 0
M  V30 845 H 83.3796 -4.57993 -2.55622 0
M  V30 846 H 84.8536 -3.74941 -4.05121 0
M  V30 847 H 85.3306 -2.06206 -3.87783 0
M  V30 848 H 85.9366 -3.26907 -2.72051 0
M  V30 849 N 84.2517 0.741722 -1.39055 0
M  V30 850 C 85.1617 1.88621 -1.39496 0
M  V30 851 C 86.1777 1.71557 -0.290578 0
M  V30 852 O 87.3537 1.94275 -0.530954 0
M  V30 853 C 84.4187 3.24134 -1.23037 0
M  V30 854 C 83.4797 3.5364 -2.43387 0
M  V30 855 C 82.7127 4.82687 -2.27703 0
M  V30 856 O 82.9357 5.55922 -1.27696 0
M  V30 857 O 81.8697 5.1194 -3.16545 0
M  V30 858 H 85.6957 1.91203 -2.35956 0
M  V30 859 H 83.2807 0.888625 -1.20099 0
M  V30 860 H 85.1627 4.0513 -1.15964 0
M  V30 861 H 83.8377 3.22337 -0.296691 0
M  V30 862 H 82.7447 2.72758 -2.56035 0
M  V30 863 H 84.0777 3.60209 -3.35425 0
M  V30 864 N 85.7298 1.2412 0.971189 0
M  V30 865 C 86.6628 0.97373 2.06382 0
M  V30 866 C 87.6408 -0.0912662 1.62344 0
M  V30 867 O 88.8248 0.0449365 1.88446 0
M  V30 868 C 85.9518 0.468746 3.35441 0
M  V30 869 C 84.9978 1.52176 3.98428 0
M  V30 870 S 85.8308 3.10203 4.36503 0
M  V30 871 C 86.9868 2.61398 5.68702 0
M  V30 872 H 87.2198 1.89893 2.28753 0
M  V30 873 H 84.7528 1.07466 1.10862 0
M  V30 874 H 86.7108 0.184012 4.10087 0
M  V30 875 H 85.3718 -0.435688 3.11064 0
M  V30 876 H 84.5648 1.11876 4.91426 0
M  V30 877 H 84.1668 1.75632 3.30196 0
M  V30 878 H 86.4588 2.03992 6.4606 0
M  V30 879 H 87.4018 3.52972 6.13854 0
M  V30 880 H 87.8098 2.01941 5.27143 0
M  V30 881 N 87.2079 -1.17134 1.05439 0
M  V30 882 C 88.6239 -1.39454 0.776201 0
M  V30 883 C 88.8239 -1.91454 -0.628307 0
M  V30 884 O 87.8799 -2.10777 -1.39031 0
M  V30 885 C 89.1929 -2.38305 1.83388 0
M  V30 886 C 90.7409 -2.52006 1.85639 0
M  V30 887 C 91.2159 -3.54133 2.90437 0
M  V30 888 N 92.7069 -3.61653 2.89415 0
M  V30 889 C 93.4419 -4.4044 3.67152 0
M  V30 890 N 92.9379 -5.22721 4.54681 0
M  V30 891 N 94.7309 -4.35337 3.55581 0
M  V30 892 H 86.8819 -0.817134 1.96053 0
M  V30 893 H 89.1449 -0.421626 0.849079 0
M  V30 894 H 88.8509 -2.07173 2.84204 0
M  V30 895 H 88.7249 -3.37841 1.67761 0
M  V30 896 H 91.1119 -2.82447 0.85486 0
M  V30 897 H 91.1929 -1.52537 2.05344 0
M  V30 898 H 90.8369 -3.24431 3.90777 0
M  V30 899 H 90.7669 -4.53313 2.67983 0
M  V30 900 H 93.2579 -3.02909 2.25952 0
M  V30 901 H 93.5709 -5.80027 5.10674 0
M  V30 902 H 91.9159 -5.22093 4.58741 0
M  V30 903 H 95.1069 -3.70112 2.86592 0
M  V30 904 H 95.2799 -4.96494 4.1641 0
M  V30 905 N 88.686 -0.835752 -1.33615 0
M  V30 906 C 89.914 -0.443344 -2.02094 0
M  V30 907 C 90.329 0.954522 -1.62894 0
M  V30 908 O 89.686 1.61982 -0.840723 0
M  V30 909 C 89.737 -0.550775 -3.5728 0
M  V30 910 O 89.458 -1.89356 -3.95065 0
M  V30 911 C 90.959 -0.154919 -4.43029 0
M  V30 912 H 88.179 -0.176359 -0.647409 0
M  V30 913 H 90.723 -1.12746 -1.70612 0
M  V30 914 H 88.878 0.0853997 -3.87306 0
M  V30 915 H 89.292 -1.87687 -4.89769 0
M  V30 916 H 90.766 -0.281144 -5.51284 0
M  V30 917 H 91.243 0.902863 -4.2982 0
M  V30 918 H 91.849 -0.765404 -4.18356 0
M  V30 919 N 90.1641 1.46063 -0.591896 0
M  V30 920 C 91.4101 2.02638 -0.0811191 0
M  V30 921 C 91.7431 1.4613 1.27905 0
M  V30 922 O 91.0181 0.629908 1.84017 0
M  V30 923 C 91.3011 3.60091 -0.0252436 0
M  V30 924 C 91.1541 4.26965 -1.41496 0
M  V30 925 C 92.4731 4.3496 0.670685 0
M  V30 926 H 89.5921 0.73635 -0.0309524 0
M  V30 927 H 92.2341 1.741 -0.760859 0
M  V30 928 H 90.3841 3.84535 0.553624 0
M  V30 929 H 92.0561 4.13756 -2.0397 0
M  V30 930 H 90.2991 3.85971 -1.98011 0
M  V30 931 H 90.9701 5.35781 -1.32825 0
M  V30 932 H 93.4461 4.15716 0.178825 0
M  V30 933 H 92.3221 5.44686 0.678837 0
M  V30 934 H 92.5831 4.06685 1.73379 0
M  V30 935 N 91.6422 0.330177 1.54103 0
M  V30 936 C 92.6052 -0.520144 2.2322 0
M  V30 937 C 93.6052 -1.03828 1.22786 0
M  V30 938 O 94.7952 -0.929652 1.4732 0
M  V30 939 C 91.9272 -1.72317 2.94142 0
M  V30 940 H 93.1202 0.0841605 2.99782 0
M  V30 941 H 90.6732 0.0813433 1.56088 0
M  V30 942 H 91.4082 -2.36653 2.21734 0
M  V30 943 H 91.1932 -1.35898 3.67796 0
M  V30 944 H 92.6832 -2.3266 3.46784 0
M  V30 945 N 93.1203 -1.57491 0.0584922 0
M  V30 946 C 94.0303 -2.15448 -0.928414 0
M  V30 947 C 95.0463 -1.11416 -1.3365 0
M  V30 948 O 96.2223 -1.4362 -1.41193 0
M  V30 949 C 93.2873 -2.69393 -2.18239 0
M  V30 950 C 92.3483 -3.88249 -1.83196 0
M  V30 951 C 91.5813 -4.39613 -3.02616 0
M  V30 952 O 91.8043 -3.90023 -4.16219 0
M  V30 953 O 90.7383 -5.31111 -2.83204 0
M  V30 954 H 94.5643 -3.00112 -0.465483 0
M  V30 955 H 92.1493 -1.48499 -0.163826 0
M  V30 956 H 94.0313 -3.04026 -2.91798 0
M  V30 957 H 92.7063 -1.87796 -2.63656 0
M  V30 958 H 91.6133 -3.58492 -1.06931 0
M  V30 959 H 92.9463 -4.71098 -1.42573 0
M  V30 960 N 94.5984 0.214957 -1.56127 0
M  V30 961 C 95.5454 1.26642 -1.92952 0
M  V30 962 C 96.5154 1.46244 -0.78753 0
M  V30 963 O 97.7004 1.59704 -1.04399 0
M  V30 964 C 94.8404 2.6104 -2.25726 0
M  V30 965 C 93.9534 2.49183 -3.52891 0
M  V30 966 C 93.0884 3.76149 -3.7508 0
M  V30 967 C 92.1274 3.59041 -4.95738 0
M  V30 968 N 91.2644 4.77972 -5.14283 0
M  V30 969 H 96.1044 0.945384 -2.82607 0
M  V30 970 H 93.6414 0.455489 -1.3987 0
M  V30 971 H 95.5994 3.39313 -2.42739 0
M  V30 972 H 94.2294 2.91227 -1.39236 0
M  V30 973 H 93.2814 1.6231 -3.44034 0
M  V30 974 H 94.5934 2.32466 -4.41318 0
M  V30 975 H 93.7474 4.62865 -3.92226 0
M  V30 976 H 92.4864 3.95799 -2.84947 0
M  V30 977 H 91.4914 2.7071 -4.78535 0
M  V30 978 H 92.7164 3.40856 -5.87362 0
M  V30 979 H 90.6624 4.97923 -4.27093 0
M  V30 980 H 90.5794 4.64006 -5.96853 0
M  V30 981 H 91.8474 5.66096 -5.35869 0
M  V30 982 N 96.0765 1.50051 0.48192 0
M  V30 983 C 97.3225 1.60736 1.2366 0
M  V30 984 C 97.6555 0.301786 1.91841 0
M  V30 985 O 96.9305 -0.696025 1.8162 0
M  V30 986 C 97.2135 2.78009 2.28874 0
M  V30 987 C 97.0665 4.18416 1.65069 0
M  V30 988 C 98.3855 2.90867 3.30279 0
M  V30 989 H 95.5045 0.585031 0.448228 0
M  V30 990 H 98.1465 1.82402 0.531946 0
M  V30 991 H 96.2965 2.59667 2.88973 0
M  V30 992 H 97.9685 4.48322 1.0865 0
M  V30 993 H 96.2115 4.23177 0.954148 0
M  V30 994 H 96.8825 4.96381 2.41474 0
M  V30 995 H 99.3585 3.07623 2.80191 0
M  V30 996 H 98.2345 3.74566 4.01238 0
M  V30 997 H 98.4955 2.01021 3.93755 0
M  V30 998 N 97.5546 -0.734337 1.39446 0
M  V30 999 C 98.8316 -1.48579 1.27215 0
M  V30 1000 C 99.2116 -2.1077 -0.117968 0
M  V30 1001 O 98.5596 -1.98646 -1.12924 0
M  V30 1002 C 98.7696 -2.53667 2.39696 0
M  V30 1003 C 100.118 -3.20031 2.79044 0
M  V30 1004 O 101.142 -2.6398 2.39151 0
M  V30 1005 O 100.001 -4.21455 3.47905 0
M  V30 1006 H 97.0946 -0.659816 0.49857 0
M  V30 1007 H 99.6406 -0.768106 1.51322 0
M  V30 1008 H 98.4126 -2.06096 3.32626 0
M  V30 1009 H 98.0356 -3.32994 2.17258 0
M  V30 1010 N 99.0327 -1.24633 -0.964593 0
M  V30 1011 C 99.9957 -1.0424 -2.04124 0
M  V30 1012 C 100.996 0.00137563 -1.608 0
M  V30 1013 O 102.186 -0.239883 -1.7254 0
M  V30 1014 C 99.3177 -0.580588 -3.3592 0
M  V30 1015 H 100.511 -1.99803 -2.23649 0
M  V30 1016 H 98.0637 -1.06899 -1.14027 0
M  V30 1017 H 98.7987 0.3781 -3.22088 0
M  V30 1018 H 98.5837 -1.33398 -3.6871 0
M  V30 1019 H 100.074 -0.459034 -4.15069 0
M  V30 1020 N 100.511 1.16574 -1.06058 0
M  V30 1021 C 101.757 1.87324 -0.777022 0
M  V30 1022 C 102.09 1.81351 0.694645 0
M  V30 1023 O 101.365 1.22753 1.50871 0
M  V30 1024 C 101.648 3.36991 -1.26922 0
M  V30 1025 C 101.501 3.51667 -2.80447 0
M  V30 1026 C 102.82 4.3131 -0.87521 0
M  V30 1027 H 99.9388 0.680191 -0.28374 0
M  V30 1028 H 102.581 1.37036 -1.3161 0
M  V30 1029 H 100.731 3.79949 -0.81063 0
M  V30 1030 H 102.403 3.17664 -3.34495 0
M  V30 1031 H 100.646 2.93656 -3.19294 0
M  V30 1032 H 101.317 4.56766 -3.0995 0
M  V30 1033 H 103.793 3.9624 -1.27014 0
M  V30 1034 H 102.669 5.34545 -1.2471 0
M  V30 1035 H 102.93 4.41552 0.220071 0
M  V30 1036 N 101.989 0.842826 1.3317 0
M  V30 1037 C 103.405 0.531128 1.50503 0
M  V30 1038 C 103.605 -0.940734 1.78192 0
M  V30 1039 O 102.661 -1.72436 1.84451 0
M  V30 1040 C 103.974 1.40789 2.65705 0
M  V30 1041 C 105.522 1.40708 2.79589 0
M  V30 1042 C 105.997 2.26878 3.97857 0
M  V30 1043 N 107.488 2.24609 4.05099 0
M  V30 1044 C 108.223 2.88019 4.95815 0
M  V30 1045 N 107.719 3.60496 5.9162 0
M  V30 1046 N 109.512 2.77469 4.88843 0
M  V30 1047 H 101.663 1.79557 1.1346 0
M  V30 1048 H 103.926 0.766267 0.558156 0
M  V30 1049 H 103.632 2.454 2.51936 0
M  V30 1050 H 103.506 1.08677 3.61205 0
M  V30 1051 H 105.893 0.368668 2.92788 0
M  V30 1052 H 105.974 1.76829 1.84838 0
M  V30 1053 H 105.618 3.3078 3.85418 0
M  V30 1054 H 105.548 1.88096 4.91861 0
M  V30 1055 H 108.039 1.71906 3.36536 0
M  V30 1056 H 108.352 4.06076 6.57512 0
M  V30 1057 H 106.697 3.64604 5.91683 0
M  V30 1058 H 109.888 2.20406 4.12963 0
M  V30 1059 H 110.061 3.2717 5.59342 0
M  V30 1060 N 103.467 -1.45747 0.599634 0
M  V30 1061 C 104.716 -2.01502 0.0893511 0
M  V30 1062 C 105.029 -1.4748 -1.28488 0
M  V30 1063 O 106.235 -1.95161 -1.88745 0
M  V30 1064 C 104.691 -3.59735 0.109082 0
M  V30 1065 C 104.299 -4.22754 1.48267 0
M  V30 1066 C 106.043 -4.23085 -0.346374 0
M  V30 1067 C 103.95 -5.73115 1.45921 0
M  V30 1068 H 102.88 -0.753417 0.0296347 0
M  V30 1069 H 105.531 -1.67303 0.753788 0
M  V30 1070 H 103.913 -3.91087 -0.621854 0
M  V30 1071 H 105.087 -4.02987 2.23468 0
M  V30 1072 H 103.402 -3.71567 1.87955 0
M  V30 1073 H 105.999 -5.33327 -0.38298 0
M  V30 1074 H 106.342 -3.93201 -1.36743 0
M  V30 1075 H 106.875 -3.9642 0.331038 0
M  V30 1076 H 103.614 -6.07685 2.45762 0
M  V30 1077 H 103.134 -5.95097 0.749665 0
M  V30 1078 H 104.813 -6.3616 1.17941 0
M  V30 1079 N 104.945 -0.338344 -1.53925 0
M  V30 1080 C 106.191 0.260143 -2.01125 0
M  V30 1081 C 106.524 1.50617 -1.22589 0
M  V30 1082 O 105.799 1.91979 -0.312113 0
M  V30 1083 C 106.082 0.579499 -3.55407 0
M  V30 1084 C 105.935 -0.678264 -4.44657 0
M  V30 1085 C 107.254 1.39122 -4.17532 0
M  V30 1086 H 104.373 0.0930772 -0.731099 0
M  V30 1087 H 107.015 -0.457852 -1.84401 0
M  V30 1088 H 105.165 1.19118 -3.69788 0
M  V30 1089 H 106.837 -1.31631 -4.42121 0
M  V30 1090 H 105.08 -1.3042 -4.13731 0
M  V30 1091 H 105.751 -0.410143 -5.50474 0
M  V30 1092 H 108.227 0.874035 -4.06817 0
M  V30 1093 H 107.103 1.58342 -5.25565 0
M  V30 1094 H 107.364 2.39178 -3.71815 0
M  V30 1095 N 106.423 1.57458 -0.0668435 0
M  V30 1096 C 107.373 2.0896 0.912119 0
M  V30 1097 C 108.357 0.998186 1.26195 0
M  V30 1098 O 109.549 1.26133 1.24175 0
M  V30 1099 C 106.678 2.6508 2.18145 0
M  V30 1100 C 105.764 3.81218 1.85832 0
M  V30 1101 N 106.155 4.90378 1.23948 0
M  V30 1102 C 104.453 3.9042 2.15612 0
M  V30 1103 C 105.154 5.71279 1.09616 0
M  V30 1104 N 104.13 5.19389 1.60423 0
M  V30 1105 H 107.932 2.90749 0.42924 0
M  V30 1106 H 105.446 1.6182 0.137184 0
M  V30 1107 H 107.443 3.0029 2.89192 0
M  V30 1108 H 106.103 1.84736 2.67025 0
M  V30 1109 H 107.114 5.09847 0.909731 0
M  V30 1110 H 103.791 3.21043 2.66903 0
M  V30 1111 H 105.181 6.69085 0.614425 0
M  V30 1112 N 107.901 -0.206675 1.56239 0
M  V30 1113 C 109.15 -0.926964 1.79138 0
M  V30 1114 C 109.463 -1.84901 0.638043 0
M  V30 1115 O 110.669 -2.60906 0.751033 0
M  V30 1116 C 109.125 -1.6986 3.17294 0
M  V30 1117 C 108.733 -0.821956 4.40395 0
M  V30 1118 C 110.477 -2.40922 3.4951 0
M  V30 1119 C 108.384 -1.59179 5.69575 0
M  V30 1120 H 107.314 -0.349864 0.667915 0
M  V30 1121 H 109.965 -0.180487 1.8261 0
M  V30 1122 H 108.347 -2.48853 3.08039 0
M  V30 1123 H 109.521 -0.0715019 4.60745 0
M  V30 1124 H 107.836 -0.222741 4.15804 0
M  V30 1125 H 110.433 -2.99047 4.43255 0
M  V30 1126 H 110.776 -3.14542 2.72707 0
M  V30 1127 H 111.309 -1.68905 3.60161 0
M  V30 1128 H 108.048 -0.898589 6.49312 0
M  V30 1129 H 107.568 -2.31648 5.53262 0
M  V30 1130 H 109.247 -2.14862 6.10281 0
M  V30 1131 N 109.379 -1.50304 -0.473955 0
M  V30 1132 C 110.329 -1.65347 -1.56985 0
M  V30 1133 C 111.313 -0.508176 -1.52664 0
M  V30 1134 O 112.505 -0.762446 -1.59737 0
M  V30 1135 C 109.634 -1.74832 -2.95447 0
M  V30 1136 C 108.72 -2.95028 -3.04662 0
M  V30 1137 N 109.111 -4.18747 -2.83698 0
M  V30 1138 C 107.409 -2.93527 -3.35795 0
M  V30 1139 C 108.11 -4.99687 -2.97805 0
M  V30 1140 N 107.086 -4.33585 -3.2788 0
M  V30 1141 H 110.888 -2.58698 -1.39472 0
M  V30 1142 H 108.402 -1.47449 -0.680629 0
M  V30 1143 H 110.399 -1.83712 -3.7424 0
M  V30 1144 H 109.059 -0.826376 -3.14008 0
M  V30 1145 H 110.07 -4.48291 -2.59337 0
M  V30 1146 H 106.747 -2.10821 -3.60362 0
M  V30 1147 H 108.137 -6.08057 -2.85861 0
M  V30 1148 N 110.857 0.726932 -1.39834 0
M  V30 1149 C 112.082 1.52121 -1.40976 0
M  V30 1150 C 112.507 1.88098 -0.00826029 0
M  V30 1151 O 111.865 1.52479 0.980807 0
M  V30 1152 C 111.913 2.78021 -2.29644 0
M  V30 1153 O 111.017 3.74272 -1.73188 0
M  V30 1154 H 110.358 0.45908 -0.479731 0
M  V30 1155 H 112.888 0.896207 -1.83927 0
M  V30 1156 H 112.898 3.26671 -2.44438 0
M  V30 1157 H 111.573 2.51169 -3.31492 0
M  V30 1158 H 110.15 3.33073 -1.6768 0
M  V30 1159 N 112.336 1.25143 0.95797 0
M  V30 1160 C 113.582 1.09855 1.70469 0
M  V30 1161 C 113.915 -0.360187 1.90831 0
M  V30 1162 O 113.19 -1.26568 1.47685 0
M  V30 1163 C 113.473 1.8497 3.08963 0
M  V30 1164 C 113.326 3.38652 2.96032 0
M  V30 1165 C 114.645 1.63016 4.08795 0
M  V30 1166 H 111.764 0.400465 0.618706 0
M  V30 1167 H 114.406 1.53933 1.11376 0
M  V30 1168 H 112.556 1.47505 3.59409 0
M  V30 1169 H 114.228 3.85772 2.52938 0
M  V30 1170 H 112.471 3.66534 2.32025 0
M  V30 1171 H 113.142 3.8642 3.94187 0
M  V30 1172 H 115.618 1.95625 3.67247 0
M  V30 1173 H 114.494 2.18015 5.03747 0
M  V30 1174 H 114.755 0.570692 4.38401 0
M  V30 1175 N 113.814 -1.1601 1.06675 0
M  V30 1176 C 115.063 -1.85973 0.780818 0
M  V30 1177 C 115.376 -1.82819 -0.695444 0
M  V30 1178 O 116.582 -2.484 -1.09589 0
M  V30 1179 C 115.038 -3.33757 1.34665 0
M  V30 1180 C 114.646 -3.45374 2.85343 0
M  V30 1181 C 116.39 -4.0895 1.13843 0
M  V30 1182 C 114.297 -4.87266 3.35151 0
M  V30 1183 H 113.227 -0.696661 0.288407 0
M  V30 1184 H 115.878 -1.30903 1.28595 0
M  V30 1185 H 114.26 -3.88456 0.769274 0
M  V30 1186 H 115.434 -3.00816 3.49065 0
M  V30 1187 H 113.749 -2.83619 3.04876 0
M  V30 1188 H 116.346 -5.13654 1.4854 0
M  V30 1189 H 116.689 -4.16229 0.0770282 0
M  V30 1190 H 117.222 -3.605 1.68179 0
M  V30 1191 H 113.961 -4.85168 4.40786 0
M  V30 1192 H 113.481 -5.32433 2.76179 0
M  V30 1193 H 115.16 -5.56097 3.30704 0
M  V30 1194 N 115.292 -0.849877 -1.32721 0
M  V30 1195 C 116.541 -0.447175 -1.96681 0
M  V30 1196 C 116.854 1.00135 -1.68025 0
M  V30 1197 O 118.06 1.50926 -2.25685 0
M  V30 1198 C 116.516 -0.7487 -3.52026 0
M  V30 1199 C 116.124 -2.21264 -3.89546 0
M  V30 1200 C 117.868 -0.413487 -4.22481 0
M  V30 1201 C 115.775 -2.45763 -5.37917 0
M  V30 1202 H 114.705 -0.163486 -0.736063 0
M  V30 1203 H 117.356 -1.03999 -1.51183 0
M  V30 1204 H 115.738 -0.0853727 -3.95908 0
M  V30 1205 H 116.912 -2.91736 -3.56689 0
M  V30 1206 H 115.227 -2.5119 -3.32103 0
M  V30 1207 H 117.824 -0.574017 -5.3161 0
M  V30 1208 H 118.167 0.644492 -4.11281 0
M  V30 1209 H 118.7 -1.03251 -3.84167 0
M  V30 1210 H 115.439 -3.50168 -5.54132 0
M  V30 1211 H 114.959 -1.79864 -5.72197 0
M  V30 1212 H 116.638 -2.29471 -6.0494 0
M  V30 1213 N 116.77 1.45427 -0.607355 0
M  V30 1214 C 117.7 2.3329 0.0989352 0
M  V30 1215 C 118.681 1.46816 0.859007 0
M  V30 1216 O 119.866 1.75588 0.829604 0
M  V30 1217 C 116.996 3.29518 1.09705 0
M  V30 1218 C 115.95 4.25626 0.450206 0
M  V30 1219 C 115.276 5.11542 1.55655 0
M  V30 1220 C 116.576 5.18505 -0.628455 0
M  V30 1221 H 118.27 2.92595 -0.634716 0
M  V30 1222 H 115.816 1.40696 -0.306681 0
M  V30 1223 H 117.769 3.89855 1.59971 0
M  V30 1224 H 116.493 2.68372 1.86129 0
M  V30 1225 H 115.152 3.66586 -0.0315886 0
M  V30 1226 H 114.8 4.46765 2.31107 0
M  V30 1227 H 114.5 5.76647 1.12925 0
M  V30 1228 H 116.024 5.74748 2.06148 0
M  V30 1229 H 117.438 5.72916 -0.209877 0
M  V30 1230 H 115.835 5.92085 -0.977489 0
M  V30 1231 H 116.905 4.60948 -1.50514 0
M  V30 1232 N 118.248 0.346503 1.53744 0
M  V30 1233 C 119.664 -0.00530975 1.59599 0
M  V30 1234 C 119.864 -1.48465 1.36236 0
M  V30 1235 O 118.92 -2.24376 1.15808 0
M  V30 1236 C 120.233 0.433516 2.97559 0
M  V30 1237 C 121.781 0.386111 3.10609 0
M  V30 1238 C 122.256 0.800451 4.50951 0
M  V30 1239 N 123.747 0.754753 4.5701 0
M  V30 1240 C 124.482 1.04727 5.63755 0
M  V30 1241 N 123.978 1.4081 6.7834 0
M  V30 1242 N 125.771 0.971316 5.53644 0
M  V30 1243 H 117.922 1.31009 1.67184 0
M  V30 1244 H 120.185 0.534242 0.783128 0
M  V30 1245 H 119.891 1.46509 3.19731 0
M  V30 1246 H 119.765 -0.189753 3.76722 0
M  V30 1247 H 122.152 -0.636295 2.88158 0
M  V30 1248 H 122.233 1.04462 2.33498 0
M  V30 1249 H 121.877 1.82088 4.74137 0
M  V30 1250 H 121.807 0.119386 5.26465 0
M  V30 1251 H 124.298 0.488662 3.74727 0
M  V30 1252 H 124.611 1.61607 7.55714 0
M  V30 1253 H 122.956 1.44657 6.79779 0
M  V30 1254 H 126.147 0.688748 4.63005 0
M  V30 1255 H 126.32 1.20263 6.36742 0
M  V30 1256 N 119.726 -1.57421 0.075193 0
M  V30 1257 C 121.142 -1.57099 -0.281444 0
M  V30 1258 C 121.342 -1.08486 -1.69803 0
M  V30 1259 O 120.398 -0.752279 -2.41033 0
M  V30 1260 C 121.711 -3.00571 -0.0880041 0
M  V30 1261 C 123.259 -3.12605 -0.157281 0
M  V30 1262 C 123.734 -4.57999 0.0079207 0
M  V30 1263 N 125.225 -4.63176 -0.0475725 0
M  V30 1264 C 125.96 -5.73373 0.0557876 0
M  V30 1265 N 125.456 -6.92473 0.21286 0
M  V30 1266 N 127.249 -5.621 -0.00152098 0
M  V30 1267 H 119.4 -1.87335 1.00098 0
M  V30 1268 H 121.663 -0.86377 0.390646 0
M  V30 1269 H 121.369 -3.40262 0.889629 0
M  V30 1270 H 121.243 -3.67754 -0.838875 0
M  V30 1271 H 123.63 -2.72798 -1.1254 0
M  V30 1272 H 123.711 -2.48053 0.62475 0
M  V30 1273 H 123.355 -4.98496 0.972824 0
M  V30 1274 H 123.285 -5.20586 -0.793556 0
M  V30 1275 H 125.776 -3.7753 -0.167244 0
M  V30 1276 H 126.089 -7.72279 0.283781 0
M  V30 1277 H 124.434 -6.94556 0.248267 0
M  V30 1278 H 127.625 -4.67938 -0.122958 0
M  V30 1279 H 127.798 -6.47948 0.0824844 0
M  V30 1280 N 121.204 0.198386 -1.56346 0
M  V30 1281 C 122.429 0.939682 -1.84891 0
M  V30 1282 C 122.854 1.76202 -0.658369 0
M  V30 1283 O 122.212 1.76993 0.392851 0
M  V30 1284 C 122.26 1.81428 -3.11635 0
M  V30 1285 O 121.364 2.91265 -2.91956 0
M  V30 1286 H 120.705 0.264807 -0.608912 0
M  V30 1287 H 123.235 0.204695 -2.03573 0
M  V30 1288 H 123.245 2.21958 -3.42343 0
M  V30 1289 H 121.92 1.21004 -3.97908 0
M  V30 1290 H 120.497 2.54514 -2.72538 0
M  V30 1291 N 122.682 1.50554 0.465978 0
M  V30 1292 C 123.959 1.5232 1.22712 0
M  V30 1293 C 124.339 0.270807 2.09356 0
M  V30 1294 O 123.687 -0.745541 2.15995 0
M  V30 1295 C 123.897 2.82175 2.05374 0
M  V30 1296 C 125.245 3.33033 2.6339 0
M  V30 1297 O 126.269 2.83531 2.15612 0
M  V30 1298 O 125.128 4.19336 3.50456 0
M  V30 1299 H 122.222 0.611183 0.557122 0
M  V30 1300 H 124.768 1.62847 0.477381 0
M  V30 1301 H 123.54 3.64797 1.41558 0
M  V30 1302 H 123.163 2.74675 2.87471 0
M  V30 1303 N 124.16 -0.719506 1.40217 0
M  V30 1304 C 125.107 -1.83359 1.40172 0
M  V30 1305 C 126.077 -1.64065 0.259206 0
M  V30 1306 O 127.262 -1.85254 0.456677 0
M  V30 1307 C 124.402 -3.2103 1.26624 0
M  V30 1308 C 123.515 -3.51923 2.50548 0
M  V30 1309 C 122.65 -4.79079 2.29471 0
M  V30 1310 C 121.689 -5.02863 3.48992 0
M  V30 1311 N 120.826 -6.2123 3.27135 0
M  V30 1312 H 125.666 -1.82733 2.35399 0
M  V30 1313 H 123.203 -0.892688 1.16917 0
M  V30 1314 H 125.161 -4.00524 1.16776 0
M  V30 1315 H 123.791 -3.20895 0.350176 0
M  V30 1316 H 122.843 -2.67014 2.70939 0
M  V30 1317 H 124.155 -3.6541 3.39525 0
M  V30 1318 H 123.309 -5.66582 2.16955 0
M  V30 1319 H 122.048 -4.67794 1.37913 0
M  V30 1320 H 121.053 -4.13816 3.6199 0
M  V30 1321 H 122.278 -5.16023 4.41472 0
M  V30 1322 H 120.224 -6.11204 2.38256 0
M  V30 1323 H 120.141 -6.35375 4.09675 0
M  V30 1324 H 121.409 -7.11532 3.18344 0
M  V30 1325 N 125.638 -1.25649 -0.95132 0
M  V30 1326 C 127.054 -1.02542 -1.223 0
M  V30 1327 C 127.254 0.255715 -1.99871 0
M  V30 1328 O 126.31 0.967558 -2.33226 0
M  V30 1329 C 127.623 -2.25065 -1.99415 0
M  V30 1330 C 129.171 -2.29861 -2.12446 0
M  V30 1331 C 129.646 -3.52048 -2.92961 0
M  V30 1332 N 131.137 -3.52465 -3.00538 0
M  V30 1333 C 131.872 -4.43672 -3.63239 0
M  V30 1334 N 131.368 -5.45157 -4.27523 0
M  V30 1335 N 133.161 -4.31346 -3.60412 0
M  V30 1336 H 125.312 -2.07951 -0.432471 0
M  V30 1337 H 127.575 -0.91339 -0.253816 0
M  V30 1338 H 127.281 -3.18194 -1.49817 0
M  V30 1339 H 127.155 -2.28502 -3.00111 0
M  V30 1340 H 129.542 -1.37252 -2.61239 0
M  V30 1341 H 129.623 -2.3044 -1.11044 0
M  V30 1342 H 129.267 -4.44981 -2.44856 0
M  V30 1343 H 129.197 -3.48715 -3.94596 0
M  V30 1344 H 131.688 -2.79056 -2.54826 0
M  V30 1345 H 132.001 -6.10958 -4.73234 0
M  V30 1346 H 130.346 -5.49025 -4.26141 0
M  V30 1347 H 133.537 -3.51288 -3.09377 0
M  V30 1348 H 133.71 -5.02624 -4.0899 0
M  V30 1349 N 127.117 1.15442 -1.07289 0
M  V30 1350 C 128.064 2.20161 -0.692653 0
M  V30 1351 C 129.034 1.63073 0.31564 0
M  V30 1352 O 130.219 1.89725 0.202235 0
M  V30 1353 C 127.359 3.44967 -0.0959509 0
M  V30 1354 C 126.472 4.16256 -1.15564 0
M  V30 1355 C 125.607 5.28609 -0.524011 0
M  V30 1356 C 124.646 5.91715 -1.56653 0
M  V30 1357 N 123.783 6.9554 -0.957531 0
M  V30 1358 H 128.623 2.52037 -1.59002 0
M  V30 1359 H 126.16 1.2378 -0.794798 0
M  V30 1360 H 128.118 4.16341 0.267628 0
M  V30 1361 H 126.748 3.1361 0.764772 0
M  V30 1362 H 125.8 3.43385 -1.6368 0
M  V30 1363 H 127.112 4.59268 -1.94613 0
M  V30 1364 H 126.266 6.06604 -0.108032 0
M  V30 1365 H 125.005 4.86787 0.29825 0
M  V30 1366 H 124.01 5.12433 -1.9923 0
M  V30 1367 H 125.235 6.35614 -2.39107 0
M  V30 1368 H 123.181 6.55814 -0.156162 0
M  V30 1369 H 123.098 7.36977 -1.68526 0
M  V30 1370 H 124.366 7.77435 -0.567032 0
M  V30 1371 N 128.595 0.856903 1.32268 0
M  V30 1372 C 129.872 0.382583 1.91822 0
M  V30 1373 C 130.252 -1.13407 1.78051 0
M  V30 1374 O 129.6 -1.95673 1.18001 0
M  V30 1375 C 129.81 0.849446 3.38505 0
M  V30 1376 C 131.158 0.867936 4.15634 0
M  V30 1377 O 132.182 0.794232 3.47232 0
M  V30 1378 O 131.041 0.972286 5.37781 0
M  V30 1379 H 128.135 0.112014 0.819379 0
M  V30 1380 H 130.681 0.943952 1.41024 0
M  V30 1381 H 129.453 1.89267 3.42482 0
M  V30 1382 H 129.076 0.265652 3.96712 0
M  V30 1383 N 130.073 -1.45103 0.615059 0
M  V30 1384 C 131.489 -1.57137 0.279322 0
M  V30 1385 C 131.689 -1.60523 -1.21797 0
M  V30 1386 O 130.745 -1.53956 -2.00134 0
M  V30 1387 C 132.058 -2.85062 0.957083 0
M  V30 1388 C 133.606 -2.98749 0.933706 0
M  V30 1389 C 134.081 -4.29455 1.59162 0
M  V30 1390 N 135.572 -4.36231 1.55746 0
M  V30 1391 C 136.307 -5.36051 2.0356 0
M  V30 1392 N 135.803 -6.42367 2.59494 0
M  V30 1393 N 137.596 -5.27456 1.94284 0
M  V30 1394 H 129.747 -1.41148 1.58717 0
M  V30 1395 H 132.01 -0.675331 0.665306 0
M  V30 1396 H 131.716 -2.88488 2.01166 0
M  V30 1397 H 131.59 -3.7407 0.48494 0
M  V30 1398 H 133.977 -2.94886 -0.112347 0
M  V30 1399 H 134.058 -2.11132 1.44419 0
M  V30 1400 H 133.702 -4.34077 2.63704 0
M  V30 1401 H 133.632 -5.15901 1.0561 0
M  V30 1402 H 136.123 -3.60011 1.14893 0
M  V30 1403 H 136.436 -7.14793 2.93752 0
M  V30 1404 H 134.781 -6.43097 2.63537 0
M  V30 1405 H 137.972 -4.43308 1.5032 0
M  V30 1406 H 138.145 -6.05099 2.3186 0
M  V30 1407 N 131.551 -0.354651 -1.53558 0
M  V30 1408 C 132.797 0.238797 -2.01389 0
M  V30 1409 C 133.13 1.49309 -1.2418 0
M  V30 1410 O 132.405 1.91638 -0.332457 0
M  V30 1411 C 132.688 0.541771 -3.56001 0
M  V30 1412 C 132.541 -0.725388 -4.43912 0
M  V30 1413 C 133.86 1.34685 -4.18984 0
M  V30 1414 H 130.979 0.0853177 -0.732045 0
M  V30 1415 H 133.621 -0.477384 -1.83905 0
M  V30 1416 H 131.771 1.15189 -3.71031 0
M  V30 1417 H 133.443 -1.36313 -4.407 0
M  V30 1418 H 131.686 -1.34801 -4.12324 0
M  V30 1419 H 132.357 -0.468505 -5.50008 0
M  V30 1420 H 134.833 0.830837 -4.07721 0
M  V30 1421 H 133.709 1.52759 -5.27215 0
M  V30 1422 H 133.97 2.35221 -3.74331 0
M  V30 1423 N 133.029 1.57378 -0.0835403 0
M  V30 1424 C 133.939 2.16897 0.894021 0
M  V30 1425 C 134.955 1.13528 1.31861 0
M  V30 1426 O 136.131 1.45848 1.3889 0
M  V30 1427 C 133.196 2.72831 2.13925 0
M  V30 1428 C 132.257 3.91115 1.76997 0
M  V30 1429 C 131.49 4.44371 2.95584 0
M  V30 1430 O 131.713 3.96596 4.09961 0
M  V30 1431 O 130.647 5.35549 2.74719 0
M  V30 1432 H 134.473 3.00814 0.417679 0
M  V30 1433 H 132.058 1.48741 0.140181 0
M  V30 1434 H 133.94 3.0863 2.86924 0
M  V30 1435 H 132.615 1.91967 2.60635 0
M  V30 1436 H 131.522 3.60148 1.01214 0
M  V30 1437 H 132.855 4.73307 1.3506 0
M  V30 1438 N 134.507 -0.190092 1.56449 0
M  V30 1439 C 135.756 -0.907912 1.80111 0
M  V30 1440 C 136.069 -1.84214 0.657619 0
M  V30 1441 O 137.275 -2.60094 0.778663 0
M  V30 1442 C 135.731 -1.66485 3.19078 0
M  V30 1443 C 135.339 -0.7752 4.41242 0
M  V30 1444 C 137.083 -2.37201 3.52045 0
M  V30 1445 C 134.99 -1.53129 5.71231 0
M  V30 1446 H 133.92 -0.34276 0.671589 0
M  V30 1447 H 136.571 -0.161109 1.82791 0
M  V30 1448 H 134.953 -2.45572 3.10661 0
M  V30 1449 H 136.127 -0.0226298 4.60794 0
M  V30 1450 H 134.442 -0.178627 4.16017 0
M  V30 1451 H 137.039 -2.94329 4.46402 0
M  V30 1452 H 137.382 -3.11632 2.76028 0
M  V30 1453 H 137.915 -1.65075 3.61932 0
M  V30 1454 H 134.654 -0.82967 6.50228 0
M  V30 1455 H 134.174 -2.25767 5.55688 0
M  V30 1456 H 135.853 -2.08377 6.12526 0
M  V30 1457 N 135.985 -1.50799 -0.457987 0
M  V30 1458 C 137.21 -1.66496 -1.23668 0
M  V30 1459 C 137.635 -0.353288 -1.84752 0
M  V30 1460 O 136.993 0.684346 -1.67888 0
M  V30 1461 C 137.041 -2.76763 -2.3116 0
M  V30 1462 O 136.145 -2.38928 -3.36136 0
M  V30 1463 H 135.486 -0.555828 -0.363252 0
M  V30 1464 H 138.016 -1.9725 -0.543474 0
M  V30 1465 H 138.026 -3.00232 -2.76269 0
M  V30 1466 H 136.701 -3.71954 -1.86073 0
M  V30 1467 H 135.278 -2.25953 -2.96647 0
M  V30 1468 N 137.463 0.71206 -1.40597 0
M  V30 1469 C 138.874 1.29135 -1.34837 0
M  V30 1470 C 139.225 1.96186 -0.0235395 0
M  V30 1471 O 138.35 1.97768 0.878444 0
M  V30 1472 C 138.945 2.34827 -2.44217 0
M  V30 1473 C 137.504 2.88371 -2.41907 0
M  V30 1474 C 136.651 1.62202 -2.24913 0
M  V30 1475 H 139.602 0.507944 -1.50352 0
M  V30 1476 H 139.623 3.15749 -2.12327 0
M  V30 1477 H 139.135 1.85996 -3.40627 0
M  V30 1478 H 137.236 3.41422 -1.49204 0
M  V30 1479 H 137.349 3.39925 -3.37621 0
M  V30 1480 H 135.713 1.874 -1.72492 0
M  V30 1481 H 136.496 1.15391 -3.23326 0
M  V30 1482 N 138.941 1.26152 0.944643 0
M  V30 1483 C 139.851 1.09176 2.07648 0
M  V30 1484 C 140.867 0.0261935 1.7398 0
M  V30 1485 O 142.043 0.229208 2.00091 0
M  V30 1486 C 139.108 0.722915 3.39079 0
M  V30 1487 C 138.169 1.86752 3.86552 0
M  V30 1488 C 137.402 1.51617 5.11711 0
M  V30 1489 O 137.625 0.416331 5.68879 0
M  V30 1490 O 136.559 2.34975 5.54139 0
M  V30 1491 H 140.385 2.0412 2.24875 0
M  V30 1492 H 137.97 1.05182 1.061 0
M  V30 1493 H 139.852 0.529787 4.18056 0
M  V30 1494 H 138.527 -0.197159 3.23099 0
M  V30 1495 H 137.434 2.11558 3.08535 0
M  V30 1496 H 138.767 2.76719 4.07047 0
M  V30 1497 N 140.419 -1.14872 1.07899 0
M  V30 1498 C 141.351 -2.19425 0.662231 0
M  V30 1499 C 142.364 -1.60231 -0.288079 0
M  V30 1500 O 143.553 -1.78336 -0.076534 0
M  V30 1501 C 140.653 -3.38867 -0.0470695 0
M  V30 1502 C 139.826 -4.27597 0.920831 0
M  V30 1503 C 138.885 -5.25616 0.247805 0
M  V30 1504 O 137.911 -5.62189 0.890599 0
M  V30 1505 N 139.113 -5.71746 -1.00435 0
M  V30 1506 H 141.878 -2.55797 1.56166 0
M  V30 1507 H 139.439 -1.30042 0.964404 0
M  V30 1508 H 141.431 -4.01497 -0.50813 0
M  V30 1509 H 140.001 -3.00864 -0.848523 0
M  V30 1510 H 139.221 -3.61982 1.56087 0
M  V30 1511 H 140.509 -4.83748 1.57688 0
M  V30 1512 H 139.907 -5.44153 -1.54642 0
M  V30 1513 H 138.464 -6.36389 -1.40899 0
M  V30 1514 N 141.898 -0.863906 -1.31812 0
M  V30 1515 C 142.828 -0.330843 -2.31144 0
M  V30 1516 C 143.809 0.575005 -1.60087 0
M  V30 1517 O 144.994 0.493304 -1.8783 0
M  V30 1518 C 142.124 0.47374 -3.44054 0
M  V30 1519 C 141.078 -0.338481 -4.26659 0
M  V30 1520 C 140.404 0.591412 -5.31419 0
M  V30 1521 C 141.704 -1.56926 -4.98168 0
M  V30 1522 H 143.398 -1.16086 -2.75979 0
M  V30 1523 H 140.944 -0.559657 -1.32679 0
M  V30 1524 H 142.897 0.857143 -4.12591 0
M  V30 1525 H 141.621 1.33721 -2.9797 0
M  V30 1526 H 140.28 -0.703754 -3.59782 0
M  V30 1527 H 139.928 1.45199 -4.81587 0
M  V30 1528 H 139.628 0.0519022 -5.87577 0
M  V30 1529 H 141.152 0.97179 -6.02817 0
M  V30 1530 H 142.566 -1.25764 -5.59336 0
M  V30 1531 H 140.963 -2.04739 -5.64094 0
M  V30 1532 H 142.033 -2.32544 -4.25501 0
M  V30 1533 N 143.376 1.44774 -0.622745 0
M  V30 1534 C 144.601 2.06999 -0.128968 0
M  V30 1535 C 145.026 1.4617 1.1839 0
M  V30 1536 O 144.384 0.560007 1.72434 0
M  V30 1537 C 144.432 3.60595 -0.0188351 0
M  V30 1538 O 143.536 3.99398 1.02739 0
M  V30 1539 H 142.877 0.659047 -0.0809544 0
M  V30 1540 H 145.407 1.85784 -0.85705 0
M  V30 1541 H 145.417 4.07627 0.174476 0
M  V30 1542 H 144.092 4.04252 -0.977384 0
M  V30 1543 H 142.669 3.64011 0.809326 0
M  V30 1544 N 144.854 0.36279 1.53368 0
M  V30 1545 C 145.817 -0.472679 2.24273 0
M  V30 1546 C 146.817 -1.012 1.24961 0
M  V30 1547 O 148.007 -0.898194 1.49259 0
M  V30 1548 C 145.139 -1.66039 2.97731 0
M  V30 1549 H 146.332 0.14773 2.99536 0
M  V30 1550 H 143.885 0.114434 1.55881 0
M  V30 1551 H 144.62 -2.31896 2.26704 0
M  V30 1552 H 144.405 -1.28066 3.70596 0
M  V30 1553 H 145.895 -2.25252 3.51641 0
M  V30 1554 N 146.332 -1.57332 0.0918853 0
M  V30 1555 C 147.295 -2.12708 -0.85369 0
M  V30 1556 C 148.295 -1.05561 -1.213 0
M  V30 1557 O 149.485 -1.31461 -1.14296 0
M  V30 1558 C 146.617 -2.64503 -2.15061 0
M  V30 1559 H 147.81 -2.97573 -0.3729 0
M  V30 1560 H 145.363 -1.55509 -0.157072 0
M  V30 1561 H 146.098 -1.83149 -2.67632 0
M  V30 1562 H 145.883 -3.4284 -1.90272 0
M  V30 1563 H 147.373 -3.07351 -2.82711 0
M  V30 1564 N 147.81 0.181792 -1.56548 0
M  V30 1565 C 149.035 0.920019 -1.85877 0
M  V30 1566 C 149.46 1.75494 -0.677021 0
M  V30 1567 O 148.818 1.77399 0.374056 0
M  V30 1568 C 148.866 1.78112 -3.13542 0
M  V30 1569 O 147.97 2.88152 -2.95029 0
M  V30 1570 H 147.311 0.258334 -0.611686 0
M  V30 1571 H 149.841 0.183092 -2.03779 0
M  V30 1572 H 149.851 2.18314 -3.44678 0
M  V30 1573 H 148.526 1.16777 -3.99169 0
M  V30 1574 H 147.103 2.51609 -2.75222 0
M  V30 1575 N 149.288 1.51039 0.449983 0
M  V30 1576 C 150.516 1.66869 1.2232 0
M  V30 1577 C 150.931 0.360727 1.85322 0
M  V30 1578 O 150.288 -0.659531 1.70166 0
M  V30 1579 C 150.339 2.77524 2.31652 0
M  V30 1580 O 150.06 4.03252 1.7123 0
M  V30 1581 C 151.561 3.04512 3.2216 0
M  V30 1582 H 148.781 0.560326 0.369155 0
M  V30 1583 H 151.325 1.97385 0.534719 0
M  V30 1584 H 149.48 2.49642 2.96239 0
M  V30 1585 H 149.894 4.64609 2.43389 0
M  V30 1586 H 151.368 3.85551 3.95038 0
M  V30 1587 H 151.845 2.16415 3.8218 0
M  V30 1588 H 152.451 3.34005 2.63288 0
M  V30 1589 N 150.766 -0.704594 1.40972 0
M  V30 1590 C 151.676 -1.84856 1.44448 0
M  V30 1591 C 152.692 -1.70726 0.335961 0
M  V30 1592 O 153.868 -1.92799 0.582276 0
M  V30 1593 C 150.933 -3.20758 1.31587 0
M  V30 1594 C 149.994 -3.47063 2.52677 0
M  V30 1595 C 149.227 -4.76481 2.4042 0
M  V30 1596 O 149.45 -5.52341 1.42391 0
M  V30 1597 O 148.384 -5.03367 3.30007 0
M  V30 1598 H 152.21 -1.8488 2.40942 0
M  V30 1599 H 149.795 -0.85647 1.22413 0
M  V30 1600 H 151.677 -4.01913 1.26665 0
M  V30 1601 H 150.352 -3.21438 0.382049 0
M  V30 1602 H 149.259 -2.65873 2.63177 0
M  V30 1603 H 150.592 -3.5119 3.44858 0
M  V30 1604 N 152.244 -1.26651 -0.937939 0
M  V30 1605 C 153.207 -1.08546 -2.01867 0
M  V30 1606 C 154.207 -0.0327327 -1.60767 0
M  V30 1607 O 155.397 -0.276427 -1.71993 0
M  V30 1608 C 152.529 -0.651711 -3.34613 0
M  V30 1609 H 153.722 -2.04502 -2.1936 0
M  V30 1610 H 151.275 -1.09294 -1.11734 0
M  V30 1611 H 152.01 0.309696 -3.22818 0
M  V30 1612 H 151.795 -1.41189 -3.65798 0
M  V30 1613 H 153.285 -0.546973 -4.14002 0
M  V30 1614 N 153.722 1.14298 -1.08507 0
M  V30 1615 C 154.632 2.23027 -0.727753 0
M  V30 1616 C 155.648 1.71952 0.26619 0
M  V30 1617 O 156.824 2.011 0.109882 0
M  V30 1618 C 153.889 3.46403 -0.143541 0
M  V30 1619 C 152.95 4.12413 -1.19223 0
M  V30 1620 C 152.183 5.29899 -0.635798 0
M  V30 1621 O 152.406 5.67796 0.544393 0
M  V30 1622 O 151.34 5.85717 -1.38634 0
M  V30 1623 H 155.166 2.55945 -1.63481 0
M  V30 1624 H 152.751 1.22248 -0.858817 0
M  V30 1625 H 154.633 4.21018 0.179404 0
M  V30 1626 H 153.308 3.15206 0.736659 0
M  V30 1627 H 152.215 3.39667 -1.56772 0
M  V30 1628 H 153.548 4.47718 -2.04474 0
M  V30 1629 N 155.201 0.870884 1.31352 0
M  V30 1630 C 156.617 0.562932 1.49343 0
M  V30 1631 C 156.817 -0.902725 1.80148 0
M  V30 1632 O 155.873 -1.68484 1.88067 0
M  V30 1633 C 157.186 1.46393 2.62659 0
M  V30 1634 C 158.734 1.46607 2.76542 0
M  V30 1635 C 159.209 2.35266 3.92955 0
M  V30 1636 N 160.7 2.33151 4.00243 0
M  V30 1637 C 161.435 2.98471 4.89594 0
M  V30 1638 N 160.931 3.72964 5.8384 0
M  V30 1639 N 162.724 2.87775 4.82848 0
M  V30 1640 H 154.875 1.81923 1.09626 0
M  V30 1641 H 157.138 0.777934 0.541777 0
M  V30 1642 H 156.844 2.50689 2.46674 0
M  V30 1643 H 156.718 1.16314 3.58819 0
M  V30 1644 H 159.105 0.43069 2.9194 0
M  V30 1645 H 159.186 1.8071 1.81046 0
M  V30 1646 H 158.83 3.38881 3.78315 0
M  V30 1647 H 158.76 1.98487 4.87761 0
M  V30 1648 H 161.251 1.79006 3.32814 0
M  V30 1649 H 161.564 4.19932 6.4875 0
M  V30 1650 H 159.909 3.77073 5.83816 0
M  V30 1651 H 163.1 2.29116 4.08195 0
M  V30 1652 H 163.273 3.38961 5.52277 0
M  V30 1653 N 156.679 -1.44442 0.630414 0
M  V30 1654 C 157.609 -2.33418 -0.0618083 0
M  V30 1655 C 158.59 -1.48165 -0.835541 0
M  V30 1656 O 159.775 -1.76886 -0.801564 0
M  V30 1657 C 156.905 -3.31222 -1.04449 0
M  V30 1658 C 155.859 -4.26288 -0.382436 0
M  V30 1659 C 155.185 -5.13954 -1.47497 0
M  V30 1660 C 156.485 -5.1744 0.710865 0
M  V30 1661 H 158.179 -2.91548 0.681184 0
M  V30 1662 H 155.725 -1.40191 0.329026 0
M  V30 1663 H 157.678 -3.92351 -1.53748 0
M  V30 1664 H 156.402 -2.71299 -1.81836 0
M  V30 1665 H 155.061 -3.6649 0.0899054 0
M  V30 1666 H 154.709 -4.50385 -2.2397 0
M  V30 1667 H 154.409 -5.7837 -1.03737 0
M  V30 1668 H 155.933 -5.77955 -1.96979 0
M  V30 1669 H 157.347 -5.72509 0.300996 0
M  V30 1670 H 155.744 -5.90455 1.07156 0
M  V30 1671 H 156.814 -4.58496 1.57829 0
M  V30 1672 N 158.157 -0.370918 -1.53173 0
M  V30 1673 C 159.12 0.460778 -2.24521 0
M  V30 1674 C 160.12 1.00536 -1.25496 0
M  V30 1675 O 161.31 0.890266 -1.49733 0
M  V30 1676 C 158.442 1.64457 -2.98608 0
M  V30 1677 H 159.635 -0.163613 -2.99453 0
M  V30 1678 H 157.188 -0.122699 -1.55818 0
M  V30 1679 H 157.923 2.30691 -2.2793 0
M  V30 1680 H 157.708 1.26099 -3.7127 0
M  V30 1681 H 159.198 2.23384 -3.5283 0
M  V30 1682 N 159.635 1.57281 -0.100228 0
M  V30 1683 C 160.545 2.17833 0.870965 0
M  V30 1684 C 161.561 1.14921 1.30649 0
M  V30 1685 O 162.737 1.47313 1.37335 0
M  V30 1686 C 159.802 2.75085 2.1102 0
M  V30 1687 C 158.863 3.9297 1.72838 0
M  V30 1688 C 158.096 4.47482 2.90854 0
M  V30 1689 O 158.319 4.00922 4.05731 0
M  V30 1690 O 157.253 5.38433 2.69023 0
M  V30 1691 H 161.079 3.0124 0.38575 0
M  V30 1692 H 158.664 1.48881 0.124397 0
M  V30 1693 H 160.546 3.11656 2.83634 0
M  V30 1694 H 159.221 1.94721 2.58584 0
M  V30 1695 H 158.128 3.61201 0.973883 0
M  V30 1696 H 159.461 4.74713 1.30033 0
M  V30 1697 N 161.113 -0.173488 1.56642 0
M  V30 1698 C 162.043 -1.2171 1.99271 0
M  V30 1699 C 163.024 -1.46289 0.867959 0
M  V30 1700 O 164.209 -1.5766 1.13388 0
M  V30 1701 C 161.339 -2.55651 2.35074 0
M  V30 1702 C 160.293 -2.45645 3.50489 0
M  V30 1703 C 159.619 -3.84056 3.72028 0
M  V30 1704 C 160.919 -1.96302 4.84007 0
M  V30 1705 H 162.613 -0.86275 2.867 0
M  V30 1706 H 160.159 -0.413571 1.37933 0
M  V30 1707 H 162.112 -3.2886 2.63494 0
M  V30 1708 H 160.836 -2.92869 1.44552 0
M  V30 1709 H 159.495 -1.7489 3.22194 0
M  V30 1710 H 159.143 -4.18664 2.788 0
M  V30 1711 H 158.843 -3.7823 4.49684 0
M  V30 1712 H 160.367 -4.58854 4.02846 0
M  V30 1713 H 161.781 -2.59284 5.11317 0
M  V30 1714 H 160.178 -2.01429 5.65284 0
M  V30 1715 H 161.248 -0.917226 4.76146 0
M  V30 1716 N 162.591 -1.51276 -0.441967 0
M  V30 1717 C 163.819 -1.67516 -1.21434 0
M  V30 1718 C 164.234 -0.37055 -1.85128 0
M  V30 1719 O 163.591 0.650498 -1.70513 0
M  V30 1720 C 163.642 -2.78748 -2.30177 0
M  V30 1721 O 163.363 -4.04154 -1.69089 0
M  V30 1722 C 164.864 -3.06217 -3.20541 0
M  V30 1723 H 162.084 -0.562276 -0.366178 0
M  V30 1724 H 164.628 -1.97666 -0.524244 0
M  V30 1725 H 162.783 -2.5121 -2.94911 0
M  V30 1726 H 163.197 -4.65894 -2.40922 0
M  V30 1727 H 164.671 -3.8764 -3.92987 0
M  V30 1728 H 165.148 -2.18439 -3.81026 0
M  V30 1729 H 165.754 -3.35397 -2.61513 0
M  V30 1730 N 164.069 0.697108 -1.41344 0
M  V30 1731 C 165.317 1.45426 -1.40341 0
M  V30 1732 C 165.638 1.94996 -0.0128787 0
M  V30 1733 O 164.908 1.71599 0.945027 0
M  V30 1734 H 163.488 0.539594 -0.516573 0
M  V30 1735 H 166.15 0.825201 -1.76569 0
M  V30 1736 H 165.246 2.31817 -2.08967 0
M  V30 1737 N 165.547 1.27147 0.931209 0
M  V30 1738 C 166.963 1.04475 1.20653 0
M  V30 1739 C 167.163 -0.223885 2.00252 0
M  V30 1740 O 166.219 -0.930332 2.34736 0
M  V30 1741 C 167.532 2.28209 1.95809 0
M  V30 1742 C 169.08 2.33211 2.08762 0
M  V30 1743 C 169.555 3.56665 2.87323 0
M  V30 1744 N 171.046 3.57201 2.94892 0
M  V30 1745 C 171.781 4.49395 3.56134 0
M  V30 1746 N 171.277 5.51889 4.18796 0
M  V30 1747 N 173.07 4.37026 3.53504 0
M  V30 1748 H 165.221 2.08612 0.399333 0
M  V30 1749 H 167.484 0.917312 0.239253 0
M  V30 1750 H 167.19 3.20538 1.44736 0
M  V30 1751 H 167.064 2.33247 2.96438 0
M  V30 1752 H 169.451 1.41391 2.59023 0
M  V30 1753 H 169.532 2.32178 1.07364 0
M  V30 1754 H 169.176 4.4882 2.37746 0
M  V30 1755 H 169.106 3.54948 3.88998 0
M  V30 1756 H 171.597 2.83074 2.50354 0
M  V30 1757 H 171.91 6.18409 4.63454 0
M  V30 1758 H 170.255 5.55735 4.17353 0
M  V30 1759 H 173.446 3.56166 3.03749 0
M  V30 1760 H 173.619 5.09067 4.00942 0
M  V30 1761 N 167.025 -1.13721 1.09112 0
M  V30 1762 C 168.436 -1.6648 0.845068 0
M  V30 1763 C 168.787 -1.85911 -0.62701 0
M  V30 1764 O 167.912 -1.57556 -1.48341 0
M  V30 1765 C 168.507 -3.02413 1.52748 0
M  V30 1766 C 167.066 -3.52176 1.32849 0
M  V30 1767 C 166.213 -2.27492 1.58564 0
M  V30 1768 H 169.164 -0.976872 1.25072 0
M  V30 1769 H 169.185 -3.68223 0.958752 0
M  V30 1770 H 168.697 -2.88238 2.59885 0
M  V30 1771 H 166.798 -3.7156 0.278137 0
M  V30 1772 H 166.911 -4.32499 2.0611 0
M  V30 1773 H 165.275 -2.33923 1.00758 0
M  V30 1774 H 166.058 -2.15886 2.66924 0
M  V30 1775 N 168.503 -0.877838 -1.30888 0
M  V30 1776 C 169.436 -0.283995 -2.26426 0
M  V30 1777 C 170.414 0.591361 -1.51465 0
M  V30 1778 O 171.598 0.54304 -1.80509 0
M  V30 1779 C 168.725 0.597129 -3.33395 0
M  V30 1780 C 167.771 -0.207937 -4.25993 0
M  V30 1781 S 168.604 -1.59158 -5.11301 0
M  V30 1782 C 169.76 -0.716791 -6.21782 0
M  V30 1783 H 169.993 -1.09383 -2.76446 0
M  V30 1784 H 167.526 -0.676828 -1.38775 0
M  V30 1785 H 169.484 1.09978 -3.95493 0
M  V30 1786 H 168.145 1.38099 -2.82113 0
M  V30 1787 H 167.338 0.464163 -5.01858 0
M  V30 1788 H 166.94 -0.642963 -3.68432 0
M  V30 1789 H 169.232 0.0692833 -6.77465 0
M  V30 1790 H 170.175 -1.44682 -6.93161 0
M  V30 1791 H 170.583 -0.280855 -5.63801 0
M  V30 1792 N 169.982 1.44106 -0.638065 0
M  V30 1793 C 171.398 1.56672 -0.304286 0
M  V30 1794 C 171.598 1.6244 1.19228 0
M  V30 1795 O 170.654 1.57121 1.9766 0
M  V30 1796 C 171.967 2.83503 -1.00231 0
M  V30 1797 C 173.515 2.97226 -0.981116 0
M  V30 1798 C 173.99 4.26868 -1.65974 0
M  V30 1799 N 175.481 4.33698 -1.62666 0
M  V30 1800 C 176.216 5.32745 -2.12063 0
M  V30 1801 N 175.712 6.38157 -2.6968 0
M  V30 1802 N 177.505 5.24299 -2.02651 0
M  V30 1803 H 169.656 1.38605 -1.60942 0
M  V30 1804 H 171.919 0.664661 -0.675965 0
M  V30 1805 H 171.625 2.85251 -2.0573 0
M  V30 1806 H 171.499 3.73251 -0.54439 0
M  V30 1807 H 173.886 2.95027 0.0654188 0
M  V30 1808 H 173.967 2.08808 -1.47759 0
M  V30 1809 H 173.611 4.29826 -2.70576 0
M  V30 1810 H 173.541 5.14156 -1.13804 0
M  V30 1811 H 176.032 3.58138 -1.20606 0
M  V30 1812 H 176.345 7.10029 -3.05087 0
M  V30 1813 H 174.69 6.38823 -2.73734 0
M  V30 1814 H 177.881 4.4086 -1.57353 0
M  V30 1815 H 178.054 6.01334 -2.41457 0
M  V30 1816 N 171.46 0.379036 1.52974 0
M  V30 1817 C 172.706 -0.206727 2.01744 0
M  V30 1818 C 173.039 -1.47314 1.26539 0
M  V30 1819 O 172.314 -1.91084 0.362903 0
M  V30 1820 C 172.597 -0.485066 3.56818 0
M  V30 1821 C 172.45 0.795919 4.42702 0
M  V30 1822 C 173.769 -1.28003 4.21074 0
M  V30 1823 H 170.888 -0.0736607 0.73331 0
M  V30 1824 H 173.53 0.506581 1.83122 0
M  V30 1825 H 171.68 -1.09272 3.72816 0
M  V30 1826 H 173.352 1.43307 4.38476 0
M  V30 1827 H 171.595 1.41344 4.10127 0
M  V30 1828 H 172.266 0.555947 5.49193 0
M  V30 1829 H 174.742 -0.765867 4.08991 0
M  V30 1830 H 173.618 -1.44352 5.29579 0
M  V30 1831 H 173.879 -2.29236 3.78026 0
M  V30 1832 N 172.938 -1.57226 0.108567 0
M  V30 1833 C 174.184 -1.95121 -0.552761 0
M  V30 1834 C 174.517 -0.991345 -1.66991 0
M  V30 1835 O 173.792 -0.0267211 -1.94482 0
M  V30 1836 C 174.075 -3.43039 -1.09528 0
M  V30 1837 C 173.928 -4.49797 0.0177332 0
M  V30 1838 C 175.247 -3.92567 -1.98945 0
M  V30 1839 H 172.366 -0.709496 -0.199461 0
M  V30 1840 H 175.008 -1.89126 0.182011 0
M  V30 1841 H 173.158 -3.48279 -1.72146 0
M  V30 1842 H 174.83 -4.56661 0.652584 0
M  V30 1843 H 173.073 -4.284 0.682309 0
M  V30 1844 H 173.744 -5.50528 -0.402919 0
M  V30 1845 H 176.22 -3.89565 -1.46214 0
M  V30 1846 H 175.096 -4.96605 -2.33827 0
M  V30 1847 H 175.357 -3.32648 -2.91201 0
M  V30 1848 N 174.416 0.165178 -1.56732 0
M  V30 1849 C 175.664 0.879068 -1.8198 0
M  V30 1850 C 175.985 1.82514 -0.686561 0
M  V30 1851 O 175.255 1.93694 0.293146 0
M  V30 1852 H 173.835 0.327608 -0.671329 0
M  V30 1853 H 176.497 0.163526 -1.94213 0
M  V30 1854 H 175.593 1.45228 -2.76252 0
M  V30 1855 N 175.894 1.51508 0.433938 0
M  V30 1856 C 177.14 1.65549 1.18173 0
M  V30 1857 C 177.495 0.368751 1.88833 0
M  V30 1858 O 176.788 -0.635616 1.8075 0
M  V30 1859 C 176.982 2.79928 2.22205 0
M  V30 1860 C 176.811 4.19601 1.61756 0
M  V30 1861 C 175.581 4.85489 1.40101 0
M  V30 1862 C 177.779 5.02574 1.09194 0
M  V30 1863 N 175.761 6.09266 0.752859 0
M  V30 1864 C 177.132 6.17381 0.569255 0
M  V30 1865 C 179.187 4.88079 0.984025 0
M  V30 1866 C 177.89 7.19282 -0.0507472 0
M  V30 1867 C 179.916 5.90191 0.377912 0
M  V30 1868 C 179.278 7.04272 -0.134216 0
M  V30 1869 H 175.377 0.659653 0.419979 0
M  V30 1870 H 177.961 1.88746 0.477818 0
M  V30 1871 H 176.132 2.5839 2.89982 0
M  V30 1872 H 177.864 2.83132 2.89168 0
M  V30 1873 H 174.619 4.43417 1.66369 0
M  V30 1874 H 175.043 6.75528 0.446123 0
M  V30 1875 H 179.685 4.00131 1.36583 0
M  V30 1876 H 177.403 8.06876 -0.444676 0
M  V30 1877 H 180.989 5.81045 0.296269 0
M  V30 1878 H 179.869 7.81933 -0.59585 0
M  V30 1879 N 177.372 -0.689602 1.41712 0
M  V30 1880 C 178.602 -1.47613 1.44548 0
M  V30 1881 C 179.01 -1.89132 0.0509034 0
M  V30 1882 O 178.353 -1.57741 -0.94146 0
M  V30 1883 C 178.415 -2.76596 2.2964 0
M  V30 1884 C 178.079 -2.57245 3.77722 0
M  V30 1885 C 179.076 -2.22804 4.69739 0
M  V30 1886 C 176.761 -2.727 4.2183 0
M  V30 1887 C 178.755 -2.04064 6.03851 0
M  V30 1888 C 176.442 -2.53576 5.56006 0
M  V30 1889 C 177.44 -2.1931 6.46832 0
M  V30 1890 O 177.128 -2.00359 7.78532 0
M  V30 1891 H 176.86 -0.461227 0.494212 0
M  V30 1892 H 179.414 -0.856045 1.86711 0
M  V30 1893 H 177.644 -3.41033 1.82301 0
M  V30 1894 H 179.333 -3.38424 2.24107 0
M  V30 1895 H 180.099 -2.10473 4.36951 0
M  V30 1896 H 175.978 -2.98353 3.51435 0
M  V30 1897 H 179.522 -1.77241 6.74708 0
M  V30 1898 H 175.419 -2.65499 5.88371 0
M  V30 1899 H 176.187 -2.15075 7.89737 0
M  V30 1900 N 178.85 -1.27639 -0.924453 0
M  V30 1901 C 179.8 -1.07295 -2.01176 0
M  V30 1902 C 180.784 5.77352e-05 -1.609 0
M  V30 1903 O 181.976 -0.218855 -1.75642 0
M  V30 1904 C 179.105 -0.725592 -3.35544 0
M  V30 1905 C 178.191 -1.83691 -3.82254 0
M  V30 1906 N 178.582 -3.07697 -4.01443 0
M  V30 1907 C 176.88 -1.72433 -4.11319 0
M  V30 1908 C 177.581 -3.80037 -4.40394 0
M  V30 1909 N 176.557 -3.0782 -4.48049 0
M  V30 1910 H 180.359 -2.01399 -2.14046 0
M  V30 1911 H 177.873 -1.18401 -1.11153 0
M  V30 1912 H 179.87 -0.560959 -4.13109 0
M  V30 1913 H 178.53 0.207782 -3.24034 0
M  V30 1914 H 179.541 -3.43424 -3.8766 0
M  V30 1915 H 176.218 -0.862005 -4.08504 0
M  V30 1916 H 177.608 -4.86632 -4.63291 0
M  V30 1917 N 180.328 1.1314 -1.09713 0
M  V30 1918 C 181.553 1.88862 -0.857081 0
M  V30 1919 C 181.978 1.78729 0.586304 0
M  V30 1920 O 181.336 1.13692 1.41222 0
M  V30 1921 C 181.384 3.36325 -1.30069 0
M  V30 1922 O 180.488 4.09815 -0.461007 0
M  V30 1923 H 179.829 0.587108 -0.310162 0
M  V30 1924 H 182.359 1.43129 -1.46203 0
M  V30 1925 H 182.369 3.87157 -1.28738 0
M  V30 1926 H 181.044 3.43017 -2.35185 0
M  V30 1927 H 179.621 3.68986 -0.538888 0
M  V30 1928 N 181.806 0.884767 1.30421 0
M  V30 1929 C 182.756 0.322846 2.25703 0
M  V30 1930 C 183.74 -0.548582 1.51259 0
M  V30 1931 O 184.932 -0.39304 1.72581 0
M  V30 1932 C 182.061 -0.461787 3.4018 0
M  V30 1933 C 181.147 0.423717 4.21978 0
M  V30 1934 N 181.538 1.52408 4.82292 0
M  V30 1935 C 179.836 0.218795 4.45463 0
M  V30 1936 C 180.537 2.07136 5.43571 0
M  V30 1937 N 179.513 1.36635 5.26148 0
M  V30 1938 H 183.315 1.16363 2.69883 0
M  V30 1939 H 180.829 0.73415 1.44859 0
M  V30 1940 H 182.826 -0.880985 4.07485 0
M  V30 1941 H 181.486 -1.30001 2.9754 0
M  V30 1942 H 182.497 1.90693 4.81515 0
M  V30 1943 H 179.174 -0.582275 4.1342 0
M  V30 1944 H 180.564 2.99538 6.01437 0
M  V30 1945 N 183.284 -1.43765 0.645699 0
M  V30 1946 C 184.695 -1.85193 0.236719 0
M  V30 1947 C 185.046 -1.54045 -1.21509 0
M  V30 1948 O 184.171 -0.985694 -1.92647 0
M  V30 1949 C 184.766 -3.36151 0.422845 0
M  V30 1950 C 183.325 -3.76338 0.0682492 0
M  V30 1951 C 182.472 -2.67538 0.729306 0
M  V30 1952 H 185.423 -1.34025 0.849883 0
M  V30 1953 H 185.444 -3.79032 -0.333904 0
M  V30 1954 H 184.956 -3.5879 1.47958 0
M  V30 1955 H 183.057 -3.59312 -0.986179 0
M  V30 1956 H 183.17 -4.76603 0.488469 0
M  V30 1957 H 181.534 -2.54176 0.163235 0
M  V30 1958 H 182.317 -2.93006 1.78892 0
M  V30 1959 N 184.763 -0.387143 -1.52771 0
M  V30 1960 C 185.713 0.465942 -2.23188 0
M  V30 1961 C 186.697 1.03138 -1.23496 0
M  V30 1962 O 187.889 0.957845 -1.48843 0
M  V30 1963 C 185.018 1.59384 -3.04059 0
M  V30 1964 C 184.104 1.04024 -4.11144 0
M  V30 1965 N 184.495 0.211416 -5.05358 0
M  V30 1966 C 182.793 1.31295 -4.26237 0
M  V30 1967 C 183.494 -0.0941698 -5.81624 0
M  V30 1968 N 182.47 0.509207 -5.4121 0
M  V30 1969 H 186.272 -0.173856 -2.93385 0
M  V30 1970 H 183.786 -0.19633 -1.61209 0
M  V30 1971 H 185.783 2.21738 -3.53041 0
M  V30 1972 H 184.443 2.23648 -2.35397 0
M  V30 1973 H 185.454 -0.151151 -5.17679 0
M  V30 1974 H 182.131 1.95679 -3.68803 0
M  V30 1975 H 183.521 -0.765572 -6.67524 0
M  V30 1976 N 186.241 1.57166 -0.116904 0
M  V30 1977 C 187.49 1.94298 0.541407 0
M  V30 1978 C 187.803 1.00236 1.67964 0
M  V30 1979 O 189.009 1.26826 2.40057 0
M  V30 1980 C 187.465 3.45306 1.01449 0
M  V30 1981 C 187.073 4.47899 -0.0951738 0
M  V30 1982 C 188.817 3.91361 1.6443 0
M  V30 1983 C 186.724 5.90083 0.394491 0
M  V30 1984 H 185.654 0.725308 0.206019 0
M  V30 1985 H 188.305 1.82446 -0.196419 0
M  V30 1986 H 186.687 3.52385 1.80667 0
M  V30 1987 H 187.861 4.52486 -0.871374 0
M  V30 1988 H 186.176 4.11583 -0.631505 0
M  V30 1989 H 188.773 4.95004 2.02176 0
M  V30 1990 H 189.116 3.3122 2.52189 0
M  V30 1991 H 189.649 3.87073 0.917559 0
M  V30 1992 H 186.388 6.53974 -0.447004 0
M  V30 1993 H 185.908 5.88921 1.13722 0
M  V30 1994 H 187.587 6.41307 0.856399 0
M  V30 1995 N 187.719 -0.156864 1.56817 0
M  V30 1996 C 188.947 -0.886316 1.86955 0
M  V30 1997 C 189.362 -1.75185 0.703975 0
M  V30 1998 O 188.719 -1.79555 -0.326552 0
M  V30 1999 C 188.77 -1.75117 3.16253 0
M  V30 2000 O 188.491 -0.920537 4.2832 0
M  V30 2001 C 189.992 -2.58905 3.59837 0
M  V30 2002 H 187.212 -0.25678 0.619923 0
M  V30 2003 H 189.756 -0.152615 2.0393 0
M  V30 2004 H 187.911 -2.43805 3.01062 0
M  V30 2005 H 188.325 -1.51337 5.02192 0
M  V30 2006 H 189.799 -3.1518 4.53172 0
M  V30 2007 H 190.276 -3.34472 2.84649 0
M  V30 2008 H 190.882 -1.95526 3.7769 0
M  V30 2009 N 189.197 -1.51736 -0.425897 0
M  V30 2010 C 190.443 -1.65214 -1.1761 0
M  V30 2011 C 190.776 -0.372778 -1.90589 0
M  V30 2012 O 190.051 0.628139 -1.84078 0
M  V30 2013 C 190.334 -2.86312 -2.18398 0
M  V30 2014 C 190.187 -4.24254 -1.49426 0
M  V30 2015 C 191.506 -3.02925 -3.19256 0
M  V30 2016 H 188.625 -0.601263 -0.426206 0
M  V30 2017 H 191.267 -1.8425 -0.463882 0
M  V30 2018 H 189.417 -2.70213 -2.79137 0
M  V30 2019 H 191.089 -4.52046 -0.919362 0
M  V30 2020 H 189.332 -4.26426 -0.796432 0
M  V30 2021 H 190.003 -5.05001 -2.22885 0
M  V30 2022 H 192.479 -3.1781 -2.68581 0
M  V30 2023 H 191.355 -3.89199 -3.8706 0
M  V30 2024 H 191.616 -2.15497 -3.86023 0
M  V30 2025 N 190.675 0.682077 -1.42076 0
M  V30 2026 C 191.921 1.44283 -1.43366 0
M  V30 2027 C 192.276 1.92344 -0.0465775 0
M  V30 2028 O 191.569 1.67517 0.929973 0
M  V30 2029 C 191.763 2.66036 -2.38662 0
M  V30 2030 C 191.592 2.29889 -3.86499 0
M  V30 2031 C 190.362 2.19599 -4.55087 0
M  V30 2032 C 192.56 1.91999 -4.77117 0
M  V30 2033 N 190.542 1.76478 -5.87987 0
M  V30 2034 C 191.913 1.59741 -5.99068 0
M  V30 2035 C 193.968 1.78927 -4.64639 0
M  V30 2036 C 192.671 1.15723 -7.0993 0
M  V30 2037 C 194.697 1.36314 -5.75476 0
M  V30 2038 C 194.059 1.04975 -6.96534 0
M  V30 2039 H 190.158 0.524739 -0.579805 0
M  V30 2040 H 192.742 0.787834 -1.78048 0
M  V30 2041 H 190.913 3.29237 -2.06053 0
M  V30 2042 H 192.645 3.32588 -2.30581 0
M  V30 2043 H 189.4 2.38433 -4.09202 0
M  V30 2044 H 189.824 1.57362 -6.58458 0
M  V30 2045 H 194.466 2.01805 -3.7153 0
M  V30 2046 H 192.184 0.91591 -8.02893 0
M  V30 2047 H 195.77 1.26731 -5.6783 0
M  V30 2048 H 194.65 0.725017 -7.80841 0
M  V30 2049 N 192.153 1.28127 0.917671 0
M  V30 2050 C 193.564 1.13622 1.48145 0
M  V30 2051 C 193.915 -0.275207 1.9426 0
M  V30 2052 O 193.04 -1.1691 1.82102 0
M  V30 2053 C 193.635 2.05648 2.69248 0
M  V30 2054 C 192.194 1.95219 3.21818 0
M  V30 2055 C 191.341 1.97618 1.94532 0
M  V30 2056 H 194.292 1.40874 0.730772 0
M  V30 2057 H 194.313 1.61818 3.44377 0
M  V30 2058 H 193.825 3.08365 2.35653 0
M  V30 2059 H 191.926 0.955244 3.60147 0
M  V30 2060 H 192.039 2.81976 3.87333 0
M  V30 2061 H 190.403 1.41973 2.11461 0
M  V30 2062 H 191.186 3.02007 1.63238 0
M  V30 2063 N 193.631 -1.12557 1.10312 0
M  V30 2064 C 194.856 -1.88405 0.867085 0
M  V30 2065 C 195.281 -1.79038 -0.576817 0
M  V30 2066 O 194.639 -1.14439 -1.40618 0
M  V30 2067 C 194.687 -3.3563 1.31851 0
M  V30 2068 O 193.791 -4.09565 0.482734 0
M  V30 2069 H 193.132 -0.585455 0.313271 0
M  V30 2070 H 195.662 -1.42352 1.4696 0
M  V30 2071 H 195.672 -3.86469 1.3079 0
M  V30 2072 H 194.347 -3.41765 2.37001 0
M  V30 2073 H 192.924 -3.68695 0.558448 0
M  V30 2074 N 195.109 -0.891671 -1.2995 0
M  V30 2075 C 196.059 -0.334811 -2.25528 0
M  V30 2076 C 197.043 0.540553 -1.51548 0
M  V30 2077 O 198.235 0.383882 -1.72787 0
M  V30 2078 C 195.364 0.44374 -3.4042 0
M  V30 2079 C 194.45 -0.44609 -4.21747 0
M  V30 2080 N 194.841 -1.54963 -4.81477 0
M  V30 2081 C 193.139 -0.242415 -4.45341 0
M  V30 2082 C 193.84 -2.10015 -5.42465 0
M  V30 2083 N 192.816 -1.39423 -5.25416 0
M  V30 2084 H 196.618 -1.17792 -2.69262 0
M  V30 2085 H 194.132 -0.741822 -1.44467 0
M  V30 2086 H 196.129 0.859362 -4.07947 0
M  V30 2087 H 194.789 1.28421 -2.98225 0
M  V30 2088 H 195.8 -1.93244 -4.80497 0
M  V30 2089 H 192.477 0.560342 -4.13723 0
M  V30 2090 H 193.867 -3.02724 -5.9984 0
M  V30 2091 N 196.587 1.43421 -0.653314 0
M  V30 2092 C 197.833 2.02111 -0.166992 0
M  V30 2093 C 198.166 1.51423 1.21592 0
M  V30 2094 O 197.441 0.707389 1.8118 0
M  V30 2095 C 197.724 3.5966 -0.177948 0
M  V30 2096 C 197.577 4.20579 -1.59478 0
M  V30 2097 C 198.896 4.37413 0.4856 0
M  V30 2098 H 196.015 0.734374 -0.0621557 0
M  V30 2099 H 198.657 1.70717 -0.834016 0
M  V30 2100 H 196.807 3.86537 0.390032 0
M  V30 2101 H 198.479 4.04732 -2.21336 0
M  V30 2102 H 196.722 3.77226 -2.14204 0
M  V30 2103 H 197.393 5.29665 -1.5543 0
M  V30 2104 H 199.869 4.161 0.00234528 0
M  V30 2105 H 198.745 5.47075 0.447207 0
M  V30 2106 H 199.006 4.13672 1.55974 0
M  V30 2107 N 198.065 0.39524 1.52563 0
M  V30 2108 C 199.342 -0.242908 1.94086 0
M  V30 2109 C 199.722 -1.63841 1.33114 0
M  V30 2110 O 199.07 -2.22928 0.501529 0
M  V30 2111 C 199.28 -0.26327 3.48006 0
M  V30 2112 C 200.628 -0.489354 4.21771 0
M  V30 2113 O 201.652 -0.343226 3.54543 0
M  V30 2114 O 200.511 -0.776169 5.4096 0
M  V30 2115 H 197.605 -0.152536 0.812811 0
M  V30 2116 H 200.151 0.450178 1.6362 0
M  V30 2117 H 198.923 0.713985 3.84731 0
M  V30 2118 H 198.546 -1.00103 3.84792 0
M  V30 2119 N 199.544 -1.57102 0.125237 0
M  V30 2120 C 200.79 -1.95697 -0.532035 0
M  V30 2121 C 201.123 -1.009 -1.6593 0
M  V30 2122 O 200.398 -0.047347 -1.94442 0
M  V30 2123 C 200.681 -3.44181 -1.05884 0
M  V30 2124 C 200.534 -4.49752 0.0654392 0
M  V30 2125 C 201.853 -3.94655 -1.9477 0
M  V30 2126 H 198.972 -0.711571 -0.191925 0
M  V30 2127 H 201.614 -1.88923 0.20206 0
M  V30 2128 H 199.764 -3.50085 -1.68442 0
M  V30 2129 H 201.436 -4.55943 0.700982 0
M  V30 2130 H 199.679 -4.27653 0.727709 0
M  V30 2131 H 200.35 -5.50924 -0.344505 0
M  V30 2132 H 202.826 -3.91094 -1.42074 0
M  V30 2133 H 201.702 -4.99057 -2.28546 0
M  V30 2134 H 201.963 -3.35718 -2.87656 0
M  V30 2135 N 201.022 0.148545 -1.56898 0
M  V30 2136 C 202.438 0.501131 -1.51528 0
M  V30 2137 C 202.638 1.83458 -0.833399 0
M  V30 2138 O 201.694 2.49259 -0.40328 0
M  V30 2139 C 203.007 0.512864 -2.96294 0
M  V30 2140 C 204.555 0.598487 -3.07225 0
M  V30 2141 C 205.03 0.640897 -4.53494 0
M  V30 2142 N 206.521 0.703163 -4.57832 0
M  V30 2143 C 207.256 0.756935 -5.68382 0
M  V30 2144 N 206.752 0.770147 -6.88506 0
M  V30 2145 N 208.545 0.797698 -5.56411 0
M  V30 2146 H 200.696 -0.725532 -1.99624 0
M  V30 2147 H 202.959 -0.264358 -0.910395 0
M  V30 2148 H 202.665 -0.398691 -3.49433 0
M  V30 2149 H 202.539 1.35133 -3.52163 0
M  V30 2150 H 204.926 1.50046 -2.54106 0
M  V30 2151 H 205.007 -0.267093 -2.54402 0
M  V30 2152 H 204.651 -0.256915 -5.0725 0
M  V30 2153 H 204.581 1.52295 -5.04097 0
M  V30 2154 H 207.072 0.700314 -3.71354 0
M  V30 2155 H 207.385 0.812983 -7.68512 0
M  V30 2156 H 205.73 0.738049 -6.9107 0
M  V30 2157 H 208.921 0.784535 -4.61479 0
M  V30 2158 H 209.094 0.83614 -6.42583 0
M  V30 2159 N 202.5 1.5196 0.417844 0
M  V30 2160 C 203.728 1.69426 1.18753 0
M  V30 2161 C 204.143 0.399955 1.84515 0
M  V30 2162 O 203.5 -0.623288 1.71527 0
M  V30 2163 C 203.551 2.82375 2.25714 0
M  V30 2164 O 203.272 4.06793 1.62638 0
M  V30 2165 C 204.773 3.11277 3.15628 0
M  V30 2166 H 201.993 0.568031 0.357186 0
M  V30 2167 H 204.537 1.98475 0.49273 0
M  V30 2168 H 202.692 2.5587 2.90877 0
M  V30 2169 H 203.106 4.69667 2.3348 0
M  V30 2170 H 204.58 3.93843 3.86771 0
M  V30 2171 H 205.057 2.24473 3.77503 0
M  V30 2172 H 205.663 3.39515 2.56144 0
M  V30 2173 N 203.978 -0.674533 1.42435 0
M  V30 2174 C 204.91 -1.80005 1.41883 0
M  V30 2175 C 205.923 -1.59667 0.31787 0
M  V30 2176 O 207.112 -1.68781 0.580973 0
M  V30 2177 C 204.212 -3.17114 1.19549 0
M  V30 2178 C 203.385 -3.64299 2.42084 0
M  V30 2179 C 202.444 -4.80142 2.15291 0
M  V30 2180 O 201.47 -4.90673 2.88493 0
M  V30 2181 N 202.672 -5.68869 1.1562 0
M  V30 2182 H 205.437 -1.80964 2.38898 0
M  V30 2183 H 202.998 -0.857633 1.37318 0
M  V30 2184 H 204.99 -3.92267 0.995417 0
M  V30 2185 H 203.56 -3.11053 0.310569 0
M  V30 2186 H 202.78 -2.79822 2.77657 0
M  V30 2187 H 204.068 -3.92567 3.23679 0
M  V30 2188 H 203.466 -5.63012 0.550765 0
M  V30 2189 H 202.023 -6.43833 1.016 0
M  V30 2190 N 205.456 -1.28612 -0.910864 0
M  V30 2191 C 206.419 -1.12803 -1.9952 0
M  V30 2192 C 207.419 -0.0668264 -1.60661 0
M  V30 2193 O 208.609 -0.312847 -1.71368 0
M  V30 2194 C 205.741 -0.72254 -3.33155 0
M  V30 2195 H 206.934 -2.09109 -2.14973 0
M  V30 2196 H 204.487 -1.11639 -1.09391 0
M  V30 2197 H 205.222 0.241152 -3.23402 0
M  V30 2198 H 205.007 -1.48916 -3.62721 0
M  V30 2199 H 206.497 -0.634666 -4.12749 0
M  V30 2200 N 206.934 1.1197 -1.10907 0
M  V30 2201 C 207.867 2.16998 -0.706192 0
M  V30 2202 C 208.845 1.59903 0.294897 0
M  V30 2203 O 210.029 1.87513 0.192636 0
M  V30 2204 C 207.156 3.38673 -0.0427664 0
M  V30 2205 C 206.202 4.14414 -1.00811 0
M  V30 2206 S 207.035 4.72079 -2.52789 0
M  V30 2207 C 208.191 5.97083 -1.87731 0
M  V30 2208 H 208.424 2.50837 -1.59587 0
M  V30 2209 H 205.957 1.23508 -0.926555 0
M  V30 2210 H 207.915 4.09142 0.333668 0
M  V30 2211 H 206.576 3.03105 0.823788 0
M  V30 2212 H 205.769 5.016 -0.491259 0
M  V30 2213 H 205.371 3.49678 -1.3267 0
M  V30 2214 H 207.663 6.66599 -1.21044 0
M  V30 2215 H 208.606 6.53403 -2.72892 0
M  V30 2216 H 209.014 5.4837 -1.33979 0
M  V30 2217 N 208.412 0.89855 1.29475 0
M  V30 2218 C 209.642 0.538479 1.99459 0
M  V30 2219 C 210.05 -0.880922 1.67441 0
M  V30 2220 O 209.393 -1.59283 0.915127 0
M  V30 2221 C 209.455 0.649564 3.53583 0
M  V30 2222 C 209.119 2.03573 4.09154 0
M  V30 2223 C 210.116 3.00675 4.24135 0
M  V30 2224 C 207.801 2.3448 4.44212 0
M  V30 2225 C 209.795 4.26809 4.73405 0
M  V30 2226 C 207.482 3.60857 4.93179 0
M  V30 2227 C 208.48 4.56836 5.0773 0
M  V30 2228 O 208.168 5.80969 5.55635 0
M  V30 2229 H 207.9 0.205372 0.644048 0
M  V30 2230 H 210.454 1.20958 1.66007 0
M  V30 2231 H 208.684 -0.0785592 3.8662 0
M  V30 2232 H 210.373 0.29881 4.04799 0
M  V30 2233 H 211.139 2.78112 3.97339 0
M  V30 2234 H 207.018 1.60534 4.32145 0
M  V30 2235 H 210.562 5.0173 4.84678 0
M  V30 2236 H 206.459 3.83251 5.19412 0
M  V30 2237 H 207.227 5.83542 5.73952 0
M  V30 2238 N 209.89 -1.43072 0.660911 0
M  V30 2239 C 210.822 -2.29108 -0.0647641 0
M  V30 2240 C 211.835 -1.42928 -0.779448 0
M  V30 2241 O 213.024 -1.66788 -0.635921 0
M  V30 2242 C 210.124 -3.20032 -1.11503 0
M  V30 2243 C 209.297 -4.34792 -0.476955 0
M  V30 2244 C 208.356 -5.06534 -1.42513 0
M  V30 2245 O 207.382 -5.61538 -0.930771 0
M  V30 2246 N 208.584 -5.1075 -2.75889 0
M  V30 2247 H 211.349 -2.92029 0.673731 0
M  V30 2248 H 208.91 -1.53846 0.50427 0
M  V30 2249 H 210.902 -3.64892 -1.75032 0
M  V30 2250 H 209.472 -2.58658 -1.75541 0
M  V30 2251 H 208.692 -3.92752 0.337572 0
M  V30 2252 H 209.98 -5.0879 -0.0318525 0
M  V30 2253 H 209.378 -4.67447 -3.18606 0
M  V30 2254 H 207.935 -5.59302 -3.347 0
M  V30 2255 N 211.368 -0.403325 -1.52352 0
M  V30 2256 C 212.301 0.469463 -2.23319 0
M  V30 2257 C 213.279 1.05272 -1.23922 0
M  V30 2258 O 214.463 1.10169 -1.52954 0
M  V30 2259 C 211.59 1.6511 -2.9573 0
M  V30 2260 C 210.636 1.19178 -4.0951 0
M  V30 2261 S 211.469 0.161718 -5.35256 0
M  V30 2262 C 212.625 1.34882 -6.11194 0
M  V30 2263 H 212.858 -0.133134 -2.97002 0
M  V30 2264 H 210.391 -0.187588 -1.53256 0
M  V30 2265 H 212.349 2.3287 -3.38056 0
M  V30 2266 H 211.01 2.22503 -2.21701 0
M  V30 2267 H 210.203 2.07444 -4.59329 0
M  V30 2268 H 209.805 0.592911 -3.6927 0
M  V30 2269 H 212.097 2.27345 -6.38217 0
M  V30 2270 H 213.04 0.89128 -7.02468 0
M  V30 2271 H 213.448 1.57198 -5.42171 0
M  V30 2272 N 212.846 1.57033 -0.133567 0
M  V30 2273 C 213.779 2.11824 0.848872 0
M  V30 2274 C 214.757 1.03833 1.2513 0
M  V30 2275 O 215.941 1.31579 1.34978 0
M  V30 2276 C 213.068 2.62692 2.138 0
M  V30 2277 C 212.114 3.82705 1.88253 0
M  V30 2278 S 212.947 5.2438 1.08563 0
M  V30 2279 C 214.103 5.78627 2.38624 0
M  V30 2280 H 214.336 2.94824 0.38289 0
M  V30 2281 H 211.869 1.5419 0.0804796 0
M  V30 2282 H 213.827 2.92652 2.87863 0
M  V30 2283 H 212.488 1.79847 2.57515 0
M  V30 2284 H 211.681 4.16496 2.83809 0
M  V30 2285 H 211.283 3.53437 1.22305 0
M  V30 2286 H 213.575 5.8924 3.34369 0
M  V30 2287 H 214.518 6.76443 2.09358 0
M  V30 2288 H 214.926 5.06783 2.48658 0
M  V30 2289 N 214.325 -0.140222 1.56975 0
M  V30 2290 C 215.602 -0.880769 1.74648 0
M  V30 2291 C 215.982 -1.99036 0.703404 0
M  V30 2292 O 215.33 -2.26821 -0.27648 0
M  V30 2293 C 215.54 -1.417 3.18939 0
M  V30 2294 C 216.888 -1.87774 3.80823 0
M  V30 2295 O 217.912 -1.51427 3.2241 0
M  V30 2296 O 216.771 -2.54827 4.83452 0
M  V30 2297 H 213.865 -0.416713 0.714338 0
M  V30 2298 H 216.411 -0.125618 1.69234 0
M  V30 2299 H 215.183 -0.619902 3.86359 0
M  V30 2300 H 214.806 -2.23546 3.28805 0
M  V30 2301 N 215.803 -1.52179 -0.40978 0
M  V30 2302 C 216.735 -1.71703 -1.51825 0
M  V30 2303 C 217.748 -0.597445 -1.51441 0
M  V30 2304 O 218.937 -0.872582 -1.55719 0
M  V30 2305 C 216.037 -1.74171 -2.90719 0
M  V30 2306 C 215.21 -3.03156 -3.15302 0
M  V30 2307 C 214.269 -2.97445 -4.34065 0
M  V30 2308 O 213.295 -3.71352 -4.31377 0
M  V30 2309 N 214.497 -2.15191 -5.39141 0
M  V30 2310 H 217.262 -2.67334 -1.35472 0
M  V30 2311 H 214.823 -1.50409 -0.599069 0
M  V30 2312 H 216.815 -1.67884 -3.68235 0
M  V30 2313 H 215.385 -0.860166 -3.00533 0
M  V30 2314 H 214.605 -3.23097 -2.25836 0
M  V30 2315 H 215.893 -3.88484 -3.28569 0
M  V30 2316 H 215.291 -1.54573 -5.44173 0
M  V30 2317 H 213.848 -2.1476 -6.15403 0
M  V30 2318 N 217.281 0.66697 -1.42791 0
M  V30 2319 C 218.529 1.42417 -1.43394 0
M  V30 2320 C 218.85 1.94925 -0.0542373 0
M  V30 2321 O 218.12 1.73564 0.908415 0
M  V30 2322 H 216.7 0.528515 -0.527902 0
M  V30 2323 H 219.362 0.787562 -1.78279 0
M  V30 2324 H 218.458 2.27333 -2.13837 0
M  V30 2325 N 218.759 1.29093 0.90403 0
M  V30 2326 C 220.006 1.16813 1.65411 0
M  V30 2327 C 220.334 -0.28128 1.92455 0
M  V30 2328 O 219.589 -1.22006 1.53013 0
M  V30 2329 C 219.888 1.92224 3.01305 0
M  V30 2330 C 219.554 3.41968 2.93885 0
M  V30 2331 C 218.216 3.82807 2.91569 0
M  V30 2332 C 220.568 4.37409 2.83413 0
M  V30 2333 C 217.896 5.1741 2.76594 0
M  V30 2334 C 220.248 5.72097 2.69977 0
M  V30 2335 C 218.912 6.12199 2.66024 0
M  V30 2336 H 218.182 0.42745 0.605283 0
M  V30 2337 H 220.829 1.59981 1.05254 0
M  V30 2338 H 219.134 1.41635 3.65304 0
M  V30 2339 H 220.831 1.80131 3.58265 0
M  V30 2340 H 217.421 3.09504 2.96488 0
M  V30 2341 H 221.605 4.06813 2.84283 0
M  V30 2342 H 216.861 5.47596 2.71935 0
M  V30 2343 H 221.035 6.45704 2.60844 0
M  V30 2344 H 218.662 7.16448 2.54178 0
M  V30 2345 N 220.237 -1.11381 1.11499 0
M  V30 2346 C 221.483 -1.83403 0.865512 0
M  V30 2347 C 221.816 -1.84459 -0.607329 0
M  V30 2348 O 221.091 -1.29811 -1.44842 0
M  V30 2349 C 221.374 -3.30552 1.42855 0
M  V30 2350 C 221.227 -3.37886 2.96906 0
M  V30 2351 C 222.546 -4.26643 1.08 0
M  V30 2352 H 219.665 -0.665879 0.31587 0
M  V30 2353 H 222.307 -1.30601 1.37998 0
M  V30 2354 H 220.457 -3.75648 0.990985 0
M  V30 2355 H 222.129 -3.01343 3.49271 0
M  V30 2356 H 220.372 -2.78088 3.32941 0
M  V30 2357 H 221.043 -4.41458 3.31389 0
M  V30 2358 H 223.519 -3.89729 1.45775 0
M  V30 2359 H 222.395 -5.27986 1.50072 0
M  V30 2360 H 222.656 -4.42099 -0.00915037 0
M  V30 2361 N 221.715 -0.905404 -1.28997 0
M  V30 2362 C 222.963 -0.533192 -1.9494 0
M  V30 2363 C 223.284 0.924618 -1.71685 0
M  V30 2364 O 222.554 1.65268 -1.05183 0
M  V30 2365 H 221.134 -0.194194 -0.721317 0
M  V30 2366 H 223.796 -1.15294 -1.57141 0
M  V30 2367 H 222.892 -0.72059 -3.03667 0
M  V30 2368 N 223.193 1.4272 -0.668489 0
M  V30 2369 C 224.123 2.335 -0.000100175 0
M  V30 2370 C 225.104 1.50328 0.795964 0
M  V30 2371 O 226.289 1.78949 0.754385 0
M  V30 2372 C 223.419 3.33874 0.956302 0
M  V30 2373 C 222.373 4.27152 0.269278 0
M  V30 2374 C 221.699 5.17684 1.33818 0
M  V30 2375 C 222.999 5.15373 -0.847805 0
M  V30 2376 H 224.693 2.89639 -0.758244 0
M  V30 2377 H 222.239 1.39269 -0.366079 0
M  V30 2378 H 224.192 3.9629 1.43292 0
M  V30 2379 H 222.916 2.76025 1.74579 0
M  V30 2380 H 221.575 3.66123 -0.187042 0
M  V30 2381 H 221.223 4.56165 2.1195 0
M  V30 2382 H 220.923 5.80918 0.883659 0
M  V30 2383 H 222.447 5.82974 1.81586 0
M  V30 2384 H 223.861 5.7151 -0.452681 0
M  V30 2385 H 222.258 5.87407 -1.22773 0
M  V30 2386 H 223.328 4.5415 -1.69929 0
M  V30 2387 N 224.671 0.411399 1.52136 0
M  V30 2388 C 225.92 -0.165009 2.01024 0
M  V30 2389 C 226.233 -1.4603 1.30133 0
M  V30 2390 O 227.439 -2.1181 1.69849 0
M  V30 2391 C 225.895 -0.344618 3.58246 0
M  V30 2392 C 225.503 0.938716 4.38055 0
M  V30 2393 C 227.247 -0.876195 4.15359 0
M  V30 2394 C 225.154 0.726172 5.86925 0
M  V30 2395 H 224.084 -0.0654407 0.751155 0
M  V30 2396 H 226.735 0.537192 1.75461 0
M  V30 2397 H 225.117 -1.10921 3.80148 0
M  V30 2398 H 226.291 1.70963 4.27912 0
M  V30 2399 H 224.606 1.39688 3.92271 0
M  V30 2400 H 227.203 -1.05128 5.24263 0
M  V30 2401 H 227.546 -1.85152 3.7286 0
M  V30 2402 H 228.079 -0.170607 3.97434 0
M  V30 2403 H 224.818 1.67312 6.33788 0
M  V30 2404 H 224.338 -0.00540283 5.998 0
M  V30 2405 H 226.017 0.369231 6.45946 0
M  V30 2406 N 226.149 -1.5696 0.141893 0
M  V30 2407 C 227.396 -1.9596 -0.510492 0
M  V30 2408 C 227.724 -1.02648 -1.65208 0
M  V30 2409 O 226.979 -0.0546947 -1.95624 0
M  V30 2410 C 227.278 -3.41242 -1.06249 0
M  V30 2411 C 226.944 -4.50882 -0.0398791 0
M  V30 2412 C 225.606 -4.80595 0.241247 0
M  V30 2413 C 227.958 -5.17058 0.65578 0
M  V30 2414 C 225.286 -5.73792 1.22393 0
M  V30 2415 C 227.638 -6.11313 1.62724 0
M  V30 2416 C 226.302 -6.39407 1.91612 0
M  V30 2417 H 225.572 -0.717068 -0.186802 0
M  V30 2418 H 228.219 -1.90142 0.227643 0
M  V30 2419 H 226.524 -3.43866 -1.87785 0
M  V30 2420 H 228.221 -3.68742 -1.57576 0
M  V30 2421 H 224.811 -4.27754 -0.269174 0
M  V30 2422 H 228.995 -4.94239 0.451779 0
M  V30 2423 H 224.251 -5.93853 1.45424 0
M  V30 2424 H 228.425 -6.61668 2.17183 0
M  V30 2425 H 226.052 -7.11427 2.6791 0
M  V30 2426 N 227.627 0.131896 -1.57047 0
M  V30 2427 C 228.852 0.860418 -1.8871 0
M  V30 2428 C 229.277 1.73251 -0.73251 0
M  V30 2429 O 228.635 1.785 0.317429 0
M  V30 2430 C 228.683 1.68047 -3.19049 0
M  V30 2431 O 227.787 2.7862 -3.04047 0
M  V30 2432 H 227.128 0.238743 -0.619595 0
M  V30 2433 H 229.658 0.118169 -2.04258 0
M  V30 2434 H 229.668 2.07238 -3.51449 0
M  V30 2435 H 228.343 1.04018 -4.02682 0
M  V30 2436 H 226.92 2.42726 -2.83088 0
M  V30 2437 N 229.106 1.52395 0.401703 0
M  V30 2438 C 230.346 1.68498 1.15705 0
M  V30 2439 C 230.71 0.409748 1.87577 0
M  V30 2440 O 231.911 0.446983 2.65058 0
M  V30 2441 C 230.182 2.87789 2.11924 0
M  V30 2442 S 231.741 3.24415 2.95466 0
M  V30 2443 H 228.559 0.593267 0.391862 0
M  V30 2444 H 231.161 1.90408 0.443282 0
M  V30 2445 H 229.865 3.7884 1.57824 0
M  V30 2446 H 229.396 2.68175 2.87829 0
M  V30 2447 H 231.411 2.73614 4.13944 0
M  V30 2448 N 230.584 -0.659388 1.43143 0
M  V30 2449 C 231.831 -1.41935 1.44433 0
M  V30 2450 C 232.159 -1.94387 0.0663522 0
M  V30 2451 O 231.414 -1.72314 -0.927706 0
M  V30 2452 C 231.713 -2.62206 2.42864 0
M  V30 2453 C 231.379 -2.28208 3.88886 0
M  V30 2454 C 230.041 -2.18647 4.28657 0
M  V30 2455 C 232.393 -2.00887 4.8093 0
M  V30 2456 C 229.721 -1.79914 5.58433 0
M  V30 2457 C 232.073 -1.63653 6.11065 0
M  V30 2458 C 230.737 -1.52614 6.49819 0
M  V30 2459 H 230.007 -0.519376 0.528517 0
M  V30 2460 H 232.654 -0.750453 1.76183 0
M  V30 2461 H 230.959 -3.34199 2.04495 0
M  V30 2462 H 232.656 -3.2041 2.41119 0
M  V30 2463 H 229.246 -2.36557 3.57406 0
M  V30 2464 H 233.43 -2.07198 4.5098 0
M  V30 2465 H 228.686 -1.69948 5.87305 0
M  V30 2466 H 232.86 -1.41543 6.81864 0
M  V30 2467 H 230.487 -1.22371 7.50286 0
M  V30 2468 N 232.062 -1.29571 -0.897171 0
M  V30 2469 C 233.311 -1.1706 -1.64256 0
M  V30 2470 C 233.624 0.276476 -1.93636 0
M  V30 2471 O 234.83 0.52294 -2.66416 0
M  V30 2472 C 233.286 -2.0475 -2.95982 0
M  V30 2473 C 232.894 -3.54295 -2.74187 0
M  V30 2474 C 234.638 -2.0097 -3.73914 0
M  V30 2475 C 232.545 -4.34081 -4.01656 0
M  V30 2476 H 231.475 -0.43452 -0.616205 0
M  V30 2477 H 234.126 -1.54229 -0.994268 0
M  V30 2478 H 232.508 -1.60452 -3.62038 0
M  V30 2479 H 233.682 -4.06662 -2.1671 0
M  V30 2480 H 231.997 -3.59773 -2.09648 0
M  V30 2481 H 234.594 -2.57838 -4.68427 0
M  V30 2482 H 234.937 -0.990273 -4.0435 0
M  V30 2483 H 235.47 -2.43325 -3.14703 0
M  V30 2484 H 232.209 -5.36671 -3.76384 0
M  V30 2485 H 231.729 -3.86483 -4.58684 0
M  V30 2486 H 233.408 -4.44877 -4.69781 0
M  V30 2487 N 233.54 1.10788 -1.12088 0
M  V30 2488 C 234.45 2.20599 -0.798338 0
M  V30 2489 C 235.466 1.72712 0.21135 0
M  V30 2490 O 236.642 2.01348 0.0458477 0
M  V30 2491 C 233.707 3.45771 -0.253674 0
M  V30 2492 C 232.768 4.08411 -1.32283 0
M  V30 2493 C 232.001 5.27608 -0.80406 0
M  V30 2494 O 232.224 5.69241 0.363478 0
M  V30 2495 O 231.158 5.8101 -1.57198 0
M  V30 2496 H 234.984 2.50614 -1.7154 0
M  V30 2497 H 232.569 1.19454 -0.897275 0
M  V30 2498 H 234.451 4.21376 0.0453691 0
M  V30 2499 H 233.126 3.1739 0.636005 0
M  V30 2500 H 232.033 3.34507 -1.67499 0
M  V30 2501 H 233.366 4.40986 -2.18614 0
M  V30 2502 N 235.018 0.912232 1.28515 0
M  V30 2503 C 236.295 0.463597 1.90027 0
M  V30 2504 C 236.675 -1.05753 1.82701 0
M  V30 2505 O 236.023 -1.90492 1.26194 0
M  V30 2506 C 236.233 0.992253 3.34597 0
M  V30 2507 C 237.581 1.04344 4.11579 0
M  V30 2508 O 238.605 0.94079 3.43551 0
M  V30 2509 O 237.464 1.1995 5.33174 0
M  V30 2510 H 234.558 0.146666 0.813891 0
M  V30 2511 H 237.104 1.00292 1.36893 0
M  V30 2512 H 235.876 2.03623 3.34146 0
M  V30 2513 H 235.499 0.433672 3.95228 0
M  V30 2514 N 236.496 -1.42363 0.676048 0
M  V30 2515 C 237.443 -2.308 -0.00150904 0
M  V30 2516 C 238.413 -1.46032 -0.791444 0
M  V30 2517 O 239.598 -1.74861 -0.76344 0
M  V30 2518 C 236.738 -3.31883 -0.945919 0
M  V30 2519 C 235.851 -4.31741 -0.149675 0
M  V30 2520 C 234.986 -5.19898 -1.08995 0
M  V30 2521 C 234.025 -6.11434 -0.285465 0
M  V30 2522 N 233.162 -6.92138 -1.17851 0
M  V30 2523 H 238.002 -2.88187 0.758455 0
M  V30 2524 H 235.539 -1.41952 0.38576 0
M  V30 2525 H 237.497 -3.89019 -1.50731 0
M  V30 2526 H 236.127 -2.76093 -1.6725 0
M  V30 2527 H 235.179 -3.76713 0.528359 0
M  V30 2528 H 236.491 -4.96534 0.474866 0
M  V30 2529 H 235.645 -5.81772 -1.72123 0
M  V30 2530 H 234.384 -4.55284 -1.74837 0
M  V30 2531 H 233.389 -5.48627 0.359018 0
M  V30 2532 H 234.614 -6.78097 0.368883 0
M  V30 2533 H 232.56 -6.30152 -1.82332 0
M  V30 2534 H 232.477 -7.53542 -0.609082 0
M  V30 2535 H 233.745 -7.58499 -1.79722 0
M  V30 2536 N 237.974 -0.419461 -1.51915 0
M  V30 2537 C 238.922 0.415502 -2.28859 0
M  V30 2538 C 239.916 1.03674 -1.3397 0
M  V30 2539 O 241.122 0.973757 -1.51387 0
M  V30 2540 H 237.497 0.152786 -0.736315 0
M  V30 2541 H 239.468 -0.254531 -2.97312 0
M  V30 2542 C 238.217 1.51425 -3.12995 0
M  V30 2543 H 237.54 1.04556 -3.85886 0
M  V30 2544 H 238.98 2.07208 -3.6992 0
M  V30 2545 C 237.439 2.48745 -2.27217 0
M  V30 2546 O 237.969 3.52871 -1.9195 0
M  V30 2547 N 236.175 2.19202 -1.90785 0
M  V30 2548 H 235.722 1.34556 -2.19664 0
M  V30 2549 H 235.68 2.84561 -1.33687 0
M  V30 2550 N 239.452 1.56882 -0.150215 0
M  V30 2551 C 240.68 2.00593 0.506948 0
M  V30 2552 C 241.095 1.03033 1.58208 0
M  V30 2553 O 240.452 0.0278396 1.82479 0
M  V30 2554 C 240.503 3.44209 1.10465 0
M  V30 2555 O 240.224 4.3804 0.0724636 0
M  V30 2556 C 241.725 4.03214 1.84211 0
M  V30 2557 H 238.945 0.65795 0.13169 0
M  V30 2558 H 241.489 2.03018 -0.245743 0
M  V30 2559 H 239.644 3.42625 1.80795 0
M  V30 2560 H 240.058 5.22007 0.510793 0
M  V30 2561 H 241.532 5.0569 2.21318 0
M  V30 2562 H 242.009 3.44107 2.72923 0
M  V30 2563 H 242.615 4.08437 1.18572 0
M  V30 2564 N 240.93 -0.123565 1.57115 0
M  V30 2565 C 241.877 -1.15177 2.00007 0
M  V30 2566 C 242.847 -1.41403 0.871454 0
M  V30 2567 O 244.032 -1.53346 1.13533 0
M  V30 2568 C 241.172 -2.47436 2.40561 0
M  V30 2569 C 240.285 -2.28184 3.66819 0
M  V30 2570 C 239.42 -3.53641 3.96373 0
M  V30 2571 C 238.459 -3.29528 5.15827 0
M  V30 2572 N 237.596 -4.47175 5.41275 0
M  V30 2573 H 242.436 -0.779008 2.87638 0
M  V30 2574 H 239.973 -0.373166 1.42288 0
M  V30 2575 H 241.931 -3.24584 2.62109 0
M  V30 2576 H 240.561 -2.82614 1.55978 0
M  V30 2577 H 239.613 -1.41976 3.52912 0
M  V30 2578 H 240.925 -2.0634 4.5412 0
M  V30 2579 H 240.079 -4.39209 4.18545 0
M  V30 2580 H 238.818 -3.78512 3.07538 0
M  V30 2581 H 237.823 -2.42349 4.93505 0
M  V30 2582 H 239.048 -3.06031 6.06236 0
M  V30 2583 H 236.994 -4.72175 4.55397 0
M  V30 2584 H 236.911 -4.28419 6.22891 0
M  V30 2585 H 238.179 -5.3389 5.67963 0
M  V30 2586 N 242.408 -1.52605 -0.393616 0
M  V30 2587 C 243.636 -1.71294 -1.16043 0
M  V30 2588 C 244.051 -0.429259 -1.83855 0
M  V30 2589 O 243.408 0.595921 -1.72496 0
M  V30 2590 C 243.459 -2.8593 -2.21193 0
M  V30 2591 O 243.18 -4.09329 -1.56146 0
M  V30 2592 C 244.681 -3.16259 -3.10636 0
M  V30 2593 H 241.901 -0.573641 -0.348104 0
M  V30 2594 H 244.445 -1.99234 -0.461092 0
M  V30 2595 H 242.6 -2.60465 -2.86769 0
M  V30 2596 H 243.014 -4.73323 -2.25978 0
M  V30 2597 H 244.488 -3.99946 -3.80456 0
M  V30 2598 H 244.965 -2.3045 -3.73884 0
M  V30 2599 H 245.571 -3.43547 -2.50711 0
M  V30 2600 N 243.887 0.651787 -1.4349 0
M  V30 2601 C 245.135 1.40888 -1.44897 0
M  V30 2602 C 245.456 1.94856 -0.0749086 0
M  V30 2603 O 244.726 1.74518 0.889956 0
M  V30 2604 H 243.306 0.522887 -0.533478 0
M  V30 2605 H 245.968 0.768609 -1.79104 0
M  V30 2606 H 245.064 2.25052 -2.16236 0
M  V30 2607 N 245.365 1.30045 0.890287 0
M  V30 2608 C 246.781 1.08261 1.17268 0
M  V30 2609 C 246.981 -0.160063 2.00863 0
M  V30 2610 O 246.037 -0.855181 2.37577 0
M  V30 2611 C 247.35 2.34323 1.8845 0
M  V30 2612 C 248.898 2.39735 2.01237 0
M  V30 2613 C 249.373 3.65625 2.7583 0
M  V30 2614 N 250.864 3.66402 2.83379 0
M  V30 2615 C 251.599 4.60498 3.41657 0
M  V30 2616 N 251.095 5.64933 4.01026 0
M  V30 2617 N 252.888 4.48051 3.39421 0
M  V30 2618 H 245.039 2.09777 0.332762 0
M  V30 2619 H 247.302 0.92446 0.209948 0
M  V30 2620 H 247.008 3.2498 1.34465 0
M  V30 2621 H 246.882 2.4256 2.88867 0
M  V30 2622 H 249.269 1.4956 2.54393 0
M  V30 2623 H 249.35 2.35476 0.999232 0
M  V30 2624 H 248.994 4.56156 2.23347 0
M  V30 2625 H 248.924 3.67144 3.77509 0
M  V30 2626 H 251.415 2.90896 2.41222 0
M  V30 2627 H 251.728 6.32841 4.43545 0
M  V30 2628 H 250.073 5.68732 3.99461 0
M  V30 2629 H 253.264 3.65649 2.92264 0
M  V30 2630 H 253.437 5.21565 3.84544 0
M  V30 2631 N 246.843 -1.10192 1.12674 0
M  V30 2632 C 248.089 -1.82475 0.884915 0
M  V30 2633 C 248.422 -1.85093 -0.58773 0
M  V30 2634 O 247.697 -1.3134 -1.43457 0
M  V30 2635 C 247.98 -3.29018 1.46353 0
M  V30 2636 C 247.833 -3.34718 3.00473 0
M  V30 2637 C 249.152 -4.25473 1.12519 0
M  V30 2638 H 246.271 -0.662492 0.322915 0
M  V30 2639 H 248.913 -1.2913 1.39375 0
M  V30 2640 H 247.063 -3.74576 1.03077 0
M  V30 2641 H 248.735 -2.97622 3.52447 0
M  V30 2642 H 246.978 -2.74541 3.35872 0
M  V30 2643 H 247.649 -4.37918 3.36053 0
M  V30 2644 H 250.125 -3.88161 1.499 0
M  V30 2645 H 249.001 -5.26365 1.55663 0
M  V30 2646 H 249.262 -4.42084 0.0377407 0
M  V30 2647 N 248.321 -0.919034 -1.28029 0
M  V30 2648 C 249.251 -0.428581 -2.29533 0
M  V30 2649 C 250.232 0.50659 -1.62381 0
M  V30 2650 O 251.417 0.413195 -1.89753 0
M  V30 2651 C 248.547 0.327388 -3.45753 0
M  V30 2652 C 247.501 -0.519137 -4.2484 0
M  V30 2653 C 246.827 0.365486 -5.33449 0
M  V30 2654 C 248.127 -1.77914 -4.91064 0
M  V30 2655 H 249.821 -1.27687 -2.70807 0
M  V30 2656 H 247.367 -0.615428 -1.30186 0
M  V30 2657 H 249.32 0.681378 -4.15855 0
M  V30 2658 H 248.044 1.20963 -3.03374 0
M  V30 2659 H 246.703 -0.855717 -3.56473 0
M  V30 2660 H 246.351 1.24642 -4.87312 0
M  V30 2661 H 246.051 -0.197356 -5.87268 0
M  V30 2662 H 247.575 0.715241 -6.06396 0
M  V30 2663 H 248.989 -1.49374 -5.53498 0
M  V30 2664 H 247.386 -2.2848 -5.54903 0
M  V30 2665 H 248.456 -2.50382 -4.15255 0
M  V30 2666 N 249.799 1.42003 -0.683588 0
M  V30 2667 C 251.029 2.05448 -0.217866 0
M  V30 2668 C 251.437 1.51491 1.13346 0
M  V30 2669 O 250.78 0.653048 1.717 0
M  V30 2670 C 250.842 3.59399 -0.0850118 0
M  V30 2671 C 250.506 4.36093 -1.36645 0
M  V30 2672 C 251.503 4.66169 -2.30179 0
M  V30 2673 C 249.188 4.75578 -1.61649 0
M  V30 2674 C 251.182 5.34676 -3.46988 0
M  V30 2675 C 248.869 5.43824 -2.78745 0
M  V30 2676 C 249.867 5.73299 -3.71238 0
M  V30 2677 O 249.555 6.40142 -4.86285 0
M  V30 2678 H 249.287 0.668344 -0.101454 0
M  V30 2679 H 251.841 1.82974 -0.933248 0
M  V30 2680 H 250.071 3.80566 0.686031 0
M  V30 2681 H 251.76 4.04457 0.341973 0
M  V30 2682 H 252.526 4.36156 -2.12115 0
M  V30 2683 H 248.405 4.52025 -0.905243 0
M  V30 2684 H 251.949 5.57599 -4.19201 0
M  V30 2685 H 247.846 5.73254 -2.96732 0
M  V30 2686 H 248.614 6.58636 -4.85944 0
M  V30 2687 N 251.277 0.427512 1.51691 0
M  V30 2688 C 252.505 -0.141191 2.06418 0
M  V30 2689 C 252.92 -1.37303 1.29589 0
M  V30 2690 O 252.277 -1.79059 0.352732 0
M  V30 2691 C 252.328 -0.473266 3.58389 0
M  V30 2692 O 252.049 0.709673 4.32314 0
M  V30 2693 C 253.55 -1.09371 4.29596 0
M  V30 2694 H 250.77 -0.0122747 0.670888 0
M  V30 2695 H 253.314 0.603764 1.95384 0
M  V30 2696 H 251.469 -1.16812 3.69369 0
M  V30 2697 H 251.883 0.42807 5.2275 0
M  V30 2698 H 253.357 -1.27613 5.37046 0
M  V30 2699 H 253.834 -2.072 3.87253 0
M  V30 2700 H 254.44 -0.43853 4.23033 0
M  V30 2701 N 252.755 -1.56801 0.158532 0
M  V30 2702 C 253.995 -1.98383 -0.49229 0
M  V30 2703 C 254.359 -1.04184 -1.61275 0
M  V30 2704 O 255.56 -1.34856 -2.32524 0
M  V30 2705 C 253.831 -3.4385 -0.974766 0
M  V30 2706 S 255.39 -4.07459 -1.62857 0
M  V30 2707 H 252.208 -0.693041 -0.158794 0
M  V30 2708 H 254.81 -1.93856 0.252974 0
M  V30 2709 H 253.514 -4.10131 -0.148688 0
M  V30 2710 H 253.045 -3.52115 -1.75438 0
M  V30 2711 H 255.06 -4.01458 -2.91627 0
M  V30 2712 N 254.233 0.115231 -1.57178 0
M  V30 2713 C 255.48 0.822351 -1.8505 0
M  V30 2714 C 255.808 1.79701 -0.744168 0
M  V30 2715 O 255.063 1.93909 0.26414 0
M  V30 2716 C 255.362 1.60324 -3.19423 0
M  V30 2717 C 255.028 0.772536 -4.44233 0
M  V30 2718 C 253.69 0.543468 -4.78121 0
M  V30 2719 C 256.042 0.193746 -5.2084 0
M  V30 2720 C 253.37 -0.274583 -5.86057 0
M  V30 2721 C 255.722 -0.611517 -6.29637 0
M  V30 2722 C 254.386 -0.850867 -6.62055 0
M  V30 2723 H 253.656 0.30092 -0.677147 0
M  V30 2724 H 256.303 0.0845802 -1.91313 0
M  V30 2725 H 254.608 2.41203 -3.08753 0
M  V30 2726 H 256.305 2.1544 -3.38211 0
M  V30 2727 H 252.895 0.96117 -4.17683 0
M  V30 2728 H 257.079 0.357926 -4.95008 0
M  V30 2729 H 252.335 -0.469206 -6.09597 0
M  V30 2730 H 256.509 -1.06697 -6.88178 0
M  V30 2731 H 254.136 -1.48657 -7.45523 0
M  V30 2732 N 255.711 1.52812 0.385517 0
M  V30 2733 C 256.643 1.74096 1.49074 0
M  V30 2734 C 257.656 0.621462 1.50472 0
M  V30 2735 O 258.845 0.897245 1.54311 0
M  V30 2736 C 255.945 1.78774 2.87911 0
M  V30 2737 C 255.118 3.08134 3.10439 0
M  V30 2738 C 254.177 3.04313 4.29278 0
M  V30 2739 O 253.203 3.78168 4.25415 0
M  V30 2740 N 254.405 2.23741 5.35649 0
M  V30 2741 H 257.17 2.69455 1.31202 0
M  V30 2742 H 254.731 1.51343 0.575065 0
M  V30 2743 H 256.723 1.73721 3.65518 0
M  V30 2744 H 255.293 0.907869 2.99126 0
M  V30 2745 H 254.513 3.26649 2.20667 0
M  V30 2746 H 255.801 3.93662 3.22347 0
M  V30 2747 H 255.199 1.63211 5.41645 0
M  V30 2748 H 253.756 2.24524 6.11909 0
M  V30 2749 N 257.189 -0.644168 1.43834 0
M  V30 2750 C 258.414 -1.43642 1.49605 0
M  V30 2751 C 258.839 -1.8773 0.117913 0
M  V30 2752 O 258.197 -1.57938 -0.890239 0
M  V30 2753 C 258.245 -2.6416 2.45463 0
M  V30 2754 O 257.349 -3.63538 1.94714 0
M  V30 2755 H 256.69 -0.430329 0.50568 0
M  V30 2756 H 259.22 -0.787448 1.8884 0
M  V30 2757 H 259.23 -3.11864 2.63068 0
M  V30 2758 H 257.905 -2.31414 3.45572 0
M  V30 2759 H 256.482 -3.2273 1.86814 0
M  V30 2760 N 258.668 -1.30515 -0.883378 0
M  V30 2761 C 259.917 -1.18795 -1.63005 0
M  V30 2762 C 260.23 0.255923 -1.93919 0
M  V30 2763 O 261.436 0.494654 -2.66956 0
M  V30 2764 C 259.892 -2.07878 -2.93794 0
M  V30 2765 C 259.5 -3.57184 -2.70414 0
M  V30 2766 C 261.244 -2.04924 -3.71761 0
M  V30 2767 C 259.151 -4.38317 -3.97029 0
M  V30 2768 H 258.081 -0.441031 -0.611562 0
M  V30 2769 H 260.732 -1.55275 -0.977854 0
M  V30 2770 H 259.114 -1.64283 -3.60315 0
M  V30 2771 H 260.288 -4.08937 -2.12384 0
M  V30 2772 H 258.603 -3.61976 -2.0582 0
M  V30 2773 H 261.2 -2.62792 -4.65665 0
M  V30 2774 H 261.543 -1.0331 -4.03277 0
M  V30 2775 H 262.076 -2.46649 -3.12104 0
M  V30 2776 H 258.815 -5.40632 -3.70671 0
M  V30 2777 H 258.335 -3.91326 -4.54559 0
M  V30 2778 H 260.014 -4.49834 -4.65036 0
M  V30 2779 N 260.146 1.09593 -1.13257 0
M  V30 2780 C 261.078 2.16015 -0.766167 0
M  V30 2781 C 262.091 1.61423 0.211303 0
M  V30 2782 O 263.28 1.78498 -0.00863946 0
M  V30 2783 C 260.38 3.38706 -0.114662 0
M  V30 2784 C 259.553 4.22717 -1.12379 0
M  V30 2785 C 258.612 5.23835 -0.498301 0
M  V30 2786 O 257.638 5.573 -1.15781 0
M  V30 2787 N 258.84 5.75886 0.730417 0
M  V30 2788 H 261.605 2.48055 -1.68193 0
M  V30 2789 H 259.166 1.25292 -1.02535 0
M  V30 2790 H 261.158 4.03464 0.315991 0
M  V30 2791 H 259.728 3.04569 0.704011 0
M  V30 2792 H 258.948 3.54122 -1.73179 0
M  V30 2793 H 260.236 4.75673 -1.80589 0
M  V30 2794 H 259.634 5.50911 1.28504 0
M  V30 2795 H 258.191 6.42387 1.10376 0
M  V30 2796 N 261.624 0.925811 1.2754 0
M  V30 2797 C 262.587 0.428129 2.25166 0
M  V30 2798 C 263.587 -0.452261 1.54309 0
M  V30 2799 O 264.777 -0.253608 1.72344 0
M  V30 2800 C 261.909 -0.384749 3.38722 0
M  V30 2801 H 263.102 1.29066 2.70706 0
M  V30 2802 H 260.655 0.706323 1.3943 0
M  V30 2803 H 261.39 -1.26618 2.98561 0
M  V30 2804 H 261.175 0.246454 3.91325 0
M  V30 2805 H 262.665 -0.723389 4.11287 0
M  V30 2806 N 263.102 -1.41638 0.69111 0
M  V30 2807 C 264.034 -2.29194 -0.0161523 0
M  V30 2808 C 265.047 -1.44549 -0.748955 0
M  V30 2809 O 266.236 -1.681 -0.6004 0
M  V30 2810 C 263.336 -3.22325 -1.0469 0
M  V30 2811 C 262.509 -4.35706 -0.384621 0
M  V30 2812 C 261.568 -5.09443 -1.31737 0
M  V30 2813 O 260.594 -5.63386 -0.811451 0
M  V30 2814 N 261.796 -5.16487 -2.64993 0
M  V30 2815 H 264.561 -2.90534 0.735523 0
M  V30 2816 H 262.122 -1.52742 0.53679 0
M  V30 2817 H 264.114 -3.68522 -1.67252 0
M  V30 2818 H 262.684 -2.62323 -1.70015 0
M  V30 2819 H 261.904 -3.91948 0.420804 0
M  V30 2820 H 263.192 -5.08743 0.0760765 0
M  V30 2821 H 262.59 -4.741 -3.08619 0
M  V30 2822 H 261.147 -5.66276 -3.22761 0
M  V30 2823 N 264.58 -0.43555 -1.51462 0
M  V30 2824 C 265.527 0.376797 -2.27703 0
M  V30 2825 C 266.497 1.01838 -1.31219 0
M  V30 2826 O 267.682 1.03762 -1.60119 0
M  V30 2827 C 264.822 1.47301 -3.12084 0
M  V30 2828 C 263.935 0.849744 -4.2356 0
M  V30 2829 C 263.07 1.92086 -4.95254 0
M  V30 2830 C 262.109 1.27593 -5.98654 0
M  V30 2831 N 261.246 2.28833 -6.63762 0
M  V30 2832 H 266.086 -0.279734 -2.96684 0
M  V30 2833 H 263.623 -0.149795 -1.46335 0
M  V30 2834 H 265.581 2.11984 -3.59331 0
M  V30 2835 H 264.211 2.0992 -2.45221 0
M  V30 2836 H 263.263 0.0912529 -3.80291 0
M  V30 2837 H 264.575 0.338878 -4.97648 0
M  V30 2838 H 263.729 2.64435 -5.46039 0
M  V30 2839 H 262.468 2.46545 -4.20793 0
M  V30 2840 H 261.473 0.537893 -5.47162 0
M  V30 2841 H 262.698 0.738693 -6.7507 0
M  V30 2842 H 260.644 2.82375 -5.92115 0
M  V30 2843 H 260.561 1.82632 -7.33608 0
M  V30 2844 H 261.829 3.00671 -7.19178 0
M  V30 2845 N 266.058 1.56714 -0.166846 0
M  V30 2846 C 267.283 2.01557 0.488833 0
M  V30 2847 C 267.708 1.0463 1.56314 0
M  V30 2848 O 267.066 0.0251304 1.81283 0
M  V30 2849 C 267.114 3.4503 1.04818 0
M  V30 2850 O 266.218 3.51163 2.16236 0
M  V30 2851 H 265.559 0.653516 0.117526 0
M  V30 2852 H 268.089 2.02818 -0.269421 0
M  V30 2853 H 268.099 3.84243 1.37191 0
M  V30 2854 H 266.774 4.15077 0.261572 0
M  V30 2855 H 265.351 3.23807 1.84942 0
M  V30 2856 N 267.536 -0.106894 1.57237 0
M  V30 2857 C 268.761 -0.830287 1.90055 0
M  V30 2858 C 269.186 -1.72064 0.75998 0
M  V30 2859 O 268.544 -1.78982 -0.288991 0
M  V30 2860 C 268.592 -1.6295 3.21683 0
M  V30 2861 O 267.696 -2.73748 3.08441 0
M  V30 2862 H 267.037 -0.228855 0.623315 0
M  V30 2863 H 269.567 -0.085658 2.04421 0
M  V30 2864 H 269.577 -2.01621 3.54701 0
M  V30 2865 H 268.252 -0.975989 4.04286 0
M  V30 2866 H 266.829 -2.38192 2.86913 0
M  V30 2867 N 269.014 -1.53014 -0.377408 0
M  V30 2868 C 269.924 -1.81557 -1.48574 0
M  V30 2869 C 270.94 -0.703102 -1.59162 0
M  V30 2870 O 272.116 -0.99192 -1.75279 0
M  V30 2871 C 269.181 -1.9889 -2.83978 0
M  V30 2872 C 268.242 -3.22801 -2.83016 0
M  V30 2873 C 267.475 -3.39298 -4.11962 0
M  V30 2874 O 267.698 -2.60345 -5.0752 0
M  V30 2875 O 266.632 -4.32604 -4.18494 0
M  V30 2876 H 270.458 -2.75695 -1.27382 0
M  V30 2877 H 268.043 -1.38248 -0.566373 0
M  V30 2878 H 269.925 -2.11931 -3.6423 0
M  V30 2879 H 268.6 -1.07942 -3.05172 0
M  V30 2880 H 267.507 -3.15193 -2.01505 0
M  V30 2881 H 268.84 -4.13632 -2.66775 0
M  V30 2882 N 270.492 0.636531 -1.44174 0
M  V30 2883 C 271.717 1.42847 -1.50364 0
M  V30 2884 C 272.142 1.87665 -0.127867 0
M  V30 2885 O 271.5 1.58408 0.88185 0
M  V30 2886 C 271.548 2.62854 -2.4686 0
M  V30 2887 O 270.652 3.62501 -1.9664 0
M  V30 2888 H 269.993 0.427642 -0.507955 0
M  V30 2889 H 272.523 0.777422 -1.89255 0
M  V30 2890 H 272.533 3.10465 -2.64718 0
M  V30 2891 H 271.208 2.29578 -3.46795 0
M  V30 2892 H 269.785 3.21735 -1.88523 0
M  V30 2893 N 271.97 1.30982 0.876444 0
M  V30 2894 C 272.9 1.20668 1.99903 0
M  V30 2895 C 273.881 0.095354 1.69833 0
M  V30 2896 O 275.066 0.27885 1.92188 0
M  V30 2897 C 272.196 0.90655 3.3526 0
M  V30 2898 C 271.15 1.97675 3.79617 0
M  V30 2899 C 270.476 1.52943 5.1236 0
M  V30 2900 C 271.776 3.389 3.97422 0
M  V30 2901 H 273.47 2.14586 2.0879 0
M  V30 2902 H 271.016 1.03308 1.00317 0
M  V30 2903 H 272.969 0.821025 4.13324 0
M  V30 2904 H 271.693 -0.0682969 3.26529 0
M  V30 2905 H 270.352 2.05205 3.03787 0
M  V30 2906 H 270 0.54262 5.00065 0
M  V30 2907 H 269.7 2.24532 5.43009 0
M  V30 2908 H 271.224 1.45786 5.92941 0
M  V30 2909 H 272.638 3.34081 4.659 0
M  V30 2910 H 271.035 4.0865 4.3946 0
M  V30 2911 H 272.105 3.80163 3.01006 0
M  V30 2912 N 273.449 -1.08991 1.13837 0
M  V30 2913 C 274.399 -2.1393 0.788535 0
M  V30 2914 C 275.383 -1.59396 -0.219516 0
M  V30 2915 O 276.575 -1.76985 -0.0227557 0
M  V30 2916 C 273.704 -3.42305 0.261147 0
M  V30 2917 C 272.79 -4.03736 1.29837 0
M  V30 2918 N 273.181 -4.39659 2.50067 0
M  V30 2919 C 271.479 -4.30993 1.1472 0
M  V30 2920 C 272.18 -4.88113 3.16419 0
M  V30 2921 N 271.156 -4.85846 2.43832 0
M  V30 2922 H 274.958 -2.39516 1.70322 0
M  V30 2923 H 272.472 -1.26263 1.02134 0
M  V30 2924 H 274.469 -4.16899 -0.0077405 0
M  V30 2925 H 273.129 -3.18172 -0.647805 0
M  V30 2926 H 274.14 -4.30878 2.8734 0
M  V30 2927 H 270.817 -4.16444 0.296773 0
M  V30 2928 H 272.207 -5.25336 4.18894 0
M  V30 2929 N 274.927 -0.932562 -1.27047 0
M  V30 2930 C 276.175 -0.574422 -1.93765 0
M  V30 2931 C 276.496 0.887993 -1.73608 0
M  V30 2932 O 275.766 1.62999 -1.08665 0
M  V30 2933 H 274.346 -0.209451 -0.717035 0
M  V30 2934 H 277.008 -1.18601 -1.5466 0
M  V30 2935 H 276.104 -0.784841 -3.02071 0
M  V30 2936 N 276.405 1.4127 -0.698611 0
M  V30 2937 C 277.816 1.84187 -0.305289 0
M  V30 2938 C 278.167 1.58449 1.15708 0
M  V30 2939 O 277.292 1.05651 1.88856 0
M  V30 2940 C 277.887 3.3435 -0.547314 0
M  V30 2941 C 276.446 3.75826 -0.207878 0
M  V30 2942 C 275.593 2.64647 -0.828099 0
M  V30 2943 H 278.544 1.30778 -0.89904 0
M  V30 2944 H 278.565 3.8001 0.192998 0
M  V30 2945 H 278.077 3.53051 -1.61172 0
M  V30 2946 H 276.178 3.62725 0.852143 0
M  V30 2947 H 276.291 4.74462 -0.665021 0
M  V30 2948 H 274.655 2.53395 -0.257458 0
M  V30 2949 H 275.438 2.86165 -1.89643 0
M  V30 2950 N 277.883 0.443576 1.51229 0
M  V30 2951 C 279.299 0.0962001 1.5931 0
M  V30 2952 C 279.499 -1.39501 1.45402 0
M  V30 2953 O 278.555 -2.16557 1.29843 0
M  V30 2954 C 279.868 0.621875 2.94199 0
M  V30 2955 C 281.416 0.582865 3.07525 0
M  V30 2956 C 281.891 1.08562 4.44948 0
M  V30 2957 N 283.382 1.04387 4.51284 0
M  V30 2958 C 284.117 1.40368 5.55954 0
M  V30 2959 N 283.613 1.83664 6.68011 0
M  V30 2960 N 285.406 1.32145 5.46346 0
M  V30 2961 H 277.557 1.41376 1.58514 0
M  V30 2962 H 279.82 0.582965 0.747567 0
M  V30 2963 H 279.526 1.66546 3.09767 0
M  V30 2964 H 279.4 0.0502125 3.77167 0
M  V30 2965 H 281.787 -0.451749 2.91622 0
M  V30 2966 H 281.868 1.191 2.26382 0
M  V30 2967 H 281.512 2.11873 4.61598 0
M  V30 2968 H 281.442 0.453956 5.2464 0
M  V30 2969 H 283.933 0.725986 3.70861 0
M  V30 2970 H 284.246 2.0934 7.43906 0
M  V30 2971 H 282.591 1.87596 6.69203 0
M  V30 2972 H 285.782 0.981808 4.57688 0
M  V30 2973 H 285.955 1.60514 6.27805 0
M  V30 2974 N 279.361 -1.56624 0.175154 0
M  V30 2975 C 280.638 -1.88688 -0.515373 0
M  V30 2976 C 281.018 -1.08564 -1.81044 0
M  V30 2977 O 280.366 -0.180703 -2.27784 0
M  V30 2978 C 280.576 -3.40768 -0.753552 0
M  V30 2979 C 281.924 -4.10587 -1.08184 0
M  V30 2980 O 282.948 -3.46106 -0.841961 0
M  V30 2981 O 281.807 -5.24512 -1.53459 0
M  V30 2982 H 278.901 -0.78301 -0.26613 0
M  V30 2983 H 281.447 -1.68347 0.213877 0
M  V30 2984 H 280.219 -3.90965 0.161829 0
M  V30 2985 H 279.842 -3.66733 -1.53598 0
M  V30 2986 N 280.839 0.0985539 -1.57292 0
M  V30 2987 C 282.086 0.802678 -1.85912 0
M  V30 2988 C 282.414 1.78901 -0.763186 0
M  V30 2989 O 281.669 1.94178 0.243559 0
M  V30 2990 C 281.968 1.56927 -3.21105 0
M  V30 2991 C 281.634 0.725376 -4.45027 0
M  V30 2992 C 280.296 0.492726 -4.78671 0
M  V30 2993 C 282.648 0.138493 -5.21016 0
M  V30 2994 C 279.976 -0.336727 -5.85733 0
M  V30 2995 C 282.328 -0.678264 -6.28953 0
M  V30 2996 C 280.992 -0.921039 -6.61115 0
M  V30 2997 H 280.262 0.293721 -0.680301 0
M  V30 2998 H 282.909 0.0642841 -1.91392 0
M  V30 2999 H 281.214 2.37914 -3.11294 0
M  V30 3000 H 282.911 2.11841 -3.40477 0
M  V30 3001 H 279.501 0.916815 -4.18679 0
M  V30 3002 H 283.685 0.305404 -4.95359 0
M  V30 3003 H 278.941 -0.533836 -6.09065 0
M  V30 3004 H 283.115 -1.1399 -6.87007 0
M  V30 3005 H 280.742 -1.56556 -7.43905 0
M  V30 3006 N 282.317 1.53212 0.369288 0
M  V30 3007 C 283.563 1.70413 1.11046 0
M  V30 3008 C 283.918 0.448509 1.87099 0
M  V30 3009 O 283.211 -0.558382 1.83283 0
M  V30 3010 C 283.405 2.89101 2.10132 0
M  V30 3011 C 283.234 4.26084 1.43814 0
M  V30 3012 C 282.004 4.90994 1.19384 0
M  V30 3013 C 284.202 5.06754 0.877802 0
M  V30 3014 N 282.184 6.11911 0.49377 0
M  V30 3015 C 283.555 6.1924 0.306891 0
M  V30 3016 C 285.61 4.91814 0.776129 0
M  V30 3017 C 284.313 7.1842 -0.355774 0
M  V30 3018 C 286.339 5.91263 0.127252 0
M  V30 3019 C 285.701 7.03069 -0.432801 0
M  V30 3020 H 281.8 0.676872 0.391623 0
M  V30 3021 H 284.384 1.90603 0.397334 0
M  V30 3022 H 282.555 2.70456 2.78761 0
M  V30 3023 H 284.287 2.95142 2.76899 0
M  V30 3024 H 281.042 4.50074 1.47413 0
M  V30 3025 H 281.466 6.76813 0.159207 0
M  V30 3026 H 286.108 4.05564 1.19489 0
M  V30 3027 H 283.826 8.04264 -0.786499 0
M  V30 3028 H 287.412 5.81779 0.0495613 0
M  V30 3029 H 286.292 7.78702 -0.926958 0
M  V30 3030 N 283.795 -0.628877 1.44509 0
M  V30 3031 C 285.02 -1.42048 1.5112 0
M  V30 3032 C 285.445 -1.87594 0.137818 0
M  V30 3033 O 284.803 -1.58873 -0.873437 0
M  V30 3034 C 284.851 -2.61541 2.48251 0
M  V30 3035 O 283.955 -3.61453 1.98559 0
M  V30 3036 H 283.296 -0.424942 0.510216 0
M  V30 3037 H 285.826 -0.767374 1.89664 0
M  V30 3038 H 285.836 -3.09057 2.66361 0
M  V30 3039 H 284.511 -2.27736 3.48007 0
M  V30 3040 H 283.088 -3.20731 1.90227 0
M  V30 3041 N 285.273 -1.31445 -0.869486 0
M  V30 3042 C 286.498 -1.24256 -1.66058 0
M  V30 3043 C 286.923 0.188928 -1.87149 0
M  V30 3044 O 286.281 1.13522 -1.4136 0
M  V30 3045 C 286.329 -1.9924 -3.00559 0
M  V30 3046 O 285.433 -1.33007 -3.90362 0
M  V30 3047 H 284.774 -0.428973 -0.506831 0
M  V30 3048 H 287.304 -1.73521 -1.08404 0
M  V30 3049 H 287.314 -2.08854 -3.50491 0
M  V30 3050 H 285.989 -3.03342 -2.84528 0
M  V30 3051 H 284.566 -1.31848 -3.48813 0
M  V30 3052 N 286.751 1.08385 -1.14413 0
M  V30 3053 C 287.976 1.85057 -0.936413 0
M  V30 3054 C 288.401 1.81055 0.509971 0
M  V30 3055 O 287.759 1.1958 1.36273 0
M  V30 3056 C 287.807 3.30505 -1.44217 0
M  V30 3057 O 286.911 4.07491 -0.634409 0
M  V30 3058 H 286.252 0.573425 -0.334784 0
M  V30 3059 H 288.782 1.36799 -1.52142 0
M  V30 3060 H 288.792 3.81348 -1.45043 0
M  V30 3061 H 287.467 3.32734 -2.49522 0
M  V30 3062 H 286.044 3.66368 -0.694902 0
M  V30 3063 N 288.23 0.939286 1.26551 0
M  V30 3064 C 289.162 0.404704 2.25599 0
M  V30 3065 C 290.175 -0.470983 1.55838 0
M  V30 3066 O 291.364 -0.281734 1.76263 0
M  V30 3067 C 288.464 -0.43764 3.36062 0
M  V30 3068 C 287.637 0.421449 4.35365 0
M  V30 3069 C 286.696 -0.36015 5.24966 0
M  V30 3070 O 285.722 0.236167 5.6871 0
M  V30 3071 N 286.924 -1.65715 5.56344 0
M  V30 3072 H 289.689 1.25618 2.72103 0
M  V30 3073 H 287.25 0.807963 1.40298 0
M  V30 3074 H 289.242 -0.967866 3.92956 0
M  V30 3075 H 287.812 -1.18991 2.89067 0
M  V30 3076 H 287.032 1.1329 3.7757 0
M  V30 3077 H 288.32 1.00835 4.98708 0
M  V30 3078 H 287.718 -2.16378 5.22682 0
M  V30 3079 H 286.275 -2.13366 6.15888 0
M  V30 3080 N 289.708 -1.40897 0.706093 0
M  V30 3081 C 290.658 -2.27987 0.0240746 0
M  V30 3082 C 291.642 -1.42759 -0.742204 0
M  V30 3083 O 292.834 -1.65936 -0.615966 0
M  V30 3084 C 289.963 -3.31186 -0.903907 0
M  V30 3085 C 289.049 -4.2389 -0.133318 0
M  V30 3086 N 289.44 -4.98113 0.878444 0
M  V30 3087 C 287.738 -4.44485 -0.367269 0
M  V30 3088 C 288.439 -5.6604 1.34064 0
M  V30 3089 N 287.415 -5.39522 0.664565 0
M  V30 3090 H 291.217 -2.82812 0.799658 0
M  V30 3091 H 288.731 -1.53235 0.537845 0
M  V30 3092 H 290.728 -3.92413 -1.40775 0
M  V30 3093 H 289.388 -2.77922 -1.67897 0
M  V30 3094 H 290.399 -5.02364 1.25901 0
M  V30 3095 H 287.076 -4.02213 -1.1194 0
M  V30 3096 H 288.466 -6.35524 2.1808 0
M  V30 3097 N 291.186 -0.45159 -1.50991 0
M  V30 3098 C 292.435 0.111653 -2.01391 0
M  V30 3099 C 292.748 1.42529 -1.33959 0
M  V30 3100 O 293.954 2.07232 -1.75405 0
M  V30 3101 C 292.41 0.249514 -3.59034 0
M  V30 3102 C 292.018 -1.05453 -4.35412 0
M  V30 3103 C 293.762 0.765762 -4.17536 0
M  V30 3104 C 291.669 -0.881529 -5.84793 0
M  V30 3105 H 290.599 0.0455022 -0.752626 0
M  V30 3106 H 293.25 -0.583524 -1.73975 0
M  V30 3107 H 291.632 1.00803 -3.82955 0
M  V30 3108 H 292.806 -1.82248 -4.23229 0
M  V30 3109 H 291.121 -1.50039 -3.88429 0
M  V30 3110 H 293.718 0.911913 -5.26866 0
M  V30 3111 H 294.061 1.75201 -3.77638 0
M  V30 3112 H 294.594 0.0651744 -3.97747 0
M  V30 3113 H 291.333 -1.84057 -6.29129 0
M  V30 3114 H 290.853 -0.153625 -5.99603 0
M  V30 3115 H 292.532 -0.540363 -6.4474 0
M  V30 3116 N 292.664 1.56529 -0.183458 0
M  V30 3117 C 293.889 2.02064 0.467428 0
M  V30 3118 C 294.314 1.06282 1.55196 0
M  V30 3119 O 293.672 0.0443565 1.81246 0
M  V30 3120 C 293.72 3.46122 1.01153 0
M  V30 3121 O 292.824 3.53437 2.12499 0
M  V30 3122 H 292.165 0.654726 0.110588 0
M  V30 3123 H 294.695 2.02521 -0.290917 0
M  V30 3124 H 294.705 3.85676 1.33108 0
M  V30 3125 H 293.38 4.15331 0.217533 0
M  V30 3126 H 291.957 3.2575 1.81497 0
M  V30 3127 N 294.142 -0.090211 1.57342 0
M  V30 3128 C 295.391 -0.791531 1.8552 0
M  V30 3129 C 295.704 -1.79659 0.773441 0
M  V30 3130 O 296.91 -2.54616 0.942497 0
M  V30 3131 C 295.366 -1.45856 3.2902 0
M  V30 3132 C 294.974 -0.493017 4.45279 0
M  V30 3133 C 296.718 -2.14332 3.66418 0
M  V30 3134 C 294.625 -1.16491 5.79814 0
M  V30 3135 H 293.555 -0.299356 0.692027 0
M  V30 3136 H 296.206 -0.0445343 1.83446 0
M  V30 3137 H 294.588 -2.25318 3.2565 0
M  V30 3138 H 295.762 0.270464 4.60006 0
M  V30 3139 H 294.077 0.0863061 4.16311 0
M  V30 3140 H 296.674 -2.65344 4.64216 0
M  V30 3141 H 297.017 -2.93447 2.95287 0
M  V30 3142 H 297.55 -1.41724 3.71698 0
M  V30 3143 H 294.289 -0.41447 6.54188 0
M  V30 3144 H 293.809 -1.8997 5.68921 0
M  V30 3145 H 295.488 -1.69001 6.24538 0
M  V30 3146 N 295.62 -1.53406 -0.361157 0
M  V30 3147 C 296.53 -1.83122 -1.4664 0
M  V30 3148 C 297.546 -0.719943 -1.58407 0
M  V30 3149 O 298.722 -1.01046 -1.74218 0
M  V30 3150 C 295.787 -2.01891 -2.81853 0
M  V30 3151 C 294.848 -3.25784 -2.79577 0
M  V30 3152 C 294.081 -3.43648 -4.0834 0
M  V30 3153 O 294.304 -2.65714 -5.0473 0
M  V30 3154 O 293.238 -4.37018 -4.13883 0
M  V30 3155 H 297.064 -2.7703 -1.24451 0
M  V30 3156 H 294.649 -1.38841 -0.551678 0
M  V30 3157 H 296.531 -2.15782 -3.61962 0
M  V30 3158 H 295.206 -1.11173 -3.0401 0
M  V30 3159 H 294.113 -3.17312 -1.98151 0
M  V30 3160 H 295.446 -4.16439 -2.62373 0
M  V30 3161 N 297.098 0.621204 -1.44841 0
M  V30 3162 C 298.346 1.37783 -1.47852 0
M  V30 3163 C 298.667 1.94653 -0.116224 0
M  V30 3164 O 297.937 1.76367 0.852737 0
M  V30 3165 H 296.517 0.511453 -0.544449 0
M  V30 3166 H 299.179 0.730446 -1.80694 0
M  V30 3167 H 298.275 2.20414 -2.20961 0
M  V30 3168 N 298.576 1.31904 0.862503 0
M  V30 3169 C 299.508 1.16005 1.97675 0
M  V30 3170 C 300.521 0.0971234 1.6251 0
M  V30 3171 O 301.71 0.345337 1.75128 0
M  V30 3172 C 298.81 0.751791 3.30456 0
M  V30 3173 C 297.983 1.90133 3.93914 0
M  V30 3174 C 297.042 1.4779 5.05019 0
M  V30 3175 O 296.068 2.18872 5.25437 0
M  V30 3176 N 297.27 0.369491 5.79323 0
M  V30 3177 H 300.035 2.11982 2.11857 0
M  V30 3178 H 297.596 1.24337 1.03691 0
M  V30 3179 H 299.588 0.451084 4.02178 0
M  V30 3180 H 298.158 -0.116593 3.12382 0
M  V30 3181 H 297.378 2.36896 3.15078 0
M  V30 3182 H 298.666 2.67111 4.33047 0
M  V30 3183 H 298.064 -0.222299 5.65263 0
M  V30 3184 H 296.621 0.128354 6.51674 0
M  V30 3185 N 300.054 -1.07777 1.14986 0
M  V30 3186 C 301.001 -2.14867 0.842672 0
M  V30 3187 C 301.971 -1.6486 -0.202552 0
M  V30 3188 O 303.156 -1.90668 -0.0710568 0
M  V30 3189 C 300.296 -3.43486 0.333363 0
M  V30 3190 C 299.409 -4.07306 1.43965 0
M  V30 3191 C 298.544 -5.23744 0.886914 0
M  V30 3192 C 297.583 -5.79517 1.97043 0
M  V30 3193 N 296.72 -6.87291 1.4344 0
M  V30 3194 H 301.56 -2.40485 1.75986 0
M  V30 3195 H 299.097 -1.1801 0.878179 0
M  V30 3196 H 301.055 -4.17195 0.0198163 0
M  V30 3197 H 299.685 -3.18133 -0.546916 0
M  V30 3198 H 298.737 -3.31293 1.86946 0
M  V30 3199 H 300.049 -4.44771 2.25788 0
M  V30 3200 H 299.203 -6.04419 0.525651 0
M  V30 3201 H 297.942 -4.87685 0.0377957 0
M  V30 3202 H 296.947 -4.97491 2.34057 0
M  V30 3203 H 298.172 -6.17632 2.82325 0
M  V30 3204 H 296.118 -6.5318 0.607567 0
M  V30 3205 H 296.035 -7.23617 2.18895 0
M  V30 3206 H 297.303 -7.71682 1.10124 0
M  V30 3207 N 301.532 -0.945985 -1.26051 0
M  V30 3208 C 302.442 -0.465633 -2.29933 0
M  V30 3209 C 303.458 0.462761 -1.67733 0
M  V30 3210 O 304.634 0.341118 -1.9849 0
M  V30 3211 C 301.699 0.256994 -3.45746 0
M  V30 3212 C 300.76 -0.708549 -4.23412 0
M  V30 3213 C 299.993 -0.0203135 -5.33696 0
M  V30 3214 O 300.216 1.19571 -5.57726 0
M  V30 3215 O 299.15 -0.701459 -5.97799 0
M  V30 3216 H 302.976 -1.32866 -2.73094 0
M  V30 3217 H 300.561 -0.712071 -1.31339 0
M  V30 3218 H 302.443 0.663852 -4.16138 0
M  V30 3219 H 301.118 1.09533 -3.04605 0
M  V30 3220 H 300.025 -1.16545 -3.55483 0
M  V30 3221 H 301.358 -1.51465 -4.68315 0
M  V30 3222 N 303.011 1.40521 -0.713556 0
M  V30 3223 C 303.921 2.34522 -0.0606667 0
M  V30 3224 C 304.937 1.57193 0.74607 0
M  V30 3225 O 306.113 1.89591 0.679493 0
M  V30 3226 C 303.178 3.36081 0.851491 0
M  V30 3227 C 302.239 4.29286 0.0349339 0
M  V30 3228 C 301.472 5.25994 0.903649 0
M  V30 3229 O 301.695 5.28616 2.14292 0
M  V30 3230 O 300.629 6.00918 0.343723 0
M  V30 3231 H 304.455 2.91968 -0.835972 0
M  V30 3232 H 302.04 1.41681 -0.47402 0
M  V30 3233 H 303.922 3.98369 1.37404 0
M  V30 3234 H 302.597 2.81052 1.60598 0
M  V30 3235 H 301.504 3.70289 -0.532633 0
M  V30 3236 H 302.837 4.87462 -0.681287 0
M  V30 3237 N 304.489 0.459591 1.5075 0
M  V30 3238 C 305.399 -0.34613 2.32033 0
M  V30 3239 C 306.415 -1.00686 1.41909 0
M  V30 3240 O 307.591 -0.997361 1.7497 0
M  V30 3241 C 304.656 -1.42029 3.16273 0
M  V30 3242 C 303.717 -0.777362 4.22203 0
M  V30 3243 C 302.95 -1.80034 5.02418 0
M  V30 3244 O 303.173 -3.02544 4.83553 0
M  V30 3245 O 302.107 -1.37853 5.85901 0
M  V30 3246 H 305.933 0.318054 3.0203 0
M  V30 3247 H 303.518 0.221663 1.47746 0
M  V30 3248 H 305.4 -2.04275 3.68578 0
M  V30 3249 H 304.075 -2.06815 2.49016 0
M  V30 3250 H 302.982 -0.116256 3.73919 0
M  V30 3251 H 304.315 -0.172634 4.91897 0
M  V30 3252 N 305.967 -1.56429 0.191757 0
M  V30 3253 C 307.383 -1.58754 -0.164137 0
M  V30 3254 C 307.583 -1.20782 -1.61288 0
M  V30 3255 O 306.639 -0.928999 -2.34789 0
M  V30 3256 C 307.952 -3.00396 0.135195 0
M  V30 3257 C 309.5 -3.1291 0.0750351 0
M  V30 3258 C 309.975 -4.56679 0.347632 0
M  V30 3259 N 311.466 -4.62252 0.296131 0
M  V30 3260 C 312.201 -5.71379 0.480948 0
M  V30 3261 N 311.697 -6.88986 0.725933 0
M  V30 3262 N 313.49 -5.60563 0.415435 0
M  V30 3263 H 305.641 -1.79393 1.13718 0
M  V30 3264 H 307.904 -0.832414 0.453643 0
M  V30 3265 H 307.61 -3.32726 1.13958 0
M  V30 3266 H 307.484 -3.72963 -0.563773 0
M  V30 3267 H 309.871 -2.80394 -0.919948 0
M  V30 3268 H 309.952 -2.42736 0.807029 0
M  V30 3269 H 309.596 -4.89907 1.33992 0
M  V30 3270 H 309.526 -5.25039 -0.405212 0
M  V30 3271 H 312.017 -3.7773 0.113259 0
M  V30 3272 H 312.33 -7.68046 0.855857 0
M  V30 3273 H 310.675 -6.90801 0.762788 0
M  V30 3274 H 313.866 -4.67561 0.224486 0
M  V30 3275 H 314.039 -6.45551 0.562889 0
M  V30 3276 N 307.445 0.0818655 -1.57387 0
M  V30 3277 C 308.675 0.794954 -1.90694 0
M  V30 3278 C 309.083 1.72147 -0.784982 0
M  V30 3279 O 308.426 1.81974 0.251196 0
M  V30 3280 C 308.488 1.65042 -3.19376 0
M  V30 3281 C 308.152 0.894337 -4.48164 0
M  V30 3282 C 309.149 0.21813 -5.19442 0
M  V30 3283 C 306.834 0.864495 -4.94805 0
M  V30 3284 C 308.828 -0.477802 -6.35607 0
M  V30 3285 C 306.515 0.164785 -6.10878 0
M  V30 3286 C 307.513 -0.505173 -6.81129 0
M  V30 3287 O 307.201 -1.19363 -7.94989 0
M  V30 3288 H 306.933 0.231779 -0.635023 0
M  V30 3289 H 309.487 0.059493 -2.05314 0
M  V30 3290 H 307.717 2.42844 -3.00938 0
M  V30 3291 H 309.406 2.24127 -3.38411 0
M  V30 3292 H 310.172 0.232558 -4.84442 0
M  V30 3293 H 306.051 1.37542 -4.40004 0
M  V30 3294 H 309.595 -1.00129 -6.90377 0
M  V30 3295 H 305.492 0.148249 -6.4533 0
M  V30 3296 H 306.26 -1.10188 -8.11049 0
M  V30 3297 N 308.923 1.53595 0.353017 0
M  V30 3298 C 309.833 1.83897 1.45667 0
M  V30 3299 C 310.849 0.728334 1.58023 0
M  V30 3300 O 312.025 1.01968 1.73679 0
M  V30 3301 C 309.09 2.03383 2.80778 0
M  V30 3302 C 308.151 3.27262 2.77845 0
M  V30 3303 C 307.384 3.45809 4.06512 0
M  V30 3304 O 307.607 2.68387 5.03314 0
M  V30 3305 O 306.541 4.39207 4.11559 0
M  V30 3306 H 310.367 2.77686 1.2298 0
M  V30 3307 H 307.952 1.39132 0.544308 0
M  V30 3308 H 309.834 2.17698 3.60812 0
M  V30 3309 H 308.509 1.12783 3.03417 0
M  V30 3310 H 307.416 3.18359 1.96465 0
M  V30 3311 H 308.749 4.17824 2.60161 0
M  V30 3312 N 310.401 -0.613514 1.45168 0
M  V30 3313 C 311.817 -0.933629 1.29443 0
M  V30 3314 C 312.017 -2.00028 0.243101 0
M  V30 3315 O 311.073 -2.49848 -0.364992 0
M  V30 3316 C 312.386 -1.38018 2.67155 0
M  V30 3317 C 313.934 -1.49471 2.75004 0
M  V30 3318 C 314.409 -1.97503 4.13227 0
M  V30 3319 N 315.9 -2.04746 4.15491 0
M  V30 3320 C 316.635 -2.43121 5.19307 0
M  V30 3321 N 316.131 -2.80506 6.33473 0
M  V30 3322 N 317.924 -2.43408 5.06664 0
M  V30 3323 H 310.075 0.0916097 2.12202 0
M  V30 3324 H 312.338 -0.0216655 0.947752 0
M  V30 3325 H 312.044 -0.670625 3.45247 0
M  V30 3326 H 311.918 -2.34784 2.95222 0
M  V30 3327 H 314.305 -2.19519 1.9722 0
M  V30 3328 H 314.386 -0.510342 2.50657 0
M  V30 3329 H 314.03 -1.28045 4.91495 0
M  V30 3330 H 313.96 -2.96843 4.34962 0
M  V30 3331 H 316.451 -1.78468 3.33103 0
M  V30 3332 H 316.764 -3.08652 7.08487 0
M  V30 3333 H 315.109 -2.78216 6.36884 0
M  V30 3334 H 318.3 -2.13604 4.16523 0
M  V30 3335 H 318.473 -2.72989 5.87691 0
M  V30 3336 N 311.879 -1.3236 -0.855495 0
M  V30 3337 C 313.128 -1.22226 -1.60448 0
M  V30 3338 C 313.441 0.214733 -1.94418 0
M  V30 3339 O 314.647 0.437917 -2.67945 0
M  V30 3340 C 313.103 -2.14063 -2.89318 0
M  V30 3341 C 312.711 -3.62839 -2.62777 0
M  V30 3342 C 314.455 -2.12764 -3.67331 0
M  V30 3343 C 312.362 -4.4664 -3.87643 0
M  V30 3344 H 311.292 -0.453904 -0.602069 0
M  V30 3345 H 313.943 -1.57314 -0.944698 0
M  V30 3346 H 312.325 -1.71889 -3.5675 0
M  V30 3347 H 313.499 -4.1335 -2.03662 0
M  V30 3348 H 311.814 -3.66261 -1.98096 0
M  V30 3349 H 314.411 -2.72611 -4.59987 0
M  V30 3350 H 314.754 -1.11841 -4.00995 0
M  V30 3351 H 315.287 -2.53214 -3.06802 0
M  V30 3352 H 312.026 -5.48373 -3.5912 0
M  V30 3353 H 311.546 -4.0088 -4.46156 0
M  V30 3354 H 313.225 -4.59597 -4.55389 0
M  V30 3355 N 313.357 1.07166 -1.15556 0
M  V30 3356 C 314.267 2.17947 -0.868116 0
M  V30 3357 C 315.283 1.73297 0.156297 0
M  V30 3358 O 316.459 2.01392 -0.0182327 0
M  V30 3359 C 313.524 3.44789 -0.36355 0
M  V30 3360 C 312.585 4.03996 -1.45209 0
M  V30 3361 C 311.818 5.24783 -0.971508 0
M  V30 3362 O 312.041 5.70109 0.182194 0
M  V30 3363 O 310.975 5.75715 -1.75603 0
M  V30 3364 H 314.801 2.4503 -1.79427 0
M  V30 3365 H 312.386 1.16539 -0.934824 0
M  V30 3366 H 314.268 4.21307 -0.0887113 0
M  V30 3367 H 312.943 3.19253 0.534708 0
M  V30 3368 H 311.85 3.29009 -1.78056 0
M  V30 3369 H 313.183 4.33808 -2.32533 0
M  V30 3370 N 314.835 0.952656 1.25548 0
M  V30 3371 C 316.084 0.602053 1.92505 0
M  V30 3372 C 316.397 -0.864663 1.75451 0
M  V30 3373 O 317.603 -1.32514 2.36965 0
M  V30 3374 C 316.059 1.02607 3.44963 0
M  V30 3375 C 315.667 2.51519 3.70732 0
M  V30 3376 C 317.411 0.747905 4.1786 0
M  V30 3377 C 315.318 2.87732 5.16686 0
M  V30 3378 H 314.248 0.22146 0.720744 0
M  V30 3379 H 316.899 1.15684 1.42441 0
M  V30 3380 H 315.281 0.399712 3.93978 0
M  V30 3381 H 316.455 3.19157 3.32378 0
M  V30 3382 H 314.77 2.76786 3.11092 0
M  V30 3383 H 317.367 0.994647 5.25367 0
M  V30 3384 H 317.71 -0.315629 4.15102 0
M  V30 3385 H 318.243 1.33452 3.74747 0
M  V30 3386 H 314.982 3.93095 5.24554 0
M  V30 3387 H 314.502 2.24765 5.56094 0
M  V30 3388 H 316.181 2.76817 5.84792 0
M  V30 3389 N 316.313 -1.40141 0.720998 0
M  V30 3390 C 317.724 -1.83678 0.334553 0
M  V30 3391 C 318.075 -1.6027 -1.13173 0
M  V30 3392 O 317.2 -1.08643 -1.87152 0
M  V30 3393 C 317.795 -3.33437 0.600437 0
M  V30 3394 C 316.354 -3.75447 0.267642 0
M  V30 3395 C 315.501 -2.63296 0.870097 0
M  V30 3396 H 318.452 -1.29331 0.919732 0
M  V30 3397 H 318.473 -3.80269 -0.132517 0
M  V30 3398 H 317.985 -3.50442 1.66768 0
M  V30 3399 H 316.086 -3.64035 -0.794329 0
M  V30 3400 H 316.199 -4.73344 0.74042 0
M  V30 3401 H 314.563 -2.52954 0.297739 0
M  V30 3402 H 315.346 -2.83112 1.94172 0
M  V30 3403 N 317.792 -0.46758 -1.50504 0
M  V30 3404 C 319.041 0.0902868 -2.01498 0
M  V30 3405 C 319.354 1.411 -1.35463 0
M  V30 3406 O 320.56 2.0536 -1.77594 0
M  V30 3407 C 319.016 0.21142 -3.59278 0
M  V30 3408 C 318.624 -1.10065 -4.34269 0
M  V30 3409 C 320.368 0.721433 -4.18325 0
M  V30 3410 C 318.275 -0.943505 -5.83825 0
M  V30 3411 H 317.205 0.037517 -0.753066 0
M  V30 3412 H 319.856 -0.601943 -1.73346 0
M  V30 3413 H 318.238 0.967352 -3.84003 0
M  V30 3414 H 319.412 -1.86726 -4.21272 0
M  V30 3415 H 317.727 -1.5415 -3.86816 0
M  V30 3416 H 320.324 0.85598 -5.27804 0
M  V30 3417 H 320.667 1.71186 -3.79475 0
M  V30 3418 H 321.2 0.0229843 -3.97793 0
M  V30 3419 H 317.939 -1.90719 -6.27141 0
M  V30 3420 H 317.459 -0.217213 -5.99407 0
M  V30 3421 H 319.138 -0.608715 -6.4413 0
M  V30 3422 N 319.27 1.56325 -0.20005 0
M  V30 3423 C 320.22 2.15939 0.731743 0
M  V30 3424 C 321.204 1.10154 1.17281 0
M  V30 3425 O 322.396 1.36203 1.13038 0
M  V30 3426 C 319.525 2.82614 1.94895 0
M  V30 3427 C 318.611 3.95596 1.52855 0
M  V30 3428 N 319.002 4.99118 0.819418 0
M  V30 3429 C 317.3 4.07288 1.81748 0
M  V30 3430 C 318.001 5.78513 0.608053 0
M  V30 3431 N 316.977 5.31117 1.15828 0
M  V30 3432 H 320.779 2.9334 0.181285 0
M  V30 3433 H 318.293 1.624 -0.000452172 0
M  V30 3434 H 320.29 3.23718 2.62702 0
M  V30 3435 H 318.95 2.06702 2.50408 0
M  V30 3436 H 319.961 5.15723 0.47436 0
M  V30 3437 H 316.638 3.42509 2.38734 0
M  V30 3438 H 318.028 6.71885 0.0451619 0
M  V30 3439 N 320.748 -0.0735177 1.57428 0
M  V30 3440 C 321.997 -0.771809 1.86349 0
M  V30 3441 C 322.31 -1.78828 0.792452 0
M  V30 3442 O 323.516 -2.53602 0.96945 0
M  V30 3443 C 321.972 -1.42358 3.30548 0
M  V30 3444 C 321.58 -0.445761 4.45777 0
M  V30 3445 C 323.324 -2.10434 3.6867 0
M  V30 3446 C 321.231 -1.10335 5.81016 0
M  V30 3447 H 320.161 -0.291999 0.695164 0
M  V30 3448 H 322.812 -0.0250749 1.83483 0
M  V30 3449 H 321.194 -2.21852 3.28021 0
M  V30 3450 H 322.368 0.319239 4.59693 0
M  V30 3451 H 320.683 0.130457 4.16196 0
M  V30 3452 H 323.28 -2.60405 4.67004 0
M  V30 3453 H 323.623 -2.90298 2.98383 0
M  V30 3454 H 324.156 -1.37773 3.7318 0
M  V30 3455 H 320.895 -0.345061 6.54591 0
M  V30 3456 H 320.415 -1.83925 5.70904 0
M  V30 3457 H 322.094 -1.62367 6.26295 0
M  V30 3458 N 322.226 -1.5378 -0.344866 0
M  V30 3459 C 323.472 -1.71216 -1.08687 0
M  V30 3460 C 323.805 -0.473281 -1.88345 0
M  V30 3461 O 323.08 0.52968 -1.87149 0
M  V30 3462 C 323.363 -2.97486 -2.02914 0
M  V30 3463 C 323.216 -4.31579 -1.26727 0
M  V30 3464 C 324.535 -3.19422 -3.0275 0
M  V30 3465 H 321.654 -0.62301 -0.393735 0
M  V30 3466 H 324.296 -1.8645 -0.365563 0
M  V30 3467 H 322.446 -2.84629 -2.64421 0
M  V30 3468 H 324.118 -4.56284 -0.67845 0
M  V30 3469 H 322.361 -4.30049 -0.569273 0
M  V30 3470 H 323.032 -5.16106 -1.95803 0
M  V30 3471 H 325.508 -3.316 -2.51357 0
M  V30 3472 H 324.384 -4.09169 -3.65885 0
M  V30 3473 H 324.645 -2.35656 -3.74057 0
M  V30 3474 N 323.704 0.605807 -1.45491 0
M  V30 3475 C 325.115 1.18777 -1.44045 0
M  V30 3476 C 325.466 1.95471 -0.169001 0
M  V30 3477 O 324.591 2.0374 0.729324 0
M  V30 3478 C 325.186 2.16064 -2.60963 0
M  V30 3479 C 323.745 2.69633 -2.62631 0
M  V30 3480 C 322.892 1.45072 -2.36325 0
M  V30 3481 H 325.843 0.395017 -1.53705 0
M  V30 3482 H 325.864 2.9913 -2.35163 0
M  V30 3483 H 325.376 1.60217 -3.53486 0
M  V30 3484 H 323.477 3.29414 -1.74119 0
M  V30 3485 H 323.59 3.13944 -3.61906 0
M  V30 3486 H 321.954 1.74089 -1.85917 0
M  V30 3487 H 322.737 0.910899 -3.30995 0
M  V30 3488 N 325.182 1.32811 0.848464 0
M  V30 3489 C 326.132 1.18842 1.94578 0
M  V30 3490 C 327.116 0.0937517 1.60627 0
M  V30 3491 O 328.308 0.320887 1.74067 0
M  V30 3492 C 325.437 0.91999 3.30743 0
M  V30 3493 C 324.523 2.05665 3.70894 0
M  V30 3494 N 324.914 3.30579 3.8282 0
M  V30 3495 C 323.212 1.9612 4.00566 0
M  V30 3496 C 323.913 4.05067 4.17487 0
M  V30 3497 N 322.889 3.33419 4.2934 0
M  V30 3498 H 326.691 2.13536 2.0194 0
M  V30 3499 H 324.205 1.2468 1.0406 0
M  V30 3500 H 326.202 0.800859 4.09136 0
M  V30 3501 H 324.862 -0.0185076 3.24695 0
M  V30 3502 H 325.873 3.65441 3.66978 0
M  V30 3503 H 322.55 1.09871 4.02784 0
M  V30 3504 H 323.94 5.12815 4.34131 0
M  V30 3505 N 326.66 -1.06551 1.16123 0
M  V30 3506 C 327.906 -1.79567 0.94252 0
M  V30 3507 C 328.239 -1.86869 -0.528547 0
M  V30 3508 O 327.514 -1.35838 -1.39206 0
M  V30 3509 C 327.797 -3.24195 1.56747 0
M  V30 3510 C 327.65 -3.24989 3.10969 0
M  V30 3511 C 328.969 -4.21678 1.25998 0
M  V30 3512 H 326.088 -0.651883 0.343828 0
M  V30 3513 H 328.73 -1.2463 1.43413 0
M  V30 3514 H 326.88 -3.71107 1.14942 0
M  V30 3515 H 328.552 -2.86258 3.61737 0
M  V30 3516 H 326.795 -2.63716 3.44436 0
M  V30 3517 H 327.466 -4.27005 3.49815 0
M  V30 3518 H 329.942 -3.83196 1.62174 0
M  V30 3519 H 328.818 -5.21146 1.7233 0
M  V30 3520 H 329.079 -4.4174 0.178367 0
M  V30 3521 N 328.138 -0.959301 -1.25041 0
M  V30 3522 C 329.366 -0.633949 -1.96948 0
M  V30 3523 C 329.781 0.794916 -1.7125 0
M  V30 3524 O 329.138 1.53231 -0.991287 0
M  V30 3525 C 329.189 -0.888805 -3.50403 0
M  V30 3526 O 328.91 -2.26149 -3.75218 0
M  V30 3527 C 330.411 -0.576482 -4.39536 0
M  V30 3528 H 327.631 -0.237263 -0.627652 0
M  V30 3529 H 330.175 -1.28495 -1.59089 0
M  V30 3530 H 328.33 -0.284145 -3.86357 0
M  V30 3531 H 328.744 -2.33514 -4.6965 0
M  V30 3532 H 330.218 -0.805314 -5.46094 0
M  V30 3533 H 330.695 0.489075 -4.36468 0
M  V30 3534 H 331.301 -1.16067 -4.09156 0
M  V30 3535 N 329.616 1.39756 -0.72842 0
M  V30 3536 C 330.865 1.99879 -0.270407 0
M  V30 3537 C 331.178 1.58449 1.14688 0
M  V30 3538 O 332.384 2.11362 1.70407 0
M  V30 3539 C 330.84 3.57292 -0.43252 0
M  V30 3540 C 330.448 4.07688 -1.85727 0
M  V30 3541 C 332.192 4.24485 -0.0359507 0
M  V30 3542 C 330.099 5.5765 -1.96928 0
M  V30 3543 H 329.029 0.747689 -0.0973472 0
M  V30 3544 H 331.68 1.59837 -0.901355 0
M  V30 3545 H 330.062 3.95097 0.267219 0
M  V30 3546 H 331.236 3.81231 -2.58843 0
M  V30 3547 H 329.551 3.53135 -2.20646 0
M  V30 3548 H 332.148 5.34609 -0.0987484 0
M  V30 3549 H 332.491 4.03915 1.00787 0
M  V30 3550 H 333.024 3.9183 -0.686604 0
M  V30 3551 H 329.763 5.8309 -2.99476 0
M  V30 3552 H 329.283 5.8593 -1.28241 0
M  V30 3553 H 330.962 6.22957 -1.74737 0
M  V30 3554 N 331.094 0.475555 1.50254 0
M  V30 3555 C 332.342 -0.077738 2.0195 0
M  V30 3556 C 332.663 -1.39813 1.35931 0
M  V30 3557 O 331.933 -1.89249 0.506123 0
M  V30 3558 H 330.513 -0.031719 0.746326 0
M  V30 3559 H 333.175 0.626995 1.84539 0
M  V30 3560 H 332.271 -0.225995 3.11281 0
M  V30 3561 N 332.573 -1.56217 0.208337 0
M  V30 3562 C 333.52 -2.19699 -0.707192 0
M  V30 3563 C 334.49 -1.14836 -1.20008 0
M  V30 3564 O 335.675 -1.4314 -1.26157 0
M  V30 3565 C 332.815 -2.87061 -1.91546 0
M  V30 3566 C 331.928 -4.06483 -1.46271 0
M  V30 3567 C 331.063 -4.61665 -2.62752 0
M  V30 3568 C 330.102 -5.73417 -2.14147 0
M  V30 3569 N 329.239 -6.22948 -3.23853 0
M  V30 3570 H 334.079 -2.97575 -0.159111 0
M  V30 3571 H 331.616 -1.46948 -0.0667874 0
M  V30 3572 H 333.574 -3.24294 -2.62468 0
M  V30 3573 H 332.204 -2.11725 -2.43664 0
M  V30 3574 H 331.256 -3.74825 -0.648886 0
M  V30 3575 H 332.568 -4.87271 -1.06622 0
M  V30 3576 H 331.722 -5.01272 -3.41776 0
M  V30 3577 H 330.461 -3.80013 -3.05682 0
M  V30 3578 H 329.466 -5.33326 -1.33581 0
M  V30 3579 H 330.691 -6.56897 -1.72232 0
M  V30 3580 H 328.637 -5.44213 -3.6629 0
M  V30 3581 H 328.554 -6.98823 -2.88414 0
M  V30 3582 H 329.822 -6.6721 -4.03052 0
M  V30 3583 N 334.051 0.0651679 -1.57465 0
M  V30 3584 C 335.297 0.764193 -1.87851 0
M  V30 3585 C 335.63 1.76889 -0.801495 0
M  V30 3586 O 334.905 1.93594 0.187528 0
M  V30 3587 C 335.188 1.46625 -3.28897 0
M  V30 3588 C 335.041 0.477515 -4.47258 0
M  V30 3589 C 336.36 2.4095 -3.68281 0
M  V30 3590 H 333.479 0.276351 -0.683227 0
M  V30 3591 H 336.121 0.0272868 -1.8998 0
M  V30 3592 H 334.271 2.09438 -3.27212 0
M  V30 3593 H 335.943 -0.145922 -4.61069 0
M  V30 3594 H 334.186 -0.206576 -4.33308 0
M  V30 3595 H 334.857 1.0065 -5.42746 0
M  V30 3596 H 337.333 1.88209 -3.71102 0
M  V30 3597 H 336.209 2.87072 -4.67847 0
M  V30 3598 H 336.47 3.26049 -2.98571 0
M  V30 3599 N 335.529 1.53961 0.336706 0
M  V30 3600 C 336.769 1.73254 1.08454 0
M  V30 3601 C 337.133 0.488937 1.8567 0
M  V30 3602 O 338.334 0.559001 2.62923 0
M  V30 3603 C 336.605 2.96519 1.99528 0
M  V30 3604 S 338.164 3.36655 2.81441 0
M  V30 3605 H 334.982 0.609353 0.366347 0
M  V30 3606 H 337.584 1.92117 0.362124 0
M  V30 3607 H 336.288 3.85193 1.41614 0
M  V30 3608 H 335.819 2.80142 2.76196 0
M  V30 3609 H 337.834 2.90925 4.01967 0
M  V30 3610 N 337.007 -0.598083 1.45811 0
M  V30 3611 C 337.937 -1.71873 1.58057 0
M  V30 3612 C 338.918 -1.64533 0.431615 0
M  V30 3613 O 340.103 -1.82787 0.65595 0
M  V30 3614 C 337.233 -3.10495 1.55597 0
M  V30 3615 C 336.187 -3.32654 2.69305 0
M  V30 3616 C 335.513 -4.71646 2.51902 0
M  V30 3617 C 336.813 -3.21981 4.11248 0
M  V30 3618 H 338.507 -1.61881 2.51863 0
M  V30 3619 H 336.053 -0.777372 1.21214 0
M  V30 3620 H 338.006 -3.88699 1.6276 0
M  V30 3621 H 336.73 -3.2135 0.583255 0
M  V30 3622 H 335.389 -2.56843 2.61586 0
M  V30 3623 H 335.037 -4.79246 1.52748 0
M  V30 3624 H 334.737 -4.87426 3.2816 0
M  V30 3625 H 336.261 -5.52038 2.60933 0
M  V30 3626 H 337.675 -3.90049 4.20161 0
M  V30 3627 H 336.072 -3.49289 4.87972 0
M  V30 3628 H 337.142 -2.1928 4.32486 0
M  V30 3629 N 338.485 -1.33259 -0.841409 0
M  V30 3630 C 339.395 -1.25332 -1.98316 0
M  V30 3631 C 340.411 -0.164364 -1.73222 0
M  V30 3632 O 341.587 -0.387486 -1.97637 0
M  V30 3633 C 338.652 -0.990078 -3.32262 0
M  V30 3634 C 337.713 -2.16879 -3.70489 0
M  V30 3635 C 336.946 -1.91801 -4.98044 0
M  V30 3636 O 337.169 -0.867075 -5.63771 0
M  V30 3637 O 336.103 -2.78267 -5.33714 0
M  V30 3638 H 339.929 -2.21344 -2.07944 0
M  V30 3639 H 337.514 -1.1328 -0.974058 0
M  V30 3640 H 339.396 -0.860321 -4.12524 0
M  V30 3641 H 338.071 -0.0602155 -3.23644 0
M  V30 3642 H 336.978 -2.35407 -2.90748 0
M  V30 3643 H 338.311 -3.0819 -3.8377 0
M  V30 3644 N 339.963 1.05934 -1.16686 0
M  V30 3645 C 341.188 1.83029 -0.975455 0
M  V30 3646 C 341.613 1.82096 0.471452 0
M  V30 3647 O 340.971 1.22443 1.33706 0
M  V30 3648 C 341.019 3.27372 -1.51195 0
M  V30 3649 O 340.123 4.06054 -0.720701 0
M  V30 3650 H 339.464 0.566194 -0.346872 0
M  V30 3651 H 341.994 1.33541 -1.55009 0
M  V30 3652 H 342.004 3.78186 -1.53099 0
M  V30 3653 H 340.679 3.27366 -2.56523 0
M  V30 3654 H 339.256 3.64812 -0.772458 0
M  V30 3655 N 341.441 0.965919 1.2453 0
M  V30 3656 C 342.404 0.499547 2.2369 0
M  V30 3657 C 343.404 -0.40294 1.5567 0
M  V30 3658 O 344.594 -0.19865 1.73064 0
M  V30 3659 C 341.726 -0.276792 3.39774 0
M  V30 3660 H 342.919 1.37613 2.66463 0
M  V30 3661 H 340.472 0.750324 1.37112 0
M  V30 3662 H 341.207 -1.17055 3.02438 0
M  V30 3663 H 340.992 0.370826 3.90343 0
M  V30 3664 H 342.482 -0.592175 4.1338 0
M  V30 3665 N 342.919 -1.39368 0.735821 0
M  V30 3666 C 344.165 -2.00794 0.284544 0
M  V30 3667 C 344.498 -1.58255 -1.12557 0
M  V30 3668 O 343.773 -0.811819 -1.76748 0
M  V30 3669 C 344.056 -3.58011 0.387337 0
M  V30 3670 C 343.909 -4.10566 1.83728 0
M  V30 3671 C 345.228 -4.395 -0.22975 0
M  V30 3672 H 342.347 -0.729501 0.104866 0
M  V30 3673 H 344.989 -1.65564 0.93213 0
M  V30 3674 H 343.139 -3.88154 -0.164006 0
M  V30 3675 H 344.811 -3.91139 2.44556 0
M  V30 3676 H 343.054 -3.64095 2.35833 0
M  V30 3677 H 343.725 -5.19702 1.86047 0
M  V30 3678 H 346.201 -4.15406 0.240257 0
M  V30 3679 H 345.077 -5.48752 -0.127485 0
M  V30 3680 H 345.338 -4.22062 -1.3159 0
M  V30 3681 N 344.397 -0.483516 -1.5 0
M  V30 3682 C 345.307 0.309172 -2.32554 0
M  V30 3683 C 346.323 0.984159 -1.43493 0
M  V30 3684 O 347.499 0.969399 -1.76535 0
M  V30 3685 C 344.564 1.36979 -3.18493 0
M  V30 3686 C 343.625 0.710095 -4.23387 0
M  V30 3687 C 342.858 1.72018 -5.05218 0
M  V30 3688 O 343.081 2.94813 -4.88305 0
M  V30 3689 O 342.015 1.28515 -5.8802 0
M  V30 3690 H 345.841 -0.366064 -3.01486 0
M  V30 3691 H 343.426 -0.24514 -1.47375 0
M  V30 3692 H 345.308 1.98385 -3.71781 0
M  V30 3693 H 343.983 2.02828 -2.52275 0
M  V30 3694 H 342.89 0.0567539 -3.74057 0
M  V30 3695 H 344.223 0.0943557 -4.9211 0
M  V30 3696 N 345.875 1.56104 -0.216619 0
M  V30 3697 C 346.805 2.23063 0.690296 0
M  V30 3698 C 347.786 1.20072 1.20485 0
M  V30 3699 O 348.971 1.48643 1.24976 0
M  V30 3700 C 346.101 2.90672 1.90072 0
M  V30 3701 C 345.055 4.00092 1.5202 0
M  V30 3702 C 344.381 4.54972 2.80899 0
M  V30 3703 C 345.681 5.17398 0.71391 0
M  V30 3704 H 347.375 2.99109 0.132038 0
M  V30 3705 H 344.921 1.43866 0.0620664 0
M  V30 3706 H 346.874 3.36204 2.54057 0
M  V30 3707 H 345.598 2.12066 2.48386 0
M  V30 3708 H 344.257 3.55283 0.903839 0
M  V30 3709 H 343.905 3.73102 3.37348 0
M  V30 3710 H 343.605 5.28817 2.56176 0
M  V30 3711 H 345.129 5.0322 3.45836 0
M  V30 3712 H 346.543 5.59342 1.25735 0
M  V30 3713 H 344.94 5.97444 0.563951 0
M  V30 3714 H 346.01 4.84088 -0.280527 0
M  V30 3715 N 347.353 -0.0568162 1.57498 0
M  V30 3716 C 348.764 -0.606858 1.76562 0
M  V30 3717 C 349.115 -1.77114 0.844094 0
M  V30 3718 O 348.24 -2.16376 0.0318911 0
M  V30 3719 C 348.835 -1.10766 3.20182 0
M  V30 3720 C 347.394 -1.60344 3.40539 0
M  V30 3721 C 346.541 -0.529311 2.72201 0
M  V30 3722 H 349.492 0.169393 1.57793 0
M  V30 3723 H 349.513 -1.97602 3.25167 0
M  V30 3724 H 349.025 -0.26006 3.87228 0
M  V30 3725 H 347.126 -2.47379 2.78629 0
M  V30 3726 H 347.239 -1.67006 4.4905 0
M  V30 3727 H 345.603 -0.977893 2.35179 0
M  V30 3728 H 346.386 0.308352 3.41912 0
M  V30 3729 N 348.832 -1.54138 -0.328536 0
M  V30 3730 C 349.779 -1.83176 -1.40411 0
M  V30 3731 C 350.749 -0.678494 -1.5161 0
M  V30 3732 O 351.934 -0.92443 -1.6691 0
M  V30 3733 C 349.074 -2.06035 -2.76846 0
M  V30 3734 C 348.187 -3.33727 -2.74318 0
M  V30 3735 C 347.322 -3.46574 -4.02567 0
M  V30 3736 C 346.361 -4.68159 -3.94327 0
M  V30 3737 N 345.498 -4.77959 -5.14296 0
M  V30 3738 H 350.338 -2.74938 -1.14948 0
M  V30 3739 H 347.875 -1.36166 -0.556538 0
M  V30 3740 H 349.833 -2.1728 -3.56153 0
M  V30 3741 H 348.463 -1.1757 -3.00628 0
M  V30 3742 H 347.515 -3.31246 -1.8703 0
M  V30 3743 H 348.827 -4.23139 -2.64111 0
M  V30 3744 H 347.981 -3.57333 -4.90304 0
M  V30 3745 H 346.72 -2.55245 -4.15574 0
M  V30 3746 H 345.725 -4.57461 -3.04974 0
M  V30 3747 H 346.95 -5.60868 -3.82889 0
M  V30 3748 H 344.896 -3.89544 -5.27818 0
M  V30 3749 H 344.813 -5.6133 -5.06404 0
M  V30 3750 H 346.081 -4.93044 -6.03761 0
M  V30 3751 N 350.31 0.590341 -1.46126 0
M  V30 3752 C 351.559 1.34499 -1.50309 0
M  V30 3753 C 351.872 1.94977 -0.156021 0
M  V30 3754 O 353.078 2.71395 -0.0756037 0
M  V30 3755 C 351.534 2.43723 -2.64815 0
M  V30 3756 C 351.142 1.89582 -4.0591 0
M  V30 3757 C 352.886 3.20579 -2.78262 0
M  V30 3758 C 350.793 2.9639 -5.11769 0
M  V30 3759 H 349.723 0.505593 -0.559368 0
M  V30 3760 H 352.374 0.630848 -1.72315 0
M  V30 3761 H 350.756 3.17902 -2.36124 0
M  V30 3762 H 351.93 1.21997 -4.44357 0
M  V30 3763 H 350.245 1.25418 -3.97063 0
M  V30 3764 H 352.842 4.00276 -3.54519 0
M  V30 3765 H 353.185 3.72684 -1.85505 0
M  V30 3766 H 353.718 2.53505 -3.06562 0
M  V30 3767 H 350.457 2.49181 -6.06291 0
M  V30 3768 H 349.977 3.62487 -4.77873 0
M  V30 3769 H 351.656 3.60474 -5.37278 0
M  V30 3770 N 351.788 1.33704 0.83433 0
M  V30 3771 C 352.718 1.26967 1.95963 0
M  V30 3772 C 353.699 0.149337 1.69443 0
M  V30 3773 O 354.884 0.339852 1.91203 0
M  V30 3774 C 352.014 1.01275 3.32206 0
M  V30 3775 C 350.968 2.09652 3.73136 0
M  V30 3776 C 350.294 1.69166 5.07235 0
M  V30 3777 C 351.594 3.51372 3.86439 0
M  V30 3778 H 353.288 2.2112 2.01857 0
M  V30 3779 H 350.834 1.06447 0.969793 0
M  V30 3780 H 352.787 0.952106 4.10503 0
M  V30 3781 H 351.511 0.0356203 3.26581 0
M  V30 3782 H 350.17 2.14766 2.97104 0
M  V30 3783 H 349.818 0.701437 4.98085 0
M  V30 3784 H 349.518 2.41694 5.35591 0
M  V30 3785 H 351.042 1.64576 5.88003 0
M  V30 3786 H 352.456 3.48734 4.55036 0
M  V30 3787 H 350.853 4.22425 4.26236 0
M  V30 3788 H 351.923 3.89546 2.88759 0
M  V30 3789 N 353.266 -1.05314 1.17247 0
M  V30 3790 C 354.506 -1.79869 0.970898 0
M  V30 3791 C 354.87 -1.85594 -0.491808 0
M  V30 3792 O 356.071 -2.56229 -0.812409 0
M  V30 3793 C 354.342 -3.19937 1.59295 0
M  V30 3794 S 355.901 -4.10986 1.53741 0
M  V30 3795 H 352.719 -0.61949 0.348931 0
M  V30 3796 H 355.321 -1.26368 1.49169 0
M  V30 3797 H 354.025 -3.13372 2.65003 0
M  V30 3798 H 353.556 -3.78515 1.07191 0
M  V30 3799 H 355.571 -4.93203 0.544537 0
M  V30 3800 N 354.744 -0.972509 -1.24016 0
M  V30 3801 C 355.676 -0.464375 -2.24446 0
M  V30 3802 C 356.689 0.4295 -1.57032 0
M  V30 3803 O 357.878 0.234902 -1.76948 0
M  V30 3804 C 354.978 0.348385 -3.37105 0
M  V30 3805 C 354.151 -0.53673 -4.34094 0
M  V30 3806 C 353.21 0.220838 -5.25736 0
M  V30 3807 O 352.236 -0.386867 -5.67884 0
M  V30 3808 N 353.438 1.50907 -5.60542 0
M  V30 3809 H 356.203 -1.32788 -2.68677 0
M  V30 3810 H 353.764 -0.844877 -1.38107 0
M  V30 3811 H 355.756 0.863341 -3.95384 0
M  V30 3812 H 354.326 1.11285 -2.92121 0
M  V30 3813 H 353.546 -1.23261 -3.74433 0
M  V30 3814 H 354.834 -1.14022 -4.95859 0
M  V30 3815 H 354.232 2.02444 -5.28236 0
M  V30 3816 H 352.789 1.96962 -6.21329 0
M  V30 3817 N 356.222 1.38976 -0.743202 0
M  V30 3818 C 357.132 2.3434 -0.110399 0
M  V30 3819 C 358.148 1.58741 0.712559 0
M  V30 3820 O 359.324 1.9099 0.639125 0
M  V30 3821 C 356.389 3.37812 0.780012 0
M  V30 3822 C 355.45 4.29263 -0.0561319 0
M  V30 3823 C 354.683 5.27793 0.791875 0
M  V30 3824 O 354.906 5.33043 2.03031 0
M  V30 3825 O 353.84 6.01512 0.216183 0
M  V30 3826 H 357.666 2.90129 -0.897714 0
M  V30 3827 H 355.251 1.40643 -0.503966 0
M  V30 3828 H 357.133 4.01194 1.28923 0
M  V30 3829 H 355.808 2.84395 1.546 0
M  V30 3830 H 354.715 3.69076 -0.611056 0
M  V30 3831 H 356.048 4.85907 -0.784531 0
M  V30 3832 N 357.7 0.491464 1.49741 0
M  V30 3833 C 358.61 -0.296835 2.32715 0
M  V30 3834 C 359.626 -0.976536 1.44013 0
M  V30 3835 O 360.802 -0.960023 1.77047 0
M  V30 3836 C 357.867 -1.35288 3.19215 0
M  V30 3837 C 356.928 -0.687632 4.23757 0
M  V30 3838 C 356.161 -1.69336 5.06123 0
M  V30 3839 O 356.384 -2.92219 4.89861 0
M  V30 3840 O 355.318 -1.25394 5.88693 0
M  V30 3841 H 359.144 0.382048 3.01287 0
M  V30 3842 H 356.729 0.252953 1.47243 0
M  V30 3843 H 358.611 -1.96411 3.72828 0
M  V30 3844 H 357.286 -2.01487 2.53347 0
M  V30 3845 H 356.193 -0.0369159 3.74082 0
M  V30 3846 H 357.526 -0.0682566 4.92153 0
M  V30 3847 N 359.178 -1.55987 0.224894 0
M  V30 3848 C 360.11 -2.17722 -0.716224 0
M  V30 3849 C 361.123 -1.14723 -1.15509 0
M  V30 3850 O 362.312 -1.41688 -1.08567 0
M  V30 3851 C 359.412 -2.74873 -1.98238 0
M  V30 3852 C 358.585 -4.03074 -1.69853 0
M  V30 3853 C 357.644 -4.44757 -2.81208 0
M  V30 3854 O 356.67 -5.11587 -2.49534 0
M  V30 3855 N 357.872 -4.10716 -4.10235 0
M  V30 3856 H 360.637 -2.99109 -0.188123 0
M  V30 3857 H 358.198 -1.6184 0.0440123 0
M  V30 3858 H 360.19 -2.99727 -2.7193 0
M  V30 3859 H 358.76 -1.9777 -2.42086 0
M  V30 3860 H 357.98 -3.86041 -0.797875 0
M  V30 3861 H 359.268 -4.86701 -1.48324 0
M  V30 3862 H 358.666 -3.57019 -4.38809 0
M  V30 3863 H 357.223 -4.40455 -4.80461 0
M  V30 3864 N 360.656 0.0484629 -1.57525 0
M  V30 3865 C 361.933 0.777447 -1.79486 0
M  V30 3866 C 362.313 1.94597 -0.818251 0
M  V30 3867 O 361.661 2.28047 0.143767 0
M  V30 3868 C 361.871 1.22864 -3.26658 0
M  V30 3869 C 363.219 1.65251 -3.91123 0
M  V30 3870 O 364.243 1.32372 -3.3069 0
M  V30 3871 O 363.102 2.26207 -4.97486 0
M  V30 3872 H 360.196 0.374357 -0.737419 0
M  V30 3873 H 362.742 0.0267359 -1.69679 0
M  V30 3874 H 361.514 0.393589 -3.89316 0
M  V30 3875 H 361.137 2.03996 -3.41279 0
M  V30 3876 N 362.134 1.5431 0.320358 0
M  V30 3877 C 363.097 1.83195 1.3774 0
M  V30 3878 C 364.097 0.703906 1.44575 0
M  V30 3879 O 365.287 0.972214 1.44546 0
M  V30 3880 C 362.419 1.99487 2.76438 0
M  V30 3881 H 363.612 2.77642 1.1338 0
M  V30 3882 H 361.165 1.46076 0.556012 0
M  V30 3883 H 361.9 1.07262 3.06048 0
M  V30 3884 H 361.685 2.81575 2.7287 0
M  V30 3885 H 363.175 2.23271 3.52902 0
M  V30 3886 N 363.613 -0.582584 1.46437 0
M  V30 3887 C 364.843 -1.36484 1.55099 0
M  V30 3888 C 365.251 -1.88233 0.191056 0
M  V30 3889 O 364.594 -1.6429 -0.821858 0
M  V30 3890 C 364.656 -2.588 2.49525 0
M  V30 3891 C 364.32 -2.28517 3.95764 0
M  V30 3892 C 365.317 -1.87346 4.84972 0
M  V30 3893 C 363.002 -2.40658 4.40896 0
M  V30 3894 C 364.996 -1.5871 6.17325 0
M  V30 3895 C 362.683 -2.11635 5.73284 0
M  V30 3896 C 363.681 -1.70725 6.61318 0
M  V30 3897 O 363.369 -1.42057 7.91249 0
M  V30 3898 H 363.101 -0.423297 0.527063 0
M  V30 3899 H 365.655 -0.715188 1.92547 0
M  V30 3900 H 363.885 -3.26571 2.07095 0
M  V30 3901 H 365.574 -3.20868 2.48593 0
M  V30 3902 H 366.34 -1.77481 4.5136 0
M  V30 3903 H 362.219 -2.71463 3.72598 0
M  V30 3904 H 365.763 -1.26704 6.85997 0
M  V30 3905 H 361.66 -2.21124 6.06444 0
M  V30 3906 H 362.428 -1.55901 8.03515 0
M  V30 3907 N 365.091 -1.34144 -0.827227 0
M  V30 3908 C 366.507 -1.13732 -1.11969 0
M  V30 3909 C 366.707 0.0640463 -2.01398 0
M  V30 3910 O 365.763 0.740856 -2.41387 0
M  V30 3911 C 367.076 -2.43047 -1.77055 0
M  V30 3912 C 368.624 -2.49063 -1.89569 0
M  V30 3913 C 369.099 -3.78369 -2.58072 0
M  V30 3914 N 370.59 -3.79505 -2.65575 0
M  V30 3915 C 371.325 -4.76274 -3.19297 0
M  V30 3916 N 370.821 -5.83424 -3.73616 0
M  V30 3917 N 372.614 -4.63735 -3.17658 0
M  V30 3918 H 364.765 -2.11126 -0.232296 0
M  V30 3919 H 367.028 -0.933424 -0.165602 0
M  V30 3920 H 366.734 -3.31025 -1.18807 0
M  V30 3921 H 366.608 -2.56066 -2.76966 0
M  V30 3922 H 368.995 -1.61527 -2.46968 0
M  V30 3923 H 369.076 -2.39975 -0.885745 0
M  V30 3924 H 368.72 -4.66293 -2.01329 0
M  V30 3925 H 368.65 -3.84737 -3.59562 0
M  V30 3926 H 371.141 -3.02074 -2.27068 0
M  V30 3927 H 371.454 -6.53282 -4.12846 0
M  V30 3928 H 369.799 -5.87143 -3.71871 0
M  V30 3929 H 372.99 -3.79177 -2.74486 0
M  V30 3930 H 373.163 -5.39318 -3.59221 0
M  V30 3931 N 366.569 1.04691 -1.17803 0
M  V30 3932 C 367.985 1.29963 -0.926379 0
M  V30 3933 C 368.185 1.97251 0.411635 0
M  V30 3934 O 367.241 2.24922 1.14744 0
M  V30 3935 C 368.554 2.16447 -2.08737 0
M  V30 3936 C 370.102 2.29814 -2.12496 0
M  V30 3937 C 370.577 3.19661 -3.27995 0
M  V30 3938 N 372.068 3.27247 -3.27816 0
M  V30 3939 C 372.803 3.96906 -4.13827 0
M  V30 3940 N 372.299 4.6895 -5.09959 0
M  V30 3941 N 374.092 3.93122 -4.01761 0
M  V30 3942 H 366.243 0.594182 -2.0392 0
M  V30 3943 H 368.506 0.324649 -0.890678 0
M  V30 3944 H 368.212 1.74304 -3.05469 0
M  V30 3945 H 368.086 3.17103 -2.04268 0
M  V30 3946 H 370.473 2.71196 -1.16347 0
M  V30 3947 H 370.554 1.2877 -2.21025 0
M  V30 3948 H 370.198 2.78991 -4.24413 0
M  V30 3949 H 370.128 4.20722 -3.16703 0
M  V30 3950 H 372.619 2.75921 -2.58217 0
M  V30 3951 H 372.932 5.19679 -5.71974 0
M  V30 3952 H 371.277 4.67875 -5.13924 0
M  V30 3953 H 374.468 3.35967 -3.2595 0
M  V30 3954 H 374.641 4.47139 -4.6901 0
M  V30 3955 N 368.047 0.979072 1.23499 0
M  V30 3956 C 369.296 0.642751 1.91185 0
M  V30 3957 C 369.609 -0.827253 1.77245 0
M  V30 3958 O 370.815 -1.27458 2.39722 0
M  V30 3959 C 369.271 1.09901 3.42709 0
M  V30 3960 C 368.879 2.59327 3.65313 0
M  V30 3961 C 370.623 0.836371 4.16179 0
M  V30 3962 C 368.53 2.98627 5.10467 0
M  V30 3963 H 367.46 0.236698 0.715884 0
M  V30 3964 H 370.111 1.1868 1.39955 0
M  V30 3965 H 368.493 0.48319 3.93041 0
M  V30 3966 H 369.667 3.26136 3.25533 0
M  V30 3967 H 367.982 2.83323 3.05151 0
M  V30 3968 H 370.579 1.10586 5.23139 0
M  V30 3969 H 370.922 -0.227509 4.15678 0
M  V30 3970 H 371.455 1.41371 3.71832 0
M  V30 3971 H 368.194 4.04133 5.16098 0
M  V30 3972 H 367.714 2.3651 5.51201 0
M  V30 3973 H 369.393 2.89159 5.78788 0
M  V30 3974 N 369.525 -1.3858 0.750561 0
M  V30 3975 C 370.475 -2.27795 0.0965949 0
M  V30 3976 C 371.459 -1.45048 -0.696411 0
M  V30 3977 O 372.651 -1.67812 -0.562863 0
M  V30 3978 C 369.78 -3.33894 -0.798085 0
M  V30 3979 C 368.866 -4.241 0.0016067 0
M  V30 3980 N 369.257 -4.95067 1.03647 0
M  V30 3981 C 367.555 -4.45429 -0.225674 0
M  V30 3982 C 368.256 -5.61489 1.52004 0
M  V30 3983 N 367.232 -5.37135 0.835874 0
M  V30 3984 H 371.034 -2.80125 0.889228 0
M  V30 3985 H 368.548 -1.51446 0.586323 0
M  V30 3986 H 370.545 -3.96693 -1.28219 0
M  V30 3987 H 369.205 -2.83123 -1.5897 0
M  V30 3988 H 370.216 -4.98104 1.41819 0
M  V30 3989 H 366.893 -4.05571 -0.990872 0
M  V30 3990 H 368.283 -6.28264 2.38188 0
M  V30 3991 N 371.003 -0.499398 -1.49478 0
M  V30 3992 C 372.228 0.044722 -2.07352 0
M  V30 3993 C 372.653 1.30207 -1.35749 0
M  V30 3994 O 372.011 1.76516 -0.413732 0
M  V30 3995 C 372.059 0.283013 -3.59488 0
M  V30 3996 O 371.163 1.35804 -3.89398 0
M  V30 3997 H 370.504 -0.0255147 -0.66351 0
M  V30 3998 H 373.034 -0.698561 -1.92305 0
M  V30 3999 H 373.044 0.515007 -4.04737 0
M  V30 4000 H 371.719 -0.635636 -4.11014 0
M  V30 4001 H 370.296 1.11113 -3.55961 0
M  V30 4002 N 372.481 1.55866 -0.233164 0
M  V30 4003 C 373.411 2.23783 0.666599 0
M  V30 4004 C 374.392 1.21343 1.19205 0
M  V30 4005 O 375.577 1.4996 1.23392 0
M  V30 4006 C 372.707 2.92671 1.86978 0
M  V30 4007 C 371.661 4.01682 1.47768 0
M  V30 4008 C 370.987 4.57926 2.76058 0
M  V30 4009 C 372.287 5.18126 0.658993 0
M  V30 4010 H 373.981 2.99232 0.100306 0
M  V30 4011 H 371.527 1.43924 0.046804 0
M  V30 4012 H 373.48 3.3888 2.50476 0
M  V30 4013 H 372.204 2.14688 2.46123 0
M  V30 4014 H 370.863 3.56222 0.866106 0
M  V30 4015 H 370.511 3.76659 3.33372 0
M  V30 4016 H 370.211 5.31505 2.50552 0
M  V30 4017 H 371.735 5.06859 3.40479 0
M  V30 4018 H 373.149 5.60644 1.19795 0
M  V30 4019 H 371.546 5.98009 0.500552 0
M  V30 4020 H 372.616 4.83763 -0.331856 0
M  V30 4021 N 373.959 -0.0401083 1.57549 0
M  V30 4022 C 375.187 -0.745196 1.93014 0
M  V30 4023 C 375.602 -1.6948 0.831984 0
M  V30 4024 O 374.959 -1.81482 -0.192463 0
M  V30 4025 C 375.01 -1.51176 3.28372 0
M  V30 4026 O 374.731 -0.600284 4.33968 0
M  V30 4027 C 376.232 -2.315 3.78051 0
M  V30 4028 H 373.452 -0.210088 0.637263 0
M  V30 4029 H 375.996 -0.000924689 2.045 0
M  V30 4030 H 374.151 -2.20801 3.18317 0
M  V30 4031 H 374.565 -1.13669 5.12035 0
M  V30 4032 H 376.039 -2.80697 4.75303 0
M  V30 4033 H 376.516 -3.12436 3.08675 0
M  V30 4034 H 377.122 -1.66971 3.91153 0
M  V30 4035 N 375.437 -1.54477 -0.31217 0
M  V30 4036 C 376.387 -1.81037 -1.38598 0
M  V30 4037 C 377.371 -0.666941 -1.46426 0
M  V30 4038 O 378.563 -0.927269 -1.50767 0
M  V30 4039 C 375.692 -2.05127 -2.75277 0
M  V30 4040 C 374.778 -3.25624 -2.71716 0
M  V30 4041 N 375.169 -4.46428 -2.37773 0
M  V30 4042 C 373.467 -3.27427 -3.02833 0
M  V30 4043 C 374.168 -5.28406 -2.43232 0
M  V30 4044 N 373.144 -4.6586 -2.80135 0
M  V30 4045 H 376.946 -2.7201 -1.11301 0
M  V30 4046 H 374.46 -1.53826 -0.520705 0
M  V30 4047 H 376.457 -2.22299 -3.52688 0
M  V30 4048 H 375.117 -1.15416 -3.03495 0
M  V30 4049 H 376.128 -4.73227 -2.1042 0
M  V30 4050 H 372.805 -2.47786 -3.36018 0
M  V30 4051 H 374.195 -6.34903 -2.19882 0
M  V30 4052 N 376.915 0.57481 -1.46744 0
M  V30 4053 C 377.845 1.69337 -1.60771 0
M  V30 4054 C 378.826 1.63825 -0.457736 0
M  V30 4055 O 380.011 1.8172 -0.684947 0
M  V30 4056 C 377.141 3.0798 -1.60517 0
M  V30 4057 C 376.095 3.28327 -2.74564 0
M  V30 4058 C 375.421 4.67578 -2.59373 0
M  V30 4059 C 376.721 3.15398 -4.16319 0
M  V30 4060 H 378.415 1.57853 -2.54407 0
M  V30 4061 H 375.961 0.75799 -1.22436 0
M  V30 4062 H 377.914 3.86061 -1.68923 0
M  V30 4063 H 376.638 3.20381 -0.634305 0
M  V30 4064 H 375.297 2.52649 -2.65639 0
M  V30 4065 H 374.945 4.76755 -1.60353 0
M  V30 4066 H 374.645 4.82144 -3.35873 0
M  V30 4067 H 376.169 5.47817 -2.69682 0
M  V30 4068 H 377.583 3.83315 -4.26313 0
M  V30 4069 H 375.98 3.41482 -4.93468 0
M  V30 4070 H 377.05 2.12372 -4.3592 0
M  V30 4071 N 378.394 1.34581 0.820102 0
M  V30 4072 C 379.671 1.17675 1.56244 0
M  V30 4073 C 380.051 -0.249541 2.0962 0
M  V30 4074 O 379.399 -1.25125 1.91196 0
M  V30 4075 C 379.609 2.23364 2.6816 0
M  V30 4076 C 380.957 2.58485 3.36854 0
M  V30 4077 O 381.981 2.22175 2.78418 0
M  V30 4078 O 380.84 3.20868 4.42386 0
M  V30 4079 H 377.934 0.456333 0.689702 0
M  V30 4080 H 380.48 1.46222 0.861231 0
M  V30 4081 H 379.252 3.19087 2.26493 0
M  V30 4082 H 378.875 1.96009 3.45928 0
M  V30 4083 N 379.872 -1.04064 1.18357 0
M  V30 4084 C 381.097 -1.81454 1.00445 0
M  V30 4085 C 381.522 -1.82823 -0.442423 0
M  V30 4086 O 380.88 -1.24555 -1.31741 0
M  V30 4087 C 380.928 -3.24925 1.56384 0
M  V30 4088 O 380.032 -4.04856 0.785209 0
M  V30 4089 H 379.373 -0.560604 0.355835 0
M  V30 4090 H 381.903 -1.31059 1.57114 0
M  V30 4091 H 381.913 -3.75702 1.59097 0
M  V30 4092 H 380.588 -3.23244 2.61699 0
M  V30 4093 H 379.165 -3.63537 0.830399 0
M  V30 4094 N 381.35 -0.985608 -1.22978 0
M  V30 4095 C 382.596 -0.65836 -1.91816 0
M  V30 4096 C 382.929 0.806692 -1.76653 0
M  V30 4097 O 382.204 1.58252 -1.13078 0
M  V30 4098 C 382.487 -1.056 -3.44268 0
M  V30 4099 C 382.34 -2.57906 -3.68516 0
M  V30 4100 C 383.659 -0.603781 -4.35939 0
M  V30 4101 H 380.778 -0.24065 -0.696604 0
M  V30 4102 H 383.42 -1.22783 -1.44998 0
M  V30 4103 H 381.57 -0.571445 -3.84274 0
M  V30 4104 H 383.242 -3.13976 -3.3796 0
M  V30 4105 H 381.485 -3.00305 -3.13048 0
M  V30 4106 H 382.156 -2.80779 -4.75255 0
M  V30 4107 H 384.632 -1.01987 -4.03408 0
M  V30 4108 H 383.508 -0.910383 -5.41298 0
M  V30 4109 H 383.769 0.495761 -4.39312 0
M  V30 4110 N 382.828 1.3818 -0.7579 0
M  V30 4111 C 384.056 2.04301 -0.326937 0
M  V30 4112 C 384.471 1.57163 1.0462 0
M  V30 4113 O 383.828 0.746626 1.66529 0
M  V30 4114 C 383.879 3.59846 -0.345363 0
M  V30 4115 O 383.6 4.05256 -1.66432 0
M  V30 4116 C 385.101 4.4319 0.098927 0
M  V30 4117 H 382.321 0.656443 -0.139012 0
M  V30 4118 H 384.865 1.76786 -1.02796 0
M  V30 4119 H 383.02 3.86182 0.306955 0
M  V30 4120 H 383.434 4.99709 -1.59345 0
M  V30 4121 H 384.908 5.51989 0.0348745 0
M  V30 4122 H 385.385 4.23947 1.14741 0
M  V30 4123 H 385.991 4.22051 -0.52468 0
M  V30 4124 N 384.306 0.507319 1.49211 0
M  V30 4125 C 385.253 -0.267728 2.29242 0
M  V30 4126 C 386.223 -0.954609 1.35928 0
M  V30 4127 O 387.408 -0.960046 1.64887 0
M  V30 4128 C 384.548 -1.32243 3.18756 0
M  V30 4129 C 383.661 -0.64669 4.27132 0
M  V30 4130 C 382.796 -1.68238 5.03855 0
M  V30 4131 C 381.835 -0.98885 6.0406 0
M  V30 4132 N 380.972 -1.96903 6.73924 0
M  V30 4133 H 385.812 0.420968 2.95012 0
M  V30 4134 H 383.349 0.219443 1.45454 0
M  V30 4135 H 385.307 -1.94599 3.69036 0
M  V30 4136 H 383.937 -1.97981 2.54958 0
M  V30 4137 H 382.989 0.0902926 3.80293 0
M  V30 4138 H 384.301 -0.101058 4.98698 0
M  V30 4139 H 383.455 -2.38081 5.58034 0
M  V30 4140 H 382.194 -2.26187 4.32077 0
M  V30 4141 H 381.199 -0.276222 5.49106 0
M  V30 4142 H 382.424 -0.415767 6.77826 0
M  V30 4143 H 380.37 -2.53803 6.04913 0
M  V30 4144 H 380.287 -1.47423 7.41487 0
M  V30 4145 H 381.555 -2.66015 7.32705 0
M  V30 4146 N 385.784 -1.5574 0.241426 0
M  V30 4147 C 387.033 -1.97986 -0.385295 0
M  V30 4148 C 387.346 -1.13267 -1.59468 0
M  V30 4149 O 388.552 -1.45501 -2.2922 0
M  V30 4150 C 387.008 -3.52275 -0.736884 0
M  V30 4151 C 386.616 -4.45726 0.450796 0
M  V30 4152 C 388.36 -4.03189 -1.3281 0
M  V30 4153 C 386.267 -5.91352 0.0756662 0
M  V30 4154 H 385.197 -0.739386 -0.147731 0
M  V30 4155 H 387.848 -1.80308 0.340779 0
M  V30 4156 H 386.23 -3.65628 -1.52094 0
M  V30 4157 H 387.404 -4.44131 1.22819 0
M  V30 4158 H 385.719 -4.05264 0.956573 0
M  V30 4159 H 388.316 -5.09505 -1.62201 0
M  V30 4160 H 388.659 -3.50212 -2.25071 0
M  V30 4161 H 389.192 -3.93141 -0.607069 0
M  V30 4162 H 385.931 -6.48354 0.965272 0
M  V30 4163 H 385.451 -5.96095 -0.665635 0
M  V30 4164 H 387.13 -6.46084 -0.344075 0
M  V30 4165 N 387.262 0.0317525 -1.57568 0
M  V30 4166 C 388.212 1.04101 -2.02847 0
M  V30 4167 C 389.196 1.3219 -0.917317 0
M  V30 4168 O 390.388 1.31819 -1.18121 0
M  V30 4169 C 387.517 2.34295 -2.5092 0
M  V30 4170 C 386.603 2.09308 -3.68851 0
M  V30 4171 N 386.994 1.5437 -4.81667 0
M  V30 4172 C 385.292 2.39604 -3.76172 0
M  V30 4173 C 385.993 1.45126 -5.63306 0
M  V30 4174 N 384.969 1.92589 -5.08341 0
M  V30 4175 H 388.771 0.610217 -2.87495 0
M  V30 4176 H 386.285 0.238108 -1.60645 0
M  V30 4177 H 388.282 3.07404 -2.81617 0
M  V30 4178 H 386.942 2.78055 -1.67677 0
M  V30 4179 H 387.953 1.22678 -5.03161 0
M  V30 4180 H 384.63 2.86457 -3.03724 0
M  V30 4181 H 386.02 1.03163 -6.63933 0
M  V30 4182 N 388.74 1.54641 0.303973 0
M  V30 4183 C 389.688 1.86137 1.39484 0
M  V30 4184 C 390.682 0.734854 1.52631 0
M  V30 4185 O 391.888 0.918803 1.54784 0
M  V30 4186 H 388.263 0.590324 0.465856 0
M  V30 4187 H 390.234 2.77324 1.10154 0
M  V30 4188 C 388.983 2.12274 2.75382 0
M  V30 4189 H 388.306 2.98429 2.66046 0
M  V30 4190 H 389.746 2.38254 3.5073 0
M  V30 4191 C 388.205 0.920365 3.24085 0
M  V30 4192 O 388.735 0.139377 4.01458 0
M  V30 4193 N 386.941 0.726566 2.81371 0
M  V30 4194 H 386.488 1.36332 2.18567 0
M  V30 4195 H 386.446 -0.0763799 3.14307 0
M  V30 4196 N 390.218 -0.567019 1.47046 0
M  V30 4197 C 391.466 -1.322 1.52864 0
M  V30 4198 C 391.787 -1.94088 0.188388 0
M  V30 4199 O 391.057 -1.7941 -0.786693 0
M  V30 4200 H 389.637 -0.490894 0.563056 0
M  V30 4201 H 392.299 -0.662879 1.83281 0
M  V30 4202 H 391.395 -2.12062 2.2899 0
M  V30 4203 N 391.696 -1.35014 -0.812953 0
M  V30 4204 C 392.921 -1.31187 -1.60639 0
M  V30 4205 C 393.346 0.109382 -1.87782 0
M  V30 4206 O 392.704 1.07424 -1.46047 0
M  V30 4207 C 392.752 -2.11809 -2.91838 0
M  V30 4208 O 391.856 -1.49444 -3.8437 0
M  V30 4209 H 391.197 -0.450084 -0.488181 0
M  V30 4210 H 393.727 -1.77963 -1.00947 0
M  V30 4211 H 393.737 -2.23531 -3.41318 0
M  V30 4212 H 392.412 -3.15137 -2.71407 0
M  V30 4213 H 390.989 -1.46524 -3.42907 0
M  V30 4214 N 393.175 1.03435 -1.18907 0
M  V30 4215 C 394.421 1.77005 -0.989798 0
M  V30 4216 C 394.754 1.88205 0.478816 0
M  V30 4217 O 394.029 1.39481 1.35556 0
M  V30 4218 C 394.312 3.19925 -1.65287 0
M  V30 4219 C 394.165 3.1663 -3.19477 0
M  V30 4220 C 395.484 4.18189 -1.37134 0
M  V30 4221 H 392.603 0.642538 -0.360991 0
M  V30 4222 H 395.245 1.20784 -1.46667 0
M  V30 4223 H 393.395 3.67929 -1.24741 0
M  V30 4224 H 395.067 2.76567 -3.692 0
M  V30 4225 H 393.31 2.54491 -3.51307 0
M  V30 4226 H 393.981 4.1758 -3.61013 0
M  V30 4227 H 396.457 3.78761 -1.72276 0
M  V30 4228 H 395.333 5.16394 -1.86087 0
M  V30 4229 H 395.594 4.41112 -0.295424 0
M  V30 4230 N 394.653 0.992116 1.22453 0
M  V30 4231 C 395.9 0.667534 1.91181 0
M  V30 4232 C 396.228 -0.800317 1.77271 0
M  V30 4233 O 395.483 -1.59421 1.13505 0
M  V30 4234 C 395.782 1.01832 3.42586 0
M  V30 4235 C 395.448 2.47831 3.76684 0
M  V30 4236 C 394.11 2.87729 3.85701 0
M  V30 4237 C 396.462 3.42466 3.92895 0
M  V30 4238 C 393.79 4.21252 4.08367 0
M  V30 4239 C 396.142 4.75648 4.17064 0
M  V30 4240 C 394.806 5.15288 4.24305 0
M  V30 4241 H 394.076 0.244268 0.699581 0
M  V30 4242 H 396.723 1.24816 1.45235 0
M  V30 4243 H 395.028 0.355769 3.90181 0
M  V30 4244 H 396.725 0.745228 3.94014 0
M  V30 4245 H 393.315 2.15905 3.70247 0
M  V30 4246 H 397.499 3.12814 3.85307 0
M  V30 4247 H 392.755 4.51554 4.122 0
M  V30 4248 H 396.929 5.48924 4.2855 0
M  V30 4249 H 394.556 6.18769 4.41621 0
M  V30 4250 N 396.131 -1.37776 0.765217 0
M  V30 4251 C 397.359 -2.04124 0.337767 0
M  V30 4252 C 397.774 -1.57715 -1.03785 0
M  V30 4253 O 397.131 -0.755447 -1.6613 0
M  V30 4254 C 397.182 -3.59658 0.364442 0
M  V30 4255 O 396.903 -4.04367 1.68579 0
M  V30 4256 C 398.404 -4.43236 -0.0754221 0
M  V30 4257 H 395.624 -0.655696 0.142491 0
M  V30 4258 H 398.168 -1.76238 1.03732 0
M  V30 4259 H 396.323 -3.86339 -0.286471 0
M  V30 4260 H 396.737 -4.98857 1.61993 0
M  V30 4261 H 398.211 -5.52 -0.00560067 0
M  V30 4262 H 398.688 -4.2455 -1.12491 0
M  V30 4263 H 399.294 -4.21767 0.547055 0
M  V30 4264 N 397.609 -0.515225 -1.4894 0
M  V30 4265 C 398.556 0.255567 -2.29381 0
M  V30 4266 C 399.526 0.947387 -1.36432 0
M  V30 4267 O 400.711 0.951288 -1.65394 0
M  V30 4268 C 397.851 1.30551 -3.19453 0
M  V30 4269 C 396.964 0.624029 -4.27469 0
M  V30 4270 C 396.099 1.65563 -5.0474 0
M  V30 4271 C 395.138 0.956802 -6.04576 0
M  V30 4272 N 394.275 1.93326 -6.74959 0
M  V30 4273 H 399.115 -0.436607 -2.94784 0
M  V30 4274 H 396.652 -0.227154 -1.45336 0
M  V30 4275 H 398.61 1.92639 -3.70062 0
M  V30 4276 H 397.24 1.96626 -2.56004 0
M  V30 4277 H 396.292 -0.110459 -3.8024 0
M  V30 4278 H 397.604 0.0746092 -4.98744 0
M  V30 4279 H 396.758 2.35119 -5.59289 0
M  V30 4280 H 395.497 2.23893 -4.3327 0
M  V30 4281 H 394.502 0.247097 -5.49244 0
M  V30 4282 H 395.727 0.379814 -6.78037 0
M  V30 4283 H 393.673 2.50591 -6.06251 0
M  V30 4284 H 393.59 1.43489 -7.42258 0
M  V30 4285 H 394.858 2.62126 -7.34105 0
M  V30 4286 N 399.087 1.5561 -0.249682 0
M  V30 4287 C 400.035 2.22894 0.664906 0
M  V30 4288 C 401.029 1.21743 1.17792 0
M  V30 4289 O 402.235 1.39748 1.13449 0
M  V30 4290 H 398.61 0.715022 0.232912 0
M  V30 4291 H 400.581 2.98307 0.0742998 0
M  V30 4292 C 399.33 2.94424 1.84959 0
M  V30 4293 H 398.653 3.72031 1.46399 0
M  V30 4294 H 400.093 3.44862 2.4667 0
M  V30 4295 C 398.552 1.98454 2.72245 0
M  V30 4296 O 399.082 1.51939 3.71857 0
M  V30 4297 N 397.288 1.65496 2.38871 0
M  V30 4298 H 396.835 2.03517 1.57919 0
M  V30 4299 H 396.793 1.0155 2.97548 0
M  V30 4300 N 400.565 -0.0233959 1.57583 0
M  V30 4301 C 401.495 -1.02162 2.09965 0
M  V30 4302 C 402.476 -1.3735 1.00344 0
M  V30 4303 O 403.661 -1.46135 1.27899 0
M  V30 4304 C 400.791 -2.32081 2.58371 0
M  V30 4305 C 399.745 -2.1112 3.72307 0
M  V30 4306 C 399.071 -3.46848 4.06941 0
M  V30 4307 C 400.371 -1.49276 5.00514 0
M  V30 4308 H 402.065 -0.585557 2.93618 0
M  V30 4309 H 399.611 -0.280218 1.41247 0
M  V30 4310 H 401.564 -3.02249 2.93639 0
M  V30 4311 H 400.288 -2.77758 1.71808 0
M  V30 4312 H 398.947 -1.43384 3.37397 0
M  V30 4313 H 398.595 -3.90184 3.17436 0
M  V30 4314 H 398.295 -3.33646 4.83688 0
M  V30 4315 H 399.819 -4.18369 4.44747 0
M  V30 4316 H 401.233 -2.09368 5.33702 0
M  V30 4317 H 399.63 -1.46632 5.8191 0
M  V30 4318 H 400.7 -0.459217 4.82721 0
M  V30 4319 N 402.043 -1.548 -0.295768 0
M  V30 4320 C 403.283 -1.76069 -1.03823 0
M  V30 4321 C 403.647 -0.537992 -1.84309 0
M  V30 4322 O 404.848 -0.628514 -2.61349 0
M  V30 4323 C 403.119 -3.01705 -1.91596 0
M  V30 4324 S 404.678 -3.43998 -2.72416 0
M  V30 4325 H 401.496 -0.618852 -0.350062 0
M  V30 4326 H 404.098 -1.93009 -0.31106 0
M  V30 4327 H 402.802 -3.88812 -1.31351 0
M  V30 4328 H 402.333 -2.87366 -2.68671 0
M  V30 4329 H 404.348 -3.0148 -3.94112 0
M  V30 4330 N 403.521 0.559213 -1.47345 0
M  V30 4331 C 404.746 1.34676 -1.57725 0
M  V30 4332 C 405.171 1.86723 -0.227164 0
M  V30 4333 O 404.529 1.6286 0.796642 0
M  V30 4334 C 404.577 2.49399 -2.60447 0
M  V30 4335 O 403.681 3.51567 -2.15578 0
M  V30 4336 H 403.022 0.400115 -0.52991 0
M  V30 4337 H 405.552 0.676009 -1.93109 0
M  V30 4338 H 405.562 2.95996 -2.80803 0
M  V30 4339 H 404.237 2.10873 -3.58477 0
M  V30 4340 H 402.814 3.11289 -2.05313 0
M  V30 4341 N 404.999 1.35443 0.805782 0
M  V30 4342 C 405.931 1.24285 1.92577 0
M  V30 4343 C 406.944 0.165962 1.61952 0
M  V30 4344 O 408.133 0.419303 1.73505 0
M  V30 4345 C 405.233 0.891272 3.2697 0
M  V30 4346 C 404.406 2.06669 3.85495 0
M  V30 4347 C 403.465 1.69077 4.98297 0
M  V30 4348 O 402.491 2.4096 5.15681 0
M  V30 4349 N 403.693 0.614869 5.77234 0
M  V30 4350 H 406.458 2.20777 2.02676 0
M  V30 4351 H 404.019 1.28623 0.983243 0
M  V30 4352 H 406.011 0.621256 3.99903 0
M  V30 4353 H 404.581 0.016004 3.12596 0
M  V30 4354 H 403.801 2.50046 3.04747 0
M  V30 4355 H 405.089 2.85237 4.21328 0
M  V30 4356 H 404.487 0.017648 5.65697 0
M  V30 4357 H 403.044 0.404636 6.50543 0
M  V30 4358 N 406.477 -1.02803 1.19454 0
M  V30 4359 C 407.41 -2.107 0.876396 0
M  V30 4360 C 408.388 -1.61741 -0.166897 0
M  V30 4361 O 409.572 -1.88451 -0.0430195 0
M  V30 4362 C 406.699 -3.37262 0.311758 0
M  V30 4363 C 405.745 -4.05093 1.33424 0
M  V30 4364 S 406.578 -4.50498 2.89503 0
M  V30 4365 C 407.734 -5.80277 2.34584 0
M  V30 4366 H 407.967 -2.37362 1.79016 0
M  V30 4367 H 405.5 -1.15755 1.02177 0
M  V30 4368 H 407.458 -4.10499 -0.00748752 0
M  V30 4369 H 406.119 -3.08693 -0.58032 0
M  V30 4370 H 405.312 -4.9611 0.888302 0
M  V30 4371 H 404.914 -3.3803 1.60037 0
M  V30 4372 H 407.206 -6.54873 1.73633 0
M  V30 4373 H 408.149 -6.29651 3.23952 0
M  V30 4374 H 408.557 -5.3599 1.77131 0
M  V30 4375 N 407.956 -0.998596 -1.21925 0
M  V30 4376 C 409.181 -0.696015 -1.95372 0
M  V30 4377 C 409.606 0.733826 -1.73195 0
M  V30 4378 O 408.964 1.50242 -1.01474 0
M  V30 4379 C 409.012 -1.01466 -3.4603 0
M  V30 4380 O 408.116 -0.116415 -4.12236 0
M  V30 4381 H 407.457 -0.259938 -0.611006 0
M  V30 4382 H 409.987 -1.33711 -1.54863 0
M  V30 4383 H 409.997 -0.958855 -3.96573 0
M  V30 4384 H 408.672 -2.05653 -3.61497 0
M  V30 4385 H 407.249 -0.228193 -3.72201 0
M  V30 4386 N 409.434 1.37368 -0.772513 0
M  V30 4387 C 410.397 2.28601 -0.165541 0
M  V30 4388 C 411.397 1.48062 0.627238 0
M  V30 4389 O 412.587 1.68268 0.450715 0
M  V30 4390 C 409.719 3.32023 0.772897 0
M  V30 4391 H 410.912 2.83787 -0.969787 0
M  V30 4392 H 408.465 1.46647 -0.540775 0
M  V30 4393 H 409.2 2.81962 1.60212 0
M  V30 4394 H 408.985 3.91555 0.206585 0
M  V30 4395 H 410.475 4.00197 1.19298 0
M  V30 4396 N 410.912 0.523116 1.48665 0
M  V30 4397 C 412.158 -0.0134963 2.02796 0
M  V30 4398 C 412.491 -1.34582 1.40004 0
M  V30 4399 O 411.766 -1.86756 0.543381 0
M  V30 4400 C 412.049 -0.14276 3.59817 0
M  V30 4401 C 411.902 1.21425 4.331 0
M  V30 4402 C 413.221 -0.872856 4.31357 0
M  V30 4403 H 410.34 -0.00343074 0.736992 0
M  V30 4404 H 412.982 0.678816 1.7746 0
M  V30 4405 H 411.132 -0.732401 3.81534 0
M  V30 4406 H 412.804 1.84447 4.2282 0
M  V30 4407 H 411.047 1.79791 3.94788 0
M  V30 4408 H 411.718 1.07687 5.41394 0
M  V30 4409 H 414.194 -0.372555 4.14429 0
M  V30 4410 H 413.07 -0.932185 5.40927 0
M  V30 4411 H 413.331 -1.92161 3.98154 0
M  V30 4412 N 412.39 -1.55475 0.257931 0
M  V30 4413 C 413.615 -2.04064 -0.370488 0
M  V30 4414 C 414.04 -1.13565 -1.49948 0
M  V30 4415 O 413.398 -0.130781 -1.80828 0
M  V30 4416 C 413.446 -3.50554 -0.845237 0
M  V30 4417 O 412.55 -3.63173 -1.95394 0
M  V30 4418 H 411.891 -0.659257 -0.0792243 0
M  V30 4419 H 414.421 -2.00903 0.387212 0
M  V30 4420 H 414.431 -3.91588 -1.14555 0
M  V30 4421 H 413.106 -4.15896 -0.0191259 0
M  V30 4422 H 411.683 -3.34039 -1.65748 0
M  V30 4423 N 413.868 0.0150385 -1.57593 0
M  V30 4424 C 415.116 0.701613 -1.8953 0
M  V30 4425 C 415.437 1.75139 -0.857396 0
M  V30 4426 O 414.707 1.95607 0.107194 0
M  V30 4427 H 413.287 0.26213 -0.699498 0
M  V30 4428 H 415.949 -0.0223304 -1.94887 0
M  V30 4429 H 415.045 1.18236 -2.88837 0
M  V30 4430 N 415.346 1.54954 0.287554 0
M  V30 4431 C 416.757 1.65732 0.859634 0
M  V30 4432 C 417.108 0.574767 1.87592 0
M  V30 4433 O 416.233 -0.286299 2.14498 0
M  V30 4434 C 416.828 3.00438 1.56597 0
M  V30 4435 C 415.387 3.13292 2.08627 0
M  V30 4436 C 414.534 2.61473 0.923416 0
M  V30 4437 H 417.485 1.5857 0.0642338 0
M  V30 4438 H 417.506 2.92613 2.43224 0
M  V30 4439 H 417.018 3.79207 0.826053 0
M  V30 4440 H 415.119 2.39268 2.85625 0
M  V30 4441 H 415.232 4.19647 2.31157 0
M  V30 4442 H 413.596 2.18264 1.31275 0
M  V30 4443 H 414.379 3.42733 0.197241 0
M  V30 4444 N 416.824 -0.551391 1.4764 0
M  V30 4445 C 417.754 -1.66757 1.63445 0
M  V30 4446 C 418.735 -1.63077 0.483742 0
M  V30 4447 O 419.92 -1.80607 0.71377 0
M  V30 4448 C 417.05 -3.05387 1.65396 0
M  V30 4449 C 416.004 -3.23918 2.79752 0
M  V30 4450 C 415.33 -4.63393 2.66779 0
M  V30 4451 C 416.63 -3.08735 4.21284 0
M  V30 4452 H 418.324 -1.53786 2.56886 0
M  V30 4453 H 415.87 -0.738415 1.23626 0
M  V30 4454 H 417.823 -3.83325 1.75043 0
M  V30 4455 H 416.547 -3.19332 0.685195 0
M  V30 4456 H 415.206 -2.48391 2.69625 0
M  V30 4457 H 414.854 -4.74144 1.67918 0
M  V30 4458 H 414.554 -4.7674 3.43501 0
M  V30 4459 H 416.078 -5.43458 2.78364 0
M  V30 4460 H 417.492 -3.76484 4.32357 0
M  V30 4461 H 415.889 -3.33588 4.98838 0
M  V30 4462 H 416.959 -2.0541 4.39243 0
M  V30 4463 N 418.302 -1.35869 -0.798587 0
M  V30 4464 C 419.232 -1.32118 -1.92528 0
M  V30 4465 C 420.213 -0.194209 -1.68988 0
M  V30 4466 O 421.398 -0.390426 -1.90235 0
M  V30 4467 C 418.528 -1.10047 -3.29404 0
M  V30 4468 C 417.482 -2.19471 -3.67446 0
M  V30 4469 C 416.808 -1.82555 -5.02571 0
M  V30 4470 C 418.108 -3.61495 -3.76987 0
M  V30 4471 H 419.802 -2.26394 -1.95924 0
M  V30 4472 H 417.348 -1.08981 -0.94123 0
M  V30 4473 H 419.301 -1.06061 -4.07835 0
M  V30 4474 H 418.025 -0.122195 -3.26371 0
M  V30 4475 H 416.684 -2.22568 -2.91306 0
M  V30 4476 H 416.332 -0.833249 -4.9605 0
M  V30 4477 H 416.032 -2.5581 -5.28995 0
M  V30 4478 H 417.556 -1.80108 -5.83432 0
M  V30 4479 H 418.97 -3.60676 -4.4563 0
M  V30 4480 H 417.367 -4.33577 -4.14887 0
M  V30 4481 H 418.437 -3.97065 -2.78329 0
M  V30 4482 N 419.78 1.02168 -1.19998 0
M  V30 4483 C 420.712 2.10705 -0.901994 0
M  V30 4484 C 421.725 1.6244 0.108216 0
M  V30 4485 O 422.914 1.78082 -0.12214 0
M  V30 4486 C 420.014 3.37291 -0.329834 0
M  V30 4487 C 419.187 4.14714 -1.39035 0
M  V30 4488 C 418.246 5.19606 -0.830432 0
M  V30 4489 O 417.272 5.48809 -1.50989 0
M  V30 4490 N 418.474 5.79366 0.362696 0
M  V30 4491 H 421.239 2.36856 -1.83628 0
M  V30 4492 H 418.8 1.18518 -1.10296 0
M  V30 4493 H 420.792 4.04657 0.0587633 0
M  V30 4494 H 419.362 3.0843 0.508891 0
M  V30 4495 H 418.582 3.42392 -1.9535 0
M  V30 4496 H 419.87 4.63226 -2.10474 0
M  V30 4497 H 419.268 5.57968 0.932081 0
M  V30 4498 H 417.825 6.48106 0.69299 0
M  V30 4499 N 421.258 1.00505 1.21394 0
M  V30 4500 C 422.504 0.698477 1.91031 0
M  V30 4501 C 422.859 -0.762448 1.76648 0
M  V30 4502 O 422.152 -1.54554 1.13241 0
M  V30 4503 C 422.346 1.0546 3.41486 0
M  V30 4504 C 422.175 2.5486 3.70508 0
M  V30 4505 C 420.945 3.21461 3.8986 0
M  V30 4506 C 423.143 3.53019 3.74008 0
M  V30 4507 N 421.125 4.60211 4.06299 0
M  V30 4508 C 422.496 4.77279 3.95733 0
M  V30 4509 C 424.551 3.47154 3.56915 0
M  V30 4510 C 423.254 5.96388 4.02137 0
M  V30 4511 C 425.28 4.65652 3.64585 0
M  V30 4512 C 424.642 5.88717 3.86771 0
M  V30 4513 H 420.741 0.30707 0.719189 0
M  V30 4514 H 423.325 1.28753 1.46051 0
M  V30 4515 H 421.496 0.494007 3.85246 0
M  V30 4516 H 423.228 0.702765 3.98552 0
M  V30 4517 H 419.983 2.71906 3.87768 0
M  V30 4518 H 420.407 5.32216 4.1842 0
M  V30 4519 H 425.049 2.53015 3.38738 0
M  V30 4520 H 422.767 6.90919 4.19114 0
M  V30 4521 H 426.353 4.62717 3.52681 0
M  V30 4522 H 425.233 6.78877 3.92549 0
M  V30 4523 N 422.737 -1.36956 0.779787 0
M  V30 4524 C 423.667 -2.32761 0.185651 0
M  V30 4525 C 424.648 -1.56177 -0.673989 0
M  V30 4526 O 425.833 -1.84378 -0.609797 0
M  V30 4527 C 422.963 -3.40418 -0.687964 0
M  V30 4528 C 421.917 -4.27941 0.0710102 0
M  V30 4529 C 421.243 -5.26681 -0.922573 0
M  V30 4530 C 422.543 -5.07006 1.25467 0
M  V30 4531 H 424.237 -2.82698 0.986008 0
M  V30 4532 H 421.783 -1.3592 0.475592 0
M  V30 4533 H 423.736 -4.06423 -1.11348 0
M  V30 4534 H 422.46 -2.89025 -1.52093 0
M  V30 4535 H 421.119 -3.63478 0.47739 0
M  V30 4536 H 420.767 -4.71565 -1.7503 0
M  V30 4537 H 420.467 -5.86103 -0.419237 0
M  V30 4538 H 421.991 -5.9556 -1.34686 0
M  V30 4539 H 423.405 -5.66105 0.905401 0
M  V30 4540 H 421.802 -5.75793 1.69063 0
M  V30 4541 H 422.872 -4.3921 2.05481 0
M  V30 4542 N 424.215 -0.530993 -1.48385 0
M  V30 4543 C 425.125 0.23503 -2.3342 0
M  V30 4544 C 426.141 0.93801 -1.46552 0
M  V30 4545 O 427.317 0.912745 -1.7953 0
M  V30 4546 C 424.382 1.26778 -3.22689 0
M  V30 4547 C 423.443 0.575038 -4.25431 0
M  V30 4548 C 422.676 1.55858 -5.10435 0
M  V30 4549 O 422.899 2.79129 -4.97437 0
M  V30 4550 O 421.833 1.09742 -5.91811 0
M  V30 4551 H 425.659 -0.461794 -3.00169 0
M  V30 4552 H 423.244 -0.291903 -1.46521 0
M  V30 4553 H 425.126 1.86457 -3.77904 0
M  V30 4554 H 423.801 1.94699 -2.586 0
M  V30 4555 H 422.708 -0.0622782 -3.74048 0
M  V30 4556 H 424.041 -0.062253 -4.92161 0
M  V30 4557 N 425.693 1.55336 -0.266172 0
M  V30 4558 C 426.97 1.91372 0.404486 0
M  V30 4559 C 427.35 1.18935 1.74407 0
M  V30 4560 O 426.698 0.3132 2.26343 0
M  V30 4561 C 426.908 3.44581 0.553593 0
M  V30 4562 C 428.256 4.16196 0.840618 0
M  V30 4563 O 429.28 3.50426 0.638739 0
M  V30 4564 O 428.139 5.32567 1.22618 0
M  V30 4565 H 425.233 0.797194 0.220025 0
M  V30 4566 H 427.779 1.66813 -0.311664 0
M  V30 4567 H 426.551 3.89357 -0.389498 0
M  V30 4568 H 426.174 3.75065 1.31955 0
M  V30 4569 N 427.171 -0.0066808 1.57599 0
M  V30 4570 C 428.587 -0.36267 1.55425 0
M  V30 4571 C 428.787 -1.75209 0.995187 0
M  V30 4572 O 427.843 -2.44616 0.626058 0
M  V30 4573 C 429.156 -0.244017 2.99708 0
M  V30 4574 C 430.704 -0.319451 3.11366 0
M  V30 4575 C 431.179 -0.229998 4.57422 0
M  V30 4576 N 432.67 -0.288105 4.62303 0
M  V30 4577 C 433.405 -0.242127 5.72889 0
M  V30 4578 N 432.901 -0.147133 6.92644 0
M  V30 4579 N 434.694 -0.293502 5.61333 0
M  V30 4580 H 426.845 0.902314 1.92281 0
M  V30 4581 H 429.108 0.34525 0.882896 0
M  V30 4582 H 428.814 0.711678 3.44424 0
M  V30 4583 H 428.688 -1.02877 3.629 0
M  V30 4584 H 431.075 -1.26559 2.66584 0
M  V30 4585 H 431.156 0.495055 2.50964 0
M  V30 4586 H 430.8 0.712566 5.02877 0
M  V30 4587 H 430.73 -1.0629 5.15761 0
M  V30 4588 H 433.221 -0.363126 3.76151 0
M  V30 4589 H 433.534 -0.117763 7.7271 0
M  V30 4590 H 431.879 -0.112857 6.94908 0
M  V30 4591 H 435.07 -0.365864 4.66668 0
M  V30 4592 H 435.243 -0.254204 6.47501 0
M  V30 4593 N 428.649 -1.55105 -0.279332 0
M  V30 4594 C 429.579 -1.90557 -1.34945 0
M  V30 4595 C 430.56 -0.766738 -1.51839 0
M  V30 4596 O 431.745 -1.02434 -1.64988 0
M  V30 4597 C 428.875 -2.17193 -2.71006 0
M  V30 4598 C 427.829 -3.33021 -2.68851 0
M  V30 4599 C 427.155 -3.45123 -4.08405 0
M  V30 4600 C 428.455 -4.69578 -2.28678 0
M  V30 4601 H 430.149 -2.80188 -1.05522 0
M  V30 4602 H 427.695 -1.34811 -0.506173 0
M  V30 4603 H 429.648 -2.40581 -3.45975 0
M  V30 4604 H 428.372 -1.24355 -3.01999 0
M  V30 4605 H 427.031 -3.0959 -1.9634 0
M  V30 4606 H 426.679 -2.49762 -4.3661 0
M  V30 4607 H 426.379 -4.22995 -4.07859 0
M  V30 4608 H 427.903 -3.70796 -4.85121 0
M  V30 4609 H 429.317 -4.92553 -2.93368 0
M  V30 4610 H 427.714 -5.5032 -2.39306 0
M  V30 4611 H 428.784 -4.68828 -1.23807 0
M  V30 4612 N 430.127 0.543554 -1.4793 0
M  V30 4613 C 431.037 1.67657 -1.64098 0
M  V30 4614 C 432.053 1.65934 -0.523622 0
M  V30 4615 O 433.229 1.85133 -0.792943 0
M  V30 4616 C 430.294 3.04146 -1.66421 0
M  V30 4617 C 429.355 3.16831 -2.89684 0
M  V30 4618 C 428.588 4.46809 -2.91886 0
M  V30 4619 O 428.811 5.33095 -2.02895 0
M  V30 4620 O 427.745 4.63573 -3.83906 0
M  V30 4621 H 431.571 1.56957 -2.59997 0
M  V30 4622 H 429.156 0.715116 -1.31173 0
M  V30 4623 H 431.038 3.85346 -1.70548 0
M  V30 4624 H 429.713 3.152 -0.736923 0
M  V30 4625 H 428.62 2.34977 -2.91095 0
M  V30 4626 H 429.953 3.10687 -3.81752 0
M  V30 4627 N 431.605 1.3629 0.791371 0
M  V30 4628 C 432.537 1.26321 1.91248 0
M  V30 4629 C 433.55 0.18313 1.61767 0
M  V30 4630 O 434.739 0.437682 1.73051 0
M  V30 4631 C 431.839 0.925901 3.26007 0
M  V30 4632 C 431.012 2.10746 3.83281 0
M  V30 4633 C 430.071 1.74352 4.96475 0
M  V30 4634 O 429.097 2.46416 5.13096 0
M  V30 4635 N 430.299 0.676058 5.7655 0
M  V30 4636 H 433.064 2.22915 2.00323 0
M  V30 4637 H 430.625 1.29659 0.969546 0
M  V30 4638 H 432.617 0.663636 3.99222 0
M  V30 4639 H 431.187 0.0491581 3.12561 0
M  V30 4640 H 430.407 2.53264 3.02077 0
M  V30 4641 H 431.695 2.8969 4.18279 0
M  V30 4642 H 431.093 0.0776467 5.65647 0
M  V30 4643 H 429.65 0.473612 6.50077 0
M  V30 4644 N 433.083 -1.0153 1.20538 0
M  V30 4645 C 434.031 -2.12215 0.952235 0
M  V30 4646 C 435.025 -1.69123 -0.0968735 0
M  V30 4647 O 436.231 -1.7992 0.0536006 0
M  V30 4648 H 432.606 -0.693576 0.290613 0
M  V30 4649 H 434.577 -2.3075 1.89201 0
M  V30 4650 C 433.326 -3.43755 0.522287 0
M  V30 4651 H 432.649 -3.7734 1.32115 0
M  V30 4652 H 434.089 -4.22254 0.384389 0
M  V30 4653 C 432.548 -3.28088 -0.765489 0
M  V30 4654 O 433.078 -3.57921 -1.8236 0
M  V30 4655 N 431.284 -2.81333 -0.728011 0
M  V30 4656 H 430.831 -2.57255 0.133332 0
M  V30 4657 H 430.789 -2.71232 -1.58999 0
M  V30 4658 N 434.561 -1.01147 -1.20859 0
M  V30 4659 C 435.493 -0.535546 -2.22855 0
M  V30 4660 C 436.506 0.379323 -1.58319 0
M  V30 4661 O 437.695 0.178489 -1.77605 0
M  V30 4662 C 434.795 0.240962 -3.38042 0
M  V30 4663 C 433.968 -0.674562 -4.32167 0
M  V30 4664 C 433.027 0.053467 -5.26173 0
M  V30 4665 O 432.053 -0.567339 -5.66366 0
M  V30 4666 N 433.255 1.32997 -5.65059 0
M  V30 4667 H 436.02 -1.41268 -2.64317 0
M  V30 4668 H 433.581 -0.888386 -1.35349 0
M  V30 4669 H 435.573 0.737115 -3.97931 0
M  V30 4670 H 434.143 1.01935 -2.95513 0
M  V30 4671 H 433.363 -1.35111 -3.70322 0
M  V30 4672 H 434.651 -1.2974 -4.91981 0
M  V30 4673 H 434.049 1.85536 -5.34409 0
M  V30 4674 H 432.606 1.77095 -6.2728 0
M  V30 4675 N 436.039 1.36541 -0.78704 0
M  V30 4676 C 436.971 2.28761 -0.141773 0
M  V30 4677 C 437.984 1.49365 0.647599 0
M  V30 4678 O 439.173 1.71836 0.483173 0
M  V30 4679 C 436.273 3.28771 0.822368 0
M  V30 4680 C 435.446 4.3732 0.0835594 0
M  V30 4681 C 434.505 5.17307 0.963296 0
M  V30 4682 O 433.531 5.67638 0.421419 0
M  V30 4683 N 434.733 5.33515 2.28784 0
M  V30 4684 H 437.498 2.84777 -0.933919 0
M  V30 4685 H 435.059 1.48682 -0.640735 0
M  V30 4686 H 437.051 3.79169 1.41468 0
M  V30 4687 H 435.621 2.73412 1.5154 0
M  V30 4688 H 434.841 3.88118 -0.689809 0
M  V30 4689 H 436.129 5.0701 -0.426358 0
M  V30 4690 H 435.527 4.94234 2.75226 0
M  V30 4691 H 434.084 5.87165 2.82985 0
M  V30 4692 N 437.518 0.538854 1.48102 0
M  V30 4693 C 438.468 -0.23907 2.26743 0
M  V30 4694 C 439.452 -0.901923 1.33245 0
M  V30 4695 O 440.644 -0.803263 1.57723 0
M  V30 4696 C 437.773 -1.2799 3.18549 0
M  V30 4697 C 436.859 -0.621388 4.19523 0
M  V30 4698 N 437.25 0.298004 5.04921 0
M  V30 4699 C 435.548 -0.877533 4.37282 0
M  V30 4700 C 436.249 0.678757 5.77726 0
M  V30 4701 N 435.225 0.0377881 5.43587 0
M  V30 4702 H 439.027 0.468096 2.90148 0
M  V30 4703 H 436.541 0.357497 1.58416 0
M  V30 4704 H 438.538 -1.851 3.73555 0
M  V30 4705 H 437.198 -1.98835 2.567 0
M  V30 4706 H 438.209 0.671126 5.13533 0
M  V30 4707 H 434.886 -1.57588 3.86616 0
M  V30 4708 H 436.276 1.43316 6.56437 0
M  V30 4709 N 438.996 -1.55193 0.274407 0
M  V30 4710 C 439.926 -2.25471 -0.607032 0
M  V30 4711 C 440.907 -1.24461 -1.15946 0
M  V30 4712 O 442.092 -1.53179 -1.19373 0
M  V30 4713 C 439.222 -2.97526 -1.79153 0
M  V30 4714 C 438.176 -4.05459 -1.37067 0
M  V30 4715 C 437.502 -4.65084 -2.6382 0
M  V30 4716 C 438.802 -5.19691 -0.521389 0
M  V30 4717 H 440.496 -2.99393 -0.0209343 0
M  V30 4718 H 438.042 -1.43997 -0.00862866 0
M  V30 4719 H 439.995 -3.45402 -2.41404 0
M  V30 4720 H 438.719 -2.21138 -2.40344 0
M  V30 4721 H 437.378 -3.58393 -0.771355 0
M  V30 4722 H 437.026 -3.85365 -3.23268 0
M  V30 4723 H 436.726 -5.37961 -2.36372 0
M  V30 4724 H 438.25 -5.15708 -3.26921 0
M  V30 4725 H 439.664 -5.63623 -1.04889 0
M  V30 4726 H 438.061 -5.99126 -0.341825 0
M  V30 4727 H 439.131 -4.82713 0.46 0
M  V30 4728 N 440.474 -0.00167713 -1.576 0
M  V30 4729 C 441.406 1.0174 -2.05382 0
M  V30 4730 C 442.419 1.30595 -0.972052 0
M  V30 4731 O 443.608 1.27542 -1.24882 0
M  V30 4732 C 440.708 2.35174 -2.44022 0
M  V30 4733 C 439.881 2.25234 -3.74951 0
M  V30 4734 C 438.94 3.4137 -4.00441 0
M  V30 4735 O 437.966 3.19483 -4.71083 0
M  V30 4736 N 439.168 4.64275 -3.48467 0
M  V30 4737 H 441.933 0.609902 -2.93428 0
M  V30 4738 H 439.494 0.185672 -1.60832 0
M  V30 4739 H 441.486 3.11643 -2.58187 0
M  V30 4740 H 440.056 2.67659 -1.61485 0
M  V30 4741 H 439.276 1.33664 -3.70847 0
M  V30 4742 H 440.564 2.15767 -4.60784 0
M  V30 4743 H 439.962 4.84955 -2.91264 0
M  V30 4744 H 438.519 5.38005 -3.67959 0
M  V30 4745 N 441.952 1.55251 0.271103 0
M  V30 4746 C 442.862 1.9136 1.35714 0
M  V30 4747 C 443.878 0.811075 1.5394 0
M  V30 4748 O 445.054 1.11031 1.6803 0
M  V30 4749 C 442.119 2.1798 2.69603 0
M  V30 4750 C 441.18 3.4153 2.60107 0
M  V30 4751 C 440.413 3.66871 3.8761 0
M  V30 4752 O 440.636 2.94689 4.8838 0
M  V30 4753 O 439.57 4.60405 3.87699 0
M  V30 4754 H 443.396 2.83815 1.08088 0
M  V30 4755 H 440.981 1.41821 0.469792 0
M  V30 4756 H 442.863 2.36518 3.48765 0
M  V30 4757 H 441.538 1.28708 2.97012 0
M  V30 4758 H 440.445 3.28325 1.79314 0
M  V30 4759 H 441.778 4.31027 2.37647 0
M  V30 4760 N 443.43 -0.535701 1.48216 0
M  V30 4761 C 444.36 -1.65014 1.65204 0
M  V30 4762 C 445.341 -1.62554 0.501011 0
M  V30 4763 O 446.526 -1.7984 0.732886 0
M  V30 4764 C 443.656 -3.03616 1.68626 0
M  V30 4765 C 442.61 -3.20932 2.83172 0
M  V30 4766 C 441.936 -4.60537 2.71679 0
M  V30 4767 C 443.236 -3.04249 4.24535 0
M  V30 4768 H 444.93 -1.51053 2.58502 0
M  V30 4769 H 442.476 -0.725262 1.24402 0
M  V30 4770 H 444.429 -3.81446 1.79099 0
M  V30 4771 H 443.153 -3.18587 0.719026 0
M  V30 4772 H 441.812 -2.45517 2.72244 0
M  V30 4773 H 441.46 -4.72336 1.72937 0
M  V30 4774 H 441.16 -4.73069 3.48538 0
M  V30 4775 H 442.684 -5.40475 2.84112 0
M  V30 4776 H 444.098 -3.71877 4.36326 0
M  V30 4777 H 442.495 -3.28278 5.02348 0
M  V30 4778 H 443.565 -2.00739 4.41397 0
M  V30 4779 N 444.908 -1.36708 -0.784132 0
M  V30 4780 C 445.84 -1.27333 -1.90575 0
M  V30 4781 C 446.853 -0.191706 -1.61667 0
M  V30 4782 O 448.042 -0.446854 -1.72816 0
M  V30 4783 C 445.142 -0.943177 -3.25511 0
M  V30 4784 C 444.315 -2.12776 -3.82158 0
M  V30 4785 C 443.374 -1.76983 -4.95544 0
M  V30 4786 O 442.4 -2.49134 -5.11782 0
M  V30 4787 N 443.602 -0.706624 -5.76183 0
M  V30 4788 H 446.367 -2.23974 -1.99138 0
M  V30 4789 H 443.928 -1.30171 -0.962656 0
M  V30 4790 H 445.92 -0.684799 -3.98864 0
M  V30 4791 H 444.49 -0.0657333 -3.12531 0
M  V30 4792 H 443.71 -2.54863 -3.0073 0
M  V30 4793 H 444.998 -2.91904 -4.16737 0
M  V30 4794 H 444.396 -0.107643 -5.65598 0
M  V30 4795 H 442.953 -0.50808 -6.49817 0
M  V30 4796 N 446.386 1.0089 -1.21074 0
M  V30 4797 C 447.318 2.09737 -0.924291 0
M  V30 4798 C 448.331 1.62546 0.0909809 0
M  V30 4799 O 449.52 1.77942 -0.141021 0
M  V30 4800 C 446.62 3.36922 -0.36559 0
M  V30 4801 C 445.793 4.13216 -1.43426 0
M  V30 4802 C 444.852 5.18696 -0.885496 0
M  V30 4803 O 443.878 5.47176 -1.56801 0
M  V30 4804 N 445.08 5.79718 0.301227 0
M  V30 4805 H 447.845 2.34895 -1.8613 0
M  V30 4806 H 445.406 1.17341 -1.11546 0
M  V30 4807 H 447.398 4.04697 0.0158407 0
M  V30 4808 H 445.968 3.08952 0.476149 0
M  V30 4809 H 445.188 3.40301 -1.9897 0
M  V30 4810 H 446.476 4.60967 -2.15376 0
M  V30 4811 H 445.874 5.58926 0.872849 0
M  V30 4812 H 444.431 6.48804 0.624211 0
M  V30 4813 N 447.864 1.01787 1.20321 0
M  V30 4814 C 448.774 0.598898 2.26827 0
M  V30 4815 C 449.79 -0.36418 1.70146 0
M  V30 4816 O 450.966 -0.224812 2.00141 0
M  V30 4817 C 448.031 -0.0549769 3.46656 0
M  V30 4818 C 447.092 0.954205 4.18561 0
M  V30 4819 C 446.325 0.331439 5.3267 0
M  V30 4820 O 446.548 -0.86851 5.63749 0
M  V30 4821 O 445.482 1.0488 5.92692 0
M  V30 4822 H 449.308 1.48562 2.64883 0
M  V30 4823 H 446.893 0.787434 1.26964 0
M  V30 4824 H 448.775 -0.420102 4.19301 0
M  V30 4825 H 447.45 -0.915876 3.10473 0
M  V30 4826 H 446.357 1.37072 3.48083 0
M  V30 4827 H 447.69 1.78511 4.58688 0
M  V30 4828 N 449.342 -1.36122 0.79427 0
M  V30 4829 C 450.289 -2.29982 0.194101 0
M  V30 4830 C 451.259 -1.52214 -0.664833 0
M  V30 4831 O 452.444 -1.80702 -0.612498 0
M  V30 4832 C 449.584 -3.38706 -0.661244 0
M  V30 4833 C 448.697 -4.31456 0.216766 0
M  V30 4834 C 447.832 -5.27265 -0.645411 0
M  V30 4835 C 446.871 -6.11653 0.233756 0
M  V30 4836 N 446.008 -6.99636 -0.587682 0
M  V30 4837 H 450.848 -2.80722 0.999965 0
M  V30 4838 H 448.385 -1.38172 0.504677 0
M  V30 4839 H 450.343 -4.00394 -1.17219 0
M  V30 4840 H 448.973 -2.89274 -1.43249 0
M  V30 4841 H 448.025 -3.7088 0.845724 0
M  V30 4842 H 449.337 -4.90724 0.893973 0
M  V30 4843 H 448.491 -5.94266 -1.22198 0
M  V30 4844 H 447.23 -4.68463 -1.35623 0
M  V30 4845 H 446.235 -5.4361 0.82269 0
M  V30 4846 H 447.46 -6.72531 0.942247 0
M  V30 4847 H 445.406 -6.43337 -1.2827 0
M  V30 4848 H 445.323 -7.55993 0.0317402 0
M  V30 4849 H 446.591 -7.71001 -1.14792 0
M  V30 4850 N 450.82 -0.546701 -1.47814 0
M  V30 4851 C 451.73 0.21026 -2.33656 0
M  V30 4852 C 452.746 0.922413 -1.47538 0
M  V30 4853 O 453.922 0.893652 -1.80488 0
M  V30 4854 C 450.987 1.23348 -3.24016 0
M  V30 4855 C 450.048 0.529883 -4.26017 0
M  V30 4856 C 449.281 1.50435 -5.12059 0
M  V30 4857 O 449.504 2.73837 -5.00369 0
M  V30 4858 O 448.438 1.03459 -5.92942 0
M  V30 4859 H 452.264 -0.493605 -2.99662 0
M  V30 4860 H 449.849 -0.307427 -1.46203 0
M  V30 4861 H 451.731 1.82438 -3.79861 0
M  V30 4862 H 450.406 1.91945 -2.60651 0
M  V30 4863 H 449.313 -0.101948 -3.73961 0
M  V30 4864 H 450.646 -0.11445 -4.92067 0
M  V30 4865 N 452.299 1.55045 -0.282633 0
M  V30 4866 C 453.209 2.26491 0.61147 0
M  V30 4867 C 454.225 1.29348 1.16384 0
M  V30 4868 O 455.401 1.62298 1.19253 0
M  V30 4869 C 452.466 2.97779 1.77563 0
M  V30 4870 C 451.527 4.10418 1.25919 0
M  V30 4871 C 450.76 4.78297 2.36786 0
M  V30 4872 O 450.983 4.45426 3.56303 0
M  V30 4873 O 449.917 5.66089 2.04517 0
M  V30 4874 H 453.743 3.03683 0.0324615 0
M  V30 4875 H 451.328 1.49317 -0.0497576 0
M  V30 4876 H 453.21 3.42554 2.45427 0
M  V30 4877 H 451.885 2.23498 2.34159 0
M  V30 4878 H 450.792 3.70082 0.546797 0
M  V30 4879 H 452.125 4.86622 0.738887 0
M  V30 4880 N 453.777 0.010035 1.57597 0
M  V30 4881 C 454.707 -0.976857 2.12084 0
M  V30 4882 C 455.688 -1.35191 1.03235 0
M  V30 4883 O 456.873 -1.43389 1.3097 0
M  V30 4884 C 454.003 -2.26548 2.63236 0
M  V30 4885 C 452.957 -2.03175 3.76701 0
M  V30 4886 C 452.283 -3.38138 4.14206 0
M  V30 4887 C 453.583 -1.38625 5.03568 0
M  V30 4888 H 455.277 -0.523145 2.94794 0
M  V30 4889 H 452.823 -0.250195 1.4181 0
M  V30 4890 H 454.776 -2.95952 2.99984 0
M  V30 4891 H 453.5 -2.74051 1.77661 0
M  V30 4892 H 452.159 -1.36195 3.40362 0
M  V30 4893 H 451.807 -3.83363 3.25641 0
M  V30 4894 H 451.507 -3.23312 4.90656 0
M  V30 4895 H 453.031 -4.08841 4.53521 0
M  V30 4896 H 454.445 -1.98 5.38023 0
M  V30 4897 H 452.842 -1.34256 5.84889 0
M  V30 4898 H 453.912 -0.356722 4.83586 0
M  V30 4899 N 455.255 -1.55392 -0.262866 0
M  V30 4900 C 456.188 -1.8391 -1.35101 0
M  V30 4901 C 457.166 -0.692901 -1.47097 0
M  V30 4902 O 458.35 -0.936979 -1.63563 0
M  V30 4903 C 455.477 -2.00969 -2.72634 0
M  V30 4904 C 454.523 -3.23559 -2.7787 0
M  V30 4905 S 455.356 -4.80647 -2.3609 0
M  V30 4906 C 456.512 -5.00692 -3.75578 0
M  V30 4907 H 456.745 -2.75918 -1.1071 0
M  V30 4908 H 454.278 -1.47294 -0.463029 0
M  V30 4909 H 456.236 -2.11482 -3.51832 0
M  V30 4910 H 454.897 -1.09832 -2.94272 0
M  V30 4911 H 454.09 -3.32413 -3.78837 0
M  V30 4912 H 453.692 -3.11689 -2.06702 0
M  V30 4913 H 455.984 -4.87055 -4.70939 0
M  V30 4914 H 456.927 -6.02717 -3.71669 0
M  V30 4915 H 457.335 -4.28619 -3.6735 0
M  V30 4916 N 456.733 0.527833 -1.48498 0
M  V30 4917 C 457.665 1.6482 -1.5927 0
M  V30 4918 C 458.678 1.55659 -0.476869 0
M  V30 4919 O 459.867 1.62081 -0.747806 0
M  V30 4920 C 456.967 3.0348 -1.50842 0
M  V30 4921 C 456.14 3.381 -2.77502 0
M  V30 4922 C 455.199 4.5605 -2.62497 0
M  V30 4923 O 454.225 4.59165 -3.36387 0
M  V30 4924 N 455.427 5.54353 -1.72257 0
M  V30 4925 H 458.192 1.56015 -2.55889 0
M  V30 4926 H 455.753 0.715152 -1.45249 0
M  V30 4927 H 457.745 3.80264 -1.38496 0
M  V30 4928 H 456.315 3.06352 -0.621887 0
M  V30 4929 H 455.535 2.50473 -3.04396 0
M  V30 4930 H 456.823 3.58017 -3.61527 0
M  V30 4931 H 456.221 5.54617 -1.11431 0
M  V30 4932 H 454.778 6.30347 -1.65849 0
M  V30 4933 N 458.211 1.37122 0.776871 0
M  V30 4934 C 459.121 1.34651 1.9211 0
M  V30 4935 C 460.137 0.246824 1.7224 0
M  V30 4936 O 461.313 0.48134 1.95563 0
M  V30 4937 C 458.378 1.14748 3.2716 0
M  V30 4938 C 457.439 2.34308 3.5972 0
M  V30 4939 C 456.672 2.15345 4.88326 0
M  V30 4940 O 456.895 1.13507 5.58992 0
M  V30 4941 O 455.829 3.03414 5.1983 0
M  V30 4942 H 459.655 2.31013 1.97146 0
M  V30 4943 H 457.24 1.17799 0.918901 0
M  V30 4944 H 459.122 1.05616 4.0795 0
M  V30 4945 H 457.797 0.214562 3.22988 0
M  V30 4946 H 456.704 2.49011 2.79185 0
M  V30 4947 H 458.037 3.26149 3.68629 0
M  V30 4948 N 459.689 -1.00246 1.21608 0
M  V30 4949 C 460.619 -2.10921 1.00172 0
M  V30 4950 C 461.6 -1.69938 -0.0741587 0
M  V30 4951 O 462.785 -1.94009 0.0861753 0
M  V30 4952 C 459.915 -3.42618 0.568355 0
M  V30 4953 C 458.869 -3.97407 1.58909 0
M  V30 4954 C 458.195 -5.25038 1.01187 0
M  V30 4955 C 459.495 -4.2918 2.97661 0
M  V30 4956 H 461.189 -2.29112 1.92739 0
M  V30 4957 H 458.735 -1.10101 0.928102 0
M  V30 4958 H 460.688 -4.19444 0.405555 0
M  V30 4959 H 459.412 -3.24227 -0.392961 0
M  V30 4960 H 458.071 -3.22703 1.73949 0
M  V30 4961 H 457.719 -5.02982 0.0421965 0
M  V30 4962 H 457.419 -5.62661 1.6937 0
M  V30 4963 H 458.943 -6.04507 0.860448 0
M  V30 4964 H 460.357 -4.96839 2.86049 0
M  V30 4965 H 458.754 -4.77952 3.6288 0
M  V30 4966 H 459.824 -3.3735 3.48315 0
M  V30 4967 N 461.167 -1.02423 -1.1978 0
M  V30 4968 C 462.392 -0.7373 -1.93852 0
M  V30 4969 C 462.817 0.696923 -1.74713 0
M  V30 4970 O 462.175 1.48056 -1.04638 0
M  V30 4971 C 462.223 -1.08783 -3.438 0
M  V30 4972 O 461.327 -0.20383 -4.11896 0
M  V30 4973 H 460.668 -0.27284 -0.605355 0
M  V30 4974 H 463.198 -1.36966 -1.51992 0
M  V30 4975 H 463.208 -1.04276 -3.9445 0
M  V30 4976 H 461.883 -2.13274 -3.57053 0
M  V30 4977 H 460.46 -0.307091 -3.71633 0
M  V30 4978 N 462.645 1.35699 -0.801477 0
M  V30 4979 C 463.87 2.03687 -0.390678 0
M  V30 4980 C 464.295 1.60015 0.988778 0
M  V30 4981 O 463.653 0.774357 1.63931 0
M  V30 4982 C 463.701 3.57439 -0.476404 0
M  V30 4983 O 462.805 4.09208 0.512106 0
M  V30 4984 H 462.146 0.64344 -0.163956 0
M  V30 4985 H 464.676 1.73403 -1.08594 0
M  V30 4986 H 464.686 4.06544 -0.344357 0
M  V30 4987 H 463.361 3.88576 -1.48262 0
M  V30 4988 H 461.938 3.7134 0.340721 0
M  V30 4989 N 464.123 0.554532 1.47522 0
M  V30 4990 C 465.053 -0.182974 2.32782 0
M  V30 4991 C 466.034 -0.911377 1.43624 0
M  V30 4992 O 467.219 -0.892366 1.72483 0
M  V30 4993 C 464.349 -1.21513 3.25349 0
M  V30 4994 C 463.303 -0.603355 4.23726 0
M  V30 4995 C 462.629 -1.73995 5.05598 0
M  V30 4996 C 463.929 0.441121 5.20434 0
M  V30 4997 H 465.623 0.52882 2.94693 0
M  V30 4998 H 463.169 0.255759 1.41711 0
M  V30 4999 H 465.122 -1.73922 3.83835 0
M  V30 5000 H 463.846 -1.95683 2.61487 0
M  V30 5001 H 462.505 -0.10059 3.66462 0
M  V30 5002 H 462.153 -2.47063 4.38143 0
M  V30 5003 H 461.853 -1.3364 5.72201 0
M  V30 5004 H 463.377 -2.26735 5.66942 0
M  V30 5005 H 464.791 0.00319931 5.733 0
M  V30 5006 H 463.188 0.763402 5.95224 0
M  V30 5007 H 464.258 1.33799 4.66075 0
M  V30 5008 N 465.601 -1.54893 0.290851 0
M  V30 5009 C 466.511 -2.26812 -0.59945 0
M  V30 5010 C 467.527 -1.29963 -1.15696 0
M  V30 5011 O 468.703 -1.62928 -1.18391 0
M  V30 5012 C 465.768 -2.98716 -1.75982 0
M  V30 5013 C 464.829 -4.1108 -1.2374 0
M  V30 5014 C 464.062 -4.79546 -2.34246 0
M  V30 5015 O 464.285 -4.47309 -3.53936 0
M  V30 5016 O 463.219 -5.67165 -2.01512 0
M  V30 5017 H 467.045 -3.03696 -0.0163561 0
M  V30 5018 H 464.63 -1.49289 0.0576755 0
M  V30 5019 H 466.512 -3.43851 -2.43607 0
M  V30 5020 H 465.187 -2.24737 -2.3297 0
M  V30 5021 H 464.094 -3.70367 -0.527163 0
M  V30 5022 H 465.427 -4.87007 -0.71307 0
M  V30 5023 O 467.118 -0.15707 -1.60734 0
M  V30 5024 H 467.809 0.435157 -1.88749 0
M  V30 END ATOM
M  V30 BEGIN BOND
M  V30 END BOND
M  V30 END CTAB
M  END
$$$$
