drugbank_target|P46734 Dual specificity mitogen-activated protein kinase kinase 3 (DB12010)
 OpenBabel12092121163D

  0  0  0     0  0            999 V3000
M  V30 BEGIN CTAB
M  V30 COUNTS 5529 5587 0 0 0
M  V30 BEGIN ATOM
M  V30 1 H -0.908 1.98254 -0.117106 0
M  V30 2 N 0 1.576 0 0
M  V30 3 C 0.933 2.03868 1.02534 0
M  V30 4 C 1.911 0.928543 1.3348 0
M  V30 5 O 3.095 1.19667 1.45644 0
M  V30 6 C 0.222 2.43627 2.35294 0
M  V30 7 C -0.732 3.65373 2.2001 0
M  V30 8 S 0.101 5.13292 1.52614 0
M  V30 9 C 1.257 5.56322 2.86805 0
M  V30 10 H 1.49 2.90518 0.631377 0
M  V30 11 H -0.977 1.52953 0.210867 0
M  V30 12 H 0.981 2.67203 3.11629 0
M  V30 13 H -0.358 1.57376 2.7183 0
M  V30 14 H -1.165 3.90944 3.18086 0
M  V30 15 H -1.563 3.418 1.51819 0
M  V30 16 H 0.729 5.58782 3.83104 0
M  V30 17 H 1.672 6.56266 2.65933 0
M  V30 18 H 2.08 4.83886 2.90714 0
M  V30 19 N 1.4781 -0.272755 1.55222 0
M  V30 20 C 2.3881 -1.35918 1.91216 0
M  V30 21 C 3.4041 -1.54026 0.809436 0
M  V30 22 O 4.5801 -1.68148 1.10852 0
M  V30 23 C 1.6451 -2.69834 2.17693 0
M  V30 24 C 0.7061 -2.6047 3.41253 0
M  V30 25 C -0.0609 -3.88 3.66458 0
M  V30 26 O 0.1621 -4.88693 2.94169 0
M  V30 27 O -0.9039 -3.88189 4.59992 0
M  V30 28 H 2.9221 -1.0839 2.83699 0
M  V30 29 H 0.5071 -0.471301 1.41771 0
M  V30 30 H 2.3891 -3.49017 2.36147 0
M  V30 31 H 1.0641 -2.97148 1.28392 0
M  V30 32 H -0.0289 -1.79663 3.28134 0
M  V30 33 H 1.3041 -2.38106 4.30774 0
M  V30 34 N 2.9562 -1.48159 -0.537278 0
M  V30 35 C 4.1812 -1.59707 -1.32319 0
M  V30 36 C 4.6062 -0.254859 -1.86365 0
M  V30 37 O 3.9642 0.772378 -1.64024 0
M  V30 38 C 4.0122 -2.6412 -2.45505 0
M  V30 39 O 3.1162 -2.20774 -3.48328 0
M  V30 40 H 2.4572 -0.535791 -0.392204 0
M  V30 41 H 4.9872 -1.94092 -0.647268 0
M  V30 42 H 4.9972 -2.85166 -2.91795 0
M  V30 43 H 3.6722 -3.61567 -2.05528 0
M  V30 44 H 2.2492 -2.09911 -3.08207 0
M  V30 45 N 4.4343 0.785586 -1.36625 0
M  V30 46 C 5.8453 1.36101 -1.27803 0
M  V30 47 C 6.1963 1.96035 0.0804875 0
M  V30 48 O 5.3213 1.92834 0.982042 0
M  V30 49 C 5.9163 2.47442 -2.31426 0
M  V30 50 C 4.4753 3.00789 -2.26281 0
M  V30 51 C 3.6223 1.73896 -2.15999 0
M  V30 52 H 6.5733 0.586928 -1.47448 0
M  V30 53 H 6.5943 3.2656 -1.95291 0
M  V30 54 H 6.1063 2.03791 -3.30289 0
M  V30 55 H 4.2073 3.48851 -1.30896 0
M  V30 56 H 4.3203 3.57343 -3.19128 0
M  V30 57 H 2.6843 1.9628 -1.62316 0
M  V30 58 H 3.4673 1.32368 -3.16755 0
M  V30 59 N 5.9124 1.20967 1.01018 0
M  V30 60 C 6.8754 0.965918 2.07853 0
M  V30 61 C 7.8754 -0.0610545 1.60684 0
M  V30 62 O 9.0654 0.175681 1.73312 0
M  V30 63 C 6.1974 0.455513 3.37843 0
M  V30 64 H 7.3904 1.91365 2.3091 0
M  V30 65 H 4.9434 1.02594 1.17916 0
M  V30 66 H 5.6784 -0.497381 3.20463 0
M  V30 67 H 5.4634 1.19622 3.73407 0
M  V30 68 H 6.9534 0.304667 4.16487 0
M  V30 69 N 7.3905 -1.2043 1.01659 0
M  V30 70 C 8.6155 -1.94318 0.724942 0
M  V30 71 C 9.0405 -1.74266 -0.708034 0
M  V30 72 O 8.3985 -1.03694 -1.48719 0
M  V30 73 C 8.4465 -3.44486 1.06591 0
M  V30 74 O 7.5505 -4.12017 0.177599 0
M  V30 75 H 6.8915 -0.60708 0.26898 0
M  V30 76 H 9.4215 -1.52861 1.35995 0
M  V30 77 H 9.4315 -3.95106 1.01762 0
M  V30 78 H 8.1065 -3.58404 2.10997 0
M  V30 79 H 6.6835 -3.71821 0.283421 0
M  V30 80 N 8.8686 -0.792821 -1.36206 0
M  V30 81 C 10.0936 -0.377701 -2.03932 0
M  V30 82 C 10.5186 0.998947 -1.59382 0
M  V30 83 O 9.8766 1.64421 -0.763903 0
M  V30 84 C 9.9246 -0.453635 -3.57735 0
M  V30 85 O 9.0286 0.538151 -4.08874 0
M  V30 86 H 8.3696 -0.159855 -0.644471 0
M  V30 87 H 10.8996 -1.07488 -1.7409 0
M  V30 88 H 10.9096 -0.318464 -4.06755 0
M  V30 89 H 9.5846 -1.45784 -3.89512 0
M  V30 90 H 8.1616 0.364359 -3.71116 0
M  V30 91 N 10.3467 1.47872 -0.545128 0
M  V30 92 C 11.2787 2.27869 0.246621 0
M  V30 93 C 12.2917 1.36282 0.890561 0
M  V30 94 O 13.4807 1.61207 0.766449 0
M  V30 95 C 10.5807 3.10159 1.36582 0
M  V30 96 C 9.7537 4.29627 0.820954 0
M  V30 97 C 8.8127 4.93607 1.82314 0
M  V30 98 O 7.8387 5.52366 1.37406 0
M  V30 99 N 9.0407 4.87211 3.15603 0
M  V30 100 H 11.8057 2.96459 -0.439539 0
M  V30 101 H 9.3667 1.57367 -0.380421 0
M  V30 102 H 11.3587 3.49829 2.03474 0
M  V30 103 H 9.9287 2.43891 1.9554 0
M  V30 104 H 9.1487 3.94192 -0.0244032 0
M  V30 105 H 10.4367 5.06928 0.436063 0
M  V30 106 H 9.8347 4.40651 3.54744 0
M  V30 107 H 8.3917 5.30937 3.78087 0
M  V30 108 N 11.8248 0.280983 1.55075 0
M  V30 109 C 13.2358 -0.215629 1.85451 0
M  V30 110 C 13.5868 -1.54991 1.203 0
M  V30 111 O 12.7118 -2.10699 0.493435 0
M  V30 112 C 13.3068 -0.398026 3.36454 0
M  V30 113 C 11.8658 -0.838866 3.66933 0
M  V30 114 C 11.0128 0.064458 2.77225 0
M  V30 115 H 13.9638 0.502601 1.50531 0
M  V30 116 H 13.9848 -1.23569 3.59876 0
M  V30 117 H 13.4968 0.573241 3.83843 0
M  V30 118 H 11.5978 -1.8214 3.25048 0
M  V30 119 H 11.7108 -0.672123 4.74362 0
M  V30 120 H 10.0748 -0.452863 2.50642 0
M  V30 121 H 10.8578 1.03172 3.2743 0
M  V30 122 N 13.3029 -1.57598 0.00835791 0
M  V30 123 C 14.2659 -2.07884 -0.965242 0
M  V30 124 C 15.2659 -0.989825 -1.26725 0
M  V30 125 O 16.4559 -1.25218 -1.21104 0
M  V30 126 C 13.5879 -2.52731 -2.28779 0
M  V30 127 H 14.7809 -2.95178 -0.530112 0
M  V30 128 H 12.3339 -1.54458 -0.239283 0
M  V30 129 H 13.0689 -1.68705 -2.76964 0
M  V30 130 H 12.8539 -3.32272 -2.08177 0
M  V30 131 H 14.3439 -2.91933 -2.98605 0
M  V30 132 N 14.781 0.264519 -1.55364 0
M  V30 133 C 16.006 1.01726 -1.80739 0
M  V30 134 C 16.431 1.78836 -0.583044 0
M  V30 135 O 15.789 1.75167 0.467566 0
M  V30 136 C 15.837 1.94482 -3.03659 0
M  V30 137 O 14.941 3.03386 -2.7934 0
M  V30 138 H 14.282 0.290395 -0.597132 0
M  V30 139 H 16.812 0.290854 -2.02522 0
M  V30 140 H 16.822 2.36278 -3.32621 0
M  V30 141 H 15.497 1.37772 -3.92418 0
M  V30 142 H 14.074 2.65844 -2.61498 0
M  V30 143 N 16.2591 1.48442 0.529413 0
M  V30 144 C 17.1921 1.57577 1.65059 0
M  V30 145 C 18.1701 0.426198 1.56915 0
M  V30 146 O 19.3541 0.637877 1.77379 0
M  V30 147 C 16.4811 1.5043 3.03461 0
M  V30 148 C 15.5271 2.70235 3.29962 0
M  V30 149 S 16.3601 4.32198 3.16172 0
M  V30 150 C 17.5161 4.2765 4.57019 0
M  V30 151 H 17.7491 2.52427 1.5706 0
M  V30 152 H 15.2821 1.36982 0.712417 0
M  V30 153 H 17.2401 1.46992 3.8328 0
M  V30 154 H 15.9011 0.569167 3.089 0
M  V30 155 H 15.0941 2.61374 4.30929 0
M  V30 156 H 14.6961 2.70938 2.57815 0
M  V30 157 H 16.9881 3.97618 5.48549 0
M  V30 158 H 17.9311 5.28797 4.70934 0
M  V30 159 H 18.3391 3.5811 4.36368 0
M  V30 160 N 17.7372 -0.778329 1.37039 0
M  V30 161 C 19.1482 -1.35421 1.28523 0
M  V30 162 C 19.4992 -1.96075 -0.0700901 0
M  V30 163 O 18.6242 -1.93352 -0.971801 0
M  V30 164 C 19.2192 -2.46211 2.32735 0
M  V30 165 C 17.7782 -2.99585 2.27873 0
M  V30 166 C 16.9252 -1.72748 2.16918 0
M  V30 167 H 19.8762 -0.5791 1.47757 0
M  V30 168 H 19.8972 -3.2552 1.9702 0
M  V30 169 H 19.4092 -2.02036 3.31365 0
M  V30 170 H 17.5102 -3.48152 1.32745 0
M  V30 171 H 17.6232 -3.55646 3.21018 0
M  V30 172 H 15.9872 -1.95416 1.63354 0
M  V30 173 H 16.7702 -1.30686 3.17452 0
M  V30 174 N 19.2153 -1.21501 -1.00376 0
M  V30 175 C 20.1473 -0.933174 -2.09343 0
M  V30 176 C 21.1603 0.0840896 -1.62583 0
M  V30 177 O 22.3493 -0.148563 -1.77881 0
M  V30 178 C 19.4493 -0.379869 -3.36764 0
M  V30 179 C 18.6223 -1.45176 -4.12605 0
M  V30 180 C 17.6813 -0.907476 -5.18316 0
M  V30 181 O 16.7073 -1.5912 -5.46507 0
M  V30 182 N 17.9093 0.276649 -5.7984 0
M  V30 183 H 20.6743 -1.87124 -2.34104 0
M  V30 184 H 18.2353 -1.12043 -1.16867 0
M  V30 185 H 20.2273 -0.00131488 -4.047 0
M  V30 186 H 18.7973 0.463048 -3.09151 0
M  V30 187 H 18.0173 -2.00411 -3.39454 0
M  V30 188 H 19.3053 -2.17328 -4.6005 0
M  V30 189 H 18.7033 0.849147 -5.59291 0
M  V30 190 H 17.2603 0.596702 -6.49063 0
M  V30 191 N 20.6934 1.19889 -1.02296 0
M  V30 192 C 21.9184 1.9393 -0.735237 0
M  V30 193 C 22.3434 1.74639 0.698782 0
M  V30 194 O 21.7014 1.04481 1.48167 0
M  V30 195 C 21.7494 3.43916 -1.08417 0
M  V30 196 O 20.8534 4.11917 -0.199446 0
M  V30 197 H 20.1944 0.605645 -0.272196 0
M  V30 198 H 22.7244 1.52137 -1.36804 0
M  V30 199 H 22.7344 3.9456 -1.03856 0
M  V30 200 H 21.4094 3.5728 -2.12894 0
M  V30 201 H 19.9864 3.71666 -0.303136 0
M  V30 202 N 22.1715 0.800033 1.35784 0
M  V30 203 C 23.1185 0.203848 2.29898 0
M  V30 204 C 24.0885 -0.658375 1.52495 0
M  V30 205 O 25.2735 -0.604832 1.8096 0
M  V30 206 C 22.4135 -0.64688 3.38983 0
M  V30 207 C 21.5265 0.235054 4.3136 0
M  V30 208 C 20.6615 -0.623054 5.27533 0
M  V30 209 C 19.7005 0.259682 6.11549 0
M  V30 210 N 18.8375 -0.558019 6.99879 0
M  V30 211 H 23.6775 1.01186 2.80295 0
M  V30 212 H 21.2145 0.51053 1.37957 0
M  V30 213 H 23.1725 -1.15521 4.00887 0
M  V30 214 H 21.8025 -1.42021 2.89879 0
M  V30 215 H 20.8545 0.861438 3.70518 0
M  V30 216 H 22.1665 0.914768 4.9034 0
M  V30 217 H 21.3205 -1.19678 5.94779 0
M  V30 218 H 20.0595 -1.33636 4.69034 0
M  V30 219 H 19.0645 0.845726 5.43256 0
M  V30 220 H 20.2895 0.970748 6.72126 0
M  V30 221 H 18.2355 -1.25542 6.43875 0
M  V30 222 H 18.1525 0.0637872 7.55973 0
M  V30 223 H 19.4205 -1.11523 7.71481 0
M  V30 224 N 23.6496 -1.47581 0.552962 0
M  V30 225 C 24.8976 -2.02082 0.0272703 0
M  V30 226 C 25.2186 -1.4301 -1.32563 0
M  V30 227 O 24.4886 -0.603745 -1.86365 0
M  V30 228 H 23.0686 -0.746966 0.00709182 0
M  V30 229 H 25.7306 -1.81033 0.722008 0
M  V30 230 H 24.8266 -3.12034 -0.0639951 0
M  V30 231 N 25.1277 -0.289203 -1.54924 0
M  V30 232 C 26.0747 0.592115 -2.23075 0
M  V30 233 C 27.0447 1.13881 -1.20915 0
M  V30 234 O 28.2297 1.18551 -1.495 0
M  V30 235 C 25.3697 1.76376 -2.96623 0
M  V30 236 C 24.4827 1.24959 -4.13533 0
M  V30 237 C 23.6177 2.38416 -4.74691 0
M  V30 238 C 22.6567 1.84072 -5.83767 0
M  V30 239 N 21.7937 2.91057 -6.38929 0
M  V30 240 H 26.6337 0.00432038 -2.98 0
M  V30 241 H 24.1707 -0.00963529 -1.47097 0
M  V30 242 H 26.1287 2.45268 -3.3749 0
M  V30 243 H 24.7587 2.32337 -2.24097 0
M  V30 244 H 23.8107 0.453307 -3.77689 0
M  V30 245 H 25.1227 0.811662 -4.92152 0
M  V30 246 H 24.2767 3.15276 -5.18349 0
M  V30 247 H 23.0157 2.8553 -3.95378 0
M  V30 248 H 22.0207 1.05697 -5.39545 0
M  V30 249 H 23.2457 1.37877 -6.64956 0
M  V30 250 H 21.1917 3.37526 -5.62505 0
M  V30 251 H 21.1087 2.51724 -7.12861 0
M  V30 252 H 22.3767 3.6785 -6.87246 0
M  V30 253 N 26.6058 1.57591 -0.0167156 0
M  V30 254 C 27.8308 1.9598 0.67872 0
M  V30 255 C 28.2558 0.892546 1.65575 0
M  V30 256 O 27.6138 -0.147772 1.80697 0
M  V30 257 C 27.6618 3.33468 1.37227 0
M  V30 258 O 26.7658 3.28954 2.48722 0
M  V30 259 H 26.1068 0.639339 0.17928 0
M  V30 260 H 28.6368 2.04463 -0.0748802 0
M  V30 261 H 28.6468 3.69417 1.7319 0
M  V30 262 H 27.3218 4.10694 0.656007 0
M  V30 263 H 25.8988 3.04705 2.14963 0
M  V30 264 N 28.0839 -0.256276 1.55502 0
M  V30 265 C 29.0309 -1.31714 1.89526 0
M  V30 266 C 30.0009 -1.4828 0.748479 0
M  V30 267 O 31.1859 -1.62416 1.00128 0
M  V30 268 C 28.3259 -2.66933 2.18725 0
M  V30 269 C 27.4389 -2.58452 3.4616 0
M  V30 270 C 26.5739 -3.85961 3.64976 0
M  V30 271 C 25.6129 -3.72059 4.86044 0
M  V30 272 N 24.7499 -4.9144 5.01429 0
M  V30 273 H 29.5899 -1.01998 2.80001 0
M  V30 274 H 27.1269 -0.492413 1.38613 0
M  V30 275 H 29.0849 -3.4563 2.33657 0
M  V30 276 H 27.7149 -2.94816 1.31466 0
M  V30 277 H 26.7669 -1.71374 3.3961 0
M  V30 278 H 28.0789 -2.44085 4.34999 0
M  V30 279 H 27.2329 -4.73101 3.79816 0
M  V30 280 H 25.9719 -4.03215 2.74353 0
M  V30 281 H 24.9769 -2.83302 4.7119 0
M  V30 282 H 26.2019 -3.56309 5.78118 0
M  V30 283 H 24.1479 -5.09072 4.13741 0
M  V30 284 H 24.0649 -4.79668 5.84341 0
M  V30 285 H 25.3329 -5.80104 5.20672 0
M  V30 286 N 29.562 -1.4872 -0.521534 0
M  V30 287 C 30.978 -1.35028 -0.850855 0
M  V30 288 C 31.178 -0.367712 -1.98116 0
M  V30 289 O 30.234 0.208037 -2.51642 0
M  V30 290 C 31.547 -2.75263 -1.21041 0
M  V30 291 C 33.095 -2.83813 -1.31981 0
M  V30 292 C 33.57 -4.24769 -1.71276 0
M  V30 293 N 35.061 -4.27482 -1.78363 0
M  V30 294 C 35.796 -5.33494 -2.1017 0
M  V30 295 N 35.292 -6.49775 -2.40343 0
M  V30 296 N 37.085 -5.20894 -2.11248 0
M  V30 297 H 29.236 -2.11214 0.22413 0
M  V30 298 H 31.499 -0.947252 0.0376439 0
M  V30 299 H 31.205 -3.48765 -0.453415 0
M  V30 300 H 31.079 -3.09327 -2.15863 0
M  V30 301 H 33.466 -2.10561 -2.06756 0
M  V30 302 H 33.547 -2.53358 -0.352596 0
M  V30 303 H 33.191 -4.9854 -0.970588 0
M  V30 304 H 33.121 -4.52673 -2.69062 0
M  V30 305 H 35.612 -3.43611 -1.57288 0
M  V30 306 H 35.925 -7.26402 -2.63743 0
M  V30 307 H 34.27 -6.53035 -2.37844 0
M  V30 308 H 37.461 -4.29065 -1.87139 0
M  V30 309 H 37.634 -6.03612 -2.35704 0
M  V30 310 N 31.0401 0.771051 -1.3745 0
M  V30 311 C 31.9871 1.88435 -1.3327 0
M  V30 312 C 32.9571 1.64914 -0.198136 0
M  V30 313 O 34.1421 1.86821 -0.387606 0
M  V30 314 C 31.2821 3.25509 -1.14622 0
M  V30 315 C 30.3951 3.60979 -2.37314 0
M  V30 316 C 29.5301 4.87265 -2.11533 0
M  V30 317 C 28.5691 5.15469 -3.30088 0
M  V30 318 N 27.7061 6.32944 -3.03853 0
M  V30 319 H 32.5461 1.91344 -2.28455 0
M  V30 320 H 30.0831 0.935466 -1.13523 0
M  V30 321 H 32.0411 4.04582 -1.01831 0
M  V30 322 H 30.6711 3.21974 -0.230837 0
M  V30 323 H 29.7231 2.76885 -2.60842 0
M  V30 324 H 31.0351 3.77759 -3.25729 0
M  V30 325 H 30.1891 5.74244 -1.95777 0
M  V30 326 H 28.9281 4.7259 -1.20457 0
M  V30 327 H 27.9331 4.26966 -3.46382 0
M  V30 328 H 29.1581 5.32052 -4.22016 0
M  V30 329 H 27.1041 6.19625 -2.15407 0
M  V30 330 H 27.0211 6.50143 -3.85812 0
M  V30 331 H 28.2891 7.22857 -2.91716 0
M  V30 332 N 32.5182 1.22032 0.997298 0
M  V30 333 C 33.4652 0.986467 2.08656 0
M  V30 334 C 34.4352 -0.0902671 1.65855 0
M  V30 335 O 35.6202 0.0584294 1.90711 0
M  V30 336 C 32.7602 0.565569 3.40434 0
M  V30 337 C 31.8732 1.71259 3.96604 0
M  V30 338 C 31.0082 1.24011 5.16522 0
M  V30 339 C 30.0472 2.35896 5.64818 0
M  V30 340 N 29.1842 1.89726 6.7598 0
M  V30 341 H 34.0242 1.91892 2.27994 0
M  V30 342 H 31.5612 0.956199 1.11782 0
M  V30 343 H 33.5192 0.302738 4.161 0
M  V30 344 H 32.1492 -0.329879 3.2111 0
M  V30 345 H 31.2012 2.08986 3.17851 0
M  V30 346 H 32.5132 2.55436 4.28432 0
M  V30 347 H 31.6672 0.934395 5.99461 0
M  V30 348 H 30.4062 0.368487 4.86306 0
M  V30 349 H 29.4112 2.67261 4.8047 0
M  V30 350 H 30.6362 3.23567 5.97061 0
M  V30 351 H 28.5822 1.0492 6.47555 0
M  V30 352 H 28.4992 2.67471 7.07103 0
M  V30 353 H 29.7672 1.62211 7.62435 0
M  V30 354 N 33.9963 -1.19345 1.0293 0
M  V30 355 C 35.2733 -1.84811 0.640642 0
M  V30 356 C 35.6533 -1.91855 -0.88062 0
M  V30 357 O 35.0013 -1.43587 -1.7775 0
M  V30 358 C 35.2113 -3.23755 1.30321 0
M  V30 359 C 36.5593 -3.99912 1.42673 0
M  V30 360 O 37.5833 -3.33155 1.26041 0
M  V30 361 O 36.4423 -5.19494 1.6967 0
M  V30 362 H 33.5363 -0.796443 0.222726 0
M  V30 363 H 36.0823 -1.26831 1.12748 0
M  V30 364 H 34.8543 -3.13466 2.34211 0
M  V30 365 H 34.4773 -3.89381 0.804261 0
M  V30 366 N 35.4744 -0.807222 -1.35358 0
M  V30 367 C 36.4044 -0.232509 -2.3234 0
M  V30 368 C 37.3854 0.642386 -1.57504 0
M  V30 369 O 38.5704 0.572526 -1.85569 0
M  V30 370 C 35.7004 0.619238 -3.41735 0
M  V30 371 C 34.6544 -0.157215 -4.27711 0
M  V30 372 C 33.9804 0.816273 -5.28433 0
M  V30 373 C 35.2804 -1.35656 -5.04376 0
M  V30 374 H 36.9744 -1.04276 -2.80654 0
M  V30 375 H 34.5204 -0.50288 -1.34934 0
M  V30 376 H 36.4734 1.03137 -4.08584 0
M  V30 377 H 35.1974 1.46239 -2.92031 0
M  V30 378 H 33.8564 -0.550525 -3.62443 0
M  V30 379 H 33.5044 1.65494 -4.74996 0
M  V30 380 H 33.2044 0.301067 -5.86828 0
M  V30 381 H 34.7284 1.22659 -5.98153 0
M  V30 382 H 36.1424 -1.01927 -5.64166 0
M  V30 383 H 34.5394 -1.8063 -5.7227 0
M  V30 384 H 35.6094 -2.14288 -4.34981 0
M  V30 385 N 36.9525 1.47285 -0.560781 0
M  V30 386 C 38.3685 1.58065 -0.22081 0
M  V30 387 C 38.5685 1.55892 1.27671 0
M  V30 388 O 37.6245 1.46422 2.0571 0
M  V30 389 C 38.9375 2.88418 -0.850625 0
M  V30 390 C 40.4855 3.02009 -0.822184 0
M  V30 391 C 40.9605 4.35066 -1.43113 0
M  V30 392 N 42.4515 4.41711 -1.39448 0
M  V30 393 C 43.1865 5.43237 -1.83525 0
M  V30 394 N 42.6825 6.51555 -2.35474 0
M  V30 395 N 44.4755 5.34304 -1.74574 0
M  V30 396 H 36.6265 1.46941 -1.53369 0
M  V30 397 H 38.8895 0.699558 -0.639783 0
M  V30 398 H 38.5955 2.95755 -1.9032 0
M  V30 399 H 38.4695 3.75612 -0.345773 0
M  V30 400 H 40.8565 2.94266 0.221714 0
M  V30 401 H 40.9375 2.16347 -1.36483 0
M  V30 402 H 40.5815 4.43565 -2.47412 0
M  V30 403 H 40.5115 5.19465 -0.863899 0
M  V30 404 H 43.0025 3.64027 -1.01452 0
M  V30 405 H 43.3155 7.25203 -2.67021 0
M  V30 406 H 41.6605 6.52435 -2.39487 0
M  V30 407 H 44.8515 4.48581 -1.33763 0
M  V30 408 H 45.0245 6.13288 -2.09242 0
M  V30 409 N 38.4306 0.297415 1.54768 0
M  V30 410 C 39.6796 -0.313669 1.99246 0
M  V30 411 C 39.9926 -1.55281 1.18942 0
M  V30 412 O 41.1986 -2.23825 1.5367 0
M  V30 413 C 39.6546 -0.609407 3.54703 0
M  V30 414 C 39.2626 0.611192 4.43811 0
M  V30 415 C 41.0066 -1.18188 4.07715 0
M  V30 416 C 38.9136 0.288805 5.90694 0
M  V30 417 H 37.8436 -0.120979 0.744231 0
M  V30 418 H 40.4946 0.40556 1.78962 0
M  V30 419 H 38.8766 -1.38813 3.70873 0
M  V30 420 H 40.0506 1.3875 4.39414 0
M  V30 421 H 38.3656 1.10205 4.01552 0
M  V30 422 H 40.9626 -1.43727 5.15021 0
M  V30 423 H 41.3056 -2.12299 3.58099 0
M  V30 424 H 41.8386 -0.464944 3.95074 0
M  V30 425 H 38.5776 1.19838 6.44453 0
M  V30 426 H 38.0976 -0.450305 5.98107 0
M  V30 427 H 39.7766 -0.110933 6.46905 0
M  V30 428 N 39.9087 -1.5758 0.0250728 0
M  V30 429 C 41.1337 -1.96337 -0.668317 0
M  V30 430 C 41.5587 -0.901314 -1.651 0
M  V30 431 O 40.9167 0.138187 -1.80773 0
M  V30 432 C 40.9647 -3.34191 -1.35457 0
M  V30 433 O 40.0687 -3.30269 -2.46974 0
M  V30 434 H 39.4097 -0.640281 -0.175887 0
M  V30 435 H 41.9397 -2.0442 0.0857224 0
M  V30 436 H 41.9497 -3.70331 -1.71228 0
M  V30 437 H 40.6247 -4.11036 -0.634218 0
M  V30 438 H 39.2017 -3.05841 -2.13344 0
M  V30 439 N 41.3868 0.248026 -1.55636 0
M  V30 440 C 42.6268 0.983592 -1.79178 0
M  V30 441 C 42.9908 1.82567 -0.594414 0
M  V30 442 O 44.1918 2.59292 -0.708583 0
M  V30 443 C 42.4628 1.82228 -3.07454 0
M  V30 444 S 44.0218 2.61709 -3.52213 0
M  V30 445 H 40.8398 0.330866 -0.629324 0
M  V30 446 H 43.4418 0.251562 -1.93875 0
M  V30 447 H 42.1458 1.19333 -3.92668 0
M  V30 448 H 41.6768 2.59708 -2.95492 0
M  V30 449 H 43.6918 3.84655 -3.13457 0
M  V30 450 N 42.8649 1.48995 0.513639 0
M  V30 451 C 43.7979 1.59319 1.63379 0
M  V30 452 C 44.7759 0.442816 1.56454 0
M  V30 453 O 45.9599 0.656655 1.76693 0
M  V30 454 C 43.0869 1.5364 3.01848 0
M  V30 455 C 42.1329 2.7372 3.27078 0
M  V30 456 S 42.9659 4.35528 3.1157 0
M  V30 457 C 44.1219 4.32473 4.52458 0
M  V30 458 H 44.3549 2.54079 1.54374 0
M  V30 459 H 41.8879 1.3773 0.697849 0
M  V30 460 H 43.8459 1.51049 3.81699 0
M  V30 461 H 42.5069 0.601898 3.08279 0
M  V30 462 H 41.6999 2.6593 4.28132 0
M  V30 463 H 41.3019 2.73657 2.54927 0
M  V30 464 H 43.5939 4.03414 5.44301 0
M  V30 465 H 44.5369 5.33762 4.65299 0
M  V30 466 H 44.9449 3.62718 4.32546 0
M  V30 467 N 44.343 -0.763751 1.37857 0
M  V30 468 C 45.568 -1.55805 1.36893 0
M  V30 469 C 45.993 -1.88054 -0.0416135 0
M  V30 470 O 45.351 -1.49825 -1.02089 0
M  V30 471 C 45.399 -2.84012 2.22192 0
M  V30 472 O 44.503 -3.78732 1.63204 0
M  V30 473 H 43.844 -0.471638 0.46739 0
M  V30 474 H 46.374 -0.944657 1.81487 0
M  V30 475 H 46.384 -3.33037 2.35691 0
M  V30 476 H 45.059 -2.59869 3.24716 0
M  V30 477 H 43.636 -3.37402 1.58791 0
M  V30 478 N 45.8211 -1.22559 -0.990812 0
M  V30 479 C 46.7681 -0.997519 -2.0813 0
M  V30 480 C 47.7381 0.0814702 -1.659 0
M  V30 481 O 48.9231 -0.0685424 -1.90677 0
M  V30 482 C 46.0631 -0.583615 -3.40129 0
M  V30 483 C 45.1761 -1.7336 -3.9569 0
M  V30 484 C 44.3111 -1.26748 -5.15857 0
M  V30 485 C 43.3501 -2.38888 -5.63559 0
M  V30 486 N 42.4871 -1.93308 -6.74964 0
M  V30 487 H 47.3271 -1.93099 -2.26973 0
M  V30 488 H 44.8641 -0.962114 -1.11273 0
M  V30 489 H 46.8221 -0.324801 -4.15934 0
M  V30 490 H 45.4521 0.312845 -3.2128 0
M  V30 491 H 44.5041 -2.10669 -3.16738 0
M  V30 492 H 45.8161 -2.57704 -4.27071 0
M  V30 493 H 44.9701 -0.966173 -5.98957 0
M  V30 494 H 43.7091 -0.394272 -4.86104 0
M  V30 495 H 42.7141 -2.69805 -4.79046 0
M  V30 496 H 43.9391 -3.26728 -5.95336 0
M  V30 497 H 41.8851 -1.08352 -6.4699 0
M  V30 498 H 41.8021 -2.71217 -7.05675 0
M  V30 499 H 43.0701 -1.66252 -7.61564 0
M  V30 500 N 47.2992 1.18797 -1.03562 0
M  V30 501 C 48.7102 1.70322 -0.764676 0
M  V30 502 C 49.0612 1.82708 0.714996 0
M  V30 503 O 48.1862 1.50299 1.55689 0
M  V30 504 C 48.7812 3.09356 -1.38145 0
M  V30 505 C 47.3402 3.58114 -1.15895 0
M  V30 506 C 46.4872 2.34798 -1.4753 0
M  V30 507 H 49.4382 1.03543 -1.20268 0
M  V30 508 H 49.4592 3.72378 -0.781977 0
M  V30 509 H 48.9712 3.00309 -2.45837 0
M  V30 510 H 47.0722 3.72464 -0.100544 0
M  V30 511 H 47.1852 4.4184 -1.8524 0
M  V30 512 H 45.5492 2.38464 -0.894829 0
M  V30 513 H 46.3322 2.28375 -2.56319 0
M  V30 514 N 48.7773 0.814389 1.34928 0
M  V30 515 C 50.1883 0.458364 1.80986 0
M  V30 516 C 50.5393 -1.02042 1.67577 0
M  V30 517 O 49.6643 -1.79352 1.21086 0
M  V30 518 C 50.2593 0.825212 3.28597 0
M  V30 519 C 48.8183 0.521677 3.72767 0
M  V30 520 C 47.9653 1.04668 2.56788 0
M  V30 521 H 50.9163 1.00533 1.22795 0
M  V30 522 H 50.9373 0.12571 3.80292 0
M  V30 523 H 50.4493 1.90154 3.38324 0
M  V30 524 H 48.5503 -0.545589 3.68584 0
M  V30 525 H 48.6633 1.05977 4.67232 0
M  V30 526 H 47.0273 0.468622 2.50352 0
M  V30 527 H 47.8103 2.12927 2.6929 0
M  V30 528 N 50.2554 -1.46986 0.568584 0
M  V30 529 C 51.2184 -2.28624 -0.162366 0
M  V30 530 C 52.2184 -1.37596 -0.832103 0
M  V30 531 O 53.4084 -1.60115 -0.68622 0
M  V30 532 C 50.5404 -3.17596 -1.23878 0
M  V30 533 H 51.7334 -2.94722 0.554899 0
M  V30 534 H 49.2864 -1.52863 0.325976 0
M  V30 535 H 50.0214 -2.56214 -1.98808 0
M  V30 536 H 49.8064 -3.846 -0.763219 0
M  V30 537 H 51.2964 -3.79078 -1.75185 0
M  V30 538 N 51.7335 -0.305618 -1.54608 0
M  V30 539 C 53.1445 0.186098 -1.8577 0
M  V30 540 C 53.4955 1.53058 -1.22751 0
M  V30 541 O 52.6205 2.09888 -0.526893 0
M  V30 542 C 53.2155 0.344449 -3.37044 0
M  V30 543 C 51.7745 0.780384 -3.68221 0
M  V30 544 C 50.9215 -0.108554 -2.77087 0
M  V30 545 H 53.8725 -0.526485 -1.49712 0
M  V30 546 H 53.8935 1.17828 -3.61796 0
M  V30 547 H 53.4055 -0.634235 -3.82883 0
M  V30 548 H 51.5065 1.76945 -3.27904 0
M  V30 549 H 51.6195 0.596572 -4.75371 0
M  V30 550 H 49.9835 0.412931 -2.5133 0
M  V30 551 H 50.7665 -1.08368 -3.25747 0
M  V30 552 N 53.2116 1.57565 -0.0334293 0
M  V30 553 C 54.1596 2.1164 0.96496 0
M  V30 554 C 55.1536 1.04398 1.33407 0
M  V30 555 O 56.3596 1.22828 1.3158 0
M  V30 556 H 52.7346 0.676222 0.32898 0
M  V30 557 H 54.7056 2.94455 0.483614 0
M  V30 558 C 53.4546 2.66207 2.23672 0
M  V30 559 H 52.7776 3.48378 1.96145 0
M  V30 560 H 54.2176 3.07685 2.9173 0
M  V30 561 C 52.6766 1.59151 2.96939 0
M  V30 562 O 53.2066 0.993858 3.89211 0
M  V30 563 N 51.4126 1.31093 2.59351 0
M  V30 564 H 50.9596 1.7988 1.84393 0
M  V30 565 H 50.9176 0.596889 3.08682 0
M  V30 566 N 54.6897 -0.239769 1.55765 0
M  V30 567 C 56.1007 -0.808263 1.68297 0
M  V30 568 C 56.4517 -1.85736 0.632181 0
M  V30 569 O 55.5767 -2.15277 -0.220204 0
M  V30 570 C 56.1717 -1.47284 3.05111 0
M  V30 571 C 54.7307 -1.98895 3.19559 0
M  V30 572 C 53.8777 -0.842575 2.64189 0
M  V30 573 H 56.8287 -0.0154422 1.58692 0
M  V30 574 H 56.8497 -2.34111 2.99954 0
M  V30 575 H 56.3617 -0.709053 3.81568 0
M  V30 576 H 54.4627 -2.78132 2.47938 0
M  V30 577 H 54.5757 -2.18143 4.26556 0
M  V30 578 H 52.9397 -1.24501 2.22197 0
M  V30 579 H 53.7227 -0.0917552 3.43177 0
M  V30 580 N 56.1678 -1.49265 -0.50573 0
M  V30 581 C 57.3958 -1.62215 -1.28429 0
M  V30 582 C 57.8108 -0.291697 -1.86533 0
M  V30 583 O 57.1678 0.722233 -1.67601 0
M  V30 584 C 57.2188 -2.68735 -2.41793 0
M  V30 585 O 56.9398 -3.96619 -1.86078 0
M  V30 586 C 58.4408 -2.92346 -3.3324 0
M  V30 587 H 55.6608 -0.546239 -0.389697 0
M  V30 588 H 58.2048 -1.95265 -0.607609 0
M  V30 589 H 56.3598 -2.38476 -3.053 0
M  V30 590 H 56.7738 -4.55256 -2.60465 0
M  V30 591 H 58.2478 -3.70623 -4.09075 0
M  V30 592 H 58.7248 -2.02081 -3.89948 0
M  V30 593 H 59.3308 -3.24003 -2.75503 0
M  V30 594 N 57.6459 0.756429 -1.3826 0
M  V30 595 C 59.0569 1.33359 -1.30661 0
M  V30 596 C 59.4079 1.96161 0.0388875 0
M  V30 597 O 58.5329 1.94874 0.940918 0
M  V30 598 C 59.1279 2.42477 -2.36622 0
M  V30 599 C 57.6869 2.95922 -2.3261 0
M  V30 600 C 56.8339 1.69275 -2.19639 0
M  V30 601 H 59.7849 0.55552 -1.4866 0
M  V30 602 H 59.8059 3.22345 -2.02174 0
M  V30 603 H 59.3179 1.96739 -3.34538 0
M  V30 604 H 57.4189 3.45996 -1.38267 0
M  V30 605 H 57.5319 3.50494 -3.26636 0
M  V30 606 H 55.8959 1.92793 -1.66442 0
M  V30 607 H 56.6789 1.25619 -3.19491 0
M  V30 608 N 59.124 1.23083 0.984299 0
M  V30 609 C 60.535 1.05609 1.5396 0
M  V30 610 C 60.886 -0.377793 1.92528 0
M  V30 611 O 60.011 -1.26398 1.75649 0
M  V30 612 C 60.606 1.91087 2.7977 0
M  V30 613 C 59.165 1.77885 3.31713 0
M  V30 614 C 58.312 1.87028 2.04733 0
M  V30 615 H 61.263 1.36802 0.804419 0
M  V30 616 H 61.284 1.43336 3.5247 0
M  V30 617 H 60.796 2.9544 2.51668 0
M  V30 618 H 58.897 0.762995 3.64704 0
M  V30 619 H 59.01 2.61047 4.01735 0
M  V30 620 H 57.374 1.30565 2.18689 0
M  V30 621 H 58.157 2.92929 1.79017 0
M  V30 622 N 60.6021 -1.18246 1.0419 0
M  V30 623 C 62.0181 -1.40269 0.761366 0
M  V30 624 C 62.2181 -1.90777 -0.648578 0
M  V30 625 O 61.2741 -2.0929 -1.41258 0
M  V30 626 C 62.5871 -2.40237 1.8085 0
M  V30 627 C 64.1351 -2.53961 1.82955 0
M  V30 628 C 64.6101 -3.57194 2.86664 0
M  V30 629 N 66.1011 -3.64702 2.85563 0
M  V30 630 C 66.8361 -4.44309 3.6246 0
M  V30 631 N 66.3321 -5.27514 4.49111 0
M  V30 632 N 68.1251 -4.39084 3.50944 0
M  V30 633 H 60.2761 -0.837882 1.95175 0
M  V30 634 H 62.5391 -0.430608 0.84456 0
M  V30 635 H 62.2451 -2.10176 2.81991 0
M  V30 636 H 62.1191 -3.39601 1.64168 0
M  V30 637 H 64.5061 -2.83338 0.824855 0
M  V30 638 H 64.5871 -1.54706 2.03715 0
M  V30 639 H 64.2311 -3.28558 3.87314 0
M  V30 640 H 64.1611 -4.5613 2.6316 0
M  V30 641 H 66.6521 -3.05289 2.22727 0
M  V30 642 H 66.9651 -5.85411 5.04493 0
M  V30 643 H 65.3101 -5.2693 4.53178 0
M  V30 644 H 68.5011 -3.7313 2.82651 0
M  V30 645 H 68.6741 -5.00883 4.11121 0
M  V30 646 N 62.0802 -0.821533 -1.34494 0
M  V30 647 C 63.0282 -0.230702 -2.31453 0
M  V30 648 C 64.0222 0.627793 -1.57338 0
M  V30 649 O 65.2282 0.519288 -1.72347 0
M  V30 650 H 61.6032 -0.0558577 -0.749923 0
M  V30 651 H 63.5742 -1.06332 -2.78812 0
M  V30 652 C 62.3232 0.59391 -3.4259 0
M  V30 653 H 61.6462 -0.0573588 -3.99759 0
M  V30 654 H 63.0862 0.973446 -4.12674 0
M  V30 655 C 61.5452 1.76568 -2.86924 0
M  V30 656 O 62.0752 2.8638 -2.81691 0
M  V30 657 N 60.2812 1.58198 -2.43766 0
M  V30 658 H 59.8282 0.68872 -2.48222 0
M  V30 659 H 59.7862 2.36752 -2.06871 0
M  V30 660 N 63.5583 1.46682 -0.576371 0
M  V30 661 C 64.4883 2.33028 0.148397 0
M  V30 662 C 65.4693 1.44961 0.889956 0
M  V30 663 O 66.6543 1.73789 0.866662 0
M  V30 664 C 63.7843 3.27117 1.1667 0
M  V30 665 C 62.7383 4.24575 0.540386 0
M  V30 666 C 62.0643 5.08126 1.6647 0
M  V30 667 C 63.3643 5.19722 -0.518331 0
M  V30 668 H 65.0583 2.93875 -0.572509 0
M  V30 669 H 62.6043 1.41315 -0.276768 0
M  V30 670 H 64.5573 3.86374 1.68204 0
M  V30 671 H 63.2813 2.64364 1.9178 0
M  V30 672 H 61.9403 3.66571 0.0461769 0
M  V30 673 H 61.5883 4.41762 2.40531 0
M  V30 674 H 61.2883 5.74122 1.25131 0
M  V30 675 H 62.8123 5.70246 2.18293 0
M  V30 676 H 64.2263 5.73232 -0.0883058 0
M  V30 677 H 62.6233 5.94026 -0.851679 0
M  V30 678 H 63.6933 4.64037 -1.40703 0
M  V30 679 N 65.0364 0.313813 1.54444 0
M  V30 680 C 66.3134 -0.345447 1.92525 0
M  V30 681 C 66.6934 -1.70667 1.24242 0
M  V30 682 O 66.0414 -2.25273 0.382654 0
M  V30 683 C 66.2514 -0.44737 3.46121 0
M  V30 684 C 67.5994 -0.712238 4.18584 0
M  V30 685 O 68.6234 -0.530678 3.52225 0
M  V30 686 O 67.4824 -1.06183 5.36085 0
M  V30 687 H 64.5764 -0.195407 0.803583 0
M  V30 688 H 67.1224 0.362813 1.65776 0
M  V30 689 H 65.8944 0.509043 3.87975 0
M  V30 690 H 65.5174 -1.20359 3.78945 0
M  V30 691 N 66.5145 -1.57545 0.0417849 0
M  V30 692 C 67.7395 -1.97035 -0.647455 0
M  V30 693 C 68.1645 -0.918775 -1.64135 0
M  V30 694 O 67.5225 0.119006 -1.80909 0
M  V30 695 C 67.5705 -3.35609 -1.31905 0
M  V30 696 O 66.6745 -3.3287 -2.43457 0
M  V30 697 H 66.0155 -0.64211 -0.169086 0
M  V30 698 H 68.5455 -2.04318 0.107399 0
M  V30 699 H 68.5555 -3.72126 -1.67291 0
M  V30 700 H 67.2305 -4.11685 -0.590586 0
M  V30 701 H 65.8075 -3.08087 -2.10088 0
M  V30 702 N 67.9926 0.231505 -1.5589 0
M  V30 703 C 69.4086 0.580748 -1.48659 0
M  V30 704 C 69.6086 1.87617 -0.73498 0
M  V30 705 O 68.6646 2.51046 -0.270586 0
M  V30 706 C 69.9776 0.669202 -2.93159 0
M  V30 707 C 71.5256 0.760499 -3.03621 0
M  V30 708 C 72.0006 0.880383 -4.49459 0
M  V30 709 N 73.4916 0.944861 -4.53461 0
M  V30 710 C 74.2266 1.05716 -5.63571 0
M  V30 711 N 73.7226 1.13403 -6.83456 0
M  V30 712 N 75.5156 1.09152 -5.514 0
M  V30 713 H 67.6666 -0.618695 -2.03189 0
M  V30 714 H 69.9296 -0.215728 -0.923128 0
M  V30 715 H 69.6356 -0.212904 -3.51055 0
M  V30 716 H 69.5096 1.5361 -3.44505 0
M  V30 717 H 71.8966 1.63305 -2.45796 0
M  V30 718 H 71.9776 -0.131864 -2.5546 0
M  V30 719 H 71.6216 0.0123284 -5.07899 0
M  V30 720 H 71.5516 1.78802 -4.95316 0
M  V30 721 H 74.0426 0.896176 -3.6712 0
M  V30 722 H 74.3556 1.21921 -7.63122 0
M  V30 723 H 72.7006 1.10333 -6.86186 0
M  V30 724 H 75.8916 1.02805 -4.56671 0
M  V30 725 H 76.0646 1.17558 -6.37247 0
M  V30 726 N 69.4707 1.49531 0.497807 0
M  V30 727 C 70.6987 1.62893 1.27567 0
M  V30 728 C 71.1137 0.301585 1.86376 0
M  V30 729 O 70.4707 -0.713335 1.67982 0
M  V30 730 C 70.5217 2.70013 2.40364 0
M  V30 731 O 70.2427 3.976 1.83972 0
M  V30 732 C 71.7437 2.94109 3.31685 0
M  V30 733 H 68.9637 0.548298 0.386794 0
M  V30 734 H 71.5077 1.95584 0.597245 0
M  V30 735 H 69.6627 2.40092 3.04031 0
M  V30 736 H 70.0767 4.56631 2.58047 0
M  V30 737 H 71.5507 3.72788 4.07104 0
M  V30 738 H 72.0277 2.04147 3.88871 0
M  V30 739 H 72.6337 3.2546 2.73781 0
M  V30 740 N 70.9488 -0.749086 1.3866 0
M  V30 741 C 72.1958 -1.50833 1.35114 0
M  V30 742 C 72.5238 -1.94415 -0.0574049 0
M  V30 743 O 71.7788 -1.66065 -1.03541 0
M  V30 744 C 72.0778 -2.7712 2.25697 0
M  V30 745 C 71.7438 -2.52477 3.73585 0
M  V30 746 C 70.4058 -2.45466 4.13884 0
M  V30 747 C 72.7578 -2.31066 4.67181 0
M  V30 748 C 70.0858 -2.15064 5.45861 0
M  V30 749 C 72.4378 -2.02183 5.9942 0
M  V30 750 C 71.1018 -1.93631 6.38798 0
M  V30 751 H 70.3718 -0.551936 0.494416 0
M  V30 752 H 73.0188 -0.860979 1.71054 0
M  V30 753 H 71.3238 -3.46528 1.82827 0
M  V30 754 H 73.0208 -3.35096 2.20254 0
M  V30 755 H 69.6108 -2.58807 3.41638 0
M  V30 756 H 73.7948 -2.35459 4.3689 0
M  V30 757 H 69.0508 -2.06954 5.75308 0
M  V30 758 H 73.2248 -1.8462 6.71482 0
M  V30 759 H 70.8518 -1.69839 7.40985 0
M  V30 760 N 72.4269 -1.23603 -0.977757 0
M  V30 761 C 73.6759 -1.06377 -1.71368 0
M  V30 762 C 73.9889 0.399062 -1.91486 0
M  V30 763 O 75.1949 0.691312 -2.62551 0
M  V30 764 C 73.6509 -1.85512 -3.08404 0
M  V30 765 C 73.2589 -3.36141 -2.96164 0
M  V30 766 C 75.0029 -1.76783 -3.85938 0
M  V30 767 C 72.9099 -4.07659 -4.28449 0
M  V30 768 H 71.8399 -0.394452 -0.642591 0
M  V30 769 H 74.4909 -1.47594 -1.09034 0
M  V30 770 H 72.8729 -1.37103 -3.71509 0
M  V30 771 H 74.0469 -3.92056 -2.42133 0
M  V30 772 H 72.3619 -3.45712 -2.32104 0
M  V30 773 H 74.9589 -2.27526 -4.83876 0
M  V30 774 H 75.3019 -0.731116 -4.0983 0
M  V30 775 H 75.8349 -2.22818 -3.2954 0
M  V30 776 H 72.5739 -5.11648 -4.09752 0
M  V30 777 H 72.0939 -3.5653 -4.82334 0
M  V30 778 H 73.7729 -4.141 -4.97122 0
M  V30 779 N 73.905 1.17692 -1.04816 0
M  V30 780 C 75.133 1.91786 -0.776254 0
M  V30 781 C 75.548 1.76604 0.667577 0
M  V30 782 O 74.905 1.10067 1.45573 0
M  V30 783 C 74.956 3.42967 -1.14263 0
M  V30 784 O 74.677 3.57678 -2.52978 0
M  V30 785 C 76.178 4.34144 -0.896311 0
M  V30 786 H 73.398 0.608624 -0.282519 0
M  V30 787 H 75.942 1.49268 -1.39783 0
M  V30 788 H 74.097 3.83245 -0.565874 0
M  V30 789 H 74.511 4.51319 -2.67229 0
M  V30 790 H 75.985 5.38744 -1.20244 0
M  V30 791 H 76.462 4.38876 0.168636 0
M  V30 792 H 77.068 3.99574 -1.45672 0
M  V30 793 N 75.3831 0.828654 1.34056 0
M  V30 794 C 76.6321 0.415828 1.97367 0
M  V30 795 C 76.9451 -1.02796 1.6641 0
M  V30 796 O 78.1511 -1.54497 2.23255 0
M  V30 797 C 76.6071 0.692601 3.53173 0
M  V30 798 C 76.2151 2.15038 3.93017 0
M  V30 799 C 77.9591 0.346222 4.23086 0
M  V30 800 C 75.8661 2.37174 5.41758 0
M  V30 801 H 74.7961 0.151755 0.738571 0
M  V30 802 H 77.4471 1.01581 1.52819 0
M  V30 803 H 75.8291 0.0223764 3.95994 0
M  V30 804 H 77.0031 2.86024 3.61285 0
M  V30 805 H 75.3181 2.45875 3.36057 0
M  V30 806 H 77.9151 0.48937 5.32456 0
M  V30 807 H 78.2581 -0.709842 4.10204 0
M  V30 808 H 78.7911 0.971258 3.85761 0
M  V30 809 H 75.5301 3.41308 5.59633 0
M  V30 810 H 75.0501 1.70738 5.74986 0
M  V30 811 H 76.7291 2.19818 6.08514 0
M  V30 812 N 76.8612 -1.46375 0.584142 0
M  V30 813 C 78.1092 -2.01978 0.0701287 0
M  V30 814 C 78.4302 -1.4579 -1.295 0
M  V30 815 O 77.7002 -0.64314 -1.85042 0
M  V30 816 H 76.2802 -0.746648 0.0229345 0
M  V30 817 H 78.9422 -1.79461 0.760245 0
M  V30 818 H 78.0382 -3.121 0.0022064 0
M  V30 819 N 78.3393 -0.321999 -1.54275 0
M  V30 820 C 79.6163 0.335232 -1.92706 0
M  V30 821 C 79.9963 1.70006 -1.25145 0
M  V30 822 O 79.3443 2.25067 -0.394596 0
M  V30 823 C 79.5543 0.429008 -3.46353 0
M  V30 824 C 80.9023 0.690029 -4.18956 0
M  V30 825 O 81.9263 0.511992 -3.52501 0
M  V30 826 O 80.7853 1.03338 -5.36641 0
M  V30 827 H 77.8793 0.191143 -0.804608 0
M  V30 828 H 80.4253 -0.3716 -1.65581 0
M  V30 829 H 79.1973 -0.529611 -3.87699 0
M  V30 830 H 78.8203 1.18348 -3.79578 0
M  V30 831 N 79.8174 1.5752 -0.0501392 0
M  V30 832 C 81.2334 1.56631 0.306402 0
M  V30 833 C 81.4334 1.0577 1.71508 0
M  V30 834 O 80.4894 0.713837 2.422 0
M  V30 835 C 81.8024 3.00393 0.135811 0
M  V30 836 C 83.3504 3.12315 0.206993 0
M  V30 837 C 83.8254 4.57954 0.064944 0
M  V30 838 N 85.3164 4.63041 0.121254 0
M  V30 839 C 86.0514 5.73389 0.0354381 0
M  V30 840 N 85.5474 6.92724 -0.102666 0
M  V30 841 N 87.3404 5.62026 0.090946 0
M  V30 842 H 79.4914 1.88903 -0.971046 0
M  V30 843 H 81.7544 0.869876 -0.376855 0
M  V30 844 H 81.4604 3.41635 -0.835384 0
M  V30 845 H 81.3344 3.66373 0.897275 0
M  V30 846 H 83.7214 2.70973 1.16866 0
M  V30 847 H 83.8024 2.49016 -0.585208 0
M  V30 848 H 83.4464 4.99981 -0.893394 0
M  V30 849 H 83.3764 5.19258 0.876277 0
M  V30 850 H 85.8674 3.77216 0.227284 0
M  V30 851 H 86.1804 7.72633 -0.160882 0
M  V30 852 H 84.5254 6.94864 -0.137737 0
M  V30 853 H 87.7164 4.67684 0.197388 0
M  V30 854 H 87.8894 6.47997 0.0206089 0
M  V30 855 N 81.2955 -0.223234 1.56011 0
M  V30 856 C 82.2435 -1.29627 1.93131 0
M  V30 857 C 83.2375 -1.48608 0.813146 0
M  V30 858 O 84.4435 -1.49802 0.997966 0
M  V30 859 H 80.8185 -0.434563 0.613726 0
M  V30 860 H 82.7895 -0.955995 2.82672 0
M  V30 861 C 81.5385 -2.63983 2.26292 0
M  V30 862 H 80.8615 -2.50185 3.11846 0
M  V30 863 H 82.3015 -3.3788 2.56151 0
M  V30 864 C 80.7605 -3.18866 1.08747 0
M  V30 865 O 81.2905 -4.00192 0.347727 0
M  V30 866 N 79.4965 -2.77217 0.871743 0
M  V30 867 H 79.0435 -2.1119 1.47501 0
M  V30 868 H 79.0015 -3.1428 0.0869905 0
M  V30 869 N 82.7736 -1.49793 -0.48987 0
M  V30 870 C 84.0206 -1.59841 -1.24327 0
M  V30 871 C 84.3486 -0.290135 -1.92324 0
M  V30 872 O 83.6036 0.722749 -1.81865 0
M  V30 873 C 83.9026 -2.71488 -2.32441 0
M  V30 874 C 83.5686 -4.12614 -1.81826 0
M  V30 875 C 82.2306 -4.51017 -1.67742 0
M  V30 876 C 84.5826 -5.00892 -1.4407 0
M  V30 877 C 81.9106 -5.75459 -1.14297 0
M  V30 878 C 84.2626 -6.25863 -0.920742 0
M  V30 879 C 82.9266 -6.63086 -0.766383 0
M  V30 880 H 82.1966 -0.584899 -0.454944 0
M  V30 881 H 84.8436 -1.83663 -0.542215 0
M  V30 882 H 83.1486 -2.4168 -3.0838 0
M  V30 883 H 84.8456 -2.76469 -2.90458 0
M  V30 884 H 81.4356 -3.82307 -1.93751 0
M  V30 885 H 85.6196 -4.7187 -1.53794 0
M  V30 886 H 80.8756 -6.02989 -1.01068 0
M  V30 887 H 85.0496 -6.9364 -0.619448 0
M  V30 888 H 82.6766 -7.59393 -0.350083 0
M  V30 889 N 84.2517 0.741722 -1.39055 0
M  V30 890 C 85.1617 1.88621 -1.39496 0
M  V30 891 C 86.1777 1.71557 -0.290578 0
M  V30 892 O 87.3537 1.94275 -0.530954 0
M  V30 893 C 84.4187 3.24134 -1.23037 0
M  V30 894 C 83.4797 3.5364 -2.43387 0
M  V30 895 C 82.7127 4.82687 -2.27703 0
M  V30 896 O 82.9357 5.55922 -1.27696 0
M  V30 897 O 81.8697 5.1194 -3.16545 0
M  V30 898 H 85.6957 1.91203 -2.35956 0
M  V30 899 H 83.2807 0.888625 -1.20099 0
M  V30 900 H 85.1627 4.0513 -1.15964 0
M  V30 901 H 83.8377 3.22337 -0.296691 0
M  V30 902 H 82.7447 2.72758 -2.56035 0
M  V30 903 H 84.0777 3.60209 -3.35425 0
M  V30 904 N 85.7298 1.2412 0.971189 0
M  V30 905 C 86.9758 1.08041 1.71625 0
M  V30 906 C 87.3088 -0.380407 1.90438 0
M  V30 907 O 86.5838 -1.28127 1.46334 0
M  V30 908 C 86.8668 1.81682 3.10908 0
M  V30 909 C 86.7198 3.35493 2.99608 0
M  V30 910 C 88.0388 1.58671 4.10501 0
M  V30 911 H 85.1578 0.39388 0.622919 0
M  V30 912 H 87.7998 1.52743 1.13003 0
M  V30 913 H 85.9498 1.43684 3.60953 0
M  V30 914 H 87.6218 3.83068 2.57015 0
M  V30 915 H 85.8648 3.64052 2.35899 0
M  V30 916 H 86.5358 3.82217 3.98264 0
M  V30 917 H 89.0118 1.91719 3.69301 0
M  V30 918 H 87.8878 2.1266 5.06031 0
M  V30 919 H 88.1488 0.524161 4.38982 0
M  V30 920 N 87.2079 -1.17134 1.05439 0
M  V30 921 C 88.1179 -2.24878 0.668365 0
M  V30 922 C 89.1339 -1.71186 -0.311687 0
M  V30 923 O 90.3099 -2.00738 -0.163161 0
M  V30 924 C 87.3749 -3.46662 0.051648 0
M  V30 925 C 86.4359 -4.15429 1.08246 0
M  V30 926 C 85.6689 -5.31399 0.495082 0
M  V30 927 O 85.8919 -5.66153 -0.694743 0
M  V30 928 O 84.8259 -5.89187 1.23056 0
M  V30 929 H 88.6519 -2.60189 1.56637 0
M  V30 930 H 86.2369 -1.24482 0.826104 0
M  V30 931 H 88.1189 -4.20394 -0.290966 0
M  V30 932 H 86.7939 -3.13142 -0.819971 0
M  V30 933 H 85.7009 -3.43704 1.47711 0
M  V30 934 H 87.0339 -4.52982 1.92532 0
M  V30 935 N 88.686 -0.835752 -1.33615 0
M  V30 936 C 89.649 -0.272 -2.2758 0
M  V30 937 C 90.649 0.557487 -1.50827 0
M  V30 938 O 91.839 0.37173 -1.70188 0
M  V30 939 C 88.971 0.617173 -3.35267 0
M  V30 940 H 90.164 -1.10111 -2.78954 0
M  V30 941 H 87.717 -0.608594 -1.43965 0
M  V30 942 H 88.452 1.46884 -2.89129 0
M  V30 943 H 88.237 0.0237066 -3.92093 0
M  V30 944 H 89.727 1.005 -4.05326 0
M  V30 945 N 90.1641 1.46063 -0.591896 0
M  V30 946 C 91.4411 1.95595 -0.0137119 0
M  V30 947 C 91.8211 1.5345 1.4497 0
M  V30 948 O 91.1691 0.789543 2.14426 0
M  V30 949 C 91.3791 3.48453 -0.195373 0
M  V30 950 C 92.7271 4.24546 -0.0679765 0
M  V30 951 O 93.7511 3.55982 -0.124681 0
M  V30 952 O 92.6101 5.46467 0.0600579 0
M  V30 953 H 89.7041 0.825795 0.0446279 0
M  V30 954 H 92.2501 1.56303 -0.660859 0
M  V30 955 H 91.0221 3.72045 -1.21235 0
M  V30 956 H 90.6451 3.94597 0.487775 0
M  V30 957 N 91.6422 0.330177 1.54103 0
M  V30 958 C 92.9192 -0.325007 1.92881 0
M  V30 959 C 93.2992 -1.6934 1.26045 0
M  V30 960 O 92.6472 -2.24855 0.406526 0
M  V30 961 C 92.8572 -0.410634 3.46576 0
M  V30 962 C 94.2052 -0.667801 4.19316 0
M  V30 963 O 95.2292 -0.49329 3.52768 0
M  V30 964 O 94.0882 -1.00491 5.37181 0
M  V30 965 H 91.1822 -0.186873 0.80561 0
M  V30 966 H 93.7282 0.380376 1.65382 0
M  V30 967 H 92.5002 0.550164 3.87413 0
M  V30 968 H 92.1232 -1.16333 3.802 0
M  V30 969 N 93.1203 -1.57491 0.0584922 0
M  V30 970 C 94.0503 -2.14988 -0.911178 0
M  V30 971 C 95.0313 -1.07343 -1.31952 0
M  V30 972 O 96.2163 -1.35318 -1.39294 0
M  V30 973 C 93.3463 -2.70078 -2.18347 0
M  V30 974 C 92.3003 -3.82771 -1.91495 0
M  V30 975 C 91.6263 -4.24408 -3.25241 0
M  V30 976 C 92.9263 -5.07592 -1.23075 0
M  V30 977 H 94.6203 -2.96263 -0.432246 0
M  V30 978 H 92.1663 -1.42512 -0.206469 0
M  V30 979 H 94.1193 -3.08943 -2.86587 0
M  V30 980 H 92.8433 -1.86005 -2.68458 0
M  V30 981 H 91.5023 -3.44389 -1.25664 0
M  V30 982 H 91.1503 -3.37275 -3.73168 0
M  V30 983 H 90.8503 -5.00366 -3.08071 0
M  V30 984 H 92.3743 -4.65879 -3.94701 0
M  V30 985 H 93.7883 -5.43857 -1.81362 0
M  V30 986 H 92.1853 -5.88741 -1.16207 0
M  V30 987 H 93.2553 -4.84454 -0.207847 0
M  V30 988 N 94.5984 0.214957 -1.56127 0
M  V30 989 C 95.8444 0.939762 -1.79712 0
M  V30 990 C 96.1774 1.83723 -0.629247 0
M  V30 991 O 95.4524 1.90925 0.371197 0
M  V30 992 C 95.7354 1.77306 -3.13424 0
M  V30 993 C 95.5884 0.90164 -4.40671 0
M  V30 994 C 96.9074 2.74956 -3.43638 0
M  V30 995 H 94.0264 0.340214 -0.653776 0
M  V30 996 H 96.6684 0.20824 -1.88855 0
M  V30 997 H 94.8184 2.39673 -3.0576 0
M  V30 998 H 96.4904 0.294206 -4.60361 0
M  V30 999 H 94.7334 0.207368 -4.33304 0
M  V30 1000 H 95.4044 1.51923 -5.30682 0
M  V30 1001 H 97.8804 2.22724 -3.51473 0
M  V30 1002 H 96.7564 3.30358 -4.38355 0
M  V30 1003 H 97.0174 3.53023 -2.66134 0
M  V30 1004 N 96.0765 1.50051 0.48192 0
M  V30 1005 C 97.3045 1.64237 1.25832 0
M  V30 1006 C 97.7195 0.321336 1.86045 0
M  V30 1007 O 97.0765 -0.695478 1.68729 0
M  V30 1008 C 97.1275 2.72548 2.37487 0
M  V30 1009 O 96.8485 3.99529 1.79745 0
M  V30 1010 C 98.3495 2.9761 3.28547 0
M  V30 1011 H 95.5695 0.55237 0.380957 0
M  V30 1012 H 98.1135 1.96207 0.576467 0
M  V30 1013 H 96.2685 2.43303 3.01467 0
M  V30 1014 H 96.6825 4.59342 2.5319 0
M  V30 1015 H 98.1565 3.77084 4.03127 0
M  V30 1016 H 98.6335 2.0826 3.86684 0
M  V30 1017 H 99.2395 3.28345 2.70314 0
M  V30 1018 N 97.5546 -0.734337 1.39446 0
M  V30 1019 C 98.8036 -1.48937 1.36017 0
M  V30 1020 C 99.1166 -1.95557 -0.0409005 0
M  V30 1021 O 100.323 -2.70779 -0.19778 0
M  V30 1022 C 98.7786 -2.69125 2.38955 0
M  V30 1023 C 98.3866 -2.29452 3.8478 0
M  V30 1024 C 100.131 -3.46944 2.44603 0
M  V30 1025 C 98.0376 -3.46366 4.79358 0
M  V30 1026 H 96.9676 -0.559296 0.505672 0
M  V30 1027 H 99.6186 -0.800983 1.65095 0
M  V30 1028 H 98.0006 -3.40041 2.02948 0
M  V30 1029 H 99.1746 -1.66077 4.29831 0
M  V30 1030 H 97.4896 -1.64723 3.82433 0
M  V30 1031 H 100.087 -4.33907 3.12456 0
M  V30 1032 H 100.43 -3.89454 1.47076 0
M  V30 1033 H 100.963 -2.83056 2.79507 0
M  V30 1034 H 97.7016 -3.08905 5.78151 0
M  V30 1035 H 97.2216 -4.08719 4.38986 0
M  V30 1036 H 98.9006 -4.12691 4.98292 0
M  V30 1037 N 99.0327 -1.24633 -0.964593 0
M  V30 1038 C 100.258 -1.11596 -1.74818 0
M  V30 1039 C 100.683 0.32723 -1.85232 0
M  V30 1040 O 100.041 1.23695 -1.32549 0
M  V30 1041 C 100.089 -1.76397 -3.1451 0
M  V30 1042 O 99.1927 -1.03685 -3.99153 0
M  V30 1043 H 98.5337 -0.390196 -0.537255 0
M  V30 1044 H 101.064 -1.65002 -1.20977 0
M  V30 1045 H 101.074 -1.8228 -3.65018 0
M  V30 1046 H 99.7487 -2.81401 -3.06246 0
M  V30 1047 H 98.3257 -1.05611 -3.57632 0
M  V30 1048 N 100.511 1.16574 -1.06058 0
M  V30 1049 C 101.421 2.2452 -0.680282 0
M  V30 1050 C 102.437 1.71348 0.302604 0
M  V30 1051 O 103.613 2.00822 0.152513 0
M  V30 1052 C 100.678 3.46629 -0.0700315 0
M  V30 1053 C 99.7388 4.14849 -1.10448 0
M  V30 1054 C 98.9718 5.31129 -0.523256 0
M  V30 1055 O 99.1948 5.66514 0.664709 0
M  V30 1056 O 98.1288 5.88526 -1.26179 0
M  V30 1057 H 101.955 2.59355 -1.58015 0
M  V30 1058 H 99.5398 1.24043 -0.832694 0
M  V30 1059 H 101.422 4.20543 0.268667 0
M  V30 1060 H 100.097 3.13573 0.803353 0
M  V30 1061 H 99.0038 3.42916 -1.49532 0
M  V30 1062 H 100.337 4.51954 -1.94931 0
M  V30 1063 N 101.989 0.842826 1.3317 0
M  V30 1064 C 102.919 0.294028 2.31641 0
M  V30 1065 C 103.9 -0.600401 1.59151 0
M  V30 1066 O 105.085 -0.523124 1.87022 0
M  V30 1067 C 102.215 -0.528416 3.43257 0
M  V30 1068 C 101.169 0.27056 4.27144 0
M  V30 1069 C 100.495 -0.675881 5.30411 0
M  V30 1070 C 101.795 1.48981 5.00602 0
M  V30 1071 H 103.489 1.11681 2.77791 0
M  V30 1072 H 101.035 0.538478 1.33553 0
M  V30 1073 H 102.988 -0.922674 4.11175 0
M  V30 1074 H 101.712 -1.38445 2.95805 0
M  V30 1075 H 100.371 0.646427 3.60856 0
M  V30 1076 H 100.019 -1.52842 4.79216 0
M  V30 1077 H 99.7189 -0.145374 5.8742 0
M  V30 1078 H 101.243 -1.06757 6.01195 0
M  V30 1079 H 102.657 1.16849 5.61266 0
M  V30 1080 H 101.054 1.95739 5.6728 0
M  V30 1081 H 102.124 2.25746 4.29147 0
M  V30 1082 N 103.467 -1.45747 0.599634 0
M  V30 1083 C 104.715 -2.01893 0.0915472 0
M  V30 1084 C 105.036 -1.47155 -1.27946 0
M  V30 1085 O 104.306 -0.66273 -1.84349 0
M  V30 1086 H 102.886 -0.746363 0.0308524 0
M  V30 1087 H 105.548 -1.78645 0.779237 0
M  V30 1088 H 104.644 -3.1208 0.0353086 0
M  V30 1089 N 104.945 -0.338344 -1.53925 0
M  V30 1090 C 106.361 0.0137736 -1.59594 0
M  V30 1091 C 106.561 1.49186 -1.35447 0
M  V30 1092 O 105.617 2.24987 -1.14616 0
M  V30 1093 C 106.93 -0.41773 -2.97784 0
M  V30 1094 C 108.478 -0.369633 -3.1081 0
M  V30 1095 C 108.953 -0.776524 -4.51369 0
M  V30 1096 N 110.444 -0.730506 -4.57403 0
M  V30 1097 C 111.179 -1.01736 -5.64303 0
M  V30 1098 N 110.675 -1.3721 -6.79077 0
M  V30 1099 N 112.468 -0.941942 -5.54151 0
M  V30 1100 H 104.619 -1.3012 -1.67876 0
M  V30 1101 H 106.882 -0.530082 -0.78595 0
M  V30 1102 H 106.588 -1.44811 -3.20504 0
M  V30 1103 H 106.462 0.209729 -3.76616 0
M  V30 1104 H 108.849 0.651568 -2.87817 0
M  V30 1105 H 108.93 -1.03223 -2.34049 0
M  V30 1106 H 108.574 -1.79571 -4.75096 0
M  V30 1107 H 108.504 -0.0914649 -5.26521 0
M  V30 1108 H 110.995 -0.468783 -3.74981 0
M  V30 1109 H 111.308 -1.57597 -7.5656 0
M  V30 1110 H 109.653 -1.4105 -6.80536 0
M  V30 1111 H 112.844 -0.664184 -4.63364 0
M  V30 1112 H 113.017 -1.16884 -6.37371 0
M  V30 1113 N 106.423 1.57458 -0.0668435 0
M  V30 1114 C 107.671 1.92919 0.602214 0
M  V30 1115 C 107.992 0.947215 1.70449 0
M  V30 1116 O 107.262 -0.00544117 1.95899 0
M  V30 1117 H 105.842 0.71217 0.22544 0
M  V30 1118 H 108.504 1.94508 -0.123535 0
M  V30 1119 H 107.6 2.94589 1.03073 0
M  V30 1120 N 107.901 -0.206675 1.56239 0
M  V30 1121 C 108.864 -1.23976 1.92776 0
M  V30 1122 C 109.864 -1.39041 0.807729 0
M  V30 1123 O 111.054 -1.37051 1.0753 0
M  V30 1124 C 108.186 -2.61112 2.19165 0
M  V30 1125 H 109.379 -0.927764 2.85189 0
M  V30 1126 H 106.932 -0.447718 1.4975 0
M  V30 1127 H 107.667 -2.97386 1.29352 0
M  V30 1128 H 107.452 -2.51552 3.00772 0
M  V30 1129 H 108.942 -3.35633 2.48476 0
M  V30 1130 N 109.379 -1.50304 -0.473955 0
M  V30 1131 C 110.609 -1.64663 -1.24778 0
M  V30 1132 C 111.017 -0.328174 -1.86332 0
M  V30 1133 O 110.36 0.699536 -1.69859 0
M  V30 1134 C 110.422 -2.6778 -2.39863 0
M  V30 1135 C 110.086 -4.11413 -1.98969 0
M  V30 1136 C 111.083 -4.97372 -1.51385 0
M  V30 1137 C 108.768 -4.57312 -2.07777 0
M  V30 1138 C 110.762 -6.27277 -1.13148 0
M  V30 1139 C 108.449 -5.87223 -1.69152 0
M  V30 1140 C 109.447 -6.72031 -1.21915 0
M  V30 1141 O 109.135 -7.99518 -0.838237 0
M  V30 1142 H 108.867 -0.556602 -0.383627 0
M  V30 1143 H 111.421 -1.9726 -0.572491 0
M  V30 1144 H 109.651 -2.30419 -3.10554 0
M  V30 1145 H 111.34 -2.71388 -3.01833 0
M  V30 1146 H 112.106 -4.63128 -1.44004 0
M  V30 1147 H 107.985 -3.91449 -2.43493 0
M  V30 1148 H 111.529 -6.93425 -0.762077 0
M  V30 1149 H 107.426 -6.20989 -1.76191 0
M  V30 1150 H 108.194 -8.12764 -0.967339 0
M  V30 1151 N 110.857 0.726932 -1.39834 0
M  V30 1152 C 112.105 1.4837 -1.37225 0
M  V30 1153 C 112.426 1.94979 0.0284857 0
M  V30 1154 O 111.696 1.69555 0.981213 0
M  V30 1155 H 110.276 0.55043 -0.505011 0
M  V30 1156 H 112.938 0.862468 -1.74778 0
M  V30 1157 H 112.034 2.36198 -2.04003 0
M  V30 1158 N 112.336 1.25143 0.95797 0
M  V30 1159 C 113.582 1.09855 1.70469 0
M  V30 1160 C 113.915 -0.360187 1.90831 0
M  V30 1161 O 113.19 -1.26568 1.47685 0
M  V30 1162 C 113.473 1.8497 3.08963 0
M  V30 1163 C 113.326 3.38652 2.96032 0
M  V30 1164 C 114.645 1.63016 4.08795 0
M  V30 1165 H 111.764 0.400465 0.618706 0
M  V30 1166 H 114.406 1.53933 1.11376 0
M  V30 1167 H 112.556 1.47505 3.59409 0
M  V30 1168 H 114.228 3.85772 2.52938 0
M  V30 1169 H 112.471 3.66534 2.32025 0
M  V30 1170 H 113.142 3.8642 3.94187 0
M  V30 1171 H 115.618 1.95625 3.67247 0
M  V30 1172 H 114.494 2.18015 5.03747 0
M  V30 1173 H 114.755 0.570692 4.38401 0
M  V30 1174 N 113.814 -1.1601 1.06675 0
M  V30 1175 C 115.06 -1.86909 0.786945 0
M  V30 1176 C 115.393 -1.81717 -0.685018 0
M  V30 1177 O 114.668 -1.23551 -1.50218 0
M  V30 1178 C 114.951 -3.36313 1.28707 0
M  V30 1179 C 114.804 -3.50175 2.82308 0
M  V30 1180 C 116.123 -4.3084 0.898071 0
M  V30 1181 H 113.242 -0.678677 0.287343 0
M  V30 1182 H 115.884 -1.36336 1.32334 0
M  V30 1183 H 114.034 -3.79513 0.830768 0
M  V30 1184 H 115.706 -3.15886 3.36175 0
M  V30 1185 H 113.949 -2.91959 3.20847 0
M  V30 1186 H 114.62 -4.55116 3.12368 0
M  V30 1187 H 117.096 -3.95561 1.29114 0
M  V30 1188 H 115.972 -5.33876 1.27543 0
M  V30 1189 H 116.233 -4.41662 -0.196651 0
M  V30 1190 N 115.292 -0.849877 -1.32721 0
M  V30 1191 C 116.202 -0.293791 -2.32753 0
M  V30 1192 C 117.218 0.585906 -1.63839 0
M  V30 1193 O 118.394 0.487413 -1.95413 0
M  V30 1194 C 115.459 0.512752 -3.42887 0
M  V30 1195 C 114.52 -0.39252 -4.27502 0
M  V30 1196 C 113.753 0.375625 -5.32377 0
M  V30 1197 O 113.976 1.60613 -5.4732 0
M  V30 1198 O 112.91 -0.256094 -6.01355 0
M  V30 1199 H 116.736 -1.12242 -2.82197 0
M  V30 1200 H 114.321 -0.612685 -1.36259 0
M  V30 1201 H 116.203 0.970704 -4.10067 0
M  V30 1202 H 114.878 1.31826 -2.95641 0
M  V30 1203 H 113.785 -0.898547 -3.63149 0
M  V30 1204 H 115.118 -1.16309 -4.7826 0
M  V30 1205 N 116.77 1.45427 -0.607355 0
M  V30 1206 C 117.717 2.3053 0.111625 0
M  V30 1207 C 118.687 1.4209 0.860216 0
M  V30 1208 O 119.872 1.71019 0.845998 0
M  V30 1209 C 117.012 3.26992 1.10319 0
M  V30 1210 C 116.125 4.30535 0.355493 0
M  V30 1211 C 115.26 5.14105 1.33676 0
M  V30 1212 C 114.299 6.09376 0.576862 0
M  V30 1213 N 113.436 6.85727 1.5074 0
M  V30 1214 H 118.276 2.91477 -0.620093 0
M  V30 1215 H 115.813 1.43631 -0.317594 0
M  V30 1216 H 117.771 3.81385 1.6912 0
M  V30 1217 H 116.401 2.67799 1.80232 0
M  V30 1218 H 115.453 3.78805 -0.348023 0
M  V30 1219 H 116.765 4.98235 -0.237423 0
M  V30 1220 H 115.919 5.72897 1.99684 0
M  V30 1221 H 114.658 4.46423 1.9636 0
M  V30 1222 H 113.663 5.49715 -0.0968519 0
M  V30 1223 H 114.888 6.79085 -0.0449341 0
M  V30 1224 H 112.834 6.20735 2.12189 0
M  V30 1225 H 112.751 7.49778 0.967913 0
M  V30 1226 H 114.019 7.4906 2.15706 0
M  V30 1227 N 118.248 0.346503 1.53744 0
M  V30 1228 C 119.494 -0.249473 2.0126 0
M  V30 1229 C 119.827 -1.49965 1.23386 0
M  V30 1230 O 119.102 -1.91811 0.32229 0
M  V30 1231 C 119.385 -0.560643 3.55709 0
M  V30 1232 C 119.238 0.701836 4.44291 0
M  V30 1233 C 120.557 -1.36905 4.18264 0
M  V30 1234 H 117.676 -0.0891987 0.731582 0
M  V30 1235 H 120.318 0.467624 1.84156 0
M  V30 1236 H 118.468 -1.17156 3.70414 0
M  V30 1237 H 120.14 1.33974 4.41417 0
M  V30 1238 H 118.383 1.32612 4.13033 0
M  V30 1239 H 119.054 0.43933 5.50249 0
M  V30 1240 H 121.53 -0.852448 4.07275 0
M  V30 1241 H 120.406 -1.55553 5.26398 0
M  V30 1242 H 120.667 -2.37203 3.73078 0
M  V30 1243 N 119.726 -1.57421 0.075193 0
M  V30 1244 C 121.142 -1.57099 -0.281444 0
M  V30 1245 C 121.342 -1.08486 -1.69803 0
M  V30 1246 O 120.398 -0.752279 -2.41033 0
M  V30 1247 C 121.711 -3.00571 -0.0880041 0
M  V30 1248 C 123.259 -3.12605 -0.157281 0
M  V30 1249 C 123.734 -4.57999 0.0079207 0
M  V30 1250 N 125.225 -4.63176 -0.0475725 0
M  V30 1251 C 125.96 -5.73373 0.0557876 0
M  V30 1252 N 125.456 -6.92473 0.21286 0
M  V30 1253 N 127.249 -5.621 -0.00152098 0
M  V30 1254 H 119.4 -1.87335 1.00098 0
M  V30 1255 H 121.663 -0.86377 0.390646 0
M  V30 1256 H 121.369 -3.40262 0.889629 0
M  V30 1257 H 121.243 -3.67754 -0.838875 0
M  V30 1258 H 123.63 -2.72798 -1.1254 0
M  V30 1259 H 123.711 -2.48053 0.62475 0
M  V30 1260 H 123.355 -4.98496 0.972824 0
M  V30 1261 H 123.285 -5.20586 -0.793556 0
M  V30 1262 H 125.776 -3.7753 -0.167244 0
M  V30 1263 H 126.089 -7.72279 0.283781 0
M  V30 1264 H 124.434 -6.94556 0.248267 0
M  V30 1265 H 127.625 -4.67938 -0.122958 0
M  V30 1266 H 127.798 -6.47948 0.0824844 0
M  V30 1267 N 121.204 0.198386 -1.56346 0
M  V30 1268 C 122.154 1.2499 -1.90687 0
M  V30 1269 C 123.138 1.41158 -0.772217 0
M  V30 1270 O 124.33 1.43584 -1.03502 0
M  V30 1271 C 121.459 2.59542 -2.24706 0
M  V30 1272 C 120.545 2.47181 -3.44619 0
M  V30 1273 N 120.936 2.04495 -4.62618 0
M  V30 1274 C 119.234 2.78082 -3.48692 0
M  V30 1275 C 119.935 2.03945 -5.44776 0
M  V30 1276 N 118.911 2.45323 -4.85095 0
M  V30 1277 H 122.713 0.911149 -2.7942 0
M  V30 1278 H 120.227 0.40684 -1.57221 0
M  V30 1279 H 122.224 3.3549 -2.47491 0
M  V30 1280 H 120.884 2.94244 -1.37298 0
M  V30 1281 H 121.895 1.75256 -4.87345 0
M  V30 1282 H 118.572 3.17002 -2.71691 0
M  V30 1283 H 119.962 1.72872 -6.4928 0
M  V30 1284 N 122.682 1.50554 0.465978 0
M  V30 1285 C 123.645 1.69233 1.54574 0
M  V30 1286 C 124.645 0.562901 1.50626 0
M  V30 1287 O 125.835 0.830016 1.53155 0
M  V30 1288 C 122.967 1.7223 2.94193 0
M  V30 1289 H 124.16 2.65571 1.39327 0
M  V30 1290 H 121.713 1.40111 0.692711 0
M  V30 1291 H 122.448 0.77603 3.14878 0
M  V30 1292 H 122.233 2.54285 2.98466 0
M  V30 1293 H 123.723 1.88618 3.72576 0
M  V30 1294 N 124.16 -0.719506 1.40217 0
M  V30 1295 C 125.092 -1.84428 1.36084 0
M  V30 1296 C 126.105 -1.60597 0.266913 0
M  V30 1297 O 127.294 -1.70544 0.526983 0
M  V30 1298 C 124.394 -3.20757 1.094 0
M  V30 1299 C 123.567 -3.71817 2.30372 0
M  V30 1300 C 122.626 -4.86748 1.99907 0
M  V30 1301 O 121.652 -4.99603 2.72737 0
M  V30 1302 N 122.854 -5.7226 0.974635 0
M  V30 1303 H 125.619 -1.88473 2.33019 0
M  V30 1304 H 123.18 -0.900885 1.3452 0
M  V30 1305 H 125.172 -3.95235 0.870116 0
M  V30 1306 H 123.742 -3.11884 0.211452 0
M  V30 1307 H 122.962 -2.88514 2.68614 0
M  V30 1308 H 124.25 -4.02666 3.11026 0
M  V30 1309 H 123.648 -5.6448 0.371368 0
M  V30 1310 H 122.205 -6.46739 0.810656 0
M  V30 1311 N 125.638 -1.25649 -0.95132 0
M  V30 1312 C 126.863 -1.13443 -1.73624 0
M  V30 1313 C 127.288 0.307565 -1.85568 0
M  V30 1314 O 126.646 1.22282 -1.33854 0
M  V30 1315 C 126.694 -1.79723 -3.12621 0
M  V30 1316 O 125.798 -1.07912 -3.98031 0
M  V30 1317 H 125.139 -0.395872 -0.533086 0
M  V30 1318 H 127.669 -1.66276 -1.1922 0
M  V30 1319 H 127.679 -1.86141 -3.63064 0
M  V30 1320 H 126.354 -2.84633 -3.03244 0
M  V30 1321 H 124.931 -1.09398 -3.56492 0
M  V30 1322 N 127.117 1.15442 -1.07289 0
M  V30 1323 C 128.365 1.85845 -0.794096 0
M  V30 1324 C 128.686 1.82692 0.681809 0
M  V30 1325 O 127.956 1.26741 1.49377 0
M  V30 1326 H 126.536 0.688089 -0.290763 0
M  V30 1327 H 129.198 1.39947 -1.3565 0
M  V30 1328 H 128.294 2.91001 -1.12804 0
M  V30 1329 N 128.595 0.856903 1.32268 0
M  V30 1330 C 129.823 0.475439 2.01363 0
M  V30 1331 C 130.238 -0.928486 1.64392 0
M  V30 1332 O 129.595 -1.60624 0.866387 0
M  V30 1333 C 129.646 0.607545 3.56358 0
M  V30 1334 O 129.367 1.95617 3.92002 0
M  V30 1335 C 130.868 0.225382 4.42727 0
M  V30 1336 H 128.088 0.186636 0.644521 0
M  V30 1337 H 130.632 1.15446 1.68797 0
M  V30 1338 H 128.787 -0.0237719 3.87393 0
M  V30 1339 H 129.201 1.95455 4.86721 0
M  V30 1340 H 130.675 0.368813 5.50767 0
M  V30 1341 H 131.152 -0.834369 4.31202 0
M  V30 1342 H 131.758 0.831864 4.17085 0
M  V30 1343 N 130.073 -1.45103 0.615059 0
M  V30 1344 C 131.322 -2.01396 0.110718 0
M  V30 1345 C 131.635 -1.48834 -1.26916 0
M  V30 1346 O 132.841 -1.97152 -1.86664 0
M  V30 1347 C 131.297 -3.59599 0.14723 0
M  V30 1348 C 130.905 -4.21158 1.52743 0
M  V30 1349 C 132.649 -4.23428 -0.30148 0
M  V30 1350 C 130.556 -5.71535 1.51992 0
M  V30 1351 H 129.486 -0.753061 0.0376241 0
M  V30 1352 H 132.137 -1.66494 0.77149 0
M  V30 1353 H 130.519 -3.91724 -0.580339 0
M  V30 1354 H 131.693 -4.00594 2.2773 0
M  V30 1355 H 130.008 -3.69552 1.91886 0
M  V30 1356 H 132.605 -5.33703 -0.326392 0
M  V30 1357 H 132.948 -3.94629 -1.32565 0
M  V30 1358 H 133.481 -3.96047 0.373065 0
M  V30 1359 H 130.22 -6.05044 2.52193 0
M  V30 1360 H 129.74 -5.94268 0.81274 0
M  V30 1361 H 131.419 -6.34873 1.24681 0
M  V30 1362 N 131.551 -0.354651 -1.53558 0
M  V30 1363 C 132.484 0.540273 -2.21712 0
M  V30 1364 C 133.462 1.09161 -1.2051 0
M  V30 1365 O 134.646 1.14979 -1.49372 0
M  V30 1366 C 131.773 1.74435 -2.90328 0
M  V30 1367 C 130.819 1.32146 -4.05512 0
M  V30 1368 S 131.652 0.331924 -5.3447 0
M  V30 1369 C 132.808 1.54258 -6.06593 0
M  V30 1370 H 133.041 -0.0385776 -2.97275 0
M  V30 1371 H 130.574 -0.138736 -1.53775 0
M  V30 1372 H 132.532 2.43507 -3.30476 0
M  V30 1373 H 131.193 2.29444 -2.1451 0
M  V30 1374 H 130.386 2.21952 -4.52497 0
M  V30 1375 H 129.988 0.710091 -3.67197 0
M  V30 1376 H 132.28 2.47534 -6.30661 0
M  V30 1377 H 133.223 1.11431 -6.99277 0
M  V30 1378 H 133.631 1.74367 -5.36895 0
M  V30 1379 N 133.029 1.57378 -0.0835403 0
M  V30 1380 C 133.992 2.12252 0.864959 0
M  V30 1381 C 134.992 1.04916 1.21858 0
M  V30 1382 O 136.182 1.30853 1.14991 0
M  V30 1383 C 133.314 2.63358 2.16461 0
M  V30 1384 H 134.507 2.97371 0.388676 0
M  V30 1385 H 132.06 1.55423 0.165317 0
M  V30 1386 H 132.795 1.81727 2.686 0
M  V30 1387 H 132.58 3.41826 1.92087 0
M  V30 1388 H 134.07 3.05847 2.84337 0
M  V30 1389 N 134.507 -0.190092 1.56449 0
M  V30 1390 C 135.753 -0.911052 1.81184 0
M  V30 1391 C 136.086 -1.82699 0.658396 0
M  V30 1392 O 135.361 -1.91491 -0.340775 0
M  V30 1393 C 135.644 -1.72297 3.16205 0
M  V30 1394 C 135.497 -0.831419 4.42049 0
M  V30 1395 C 136.816 -2.69454 3.47969 0
M  V30 1396 H 133.935 -0.32977 0.659106 0
M  V30 1397 H 136.577 -0.178169 1.89163 0
M  V30 1398 H 134.727 -2.34778 3.09534 0
M  V30 1399 H 136.399 -0.220929 4.60771 0
M  V30 1400 H 134.642 -0.138406 4.33579 0
M  V30 1401 H 135.313 -1.43461 5.33032 0
M  V30 1402 H 137.789 -2.17104 3.54972 0
M  V30 1403 H 136.665 -3.23342 4.43555 0
M  V30 1404 H 136.926 -3.48744 2.71717 0
M  V30 1405 N 135.985 -1.50799 -0.457987 0
M  V30 1406 C 136.932 -1.70617 -1.5543 0
M  V30 1407 C 137.902 -0.547562 -1.56815 0
M  V30 1408 O 139.087 -0.779647 -1.74144 0
M  V30 1409 C 136.227 -1.81831 -2.93311 0
M  V30 1410 C 135.34 -3.09278 -3.01615 0
M  V30 1411 C 134.475 -3.11209 -4.30491 0
M  V30 1412 C 133.514 -4.33055 -4.32585 0
M  V30 1413 N 132.651 -4.32652 -5.52952 0
M  V30 1414 H 137.491 -2.64207 -1.37836 0
M  V30 1415 H 135.028 -1.30959 -0.669937 0
M  V30 1416 H 136.986 -1.86314 -3.73287 0
M  V30 1417 H 135.616 -0.916685 -3.0951 0
M  V30 1418 H 134.668 -3.14203 -2.1443 0
M  V30 1419 H 135.98 -3.99233 -2.99022 0
M  V30 1420 H 135.134 -3.14494 -5.18824 0
M  V30 1421 H 133.873 -2.19106 -4.35711 0
M  V30 1422 H 132.878 -4.29969 -3.42647 0
M  V30 1423 H 134.103 -5.264 -4.29046 0
M  V30 1424 H 132.049 -3.43409 -5.58933 0
M  V30 1425 H 131.966 -5.16392 -5.52155 0
M  V30 1426 H 133.234 -4.40101 -6.43375 0
M  V30 1427 N 137.463 0.71206 -1.40597 0
M  V30 1428 C 138.879 1.02058 -1.22704 0
M  V30 1429 C 139.079 2.01228 -0.104729 0
M  V30 1430 O 138.135 2.4674 0.53624 0
M  V30 1431 C 139.448 1.56094 -2.57012 0
M  V30 1432 C 140.996 1.6806 -2.64054 0
M  V30 1433 C 141.471 2.25501 -3.9864 0
M  V30 1434 N 142.962 2.32882 -4.004 0
M  V30 1435 C 143.697 2.78317 -5.01325 0
M  V30 1436 N 143.193 3.23478 -6.12645 0
M  V30 1437 N 144.986 2.77733 -4.88693 0
M  V30 1438 H 137.137 0.0547896 -2.12329 0
M  V30 1439 H 139.4 0.0869027 -0.944008 0
M  V30 1440 H 139.106 0.906865 -3.39807 0
M  V30 1441 H 138.98 2.54564 -2.78347 0
M  V30 1442 H 141.367 2.32583 -1.81629 0
M  V30 1443 H 141.448 0.681802 -2.46546 0
M  V30 1444 H 141.092 1.61598 -4.81506 0
M  V30 1445 H 141.022 3.26102 -4.13479 0
M  V30 1446 H 143.513 2.00991 -3.20017 0
M  V30 1447 H 143.826 3.56725 -6.85542 0
M  V30 1448 H 142.171 3.21429 -6.16205 0
M  V30 1449 H 145.362 2.4179 -4.00818 0
M  V30 1450 H 145.535 3.12826 -5.67489 0
M  V30 1451 N 138.941 1.26152 0.944643 0
M  V30 1452 C 140.19 1.10883 1.68487 0
M  V30 1453 C 140.503 -0.348153 1.92477 0
M  V30 1454 O 141.709 -0.621459 2.64292 0
M  V30 1455 C 140.165 1.93624 3.03377 0
M  V30 1456 C 139.773 3.43875 2.87148 0
M  V30 1457 C 141.517 1.86954 3.81115 0
M  V30 1458 C 139.424 4.18875 4.1749 0
M  V30 1459 H 138.354 0.41135 0.631907 0
M  V30 1460 H 141.005 1.50433 1.05082 0
M  V30 1461 H 139.387 1.46904 3.67743 0
M  V30 1462 H 140.561 3.98338 2.31653 0
M  V30 1463 H 138.876 3.51744 2.22856 0
M  V30 1464 H 141.473 2.40275 4.77673 0
M  V30 1465 H 141.816 0.839518 4.07747 0
M  V30 1466 H 142.349 2.31477 3.23517 0
M  V30 1467 H 139.088 5.22332 3.96043 0
M  V30 1468 H 138.608 3.69193 4.72712 0
M  V30 1469 H 140.287 4.27134 4.85968 0
M  V30 1470 N 140.419 -1.14872 1.07899 0
M  V30 1471 C 141.835 -1.37776 0.805606 0
M  V30 1472 C 142.035 -1.92743 -0.587555 0
M  V30 1473 O 141.091 -2.13678 -1.34528 0
M  V30 1474 C 142.404 -2.34361 1.88402 0
M  V30 1475 C 143.952 -2.48012 1.90942 0
M  V30 1476 C 144.427 -3.47893 2.97883 0
M  V30 1477 N 145.918 -3.55433 2.97021 0
M  V30 1478 C 146.653 -4.32553 3.76412 0
M  V30 1479 N 146.149 -5.12959 4.65666 0
M  V30 1480 N 147.942 -4.27697 3.64735 0
M  V30 1481 H 140.093 -0.775365 1.97742 0
M  V30 1482 H 142.356 -0.403521 0.857831 0
M  V30 1483 H 142.062 -2.01098 2.88535 0
M  V30 1484 H 141.936 -3.34206 1.74889 0
M  V30 1485 H 144.323 -2.8057 0.914579 0
M  V30 1486 H 144.404 -1.48147 2.08534 0
M  V30 1487 H 144.048 -3.16069 3.97571 0
M  V30 1488 H 143.978 -4.47527 2.77538 0
M  V30 1489 H 146.469 -2.98048 2.32326 0
M  V30 1490 H 146.782 -5.69065 5.22862 0
M  V30 1491 H 145.127 -5.12245 4.69712 0
M  V30 1492 H 148.318 -3.63949 2.94378 0
M  V30 1493 H 148.491 -4.8755 4.26848 0
M  V30 1494 N 141.898 -0.863906 -1.31812 0
M  V30 1495 C 142.861 -0.320212 -2.26952 0
M  V30 1496 C 143.861 0.525369 -1.51975 0
M  V30 1497 O 145.051 0.335547 -1.70938 0
M  V30 1498 C 142.183 0.545919 -3.365 0
M  V30 1499 H 143.376 -1.16004 -2.76556 0
M  V30 1500 H 140.929 -0.638995 -1.42641 0
M  V30 1501 H 141.664 1.40718 -2.92179 0
M  V30 1502 H 141.449 -0.0594674 -3.92055 0
M  V30 1503 H 142.939 0.918796 -4.07367 0
M  V30 1504 N 143.376 1.44774 -0.622745 0
M  V30 1505 C 144.604 2.06487 -0.130722 0
M  V30 1506 C 145.019 1.46476 1.19123 0
M  V30 1507 O 144.376 0.584502 1.72887 0
M  V30 1508 C 144.427 3.615 -0.000807207 0
M  V30 1509 O 144.148 4.19274 -1.27048 0
M  V30 1510 C 145.649 4.40229 0.520898 0
M  V30 1511 H 142.869 0.666704 -0.0758106 0
M  V30 1512 H 145.413 1.85779 -0.854774 0
M  V30 1513 H 143.568 3.81498 0.673643 0
M  V30 1514 H 143.982 5.12622 -1.1099 0
M  V30 1515 H 145.456 5.49144 0.560838 0
M  V30 1516 H 145.933 4.1108 1.54627 0
M  V30 1517 H 146.539 4.25131 -0.120018 0
M  V30 1518 N 144.854 0.36279 1.53368 0
M  V30 1519 C 146.1 -0.228113 2.01513 0
M  V30 1520 C 146.433 -1.48648 1.2497 0
M  V30 1521 O 145.708 -1.91459 0.342616 0
M  V30 1522 C 145.991 -0.522884 3.56284 0
M  V30 1523 C 145.844 0.74892 4.43521 0
M  V30 1524 C 147.163 -1.32461 4.19693 0
M  V30 1525 H 144.282 -0.0814343 0.732487 0
M  V30 1526 H 146.924 0.48713 1.83649 0
M  V30 1527 H 145.074 -1.1322 3.71636 0
M  V30 1528 H 146.746 1.38648 4.39971 0
M  V30 1529 H 144.989 1.36986 4.11603 0
M  V30 1530 H 145.66 0.497667 5.49752 0
M  V30 1531 H 148.136 -0.809203 4.08156 0
M  V30 1532 H 147.012 -1.49961 5.28018 0
M  V30 1533 H 147.273 -2.33232 3.75573 0
M  V30 1534 N 146.332 -1.57332 0.0918853 0
M  V30 1535 C 147.28 -2.15075 -0.885747 0
M  V30 1536 C 148.274 -1.09277 -1.29441 0
M  V30 1537 O 149.48 -1.27627 -1.26931 0
M  V30 1538 H 145.855 -0.687966 -0.303656 0
M  V30 1539 H 147.826 -2.96047 -0.373995 0
M  V30 1540 C 146.575 -2.74325 -2.13638 0
M  V30 1541 H 145.898 -3.55418 -1.8308 0
M  V30 1542 H 147.338 -3.183 -2.80109 0
M  V30 1543 C 145.797 -1.70062 -2.90827 0
M  V30 1544 O 146.327 -1.13763 -3.85254 0
M  V30 1545 N 144.533 -1.40628 -2.54307 0
M  V30 1546 H 144.08 -1.866 -1.7759 0
M  V30 1547 H 144.038 -0.711043 -3.06254 0
M  V30 1548 N 147.81 0.181792 -1.56548 0
M  V30 1549 C 149.035 0.920019 -1.85877 0
M  V30 1550 C 149.46 1.75494 -0.677021 0
M  V30 1551 O 148.818 1.77399 0.374056 0
M  V30 1552 C 148.866 1.78112 -3.13542 0
M  V30 1553 O 147.97 2.88152 -2.95029 0
M  V30 1554 H 147.311 0.258334 -0.611686 0
M  V30 1555 H 149.841 0.183092 -2.03779 0
M  V30 1556 H 149.851 2.18314 -3.44678 0
M  V30 1557 H 148.526 1.16777 -3.99169 0
M  V30 1558 H 147.103 2.51609 -2.75222 0
M  V30 1559 N 149.288 1.51039 0.449983 0
M  V30 1560 C 150.22 1.67617 1.56324 0
M  V30 1561 C 151.233 0.557083 1.52972 0
M  V30 1562 O 152.422 0.830989 1.57977 0
M  V30 1563 C 149.522 1.66402 2.95235 0
M  V30 1564 C 148.695 2.9469 3.23229 0
M  V30 1565 C 147.754 2.85832 4.41799 0
M  V30 1566 O 146.78 3.59785 4.41071 0
M  V30 1567 N 147.982 2.00821 5.44657 0
M  V30 1568 H 150.747 2.63648 1.42512 0
M  V30 1569 H 148.308 1.48767 0.638737 0
M  V30 1570 H 150.3 1.58062 3.72557 0
M  V30 1571 H 148.87 0.780182 3.02708 0
M  V30 1572 H 148.09 3.16996 2.34323 0
M  V30 1573 H 149.378 3.79636 3.38754 0
M  V30 1574 H 148.776 1.40091 5.48079 0
M  V30 1575 H 147.333 1.98368 6.20881 0
M  V30 1576 N 150.766 -0.704594 1.40972 0
M  V30 1577 C 151.676 -1.84856 1.44448 0
M  V30 1578 C 152.692 -1.70726 0.335961 0
M  V30 1579 O 153.868 -1.92799 0.582276 0
M  V30 1580 C 150.933 -3.20758 1.31587 0
M  V30 1581 C 149.994 -3.47063 2.52677 0
M  V30 1582 C 149.227 -4.76481 2.4042 0
M  V30 1583 O 149.45 -5.52341 1.42391 0
M  V30 1584 O 148.384 -5.03367 3.30007 0
M  V30 1585 H 152.21 -1.8488 2.40942 0
M  V30 1586 H 149.795 -0.85647 1.22413 0
M  V30 1587 H 151.677 -4.01913 1.26665 0
M  V30 1588 H 150.352 -3.21438 0.382049 0
M  V30 1589 H 149.259 -2.65873 2.63177 0
M  V30 1590 H 150.592 -3.5119 3.44858 0
M  V30 1591 N 152.244 -1.26651 -0.937939 0
M  V30 1592 C 153.176 -1.04283 -2.04102 0
M  V30 1593 C 154.189 -0.00221014 -1.628 0
M  V30 1594 O 155.378 -0.242645 -1.76843 0
M  V30 1595 C 152.478 -0.557846 -3.34277 0
M  V30 1596 C 151.651 -1.66843 -4.04329 0
M  V30 1597 C 150.71 -1.18095 -5.12777 0
M  V30 1598 O 149.736 -1.87865 -5.37304 0
M  V30 1599 N 150.938 -0.0311006 -5.80492 0
M  V30 1600 H 153.703 -1.9927 -2.23856 0
M  V30 1601 H 151.264 -1.1808 -1.10764 0
M  V30 1602 H 153.256 -0.215836 -4.04124 0
M  V30 1603 H 151.826 0.298523 -3.11171 0
M  V30 1604 H 151.046 -2.18123 -3.28353 0
M  V30 1605 H 152.334 -2.41408 -4.47883 0
M  V30 1606 H 151.732 0.551486 -5.63005 0
M  V30 1607 H 150.289 0.251809 -6.51313 0
M  V30 1608 N 153.722 1.14298 -1.08507 0
M  V30 1609 C 154.669 2.19414 -0.715965 0
M  V30 1610 C 155.639 1.63399 0.298326 0
M  V30 1611 O 156.824 1.89929 0.182101 0
M  V30 1612 C 153.964 3.44845 -0.132534 0
M  V30 1613 C 153.077 4.15007 -1.19973 0
M  V30 1614 C 152.212 5.28024 -0.580048 0
M  V30 1615 C 151.251 5.9002 -1.62921 0
M  V30 1616 N 150.388 6.94485 -1.03125 0
M  V30 1617 H 155.228 2.50336 -1.61666 0
M  V30 1618 H 152.765 1.2293 -0.807882 0
M  V30 1619 H 154.723 4.16601 0.223454 0
M  V30 1620 H 153.353 3.14403 0.731467 0
M  V30 1621 H 152.405 3.41629 -1.67313 0
M  V30 1622 H 153.717 4.57178 -1.99473 0
M  V30 1623 H 152.871 6.06455 -0.172364 0
M  V30 1624 H 151.61 4.87076 0.246603 0
M  V30 1625 H 150.615 5.10291 -2.04654 0
M  V30 1626 H 151.84 6.33042 -2.45835 0
M  V30 1627 H 149.786 6.55612 -0.225711 0
M  V30 1628 H 149.703 7.35148 -1.76334 0
M  V30 1629 H 150.971 7.7679 -0.649458 0
M  V30 1630 N 155.201 0.870884 1.31352 0
M  V30 1631 C 156.617 0.562932 1.49343 0
M  V30 1632 C 156.817 -0.902725 1.80148 0
M  V30 1633 O 155.873 -1.68484 1.88067 0
M  V30 1634 C 157.186 1.46393 2.62659 0
M  V30 1635 C 158.734 1.46607 2.76542 0
M  V30 1636 C 159.209 2.35266 3.92955 0
M  V30 1637 N 160.7 2.33151 4.00243 0
M  V30 1638 C 161.435 2.98471 4.89594 0
M  V30 1639 N 160.931 3.72964 5.8384 0
M  V30 1640 N 162.724 2.87775 4.82848 0
M  V30 1641 H 154.875 1.81923 1.09626 0
M  V30 1642 H 157.138 0.777934 0.541777 0
M  V30 1643 H 156.844 2.50689 2.46674 0
M  V30 1644 H 156.718 1.16314 3.58819 0
M  V30 1645 H 159.105 0.43069 2.9194 0
M  V30 1646 H 159.186 1.8071 1.81046 0
M  V30 1647 H 158.83 3.38881 3.78315 0
M  V30 1648 H 158.76 1.98487 4.87761 0
M  V30 1649 H 161.251 1.79006 3.32814 0
M  V30 1650 H 161.564 4.19932 6.4875 0
M  V30 1651 H 159.909 3.77073 5.83816 0
M  V30 1652 H 163.1 2.29116 4.08195 0
M  V30 1653 H 163.273 3.38961 5.52277 0
M  V30 1654 N 156.679 -1.44442 0.630414 0
M  V30 1655 C 157.609 -2.33418 -0.0618083 0
M  V30 1656 C 158.59 -1.48165 -0.835541 0
M  V30 1657 O 159.775 -1.76886 -0.801564 0
M  V30 1658 C 156.905 -3.31222 -1.04449 0
M  V30 1659 C 155.859 -4.26288 -0.382436 0
M  V30 1660 C 155.185 -5.13954 -1.47497 0
M  V30 1661 C 156.485 -5.1744 0.710865 0
M  V30 1662 H 158.179 -2.91548 0.681184 0
M  V30 1663 H 155.725 -1.40191 0.329026 0
M  V30 1664 H 157.678 -3.92351 -1.53748 0
M  V30 1665 H 156.402 -2.71299 -1.81836 0
M  V30 1666 H 155.061 -3.6649 0.0899054 0
M  V30 1667 H 154.709 -4.50385 -2.2397 0
M  V30 1668 H 154.409 -5.7837 -1.03737 0
M  V30 1669 H 155.933 -5.77955 -1.96979 0
M  V30 1670 H 157.347 -5.72509 0.300996 0
M  V30 1671 H 155.744 -5.90455 1.07156 0
M  V30 1672 H 156.814 -4.58496 1.57829 0
M  V30 1673 N 158.157 -0.370918 -1.53173 0
M  V30 1674 C 159.087 0.464847 -2.28826 0
M  V30 1675 C 160.068 1.07936 -1.31468 0
M  V30 1676 O 161.253 1.0956 -1.60344 0
M  V30 1677 C 158.383 1.60196 -3.08147 0
M  V30 1678 C 157.337 1.11443 -4.13237 0
M  V30 1679 C 156.663 2.3422 -4.80672 0
M  V30 1680 C 157.963 0.195384 -5.21934 0
M  V30 1681 H 159.657 -0.166329 -2.98938 0
M  V30 1682 H 157.203 -0.0814359 -1.4377 0
M  V30 1683 H 159.156 2.19332 -3.59822 0
M  V30 1684 H 157.88 2.26045 -2.35735 0
M  V30 1685 H 156.539 0.545727 -3.62515 0
M  V30 1686 H 156.187 2.98537 -4.04827 0
M  V30 1687 H 155.887 2.02269 -5.51689 0
M  V30 1688 H 157.411 2.94032 -5.35143 0
M  V30 1689 H 158.825 0.694375 -5.69079 0
M  V30 1690 H 157.222 -0.0335027 -6.00091 0
M  V30 1691 H 158.292 -0.760961 -4.78892 0
M  V30 1692 N 159.635 1.57281 -0.100228 0
M  V30 1693 C 160.568 2.09976 0.893612 0
M  V30 1694 C 161.546 1.01155 1.27304 0
M  V30 1695 O 162.73 1.28687 1.37739 0
M  V30 1696 C 159.857 2.58098 2.19324 0
M  V30 1697 C 158.903 3.78626 1.96328 0
M  V30 1698 S 159.736 5.21959 1.19662 0
M  V30 1699 C 160.892 5.73435 2.50844 0
M  V30 1700 H 161.125 2.93946 0.44534 0
M  V30 1701 H 158.658 1.53985 0.113167 0
M  V30 1702 H 160.616 2.8648 2.94005 0
M  V30 1703 H 159.277 1.74344 2.61272 0
M  V30 1704 H 158.47 4.10382 2.92579 0
M  V30 1705 H 158.072 3.50763 1.29775 0
M  V30 1706 H 160.364 5.82015 3.46792 0
M  V30 1707 H 161.307 6.7185 2.23659 0
M  V30 1708 H 161.715 5.01395 2.59352 0
M  V30 1709 N 161.113 -0.173488 1.56642 0
M  V30 1710 C 162.39 -0.917617 1.7274 0
M  V30 1711 C 162.77 -2.00484 0.661027 0
M  V30 1712 O 162.118 -2.26184 -0.32453 0
M  V30 1713 C 162.328 -1.48433 3.15862 0
M  V30 1714 C 163.676 -1.95809 3.76754 0
M  V30 1715 O 164.7 -1.58231 3.19126 0
M  V30 1716 O 163.559 -2.65024 4.77938 0
M  V30 1717 H 160.653 -0.431772 0.705338 0
M  V30 1718 H 163.199 -0.161487 1.6893 0
M  V30 1719 H 161.971 -0.701715 3.84957 0
M  V30 1720 H 161.594 -2.30471 3.23989 0
M  V30 1721 N 162.591 -1.51276 -0.441967 0
M  V30 1722 C 163.521 -1.752 -1.54361 0
M  V30 1723 C 164.502 -0.601682 -1.59103 0
M  V30 1724 O 165.687 -0.843913 -1.74905 0
M  V30 1725 C 162.817 -1.87282 -2.92477 0
M  V30 1726 C 161.771 -3.02687 -3.02596 0
M  V30 1727 C 161.097 -2.99947 -4.42647 0
M  V30 1728 C 162.397 -4.4273 -2.77106 0
M  V30 1729 H 164.091 -2.67442 -1.34592 0
M  V30 1730 H 161.637 -1.28694 -0.646048 0
M  V30 1731 H 163.59 -2.02602 -3.695 0
M  V30 1732 H 162.314 -0.916844 -3.13467 0
M  V30 1733 H 160.973 -2.87065 -2.28012 0
M  V30 1734 H 160.621 -2.02136 -4.60597 0
M  V30 1735 H 160.321 -3.77439 -4.50348 0
M  V30 1736 H 161.845 -3.17354 -5.2165 0
M  V30 1737 H 163.259 -4.58727 -3.43864 0
M  V30 1738 H 161.656 -5.21893 -2.96222 0
M  V30 1739 H 162.726 -4.53087 -1.72744 0
M  V30 1740 N 164.069 0.697108 -1.41344 0
M  V30 1741 C 165.346 1.45154 -1.31109 0
M  V30 1742 C 165.726 2.11009 0.0620449 0
M  V30 1743 O 165.074 2.01571 1.07618 0
M  V30 1744 C 165.284 2.47223 -2.46337 0
M  V30 1745 C 166.632 3.1252 -2.87431 0
M  V30 1746 O 167.656 2.57547 -2.46065 0
M  V30 1747 O 166.515 4.12083 -3.58957 0
M  V30 1748 H 163.609 0.646365 -0.515889 0
M  V30 1749 H 166.155 0.727716 -1.53305 0
M  V30 1750 H 164.927 1.97204 -3.37974 0
M  V30 1751 H 164.55 3.27116 -2.2601 0
M  V30 1752 N 165.547 1.27147 0.931209 0
M  V30 1753 C 166.796 1.12664 1.67302 0
M  V30 1754 C 167.109 -0.327718 1.92835 0
M  V30 1755 O 168.315 -0.593392 2.64936 0
M  V30 1756 C 166.771 1.9683 3.01307 0
M  V30 1757 C 166.379 3.46901 2.83485 0
M  V30 1758 C 168.123 1.90985 3.79111 0
M  V30 1759 C 166.03 4.23279 4.13024 0
M  V30 1760 H 164.96 0.41803 0.627509 0
M  V30 1761 H 167.611 1.51539 1.03481 0
M  V30 1762 H 165.993 1.50797 3.66164 0
M  V30 1763 H 167.167 4.00773 2.27415 0
M  V30 1764 H 165.482 3.54088 2.19113 0
M  V30 1765 H 168.079 2.45328 4.75098 0
M  V30 1766 H 168.422 0.882718 4.06834 0
M  V30 1767 H 168.955 2.34895 3.21044 0
M  V30 1768 H 165.694 5.26503 3.90481 0
M  V30 1769 H 165.214 3.74186 4.6877 0
M  V30 1770 H 166.893 4.32265 4.81411 0
M  V30 1771 N 167.025 -1.13721 1.09112 0
M  V30 1772 C 167.973 -2.21103 0.722219 0
M  V30 1773 C 168.967 -1.67147 -0.275374 0
M  V30 1774 O 170.173 -1.79477 -0.137176 0
M  V30 1775 H 166.548 -0.720445 0.215553 0
M  V30 1776 H 168.519 -2.49483 1.63709 0
M  V30 1777 C 167.268 -3.47352 0.15543 0
M  V30 1778 H 166.591 -3.89206 0.914246 0
M  V30 1779 H 168.031 -4.2395 -0.0647967 0
M  V30 1780 C 166.49 -3.1814 -1.10852 0
M  V30 1781 O 167.02 -3.36604 -2.19227 0
M  V30 1782 N 165.226 -2.72045 -1.02176 0
M  V30 1783 H 164.773 -2.57221 -0.139764 0
M  V30 1784 H 164.731 -2.52875 -1.8682 0
M  V30 1785 N 168.503 -0.877838 -1.30888 0
M  V30 1786 C 169.436 -0.283995 -2.26426 0
M  V30 1787 C 170.414 0.591361 -1.51465 0
M  V30 1788 O 171.598 0.54304 -1.80509 0
M  V30 1789 C 168.725 0.597129 -3.33395 0
M  V30 1790 C 167.771 -0.207937 -4.25993 0
M  V30 1791 S 168.604 -1.59158 -5.11301 0
M  V30 1792 C 169.76 -0.716791 -6.21782 0
M  V30 1793 H 169.993 -1.09383 -2.76446 0
M  V30 1794 H 167.526 -0.676828 -1.38775 0
M  V30 1795 H 169.484 1.09978 -3.95493 0
M  V30 1796 H 168.145 1.38099 -2.82113 0
M  V30 1797 H 167.338 0.464163 -5.01858 0
M  V30 1798 H 166.94 -0.642963 -3.68432 0
M  V30 1799 H 169.232 0.0692833 -6.77465 0
M  V30 1800 H 170.175 -1.44682 -6.93161 0
M  V30 1801 H 170.583 -0.280855 -5.63801 0
M  V30 1802 N 169.982 1.44106 -0.638065 0
M  V30 1803 C 171.398 1.56672 -0.304286 0
M  V30 1804 C 171.598 1.6244 1.19228 0
M  V30 1805 O 170.654 1.57121 1.9766 0
M  V30 1806 C 171.967 2.83503 -1.00231 0
M  V30 1807 C 173.515 2.97226 -0.981116 0
M  V30 1808 C 173.99 4.26868 -1.65974 0
M  V30 1809 N 175.481 4.33698 -1.62666 0
M  V30 1810 C 176.216 5.32745 -2.12063 0
M  V30 1811 N 175.712 6.38157 -2.6968 0
M  V30 1812 N 177.505 5.24299 -2.02651 0
M  V30 1813 H 169.656 1.38605 -1.60942 0
M  V30 1814 H 171.919 0.664661 -0.675965 0
M  V30 1815 H 171.625 2.85251 -2.0573 0
M  V30 1816 H 171.499 3.73251 -0.54439 0
M  V30 1817 H 173.886 2.95027 0.0654188 0
M  V30 1818 H 173.967 2.08808 -1.47759 0
M  V30 1819 H 173.611 4.29826 -2.70576 0
M  V30 1820 H 173.541 5.14156 -1.13804 0
M  V30 1821 H 176.032 3.58138 -1.20606 0
M  V30 1822 H 176.345 7.10029 -3.05087 0
M  V30 1823 H 174.69 6.38823 -2.73734 0
M  V30 1824 H 177.881 4.4086 -1.57353 0
M  V30 1825 H 178.054 6.01334 -2.41457 0
M  V30 1826 N 171.46 0.379036 1.52974 0
M  V30 1827 C 172.688 -0.20679 2.05864 0
M  V30 1828 C 173.103 -1.41356 1.25155 0
M  V30 1829 O 172.46 -1.8009 0.295588 0
M  V30 1830 C 172.511 -0.587045 3.56702 0
M  V30 1831 O 172.232 0.571776 4.34353 0
M  V30 1832 C 173.733 -1.22983 4.25899 0
M  V30 1833 H 170.953 -0.0336123 0.670158 0
M  V30 1834 H 173.497 0.541298 1.97206 0
M  V30 1835 H 171.652 -1.28504 3.65466 0
M  V30 1836 H 172.066 0.261544 5.23847 0
M  V30 1837 H 173.54 -1.44635 5.32715 0
M  V30 1838 H 174.017 -2.19416 3.80465 0
M  V30 1839 H 174.623 -0.572892 4.21424 0
M  V30 1840 N 172.938 -1.57226 0.108567 0
M  V30 1841 C 174.184 -1.95121 -0.552761 0
M  V30 1842 C 174.517 -0.991345 -1.66991 0
M  V30 1843 O 173.792 -0.0267211 -1.94482 0
M  V30 1844 C 174.075 -3.43039 -1.09528 0
M  V30 1845 C 173.928 -4.49797 0.0177332 0
M  V30 1846 C 175.247 -3.92567 -1.98945 0
M  V30 1847 H 172.366 -0.709496 -0.199461 0
M  V30 1848 H 175.008 -1.89126 0.182011 0
M  V30 1849 H 173.158 -3.48279 -1.72146 0
M  V30 1850 H 174.83 -4.56661 0.652584 0
M  V30 1851 H 173.073 -4.284 0.682309 0
M  V30 1852 H 173.744 -5.50528 -0.402919 0
M  V30 1853 H 176.22 -3.89565 -1.46214 0
M  V30 1854 H 175.096 -4.96605 -2.33827 0
M  V30 1855 H 175.357 -3.32648 -2.91201 0
M  V30 1856 N 174.416 0.165178 -1.56732 0
M  V30 1857 C 175.693 0.908443 -1.73224 0
M  V30 1858 C 176.073 2.0013 -0.67165 0
M  V30 1859 O 175.421 2.26353 0.31253 0
M  V30 1860 C 175.631 1.46756 -3.16644 0
M  V30 1861 C 176.979 1.93809 -3.77787 0
M  V30 1862 O 178.003 1.56537 -3.1996 0
M  V30 1863 O 176.862 2.62486 -4.79336 0
M  V30 1864 H 173.956 0.428025 -0.707618 0
M  V30 1865 H 176.502 0.152526 -1.69013 0
M  V30 1866 H 175.274 0.68129 -3.85323 0
M  V30 1867 H 174.897 2.28749 -3.25207 0
M  V30 1868 N 175.894 1.51508 0.433938 0
M  V30 1869 C 177.134 1.66006 1.19253 0
M  V30 1870 C 177.498 0.369868 1.88404 0
M  V30 1871 O 178.699 0.39066 2.65946 0
M  V30 1872 C 176.97 2.83229 2.17981 0
M  V30 1873 S 178.529 3.18075 3.02281 0
M  V30 1874 H 175.347 0.584821 0.404358 0
M  V30 1875 H 177.949 1.89425 0.48357 0
M  V30 1876 H 176.653 3.75407 1.65824 0
M  V30 1877 H 176.184 2.6201 2.93453 0
M  V30 1878 H 178.199 2.64772 4.19655 0
M  V30 1879 N 177.372 -0.689602 1.41712 0
M  V30 1880 C 178.619 -1.44966 1.4139 0
M  V30 1881 C 178.947 -1.94484 0.025105 0
M  V30 1882 O 178.202 -1.70307 -0.964048 0
M  V30 1883 C 178.501 -2.67298 2.37247 0
M  V30 1884 C 178.167 -2.36405 3.83958 0
M  V30 1885 C 176.829 -2.27691 4.23923 0
M  V30 1886 C 179.181 -2.11043 4.76561 0
M  V30 1887 C 176.509 -1.91719 5.54492 0
M  V30 1888 C 178.861 -1.76578 6.07456 0
M  V30 1889 C 177.525 -1.66363 6.46436 0
M  V30 1890 H 176.795 -0.53047 0.517381 0
M  V30 1891 H 179.442 -0.787655 1.74552 0
M  V30 1892 H 177.747 -3.38461 1.9736 0
M  V30 1893 H 179.444 -3.25452 2.34269 0
M  V30 1894 H 176.034 -2.44085 3.52308 0
M  V30 1895 H 180.218 -2.16717 4.46483 0
M  V30 1896 H 175.474 -1.82367 5.83568 0
M  V30 1897 H 179.648 -1.55974 6.78708 0
M  V30 1898 H 177.275 -1.38258 7.47522 0
M  V30 1899 N 178.85 -1.27639 -0.924453 0
M  V30 1900 C 180.08 -1.16819 -1.70402 0
M  V30 1901 C 180.488 0.277191 -1.87158 0
M  V30 1902 O 179.831 1.20025 -1.39067 0
M  V30 1903 C 179.893 -1.78305 -3.12166 0
M  V30 1904 C 179.557 -3.27502 -3.18734 0
M  V30 1905 C 180.554 -4.2409 -3.00738 0
M  V30 1906 C 178.239 -3.68269 -3.4159 0
M  V30 1907 C 180.233 -5.59422 -3.05492 0
M  V30 1908 C 177.92 -5.0373 -3.45977 0
M  V30 1909 C 178.918 -5.99116 -3.27946 0
M  V30 1910 O 178.606 -7.32108 -3.32074 0
M  V30 1911 H 178.338 -0.406931 -0.539799 0
M  V30 1912 H 180.892 -1.69078 -1.16626 0
M  V30 1913 H 179.122 -1.20528 -3.67437 0
M  V30 1914 H 180.811 -1.62154 -3.72103 0
M  V30 1915 H 181.577 -3.93931 -2.82919 0
M  V30 1916 H 177.456 -2.94496 -3.54673 0
M  V30 1917 H 181 -6.33852 -2.91337 0
M  V30 1918 H 176.897 -5.33543 -3.63321 0
M  V30 1919 H 177.665 -7.40598 -3.48507 0
M  V30 1920 N 180.328 1.1314 -1.09713 0
M  V30 1921 C 181.556 1.88321 -0.856898 0
M  V30 1922 C 181.971 1.79276 0.592073 0
M  V30 1923 O 181.328 1.16142 1.40774 0
M  V30 1924 C 181.379 3.37812 -1.28706 0
M  V30 1925 O 181.1 3.46627 -2.67921 0
M  V30 1926 C 182.601 4.29952 -1.07964 0
M  V30 1927 H 179.821 0.596094 -0.308079 0
M  V30 1928 H 182.365 1.43205 -1.45988 0
M  V30 1929 H 180.52 3.805 -0.727912 0
M  V30 1930 H 180.934 4.39579 -2.8613 0
M  V30 1931 H 182.408 5.33159 -1.42986 0
M  V30 1932 H 182.885 4.39196 -0.0176577 0
M  V30 1933 H 183.491 3.93036 -1.62489 0
M  V30 1934 N 181.806 0.884767 1.30421 0
M  V30 1935 C 183.052 0.503851 1.96441 0
M  V30 1936 C 183.385 -0.944518 1.69684 0
M  V30 1937 O 182.66 -1.66737 1.00145 0
M  V30 1938 C 182.943 0.779085 3.51571 0
M  V30 1939 C 182.796 2.27807 3.87846 0
M  V30 1940 C 184.115 0.255452 4.39358 0
M  V30 1941 H 181.234 0.184533 0.713524 0
M  V30 1942 H 183.876 1.10872 1.54297 0
M  V30 1943 H 182.026 0.264274 3.876 0
M  V30 1944 H 183.698 2.86127 3.61841 0
M  V30 1945 H 181.941 2.74479 3.35922 0
M  V30 1946 H 182.612 2.42125 4.96064 0
M  V30 1947 H 185.088 0.696079 4.10236 0
M  V30 1948 H 183.964 0.477361 5.4682 0
M  V30 1949 H 184.225 -0.843293 4.33983 0
M  V30 1950 N 183.284 -1.43765 0.645699 0
M  V30 1951 C 184.512 -2.06253 0.163556 0
M  V30 1952 C 184.927 -1.48352 -1.16778 0
M  V30 1953 O 184.284 -0.611932 -1.71935 0
M  V30 1954 C 184.335 -3.61453 0.0583186 0
M  V30 1955 O 184.056 -4.172 1.33702 0
M  V30 1956 C 185.557 -4.41002 -0.450795 0
M  V30 1957 H 182.777 -0.665413 0.0864077 0
M  V30 1958 H 185.321 -1.84396 0.884222 0
M  V30 1959 H 183.476 -3.82522 -0.612865 0
M  V30 1960 H 183.89 -5.10791 1.19131 0
M  V30 1961 H 185.364 -5.49966 -0.473403 0
M  V30 1962 H 185.841 -4.13488 -1.48068 0
M  V30 1963 H 186.447 -4.24886 0.187637 0
M  V30 1964 N 184.763 -0.387143 -1.52771 0
M  V30 1965 C 186.01 0.195735 -2.01552 0
M  V30 1966 C 186.338 1.46995 -1.27369 0
M  V30 1967 O 185.593 1.92325 -0.361879 0
M  V30 1968 C 185.892 0.512209 -3.53711 0
M  V30 1969 C 185.558 -0.670202 -4.45891 0
M  V30 1970 C 184.22 -0.994586 -4.70809 0
M  V30 1971 C 186.572 -1.46134 -5.00294 0
M  V30 1972 C 183.9 -2.11169 -5.4738 0
M  V30 1973 C 186.252 -2.56903 -5.78086 0
M  V30 1974 C 184.916 -2.89852 -6.01284 0
M  V30 1975 H 184.186 0.0716246 -0.73753 0
M  V30 1976 H 186.833 -0.524046 -1.8419 0
M  V30 1977 H 185.138 1.31329 -3.69134 0
M  V30 1978 H 186.835 0.975804 -3.88946 0
M  V30 1979 H 183.425 -0.407366 -4.2666 0
M  V30 1980 H 187.609 -1.22397 -4.80971 0
M  V30 1981 H 182.865 -2.3707 -5.63567 0
M  V30 1982 H 187.039 -3.18608 -6.19243 0
M  V30 1983 H 184.666 -3.76533 -6.60399 0
M  V30 1984 N 186.241 1.57166 -0.116904 0
M  V30 1985 C 187.471 1.99184 0.548586 0
M  V30 1986 C 187.879 0.995436 1.60897 0
M  V30 1987 O 187.222 -0.0201293 1.83689 0
M  V30 1988 C 187.284 3.37611 1.23526 0
M  V30 1989 C 186.948 4.55857 0.323077 0
M  V30 1990 C 187.945 5.18056 -0.437476 0
M  V30 1991 C 185.63 5.01751 0.234761 0
M  V30 1992 C 187.624 6.24536 -1.2741 0
M  V30 1993 C 185.311 6.08093 -0.605496 0
M  V30 1994 C 186.309 6.69352 -1.35856 0
M  V30 1995 O 185.997 7.7364 -2.18487 0
M  V30 1996 H 185.729 0.659148 0.149999 0
M  V30 1997 H 188.283 2.0443 -0.199428 0
M  V30 1998 H 186.513 3.29113 2.0303 0
M  V30 1999 H 188.202 3.63932 1.79745 0
M  V30 2000 H 188.968 4.83516 -0.379105 0
M  V30 2001 H 184.847 4.53817 0.810601 0
M  V30 2002 H 188.391 6.72281 -1.86237 0
M  V30 2003 H 184.288 6.42063 -0.665268 0
M  V30 2004 H 185.056 7.90727 -2.11406 0
M  V30 2005 N 187.719 -0.156864 1.56817 0
M  V30 2006 C 188.967 -0.869404 1.82444 0
M  V30 2007 C 189.288 -1.82147 0.69623 0
M  V30 2008 O 188.558 -1.93847 -0.28287 0
M  V30 2009 H 187.138 -0.324043 0.673056 0
M  V30 2010 H 189.8 -0.153224 1.94297 0
M  V30 2011 H 188.896 -1.43761 2.77019 0
M  V30 2012 N 189.197 -1.51736 -0.425897 0
M  V30 2013 C 190.16 -1.73271 -1.50032 0
M  V30 2014 C 191.16 -0.602639 -1.4908 0
M  V30 2015 O 192.35 -0.87033 -1.509 0
M  V30 2016 C 189.482 -1.79969 -2.89523 0
M  V30 2017 H 190.675 -2.69172 -1.32237 0
M  V30 2018 H 188.228 -1.41899 -0.65532 0
M  V30 2019 H 188.963 -0.859241 -3.1271 0
M  V30 2020 H 188.748 -2.62109 -2.91619 0
M  V30 2021 H 190.238 -1.9843 -3.67444 0
M  V30 2022 N 190.675 0.682077 -1.42076 0
M  V30 2023 C 191.605 1.80796 -1.47767 0
M  V30 2024 C 192.586 1.6677 -0.334954 0
M  V30 2025 O 193.771 1.863 -0.548264 0
M  V30 2026 C 190.901 3.19038 -1.37229 0
M  V30 2027 C 189.855 3.47789 -2.49453 0
M  V30 2028 C 189.181 4.8553 -2.23975 0
M  V30 2029 C 190.481 3.45411 -3.91776 0
M  V30 2030 H 192.175 1.7629 -2.41997 0
M  V30 2031 H 189.721 0.846721 -1.16476 0
M  V30 2032 H 191.674 3.97528 -1.39821 0
M  V30 2033 H 190.398 3.24204 -0.394907 0
M  V30 2034 H 189.057 2.71657 -2.46166 0
M  V30 2035 H 188.705 4.87337 -1.24547 0
M  V30 2036 H 188.405 5.0573 -2.99184 0
M  V30 2037 H 189.929 5.66312 -2.28304 0
M  V30 2038 H 191.343 4.13882 -3.96705 0
M  V30 2039 H 189.74 3.77145 -4.66778 0
M  V30 2040 H 190.81 2.44122 -4.18966 0
M  V30 2041 N 192.153 1.28127 0.917671 0
M  V30 2042 C 193.4 1.15052 1.66641 0
M  V30 2043 C 193.728 -0.301677 1.92146 0
M  V30 2044 O 192.983 -1.23622 1.51711 0
M  V30 2045 C 193.282 1.89018 3.03327 0
M  V30 2046 C 192.948 3.38832 2.97496 0
M  V30 2047 C 191.61 3.79693 2.95613 0
M  V30 2048 C 193.962 4.34378 2.88036 0
M  V30 2049 C 191.29 5.14447 2.82066 0
M  V30 2050 C 193.642 5.69201 2.7603 0
M  V30 2051 C 192.306 6.09343 2.72502 0
M  V30 2052 H 191.576 0.421006 0.609783 0
M  V30 2053 H 194.223 1.58855 1.06945 0
M  V30 2054 H 192.528 1.37752 3.66785 0
M  V30 2055 H 194.225 1.76321 3.60156 0
M  V30 2056 H 190.815 3.06342 2.99754 0
M  V30 2057 H 194.999 4.03775 2.88581 0
M  V30 2058 H 190.255 5.44681 2.77728 0
M  V30 2059 H 194.429 6.42901 2.67678 0
M  V30 2060 H 192.056 7.13712 2.61762 0
M  V30 2061 N 193.631 -1.12557 1.10312 0
M  V30 2062 C 195.047 -1.36036 0.834649 0
M  V30 2063 C 195.247 -1.93946 -0.546539 0
M  V30 2064 O 194.303 -2.16484 -1.29966 0
M  V30 2065 C 195.616 -2.30312 1.9333 0
M  V30 2066 C 197.164 -2.43906 1.9616 0
M  V30 2067 C 197.639 -3.41496 3.05195 0
M  V30 2068 N 199.13 -3.49053 3.04494 0
M  V30 2069 C 199.865 -4.24471 3.85502 0
M  V30 2070 N 199.361 -5.02966 4.76442 0
M  V30 2071 N 201.154 -4.19864 3.73725 0
M  V30 2072 H 193.305 -0.733246 1.99342 0
M  V30 2073 H 195.568 -0.385234 0.866198 0
M  V30 2074 H 195.274 -1.94933 2.92735 0
M  V30 2075 H 195.148 -3.30421 1.81939 0
M  V30 2076 H 197.535 -2.78567 0.973886 0
M  V30 2077 H 197.616 -1.4369 2.11629 0
M  V30 2078 H 197.26 -3.07565 4.04186 0
M  V30 2079 H 197.19 -4.41539 2.86968 0
M  V30 2080 H 199.681 -2.93053 2.38596 0
M  V30 2081 H 199.994 -5.57846 5.34815 0
M  V30 2082 H 198.339 -5.02167 4.80472 0
M  V30 2083 H 201.53 -3.57623 3.02032 0
M  V30 2084 H 201.703 -4.78386 4.37093 0
M  V30 2085 N 195.109 -0.891671 -1.2995 0
M  V30 2086 C 196.019 -0.367691 -2.31701 0
M  V30 2087 C 197.035 0.533486 -1.6562 0
M  V30 2088 O 198.211 0.424997 -1.96865 0
M  V30 2089 C 195.276 0.403406 -3.44345 0
M  V30 2090 C 194.337 -0.528328 -4.26037 0
M  V30 2091 C 193.57 0.206063 -5.33302 0
M  V30 2092 O 193.793 1.43119 -5.52153 0
M  V30 2093 O 192.727 -0.447281 -6.00236 0
M  V30 2094 H 196.553 -1.21163 -2.78484 0
M  V30 2095 H 194.138 -0.655725 -1.34241 0
M  V30 2096 H 196.02 0.839753 -4.12948 0
M  V30 2097 H 194.695 1.22354 -2.99685 0
M  V30 2098 H 193.602 -1.01362 -3.60106 0
M  V30 2099 H 194.935 -1.31465 -4.74318 0
M  V30 2100 N 196.587 1.43421 -0.653314 0
M  V30 2101 C 197.835 2.01414 -0.166415 0
M  V30 2102 C 198.156 1.51803 1.22397 0
M  V30 2103 O 197.426 0.730693 1.81763 0
M  V30 2104 H 196.006 0.744703 -0.0585319 0
M  V30 2105 H 198.668 1.75629 -0.845003 0
M  V30 2106 H 197.764 3.11734 -0.151111 0
M  V30 2107 N 198.065 0.39524 1.52563 0
M  V30 2108 C 199.342 -0.242908 1.94086 0
M  V30 2109 C 199.722 -1.63841 1.33114 0
M  V30 2110 O 199.07 -2.22928 0.501529 0
M  V30 2111 C 199.28 -0.26327 3.48006 0
M  V30 2112 C 200.628 -0.489354 4.21771 0
M  V30 2113 O 201.652 -0.343226 3.54543 0
M  V30 2114 O 200.511 -0.776169 5.4096 0
M  V30 2115 H 197.605 -0.152536 0.812811 0
M  V30 2116 H 200.151 0.450178 1.6362 0
M  V30 2117 H 198.923 0.713985 3.84731 0
M  V30 2118 H 198.546 -1.00103 3.84792 0
M  V30 2119 N 199.544 -1.57102 0.125237 0
M  V30 2120 C 200.79 -1.95697 -0.532035 0
M  V30 2121 C 201.123 -1.009 -1.6593 0
M  V30 2122 O 200.398 -0.047347 -1.94442 0
M  V30 2123 C 200.681 -3.44181 -1.05884 0
M  V30 2124 C 200.534 -4.49752 0.0654392 0
M  V30 2125 C 201.853 -3.94655 -1.9477 0
M  V30 2126 H 198.972 -0.711571 -0.191925 0
M  V30 2127 H 201.614 -1.88923 0.20206 0
M  V30 2128 H 199.764 -3.50085 -1.68442 0
M  V30 2129 H 201.436 -4.55943 0.700982 0
M  V30 2130 H 199.679 -4.27653 0.727709 0
M  V30 2131 H 200.35 -5.50924 -0.344505 0
M  V30 2132 H 202.826 -3.91094 -1.42074 0
M  V30 2133 H 201.702 -4.99057 -2.28546 0
M  V30 2134 H 201.963 -3.35718 -2.87656 0
M  V30 2135 N 201.022 0.148545 -1.56898 0
M  V30 2136 C 202.268 0.857877 -1.84424 0
M  V30 2137 C 202.623 1.7886 -0.709006 0
M  V30 2138 O 201.916 1.89344 0.293139 0
M  V30 2139 C 202.11 1.67064 -3.1595 0
M  V30 2140 C 201.939 0.82011 -4.42159 0
M  V30 2141 C 200.709 0.486328 -5.02954 0
M  V30 2142 C 202.907 0.151155 -5.14078 0
M  V30 2143 N 200.889 -0.377956 -6.12735 0
M  V30 2144 C 202.26 -0.573333 -6.17343 0
M  V30 2145 C 204.315 0.0716685 -4.97848 0
M  V30 2146 C 203.018 -1.3698 -7.06137 0
M  V30 2147 C 205.044 -0.711532 -5.87104 0
M  V30 2148 C 204.406 -1.42431 -6.8985 0
M  V30 2149 H 200.505 0.291798 -0.725519 0
M  V30 2150 H 203.089 0.123347 -1.94309 0
M  V30 2151 H 201.26 2.37642 -3.07215 0
M  V30 2152 H 202.992 2.32302 -3.31388 0
M  V30 2153 H 199.747 0.821753 -4.66416 0
M  V30 2154 H 200.171 -0.801077 -6.72244 0
M  V30 2155 H 204.813 0.608381 -4.184 0
M  V30 2156 H 202.531 -1.91778 -7.85014 0
M  V30 2157 H 206.117 -0.775005 -5.76615 0
M  V30 2158 H 204.997 -2.02061 -7.57721 0
M  V30 2159 N 202.5 1.5196 0.417844 0
M  V30 2160 C 203.749 1.6482 1.16264 0
M  V30 2161 C 204.062 0.379886 1.91876 0
M  V30 2162 O 205.268 0.388154 2.68711 0
M  V30 2163 C 203.724 2.91161 2.1155 0
M  V30 2164 C 203.332 4.25068 1.41495 0
M  V30 2165 C 205.076 3.13383 2.86341 0
M  V30 2166 C 202.983 5.42541 2.35379 0
M  V30 2167 H 201.913 0.613954 0.437694 0
M  V30 2168 H 204.564 1.78442 0.427871 0
M  V30 2169 H 202.946 2.71218 2.88543 0
M  V30 2170 H 204.12 4.55463 0.699263 0
M  V30 2171 H 202.435 4.0888 0.787792 0
M  V30 2172 H 205.032 3.98324 3.5671 0
M  V30 2173 H 205.375 2.27256 3.48798 0
M  V30 2174 H 205.908 3.33757 2.1645 0
M  V30 2175 H 202.647 6.30987 1.77582 0
M  V30 2176 H 202.167 5.16497 3.04945 0
M  V30 2177 H 203.846 5.75272 2.96093 0
M  V30 2178 N 203.978 -0.674533 1.42435 0
M  V30 2179 C 205.218 -1.4466 1.44405 0
M  V30 2180 C 205.582 -1.91911 0.0585784 0
M  V30 2181 O 206.783 -2.68759 -0.0469991 0
M  V30 2182 C 205.054 -2.61136 2.44013 0
M  V30 2183 S 206.613 -3.49981 2.64687 0
M  V30 2184 H 203.431 -0.494074 0.511284 0
M  V30 2185 H 206.033 -0.785162 1.7904 0
M  V30 2186 H 204.737 -2.24662 3.43446 0
M  V30 2187 H 204.268 -3.32153 2.10803 0
M  V30 2188 H 206.283 -4.57124 1.93007 0
M  V30 2189 N 205.456 -1.28612 -0.910864 0
M  V30 2190 C 206.389 -1.07109 -2.01502 0
M  V30 2191 C 207.367 0.013706 -1.62594 0
M  V30 2192 O 208.551 -0.134796 -1.88017 0
M  V30 2193 C 205.678 -0.628255 -3.32822 0
M  V30 2194 C 204.724 -1.71012 -3.90714 0
M  V30 2195 S 205.557 -3.30676 -4.21205 0
M  V30 2196 C 206.713 -2.88234 -5.55583 0
M  V30 2197 H 206.946 -2.00591 -2.19432 0
M  V30 2198 H 204.479 -1.12633 -1.05609 0
M  V30 2199 H 206.437 -0.37946 -4.08742 0
M  V30 2200 H 205.098 0.28678 -3.12788 0
M  V30 2201 H 204.291 -1.35195 -4.85529 0
M  V30 2202 H 203.893 -1.91186 -3.21441 0
M  V30 2203 H 206.185 -2.34584 -6.35591 0
M  V30 2204 H 207.128 -3.81857 -5.96314 0
M  V30 2205 H 207.536 -2.26862 -5.16908 0
M  V30 2206 N 206.934 1.1197 -1.10907 0
M  V30 2207 C 207.844 2.21433 -0.774896 0
M  V30 2208 C 208.86 1.72478 0.229657 0
M  V30 2209 O 210.036 2.01288 0.0672008 0
M  V30 2210 C 207.101 3.4602 -0.216986 0
M  V30 2211 C 206.162 4.09791 -1.27944 0
M  V30 2212 C 205.395 5.28431 -0.748055 0
M  V30 2213 O 205.618 5.68823 0.423833 0
M  V30 2214 O 204.552 5.82644 -1.51027 0
M  V30 2215 H 208.378 2.5242 -1.68873 0
M  V30 2216 H 205.963 1.20399 -0.884555 0
M  V30 2217 H 207.845 4.21304 0.090059 0
M  V30 2218 H 206.52 3.16698 0.669633 0
M  V30 2219 H 205.427 3.36265 -1.63941 0
M  V30 2220 H 206.76 4.4328 -2.13925 0
M  V30 2221 N 208.412 0.89855 1.29475 0
M  V30 2222 C 209.342 0.39201 2.30186 0
M  V30 2223 C 210.323 -0.532359 1.61555 0
M  V30 2224 O 211.508 -0.443331 1.89072 0
M  V30 2225 C 208.638 -0.382353 3.45189 0
M  V30 2226 C 207.592 0.451483 4.25612 0
M  V30 2227 C 206.918 -0.450307 5.328 0
M  V30 2228 C 208.218 1.70079 4.93832 0
M  V30 2229 H 209.912 1.23362 2.72804 0
M  V30 2230 H 207.458 0.594638 1.31149 0
M  V30 2231 H 209.411 -0.747451 4.14718 0
M  V30 2232 H 208.135 -1.25774 3.01411 0
M  V30 2233 H 206.794 0.798897 3.57789 0
M  V30 2234 H 206.442 -1.32379 4.85268 0
M  V30 2235 H 206.142 0.103902 5.87508 0
M  V30 2236 H 207.666 -0.811623 6.05182 0
M  V30 2237 H 209.08 1.40549 5.55805 0
M  V30 2238 H 207.477 2.19623 5.58467 0
M  V30 2239 H 208.547 2.43744 4.19186 0
M  V30 2240 N 209.89 -1.43072 0.660911 0
M  V30 2241 C 210.823 -2.28074 -0.0758862 0
M  V30 2242 C 211.801 -1.40271 -0.822362 0
M  V30 2243 O 212.985 -1.69713 -0.820352 0
M  V30 2244 C 210.112 -3.19843 -1.11437 0
M  V30 2245 C 209.158 -4.23957 -0.465069 0
M  V30 2246 S 209.991 -5.29978 0.767078 0
M  V30 2247 C 211.147 -6.25314 -0.270682 0
M  V30 2248 H 211.38 -2.90216 0.645139 0
M  V30 2249 H 208.913 -1.47697 0.449995 0
M  V30 2250 H 210.871 -3.73257 -1.70849 0
M  V30 2251 H 209.532 -2.56863 -1.80776 0
M  V30 2252 H 208.725 -4.88299 -1.24819 0
M  V30 2253 H 208.327 -3.73959 0.0551242 0
M  V30 2254 H 210.619 -6.67932 -1.13459 0
M  V30 2255 H 211.562 -7.07293 0.337916 0
M  V30 2256 H 211.97 -5.61195 -0.609937 0
M  V30 2257 N 211.368 -0.403325 -1.52352 0
M  V30 2258 C 212.645 0.232611 -1.94212 0
M  V30 2259 C 213.025 1.63133 -1.33981 0
M  V30 2260 O 212.373 2.22659 -0.513344 0
M  V30 2261 C 212.583 0.244811 -3.4814 0
M  V30 2262 C 213.931 0.46698 -4.22024 0
M  V30 2263 O 214.955 0.324419 -3.5472 0
M  V30 2264 O 213.814 0.74747 -5.41364 0
M  V30 2265 H 210.908 0.148223 -0.813609 0
M  V30 2266 H 213.454 -0.458848 -1.63379 0
M  V30 2267 H 212.226 -0.734378 -3.84347 0
M  V30 2268 H 211.849 0.980611 -3.85318 0
M  V30 2269 N 212.846 1.57033 -0.133567 0
M  V30 2270 C 214.074 2.00044 0.528195 0
M  V30 2271 C 214.489 1.01349 1.59291 0
M  V30 2272 O 213.846 0.00848369 1.82498 0
M  V30 2273 C 213.897 3.43018 1.1411 0
M  V30 2274 O 213.618 4.37939 0.11892 0
M  V30 2275 C 215.119 4.01237 1.88477 0
M  V30 2276 H 212.339 0.656517 0.138661 0
M  V30 2277 H 214.883 2.03267 -0.224196 0
M  V30 2278 H 213.038 3.40688 1.84418 0
M  V30 2279 H 213.452 5.21436 0.56613 0
M  V30 2280 H 214.926 5.03314 2.26669 0
M  V30 2281 H 215.403 3.41193 2.76558 0
M  V30 2282 H 216.009 4.07156 1.22898 0
M  V30 2283 N 214.325 -0.140222 1.56975 0
M  V30 2284 C 215.55 -0.870414 1.88251 0
M  V30 2285 C 215.975 -1.73637 0.723312 0
M  V30 2286 O 215.333 -1.78329 -0.32689 0
M  V30 2287 C 215.381 -1.69737 3.18154 0
M  V30 2288 O 214.485 -2.80229 3.02565 0
M  V30 2289 H 213.826 -0.242025 0.61832 0
M  V30 2290 H 216.356 -0.128999 2.04193 0
M  V30 2291 H 216.366 -2.09099 3.50345 0
M  V30 2292 H 215.041 -1.06152 4.02125 0
M  V30 2293 H 213.618 -2.44224 2.81796 0
M  V30 2294 N 215.803 -1.52179 -0.40978 0
M  V30 2295 C 216.733 -1.78435 -1.5061 0
M  V30 2296 C 217.714 -0.635295 -1.57791 0
M  V30 2297 O 218.899 -0.880823 -1.73076 0
M  V30 2298 C 216.029 -1.93444 -2.88439 0
M  V30 2299 C 214.983 -3.09038 -2.96108 0
M  V30 2300 C 214.309 -3.09268 -4.36185 0
M  V30 2301 C 215.609 -4.48508 -2.67652 0
M  V30 2302 H 217.303 -2.70237 -1.28889 0
M  V30 2303 H 214.849 -1.30036 -0.618605 0
M  V30 2304 H 216.802 -2.10394 -3.65119 0
M  V30 2305 H 215.526 -0.983129 -3.11452 0
M  V30 2306 H 214.185 -2.91837 -2.21872 0
M  V30 2307 H 213.833 -2.11861 -4.56206 0
M  V30 2308 H 213.533 -3.86907 -4.42241 0
M  V30 2309 H 215.057 -3.28348 -5.14801 0
M  V30 2310 H 216.471 -4.65918 -3.34056 0
M  V30 2311 H 214.868 -5.28059 -2.85085 0
M  V30 2312 H 215.938 -4.56649 -1.63095 0
M  V30 2313 N 217.281 0.66697 -1.42791 0
M  V30 2314 C 218.558 1.4234 -1.34159 0
M  V30 2315 C 218.938 2.11093 0.0172729 0
M  V30 2316 O 218.286 2.03808 1.03318 0
M  V30 2317 C 218.496 2.41942 -2.51526 0
M  V30 2318 C 219.844 3.06353 -2.93995 0
M  V30 2319 O 220.868 2.52269 -2.51473 0
M  V30 2320 O 219.727 4.04376 -3.67617 0
M  V30 2321 H 216.821 0.635277 -0.529483 0
M  V30 2322 H 219.367 0.695034 -1.54814 0
M  V30 2323 H 218.139 1.89991 -3.42081 0
M  V30 2324 H 217.762 3.22249 -2.32898 0
M  V30 2325 N 218.759 1.29093 0.90403 0
M  V30 2326 C 219.706 1.13853 2.00764 0
M  V30 2327 C 220.676 0.0330084 1.66067 0
M  V30 2328 O 221.861 0.199733 1.89752 0
M  V30 2329 C 219.001 0.816537 3.35301 0
M  V30 2330 C 218.114 2.00206 3.82807 0
M  V30 2331 C 217.249 1.61983 5.059 0
M  V30 2332 C 216.288 2.77143 5.45764 0
M  V30 2333 N 215.425 2.39346 6.60044 0
M  V30 2334 H 220.265 2.08276 2.13132 0
M  V30 2335 H 217.802 1.03648 1.04381 0
M  V30 2336 H 219.76 0.610557 4.12708 0
M  V30 2337 H 218.39 -0.090779 3.22672 0
M  V30 2338 H 217.442 2.31988 3.01473 0
M  V30 2339 H 218.754 2.86512 4.08304 0
M  V30 2340 H 217.908 1.37649 5.90879 0
M  V30 2341 H 216.647 0.728202 4.82233 0
M  V30 2342 H 215.652 3.02165 4.59322 0
M  V30 2343 H 216.877 3.66964 5.71414 0
M  V30 2344 H 214.823 1.52665 6.37989 0
M  V30 2345 H 214.74 3.19185 6.85315 0
M  V30 2346 H 216.008 2.1832 7.48303 0
M  V30 2347 N 220.237 -1.11381 1.11499 0
M  V30 2348 C 221.484 -1.83132 0.864231 0
M  V30 2349 C 221.812 -1.84683 -0.610114 0
M  V30 2350 O 221.067 -1.29589 -1.46646 0
M  V30 2351 C 221.366 -3.30026 1.37177 0
M  V30 2352 C 221.032 -3.48634 2.85946 0
M  V30 2353 C 219.694 -3.53421 3.26569 0
M  V30 2354 C 222.046 -3.54837 3.81759 0
M  V30 2355 C 219.374 -3.61967 4.61733 0
M  V30 2356 C 221.726 -3.64915 5.1674 0
M  V30 2357 C 220.39 -3.67962 5.5692 0
M  V30 2358 H 219.66 -0.670127 0.316245 0
M  V30 2359 H 222.307 -1.31354 1.3935 0
M  V30 2360 H 220.612 -3.84304 0.762753 0
M  V30 2361 H 222.309 -3.84034 1.15408 0
M  V30 2362 H 218.899 -3.45579 2.53521 0
M  V30 2363 H 223.083 -3.50399 3.51474 0
M  V30 2364 H 218.339 -3.62603 4.92269 0
M  V30 2365 H 222.513 -3.68658 5.90816 0
M  V30 2366 H 220.14 -3.74336 6.61647 0
M  V30 2367 N 221.715 -0.905404 -1.28997 0
M  V30 2368 C 222.945 -0.549049 -1.99171 0
M  V30 2369 C 223.353 0.87203 -1.67906 0
M  V30 2370 O 222.696 1.58796 -0.923561 0
M  V30 2371 C 222.758 -0.668306 -3.53234 0
M  V30 2372 C 222.422 -2.0574 -4.08069 0
M  V30 2373 C 223.419 -3.0292 -4.22534 0
M  V30 2374 C 221.104 -2.36833 -4.42962 0
M  V30 2375 C 223.098 -4.29314 -4.71135 0
M  V30 2376 C 220.785 -3.63467 -4.91258 0
M  V30 2377 C 221.783 -4.59522 -5.053 0
M  V30 2378 O 221.471 -5.83907 -5.52546 0
M  V30 2379 H 221.203 -0.208784 -0.64295 0
M  V30 2380 H 223.757 -1.21836 -1.65363 0
M  V30 2381 H 221.987 0.0580547 -3.86656 0
M  V30 2382 H 223.676 -0.320273 -4.04634 0
M  V30 2383 H 224.442 -2.80216 -3.95859 0
M  V30 2384 H 220.321 -1.62824 -4.31288 0
M  V30 2385 H 223.865 -5.04293 -4.8201 0
M  V30 2386 H 219.762 -3.86 -5.17372 0
M  V30 2387 H 220.53 -5.86578 -5.70849 0
M  V30 2388 N 223.193 1.4272 -0.668489 0
M  V30 2389 C 224.609 1.55992 -0.33745 0
M  V30 2390 C 224.809 1.64933 1.15756 0
M  V30 2391 O 223.865 1.61278 1.94282 0
M  V30 2392 C 225.178 2.81314 -1.06222 0
M  V30 2393 C 226.726 2.95078 -1.04394 0
M  V30 2394 C 227.201 4.23252 -1.74991 0
M  V30 2395 N 228.692 4.3015 -1.71829 0
M  V30 2396 C 229.427 5.28127 -2.23315 0
M  V30 2397 N 228.923 6.32293 -2.83156 0
M  V30 2398 N 230.716 5.19882 -2.13726 0
M  V30 2399 H 222.867 1.3516 -1.63846 0
M  V30 2400 H 225.13 0.650174 -0.689912 0
M  V30 2401 H 224.836 2.80823 -2.11734 0
M  V30 2402 H 224.71 3.72012 -0.62344 0
M  V30 2403 H 227.097 2.951 0.0028244 0
M  V30 2404 H 227.178 2.05627 -1.52155 0
M  V30 2405 H 226.822 4.2399 -2.79633 0
M  V30 2406 H 226.752 5.11626 -1.24685 0
M  V30 2407 H 229.243 3.55499 -1.28175 0
M  V30 2408 H 229.556 7.03398 -3.20079 0
M  V30 2409 H 227.901 6.32873 -2.87223 0
M  V30 2410 H 231.092 4.37423 -1.66669 0
M  V30 2411 H 231.265 5.96077 -2.54158 0
M  V30 2412 N 224.671 0.411399 1.52136 0
M  V30 2413 C 225.618 -0.412975 2.27075 0
M  V30 2414 C 226.588 -1.03912 1.29582 0
M  V30 2415 O 227.773 -1.06296 1.58448 0
M  V30 2416 C 224.913 -1.52247 3.09701 0
M  V30 2417 C 224.026 -0.917021 4.22155 0
M  V30 2418 C 223.161 -1.9994 4.92135 0
M  V30 2419 C 222.2 -1.37101 5.96548 0
M  V30 2420 N 221.337 -2.39364 6.60038 0
M  V30 2421 H 226.177 0.232499 2.97092 0
M  V30 2422 H 223.714 0.126496 1.46555 0
M  V30 2423 H 225.672 -2.17674 3.55913 0
M  V30 2424 H 224.302 -2.13794 2.41851 0
M  V30 2425 H 223.354 -0.151742 3.80097 0
M  V30 2426 H 224.666 -0.418006 4.97045 0
M  V30 2427 H 223.82 -2.73088 5.41763 0
M  V30 2428 H 222.559 -2.53208 4.16818 0
M  V30 2429 H 221.564 -0.624873 5.46237 0
M  V30 2430 H 222.789 -0.845998 6.7381 0
M  V30 2431 H 220.735 -2.91759 5.87548 0
M  V30 2432 H 220.652 -1.9428 7.3061 0
M  V30 2433 H 221.92 -3.12074 7.14304 0
M  V30 2434 N 226.149 -1.5696 0.141893 0
M  V30 2435 C 227.395 -1.9625 -0.511248 0
M  V30 2436 C 227.728 -1.02654 -1.64851 0
M  V30 2437 O 227.003 -0.0679676 -1.94381 0
M  V30 2438 C 227.286 -3.45285 -1.02227 0
M  V30 2439 C 227.139 -4.49658 0.113138 0
M  V30 2440 C 228.458 -3.96698 -1.90574 0
M  V30 2441 H 225.577 -0.713567 -0.184367 0
M  V30 2442 H 228.219 -1.88698 0.222087 0
M  V30 2443 H 226.369 -3.51852 -1.64719 0
M  V30 2444 H 228.041 -4.55174 0.749302 0
M  V30 2445 H 226.284 -4.26857 0.773026 0
M  V30 2446 H 226.955 -5.51258 -0.286053 0
M  V30 2447 H 229.431 -3.92578 -1.37918 0
M  V30 2448 H 228.307 -5.01453 -2.2324 0
M  V30 2449 H 228.568 -3.3875 -2.84079 0
M  V30 2450 N 227.627 0.131896 -1.57047 0
M  V30 2451 C 228.557 1.16384 -2.02428 0
M  V30 2452 C 229.538 1.43936 -0.90644 0
M  V30 2453 O 230.723 1.54599 -1.17528 0
M  V30 2454 C 227.853 2.49328 -2.4177 0
M  V30 2455 C 226.807 2.36266 -3.56879 0
M  V30 2456 C 226.133 3.74057 -3.8208 0
M  V30 2457 C 227.433 1.834 -4.89042 0
M  V30 2458 H 229.127 0.786433 -2.88887 0
M  V30 2459 H 226.673 0.376855 -1.38981 0
M  V30 2460 H 228.626 3.21759 -2.7212 0
M  V30 2461 H 227.35 2.88934 -1.52266 0
M  V30 2462 H 226.009 1.66286 -3.26718 0
M  V30 2463 H 225.657 4.11125 -2.89803 0
M  V30 2464 H 225.357 3.66174 -4.59554 0
M  V30 2465 H 226.881 4.48012 -4.1487 0
M  V30 2466 H 228.295 2.45636 -5.18011 0
M  V30 2467 H 226.692 1.8637 -5.70426 0
M  V30 2468 H 227.762 0.790662 -4.7841 0
M  V30 2469 N 229.106 1.52395 0.401703 0
M  V30 2470 C 230.383 1.57387 1.16141 0
M  V30 2471 C 230.763 0.359359 2.08019 0
M  V30 2472 O 230.111 -0.65326 2.18963 0
M  V30 2473 C 230.321 2.90631 1.93221 0
M  V30 2474 C 231.669 3.43904 2.49028 0
M  V30 2475 O 232.693 2.92421 2.03393 0
M  V30 2476 O 231.552 4.33823 3.32356 0
M  V30 2477 H 228.646 0.634262 0.530698 0
M  V30 2478 H 231.192 1.64725 0.407883 0
M  V30 2479 H 229.964 3.70473 1.25958 0
M  V30 2480 H 229.587 2.8662 2.75563 0
M  V30 2481 N 230.584 -0.659388 1.43143 0
M  V30 2482 C 231.531 -1.77249 1.47822 0
M  V30 2483 C 232.501 -1.62818 0.328558 0
M  V30 2484 O 233.686 -1.83151 0.534838 0
M  V30 2485 C 230.826 -3.15371 1.40126 0
M  V30 2486 C 229.939 -3.4098 2.65249 0
M  V30 2487 C 229.074 -4.68915 2.49584 0
M  V30 2488 C 228.113 -4.87608 3.70006 0
M  V30 2489 N 227.25 -6.06796 3.53189 0
M  V30 2490 H 232.09 -1.72584 2.42938 0
M  V30 2491 H 229.627 -0.842297 1.20598 0
M  V30 2492 H 231.585 -3.9521 1.33659 0
M  V30 2493 H 230.215 -3.19121 0.485964 0
M  V30 2494 H 229.267 -2.55282 2.8202 0
M  V30 2495 H 230.579 -3.50681 3.54717 0
M  V30 2496 H 229.733 -5.56871 2.4079 0
M  V30 2497 H 228.472 -4.61524 1.5763 0
M  V30 2498 H 227.477 -3.9809 3.79215 0
M  V30 2499 H 228.702 -4.96834 4.62961 0
M  V30 2500 H 226.648 -6.00549 2.63965 0
M  V30 2501 H 226.565 -6.17428 4.36255 0
M  V30 2502 H 227.833 -6.9739 3.48236 0
M  V30 2503 N 232.062 -1.29571 -0.897171 0
M  V30 2504 C 233.01 -1.14802 -2.02295 0
M  V30 2505 C 234.004 -0.0629637 -1.69283 0
M  V30 2506 O 235.21 -0.222945 -1.78614 0
M  V30 2507 H 231.585 -0.354692 -0.663097 0
M  V30 2508 H 233.556 -2.10108 -2.11889 0
M  V30 2509 C 232.305 -0.843966 -3.37302 0
M  V30 2510 H 231.628 -1.67093 -3.63208 0
M  V30 2511 H 233.068 -0.780672 -4.16751 0
M  V30 2512 C 231.527 0.452843 -3.33843 0
M  V30 2513 O 232.057 1.47813 -3.73516 0
M  V30 2514 N 230.263 0.459601 -2.86943 0
M  V30 2515 H 229.81 -0.375213 -2.54853 0
M  V30 2516 H 229.768 1.32726 -2.85011 0
M  V30 2517 N 233.54 1.10788 -1.12088 0
M  V30 2518 C 234.473 2.16237 -0.729168 0
M  V30 2519 C 235.451 1.60207 0.277921 0
M  V30 2520 O 236.635 1.87707 0.172737 0
M  V30 2521 C 233.762 3.38609 -0.0786848 0
M  V30 2522 C 232.808 4.13322 -1.05201 0
M  V30 2523 S 233.641 4.69371 -2.57781 0
M  V30 2524 C 234.797 5.95058 -1.94053 0
M  V30 2525 H 235.03 2.4913 -1.62239 0
M  V30 2526 H 232.563 1.22519 -0.939603 0
M  V30 2527 H 234.521 4.09473 0.290254 0
M  V30 2528 H 233.182 3.03962 0.791593 0
M  V30 2529 H 232.375 5.01051 -0.544433 0
M  V30 2530 H 231.977 3.48251 -1.36371 0
M  V30 2531 H 234.269 6.65278 -1.28107 0
M  V30 2532 H 235.212 6.50472 -2.79807 0
M  V30 2533 H 235.62 5.46918 -1.39787 0
M  V30 2534 N 235.018 0.912232 1.28515 0
M  V30 2535 C 236.246 0.560416 1.99166 0
M  V30 2536 C 236.661 -0.857927 1.68182 0
M  V30 2537 O 236.018 -1.56805 0.933733 0
M  V30 2538 C 236.069 0.758142 3.53461 0
M  V30 2539 O 235.79 2.12067 3.83352 0
M  V30 2540 C 237.291 0.412954 4.41372 0
M  V30 2541 H 234.511 0.213805 0.636026 0
M  V30 2542 H 237.055 1.22502 1.63749 0
M  V30 2543 H 235.21 0.140556 3.87145 0
M  V30 2544 H 235.624 2.15923 4.77993 0
M  V30 2545 H 237.098 0.60208 5.48707 0
M  V30 2546 H 237.575 -0.65073 4.34353 0
M  V30 2547 H 238.181 1.00802 4.13182 0
M  V30 2548 N 236.496 -1.42363 0.676048 0
M  V30 2549 C 237.745 -2.00745 0.196037 0
M  V30 2550 C 238.058 -1.54083 -1.20489 0
M  V30 2551 O 239.264 -2.04891 -1.78134 0
M  V30 2552 C 237.72 -3.58651 0.299616 0
M  V30 2553 C 237.328 -4.143 1.70468 0
M  V30 2554 C 239.072 -4.24326 -0.121619 0
M  V30 2555 C 236.979 -5.64574 1.76096 0
M  V30 2556 H 235.909 -0.750787 0.0695301 0
M  V30 2557 H 238.56 -1.63072 0.841412 0
M  V30 2558 H 236.942 -3.93833 -0.413673 0
M  V30 2559 H 238.116 -3.90575 2.44515 0
M  V30 2560 H 236.431 -3.61081 2.07387 0
M  V30 2561 H 239.028 -5.34607 -0.0997362 0
M  V30 2562 H 239.371 -3.99897 -1.15708 0
M  V30 2563 H 239.904 -3.94108 0.540706 0
M  V30 2564 H 236.643 -5.93804 2.77628 0
M  V30 2565 H 236.163 -5.90286 1.06406 0
M  V30 2566 H 237.842 -6.29013 1.51496 0
M  V30 2567 N 237.974 -0.419461 -1.51915 0
M  V30 2568 C 239.385 0.0477853 -1.86639 0
M  V30 2569 C 239.736 1.43531 -1.33766 0
M  V30 2570 O 238.861 2.05401 -0.68113 0
M  V30 2571 C 239.456 0.0934885 -3.38671 0
M  V30 2572 C 238.015 0.505097 -3.72996 0
M  V30 2573 C 237.162 -0.313792 -2.75519 0
M  V30 2574 H 240.113 -0.636088 -1.45395 0
M  V30 2575 H 240.134 0.906667 -3.6954 0
M  V30 2576 H 239.646 -0.916501 -3.77123 0
M  V30 2577 H 237.747 1.52135 -3.40126 0
M  V30 2578 H 237.86 0.242309 -4.78487 0
M  V30 2579 H 236.224 0.225363 -2.53701 0
M  V30 2580 H 237.007 -1.32232 -3.16812 0
M  V30 2581 N 239.452 1.56882 -0.150215 0
M  V30 2582 C 240.362 2.20494 0.801222 0
M  V30 2583 C 241.378 1.19019 1.26927 0
M  V30 2584 O 242.554 1.51607 1.32579 0
M  V30 2585 C 239.619 2.81659 2.02161 0
M  V30 2586 C 238.68 3.9827 1.60249 0
M  V30 2587 C 237.913 4.56508 2.7647 0
M  V30 2588 O 238.136 4.13627 3.92771 0
M  V30 2589 O 237.07 5.46719 2.51757 0
M  V30 2590 H 240.896 3.02315 0.289717 0
M  V30 2591 H 238.481 1.49202 0.0769684 0
M  V30 2592 H 240.363 3.20522 2.73576 0
M  V30 2593 H 239.038 2.02849 2.52258 0
M  V30 2594 H 237.945 3.64117 0.858477 0
M  V30 2595 H 239.278 4.78609 1.14864 0
M  V30 2596 N 240.93 -0.123565 1.57115 0
M  V30 2597 C 242.207 -0.862196 1.75572 0
M  V30 2598 C 242.587 -1.98279 0.724475 0
M  V30 2599 O 241.935 -2.27102 -0.252407 0
M  V30 2600 C 242.145 -1.38309 3.20424 0
M  V30 2601 C 243.493 -1.83724 3.82793 0
M  V30 2602 O 244.517 -1.47999 3.23998 0
M  V30 2603 O 243.376 -2.49685 4.86127 0
M  V30 2604 H 240.47 -0.409113 0.718718 0
M  V30 2605 H 243.016 -0.107661 1.69358 0
M  V30 2606 H 241.788 -0.578889 3.86994 0
M  V30 2607 H 241.411 -2.20046 3.31158 0
M  V30 2608 N 242.408 -1.52605 -0.393616 0
M  V30 2609 C 243.657 -1.66649 -1.13627 0
M  V30 2610 C 243.97 -0.410364 -1.91247 0
M  V30 2611 O 245.176 -0.430854 -2.68059 0
M  V30 2612 C 243.632 -2.9449 -2.06891 0
M  V30 2613 C 243.24 -4.27266 -1.34714 0
M  V30 2614 C 244.984 -3.17899 -2.81319 0
M  V30 2615 C 242.891 -5.46217 -2.26717 0
M  V30 2616 H 241.821 -0.62084 -0.427871 0
M  V30 2617 H 244.472 -1.791 -0.399428 0
M  V30 2618 H 242.854 -2.75774 -2.84191 0
M  V30 2619 H 244.028 -4.56518 -0.626714 0
M  V30 2620 H 242.343 -4.10081 -0.722643 0
M  V30 2621 H 244.94 -4.03949 -3.50328 0
M  V30 2622 H 245.283 -2.32777 -3.45139 0
M  V30 2623 H 245.816 -3.37159 -2.11113 0
M  V30 2624 H 242.555 -6.33733 -1.67521 0
M  V30 2625 H 242.075 -5.21283 -2.96689 0
M  V30 2626 H 243.754 -5.7991 -2.86903 0
M  V30 2627 N 243.887 0.651787 -1.4349 0
M  V30 2628 C 244.817 1.77621 -1.51569 0
M  V30 2629 C 245.798 1.66022 -0.370253 0
M  V30 2630 O 246.983 1.85095 -0.587658 0
M  V30 2631 C 244.113 3.16056 -1.43966 0
M  V30 2632 C 243.067 3.4242 -2.56774 0
M  V30 2633 C 242.393 4.8067 -2.34223 0
M  V30 2634 C 243.693 3.37023 -3.99015 0
M  V30 2635 H 245.387 1.71117 -2.45681 0
M  V30 2636 H 242.933 0.821825 -1.18246 0
M  V30 2637 H 244.886 3.94472 -1.48221 0
M  V30 2638 H 243.61 3.23293 -0.463586 0
M  V30 2639 H 242.269 2.66375 -2.51873 0
M  V30 2640 H 241.917 4.84585 -1.34856 0
M  V30 2641 H 241.617 4.9927 -3.09844 0
M  V30 2642 H 243.141 5.61342 -2.40265 0
M  V30 2643 H 244.555 4.05374 -4.05395 0
M  V30 2644 H 242.952 3.67159 -4.74673 0
M  V30 2645 H 244.022 2.3518 -4.2405 0
M  V30 2646 N 245.365 1.30045 0.890287 0
M  V30 2647 C 246.613 1.18327 1.63839 0
M  V30 2648 C 246.934 -0.263455 1.93212 0
M  V30 2649 O 246.204 -1.17856 1.56482 0
M  V30 2650 H 244.784 0.434933 0.607324 0
M  V30 2651 H 247.446 1.631 1.06698 0
M  V30 2652 H 246.542 1.74024 2.59079 0
M  V30 2653 N 246.843 -1.10192 1.12674 0
M  V30 2654 C 247.753 -2.20172 0.810026 0
M  V30 2655 C 248.769 -1.72821 -0.202188 0
M  V30 2656 O 249.945 -2.01369 -0.0351691 0
M  V30 2657 C 247.01 -3.45631 0.272007 0
M  V30 2658 C 246.071 -4.07704 1.34447 0
M  V30 2659 C 245.304 -5.27175 0.832029 0
M  V30 2660 O 245.527 -5.69425 -0.333284 0
M  V30 2661 O 244.461 -5.80168 1.60277 0
M  V30 2662 H 248.287 -2.49701 1.72867 0
M  V30 2663 H 245.872 -1.18977 0.903597 0
M  V30 2664 H 247.754 -4.21394 -0.0230219 0
M  V30 2665 H 246.429 -3.17723 -0.619164 0
M  V30 2666 H 245.336 -3.33614 1.6927 0
M  V30 2667 H 246.669 -4.3982 2.2095 0
M  V30 2668 N 248.321 -0.919034 -1.28029 0
M  V30 2669 C 249.57 -0.550802 -1.94034 0
M  V30 2670 C 249.883 0.910877 -1.73096 0
M  V30 2671 O 251.089 1.3875 -2.33368 0
M  V30 2672 C 249.545 -0.934249 -3.47563 0
M  V30 2673 C 249.153 -2.41602 -3.7727 0
M  V30 2674 C 250.897 -0.636854 -4.19696 0
M  V30 2675 C 248.804 -2.73932 -5.24133 0
M  V30 2676 H 247.734 -0.202273 -0.726362 0
M  V30 2677 H 250.385 -1.11867 -1.45458 0
M  V30 2678 H 248.767 -0.295115 -3.94899 0
M  V30 2679 H 249.941 -3.10233 -3.40723 0
M  V30 2680 H 248.256 -2.68441 -3.18321 0
M  V30 2681 H 250.853 -0.855005 -5.2782 0
M  V30 2682 H 251.196 0.425575 -4.14119 0
M  V30 2683 H 251.729 -1.23469 -3.78154 0
M  V30 2684 H 248.468 -3.79049 -5.34792 0
M  V30 2685 H 247.988 -2.09942 -5.61858 0
M  V30 2686 H 249.667 -2.61215 -5.91925 0
M  V30 2687 N 249.799 1.42003 -0.683588 0
M  V30 2688 C 250.762 2.29191 -0.0198243 0
M  V30 2689 C 251.762 1.43773 0.72013 0
M  V30 2690 O 252.952 1.65061 0.556815 0
M  V30 2691 C 250.084 3.26435 0.982487 0
M  V30 2692 H 251.277 2.8938 -0.787345 0
M  V30 2693 H 248.83 1.49789 -0.446418 0
M  V30 2694 H 249.565 2.71203 1.77819 0
M  V30 2695 H 249.35 3.89449 0.455182 0
M  V30 2696 H 250.84 3.918 1.44508 0
M  V30 2697 N 251.277 0.427512 1.51691 0
M  V30 2698 C 252.523 -0.142439 2.02299 0
M  V30 2699 C 252.856 -1.43214 1.31162 0
M  V30 2700 O 252.131 -1.89833 0.423511 0
M  V30 2701 C 252.414 -0.371301 3.58181 0
M  V30 2702 C 252.267 0.936358 4.39946 0
M  V30 2703 C 253.586 -1.14542 4.24933 0
M  V30 2704 H 250.705 -0.0502937 0.735282 0
M  V30 2705 H 253.347 0.564584 1.81418 0
M  V30 2706 H 251.497 -0.973559 3.76104 0
M  V30 2707 H 253.169 1.57184 4.33694 0
M  V30 2708 H 251.412 1.5432 4.05423 0
M  V30 2709 H 252.083 0.730388 5.47147 0
M  V30 2710 H 254.559 -0.635362 4.11221 0
M  V30 2711 H 253.435 -1.27431 5.33903 0
M  V30 2712 H 253.696 -2.17093 3.85127 0
M  V30 2713 N 252.755 -1.56801 0.158532 0
M  V30 2714 C 253.98 -2.01295 -0.499516 0
M  V30 2715 C 254.405 -1.03799 -1.56867 0
M  V30 2716 O 253.763 -0.0155162 -1.81293 0
M  V30 2717 C 253.811 -3.44469 -1.06647 0
M  V30 2718 O 252.915 -3.50012 -2.18095 0
M  V30 2719 H 252.256 -0.652884 -0.12099 0
M  V30 2720 H 254.786 -2.02958 0.258661 0
M  V30 2721 H 254.796 -3.8351 -1.39227 0
M  V30 2722 H 253.471 -4.14932 -0.283581 0
M  V30 2723 H 252.048 -3.22822 -1.86656 0
M  V30 2724 N 254.233 0.115231 -1.57178 0
M  V30 2725 C 255.482 0.820945 -1.84237 0
M  V30 2726 C 255.795 1.80866 -0.744761 0
M  V30 2727 O 257.001 2.56083 -0.901871 0
M  V30 2728 C 255.457 1.51072 -3.26658 0
M  V30 2729 C 255.065 0.563795 -4.44438 0
M  V30 2730 C 256.809 2.20134 -3.62962 0
M  V30 2731 C 254.716 1.25701 -5.77887 0
M  V30 2732 H 253.646 0.310328 -0.687177 0
M  V30 2733 H 256.297 0.0737134 -1.83352 0
M  V30 2734 H 254.679 2.30471 -3.22024 0
M  V30 2735 H 255.853 -0.197247 -4.60378 0
M  V30 2736 H 254.168 -0.0200638 -4.16395 0
M  V30 2737 H 256.765 2.72696 -4.59936 0
M  V30 2738 H 257.108 2.98107 -2.90582 0
M  V30 2739 H 257.641 1.47619 -3.69396 0
M  V30 2740 H 254.38 0.518493 -6.53446 0
M  V30 2741 H 253.9 1.98997 -5.65827 0
M  V30 2742 H 255.579 1.78915 -6.2177 0
M  V30 2743 N 255.711 1.52812 0.385517 0
M  V30 2744 C 256.957 1.68275 1.13188 0
M  V30 2745 C 257.29 0.423179 1.89533 0
M  V30 2746 O 256.565 -0.579113 1.85679 0
M  V30 2747 C 256.848 2.92001 2.1073 0
M  V30 2748 C 256.701 4.28067 1.38125 0
M  V30 2749 C 258.02 3.11283 3.11113 0
M  V30 2750 H 255.139 0.612352 0.410115 0
M  V30 2751 H 257.781 1.85415 0.414869 0
M  V30 2752 H 255.931 2.77519 2.71874 0
M  V30 2753 H 257.603 4.54324 0.799187 0
M  V30 2754 H 255.846 4.28388 0.683092 0
M  V30 2755 H 256.517 5.10733 2.09417 0
M  V30 2756 H 258.993 3.2482 2.6006 0
M  V30 2757 H 257.869 3.99325 3.76605 0
M  V30 2758 H 258.13 2.25656 3.80173 0
M  V30 2759 N 257.189 -0.644168 1.43834 0
M  V30 2760 C 258.605 -0.960875 1.27434 0
M  V30 2761 C 258.805 -2.00499 0.200618 0
M  V30 2762 O 257.861 -2.49018 -0.417906 0
M  V30 2763 C 259.174 -1.43653 2.64167 0
M  V30 2764 C 260.722 -1.55271 2.71772 0
M  V30 2765 C 261.197 -2.06224 4.08944 0
M  V30 2766 N 262.688 -2.13513 4.11055 0
M  V30 2767 C 263.423 -2.54081 5.14033 0
M  V30 2768 N 262.919 -2.9388 6.27381 0
M  V30 2769 N 264.712 -2.54101 5.01387 0
M  V30 2770 H 256.863 0.0465779 2.12349 0
M  V30 2771 H 259.126 -0.0417638 0.94708 0
M  V30 2772 H 258.832 -0.743706 3.43747 0
M  V30 2773 H 258.706 -2.40993 2.90176 0
M  V30 2774 H 261.093 -2.23653 1.92519 0
M  V30 2775 H 261.174 -0.563395 2.49519 0
M  V30 2776 H 260.818 -1.38441 4.88668 0
M  V30 2777 H 260.748 -3.06003 4.28567 0
M  V30 2778 H 263.239 -1.85493 3.29242 0
M  V30 2779 H 263.552 -3.2361 7.01781 0
M  V30 2780 H 261.897 -2.91663 6.30839 0
M  V30 2781 H 265.088 -2.22391 4.11898 0
M  V30 2782 H 265.261 -2.85394 5.81768 0
M  V30 2783 N 258.668 -1.30515 -0.883378 0
M  V30 2784 C 259.631 -1.1701 -1.97082 0
M  V30 2785 C 260.631 -0.10089 -1.60483 0
M  V30 2786 O 261.821 -0.349127 -1.70666 0
M  V30 2787 C 258.953 -0.793045 -3.31547 0
M  V30 2788 H 260.146 -2.13622 -2.10489 0
M  V30 2789 H 257.699 -1.13935 -1.06998 0
M  V30 2790 H 258.434 0.172499 -3.23841 0
M  V30 2791 H 258.219 -1.56576 -3.5948 0
M  V30 2792 H 259.709 -0.722073 -4.1131 0
M  V30 2793 N 260.146 1.09593 -1.13257 0
M  V30 2794 C 261.076 2.18214 -0.830946 0
M  V30 2795 C 262.057 1.68812 0.208966 0
M  V30 2796 O 263.242 1.9408 0.0682666 0
M  V30 2797 C 260.372 3.46051 -0.294296 0
M  V30 2798 C 259.326 4.08778 -1.26826 0
M  V30 2799 C 258.652 5.31419 -0.591449 0
M  V30 2800 C 259.952 4.51476 -2.62615 0
M  V30 2801 H 261.646 2.43703 -1.73923 0
M  V30 2802 H 259.192 1.17128 -0.837675 0
M  V30 2803 H 261.145 4.2134 -0.0709606 0
M  V30 2804 H 259.869 3.20079 0.649366 0
M  V30 2805 H 258.528 3.35505 -1.47756 0
M  V30 2806 H 258.176 5.01727 0.357633 0
M  V30 2807 H 257.876 5.74341 -1.24123 0
M  V30 2808 H 259.4 6.09433 -0.377355 0
M  V30 2809 H 260.814 5.17999 -2.45663 0
M  V30 2810 H 259.211 5.05277 -3.23752 0
M  V30 2811 H 260.281 3.63962 -3.20406 0
M  V30 2812 N 261.624 0.925811 1.2754 0
M  V30 2813 C 262.534 0.428993 2.30644 0
M  V30 2814 C 263.55 -0.489387 1.66976 0
M  V30 2815 O 264.726 -0.372653 1.97922 0
M  V30 2816 C 261.791 -0.311967 3.45294 0
M  V30 2817 C 260.852 0.641098 4.24486 0
M  V30 2818 C 260.085 -0.0645955 5.33661 0
M  V30 2819 O 260.308 -1.28429 5.55754 0
M  V30 2820 O 259.242 0.606265 5.98839 0
M  V30 2821 H 263.068 1.28504 2.75173 0
M  V30 2822 H 260.653 0.691086 1.32455 0
M  V30 2823 H 262.535 -0.729972 4.15029 0
M  V30 2824 H 261.21 -1.14365 3.02824 0
M  V30 2825 H 260.117 1.10874 3.57292 0
M  V30 2826 H 261.45 1.43995 4.70666 0
M  V30 2827 N 263.102 -1.41638 0.69111 0
M  V30 2828 C 264.052 -2.28 -0.000107832 0
M  V30 2829 C 265.036 -1.41964 -0.757304 0
M  V30 2830 O 266.228 -1.65274 -0.633532 0
M  V30 2831 C 263.357 -3.30209 -0.938983 0
M  V30 2832 C 262.443 -4.23725 -0.17827 0
M  V30 2833 N 262.834 -4.99017 0.825563 0
M  V30 2834 C 261.132 -4.44071 -0.414392 0
M  V30 2835 C 261.833 -5.67431 1.28052 0
M  V30 2836 N 260.809 -5.40197 0.607304 0
M  V30 2837 H 264.611 -2.83644 0.769617 0
M  V30 2838 H 262.125 -1.53797 0.521562 0
M  V30 2839 H 264.122 -3.90898 -1.44929 0
M  V30 2840 H 262.782 -2.76126 -1.70836 0
M  V30 2841 H 263.793 -5.03671 1.20566 0
M  V30 2842 H 260.47 -4.01004 -1.162 0
M  V30 2843 H 261.86 -6.37801 2.11327 0
M  V30 2844 N 264.58 -0.43555 -1.51462 0
M  V30 2845 C 265.51 0.367376 -2.30592 0
M  V30 2846 C 266.491 1.02263 -1.35928 0
M  V30 2847 O 267.676 1.02661 -1.64847 0
M  V30 2848 C 264.806 1.46983 -3.14664 0
M  V30 2849 C 263.76 0.938161 -4.17591 0
M  V30 2850 C 263.086 2.13622 -4.90173 0
M  V30 2851 C 264.386 -0.0261621 -5.22293 0
M  V30 2852 H 266.08 -0.292969 -2.97963 0
M  V30 2853 H 263.626 -0.14234 -1.43295 0
M  V30 2854 H 265.579 2.03873 -3.688 0
M  V30 2855 H 264.303 2.15843 -2.4511 0
M  V30 2856 H 262.962 0.391481 -3.64504 0
M  V30 2857 H 262.61 2.81098 -4.17124 0
M  V30 2858 H 262.31 1.78688 -5.59772 0
M  V30 2859 H 263.834 2.7107 -5.47132 0
M  V30 2860 H 265.248 0.452384 -5.71512 0
M  V30 2861 H 263.645 -0.287992 -5.99409 0
M  V30 2862 H 264.715 -0.963391 -4.75233 0
M  V30 2863 N 266.058 1.56714 -0.166846 0
M  V30 2864 C 267.008 2.14338 0.777382 0
M  V30 2865 C 267.992 1.07642 1.19591 0
M  V30 2866 O 269.184 1.33775 1.15902 0
M  V30 2867 C 266.313 2.78417 2.00846 0
M  V30 2868 C 265.399 3.92264 1.61212 0
M  V30 2869 N 265.79 4.97268 0.925104 0
M  V30 2870 C 264.088 4.03342 1.90346 0
M  V30 2871 C 264.789 5.77093 0.730627 0
M  V30 2872 N 263.765 5.2854 1.27067 0
M  V30 2873 H 267.567 2.9289 0.243466 0
M  V30 2874 H 265.081 1.62364 0.0339954 0
M  V30 2875 H 267.078 3.18073 2.69509 0
M  V30 2876 H 265.738 2.01344 2.54736 0
M  V30 2877 H 266.749 5.14601 0.583646 0
M  V30 2878 H 263.426 3.37368 2.45946 0
M  V30 2879 H 264.816 6.71638 0.187668 0
M  V30 2880 N 267.536 -0.106894 1.57237 0
M  V30 2881 C 268.761 -0.830287 1.90055 0
M  V30 2882 C 269.186 -1.72064 0.75998 0
M  V30 2883 O 268.544 -1.78982 -0.288991 0
M  V30 2884 C 268.592 -1.6295 3.21683 0
M  V30 2885 O 267.696 -2.73748 3.08441 0
M  V30 2886 H 267.037 -0.228855 0.623315 0
M  V30 2887 H 269.567 -0.085658 2.04421 0
M  V30 2888 H 269.577 -2.01621 3.54701 0
M  V30 2889 H 268.252 -0.975989 4.04286 0
M  V30 2890 H 266.829 -2.38192 2.86913 0
M  V30 2891 N 269.014 -1.53014 -0.377408 0
M  V30 2892 C 269.961 -1.78616 -1.46168 0
M  V30 2893 C 270.931 -0.629917 -1.53692 0
M  V30 2894 O 272.116 -0.870861 -1.69766 0
M  V30 2895 C 269.256 -1.97123 -2.8326 0
M  V30 2896 C 268.369 -3.24831 -2.84796 0
M  V30 2897 C 267.504 -3.33591 -4.13389 0
M  V30 2898 C 266.543 -4.55377 -4.09021 0
M  V30 2899 N 265.68 -4.61355 -5.29241 0
M  V30 2900 H 270.52 -2.71142 -1.23637 0
M  V30 2901 H 268.057 -1.34326 -0.599577 0
M  V30 2902 H 270.015 -2.05839 -3.62886 0
M  V30 2903 H 268.645 -1.07946 -3.04216 0
M  V30 2904 H 267.697 -3.25128 -1.97474 0
M  V30 2905 H 269.009 -4.14523 -2.77439 0
M  V30 2906 H 268.163 -3.41554 -5.01424 0
M  V30 2907 H 266.902 -2.41894 -4.23484 0
M  V30 2908 H 265.907 -4.47527 -3.19373 0
M  V30 2909 H 267.132 -5.48402 -4.00539 0
M  V30 2910 H 265.078 -3.72554 -5.39944 0
M  V30 2911 H 264.995 -5.44935 -5.24006 0
M  V30 2912 H 266.263 -4.73586 -6.19141 0
M  V30 2913 N 270.492 0.636531 -1.44174 0
M  V30 2914 C 271.422 1.76003 -1.53444 0
M  V30 2915 C 272.403 1.65619 -0.387841 0
M  V30 2916 O 273.588 1.84461 -0.607257 0
M  V30 2917 C 270.718 3.14511 -1.4731 0
M  V30 2918 C 269.672 3.39677 -2.60391 0
M  V30 2919 C 268.998 4.78159 -2.39308 0
M  V30 2920 C 270.298 3.32772 -4.02567 0
M  V30 2921 H 271.992 1.68501 -2.47483 0
M  V30 2922 H 269.538 0.809237 -1.19111 0
M  V30 2923 H 271.491 3.92878 -1.52397 0
M  V30 2924 H 270.215 3.22783 -0.49785 0
M  V30 2925 H 268.874 2.63688 -2.54684 0
M  V30 2926 H 268.522 4.83128 -1.39988 0
M  V30 2927 H 268.222 4.95956 -3.15122 0
M  V30 2928 H 269.746 5.58762 -2.46205 0
M  V30 2929 H 271.16 4.01051 -4.09672 0
M  V30 2930 H 269.557 3.62104 -4.7854 0
M  V30 2931 H 270.627 2.30669 -4.2652 0
M  V30 2932 N 271.97 1.30982 0.876444 0
M  V30 2933 C 273.195 1.23373 1.66715 0
M  V30 2934 C 273.62 -0.19885 1.87046 0
M  V30 2935 O 272.978 -1.1427 1.40756 0
M  V30 2936 C 273.026 1.97644 3.01611 0
M  V30 2937 O 272.13 1.30935 3.91062 0
M  V30 2938 H 271.471 0.426279 0.509099 0
M  V30 2939 H 274.001 1.72944 1.09323 0
M  V30 2940 H 274.011 2.06992 3.51594 0
M  V30 2941 H 272.686 3.01829 2.86133 0
M  V30 2942 H 271.263 1.29996 3.49507 0
M  V30 2943 N 273.449 -1.08991 1.13837 0
M  V30 2944 C 274.695 -1.81526 0.90422 0
M  V30 2945 C 275.028 -1.85706 -0.568066 0
M  V30 2946 O 274.303 -1.32855 -1.42056 0
M  V30 2947 C 274.586 -3.27447 1.49835 0
M  V30 2948 C 274.439 -3.31512 3.04006 0
M  V30 2949 C 275.758 -4.24256 1.17025 0
M  V30 2950 H 272.877 -0.659029 0.329923 0
M  V30 2951 H 275.519 -1.27644 1.40737 0
M  V30 2952 H 273.669 -3.73462 1.07044 0
M  V30 2953 H 275.341 -2.93867 3.55584 0
M  V30 2954 H 273.584 -2.70963 3.38765 0
M  V30 2955 H 274.255 -4.34329 3.40679 0
M  V30 2956 H 276.731 -3.86549 1.54009 0
M  V30 2957 H 275.607 -5.24684 1.61237 0
M  V30 2958 H 275.868 -4.42019 0.0846274 0
M  V30 2959 N 274.927 -0.932562 -1.27047 0
M  V30 2960 C 276.176 -0.571351 -1.93439 0
M  V30 2961 C 276.489 0.892467 -1.74053 0
M  V30 2962 O 277.695 1.36267 -2.34826 0
M  V30 2963 C 276.151 -0.97106 -3.46552 0
M  V30 2964 C 275.759 -2.4559 -3.74686 0
M  V30 2965 C 277.503 -0.681333 -4.18997 0
M  V30 2966 C 275.41 -2.79475 -5.21198 0
M  V30 2967 H 274.34 -0.209966 -0.724176 0
M  V30 2968 H 276.991 -1.13403 -1.44263 0
M  V30 2969 H 275.373 -0.336983 -3.94564 0
M  V30 2970 H 276.547 -3.13829 -3.37414 0
M  V30 2971 H 274.862 -2.71802 -3.15456 0
M  V30 2972 H 277.459 -0.910939 -5.26883 0
M  V30 2973 H 277.802 0.381628 -4.14547 0
M  V30 2974 H 278.335 -1.27473 -3.76823 0
M  V30 2975 H 275.074 -3.847 -5.30741 0
M  V30 2976 H 274.594 -2.1589 -5.596 0
M  V30 2977 H 276.273 -2.67478 -5.89122 0
M  V30 2978 N 276.405 1.4127 -0.698611 0
M  V30 2979 C 277.355 2.27997 -0.0119836 0
M  V30 2980 C 278.339 1.42363 0.749765 0
M  V30 2981 O 279.531 1.65607 0.624758 0
M  V30 2982 C 276.66 3.30702 0.921458 0
M  V30 2983 C 275.746 4.23814 0.155796 0
M  V30 2984 N 276.137 4.98572 -0.852015 0
M  V30 2985 C 274.435 4.44284 0.390836 0
M  V30 2986 C 275.136 5.66744 -1.3106 0
M  V30 2987 N 274.112 5.39867 -0.635944 0
M  V30 2988 H 277.914 2.83232 -0.784649 0
M  V30 2989 H 275.428 1.53518 -0.529711 0
M  V30 2990 H 277.425 3.91661 1.42854 0
M  V30 2991 H 276.085 2.77028 1.69369 0
M  V30 2992 H 277.096 5.03024 -1.23235 0
M  V30 2993 H 273.773 4.01614 1.14071 0
M  V30 2994 H 275.163 6.36672 -2.14707 0
M  V30 2995 N 277.883 0.443576 1.51229 0
M  V30 2996 C 279.299 0.0962001 1.5931 0
M  V30 2997 C 279.499 -1.39501 1.45402 0
M  V30 2998 O 278.555 -2.16557 1.29843 0
M  V30 2999 C 279.868 0.621875 2.94199 0
M  V30 3000 C 281.416 0.582865 3.07525 0
M  V30 3001 C 281.891 1.08562 4.44948 0
M  V30 3002 N 283.382 1.04387 4.51284 0
M  V30 3003 C 284.117 1.40368 5.55954 0
M  V30 3004 N 283.613 1.83664 6.68011 0
M  V30 3005 N 285.406 1.32145 5.46346 0
M  V30 3006 H 277.557 1.41376 1.58514 0
M  V30 3007 H 279.82 0.582965 0.747567 0
M  V30 3008 H 279.526 1.66546 3.09767 0
M  V30 3009 H 279.4 0.0502125 3.77167 0
M  V30 3010 H 281.787 -0.451749 2.91622 0
M  V30 3011 H 281.868 1.191 2.26382 0
M  V30 3012 H 281.512 2.11873 4.61598 0
M  V30 3013 H 281.442 0.453956 5.2464 0
M  V30 3014 H 283.933 0.725986 3.70861 0
M  V30 3015 H 284.246 2.0934 7.43906 0
M  V30 3016 H 282.591 1.87596 6.69203 0
M  V30 3017 H 285.782 0.981808 4.57688 0
M  V30 3018 H 285.955 1.60514 6.27805 0
M  V30 3019 N 279.361 -1.56624 0.175154 0
M  V30 3020 C 280.638 -1.88688 -0.515373 0
M  V30 3021 C 281.018 -1.08564 -1.81044 0
M  V30 3022 O 280.366 -0.180703 -2.27784 0
M  V30 3023 C 280.576 -3.40768 -0.753552 0
M  V30 3024 C 281.924 -4.10587 -1.08184 0
M  V30 3025 O 282.948 -3.46106 -0.841961 0
M  V30 3026 O 281.807 -5.24512 -1.53459 0
M  V30 3027 H 278.901 -0.78301 -0.26613 0
M  V30 3028 H 281.447 -1.68347 0.213877 0
M  V30 3029 H 280.219 -3.90965 0.161829 0
M  V30 3030 H 279.842 -3.66733 -1.53598 0
M  V30 3031 N 280.839 0.0985539 -1.57292 0
M  V30 3032 C 282.085 0.803867 -1.86188 0
M  V30 3033 C 282.418 1.78549 -0.763794 0
M  V30 3034 O 281.693 1.93153 0.22855 0
M  V30 3035 C 281.976 1.53568 -3.25713 0
M  V30 3036 C 281.829 0.572277 -4.46145 0
M  V30 3037 C 283.148 2.48708 -3.63087 0
M  V30 3038 H 280.267 0.290781 -0.677211 0
M  V30 3039 H 282.909 0.0675783 -1.8988 0
M  V30 3040 H 281.059 2.16332 -3.22696 0
M  V30 3041 H 282.731 -0.0480894 -4.61275 0
M  V30 3042 H 280.974 -0.114618 -4.33649 0
M  V30 3043 H 281.645 1.12139 -5.40489 0
M  V30 3044 H 284.121 1.96039 -3.67026 0
M  V30 3045 H 282.997 2.96932 -4.61652 0
M  V30 3046 H 283.258 3.32309 -2.91588 0
M  V30 3047 N 282.317 1.53212 0.369288 0
M  V30 3048 C 283.264 1.79388 1.45219 0
M  V30 3049 C 284.234 0.638059 1.53356 0
M  V30 3050 O 285.419 0.879852 1.69302 0
M  V30 3051 C 282.559 1.98623 2.82211 0
M  V30 3052 C 281.672 3.26337 2.8307 0
M  V30 3053 C 280.807 3.35779 4.11614 0
M  V30 3054 C 279.846 4.5754 4.06601 0
M  V30 3055 N 278.983 4.64155 5.26787 0
M  V30 3056 H 283.823 2.71794 1.22198 0
M  V30 3057 H 281.36 1.34642 0.592444 0
M  V30 3058 H 283.318 2.07761 3.61789 0
M  V30 3059 H 281.948 1.09558 3.03639 0
M  V30 3060 H 281 3.26171 1.95747 0
M  V30 3061 H 282.312 4.15988 2.75237 0
M  V30 3062 H 281.466 3.44208 4.99606 0
M  V30 3063 H 280.205 2.44137 4.22195 0
M  V30 3064 H 279.21 4.49215 3.16996 0
M  V30 3065 H 280.435 5.50519 3.97625 0
M  V30 3066 H 278.381 3.75413 5.3796 0
M  V30 3067 H 278.298 5.47706 5.21109 0
M  V30 3068 H 279.566 4.76863 6.16621 0
M  V30 3069 N 283.795 -0.628877 1.44509 0
M  V30 3070 C 285.206 -1.21054 1.42137 0
M  V30 3071 C 285.557 -1.95715 0.137881 0
M  V30 3072 O 284.682 -2.02554 -0.761645 0
M  V30 3073 C 285.277 -2.20189 2.57493 0
M  V30 3074 C 283.836 -2.73777 2.58308 0
M  V30 3075 C 282.983 -1.48813 2.33987 0
M  V30 3076 H 285.934 -0.41942 1.53057 0
M  V30 3077 H 285.955 -3.02833 2.30375 0
M  V30 3078 H 285.467 -1.6582 3.50892 0
M  V30 3079 H 283.568 -3.32142 1.68856 0
M  V30 3080 H 283.681 -3.19662 3.56865 0
M  V30 3081 H 282.045 -1.77024 1.83124 0
M  V30 3082 H 282.828 -0.963442 3.29504 0
M  V30 3083 N 285.273 -1.31445 -0.869486 0
M  V30 3084 C 286.498 -1.24256 -1.66058 0
M  V30 3085 C 286.923 0.188928 -1.87149 0
M  V30 3086 O 286.281 1.13522 -1.4136 0
M  V30 3087 C 286.329 -1.9924 -3.00559 0
M  V30 3088 O 285.433 -1.33007 -3.90362 0
M  V30 3089 H 284.774 -0.428973 -0.506831 0
M  V30 3090 H 287.304 -1.73521 -1.08404 0
M  V30 3091 H 287.314 -2.08854 -3.50491 0
M  V30 3092 H 285.989 -3.03342 -2.84528 0
M  V30 3093 H 284.566 -1.31848 -3.48813 0
M  V30 3094 N 286.751 1.08385 -1.14413 0
M  V30 3095 C 287.699 2.17406 -0.826888 0
M  V30 3096 C 288.693 1.6827 0.195312 0
M  V30 3097 O 289.899 1.79927 0.0513892 0
M  V30 3098 H 286.274 0.70934 -0.249681 0
M  V30 3099 H 288.245 2.41388 -1.75426 0
M  V30 3100 C 286.994 3.46215 -0.320979 0
M  V30 3101 H 286.317 3.84401 -1.0989 0
M  V30 3102 H 287.757 4.23777 -0.137549 0
M  V30 3103 C 286.216 3.23067 0.955472 0
M  V30 3104 O 286.746 3.4668 2.02918 0
M  V30 3105 N 284.952 2.7661 0.890798 0
M  V30 3106 H 284.499 2.57594 0.0168815 0
M  V30 3107 H 284.457 2.61501 1.74542 0
M  V30 3108 N 288.23 0.939286 1.26551 0
M  V30 3109 C 289.476 0.586715 1.94128 0
M  V30 3110 C 289.809 -0.8717 1.73537 0
M  V30 3111 O 289.084 -1.62339 1.07127 0
M  V30 3112 C 289.367 0.927497 3.4795 0
M  V30 3113 C 289.22 2.44052 3.77834 0
M  V30 3114 C 290.539 0.441569 4.37879 0
M  V30 3115 H 287.658 0.21463 0.705055 0
M  V30 3116 H 290.3 1.17316 1.49455 0
M  V30 3117 H 288.45 0.428431 3.8613 0
M  V30 3118 H 290.122 3.01216 3.4938 0
M  V30 3119 H 288.365 2.8848 3.23978 0
M  V30 3120 H 289.036 2.62947 4.85348 0
M  V30 3121 H 291.512 0.869448 4.06915 0
M  V30 3122 H 290.388 0.708856 5.44304 0
M  V30 3123 H 290.649 -0.658467 4.37169 0
M  V30 3124 N 289.708 -1.40897 0.706093 0
M  V30 3125 C 290.638 -2.33418 0.0620085 0
M  V30 3126 C 291.619 -1.52385 -0.755827 0
M  V30 3127 O 292.804 -1.80886 -0.706674 0
M  V30 3128 C 289.934 -3.36293 -0.867445 0
M  V30 3129 C 288.888 -4.27716 -0.155932 0
M  V30 3130 C 288.214 -5.2105 -1.20046 0
M  V30 3131 C 289.514 -5.12944 0.984149 0
M  V30 3132 H 291.208 -2.87527 0.83477 0
M  V30 3133 H 288.754 -1.38249 0.402875 0
M  V30 3134 H 290.707 -3.99949 -1.32735 0
M  V30 3135 H 289.431 -2.80556 -1.67199 0
M  V30 3136 H 288.09 -3.65498 0.284047 0
M  V30 3137 H 287.738 -4.61624 -1.99781 0
M  V30 3138 H 287.438 -5.83056 -0.729328 0
M  V30 3139 H 288.962 -5.87584 -1.66066 0
M  V30 3140 H 290.376 -5.70109 0.604048 0
M  V30 3141 H 288.773 -5.83945 1.38304 0
M  V30 3142 H 289.843 -4.49485 1.81911 0
M  V30 3143 N 291.186 -0.45159 -1.50991 0
M  V30 3144 C 292.435 0.111653 -2.01391 0
M  V30 3145 C 292.748 1.42529 -1.33959 0
M  V30 3146 O 293.954 2.07232 -1.75405 0
M  V30 3147 C 292.41 0.249514 -3.59034 0
M  V30 3148 C 292.018 -1.05453 -4.35412 0
M  V30 3149 C 293.762 0.765762 -4.17536 0
M  V30 3150 C 291.669 -0.881529 -5.84793 0
M  V30 3151 H 290.599 0.0455022 -0.752626 0
M  V30 3152 H 293.25 -0.583524 -1.73975 0
M  V30 3153 H 291.632 1.00803 -3.82955 0
M  V30 3154 H 292.806 -1.82248 -4.23229 0
M  V30 3155 H 291.121 -1.50039 -3.88429 0
M  V30 3156 H 293.718 0.911913 -5.26866 0
M  V30 3157 H 294.061 1.75201 -3.77638 0
M  V30 3158 H 294.594 0.0651744 -3.97747 0
M  V30 3159 H 291.333 -1.84057 -6.29129 0
M  V30 3160 H 290.853 -0.153625 -5.99603 0
M  V30 3161 H 292.532 -0.540363 -6.4474 0
M  V30 3162 N 292.664 1.56529 -0.183458 0
M  V30 3163 C 293.612 2.19873 0.758845 0
M  V30 3164 C 294.606 1.16638 1.22849 0
M  V30 3165 O 295.812 1.3481 1.19274 0
M  V30 3166 H 292.187 0.7045 0.263029 0
M  V30 3167 H 294.158 2.97724 0.200755 0
M  V30 3168 C 292.907 2.86314 1.9728 0
M  V30 3169 H 292.23 3.65487 1.62047 0
M  V30 3170 H 293.67 3.3409 2.61075 0
M  V30 3171 C 292.129 1.86729 2.80418 0
M  V30 3172 O 292.659 1.36031 3.77966 0
M  V30 3173 N 290.865 1.55216 2.45675 0
M  V30 3174 H 290.412 1.96636 1.66409 0
M  V30 3175 H 290.37 0.888388 3.01588 0
M  V30 3176 N 294.142 -0.090211 1.57342 0
M  V30 3177 C 295.089 -1.10909 2.02405 0
M  V30 3178 C 296.059 -1.39523 0.901252 0
M  V30 3179 O 297.244 -1.50903 1.1676 0
M  V30 3180 C 294.384 -2.42277 2.45755 0
M  V30 3181 C 293.497 -2.20352 3.71576 0
M  V30 3182 C 292.632 -3.45154 4.03785 0
M  V30 3183 C 291.671 -3.18512 5.22701 0
M  V30 3184 N 290.808 -4.35593 5.50639 0
M  V30 3185 H 295.648 -0.71782 2.89225 0
M  V30 3186 H 293.185 -0.342901 1.43048 0
M  V30 3187 H 295.143 -3.18951 2.68935 0
M  V30 3188 H 293.773 -2.79242 1.61938 0
M  V30 3189 H 292.825 -1.34458 3.55844 0
M  V30 3190 H 294.137 -1.96661 4.58395 0
M  V30 3191 H 293.291 -4.30233 4.27767 0
M  V30 3192 H 292.03 -3.71904 3.15498 0
M  V30 3193 H 291.035 -2.31827 4.98534 0
M  V30 3194 H 292.26 -2.93103 6.12591 0
M  V30 3195 H 290.206 -4.6241 4.6531 0
M  V30 3196 H 290.123 -4.1511 6.31838 0
M  V30 3197 H 291.391 -5.21723 5.7916 0
M  V30 3198 N 295.62 -1.53406 -0.361157 0
M  V30 3199 C 296.53 -1.83122 -1.4664 0
M  V30 3200 C 297.546 -0.719943 -1.58407 0
M  V30 3201 O 298.722 -1.01046 -1.74218 0
M  V30 3202 C 295.787 -2.01891 -2.81853 0
M  V30 3203 C 294.848 -3.25784 -2.79577 0
M  V30 3204 C 294.081 -3.43648 -4.0834 0
M  V30 3205 O 294.304 -2.65714 -5.0473 0
M  V30 3206 O 293.238 -4.37018 -4.13883 0
M  V30 3207 H 297.064 -2.7703 -1.24451 0
M  V30 3208 H 294.649 -1.38841 -0.551678 0
M  V30 3209 H 296.531 -2.15782 -3.61962 0
M  V30 3210 H 295.206 -1.11173 -3.0401 0
M  V30 3211 H 294.113 -3.17312 -1.98151 0
M  V30 3212 H 295.446 -4.16439 -2.62373 0
M  V30 3213 N 297.098 0.621204 -1.44841 0
M  V30 3214 C 298.346 1.37783 -1.47852 0
M  V30 3215 C 298.667 1.94653 -0.116224 0
M  V30 3216 O 297.937 1.76367 0.852737 0
M  V30 3217 H 296.517 0.511453 -0.544449 0
M  V30 3218 H 299.179 0.730446 -1.80694 0
M  V30 3219 H 298.275 2.20414 -2.20961 0
M  V30 3220 N 298.576 1.31904 0.862503 0
M  V30 3221 C 299.526 1.16772 1.95827 0
M  V30 3222 C 300.51 0.0767098 1.60717 0
M  V30 3223 O 301.702 0.302407 1.74398 0
M  V30 3224 C 298.831 0.884858 3.317 0
M  V30 3225 C 297.917 2.0172 3.73055 0
M  V30 3226 N 298.308 3.265 3.86305 0
M  V30 3227 C 296.606 1.91861 4.02623 0
M  V30 3228 C 297.307 4.00616 4.2176 0
M  V30 3229 N 296.283 3.28847 4.32852 0
M  V30 3230 H 300.085 2.11382 2.04193 0
M  V30 3231 H 297.599 1.2357 1.05377 0
M  V30 3232 H 299.596 0.757419 4.09962 0
M  V30 3233 H 298.256 -0.0529448 3.24657 0
M  V30 3234 H 299.267 3.61529 3.70833 0
M  V30 3235 H 295.944 1.05593 4.03926 0
M  V30 3236 H 297.334 5.08182 4.39546 0
M  V30 3237 N 300.054 -1.07777 1.14986 0
M  V30 3238 C 301.3 -1.80557 0.923422 0
M  V30 3239 C 301.633 -1.86298 -0.548337 0
M  V30 3240 O 300.908 -1.34354 -1.40639 0
M  V30 3241 C 301.191 -3.25839 1.53299 0
M  V30 3242 C 301.044 -3.28269 3.07505 0
M  V30 3243 C 302.363 -4.22991 1.21518 0
M  V30 3244 H 299.482 -0.655493 0.336894 0
M  V30 3245 H 302.124 -1.26144 1.42083 0
M  V30 3246 H 300.274 -3.72306 1.10999 0
M  V30 3247 H 301.946 -2.90079 3.58681 0
M  V30 3248 H 300.189 -2.67355 3.4162 0
M  V30 3249 H 300.86 -4.30691 3.45266 0
M  V30 3250 H 303.336 -3.84894 1.581 0
M  V30 3251 H 302.212 -5.22945 1.66793 0
M  V30 3252 H 302.473 -4.41904 0.131505 0
M  V30 3253 N 301.532 -0.945985 -1.26051 0
M  V30 3254 C 302.479 -0.45809 -2.26208 0
M  V30 3255 C 303.449 0.484816 -1.58867 0
M  V30 3256 O 304.634 0.399969 -1.86561 0
M  V30 3257 C 301.774 0.266131 -3.44072 0
M  V30 3258 C 300.887 -0.713005 -4.26075 0
M  V30 3259 C 300.022 0.0329013 -5.3119 0
M  V30 3260 C 299.061 -0.93774 -6.04874 0
M  V30 3261 N 298.198 -0.223274 -7.01745 0
M  V30 3262 H 303.038 -1.3171 -2.67313 0
M  V30 3263 H 300.575 -0.66069 -1.31428 0
M  V30 3264 H 302.533 0.702514 -4.11243 0
M  V30 3265 H 301.163 1.08925 -3.03867 0
M  V30 3266 H 300.215 -1.26789 -3.58648 0
M  V30 3267 H 301.527 -1.45406 -4.77136 0
M  V30 3268 H 300.681 0.528335 -6.04395 0
M  V30 3269 H 299.42 0.806801 -4.8098 0
M  V30 3270 H 298.425 -1.44425 -5.30492 0
M  V30 3271 H 299.65 -1.71172 -6.57173 0
M  V30 3272 H 297.596 0.532046 -6.53839 0
M  V30 3273 H 297.513 -0.90357 -7.50581 0
M  V30 3274 H 298.781 0.250907 -7.79096 0
M  V30 3275 N 303.011 1.40521 -0.713556 0
M  V30 3276 C 303.944 2.28198 -0.00881422 0
M  V30 3277 C 304.922 1.43227 0.769735 0
M  V30 3278 O 306.106 1.72641 0.756799 0
M  V30 3279 C 303.233 3.23758 0.994899 0
M  V30 3280 C 302.279 4.25391 0.3074 0
M  V30 3281 S 303.112 5.26765 -0.963247 0
M  V30 3282 C 304.268 6.25888 0.0384143 0
M  V30 3283 H 304.501 2.87622 -0.752407 0
M  V30 3284 H 302.034 1.45925 -0.504502 0
M  V30 3285 H 303.992 3.79341 1.56879 0
M  V30 3286 H 302.653 2.63396 1.71118 0
M  V30 3287 H 301.846 4.92596 1.0661 0
M  V30 3288 H 301.448 3.73497 -0.193879 0
M  V30 3289 H 303.74 6.71683 0.885912 0
M  V30 3290 H 304.683 7.05552 -0.60019 0
M  V30 3291 H 305.091 5.63072 0.401233 0
M  V30 3292 N 304.489 0.459591 1.5075 0
M  V30 3293 C 305.729 -0.09824 2.04164 0
M  V30 3294 C 306.093 -1.3801 1.33481 0
M  V30 3295 O 307.294 -2.01959 1.77387 0
M  V30 3296 C 305.565 -0.289467 3.56226 0
M  V30 3297 S 307.124 -0.807507 4.31306 0
M  V30 3298 H 303.942 -0.0213845 0.710678 0
M  V30 3299 H 306.544 0.624098 1.85271 0
M  V30 3300 H 305.248 0.649461 4.05229 0
M  V30 3301 H 304.779 -1.03825 3.79452 0
M  V30 3302 H 306.794 -2.0824 4.50389 0
M  V30 3303 N 305.967 -1.56429 0.191757 0
M  V30 3304 C 307.244 -1.89224 -0.495332 0
M  V30 3305 C 307.624 -1.10478 -1.79883 0
M  V30 3306 O 306.972 -0.204852 -2.2758 0
M  V30 3307 C 307.182 -3.41548 -0.717367 0
M  V30 3308 C 308.53 -4.11711 -1.03823 0
M  V30 3309 O 309.554 -3.4698 -0.805204 0
M  V30 3310 O 308.413 -5.2611 -1.47887 0
M  V30 3311 H 305.507 -0.785788 -0.25781 0
M  V30 3312 H 308.053 -1.68111 0.231721 0
M  V30 3313 H 306.825 -3.90772 0.203287 0
M  V30 3314 H 306.448 -3.68342 -1.497 0
M  V30 3315 N 307.445 0.0818655 -1.57387 0
M  V30 3316 C 308.692 0.782914 -1.86753 0
M  V30 3317 C 309.02 1.78082 -0.782118 0
M  V30 3318 O 308.275 1.94426 0.22295 0
M  V30 3319 C 308.574 1.53513 -3.22752 0
M  V30 3320 C 308.24 0.678134 -4.45771 0
M  V30 3321 C 306.902 0.441929 -4.79166 0
M  V30 3322 C 309.254 0.0832243 -5.21134 0
M  V30 3323 C 306.582 -0.398833 -5.85343 0
M  V30 3324 C 308.934 -0.744935 -6.28199 0
M  V30 3325 C 307.598 -0.991107 -6.60101 0
M  V30 3326 H 306.868 0.286489 -0.683378 0
M  V30 3327 H 309.515 0.0439808 -1.91449 0
M  V30 3328 H 307.82 2.34599 -3.138 0
M  V30 3329 H 309.517 2.08218 -3.42705 0
M  V30 3330 H 306.107 0.872357 -4.19628 0
M  V30 3331 H 310.291 0.252847 -4.95655 0
M  V30 3332 H 305.547 -0.598405 -6.08465 0
M  V30 3333 H 309.721 -1.21271 -6.8576 0
M  V30 3334 H 307.348 -1.64437 -7.42202 0
M  V30 3335 N 308.923 1.53595 0.353017 0
M  V30 3336 C 310.171 1.70049 1.09215 0
M  V30 3337 C 310.492 0.461406 1.89463 0
M  V30 3338 O 309.762 -0.524633 1.88744 0
M  V30 3339 H 308.342 0.626912 0.40619 0
M  V30 3340 H 311.004 1.90822 0.396585 0
M  V30 3341 H 310.1 2.56718 1.77488 0
M  V30 3342 N 310.401 -0.613514 1.45168 0
M  V30 3343 C 311.65 -1.36874 1.4815 0
M  V30 3344 C 311.963 -1.952 0.124982 0
M  V30 3345 O 313.169 -2.71481 0.0324176 0
M  V30 3346 C 311.625 -2.47905 2.60904 0
M  V30 3347 C 311.233 -1.96016 4.02842 0
M  V30 3348 C 312.977 -3.24965 2.73126 0
M  V30 3349 C 310.884 -3.04494 5.06988 0
M  V30 3350 H 309.814 -0.514428 0.551253 0
M  V30 3351 H 312.465 -0.658182 1.7129 0
M  V30 3352 H 310.847 -3.21618 2.31037 0
M  V30 3353 H 312.021 -1.29051 4.4236 0
M  V30 3354 H 310.336 -1.31719 3.95018 0
M  V30 3355 H 312.933 -4.05865 3.48106 0
M  V30 3356 H 313.276 -3.75588 1.79553 0
M  V30 3357 H 313.809 -2.5835 3.0249 0
M  V30 3358 H 310.548 -2.58795 6.0225 0
M  V30 3359 H 310.068 -3.70044 4.72046 0
M  V30 3360 H 311.747 -3.68976 5.31475 0
M  V30 3361 N 311.879 -1.3236 -0.855495 0
M  V30 3362 C 313.104 -1.2601 -1.64731 0
M  V30 3363 C 313.529 0.169068 -1.87339 0
M  V30 3364 O 312.887 1.12016 -1.42556 0
M  V30 3365 C 312.935 -2.02417 -2.98429 0
M  V30 3366 O 312.039 -1.3714 -3.8893 0
M  V30 3367 H 311.38 -0.434325 -0.502253 0
M  V30 3368 H 313.91 -1.74661 -1.06558 0
M  V30 3369 H 313.92 -2.12559 -3.48257 0
M  V30 3370 H 312.595 -3.06343 -2.81295 0
M  V30 3371 H 311.172 -1.3554 -3.47395 0
M  V30 3372 N 313.357 1.07166 -1.15556 0
M  V30 3373 C 314.605 1.79443 -0.929764 0
M  V30 3374 C 314.926 1.87246 0.544414 0
M  V30 3375 O 314.196 1.37473 1.39564 0
M  V30 3376 H 312.776 0.664625 -0.341003 0
M  V30 3377 H 315.438 1.29499 -1.45657 0
M  V30 3378 H 314.534 2.81832 -1.34079 0
M  V30 3379 N 314.835 0.952656 1.25548 0
M  V30 3380 C 316.065 0.622592 1.96996 0
M  V30 3381 C 316.473 -0.809112 1.71026 0
M  V30 3382 O 315.816 -1.55258 0.981861 0
M  V30 3383 C 315.878 0.798946 3.5051 0
M  V30 3384 C 315.542 2.20744 4.00151 0
M  V30 3385 C 316.539 3.18394 4.11001 0
M  V30 3386 C 314.224 2.5311 4.33867 0
M  V30 3387 C 316.218 4.46504 4.54877 0
M  V30 3388 C 313.905 3.8145 4.7743 0
M  V30 3389 C 314.903 4.77959 4.87897 0
M  V30 3390 O 314.591 6.04012 5.30494 0
M  V30 3391 H 314.323 0.232503 0.634758 0
M  V30 3392 H 316.877 1.2789 1.60728 0
M  V30 3393 H 315.107 0.0854903 3.86605 0
M  V30 3394 H 316.796 0.47023 4.03167 0
M  V30 3395 H 317.562 2.94715 3.85186 0
M  V30 3396 H 313.441 1.78719 4.24948 0
M  V30 3397 H 316.985 5.21835 4.62962 0
M  V30 3398 H 312.882 4.04936 5.0269 0
M  V30 3399 H 313.65 6.0736 5.48685 0
M  V30 3400 N 316.313 -1.40141 0.720998 0
M  V30 3401 C 317.243 -2.33339 0.0867621 0
M  V30 3402 C 318.224 -1.53178 -0.739622 0
M  V30 3403 O 319.409 -1.81625 -0.687449 0
M  V30 3404 C 316.539 -3.37194 -0.831728 0
M  V30 3405 C 315.493 -4.27857 -0.110558 0
M  V30 3406 C 314.819 -5.22294 -1.14513 0
M  V30 3407 C 316.119 -5.11872 1.0385 0
M  V30 3408 H 317.813 -2.86626 0.865219 0
M  V30 3409 H 315.359 -1.37814 0.417516 0
M  V30 3410 H 317.312 -4.01335 -1.28485 0
M  V30 3411 H 316.036 -2.82314 -1.64214 0
M  V30 3412 H 314.695 -3.65176 0.322797 0
M  V30 3413 H 314.343 -4.63717 -1.94874 0
M  V30 3414 H 314.043 -5.83797 -0.667446 0
M  V30 3415 H 315.567 -5.89312 -1.59824 0
M  V30 3416 H 316.981 -5.69436 0.664482 0
M  V30 3417 H 315.378 -5.82445 1.4449 0
M  V30 3418 H 316.448 -4.4753 1.86668 0
M  V30 3419 N 317.792 -0.46758 -1.50504 0
M  V30 3420 C 319.038 0.0887532 -2.02606 0
M  V30 3421 C 319.371 1.39686 -1.34913 0
M  V30 3422 O 318.646 1.88644 -0.473694 0
M  V30 3423 C 318.929 0.276206 -3.59039 0
M  V30 3424 C 318.782 -1.05267 -4.37309 0
M  V30 3425 C 320.101 1.03235 -4.27821 0
M  V30 3426 H 317.22 0.0307814 -0.736357 0
M  V30 3427 H 319.862 -0.612485 -1.79857 0
M  V30 3428 H 318.012 0.8735 -3.78553 0
M  V30 3429 H 319.684 -1.68628 -4.29374 0
M  V30 3430 H 317.927 -1.65015 -4.01189 0
M  V30 3431 H 318.598 -0.875197 -5.45018 0
M  V30 3432 H 321.074 0.526111 -4.12761 0
M  V30 3433 H 319.95 1.1323 -5.37094 0
M  V30 3434 H 320.211 2.06806 -3.90748 0
M  V30 3435 N 319.27 1.56325 -0.20005 0
M  V30 3436 C 320.547 1.89484 0.48529 0
M  V30 3437 C 320.927 1.1143 1.79294 0
M  V30 3438 O 320.275 0.216919 2.27468 0
M  V30 3439 C 320.485 3.41923 0.699243 0
M  V30 3440 C 321.833 4.12256 1.01638 0
M  V30 3441 O 322.857 3.47402 0.786792 0
M  V30 3442 O 321.716 5.26887 1.45095 0
M  V30 3443 H 318.81 0.787144 0.253639 0
M  V30 3444 H 321.356 1.67985 -0.240633 0
M  V30 3445 H 320.128 3.90658 -0.224008 0
M  V30 3446 H 319.751 3.69131 1.47744 0
M  V30 3447 N 320.748 -0.0735177 1.57428 0
M  V30 3448 C 321.973 -0.789787 1.91774 0
M  V30 3449 C 322.398 -1.70413 0.796306 0
M  V30 3450 O 321.756 -1.79555 -0.250961 0
M  V30 3451 C 321.804 -1.5609 3.25067 0
M  V30 3452 O 320.908 -2.67144 3.14178 0
M  V30 3453 H 320.249 -0.215582 0.628029 0
M  V30 3454 H 322.779 -0.0422781 2.04556 0
M  V30 3455 H 322.789 -1.94052 3.58898 0
M  V30 3456 H 321.464 -0.890015 4.06265 0
M  V30 3457 H 320.041 -2.32052 2.91901 0
M  V30 3458 N 322.226 -1.5378 -0.344866 0
M  V30 3459 C 323.472 -1.71216 -1.08687 0
M  V30 3460 C 323.805 -0.473281 -1.88345 0
M  V30 3461 O 323.08 0.52968 -1.87149 0
M  V30 3462 C 323.363 -2.97486 -2.02914 0
M  V30 3463 C 323.216 -4.31579 -1.26727 0
M  V30 3464 C 324.535 -3.19422 -3.0275 0
M  V30 3465 H 321.654 -0.62301 -0.393735 0
M  V30 3466 H 324.296 -1.8645 -0.365563 0
M  V30 3467 H 322.446 -2.84629 -2.64421 0
M  V30 3468 H 324.118 -4.56284 -0.67845 0
M  V30 3469 H 322.361 -4.30049 -0.569273 0
M  V30 3470 H 323.032 -5.16106 -1.95803 0
M  V30 3471 H 325.508 -3.316 -2.51357 0
M  V30 3472 H 324.384 -4.09169 -3.65885 0
M  V30 3473 H 324.645 -2.35656 -3.74057 0
M  V30 3474 N 323.704 0.605807 -1.45491 0
M  V30 3475 C 324.667 1.69836 -1.5391 0
M  V30 3476 C 325.667 1.55261 -0.418424 0
M  V30 3477 O 326.857 1.60296 -0.681965 0
M  V30 3478 C 323.989 3.09117 -1.43734 0
M  V30 3479 H 325.182 1.63738 -2.51257 0
M  V30 3480 H 322.735 0.821689 -1.32959 0
M  V30 3481 H 323.47 3.20791 -0.475788 0
M  V30 3482 H 323.255 3.21104 -2.25021 0
M  V30 3483 H 324.745 3.88696 -1.52661 0
M  V30 3484 N 325.182 1.32811 0.848464 0
M  V30 3485 C 326.129 1.22265 1.95755 0
M  V30 3486 C 327.099 0.103413 1.65778 0
M  V30 3487 O 328.284 0.280033 1.88734 0
M  V30 3488 C 325.424 0.958014 3.31536 0
M  V30 3489 C 324.537 2.16262 3.73971 0
M  V30 3490 C 323.672 1.83295 4.98575 0
M  V30 3491 C 322.711 3.00041 5.33518 0
M  V30 3492 N 321.848 2.67125 6.49299 0
M  V30 3493 H 326.688 2.17128 2.04107 0
M  V30 3494 H 324.225 1.07982 0.998913 0
M  V30 3495 H 326.183 0.785052 4.09747 0
M  V30 3496 H 324.813 0.046159 3.22767 0
M  V30 3497 H 323.865 2.44565 2.91362 0
M  V30 3498 H 325.177 3.03572 3.95785 0
M  V30 3499 H 324.331 1.62586 5.84509 0
M  V30 3500 H 323.07 0.932078 4.7871 0
M  V30 3501 H 322.075 3.21374 4.46093 0
M  V30 3502 H 323.3 3.90869 5.55336 0
M  V30 3503 H 321.246 1.79586 6.3094 0
M  V30 3504 H 321.163 3.47965 6.71161 0
M  V30 3505 H 322.431 2.49861 7.3837 0
M  V30 3506 N 326.66 -1.06551 1.16123 0
M  V30 3507 C 327.888 -1.83005 0.965237 0
M  V30 3508 C 328.303 -1.82423 -0.486542 0
M  V30 3509 O 327.66 -1.24152 -1.33763 0
M  V30 3510 C 327.711 -3.29733 1.48183 0
M  V30 3511 O 327.432 -3.30416 2.87674 0
M  V30 3512 C 328.933 -4.22926 1.32848 0
M  V30 3513 H 326.153 -0.577118 0.342309 0
M  V30 3514 H 328.697 -1.3445 1.54089 0
M  V30 3515 H 326.852 -3.75609 0.948517 0
M  V30 3516 H 327.266 -4.22149 3.11272 0
M  V30 3517 H 328.74 -5.23916 1.73827 0
M  V30 3518 H 329.217 -4.38346 0.273692 0
M  V30 3519 H 329.823 -3.82894 1.85127 0
M  V30 3520 N 328.138 -0.959301 -1.25041 0
M  V30 3521 C 329.071 -0.427418 -2.24161 0
M  V30 3522 C 330.049 0.493837 -1.54919 0
M  V30 3523 O 331.233 0.427144 -1.83597 0
M  V30 3524 C 328.36 0.383893 -3.36517 0
M  V30 3525 C 327.406 -0.478431 -4.23808 0
M  V30 3526 S 328.239 -1.91353 -5.00144 0
M  V30 3527 C 329.395 -1.11077 -6.15965 0
M  V30 3528 H 329.628 -1.26743 -2.6893 0
M  V30 3529 H 327.161 -0.763714 -1.34189 0
M  V30 3530 H 329.119 0.846039 -4.01687 0
M  V30 3531 H 327.78 1.19878 -2.90324 0
M  V30 3532 H 326.973 0.14406 -5.03794 0
M  V30 3533 H 326.575 -0.87597 -3.63597 0
M  V30 3534 H 328.867 -0.361699 -6.76534 0
M  V30 3535 H 329.81 -1.88472 -6.82557 0
M  V30 3536 H 330.218 -0.638843 -5.60873 0
M  V30 3537 N 329.616 1.39756 -0.72842 0
M  V30 3538 C 330.893 1.94574 -0.200079 0
M  V30 3539 C 331.273 1.66569 1.29684 0
M  V30 3540 O 330.621 0.990326 2.05924 0
M  V30 3541 C 330.831 3.45004 -0.526608 0
M  V30 3542 C 332.179 4.21965 -0.472318 0
M  V30 3543 O 333.203 3.53173 -0.463413 0
M  V30 3544 O 332.062 5.44552 -0.461075 0
M  V30 3545 H 329.156 0.826289 -0.0342851 0
M  V30 3546 H 331.702 1.49293 -0.806829 0
M  V30 3547 H 330.474 3.58796 -1.56144 0
M  V30 3548 H 330.097 3.97449 0.109449 0
M  V30 3549 N 331.094 0.475555 1.50254 0
M  V30 3550 C 332.057 -0.305016 2.27161 0
M  V30 3551 C 333.057 -0.916519 1.32123 0
M  V30 3552 O 334.247 -0.785003 1.5551 0
M  V30 3553 C 331.379 -1.43496 3.09227 0
M  V30 3554 H 332.572 0.369511 2.97615 0
M  V30 3555 H 330.125 0.229747 1.54602 0
M  V30 3556 H 330.86 -2.14441 2.43281 0
M  V30 3557 H 330.645 -1.00223 3.79075 0
M  V30 3558 H 332.135 -1.98548 3.67381 0
M  V30 3559 N 332.573 -1.56217 0.208337 0
M  V30 3560 C 333.821 -1.97558 -0.426076 0
M  V30 3561 C 334.142 -1.09683 -1.61229 0
M  V30 3562 O 333.412 -0.170956 -1.95153 0
M  V30 3563 H 331.992 -0.729575 -0.160405 0
M  V30 3564 H 334.654 -1.92606 0.298155 0
M  V30 3565 H 333.75 -3.02672 -0.761312 0
M  V30 3566 N 334.051 0.0651679 -1.57465 0
M  V30 3567 C 335.291 0.768329 -1.8941 0
M  V30 3568 C 335.655 1.74406 -0.802894 0
M  V30 3569 O 336.856 2.49281 -1.0056 0
M  V30 3570 C 335.127 1.45199 -3.26576 0
M  V30 3571 S 336.686 2.1893 -3.80283 0
M  V30 3572 H 333.504 0.255359 -0.663561 0
M  V30 3573 H 336.106 0.024167 -1.95485 0
M  V30 3574 H 334.81 0.728123 -4.03889 0
M  V30 3575 H 334.341 2.23545 -3.23715 0
M  V30 3576 H 336.356 3.45551 -3.56102 0
M  V30 3577 N 335.529 1.53961 0.336706 0
M  V30 3578 C 336.476 1.82428 1.41381 0
M  V30 3579 C 337.446 0.670444 1.51968 0
M  V30 3580 O 338.631 0.915565 1.67398 0
M  V30 3581 C 335.771 2.04564 2.77934 0
M  V30 3582 C 334.884 3.32267 2.76084 0
M  V30 3583 C 334.019 3.44434 4.04399 0
M  V30 3584 C 333.058 4.66061 3.96804 0
M  V30 3585 N 332.195 4.75224 5.16823 0
M  V30 3586 H 337.035 2.74324 1.16405 0
M  V30 3587 H 334.572 1.35869 0.563752 0
M  V30 3588 H 336.53 2.15388 3.57301 0
M  V30 3589 H 335.16 1.15974 3.01247 0
M  V30 3590 H 334.212 3.3025 1.88784 0
M  V30 3591 H 335.524 4.21733 2.66351 0
M  V30 3592 H 334.678 3.54728 4.92192 0
M  V30 3593 H 333.417 2.53037 4.16921 0
M  V30 3594 H 332.422 4.55838 3.07396 0
M  V30 3595 H 333.647 5.58829 3.85858 0
M  V30 3596 H 331.593 3.86739 5.29876 0
M  V30 3597 H 331.51 5.58636 5.09374 0
M  V30 3598 H 332.778 4.89835 6.06367 0
M  V30 3599 N 337.007 -0.598083 1.45811 0
M  V30 3600 C 338.418 -1.18011 1.44673 0
M  V30 3601 C 338.769 -1.95378 0.179364 0
M  V30 3602 O 337.894 -2.04124 -0.718509 0
M  V30 3603 C 338.489 -2.14677 2.62105 0
M  V30 3604 C 337.048 -2.68236 2.64057 0
M  V30 3605 C 336.195 -1.43816 2.37091 0
M  V30 3606 H 339.146 -0.38686 1.53913 0
M  V30 3607 H 339.167 -2.97878 2.36746 0
M  V30 3608 H 338.679 -1.5834 3.5433 0
M  V30 3609 H 336.78 -3.28486 1.75864 0
M  V30 3610 H 336.893 -3.12021 3.63566 0
M  V30 3611 H 335.257 -1.731 1.86838 0
M  V30 3612 H 336.04 -0.893333 3.31473 0
M  V30 3613 N 338.485 -1.33259 -0.841409 0
M  V30 3614 C 339.715 -1.2742 -1.62628 0
M  V30 3615 C 340.123 0.157604 -1.88542 0
M  V30 3616 O 339.466 1.10938 -1.46419 0
M  V30 3617 C 339.528 -1.97797 -3.00194 0
M  V30 3618 C 339.192 -3.47109 -2.97261 0
M  V30 3619 C 340.189 -4.42358 -2.73159 0
M  V30 3620 C 337.874 -3.89247 -3.17478 0
M  V30 3621 C 339.868 -5.77718 -2.69296 0
M  V30 3622 C 337.555 -5.24713 -3.13241 0
M  V30 3623 C 338.553 -6.1876 -2.89181 0
M  V30 3624 O 338.241 -7.51745 -2.84843 0
M  V30 3625 H 337.973 -0.440436 -0.512827 0
M  V30 3626 H 340.527 -1.76153 -1.05638 0
M  V30 3627 H 338.757 -1.43652 -3.59028 0
M  V30 3628 H 340.446 -1.8549 -3.61038 0
M  V30 3629 H 341.212 -4.11127 -2.57294 0
M  V30 3630 H 337.091 -3.16456 -3.35226 0
M  V30 3631 H 340.635 -6.51097 -2.50436 0
M  V30 3632 H 336.532 -5.55569 -3.28654 0
M  V30 3633 H 337.3 -7.61262 -3.00702 0
M  V30 3634 N 339.963 1.05934 -1.16686 0
M  V30 3635 C 340.896 2.1295 -0.820225 0
M  V30 3636 C 341.874 1.61242 0.209722 0
M  V30 3637 O 343.058 1.88271 0.0929688 0
M  V30 3638 C 340.185 3.3797 -0.22223 0
M  V30 3639 C 339.231 4.08488 -1.22637 0
M  V30 3640 S 340.064 4.58015 -2.77457 0
M  V30 3641 C 341.22 5.86292 -2.19117 0
M  V30 3642 H 341.453 2.42025 -1.72659 0
M  V30 3643 H 338.986 1.18423 -0.990722 0
M  V30 3644 H 340.944 4.10335 0.116322 0
M  V30 3645 H 339.605 3.07045 0.66196 0
M  V30 3646 H 338.798 4.98291 -0.756455 0
M  V30 3647 H 338.4 3.42154 -1.51019 0
M  V30 3648 H 340.692 6.59246 -1.56209 0
M  V30 3649 H 341.635 6.38019 -3.07144 0
M  V30 3650 H 342.043 5.40497 -1.62858 0
M  V30 3651 N 341.441 0.965919 1.2453 0
M  V30 3652 C 342.404 0.499547 2.2369 0
M  V30 3653 C 343.404 -0.40294 1.5567 0
M  V30 3654 O 344.594 -0.19865 1.73064 0
M  V30 3655 C 341.726 -0.276792 3.39774 0
M  V30 3656 H 342.919 1.37613 2.66463 0
M  V30 3657 H 340.472 0.750324 1.37112 0
M  V30 3658 H 341.207 -1.17055 3.02438 0
M  V30 3659 H 340.992 0.370826 3.90343 0
M  V30 3660 H 342.482 -0.592175 4.1338 0
M  V30 3661 N 342.919 -1.39368 0.735821 0
M  V30 3662 C 344.33 -1.83313 0.354015 0
M  V30 3663 C 344.681 -1.61461 -1.11466 0
M  V30 3664 O 343.806 -1.10621 -1.85989 0
M  V30 3665 C 344.401 -3.32781 0.635769 0
M  V30 3666 C 342.96 -3.75142 0.307448 0
M  V30 3667 C 342.107 -2.62358 0.897974 0
M  V30 3668 H 345.058 -1.28349 0.933398 0
M  V30 3669 H 345.079 -3.80388 -0.0921773 0
M  V30 3670 H 344.591 -3.48654 1.70476 0
M  V30 3671 H 342.692 -3.64857 -0.755674 0
M  V30 3672 H 342.805 -4.72532 0.790583 0
M  V30 3673 H 341.169 -2.52624 0.324551 0
M  V30 3674 H 341.952 -2.81036 1.97164 0
M  V30 3675 N 344.397 -0.483516 -1.5 0
M  V30 3676 C 345.307 0.309172 -2.32554 0
M  V30 3677 C 346.323 0.984159 -1.43493 0
M  V30 3678 O 347.499 0.969399 -1.76535 0
M  V30 3679 C 344.564 1.36979 -3.18493 0
M  V30 3680 C 343.625 0.710095 -4.23387 0
M  V30 3681 C 342.858 1.72018 -5.05218 0
M  V30 3682 O 343.081 2.94813 -4.88305 0
M  V30 3683 O 342.015 1.28515 -5.8802 0
M  V30 3684 H 345.841 -0.366064 -3.01486 0
M  V30 3685 H 343.426 -0.24514 -1.47375 0
M  V30 3686 H 345.308 1.98385 -3.71781 0
M  V30 3687 H 343.983 2.02828 -2.52275 0
M  V30 3688 H 342.89 0.0567539 -3.74057 0
M  V30 3689 H 344.223 0.0943557 -4.9211 0
M  V30 3690 N 345.875 1.56104 -0.216619 0
M  V30 3691 C 347.291 1.58995 0.13886 0
M  V30 3692 C 347.491 1.23333 1.59346 0
M  V30 3693 O 346.547 0.966234 2.33281 0
M  V30 3694 C 347.86 3.00143 -0.182968 0
M  V30 3695 C 349.408 3.12751 -0.124807 0
M  V30 3696 C 349.883 4.56068 -0.420241 0
M  V30 3697 N 351.374 4.61723 -0.369634 0
M  V30 3698 C 352.109 5.70542 -0.571789 0
M  V30 3699 N 351.605 6.87744 -0.835453 0
M  V30 3700 N 353.398 5.59831 -0.504563 0
M  V30 3701 H 345.549 1.77562 -1.16557 0
M  V30 3702 H 347.812 0.825091 -0.466828 0
M  V30 3703 H 347.518 3.30871 -1.19237 0
M  V30 3704 H 347.392 3.73813 0.504367 0
M  V30 3705 H 349.779 2.81822 0.875223 0
M  V30 3706 H 349.86 2.41421 -0.845544 0
M  V30 3707 H 349.504 4.87713 -1.41769 0
M  V30 3708 H 349.434 5.25617 0.321631 0
M  V30 3709 H 351.925 3.77502 -0.173338 0
M  V30 3710 H 352.238 7.66587 -0.977938 0
M  V30 3711 H 350.583 6.895 -0.872592 0
M  V30 3712 H 353.774 4.67145 -0.298842 0
M  V30 3713 H 353.947 6.44573 -0.665519 0
M  V30 3714 N 347.353 -0.0568162 1.57498 0
M  V30 3715 C 348.602 -0.752001 1.87157 0
M  V30 3716 C 348.915 -1.77978 0.811375 0
M  V30 3717 O 350.121 -2.52559 0.996293 0
M  V30 3718 C 348.577 -1.38844 3.3204 0
M  V30 3719 C 348.185 -0.398456 4.46225 0
M  V30 3720 C 349.929 -2.06512 3.70882 0
M  V30 3721 C 347.836 -1.04166 5.82154 0
M  V30 3722 H 346.766 -0.28461 0.698222 0
M  V30 3723 H 349.417 -0.00561272 1.83499 0
M  V30 3724 H 347.799 -2.1836 3.30356 0
M  V30 3725 H 348.973 0.367977 4.59328 0
M  V30 3726 H 347.288 0.174592 4.16034 0
M  V30 3727 H 349.885 -2.55437 4.6974 0
M  V30 3728 H 350.228 -2.87117 3.01445 0
M  V30 3729 H 350.761 -1.33808 3.7462 0
M  V30 3730 H 347.5 -0.275614 6.5492 0
M  V30 3731 H 347.02 -1.7786 5.72823 0
M  V30 3732 H 348.699 -1.55715 6.27982 0
M  V30 3733 N 348.832 -1.54138 -0.328536 0
M  V30 3734 C 349.78 -1.83894 -1.42428 0
M  V30 3735 C 350.774 -0.710478 -1.53781 0
M  V30 3736 O 351.98 -0.894062 -1.56226 0
M  V30 3737 H 348.355 -0.582837 -0.475189 0
M  V30 3738 H 350.326 -2.75537 -1.14552 0
M  V30 3739 C 349.075 -2.07866 -2.78724 0
M  V30 3740 H 348.398 -2.94158 -2.7076 0
M  V30 3741 H 349.838 -2.32644 -3.54476 0
M  V30 3742 C 348.297 -0.868689 -3.25508 0
M  V30 3743 O 348.827 -0.0754908 -4.01629 0
M  V30 3744 N 347.033 -0.681711 -2.82491 0
M  V30 3745 H 346.58 -1.32838 -2.20708 0
M  V30 3746 H 346.538 0.126374 -3.14146 0
M  V30 3747 N 350.31 0.590341 -1.46126 0
M  V30 3748 C 351.721 1.17243 -1.45296 0
M  V30 3749 C 352.072 1.95281 -0.189723 0
M  V30 3750 O 351.197 2.04502 0.707674 0
M  V30 3751 C 351.792 2.13284 -2.6324 0
M  V30 3752 C 350.351 2.66832 -2.65476 0
M  V30 3753 C 349.498 1.42557 -2.3785 0
M  V30 3754 H 352.449 0.378692 -1.54116 0
M  V30 3755 H 352.47 2.96619 -2.38323 0
M  V30 3756 H 351.982 1.56459 -3.55165 0
M  V30 3757 H 350.083 3.27548 -1.77603 0
M  V30 3758 H 350.196 3.10088 -3.65215 0
M  V30 3759 H 348.56 1.72107 -1.87753 0
M  V30 3760 H 349.343 0.875741 -3.31942 0
M  V30 3761 N 351.788 1.33704 0.83433 0
M  V30 3762 C 352.698 1.26382 1.97648 0
M  V30 3763 C 353.714 0.173548 1.73132 0
M  V30 3764 O 354.89 0.397962 1.97429 0
M  V30 3765 C 351.955 1.00769 3.31733 0
M  V30 3766 C 351.016 2.1884 3.69334 0
M  V30 3767 C 350.249 1.9444 4.9702 0
M  V30 3768 O 350.472 0.896961 5.63303 0
M  V30 3769 O 349.406 2.81093 5.32231 0
M  V30 3770 H 353.232 2.22444 2.06767 0
M  V30 3771 H 350.817 1.13795 0.968037 0
M  V30 3772 H 352.699 0.882186 4.12062 0
M  V30 3773 H 351.374 0.0773783 3.23608 0
M  V30 3774 H 350.281 2.36946 2.89495 0
M  V30 3775 H 351.614 3.10221 3.82131 0
M  V30 3776 N 353.266 -1.05314 1.17247 0
M  V30 3777 C 354.196 -2.1498 0.911362 0
M  V30 3778 C 355.177 -1.69471 -0.146169 0
M  V30 3779 O 356.362 -1.942 0.003812 0
M  V30 3780 C 353.492 -3.4472 0.422528 0
M  V30 3781 C 352.446 -4.03789 1.4191 0
M  V30 3782 C 351.772 -5.28858 0.788274 0
M  V30 3783 C 353.072 -4.41418 2.7919 0
M  V30 3784 H 354.766 -2.3708 1.82848 0
M  V30 3785 H 352.312 -1.13938 0.880569 0
M  V30 3786 H 354.265 -4.20787 0.227289 0
M  V30 3787 H 352.989 -3.22269 -0.530123 0
M  V30 3788 H 351.648 -3.2979 1.60106 0
M  V30 3789 H 351.296 -5.02709 -0.171173 0
M  V30 3790 H 350.996 -5.69338 1.45353 0
M  V30 3791 H 352.52 -6.07612 0.603282 0
M  V30 3792 H 353.934 -5.08524 2.64719 0
M  V30 3793 H 352.331 -4.92913 3.42282 0
M  V30 3794 H 353.401 -3.51819 3.33693 0
M  V30 3795 N 354.744 -0.972509 -1.24016 0
M  V30 3796 C 355.692 -0.498562 -2.27194 0
M  V30 3797 C 356.686 0.440372 -1.63576 0
M  V30 3798 O 357.892 0.315133 -1.7722 0
M  V30 3799 H 354.267 -0.142775 -0.738322 0
M  V30 3800 H 356.238 -1.38065 -2.64539 0
M  V30 3801 C 354.987 0.191072 -3.47175 0
M  V30 3802 H 354.31 -0.522318 -3.96373 0
M  V30 3803 H 355.75 0.486445 -4.212 0
M  V30 3804 C 354.209 1.41967 -3.05527 0
M  V30 3805 O 354.739 2.51642 -3.13112 0
M  V30 3806 N 352.945 1.28746 -2.60524 0
M  V30 3807 H 352.492 0.395089 -2.54552 0
M  V30 3808 H 352.45 2.11061 -2.33025 0
M  V30 3809 N 356.222 1.38976 -0.743202 0
M  V30 3810 C 357.154 2.29096 -0.0689228 0
M  V30 3811 C 358.167 1.47229 0.694791 0
M  V30 3812 O 359.356 1.70212 0.537597 0
M  V30 3813 C 356.456 3.25988 0.926548 0
M  V30 3814 C 355.629 4.36833 0.222647 0
M  V30 3815 C 354.688 5.13981 1.12739 0
M  V30 3816 O 353.714 5.6601 0.601795 0
M  V30 3817 N 354.916 5.25966 2.45641 0
M  V30 3818 H 357.681 2.87604 -0.842846 0
M  V30 3819 H 355.242 1.50645 -0.593109 0
M  V30 3820 H 357.234 3.74476 1.5346 0
M  V30 3821 H 355.804 2.68453 1.60162 0
M  V30 3822 H 355.024 3.90116 -0.565983 0
M  V30 3823 H 356.312 5.0811 -0.264841 0
M  V30 3824 H 355.71 4.85228 2.9081 0
M  V30 3825 H 354.267 5.77865 3.01522 0
M  V30 3826 N 357.7 0.491464 1.49741 0
M  V30 3827 C 358.647 -0.292027 2.28945 0
M  V30 3828 C 359.617 -0.968973 1.34908 0
M  V30 3829 O 360.802 -0.97748 1.6386 0
M  V30 3830 C 357.942 -1.35617 3.17336 0
M  V30 3831 C 357.055 -0.691957 4.26422 0
M  V30 3832 C 356.19 -1.73572 5.02042 0
M  V30 3833 C 355.229 -1.05286 6.02977 0
M  V30 3834 N 354.366 -2.0404 6.71798 0
M  V30 3835 H 359.206 0.389654 2.95442 0
M  V30 3836 H 356.743 0.204003 1.45679 0
M  V30 3837 H 358.701 -1.98502 3.66951 0
M  V30 3838 H 357.331 -2.00674 2.52844 0
M  V30 3839 H 356.383 0.0499523 3.80367 0
M  V30 3840 H 357.695 -0.153946 4.98562 0
M  V30 3841 H 356.849 -2.43987 5.55478 0
M  V30 3842 H 355.588 -2.30757 4.29654 0
M  V30 3843 H 354.593 -0.334446 5.48782 0
M  V30 3844 H 355.818 -0.487636 6.77347 0
M  V30 3845 H 353.764 -2.60205 6.02187 0
M  V30 3846 H 353.681 -1.55279 7.39881 0
M  V30 3847 H 354.949 -2.73772 7.29842 0
M  V30 3848 N 359.178 -1.55987 0.224894 0
M  V30 3849 C 360.426 -1.97998 -0.405099 0
M  V30 3850 C 360.747 -1.11387 -1.60056 0
M  V30 3851 O 360.017 -0.191645 -1.9496 0
M  V30 3852 H 358.597 -0.731235 -0.152658 0
M  V30 3853 H 361.259 -1.92279 0.318567 0
M  V30 3854 H 360.355 -3.03463 -0.729167 0
M  V30 3855 N 360.656 0.0484629 -1.57525 0
M  V30 3856 C 361.886 0.754326 -1.92337 0
M  V30 3857 C 362.294 1.70443 -0.82132 0
M  V30 3858 O 361.637 1.82466 0.21254 0
M  V30 3859 C 361.699 1.58231 -3.22805 0
M  V30 3860 C 361.363 0.799074 -4.4996 0
M  V30 3861 C 362.36 0.1079 -5.19788 0
M  V30 3862 C 360.045 0.759345 -4.96527 0
M  V30 3863 C 362.039 -0.612516 -6.3445 0
M  V30 3864 C 359.726 0.0351713 -6.1109 0
M  V30 3865 C 360.724 -0.649537 -6.79904 0
M  V30 3866 O 360.412 -1.36199 -7.92278 0
M  V30 3867 H 360.144 0.218257 -0.639797 0
M  V30 3868 H 362.698 0.0159295 -2.05394 0
M  V30 3869 H 360.928 2.36406 -3.06021 0
M  V30 3870 H 362.617 2.16898 -3.43089 0
M  V30 3871 H 363.383 0.129748 -4.84826 0
M  V30 3872 H 359.262 1.28177 -4.42822 0
M  V30 3873 H 362.806 -1.14751 -6.88097 0
M  V30 3874 H 358.703 0.0113314 -6.45499 0
M  V30 3875 H 359.471 -1.27366 -8.0853 0
M  V30 3876 N 362.134 1.5431 0.320358 0
M  V30 3877 C 363.082 1.84647 1.4145 0
M  V30 3878 C 364.076 0.718624 1.53402 0
M  V30 3879 O 365.282 0.902335 1.5575 0
M  V30 3880 H 361.657 0.585349 0.472091 0
M  V30 3881 H 363.628 2.7614 1.13089 0
M  V30 3882 C 362.377 2.09341 2.77617 0
M  V30 3883 H 361.7 2.9559 2.69196 0
M  V30 3884 H 363.14 2.3452 3.53237 0
M  V30 3885 C 361.599 0.885939 3.25043 0
M  V30 3886 O 362.129 0.0967891 4.01583 0
M  V30 3887 N 360.335 0.696682 2.82125 0
M  V30 3888 H 359.882 1.34006 2.2 0
M  V30 3889 H 359.84 -0.109712 3.14209 0
M  V30 3890 N 363.613 -0.582584 1.46437 0
M  V30 3891 C 364.859 -1.34278 1.51978 0
M  V30 3892 C 365.192 -1.93446 0.170973 0
M  V30 3893 O 364.467 -1.76481 -0.817608 0
M  V30 3894 C 364.75 -2.47203 2.61845 0
M  V30 3895 C 364.603 -1.93069 4.06257 0
M  V30 3896 C 365.922 -3.49247 2.67795 0
M  V30 3897 H 363.041 -0.486876 0.553282 0
M  V30 3898 H 365.683 -0.654437 1.78374 0
M  V30 3899 H 363.833 -3.0592 2.39469 0
M  V30 3900 H 365.505 -1.38808 4.3992 0
M  V30 3901 H 363.748 -1.23898 4.1573 0
M  V30 3902 H 364.419 -2.74586 4.7886 0
M  V30 3903 H 366.895 -3.00411 2.8791 0
M  V30 3904 H 365.771 -4.25719 3.46489 0
M  V30 3905 H 366.032 -4.06482 1.73852 0
M  V30 3906 N 365.091 -1.34144 -0.827227 0
M  V30 3907 C 366.038 -1.25364 -1.93785 0
M  V30 3908 C 367.008 -0.129774 -1.65592 0
M  V30 3909 O 368.193 -0.310024 -1.88264 0
M  V30 3910 C 365.333 -1.01064 -3.2997 0
M  V30 3911 C 364.446 -2.22185 -3.70484 0
M  V30 3912 C 363.581 -1.91203 -4.95595 0
M  V30 3913 C 362.62 -3.08491 -5.28677 0
M  V30 3914 N 361.757 -2.77421 -6.44967 0
M  V30 3915 H 366.597 -2.20347 -2.00627 0
M  V30 3916 H 364.134 -1.09558 -0.981608 0
M  V30 3917 H 366.092 -0.850139 -4.08446 0
M  V30 3918 H 364.722 -0.0975026 -3.22653 0
M  V30 3919 H 363.774 -2.4917 -2.87434 0
M  V30 3920 H 365.086 -3.0983 -3.90905 0
M  V30 3921 H 364.24 -1.71864 -5.81848 0
M  V30 3922 H 362.979 -1.00812 -4.77167 0
M  V30 3923 H 361.984 -3.28431 -4.40923 0
M  V30 3924 H 363.209 -3.99655 -5.49047 0
M  V30 3925 H 361.155 -1.89601 -6.28003 0
M  V30 3926 H 361.072 -3.58598 -6.6554 0
M  V30 3927 H 362.34 -2.61577 -7.34301 0
M  V30 3928 N 366.569 1.04691 -1.17803 0
M  V30 3929 C 367.794 1.81984 -0.994813 0
M  V30 3930 C 368.219 1.82586 0.452112 0
M  V30 3931 O 367.577 1.23854 1.324 0
M  V30 3932 C 367.625 3.2575 -1.54659 0
M  V30 3933 O 366.729 4.05267 -0.763728 0
M  V30 3934 H 366.07 0.562483 -0.352857 0
M  V30 3935 H 368.6 1.3189 -1.56417 0
M  V30 3936 H 368.61 3.76541 -1.57102 0
M  V30 3937 H 367.285 3.24627 -2.59981 0
M  V30 3938 H 365.862 3.63972 -0.811108 0
M  V30 3939 N 368.047 0.979072 1.23499 0
M  V30 3940 C 369.324 0.563674 1.87302 0
M  V30 3941 C 369.704 -0.959199 1.88049 0
M  V30 3942 O 369.052 -1.83535 1.36114 0
M  V30 3943 C 369.262 1.16822 3.28867 0
M  V30 3944 C 370.61 1.26014 4.0547 0
M  V30 3945 O 371.634 1.12158 3.38082 0
M  V30 3946 O 370.493 1.48044 5.26066 0
M  V30 3947 H 367.587 0.189602 0.804972 0
M  V30 3948 H 370.133 1.07407 1.31384 0
M  V30 3949 H 368.905 2.21049 3.22883 0
M  V30 3950 H 368.528 0.642564 3.92373 0
M  V30 3951 N 369.525 -1.3858 0.750561 0
M  V30 3952 C 370.771 -2.00481 0.305825 0
M  V30 3953 C 371.104 -1.5944 -1.10872 0
M  V30 3954 O 370.379 -0.83052 -1.75877 0
M  V30 3955 C 370.662 -3.5758 0.425287 0
M  V30 3956 C 370.515 -4.08594 1.88072 0
M  V30 3957 C 371.834 -4.39719 -0.183122 0
M  V30 3958 H 368.953 -0.728348 0.112598 0
M  V30 3959 H 371.595 -1.64566 0.949638 0
M  V30 3960 H 369.745 -3.88306 -0.122828 0
M  V30 3961 H 371.417 -3.88523 2.48691 0
M  V30 3962 H 369.66 -3.61574 2.39681 0
M  V30 3963 H 370.331 -5.177 1.91548 0
M  V30 3964 H 372.807 -4.15128 0.284303 0
M  V30 3965 H 371.683 -5.48856 -0.0692757 0
M  V30 3966 H 371.944 -4.23434 -1.27106 0
M  V30 3967 N 371.003 -0.499398 -1.49478 0
M  V30 3968 C 372.249 0.0377587 -2.03365 0
M  V30 3969 C 372.604 1.3484 -1.37244 0
M  V30 3970 O 371.897 1.85 -0.498547 0
M  V30 3971 C 372.091 0.248424 -3.56536 0
M  V30 3972 C 371.92 -1.04025 -4.37503 0
M  V30 3973 C 370.69 -1.59159 -4.79579 0
M  V30 3974 C 372.888 -1.9431 -4.76181 0
M  V30 3975 N 370.87 -2.82634 -5.44969 0
M  V30 3976 C 372.241 -3.02364 -5.41272 0
M  V30 3977 C 374.296 -1.95008 -4.58123 0
M  V30 3978 C 372.999 -4.1114 -5.90217 0
M  V30 3979 C 375.025 -3.02758 -5.08027 0
M  V30 3980 C 374.387 -4.09531 -5.73118 0
M  V30 3981 H 370.486 -0.026923 -0.781536 0
M  V30 3982 H 373.07 -0.673901 -1.82665 0
M  V30 3983 H 371.241 0.929139 -3.77123 0
M  V30 3984 H 372.973 0.782445 -3.97064 0
M  V30 3985 H 369.728 -1.13696 -4.5975 0
M  V30 3986 H 370.152 -3.45416 -5.82252 0
M  V30 3987 H 374.794 -1.13766 -4.07207 0
M  V30 3988 H 372.512 -4.93181 -6.40155 0
M  V30 3989 H 376.098 -3.04315 -4.95866 0
M  V30 3990 H 374.978 -4.91534 -6.11035 0
M  V30 3991 N 372.481 1.55866 -0.233164 0
M  V30 3992 C 373.706 2.03449 0.402906 0
M  V30 3993 C 374.131 1.11166 1.51736 0
M  V30 3994 O 373.489 0.101996 1.81013 0
M  V30 3995 C 373.537 3.49165 0.9009 0
M  V30 3996 O 372.641 3.60019 2.01147 0
M  V30 3997 H 371.982 0.657913 0.0897025 0
M  V30 3998 H 374.512 2.01493 -0.355201 0
M  V30 3999 H 374.522 3.89716 1.2077 0
M  V30 4000 H 373.197 4.15813 0.0852889 0
M  V30 4001 H 371.774 3.3136 1.71042 0
M  V30 4002 N 373.959 -0.0401083 1.57549 0
M  V30 4003 C 374.889 -1.04384 2.08869 0
M  V30 4004 C 375.87 -1.38407 0.988817 0
M  V30 4005 O 377.055 -1.47483 1.26342 0
M  V30 4006 C 374.185 -2.34808 2.55895 0
M  V30 4007 C 373.139 -2.15057 3.70047 0
M  V30 4008 C 372.465 -3.51145 4.03239 0
M  V30 4009 C 373.765 -1.54576 4.98902 0
M  V30 4010 H 375.459 -0.616666 2.92981 0
M  V30 4011 H 373.005 -0.295184 1.40942 0
M  V30 4012 H 374.958 -3.05346 2.90417 0
M  V30 4013 H 373.682 -2.79565 1.68853 0
M  V30 4014 H 372.341 -1.46954 3.35857 0
M  V30 4015 H 371.989 -3.93529 3.13279 0
M  V30 4016 H 371.689 -3.38758 4.80122 0
M  V30 4017 H 373.213 -4.23062 4.40285 0
M  V30 4018 H 374.627 -2.15017 5.31451 0
M  V30 4019 H 373.024 -1.52796 5.80322 0
M  V30 4020 H 374.094 -0.51039 4.82206 0
M  V30 4021 N 375.437 -1.54477 -0.31217 0
M  V30 4022 C 376.685 -1.72884 -1.04668 0
M  V30 4023 C 377.006 -0.511477 -1.88173 0
M  V30 4024 O 376.276 0.474407 -1.90069 0
M  V30 4025 H 374.856 -0.637461 -0.389425 0
M  V30 4026 H 377.518 -1.91807 -0.345852 0
M  V30 4027 H 376.614 -2.61334 -1.70619 0
M  V30 4028 N 376.915 0.57481 -1.46744 0
M  V30 4029 C 378.164 1.32898 -1.51727 0
M  V30 4030 C 378.477 1.948 -0.176692 0
M  V30 4031 O 379.683 2.71299 -0.104385 0
M  V30 4032 C 378.139 2.40901 -2.67385 0
M  V30 4033 C 377.747 1.85266 -4.07898 0
M  V30 4034 C 379.491 3.17609 -2.81646 0
M  V30 4035 C 377.398 2.90945 -5.14883 0
M  V30 4036 H 376.328 0.499631 -0.564699 0
M  V30 4037 H 378.979 0.612536 -1.72975 0
M  V30 4038 H 377.361 3.15379 -2.39483 0
M  V30 4039 H 378.535 1.17278 -4.45626 0
M  V30 4040 H 376.85 1.21199 -3.98371 0
M  V30 4041 H 379.447 3.96493 -3.58744 0
M  V30 4042 H 379.79 3.70696 -1.89448 0
M  V30 4043 H 380.323 2.50239 -3.09233 0
M  V30 4044 H 377.062 2.42736 -6.089 0
M  V30 4045 H 376.582 3.57398 -4.81691 0
M  V30 4046 H 378.261 3.54755 -5.41071 0
M  V30 4047 N 378.394 1.34581 0.820102 0
M  V30 4048 C 379.622 1.3018 1.60813 0
M  V30 4049 C 380.037 -0.123551 1.88395 0
M  V30 4050 O 379.394 -1.07148 1.47735 0
M  V30 4051 C 379.445 2.09312 2.94739 0
M  V30 4052 O 379.166 3.46288 2.68358 0
M  V30 4053 C 380.667 2.1234 3.89136 0
M  V30 4054 H 377.887 0.447726 0.499782 0
M  V30 4055 H 380.431 1.77237 1.02017 0
M  V30 4056 H 378.586 1.65889 3.50085 0
M  V30 4057 H 379 3.87227 3.53774 0
M  V30 4058 H 380.474 2.72126 4.80262 0
M  V30 4059 H 380.951 1.11854 4.24718 0
M  V30 4060 H 381.557 2.55864 3.39726 0
M  V30 4061 N 379.872 -1.04064 1.18357 0
M  V30 4062 C 380.805 -2.11618 0.854 0
M  V30 4063 C 381.783 -1.61555 -0.184043 0
M  V30 4064 O 382.967 -1.88395 -0.0630048 0
M  V30 4065 C 380.094 -3.37574 0.27597 0
M  V30 4066 C 379.14 -4.06485 1.2912 0
M  V30 4067 S 379.973 -4.53543 2.84709 0
M  V30 4068 C 381.129 -5.82732 2.28417 0
M  V30 4069 H 381.362 -2.39247 1.76488 0
M  V30 4070 H 378.895 -1.16832 1.00944 0
M  V30 4071 H 380.853 -4.10468 -0.051026 0
M  V30 4072 H 379.514 -3.0806 -0.613028 0
M  V30 4073 H 378.707 -4.97024 0.835633 0
M  V30 4074 H 378.309 -3.39708 1.56443 0
M  V30 4075 H 380.601 -6.56677 1.66677 0
M  V30 4076 H 381.544 -6.33052 3.17256 0
M  V30 4077 H 381.952 -5.37838 1.71436 0
M  V30 4078 N 381.35 -0.985608 -1.22978 0
M  V30 4079 C 382.599 -0.652881 -1.90841 0
M  V30 4080 C 382.912 0.817842 -1.77681 0
M  V30 4081 O 384.118 1.26185 -2.40395 0
M  V30 4082 C 382.574 -1.11717 -3.42122 0
M  V30 4083 C 382.182 -2.6126 -3.63933 0
M  V30 4084 C 383.926 -0.85843 -4.1573 0
M  V30 4085 C 381.833 -3.0133 -5.08876 0
M  V30 4086 H 380.763 -0.240491 -0.714619 0
M  V30 4087 H 383.414 -1.1942 -1.39324 0
M  V30 4088 H 381.796 -0.504027 -3.92779 0
M  V30 4089 H 382.97 -3.27858 -3.23799 0
M  V30 4090 H 381.285 -2.84937 -3.03644 0
M  V30 4091 H 383.882 -1.13359 -5.22546 0
M  V30 4092 H 384.225 0.205461 -4.15793 0
M  V30 4093 H 384.758 -1.43341 -3.71077 0
M  V30 4094 H 381.497 -4.06864 -5.13947 0
M  V30 4095 H 381.017 -2.3943 -5.49939 0
M  V30 4096 H 382.696 -2.92224 -5.77247 0
M  V30 4097 N 382.828 1.3818 -0.7579 0
M  V30 4098 C 383.738 2.3421 -0.135247 0
M  V30 4099 C 384.754 1.59487 0.695683 0
M  V30 4100 O 385.93 1.91657 0.618832 0
M  V30 4101 C 382.995 3.3862 0.744139 0
M  V30 4102 C 382.056 4.2918 -0.101658 0
M  V30 4103 C 381.289 5.28603 0.735851 0
M  V30 4104 O 381.512 5.35166 1.97366 0
M  V30 4105 O 380.446 6.01707 0.152372 0
M  V30 4106 H 384.272 2.8916 -0.928436 0
M  V30 4107 H 381.857 1.40101 -0.518855 0
M  V30 4108 H 383.739 4.02539 1.2466 0
M  V30 4109 H 382.414 2.86019 1.51575 0
M  V30 4110 H 381.321 3.68407 -0.650167 0
M  V30 4111 H 382.654 4.85048 -0.836024 0
M  V30 4112 N 384.306 0.507319 1.49211 0
M  V30 4113 C 385.239 -0.314509 2.26022 0
M  V30 4114 C 386.217 -0.964849 1.30879 0
M  V30 4115 O 387.401 -0.993707 1.6018 0
M  V30 4116 C 384.528 -1.44346 3.06402 0
M  V30 4117 C 383.574 -0.90685 4.16748 0
M  V30 4118 S 384.407 0.207392 5.35098 0
M  V30 4119 C 385.563 -0.924573 6.19033 0
M  V30 4120 H 385.796 0.337416 2.95379 0
M  V30 4121 H 383.329 0.292718 1.516 0
M  V30 4122 H 385.287 -2.09029 3.53295 0
M  V30 4123 H 383.948 -2.06702 2.36502 0
M  V30 4124 H 383.141 -1.75309 4.72528 0
M  V30 4125 H 382.743 -0.33712 3.72478 0
M  V30 4126 H 385.035 -1.82839 6.52362 0
M  V30 4127 H 385.978 -0.405248 7.06939 0
M  V30 4128 H 386.386 -1.19476 5.51712 0
M  V30 4129 N 385.784 -1.5574 0.241426 0
M  V30 4130 C 386.747 -2.19877 -0.647063 0
M  V30 4131 C 387.747 -1.16642 -1.10686 0
M  V30 4132 O 388.937 -1.41757 -1.01245 0
M  V30 4133 C 386.069 -2.83797 -1.88871 0
M  V30 4134 H 387.262 -2.99772 -0.087574 0
M  V30 4135 H 384.815 -1.56298 -0.00813574 0
M  V30 4136 H 385.55 -2.07824 -2.48957 0
M  V30 4137 H 385.335 -3.59414 -1.56728 0
M  V30 4138 H 386.825 -3.32898 -2.52129 0
M  V30 4139 N 387.262 0.0317525 -1.57568 0
M  V30 4140 C 388.511 0.722131 -1.8833 0
M  V30 4141 C 388.824 1.76664 -0.839587 0
M  V30 4142 O 390.03 2.50942 -1.03635 0
M  V30 4143 C 388.486 1.33544 -3.34207 0
M  V30 4144 C 388.094 0.327415 -4.46802 0
M  V30 4145 C 389.838 2.00585 -3.7412 0
M  V30 4146 C 387.745 0.948915 -5.83738 0
M  V30 4147 H 386.675 0.273466 -0.702661 0
M  V30 4148 H 389.326 -0.0235811 -1.83485 0
M  V30 4149 H 387.708 2.13077 -3.33788 0
M  V30 4150 H 388.882 -0.441006 -4.58685 0
M  V30 4151 H 387.197 -0.240758 -4.15703 0
M  V30 4152 H 389.794 2.47932 -4.73744 0
M  V30 4153 H 390.137 2.82285 -3.05975 0
M  V30 4154 H 390.67 1.27831 -3.76702 0
M  V30 4155 H 387.409 0.171387 -6.55276 0
M  V30 4156 H 386.929 1.68724 -5.7558 0
M  V30 4157 H 388.608 1.45705 -6.3038 0
M  V30 4158 N 388.74 1.54641 0.303973 0
M  V30 4159 C 389.67 1.88386 1.3796 0
M  V30 4160 C 390.651 0.742485 1.5304 0
M  V30 4161 O 391.836 0.997959 1.66597 0
M  V30 4162 C 388.966 2.12854 2.74427 0
M  V30 4163 C 387.92 3.28702 2.74115 0
M  V30 4164 C 387.246 3.38582 4.13844 0
M  V30 4165 C 388.546 4.65881 2.3612 0
M  V30 4166 H 390.24 2.78474 1.09966 0
M  V30 4167 H 387.786 1.33988 0.527556 0
M  V30 4168 H 389.739 2.35047 3.49758 0
M  V30 4169 H 388.463 1.19535 3.03939 0
M  V30 4170 H 387.122 3.06428 2.0124 0
M  V30 4171 H 386.77 2.42784 4.40528 0
M  V30 4172 H 386.47 4.16453 4.14537 0
M  V30 4173 H 387.994 3.63031 4.90959 0
M  V30 4174 H 389.408 4.87823 3.01167 0
M  V30 4175 H 387.805 5.46444 2.48031 0
M  V30 4176 H 388.875 4.66799 1.3125 0
M  V30 4177 N 390.218 -0.567019 1.47046 0
M  V30 4178 C 391.634 -0.891975 1.32348 0
M  V30 4179 C 391.834 -1.99154 0.306616 0
M  V30 4180 O 390.89 -2.50883 -0.28532 0
M  V30 4181 C 392.203 -1.29449 2.7141 0
M  V30 4182 C 393.751 -1.40646 2.79621 0
M  V30 4183 C 394.226 -1.84257 4.19301 0
M  V30 4184 N 395.717 -1.91424 4.21795 0
M  V30 4185 C 396.452 -2.26476 5.26779 0
M  V30 4186 N 395.948 -2.60211 6.42077 0
M  V30 4187 N 397.741 -2.27166 5.14152 0
M  V30 4188 H 389.892 0.159074 2.11803 0
M  V30 4189 H 392.155 0.00849752 0.947962 0
M  V30 4190 H 391.861 -0.560448 3.47206 0
M  V30 4191 H 391.735 -2.25273 3.02542 0
M  V30 4192 H 394.122 -2.13133 2.04104 0
M  V30 4193 H 394.203 -0.430339 2.52154 0
M  V30 4194 H 393.847 -1.12343 4.95319 0
M  V30 4195 H 393.777 -2.82855 4.44185 0
M  V30 4196 H 396.268 -1.6778 3.38612 0
M  V30 4197 H 396.581 -2.85956 7.17948 0
M  V30 4198 H 394.926 -2.57813 6.45413 0
M  V30 4199 H 398.117 -2.00244 4.23107 0
M  V30 4200 H 398.29 -2.54154 5.96079 0
M  V30 4201 N 391.696 -1.35014 -0.812953 0
M  V30 4202 C 392.943 -1.27931 -1.56971 0
M  V30 4203 C 393.271 0.148034 -1.93936 0
M  V30 4204 O 392.526 1.11175 -1.61054 0
M  V30 4205 C 392.825 -2.12524 -2.87347 0
M  V30 4206 C 392.491 -3.61401 -2.6963 0
M  V30 4207 C 391.153 -4.01983 -2.64506 0
M  V30 4208 C 393.505 -4.55894 -2.52607 0
M  V30 4209 C 390.833 -5.35235 -2.40293 0
M  V30 4210 C 393.185 -5.89336 -2.29925 0
M  V30 4211 C 391.849 -6.2907 -2.23219 0
M  V30 4212 H 391.119 -0.468131 -0.574399 0
M  V30 4213 H 393.766 -1.66851 -0.939836 0
M  V30 4214 H 392.071 -1.66463 -3.54679 0
M  V30 4215 H 393.768 -2.04383 -3.45005 0
M  V30 4216 H 390.358 -3.29193 -2.74463 0
M  V30 4217 H 394.542 -4.25431 -2.55583 0
M  V30 4218 H 389.798 -5.65028 -2.33566 0
M  V30 4219 H 393.972 -6.62139 -2.15743 0
M  V30 4220 H 391.599 -7.32256 -2.04219 0
M  V30 4221 N 393.175 1.03435 -1.18907 0
M  V30 4222 C 394.586 1.58195 -0.991523 0
M  V30 4223 C 394.937 1.90801 0.457081 0
M  V30 4224 O 394.062 1.70272 1.33553 0
M  V30 4225 C 394.657 2.87432 -1.79355 0
M  V30 4226 C 393.216 3.38785 -1.64017 0
M  V30 4227 C 392.363 2.12292 -1.78402 0
M  V30 4228 H 395.314 0.860299 -1.33359 0
M  V30 4229 H 395.335 3.58096 -1.28638 0
M  V30 4230 H 394.847 2.63669 -2.84781 0
M  V30 4231 H 392.948 3.67547 -0.611536 0
M  V30 4232 H 393.061 4.12186 -2.44212 0
M  V30 4233 H 391.425 2.23901 -1.2141 0
M  V30 4234 H 392.208 1.90977 -2.85277 0
M  V30 4235 N 394.653 0.992116 1.22453 0
M  V30 4236 C 395.883 0.684949 1.94915 0
M  V30 4237 C 396.291 -0.754292 1.73514 0
M  V30 4238 O 395.634 -1.52056 1.03076 0
M  V30 4239 C 395.696 0.910054 3.47791 0
M  V30 4240 C 395.36 2.33363 3.92926 0
M  V30 4241 C 396.357 3.31308 4.00663 0
M  V30 4242 C 394.042 2.66785 4.25595 0
M  V30 4243 C 396.036 4.6075 4.40441 0
M  V30 4244 C 393.723 3.96446 4.65053 0
M  V30 4245 C 394.721 4.9324 4.72444 0
M  V30 4246 O 394.409 6.20584 5.1101 0
M  V30 4247 H 394.141 0.25258 0.62704 0
M  V30 4248 H 396.695 1.32939 1.56577 0
M  V30 4249 H 394.925 0.208443 3.86138 0
M  V30 4250 H 396.614 0.598257 4.01467 0
M  V30 4251 H 397.38 3.0682 3.75615 0
M  V30 4252 H 393.259 1.92148 4.19047 0
M  V30 4253 H 396.803 5.363 4.46126 0
M  V30 4254 H 392.7 4.20724 4.89552 0
M  V30 4255 H 393.468 6.24509 5.29085 0
M  V30 4256 N 396.131 -1.37776 0.765217 0
M  V30 4257 C 397.041 -2.34135 0.147666 0
M  V30 4258 C 398.057 -1.59854 -0.687215 0
M  V30 4259 O 399.233 -1.91983 -0.608659 0
M  V30 4260 C 396.298 -3.3901 -0.72617 0
M  V30 4261 C 395.359 -4.2912 0.124417 0
M  V30 4262 C 394.592 -5.28986 -0.707807 0
M  V30 4263 O 394.815 -5.36205 -1.94525 0
M  V30 4264 O 393.749 -6.01779 -0.12046 0
M  V30 4265 H 397.575 -2.88664 0.943758 0
M  V30 4266 H 395.16 -1.39824 0.526277 0
M  V30 4267 H 397.042 -4.03195 -1.22524 0
M  V30 4268 H 395.717 -2.86819 -1.50056 0
M  V30 4269 H 394.624 -3.68057 0.669696 0
M  V30 4270 H 395.957 -4.84598 0.861736 0
M  V30 4271 N 397.609 -0.515225 -1.4894 0
M  V30 4272 C 398.834 0.022727 -2.07388 0
M  V30 4273 C 399.259 1.2876 -1.37122 0
M  V30 4274 O 398.617 1.76067 -0.432431 0
M  V30 4275 C 398.665 0.244869 -3.59768 0
M  V30 4276 O 397.769 1.31667 -3.90817 0
M  V30 4277 H 397.11 -0.0325506 -0.663202 0
M  V30 4278 H 399.64 -0.718918 -1.91553 0
M  V30 4279 H 399.65 0.47205 -4.0526 0
M  V30 4280 H 398.325 -0.679194 -4.10317 0
M  V30 4281 H 396.902 1.07331 -3.5712 0
M  V30 4282 N 399.087 1.5561 -0.249682 0
M  V30 4283 C 400.333 2.00044 0.367952 0
M  V30 4284 C 400.688 1.1349 1.55363 0
M  V30 4285 O 399.981 0.191079 1.90645 0
M  V30 4286 C 400.175 3.4775 0.824887 0
M  V30 4287 C 400.004 4.48596 -0.314973 0
M  V30 4288 C 398.774 4.99077 -0.790555 0
M  V30 4289 C 400.972 5.0144 -1.14291 0
M  V30 4290 N 398.954 5.83675 -1.90254 0
M  V30 4291 C 400.325 5.83236 -2.10322 0
M  V30 4292 C 402.38 4.83736 -1.17916 0
M  V30 4293 C 401.083 6.49217 -3.09692 0
M  V30 4294 C 403.109 5.50497 -2.16117 0
M  V30 4295 C 402.471 6.32084 -3.10884 0
M  V30 4296 H 398.57 0.775512 0.100522 0
M  V30 4297 H 401.154 1.91193 -0.367896 0
M  V30 4298 H 399.325 3.56994 1.53002 0
M  V30 4299 H 401.057 3.79056 1.4177 0
M  V30 4300 H 397.812 4.72119 -0.374218 0
M  V30 4301 H 398.236 6.30671 -2.46137 0
M  V30 4302 H 402.878 4.20286 -0.460352 0
M  V30 4303 H 400.596 7.11832 -3.8252 0
M  V30 4304 H 404.182 5.38752 -2.19631 0
M  V30 4305 H 403.062 6.82832 -3.8563 0
M  V30 4306 N 400.565 -0.0233959 1.57583 0
M  V30 4307 C 401.813 -0.711654 1.89156 0
M  V30 4308 C 402.134 -1.75591 0.848096 0
M  V30 4309 O 401.404 -1.95547 -0.117566 0
M  V30 4310 H 399.984 -0.265835 0.698098 0
M  V30 4311 H 402.646 0.0119948 1.94896 0
M  V30 4312 H 401.742 -1.19766 2.88206 0
M  V30 4313 N 402.043 -1.548 -0.295768 0
M  V30 4314 C 403.271 -1.78327 -1.04914 0
M  V30 4315 C 403.686 -0.545316 -1.80753 0
M  V30 4316 O 403.043 0.485013 -1.75937 0
M  V30 4317 C 403.094 -2.99418 -2.02561 0
M  V30 4318 O 402.815 -4.18431 -1.29798 0
M  V30 4319 C 404.316 -3.35375 -2.89895 0
M  V30 4320 H 401.536 -0.594618 -0.310918 0
M  V30 4321 H 404.08 -2.01763 -0.333454 0
M  V30 4322 H 402.235 -2.78175 -2.69624 0
M  V30 4323 H 402.649 -4.86736 -1.95419 0
M  V30 4324 H 404.123 -4.23332 -3.54251 0
M  V30 4325 H 404.6 -2.53761 -3.58472 0
M  V30 4326 H 405.206 -3.58796 -2.28355 0
M  V30 4327 N 403.521 0.559213 -1.47345 0
M  V30 4328 C 404.932 1.14134 -1.47751 0
M  V30 4329 C 405.283 1.94834 -0.231103 0
M  V30 4330 O 404.408 2.05957 0.664137 0
M  V30 4331 C 405.003 2.07653 -2.67705 0
M  V30 4332 C 403.562 2.61141 -2.71076 0
M  V30 4333 C 402.709 1.3748 -2.40821 0
M  V30 4334 H 405.66 0.345917 -1.54884 0
M  V30 4335 H 405.681 2.91497 -2.44561 0
M  V30 4336 H 405.193 1.4889 -3.58404 0
M  V30 4337 H 403.294 3.23707 -1.84511 0
M  V30 4338 H 403.407 3.02272 -3.7171 0
M  V30 4339 H 401.771 1.68086 -1.91362 0
M  V30 4340 H 402.554 0.805135 -3.33725 0
M  V30 4341 N 404.999 1.35443 0.805782 0
M  V30 4342 C 406.246 1.28761 1.56291 0
M  V30 4343 C 406.574 -0.137747 1.94012 0
M  V30 4344 O 405.829 -1.1032 1.61642 0
M  V30 4345 C 406.128 2.14045 2.86216 0
M  V30 4346 C 405.794 3.62826 2.67709 0
M  V30 4347 C 404.456 4.0338 2.6237 0
M  V30 4348 C 406.808 4.57227 2.50186 0
M  V30 4349 C 404.136 5.36501 2.37451 0
M  V30 4350 C 406.488 5.90547 2.26797 0
M  V30 4351 C 405.152 6.30245 2.1988 0
M  V30 4352 H 404.422 0.471171 0.571908 0
M  V30 4353 H 407.069 1.67347 0.930974 0
M  V30 4354 H 405.374 1.68342 3.53791 0
M  V30 4355 H 407.071 2.0621 3.43917 0
M  V30 4356 H 403.661 3.30644 2.72713 0
M  V30 4357 H 407.845 4.2678 2.53323 0
M  V30 4358 H 403.101 5.66259 2.30567 0
M  V30 4359 H 407.275 6.63274 2.12228 0
M  V30 4360 H 404.902 7.33328 2.00333 0
M  V30 4361 N 406.477 -1.02803 1.19454 0
M  V30 4362 C 407.409 -2.11181 0.890807 0
M  V30 4363 C 408.422 -1.6238 -0.116829 0
M  V30 4364 O 409.611 -1.78144 0.112694 0
M  V30 4365 C 406.711 -3.37461 0.311942 0
M  V30 4366 C 405.884 -4.15446 1.36834 0
M  V30 4367 C 404.943 -5.20039 0.802864 0
M  V30 4368 O 403.969 -5.49602 1.48077 0
M  V30 4369 N 405.171 -5.79165 -0.393417 0
M  V30 4370 H 407.936 -2.37827 1.82369 0
M  V30 4371 H 405.497 -1.19101 1.09666 0
M  V30 4372 H 407.489 -4.0462 -0.0802225 0
M  V30 4373 H 406.059 -3.08156 -0.52524 0
M  V30 4374 H 405.279 -3.43423 1.93531 0
M  V30 4375 H 406.567 -4.64335 2.08015 0
M  V30 4376 H 405.965 -5.57466 -0.961658 0
M  V30 4377 H 404.522 -6.47729 -0.727351 0
M  V30 4378 N 407.956 -0.998596 -1.21925 0
M  V30 4379 C 408.888 -0.511879 -2.23411 0
M  V30 4380 C 409.901 0.396094 -1.57908 0
M  V30 4381 O 411.09 0.197316 -1.77406 0
M  V30 4382 C 408.19 0.276802 -3.37768 0
M  V30 4383 C 407.363 -0.628687 -4.32858 0
M  V30 4384 C 406.422 0.109272 -5.26087 0
M  V30 4385 O 405.448 -0.507237 -5.66935 0
M  V30 4386 N 406.65 1.38983 -5.63617 0
M  V30 4387 H 409.415 -1.38457 -2.658 0
M  V30 4388 H 406.976 -0.873981 -1.36283 0
M  V30 4389 H 408.968 0.77928 -3.97126 0
M  V30 4390 H 407.538 1.05063 -2.94415 0
M  V30 4391 H 406.758 -1.31175 -3.71735 0
M  V30 4392 H 408.046 -1.24514 -4.93329 0
M  V30 4393 H 407.444 1.91194 -5.32411 0
M  V30 4394 H 406.001 1.83739 -6.25367 0
M  V30 4395 N 409.434 1.37368 -0.772513 0
M  V30 4396 C 410.364 2.32856 -0.173304 0
M  V30 4397 C 411.345 1.55818 0.682262 0
M  V30 4398 O 412.53 1.84052 0.619566 0
M  V30 4399 C 409.66 3.40048 0.706007 0
M  V30 4400 C 408.614 4.27973 -0.0483144 0
M  V30 4401 C 407.94 5.26184 0.950491 0
M  V30 4402 C 409.24 5.07665 -1.22776 0
M  V30 4403 H 410.934 2.83217 -0.971002 0
M  V30 4404 H 408.48 1.3617 -0.468377 0
M  V30 4405 H 410.433 4.05827 1.13501 0
M  V30 4406 H 409.157 2.88214 1.53623 0
M  V30 4407 H 407.816 3.63726 -0.458107 0
M  V30 4408 H 407.464 4.7063 1.77529 0
M  V30 4409 H 407.164 5.85872 0.450314 0
M  V30 4410 H 408.688 5.94838 1.37842 0
M  V30 4411 H 410.102 5.66578 -0.875366 0
M  V30 4412 H 408.499 5.76681 -1.66007 0
M  V30 4413 H 409.569 4.40294 -2.03149 0
M  V30 4414 N 410.912 0.523116 1.48665 0
M  V30 4415 C 411.859 -0.243398 2.29513 0
M  V30 4416 C 412.829 -0.940139 1.36933 0
M  V30 4417 O 414.014 -0.942503 1.65896 0
M  V30 4418 C 411.154 -1.28855 3.20141 0
M  V30 4419 C 410.267 -0.60135 4.27794 0
M  V30 4420 C 409.402 -1.62884 5.05611 0
M  V30 4421 C 408.441 -0.924726 6.05075 0
M  V30 4422 N 407.578 -1.89744 6.75975 0
M  V30 4423 H 412.418 0.452234 2.94549 0
M  V30 4424 H 409.955 0.234858 1.45213 0
M  V30 4425 H 411.913 -1.90674 3.71079 0
M  V30 4426 H 410.543 -1.95266 2.57043 0
M  V30 4427 H 409.595 0.130623 3.80176 0
M  V30 4428 H 410.907 -0.0481585 4.98777 0
M  V30 4429 H 410.061 -2.32149 5.60528 0
M  V30 4430 H 408.8 -2.21592 4.34452 0
M  V30 4431 H 407.805 -0.217966 5.49368 0
M  V30 4432 H 409.03 -0.343851 6.78229 0
M  V30 4433 H 406.976 -2.47373 6.07571 0
M  V30 4434 H 406.893 -1.3955 7.43009 0
M  V30 4435 H 408.161 -2.58229 7.35485 0
M  V30 4436 N 412.39 -1.55475 0.257931 0
M  V30 4437 C 413.322 -2.19192 -0.669881 0
M  V30 4438 C 414.335 -1.17148 -1.1305 0
M  V30 4439 O 415.524 -1.43959 -1.05537 0
M  V30 4440 C 412.624 -2.79016 -1.92363 0
M  V30 4441 C 411.797 -4.06586 -1.61265 0
M  V30 4442 C 410.856 -4.50622 -2.7171 0
M  V30 4443 O 409.882 -5.16765 -2.38627 0
M  V30 4444 N 411.084 -4.19325 -4.01431 0
M  V30 4445 H 413.849 -2.99441 -0.124635 0
M  V30 4446 H 411.41 -1.6171 0.0783311 0
M  V30 4447 H 413.402 -3.05427 -2.65511 0
M  V30 4448 H 411.972 -2.0286 -2.37837 0
M  V30 4449 H 411.192 -3.87646 -0.715811 0
M  V30 4450 H 412.48 -4.89737 -1.37967 0
M  V30 4451 H 411.878 -3.66247 -4.31138 0
M  V30 4452 H 410.435 -4.50547 -4.7101 0
M  V30 4453 N 413.868 0.0150385 -1.57593 0
M  V30 4454 C 415.114 0.704043 -1.90187 0
M  V30 4455 C 415.447 1.74249 -0.857366 0
M  V30 4456 O 414.722 1.94092 0.125843 0
M  V30 4457 C 415.005 1.36087 -3.33395 0
M  V30 4458 C 414.858 0.334981 -4.48551 0
M  V30 4459 C 416.177 2.29112 -3.7576 0
M  V30 4460 H 413.296 0.254475 -0.691673 0
M  V30 4461 H 415.938 -0.0331678 -1.89971 0
M  V30 4462 H 414.088 1.98922 -3.3371 0
M  V30 4463 H 415.76 -0.292534 -4.60372 0
M  V30 4464 H 414.003 -0.344325 -4.32431 0
M  V30 4465 H 414.674 0.833316 -5.45674 0
M  V30 4466 H 417.15 1.76308 -3.76902 0
M  V30 4467 H 416.026 2.72043 -4.76743 0
M  V30 4468 H 416.287 3.16385 -3.08793 0
M  V30 4469 N 415.346 1.54954 0.287554 0
M  V30 4470 C 416.592 1.75132 1.02257 0
M  V30 4471 C 416.925 0.542858 1.86458 0
M  V30 4472 O 416.2 -0.459856 1.88986 0
M  V30 4473 C 416.483 3.04812 1.91733 0
M  V30 4474 C 416.336 4.35985 1.10622 0
M  V30 4475 C 417.655 3.30438 2.90687 0
M  V30 4476 H 414.774 0.637194 0.370341 0
M  V30 4477 H 417.416 1.87678 0.296111 0
M  V30 4478 H 415.566 2.94247 2.53675 0
M  V30 4479 H 417.238 4.58487 0.508636 0
M  V30 4480 H 415.481 4.31865 0.409271 0
M  V30 4481 H 416.152 5.23017 1.76513 0
M  V30 4482 H 418.628 3.40701 2.38877 0
M  V30 4483 H 417.504 4.22467 3.50447 0
M  V30 4484 H 417.765 2.49377 3.65053 0
M  V30 4485 N 416.824 -0.551391 1.4764 0
M  V30 4486 C 417.734 -1.68525 1.63207 0
M  V30 4487 C 418.75 -1.6621 0.514815 0
M  V30 4488 O 419.926 -1.85551 0.783113 0
M  V30 4489 C 416.991 -3.05025 1.64805 0
M  V30 4490 C 416.052 -3.18362 2.88 0
M  V30 4491 C 415.285 -4.4835 2.89513 0
M  V30 4492 O 415.508 -5.34163 2.00065 0
M  V30 4493 O 414.442 -4.65602 3.81443 0
M  V30 4494 H 418.268 -1.58333 2.59161 0
M  V30 4495 H 415.853 -0.722063 1.30792 0
M  V30 4496 H 417.735 -3.86245 1.68502 0
M  V30 4497 H 416.41 -3.15587 0.720197 0
M  V30 4498 H 415.317 -2.36518 2.89845 0
M  V30 4499 H 416.65 -3.12707 3.80099 0
M  V30 4500 N 418.302 -1.35869 -0.798587 0
M  V30 4501 C 419.212 -1.31578 -1.94228 0
M  V30 4502 C 420.228 -0.21939 -1.72611 0
M  V30 4503 O 421.404 -0.450167 -1.96305 0
M  V30 4504 C 418.469 -1.09528 -3.28944 0
M  V30 4505 C 417.53 -2.28556 -3.63402 0
M  V30 4506 C 416.763 -2.07549 -4.9169 0
M  V30 4507 O 416.986 -1.046 -5.60727 0
M  V30 4508 O 415.92 -2.95106 -5.24591 0
M  V30 4509 H 419.746 -2.27847 -2.00796 0
M  V30 4510 H 417.331 -1.16322 -0.937526 0
M  V30 4511 H 419.213 -0.991127 -4.09579 0
M  V30 4512 H 417.888 -0.16315 -3.23289 0
M  V30 4513 H 416.795 -2.44538 -2.83112 0
M  V30 4514 H 418.128 -3.20244 -3.73771 0
M  V30 4515 N 419.78 1.02168 -1.19998 0
M  V30 4516 C 421.191 1.57135 -1.00825 0
M  V30 4517 C 421.542 1.91276 0.436818 0
M  V30 4518 O 420.667 1.71679 1.3174 0
M  V30 4519 C 421.262 2.85514 -1.82393 0
M  V30 4520 C 419.821 3.37027 -1.67601 0
M  V30 4521 C 418.968 2.10388 -1.80644 0
M  V30 4522 H 421.919 0.846106 -1.34264 0
M  V30 4523 H 421.94 3.56711 -1.32429 0
M  V30 4524 H 421.452 2.60634 -2.87561 0
M  V30 4525 H 419.553 3.66878 -0.650485 0
M  V30 4526 H 419.666 4.09572 -2.4857 0
M  V30 4527 H 418.03 2.22601 -1.23778 0
M  V30 4528 H 418.813 1.8794 -2.87286 0
M  V30 4529 N 421.258 1.00505 1.21394 0
M  V30 4530 C 422.483 0.706367 1.95001 0
M  V30 4531 C 422.908 -0.72463 1.73582 0
M  V30 4532 O 422.266 -1.49702 1.0227 0
M  V30 4533 C 422.314 1.03299 3.45487 0
M  V30 4534 O 421.418 0.138275 4.12168 0
M  V30 4535 H 420.759 0.263175 0.609619 0
M  V30 4536 H 423.289 1.34531 1.54151 0
M  V30 4537 H 423.299 0.979872 3.96059 0
M  V30 4538 H 421.974 2.07567 3.60401 0
M  V30 4539 H 420.551 0.247928 3.72075 0
M  V30 4540 N 422.737 -1.36956 0.779787 0
M  V30 4541 C 424.148 -1.82094 0.412156 0
M  V30 4542 C 424.499 -1.64926 -1.06273 0
M  V30 4543 O 423.624 -1.16483 -1.82375 0
M  V30 4544 C 424.219 -3.3059 0.741319 0
M  V30 4545 C 422.778 -3.73974 0.426641 0
M  V30 4546 C 421.925 -2.59368 0.980987 0
M  V30 4547 H 424.876 -1.25314 0.973758 0
M  V30 4548 H 424.897 -3.80489 0.028887 0
M  V30 4549 H 424.409 -3.43054 1.81482 0
M  V30 4550 H 422.51 -3.67076 -0.639215 0
M  V30 4551 H 422.623 -4.69778 0.940515 0
M  V30 4552 H 420.987 -2.51463 0.404757 0
M  V30 4553 H 421.77 -2.74621 2.06005 0
M  V30 4554 N 424.215 -0.530993 -1.48385 0
M  V30 4555 C 425.147 0.268353 -2.27624 0
M  V30 4556 C 426.16 0.903525 -1.35426 0
M  V30 4557 O 427.349 0.781796 -1.60469 0
M  V30 4558 C 424.449 1.39535 -3.08842 0
M  V30 4559 C 423.622 0.861913 -4.28824 0
M  V30 4560 C 422.681 1.87016 -4.91845 0
M  V30 4561 O 421.707 1.4267 -5.5103 0
M  V30 4562 N 422.909 3.20238 -4.84178 0
M  V30 4563 H 425.674 -0.41123 -2.96865 0
M  V30 4564 H 423.235 -0.365387 -1.57723 0
M  V30 4565 H 425.227 2.06803 -3.47871 0
M  V30 4566 H 423.797 1.97859 -2.42014 0
M  V30 4567 H 423.017 0.0132126 -3.94198 0
M  V30 4568 H 424.305 0.484415 -5.06489 0
M  V30 4569 H 423.703 3.58932 -4.37246 0
M  V30 4570 H 422.26 3.83136 -5.27305 0
M  V30 4571 N 425.693 1.55336 -0.266172 0
M  V30 4572 C 426.623 2.25146 0.618981 0
M  V30 4573 C 427.604 1.23845 1.16604 0
M  V30 4574 O 428.789 1.52544 1.20183 0
M  V30 4575 C 425.919 2.96572 1.80728 0
M  V30 4576 C 424.873 4.04726 1.39215 0
M  V30 4577 C 424.199 4.63678 2.66283 0
M  V30 4578 C 425.499 5.19407 0.548942 0
M  V30 4579 H 427.193 2.99377 0.0368116 0
M  V30 4580 H 424.739 1.43991 0.0162651 0
M  V30 4581 H 426.692 3.44116 2.43232 0
M  V30 4582 H 425.416 2.19861 2.41514 0
M  V30 4583 H 424.075 3.57979 0.790351 0
M  V30 4584 H 423.723 3.83646 3.25308 0
M  V30 4585 H 423.423 5.367 2.39222 0
M  V30 4586 H 424.947 5.13967 3.29651 0
M  V30 4587 H 426.361 5.63059 1.07876 0
M  V30 4588 H 424.758 5.98936 0.373593 0
M  V30 4589 H 425.828 4.8295 -0.434394 0
M  V30 4590 N 427.171 -0.0066808 1.57599 0
M  V30 4591 C 428.582 -0.550379 1.78403 0
M  V30 4592 C 428.933 -1.74339 0.900014 0
M  V30 4593 O 428.058 -2.16166 0.100713 0
M  V30 4594 C 428.653 -1.00523 3.23544 0
M  V30 4595 C 427.212 -1.49428 3.45468 0
M  V30 4596 C 426.359 -0.442444 2.73748 0
M  V30 4597 H 429.31 0.219508 1.57175 0
M  V30 4598 H 429.331 -1.87157 3.31289 0
M  V30 4599 H 428.843 -0.136735 3.87859 0
M  V30 4600 H 426.944 -2.3839 2.86358 0
M  V30 4601 H 427.057 -1.52635 4.54136 0
M  V30 4602 H 425.421 -0.902578 2.38171 0
M  V30 4603 H 426.204 0.416973 3.40758 0
M  V30 4604 N 428.649 -1.55105 -0.279332 0
M  V30 4605 C 429.612 -1.86783 -1.32834 0
M  V30 4606 C 430.612 -0.74199 -1.42657 0
M  V30 4607 O 431.802 -1.0102 -1.41918 0
M  V30 4608 C 428.934 -2.06746 -2.71052 0
M  V30 4609 H 430.127 -2.8055 -1.05979 0
M  V30 4610 H 427.68 -1.47499 -0.517087 0
M  V30 4611 H 428.415 -1.15339 -3.03097 0
M  V30 4612 H 428.2 -2.88711 -2.65309 0
M  V30 4613 H 429.69 -2.32549 -3.46858 0
M  V30 4614 N 430.127 0.543554 -1.4793 0
M  V30 4615 C 431.404 1.30458 -1.4574 0
M  V30 4616 C 431.784 2.1048 -0.161692 0
M  V30 4617 O 431.132 2.11831 0.856734 0
M  V30 4618 C 431.342 2.19754 -2.71126 0
M  V30 4619 C 432.69 2.80334 -3.18901 0
M  V30 4620 O 433.714 2.30049 -2.71948 0
M  V30 4621 O 432.573 3.71766 -4.00565 0
M  V30 4622 H 429.667 0.588117 -0.581418 0
M  V30 4623 H 432.213 0.561328 -1.60147 0
M  V30 4624 H 430.985 1.60316 -3.56952 0
M  V30 4625 H 430.608 3.01351 -2.59371 0
M  V30 4626 N 431.605 1.3629 0.791371 0
M  V30 4627 C 433.021 1.16661 1.08914 0
M  V30 4628 C 433.221 -0.0106266 2.01497 0
M  V30 4629 O 432.277 -0.676596 2.43266 0
M  V30 4630 C 433.59 2.47656 1.70549 0
M  V30 4631 C 435.138 2.54002 1.82899 0
M  V30 4632 C 435.613 3.85078 2.47949 0
M  V30 4633 N 437.104 3.86413 2.5542 0
M  V30 4634 C 437.839 4.84572 3.06557 0
M  V30 4635 N 437.335 5.93124 3.58016 0
M  V30 4636 N 439.128 4.71994 3.05251 0
M  V30 4637 H 431.279 2.11668 0.176238 0
M  V30 4638 H 433.542 0.937486 0.140796 0
M  V30 4639 H 433.248 3.34059 1.09989 0
M  V30 4640 H 433.122 2.63319 2.70079 0
M  V30 4641 H 435.509 1.68018 2.42598 0
M  V30 4642 H 435.59 2.42239 0.821808 0
M  V30 4643 H 435.234 4.71467 1.88895 0
M  V30 4644 H 435.164 3.94135 3.49235 0
M  V30 4645 H 437.655 3.07988 2.18979 0
M  V30 4646 H 437.968 6.63999 3.95381 0
M  V30 4647 H 436.313 5.96796 3.56173 0
M  V30 4648 H 439.504 3.86321 2.64336 0
M  V30 4649 H 439.677 5.48653 3.44796 0
M  V30 4650 N 433.083 -1.0153 1.20538 0
M  V30 4651 C 434.33 -1.75149 1.01633 0
M  V30 4652 C 434.658 -1.89189 -0.451399 0
M  V30 4653 O 433.913 -1.41551 -1.35136 0
M  V30 4654 C 434.212 -3.17213 1.64654 0
M  V30 4655 C 433.878 -3.23146 3.14464 0
M  V30 4656 C 432.54 -3.24472 3.55347 0
M  V30 4657 C 434.892 -3.21207 4.10458 0
M  V30 4658 C 432.22 -3.21532 4.90748 0
M  V30 4659 C 434.572 -3.19808 5.45807 0
M  V30 4660 C 433.236 -3.19439 5.86102 0
M  V30 4661 H 432.506 -0.640914 0.3719 0
M  V30 4662 H 435.153 -1.19071 1.49981 0
M  V30 4663 H 433.458 -3.76457 1.08571 0
M  V30 4664 H 435.155 -3.72871 1.4754 0
M  V30 4665 H 431.745 -3.2285 2.81897 0
M  V30 4666 H 435.929 -3.19351 3.79906 0
M  V30 4667 H 431.185 -3.19578 5.21229 0
M  V30 4668 H 435.359 -3.1726 6.19935 0
M  V30 4669 H 432.986 -3.16915 6.90991 0
M  V30 4670 N 434.561 -1.01147 -1.20859 0
M  V30 4671 C 435.786 -0.716698 -1.94623 0
M  V30 4672 C 436.211 0.715415 -1.73964 0
M  V30 4673 O 435.569 1.49157 -1.03062 0
M  V30 4674 C 435.617 -1.0513 -3.44935 0
M  V30 4675 O 434.721 -0.160131 -4.12089 0
M  V30 4676 H 434.062 -0.266404 -0.608214 0
M  V30 4677 H 436.592 -1.35346 -1.53436 0
M  V30 4678 H 436.602 -1.00086 -3.95533 0
M  V30 4679 H 435.277 -2.09475 -3.59295 0
M  V30 4680 H 433.854 -0.267657 -3.71938 0
M  V30 4681 N 436.039 1.36541 -0.78704 0
M  V30 4682 C 437.45 1.81873 -0.421807 0
M  V30 4683 C 437.801 1.65487 1.05397 0
M  V30 4684 O 436.926 1.17448 1.81755 0
M  V30 4685 C 437.521 3.30192 -0.758841 0
M  V30 4686 C 436.08 3.73743 -0.446468 0
M  V30 4687 C 435.227 2.58844 -0.994728 0
M  V30 4688 H 438.178 1.24796 -0.98039 0
M  V30 4689 H 438.199 3.80468 -0.0490648 0
M  V30 4690 H 437.711 3.42087 -1.83299 0
M  V30 4691 H 435.812 3.6741 0.619739 0
M  V30 4692 H 435.925 4.69272 -0.965415 0
M  V30 4693 H 434.289 2.51245 -0.418087 0
M  V30 4694 H 435.072 2.73525 -2.07458 0
M  V30 4695 N 437.518 0.538854 1.48102 0
M  V30 4696 C 438.428 -0.222648 2.33541 0
M  V30 4697 C 439.444 -0.930225 1.47047 0
M  V30 4698 O 440.62 -0.903211 1.80011 0
M  V30 4699 C 437.685 -1.25064 3.23357 0
M  V30 4700 C 436.746 -0.552469 4.2573 0
M  V30 4701 C 435.979 -1.53149 5.11254 0
M  V30 4702 O 436.202 -2.76487 4.9891 0
M  V30 4703 O 435.136 -1.06602 5.92385 0
M  V30 4704 H 438.962 0.477707 2.99919 0
M  V30 4705 H 436.547 0.299669 1.46364 0
M  V30 4706 H 438.429 -1.8445 3.78888 0
M  V30 4707 H 437.104 -1.93325 2.59629 0
M  V30 4708 H 436.011 0.082114 3.7401 0
M  V30 4709 H 437.344 0.0883526 4.92121 0
M  V30 4710 N 438.996 -1.55193 0.274407 0
M  V30 4711 C 440.243 -1.99581 -0.342579 0
M  V30 4712 C 440.571 -1.1628 -1.55914 0
M  V30 4713 O 439.826 -0.22029 -1.94456 0
M  V30 4714 C 440.125 -3.49019 -0.769458 0
M  V30 4715 C 439.791 -4.49598 0.342389 0
M  V30 4716 C 438.453 -4.76821 0.647686 0
M  V30 4717 C 440.805 -5.0964 1.09163 0
M  V30 4718 C 438.133 -5.61354 1.70581 0
M  V30 4719 C 440.485 -5.95323 2.13948 0
M  V30 4720 C 439.149 -6.20867 2.45113 0
M  V30 4721 H 438.419 -0.730319 -0.125358 0
M  V30 4722 H 441.066 -1.87529 0.387971 0
M  V30 4723 H 439.371 -3.58544 -1.57967 0
M  V30 4724 H 441.068 -3.8077 -1.25757 0
M  V30 4725 H 437.658 -4.28496 0.094318 0
M  V30 4726 H 441.842 -4.88632 0.869024 0
M  V30 4727 H 437.098 -5.79392 1.9523 0
M  V30 4728 H 441.272 -6.40881 2.72478 0
M  V30 4729 H 438.899 -6.86162 3.27239 0
M  V30 4730 N 440.474 -0.00167713 -1.576 0
M  V30 4731 C 441.72 0.683832 -1.90923 0
M  V30 4732 C 442.053 1.7333 -0.875799 0
M  V30 4733 O 441.328 1.94215 0.10525 0
M  V30 4734 C 441.611 1.32543 -3.3482 0
M  V30 4735 C 441.464 0.287387 -4.48881 0
M  V30 4736 C 442.783 2.25114 -3.78169 0
M  V30 4737 H 439.902 0.247125 -0.694333 0
M  V30 4738 H 442.544 -0.0533149 -1.89925 0
M  V30 4739 H 440.694 1.95372 -3.35801 0
M  V30 4740 H 442.366 -0.341346 -4.60035 0
M  V30 4741 H 440.609 -0.39017 -4.32042 0
M  V30 4742 H 441.28 0.775393 -5.46527 0
M  V30 4743 H 443.756 1.723 -3.7875 0
M  V30 4744 H 442.632 2.66971 -4.79602 0
M  V30 4745 H 442.893 3.13092 -3.12131 0
M  V30 4746 N 441.952 1.55251 0.271103 0
M  V30 4747 C 443.229 1.66664 1.02384 0
M  V30 4748 C 443.609 0.534363 2.04225 0
M  V30 4749 O 442.957 -0.465337 2.23712 0
M  V30 4750 C 443.167 3.05961 1.67895 0
M  V30 4751 C 444.515 3.63772 2.18986 0
M  V30 4752 O 445.539 3.08606 1.77878 0
M  V30 4753 O 444.398 4.60429 2.94393 0
M  V30 4754 H 441.492 0.676957 0.475035 0
M  V30 4755 H 444.038 1.67589 0.26681 0
M  V30 4756 H 442.81 3.79815 0.941071 0
M  V30 4757 H 442.433 3.08943 2.5028 0
M  V30 4758 N 443.43 -0.535701 1.48216 0
M  V30 4759 C 444.677 -1.29183 1.55942 0
M  V30 4760 C 445.005 -1.93125 0.230857 0
M  V30 4761 O 444.26 -1.79556 -0.778331 0
M  V30 4762 C 444.559 -2.4068 2.64212 0
M  V30 4763 C 444.225 -1.94428 4.06827 0
M  V30 4764 C 442.887 -1.81532 4.45645 0
M  V30 4765 C 445.239 -1.59405 4.96225 0
M  V30 4766 C 442.567 -1.31939 5.71672 0
M  V30 4767 C 444.919 -1.11276 6.22736 0
M  V30 4768 C 443.583 -0.969924 6.60416 0
M  V30 4769 H 442.853 -0.472715 0.570632 0
M  V30 4770 H 445.5 -0.598437 1.81909 0
M  V30 4771 H 443.805 -3.15666 2.32083 0
M  V30 4772 H 445.502 -2.98822 2.67407 0
M  V30 4773 H 442.092 -2.05415 3.76168 0
M  V30 4774 H 446.276 -1.68231 4.66917 0
M  V30 4775 H 441.532 -1.19562 5.99596 0
M  V30 4776 H 445.706 -0.832453 6.91407 0
M  V30 4777 H 443.333 -0.583436 7.57958 0
M  V30 4778 N 444.908 -1.36708 -0.784132 0
M  V30 4779 C 446.136 -1.34398 -1.57305 0
M  V30 4780 C 446.551 0.0735577 -1.88657 0
M  V30 4781 O 445.908 1.03193 -1.50524 0
M  V30 4782 C 445.959 -2.17053 -2.89085 0
M  V30 4783 O 445.68 -3.53281 -2.59083 0
M  V30 4784 C 447.181 -2.22583 -3.83369 0
M  V30 4785 H 444.401 -0.460819 -0.487736 0
M  V30 4786 H 446.945 -1.79879 -0.972819 0
M  V30 4787 H 445.1 -1.75113 -3.45564 0
M  V30 4788 H 445.514 -3.9647 -3.43383 0
M  V30 4789 H 446.988 -2.84763 -4.72878 0
M  V30 4790 H 447.465 -1.23075 -4.21603 0
M  V30 4791 H 448.071 -2.64781 -3.32823 0
M  V30 4792 N 446.386 1.0089 -1.21074 0
M  V30 4793 C 447.349 2.0775 -0.968129 0
M  V30 4794 C 448.349 1.6069 0.0593445 0
M  V30 4795 O 449.539 1.73293 -0.177525 0
M  V30 4796 C 446.671 3.37794 -0.459108 0
M  V30 4797 H 447.864 2.30707 -1.9161 0
M  V30 4798 H 445.417 1.17807 -1.02719 0
M  V30 4799 H 446.152 3.20516 0.49397 0
M  V30 4800 H 445.937 3.7328 -1.20019 0
M  V30 4801 H 447.427 4.16454 -0.309099 0
M  V30 4802 N 447.864 1.01787 1.20321 0
M  V30 4803 C 448.796 0.547357 2.22568 0
M  V30 4804 C 449.809 -0.370922 1.58518 0
M  V30 4805 O 450.998 -0.169067 1.77698 0
M  V30 4806 C 448.098 -0.223031 3.38165 0
M  V30 4807 C 447.271 0.697472 4.31803 0
M  V30 4808 C 446.33 -0.025562 5.26194 0
M  V30 4809 O 445.356 0.597367 5.66057 0
M  V30 4810 N 446.558 -1.29999 5.65757 0
M  V30 4811 H 449.323 1.42668 2.63564 0
M  V30 4812 H 446.884 0.895552 1.34876 0
M  V30 4813 H 448.876 -0.716002 3.98316 0
M  V30 4814 H 447.446 -1.00366 2.9605 0
M  V30 4815 H 446.666 1.37073 3.69601 0
M  V30 4816 H 447.954 1.32347 4.91286 0
M  V30 4817 H 447.352 -1.827 5.35385 0
M  V30 4818 H 445.909 -1.73766 6.28211 0
M  V30 4819 N 449.342 -1.36122 0.79427 0
M  V30 4820 C 450.582 -2.00942 0.374376 0
M  V30 4821 C 450.946 -1.61666 -1.03577 0
M  V30 4822 O 452.147 -2.19113 -1.55701 0
M  V30 4823 C 450.418 -3.53323 0.538327 0
M  V30 4824 S 451.977 -4.38311 0.20703 0
M  V30 4825 H 448.795 -0.696515 0.142785 0
M  V30 4826 H 451.397 -1.65929 1.03382 0
M  V30 4827 H 450.101 -3.79395 1.56484 0
M  V30 4828 H 449.632 -3.93162 -0.136882 0
M  V30 4829 H 451.647 -4.8623 -0.989695 0
M  V30 4830 N 450.82 -0.546701 -1.47814 0
M  V30 4831 C 451.75 0.195317 -2.32682 0
M  V30 4832 C 452.731 0.918981 -1.43139 0
M  V30 4833 O 453.916 0.901501 -1.72008 0
M  V30 4834 C 451.046 1.23237 -3.247 0
M  V30 4835 C 450 0.625818 -4.234 0
M  V30 4836 C 449.326 1.76674 -5.04669 0
M  V30 4837 C 450.626 -0.413515 -5.2066 0
M  V30 4838 H 452.32 -0.513184 -2.94969 0
M  V30 4839 H 449.866 -0.248241 -1.41844 0
M  V30 4840 H 451.819 1.75955 -3.82907 0
M  V30 4841 H 450.543 1.97067 -2.60446 0
M  V30 4842 H 449.202 0.120023 -3.66403 0
M  V30 4843 H 448.85 2.49383 -4.36826 0
M  V30 4844 H 448.55 1.36673 -5.71484 0
M  V30 4845 H 450.074 2.29738 -5.65732 0
M  V30 4846 H 451.488 0.0272042 -5.73294 0
M  V30 4847 H 449.885 -0.731825 -5.95621 0
M  V30 4848 H 450.955 -1.31325 -4.66778 0
M  V30 4849 N 452.299 1.55045 -0.282633 0
M  V30 4850 C 453.715 1.59441 0.0712997 0
M  V30 4851 C 453.915 1.2998 1.53972 0
M  V30 4852 O 452.971 1.06431 2.28973 0
M  V30 4853 C 454.284 2.99097 -0.310104 0
M  V30 4854 C 455.832 3.1194 -0.257343 0
M  V30 4855 C 456.307 4.53875 -0.613297 0
M  V30 4856 N 457.798 4.5974 -0.565134 0
M  V30 4857 C 458.533 5.67603 -0.81326 0
M  V30 4858 N 458.029 6.83582 -1.1264 0
M  V30 4859 N 459.822 5.57187 -0.741553 0
M  V30 4860 H 451.973 1.72458 -1.23984 0
M  V30 4861 H 454.236 0.804549 -0.501403 0
M  V30 4862 H 453.942 3.25516 -1.33163 0
M  V30 4863 H 453.816 3.75616 0.345366 0
M  V30 4864 H 456.203 2.85281 0.754905 0
M  V30 4865 H 456.284 2.37618 -0.947178 0
M  V30 4866 H 455.928 4.81261 -1.62327 0
M  V30 4867 H 455.858 5.26508 0.09841 0
M  V30 4868 H 458.349 3.76427 -0.333294 0
M  V30 4869 H 458.662 7.6175 -1.30219 0
M  V30 4870 H 457.007 6.85179 -1.16425 0
M  V30 4871 H 460.198 4.65457 -0.496705 0
M  V30 4872 H 460.371 6.41171 -0.938306 0
M  V30 4873 N 453.777 0.010035 1.57597 0
M  V30 4874 C 454.724 -0.978122 2.09049 0
M  V30 4875 C 455.694 -1.33509 0.988159 0
M  V30 4876 O 456.879 -1.43172 1.26121 0
M  V30 4877 C 454.019 -2.26158 2.60666 0
M  V30 4878 C 453.132 -1.96275 3.84838 0
M  V30 4879 C 452.267 -3.18776 4.24918 0
M  V30 4880 C 451.306 -2.84625 5.41899 0
M  V30 4881 N 450.443 -3.99693 5.77226 0
M  V30 4882 H 455.283 -0.532431 2.93205 0
M  V30 4883 H 452.82 -0.251234 1.44939 0
M  V30 4884 H 454.778 -3.01202 2.88675 0
M  V30 4885 H 453.408 -2.68378 1.79369 0
M  V30 4886 H 452.46 -1.11555 3.63675 0
M  V30 4887 H 453.772 -1.67111 4.69974 0
M  V30 4888 H 452.926 -4.02157 4.54262 0
M  V30 4889 H 451.665 -3.51087 3.38511 0
M  V30 4890 H 450.67 -1.99653 5.12268 0
M  V30 4891 H 451.895 -2.53551 6.29991 0
M  V30 4892 H 449.841 -4.31882 4.93776 0
M  V30 4893 H 449.758 -3.74087 6.56959 0
M  V30 4894 H 451.026 -4.83834 6.11167 0
M  V30 4895 N 455.255 -1.55392 -0.262866 0
M  V30 4896 C 456.203 -1.8977 -1.345 0
M  V30 4897 C 457.197 -0.775063 -1.50629 0
M  V30 4898 O 458.403 -0.959519 -1.52293 0
M  V30 4899 H 454.778 -0.602467 -0.450041 0
M  V30 4900 H 456.749 -2.80147 -1.02762 0
M  V30 4901 C 455.498 -2.19501 -2.69657 0
M  V30 4902 H 454.821 -3.05378 -2.5804 0
M  V30 4903 H 456.261 -2.47469 -3.44289 0
M  V30 4904 C 454.72 -1.00597 -3.21531 0
M  V30 4905 O 455.25 -0.245768 -4.00947 0
M  V30 4906 N 453.456 -0.800911 -2.79345 0
M  V30 4907 H 453.003 -1.42079 -2.14875 0
M  V30 4908 H 452.961 -0.00697996 -3.14399 0
M  V30 4909 N 456.733 0.527833 -1.48498 0
M  V30 4910 C 458.144 1.10975 -1.50138 0
M  V30 4911 C 458.495 1.943 -0.272378 0
M  V30 4912 O 457.62 2.07319 0.620301 0
M  V30 4913 C 458.215 2.01927 -2.72049 0
M  V30 4914 C 456.774 2.55332 -2.76554 0
M  V30 4915 C 455.921 1.32341 -2.43683 0
M  V30 4916 H 458.872 0.312986 -1.55583 0
M  V30 4917 H 458.893 2.86244 -2.50689 0
M  V30 4918 H 458.405 1.41254 -3.61481 0
M  V30 4919 H 456.506 3.19721 -1.91336 0
M  V30 4920 H 456.619 2.94319 -3.78038 0
M  V30 4921 H 454.983 1.63989 -1.94884 0
M  V30 4922 H 455.766 0.734165 -3.35358 0
M  V30 4923 N 458.211 1.37122 0.776871 0
M  V30 4924 C 459.174 1.32301 1.8716 0
M  V30 4925 C 460.174 0.228099 1.59174 0
M  V30 4926 O 461.364 0.483642 1.67352 0
M  V30 4927 C 458.496 1.054 3.24197 0
M  V30 4928 H 459.689 2.29673 1.92848 0
M  V30 4929 H 457.242 1.22077 0.97606 0
M  V30 4930 H 457.977 0.0853872 3.24188 0
M  V30 4931 H 457.762 1.84648 3.45901 0
M  V30 4932 H 459.252 1.04664 4.04271 0
M  V30 4933 N 459.689 -1.00246 1.21608 0
M  V30 4934 C 460.599 -2.12515 0.993709 0
M  V30 4935 C 461.615 -1.73913 -0.0549939 0
M  V30 4936 O 462.791 -2.00943 0.135619 0
M  V30 4937 C 459.856 -3.42083 0.563953 0
M  V30 4938 C 458.917 -3.94843 1.68516 0
M  V30 4939 C 458.15 -5.18226 1.27582 0
M  V30 4940 O 458.373 -5.70201 0.150506 0
M  V30 4941 O 457.307 -5.64497 2.0887 0
M  V30 4942 H 461.133 -2.34152 1.93407 0
M  V30 4943 H 458.718 -1.10891 1.00118 0
M  V30 4944 H 460.6 -4.20073 0.334194 0
M  V30 4945 H 459.275 -3.21828 -0.347665 0
M  V30 4946 H 458.182 -3.18068 1.96935 0
M  V30 4947 H 459.515 -4.19512 2.5743 0
M  V30 4948 N 461.167 -1.02423 -1.1978 0
M  V30 4949 C 462.583 -0.740459 -1.41384 0
M  V30 4950 C 462.783 0.676827 -1.89793 0
M  V30 4951 O 461.839 1.4435 -2.0717 0
M  V30 4952 C 463.152 -1.77264 -2.42895 0
M  V30 4953 C 464.7 -1.79165 -2.56649 0
M  V30 4954 C 465.175 -2.8133 -3.6141 0
M  V30 4955 N 466.666 -2.80118 -3.68901 0
M  V30 4956 C 467.401 -3.55824 -4.49641 0
M  V30 4957 N 466.897 -4.41231 -5.34123 0
M  V30 4958 N 468.69 -3.44387 -4.44246 0
M  V30 4959 H 460.841 -1.9391 -0.866764 0
M  V30 4960 H 463.104 -0.838074 -0.443098 0
M  V30 4961 H 462.81 -2.7884 -2.14339 0
M  V30 4962 H 462.684 -1.59108 -3.42001 0
M  V30 4963 H 465.071 -0.782702 -2.84531 0
M  V30 4964 H 465.152 -2.01396 -1.57713 0
M  V30 4965 H 464.796 -3.82394 -3.34271 0
M  V30 4966 H 464.726 -2.56359 -4.59986 0
M  V30 4967 H 467.217 -2.1817 -3.08562 0
M  V30 4968 H 467.53 -4.95747 -5.92836 0
M  V30 4969 H 465.875 -4.45306 -5.33599 0
M  V30 4970 H 469.066 -2.7708 -3.77285 0
M  V30 4971 H 469.239 -4.0364 -5.06931 0
M  V30 4972 N 462.645 1.35699 -0.801477 0
M  V30 4973 C 463.578 2.2768 -0.153922 0
M  V30 4974 C 464.556 1.47832 0.67709 0
M  V30 4975 O 465.74 1.77104 0.645474 0
M  V30 4976 C 462.867 3.2943 0.786986 0
M  V30 4977 C 461.913 4.26485 0.0362447 0
M  V30 4978 S 462.746 5.19573 -1.2963 0
M  V30 4979 C 463.902 6.24866 -0.359705 0
M  V30 4980 H 464.135 2.82254 -0.9338 0
M  V30 4981 H 461.668 1.42421 -0.596283 0
M  V30 4982 H 463.626 3.8855 1.32436 0
M  V30 4983 H 462.287 2.73745 1.54021 0
M  V30 4984 H 461.48 4.98378 0.750668 0
M  V30 4985 H 461.082 3.71508 -0.431017 0
M  V30 4986 H 463.374 6.75957 0.456954 0
M  V30 4987 H 464.317 7.00307 -1.04768 0
M  V30 4988 H 464.725 5.64484 0.0423274 0
M  V30 4989 N 464.123 0.554532 1.47522 0
M  V30 4990 C 465.348 0.0322661 2.07375 0
M  V30 4991 C 465.773 -1.25079 1.40488 0
M  V30 4992 O 465.131 -1.74859 0.47896 0
M  V30 4993 C 465.179 -0.149397 3.6029 0
M  V30 4994 O 464.283 -1.21259 3.9417 0
M  V30 4995 H 463.624 0.0501228 0.662106 0
M  V30 4996 H 466.154 0.769452 1.8958 0
M  V30 4997 H 466.164 -0.364437 4.06369 0
M  V30 4998 H 464.839 0.787743 4.08372 0
M  V30 4999 H 463.416 -0.97825 3.5984 0
M  V30 5000 N 465.601 -1.54893 0.290851 0
M  V30 5001 C 466.831 -2.04047 -0.323818 0
M  V30 5002 C 467.239 -1.16809 -1.48837 0
M  V30 5003 O 466.582 -0.184145 -1.82775 0
M  V30 5004 C 466.644 -3.49248 -0.852395 0
M  V30 5005 C 466.308 -4.56623 0.185557 0
M  V30 5006 C 467.305 -5.09985 1.01053 0
M  V30 5007 C 464.99 -5.01252 0.324332 0
M  V30 5008 C 466.984 -6.06507 1.96031 0
M  V30 5009 C 464.671 -5.97596 1.27757 0
M  V30 5010 C 465.669 -6.50107 2.09405 0
M  V30 5011 O 465.357 -7.44565 3.03114 0
M  V30 5012 H 465.089 -0.671735 -0.0758129 0
M  V30 5013 H 467.643 -2.00947 0.425393 0
M  V30 5014 H 465.873 -3.49639 -1.65195 0
M  V30 5015 H 467.562 -3.81654 -1.38185 0
M  V30 5016 H 468.328 -4.76307 0.914129 0
M  V30 5017 H 464.207 -4.60015 -0.301213 0
M  V30 5018 H 467.751 -6.47418 2.598 0
M  V30 5019 H 463.648 -6.30691 1.37473 0
M  V30 5020 H 464.416 -7.62334 2.97976 0
M  V30 5021 N 467.08 -0.0183926 -1.57589 0
M  V30 5022 C 468.01 0.965596 -2.12599 0
M  V30 5023 C 468.991 1.34641 -1.0395 0
M  V30 5024 O 470.176 1.42693 -1.31729 0
M  V30 5025 C 467.306 2.25149 -2.64434 0
M  V30 5026 C 466.26 2.01175 -3.77773 0
M  V30 5027 C 465.586 3.35937 -4.15994 0
M  V30 5028 C 466.886 1.35953 -5.04296 0
M  V30 5029 H 468.58 0.507504 -2.95067 0
M  V30 5030 H 466.126 0.242671 -1.41941 0
M  V30 5031 H 468.079 2.94357 -3.01549 0
M  V30 5032 H 466.803 2.73105 -1.79112 0
M  V30 5033 H 465.462 1.34388 -3.4108 0
M  V30 5034 H 465.11 3.81631 -3.27669 0
M  V30 5035 H 464.81 3.20705 -4.92364 0
M  V30 5036 H 466.334 4.0643 -4.55683 0
M  V30 5037 H 467.748 1.95144 -5.39065 0
M  V30 5038 H 466.145 1.31152 -5.85593 0
M  V30 5039 H 467.215 0.331071 -4.83768 0
M  V30 5040 N 468.558 1.5553 0.254621 0
M  V30 5041 C 469.468 1.92789 1.33677 0
M  V30 5042 C 470.484 0.827356 1.53071 0
M  V30 5043 O 471.66 1.12807 1.66843 0
M  V30 5044 C 468.725 2.20827 2.67275 0
M  V30 5045 C 467.786 3.4427 2.5647 0
M  V30 5046 C 467.019 3.70961 3.83697 0
M  V30 5047 O 467.242 2.99852 4.85227 0
M  V30 5048 O 466.176 4.64491 3.82794 0
M  V30 5049 H 470.002 2.84945 1.05071 0
M  V30 5050 H 467.587 1.42312 0.454723 0
M  V30 5051 H 469.469 2.40204 3.46237 0
M  V30 5052 H 468.144 1.31851 2.9563 0
M  V30 5053 H 467.051 3.30209 1.75821 0
M  V30 5054 H 468.384 4.33524 2.33062 0
M  V30 5055 N 470.036 -0.519951 1.48776 0
M  V30 5056 C 470.966 -1.63253 1.66945 0
M  V30 5057 C 471.947 -1.62014 0.518224 0
M  V30 5058 O 473.132 -1.79053 0.751919 0
M  V30 5059 C 470.262 -3.0181 1.71836 0
M  V30 5060 C 469.216 -3.17911 2.8656 0
M  V30 5061 C 468.542 -4.5763 2.76548 0
M  V30 5062 C 469.842 -2.99729 4.27738 0
M  V30 5063 H 471.536 -1.48302 2.6009 0
M  V30 5064 H 469.082 -0.712026 1.25165 0
M  V30 5065 H 471.035 -3.79525 1.83135 0
M  V30 5066 H 469.759 -3.17806 0.752775 0
M  V30 5067 H 468.418 -2.42616 2.74833 0
M  V30 5068 H 468.066 -4.70476 1.77937 0
M  V30 5069 H 467.766 -4.69346 3.53536 0
M  V30 5070 H 469.29 -5.37431 2.89828 0
M  V30 5071 H 470.704 -3.67228 4.40246 0
M  V30 5072 H 469.101 -3.22932 5.05801 0
M  V30 5073 H 470.171 -1.96047 4.43502 0
M  V30 5074 N 471.514 -1.37532 -0.769588 0
M  V30 5075 C 472.447 -1.27839 -1.8903 0
M  V30 5076 C 473.425 -0.158504 -1.61826 0
M  V30 5077 O 474.609 -0.333086 -1.85534 0
M  V30 5078 C 471.736 -0.977072 -3.24301 0
M  V30 5079 C 470.782 -2.11414 -3.70414 0
M  V30 5080 S 471.615 -3.73409 -3.83831 0
M  V30 5081 C 472.771 -3.45432 -5.21946 0
M  V30 5082 H 473.004 -2.22694 -1.96963 0
M  V30 5083 H 470.537 -1.2318 -0.930914 0
M  V30 5084 H 472.495 -0.810049 -4.02428 0
M  V30 5085 H 471.156 -0.0459701 -3.14066 0
M  V30 5086 H 470.349 -1.85837 -4.68488 0
M  V30 5087 H 469.951 -2.24141 -2.99394 0
M  V30 5088 H 472.243 -3.00554 -6.07185 0
M  V30 5089 H 473.186 -4.42841 -5.52537 0
M  V30 5090 H 473.594 -2.80311 -4.89986 0
M  V30 5091 N 472.992 0.995999 -1.22138 0
M  V30 5092 C 473.902 2.11985 -1.00496 0
M  V30 5093 C 474.918 1.7394 0.0457701 0
M  V30 5094 O 476.094 2.00868 -0.146273 0
M  V30 5095 C 473.159 3.41779 -0.582086 0
M  V30 5096 C 472.22 3.93943 -1.70608 0
M  V30 5097 C 471.453 5.17542 -1.30328 0
M  V30 5098 O 471.676 5.70114 -0.180743 0
M  V30 5099 O 470.61 5.63382 -2.11861 0
M  V30 5100 H 474.436 2.33123 -1.94647 0
M  V30 5101 H 472.021 1.10358 -1.00705 0
M  V30 5102 H 473.903 4.1989 -0.356467 0
M  V30 5103 H 472.578 3.22007 0.330592 0
M  V30 5104 H 471.485 3.17019 -1.98619 0
M  V30 5105 H 472.818 4.18141 -2.59651 0
M  V30 5106 N 474.47 1.03057 1.19235 0
M  V30 5107 C 475.42 0.583386 2.2041 0
M  V30 5108 C 476.404 -0.368776 1.56617 0
M  V30 5109 O 477.596 -0.189471 1.75983 0
M  V30 5110 C 474.725 -0.0626534 3.43243 0
M  V30 5111 C 473.811 0.91205 4.14177 0
M  V30 5112 N 474.202 2.07514 4.61272 0
M  V30 5113 C 472.5 0.735859 4.39888 0
M  V30 5114 C 473.201 2.69003 5.15764 0
M  V30 5115 N 472.177 1.96954 5.06666 0
M  V30 5116 H 475.979 1.46988 2.54503 0
M  V30 5117 H 473.493 0.897785 1.35328 0
M  V30 5118 H 475.49 -0.400653 4.1497 0
M  V30 5119 H 474.15 -0.944813 3.1065 0
M  V30 5120 H 475.161 2.45448 4.56043 0
M  V30 5121 H 471.838 -0.0970656 4.17387 0
M  V30 5122 H 473.228 3.67514 5.6248 0
M  V30 5123 N 475.948 -1.35272 0.808662 0
M  V30 5124 C 477.359 -1.81179 0.450688 0
M  V30 5125 C 477.71 -1.67143 -1.02751 0
M  V30 5126 O 476.835 -1.20325 -1.79864 0
M  V30 5127 C 477.43 -3.28943 0.811275 0
M  V30 5128 C 475.989 -3.72985 0.505871 0
M  V30 5129 C 475.136 -2.57229 1.03578 0
M  V30 5130 H 478.087 -1.2322 1.00012 0
M  V30 5131 H 478.108 -3.80342 0.109588 0
M  V30 5132 H 477.62 -3.39127 1.88718 0
M  V30 5133 H 475.721 -3.68349 -0.561209 0
M  V30 5134 H 475.834 -4.67677 1.03995 0
M  V30 5135 H 474.198 -2.50548 0.458005 0
M  V30 5136 H 474.981 -2.7019 2.11784 0
M  V30 5137 N 477.426 -0.562348 -1.47226 0
M  V30 5138 C 478.673 -0.0402165 -2.0246 0
M  V30 5139 C 479.001 1.31169 -1.43614 0
M  V30 5140 O 478.256 1.86805 -0.5833 0
M  V30 5141 C 478.555 0.0969817 -3.57268 0
M  V30 5142 C 478.221 -1.1847 -4.35058 0
M  V30 5143 C 476.883 -1.53588 -4.56031 0
M  V30 5144 C 479.235 -2.03378 -4.79882 0
M  V30 5145 C 476.563 -2.73452 -5.19077 0
M  V30 5146 C 478.915 -3.2245 -5.44251 0
M  V30 5147 C 477.579 -3.57876 -5.63455 0
M  V30 5148 H 476.849 -0.0147163 -0.740854 0
M  V30 5149 H 479.496 -0.734895 -1.76838 0
M  V30 5150 H 477.801 0.87466 -3.81912 0
M  V30 5151 H 479.498 0.516408 -3.97661 0
M  V30 5152 H 476.088 -0.90126 -4.19017 0
M  V30 5153 H 480.272 -1.77553 -4.63453 0
M  V30 5154 H 475.528 -3.01062 -5.32139 0
M  V30 5155 H 479.702 -3.88526 -5.77945 0
M  V30 5156 H 477.329 -4.50849 -6.12078 0
M  V30 5157 N 478.904 1.54736 -0.299062 0
M  V30 5158 C 480.151 2.00101 0.310784 0
M  V30 5159 C 480.479 1.18746 1.54045 0
M  V30 5160 O 479.734 0.251198 1.94081 0
M  V30 5161 C 480.033 3.50199 0.713835 0
M  V30 5162 C 479.699 4.48997 -0.413873 0
M  V30 5163 C 478.361 4.7573 -0.723462 0
M  V30 5164 C 480.713 5.07839 -1.17257 0
M  V30 5165 C 478.041 5.5857 -1.79491 0
M  V30 5166 C 480.393 5.91844 -2.23392 0
M  V30 5167 C 479.057 6.16889 -2.54959 0
M  V30 5168 H 478.327 0.732221 0.113724 0
M  V30 5169 H 480.974 1.86888 -0.417756 0
M  V30 5170 H 479.279 3.61012 1.52243 0
M  V30 5171 H 480.976 3.82723 1.19684 0
M  V30 5172 H 477.566 4.28292 -0.162476 0
M  V30 5173 H 481.75 4.87188 -0.946651 0
M  V30 5174 H 477.006 5.76213 -2.04423 0
M  V30 5175 H 481.18 6.36465 -2.8264 0
M  V30 5176 H 478.807 6.80869 -3.38114 0
M  V30 5177 N 480.382 0.0267497 1.57577 0
M  V30 5178 C 481.61 -0.662661 1.96001 0
M  V30 5179 C 482.025 -1.65799 0.903117 0
M  V30 5180 O 481.382 -1.82135 -0.115317 0
M  V30 5181 C 481.433 -1.37112 3.34488 0
M  V30 5182 O 481.154 -0.415683 4.36123 0
M  V30 5183 C 482.655 -2.15257 3.8753 0
M  V30 5184 H 479.875 -0.18287 0.6456 0
M  V30 5185 H 482.419 0.0858116 2.0432 0
M  V30 5186 H 480.574 -2.07101 3.27395 0
M  V30 5187 H 480.988 -0.918496 5.16395 0
M  V30 5188 H 482.462 -2.60285 4.86781 0
M  V30 5189 H 482.939 -2.99063 3.21649 0
M  V30 5190 H 483.545 -1.50231 3.97883 0
M  V30 5191 N 481.861 -1.55662 -0.24637 0
M  V30 5192 C 482.791 -1.93377 -1.30873 0
M  V30 5193 C 483.772 -0.798773 -1.50179 0
M  V30 5194 O 484.957 -1.0591 -1.62778 0
M  V30 5195 C 482.087 -2.22893 -2.66338 0
M  V30 5196 C 481.041 -3.38649 -2.61727 0
M  V30 5197 C 480.367 -3.53708 -4.00992 0
M  V30 5198 C 481.667 -4.74323 -2.18666 0
M  V30 5199 H 483.361 -2.82363 -0.995552 0
M  V30 5200 H 480.907 -1.35854 -0.477464 0
M  V30 5201 H 482.86 -2.47866 -3.40794 0
M  V30 5202 H 481.584 -1.30733 -2.99293 0
M  V30 5203 H 480.243 -3.13685 -1.89729 0
M  V30 5204 H 479.891 -2.58967 -4.31214 0
M  V30 5205 H 479.591 -4.31551 -3.98795 0
M  V30 5206 H 481.115 -3.81003 -4.77147 0
M  V30 5207 H 482.529 -4.98665 -2.82854 0
M  V30 5208 H 480.926 -5.55273 -2.27579 0
M  V30 5209 H 481.996 -4.71349 -1.13834 0
M  V30 5210 N 483.339 0.512053 -1.4905 0
M  V30 5211 C 484.289 1.61142 -1.61298 0
M  V30 5212 C 485.273 1.53908 -0.46916 0
M  V30 5213 O 486.465 1.61625 -0.721547 0
M  V30 5214 C 483.594 2.998 -1.67256 0
M  V30 5215 C 482.68 3.12072 -2.87179 0
M  V30 5216 N 483.071 2.94263 -4.11391 0
M  V30 5217 C 481.369 3.43156 -2.84886 0
M  V30 5218 C 482.07 3.10426 -4.91946 0
M  V30 5219 N 481.046 3.38808 -4.251 0
M  V30 5220 H 484.848 1.46011 -2.55065 0
M  V30 5221 H 482.362 0.717934 -1.45669 0
M  V30 5222 H 484.359 3.78794 -1.74128 0
M  V30 5223 H 483.019 3.1601 -0.746195 0
M  V30 5224 H 484.03 2.70661 -4.41546 0
M  V30 5225 H 480.707 3.65611 -2.01581 0
M  V30 5226 H 482.097 3.01243 -6.00585 0
M  V30 5227 N 484.817 1.37938 0.762283 0
M  V30 5228 C 485.764 1.34467 1.87583 0
M  V30 5229 C 486.734 0.208633 1.64785 0
M  V30 5230 O 487.919 0.399494 1.86571 0
M  V30 5231 C 485.059 1.16692 3.24772 0
M  V30 5232 C 484.172 2.39608 3.59461 0
M  V30 5233 C 483.307 2.14631 4.85908 0
M  V30 5234 C 482.346 3.33364 5.13357 0
M  V30 5235 N 481.483 3.07877 6.30996 0
M  V30 5236 H 486.323 2.29669 1.89885 0
M  V30 5237 H 483.86 1.14116 0.928219 0
M  V30 5238 H 485.818 1.04405 4.03925 0
M  V30 5239 H 484.448 0.251333 3.2182 0
M  V30 5240 H 483.5 2.626 2.75219 0
M  V30 5241 H 484.812 3.28128 3.75678 0
M  V30 5242 H 483.966 1.99429 5.72986 0
M  V30 5243 H 482.705 1.23463 4.71814 0
M  V30 5244 H 481.71 3.49094 4.24751 0
M  V30 5245 H 482.935 4.25395 5.29354 0
M  V30 5246 H 480.881 2.19348 6.18241 0
M  V30 5247 H 480.798 3.89944 6.47673 0
M  V30 5248 H 482.066 2.96313 7.20985 0
M  V30 5249 N 486.295 -0.989507 1.22664 0
M  V30 5250 C 487.523 -1.76496 1.07967 0
M  V30 5251 C 487.938 -1.85148 -0.369543 0
M  V30 5252 O 487.295 -1.32408 -1.25596 0
M  V30 5253 C 487.346 -3.19642 1.68853 0
M  V30 5254 O 487.067 -3.11453 3.08105 0
M  V30 5255 C 488.568 -4.13621 1.59475 0
M  V30 5256 H 485.788 -0.55418 0.378319 0
M  V30 5257 H 488.332 -1.24378 1.62328 0
M  V30 5258 H 486.487 -3.68816 1.18547 0
M  V30 5259 H 486.901 -4.01499 3.37489 0
M  V30 5260 H 488.375 -5.11801 2.06795 0
M  V30 5261 H 488.852 -4.35718 0.55191 0
M  V30 5262 H 489.458 -3.70346 2.09103 0
M  V30 5263 N 487.773 -1.03688 -1.18687 0
M  V30 5264 C 488.72 -0.624624 -2.22187 0
M  V30 5265 C 489.69 0.365636 -1.62026 0
M  V30 5266 O 490.875 0.260481 -1.89014 0
M  V30 5267 C 488.015 0.0101738 -3.45099 0
M  V30 5268 C 487.128 -1.02709 -4.19613 0
M  V30 5269 C 486.263 -0.361213 -5.2997 0
M  V30 5270 C 485.302 -1.38384 -5.96252 0
M  V30 5271 N 484.439 -0.743196 -6.98155 0
M  V30 5272 H 489.279 -1.51176 -2.56807 0
M  V30 5273 H 486.816 -0.75636 -1.26165 0
M  V30 5274 H 488.774 0.395528 -4.15321 0
M  V30 5275 H 487.404 0.860848 -3.1111 0
M  V30 5276 H 486.456 -1.53043 -3.48256 0
M  V30 5277 H 487.768 -1.80398 -4.65036 0
M  V30 5278 H 486.922 0.0785537 -6.06649 0
M  V30 5279 H 485.661 0.447799 -4.8564 0
M  V30 5280 H 484.666 -1.83378 -5.18317 0
M  V30 5281 H 485.891 -2.19448 -6.42666 0
M  V30 5282 H 483.837 0.0455789 -6.55984 0
M  V30 5283 H 483.754 -1.45784 -7.41811 0
M  V30 5284 H 485.022 -0.327698 -7.78811 0
M  V30 5285 N 489.251 1.34841 -0.815825 0
M  V30 5286 C 490.198 2.29644 -0.230664 0
M  V30 5287 C 491.168 1.53253 0.640533 0
M  V30 5288 O 492.353 1.81653 0.583672 0
M  V30 5289 C 489.493 3.39715 0.607275 0
M  V30 5290 C 488.606 4.31056 -0.28538 0
M  V30 5291 C 487.741 5.28225 0.561446 0
M  V30 5292 C 486.78 6.11204 -0.331035 0
M  V30 5293 N 485.917 7.00483 0.476302 0
M  V30 5294 H 490.757 2.79095 -1.0445 0
M  V30 5295 H 488.294 1.37351 -0.526595 0
M  V30 5296 H 490.252 4.02208 1.10835 0
M  V30 5297 H 488.882 2.91517 1.38629 0
M  V30 5298 H 487.934 3.69487 -0.904621 0
M  V30 5299 H 489.246 4.89239 -0.97193 0
M  V30 5300 H 488.4 5.96135 1.12728 0
M  V30 5301 H 487.139 4.70562 1.28153 0
M  V30 5302 H 486.144 5.42232 -0.909069 0
M  V30 5303 H 487.369 6.70947 -1.04912 0
M  V30 5304 H 485.315 6.45296 1.18019 0
M  V30 5305 H 485.232 7.55847 -0.152008 0
M  V30 5306 H 486.5 7.7273 1.02512 0
M  V30 5307 N 490.729 0.570148 1.46925 0
M  V30 5308 C 491.957 0.0561966 2.06824 0
M  V30 5309 C 492.372 -1.24326 1.42086 0
M  V30 5310 O 491.729 -1.74882 0.521794 0
M  V30 5311 C 491.78 -0.129517 3.61268 0
M  V30 5312 O 491.501 1.1185 4.23581 0
M  V30 5313 C 493.002 -0.679266 4.38065 0
M  V30 5314 H 490.222 0.0517261 0.669003 0
M  V30 5315 H 492.766 0.787243 1.8874 0
M  V30 5316 H 490.921 -0.810739 3.78822 0
M  V30 5317 H 491.335 0.924375 5.1629 0
M  V30 5318 H 492.809 -0.758445 5.46765 0
M  V30 5319 H 493.286 -1.69346 4.05239 0
M  V30 5320 H 493.892 -0.0333237 4.25287 0
M  V30 5321 N 492.207 -1.54576 0.307264 0
M  V30 5322 C 493.484 -1.92377 -0.353605 0
M  V30 5323 C 493.864 -1.23517 -1.71192 0
M  V30 5324 O 493.212 -0.373101 -2.25433 0
M  V30 5325 C 493.422 -3.45928 -0.462039 0
M  V30 5326 C 494.77 -4.18278 -0.729975 0
M  V30 5327 O 495.794 -3.51997 -0.545605 0
M  V30 5328 O 494.653 -5.3563 -1.08454 0
M  V30 5329 H 491.747 -0.802747 -0.198812 0
M  V30 5330 H 494.293 -1.65929 0.355783 0
M  V30 5331 H 493.065 -3.88187 0.492592 0
M  V30 5332 H 492.688 -3.78431 -1.21965 0
M  V30 5333 N 493.685 -0.035106 -1.57561 0
M  V30 5334 C 494.934 0.641604 -1.91223 0
M  V30 5335 C 495.247 1.72944 -0.913761 0
M  V30 5336 O 496.453 2.46321 -1.14185 0
M  V30 5337 C 494.909 1.19249 -3.3957 0
M  V30 5338 C 494.517 0.137616 -4.47789 0
M  V30 5339 C 496.261 1.84537 -3.82291 0
M  V30 5340 C 494.168 0.700478 -5.87237 0
M  V30 5341 H 493.098 0.243417 -0.713627 0
M  V30 5342 H 495.749 -0.101382 -1.8322 0
M  V30 5343 H 494.131 1.98728 -3.42525 0
M  V30 5344 H 495.305 -0.635153 -4.56402 0
M  V30 5345 H 493.62 -0.416855 -4.14308 0
M  V30 5346 H 496.217 2.27616 -4.83834 0
M  V30 5347 H 496.56 2.69054 -3.17672 0
M  V30 5348 H 497.093 1.11739 -3.81784 0
M  V30 5349 H 493.832 -0.106693 -6.55413 0
M  V30 5350 H 493.352 1.4416 -5.82218 0
M  V30 5351 H 495.031 1.18837 -6.35993 0
M  V30 5352 N 495.163 1.55791 0.238111 0
M  V30 5353 C 496.126 1.90239 1.27835 0
M  V30 5354 C 497.126 0.779552 1.4064 0
M  V30 5355 O 498.316 1.04747 1.3919 0
M  V30 5356 C 495.448 2.13859 2.65475 0
M  V30 5357 H 496.641 2.83262 0.985034 0
M  V30 5358 H 494.194 1.48818 0.477799 0
M  V30 5359 H 494.929 1.23334 2.99932 0
M  V30 5360 H 494.714 2.95643 2.57561 0
M  V30 5361 H 496.204 2.41664 3.40571 0
M  V30 5362 N 496.642 -0.504142 1.49319 0
M  V30 5363 C 497.605 -1.5883 1.65244 0
M  V30 5364 C 498.605 -1.52009 0.524386 0
M  V30 5365 O 499.795 -1.55218 0.79077 0
M  V30 5366 C 496.927 -2.98481 1.64687 0
M  V30 5367 H 498.12 -1.4604 2.61939 0
M  V30 5368 H 495.673 -0.728144 1.38303 0
M  V30 5369 H 496.408 -3.16751 0.695644 0
M  V30 5370 H 496.193 -3.0484 2.46607 0
M  V30 5371 H 497.683 -3.77256 1.79075 0
M  V30 5372 N 498.12 -1.38341 -0.754957 0
M  V30 5373 C 499.367 -1.34473 -1.51404 0
M  V30 5374 C 499.695 0.0656458 -1.94389 0
M  V30 5375 O 498.95 1.04244 -1.65625 0
M  V30 5376 C 499.249 -2.2452 -2.78075 0
M  V30 5377 C 498.915 -3.72512 -2.54059 0
M  V30 5378 C 497.577 -4.1284 -2.47218 0
M  V30 5379 C 499.929 -4.66197 -2.33044 0
M  V30 5380 C 497.257 -5.44945 -2.17376 0
M  V30 5381 C 499.609 -5.98558 -2.04723 0
M  V30 5382 C 498.273 -6.37972 -1.96337 0
M  V30 5383 H 497.543 -0.492072 -0.554027 0
M  V30 5384 H 500.19 -1.70687 -0.868223 0
M  V30 5385 H 498.495 -1.81357 -3.473 0
M  V30 5386 H 500.192 -2.18832 -3.36026 0
M  V30 5387 H 496.782 -3.40538 -2.60253 0
M  V30 5388 H 500.966 -4.35888 -2.37309 0
M  V30 5389 H 496.222 -5.74426 -2.09391 0
M  V30 5390 H 500.396 -6.70693 -1.87465 0
M  V30 5391 H 498.023 -7.40258 -1.72978 0
M  V30 5392 N 499.598 0.982988 -1.23187 0
M  V30 5393 C 500.844 1.72648 -1.06398 0
M  V30 5394 C 501.177 1.90066 0.398561 0
M  V30 5395 O 500.452 1.45105 1.29518 0
M  V30 5396 C 500.735 3.12627 -1.78707 0
M  V30 5397 C 500.588 3.02795 -3.32618 0
M  V30 5398 C 501.907 4.11997 -1.54747 0
M  V30 5399 H 499.026 0.626649 -0.387918 0
M  V30 5400 H 501.668 1.14455 -1.51658 0
M  V30 5401 H 499.818 3.62308 -1.40234 0
M  V30 5402 H 501.49 2.60659 -3.80598 0
M  V30 5403 H 499.733 2.39362 -3.61785 0
M  V30 5404 H 500.404 4.01893 -3.78399 0
M  V30 5405 H 502.88 3.71114 -1.88186 0
M  V30 5406 H 501.756 5.08037 -2.07821 0
M  V30 5407 H 502.017 4.39462 -0.482249 0
M  V30 5408 N 501.076 1.04316 1.18135 0
M  V30 5409 C 502.023 0.636398 2.21853 0
M  V30 5410 C 502.993 -0.357039 1.62217 0
M  V30 5411 O 504.178 -0.250453 1.89149 0
M  V30 5412 C 501.318 0.00812779 3.45099 0
M  V30 5413 C 500.431 1.04933 4.19062 0
M  V30 5414 C 499.566 0.389313 5.29771 0
M  V30 5415 C 498.605 1.41544 5.9551 0
M  V30 5416 N 497.742 0.78021 6.97751 0
M  V30 5417 H 502.582 1.52536 2.56002 0
M  V30 5418 H 500.119 0.76304 1.25762 0
M  V30 5419 H 502.077 -0.373497 4.15525 0
M  V30 5420 H 500.707 -0.844336 3.11562 0
M  V30 5421 H 499.759 1.54888 3.47439 0
M  V30 5422 H 501.071 1.82862 4.64072 0
M  V30 5423 H 500.225 -0.0463805 6.06682 0
M  V30 5424 H 498.964 -0.422038 4.8587 0
M  V30 5425 H 497.969 1.86124 5.17337 0
M  V30 5426 H 499.194 2.22854 6.41493 0
M  V30 5427 H 497.14 -0.0107899 6.55999 0
M  V30 5428 H 497.057 1.49716 7.41027 0
M  V30 5429 H 498.325 0.368996 7.78626 0
M  V30 5430 N 502.554 -1.34406 0.822964 0
M  V30 5431 C 503.464 -2.33298 0.246838 0
M  V30 5432 C 504.48 -1.62625 -0.618797 0
M  V30 5433 O 505.656 -1.94391 -0.526685 0
M  V30 5434 C 502.721 -3.41785 -0.581731 0
M  V30 5435 C 501.782 -4.28206 0.306309 0
M  V30 5436 C 501.015 -5.31512 -0.48281 0
M  V30 5437 O 501.238 -5.43973 -1.71607 0
M  V30 5438 O 500.172 -6.01749 0.134884 0
M  V30 5439 H 503.998 -2.84401 1.06534 0
M  V30 5440 H 501.583 -1.37466 0.585108 0
M  V30 5441 H 503.465 -4.08028 -1.05313 0
M  V30 5442 H 502.14 -2.92925 -1.37756 0
M  V30 5443 H 501.047 -3.64885 0.825199 0
M  V30 5444 H 502.38 -4.80507 1.06649 0
M  V30 5445 N 504.032 -0.577932 -1.46621 0
M  V30 5446 C 505.281 -0.0594281 -2.01612 0
M  V30 5447 C 505.594 1.30663 -1.45556 0
M  V30 5448 O 506.8 1.91621 -1.92337 0
M  V30 5449 C 505.256 -0.0556666 -3.59857 0
M  V30 5450 C 504.864 -1.41975 -4.24908 0
M  V30 5451 C 506.608 0.409143 -4.22524 0
M  V30 5452 C 504.515 -1.37397 -5.75218 0
M  V30 5453 H 503.445 -0.0184469 -0.753774 0
M  V30 5454 H 506.096 -0.728869 -1.68404 0
M  V30 5455 H 504.478 0.679843 -3.90121 0
M  V30 5456 H 505.652 -2.17461 -4.0626 0
M  V30 5457 H 503.967 -1.82419 -3.74316 0
M  V30 5458 H 506.564 0.46211 -5.32699 0
M  V30 5459 H 506.907 1.42565 -3.91128 0
M  V30 5460 H 507.44 -0.272152 -3.96868 0
M  V30 5461 H 504.179 -2.36714 -6.11267 0
M  V30 5462 H 503.699 -0.661239 -5.96144 0
M  V30 5463 H 505.378 -1.08484 -6.3784 0
M  V30 5464 N 505.51 1.54411 -0.315457 0
M  V30 5465 C 506.44 2.27002 0.547039 0
M  V30 5466 C 507.421 1.27492 1.12605 0
M  V30 5467 O 508.606 1.5629 1.15269 0
M  V30 5468 C 505.736 3.02171 1.71201 0
M  V30 5469 C 504.69 4.0895 1.26268 0
M  V30 5470 C 504.016 4.71915 2.51396 0
M  V30 5471 C 505.316 5.20891 0.383419 0
M  V30 5472 H 507.01 2.99343 -0.0584517 0
M  V30 5473 H 504.556 1.4397 -0.0295527 0
M  V30 5474 H 506.509 3.51681 2.32161 0
M  V30 5475 H 505.233 2.27433 2.34397 0
M  V30 5476 H 503.892 3.60312 0.676062 0
M  V30 5477 H 503.54 3.93801 3.12937 0
M  V30 5478 H 503.24 5.44039 2.22026 0
M  V30 5479 H 504.764 5.24195 3.13133 0
M  V30 5480 H 506.178 5.66206 0.899082 0
M  V30 5481 H 504.575 5.99821 0.182857 0
M  V30 5482 H 505.645 4.81324 -0.587821 0
M  V30 5483 N 506.988 0.0434614 1.5754 0
M  V30 5484 C 508.236 -0.630786 1.92004 0
M  V30 5485 C 508.557 -1.71836 0.921807 0
M  V30 5486 O 507.827 -1.9587 -0.034522 0
M  V30 5487 H 506.407 -0.235988 0.708745 0
M  V30 5488 H 509.069 0.0946462 1.9467 0
M  V30 5489 H 508.165 -1.07434 2.93026 0
M  V30 5490 N 508.466 -1.55915 -0.229846 0
M  V30 5491 C 509.376 -1.94891 -1.30593 0
M  V30 5492 C 510.392 -0.851604 -1.51736 0
M  V30 5493 O 511.568 -1.15447 -1.65027 0
M  V30 5494 C 508.633 -2.25052 -2.63728 0
M  V30 5495 C 507.694 -3.48306 -2.5096 0
M  V30 5496 C 506.927 -3.77019 -3.77747 0
M  V30 5497 O 507.15 -3.07534 -4.80395 0
M  V30 5498 O 506.084 -4.70523 -3.75356 0
M  V30 5499 H 509.91 -2.86581 -1.00525 0
M  V30 5500 H 507.495 -1.43017 -0.432025 0
M  V30 5501 H 509.377 -2.45682 -3.42372 0
M  V30 5502 H 508.052 -1.36538 -2.93495 0
M  V30 5503 H 506.959 -3.32964 -1.70546 0
M  V30 5504 H 508.292 -4.37177 -2.26136 0
M  V30 5505 N 509.944 0.496216 -1.49584 0
M  V30 5506 C 511.221 1.25755 -1.49816 0
M  V30 5507 C 511.601 2.09859 -0.228572 0
M  V30 5508 O 510.949 2.14449 0.788908 0
M  V30 5509 C 511.159 2.11017 -2.7798 0
M  V30 5510 C 512.507 2.70047 -3.27658 0
M  V30 5511 O 513.531 2.21281 -2.79129 0
M  V30 5512 O 512.39 3.58834 -4.1219 0
M  V30 5513 H 509.484 0.569322 -0.599834 0
M  V30 5514 H 512.03 0.510094 -1.61852 0
M  V30 5515 H 510.802 1.48879 -3.61871 0
M  V30 5516 H 510.425 2.92947 -2.68827 0
M  V30 5517 N 511.423 1.38739 0.74761 0
M  V30 5518 C 512.648 1.38702 1.54197 0
M  V30 5519 C 513.073 -0.019664 1.8809 0
M  V30 5520 O 512.431 -1.00333 1.51006 0
M  V30 5521 C 512.479 2.25492 2.814 0
M  V30 5522 O 511.583 1.67613 3.76802 0
M  V30 5523 H 510.924 0.472863 0.466151 0
M  V30 5524 H 513.454 1.82577 0.923413 0
M  V30 5525 H 513.464 2.39561 3.30264 0
M  V30 5526 H 512.139 3.27727 2.56062 0
M  V30 5527 H 510.716 1.62718 3.35526 0
M  V30 5528 O 512.94 -0.888371 1.34871 0
M  V30 5529 H 513.631 -1.52504 1.19424 0
M  V30 END ATOM
M  V30 BEGIN BOND
M  V30 END BOND
M  V30 END CTAB
M  END
$$$$
