drugbank_target|P46782 40S ribosomal protein S5 (DB11638)
 OpenBabel12092121093D

  0  0  0     0  0            999 V3000
M  V30 BEGIN CTAB
M  V30 COUNTS 3259 3284 0 0 0
M  V30 BEGIN ATOM
M  V30 1 H -0.908 1.98254 -0.117106 0
M  V30 2 N 0 1.576 0 0
M  V30 3 C 0.933 2.03868 1.02534 0
M  V30 4 C 1.911 0.928543 1.3348 0
M  V30 5 O 3.095 1.19667 1.45644 0
M  V30 6 C 0.222 2.43627 2.35294 0
M  V30 7 C -0.732 3.65373 2.2001 0
M  V30 8 S 0.101 5.13292 1.52614 0
M  V30 9 C 1.257 5.56322 2.86805 0
M  V30 10 H 1.49 2.90518 0.631377 0
M  V30 11 H -0.977 1.52953 0.210867 0
M  V30 12 H 0.981 2.67203 3.11629 0
M  V30 13 H -0.358 1.57376 2.7183 0
M  V30 14 H -1.165 3.90944 3.18086 0
M  V30 15 H -1.563 3.418 1.51819 0
M  V30 16 H 0.729 5.58782 3.83104 0
M  V30 17 H 1.672 6.56266 2.65933 0
M  V30 18 H 2.08 4.83886 2.90714 0
M  V30 19 N 1.4781 -0.272755 1.55222 0
M  V30 20 C 2.7061 -1.02255 1.79865 0
M  V30 21 C 3.1211 -1.79924 0.572088 0
M  V30 22 O 2.4781 -1.76638 -0.458842 0
M  V30 23 C 2.5291 -1.98094 3.02392 0
M  V30 24 O 2.2501 -1.23572 4.20311 0
M  V30 25 C 3.7511 -2.84884 3.39641 0
M  V30 26 H 0.9711 -0.302057 0.599168 0
M  V30 27 H 3.5151 -0.303465 2.02236 0
M  V30 28 H 1.6701 -2.65465 2.82147 0
M  V30 29 H 2.0841 -1.88172 4.89583 0
M  V30 30 H 3.5581 -3.47927 4.28545 0
M  V30 31 H 4.0351 -3.54665 2.59055 0
M  V30 32 H 4.6411 -2.23003 3.62146 0
M  V30 33 N 2.9562 -1.48159 -0.537278 0
M  V30 34 C 3.8662 -1.64807 -1.6696 0
M  V30 35 C 4.8822 -0.530651 -1.65711 0
M  V30 36 O 6.0582 -0.800784 -1.84796 0
M  V30 37 C 3.1232 -1.67708 -3.03438 0
M  V30 38 C 2.1842 -2.91025 -3.156 0
M  V30 39 C 1.4172 -2.93778 -4.45567 0
M  V30 40 O 1.6402 -2.05153 -5.3223 0
M  V30 41 O 0.5742 -3.85868 -4.61941 0
M  V30 42 H 4.4002 -2.6066 -1.55853 0
M  V30 43 H 1.9852 -1.31475 -0.709549 0
M  V30 44 H 3.8672 -1.7218 -3.84619 0
M  V30 45 H 2.5422 -0.750278 -3.14885 0
M  V30 46 H 1.4492 -2.92089 -2.33741 0
M  V30 47 H 2.7822 -3.83065 -3.09066 0
M  V30 48 N 4.4343 0.785586 -1.36625 0
M  V30 49 C 5.6803 1.5452 -1.32269 0
M  V30 50 C 6.0353 1.92159 0.0962266 0
M  V30 51 O 5.3283 1.60158 1.05167 0
M  V30 52 C 5.5223 2.83007 -2.1827 0
M  V30 53 C 5.3513 2.57925 -3.68382 0
M  V30 54 C 4.1213 2.52752 -4.37544 0
M  V30 55 C 6.3193 2.26861 -4.61561 0
M  V30 56 N 4.3013 2.19608 -5.73276 0
M  V30 57 C 5.6723 2.03738 -5.85569 0
M  V30 58 C 7.7273 2.129 -4.50087 0
M  V30 59 C 6.4303 1.68065 -6.9939 0
M  V30 60 C 8.4563 1.78626 -5.63779 0
M  V30 61 C 7.8183 1.56353 -6.86828 0
M  V30 62 H 3.9173 0.566301 -0.539283 0
M  V30 63 H 6.5013 0.917736 -1.71714 0
M  V30 64 H 4.6723 3.43614 -1.81063 0
M  V30 65 H 6.4043 3.48775 -2.05275 0
M  V30 66 H 3.1593 2.6813 -3.90389 0
M  V30 67 H 3.5833 2.05771 -6.44971 0
M  V30 68 H 8.2253 2.28808 -3.55537 0
M  V30 69 H 5.9433 1.50895 -7.93887 0
M  V30 70 H 9.5293 1.68502 -5.56865 0
M  V30 71 H 8.4093 1.30223 -7.73312 0
M  V30 72 N 5.9124 1.20967 1.01018 0
M  V30 73 C 6.8224 0.980157 2.13143 0
M  V30 74 C 7.8384 -0.0660665 1.73875 0
M  V30 75 O 9.0144 0.122821 2.01025 0
M  V30 76 C 6.0794 0.54216 3.42435 0
M  V30 77 C 5.1404 1.65999 3.95908 0
M  V30 78 C 4.3734 1.2428 5.19028 0
M  V30 79 O 4.5964 0.114196 5.70286 0
M  V30 80 O 3.5304 2.05271 5.65816 0
M  V30 81 H 7.3564 1.91913 2.35379 0
M  V30 82 H 4.9414 0.994099 1.11526 0
M  V30 83 H 6.8234 0.30744 4.20277 0
M  V30 84 H 5.4984 -0.36815 3.216 0
M  V30 85 H 4.4054 1.94906 3.19316 0
M  V30 86 H 5.7384 2.54753 4.21143 0
M  V30 87 N 7.3905 -1.2043 1.01659 0
M  V30 88 C 8.6185 -1.93777 0.725132 0
M  V30 89 C 9.0335 -1.74772 -0.714166 0
M  V30 90 O 8.3905 -1.06169 -1.4844 0
M  V30 91 C 8.4415 -3.45876 1.05129 0
M  V30 92 O 8.1625 -3.6426 2.43406 0
M  V30 93 C 9.6635 -4.36368 0.780891 0
M  V30 94 H 6.8835 -0.615901 0.266284 0
M  V30 95 H 9.4275 -1.52922 1.35776 0
M  V30 96 H 7.5825 -3.8461 0.464065 0
M  V30 97 H 7.9965 -4.58246 2.55169 0
M  V30 98 H 9.4705 -5.41743 1.05918 0
M  V30 99 H 9.9475 -4.38275 -0.284937 0
M  V30 100 H 10.5535 -4.03296 1.35027 0
M  V30 101 N 8.8686 -0.792821 -1.36206 0
M  V30 102 C 9.8316 -0.199459 -2.2833 0
M  V30 103 C 10.8316 0.605189 -1.48977 0
M  V30 104 O 12.0216 0.425685 -1.68919 0
M  V30 105 C 9.1536 0.723523 -3.33134 0
M  V30 106 H 10.3466 -1.01181 -2.82316 0
M  V30 107 H 7.8996 -0.562485 -1.45828 0
M  V30 108 H 8.6346 1.56008 -2.84309 0
M  V30 109 H 8.4196 0.148436 -3.91819 0
M  V30 110 H 9.9096 1.13344 -4.01924 0
M  V30 111 N 10.3467 1.47872 -0.545128 0
M  V30 112 C 11.3097 2.28337 0.198717 0
M  V30 113 C 12.3097 1.36255 0.853888 0
M  V30 114 O 13.4997 1.59003 0.711606 0
M  V30 115 C 10.6317 3.15585 1.28915 0
M  V30 116 H 11.8247 2.95567 -0.507941 0
M  V30 117 H 9.3777 1.53362 -0.301616 0
M  V30 118 H 10.1127 2.53019 2.02859 0
M  V30 119 H 9.8977 3.83337 0.824309 0
M  V30 120 H 11.3877 3.76243 1.81194 0
M  V30 121 N 11.8248 0.280983 1.55075 0
M  V30 122 C 13.2358 -0.215629 1.85451 0
M  V30 123 C 13.5868 -1.54991 1.203 0
M  V30 124 O 12.7118 -2.10699 0.493435 0
M  V30 125 C 13.3068 -0.398026 3.36454 0
M  V30 126 C 11.8658 -0.838866 3.66933 0
M  V30 127 C 11.0128 0.064458 2.77225 0
M  V30 128 H 13.9638 0.502601 1.50531 0
M  V30 129 H 13.9848 -1.23569 3.59876 0
M  V30 130 H 13.4968 0.573241 3.83843 0
M  V30 131 H 11.5978 -1.8214 3.25048 0
M  V30 132 H 11.7108 -0.672123 4.74362 0
M  V30 133 H 10.0748 -0.452863 2.50642 0
M  V30 134 H 10.8578 1.03172 3.2743 0
M  V30 135 N 13.3029 -1.57598 0.00835791 0
M  V30 136 C 14.2659 -2.07884 -0.965242 0
M  V30 137 C 15.2659 -0.989825 -1.26725 0
M  V30 138 O 16.4559 -1.25218 -1.21104 0
M  V30 139 C 13.5879 -2.52731 -2.28779 0
M  V30 140 H 14.7809 -2.95178 -0.530112 0
M  V30 141 H 12.3339 -1.54458 -0.239283 0
M  V30 142 H 13.0689 -1.68705 -2.76964 0
M  V30 143 H 12.8539 -3.32272 -2.08177 0
M  V30 144 H 14.3439 -2.91933 -2.98605 0
M  V30 145 N 14.781 0.264519 -1.55364 0
M  V30 146 C 16.027 0.99646 -1.76631 0
M  V30 147 C 16.36 1.85632 -0.570478 0
M  V30 148 O 15.635 1.89647 0.43175 0
M  V30 149 C 15.918 1.87187 -3.07625 0
M  V30 150 C 15.771 1.04138 -4.37579 0
M  V30 151 C 17.09 2.85749 -3.34717 0
M  V30 152 H 14.209 0.360841 -0.642622 0
M  V30 153 H 16.851 0.268218 -1.88097 0
M  V30 154 H 15.001 2.49279 -2.9798 0
M  V30 155 H 16.673 0.440517 -4.59192 0
M  V30 156 H 14.916 0.345115 -4.32425 0
M  V30 157 H 15.587 1.68729 -5.2558 0
M  V30 158 H 18.063 2.33793 -3.4421 0
M  V30 159 H 16.939 3.44136 -4.27623 0
M  V30 160 H 17.2 3.61311 -2.54768 0
M  V30 161 N 16.2591 1.48442 0.529413 0
M  V30 162 C 17.2221 1.62524 1.61612 0
M  V30 163 C 18.2221 0.498509 1.52877 0
M  V30 164 O 19.4121 0.76431 1.56537 0
M  V30 165 C 16.5441 1.59597 3.01233 0
M  V30 166 H 17.7371 2.59423 1.50465 0
M  V30 167 H 15.2901 1.37047 0.751514 0
M  V30 168 H 16.0251 0.641781 3.17886 0
M  V30 169 H 15.8101 2.41397 3.08982 0
M  V30 170 H 17.3001 1.72646 3.80241 0
M  V30 171 N 17.7372 -0.778329 1.37039 0
M  V30 172 C 18.6472 -1.92253 1.34446 0
M  V30 173 C 19.6632 -1.72267 0.244991 0
M  V30 174 O 20.8392 -1.95615 0.479258 0
M  V30 175 C 17.9042 -3.27282 1.144 0
M  V30 176 C 16.9652 -3.59969 2.33925 0
M  V30 177 C 16.1982 -4.88555 2.14825 0
M  V30 178 O 16.4212 -5.59113 1.12912 0
M  V30 179 O 15.3552 -5.20153 3.02861 0
M  V30 180 H 19.1812 -1.97392 2.30803 0
M  V30 181 H 16.7662 -0.920154 1.17701 0
M  V30 182 H 18.6482 -4.08062 1.05182 0
M  V30 183 H 17.3232 -3.23011 0.211124 0
M  V30 184 H 16.2302 -2.7945 2.48714 0
M  V30 185 H 17.5632 -3.68976 3.25757 0
M  V30 186 N 19.2153 -1.21501 -1.00376 0
M  V30 187 C 20.4433 -1.059 -1.77744 0
M  V30 188 C 20.8583 0.391125 -1.84704 0
M  V30 189 O 20.2153 1.27133 -1.30933 0
M  V30 190 C 20.2663 -1.65111 -3.21591 0
M  V30 191 O 19.9873 -3.0445 -3.15027 0
M  V30 192 C 21.4883 -1.54637 -4.15454 0
M  V30 193 H 18.7083 -0.371825 -0.558558 0
M  V30 194 H 21.2523 -1.60865 -1.26264 0
M  V30 195 H 19.4073 -1.14235 -3.70175 0
M  V30 196 H 19.8213 -3.3278 -4.0541 0
M  V30 197 H 21.2953 -2.00808 -5.14179 0
M  V30 198 H 21.7723 -0.501022 -4.36333 0
M  V30 199 H 22.3783 -2.04767 -3.72761 0
M  V30 200 N 20.6934 1.19889 -1.02296 0
M  V30 201 C 22.1044 1.71124 -0.746568 0
M  V30 202 C 22.4554 1.81939 0.734335 0
M  V30 203 O 21.5804 1.48639 1.57275 0
M  V30 204 C 22.1754 3.10804 -1.34857 0
M  V30 205 C 20.7344 3.59323 -1.1209 0
M  V30 206 C 19.8814 2.3635 -1.45031 0
M  V30 207 H 22.8324 1.04813 -1.19163 0
M  V30 208 H 22.8534 3.73186 -0.742437 0
M  V30 209 H 22.3654 3.029 -2.42638 0
M  V30 210 H 20.4664 3.7255 -0.0610337 0
M  V30 211 H 20.5794 4.4378 -1.80544 0
M  V30 212 H 18.9434 2.39399 -0.869487 0
M  V30 213 H 19.7264 2.31081 -2.53883 0
M  V30 214 N 22.1715 0.800033 1.35784 0
M  V30 215 C 23.4485 0.30088 1.93272 0
M  V30 216 C 23.8285 -1.20857 1.73081 0
M  V30 217 O 23.1765 -2.00502 1.09596 0
M  V30 218 C 23.3865 0.70511 3.41803 0
M  V30 219 C 24.7345 0.690871 4.18942 0
M  V30 220 O 25.7585 0.646244 3.50289 0
M  V30 221 O 24.6175 0.74332 5.41421 0
M  V30 222 H 21.7115 0.0771605 0.823393 0
M  V30 223 H 24.2575 0.88329 1.449 0
M  V30 224 H 23.0295 1.74571 3.50201 0
M  V30 225 H 22.6525 0.0971541 3.97481 0
M  V30 226 N 23.6496 -1.47581 0.552962 0
M  V30 227 C 24.8986 -2.01684 0.0251995 0
M  V30 228 C 25.2116 -1.43317 -1.33115 0
M  V30 229 O 26.4176 -1.89057 -1.94858 0
M  V30 230 C 24.8736 -3.599 -0.00542052 0
M  V30 231 C 24.4816 -4.27257 1.34742 0
M  V30 232 C 26.2256 -4.21768 -0.4808 0
M  V30 233 C 24.1326 -5.77467 1.27614 0
M  V30 234 H 23.0626 -0.753979 0.00565033 0
M  V30 235 H 25.7136 -1.69616 0.70018 0
M  V30 236 H 24.0956 -3.88911 -0.745961 0
M  V30 237 H 25.2696 -4.09893 2.10534 0
M  V30 238 H 23.5846 -3.77358 1.76039 0
M  V30 239 H 26.1816 -5.31838 -0.55246 0
M  V30 240 H 26.5246 -3.88651 -1.49184 0
M  V30 241 H 27.0576 -3.97273 0.204752 0
M  V30 242 H 23.7966 -6.15196 2.26304 0
M  V30 243 H 23.3166 -5.9718 0.55996 0
M  V30 244 H 24.9956 -6.3959 0.976421 0
M  V30 245 N 25.1277 -0.289203 -1.54924 0
M  V30 246 C 26.0747 0.592115 -2.23075 0
M  V30 247 C 27.0447 1.13881 -1.20915 0
M  V30 248 O 28.2297 1.18551 -1.495 0
M  V30 249 C 25.3697 1.76376 -2.96623 0
M  V30 250 C 24.4827 1.24959 -4.13533 0
M  V30 251 C 23.6177 2.38416 -4.74691 0
M  V30 252 C 22.6567 1.84072 -5.83767 0
M  V30 253 N 21.7937 2.91057 -6.38929 0
M  V30 254 H 26.6337 0.00432038 -2.98 0
M  V30 255 H 24.1707 -0.00963529 -1.47097 0
M  V30 256 H 26.1287 2.45268 -3.3749 0
M  V30 257 H 24.7587 2.32337 -2.24097 0
M  V30 258 H 23.8107 0.453307 -3.77689 0
M  V30 259 H 25.1227 0.811662 -4.92152 0
M  V30 260 H 24.2767 3.15276 -5.18349 0
M  V30 261 H 23.0157 2.8553 -3.95378 0
M  V30 262 H 22.0207 1.05697 -5.39545 0
M  V30 263 H 23.2457 1.37877 -6.64956 0
M  V30 264 H 21.1917 3.37526 -5.62505 0
M  V30 265 H 21.1087 2.51724 -7.12861 0
M  V30 266 H 22.3767 3.6785 -6.87246 0
M  V30 267 N 26.6058 1.57591 -0.0167156 0
M  V30 268 C 27.5358 2.12496 0.967858 0
M  V30 269 C 28.5168 1.03807 1.34752 0
M  V30 270 O 29.7018 1.31577 1.42833 0
M  V30 271 C 26.8318 2.64194 2.25431 0
M  V30 272 C 25.7858 3.77559 2.01576 0
M  V30 273 C 25.1118 4.15636 3.36379 0
M  V30 274 C 26.4118 5.04151 1.36489 0
M  V30 275 H 28.1058 2.95013 0.510643 0
M  V30 276 H 25.6518 1.41915 0.244181 0
M  V30 277 H 27.6048 3.01236 2.94678 0
M  V30 278 H 26.3288 1.78821 2.73296 0
M  V30 279 H 24.9878 3.40937 1.34751 0
M  V30 280 H 24.6358 3.27263 3.81979 0
M  V30 281 H 24.3358 4.92022 3.21229 0
M  V30 282 H 25.8598 4.5525 4.06915 0
M  V30 283 H 27.2738 5.38857 1.95718 0
M  V30 284 H 25.6708 5.85453 1.31776 0
M  V30 285 H 26.7408 4.83733 0.336219 0
M  V30 286 N 28.0839 -0.256276 1.55502 0
M  V30 287 C 29.3309 -0.985619 1.76895 0
M  V30 288 C 29.6589 -1.85671 0.579355 0
M  V30 289 O 28.9139 -1.90744 -0.437651 0
M  V30 290 C 29.2129 -1.88432 3.03691 0
M  V30 291 C 28.8789 -1.16936 4.35473 0
M  V30 292 C 27.5409 -0.97173 4.71286 0
M  V30 293 C 29.8929 -0.661889 5.1698 0
M  V30 294 C 27.2209 -0.254179 5.86149 0
M  V30 295 C 29.5729 0.042149 6.32586 0
M  V30 296 C 28.2369 0.25134 6.67027 0
M  V30 297 H 27.5069 -0.360663 0.647304 0
M  V30 298 H 30.1539 -0.256483 1.89775 0
M  V30 299 H 28.4589 -2.68021 2.85783 0
M  V30 300 H 30.1559 -2.45015 3.1744 0
M  V30 301 H 26.7459 -1.33332 4.07333 0
M  V30 302 H 30.9299 -0.802145 4.89775 0
M  V30 303 H 26.1859 -0.0815408 6.11346 0
M  V30 304 H 30.3599 0.443049 6.94989 0
M  V30 305 H 27.9869 0.809314 7.5588 0
M  V30 306 N 29.562 -1.4872 -0.521534 0
M  V30 307 C 30.81 -1.56857 -1.27437 0
M  V30 308 C 31.131 -0.247982 -1.93417 0
M  V30 309 O 30.401 0.731151 -1.81744 0
M  V30 310 H 28.981 -0.577885 -0.473347 0
M  V30 311 H 31.643 -1.85233 -0.606205 0
M  V30 312 H 30.739 -2.35402 -2.0492 0
M  V30 313 N 31.0401 0.771051 -1.3745 0
M  V30 314 C 31.9871 1.88435 -1.3327 0
M  V30 315 C 32.9571 1.64914 -0.198136 0
M  V30 316 O 34.1421 1.86821 -0.387606 0
M  V30 317 C 31.2821 3.25509 -1.14622 0
M  V30 318 C 30.3951 3.60979 -2.37314 0
M  V30 319 C 29.5301 4.87265 -2.11533 0
M  V30 320 C 28.5691 5.15469 -3.30088 0
M  V30 321 N 27.7061 6.32944 -3.03853 0
M  V30 322 H 32.5461 1.91344 -2.28455 0
M  V30 323 H 30.0831 0.935466 -1.13523 0
M  V30 324 H 32.0411 4.04582 -1.01831 0
M  V30 325 H 30.6711 3.21974 -0.230837 0
M  V30 326 H 29.7231 2.76885 -2.60842 0
M  V30 327 H 31.0351 3.77759 -3.25729 0
M  V30 328 H 30.1891 5.74244 -1.95777 0
M  V30 329 H 28.9281 4.7259 -1.20457 0
M  V30 330 H 27.9331 4.26966 -3.46382 0
M  V30 331 H 29.1581 5.32052 -4.22016 0
M  V30 332 H 27.1041 6.19625 -2.15407 0
M  V30 333 H 27.0211 6.50143 -3.85812 0
M  V30 334 H 28.2891 7.22857 -2.91716 0
M  V30 335 N 32.5182 1.22032 0.997298 0
M  V30 336 C 33.7642 1.05382 1.73972 0
M  V30 337 C 34.1192 -0.407419 1.88037 0
M  V30 338 O 33.4122 -1.29811 1.40924 0
M  V30 339 C 33.6062 1.69345 3.14733 0
M  V30 340 C 33.4352 3.21537 3.14395 0
M  V30 341 C 32.2052 3.9062 3.20537 0
M  V30 342 C 34.4032 4.18527 2.98897 0
M  V30 343 N 32.3852 5.29935 3.09906 0
M  V30 344 C 33.7562 5.44645 2.96247 0
M  V30 345 C 35.8112 4.09476 2.83255 0
M  V30 346 C 34.5142 6.62752 2.79557 0
M  V30 347 C 36.5402 5.27228 2.67926 0
M  V30 348 C 35.9022 6.52262 2.65959 0
M  V30 349 H 32.0012 0.440018 0.646458 0
M  V30 350 H 34.5852 1.54505 1.18475 0
M  V30 351 H 32.7562 1.22778 3.68484 0
M  V30 352 H 34.4882 1.45828 3.77513 0
M  V30 353 H 31.2432 3.41592 3.28043 0
M  V30 354 H 31.6672 6.02926 3.07912 0
M  V30 355 H 36.3092 3.13598 2.83577 0
M  V30 356 H 34.0272 7.58783 2.77982 0
M  V30 357 H 37.6132 5.22053 2.56812 0
M  V30 358 H 36.4932 7.41844 2.54239 0
M  V30 359 N 33.9963 -1.19345 1.0293 0
M  V30 360 C 35.2213 -1.93538 0.745511 0
M  V30 361 C 35.6463 -1.75007 -0.689511 0
M  V30 362 O 35.0043 -1.05265 -1.47611 0
M  V30 363 C 35.0523 -3.43336 1.10239 0
M  V30 364 O 34.1563 -4.11806 0.221289 0
M  V30 365 H 33.4973 -0.604193 0.275404 0
M  V30 366 H 36.0273 -1.5141 1.37609 0
M  V30 367 H 36.0373 -3.94004 1.05947 0
M  V30 368 H 34.7123 -3.56146 2.14786 0
M  V30 369 H 33.2893 -3.715 0.322842 0
M  V30 370 N 35.4744 -0.807222 -1.35358 0
M  V30 371 C 36.7024 -0.400377 -2.02989 0
M  V30 372 C 37.1174 0.988859 -1.60832 0
M  V30 373 O 36.4744 1.63729 -0.806175 0
M  V30 374 C 36.5254 -0.474867 -3.58368 0
M  V30 375 O 36.2464 -1.80933 -3.98992 0
M  V30 376 C 37.7474 -0.0609112 -4.43258 0
M  V30 377 H 34.9674 -0.162587 -0.651004 0
M  V30 378 H 37.5114 -1.09102 -1.72965 0
M  V30 379 H 35.6664 0.167534 -3.87038 0
M  V30 380 H 36.0804 -1.77256 -4.9364 0
M  V30 381 H 37.5544 -0.164145 -5.51756 0
M  V30 382 H 38.0314 0.993831 -4.27808 0
M  V30 383 H 38.6374 -0.676492 -4.19885 0
M  V30 384 N 36.9525 1.47285 -0.560781 0
M  V30 385 C 38.2295 1.9558 0.0277798 0
M  V30 386 C 38.6095 1.5034 1.48192 0
M  V30 387 O 37.9575 0.743882 2.16052 0
M  V30 388 C 38.1675 3.48789 -0.121418 0
M  V30 389 C 39.5155 4.24594 0.0220912 0
M  V30 390 O 40.5395 3.56166 -0.0491439 0
M  V30 391 O 39.3985 5.46217 0.175958 0
M  V30 392 H 36.4925 0.824663 0.0621342 0
M  V30 393 H 39.0385 1.5767 -0.627556 0
M  V30 394 H 37.8105 3.74533 -1.13316 0
M  V30 395 H 37.4335 3.93473 0.571366 0
M  V30 396 N 38.4306 0.297415 1.54768 0
M  V30 397 C 39.7076 -0.365847 1.92148 0
M  V30 398 C 40.0876 -1.71975 1.22424 0
M  V30 399 O 39.4356 -2.25666 0.358739 0
M  V30 400 C 39.6456 -0.484056 3.45627 0
M  V30 401 C 40.9936 -0.756594 4.17805 0
M  V30 402 O 42.0176 -0.568007 3.51642 0
M  V30 403 O 40.8766 -1.11863 5.34929 0
M  V30 404 H 37.9706 -0.203919 0.801465 0
M  V30 405 H 40.5166 0.34521 1.66152 0
M  V30 406 H 39.2886 0.467865 3.88493 0
M  V30 407 H 38.9116 -1.24372 3.77647 0
M  V30 408 N 39.9087 -1.5758 0.0250728 0
M  V30 409 C 41.1547 -1.91917 -0.655413 0
M  V30 410 C 41.4877 -0.901433 -1.72011 0
M  V30 411 O 40.7627 0.0764069 -1.9435 0
M  V30 412 C 41.0457 -3.36751 -1.27558 0
M  V30 413 C 40.8987 -4.49258 -0.220719 0
M  V30 414 C 42.2177 -3.81469 -2.19475 0
M  V30 415 H 39.3367 -0.697925 -0.23679 0
M  V30 416 H 41.9787 -1.89825 0.0815036 0
M  V30 417 H 40.1287 -3.38664 -1.90365 0
M  V30 418 H 41.8007 -4.59478 0.409601 0
M  V30 419 H 40.0437 -4.31415 0.454264 0
M  V30 420 H 40.7147 -5.47618 -0.694175 0
M  V30 421 H 43.1907 -3.81266 -1.66659 0
M  V30 422 H 42.0667 -4.83512 -2.59822 0
M  V30 423 H 42.3277 -3.16744 -3.08424 0
M  V30 424 N 41.3868 0.248026 -1.55636 0
M  V30 425 C 42.3188 1.32993 -1.8667 0
M  V30 426 C 43.3318 1.44345 -0.752877 0
M  V30 427 O 44.5208 1.45715 -1.03098 0
M  V30 428 C 41.6208 2.70863 -2.03682 0
M  V30 429 C 40.7938 2.81792 -3.34532 0
M  V30 430 C 39.8528 4.005 -3.41301 0
M  V30 431 O 38.8788 3.9008 -4.14519 0
M  V30 432 N 40.0808 5.13618 -2.70512 0
M  V30 433 H 42.8458 1.06707 -2.8006 0
M  V30 434 H 40.4068 0.438129 -1.55859 0
M  V30 435 H 42.3988 3.48612 -2.05553 0
M  V30 436 H 40.9688 2.89862 -1.17041 0
M  V30 437 H 40.1888 1.90729 -3.44987 0
M  V30 438 H 41.4768 2.86043 -4.20781 0
M  V30 439 H 40.8748 5.24975 -2.10755 0
M  V30 440 H 39.4318 5.89505 -2.78077 0
M  V30 441 N 42.8649 1.48995 0.513639 0
M  V30 442 C 44.1139 1.57093 1.2651 0
M  V30 443 C 44.4269 0.257091 1.93903 0
M  V30 444 O 45.6329 0.216478 2.70636 0
M  V30 445 C 44.0889 2.77118 2.29638 0
M  V30 446 C 43.6969 4.15209 1.68241 0
M  V30 447 C 45.4409 2.94538 3.05692 0
M  V30 448 C 43.3479 5.26474 2.69406 0
M  V30 449 H 42.2779 0.584876 0.475854 0
M  V30 450 H 44.9289 1.7536 0.540487 0
M  V30 451 H 43.3109 2.52319 3.05207 0
M  V30 452 H 44.4849 4.50094 0.987505 0
M  V30 453 H 42.7999 4.03042 1.04623 0
M  V30 454 H 45.3969 3.74832 3.8132 0
M  V30 455 H 45.7399 2.04614 3.62545 0
M  V30 456 H 46.2729 3.19316 2.37238 0
M  V30 457 H 43.0119 6.18417 2.17351 0
M  V30 458 H 42.5319 4.96058 3.37175 0
M  V30 459 H 44.2109 5.55277 3.32078 0
M  V30 460 N 44.343 -0.763751 1.37857 0
M  V30 461 C 45.291 -1.89864 1.34367 0
M  V30 462 C 46.285 -1.67816 0.231143 0
M  V30 463 O 47.491 -1.75508 0.399617 0
M  V30 464 H 43.866 -0.624501 0.41893 0
M  V30 465 H 45.837 -1.89925 2.30155 0
M  V30 466 C 44.586 -3.27227 1.1755 0
M  V30 467 H 43.909 -3.44773 2.02414 0
M  V30 468 H 45.349 -4.06911 1.1916 0
M  V30 469 C 43.808 -3.36692 -0.118311 0
M  V30 470 O 44.338 -3.86374 -1.09902 0
M  V30 471 N 42.544 -2.90092 -0.171717 0
M  V30 472 H 42.091 -2.49853 0.627012 0
M  V30 473 H 42.049 -2.96806 -1.03699 0
M  V30 474 N 45.8211 -1.22559 -0.990812 0
M  V30 475 C 47.0981 -0.959875 -1.70428 0
M  V30 476 C 47.4781 0.524455 -2.04481 0
M  V30 477 O 46.8261 1.49302 -1.72977 0
M  V30 478 C 47.0361 -1.85955 -2.95333 0
M  V30 479 C 48.3841 -2.11687 -3.68068 0
M  V30 480 O 49.4081 -1.8342 -3.05345 0
M  V30 481 O 48.2671 -2.59572 -4.80921 0
M  V30 482 H 45.3611 -0.361154 -0.743974 0
M  V30 483 H 47.9071 -1.33554 -1.04697 0
M  V30 484 H 46.6791 -2.86346 -2.66687 0
M  V30 485 H 46.3021 -1.4856 -3.68803 0
M  V30 486 N 47.2992 1.18797 -1.03562 0
M  V30 487 C 48.5482 1.87978 -0.731235 0
M  V30 488 C 48.8612 1.80911 0.743671 0
M  V30 489 O 50.0672 2.45407 1.16137 0
M  V30 490 C 48.5232 3.3721 -1.25768 0
M  V30 491 C 48.1312 3.52818 -2.76085 0
M  V30 492 C 49.8752 4.11825 -1.0296 0
M  V30 493 C 47.7822 4.9598 -3.22114 0
M  V30 494 H 46.7122 0.704063 -0.269835 0
M  V30 495 H 49.3632 1.34266 -1.25079 0
M  V30 496 H 47.7452 3.90359 -0.666011 0
M  V30 497 H 48.9192 3.09965 -3.40966 0
M  V30 498 H 47.2342 2.91602 -2.97249 0
M  V30 499 H 49.8312 5.17411 -1.34869 0
M  V30 500 H 50.1742 4.16287 0.0333546 0
M  V30 501 H 50.7072 3.64833 -1.58562 0
M  V30 502 H 47.4462 4.96684 -4.27768 0
M  V30 503 H 46.9662 5.39569 -2.61965 0
M  V30 504 H 48.6452 5.6467 -3.15844 0
M  V30 505 N 48.7773 0.814389 1.34928 0
M  V30 506 C 50.0023 0.410097 2.03305 0
M  V30 507 C 50.4273 -0.973464 1.60951 0
M  V30 508 O 49.7853 -1.63185 0.789964 0
M  V30 509 C 49.8333 0.51049 3.56968 0
M  V30 510 O 48.9373 -0.473035 4.09678 0
M  V30 511 H 48.2783 0.170088 0.641846 0
M  V30 512 H 50.8083 1.10244 1.72358 0
M  V30 513 H 50.8183 0.383135 4.06197 0
M  V30 514 H 49.4933 1.51963 3.87144 0
M  V30 515 H 48.0703 -0.305272 3.71648 0
M  V30 516 N 50.2554 -1.46986 0.568584 0
M  V30 517 C 51.1854 -2.32946 -0.160753 0
M  V30 518 C 52.1664 -1.44487 -0.897631 0
M  V30 519 O 53.3514 -1.73327 -0.875867 0
M  V30 520 C 50.4814 -3.26494 -1.18403 0
M  V30 521 C 49.4354 -4.24282 -0.562895 0
M  V30 522 C 48.7614 -5.07236 -1.69163 0
M  V30 523 C 50.0614 -5.19989 0.490761 0
M  V30 524 H 51.7554 -2.94175 0.556916 0
M  V30 525 H 49.3014 -1.4146 0.26927 0
M  V30 526 H 51.2544 -3.85477 -1.70251 0
M  V30 527 H 49.9784 -2.63343 -1.93179 0
M  V30 528 H 48.6374 -3.66541 -0.0656164 0
M  V30 529 H 48.2854 -4.4048 -2.42871 0
M  V30 530 H 47.9854 -5.7345 -1.28174 0
M  V30 531 H 49.5094 -5.6908 -2.21314 0
M  V30 532 H 50.9234 -5.73271 0.0579047 0
M  V30 533 H 49.3204 -5.94469 0.820165 0
M  V30 534 H 50.3904 -4.64777 1.3824 0
M  V30 535 N 51.7335 -0.305618 -1.54608 0
M  V30 536 C 52.6655 0.602161 -2.21149 0
M  V30 537 C 53.6785 1.09394 -1.20569 0
M  V30 538 O 54.8675 1.0106 -1.47136 0
M  V30 539 C 51.9675 1.83692 -2.84799 0
M  V30 540 C 51.1405 1.48686 -4.11353 0
M  V30 541 C 50.1995 2.57725 -4.58764 0
M  V30 542 O 49.2255 2.22623 -5.23858 0
M  V30 543 N 50.4275 3.88346 -4.31471 0
M  V30 544 H 53.1925 0.0324966 -2.99682 0
M  V30 545 H 50.7535 -0.128021 -1.61393 0
M  V30 546 H 52.7455 2.55994 -3.13448 0
M  V30 547 H 51.3155 2.31486 -2.10078 0
M  V30 548 H 50.5355 0.596269 -3.89664 0
M  V30 549 H 51.8235 1.22842 -4.93748 0
M  V30 550 H 51.2215 4.19671 -3.79331 0
M  V30 551 H 49.7785 4.56932 -4.64818 0
M  V30 552 N 53.2116 1.57565 -0.0334293 0
M  V30 553 C 54.4886 1.83282 0.683163 0
M  V30 554 C 54.8686 0.91823 1.90084 0
M  V30 555 O 54.2166 -0.025113 2.28486 0
M  V30 556 C 54.4266 3.32599 1.0573 0
M  V30 557 C 55.7746 3.99179 1.44711 0
M  V30 558 O 56.7986 3.3712 1.15015 0
M  V30 559 O 55.6576 5.08565 2.0006 0
M  V30 560 H 52.7516 0.755869 0.335546 0
M  V30 561 H 55.2976 1.69589 -0.0614402 0
M  V30 562 H 54.0696 3.90834 0.190828 0
M  V30 563 H 53.6926 3.51415 1.85993 0
M  V30 564 N 54.6897 -0.239769 1.55765 0
M  V30 565 C 55.9197 -0.982743 1.8173 0
M  V30 566 C 56.3277 -1.7917 0.607835 0
M  V30 567 O 55.6707 -1.78525 -0.432973 0
M  V30 568 C 55.7327 -1.96332 3.01155 0
M  V30 569 C 55.3967 -1.34062 4.36894 0
M  V30 570 C 56.3937 -0.739539 5.14613 0
M  V30 571 C 54.0787 -1.35784 4.83599 0
M  V30 572 C 56.0727 -0.163989 6.37189 0
M  V30 573 C 53.7597 -0.778441 6.06122 0
M  V30 574 C 54.7577 -0.182548 6.82756 0
M  V30 575 O 54.4457 0.387887 8.02964 0
M  V30 576 H 54.1777 -0.294481 0.608487 0
M  V30 577 H 56.7317 -0.26572 2.03674 0
M  V30 578 H 54.9617 -2.71884 2.74984 0
M  V30 579 H 56.6507 -2.57032 3.14149 0
M  V30 580 H 57.4167 -0.718687 4.79646 0
M  V30 581 H 53.2957 -1.81105 4.23936 0
M  V30 582 H 56.8397 0.301753 6.96947 0
M  V30 583 H 52.7367 -0.796645 6.40565 0
M  V30 584 H 53.5047 0.28044 8.18019 0
M  V30 585 N 56.1678 -1.49265 -0.50573 0
M  V30 586 C 57.4168 -1.57761 -1.25675 0
M  V30 587 C 57.7298 -0.267371 -1.93764 0
M  V30 588 O 58.9358 -0.230827 -2.70517 0
M  V30 589 C 57.3918 -2.78332 -2.28165 0
M  V30 590 C 56.9998 -4.16096 -1.66037 0
M  V30 591 C 58.7438 -2.96155 -3.04125 0
M  V30 592 C 56.6508 -5.27895 -2.6661 0
M  V30 593 H 55.5808 -0.587391 -0.472745 0
M  V30 594 H 58.2318 -1.75644 -0.53118 0
M  V30 595 H 56.6138 -2.53934 -3.03865 0
M  V30 596 H 57.7878 -4.50612 -0.963622 0
M  V30 597 H 56.1028 -4.03591 -1.02484 0
M  V30 598 H 58.6998 -3.76849 -3.79327 0
M  V30 599 H 59.0428 -2.06534 -3.61455 0
M  V30 600 H 59.5758 -3.2057 -2.35541 0
M  V30 601 H 56.3148 -6.1956 -2.14068 0
M  V30 602 H 55.8348 -4.97839 -3.34539 0
M  V30 603 H 57.5138 -5.57031 -3.29129 0
M  V30 604 N 57.6459 0.756429 -1.3826 0
M  V30 605 C 58.6089 1.85176 -1.35065 0
M  V30 606 C 59.6089 1.58818 -0.251703 0
M  V30 607 O 60.7989 1.66615 -0.508433 0
M  V30 608 C 57.9309 3.22596 -1.10201 0
M  V30 609 H 59.1239 1.89417 -2.3251 0
M  V30 610 H 56.6769 0.95783 -1.23512 0
M  V30 611 H 57.4119 3.24025 -0.133504 0
M  V30 612 H 57.1969 3.43122 -1.89762 0
M  V30 613 H 58.6869 4.02673 -1.10654 0
M  V30 614 N 59.124 1.23083 0.984299 0
M  V30 615 C 60.37 1.06214 1.72761 0
M  V30 616 C 60.703 -0.400584 1.90024 0
M  V30 617 O 59.978 -1.29672 1.44967 0
M  V30 618 C 60.261 1.78375 3.12817 0
M  V30 619 C 60.114 3.32296 3.03149 0
M  V30 620 C 61.433 1.54309 4.12161 0
M  V30 621 H 58.552 0.387251 0.627061 0
M  V30 622 H 61.194 1.51536 1.14616 0
M  V30 623 H 59.344 1.39848 3.62457 0
M  V30 624 H 61.016 3.8032 2.61064 0
M  V30 625 H 59.259 3.6153 2.39747 0
M  V30 626 H 59.93 3.77972 4.02295 0
M  V30 627 H 62.406 1.87791 3.71314 0
M  V30 628 H 61.282 2.07281 5.08258 0
M  V30 629 H 61.543 0.477572 4.39513 0
M  V30 630 N 60.6021 -1.18246 1.0419 0
M  V30 631 C 61.5491 -2.2192 0.634037 0
M  V30 632 C 62.5191 -1.62179 -0.358765 0
M  V30 633 O 63.7041 -1.89122 -0.252466 0
M  V30 634 C 60.8441 -3.451 0.00445535 0
M  V30 635 C 59.9571 -4.19174 1.04487 0
M  V30 636 C 59.0921 -5.29813 0.383676 0
M  V30 637 C 58.1311 -5.9566 1.4091 0
M  V30 638 N 57.2681 -6.97834 0.772784 0
M  V30 639 H 62.1081 -2.56164 1.52263 0
M  V30 640 H 59.6451 -1.25843 0.761701 0
M  V30 641 H 61.6031 -4.15485 -0.377919 0
M  V30 642 H 60.2331 -3.11472 -0.847652 0
M  V30 643 H 59.2851 -3.47604 1.54518 0
M  V30 644 H 60.5971 -4.64267 1.82368 0
M  V30 645 H 59.7511 -6.06677 -0.0528366 0
M  V30 646 H 58.4901 -4.85825 -0.427208 0
M  V30 647 H 57.4951 -5.17535 1.85574 0
M  V30 648 H 58.7201 -6.4173 2.22171 0
M  V30 649 H 56.6661 -6.55998 -0.0177708 0
M  V30 650 H 56.5831 -7.41186 1.48928 0
M  V30 651 H 57.8511 -7.78665 0.36071 0
M  V30 652 N 62.0802 -0.821533 -1.34494 0
M  V30 653 C 62.9902 -0.244355 -2.33324 0
M  V30 654 C 64.0062 0.620527 -1.62559 0
M  V30 655 O 65.1822 0.528754 -1.94335 0
M  V30 656 C 62.2472 0.585368 -3.41723 0
M  V30 657 C 61.3082 -0.301752 -4.28238 0
M  V30 658 C 60.5412 0.488466 -5.3146 0
M  V30 659 O 60.7642 1.72186 -5.4379 0
M  V30 660 O 59.6982 -0.12848 -6.01763 0
M  V30 661 H 63.5242 -1.06231 -2.84515 0
M  V30 662 H 61.1092 -0.583645 -1.37528 0
M  V30 663 H 62.9912 1.05747 -4.07916 0
M  V30 664 H 61.6662 1.38068 -2.92778 0
M  V30 665 H 60.5732 -0.821315 -3.64973 0
M  V30 666 H 61.9062 -1.06138 -4.8062 0
M  V30 667 N 63.5583 1.46682 -0.576371 0
M  V30 668 C 64.5053 2.30241 0.160499 0
M  V30 669 C 65.4753 1.40233 0.890162 0
M  V30 670 O 66.6603 1.69186 0.882084 0
M  V30 671 C 63.8003 3.24578 1.1723 0
M  V30 672 C 62.9133 4.29684 0.446736 0
M  V30 673 C 62.0483 5.11154 1.44551 0
M  V30 674 C 61.0873 6.08015 0.70599 0
M  V30 675 N 60.2243 6.82376 1.65251 0
M  V30 676 H 65.0643 2.92727 -0.558127 0
M  V30 677 H 62.6013 1.44272 -0.287056 0
M  V30 678 H 64.5593 3.77711 1.77172 0
M  V30 679 H 63.1893 2.63916 1.85872 0
M  V30 680 H 62.2413 3.79458 -0.267594 0
M  V30 681 H 63.5533 4.98626 -0.131686 0
M  V30 682 H 62.7073 5.68533 2.11791 0
M  V30 683 H 61.4463 4.42158 2.05786 0
M  V30 684 H 60.4513 5.49796 0.0197725 0
M  V30 685 H 61.6763 6.79028 0.09912 0
M  V30 686 H 59.6223 6.16094 2.25308 0
M  V30 687 H 59.5393 7.47556 1.12673 0
M  V30 688 H 60.8073 7.44316 2.31546 0
M  V30 689 N 65.0364 0.313813 1.54444 0
M  V30 690 C 66.2664 -0.293491 2.04505 0
M  V30 691 C 66.6744 -1.47086 1.19005 0
M  V30 692 O 66.0174 -1.82481 0.211257 0
M  V30 693 C 66.0794 -0.800455 3.50475 0
M  V30 694 C 65.7434 0.253322 4.56297 0
M  V30 695 C 66.7404 1.08612 5.08428 0
M  V30 696 C 64.4254 0.398708 5.00715 0
M  V30 697 C 66.4194 2.05013 6.0353 0
M  V30 698 C 64.1064 1.36614 5.95634 0
M  V30 699 C 65.1044 2.19033 6.46926 0
M  V30 700 O 64.7924 3.14134 7.39983 0
M  V30 701 H 64.5244 -0.0658325 0.672787 0
M  V30 702 H 67.0784 0.455177 2.00293 0
M  V30 703 H 65.3084 -1.59987 3.52053 0
M  V30 704 H 66.9974 -1.32504 3.83663 0
M  V30 705 H 67.7634 0.984736 4.74898 0
M  V30 706 H 63.6424 -0.23289 4.60411 0
M  V30 707 H 67.1864 2.69382 6.4349 0
M  V30 708 H 63.0834 1.4682 6.28581 0
M  V30 709 H 63.8514 3.0926 7.57826 0
M  V30 710 N 66.5145 -1.57545 0.0417849 0
M  V30 711 C 67.4775 -2.09885 -0.92093 0
M  V30 712 C 68.4775 -1.01648 -1.24596 0
M  V30 713 O 69.6675 -1.27759 -1.1842 0
M  V30 714 C 66.7995 -2.57527 -2.23367 0
M  V30 715 H 67.9925 -2.96236 -0.467382 0
M  V30 716 H 65.5455 -1.5493 -0.206467 0
M  V30 717 H 66.2805 -1.74542 -2.73323 0
M  V30 718 H 66.0655 -3.36613 -2.01083 0
M  V30 719 H 67.5555 -2.98201 -2.92346 0
M  V30 720 N 67.9926 0.231505 -1.5589 0
M  V30 721 C 68.9396 1.28682 -1.91598 0
M  V30 722 C 69.9096 1.47071 -0.771974 0
M  V30 723 O 71.0946 1.60802 -1.027 0
M  V30 724 C 68.2346 2.6342 -2.22944 0
M  V30 725 C 67.3476 2.52912 -3.50228 0
M  V30 726 C 66.4826 3.80106 -3.7107 0
M  V30 727 C 65.5216 3.64279 -4.91902 0
M  V30 728 N 64.6586 4.834 -5.09184 0
M  V30 729 H 69.4986 0.975305 -2.81588 0
M  V30 730 H 67.0356 0.470299 -1.39379 0
M  V30 731 H 68.9936 3.41869 -2.39126 0
M  V30 732 H 67.6236 2.92687 -1.36139 0
M  V30 733 H 66.6756 1.6595 -3.42294 0
M  V30 734 H 67.9876 2.37133 -4.38827 0
M  V30 735 H 67.1416 4.66999 -3.87295 0
M  V30 736 H 65.8806 3.98799 -2.80733 0
M  V30 737 H 64.8856 2.7577 -4.75637 0
M  V30 738 H 66.1106 3.47067 -5.83714 0
M  V30 739 H 64.0566 5.02425 -4.21788 0
M  V30 740 H 63.9736 4.70311 -5.91898 0
M  V30 741 H 65.2416 5.71747 -5.29835 0
M  V30 742 N 69.4707 1.49531 0.497807 0
M  V30 743 C 70.7007 1.62657 1.27382 0
M  V30 744 C 71.1087 0.298488 1.86831 0
M  V30 745 O 70.4517 -0.72647 1.68725 0
M  V30 746 C 70.5137 2.6393 2.44093 0
M  V30 747 C 70.1777 4.08195 2.05489 0
M  V30 748 C 71.1747 4.949 1.59279 0
M  V30 749 C 68.8597 4.53948 2.15026 0
M  V30 750 C 70.8537 6.25397 1.23113 0
M  V30 751 C 68.5407 5.84458 1.78473 0
M  V30 752 C 69.5387 6.70006 1.32591 0
M  V30 753 O 69.2267 7.98083 0.965327 0
M  V30 754 H 68.9587 0.550429 0.392434 0
M  V30 755 H 71.5127 1.96325 0.603801 0
M  V30 756 H 69.7427 2.25449 3.14181 0
M  V30 757 H 71.4317 2.66552 3.06113 0
M  V30 758 H 72.1977 4.60779 1.51354 0
M  V30 759 H 68.0767 3.87525 2.4969 0
M  V30 760 H 71.6207 6.92125 0.872299 0
M  V30 761 H 67.5177 6.18107 1.86048 0
M  V30 762 H 68.2857 8.11122 1.09652 0
M  V30 763 N 70.9488 -0.749086 1.3866 0
M  V30 764 C 71.8788 -1.8764 1.38973 0
M  V30 765 C 72.8598 -1.68178 0.255004 0
M  V30 766 O 74.0448 -1.88704 0.458754 0
M  V30 767 C 71.1748 -3.25222 1.21851 0
M  V30 768 C 70.1288 -3.59295 2.32575 0
M  V30 769 C 69.4548 -4.95663 2.00555 0
M  V30 770 C 70.7548 -3.63709 3.7485 0
M  V30 771 H 72.4488 -1.87635 2.3331 0
M  V30 772 H 69.9948 -0.901329 1.12303 0
M  V30 773 H 71.9478 -4.03746 1.20695 0
M  V30 774 H 70.6718 -3.25719 0.239775 0
M  V30 775 H 69.3308 -2.83093 2.32925 0
M  V30 776 H 68.9788 -4.92724 1.01154 0
M  V30 777 H 68.6788 -5.19429 2.74714 0
M  V30 778 H 70.2028 -5.7656 2.01024 0
M  V30 779 H 71.6168 -4.32338 3.76506 0
M  V30 780 H 70.0138 -3.98986 4.48252 0
M  V30 781 H 71.0838 -2.63834 4.06841 0
M  V30 782 N 72.4269 -1.23603 -0.977757 0
M  V30 783 C 73.8379 -1.06424 -1.53398 0
M  V30 784 C 74.1889 0.367578 -1.92726 0
M  V30 785 O 73.3139 1.25465 -1.76316 0
M  V30 786 C 73.9089 -1.92568 -2.78753 0
M  V30 787 C 72.4679 -1.79642 -3.30765 0
M  V30 788 C 71.6149 -1.88111 -2.03739 0
M  V30 789 H 74.5659 -1.37227 -0.797152 0
M  V30 790 H 74.5869 -1.45203 -3.51705 0
M  V30 791 H 74.0989 -2.96771 -2.50098 0
M  V30 792 H 72.1999 -0.782325 -3.64294 0
M  V30 793 H 72.3129 -2.63174 -4.00345 0
M  V30 794 H 70.6769 -1.31723 -2.17994 0
M  V30 795 H 71.4599 -2.93875 -1.77461 0
M  V30 796 N 73.905 1.17692 -1.04816 0
M  V30 797 C 74.855 2.1952 -0.616042 0
M  V30 798 C 75.839 1.57147 0.345485 0
M  V30 799 O 77.031 1.76245 0.163325 0
M  V30 800 C 74.16 3.43298 0.0116917 0
M  V30 801 C 73.246 4.12777 -0.973435 0
M  V30 802 N 73.637 4.5814 -2.14339 0
M  V30 803 C 71.935 4.38747 -0.80108 0
M  V30 804 C 72.636 5.11713 -2.7663 0
M  V30 805 N 71.612 5.03686 -2.04453 0
M  V30 806 H 75.414 2.52293 -1.5075 0
M  V30 807 H 72.928 1.3398 -0.917776 0
M  V30 808 H 74.925 4.15519 0.339006 0
M  V30 809 H 73.585 3.12018 0.898593 0
M  V30 810 H 74.596 4.52349 -2.52191 0
M  V30 811 H 71.273 4.17485 0.0350934 0
M  V30 812 H 72.663 5.56962 -3.75823 0
M  V30 813 N 75.3831 0.828654 1.34056 0
M  V30 814 C 76.6081 0.431637 2.02859 0
M  V30 815 C 77.0331 -0.956339 1.61975 0
M  V30 816 O 76.3911 -1.62338 0.807228 0
M  V30 817 C 76.4391 0.548323 3.56407 0
M  V30 818 O 75.5431 -0.429556 4.10157 0
M  V30 819 H 74.8841 0.176886 0.640006 0
M  V30 820 H 77.4141 1.12066 1.71179 0
M  V30 821 H 77.4241 0.426196 4.05768 0
M  V30 822 H 76.0991 1.5606 3.8551 0
M  V30 823 H 74.6761 -0.265836 3.71951 0
M  V30 824 N 76.8612 -1.46375 0.584142 0
M  V30 825 C 77.8242 -2.28784 -0.138108 0
M  V30 826 C 78.8242 -1.38471 -0.817462 0
M  V30 827 O 80.0142 -1.60833 -0.669199 0
M  V30 828 C 77.1462 -3.18892 -1.20503 0
M  V30 829 H 78.3392 -2.94117 0.586127 0
M  V30 830 H 75.8922 -1.52509 0.342171 0
M  V30 831 H 76.6272 -2.58309 -1.96079 0
M  V30 832 H 76.4122 -3.85388 -0.722384 0
M  V30 833 H 77.9022 -3.80914 -1.71155 0
M  V30 834 N 78.3393 -0.321999 -1.54275 0
M  V30 835 C 79.5873 0.280489 -2.00144 0
M  V30 836 C 79.9083 1.52777 -1.21178 0
M  V30 837 O 79.1783 1.9338 -0.313187 0
M  V30 838 H 77.7583 0.106632 -0.73935 0
M  V30 839 H 80.4203 -0.438184 -1.8991 0
M  V30 840 H 79.5163 0.537972 -3.07428 0
M  V30 841 N 79.8174 1.5752 -0.0501392 0
M  V30 842 C 81.2334 1.56631 0.306402 0
M  V30 843 C 81.4334 1.0577 1.71508 0
M  V30 844 O 80.4894 0.713837 2.422 0
M  V30 845 C 81.8024 3.00393 0.135811 0
M  V30 846 C 83.3504 3.12315 0.206993 0
M  V30 847 C 83.8254 4.57954 0.064944 0
M  V30 848 N 85.3164 4.63041 0.121254 0
M  V30 849 C 86.0514 5.73389 0.0354381 0
M  V30 850 N 85.5474 6.92724 -0.102666 0
M  V30 851 N 87.3404 5.62026 0.090946 0
M  V30 852 H 79.4914 1.88903 -0.971046 0
M  V30 853 H 81.7544 0.869876 -0.376855 0
M  V30 854 H 81.4604 3.41635 -0.835384 0
M  V30 855 H 81.3344 3.66373 0.897275 0
M  V30 856 H 83.7214 2.70973 1.16866 0
M  V30 857 H 83.8024 2.49016 -0.585208 0
M  V30 858 H 83.4464 4.99981 -0.893394 0
M  V30 859 H 83.3764 5.19258 0.876277 0
M  V30 860 H 85.8674 3.77216 0.227284 0
M  V30 861 H 86.1804 7.72633 -0.160882 0
M  V30 862 H 84.5254 6.94864 -0.137737 0
M  V30 863 H 87.7164 4.67684 0.197388 0
M  V30 864 H 87.8894 6.47997 0.0206089 0
M  V30 865 N 81.2955 -0.223234 1.56011 0
M  V30 866 C 82.5255 -0.963413 1.82762 0
M  V30 867 C 82.9335 -1.78516 0.626804 0
M  V30 868 O 82.2765 -1.78974 -0.414014 0
M  V30 869 C 82.3385 -1.93126 3.0322 0
M  V30 870 C 82.0025 -1.2942 4.38291 0
M  V30 871 C 82.9995 -0.684916 5.15369 0
M  V30 872 C 80.6845 -1.30647 4.85012 0
M  V30 873 C 82.6785 -0.0963971 6.37327 0
M  V30 874 C 80.3655 -0.71411 6.06913 0
M  V30 875 C 81.3635 -0.110123 6.82911 0
M  V30 876 O 81.0515 0.47303 8.02507 0
M  V30 877 H 80.7835 -0.288011 0.611576 0
M  V30 878 H 83.3375 -0.244103 2.03944 0
M  V30 879 H 81.5675 -2.68952 2.77852 0
M  V30 880 H 83.2565 -2.53685 3.16857 0
M  V30 881 H 84.0225 -0.667774 4.80381 0
M  V30 882 H 79.9015 -1.76598 4.25833 0
M  V30 883 H 83.4455 0.375657 6.96588 0
M  V30 884 H 79.3425 -0.728659 6.41374 0
M  V30 885 H 80.1105 0.367186 8.17676 0
M  V30 886 N 82.7736 -1.49793 -0.48987 0
M  V30 887 C 83.7366 -1.66752 -1.57246 0
M  V30 888 C 84.7366 -0.538867 -1.51502 0
M  V30 889 O 85.9266 -0.805545 -1.54456 0
M  V30 890 C 83.0586 -1.67528 -2.96896 0
M  V30 891 H 84.2516 -2.63321 -1.43534 0
M  V30 892 H 81.8046 -1.38992 -0.714914 0
M  V30 893 H 82.5396 -0.725837 -3.16073 0
M  V30 894 H 82.3246 -2.49504 -3.02473 0
M  V30 895 H 83.8146 -1.82667 -3.7553 0
M  V30 896 N 84.2517 0.741722 -1.39055 0
M  V30 897 C 85.2147 1.83733 -1.37021 0
M  V30 898 C 86.2147 1.58542 -0.268534 0
M  V30 899 O 87.4047 1.66067 -0.526076 0
M  V30 900 C 84.5367 3.2141 -1.13617 0
M  V30 901 H 85.7297 1.86941 -2.34506 0
M  V30 902 H 83.2827 0.944676 -1.24521 0
M  V30 903 H 84.0177 3.23865 -0.167863 0
M  V30 904 H 83.8027 3.4109 -1.93391 0
M  V30 905 H 85.2927 4.01477 -1.14918 0
M  V30 906 N 85.7298 1.2412 0.971189 0
M  V30 907 C 86.6768 1.0305 2.06517 0
M  V30 908 C 87.6468 -0.0550666 1.66009 0
M  V30 909 O 88.8318 0.0988688 1.90544 0
M  V30 910 C 85.9718 0.637653 3.39158 0
M  V30 911 C 85.0848 1.79633 3.92882 0
M  V30 912 C 84.2198 1.34939 5.13775 0
M  V30 913 C 83.2588 2.47823 5.59687 0
M  V30 914 N 82.3958 2.04022 6.71803 0
M  V30 915 H 87.2358 1.96685 2.23873 0
M  V30 916 H 84.7728 0.979694 1.09729 0
M  V30 917 H 86.7308 0.390931 4.15364 0
M  V30 918 H 85.3608 -0.261693 3.21737 0
M  V30 919 H 84.4128 2.15681 3.13346 0
M  V30 920 H 85.7248 2.64466 4.22918 0
M  V30 921 H 84.8788 1.06134 5.97345 0
M  V30 922 H 83.6178 0.471557 4.85415 0
M  V30 923 H 82.6228 2.77392 4.74693 0
M  V30 924 H 83.8478 3.36158 5.90063 0
M  V30 925 H 81.7938 1.18632 6.45184 0
M  V30 926 H 81.7108 2.82409 7.01271 0
M  V30 927 H 82.9788 1.78347 7.58823 0
M  V30 928 N 87.2079 -1.17134 1.05439 0
M  V30 929 C 88.6239 -1.39454 0.776201 0
M  V30 930 C 88.8239 -1.91454 -0.628307 0
M  V30 931 O 87.8799 -2.10777 -1.39031 0
M  V30 932 C 89.1929 -2.38305 1.83388 0
M  V30 933 C 90.7409 -2.52006 1.85639 0
M  V30 934 C 91.2159 -3.54133 2.90437 0
M  V30 935 N 92.7069 -3.61653 2.89415 0
M  V30 936 C 93.4419 -4.4044 3.67152 0
M  V30 937 N 92.9379 -5.22721 4.54681 0
M  V30 938 N 94.7309 -4.35337 3.55581 0
M  V30 939 H 86.8819 -0.817134 1.96053 0
M  V30 940 H 89.1449 -0.421626 0.849079 0
M  V30 941 H 88.8509 -2.07173 2.84204 0
M  V30 942 H 88.7249 -3.37841 1.67761 0
M  V30 943 H 91.1119 -2.82447 0.85486 0
M  V30 944 H 91.1929 -1.52537 2.05344 0
M  V30 945 H 90.8369 -3.24431 3.90777 0
M  V30 946 H 90.7669 -4.53313 2.67983 0
M  V30 947 H 93.2579 -3.02909 2.25952 0
M  V30 948 H 93.5709 -5.80027 5.10674 0
M  V30 949 H 91.9159 -5.22093 4.58741 0
M  V30 950 H 95.1069 -3.70112 2.86592 0
M  V30 951 H 95.2799 -4.96494 4.1641 0
M  V30 952 N 88.686 -0.835752 -1.33615 0
M  V30 953 C 89.933 -0.429959 -1.97883 0
M  V30 954 C 90.261 1.01006 -1.66217 0
M  V30 955 O 89.516 1.72047 -0.93265 0
M  V30 956 C 89.815 -0.593925 -3.52431 0
M  V30 957 C 89.481 -2.00158 -4.04039 0
M  V30 958 C 88.143 -2.38662 -4.17844 0
M  V30 959 C 90.495 -2.92117 -4.31644 0
M  V30 960 C 87.823 -3.68435 -4.56588 0
M  V30 961 C 90.175 -4.21368 -4.71838 0
M  V30 962 C 88.839 -4.59833 -4.83849 0
M  V30 963 H 88.109 -0.157333 -0.724104 0
M  V30 964 H 90.756 -1.06217 -1.59343 0
M  V30 965 H 89.061 0.121619 -3.91611 0
M  V30 966 H 90.758 -0.260282 -4.00154 0
M  V30 967 H 87.348 -1.69252 -3.93766 0
M  V30 968 H 91.532 -2.63608 -4.20505 0
M  V30 969 H 86.788 -3.98046 -4.64079 0
M  V30 970 H 90.962 -4.92703 -4.92155 0
M  V30 971 H 88.589 -5.60438 -5.13627 0
M  V30 972 N 90.1641 1.46063 -0.591896 0
M  V30 973 C 91.5801 1.57561 -0.254288 0
M  V30 974 C 91.7801 1.58565 1.24336 0
M  V30 975 O 90.8361 1.50753 2.02558 0
M  V30 976 C 92.1491 2.86549 -0.911611 0
M  V30 977 C 93.6971 3.00197 -0.886059 0
M  V30 978 C 94.1721 4.31933 -1.5231 0
M  V30 979 N 95.6631 4.38654 -1.48786 0
M  V30 980 C 96.3981 5.39222 -1.95006 0
M  V30 981 N 95.8941 6.46414 -2.49241 0
M  V30 982 N 97.6871 5.3048 -1.85868 0
M  V30 983 H 89.8381 1.43655 -1.56451 0
M  V30 984 H 92.1011 0.68583 -0.654478 0
M  V30 985 H 91.8071 2.91651 -1.96551 0
M  V30 986 H 91.6811 3.74794 -0.425368 0
M  V30 987 H 94.0681 2.9467 0.159246 0
M  V30 988 H 94.1491 2.13403 -1.41041 0
M  V30 989 H 93.7931 4.38217 -2.56765 0
M  V30 990 H 93.7231 5.17516 -0.973891 0
M  V30 991 H 96.2141 3.61793 -1.09151 0
M  V30 992 H 96.5271 7.19376 -2.82344 0
M  V30 993 H 94.8721 6.47208 -2.53272 0
M  V30 994 H 98.0631 4.45643 -1.43248 0
M  V30 995 H 98.2361 6.08711 -2.22204 0
M  V30 996 N 91.6422 0.330177 1.54103 0
M  V30 997 C 92.5892 -0.532762 2.24567 0
M  V30 998 C 93.5592 -1.10635 1.23892 0
M  V30 999 O 94.7442 -1.14546 1.5259 0
M  V30 1000 C 91.8842 -1.6845 3.01195 0
M  V30 1001 C 90.9972 -1.13951 4.167 0
M  V30 1002 C 90.1322 -2.25746 4.80845 0
M  V30 1003 C 89.1712 -1.6853 5.88442 0
M  V30 1004 N 88.3082 -2.74014 6.46421 0
M  V30 1005 H 93.1482 0.0746905 2.97906 0
M  V30 1006 H 90.6852 0.048632 1.4702 0
M  V30 1007 H 92.6432 -2.36234 3.43874 0
M  V30 1008 H 91.2732 -2.26314 2.30178 0
M  V30 1009 H 90.3252 -0.35301 3.78758 0
M  V30 1010 H 91.6372 -0.680892 4.94131 0
M  V30 1011 H 90.7912 -3.01422 5.26526 0
M  V30 1012 H 89.5302 -2.74947 4.0281 0
M  V30 1013 H 88.5352 -0.913543 5.42157 0
M  V30 1014 H 89.7602 -1.20198 6.68378 0
M  V30 1015 H 87.7062 -3.22494 5.71256 0
M  V30 1016 H 87.6232 -2.32735 7.19285 0
M  V30 1017 H 88.8912 -3.49499 6.96757 0
M  V30 1018 N 93.1203 -1.57491 0.0584922 0
M  V30 1019 C 94.0833 -2.1085 -0.898617 0
M  V30 1020 C 95.0833 -1.02964 -1.23511 0
M  V30 1021 O 96.2733 -1.29007 -1.17059 0
M  V30 1022 C 93.4053 -2.59881 -2.20623 0
M  V30 1023 H 94.5983 -2.96715 -0.435936 0
M  V30 1024 H 92.1513 -1.55141 -0.190023 0
M  V30 1025 H 92.8863 -1.77431 -2.71457 0
M  V30 1026 H 92.6713 -3.38727 -1.97501 0
M  V30 1027 H 94.1613 -3.01285 -2.89166 0
M  V30 1028 N 94.5984 0.214957 -1.56127 0
M  V30 1029 C 95.5304 1.29004 -1.89448 0
M  V30 1030 C 96.5434 1.42716 -0.783326 0
M  V30 1031 O 97.7324 1.43496 -1.06166 0
M  V30 1032 C 94.8324 2.66482 -2.09381 0
M  V30 1033 C 94.0054 2.74633 -3.40434 0
M  V30 1034 C 93.0644 3.9317 -3.49719 0
M  V30 1035 O 92.0904 3.812 -4.227 0
M  V30 1036 N 93.2924 5.07765 -2.81346 0
M  V30 1037 H 96.0574 1.00743 -2.82261 0
M  V30 1038 H 93.6184 0.40497 -1.56753 0
M  V30 1039 H 95.6104 3.44173 -2.12901 0
M  V30 1040 H 94.1804 2.87314 -1.23163 0
M  V30 1041 H 93.4004 1.83368 -3.48955 0
M  V30 1042 H 94.6884 2.77054 -4.26754 0
M  V30 1043 H 94.0864 5.20386 -2.21843 0
M  V30 1044 H 92.6434 5.83474 -2.90519 0
M  V30 1045 N 96.0765 1.50051 0.48192 0
M  V30 1046 C 97.3165 1.62128 1.24474 0
M  V30 1047 C 97.6805 0.309742 1.89485 0
M  V30 1048 O 98.8815 0.305854 2.67054 0
M  V30 1049 C 97.1525 2.76151 2.26882 0
M  V30 1050 S 98.7115 3.08297 3.12247 0
M  V30 1051 H 95.5295 0.571661 0.422759 0
M  V30 1052 H 98.1315 1.87791 0.54359 0
M  V30 1053 H 96.8355 3.69942 1.77683 0
M  V30 1054 H 96.3665 2.52541 3.0164 0
M  V30 1055 H 98.3815 2.51287 4.27866 0
M  V30 1056 N 97.5546 -0.734337 1.39446 0
M  V30 1057 C 98.9656 -1.31264 1.32766 0
M  V30 1058 C 99.3166 -1.96198 -0.00767497 0
M  V30 1059 O 98.4416 -1.96346 -0.909796 0
M  V30 1060 C 99.0366 -2.38682 2.4045 0
M  V30 1061 C 97.5956 -2.92184 2.37288 0
M  V30 1062 C 96.7426 -1.6576 2.22304 0
M  V30 1063 H 99.6936 -0.531799 1.49525 0
M  V30 1064 H 99.7146 -3.19087 2.07276 0
M  V30 1065 H 99.2266 -1.91392 3.37625 0
M  V30 1066 H 97.3276 -3.43752 1.43754 0
M  V30 1067 H 97.4406 -3.45253 3.3217 0
M  V30 1068 H 95.8046 -1.9012 1.69489 0
M  V30 1069 H 96.5876 -1.20521 3.21449 0
M  V30 1070 N 99.0327 -1.24633 -0.964593 0
M  V30 1071 C 100.282 -1.08188 -1.7023 0
M  V30 1072 C 100.595 0.37873 -1.91898 0
M  V30 1073 O 101.801 0.663427 -2.6327 0
M  V30 1074 C 100.257 -1.88773 -3.06419 0
M  V30 1075 C 99.8647 -3.39263 -2.92582 0
M  V30 1076 C 101.609 -1.80867 -3.84041 0
M  V30 1077 C 99.5157 -4.1218 -4.24101 0
M  V30 1078 H 98.4457 -0.401245 -0.638372 0
M  V30 1079 H 101.097 -1.48742 -1.07462 0
M  V30 1080 H 99.4787 -1.41035 -3.70034 0
M  V30 1081 H 100.653 -3.94603 -2.37961 0
M  V30 1082 H 98.9677 -3.48154 -2.28424 0
M  V30 1083 H 101.565 -2.32646 -4.81435 0
M  V30 1084 H 101.908 -0.774543 -4.09031 0
M  V30 1085 H 102.441 -2.26301 -3.27159 0
M  V30 1086 H 99.1797 -5.15965 -4.04303 0
M  V30 1087 H 98.6997 -3.61626 -4.78526 0
M  V30 1088 H 100.379 -4.19349 -4.92702 0
M  V30 1089 N 100.511 1.16574 -1.06058 0
M  V30 1090 C 101.757 1.87324 -0.777022 0
M  V30 1091 C 102.09 1.81351 0.694645 0
M  V30 1092 O 101.365 1.22753 1.50871 0
M  V30 1093 C 101.648 3.36991 -1.26922 0
M  V30 1094 C 101.501 3.51667 -2.80447 0
M  V30 1095 C 102.82 4.3131 -0.87521 0
M  V30 1096 H 99.9388 0.680191 -0.28374 0
M  V30 1097 H 102.581 1.37036 -1.3161 0
M  V30 1098 H 100.731 3.79949 -0.81063 0
M  V30 1099 H 102.403 3.17664 -3.34495 0
M  V30 1100 H 100.646 2.93656 -3.19294 0
M  V30 1101 H 101.317 4.56766 -3.0995 0
M  V30 1102 H 103.793 3.9624 -1.27014 0
M  V30 1103 H 102.669 5.34545 -1.2471 0
M  V30 1104 H 102.93 4.41552 0.220071 0
M  V30 1105 N 101.989 0.842826 1.3317 0
M  V30 1106 C 102.899 0.281444 2.32906 0
M  V30 1107 C 103.915 -0.594587 1.63526 0
M  V30 1108 O 105.091 -0.49777 1.95152 0
M  V30 1109 C 102.156 -0.530929 3.42611 0
M  V30 1110 C 101.217 0.369843 4.27704 0
M  V30 1111 C 100.45 -0.403853 5.3217 0
M  V30 1112 O 100.673 -1.63513 5.46461 0
M  V30 1113 O 99.6069 0.224199 6.01482 0
M  V30 1114 H 103.433 1.10744 2.82789 0
M  V30 1115 H 101.018 0.60545 1.36582 0
M  V30 1116 H 102.9 -0.992437 4.09547 0
M  V30 1117 H 101.575 -1.33392 2.94938 0
M  V30 1118 H 100.482 0.879275 3.6362 0
M  V30 1119 H 101.815 1.13771 4.78871 0
M  V30 1120 N 103.467 -1.45747 0.599634 0
M  V30 1121 C 104.883 -1.57424 0.26264 0
M  V30 1122 C 105.083 -1.59222 -1.23493 0
M  V30 1123 O 104.139 -1.51825 -2.01756 0
M  V30 1124 C 105.452 -2.86061 0.926795 0
M  V30 1125 C 107 -2.99722 0.901967 0
M  V30 1126 C 107.475 -4.31119 1.54598 0
M  V30 1127 N 108.966 -4.37858 1.5111 0
M  V30 1128 C 109.701 -5.3818 1.97863 0
M  V30 1129 N 109.197 -6.45083 2.52666 0
M  V30 1130 N 110.99 -5.29487 1.88679 0
M  V30 1131 H 103.141 -1.42823 1.57211 0
M  V30 1132 H 105.404 -0.68235 0.658105 0
M  V30 1133 H 105.11 -2.90605 1.98095 0
M  V30 1134 H 104.984 -3.74563 0.445238 0
M  V30 1135 H 107.371 -2.9475 -0.143617 0
M  V30 1136 H 107.452 -2.12652 1.42171 0
M  V30 1137 H 107.096 -4.36849 2.59085 0
M  V30 1138 H 107.026 -5.16992 1.00132 0
M  V30 1139 H 109.517 -3.61209 1.11068 0
M  V30 1140 H 109.83 -7.17869 2.86155 0
M  V30 1141 H 108.175 -6.45856 2.56701 0
M  V30 1142 H 111.366 -4.44877 1.4561 0
M  V30 1143 H 111.539 -6.07524 2.25429 0
M  V30 1144 N 104.945 -0.338344 -1.53925 0
M  V30 1145 C 105.875 0.51328 -2.27789 0
M  V30 1146 C 106.856 1.107 -1.29149 0
M  V30 1147 O 108.041 1.12937 -1.57984 0
M  V30 1148 C 105.171 1.66697 -3.04679 0
M  V30 1149 C 104.125 1.20183 -4.1078 0
M  V30 1150 C 103.451 2.44363 -4.75595 0
M  V30 1151 C 104.751 0.30605 -5.21403 0
M  V30 1152 H 106.445 -0.102883 -2.99223 0
M  V30 1153 H 103.991 -0.0509219 -1.4391 0
M  V30 1154 H 105.944 2.26915 -3.55088 0
M  V30 1155 H 104.668 2.30995 -2.30887 0
M  V30 1156 H 103.327 0.622499 -3.61276 0
M  V30 1157 H 102.975 3.07057 -3.98403 0
M  V30 1158 H 102.675 2.13925 -5.47275 0
M  V30 1159 H 104.199 3.05317 -5.28786 0
M  V30 1160 H 105.613 0.814929 -5.67478 0
M  V30 1161 H 104.01 0.0937929 -6.00027 0
M  V30 1162 H 105.08 -0.65921 -4.80398 0
M  V30 1163 N 106.423 1.57458 -0.0668435 0
M  V30 1164 C 107.651 1.97624 0.612565 0
M  V30 1165 C 108.066 0.94502 1.63447 0
M  V30 1166 O 107.423 -0.0689276 1.8237 0
M  V30 1167 C 107.474 3.37869 1.28555 0
M  V30 1168 O 107.195 4.3704 0.304557 0
M  V30 1169 C 108.696 3.92882 2.05325 0
M  V30 1170 H 105.916 0.650045 0.166381 0
M  V30 1171 H 108.46 2.04035 -0.137782 0
M  V30 1172 H 106.615 3.3256 1.98702 0
M  V30 1173 H 107.029 5.18565 0.786779 0
M  V30 1174 H 108.503 4.93247 2.47812 0
M  V30 1175 H 108.98 3.29156 2.9078 0
M  V30 1176 H 109.586 4.01577 1.40056 0
M  V30 1177 N 107.901 -0.206675 1.56239 0
M  V30 1178 C 108.849 -1.27571 1.94495 0
M  V30 1179 C 109.843 -1.47737 0.828862 0
M  V30 1180 O 111.049 -1.48735 1.0138 0
M  V30 1181 H 107.424 -0.428029 0.6183 0
M  V30 1182 H 109.395 -0.925961 2.8367 0
M  V30 1183 C 108.144 -2.61568 2.29079 0
M  V30 1184 H 107.467 -2.46863 3.14482 0
M  V30 1185 H 108.907 -3.35144 2.5972 0
M  V30 1186 C 107.366 -3.17695 1.12123 0
M  V30 1187 O 107.896 -3.99801 0.390153 0
M  V30 1188 N 106.102 -2.76276 0.901097 0
M  V30 1189 H 105.649 -2.09613 1.49733 0
M  V30 1190 H 105.607 -3.1417 0.120319 0
M  V30 1191 N 109.379 -1.50304 -0.473955 0
M  V30 1192 C 110.604 -1.65175 -1.25427 0
M  V30 1193 C 111.029 -0.333673 -1.85117 0
M  V30 1194 O 110.387 0.702114 -1.67153 0
M  V30 1195 C 110.435 -2.74295 -2.34082 0
M  V30 1196 O 109.539 -2.35349 -3.38651 0
M  V30 1197 H 108.88 -0.551944 -0.369126 0
M  V30 1198 H 111.41 -1.96662 -0.564364 0
M  V30 1199 H 111.42 -2.97285 -2.79438 0
M  V30 1200 H 110.095 -3.69959 -1.90008 0
M  V30 1201 H 108.672 -2.22794 -2.99027 0
M  V30 1202 N 110.857 0.726932 -1.39834 0
M  V30 1203 C 111.79 1.8501 -1.33592 0
M  V30 1204 C 112.768 1.61262 -0.208191 0
M  V30 1205 O 113.952 1.84422 -0.389981 0
M  V30 1206 C 111.079 3.21143 -1.07633 0
M  V30 1207 C 110.125 3.63737 -2.22705 0
M  V30 1208 S 110.958 3.72167 -3.85035 0
M  V30 1209 C 112.114 5.11077 -3.61318 0
M  V30 1210 H 112.347 1.90022 -2.28646 0
M  V30 1211 H 109.88 0.892595 -1.25985 0
M  V30 1212 H 111.838 3.99747 -0.933415 0
M  V30 1213 H 110.499 3.13776 -0.142526 0
M  V30 1214 H 109.692 4.62551 -2.00155 0
M  V30 1215 H 109.294 2.9236 -2.33242 0
M  V30 1216 H 111.586 5.97656 -3.19083 0
M  V30 1217 H 112.529 5.38658 -4.59623 0
M  V30 1218 H 112.937 4.81135 -2.95245 0
M  V30 1219 N 112.336 1.25143 0.95797 0
M  V30 1220 C 113.269 0.995565 2.05338 0
M  V30 1221 C 114.247 -0.0740423 1.62431 0
M  V30 1222 O 115.431 0.0649212 1.88388 0
M  V30 1223 C 112.558 0.504298 3.34925 0
M  V30 1224 C 111.604 1.56393 3.96792 0
M  V30 1225 S 112.437 3.14815 4.33188 0
M  V30 1226 C 113.593 2.67415 5.65898 0
M  V30 1227 H 113.826 1.92309 2.26726 0
M  V30 1228 H 111.359 1.08635 1.09716 0
M  V30 1229 H 113.317 0.227497 4.09869 0
M  V30 1230 H 111.978 -0.402671 3.11508 0
M  V30 1231 H 111.171 1.17082 4.90212 0
M  V30 1232 H 110.773 1.79124 3.28315 0
M  V30 1233 H 113.065 2.10833 6.4386 0
M  V30 1234 H 114.008 3.59463 6.10076 0
M  V30 1235 H 114.416 2.07521 5.24972 0
M  V30 1236 N 113.814 -1.1601 1.06675 0
M  V30 1237 C 114.747 -2.1947 0.625168 0
M  V30 1238 C 115.725 -1.58699 -0.354041 0
M  V30 1239 O 116.909 -1.86669 -0.262098 0
M  V30 1240 C 114.036 -3.38598 -0.0829593 0
M  V30 1241 C 113.082 -4.1787 0.853611 0
M  V30 1242 S 113.915 -4.81135 2.35094 0
M  V30 1243 C 115.071 -6.03639 1.65441 0
M  V30 1244 H 115.304 -2.56587 1.50168 0
M  V30 1245 H 112.837 -1.26862 0.880078 0
M  V30 1246 H 114.795 -4.07621 -0.485288 0
M  V30 1247 H 113.456 -2.99839 -0.935716 0
M  V30 1248 H 112.649 -5.03078 0.304755 0
M  V30 1249 H 112.251 -3.54361 1.196 0
M  V30 1250 H 114.543 -6.70632 0.962201 0
M  V30 1251 H 115.486 -6.63081 2.48454 0
M  V30 1252 H 115.894 -5.52965 1.13534 0
M  V30 1253 N 115.292 -0.849877 -1.32721 0
M  V30 1254 C 116.242 -0.262892 -2.26479 0
M  V30 1255 C 117.226 0.588493 -1.49752 0
M  V30 1256 O 118.418 0.438659 -1.71478 0
M  V30 1257 C 115.547 0.551818 -3.38836 0
M  V30 1258 C 114.633 -0.311689 -4.22953 0
M  V30 1259 N 115.024 -1.39567 -4.86163 0
M  V30 1260 C 113.322 -0.100611 -4.45887 0
M  V30 1261 C 114.023 -1.92651 -5.48872 0
M  V30 1262 N 112.999 -1.22637 -5.29586 0
M  V30 1263 H 116.801 -1.09166 -2.72873 0
M  V30 1264 H 114.315 -0.695486 -1.46754 0
M  V30 1265 H 116.312 0.988713 -4.05006 0
M  V30 1266 H 114.972 1.37844 -2.93988 0
M  V30 1267 H 115.983 -1.77859 -4.86402 0
M  V30 1268 H 112.66 0.691681 -4.11731 0
M  V30 1269 H 114.05 -2.83487 -6.09167 0
M  V30 1270 N 116.77 1.45427 -0.607355 0
M  V30 1271 C 118.018 2.01841 -0.102253 0
M  V30 1272 C 118.339 1.47832 1.27164 0
M  V30 1273 O 117.609 0.672497 1.83995 0
M  V30 1274 H 116.189 0.746188 -0.0348101 0
M  V30 1275 H 118.851 1.78229 -0.7887 0
M  V30 1276 H 117.947 3.12057 -0.0518585 0
M  V30 1277 N 118.248 0.346503 1.53744 0
M  V30 1278 C 119.664 -0.00530975 1.59599 0
M  V30 1279 C 119.864 -1.48465 1.36236 0
M  V30 1280 O 118.92 -2.24376 1.15808 0
M  V30 1281 C 120.233 0.433516 2.97559 0
M  V30 1282 C 121.781 0.386111 3.10609 0
M  V30 1283 C 122.256 0.800451 4.50951 0
M  V30 1284 N 123.747 0.754753 4.5701 0
M  V30 1285 C 124.482 1.04727 5.63755 0
M  V30 1286 N 123.978 1.4081 6.7834 0
M  V30 1287 N 125.771 0.971316 5.53644 0
M  V30 1288 H 117.922 1.31009 1.67184 0
M  V30 1289 H 120.185 0.534242 0.783128 0
M  V30 1290 H 119.891 1.46509 3.19731 0
M  V30 1291 H 119.765 -0.189753 3.76722 0
M  V30 1292 H 122.152 -0.636295 2.88158 0
M  V30 1293 H 122.233 1.04462 2.33498 0
M  V30 1294 H 121.877 1.82088 4.74137 0
M  V30 1295 H 121.807 0.119386 5.26465 0
M  V30 1296 H 124.298 0.488662 3.74727 0
M  V30 1297 H 124.611 1.61607 7.55714 0
M  V30 1298 H 122.956 1.44657 6.79779 0
M  V30 1299 H 126.147 0.688748 4.63005 0
M  V30 1300 H 126.32 1.20263 6.36742 0
M  V30 1301 N 119.726 -1.57421 0.075193 0
M  V30 1302 C 120.674 -2.14124 -0.908508 0
M  V30 1303 C 121.668 -1.07898 -1.30592 0
M  V30 1304 O 122.874 -1.26273 -1.28277 0
M  V30 1305 H 119.249 -0.684707 -0.310935 0
M  V30 1306 H 121.22 -2.95634 -0.405374 0
M  V30 1307 C 119.969 -2.72044 -2.16535 0
M  V30 1308 H 119.292 -3.53456 -1.86839 0
M  V30 1309 H 120.732 -3.15311 -2.83469 0
M  V30 1310 C 119.191 -1.66968 -2.92615 0
M  V30 1311 O 119.721 -1.0967 -3.86439 0
M  V30 1312 N 117.927 -1.37923 -2.55784 0
M  V30 1313 H 117.474 -1.84706 -1.79559 0
M  V30 1314 H 117.432 -0.67852 -3.06991 0
M  V30 1315 N 121.204 0.198386 -1.56346 0
M  V30 1316 C 122.152 1.26538 -1.95169 0
M  V30 1317 C 123.146 1.47295 -0.836685 0
M  V30 1318 O 124.352 1.48195 -1.02167 0
M  V30 1319 H 120.727 0.424744 -0.620561 0
M  V30 1320 H 122.698 0.910904 -2.84157 0
M  V30 1321 C 121.447 2.6035 -2.30463 0
M  V30 1322 H 120.77 2.45192 -3.15786 0
M  V30 1323 H 122.21 3.33762 -2.61494 0
M  V30 1324 C 120.669 3.17096 -1.13806 0
M  V30 1325 O 121.199 3.99588 -0.41135 0
M  V30 1326 N 119.405 2.75795 -0.915736 0
M  V30 1327 H 118.952 2.08816 -1.50843 0
M  V30 1328 H 118.91 3.14101 -0.136979 0
M  V30 1329 N 122.682 1.50554 0.465978 0
M  V30 1330 C 123.93 1.61479 1.21528 0
M  V30 1331 C 124.251 0.319596 1.92363 0
M  V30 1332 O 123.521 -0.663194 1.84333 0
M  V30 1333 H 122.101 0.595055 0.451573 0
M  V30 1334 H 124.763 1.87355 0.53704 0
M  V30 1335 H 123.859 2.42846 1.96042 0
M  V30 1336 N 124.16 -0.719506 1.40217 0
M  V30 1337 C 125.107 -1.83359 1.40172 0
M  V30 1338 C 126.077 -1.64065 0.259206 0
M  V30 1339 O 127.262 -1.85254 0.456677 0
M  V30 1340 C 124.402 -3.2103 1.26624 0
M  V30 1341 C 123.515 -3.51923 2.50548 0
M  V30 1342 C 122.65 -4.79079 2.29471 0
M  V30 1343 C 121.689 -5.02863 3.48992 0
M  V30 1344 N 120.826 -6.2123 3.27135 0
M  V30 1345 H 125.666 -1.82733 2.35399 0
M  V30 1346 H 123.203 -0.892688 1.16917 0
M  V30 1347 H 125.161 -4.00524 1.16776 0
M  V30 1348 H 123.791 -3.20895 0.350176 0
M  V30 1349 H 122.843 -2.67014 2.70939 0
M  V30 1350 H 124.155 -3.6541 3.39525 0
M  V30 1351 H 123.309 -5.66582 2.16955 0
M  V30 1352 H 122.048 -4.67794 1.37913 0
M  V30 1353 H 121.053 -4.13816 3.6199 0
M  V30 1354 H 122.278 -5.16023 4.41472 0
M  V30 1355 H 120.224 -6.11204 2.38256 0
M  V30 1356 H 120.141 -6.35375 4.09675 0
M  V30 1357 H 121.409 -7.11532 3.18344 0
M  V30 1358 N 125.638 -1.25649 -0.95132 0
M  V30 1359 C 126.585 -1.06323 -2.04851 0
M  V30 1360 C 127.555 0.0286491 -1.66075 0
M  V30 1361 O 128.74 -0.12917 -1.90362 0
M  V30 1362 C 125.88 -0.691529 -3.381 0
M  V30 1363 C 124.993 -1.85861 -3.89974 0
M  V30 1364 C 124.128 -1.43096 -5.11563 0
M  V30 1365 C 123.167 -2.56696 -5.55674 0
M  V30 1366 N 122.304 -2.14684 -6.68472 0
M  V30 1367 H 127.144 -2.00222 -2.20715 0
M  V30 1368 H 124.681 -0.997027 -1.08156 0
M  V30 1369 H 126.639 -0.456963 -4.1469 0
M  V30 1370 H 125.269 0.210474 -3.22113 0
M  V30 1371 H 124.321 -2.20639 -3.09875 0
M  V30 1372 H 125.633 -2.71161 -4.18657 0
M  V30 1373 H 124.787 -1.15624 -5.9558 0
M  V30 1374 H 123.526 -0.548722 -4.84603 0
M  V30 1375 H 122.531 -2.84909 -4.7022 0
M  V30 1376 H 123.756 -3.45503 -5.8464 0
M  V30 1377 H 121.702 -1.28881 -6.43215 0
M  V30 1378 H 121.619 -2.9353 -6.96689 0
M  V30 1379 H 122.887 -1.90397 -7.5589 0
M  V30 1380 N 127.117 1.15442 -1.07289 0
M  V30 1381 C 128.047 2.22312 -0.714107 0
M  V30 1382 C 129.028 1.67467 0.298155 0
M  V30 1383 O 130.213 1.93445 0.171048 0
M  V30 1384 C 127.343 3.47124 -0.110448 0
M  V30 1385 C 126.297 4.14926 -1.04979 0
M  V30 1386 C 125.623 5.33807 -0.308924 0
M  V30 1387 C 126.923 4.64762 -2.38314 0
M  V30 1388 H 128.617 2.5258 -1.6076 0
M  V30 1389 H 126.163 1.21404 -0.77441 0
M  V30 1390 H 128.116 4.21124 0.152482 0
M  V30 1391 H 126.84 3.16187 0.81812 0
M  V30 1392 H 125.499 3.42866 -1.29764 0
M  V30 1393 H 125.147 4.99126 0.623084 0
M  V30 1394 H 124.847 5.80113 -0.935036 0
M  V30 1395 H 126.371 6.10576 -0.0537771 0
M  V30 1396 H 127.785 5.30292 -2.1786 0
M  V30 1397 H 126.182 5.21728 -2.96514 0
M  V30 1398 H 127.252 3.80434 -3.00663 0
M  V30 1399 N 128.595 0.856903 1.32268 0
M  V30 1400 C 129.528 0.247937 2.26849 0
M  V30 1401 C 130.506 -0.615382 1.50505 0
M  V30 1402 O 131.69 -0.571689 1.79622 0
M  V30 1403 C 128.817 -0.650093 3.32403 0
M  V30 1404 C 127.863 0.140138 4.2627 0
M  V30 1405 S 128.696 1.51004 5.13769 0
M  V30 1406 C 129.852 0.61778 6.22844 0
M  V30 1407 H 130.085 1.04971 2.78152 0
M  V30 1408 H 127.618 0.654665 1.39834 0
M  V30 1409 H 129.576 -1.16256 3.93694 0
M  V30 1410 H 128.237 -1.4257 2.7988 0
M  V30 1411 H 127.43 -0.543945 5.01056 0
M  V30 1412 H 127.032 0.584267 3.69408 0
M  V30 1413 H 129.324 -0.177053 6.77269 0
M  V30 1414 H 130.267 1.33636 6.95375 0
M  V30 1415 H 130.675 0.191124 5.64176 0
M  V30 1416 N 130.073 -1.45103 0.615059 0
M  V30 1417 C 131.301 -2.06553 0.11977 0
M  V30 1418 C 131.716 -1.45842 -1.19898 0
M  V30 1419 O 131.073 -0.575325 -1.73194 0
M  V30 1420 C 131.124 -3.61495 -0.018364 0
M  V30 1421 O 130.845 -4.19942 1.24822 0
M  V30 1422 C 132.346 -4.39947 -0.544237 0
M  V30 1423 H 129.566 -0.667096 0.0722739 0
M  V30 1424 H 132.11 -1.8623 0.84491 0
M  V30 1425 H 130.265 -3.81135 -0.693865 0
M  V30 1426 H 130.679 -5.13204 1.0827 0
M  V30 1427 H 132.153 -5.48838 -0.589953 0
M  V30 1428 H 132.63 -4.10255 -1.56805 0
M  V30 1429 H 133.236 -4.25188 0.0974703 0
M  V30 1430 N 131.551 -0.354651 -1.53558 0
M  V30 1431 C 132.797 0.238797 -2.01389 0
M  V30 1432 C 133.13 1.49309 -1.2418 0
M  V30 1433 O 132.405 1.91638 -0.332457 0
M  V30 1434 C 132.688 0.541771 -3.56001 0
M  V30 1435 C 132.541 -0.725388 -4.43912 0
M  V30 1436 C 133.86 1.34685 -4.18984 0
M  V30 1437 H 130.979 0.0853177 -0.732045 0
M  V30 1438 H 133.621 -0.477384 -1.83905 0
M  V30 1439 H 131.771 1.15189 -3.71031 0
M  V30 1440 H 133.443 -1.36313 -4.407 0
M  V30 1441 H 131.686 -1.34801 -4.12324 0
M  V30 1442 H 132.357 -0.468505 -5.50008 0
M  V30 1443 H 134.833 0.830837 -4.07721 0
M  V30 1444 H 133.709 1.52759 -5.27215 0
M  V30 1445 H 133.97 2.35221 -3.74331 0
M  V30 1446 N 133.029 1.57378 -0.0835403 0
M  V30 1447 C 134.445 1.57246 0.273109 0
M  V30 1448 C 134.645 1.09385 1.69225 0
M  V30 1449 O 133.701 0.765051 2.40631 0
M  V30 1450 C 135.014 3.00614 0.0720628 0
M  V30 1451 C 136.562 3.12684 0.1407 0
M  V30 1452 C 137.037 4.57989 -0.0322094 0
M  V30 1453 N 138.528 4.63194 0.0230085 0
M  V30 1454 C 139.263 5.73335 -0.0861941 0
M  V30 1455 N 138.759 6.9235 -0.24958 0
M  V30 1456 N 140.552 5.62093 -0.0282886 0
M  V30 1457 H 132.703 1.86801 -1.0109 0
M  V30 1458 H 134.966 0.861687 -0.395222 0
M  V30 1459 H 134.672 3.39786 -0.907662 0
M  V30 1460 H 134.546 3.68193 0.81936 0
M  V30 1461 H 136.933 2.73391 1.11092 0
M  V30 1462 H 137.014 2.47719 -0.637896 0
M  V30 1463 H 136.658 4.97973 -0.999247 0
M  V30 1464 H 136.588 5.21 0.765937 0
M  V30 1465 H 139.079 3.77613 0.14722 0
M  V30 1466 H 139.392 7.72117 -0.324733 0
M  V30 1467 H 137.737 6.94415 -0.285097 0
M  V30 1468 H 140.928 4.67997 0.0981408 0
M  V30 1469 H 141.101 6.47895 -0.116845 0
M  V30 1470 N 134.507 -0.190092 1.56449 0
M  V30 1471 C 135.756 -0.907912 1.80111 0
M  V30 1472 C 136.069 -1.84214 0.657619 0
M  V30 1473 O 137.275 -2.60094 0.778663 0
M  V30 1474 C 135.731 -1.66485 3.19078 0
M  V30 1475 C 135.339 -0.7752 4.41242 0
M  V30 1476 C 137.083 -2.37201 3.52045 0
M  V30 1477 C 134.99 -1.53129 5.71231 0
M  V30 1478 H 133.92 -0.34276 0.671589 0
M  V30 1479 H 136.571 -0.161109 1.82791 0
M  V30 1480 H 134.953 -2.45572 3.10661 0
M  V30 1481 H 136.127 -0.0226298 4.60794 0
M  V30 1482 H 134.442 -0.178627 4.16017 0
M  V30 1483 H 137.039 -2.94329 4.46402 0
M  V30 1484 H 137.382 -3.11632 2.76028 0
M  V30 1485 H 137.915 -1.65075 3.61932 0
M  V30 1486 H 134.654 -0.82967 6.50228 0
M  V30 1487 H 134.174 -2.25767 5.55688 0
M  V30 1488 H 135.853 -2.08377 6.12526 0
M  V30 1489 N 135.985 -1.50799 -0.457987 0
M  V30 1490 C 137.231 -1.62683 -1.21088 0
M  V30 1491 C 137.564 -0.332268 -1.91336 0
M  V30 1492 O 136.839 0.667043 -1.82704 0
M  V30 1493 C 137.122 -2.81615 -2.24422 0
M  V30 1494 C 136.975 -4.20989 -1.58392 0
M  V30 1495 C 138.294 -2.96085 -3.2561 0
M  V30 1496 H 135.413 -0.592087 -0.438864 0
M  V30 1497 H 138.055 -1.83225 -0.50286 0
M  V30 1498 H 136.205 -2.64231 -2.84806 0
M  V30 1499 H 137.877 -4.49994 -1.01504 0
M  V30 1500 H 136.12 -4.24641 -0.886704 0
M  V30 1501 H 136.791 -5.0016 -2.33547 0
M  V30 1502 H 139.267 -3.12042 -2.75262 0
M  V30 1503 H 138.143 -3.80902 -3.95228 0
M  V30 1504 H 138.404 -2.0726 -3.90507 0
M  V30 1505 N 137.463 0.71206 -1.40597 0
M  V30 1506 C 138.41 1.82613 -1.41142 0
M  V30 1507 C 139.38 1.63925 -0.267903 0
M  V30 1508 O 140.565 1.85009 -0.466495 0
M  V30 1509 C 137.705 3.20354 -1.28324 0
M  V30 1510 C 136.818 3.50589 -2.52411 0
M  V30 1511 C 135.953 4.77855 -2.32009 0
M  V30 1512 C 134.992 5.01005 -3.51654 0
M  V30 1513 N 134.129 6.19487 -3.30425 0
M  V30 1514 H 138.969 1.81482 -2.36365 0
M  V30 1515 H 136.506 0.886475 -1.17388 0
M  V30 1516 H 138.464 3.99899 -1.18899 0
M  V30 1517 H 137.094 3.20705 -0.367189 0
M  V30 1518 H 136.146 2.65573 -2.72351 0
M  V30 1519 H 137.458 3.63604 -3.41458 0
M  V30 1520 H 136.612 5.65424 -2.19956 0
M  V30 1521 H 135.351 4.67056 -1.40392 0
M  V30 1522 H 134.356 4.1189 -3.64179 0
M  V30 1523 H 135.581 5.13674 -4.44202 0
M  V30 1524 H 133.527 6.09932 -2.41494 0
M  V30 1525 H 133.444 6.33194 -4.13039 0
M  V30 1526 H 134.712 7.09834 -3.22113 0
M  V30 1527 N 138.941 1.26152 0.944643 0
M  V30 1528 C 139.891 1.04081 2.02857 0
M  V30 1529 C 140.875 -0.0256555 1.6088 0
M  V30 1530 O 142.067 0.190884 1.75968 0
M  V30 1531 C 139.196 0.672118 3.36656 0
M  V30 1532 C 138.282 1.77586 3.85128 0
M  V30 1533 N 138.673 3.01272 4.06287 0
M  V30 1534 C 136.971 1.65867 4.1401 0
M  V30 1535 C 137.672 3.72983 4.46384 0
M  V30 1536 N 136.648 3.00653 4.52889 0
M  V30 1537 H 140.45 1.97968 2.17223 0
M  V30 1538 H 137.964 1.16618 1.13022 0
M  V30 1539 H 139.961 0.495166 4.13949 0
M  V30 1540 H 138.621 -0.259307 3.23663 0
M  V30 1541 H 139.632 3.37213 3.93075 0
M  V30 1542 H 136.309 0.796907 4.09824 0
M  V30 1543 H 137.699 4.792 4.70975 0
M  V30 1544 N 140.419 -1.14872 1.07899 0
M  V30 1545 C 141.382 -2.17986 0.708161 0
M  V30 1546 C 142.382 -1.58775 -0.25442 0
M  V30 1547 O 143.572 -1.74166 -0.034645 0
M  V30 1548 C 140.704 -3.40871 0.0446929 0
M  V30 1549 H 141.897 -2.52306 1.62116 0
M  V30 1550 H 139.45 -1.2943 0.876218 0
M  V30 1551 H 140.185 -3.12124 -0.880281 0
M  V30 1552 H 139.97 -3.8511 0.737091 0
M  V30 1553 H 141.46 -4.17121 -0.19991 0
M  V30 1554 N 141.898 -0.863906 -1.31812 0
M  V30 1555 C 143.145 -0.471836 -1.96926 0
M  V30 1556 C 143.473 0.974578 -1.68322 0
M  V30 1557 O 142.728 1.7003 -0.968933 0
M  V30 1558 C 143.027 -0.668547 -3.51091 0
M  V30 1559 C 142.693 -2.08683 -3.99703 0
M  V30 1560 C 141.355 -2.47471 -4.12688 0
M  V30 1561 C 143.707 -3.01207 -4.25351 0
M  V30 1562 C 141.035 -3.78037 -4.4867 0
M  V30 1563 C 143.387 -4.31282 -4.62794 0
M  V30 1564 C 142.051 -4.69992 -4.73987 0
M  V30 1565 H 141.321 -0.172657 -0.720604 0
M  V30 1566 H 143.968 -1.09573 -1.57054 0
M  V30 1567 H 142.273 0.0385252 -3.91781 0
M  V30 1568 H 143.97 -0.345102 -3.99512 0
M  V30 1569 H 140.56 -1.77566 -3.90087 0
M  V30 1570 H 144.744 -2.72469 -4.14819 0
M  V30 1571 H 140 -4.078 -4.55532 0
M  V30 1572 H 144.174 -5.03031 -4.81594 0
M  V30 1573 H 141.801 -5.71207 -5.01624 0
M  V30 1574 N 143.376 1.44774 -0.622745 0
M  V30 1575 C 144.286 2.34433 0.0886031 0
M  V30 1576 C 145.302 1.52131 0.844529 0
M  V30 1577 O 146.478 1.84886 0.798691 0
M  V30 1578 C 143.543 3.29986 1.0635 0
M  V30 1579 C 142.604 4.28195 0.307873 0
M  V30 1580 C 141.837 5.19183 1.23633 0
M  V30 1581 O 142.06 5.13918 2.47476 0
M  V30 1582 O 140.994 5.97515 0.725189 0
M  V30 1583 H 144.82 2.96693 -0.648599 0
M  V30 1584 H 142.405 1.44408 -0.382957 0
M  V30 1585 H 144.287 3.88825 1.6246 0
M  V30 1586 H 142.962 2.70269 1.78146 0
M  V30 1587 H 141.869 3.72927 -0.296064 0
M  V30 1588 H 143.202 4.90808 -0.3699 0
M  V30 1589 N 144.854 0.36279 1.53368 0
M  V30 1590 C 146.103 -0.22888 2.00397 0
M  V30 1591 C 146.416 -1.50096 1.25421 0
M  V30 1592 O 147.622 -2.17106 1.63025 0
M  V30 1593 C 146.078 -0.458417 3.56969 0
M  V30 1594 C 145.686 0.798877 4.4082 0
M  V30 1595 C 147.43 -1.00789 4.12361 0
M  V30 1596 C 145.337 0.539078 5.88938 0
M  V30 1597 H 144.267 -0.089305 0.748693 0
M  V30 1598 H 146.918 0.481099 1.77081 0
M  V30 1599 H 145.3 -1.22959 3.76427 0
M  V30 1600 H 146.474 1.57262 4.33134 0
M  V30 1601 H 144.789 1.27137 3.96516 0
M  V30 1602 H 147.386 -1.21754 5.20653 0
M  V30 1603 H 147.729 -1.9692 3.66781 0
M  V30 1604 H 148.262 -0.296961 3.9669 0
M  V30 1605 H 145.001 1.47064 6.3879 0
M  V30 1606 H 144.521 -0.196222 5.99479 0
M  V30 1607 H 146.2 0.163542 6.46793 0
M  V30 1608 N 146.332 -1.57332 0.0918853 0
M  V30 1609 C 147.581 -1.93412 -0.572249 0
M  V30 1610 C 147.894 -0.975515 -1.69538 0
M  V30 1611 O 149.1 -1.22991 -2.42045 0
M  V30 1612 C 147.556 -3.43648 -1.0693 0
M  V30 1613 C 147.164 -4.47994 0.0239049 0
M  V30 1614 C 148.908 -3.88695 -1.70635 0
M  V30 1615 C 146.815 -5.89381 -0.488319 0
M  V30 1616 H 145.745 -0.721939 -0.217532 0
M  V30 1617 H 148.396 -1.82735 0.167369 0
M  V30 1618 H 146.778 -3.49466 -1.8625 0
M  V30 1619 H 147.952 -4.53815 0.799277 0
M  V30 1620 H 146.267 -4.12536 0.565946 0
M  V30 1621 H 148.864 -4.91725 -2.10025 0
M  V30 1622 H 149.207 -3.27166 -2.57426 0
M  V30 1623 H 149.74 -3.85564 -0.979023 0
M  V30 1624 H 146.479 -6.54602 0.342906 0
M  V30 1625 H 145.999 -5.87037 -1.23077 0
M  V30 1626 H 147.678 -6.39863 -0.958317 0
M  V30 1627 N 147.81 0.181792 -1.56548 0
M  V30 1628 C 148.76 1.22961 -1.92002 0
M  V30 1629 C 149.744 1.40331 -0.787146 0
M  V30 1630 O 150.936 1.42478 -1.05019 0
M  V30 1631 C 148.065 2.57144 -2.27446 0
M  V30 1632 C 147.151 2.43512 -3.47222 0
M  V30 1633 N 147.542 1.99577 -4.64761 0
M  V30 1634 C 145.84 2.74368 -3.51622 0
M  V30 1635 C 146.541 1.98156 -5.46909 0
M  V30 1636 N 145.517 2.40164 -4.8767 0
M  V30 1637 H 149.319 0.881462 -2.8037 0
M  V30 1638 H 146.833 0.390141 -1.57644 0
M  V30 1639 H 148.83 3.32847 -2.51035 0
M  V30 1640 H 147.49 2.92771 -1.40411 0
M  V30 1641 H 148.501 1.70078 -4.89177 0
M  V30 1642 H 145.178 3.14102 -2.75038 0
M  V30 1643 H 146.568 1.65975 -6.51077 0
M  V30 1644 N 149.288 1.51039 0.449983 0
M  V30 1645 C 150.218 1.74379 1.55288 0
M  V30 1646 C 151.199 0.593236 1.5942 0
M  V30 1647 O 152.384 0.834625 1.7535 0
M  V30 1648 C 149.514 1.85728 2.93466 0
M  V30 1649 C 148.468 3.01078 3.04197 0
M  V30 1650 C 147.794 2.97595 4.44231 0
M  V30 1651 C 149.094 4.41254 2.7945 0
M  V30 1652 H 150.788 2.66725 1.36008 0
M  V30 1653 H 148.334 1.2835 0.652864 0
M  V30 1654 H 150.287 2.0064 3.70569 0
M  V30 1655 H 149.011 0.900207 3.13949 0
M  V30 1656 H 147.67 2.85851 2.29531 0
M  V30 1657 H 147.318 1.99691 4.61663 0
M  V30 1658 H 147.018 3.75046 4.52343 0
M  V30 1659 H 148.542 3.14583 5.23326 0
M  V30 1660 H 149.956 4.56897 3.46292 0
M  V30 1661 H 148.353 5.20315 2.98985 0
M  V30 1662 H 149.423 4.52164 1.75144 0
M  V30 1663 N 150.766 -0.704594 1.40972 0
M  V30 1664 C 151.696 -1.83124 1.44872 0
M  V30 1665 C 152.677 -1.67281 0.30838 0
M  V30 1666 O 153.862 -1.87149 0.518556 0
M  V30 1667 C 150.992 -3.21181 1.32136 0
M  V30 1668 C 149.946 -3.51714 2.43888 0
M  V30 1669 C 149.272 -4.89032 2.16222 0
M  V30 1670 C 150.572 -3.516 3.86232 0
M  V30 1671 H 152.266 -1.80117 2.39161 0
M  V30 1672 H 149.812 -0.865145 1.15114 0
M  V30 1673 H 151.765 -3.99702 1.33479 0
M  V30 1674 H 150.489 -3.24791 0.343279 0
M  V30 1675 H 149.148 -2.75539 2.41813 0
M  V30 1676 H 148.796 -4.89256 1.16778 0
M  V30 1677 H 148.496 -5.10426 2.911 0
M  V30 1678 H 150.02 -5.69873 2.19265 0
M  V30 1679 H 151.434 -4.2014 3.9007 0
M  V30 1680 H 149.831 -3.84523 4.60719 0
M  V30 1681 H 150.901 -2.50757 4.15029 0
M  V30 1682 N 152.244 -1.26651 -0.937939 0
M  V30 1683 C 153.472 -1.15173 -1.7188 0
M  V30 1684 C 153.887 0.292668 -1.86518 0
M  V30 1685 O 153.244 1.20014 -1.37488 0
M  V30 1686 C 153.295 -1.81925 -3.12387 0
M  V30 1687 O 153.016 -3.2072 -2.98446 0
M  V30 1688 C 154.517 -1.76442 -4.06673 0
M  V30 1689 H 151.737 -0.400911 -0.538063 0
M  V30 1690 H 154.281 -1.67332 -1.1756 0
M  V30 1691 H 152.436 -1.33696 -3.63599 0
M  V30 1692 H 152.85 -3.53802 -3.872 0
M  V30 1693 H 154.324 -2.27781 -5.02812 0
M  V30 1694 H 154.801 -0.731608 -4.33064 0
M  V30 1695 H 155.407 -2.24238 -3.61382 0
M  V30 1696 N 153.722 1.14298 -1.08507 0
M  V30 1697 C 154.97 1.84993 -0.813763 0
M  V30 1698 C 155.291 1.83405 0.662393 0
M  V30 1699 O 154.561 1.28319 1.48024 0
M  V30 1700 H 153.141 0.684966 -0.298045 0
M  V30 1701 H 155.803 1.385 -1.37126 0
M  V30 1702 H 154.899 2.89788 -1.15884 0
M  V30 1703 N 155.201 0.870884 1.31352 0
M  V30 1704 C 156.111 0.330783 2.32256 0
M  V30 1705 C 157.127 -0.559767 1.6475 0
M  V30 1706 O 158.303 -0.456263 1.96164 0
M  V30 1707 C 155.368 -0.458137 3.4366 0
M  V30 1708 C 154.429 0.460482 4.26823 0
M  V30 1709 C 153.662 -0.290881 5.32907 0
M  V30 1710 O 153.885 -1.51885 5.49806 0
M  V30 1711 O 152.819 0.351732 6.00871 0
M  V30 1712 H 156.645 1.16718 2.80376 0
M  V30 1713 H 154.23 0.634285 1.35267 0
M  V30 1714 H 156.112 -0.905343 4.1156 0
M  V30 1715 H 154.787 -1.27106 2.97701 0
M  V30 1716 H 153.694 0.956207 3.61673 0
M  V30 1717 H 155.027 1.23903 4.7635 0
M  V30 1718 N 156.679 -1.44442 0.630414 0
M  V30 1719 C 157.627 -2.32437 -0.0871428 0
M  V30 1720 C 158.621 -1.47304 -0.836525 0
M  V30 1721 O 159.827 -1.63653 -0.749506 0
M  V30 1722 H 156.202 -0.750533 -0.0469495 0
M  V30 1723 H 158.173 -2.90709 0.673096 0
M  V30 1724 C 156.922 -3.31288 -1.05563 0
M  V30 1725 H 156.245 -3.96805 -0.488426 0
M  V30 1726 H 157.685 -3.9554 -1.52721 0
M  V30 1727 C 156.144 -2.6016 -2.14052 0
M  V30 1728 O 156.674 -2.39997 -3.22124 0
M  V30 1729 N 154.88 -2.19911 -1.89967 0
M  V30 1730 H 154.427 -2.36509 -1.02085 0
M  V30 1731 H 154.385 -1.72646 -2.62756 0
M  V30 1732 N 158.157 -0.370918 -1.53173 0
M  V30 1733 C 159.568 0.107139 -1.86392 0
M  V30 1734 C 159.919 1.47714 -1.29132 0
M  V30 1735 O 159.044 2.07464 -0.615439 0
M  V30 1736 C 159.639 0.201187 -3.38202 0
M  V30 1737 C 158.198 0.623507 -3.712 0
M  V30 1738 C 157.345 -0.225978 -2.76378 0
M  V30 1739 H 160.296 -0.58951 -1.47345 0
M  V30 1740 H 160.317 1.02377 -3.66468 0
M  V30 1741 H 159.829 -0.796058 -3.79848 0
M  V30 1742 H 157.93 1.62879 -3.35114 0
M  V30 1743 H 158.043 0.394414 -4.77474 0
M  V30 1744 H 156.407 0.305962 -2.52856 0
M  V30 1745 H 157.19 -1.22086 -3.20858 0
M  V30 1746 N 159.635 1.57281 -0.100228 0
M  V30 1747 C 160.565 2.17328 0.853857 0
M  V30 1748 C 161.546 1.10804 1.2906 0
M  V30 1749 O 162.731 1.38963 1.35657 0
M  V30 1750 C 159.861 2.75772 2.11109 0
M  V30 1751 C 158.815 3.87713 1.81279 0
M  V30 1752 C 158.141 4.32882 3.13874 0
M  V30 1753 C 159.441 5.10677 1.09574 0
M  V30 1754 H 161.135 2.97305 0.353545 0
M  V30 1755 H 158.681 1.43009 0.168612 0
M  V30 1756 H 160.634 3.16433 2.78296 0
M  V30 1757 H 159.358 1.93057 2.63432 0
M  V30 1758 H 158.017 3.476 1.16489 0
M  V30 1759 H 157.665 3.47051 3.64095 0
M  V30 1760 H 157.365 5.08358 2.94696 0
M  V30 1761 H 158.889 4.7618 3.82211 0
M  V30 1762 H 160.303 5.48474 1.66879 0
M  V30 1763 H 158.7 5.91615 1.00557 0
M  V30 1764 H 159.77 4.84835 0.0793299 0
M  V30 1765 N 161.113 -0.173488 1.56642 0
M  V30 1766 C 162.045 -1.23935 1.92802 0
M  V30 1767 C 163.058 -1.40589 0.820889 0
M  V30 1768 O 164.247 -1.40631 1.09933 0
M  V30 1769 C 161.347 -2.60837 2.16373 0
M  V30 1770 C 160.52 -2.6551 3.47596 0
M  V30 1771 C 159.579 -3.8376 3.60021 0
M  V30 1772 O 158.605 -3.69859 4.32658 0
M  V30 1773 N 159.807 -5.00127 2.94709 0
M  V30 1774 H 162.572 -0.932236 2.84832 0
M  V30 1775 H 160.133 -0.363268 1.57772 0
M  V30 1776 H 162.125 -3.38407 2.21952 0
M  V30 1777 H 160.695 -2.83948 1.30738 0
M  V30 1778 H 159.915 -1.74052 3.53694 0
M  V30 1779 H 161.203 -2.65641 4.33949 0
M  V30 1780 H 160.601 -5.14322 2.35563 0
M  V30 1781 H 159.158 -5.75567 3.05886 0
M  V30 1782 N 162.591 -1.51276 -0.441967 0
M  V30 1783 C 163.837 -1.63958 -1.19355 0
M  V30 1784 C 164.17 -0.352543 -1.90973 0
M  V30 1785 O 163.445 0.647627 -1.83401 0
M  V30 1786 C 163.728 -2.83979 -2.21422 0
M  V30 1787 C 163.581 -4.22646 -1.53918 0
M  V30 1788 C 164.9 -2.99521 -3.22451 0
M  V30 1789 H 162.019 -0.596709 -0.432559 0
M  V30 1790 H 164.661 -1.83748 -0.483398 0
M  V30 1791 H 162.811 -2.67237 -2.81987 0
M  V30 1792 H 164.483 -4.51045 -0.967256 0
M  V30 1793 H 162.726 -4.25558 -0.841615 0
M  V30 1794 H 163.397 -5.02609 -2.28229 0
M  V30 1795 H 165.873 -3.14944 -2.71937 0
M  V30 1796 H 164.749 -3.85072 -3.91166 0
M  V30 1797 H 165.01 -2.11391 -3.88287 0
M  V30 1798 N 164.069 0.697108 -1.41344 0
M  V30 1799 C 164.999 1.82353 -1.45841 0
M  V30 1800 C 165.98 1.67115 -0.317247 0
M  V30 1801 O 167.165 1.86871 -0.528474 0
M  V30 1802 C 164.295 3.20476 -1.33838 0
M  V30 1803 C 163.249 3.50415 -2.4575 0
M  V30 1804 C 162.575 4.87878 -2.18813 0
M  V30 1805 C 163.875 3.49546 -3.88091 0
M  V30 1806 H 165.569 1.78846 -2.40113 0
M  V30 1807 H 163.115 0.859028 -1.15571 0
M  V30 1808 H 165.068 3.98988 -1.35596 0
M  V30 1809 H 163.792 3.24604 -0.360498 0
M  V30 1810 H 162.451 2.74253 -2.43271 0
M  V30 1811 H 162.099 4.8863 -1.19371 0
M  V30 1812 H 161.799 5.08875 -2.93803 0
M  V30 1813 H 163.323 5.68702 -2.22284 0
M  V30 1814 H 164.737 4.18066 -3.92293 0
M  V30 1815 H 163.134 3.82075 -4.62751 0
M  V30 1816 H 164.204 2.48552 -4.16353 0
M  V30 1817 N 165.547 1.27147 0.931209 0
M  V30 1818 C 166.793 1.13446 1.68101 0
M  V30 1819 C 167.126 -0.319628 1.91552 0
M  V30 1820 O 166.401 -1.23407 1.50336 0
M  V30 1821 C 166.684 1.91482 3.0497 0
M  V30 1822 C 166.537 3.44855 2.88782 0
M  V30 1823 C 167.856 1.71651 4.05246 0
M  V30 1824 H 164.975 0.413498 0.610072 0
M  V30 1825 H 167.617 1.56261 1.08086 0
M  V30 1826 H 165.767 1.55095 3.56199 0
M  V30 1827 H 167.439 3.9105 2.44698 0
M  V30 1828 H 165.682 3.71373 2.24198 0
M  V30 1829 H 166.353 3.94694 3.85902 0
M  V30 1830 H 168.829 2.0337 3.63015 0
M  V30 1831 H 167.705 2.28651 4.99009 0
M  V30 1832 H 167.966 0.663555 4.37092 0
M  V30 1833 N 167.025 -1.13721 1.09112 0
M  V30 1834 C 167.973 -2.21103 0.722219 0
M  V30 1835 C 168.967 -1.67147 -0.275374 0
M  V30 1836 O 170.173 -1.79477 -0.137176 0
M  V30 1837 H 166.548 -0.720445 0.215553 0
M  V30 1838 H 168.519 -2.49483 1.63709 0
M  V30 1839 C 167.268 -3.47352 0.15543 0
M  V30 1840 H 166.591 -3.89206 0.914246 0
M  V30 1841 H 168.031 -4.2395 -0.0647967 0
M  V30 1842 C 166.49 -3.1814 -1.10852 0
M  V30 1843 O 167.02 -3.36604 -2.19227 0
M  V30 1844 N 165.226 -2.72045 -1.02176 0
M  V30 1845 H 164.773 -2.57221 -0.139764 0
M  V30 1846 H 164.731 -2.52875 -1.8682 0
M  V30 1847 N 168.503 -0.877838 -1.30888 0
M  V30 1848 C 169.466 -0.344265 -2.266 0
M  V30 1849 C 170.466 0.50922 -1.52524 0
M  V30 1850 O 171.656 0.317398 -1.71284 0
M  V30 1851 C 168.788 0.510198 -3.37061 0
M  V30 1852 H 169.981 -1.1893 -2.7531 0
M  V30 1853 H 167.534 -0.654088 -1.41956 0
M  V30 1854 H 168.269 1.37612 -2.93655 0
M  V30 1855 H 168.054 -0.101047 -3.9197 0
M  V30 1856 H 169.544 0.875537 -4.08319 0
M  V30 1857 N 169.982 1.44106 -0.638065 0
M  V30 1858 C 171.231 2.01194 -0.142744 0
M  V30 1859 C 171.544 1.50835 1.24532 0
M  V30 1860 O 172.75 2.00096 1.83504 0
M  V30 1861 C 171.206 3.59319 -0.20442 0
M  V30 1862 C 170.814 4.18674 -1.59423 0
M  V30 1863 C 172.558 4.23854 0.234079 0
M  V30 1864 C 170.465 5.69045 -1.61065 0
M  V30 1865 H 169.395 0.752367 -0.0495998 0
M  V30 1866 H 172.046 1.65246 -0.797881 0
M  V30 1867 H 170.428 3.92598 0.517946 0
M  V30 1868 H 171.602 3.96921 -2.34074 0
M  V30 1869 H 169.917 3.66453 -1.97741 0
M  V30 1870 H 172.514 5.34155 0.241443 0
M  V30 1871 H 172.857 3.96688 1.2627 0
M  V30 1872 H 173.39 3.95403 -0.436025 0
M  V30 1873 H 170.129 6.00956 -2.61787 0
M  V30 1874 H 169.649 5.929 -0.90718 0
M  V30 1875 H 171.328 6.32809 -1.34766 0
M  V30 1876 N 171.46 0.379036 1.52974 0
M  V30 1877 C 172.709 -0.207612 2.00629 0
M  V30 1878 C 173.022 -1.48758 1.27006 0
M  V30 1879 O 174.228 -2.15365 1.65318 0
M  V30 1880 C 172.684 -0.42053 3.57435 0
M  V30 1881 C 172.292 0.845587 4.39948 0
M  V30 1882 C 174.036 -0.964102 4.13407 0
M  V30 1883 C 171.943 0.601513 5.88333 0
M  V30 1884 H 170.873 -0.0813591 0.749598 0
M  V30 1885 H 173.524 0.499853 1.76561 0
M  V30 1886 H 171.906 -1.18959 3.7771 0
M  V30 1887 H 173.08 1.61848 4.31442 0
M  V30 1888 H 171.395 1.31336 3.95145 0
M  V30 1889 H 173.992 -1.16225 5.21916 0
M  V30 1890 H 174.335 -1.93019 3.68849 0
M  V30 1891 H 174.868 -0.25487 3.96983 0
M  V30 1892 H 171.607 1.53831 6.37194 0
M  V30 1893 H 171.127 -0.132628 5.99653 0
M  V30 1894 H 172.806 0.232134 6.46583 0
M  V30 1895 N 172.938 -1.57226 0.108567 0
M  V30 1896 C 173.886 -2.16002 -0.862885 0
M  V30 1897 C 174.88 -1.10644 -1.28274 0
M  V30 1898 O 176.086 -1.28966 -1.2557 0
M  V30 1899 H 172.461 -0.691148 -0.296342 0
M  V30 1900 H 174.432 -2.96427 -0.342575 0
M  V30 1901 C 173.181 -2.76576 -2.10716 0
M  V30 1902 H 172.504 -3.5734 -1.793 0
M  V30 1903 H 173.944 -3.21253 -2.76717 0
M  V30 1904 C 172.403 -1.73137 -2.89007 0
M  V30 1905 O 172.933 -1.17842 -3.84026 0
M  V30 1906 N 171.139 -1.43317 -2.52801 0
M  V30 1907 H 170.686 -1.88473 -1.75601 0
M  V30 1908 H 170.644 -0.743485 -3.05483 0
M  V30 1909 N 174.416 0.165178 -1.56732 0
M  V30 1910 C 175.641 0.900253 -1.86843 0
M  V30 1911 C 176.066 1.74766 -0.695596 0
M  V30 1912 O 175.424 1.77786 0.35522 0
M  V30 1913 C 175.472 1.74777 -3.15413 0
M  V30 1914 O 174.576 2.85007 -2.98068 0
M  V30 1915 H 173.917 0.251832 -0.614391 0
M  V30 1916 H 176.447 0.161468 -2.03962 0
M  V30 1917 H 176.457 2.14646 -3.46974 0
M  V30 1918 H 175.132 1.12537 -4.00385 0
M  V30 1919 H 173.709 2.48676 -2.77875 0
M  V30 1920 N 175.894 1.51508 0.433938 0
M  V30 1921 C 177.142 1.6402 1.18075 0
M  V30 1922 C 177.463 0.360328 1.91642 0
M  V30 1923 O 176.733 -0.623945 1.85698 0
M  V30 1924 H 175.313 0.6045 0.43885 0
M  V30 1925 H 177.975 1.88452 0.497178 0
M  V30 1926 H 177.071 2.46949 1.90847 0
M  V30 1927 N 177.372 -0.689602 1.41712 0
M  V30 1928 C 178.783 -1.26973 1.36875 0
M  V30 1929 C 179.134 -1.96124 0.054748 0
M  V30 1930 O 178.259 -1.99141 -0.84687 0
M  V30 1931 C 178.854 -2.30912 2.47922 0
M  V30 1932 C 177.413 -2.84486 2.46464 0
M  V30 1933 C 176.56 -1.58603 2.27465 0
M  V30 1934 H 179.511 -0.48396 1.51141 0
M  V30 1935 H 179.532 -3.12331 2.17323 0
M  V30 1936 H 179.044 -1.80554 3.43543 0
M  V30 1937 H 177.145 -3.39005 1.54617 0
M  V30 1938 H 177.258 -3.34511 3.42986 0
M  V30 1939 H 175.622 -1.84632 1.75451 0
M  V30 1940 H 176.405 -1.10233 3.25121 0
M  V30 1941 N 178.85 -1.27639 -0.924453 0
M  V30 1942 C 180.266 -1.05113 -1.20097 0
M  V30 1943 C 180.466 0.213262 -2.00368 0
M  V30 1944 O 179.522 0.91787 -2.35226 0
M  V30 1945 C 180.835 -2.29244 -1.94596 0
M  V30 1946 C 182.383 -2.34315 -2.07522 0
M  V30 1947 C 182.858 -3.58183 -2.85427 0
M  V30 1948 N 184.349 -3.5876 -2.92994 0
M  V30 1949 C 185.084 -4.51277 -3.53746 0
M  V30 1950 N 184.58 -5.54102 -4.15863 0
M  V30 1951 N 186.373 -4.38894 -3.51181 0
M  V30 1952 H 178.524 -2.08821 -0.388264 0
M  V30 1953 H 180.787 -0.918568 -0.234385 0
M  V30 1954 H 180.493 -3.21301 -1.43034 0
M  V30 1955 H 180.367 -2.34816 -2.95197 0
M  V30 1956 H 182.754 -1.42762 -2.58269 0
M  V30 1957 H 182.835 -2.32744 -1.06131 0
M  V30 1958 H 182.479 -4.50074 -2.35363 0
M  V30 1959 H 182.409 -3.57006 -3.8711 0
M  V30 1960 H 184.9 -2.84398 -2.4885 0
M  V30 1961 H 185.213 -6.20859 -4.60168 0
M  V30 1962 H 183.558 -5.57941 -4.144 0
M  V30 1963 H 186.749 -3.57772 -3.01856 0
M  V30 1964 H 186.922 -5.11186 -3.98237 0
M  V30 1965 N 180.328 1.1314 -1.09713 0
M  V30 1966 C 181.238 2.22242 -0.751367 0
M  V30 1967 C 182.254 1.72224 0.247938 0
M  V30 1968 O 183.43 2.01205 0.0885463 0
M  V30 1969 C 180.495 3.46231 -0.180274 0
M  V30 1970 C 179.556 4.11125 -1.2359 0
M  V30 1971 C 178.789 5.29195 -0.691966 0
M  V30 1972 O 179.012 5.68342 0.48414 0
M  V30 1973 O 177.946 5.84214 -1.44838 0
M  V30 1974 H 181.772 2.54197 -1.66186 0
M  V30 1975 H 179.357 1.21331 -0.871735 0
M  V30 1976 H 181.239 4.21185 0.134739 0
M  V30 1977 H 179.914 3.1597 0.703185 0
M  V30 1978 H 178.821 3.37985 -1.60366 0
M  V30 1979 H 180.154 4.45524 -2.09211 0
M  V30 1980 N 181.806 0.884767 1.30421 0
M  V30 1981 C 183.083 0.423185 1.90967 0
M  V30 1982 C 183.463 -1.09605 1.80416 0
M  V30 1983 O 182.811 -1.93126 1.22125 0
M  V30 1984 C 183.021 0.921056 3.36627 0
M  V30 1985 C 184.369 0.955903 4.137 0
M  V30 1986 O 185.393 0.867706 3.4547 0
M  V30 1987 O 184.252 1.08614 5.35598 0
M  V30 1988 H 181.346 0.129369 0.816819 0
M  V30 1989 H 183.892 0.973653 1.3899 0
M  V30 1990 H 182.664 1.96489 3.3839 0
M  V30 1991 H 182.287 0.349741 3.96059 0
M  V30 1992 N 183.284 -1.43765 0.645699 0
M  V30 1993 C 184.509 -2.06767 0.161883 0
M  V30 1994 C 184.934 -1.48034 -1.16049 0
M  V30 1995 O 184.292 -0.587369 -1.71522 0
M  V30 1996 C 184.34 -3.60519 0.0762003 0
M  V30 1997 O 183.444 -4.00982 -0.963721 0
M  V30 1998 H 182.785 -0.657675 0.091429 0
M  V30 1999 H 185.315 -1.84397 0.886499 0
M  V30 2000 H 185.325 -4.07853 -0.109604 0
M  V30 2001 H 184 -4.02646 1.04157 0
M  V30 2002 H 182.577 -3.65253 -0.751312 0
M  V30 2003 N 184.763 -0.387143 -1.52771 0
M  V30 2004 C 185.991 0.195869 -2.05971 0
M  V30 2005 C 186.406 1.40691 -1.25903 0
M  V30 2006 O 185.763 1.79931 -0.305134 0
M  V30 2007 C 185.814 0.56812 -3.57008 0
M  V30 2008 O 185.535 -0.594803 -4.34043 0
M  V30 2009 C 187.036 1.20723 -4.26545 0
M  V30 2010 H 184.256 0.0300578 -0.670326 0
M  V30 2011 H 186.8 -0.551749 -1.96916 0
M  V30 2012 H 184.955 1.26564 -3.66143 0
M  V30 2013 H 185.369 -0.289322 -5.23701 0
M  V30 2014 H 186.843 1.41807 -5.33474 0
M  V30 2015 H 187.32 2.17395 -3.81623 0
M  V30 2016 H 187.926 0.550535 -4.21722 0
M  V30 2017 N 186.241 1.57166 -0.116904 0
M  V30 2018 C 187.657 1.5779 0.239693 0
M  V30 2019 C 187.857 1.1295 1.66867 0
M  V30 2020 O 186.913 0.81592 2.38954 0
M  V30 2021 C 188.226 3.00699 0.00828202 0
M  V30 2022 C 189.774 3.12912 0.0743438 0
M  V30 2023 C 190.249 4.57817 -0.129348 0
M  V30 2024 N 191.74 4.63139 -0.075247 0
M  V30 2025 C 192.475 5.73023 -0.207788 0
M  V30 2026 N 191.971 6.91665 -0.396382 0
M  V30 2027 N 193.764 5.61906 -0.14751 0
M  V30 2028 H 185.915 1.84615 -1.05029 0
M  V30 2029 H 188.178 0.85311 -0.41341 0
M  V30 2030 H 187.884 3.37784 -0.979531 0
M  V30 2031 H 187.758 3.69848 0.741077 0
M  V30 2032 H 190.145 2.75686 1.05268 0
M  V30 2033 H 190.226 2.4631 -0.690297 0
M  V30 2034 H 189.87 4.95742 -1.10465 0
M  V30 2035 H 189.8 5.22507 0.655253 0
M  V30 2036 H 192.291 3.7784 0.0670898 0
M  V30 2037 H 192.604 7.71255 -0.488437 0
M  V30 2038 H 190.949 6.93654 -0.432329 0
M  V30 2039 H 194.14 4.681 -0.00115036 0
M  V30 2040 H 194.313 6.47501 -0.254247 0
M  V30 2041 N 187.719 -0.156864 1.56817 0
M  V30 2042 C 188.968 -0.869504 1.81996 0
M  V30 2043 C 189.281 -1.82777 0.696545 0
M  V30 2044 O 190.487 -2.58384 0.833658 0
M  V30 2045 C 188.943 -1.59679 3.22538 0
M  V30 2046 C 188.551 -0.681431 4.42787 0
M  V30 2047 C 190.295 -2.2968 3.56997 0
M  V30 2048 C 188.202 -1.40978 5.74351 0
M  V30 2049 H 187.132 -0.328438 0.678708 0
M  V30 2050 H 189.783 -0.1223 1.83092 0
M  V30 2051 H 188.165 -2.38927 3.158 0
M  V30 2052 H 189.339 0.0751166 4.60739 0
M  V30 2053 H 187.654 -0.0903431 4.16302 0
M  V30 2054 H 190.251 -2.84794 4.52544 0
M  V30 2055 H 190.594 -3.05707 2.82576 0
M  V30 2056 H 191.127 -1.57361 3.65352 0
M  V30 2057 H 187.866 -0.691561 6.51842 0
M  V30 2058 H 187.386 -2.13929 5.60352 0
M  V30 2059 H 189.065 -1.95337 6.16808 0
M  V30 2060 N 189.197 -1.51736 -0.425897 0
M  V30 2061 C 190.445 -1.64644 -1.17204 0
M  V30 2062 C 190.766 -0.370486 -1.91448 0
M  V30 2063 O 190.036 0.614088 -1.86026 0
M  V30 2064 H 188.616 -0.606819 -0.435638 0
M  V30 2065 H 191.278 -1.88713 -0.487177 0
M  V30 2066 H 190.374 -2.47958 -1.89534 0
M  V30 2067 N 190.675 0.682077 -1.42076 0
M  V30 2068 C 192.091 0.994324 -1.24841 0
M  V30 2069 C 192.291 2.0096 -0.147389 0
M  V30 2070 O 191.347 2.47822 0.483782 0
M  V30 2071 C 192.66 1.50607 -2.60265 0
M  V30 2072 C 194.208 1.62421 -2.6756 0
M  V30 2073 C 194.683 2.16994 -4.03333 0
M  V30 2074 N 196.174 2.24337 -4.0525 0
M  V30 2075 C 196.909 2.67621 -5.07116 0
M  V30 2076 N 196.405 3.1041 -6.19368 0
M  V30 2077 N 198.198 2.67305 -4.94474 0
M  V30 2078 H 190.349 0.00973908 -2.12398 0
M  V30 2079 H 192.612 0.0668593 -0.945639 0
M  V30 2080 H 192.318 0.834583 -3.41654 0
M  V30 2081 H 192.192 2.48602 -2.83684 0
M  V30 2082 H 194.579 2.28678 -1.86521 0
M  V30 2083 H 194.66 0.629352 -2.47937 0
M  V30 2084 H 194.304 1.51349 -4.84826 0
M  V30 2085 H 194.234 3.17258 -4.20304 0
M  V30 2086 H 196.725 1.94158 -3.24209 0
M  V30 2087 H 197.038 3.42103 -6.92954 0
M  V30 2088 H 195.383 3.08286 -6.22884 0
M  V30 2089 H 198.574 2.33233 -4.05857 0
M  V30 2090 H 198.747 3.00718 -5.73997 0
M  V30 2091 N 192.153 1.28127 0.917671 0
M  V30 2092 C 193.116 1.11744 2.00115 0
M  V30 2093 C 194.116 0.0583052 1.60694 0
M  V30 2094 O 195.306 0.303755 1.71531 0
M  V30 2095 C 192.438 0.704862 3.33533 0
M  V30 2096 H 193.631 2.07966 2.16079 0
M  V30 2097 H 191.184 1.11058 1.09981 0
M  V30 2098 H 191.919 -0.258299 3.2327 0
M  V30 2099 H 191.704 1.4699 3.63505 0
M  V30 2100 H 193.194 0.612768 4.1308 0
M  V30 2101 N 193.631 -1.12557 1.10312 0
M  V30 2102 C 194.879 -1.83675 0.843091 0
M  V30 2103 C 195.2 -1.84435 -0.633131 0
M  V30 2104 O 194.47 -1.30657 -1.45964 0
M  V30 2105 H 193.05 -0.680138 0.308904 0
M  V30 2106 H 195.712 -1.36301 1.39313 0
M  V30 2107 H 194.808 -2.87908 1.2048 0
M  V30 2108 N 195.109 -0.891671 -1.2995 0
M  V30 2109 C 196.337 -0.52866 -2.00032 0
M  V30 2110 C 196.752 0.884574 -1.66795 0
M  V30 2111 O 196.109 1.5827 -0.908669 0
M  V30 2112 C 196.16 -0.701814 -3.54622 0
M  V30 2113 O 195.881 -2.05942 -3.86678 0
M  V30 2114 C 197.382 -0.342683 -4.41973 0
M  V30 2115 H 194.602 -0.203659 -0.639347 0
M  V30 2116 H 197.146 -1.19881 -1.65677 0
M  V30 2117 H 195.301 -0.0789468 -3.8732 0
M  V30 2118 H 195.715 -2.08291 -4.81368 0
M  V30 2119 H 197.189 -0.514709 -5.49595 0
M  V30 2120 H 197.666 0.71975 -4.33262 0
M  V30 2121 H 198.272 -0.942154 -4.14733 0
M  V30 2122 N 196.587 1.43421 -0.653314 0
M  V30 2123 C 197.833 2.02111 -0.166992 0
M  V30 2124 C 198.166 1.51423 1.21592 0
M  V30 2125 O 197.441 0.707389 1.8118 0
M  V30 2126 C 197.724 3.5966 -0.177948 0
M  V30 2127 C 197.577 4.20579 -1.59478 0
M  V30 2128 C 198.896 4.37413 0.4856 0
M  V30 2129 H 196.015 0.734374 -0.0621557 0
M  V30 2130 H 198.657 1.70717 -0.834016 0
M  V30 2131 H 196.807 3.86537 0.390032 0
M  V30 2132 H 198.479 4.04732 -2.21336 0
M  V30 2133 H 196.722 3.77226 -2.14204 0
M  V30 2134 H 197.393 5.29665 -1.5543 0
M  V30 2135 H 199.869 4.161 0.00234528 0
M  V30 2136 H 198.745 5.47075 0.447207 0
M  V30 2137 H 199.006 4.13672 1.55974 0
M  V30 2138 N 198.065 0.39524 1.52563 0
M  V30 2139 C 199.481 0.0454682 1.59535 0
M  V30 2140 C 199.681 -1.44056 1.4089 0
M  V30 2141 O 198.737 -2.20579 1.22888 0
M  V30 2142 C 200.05 0.527963 2.96029 0
M  V30 2143 C 201.598 0.484733 3.09224 0
M  V30 2144 C 202.073 0.943512 4.48176 0
M  V30 2145 N 203.564 0.899765 4.54377 0
M  V30 2146 C 204.299 1.22609 5.60138 0
M  V30 2147 N 203.795 1.62319 6.73516 0
M  V30 2148 N 205.588 1.14696 5.50274 0
M  V30 2149 H 197.739 1.36261 1.62931 0
M  V30 2150 H 200.002 0.558887 0.765735 0
M  V30 2151 H 199.708 1.56607 3.14908 0
M  V30 2152 H 199.582 -0.0698056 3.77135 0
M  V30 2153 H 201.969 -0.544298 2.90037 0
M  V30 2154 H 202.05 1.11838 2.30056 0
M  V30 2155 H 201.694 1.9708 4.68104 0
M  V30 2156 H 201.624 0.286817 5.25818 0
M  V30 2157 H 204.115 0.607632 3.72983 0
M  V30 2158 H 204.428 1.85567 7.5019 0
M  V30 2159 H 202.773 1.66211 6.74833 0
M  V30 2160 H 205.964 0.835701 4.6058 0
M  V30 2161 H 206.137 1.40459 6.32594 0
M  V30 2162 N 199.544 -1.57102 0.125237 0
M  V30 2163 C 200.96 -1.57915 -0.231322 0
M  V30 2164 C 201.16 -1.13833 -1.66266 0
M  V30 2165 O 200.216 -0.828581 -2.38518 0
M  V30 2166 C 201.529 -3.00699 0.00766489 0
M  V30 2167 C 203.077 -3.12947 -0.0577483 0
M  V30 2168 C 203.552 -4.57742 0.153626 0
M  V30 2169 N 205.043 -4.63092 0.0998073 0
M  V30 2170 C 205.778 -5.72905 0.238174 0
M  V30 2171 N 205.274 -6.91445 0.433057 0
M  V30 2172 N 207.067 -5.6182 0.177308 0
M  V30 2173 H 199.218 -1.84055 1.06007 0
M  V30 2174 H 201.481 -0.850905 0.417929 0
M  V30 2175 H 201.187 -3.3726 0.997431 0
M  V30 2176 H 201.061 -3.70236 -0.721452 0
M  V30 2177 H 203.448 -2.7624 -1.03804 0
M  V30 2178 H 203.529 -2.4594 0.70335 0
M  V30 2179 H 203.173 -4.95149 1.13092 0
M  V30 2180 H 203.103 -5.22848 -0.627534 0
M  V30 2181 H 205.594 -3.77871 -0.047051 0
M  V30 2182 H 205.907 -7.70985 0.529332 0
M  V30 2183 H 204.252 -6.93415 0.469109 0
M  V30 2184 H 207.443 -4.68093 0.0259748 0
M  V30 2185 H 207.616 -6.47357 0.288582 0
M  V30 2186 N 201.022 0.148545 -1.56898 0
M  V30 2187 C 201.954 1.20852 -1.9475 0
M  V30 2188 C 202.967 1.39265 -0.843152 0
M  V30 2189 O 204.156 1.38864 -1.12156 0
M  V30 2190 C 201.256 2.57362 -2.20495 0
M  V30 2191 C 200.429 2.59947 -3.51776 0
M  V30 2192 C 199.488 3.77984 -3.6608 0
M  V30 2193 O 198.514 3.62929 -4.38487 0
M  V30 2194 N 199.716 4.95375 -3.02629 0
M  V30 2195 H 202.481 0.886804 -2.86279 0
M  V30 2196 H 200.042 0.338121 -1.5833 0
M  V30 2197 H 202.034 3.34833 -2.27307 0
M  V30 2198 H 200.604 2.81832 -1.35238 0
M  V30 2199 H 199.824 1.68403 -3.56419 0
M  V30 2200 H 201.112 2.58704 -4.38121 0
M  V30 2201 H 200.51 5.10509 -2.43715 0
M  V30 2202 H 199.067 5.70627 -3.15004 0
M  V30 2203 N 202.5 1.5196 0.417844 0
M  V30 2204 C 203.463 1.74065 1.49111 0
M  V30 2205 C 204.463 0.610537 1.48758 0
M  V30 2206 O 205.653 0.87832 1.50437 0
M  V30 2207 C 202.785 1.81502 2.88565 0
M  V30 2208 H 203.978 2.69869 1.30807 0
M  V30 2209 H 201.531 1.42244 0.647785 0
M  V30 2210 H 202.266 0.875813 3.1225 0
M  V30 2211 H 202.051 2.63651 2.90225 0
M  V30 2212 H 203.541 2.00376 3.66387 0
M  V30 2213 N 203.978 -0.674533 1.42435 0
M  V30 2214 C 205.224 -1.43671 1.43131 0
M  V30 2215 C 205.557 -1.94142 0.0476021 0
M  V30 2216 O 204.832 -1.70924 -0.928188 0
M  V30 2217 C 205.115 -2.63355 2.45594 0
M  V30 2218 C 204.968 -2.18514 3.93156 0
M  V30 2219 C 206.287 -3.65571 2.45043 0
M  V30 2220 H 203.406 -0.521077 0.521198 0
M  V30 2221 H 206.048 -0.766551 1.7385 0
M  V30 2222 H 204.198 -3.2053 2.19528 0
M  V30 2223 H 205.87 -1.66504 4.30202 0
M  V30 2224 H 204.113 -1.50086 4.07009 0
M  V30 2225 H 204.784 -3.04484 4.60428 0
M  V30 2226 H 207.26 -3.18113 2.68223 0
M  V30 2227 H 206.136 -4.46893 3.18713 0
M  V30 2228 H 206.397 -4.16716 1.47649 0
M  V30 2229 N 205.456 -1.28612 -0.910864 0
M  V30 2230 C 206.733 -1.06632 -1.63979 0
M  V30 2231 C 207.113 0.393351 -2.07403 0
M  V30 2232 O 206.461 1.37999 -1.82122 0
M  V30 2233 C 206.671 -2.0436 -2.8291 0
M  V30 2234 C 208.019 -2.34666 -3.5386 0
M  V30 2235 O 209.043 -2.02467 -2.93062 0
M  V30 2236 O 207.902 -2.89631 -4.63439 0
M  V30 2237 H 204.996 -0.407737 -0.7195 0
M  V30 2238 H 207.542 -1.39942 -0.959914 0
M  V30 2239 H 206.314 -3.02727 -2.47936 0
M  V30 2240 H 205.937 -1.71714 -3.58609 0
M  V30 2241 N 206.934 1.1197 -1.10907 0
M  V30 2242 C 208.18 1.8386 -0.855773 0
M  V30 2243 C 208.513 1.84134 0.617103 0
M  V30 2244 O 207.788 1.29041 1.45529 0
M  V30 2245 C 208.071 3.31305 -1.411 0
M  V30 2246 C 207.924 3.39456 -2.9511 0
M  V30 2247 C 209.243 4.2721 -1.05736 0
M  V30 2248 H 206.362 0.667545 -0.312334 0
M  V30 2249 H 209.004 1.31331 -1.37303 0
M  V30 2250 H 207.154 3.76169 -0.97105 0
M  V30 2251 H 208.826 3.03191 -3.47668 0
M  V30 2252 H 207.069 2.79849 -3.31462 0
M  V30 2253 H 207.74 4.43209 -3.29044 0
M  V30 2254 H 210.216 3.90497 -1.43706 0
M  V30 2255 H 209.092 5.28775 -1.47269 0
M  V30 2256 H 209.353 4.42088 0.0325958 0
M  V30 2257 N 208.412 0.89855 1.29475 0
M  V30 2258 C 209.637 0.538561 2.00285 0
M  V30 2259 C 210.062 -0.869135 1.66816 0
M  V30 2260 O 209.42 -1.57831 0.892145 0
M  V30 2261 C 209.468 0.736475 3.52999 0
M  V30 2262 O 208.572 -0.211537 4.11857 0
M  V30 2263 H 207.913 0.210563 0.62973 0
M  V30 2264 H 210.443 1.20982 1.64998 0
M  V30 2265 H 210.453 0.640685 4.02938 0
M  V30 2266 H 209.128 1.76276 3.76696 0
M  V30 2267 H 207.705 -0.0682991 3.72837 0
M  V30 2268 N 209.89 -1.43072 0.660911 0
M  V30 2269 C 211.301 -1.84932 0.256348 0
M  V30 2270 C 211.652 -1.55325 -1.19868 0
M  V30 2271 O 210.777 -1.00607 -1.91591 0
M  V30 2272 C 211.372 -3.35684 0.458475 0
M  V30 2273 C 209.931 -3.76245 0.108161 0
M  V30 2274 C 209.078 -2.66749 0.757641 0
M  V30 2275 H 212.029 -1.33116 0.864051 0
M  V30 2276 H 212.05 -3.79365 -0.293683 0
M  V30 2277 H 211.562 -3.572 1.51755 0
M  V30 2278 H 209.663 -3.60338 -0.948014 0
M  V30 2279 H 209.776 -4.76058 0.538992 0
M  V30 2280 H 208.14 -2.53989 0.190185 0
M  V30 2281 H 208.923 -2.91092 1.81989 0
M  V30 2282 N 211.368 -0.403325 -1.52352 0
M  V30 2283 C 212.298 0.416205 -2.29761 0
M  V30 2284 C 213.279 1.05123 -1.33728 0
M  V30 2285 O 214.464 1.06134 -1.62632 0
M  V30 2286 C 211.594 1.53624 -3.11475 0
M  V30 2287 C 210.548 1.02653 -4.15507 0
M  V30 2288 C 209.874 2.23971 -4.85532 0
M  V30 2289 C 211.174 0.08463 -5.22231 0
M  V30 2290 H 212.868 -0.229701 -2.98518 0
M  V30 2291 H 210.414 -0.111913 -1.43564 0
M  V30 2292 H 212.367 2.1165 -3.64393 0
M  V30 2293 H 211.091 2.20994 -2.40477 0
M  V30 2294 H 209.75 0.46871 -3.63591 0
M  V30 2295 H 209.398 2.89883 -4.11068 0
M  V30 2296 H 209.098 1.90521 -5.55856 0
M  V30 2297 H 210.622 2.82614 -5.41259 0
M  V30 2298 H 212.036 0.573509 -5.70424 0
M  V30 2299 H 210.433 -0.160783 -5.99885 0
M  V30 2300 H 211.503 -0.86237 -4.7717 0
M  V30 2301 N 212.846 1.57033 -0.133567 0
M  V30 2302 C 214.262 1.58035 0.222944 0
M  V30 2303 C 214.462 1.14713 1.6566 0
M  V30 2304 O 213.518 0.841218 2.38075 0
M  V30 2305 C 214.831 3.00691 -0.0236116 0
M  V30 2306 C 216.379 3.12973 0.0411512 0
M  V30 2307 C 216.854 4.57654 -0.177899 0
M  V30 2308 N 218.345 4.63033 -0.124365 0
M  V30 2309 C 219.08 5.72771 -0.268553 0
M  V30 2310 N 218.576 6.91206 -0.46972 0
M  V30 2311 N 220.369 5.61718 -0.2071 0
M  V30 2312 H 212.52 1.8349 -1.06981 0
M  V30 2313 H 214.783 0.848677 -0.422436 0
M  V30 2314 H 214.489 3.36726 -1.0153 0
M  V30 2315 H 214.363 3.70614 0.701808 0
M  V30 2316 H 216.75 2.76787 1.02338 0
M  V30 2317 H 216.831 2.45564 -0.716383 0
M  V30 2318 H 216.475 4.94542 -1.15717 0
M  V30 2319 H 216.405 5.23173 0.599797 0
M  V30 2320 H 218.896 3.7789 0.027011 0
M  V30 2321 H 219.209 7.70693 -0.570212 0
M  V30 2322 H 217.554 6.93156 -0.505876 0
M  V30 2323 H 220.745 4.68072 -0.0507986 0
M  V30 2324 H 220.918 6.47195 -0.322909 0
M  V30 2325 N 214.325 -0.140222 1.56975 0
M  V30 2326 C 215.741 -0.493088 1.51792 0
M  V30 2327 C 215.941 -1.83013 0.843116 0
M  V30 2328 O 214.997 -2.49041 0.416493 0
M  V30 2329 C 216.31 -0.497144 2.96562 0
M  V30 2330 C 217.858 -0.582186 3.07538 0
M  V30 2331 C 218.333 -0.616838 4.53827 0
M  V30 2332 N 219.824 -0.678873 4.58198 0
M  V30 2333 C 220.559 -0.726782 5.68775 0
M  V30 2334 N 220.055 -0.733623 6.88905 0
M  V30 2335 N 221.848 -0.768179 5.56826 0
M  V30 2336 H 213.999 0.736108 1.99237 0
M  V30 2337 H 216.262 0.269182 0.90898 0
M  V30 2338 H 215.968 0.417217 3.49217 0
M  V30 2339 H 215.842 -1.33263 3.52875 0
M  V30 2340 H 218.229 -1.48697 2.54899 0
M  V30 2341 H 218.31 0.280581 2.54257 0
M  V30 2342 H 217.954 0.283812 5.07106 0
M  V30 2343 H 217.884 -1.49619 5.04898 0
M  V30 2344 H 220.375 -0.68061 3.7172 0
M  V30 2345 H 220.688 -0.772215 7.68932 0
M  V30 2346 H 219.033 -0.701389 6.91452 0
M  V30 2347 H 222.224 -0.760051 4.61888 0
M  V30 2348 H 222.397 -0.80205 6.43017 0
M  V30 2349 N 215.803 -1.52179 -0.40978 0
M  V30 2350 C 217.049 -1.66453 -1.15851 0
M  V30 2351 C 217.382 -0.392972 -1.90182 0
M  V30 2352 O 216.657 0.608579 -1.84734 0
M  V30 2353 C 216.94 -2.88612 -2.15349 0
M  V30 2354 C 216.793 -4.25815 -1.44918 0
M  V30 2355 C 218.112 -3.06294 -3.16026 0
M  V30 2356 H 215.231 -0.60575 -0.419805 0
M  V30 2357 H 217.873 -1.84732 -0.444314 0
M  V30 2358 H 216.023 -2.73158 -2.76255 0
M  V30 2359 H 217.695 -4.52995 -0.871365 0
M  V30 2360 H 215.938 -4.27247 -0.751159 0
M  V30 2361 H 216.609 -5.07337 -2.17516 0
M  V30 2362 H 219.085 -3.20641 -2.65195 0
M  V30 2363 H 217.961 -3.93283 -3.8291 0
M  V30 2364 H 218.222 -2.19579 -3.83715 0
M  V30 2365 N 217.281 0.66697 -1.42791 0
M  V30 2366 C 218.229 1.80157 -1.47127 0
M  V30 2367 C 219.223 1.65825 -0.346199 0
M  V30 2368 O 220.429 1.72338 -0.519572 0
M  V30 2369 H 216.804 0.594158 -0.460956 0
M  V30 2370 H 218.775 1.73619 -2.42692 0
M  V30 2371 C 217.524 3.18351 -1.39813 0
M  V30 2372 H 216.847 3.3001 -2.25684 0
M  V30 2373 H 218.287 3.97736 -1.46908 0
M  V30 2374 C 216.746 3.36707 -0.11391 0
M  V30 2375 O 217.276 3.93027 0.830241 0
M  V30 2376 N 215.482 2.90586 -0.0285295 0
M  V30 2377 H 215.029 2.4494 -0.79764 0
M  V30 2378 H 214.987 3.03245 0.830063 0
M  V30 2379 N 218.759 1.29093 0.90403 0
M  V30 2380 C 219.691 1.09658 2.01266 0
M  V30 2381 C 220.704 0.0453729 1.62737 0
M  V30 2382 O 221.893 0.289446 1.76138 0
M  V30 2383 C 218.993 0.646278 3.32681 0
M  V30 2384 C 218.166 1.77505 3.99763 0
M  V30 2385 C 217.225 1.31649 5.09465 0
M  V30 2386 O 216.251 2.02045 5.32134 0
M  V30 2387 N 217.453 0.184997 5.80205 0
M  V30 2388 H 220.218 2.05135 2.18494 0
M  V30 2389 H 217.779 1.20975 1.07594 0
M  V30 2390 H 219.771 0.322906 4.0341 0
M  V30 2391 H 218.341 -0.215916 3.11853 0
M  V30 2392 H 217.561 2.26752 3.22455 0
M  V30 2393 H 218.849 2.53198 4.41325 0
M  V30 2394 H 218.247 -0.402021 5.6427 0
M  V30 2395 H 216.804 -0.0790358 6.51752 0
M  V30 2396 N 220.237 -1.11381 1.11499 0
M  V30 2397 C 221.2 -2.15622 0.777153 0
M  V30 2398 C 222.2 -1.59504 -0.203779 0
M  V30 2399 O 223.39 -1.74188 0.020782 0
M  V30 2400 C 220.522 -3.40556 0.153116 0
M  V30 2401 H 221.715 -2.47021 1.70061 0
M  V30 2402 H 219.268 -1.26577 0.916952 0
M  V30 2403 H 220.003 -3.14767 -0.780536 0
M  V30 2404 H 219.788 -3.8257 0.859238 0
M  V30 2405 H 221.278 -4.17546 -0.0671044 0
M  V30 2406 N 221.715 -0.905404 -1.28997 0
M  V30 2407 C 222.964 -0.530191 -1.94607 0
M  V30 2408 C 223.277 0.929185 -1.72121 0
M  V30 2409 O 224.483 1.41218 -2.31883 0
M  V30 2410 C 222.939 -0.897333 -3.48534 0
M  V30 2411 C 222.547 -2.37587 -3.79811 0
M  V30 2412 C 224.291 -0.592304 -4.20347 0
M  V30 2413 C 222.198 -2.68357 -5.27009 0
M  V30 2414 H 221.128 -0.194558 -0.728466 0
M  V30 2415 H 223.779 -1.10318 -1.46636 0
M  V30 2416 H 222.161 -0.253214 -3.9519 0
M  V30 2417 H 223.335 -3.06602 -3.43994 0
M  V30 2418 H 221.65 -2.6505 -3.2115 0
M  V30 2419 H 224.247 -0.798975 -5.28697 0
M  V30 2420 H 224.59 0.469474 -4.13644 0
M  V30 2421 H 225.123 -1.19452 -3.79442 0
M  V30 2422 H 221.862 -3.73355 -5.38782 0
M  V30 2423 H 221.382 -2.03971 -5.64053 0
M  V30 2424 H 223.061 -2.54922 -5.94663 0
M  V30 2425 N 223.193 1.4272 -0.668489 0
M  V30 2426 C 224.439 2.02443 -0.197076 0
M  V30 2427 C 224.794 1.51882 1.18109 0
M  V30 2428 O 224.087 0.708618 1.78015 0
M  V30 2429 C 224.281 3.57021 -0.164499 0
M  V30 2430 C 224.11 4.22583 -1.53797 0
M  V30 2431 C 222.88 4.58019 -2.13416 0
M  V30 2432 C 225.078 4.50588 -2.47941 0
M  V30 2433 N 223.06 5.08729 -3.4361 0
M  V30 2434 C 224.431 5.02782 -3.62782 0
M  V30 2435 C 226.486 4.32571 -2.46551 0
M  V30 2436 C 225.189 5.38852 -4.76478 0
M  V30 2437 C 227.215 4.69713 -3.59338 0
M  V30 2438 C 226.577 5.22053 -4.72906 0
M  V30 2439 H 222.676 0.773214 -0.116894 0
M  V30 2440 H 225.26 1.73673 -0.880108 0
M  V30 2441 H 223.431 3.85323 0.487925 0
M  V30 2442 H 225.163 4.03439 0.319207 0
M  V30 2443 H 221.918 4.43566 -1.65969 0
M  V30 2444 H 222.342 5.38521 -4.10273 0
M  V30 2445 H 226.984 3.91365 -1.59978 0
M  V30 2446 H 224.702 5.78993 -5.63731 0
M  V30 2447 H 228.288 4.57454 -3.59482 0
M  V30 2448 H 227.168 5.50258 -5.58736 0
M  V30 2449 N 224.671 0.411399 1.52136 0
M  V30 2450 C 225.601 -0.404015 2.29978 0
M  V30 2451 C 226.582 -1.04412 1.34284 0
M  V30 2452 O 227.767 -1.0527 1.63192 0
M  V30 2453 C 224.897 -1.5197 3.12286 0
M  V30 2454 C 223.851 -1.00448 4.16046 0
M  V30 2455 C 223.177 -2.21393 4.86712 0
M  V30 2456 C 224.477 -0.0569336 5.22269 0
M  V30 2457 H 226.171 0.245529 2.98392 0
M  V30 2458 H 223.717 0.119525 1.43503 0
M  V30 2459 H 225.67 -2.09715 3.6551 0
M  V30 2460 H 224.394 -2.19716 2.41646 0
M  V30 2461 H 223.053 -0.449421 3.63835 0
M  V30 2462 H 222.701 -2.87699 4.12599 0
M  V30 2463 H 222.401 -1.87571 5.56858 0
M  V30 2464 H 223.925 -2.7974 5.4275 0
M  V30 2465 H 225.339 -0.54325 5.7072 0
M  V30 2466 H 223.736 0.192594 5.99791 0
M  V30 2467 H 224.806 0.887663 4.76706 0
M  V30 2468 N 226.149 -1.5696 0.141893 0
M  V30 2469 C 227.079 -2.19516 -0.795936 0
M  V30 2470 C 228.06 -1.14187 -1.26077 0
M  V30 2471 O 229.245 -1.42511 -1.31925 0
M  V30 2472 C 226.375 -2.81272 -2.03723 0
M  V30 2473 C 225.329 -3.92384 -1.70936 0
M  V30 2474 C 224.655 -4.41052 -3.02287 0
M  V30 2475 C 225.955 -5.13403 -0.959954 0
M  V30 2476 H 227.649 -2.98138 -0.274596 0
M  V30 2477 H 225.195 -1.43406 -0.130636 0
M  V30 2478 H 227.148 -3.237 -2.69808 0
M  V30 2479 H 225.872 -1.99973 -2.58221 0
M  V30 2480 H 224.531 -3.50566 -1.07232 0
M  V30 2481 H 224.179 -3.56582 -3.54765 0
M  V30 2482 H 223.879 -5.15993 -2.81114 0
M  V30 2483 H 225.403 -4.86146 -3.69451 0
M  V30 2484 H 226.817 -5.52706 -1.52279 0
M  V30 2485 H 225.214 -5.94073 -0.848357 0
M  V30 2486 H 226.284 -4.84875 0.0492434 0
M  V30 2487 N 227.627 0.131896 -1.57047 0
M  V30 2488 C 228.867 0.847972 -1.85981 0
M  V30 2489 C 229.231 1.77655 -0.7282 0
M  V30 2490 O 230.432 2.53322 -0.898968 0
M  V30 2491 C 228.703 1.58919 -3.20124 0
M  V30 2492 S 230.262 2.34862 -3.70655 0
M  V30 2493 H 227.08 0.283273 -0.652133 0
M  V30 2494 H 229.682 0.107057 -1.95207 0
M  V30 2495 H 228.386 0.898771 -4.00438 0
M  V30 2496 H 227.917 2.37073 -3.13942 0
M  V30 2497 H 229.932 3.60344 -3.41126 0
M  V30 2498 N 229.106 1.52395 0.401703 0
M  V30 2499 C 230.334 1.70676 1.16949 0
M  V30 2500 C 230.749 0.419503 1.8408 0
M  V30 2501 O 230.106 -0.605061 1.72178 0
M  V30 2502 C 230.157 2.84753 2.22706 0
M  V30 2503 O 229.878 4.08495 1.58314 0
M  V30 2504 C 231.379 3.14608 3.12309 0
M  V30 2505 H 228.599 0.571787 0.351142 0
M  V30 2506 H 231.143 1.98987 0.471652 0
M  V30 2507 H 229.298 2.58941 2.88147 0
M  V30 2508 H 229.712 4.72117 2.28485 0
M  V30 2509 H 231.186 3.97923 3.82572 0
M  V30 2510 H 231.663 2.28464 3.75101 0
M  V30 2511 H 232.269 3.42212 2.52529 0
M  V30 2512 N 230.584 -0.659388 1.43143 0
M  V30 2513 C 231.832 -1.41654 1.44147 0
M  V30 2514 C 232.153 -1.94893 0.0645739 0
M  V30 2515 O 231.423 -1.74044 -0.899198 0
M  V30 2516 H 230.003 -0.525708 0.530697 0
M  V30 2517 H 232.665 -0.778097 1.78694 0
M  V30 2518 H 231.761 -2.26195 2.1504 0
M  V30 2519 N 232.062 -1.29571 -0.897171 0
M  V30 2520 C 233.025 -1.14913 -1.98312 0
M  V30 2521 C 234.025 -0.0838629 -1.60581 0
M  V30 2522 O 235.215 -0.331006 -1.71026 0
M  V30 2523 C 232.347 -0.757835 -3.3237 0
M  V30 2524 H 233.54 -2.11377 -2.12743 0
M  V30 2525 H 231.093 -1.12793 -1.08201 0
M  V30 2526 H 231.828 0.206837 -3.2364 0
M  V30 2527 H 231.613 -1.52755 -3.61121 0
M  V30 2528 H 233.103 -0.678408 -4.12053 0
M  V30 2529 N 233.54 1.10788 -1.12088 0
M  V30 2530 C 234.956 1.34691 -0.856186 0
M  V30 2531 C 235.156 1.94791 0.515615 0
M  V30 2532 O 234.212 2.18524 1.26505 0
M  V30 2533 C 235.525 2.27208 -1.9697 0
M  V30 2534 C 237.073 2.40755 -2.00016 0
M  V30 2535 C 237.548 3.36598 -3.1059 0
M  V30 2536 N 239.039 3.44164 -3.10008 0
M  V30 2537 C 239.774 4.18284 -3.92206 0
M  V30 2538 N 239.27 4.95322 -4.84384 0
M  V30 2539 N 241.063 4.13865 -3.80357 0
M  V30 2540 H 233.214 0.70144 -2.00483 0
M  V30 2541 H 235.477 0.371405 -0.872217 0
M  V30 2542 H 235.183 1.90251 -2.958 0
M  V30 2543 H 235.057 3.27485 -1.87172 0
M  V30 2544 H 237.444 2.76982 -1.01808 0
M  V30 2545 H 237.525 1.40305 -2.13888 0
M  V30 2546 H 237.169 3.01096 -4.09028 0
M  V30 2547 H 237.099 4.36918 -2.93956 0
M  V30 2548 H 239.59 2.8922 -2.43228 0
M  V30 2549 H 239.903 5.49267 -5.43623 0
M  V30 2550 H 238.248 4.94459 -4.884 0
M  V30 2551 H 241.439 3.52773 -3.07683 0
M  V30 2552 H 241.612 4.71372 -4.44649 0
M  V30 2553 N 235.018 0.912232 1.28515 0
M  V30 2554 C 235.928 0.404506 2.31086 0
M  V30 2555 C 236.944 -0.50707 1.66448 0
M  V30 2556 O 238.12 -0.393624 1.97516 0
M  V30 2557 C 235.185 -0.348572 3.44943 0
M  V30 2558 C 234.246 0.59604 4.25142 0
M  V30 2559 C 233.479 -0.121194 5.33562 0
M  V30 2560 O 233.702 -1.34317 5.5436 0
M  V30 2561 O 232.636 0.542716 5.99448 0
M  V30 2562 H 236.462 1.25579 2.76521 0
M  V30 2563 H 234.047 0.676998 1.33181 0
M  V30 2564 H 235.929 -0.77395 4.14232 0
M  V30 2565 H 234.604 -1.17571 3.01594 0
M  V30 2566 H 233.511 1.07079 3.58448 0
M  V30 2567 H 234.844 1.38995 4.72167 0
M  V30 2568 N 236.496 -1.42363 0.676048 0
M  V30 2569 C 237.459 -2.29199 0.00766941 0
M  V30 2570 C 238.459 -1.43389 -0.727745 0
M  V30 2571 O 239.649 -1.64764 -0.56556 0
M  V30 2572 C 236.781 -3.2591 -0.999785 0
M  V30 2573 H 237.974 -2.89794 0.771988 0
M  V30 2574 H 235.527 -1.50024 0.438468 0
M  V30 2575 H 236.262 -2.70256 -1.79255 0
M  V30 2576 H 236.047 -3.89202 -0.475829 0
M  V30 2577 H 237.537 -3.91028 -1.46583 0
M  V30 2578 N 237.974 -0.419461 -1.51915 0
M  V30 2579 C 238.937 0.389116 -2.25873 0
M  V30 2580 C 239.937 0.964924 -1.28631 0
M  V30 2581 O 241.127 0.842179 -1.52489 0
M  V30 2582 C 238.259 1.54874 -3.03689 0
M  V30 2583 H 239.452 -0.258799 -2.98781 0
M  V30 2584 H 237.005 -0.172209 -1.55348 0
M  V30 2585 H 237.74 2.23323 -2.35154 0
M  V30 2586 H 237.525 1.14223 -3.75094 0
M  V30 2587 H 239.015 2.12046 -3.59759 0
M  V30 2588 N 239.452 1.56882 -0.150215 0
M  V30 2589 C 240.699 1.96228 0.500093 0
M  V30 2590 C 241.027 1.03522 1.64661 0
M  V30 2591 O 240.282 0.0650683 1.95592 0
M  V30 2592 C 240.581 3.41801 1.04437 0
M  V30 2593 C 240.247 4.50897 0.0159671 0
M  V30 2594 C 238.909 4.8046 -0.266731 0
M  V30 2595 C 241.261 5.16703 -0.683192 0
M  V30 2596 C 238.589 5.73135 -1.25434 0
M  V30 2597 C 240.941 6.10441 -1.65964 0
M  V30 2598 C 239.605 6.38382 -1.95 0
M  V30 2599 H 238.875 0.718048 0.182997 0
M  V30 2600 H 241.522 1.90019 -0.237724 0
M  V30 2601 H 239.827 3.44857 1.85959 0
M  V30 2602 H 241.524 3.69573 1.55618 0
M  V30 2603 H 238.114 4.27891 0.246485 0
M  V30 2604 H 242.298 4.93993 -0.477983 0
M  V30 2605 H 237.554 5.93074 -1.48571 0
M  V30 2606 H 241.728 6.60507 -2.20689 0
M  V30 2607 H 239.355 7.09996 -2.71679 0
M  V30 2608 N 240.93 -0.123565 1.57115 0
M  V30 2609 C 242.346 -0.476961 1.52306 0
M  V30 2610 C 242.546 -1.82109 0.86248 0
M  V30 2611 O 241.602 -2.48586 0.442884 0
M  V30 2612 C 242.915 -0.465661 2.97073 0
M  V30 2613 C 244.463 -0.549534 3.08138 0
M  V30 2614 C 244.938 -0.568669 4.54456 0
M  V30 2615 N 246.429 -0.630237 4.58892 0
M  V30 2616 C 247.164 -0.666415 5.69514 0
M  V30 2617 N 246.66 -0.660514 6.89644 0
M  V30 2618 N 248.453 -0.709077 5.5761 0
M  V30 2619 H 240.604 0.757198 1.98445 0
M  V30 2620 H 242.867 0.278808 0.906074 0
M  V30 2621 H 242.573 0.454232 3.48754 0
M  V30 2622 H 242.447 -1.29513 3.54269 0
M  V30 2623 H 244.834 -1.45985 2.56461 0
M  V30 2624 H 244.915 0.307532 2.53945 0
M  V30 2625 H 244.559 0.337581 5.06777 0
M  V30 2626 H 244.489 -1.44256 5.06456 0
M  V30 2627 H 246.98 -0.641146 3.72421 0
M  V30 2628 H 247.293 -0.690616 7.69708 0
M  V30 2629 H 245.638 -0.628012 6.92157 0
M  V30 2630 H 248.829 -0.711019 4.62668 0
M  V30 2631 H 249.002 -0.733804 6.43832 0
M  V30 2632 N 242.408 -1.52605 -0.393616 0
M  V30 2633 C 243.356 -1.77688 -1.50099 0
M  V30 2634 C 244.35 -0.644615 -1.56656 0
M  V30 2635 O 245.556 -0.826997 -1.59877 0
M  V30 2636 H 241.931 -0.562159 -0.499481 0
M  V30 2637 H 243.902 -2.7043 -1.26135 0
M  V30 2638 C 242.651 -1.95858 -2.87289 0
M  V30 2639 H 241.974 -2.8241 -2.82992 0
M  V30 2640 H 243.414 -2.174 -3.64024 0
M  V30 2641 C 241.873 -0.729848 -3.28899 0
M  V30 2642 O 242.403 0.0949217 -4.01588 0
M  V30 2643 N 240.609 -0.561283 -2.85128 0
M  V30 2644 H 240.156 -1.23357 -2.26143 0
M  V30 2645 H 240.114 0.2595 -3.13327 0
M  V30 2646 N 243.887 0.651787 -1.4349 0
M  V30 2647 C 245.136 1.40754 -1.44469 0
M  V30 2648 C 245.449 1.95463 -0.0731845 0
M  V30 2649 O 246.655 2.71471 0.0395721 0
M  V30 2650 C 245.111 2.54735 -2.5424 0
M  V30 2651 C 244.719 2.06628 -3.97504 0
M  V30 2652 C 246.463 3.32092 -2.64414 0
M  V30 2653 C 244.37 3.17829 -4.98737 0
M  V30 2654 H 243.3 0.528862 -0.53742 0
M  V30 2655 H 245.951 0.703365 -1.69485 0
M  V30 2656 H 244.333 3.2763 -2.22428 0
M  V30 2657 H 245.507 1.40734 -4.38783 0
M  V30 2658 H 243.822 1.42146 -3.91387 0
M  V30 2659 H 246.419 4.14952 -3.37223 0
M  V30 2660 H 246.762 3.80217 -1.69532 0
M  V30 2661 H 247.295 2.66279 -2.95534 0
M  V30 2662 H 244.034 2.74671 -5.95177 0
M  V30 2663 H 243.554 3.82429 -4.62069 0
M  V30 2664 H 245.233 3.82937 -5.21505 0
M  V30 2665 N 245.365 1.30045 0.890287 0
M  V30 2666 C 246.312 1.15976 1.99545 0
M  V30 2667 C 247.282 0.0506202 1.66023 0
M  V30 2668 O 248.467 0.219847 1.89529 0
M  V30 2669 C 245.607 0.852054 3.34416 0
M  V30 2670 C 244.72 2.04255 3.80662 0
M  V30 2671 C 243.855 1.6734 5.04154 0
M  V30 2672 C 242.894 2.82916 5.42794 0
M  V30 2673 N 242.031 2.46333 6.57468 0
M  V30 2674 H 246.871 2.10524 2.10911 0
M  V30 2675 H 244.408 1.04749 1.03276 0
M  V30 2676 H 246.366 0.654296 4.12037 0
M  V30 2677 H 244.996 -0.0565502 3.2275 0
M  V30 2678 H 244.048 2.35172 2.98995 0
M  V30 2679 H 245.36 2.90826 4.05242 0
M  V30 2680 H 244.514 1.43908 5.89386 0
M  V30 2681 H 243.253 0.779308 4.81433 0
M  V30 2682 H 242.258 3.0702 4.56091 0
M  V30 2683 H 243.483 3.73004 5.6749 0
M  V30 2684 H 241.429 1.59423 6.36334 0
M  V30 2685 H 241.346 3.26436 6.81891 0
M  V30 2686 H 242.614 2.26244 7.45945 0
M  V30 2687 N 246.843 -1.10192 1.12674 0
M  V30 2688 C 248.071 -1.85983 0.906527 0
M  V30 2689 C 248.486 -1.80783 -0.544333 0
M  V30 2690 O 247.843 -1.19834 -1.37645 0
M  V30 2691 C 247.894 -3.34281 1.37618 0
M  V30 2692 O 247.615 -3.39401 2.77017 0
M  V30 2693 C 249.116 -4.26938 1.19325 0
M  V30 2694 H 246.336 -0.587716 0.323775 0
M  V30 2695 H 248.88 -1.39284 1.49734 0
M  V30 2696 H 247.035 -3.78436 0.828539 0
M  V30 2697 H 247.449 -4.31838 2.97684 0
M  V30 2698 H 248.923 -5.29181 1.57071 0
M  V30 2699 H 249.4 -4.38995 0.134097 0
M  V30 2700 H 250.006 -3.8859 1.72852 0
M  V30 2701 N 248.321 -0.919034 -1.28029 0
M  V30 2702 C 249.57 -0.550802 -1.94034 0
M  V30 2703 C 249.883 0.910877 -1.73096 0
M  V30 2704 O 251.089 1.3875 -2.33368 0
M  V30 2705 C 249.545 -0.934249 -3.47563 0
M  V30 2706 C 249.153 -2.41602 -3.7727 0
M  V30 2707 C 250.897 -0.636854 -4.19696 0
M  V30 2708 C 248.804 -2.73932 -5.24133 0
M  V30 2709 H 247.734 -0.202273 -0.726362 0
M  V30 2710 H 250.385 -1.11867 -1.45458 0
M  V30 2711 H 248.767 -0.295115 -3.94899 0
M  V30 2712 H 249.941 -3.10233 -3.40723 0
M  V30 2713 H 248.256 -2.68441 -3.18321 0
M  V30 2714 H 250.853 -0.855005 -5.2782 0
M  V30 2715 H 251.196 0.425575 -4.14119 0
M  V30 2716 H 251.729 -1.23469 -3.78154 0
M  V30 2717 H 248.468 -3.79049 -5.34792 0
M  V30 2718 H 247.988 -2.09942 -5.61858 0
M  V30 2719 H 249.667 -2.61215 -5.91925 0
M  V30 2720 N 249.799 1.42003 -0.683588 0
M  V30 2721 C 250.762 2.29191 -0.0198243 0
M  V30 2722 C 251.762 1.43773 0.72013 0
M  V30 2723 O 252.952 1.65061 0.556815 0
M  V30 2724 C 250.084 3.26435 0.982487 0
M  V30 2725 H 251.277 2.8938 -0.787345 0
M  V30 2726 H 248.83 1.49789 -0.446418 0
M  V30 2727 H 249.565 2.71203 1.77819 0
M  V30 2728 H 249.35 3.89449 0.455182 0
M  V30 2729 H 250.84 3.918 1.44508 0
M  V30 2730 N 251.277 0.427512 1.51691 0
M  V30 2731 C 252.187 -0.39527 2.31246 0
M  V30 2732 C 253.203 -1.03674 1.39742 0
M  V30 2733 O 254.379 -1.03425 1.72816 0
M  V30 2734 C 251.444 -1.48706 3.13189 0
M  V30 2735 C 250.505 -0.866743 4.20459 0
M  V30 2736 C 249.738 -1.90651 4.98486 0
M  V30 2737 O 249.961 -3.12733 4.77026 0
M  V30 2738 O 248.895 -1.5025 5.82845 0
M  V30 2739 H 252.721 0.253918 3.02637 0
M  V30 2740 H 250.306 0.190274 1.48183 0
M  V30 2741 H 252.188 -2.12047 3.64162 0
M  V30 2742 H 250.863 -2.12051 2.44573 0
M  V30 2743 H 249.77 -0.195544 3.73589 0
M  V30 2744 H 251.103 -0.276934 4.9142 0
M  V30 2745 N 252.755 -1.56801 0.158532 0
M  V30 2746 C 253.995 -1.98383 -0.49229 0
M  V30 2747 C 254.359 -1.04184 -1.61275 0
M  V30 2748 O 255.56 -1.34856 -2.32524 0
M  V30 2749 C 253.831 -3.4385 -0.974766 0
M  V30 2750 S 255.39 -4.07459 -1.62857 0
M  V30 2751 H 252.208 -0.693041 -0.158794 0
M  V30 2752 H 254.81 -1.93856 0.252974 0
M  V30 2753 H 253.514 -4.10131 -0.148688 0
M  V30 2754 H 253.045 -3.52115 -1.75438 0
M  V30 2755 H 255.06 -4.01458 -2.91627 0
M  V30 2756 N 254.233 0.115231 -1.57178 0
M  V30 2757 C 255.163 1.1423 -2.03651 0
M  V30 2758 C 256.144 1.42967 -0.921655 0
M  V30 2759 O 257.329 1.53343 -1.19162 0
M  V30 2760 C 254.459 2.4675 -2.44401 0
M  V30 2761 C 253.413 2.32467 -3.59365 0
M  V30 2762 C 252.739 3.69984 -3.86026 0
M  V30 2763 C 254.039 1.78203 -4.90959 0
M  V30 2764 H 255.733 0.755749 -2.89705 0
M  V30 2765 H 253.279 0.362093 -1.39373 0
M  V30 2766 H 255.232 3.18854 -2.75517 0
M  V30 2767 H 253.956 2.87302 -1.55322 0
M  V30 2768 H 252.615 1.62811 -3.28463 0
M  V30 2769 H 252.263 4.08028 -2.94147 0
M  V30 2770 H 251.963 3.61279 -4.63412 0
M  V30 2771 H 253.487 4.43587 -4.19599 0
M  V30 2772 H 254.901 2.40128 -5.20587 0
M  V30 2773 H 253.298 1.8031 -5.72371 0
M  V30 2774 H 254.368 0.739876 -4.79222 0
M  V30 2775 N 255.711 1.52812 0.385517 0
M  V30 2776 C 256.674 1.77188 1.45386 0
M  V30 2777 C 257.674 0.641953 1.4743 0
M  V30 2778 O 258.864 0.910033 1.4854 0
M  V30 2779 C 255.996 1.87582 2.8465 0
M  V30 2780 H 257.189 2.72583 1.25054 0
M  V30 2781 H 254.742 1.43586 0.617467 0
M  V30 2782 H 255.477 0.941849 3.10322 0
M  V30 2783 H 255.262 2.69748 2.84567 0
M  V30 2784 H 256.752 2.08102 3.62054 0
M  V30 2785 N 257.189 -0.644168 1.43834 0
M  V30 2786 C 258.466 -1.40188 1.36406 0
M  V30 2787 C 258.846 -2.11094 0.0163124 0
M  V30 2788 O 258.194 -2.05426 -1.00062 0
M  V30 2789 C 258.404 -2.3791 2.55343 0
M  V30 2790 C 259.752 -3.01637 2.98832 0
M  V30 2791 O 260.776 -2.48237 2.55455 0
M  V30 2792 O 259.635 -3.98477 3.74003 0
M  V30 2793 H 256.729 -0.626773 0.539523 0
M  V30 2794 H 259.275 -0.670317 1.559 0
M  V30 2795 H 258.047 -1.84525 3.4506 0
M  V30 2796 H 257.67 -3.18503 2.37995 0
M  V30 2797 N 258.668 -1.30515 -0.883378 0
M  V30 2798 C 259.578 -1.18959 -2.02203 0
M  V30 2799 C 260.594 -0.109172 -1.73657 0
M  V30 2800 O 261.77 -0.324413 -1.9877 0
M  V30 2801 C 258.835 -0.883871 -3.35244 0
M  V30 2802 C 257.896 -2.04982 -3.77201 0
M  V30 2803 C 257.129 -1.75859 -5.03894 0
M  V30 2804 O 257.352 -0.687276 -5.66244 0
M  V30 2805 O 256.286 -2.61146 -5.42297 0
M  V30 2806 H 260.112 -2.14616 -2.1488 0
M  V30 2807 H 257.697 -1.10124 -1.0096 0
M  V30 2808 H 259.579 -0.728644 -4.15053 0
M  V30 2809 H 258.254 0.0427798 -3.23672 0
M  V30 2810 H 257.161 -2.26038 -2.9809 0
M  V30 2811 H 258.494 -2.95825 -3.93381 0
M  V30 2812 N 260.146 1.09593 -1.13257 0
M  V30 2813 C 261.076 2.18214 -0.830946 0
M  V30 2814 C 262.057 1.68812 0.208966 0
M  V30 2815 O 263.242 1.9408 0.0682666 0
M  V30 2816 C 260.372 3.46051 -0.294296 0
M  V30 2817 C 259.326 4.08778 -1.26826 0
M  V30 2818 C 258.652 5.31419 -0.591449 0
M  V30 2819 C 259.952 4.51476 -2.62615 0
M  V30 2820 H 261.646 2.43703 -1.73923 0
M  V30 2821 H 259.192 1.17128 -0.837675 0
M  V30 2822 H 261.145 4.2134 -0.0709606 0
M  V30 2823 H 259.869 3.20079 0.649366 0
M  V30 2824 H 258.528 3.35505 -1.47756 0
M  V30 2825 H 258.176 5.01727 0.357633 0
M  V30 2826 H 257.876 5.74341 -1.24123 0
M  V30 2827 H 259.4 6.09433 -0.377355 0
M  V30 2828 H 260.814 5.17999 -2.45663 0
M  V30 2829 H 259.211 5.05277 -3.23752 0
M  V30 2830 H 260.281 3.63962 -3.20406 0
M  V30 2831 N 261.624 0.925811 1.2754 0
M  V30 2832 C 262.873 0.561084 1.93739 0
M  V30 2833 C 263.186 -0.901685 1.73577 0
M  V30 2834 O 264.392 -1.37511 2.34101 0
M  V30 2835 C 262.848 0.952668 3.47062 0
M  V30 2836 C 262.456 2.43599 3.75983 0
M  V30 2837 C 264.2 0.659103 4.19352 0
M  V30 2838 C 262.107 2.76707 5.22673 0
M  V30 2839 H 261.037 0.206122 0.725279 0
M  V30 2840 H 263.688 1.12637 1.44863 0
M  V30 2841 H 262.07 0.316053 3.94737 0
M  V30 2842 H 263.244 3.12035 3.39073 0
M  V30 2843 H 261.559 2.70125 3.16893 0
M  V30 2844 H 264.156 0.882985 5.27359 0
M  V30 2845 H 264.499 -0.403607 4.14339 0
M  V30 2846 H 265.032 1.25473 3.77494 0
M  V30 2847 H 261.771 3.8188 5.32774 0
M  V30 2848 H 261.291 2.12919 5.60737 0
M  V30 2849 H 262.97 2.6435 5.90532 0
M  V30 2850 N 263.102 -1.41638 0.69111 0
M  V30 2851 C 264.05 -2.32597 0.0115199 0
M  V30 2852 C 265.044 -1.5072 -0.773296 0
M  V30 2853 O 266.25 -1.66685 -0.67942 0
M  V30 2854 H 262.625 -0.751849 -0.0150746 0
M  V30 2855 H 264.596 -2.87593 0.795791 0
M  V30 2856 C 263.345 -3.35467 -0.914172 0
M  V30 2857 H 262.668 -3.9852 -0.319687 0
M  V30 2858 H 264.108 -4.01662 -1.35808 0
M  V30 2859 C 262.567 -2.69004 -2.02826 0
M  V30 2860 O 263.097 -2.53444 -3.11655 0
M  V30 2861 N 261.303 -2.2777 -1.80469 0
M  V30 2862 H 260.85 -2.40626 -0.919615 0
M  V30 2863 H 260.808 -1.83635 -2.55197 0
M  V30 2864 N 264.58 -0.43555 -1.51462 0
M  V30 2865 C 265.543 0.365137 -2.26273 0
M  V30 2866 C 266.543 0.951227 -1.29647 0
M  V30 2867 O 267.733 0.825958 -1.53374 0
M  V30 2868 C 264.865 1.51645 -3.05314 0
M  V30 2869 H 266.058 -0.290474 -2.9849 0
M  V30 2870 H 263.611 -0.188676 -1.55157 0
M  V30 2871 H 264.346 2.20816 -2.3751 0
M  V30 2872 H 264.131 1.10238 -3.76284 0
M  V30 2873 H 265.621 2.08218 -3.61987 0
M  V30 2874 N 266.058 1.56714 -0.166846 0
M  V30 2875 C 267.021 2.16539 0.751232 0
M  V30 2876 C 268.021 1.11228 1.16125 0
M  V30 2877 O 269.211 1.36765 1.07894 0
M  V30 2878 C 266.343 2.74462 2.02196 0
M  V30 2879 H 267.536 2.99013 0.230499 0
M  V30 2880 H 265.089 1.56081 0.0826982 0
M  V30 2881 H 265.824 1.95709 2.58589 0
M  V30 2882 H 265.609 3.51527 1.73698 0
M  V30 2883 H 267.099 3.20489 2.67725 0
M  V30 2884 N 267.536 -0.106894 1.57237 0
M  V30 2885 C 268.483 -1.13049 2.01217 0
M  V30 2886 C 269.453 -1.40471 0.886403 0
M  V30 2887 O 270.638 -1.52133 1.15153 0
M  V30 2888 C 267.778 -2.4487 2.43172 0
M  V30 2889 C 266.891 -2.24281 3.69218 0
M  V30 2890 C 266.026 -3.49417 4.00101 0
M  V30 2891 C 265.065 -3.24038 5.19294 0
M  V30 2892 N 264.202 -4.41409 5.45988 0
M  V30 2893 H 269.042 -0.748456 2.88448 0
M  V30 2894 H 266.579 -0.358054 1.42676 0
M  V30 2895 H 268.537 -3.21786 2.65537 0
M  V30 2896 H 267.167 -2.80944 1.58967 0
M  V30 2897 H 266.219 -1.38224 3.54398 0
M  V30 2898 H 267.531 -2.01512 4.56283 0
M  V30 2899 H 266.685 -4.34746 4.2318 0
M  V30 2900 H 265.424 -3.75229 3.11535 0
M  V30 2901 H 264.429 -2.37102 4.96047 0
M  V30 2902 H 265.654 -2.99584 6.09447 0
M  V30 2903 H 263.6 -4.67319 4.60379 0
M  V30 2904 H 263.517 -4.21788 6.274 0
M  V30 2905 H 264.785 -5.27836 5.73593 0
M  V30 2906 N 269.014 -1.53014 -0.377408 0
M  V30 2907 C 270.262 -1.6829 -1.11906 0
M  V30 2908 C 270.583 -0.431206 -1.90173 0
M  V30 2909 O 269.853 0.554595 -1.87886 0
M  V30 2910 H 268.433 -0.620371 -0.416112 0
M  V30 2911 H 271.095 -1.90167 -0.426893 0
M  V30 2912 H 270.191 -2.53862 -1.8155 0
M  V30 2913 N 270.492 0.636531 -1.44174 0
M  V30 2914 C 271.717 1.42847 -1.50364 0
M  V30 2915 C 272.142 1.87665 -0.127867 0
M  V30 2916 O 271.5 1.58408 0.88185 0
M  V30 2917 C 271.548 2.62854 -2.4686 0
M  V30 2918 O 270.652 3.62501 -1.9664 0
M  V30 2919 H 269.993 0.427642 -0.507955 0
M  V30 2920 H 272.523 0.777422 -1.89255 0
M  V30 2921 H 272.533 3.10465 -2.64718 0
M  V30 2922 H 271.208 2.29578 -3.46795 0
M  V30 2923 H 269.785 3.21735 -1.88523 0
M  V30 2924 N 271.97 1.30982 0.876444 0
M  V30 2925 C 273.195 1.23373 1.66715 0
M  V30 2926 C 273.62 -0.19885 1.87046 0
M  V30 2927 O 272.978 -1.1427 1.40756 0
M  V30 2928 C 273.026 1.97644 3.01611 0
M  V30 2929 O 272.13 1.30935 3.91062 0
M  V30 2930 H 271.471 0.426279 0.509099 0
M  V30 2931 H 274.001 1.72944 1.09323 0
M  V30 2932 H 274.011 2.06992 3.51594 0
M  V30 2933 H 272.686 3.01829 2.86133 0
M  V30 2934 H 271.263 1.29996 3.49507 0
M  V30 2935 N 273.449 -1.08991 1.13837 0
M  V30 2936 C 274.397 -2.17841 0.815347 0
M  V30 2937 C 275.391 -1.68164 -0.204233 0
M  V30 2938 O 276.597 -1.79897 -0.0609304 0
M  V30 2939 H 272.972 -0.710654 0.245915 0
M  V30 2940 H 274.943 -2.42315 1.74143 0
M  V30 2941 C 273.692 -3.46381 0.302614 0
M  V30 2942 H 273.015 -3.84979 1.0785 0
M  V30 2943 H 274.455 -4.23844 0.115074 0
M  V30 2944 C 272.914 -3.22556 -0.972591 0
M  V30 2945 O 273.444 -3.45599 -2.04754 0
M  V30 2946 N 271.65 -2.76134 -0.905455 0
M  V30 2947 H 271.197 -2.57582 -0.0305421 0
M  V30 2948 H 271.155 -2.60571 -1.75926 0
M  V30 2949 N 274.927 -0.932562 -1.27047 0
M  V30 2950 C 276.152 -0.591474 -1.98787 0
M  V30 2951 C 276.577 0.824601 -1.69062 0
M  V30 2952 O 275.935 1.5541 -0.933677 0
M  V30 2953 C 275.983 -0.829808 -3.50922 0
M  V30 2954 O 275.087 0.102266 -4.12273 0
M  V30 2955 H 274.428 -0.227185 -0.623926 0
M  V30 2956 H 276.958 -1.25314 -1.61733 0
M  V30 2957 H 276.968 -0.747292 -4.01098 0
M  V30 2958 H 275.643 -1.86201 -3.7189 0
M  V30 2959 H 274.22 -0.0305761 -3.72887 0
M  V30 2960 N 276.405 1.4127 -0.698611 0
M  V30 2961 C 277.635 2.05205 -0.239644 0
M  V30 2962 C 278.043 1.52684 1.11733 0
M  V30 2963 O 277.386 0.671222 1.70998 0
M  V30 2964 C 277.448 3.59289 -0.123126 0
M  V30 2965 C 277.112 4.34619 -1.41263 0
M  V30 2966 C 278.109 4.63701 -2.35111 0
M  V30 2967 C 275.794 4.73837 -1.66684 0
M  V30 2968 C 277.788 5.30966 -3.52639 0
M  V30 2969 C 275.475 5.40837 -2.84498 0
M  V30 2970 C 276.473 5.69329 -3.77298 0
M  V30 2971 O 276.161 6.34949 -4.93047 0
M  V30 2972 H 275.893 0.66723 -0.108537 0
M  V30 2973 H 278.447 1.81974 -0.952602 0
M  V30 2974 H 276.677 3.81272 0.645628 0
M  V30 2975 H 278.366 4.04797 0.299056 0
M  V30 2976 H 279.132 4.33882 -2.16729 0
M  V30 2977 H 275.011 4.51039 -0.953135 0
M  V30 2978 H 278.555 5.53121 -4.25091 0
M  V30 2979 H 274.452 5.70075 -3.02795 0
M  V30 2980 H 275.22 6.53445 -4.92902 0
M  V30 2981 N 277.883 0.443576 1.51229 0
M  V30 2982 C 278.846 -0.353132 2.26463 0
M  V30 2983 C 279.846 -0.944338 1.3015 0
M  V30 2984 O 281.036 -0.817813 1.5381 0
M  V30 2985 C 278.168 -1.50023 3.06114 0
M  V30 2986 H 279.361 0.3063 2.98332 0
M  V30 2987 H 276.914 0.196902 1.55055 0
M  V30 2988 H 277.649 -2.19553 2.38677 0
M  V30 2989 H 277.434 -1.08241 3.76864 0
M  V30 2990 H 278.924 -2.06296 3.63087 0
M  V30 2991 N 279.361 -1.56624 0.175154 0
M  V30 2992 C 280.61 -1.96173 -0.468921 0
M  V30 2993 C 280.923 -1.06401 -1.64128 0
M  V30 2994 O 282.129 -1.35648 -2.35185 0
M  V30 2995 C 280.585 -3.48833 -0.885633 0
M  V30 2996 C 280.193 -4.47237 0.261343 0
M  V30 2997 C 281.937 -3.97194 -1.49791 0
M  V30 2998 C 279.844 -5.9114 -0.175214 0
M  V30 2999 H 278.774 -0.732455 -0.178958 0
M  V30 3000 H 281.425 -1.81591 0.263997 0
M  V30 3001 H 279.807 -3.58848 -1.67464 0
M  V30 3002 H 280.981 -4.4894 1.03871 0
M  V30 3003 H 279.296 -4.08956 0.783827 0
M  V30 3004 H 281.893 -5.02167 -1.83665 0
M  V30 3005 H 282.236 -3.40351 -2.39722 0
M  V30 3006 H 282.769 -3.90212 -0.773267 0
M  V30 3007 H 279.508 -6.51865 0.689414 0
M  V30 3008 H 279.028 -5.92735 -0.91786 0
M  V30 3009 H 280.707 -6.44044 -0.617792 0
M  V30 3010 N 280.839 0.0985539 -1.57292 0
M  V30 3011 C 281.786 1.11981 -2.01814 0
M  V30 3012 C 282.756 1.39999 -0.89384 0
M  V30 3013 O 283.941 1.5152 -1.15958 0
M  V30 3014 C 281.081 2.43577 -2.44467 0
M  V30 3015 C 280.194 2.2232 -3.70402 0
M  V30 3016 C 279.329 3.4729 -4.01949 0
M  V30 3017 C 278.368 3.2128 -5.21005 0
M  V30 3018 N 277.505 4.38507 -5.48321 0
M  V30 3019 H 282.345 0.733149 -2.88841 0
M  V30 3020 H 279.882 0.350482 -1.42864 0
M  V30 3021 H 281.84 3.20373 -2.6724 0
M  V30 3022 H 280.47 2.80097 -1.60455 0
M  V30 3023 H 279.522 1.36343 -3.55126 0
M  V30 3024 H 280.834 1.99089 -4.57345 0
M  V30 3025 H 279.988 4.32495 -4.25479 0
M  V30 3026 H 278.727 3.73572 -3.13521 0
M  V30 3027 H 277.732 2.34468 -4.97298 0
M  V30 3028 H 278.957 2.96348 -6.11028 0
M  V30 3029 H 276.903 4.64871 -4.62851 0
M  V30 3030 H 276.82 4.18455 -6.29628 0
M  V30 3031 H 278.088 5.24787 -5.76385 0
M  V30 3032 N 282.317 1.53212 0.369288 0
M  V30 3033 C 283.264 1.79388 1.45219 0
M  V30 3034 C 284.234 0.638059 1.53356 0
M  V30 3035 O 285.419 0.879852 1.69302 0
M  V30 3036 C 282.559 1.98623 2.82211 0
M  V30 3037 C 281.672 3.26337 2.8307 0
M  V30 3038 C 280.807 3.35779 4.11614 0
M  V30 3039 C 279.846 4.5754 4.06601 0
M  V30 3040 N 278.983 4.64155 5.26787 0
M  V30 3041 H 283.823 2.71794 1.22198 0
M  V30 3042 H 281.36 1.34642 0.592444 0
M  V30 3043 H 283.318 2.07761 3.61789 0
M  V30 3044 H 281.948 1.09558 3.03639 0
M  V30 3045 H 281 3.26171 1.95747 0
M  V30 3046 H 282.312 4.15988 2.75237 0
M  V30 3047 H 281.466 3.44208 4.99606 0
M  V30 3048 H 280.205 2.44137 4.22195 0
M  V30 3049 H 279.21 4.49215 3.16996 0
M  V30 3050 H 280.435 5.50519 3.97625 0
M  V30 3051 H 278.381 3.75413 5.3796 0
M  V30 3052 H 278.298 5.47706 5.21109 0
M  V30 3053 H 279.566 4.76863 6.16621 0
M  V30 3054 N 283.795 -0.628877 1.44509 0
M  V30 3055 C 284.742 -1.74074 1.51549 0
M  V30 3056 C 285.712 -1.62084 0.363021 0
M  V30 3057 O 286.897 -1.81975 0.573567 0
M  V30 3058 C 284.037 -3.12328 1.46784 0
M  V30 3059 C 283.15 -3.35277 2.72422 0
M  V30 3060 C 282.285 -4.63515 2.59475 0
M  V30 3061 C 281.324 -4.7965 3.80266 0
M  V30 3062 N 280.461 -5.99168 3.65981 0
M  V30 3063 H 285.301 -1.67392 2.46544 0
M  V30 3064 H 282.838 -0.816527 1.22357 0
M  V30 3065 H 284.796 -3.92286 1.42012 0
M  V30 3066 H 283.426 -3.18018 0.553544 0
M  V30 3067 H 282.478 -2.49242 2.87372 0
M  V30 3068 H 283.79 -3.43078 3.62076 0
M  V30 3069 H 282.944 -5.51638 2.52548 0
M  V30 3070 H 281.683 -4.58076 1.67384 0
M  V30 3071 H 280.688 -3.89957 3.87574 0
M  V30 3072 H 281.913 -4.86902 4.73395 0
M  V30 3073 H 279.859 -5.94814 2.76644 0
M  V30 3074 H 279.776 -6.08035 4.49254 0
M  V30 3075 H 281.044 -6.89846 3.6295 0
M  V30 3076 N 285.273 -1.31445 -0.869486 0
M  V30 3077 C 286.55 -1.11795 -1.60503 0
M  V30 3078 C 286.93 0.327168 -2.08549 0
M  V30 3079 O 286.278 1.32135 -1.8642 0
M  V30 3080 C 286.488 -2.13258 -2.76265 0
M  V30 3081 C 287.836 -2.45805 -3.46215 0
M  V30 3082 O 288.86 -2.11688 -2.86473 0
M  V30 3083 O 287.719 -3.04228 -4.5399 0
M  V30 3084 H 284.813 -0.430421 -0.706163 0
M  V30 3085 H 287.359 -1.42925 -0.914907 0
M  V30 3086 H 286.131 -3.10461 -2.3818 0
M  V30 3087 H 285.754 -1.83035 -3.52964 0
M  V30 3088 N 286.751 1.08385 -1.14413 0
M  V30 3089 C 287.661 2.18856 -0.844951 0
M  V30 3090 C 288.677 1.73121 0.174668 0
M  V30 3091 O 289.853 2.014 0.00312857 0
M  V30 3092 C 286.918 3.45155 -0.32696 0
M  V30 3093 C 285.979 4.05513 -1.40916 0
M  V30 3094 C 285.212 5.25784 -0.915793 0
M  V30 3095 O 285.435 5.69884 0.242651 0
M  V30 3096 O 284.369 5.77545 -1.69487 0
M  V30 3097 H 288.195 2.46919 -1.76818 0
M  V30 3098 H 285.78 1.17524 -0.922411 0
M  V30 3099 H 287.662 4.21377 -0.0440211 0
M  V30 3100 H 286.337 3.18668 0.568539 0
M  V30 3101 H 285.244 3.30879 -1.74556 0
M  V30 3102 H 286.577 4.3625 -2.27919 0
M  V30 3103 N 288.23 0.939286 1.26551 0
M  V30 3104 C 289.16 0.465044 2.28822 0
M  V30 3105 C 290.141 -0.480692 1.63167 0
M  V30 3106 O 291.326 -0.382955 1.90387 0
M  V30 3107 C 288.456 -0.27234 3.46231 0
M  V30 3108 C 287.41 0.58666 4.2396 0
M  V30 3109 C 286.736 -0.280573 5.33963 0
M  V30 3110 C 288.036 1.85704 4.88171 0
M  V30 3111 H 289.73 1.31979 2.68741 0
M  V30 3112 H 287.276 0.636061 1.29191 0
M  V30 3113 H 289.229 -0.615133 4.16886 0
M  V30 3114 H 287.953 -1.16121 3.0526 0
M  V30 3115 H 286.612 0.91232 3.55067 0
M  V30 3116 H 286.26 -1.16874 4.89234 0
M  V30 3117 H 285.96 0.29076 5.8688 0
M  V30 3118 H 287.484 -0.618678 6.07458 0
M  V30 3119 H 288.898 1.58161 5.51052 0
M  V30 3120 H 287.295 2.37279 5.51197 0
M  V30 3121 H 288.365 2.56957 4.11219 0
M  V30 3122 N 289.708 -1.40897 0.706093 0
M  V30 3123 C 290.618 -2.3455 0.0482286 0
M  V30 3124 C 291.634 -1.56796 -0.754396 0
M  V30 3125 O 292.81 -1.89228 -0.689538 0
M  V30 3126 C 289.875 -3.35625 -0.869303 0
M  V30 3127 C 288.936 -4.29261 -0.0576994 0
M  V30 3128 C 288.169 -5.25508 -0.931531 0
M  V30 3129 O 288.392 -5.27472 -2.17092 0
M  V30 3130 O 287.326 -6.00727 -0.375587 0
M  V30 3131 H 291.152 -2.92407 0.820476 0
M  V30 3132 H 288.737 -1.4193 0.4665 0
M  V30 3133 H 290.619 -3.97635 -1.39514 0
M  V30 3134 H 289.294 -2.80196 -1.62086 0
M  V30 3135 H 288.201 -3.70566 0.512988 0
M  V30 3136 H 289.534 -4.87817 0.655426 0
M  V30 3137 N 291.186 -0.45159 -1.50991 0
M  V30 3138 C 292.602 -0.104647 -1.59257 0
M  V30 3139 C 292.802 1.38728 -1.4614 0
M  V30 3140 O 291.858 2.15866 -1.30989 0
M  V30 3141 C 293.171 -0.637468 -2.93865 0
M  V30 3142 C 294.719 -0.599166 -3.07212 0
M  V30 3143 C 295.194 -1.1092 -4.44366 0
M  V30 3144 N 296.685 -1.06778 -4.50725 0
M  V30 3145 C 297.42 -1.43314 -5.55201 0
M  V30 3146 N 296.916 -1.87204 -6.67028 0
M  V30 3147 N 298.709 -1.3504 -5.45638 0
M  V30 3148 H 290.86 -1.42214 -1.57762 0
M  V30 3149 H 293.123 -0.586921 -0.744465 0
M  V30 3150 H 292.829 -1.68187 -3.08879 0
M  V30 3151 H 292.703 -0.0702139 -3.77135 0
M  V30 3152 H 295.09 0.436277 -2.91857 0
M  V30 3153 H 295.171 -1.20299 -2.25747 0
M  V30 3154 H 294.815 -2.14318 -4.60467 0
M  V30 3155 H 294.745 -0.481773 -5.24392 0
M  V30 3156 H 297.236 -0.745643 -3.70471 0
M  V30 3157 H 297.549 -2.13282 -7.42786 0
M  V30 3158 H 295.894 -1.91142 -6.68199 0
M  V30 3159 H 299.085 -1.00607 -4.57161 0
M  V30 3160 H 299.258 -1.63841 -6.26945 0
M  V30 3161 N 292.664 1.56529 -0.183458 0
M  V30 3162 C 293.91 1.97537 0.459036 0
M  V30 3163 C 294.243 1.06989 1.62071 0
M  V30 3164 O 293.518 0.11948 1.94133 0
M  V30 3165 C 293.801 3.47874 0.930368 0
M  V30 3166 C 293.654 4.492 -0.232317 0
M  V30 3167 C 294.973 4.01612 1.79989 0
M  V30 3168 H 292.092 0.718204 0.165383 0
M  V30 3169 H 294.734 1.88042 -0.272038 0
M  V30 3170 H 292.884 3.56095 1.55333 0
M  V30 3171 H 294.556 4.53027 -0.86972 0
M  V30 3172 H 292.799 4.24657 -0.885928 0
M  V30 3173 H 293.47 5.51823 0.139796 0
M  V30 3174 H 295.946 3.96097 1.27461 0
M  V30 3175 H 294.822 5.07195 2.09867 0
M  V30 3176 H 295.083 3.46163 2.74998 0
M  V30 3177 N 294.142 -0.090211 1.57342 0
M  V30 3178 C 295.105 -1.09335 2.01441 0
M  V30 3179 C 296.105 -1.32666 0.908641 0
M  V30 3180 O 297.295 -1.28697 1.174 0
M  V30 3181 C 294.427 -2.44136 2.3793 0
M  V30 3182 H 295.62 -0.713662 2.91285 0
M  V30 3183 H 293.173 -0.335404 1.52659 0
M  V30 3184 H 293.908 -2.86972 1.51055 0
M  V30 3185 H 293.693 -2.28548 3.18603 0
M  V30 3186 H 295.183 -3.16277 2.72688 0
M  V30 3187 N 295.62 -1.53406 -0.361157 0
M  V30 3188 C 296.567 -1.80156 -1.44265 0
M  V30 3189 C 297.537 -0.646183 -1.53015 0
M  V30 3190 O 298.722 -0.888818 -1.68833 0
M  V30 3191 C 295.862 -2.00116 -2.81154 0
M  V30 3192 C 294.975 -3.27833 -2.81335 0
M  V30 3193 C 294.11 -3.37957 -4.09828 0
M  V30 3194 C 293.149 -4.59689 -4.04168 0
M  V30 3195 N 292.286 -4.66942 -5.24318 0
M  V30 3196 H 297.126 -2.72438 -1.20754 0
M  V30 3197 H 294.663 -1.34954 -0.585296 0
M  V30 3198 H 296.621 -2.09677 -3.60682 0
M  V30 3199 H 295.251 -1.11167 -3.03054 0
M  V30 3200 H 294.303 -3.27204 -1.94014 0
M  V30 3201 H 295.615 -4.17442 -2.73027 0
M  V30 3202 H 294.769 -3.46853 -4.97773 0
M  V30 3203 H 293.508 -2.46372 -4.20894 0
M  V30 3204 H 292.513 -4.50889 -3.14609 0
M  V30 3205 H 293.738 -5.5262 -3.947 0
M  V30 3206 H 291.684 -3.7826 -5.35962 0
M  V30 3207 H 291.601 -5.50462 -5.18197 0
M  V30 3208 H 292.869 -4.80127 -6.14084 0
M  V30 3209 N 297.098 0.621204 -1.44841 0
M  V30 3210 C 298.323 1.41244 -1.51871 0
M  V30 3211 C 298.748 1.87519 -0.147764 0
M  V30 3212 O 298.106 1.59334 0.865 0
M  V30 3213 C 298.154 2.60221 -2.49634 0
M  V30 3214 O 297.258 3.60395 -2.00473 0
M  V30 3215 H 296.599 0.42223 -0.512463 0
M  V30 3216 H 299.129 0.757305 -1.90069 0
M  V30 3217 H 299.139 3.0764 -2.67996 0
M  V30 3218 H 297.814 2.25887 -3.4921 0
M  V30 3219 H 296.391 3.19717 -1.91925 0
M  V30 3220 N 298.576 1.31904 0.862503 0
M  V30 3221 C 299.524 1.20125 1.9918 0
M  V30 3222 C 300.518 0.107824 1.69056 0
M  V30 3223 O 301.724 0.270223 1.7796 0
M  V30 3224 H 298.099 0.372148 0.65346 0
M  V30 3225 H 300.07 2.15652 2.06244 0
M  V30 3226 C 298.819 0.933099 3.34946 0
M  V30 3227 H 298.142 1.76664 3.5865 0
M  V30 3228 H 299.582 0.890892 4.14535 0
M  V30 3229 C 298.041 -0.364172 3.34926 0
M  V30 3230 O 298.571 -1.37858 3.77304 0
M  V30 3231 N 296.777 -0.383362 2.8806 0
M  V30 3232 H 296.324 0.442651 2.53768 0
M  V30 3233 H 296.282 -1.25123 2.8843 0
M  V30 3234 N 300.054 -1.07777 1.14986 0
M  V30 3235 C 301.47 -1.32373 0.891596 0
M  V30 3236 C 301.67 -1.9609 -0.463788 0
M  V30 3237 O 300.726 -2.21801 -1.20667 0
M  V30 3238 C 302.039 -2.21905 2.02925 0
M  V30 3239 C 303.587 -2.35367 2.06329 0
M  V30 3240 C 304.062 -3.28245 3.19405 0
M  V30 3241 N 305.553 -3.35824 3.19024 0
M  V30 3242 C 306.288 -4.07739 4.03158 0
M  V30 3243 N 305.784 -4.82306 4.97346 0
M  V30 3244 N 307.577 -4.03635 3.91197 0
M  V30 3245 H 299.728 -0.648039 2.02273 0
M  V30 3246 H 301.991 -0.348149 0.881757 0
M  V30 3247 H 301.697 -1.82342 3.0074 0
M  V30 3248 H 301.571 -3.22407 1.95789 0
M  V30 3249 H 303.958 -2.74186 1.09116 0
M  V30 3250 H 304.039 -1.34585 2.17533 0
M  V30 3251 H 303.683 -2.90146 4.16867 0
M  V30 3252 H 303.613 -4.28971 3.05437 0
M  V30 3253 H 306.104 -2.8267 2.50811 0
M  V30 3254 H 306.417 -5.34661 5.57994 0
M  V30 3255 H 304.762 -4.81337 5.01338 0
M  V30 3256 H 307.953 -3.44491 3.16928 0
M  V30 3257 H 308.126 -4.59417 4.5699 0
M  V30 3258 O 301.571 -1.07645 -1.20395 0
M  V30 3259 H 302.262 -0.764187 -1.77988 0
M  V30 END ATOM
M  V30 BEGIN BOND
M  V30 END BOND
M  V30 END CTAB
M  END
$$$$
